drugbank_target|P11047 Laminin subunit gamma-1 (DB06245)
 OpenBabel12092120053D

  0  0  0     0  0            999 V3000
M  V30 BEGIN CTAB
M  V30 COUNTS 24193 24406 0 0 0
M  V30 BEGIN ATOM
M  V30 1 H -0.908 1.98254 -0.117106 0
M  V30 2 N 0 1.576 0 0
M  V30 3 C 0.933 2.03868 1.02534 0
M  V30 4 C 1.911 0.928543 1.3348 0
M  V30 5 O 3.095 1.19667 1.45644 0
M  V30 6 C 0.222 2.43627 2.35294 0
M  V30 7 C -0.732 3.65373 2.2001 0
M  V30 8 S 0.101 5.13292 1.52614 0
M  V30 9 C 1.257 5.56322 2.86805 0
M  V30 10 H 1.49 2.90518 0.631377 0
M  V30 11 H -0.977 1.52953 0.210867 0
M  V30 12 H 0.981 2.67203 3.11629 0
M  V30 13 H -0.358 1.57376 2.7183 0
M  V30 14 H -1.165 3.90944 3.18086 0
M  V30 15 H -1.563 3.418 1.51819 0
M  V30 16 H 0.729 5.58782 3.83104 0
M  V30 17 H 1.672 6.56266 2.65933 0
M  V30 18 H 2.08 4.83886 2.90714 0
M  V30 19 N 1.4781 -0.272755 1.55222 0
M  V30 20 C 2.8941 -0.619959 1.47067 0
M  V30 21 C 3.0941 -1.895 0.684978 0
M  V30 22 O 2.1501 -2.51675 0.203931 0
M  V30 23 C 3.4631 -0.746693 2.91282 0
M  V30 24 C 5.0111 -0.840731 3.01497 0
M  V30 25 C 5.4861 -0.99924 4.46967 0
M  V30 26 N 6.9771 -1.06476 4.50796 0
M  V30 27 C 7.7121 -1.20621 5.6057 0
M  V30 28 N 7.2081 -1.31483 6.80209 0
M  V30 29 N 9.0011 -1.23733 5.48312 0
M  V30 30 H 1.1521 0.564606 2.04758 0
M  V30 31 H 3.4151 0.191177 0.928523 0
M  V30 32 H 3.1211 0.119753 3.51496 0
M  V30 33 H 2.9951 -1.6269 3.40311 0
M  V30 34 H 5.3821 -1.69764 2.41379 0
M  V30 35 H 5.4631 0.0640874 2.5572 0
M  V30 36 H 5.1071 -0.146984 5.07687 0
M  V30 37 H 5.0371 -1.91871 4.90401 0
M  V30 38 H 7.5281 -0.993196 3.64615 0
M  V30 39 H 7.8411 -1.42111 7.59621 0
M  V30 40 H 6.1861 -1.28487 6.8302 0
M  V30 41 H 9.3771 -1.14877 4.53785 0
M  V30 42 H 9.5501 -1.34412 6.33906 0
M  V30 43 N 2.9562 -1.48159 -0.537278 0
M  V30 44 C 4.2042 -1.55497 -1.29094 0
M  V30 45 C 4.5252 -0.227454 -1.93669 0
M  V30 46 O 3.7952 0.750386 -1.80959 0
M  V30 47 H 2.3752 -0.572832 -0.47945 0
M  V30 48 H 5.0372 -1.84579 -0.625818 0
M  V30 49 H 4.1332 -2.33216 -2.07405 0
M  V30 50 N 4.4343 0.785586 -1.36625 0
M  V30 51 C 5.6593 1.57963 -1.34397 0
M  V30 52 C 6.0843 1.87964 0.071526 0
M  V30 53 O 5.4423 1.48182 1.0446 0
M  V30 54 C 5.4903 2.87511 -2.17646 0
M  V30 55 O 4.5943 3.81281 -1.57158 0
M  V30 56 H 3.9353 0.479014 -0.459828 0
M  V30 57 H 6.4653 0.973411 -1.79961 0
M  V30 58 H 6.4753 3.36745 -2.30362 0
M  V30 59 H 5.1503 2.65002 -3.20541 0
M  V30 60 H 3.7273 3.39885 -1.53403 0
M  V30 61 N 5.9124 1.20967 1.01018 0
M  V30 62 C 6.8624 0.93182 2.08089 0
M  V30 63 C 7.8464 -0.110898 1.60517 0
M  V30 64 O 9.0384 0.0973392 1.76732 0
M  V30 65 C 6.1674 0.492719 3.39746 0
M  V30 66 C 5.2534 1.56922 3.94 0
M  V30 67 N 5.6444 2.79312 4.21686 0
M  V30 68 C 3.9424 1.43688 4.2222 0
M  V30 69 C 4.6434 3.48797 4.65527 0
M  V30 70 N 3.6194 2.76224 4.68189 0
M  V30 71 H 7.4214 1.86175 2.27412 0
M  V30 72 H 4.9354 1.10463 1.19045 0
M  V30 73 H 6.9324 0.275044 4.15992 0
M  V30 74 H 5.5924 -0.430509 3.21833 0
M  V30 75 H 6.6034 3.15903 4.10397 0
M  V30 76 H 3.2804 0.578548 4.13472 0
M  V30 77 H 4.6704 4.53561 4.95714 0
M  V30 78 N 7.3905 -1.2043 1.01659 0
M  V30 79 C 8.8065 -1.41852 0.731442 0
M  V30 80 C 9.0065 -1.89358 -0.688898 0
M  V30 81 O 8.0625 -2.06247 -1.45666 0
M  V30 82 C 9.3755 -2.44019 1.75714 0
M  V30 83 C 10.9235 -2.57785 1.77527 0
M  V30 84 C 11.3985 -3.63194 2.79023 0
M  V30 85 N 12.8895 -3.70678 2.77763 0
M  V30 86 C 13.6245 -4.51897 3.52954 0
M  V30 87 N 13.1205 -5.36921 4.37821 0
M  V30 88 N 14.9135 -4.4643 3.41551 0
M  V30 89 H 7.0645 -0.879093 1.93354 0
M  V30 90 H 9.3275 -0.448425 0.835236 0
M  V30 91 H 9.0335 -2.1611 2.77469 0
M  V30 92 H 8.9075 -3.43007 1.56927 0
M  V30 93 H 11.2945 -2.85023 0.764569 0
M  V30 94 H 11.3755 -1.58992 2.00387 0
M  V30 95 H 11.0195 -3.36699 3.80258 0
M  V30 96 H 10.9495 -4.61609 2.53425 0
M  V30 97 H 13.4405 -3.09944 2.16201 0
M  V30 98 H 13.7535 -5.95981 4.91962 0
M  V30 99 H 12.0985 -5.36424 4.41899 0
M  V30 100 H 15.2895 -3.79042 2.74672 0
M  V30 101 H 15.4625 -5.09491 4.00404 0
M  V30 102 N 8.8686 -0.792821 -1.36206 0
M  V30 103 C 9.8316 -0.199459 -2.2833 0
M  V30 104 C 10.8316 0.605189 -1.48977 0
M  V30 105 O 12.0216 0.425685 -1.68919 0
M  V30 106 C 9.1536 0.723523 -3.33134 0
M  V30 107 H 10.3466 -1.01181 -2.82316 0
M  V30 108 H 7.8996 -0.562485 -1.45828 0
M  V30 109 H 8.6346 1.56008 -2.84309 0
M  V30 110 H 8.4196 0.148436 -3.91819 0
M  V30 111 H 9.9096 1.13344 -4.01924 0
M  V30 112 N 10.3467 1.47872 -0.545128 0
M  V30 113 C 11.3097 2.28337 0.198717 0
M  V30 114 C 12.3097 1.36255 0.853888 0
M  V30 115 O 13.4997 1.59003 0.711606 0
M  V30 116 C 10.6317 3.15585 1.28915 0
M  V30 117 H 11.8247 2.95567 -0.507941 0
M  V30 118 H 9.3777 1.53362 -0.301616 0
M  V30 119 H 10.1127 2.53019 2.02859 0
M  V30 120 H 9.8977 3.83337 0.824309 0
M  V30 121 H 11.3877 3.76243 1.81194 0
M  V30 122 N 11.8248 0.280983 1.55075 0
M  V30 123 C 13.2358 -0.215629 1.85451 0
M  V30 124 C 13.5868 -1.54991 1.203 0
M  V30 125 O 12.7118 -2.10699 0.493435 0
M  V30 126 C 13.3068 -0.398026 3.36454 0
M  V30 127 C 11.8658 -0.838866 3.66933 0
M  V30 128 C 11.0128 0.064458 2.77225 0
M  V30 129 H 13.9638 0.502601 1.50531 0
M  V30 130 H 13.9848 -1.23569 3.59876 0
M  V30 131 H 13.4968 0.573241 3.83843 0
M  V30 132 H 11.5978 -1.8214 3.25048 0
M  V30 133 H 11.7108 -0.672123 4.74362 0
M  V30 134 H 10.0748 -0.452863 2.50642 0
M  V30 135 H 10.8578 1.03172 3.2743 0
M  V30 136 N 13.3029 -1.57598 0.00835791 0
M  V30 137 C 14.2659 -2.07884 -0.965242 0
M  V30 138 C 15.2659 -0.989825 -1.26725 0
M  V30 139 O 16.4559 -1.25218 -1.21104 0
M  V30 140 C 13.5879 -2.52731 -2.28779 0
M  V30 141 H 14.7809 -2.95178 -0.530112 0
M  V30 142 H 12.3339 -1.54458 -0.239283 0
M  V30 143 H 13.0689 -1.68705 -2.76964 0
M  V30 144 H 12.8539 -3.32272 -2.08177 0
M  V30 145 H 14.3439 -2.91933 -2.98605 0
M  V30 146 N 14.781 0.264519 -1.55364 0
M  V30 147 C 15.711 1.33121 -1.91836 0
M  V30 148 C 16.692 1.51101 -0.781192 0
M  V30 149 O 17.877 1.64003 -1.04003 0
M  V30 150 C 15.007 2.68921 -2.19769 0
M  V30 151 C 13.961 2.65661 -3.35571 0
M  V30 152 C 13.287 4.05093 -3.49004 0
M  V30 153 C 14.587 2.24187 -4.71739 0
M  V30 154 H 16.281 1.02844 -2.81182 0
M  V30 155 H 13.827 0.493286 -1.35287 0
M  V30 156 H 15.78 3.43663 -2.43872 0
M  V30 157 H 14.504 3.00799 -1.27231 0
M  V30 158 H 13.163 1.93377 -3.1145 0
M  V30 159 H 12.811 4.34206 -2.53917 0
M  V30 160 H 12.511 4.03804 -4.26868 0
M  V30 161 H 14.035 4.81561 -3.75408 0
M  V30 162 H 15.449 2.88654 -4.9533 0
M  V30 163 H 13.846 2.34044 -5.52579 0
M  V30 164 H 14.916 1.19327 -4.69988 0
M  V30 165 N 16.2591 1.48442 0.529413 0
M  V30 166 C 17.6751 1.34575 0.858004 0
M  V30 167 C 17.8751 0.3572 1.98309 0
M  V30 168 O 16.9311 -0.221379 2.51528 0
M  V30 169 C 18.2441 2.74617 1.22499 0
M  V30 170 C 19.7921 2.83109 1.33484 0
M  V30 171 C 20.2671 4.23854 1.73526 0
M  V30 172 N 21.7581 4.2653 1.80628 0
M  V30 173 C 22.4931 5.32372 2.12997 0
M  V30 174 N 21.9891 6.48491 2.43786 0
M  V30 175 N 23.7821 5.19766 2.14008 0
M  V30 176 H 15.9331 2.1133 -0.212925 0
M  V30 177 H 18.1961 0.947439 -0.0326199 0
M  V30 178 H 17.9021 3.4852 0.471905 0
M  V30 179 H 17.7761 3.08177 2.17501 0
M  V30 180 H 20.1631 2.09462 2.0787 0
M  V30 181 H 20.2441 2.53168 0.366027 0
M  V30 182 H 19.8881 4.98018 0.997013 0
M  V30 183 H 19.8181 4.5124 2.71459 0
M  V30 184 H 22.3091 3.42772 1.59108 0
M  V30 185 H 22.6221 7.24993 2.67592 0
M  V30 186 H 20.9671 6.51765 2.41304 0
M  V30 187 H 24.1581 4.28066 1.89412 0
M  V30 188 H 24.3311 6.02354 2.38902 0
M  V30 189 N 17.7372 -0.778329 1.37039 0
M  V30 190 C 19.1482 -1.35421 1.28523 0
M  V30 191 C 19.4992 -1.96075 -0.0700901 0
M  V30 192 O 18.6242 -1.93352 -0.971801 0
M  V30 193 C 19.2192 -2.46211 2.32735 0
M  V30 194 C 17.7782 -2.99585 2.27873 0
M  V30 195 C 16.9252 -1.72748 2.16918 0
M  V30 196 H 19.8762 -0.5791 1.47757 0
M  V30 197 H 19.8972 -3.2552 1.9702 0
M  V30 198 H 19.4092 -2.02036 3.31365 0
M  V30 199 H 17.5102 -3.48152 1.32745 0
M  V30 200 H 17.6232 -3.55646 3.21018 0
M  V30 201 H 15.9872 -1.95416 1.63354 0
M  V30 202 H 16.7702 -1.30686 3.17452 0
M  V30 203 N 19.2153 -1.21501 -1.00376 0
M  V30 204 C 20.6313 -0.972629 -1.26539 0
M  V30 205 C 20.8313 0.340257 -1.98606 0
M  V30 206 O 19.8873 1.06561 -2.28913 0
M  V30 207 C 21.2003 -2.16404 -2.08781 0
M  V30 208 C 22.7483 -2.20643 -2.22004 0
M  V30 209 C 23.2233 -3.39306 -3.07629 0
M  V30 210 N 24.7143 -3.39401 -3.15217 0
M  V30 211 C 25.4493 -4.27867 -3.81729 0
M  V30 212 N 24.9453 -5.26533 -4.5026 0
M  V30 213 N 26.7383 -4.15672 -3.78382 0
M  V30 214 H 18.8893 -2.05929 -0.520281 0
M  V30 215 H 21.1523 -0.901803 -0.292328 0
M  V30 216 H 20.8583 -3.11554 -1.63178 0
M  V30 217 H 20.7323 -2.15567 -3.09533 0
M  V30 218 H 23.1193 -1.26048 -2.66825 0
M  V30 219 H 23.2003 -2.25523 -1.20718 0
M  V30 220 H 22.8443 -4.34195 -2.63509 0
M  V30 221 H 22.7743 -3.31665 -4.09031 0
M  V30 222 H 25.2653 -2.67997 -2.66432 0
M  V30 223 H 25.5783 -5.90337 -4.98721 0
M  V30 224 H 23.9233 -5.30457 -4.49044 0
M  V30 225 H 27.1143 -3.3785 -3.23998 0
M  V30 226 H 27.2873 -4.84825 -4.2994 0
M  V30 227 N 20.6934 1.19889 -1.02296 0
M  V30 228 C 21.9414 1.89046 -0.714558 0
M  V30 229 C 22.2624 1.79636 0.758681 0
M  V30 230 O 21.5324 1.20292 1.54618 0
M  V30 231 H 20.1124 0.699802 -0.261317 0
M  V30 232 H 22.7744 1.45574 -1.29592 0
M  V30 233 H 21.8704 2.95524 -1.0036 0
M  V30 234 N 22.1715 0.800033 1.35784 0
M  V30 235 C 23.5875 0.482977 1.52117 0
M  V30 236 C 23.7875 -0.996948 1.75109 0
M  V30 237 O 22.8435 -1.78216 1.78872 0
M  V30 238 C 24.1565 1.32264 2.70049 0
M  V30 239 C 25.7045 1.31742 2.83924 0
M  V30 240 C 26.1795 2.14106 4.04874 0
M  V30 241 N 27.6705 2.11607 4.12039 0
M  V30 242 C 28.4055 2.72099 5.04727 0
M  V30 243 N 27.9015 3.41492 6.02789 0
M  V30 244 N 29.6945 2.61776 4.97423 0
M  V30 245 H 21.8455 1.75856 1.19115 0
M  V30 246 H 24.1085 0.748122 0.582252 0
M  V30 247 H 23.8145 2.37261 2.59616 0
M  V30 248 H 23.6885 0.971303 3.6448 0
M  V30 249 H 26.0755 0.275333 2.93813 0
M  V30 250 H 26.1565 1.70859 1.9037 0
M  V30 251 H 25.8005 3.18351 3.95746 0
M  V30 252 H 25.7305 1.72353 4.97596 0
M  V30 253 H 28.2215 1.61112 3.41835 0
M  V30 254 H 28.5345 3.84953 6.70098 0
M  V30 255 H 26.8795 3.45596 6.02983 0
M  V30 256 H 30.0705 2.07157 4.19766 0
M  V30 257 H 30.2435 3.0921 5.69468 0
M  V30 258 N 23.6496 -1.47581 0.552962 0
M  V30 259 C 24.5796 -2.32762 -0.185451 0
M  V30 260 C 25.5606 -1.43527 -0.912905 0
M  V30 261 O 26.7456 -1.72388 -0.894201 0
M  V30 262 C 23.8756 -3.25219 -1.21859 0
M  V30 263 C 22.8296 -4.23661 -0.607864 0
M  V30 264 C 22.1556 -5.05413 -1.74533 0
M  V30 265 C 23.4556 -5.20481 0.435582 0
M  V30 266 H 25.1496 -2.94749 0.525684 0
M  V30 267 H 22.6956 -1.41738 0.254251 0
M  V30 268 H 24.6486 -3.8365 -1.7433 0
M  V30 269 H 23.3726 -2.61279 -1.95961 0
M  V30 270 H 22.0316 -3.66451 -0.104489 0
M  V30 271 H 21.6796 -4.3788 -2.47529 0
M  V30 272 H 21.3796 -5.72059 -1.34249 0
M  V30 273 H 22.9036 -5.66701 -2.27338 0
M  V30 274 H 24.3176 -5.733 -0.00290157 0
M  V30 275 H 22.7146 -5.95305 0.757067 0
M  V30 276 H 23.7846 -4.66217 1.33303 0
M  V30 277 N 25.1277 -0.289203 -1.54924 0
M  V30 278 C 26.3737 0.316922 -2.00916 0
M  V30 279 C 26.7287 1.52424 -1.17408 0
M  V30 280 O 26.0217 1.90097 -0.239536 0
M  V30 281 C 26.2157 0.736119 -3.49737 0
M  V30 282 C 26.0447 -0.429036 -4.47649 0
M  V30 283 C 24.8147 -0.917311 -4.96904 0
M  V30 284 C 27.0127 -1.27016 -4.98369 0
M  V30 285 N 24.9947 -2.05046 -5.78644 0
M  V30 286 C 26.3657 -2.25097 -5.77695 0
M  V30 287 C 28.4207 -1.30188 -4.80578 0
M  V30 288 C 27.1237 -3.26114 -6.41126 0
M  V30 289 C 29.1497 -2.30057 -5.44819 0
M  V30 290 C 28.5117 -3.2687 -6.23968 0
M  V30 291 H 24.6107 0.0807535 -0.777819 0
M  V30 292 H 27.1947 -0.416434 -1.90194 0
M  V30 293 H 25.3657 1.43867 -3.60773 0
M  V30 294 H 27.0977 1.32078 -3.82541 0
M  V30 295 H 23.8527 -0.494248 -4.71014 0
M  V30 296 H 24.2767 -2.62108 -6.24202 0
M  V30 297 H 28.9187 -0.567163 -4.18979 0
M  V30 298 H 26.6367 -4.00512 -7.01866 0
M  V30 299 H 30.2227 -2.33271 -5.32988 0
M  V30 300 H 29.1027 -4.02883 -6.72796 0
M  V30 301 N 26.6058 1.57591 -0.0167156 0
M  V30 302 C 28.0168 1.79201 0.523834 0
M  V30 303 C 28.3678 0.925796 1.72984 0
M  V30 304 O 27.4928 0.132792 2.15992 0
M  V30 305 C 28.0878 3.25 0.957091 0
M  V30 306 C 26.6468 3.47648 1.44283 0
M  V30 307 C 25.7938 2.74374 0.401757 0
M  V30 308 H 28.7448 1.56831 -0.242816 0
M  V30 309 H 28.7658 3.34031 1.82219 0
M  V30 310 H 28.2778 3.88019 0.0791415 0
M  V30 311 H 26.3788 2.89866 2.34113 0
M  V30 312 H 26.4918 4.56352 1.45877 0
M  V30 313 H 24.8558 2.39485 0.867121 0
M  V30 314 H 25.6388 3.40102 -0.467513 0
M  V30 315 N 28.0839 -0.256276 1.55502 0
M  V30 316 C 29.3299 -0.987079 1.77157 0
M  V30 317 C 29.6629 -1.85327 0.580315 0
M  V30 318 O 28.9379 -1.89874 -0.421686 0
M  V30 319 C 29.2209 -1.85553 3.08613 0
M  V30 320 C 29.0739 -1.01816 4.38125 0
M  V30 321 C 30.3929 -2.8397 3.36228 0
M  V30 322 H 27.5119 -0.357428 0.644526 0
M  V30 323 H 30.1539 -0.258239 1.88237 0
M  V30 324 H 28.3039 -2.47695 2.99298 0
M  V30 325 H 29.9759 -0.416159 4.59419 0
M  V30 326 H 28.2189 -0.322178 4.32602 0
M  V30 327 H 28.8899 -1.65939 5.26468 0
M  V30 328 H 31.3659 -2.31964 3.45445 0
M  V30 329 H 30.2419 -3.41864 4.29442 0
M  V30 330 H 30.5029 -3.59955 2.56681 0
M  V30 331 N 29.562 -1.4872 -0.521534 0
M  V30 332 C 30.492 -1.66771 -1.63431 0
M  V30 333 C 31.473 -0.516499 -1.62069 0
M  V30 334 O 32.658 -0.750013 -1.79132 0
M  V30 335 C 29.788 -1.71515 -3.01993 0
M  V30 336 C 28.742 -2.86222 -3.18216 0
M  V30 337 C 28.068 -2.76061 -4.57924 0
M  V30 338 C 29.368 -4.27419 -3.00184 0
M  V30 339 H 31.062 -2.59932 -1.48579 0
M  V30 340 H 28.608 -1.25089 -0.713358 0
M  V30 341 H 30.561 -1.82731 -3.7972 0
M  V30 342 H 29.285 -0.749393 -3.17886 0
M  V30 343 H 27.944 -2.74575 -2.42908 0
M  V30 344 H 27.592 -1.77437 -4.70665 0
M  V30 345 H 27.292 -3.53037 -4.69722 0
M  V30 346 H 28.816 -2.89256 -5.37739 0
M  V30 347 H 30.23 -4.39855 -3.67697 0
M  V30 348 H 28.627 -5.05458 -3.2347 0
M  V30 349 H 29.697 -4.43293 -1.96518 0
M  V30 350 N 31.0401 0.771051 -1.3745 0
M  V30 351 C 32.0031 1.86598 -1.33093 0
M  V30 352 C 33.0031 1.59076 -0.234845 0
M  V30 353 O 34.1931 1.67145 -0.490732 0
M  V30 354 C 31.3251 3.23747 -1.06773 0
M  V30 355 H 32.5181 1.91873 -2.30488 0
M  V30 356 H 30.0711 0.970876 -1.2249 0
M  V30 357 H 30.8061 3.24148 -0.099129 0
M  V30 358 H 30.5911 3.45115 -1.86112 0
M  V30 359 H 32.0811 4.03824 -1.06377 0
M  V30 360 N 32.5182 1.22032 0.997298 0
M  V30 361 C 33.7642 1.04376 1.73878 0
M  V30 362 C 34.0972 -0.420716 1.89588 0
M  V30 363 O 33.3722 -1.31202 1.43583 0
M  V30 364 C 33.6552 1.75047 3.14691 0
M  V30 365 C 33.5082 3.29062 3.06656 0
M  V30 366 C 34.8272 1.49928 4.13775 0
M  V30 367 H 31.9462 0.380578 0.631133 0
M  V30 368 H 34.5882 1.50312 1.16217 0
M  V30 369 H 32.7382 1.35996 3.63919 0
M  V30 370 H 34.4102 3.7753 2.65083 0
M  V30 371 H 32.6532 3.58967 2.43568 0
M  V30 372 H 33.3242 3.73683 4.06282 0
M  V30 373 H 35.8002 1.83842 3.73285 0
M  V30 374 H 34.6762 2.01878 5.10428 0
M  V30 375 H 34.9372 0.430929 4.39995 0
M  V30 376 N 33.9963 -1.19345 1.0293 0
M  V30 377 C 34.9263 -2.2481 0.631105 0
M  V30 378 C 35.9073 -1.66245 -0.360104 0
M  V30 379 O 37.0923 -1.92677 -0.242726 0
M  V30 380 C 34.2223 -3.47295 -0.0184607 0
M  V30 381 C 33.1763 -4.18536 0.895073 0
M  V30 382 C 32.5023 -5.34586 0.110592 0
M  V30 383 C 33.8023 -4.73287 2.209 0
M  V30 384 H 35.4963 -2.58372 1.51275 0
M  V30 385 H 33.0423 -1.24194 0.728818 0
M  V30 386 H 34.9953 -4.20268 -0.308675 0
M  V30 387 H 33.7193 -3.12933 -0.934907 0
M  V30 388 H 32.3783 -3.47446 1.16949 0
M  V30 389 H 32.0263 -4.96469 -0.807902 0
M  V30 390 H 31.7263 -5.83183 0.719087 0
M  V30 391 H 33.2503 -6.10355 -0.172871 0
M  V30 392 H 34.6643 -5.38013 1.98028 0
M  V30 393 H 33.0613 -5.32373 2.76946 0
M  V30 394 H 34.1313 -3.91331 2.86336 0
M  V30 395 N 35.4744 -0.807222 -1.35358 0
M  V30 396 C 36.4374 -0.223665 -2.28106 0
M  V30 397 C 37.4374 0.589354 -1.4961 0
M  V30 398 O 38.6274 0.407745 -1.69361 0
M  V30 399 C 35.7594 0.688149 -3.33882 0
M  V30 400 H 36.9524 -1.04169 -2.81227 0
M  V30 401 H 34.5054 -0.577921 -1.45223 0
M  V30 402 H 35.2404 1.52984 -2.85948 0
M  V30 403 H 35.0254 0.10687 -3.91954 0
M  V30 404 H 36.5154 1.09075 -4.03104 0
M  V30 405 N 36.9525 1.47285 -0.560781 0
M  V30 406 C 37.9155 2.28535 0.174488 0
M  V30 407 C 38.9155 1.37153 0.839388 0
M  V30 408 O 40.1055 1.59748 0.694702 0
M  V30 409 C 37.2375 3.16934 1.25561 0
M  V30 410 H 38.4305 2.95012 -0.539262 0
M  V30 411 H 35.9835 1.53034 -0.317865 0
M  V30 412 H 36.7185 2.55157 2.00164 0
M  V30 413 H 36.5035 3.8419 0.783604 0
M  V30 414 H 37.9935 3.78143 1.77193 0
M  V30 415 N 38.4306 0.297415 1.54768 0
M  V30 416 C 39.3936 -0.567375 2.22066 0
M  V30 417 C 40.3936 -1.06409 1.20556 0
M  V30 418 O 41.5836 -0.960691 1.45315 0
M  V30 419 C 38.7156 -1.78517 2.90421 0
M  V30 420 H 39.9086 0.0205534 2.99893 0
M  V30 421 H 37.4616 0.0482163 1.56226 0
M  V30 422 H 38.1966 -2.41303 2.16664 0
M  V30 423 H 37.9816 -1.43669 3.64831 0
M  V30 424 H 39.4716 -2.39964 3.41771 0
M  V30 425 N 39.9087 -1.5758 0.0250728 0
M  V30 426 C 40.8717 -2.08896 -0.943139 0
M  V30 427 C 41.8717 -1.00321 -1.25668 0
M  V30 428 O 43.0617 -1.26495 -1.19769 0
M  V30 429 C 40.1937 -2.55143 -2.26086 0
M  V30 430 H 41.3867 -2.95723 -0.498775 0
M  V30 431 H 38.9397 -1.54703 -0.222888 0
M  V30 432 H 39.6747 -1.71633 -2.75159 0
M  V30 433 H 39.4597 -3.34461 -2.04641 0
M  V30 434 H 40.9497 -2.95083 -2.95492 0
M  V30 435 N 41.3868 0.248026 -1.55636 0
M  V30 436 C 42.3498 1.29044 -1.89421 0
M  V30 437 C 43.3498 1.41134 -0.770581 0
M  V30 438 O 44.5398 1.39854 -1.03858 0
M  V30 439 C 41.6718 2.66831 -2.12165 0
M  V30 440 H 42.8648 1.00305 -2.82629 0
M  V30 441 H 40.4178 0.487265 -1.48511 0
M  V30 442 H 41.1528 3.00711 -1.21422 0
M  V30 443 H 40.9378 2.59438 -2.93997 0
M  V30 444 H 42.4278 3.42103 -2.3949 0
M  V30 445 N 42.8649 1.48995 0.513639 0
M  V30 446 C 43.8279 1.64229 1.59879 0
M  V30 447 C 44.8279 0.514696 1.5234 0
M  V30 448 O 46.0179 0.78087 1.55718 0
M  V30 449 C 43.1499 1.62783 2.99524 0
M  V30 450 H 44.3429 2.61004 1.47705 0
M  V30 451 H 41.8959 1.37837 0.736936 0
M  V30 452 H 42.6309 0.675461 3.17188 0
M  V30 453 H 42.4159 2.4466 3.06404 0
M  V30 454 H 43.9059 1.76669 3.78388 0
M  V30 455 N 44.343 -0.763751 1.37857 0
M  V30 456 C 45.591 -1.51957 1.33243 0
M  V30 457 C 45.912 -1.94835 -0.0801709 0
M  V30 458 O 45.182 -1.66894 -1.02582 0
M  V30 459 H 43.762 -0.563626 0.49024 0
M  V30 460 H 46.424 -0.908504 1.7243 0
M  V30 461 H 45.52 -2.41523 1.97669 0
M  V30 462 N 45.8211 -1.22559 -0.990812 0
M  V30 463 C 47.0611 -1.06302 -1.74583 0
M  V30 464 C 47.4251 0.394737 -1.87898 0
M  V30 465 O 48.6261 0.678214 -2.60103 0
M  V30 466 C 46.8971 -1.75699 -3.11231 0
M  V30 467 S 48.4561 -1.74882 -4.02445 0
M  V30 468 H 45.2741 -0.380639 -0.600529 0
M  V30 469 H 47.8761 -1.55532 -1.18449 0
M  V30 470 H 46.5801 -2.80923 -2.99183 0
M  V30 471 H 46.1111 -1.26708 -3.72436 0
M  V30 472 H 48.1261 -0.799997 -4.89709 0
M  V30 473 N 47.2992 1.18797 -1.03562 0
M  V30 474 C 48.2622 2.20464 -0.626769 0
M  V30 475 C 49.2622 1.57721 0.313173 0
M  V30 476 O 50.4522 1.73917 0.0992615 0
M  V30 477 C 47.5842 3.40802 0.0818498 0
M  V30 478 H 48.7772 2.58149 -1.5264 0
M  V30 479 H 46.3302 1.32593 -0.827578 0
M  V30 480 H 47.0652 3.08642 0.995518 0
M  V30 481 H 46.8502 3.8758 -0.593652 0
M  V30 482 H 48.3402 4.16092 0.354584 0
M  V30 483 N 48.7773 0.814389 1.34928 0
M  V30 484 C 49.7093 0.187834 2.28429 0
M  V30 485 C 50.7223 -0.617374 1.5064 0
M  V30 486 O 51.9113 -0.448454 1.72775 0
M  V30 487 C 49.0113 -0.755962 3.30361 0
M  V30 488 C 48.1843 0.00456686 4.374 0
M  V30 489 C 47.2433 -0.858876 5.19143 0
M  V30 490 O 46.2693 -0.306968 5.68372 0
M  V30 491 N 47.4713 -2.17988 5.38016 0
M  V30 492 H 50.2363 0.991105 2.82838 0
M  V30 493 H 47.7973 0.670561 1.4736 0
M  V30 494 H 49.7893 -1.338 3.81942 0
M  V30 495 H 48.3593 -1.46001 2.7641 0
M  V30 496 H 47.5793 0.767865 3.86649 0
M  V30 497 H 48.8673 0.528422 5.06049 0
M  V30 498 H 48.2653 -2.65212 4.99679 0
M  V30 499 H 46.8223 -2.71098 5.92747 0
M  V30 500 N 50.2554 -1.46986 0.568584 0
M  V30 501 C 51.2184 -2.28624 -0.162366 0
M  V30 502 C 52.2184 -1.37596 -0.832103 0
M  V30 503 O 53.4084 -1.60115 -0.68622 0
M  V30 504 C 50.5404 -3.17596 -1.23878 0
M  V30 505 H 51.7334 -2.94722 0.554899 0
M  V30 506 H 49.2864 -1.52863 0.325976 0
M  V30 507 H 50.0214 -2.56214 -1.98808 0
M  V30 508 H 49.8064 -3.846 -0.763219 0
M  V30 509 H 51.2964 -3.79078 -1.75185 0
M  V30 510 N 51.7335 -0.305618 -1.54608 0
M  V30 511 C 52.6965 0.555591 -2.22364 0
M  V30 512 C 53.6965 1.05768 -1.21119 0
M  V30 513 O 54.8865 0.952972 -1.45822 0
M  V30 514 C 52.0185 1.76974 -2.91364 0
M  V30 515 H 53.2115 -0.0364572 -2.99878 0
M  V30 516 H 50.7645 -0.0565007 -1.56198 0
M  V30 517 H 51.4995 2.40151 -2.17941 0
M  V30 518 H 51.2845 1.41732 -3.65588 0
M  V30 519 H 52.7745 2.38148 -3.43038 0
M  V30 520 N 53.2116 1.57565 -0.0334293 0
M  V30 521 C 54.1446 2.05997 0.981866 0
M  V30 522 C 55.1226 0.956647 1.3148 0
M  V30 523 O 56.3066 1.22729 1.43073 0
M  V30 524 C 53.4336 2.48564 2.30074 0
M  V30 525 C 52.4796 3.69958 2.12211 0
M  V30 526 S 53.3126 5.16414 1.41692 0
M  V30 527 C 54.4686 5.6228 2.7494 0
M  V30 528 H 54.7016 2.91792 0.569612 0
M  V30 529 H 52.2346 1.53366 0.178376 0
M  V30 530 H 54.1926 2.73753 3.05892 0
M  V30 531 H 52.8536 1.63106 2.68431 0
M  V30 532 H 52.0466 3.97603 3.09722 0
M  V30 533 H 51.6486 3.44943 1.44535 0
M  V30 534 H 53.9406 5.66783 3.71165 0
M  V30 535 H 54.8836 6.61759 2.51953 0
M  V30 536 H 55.2916 4.89944 2.80384 0
M  V30 537 N 54.6897 -0.239769 1.55765 0
M  V30 538 C 55.9667 -0.990056 1.68693 0
M  V30 539 C 56.3467 -2.03107 0.5754 0
M  V30 540 O 55.6947 -2.24604 -0.42017 0
M  V30 541 C 55.9047 -1.61696 3.09282 0
M  V30 542 C 57.2527 -2.11613 3.6811 0
M  V30 543 O 58.2767 -1.71624 3.12127 0
M  V30 544 O 57.1357 -2.85057 4.66267 0
M  V30 545 H 54.2297 -0.461299 0.686391 0
M  V30 546 H 56.7757 -0.232991 1.68093 0
M  V30 547 H 55.5477 -0.864357 3.81634 0
M  V30 548 H 55.1707 -2.44005 3.13923 0
M  V30 549 N 56.1678 -1.49265 -0.50573 0
M  V30 550 C 57.0778 -1.68312 -1.63427 0
M  V30 551 C 58.0938 -0.565682 -1.64548 0
M  V30 552 O 59.2698 -0.839801 -1.83055 0
M  V30 553 C 56.3348 -1.74107 -2.99813 0
M  V30 554 C 55.3958 -2.97653 -3.09356 0
M  V30 555 C 54.6288 -3.03163 -4.39236 0
M  V30 556 O 54.8518 -2.16396 -5.27758 0
M  V30 557 O 53.7858 -3.9558 -4.53652 0
M  V30 558 H 57.6118 -2.63907 -1.50289 0
M  V30 559 H 55.1968 -1.32951 -0.681502 0
M  V30 560 H 57.0788 -1.803 -3.80881 0
M  V30 561 H 55.7538 -0.816901 -3.13223 0
M  V30 562 H 54.6608 -2.96981 -2.27493 0
M  V30 563 H 55.9938 -3.89535 -3.00871 0
M  V30 564 N 57.6459 0.756429 -1.3826 0
M  V30 565 C 58.8859 1.52833 -1.35725 0
M  V30 566 C 59.2499 1.91926 0.0534106 0
M  V30 567 O 60.4509 2.68028 0.203613 0
M  V30 568 C 58.7219 2.74919 -2.28373 0
M  V30 569 S 60.2809 3.64817 -2.43832 0
M  V30 570 H 57.0989 0.523043 -0.481608 0
M  V30 571 H 59.7009 0.888212 -1.74158 0
M  V30 572 H 58.4049 2.44304 -3.29763 0
M  V30 573 H 57.9359 3.43878 -1.91079 0
M  V30 574 H 59.9509 4.676 -1.66027 0
M  V30 575 N 59.124 1.23083 0.984299 0
M  V30 576 C 60.352 1.08714 1.76037 0
M  V30 577 C 60.767 -0.361691 1.85303 0
M  V30 578 O 60.124 -1.25034 1.32939 0
M  V30 579 C 60.175 1.70206 3.18923 0
M  V30 580 O 59.896 3.09423 3.10144 0
M  V30 581 C 61.397 1.61227 4.12941 0
M  V30 582 H 58.617 0.380664 0.552572 0
M  V30 583 H 61.161 1.62853 1.23689 0
M  V30 584 H 59.316 1.20109 3.6831 0
M  V30 585 H 59.73 3.39188 4.00065 0
M  V30 586 H 61.204 2.08962 5.10919 0
M  V30 587 H 61.681 0.570375 4.35481 0
M  V30 588 H 62.287 2.10671 3.69456 0
M  V30 589 N 60.6021 -1.18246 1.0419 0
M  V30 590 C 61.8791 -1.84121 0.660208 0
M  V30 591 C 62.2591 -1.92778 -0.860221 0
M  V30 592 O 61.6071 -1.45464 -1.76217 0
M  V30 593 C 61.8171 -3.22355 1.33747 0
M  V30 594 C 63.1651 -3.98376 1.46906 0
M  V30 595 O 64.1891 -3.31799 1.29568 0
M  V30 596 O 63.0481 -5.17665 1.75171 0
M  V30 597 H 60.1421 -0.794036 0.231161 0
M  V30 598 H 62.6881 -1.25628 1.14087 0
M  V30 599 H 61.4601 -3.10964 2.37522 0
M  V30 600 H 61.0831 -3.88506 0.845515 0
M  V30 601 N 62.0802 -0.821533 -1.34494 0
M  V30 602 C 62.9902 -0.244355 -2.33324 0
M  V30 603 C 64.0062 0.620527 -1.62559 0
M  V30 604 O 65.1822 0.528754 -1.94335 0
M  V30 605 C 62.2472 0.585368 -3.41723 0
M  V30 606 C 61.3082 -0.301752 -4.28238 0
M  V30 607 C 60.5412 0.488466 -5.3146 0
M  V30 608 O 60.7642 1.72186 -5.4379 0
M  V30 609 O 59.6982 -0.12848 -6.01763 0
M  V30 610 H 63.5242 -1.06231 -2.84515 0
M  V30 611 H 61.1092 -0.583645 -1.37528 0
M  V30 612 H 62.9912 1.05747 -4.07916 0
M  V30 613 H 61.6662 1.38068 -2.92778 0
M  V30 614 H 60.5732 -0.821315 -3.64973 0
M  V30 615 H 61.9062 -1.06138 -4.8062 0
M  V30 616 N 63.5583 1.46682 -0.576371 0
M  V30 617 C 64.8063 2.02013 -0.0594163 0
M  V30 618 C 65.1273 1.45101 1.30271 0
M  V30 619 O 64.3973 0.633317 1.8538 0
M  V30 620 H 62.9773 0.746759 -0.0189745 0
M  V30 621 H 65.6393 1.79862 -0.750717 0
M  V30 622 H 64.7353 3.12097 0.014345 0
M  V30 623 N 65.0364 0.313813 1.54444 0
M  V30 624 C 66.2844 -0.291099 1.99993 0
M  V30 625 C 66.6054 -1.53418 1.20366 0
M  V30 626 O 65.8754 -1.93544 0.302927 0
M  V30 627 H 64.4554 -0.110552 0.738774 0
M  V30 628 H 67.1174 0.428106 1.9014 0
M  V30 629 H 66.2134 -0.554268 3.07139 0
M  V30 630 N 66.5145 -1.57545 0.0417849 0
M  V30 631 C 67.9305 -1.56467 -0.314704 0
M  V30 632 C 68.1305 -1.04859 -1.72066 0
M  V30 633 O 67.1865 -0.700983 -2.42575 0
M  V30 634 C 68.4995 -3.00317 -0.15174 0
M  V30 635 C 70.0475 -3.12201 -0.223553 0
M  V30 636 C 70.5225 -4.57913 -0.0892295 0
M  V30 637 N 72.0135 -4.6297 -0.145808 0
M  V30 638 C 72.7485 -5.73362 -0.0658459 0
M  V30 639 N 72.2445 -6.92769 0.0659282 0
M  V30 640 N 74.0375 -5.6197 -0.12075 0
M  V30 641 H 66.1885 -1.89416 0.961014 0
M  V30 642 H 68.4515 -0.871862 0.372237 0
M  V30 643 H 68.1575 -3.42073 0.817254 0
M  V30 644 H 68.0315 -3.65892 -0.916692 0
M  V30 645 H 70.4185 -2.70349 -1.18301 0
M  V30 646 H 70.4995 -2.49323 0.571994 0
M  V30 647 H 70.1435 -5.00448 0.866867 0
M  V30 648 H 70.0735 -5.18786 -0.903802 0
M  V30 649 H 72.5645 -3.7709 -0.247286 0
M  V30 650 H 72.8775 -7.72707 0.119905 0
M  V30 651 H 71.2225 -6.94927 0.100885 0
M  V30 652 H 74.4135 -4.67572 -0.222187 0
M  V30 653 H 74.5865 -6.47977 -0.0549735 0
M  V30 654 N 67.9926 0.231505 -1.5589 0
M  V30 655 C 69.4036 0.799327 -1.68724 0
M  V30 656 C 69.7546 1.85398 -0.642022 0
M  V30 657 O 68.8796 2.1539 0.208784 0
M  V30 658 C 69.4746 1.45664 -3.05888 0
M  V30 659 C 68.0336 1.97197 -3.20609 0
M  V30 660 C 67.1806 0.828552 -2.64632 0
M  V30 661 H 70.1316 0.00702616 -1.58698 0
M  V30 662 H 70.1526 2.32517 -3.01191 0
M  V30 663 H 69.6646 0.688808 -3.81939 0
M  V30 664 H 67.7656 2.76813 -2.4941 0
M  V30 665 H 67.8786 2.15878 -4.27707 0
M  V30 666 H 66.2426 1.23321 -2.22854 0
M  V30 667 H 67.0256 0.0735544 -3.43221 0
M  V30 668 N 69.4707 1.49531 0.497807 0
M  V30 669 C 70.4027 1.62559 1.61578 0
M  V30 670 C 71.4157 0.508134 1.54667 0
M  V30 671 O 72.6047 0.780309 1.60541 0
M  V30 672 C 69.7047 1.56925 3.00379 0
M  V30 673 C 68.8777 2.84257 3.3244 0
M  V30 674 C 67.9367 2.71632 4.50669 0
M  V30 675 O 66.9627 3.4557 4.52294 0
M  V30 676 N 68.1647 1.83391 5.5077 0
M  V30 677 H 70.9297 2.58981 1.50828 0
M  V30 678 H 68.4907 1.4666 0.685743 0
M  V30 679 H 70.4827 1.46129 3.77397 0
M  V30 680 H 69.0527 0.683483 3.05037 0
M  V30 681 H 68.2727 3.09381 2.44289 0
M  V30 682 H 69.5607 3.68666 3.5066 0
M  V30 683 H 68.9587 1.22583 5.52259 0
M  V30 684 H 67.5157 1.78515 6.26878 0
M  V30 685 N 70.9488 -0.749086 1.3866 0
M  V30 686 C 72.3648 -1.05276 1.19955 0
M  V30 687 C 72.5648 -2.01435 0.05134 0
M  V30 688 O 71.6208 -2.45232 -0.60147 0
M  V30 689 C 72.9338 -1.62853 2.52783 0
M  V30 690 C 74.4818 -1.75002 2.59506 0
M  V30 691 C 74.9568 -2.35991 3.92521 0
M  V30 692 N 76.4478 -2.43416 3.94085 0
M  V30 693 C 77.1828 -2.91511 4.9377 0
M  V30 694 N 76.6788 -3.39608 6.03853 0
M  V30 695 N 78.4718 -2.90592 4.81157 0
M  V30 696 H 70.6228 -0.111066 2.12109 0
M  V30 697 H 72.8858 -0.111901 0.941373 0
M  V30 698 H 72.5918 -0.99664 3.37283 0
M  V30 699 H 72.4658 -2.61854 2.715 0
M  V30 700 H 74.8528 -2.37317 1.75398 0
M  V30 701 H 74.9338 -0.74693 2.44652 0
M  V30 702 H 74.5778 -1.74308 4.77053 0
M  V30 703 H 74.5078 -3.3695 4.04688 0
M  V30 704 H 76.9988 -2.09405 3.14576 0
M  V30 705 H 77.3118 -3.74775 6.75843 0
M  V30 706 H 75.6568 -3.37653 6.07466 0
M  V30 707 H 78.8478 -2.52332 3.94267 0
M  V30 708 H 79.0208 -3.27762 5.58996 0
M  V30 709 N 72.4269 -1.23603 -0.977757 0
M  V30 710 C 73.6669 -1.08148 -1.73446 0
M  V30 711 C 74.0309 0.374785 -1.88307 0
M  V30 712 O 75.2319 0.650588 -2.60808 0
M  V30 713 C 73.5029 -1.78991 -3.0935 0
M  V30 714 S 75.0619 -1.79141 -4.00567 0
M  V30 715 H 71.8799 -0.386987 -0.596458 0
M  V30 716 H 74.4819 -1.5678 -1.16792 0
M  V30 717 H 73.1859 -2.8408 -2.96187 0
M  V30 718 H 72.7169 -1.30651 -3.71071 0
M  V30 719 H 74.7319 -0.851892 -4.88833 0
M  V30 720 N 73.905 1.17692 -1.04816 0
M  V30 721 C 74.838 2.20436 -0.590173 0
M  V30 722 C 75.816 1.58115 0.379244 0
M  V30 723 O 77 1.86228 0.291762 0
M  V30 724 C 74.127 3.38424 0.136817 0
M  V30 725 C 73.173 4.19176 -0.787023 0
M  V30 726 S 74.006 4.84815 -2.27409 0
M  V30 727 C 75.162 6.06195 -1.55817 0
M  V30 728 H 75.395 2.58944 -1.46067 0
M  V30 729 H 72.928 1.28246 -0.859784 0
M  V30 730 H 74.886 4.06798 0.550076 0
M  V30 731 H 73.547 2.98312 0.983299 0
M  V30 732 H 72.74 5.03499 -0.224681 0
M  V30 733 H 72.342 3.56219 -1.13947 0
M  V30 734 H 74.634 6.72078 -0.855387 0
M  V30 735 H 75.577 6.6695 -2.37873 0
M  V30 736 H 75.985 5.54701 -1.04722 0
M  V30 737 N 75.3831 0.828654 1.34056 0
M  V30 738 C 76.7941 0.477534 1.8049 0
M  V30 739 C 77.1451 -1.00258 1.6865 0
M  V30 740 O 76.2701 -1.78057 1.22982 0
M  V30 741 C 76.8651 0.860018 3.27703 0
M  V30 742 C 75.4241 0.561185 3.72193 0
M  V30 743 C 74.5711 1.07385 2.55663 0
M  V30 744 H 77.5221 1.0183 1.21722 0
M  V30 745 H 77.5431 0.166038 3.80138 0
M  V30 746 H 77.0551 1.93731 3.36288 0
M  V30 747 H 75.1561 -0.506465 3.69142 0
M  V30 748 H 75.2691 1.10926 4.66082 0
M  V30 749 H 73.6331 0.495149 2.49841 0
M  V30 750 H 74.4161 2.15771 2.67016 0
M  V30 751 N 76.8612 -1.46375 0.584142 0
M  V30 752 C 77.7712 -2.34115 -0.150728 0
M  V30 753 C 78.7872 -1.49838 -0.884567 0
M  V30 754 O 79.9632 -1.82704 -0.847429 0
M  V30 755 C 77.0282 -3.2705 -1.15062 0
M  V30 756 C 76.0892 -4.27228 -0.421293 0
M  V30 757 C 75.3222 -5.15722 -1.37355 0
M  V30 758 O 75.5452 -5.07176 -2.61014 0
M  V30 759 O 74.4792 -5.95383 -0.883355 0
M  V30 760 H 78.3052 -2.98309 0.569708 0
M  V30 761 H 75.8902 -1.45373 0.344535 0
M  V30 762 H 77.7722 -3.84381 -1.72712 0
M  V30 763 H 76.4472 -2.65451 -1.8525 0
M  V30 764 H 75.3542 -3.7358 0.197085 0
M  V30 765 H 76.6872 -4.91616 0.239641 0
M  V30 766 N 78.3393 -0.321999 -1.54275 0
M  V30 767 C 79.5863 0.281044 -2.0054 0
M  V30 768 C 79.9143 1.52265 -1.21019 0
M  V30 769 O 79.1693 1.93687 -0.279982 0
M  V30 770 C 79.4683 0.661769 -3.5122 0
M  V30 771 C 79.1343 -0.480482 -4.48333 0
M  V30 772 C 77.7963 -0.794005 -4.74604 0
M  V30 773 C 80.1483 -1.24783 -5.06042 0
M  V30 774 C 77.4763 -1.87763 -5.55844 0
M  V30 775 C 79.8283 -2.32153 -5.88462 0
M  V30 776 C 78.4923 -2.64089 -6.13036 0
M  V30 777 H 77.7623 0.102841 -0.733829 0
M  V30 778 H 80.4093 -0.445453 -1.86247 0
M  V30 779 H 78.7143 1.46867 -3.63232 0
M  V30 780 H 80.4113 1.13989 -3.84457 0
M  V30 781 H 77.0013 -0.226039 -4.28004 0
M  V30 782 H 81.1853 -1.01887 -4.85729 0
M  V30 783 H 76.4413 -2.12954 -5.73115 0
M  V30 784 H 80.6153 -2.92057 -6.32199 0
M  V30 785 H 78.2423 -3.48185 -6.75775 0
M  V30 786 N 79.8174 1.5752 -0.0501392 0
M  V30 787 C 81.0634 1.92936 0.624798 0
M  V30 788 C 81.3964 0.928685 1.70555 0
M  V30 789 O 80.6714 -0.0454779 1.94447 0
M  V30 790 C 80.9544 3.38737 1.22185 0
M  V30 791 C 80.8074 4.49552 0.149218 0
M  V30 792 C 82.1264 3.84913 2.13378 0
M  V30 793 H 79.2454 0.701604 0.225657 0
M  V30 794 H 81.8874 1.89671 -0.111693 0
M  V30 795 H 80.0374 3.4165 1.84953 0
M  V30 796 H 81.7094 4.58768 -0.482648 0
M  V30 797 H 79.9524 4.30638 -0.522841 0
M  V30 798 H 80.6234 5.48653 0.606966 0
M  V30 799 H 83.0994 3.8387 1.60572 0
M  V30 800 H 81.9754 4.87584 2.52097 0
M  V30 801 H 82.2364 3.21611 3.03346 0
M  V30 802 N 81.2955 -0.223234 1.56011 0
M  V30 803 C 82.2435 -1.29627 1.93131 0
M  V30 804 C 83.2375 -1.48608 0.813146 0
M  V30 805 O 84.4435 -1.49802 0.997966 0
M  V30 806 H 80.8185 -0.434563 0.613726 0
M  V30 807 H 82.7895 -0.955995 2.82672 0
M  V30 808 C 81.5385 -2.63983 2.26292 0
M  V30 809 H 80.8615 -2.50185 3.11846 0
M  V30 810 H 82.3015 -3.3788 2.56151 0
M  V30 811 C 80.7605 -3.18866 1.08747 0
M  V30 812 O 81.2905 -4.00192 0.347727 0
M  V30 813 N 79.4965 -2.77217 0.871743 0
M  V30 814 H 79.0435 -2.1119 1.47501 0
M  V30 815 H 79.0015 -3.1428 0.0869905 0
M  V30 816 N 82.7736 -1.49793 -0.48987 0
M  V30 817 C 83.7366 -1.66752 -1.57246 0
M  V30 818 C 84.7366 -0.538867 -1.51502 0
M  V30 819 O 85.9266 -0.805545 -1.54456 0
M  V30 820 C 83.0586 -1.67528 -2.96896 0
M  V30 821 H 84.2516 -2.63321 -1.43534 0
M  V30 822 H 81.8046 -1.38992 -0.714914 0
M  V30 823 H 82.5396 -0.725837 -3.16073 0
M  V30 824 H 82.3246 -2.49504 -3.02473 0
M  V30 825 H 83.8146 -1.82667 -3.7553 0
M  V30 826 N 84.2517 0.741722 -1.39055 0
M  V30 827 C 85.2147 1.83733 -1.37021 0
M  V30 828 C 86.2147 1.58542 -0.268534 0
M  V30 829 O 87.4047 1.66067 -0.526076 0
M  V30 830 C 84.5367 3.2141 -1.13617 0
M  V30 831 H 85.7297 1.86941 -2.34506 0
M  V30 832 H 83.2827 0.944676 -1.24521 0
M  V30 833 H 84.0177 3.23865 -0.167863 0
M  V30 834 H 83.8027 3.4109 -1.93391 0
M  V30 835 H 85.2927 4.01477 -1.14918 0
M  V30 836 N 85.7298 1.2412 0.971189 0
M  V30 837 C 86.9768 1.07881 1.71371 0
M  V30 838 C 87.3048 -0.382901 1.90694 0
M  V30 839 O 86.5598 -1.29945 1.46331 0
M  V30 840 C 86.8588 1.75983 3.11071 0
M  V30 841 C 86.5248 3.25909 3.11599 0
M  V30 842 C 85.1868 3.66813 3.11451 0
M  V30 843 C 87.5388 4.21771 3.062 0
M  V30 844 C 84.8668 5.02021 3.03631 0
M  V30 845 C 87.2188 5.56982 2.99923 0
M  V30 846 C 85.8828 5.97237 2.98102 0
M  V30 847 H 85.1528 0.394764 0.62709 0
M  V30 848 H 87.7998 1.54176 1.13587 0
M  V30 849 H 86.1048 1.22072 3.72298 0
M  V30 850 H 87.8018 1.60887 3.6731 0
M  V30 851 H 84.3918 2.93353 3.12477 0
M  V30 852 H 88.5758 3.91172 3.05447 0
M  V30 853 H 83.8318 5.32411 3.0058 0
M  V30 854 H 88.0058 6.30969 2.94704 0
M  V30 855 H 85.6328 7.01967 2.91798 0
M  V30 856 N 87.2079 -1.17134 1.05439 0
M  V30 857 C 88.1559 -2.23289 0.651511 0
M  V30 858 C 89.1499 -1.66186 -0.328411 0
M  V30 859 O 90.3559 -1.78949 -0.194206 0
M  V30 860 H 86.7309 -0.726938 0.192523 0
M  V30 861 H 88.7019 -2.54565 1.55689 0
M  V30 862 C 87.4509 -3.47671 0.0448436 0
M  V30 863 H 86.7739 -3.91918 0.78996 0
M  V30 864 H 88.2139 -4.2353 -0.19964 0
M  V30 865 C 86.6729 -3.14453 -1.20918 0
M  V30 866 O 87.2029 -3.29459 -2.29825 0
M  V30 867 N 85.4089 -2.68657 -1.10779 0
M  V30 868 H 84.9559 -2.56646 -0.221526 0
M  V30 869 H 84.9139 -2.46804 -1.9477 0
M  V30 870 N 88.686 -0.835752 -1.33615 0
M  V30 871 C 89.932 -0.430596 -1.98176 0
M  V30 872 C 90.265 1.00684 -1.66061 0
M  V30 873 O 89.54 1.70339 -0.938877 0
M  V30 874 C 89.823 -0.648065 -3.5422 0
M  V30 875 C 89.676 -2.13255 -3.96033 0
M  V30 876 C 90.995 -0.0922113 -4.40003 0
M  V30 877 H 88.114 -0.157924 -0.719881 0
M  V30 878 H 90.756 -1.05069 -1.58305 0
M  V30 879 H 88.906 -0.120237 -3.88314 0
M  V30 880 H 90.578 -2.725 -3.72211 0
M  V30 881 H 88.821 -2.61823 -3.45878 0
M  V30 882 H 89.492 -2.23547 -5.04708 0
M  V30 883 H 91.968 -0.543343 -4.12537 0
M  V30 884 H 90.844 -0.274083 -5.48215 0
M  V30 885 H 91.105 1.00378 -4.30554 0
M  V30 886 N 90.1641 1.46063 -0.591896 0
M  V30 887 C 91.3921 2.06717 -0.0868936 0
M  V30 888 C 91.8071 1.43916 1.22203 0
M  V30 889 O 91.1641 0.547698 1.74088 0
M  V30 890 C 91.2151 3.6142 0.0758725 0
M  V30 891 O 90.9361 4.21874 -1.18126 0
M  V30 892 C 92.4371 4.39025 0.61416 0
M  V30 893 H 89.6571 0.668162 -0.0616518 0
M  V30 894 H 92.2011 1.8755 -0.815175 0
M  V30 895 H 90.3561 3.79983 0.754413 0
M  V30 896 H 90.7701 5.14861 -1.00092 0
M  V30 897 H 92.2441 5.4783 0.677193 0
M  V30 898 H 92.7211 4.07708 1.63312 0
M  V30 899 H 93.3271 4.2529 -0.0298142 0
M  V30 900 N 91.6422 0.330177 1.54103 0
M  V30 901 C 92.8882 -0.270806 2.00984 0
M  V30 902 C 93.2212 -1.51265 1.21789 0
M  V30 903 O 92.4962 -1.92142 0.301927 0
M  V30 904 C 92.7792 -0.598339 3.55094 0
M  V30 905 C 92.6322 0.654674 4.4501 0
M  V30 906 C 93.9512 -1.41334 4.16789 0
M  V30 907 H 91.0702 -0.0969531 0.730595 0
M  V30 908 H 93.7122 0.448066 1.84641 0
M  V30 909 H 91.8622 -1.21078 3.69151 0
M  V30 910 H 93.5342 1.29285 4.42813 0
M  V30 911 H 91.7772 1.28224 4.14416 0
M  V30 912 H 92.4482 0.380944 5.50684 0
M  V30 913 H 94.9242 -0.895597 4.06347 0
M  V30 914 H 93.8002 -1.61127 5.24718 0
M  V30 915 H 94.0612 -2.41146 3.70541 0
M  V30 916 N 93.1203 -1.57491 0.0584922 0
M  V30 917 C 94.3663 -1.93264 -0.614558 0
M  V30 918 C 94.6993 -0.937717 -1.7006 0
M  V30 919 O 93.9743 0.0351652 -1.94468 0
M  V30 920 C 94.2573 -3.3938 -1.20386 0
M  V30 921 C 94.1103 -4.49625 -0.125375 0
M  V30 922 C 95.4293 -3.86039 -2.11334 0
M  V30 923 H 92.5483 -0.702791 -0.221933 0
M  V30 924 H 95.1903 -1.8961 0.12175 0
M  V30 925 H 93.3403 -3.42626 -1.83139 0
M  V30 926 H 95.0123 -4.58506 0.506971 0
M  V30 927 H 93.2553 -4.30354 0.545672 0
M  V30 928 H 93.9263 -5.48967 -0.577861 0
M  V30 929 H 96.4023 -3.84716 -1.58534 0
M  V30 930 H 95.2783 -4.88914 -2.49507 0
M  V30 931 H 95.5393 -3.23215 -3.01636 0
M  V30 932 N 94.5984 0.214957 -1.56127 0
M  V30 933 C 95.5614 1.24997 -1.92116 0
M  V30 934 C 96.5614 1.39467 -0.800344 0
M  V30 935 O 97.7514 1.37619 -1.06802 0
M  V30 936 C 94.8834 2.62271 -2.17777 0
M  V30 937 H 96.0764 0.942875 -2.84693 0
M  V30 938 H 93.6294 0.455654 -1.49511 0
M  V30 939 H 94.3644 2.98068 -1.27773 0
M  V30 940 H 94.1494 2.53143 -2.99434 0
M  V30 941 H 95.6394 3.36946 -2.46693 0
M  V30 942 N 96.0765 1.50051 0.48192 0
M  V30 943 C 97.3045 1.64237 1.25832 0
M  V30 944 C 97.7195 0.321336 1.86045 0
M  V30 945 O 97.0765 -0.695478 1.68729 0
M  V30 946 C 97.1275 2.72548 2.37487 0
M  V30 947 O 96.8485 3.99529 1.79745 0
M  V30 948 C 98.3495 2.9761 3.28547 0
M  V30 949 H 95.5695 0.55237 0.380957 0
M  V30 950 H 98.1135 1.96207 0.576467 0
M  V30 951 H 96.2685 2.43303 3.01467 0
M  V30 952 H 96.6825 4.59342 2.5319 0
M  V30 953 H 98.1565 3.77084 4.03127 0
M  V30 954 H 98.6335 2.0826 3.86684 0
M  V30 955 H 99.2395 3.28345 2.70314 0
M  V30 956 N 97.5546 -0.734337 1.39446 0
M  V30 957 C 98.5026 -1.86971 1.38364 0
M  V30 958 C 99.4966 -1.67288 0.266687 0
M  V30 959 O 100.703 -1.74621 0.436755 0
M  V30 960 H 97.0776 -0.615474 0.432082 0
M  V30 961 H 99.0486 -1.85 2.34132 0
M  V30 962 C 97.7976 -3.2466 1.24465 0
M  V30 963 H 97.1206 -3.40402 2.09682 0
M  V30 964 H 98.5606 -4.04292 1.27764 0
M  V30 965 C 97.0196 -3.36867 -0.0468674 0
M  V30 966 O 97.5496 -3.88618 -1.01681 0
M  V30 967 N 95.7556 -2.90391 -0.110145 0
M  V30 968 H 95.3026 -2.48466 0.679868 0
M  V30 969 H 95.2606 -2.98939 -0.973799 0
M  V30 970 N 99.0327 -1.24633 -0.964593 0
M  V30 971 C 100.261 -1.11501 -1.74285 0
M  V30 972 C 100.676 0.332165 -1.85855 0
M  V30 973 O 100.033 1.22903 -1.34911 0
M  V30 974 C 100.084 -1.75258 -3.16175 0
M  V30 975 O 99.8047 -3.14318 -3.05182 0
M  V30 976 C 101.306 -1.67776 -4.10324 0
M  V30 977 H 98.5257 -0.389407 -0.546446 0
M  V30 978 H 101.07 -1.64801 -1.21083 0
M  V30 979 H 99.2247 -1.25954 -3.66353 0
M  V30 980 H 99.6387 -3.4551 -3.94618 0
M  V30 981 H 101.113 -2.17064 -5.0753 0
M  V30 982 H 101.59 -0.639584 -4.34518 0
M  V30 983 H 102.196 -2.16522 -3.66058 0
M  V30 984 N 100.511 1.16574 -1.06058 0
M  V30 985 C 101.751 1.88723 -0.78504 0
M  V30 986 C 102.115 1.79706 0.676006 0
M  V30 987 O 103.316 2.46757 1.06603 0
M  V30 988 C 101.587 3.34338 -1.26304 0
M  V30 989 S 103.146 4.24366 -1.1162 0
M  V30 990 H 99.9638 0.651448 -0.284846 0
M  V30 991 H 102.566 1.40732 -1.35701 0
M  V30 992 H 101.27 3.38439 -2.32136 0
M  V30 993 H 100.801 3.87378 -0.685719 0
M  V30 994 H 102.816 4.96179 -0.0456539 0
M  V30 995 N 101.989 0.842826 1.3317 0
M  V30 996 C 103.237 0.439577 1.97262 0
M  V30 997 C 103.558 -1.00548 1.67078 0
M  V30 998 O 102.828 -1.70098 0.971779 0
M  V30 999 H 101.408 0.159558 0.72976 0
M  V30 1000 H 104.07 1.07665 1.62463 0
M  V30 1001 H 103.166 0.574886 3.0676 0
M  V30 1002 N 103.467 -1.45747 0.599634 0
M  V30 1003 C 104.695 -2.06668 0.0978551 0
M  V30 1004 C 105.11 -1.44562 -1.21439 0
M  V30 1005 O 104.467 -0.556923 -1.73795 0
M  V30 1006 C 104.518 -3.61456 -0.0567044 0
M  V30 1007 O 104.239 -4.21242 1.20361 0
M  V30 1008 C 105.74 -4.39345 -0.590869 0
M  V30 1009 H 102.96 -0.667825 0.0651943 0
M  V30 1010 H 105.504 -1.87115 0.82511 0
M  V30 1011 H 103.659 -3.80378 -0.734251 0
M  V30 1012 H 104.073 -5.14323 1.02821 0
M  V30 1013 H 105.547 -5.48182 -0.648131 0
M  V30 1014 H 106.024 -4.08568 -1.61147 0
M  V30 1015 H 106.63 -4.25268 0.0523679 0
M  V30 1016 N 104.945 -0.338344 -1.53925 0
M  V30 1017 C 106.356 0.146651 -1.86123 0
M  V30 1018 C 106.707 1.5042 -1.2597 0
M  V30 1019 O 105.832 2.08723 -0.571294 0
M  V30 1020 C 106.427 0.272879 -3.37699 0
M  V30 1021 C 104.986 0.702103 -3.69794 0
M  V30 1022 C 104.133 -0.167304 -2.76795 0
M  V30 1023 H 107.084 -0.558123 -1.48562 0
M  V30 1024 H 107.105 1.10128 -3.64214 0
M  V30 1025 H 106.617 -0.715307 -3.81451 0
M  V30 1026 H 104.718 1.6995 -3.31584 0
M  V30 1027 H 104.831 0.495604 -4.7653 0
M  V30 1028 H 103.195 0.359527 -2.5215 0
M  V30 1029 H 103.978 -1.15253 -3.23375 0
M  V30 1030 N 106.423 1.57458 -0.0668435 0
M  V30 1031 C 107.834 1.80776 0.466558 0
M  V30 1032 C 108.185 0.980361 1.69951 0
M  V30 1033 O 107.31 0.201441 2.1546 0
M  V30 1034 C 107.905 3.27881 0.85321 0
M  V30 1035 C 106.464 3.52062 1.3315 0
M  V30 1036 C 105.611 2.75513 0.314264 0
M  V30 1037 H 108.562 1.5598 -0.292588 0
M  V30 1038 H 108.583 3.39659 1.715 0
M  V30 1039 H 108.095 3.88075 -0.0443439 0
M  V30 1040 H 106.196 2.97167 2.24772 0
M  V30 1041 H 106.309 4.60762 1.31285 0
M  V30 1042 H 104.673 2.42123 0.790492 0
M  V30 1043 H 105.456 3.38442 -0.575477 0
M  V30 1044 N 107.901 -0.206675 1.56239 0
M  V30 1045 C 108.811 -1.27686 1.96808 0
M  V30 1046 C 109.827 -1.50455 0.874035 0
M  V30 1047 O 111.003 -1.63295 1.17884 0
M  V30 1048 C 108.068 -2.60358 2.28942 0
M  V30 1049 C 107.129 -2.45762 3.51994 0
M  V30 1050 C 106.362 -3.72108 3.82585 0
M  V30 1051 O 106.585 -4.75776 3.14631 0
M  V30 1052 O 105.519 -3.6833 4.76043 0
M  V30 1053 H 109.345 -0.962593 2.88041 0
M  V30 1054 H 106.93 -0.410746 1.43643 0
M  V30 1055 H 108.812 -3.38687 2.50737 0
M  V30 1056 H 107.487 -2.91435 1.4088 0
M  V30 1057 H 106.394 -1.65584 3.35459 0
M  V30 1058 H 107.727 -2.19621 4.40486 0
M  V30 1059 N 109.379 -1.50304 -0.473955 0
M  V30 1060 C 110.289 -1.7174 -1.5982 0
M  V30 1061 C 111.305 -0.600457 -1.63311 0
M  V30 1062 O 112.481 -0.878441 -1.81233 0
M  V30 1063 C 109.546 -1.80427 -2.96052 0
M  V30 1064 C 108.607 -3.04148 -3.02972 0
M  V30 1065 C 107.84 -3.12411 -4.32706 0
M  V30 1066 O 108.063 -2.27542 -5.23049 0
M  V30 1067 O 106.997 -4.05113 -4.45159 0
M  V30 1068 H 110.823 -2.67035 -1.44657 0
M  V30 1069 H 108.408 -1.34366 -0.653148 0
M  V30 1070 H 110.29 -1.88338 -3.7697 0
M  V30 1071 H 108.965 -0.883156 -3.11419 0
M  V30 1072 H 107.872 -3.0174 -2.21142 0
M  V30 1073 H 109.205 -3.95829 -2.92541 0
M  V30 1074 N 110.857 0.726932 -1.39834 0
M  V30 1075 C 112.087 1.51393 -1.40583 0
M  V30 1076 C 112.495 1.892 -0.000740625 0
M  V30 1077 O 111.838 1.55189 0.982951 0
M  V30 1078 C 111.9 2.82588 -2.22226 0
M  V30 1079 C 111.564 2.67169 -3.70769 0
M  V30 1080 C 112.561 2.3518 -4.63666 0
M  V30 1081 C 110.246 2.83788 -4.14451 0
M  V30 1082 C 112.24 2.20002 -5.98229 0
M  V30 1083 C 109.927 2.68229 -5.49087 0
M  V30 1084 C 110.925 2.36382 -6.4079 0
M  V30 1085 O 110.613 2.2093 -7.72946 0
M  V30 1086 H 110.345 0.474168 -0.48181 0
M  V30 1087 H 112.899 0.905247 -1.84376 0
M  V30 1088 H 111.129 3.45746 -1.73195 0
M  V30 1089 H 112.818 3.44247 -2.15055 0
M  V30 1090 H 113.584 2.21984 -4.31217 0
M  V30 1091 H 109.463 3.07566 -3.43401 0
M  V30 1092 H 113.007 1.95067 -6.69772 0
M  V30 1093 H 108.904 2.81006 -5.81125 0
M  V30 1094 H 109.672 2.35937 -7.83757 0
M  V30 1095 N 112.336 1.25143 0.95797 0
M  V30 1096 C 113.576 1.10893 1.71703 0
M  V30 1097 C 113.94 -0.34478 1.88879 0
M  V30 1098 O 115.141 -0.609014 2.6181 0
M  V30 1099 C 113.412 1.83889 3.06463 0
M  V30 1100 S 114.971 1.85491 3.97666 0
M  V30 1101 H 111.789 0.396428 0.590226 0
M  V30 1102 H 114.391 1.58618 1.14283 0
M  V30 1103 H 113.095 2.88756 2.9163 0
M  V30 1104 H 112.626 1.36538 3.68946 0
M  V30 1105 H 114.641 0.929553 4.87415 0
M  V30 1106 N 113.814 -1.1601 1.06675 0
M  V30 1107 C 115.06 -1.86909 0.786945 0
M  V30 1108 C 115.393 -1.81717 -0.685018 0
M  V30 1109 O 114.668 -1.23551 -1.50218 0
M  V30 1110 C 114.951 -3.36313 1.28707 0
M  V30 1111 C 114.804 -3.50175 2.82308 0
M  V30 1112 C 116.123 -4.3084 0.898071 0
M  V30 1113 H 113.242 -0.678677 0.287343 0
M  V30 1114 H 115.884 -1.36336 1.32334 0
M  V30 1115 H 114.034 -3.79513 0.830768 0
M  V30 1116 H 115.706 -3.15886 3.36175 0
M  V30 1117 H 113.949 -2.91959 3.20847 0
M  V30 1118 H 114.62 -4.55116 3.12368 0
M  V30 1119 H 117.096 -3.95561 1.29114 0
M  V30 1120 H 115.972 -5.33876 1.27543 0
M  V30 1121 H 116.233 -4.41662 -0.196651 0
M  V30 1122 N 115.292 -0.849877 -1.32721 0
M  V30 1123 C 116.224 -0.248332 -2.27851 0
M  V30 1124 C 117.237 0.577218 -1.52224 0
M  V30 1125 O 118.426 0.402489 -1.73903 0
M  V30 1126 C 115.526 0.668107 -3.32249 0
M  V30 1127 C 114.699 -0.120534 -4.37234 0
M  V30 1128 C 113.758 0.720932 -5.21238 0
M  V30 1129 O 112.784 0.156166 -5.68986 0
M  V30 1130 N 113.986 2.03647 -5.43607 0
M  V30 1131 H 116.751 -1.06575 -2.80111 0
M  V30 1132 H 114.312 -0.709395 -1.45531 0
M  V30 1133 H 116.304 1.23627 -3.85355 0
M  V30 1134 H 114.874 1.38621 -2.80184 0
M  V30 1135 H 114.094 -0.870108 -3.84477 0
M  V30 1136 H 115.382 -0.662406 -5.0447 0
M  V30 1137 H 114.78 2.51871 -5.06535 0
M  V30 1138 H 113.337 2.55287 -5.99727 0
M  V30 1139 N 116.77 1.45427 -0.607355 0
M  V30 1140 C 117.998 2.06614 -0.108814 0
M  V30 1141 C 118.413 1.45204 1.2067 0
M  V30 1142 O 117.77 0.566132 1.73497 0
M  V30 1143 C 117.821 3.61481 0.0375347 0
M  V30 1144 O 117.542 4.20598 -1.22593 0
M  V30 1145 C 119.043 4.39652 0.567561 0
M  V30 1146 H 116.263 0.66747 -0.0687351 0
M  V30 1147 H 118.807 1.86675 -0.835022 0
M  V30 1148 H 116.962 3.80762 0.714068 0
M  V30 1149 H 117.376 5.1377 -1.05547 0
M  V30 1150 H 118.85 5.48518 0.61905 0
M  V30 1151 H 119.327 4.09417 1.58978 0
M  V30 1152 H 119.933 4.25234 -0.0749202 0
M  V30 1153 N 118.248 0.346503 1.53744 0
M  V30 1154 C 119.496 -0.248612 2.00565 0
M  V30 1155 C 119.817 -1.5083 1.23593 0
M  V30 1156 O 119.087 -1.92858 0.343912 0
M  V30 1157 H 117.667 -0.0948564 0.740953 0
M  V30 1158 H 120.329 0.468341 1.89189 0
M  V30 1159 H 119.425 -0.488994 3.08245 0
M  V30 1160 N 119.726 -1.57421 0.075193 0
M  V30 1161 C 120.972 -1.93905 -0.594025 0
M  V30 1162 C 121.305 -0.955701 -1.69056 0
M  V30 1163 O 120.58 0.0145373 -1.94495 0
M  V30 1164 C 120.863 -3.40638 -1.1678 0
M  V30 1165 C 120.716 -4.49733 -0.0776792 0
M  V30 1166 C 122.035 -3.88259 -2.07228 0
M  V30 1167 H 119.154 -0.705105 -0.214466 0
M  V30 1168 H 121.796 -1.8947 0.141854 0
M  V30 1169 H 119.946 -3.44549 -1.79494 0
M  V30 1170 H 121.618 -4.57942 0.555573 0
M  V30 1171 H 119.861 -4.29751 0.591286 0
M  V30 1172 H 120.532 -5.49549 -0.519603 0
M  V30 1173 H 123.008 -3.86376 -1.54445 0
M  V30 1174 H 121.884 -4.91533 -2.44308 0
M  V30 1175 H 122.145 -3.26396 -2.98191 0
M  V30 1176 N 121.204 0.198386 -1.56346 0
M  V30 1177 C 122.432 0.935572 -1.84539 0
M  V30 1178 C 122.847 1.76989 -0.657281 0
M  V30 1179 O 122.204 1.78626 0.374043 0
M  V30 1180 C 122.255 1.8344 -3.11499 0
M  V30 1181 O 121.976 1.03377 -4.25728 0
M  V30 1182 C 123.477 2.68355 -3.52846 0
M  V30 1183 H 120.697 0.273126 -0.612897 0
M  V30 1184 H 123.241 0.20663 -2.03453 0
M  V30 1185 H 121.396 2.51701 -2.94492 0
M  V30 1186 H 121.81 1.64599 -4.98003 0
M  V30 1187 H 123.284 3.27085 -4.44657 0
M  V30 1188 H 123.761 3.41901 -2.75681 0
M  V30 1189 H 124.367 2.05471 -3.72373 0
M  V30 1190 N 122.682 1.50554 0.465978 0
M  V30 1191 C 123.93 1.61479 1.21528 0
M  V30 1192 C 124.251 0.319596 1.92363 0
M  V30 1193 O 123.521 -0.663194 1.84333 0
M  V30 1194 H 122.101 0.595055 0.451573 0
M  V30 1195 H 124.763 1.87355 0.53704 0
M  V30 1196 H 123.859 2.42846 1.96042 0
M  V30 1197 N 124.16 -0.719506 1.40217 0
M  V30 1198 C 125.406 -1.48152 1.38488 0
M  V30 1199 C 125.739 -1.94195 -0.0141867 0
M  V30 1200 O 125.014 -1.67884 -0.982096 0
M  V30 1201 C 125.297 -2.71035 2.37091 0
M  V30 1202 C 125.15 -2.30912 3.86005 0
M  V30 1203 C 126.469 -3.73182 2.33288 0
M  V30 1204 H 123.588 -0.537395 0.504357 0
M  V30 1205 H 126.23 -0.821472 1.71324 0
M  V30 1206 H 124.38 -3.27352 2.0922 0
M  V30 1207 H 126.052 -1.80107 4.24687 0
M  V30 1208 H 124.295 -1.62958 4.02029 0
M  V30 1209 H 124.966 -3.18978 4.50508 0
M  V30 1210 H 127.442 -3.26485 2.57966 0
M  V30 1211 H 126.318 -4.56806 3.04334 0
M  V30 1212 H 126.579 -4.21202 1.34317 0
M  V30 1213 N 125.638 -1.25649 -0.95132 0
M  V30 1214 C 126.866 -1.13343 -1.73092 0
M  V30 1215 C 127.281 0.312434 -1.86197 0
M  V30 1216 O 126.638 1.21465 -1.36207 0
M  V30 1217 C 126.689 -1.78602 -3.14299 0
M  V30 1218 O 126.41 -3.17537 -3.01831 0
M  V30 1219 C 127.911 -1.72119 -4.08522 0
M  V30 1220 H 125.131 -0.395181 -0.542285 0
M  V30 1221 H 127.675 -1.66076 -1.19328 0
M  V30 1222 H 125.83 -1.29832 -3.64996 0
M  V30 1223 H 126.244 -3.49676 -3.90931 0
M  V30 1224 H 127.718 -2.22435 -5.052 0
M  V30 1225 H 128.195 -0.685635 -4.33815 0
M  V30 1226 H 128.801 -2.20393 -3.63741 0
M  V30 1227 N 127.117 1.15442 -1.07289 0
M  V30 1228 C 128.064 2.20161 -0.692653 0
M  V30 1229 C 129.034 1.63073 0.31564 0
M  V30 1230 O 130.219 1.89725 0.202235 0
M  V30 1231 C 127.359 3.44967 -0.0959509 0
M  V30 1232 C 126.472 4.16256 -1.15564 0
M  V30 1233 C 125.607 5.28609 -0.524011 0
M  V30 1234 C 124.646 5.91715 -1.56653 0
M  V30 1235 N 123.783 6.9554 -0.957531 0
M  V30 1236 H 128.623 2.52037 -1.59002 0
M  V30 1237 H 126.16 1.2378 -0.794798 0
M  V30 1238 H 128.118 4.16341 0.267628 0
M  V30 1239 H 126.748 3.1361 0.764772 0
M  V30 1240 H 125.8 3.43385 -1.6368 0
M  V30 1241 H 127.112 4.59268 -1.94613 0
M  V30 1242 H 126.266 6.06604 -0.108032 0
M  V30 1243 H 125.005 4.86787 0.29825 0
M  V30 1244 H 124.01 5.12433 -1.9923 0
M  V30 1245 H 125.235 6.35614 -2.39107 0
M  V30 1246 H 123.181 6.55814 -0.156162 0
M  V30 1247 H 123.098 7.36977 -1.68526 0
M  V30 1248 H 124.366 7.77435 -0.567032 0
M  V30 1249 N 128.595 0.856903 1.32268 0
M  V30 1250 C 129.82 0.474569 2.01897 0
M  V30 1251 C 130.245 -0.921766 1.63967 0
M  V30 1252 O 129.603 -1.60589 0.84148 0
M  V30 1253 C 129.651 0.623799 3.55164 0
M  V30 1254 O 128.755 -0.342459 4.10976 0
M  V30 1255 H 128.096 0.190422 0.63611 0
M  V30 1256 H 130.626 1.15672 1.68764 0
M  V30 1257 H 130.636 0.512169 4.04773 0
M  V30 1258 H 129.311 1.64202 3.82113 0
M  V30 1259 H 127.888 -0.18688 3.72431 0
M  V30 1260 N 130.073 -1.45103 0.615059 0
M  V30 1261 C 131.313 -2.04069 0.116282 0
M  V30 1262 C 131.677 -1.4721 -1.2326 0
M  V30 1263 O 132.878 -1.97577 -1.82255 0
M  V30 1264 C 131.149 -3.57298 0.085482 0
M  V30 1265 S 132.708 -4.37394 -0.351015 0
M  V30 1266 H 129.526 -0.709006 0.0532183 0
M  V30 1267 H 132.128 -1.77709 0.81484 0
M  V30 1268 H 130.832 -3.9619 1.0706 0
M  V30 1269 H 130.363 -3.88244 -0.634835 0
M  V30 1270 H 132.378 -4.69734 -1.59889 0
M  V30 1271 N 131.551 -0.354651 -1.53558 0
M  V30 1272 C 132.501 0.513179 -2.2215 0
M  V30 1273 C 133.485 1.05734 -1.21281 0
M  V30 1274 O 134.677 0.989202 -1.46778 0
M  V30 1275 C 131.806 1.65798 -3.00609 0
M  V30 1276 C 130.892 1.12722 -4.08845 0
M  V30 1277 N 131.283 0.318563 -5.04796 0
M  V30 1278 C 129.581 1.40307 -4.23356 0
M  V30 1279 C 130.282 0.0292224 -5.81693 0
M  V30 1280 N 129.258 0.623891 -5.40008 0
M  V30 1281 H 133.06 -0.111586 -2.93688 0
M  V30 1282 H 130.574 -0.162091 -1.61589 0
M  V30 1283 H 132.571 2.29176 -3.48258 0
M  V30 1284 H 131.231 2.28591 -2.306 0
M  V30 1285 H 132.242 -0.0413091 -5.17884 0
M  V30 1286 H 128.919 2.03458 -3.6457 0
M  V30 1287 H 130.309 -0.623808 -6.68998 0
M  V30 1288 N 133.029 1.57378 -0.0835403 0
M  V30 1289 C 133.959 2.1641 0.87686 0
M  V30 1290 C 134.94 1.09429 1.30228 0
M  V30 1291 O 136.125 1.37516 1.37124 0
M  V30 1292 C 133.255 2.73517 2.14022 0
M  V30 1293 C 132.209 3.85769 1.85381 0
M  V30 1294 C 131.535 4.29529 3.18448 0
M  V30 1295 C 132.835 5.09486 1.14984 0
M  V30 1296 H 134.529 2.96914 0.385059 0
M  V30 1297 H 132.075 1.42823 0.18377 0
M  V30 1298 H 134.028 3.13463 2.81636 0
M  V30 1299 H 132.752 1.90252 2.65465 0
M  V30 1300 H 131.411 3.46345 1.20169 0
M  V30 1301 H 131.059 3.43169 3.67755 0
M  V30 1302 H 130.759 5.05204 3.00071 0
M  V30 1303 H 132.283 4.72099 3.8724 0
M  V30 1304 H 133.697 5.46674 1.72687 0
M  V30 1305 H 132.094 5.90515 1.06826 0
M  V30 1306 H 133.164 4.84724 0.130749 0
M  V30 1307 N 134.507 -0.190092 1.56449 0
M  V30 1308 C 135.747 -0.916414 1.82705 0
M  V30 1309 C 136.111 -1.80235 0.661763 0
M  V30 1310 O 137.312 -2.56484 0.80433 0
M  V30 1311 C 135.583 -1.70691 3.14005 0
M  V30 1312 S 137.142 -2.48457 3.61683 0
M  V30 1313 H 133.96 -0.307281 0.64117 0
M  V30 1314 H 136.562 -0.179433 1.94675 0
M  V30 1315 H 135.266 -1.04677 3.96826 0
M  V30 1316 H 134.797 -2.48562 3.04927 0
M  V30 1317 H 136.812 -3.72756 3.27517 0
M  V30 1318 N 135.985 -1.50799 -0.457987 0
M  V30 1319 C 137.262 -1.52968 -1.21902 0
M  V30 1320 C 137.642 -0.281906 -2.09209 0
M  V30 1321 O 136.99 0.734076 -2.16388 0
M  V30 1322 C 137.2 -2.8326 -2.03875 0
M  V30 1323 C 138.548 -3.34425 -2.6162 0
M  V30 1324 O 139.572 -2.8467 -2.14106 0
M  V30 1325 O 138.431 -4.21188 -3.48228 0
M  V30 1326 H 135.525 -0.614129 -0.553873 0
M  V30 1327 H 138.071 -1.63098 -0.468739 0
M  V30 1328 H 136.843 -3.65543 -1.39621 0
M  V30 1329 H 136.466 -2.76195 -2.8601 0
M  V30 1330 N 137.463 0.71206 -1.40597 0
M  V30 1331 C 138.426 1.80785 -1.40888 0
M  V30 1332 C 139.426 1.57937 -0.302103 0
M  V30 1333 O 140.616 1.64913 -0.561182 0
M  V30 1334 C 137.748 3.18927 -1.20409 0
M  V30 1335 H 138.941 1.81924 -2.38419 0
M  V30 1336 H 136.494 0.91805 -1.26497 0
M  V30 1337 H 137.229 3.23436 -0.236522 0
M  V30 1338 H 137.014 3.36911 -2.00582 0
M  V30 1339 H 138.504 3.98949 -1.23408 0
M  V30 1340 N 138.941 1.26152 0.944643 0
M  V30 1341 C 140.189 1.11271 1.6871 0
M  V30 1342 C 140.51 -0.345166 1.91921 0
M  V30 1343 O 139.78 -1.24387 1.51343 0
M  V30 1344 H 138.36 0.408783 0.625224 0
M  V30 1345 H 141.022 1.58427 1.1352 0
M  V30 1346 H 140.118 1.62879 2.66227 0
M  V30 1347 N 140.419 -1.14872 1.07899 0
M  V30 1348 C 141.351 -2.19425 0.662231 0
M  V30 1349 C 142.364 -1.60231 -0.288079 0
M  V30 1350 O 143.553 -1.78336 -0.076534 0
M  V30 1351 C 140.653 -3.38867 -0.0470695 0
M  V30 1352 C 139.826 -4.27597 0.920831 0
M  V30 1353 C 138.885 -5.25616 0.247805 0
M  V30 1354 O 137.911 -5.62189 0.890599 0
M  V30 1355 N 139.113 -5.71746 -1.00435 0
M  V30 1356 H 141.878 -2.55797 1.56166 0
M  V30 1357 H 139.439 -1.30042 0.964404 0
M  V30 1358 H 141.431 -4.01497 -0.50813 0
M  V30 1359 H 140.001 -3.00864 -0.848523 0
M  V30 1360 H 139.221 -3.61982 1.56087 0
M  V30 1361 H 140.509 -4.83748 1.57688 0
M  V30 1362 H 139.907 -5.44153 -1.54642 0
M  V30 1363 H 138.464 -6.36389 -1.40899 0
M  V30 1364 N 141.898 -0.863906 -1.31812 0
M  V30 1365 C 143.309 -0.52522 -1.7916 0
M  V30 1366 C 143.66 0.957518 -1.71248 0
M  V30 1367 O 142.785 1.74734 -1.27659 0
M  V30 1368 C 143.38 -0.9466 -3.25307 0
M  V30 1369 C 141.939 -0.659668 -3.70574 0
M  V30 1370 C 141.086 -1.14126 -2.52726 0
M  V30 1371 H 144.037 -1.05022 -1.1898 0
M  V30 1372 H 144.058 -0.266766 -3.79564 0
M  V30 1373 H 143.57 -2.02579 -3.31034 0
M  V30 1374 H 141.671 0.408416 -3.70355 0
M  V30 1375 H 141.784 -1.23245 -4.62977 0
M  V30 1376 H 140.148 -0.561216 -2.4844 0
M  V30 1377 H 140.931 -2.22775 -2.61201 0
M  V30 1378 N 143.376 1.44774 -0.622745 0
M  V30 1379 C 144.326 2.2774 0.108889 0
M  V30 1380 C 145.31 1.38189 0.824175 0
M  V30 1381 O 146.502 1.62063 0.711664 0
M  V30 1382 C 143.631 3.25353 1.09546 0
M  V30 1383 C 142.717 4.22392 0.380232 0
M  V30 1384 N 143.108 5.02388 -0.586535 0
M  V30 1385 C 141.406 4.41588 0.625792 0
M  V30 1386 C 142.107 5.72894 -1.00834 0
M  V30 1387 N 141.083 5.42479 -0.348878 0
M  V30 1388 H 144.885 2.86993 -0.63341 0
M  V30 1389 H 142.399 1.5611 -0.447589 0
M  V30 1390 H 144.396 3.83538 1.63414 0
M  V30 1391 H 143.056 2.6766 1.83815 0
M  V30 1392 H 144.067 5.0885 -0.963975 0
M  V30 1393 H 140.744 3.95003 1.352 0
M  V30 1394 H 142.134 6.47158 -1.80656 0
M  V30 1395 N 144.854 0.36279 1.53368 0
M  V30 1396 C 145.784 -0.476976 2.28576 0
M  V30 1397 C 146.765 -1.08631 1.30894 0
M  V30 1398 O 147.95 -1.10409 1.59761 0
M  V30 1399 C 145.08 -1.61828 3.07293 0
M  V30 1400 C 144.034 -1.13633 4.1264 0
M  V30 1401 C 143.36 -2.36766 4.79423 0
M  V30 1402 C 144.66 -0.223061 5.21823 0
M  V30 1403 H 146.354 0.150474 2.99022 0
M  V30 1404 H 143.9 0.0738103 1.43811 0
M  V30 1405 H 145.853 -2.21237 3.58653 0
M  V30 1406 H 144.577 -2.27292 2.34533 0
M  V30 1407 H 143.236 -0.564945 3.62221 0
M  V30 1408 H 142.884 -3.0068 4.03238 0
M  V30 1409 H 142.584 -2.05192 5.50609 0
M  V30 1410 H 144.108 -2.96865 5.33576 0
M  V30 1411 H 145.522 -0.724545 5.68703 0
M  V30 1412 H 143.919 0.001678 6.001 0
M  V30 1413 H 144.989 0.735553 4.79289 0
M  V30 1414 N 146.332 -1.57332 0.0918853 0
M  V30 1415 C 147.264 -2.10869 -0.898168 0
M  V30 1416 C 148.277 -1.04521 -1.24817 0
M  V30 1417 O 149.466 -1.31977 -1.20184 0
M  V30 1418 C 146.566 -2.57083 -2.2082 0
M  V30 1419 C 145.739 -3.87229 -2.03402 0
M  V30 1420 C 144.798 -4.19324 -3.17889 0
M  V30 1421 O 143.824 -4.88598 -2.91994 0
M  V30 1422 N 145.026 -3.74471 -4.43567 0
M  V30 1423 H 147.791 -2.96439 -0.440943 0
M  V30 1424 H 145.352 -1.61631 -0.0933064 0
M  V30 1425 H 147.344 -2.75602 -2.96354 0
M  V30 1426 H 145.914 -1.76541 -2.57977 0
M  V30 1427 H 145.134 -3.7789 -1.12218 0
M  V30 1428 H 146.422 -4.72379 -1.89038 0
M  V30 1429 H 145.82 -3.18546 -4.67488 0
M  V30 1430 H 144.377 -3.98151 -5.16061 0
M  V30 1431 N 147.81 0.181792 -1.56548 0
M  V30 1432 C 148.76 1.22961 -1.92002 0
M  V30 1433 C 149.744 1.40331 -0.787146 0
M  V30 1434 O 150.936 1.42478 -1.05019 0
M  V30 1435 C 148.065 2.57144 -2.27446 0
M  V30 1436 C 147.151 2.43512 -3.47222 0
M  V30 1437 N 147.542 1.99577 -4.64761 0
M  V30 1438 C 145.84 2.74368 -3.51622 0
M  V30 1439 C 146.541 1.98156 -5.46909 0
M  V30 1440 N 145.517 2.40164 -4.8767 0
M  V30 1441 H 149.319 0.881462 -2.8037 0
M  V30 1442 H 146.833 0.390141 -1.57644 0
M  V30 1443 H 148.83 3.32847 -2.51035 0
M  V30 1444 H 147.49 2.92771 -1.40411 0
M  V30 1445 H 148.501 1.70078 -4.89177 0
M  V30 1446 H 145.178 3.14102 -2.75038 0
M  V30 1447 H 146.568 1.65975 -6.51077 0
M  V30 1448 N 149.288 1.51039 0.449983 0
M  V30 1449 C 150.536 1.62759 1.19808 0
M  V30 1450 C 150.857 0.339981 1.92013 0
M  V30 1451 O 150.127 -0.643606 1.85026 0
M  V30 1452 H 148.707 0.599811 0.445237 0
M  V30 1453 H 151.369 1.87914 0.517138 0
M  V30 1454 H 150.465 2.44911 1.93455 0
M  V30 1455 N 150.766 -0.704594 1.40972 0
M  V30 1456 C 151.729 -1.80035 1.41845 0
M  V30 1457 C 152.729 -1.57774 0.310474 0
M  V30 1458 O 153.919 -1.64613 0.56992 0
M  V30 1459 C 151.051 -3.18284 1.22098 0
M  V30 1460 H 152.244 -1.80658 2.3938 0
M  V30 1461 H 149.797 -0.911329 1.26982 0
M  V30 1462 H 150.532 -3.23306 0.253672 0
M  V30 1463 H 150.317 -3.35843 2.02366 0
M  V30 1464 H 151.807 -3.98289 1.25522 0
M  V30 1465 N 152.244 -1.26651 -0.937939 0
M  V30 1466 C 153.207 -1.08546 -2.01867 0
M  V30 1467 C 154.207 -0.0327327 -1.60767 0
M  V30 1468 O 155.397 -0.276427 -1.71993 0
M  V30 1469 C 152.529 -0.651711 -3.34613 0
M  V30 1470 H 153.722 -2.04502 -2.1936 0
M  V30 1471 H 151.275 -1.09294 -1.11734 0
M  V30 1472 H 152.01 0.309696 -3.22818 0
M  V30 1473 H 151.795 -1.41189 -3.65798 0
M  V30 1474 H 153.285 -0.546973 -4.14002 0
M  V30 1475 N 153.722 1.14298 -1.08507 0
M  V30 1476 C 154.969 1.85359 -0.815373 0
M  V30 1477 C 155.297 1.83001 0.658865 0
M  V30 1478 O 154.552 1.25655 1.50031 0
M  V30 1479 C 154.851 3.33547 -1.28379 0
M  V30 1480 C 154.517 3.56093 -2.76602 0
M  V30 1481 C 153.179 3.61955 -3.17084 0
M  V30 1482 C 155.531 3.64834 -3.72217 0
M  V30 1483 C 152.859 3.74082 -4.51973 0
M  V30 1484 C 155.211 3.78487 -5.06883 0
M  V30 1485 C 153.875 3.82598 -5.46969 0
M  V30 1486 H 153.145 0.678276 -0.298366 0
M  V30 1487 H 155.792 1.35002 -1.35819 0
M  V30 1488 H 154.097 3.86191 -0.660593 0
M  V30 1489 H 155.794 3.86959 -1.05186 0
M  V30 1490 H 152.384 3.52179 -2.4427 0
M  V30 1491 H 156.568 3.59595 -3.42061 0
M  V30 1492 H 151.824 3.75527 -4.82483 0
M  V30 1493 H 155.998 3.84193 -5.80834 0
M  V30 1494 H 153.625 3.91747 -6.51489 0
M  V30 1495 N 155.201 0.870884 1.31352 0
M  V30 1496 C 156.131 0.343096 2.30966 0
M  V30 1497 C 157.112 -0.566507 1.60389 0
M  V30 1498 O 158.297 -0.483336 1.88089 0
M  V30 1499 C 155.427 -0.455487 3.443 0
M  V30 1500 C 154.381 0.361103 4.26474 0
M  V30 1501 C 153.707 -0.563221 5.31725 0
M  V30 1502 C 155.007 1.59566 4.97329 0
M  V30 1503 H 156.701 1.17548 2.75359 0
M  V30 1504 H 154.247 0.566686 1.32381 0
M  V30 1505 H 156.2 -0.83525 4.13039 0
M  V30 1506 H 154.924 -1.32139 2.98675 0
M  V30 1507 H 153.583 0.722825 3.59403 0
M  V30 1508 H 153.231 -1.42643 4.82351 0
M  V30 1509 H 152.931 -0.0207409 5.87596 0
M  V30 1510 H 154.455 -0.939808 6.03324 0
M  V30 1511 H 155.869 1.28728 5.58661 0
M  V30 1512 H 154.266 2.07728 5.63 0
M  V30 1513 H 155.336 2.34798 4.24262 0
M  V30 1514 N 156.679 -1.44442 0.630414 0
M  V30 1515 C 157.907 -2.06414 0.141671 0
M  V30 1516 C 158.322 -1.47105 -1.18345 0
M  V30 1517 O 157.679 -0.593662 -1.72574 0
M  V30 1518 C 157.73 -3.61494 0.0199784 0
M  V30 1519 O 157.451 -4.18594 1.29269 0
M  V30 1520 C 158.952 -4.40499 -0.497544 0
M  V30 1521 H 156.172 -0.666292 0.0793452 0
M  V30 1522 H 158.716 -1.85323 0.864614 0
M  V30 1523 H 156.871 -3.8185 -0.653402 0
M  V30 1524 H 157.285 -5.12026 1.13707 0
M  V30 1525 H 158.759 -5.49433 -0.531708 0
M  V30 1526 H 159.236 -4.11895 -1.52445 0
M  V30 1527 H 159.842 -4.25061 0.142562 0
M  V30 1528 N 158.157 -0.370918 -1.53173 0
M  V30 1529 C 159.434 0.273754 -1.93675 0
M  V30 1530 C 159.814 1.65938 -1.3049 0
M  V30 1531 O 159.162 2.23698 -0.465999 0
M  V30 1532 C 159.372 0.318602 -3.47543 0
M  V30 1533 C 160.72 0.556392 -4.20939 0
M  V30 1534 O 161.744 0.399587 -3.53952 0
M  V30 1535 O 160.603 0.862133 -5.39657 0
M  V30 1536 H 157.697 0.165448 -0.810281 0
M  V30 1537 H 160.243 -0.42409 -1.64315 0
M  V30 1538 H 159.015 -0.652687 -3.85818 0
M  V30 1539 H 158.638 1.06212 -3.83151 0
M  V30 1540 N 159.635 1.57281 -0.100228 0
M  V30 1541 C 160.865 1.98591 0.569681 0
M  V30 1542 C 161.273 0.978315 1.61943 0
M  V30 1543 O 160.616 -0.0396108 1.83657 0
M  V30 1544 C 160.678 3.36282 1.271 0
M  V30 1545 C 160.342 4.55488 0.371409 0
M  V30 1546 C 161.339 5.18491 -0.382504 0
M  V30 1547 C 159.024 5.01474 0.287965 0
M  V30 1548 C 161.018 6.25852 -1.20779 0
M  V30 1549 C 158.705 6.08701 -0.540965 0
M  V30 1550 C 159.703 6.70755 -1.28749 0
M  V30 1551 O 159.391 7.75914 -2.10269 0
M  V30 1552 H 159.123 0.65752 0.156982 0
M  V30 1553 H 161.677 2.0463 -0.177734 0
M  V30 1554 H 159.907 3.26941 2.0651 0
M  V30 1555 H 161.596 3.62005 1.83595 0
M  V30 1556 H 162.362 4.83891 -0.3278 0
M  V30 1557 H 158.241 4.52932 0.858689 0
M  V30 1558 H 161.785 6.74218 -1.79096 0
M  V30 1559 H 157.682 6.42732 -0.597131 0
M  V30 1560 H 158.45 7.92925 -2.03007 0
M  V30 1561 N 161.113 -0.173488 1.56642 0
M  V30 1562 C 162.061 -1.23417 1.97157 0
M  V30 1563 C 163.055 -1.45946 0.860013 0
M  V30 1564 O 164.261 -1.46551 1.04512 0
M  V30 1565 H 160.636 -0.414818 0.62724 0
M  V30 1566 H 162.607 -0.865582 2.8557 0
M  V30 1567 C 161.356 -2.5665 2.34576 0
M  V30 1568 H 160.679 -2.40137 3.19647 0
M  V30 1569 H 162.119 -3.2956 2.6677 0
M  V30 1570 C 160.578 -3.15245 1.18836 0
M  V30 1571 O 161.108 -3.98883 0.474869 0
M  V30 1572 N 159.314 -2.74303 0.959497 0
M  V30 1573 H 158.861 -2.0639 1.54146 0
M  V30 1574 H 158.819 -3.13844 0.186932 0
M  V30 1575 N 162.591 -1.51276 -0.441967 0
M  V30 1576 C 163.539 -1.72823 -1.55676 0
M  V30 1577 C 164.533 -0.59445 -1.58627 0
M  V30 1578 O 165.739 -0.775715 -1.62427 0
M  V30 1579 H 162.114 -0.545983 -0.517113 0
M  V30 1580 H 164.085 -2.6628 -1.34675 0
M  V30 1581 C 162.834 -1.86619 -2.93375 0
M  V30 1582 H 162.157 -2.73264 -2.91834 0
M  V30 1583 H 163.597 -2.05709 -3.70756 0
M  V30 1584 C 162.056 -0.624842 -3.31055 0
M  V30 1585 O 162.586 0.222636 -4.01083 0
M  V30 1586 N 160.792 -0.470288 -2.86769 0
M  V30 1587 H 160.339 -1.161 -2.29953 0
M  V30 1588 H 160.297 0.359051 -3.12343 0
M  V30 1589 N 164.069 0.697108 -1.41344 0
M  V30 1590 C 165.001 1.8224 -1.39001 0
M  V30 1591 C 166.014 1.60152 -0.292428 0
M  V30 1592 O 167.203 1.69684 -0.554048 0
M  V30 1593 C 164.303 3.18976 -1.14489 0
M  V30 1594 C 163.476 3.68105 -2.36258 0
M  V30 1595 C 162.535 4.83506 -2.07625 0
M  V30 1596 O 161.561 4.95201 -2.8065 0
M  V30 1597 N 162.763 5.70637 -1.06555 0
M  V30 1598 H 165.528 1.84742 -2.35988 0
M  V30 1599 H 163.089 0.87937 -1.35936 0
M  V30 1600 H 165.081 3.93801 -0.932885 0
M  V30 1601 H 163.651 3.11508 -0.261043 0
M  V30 1602 H 162.871 2.84204 -2.7317 0
M  V30 1603 H 164.159 3.97667 -3.17393 0
M  V30 1604 H 163.557 5.63817 -0.461125 0
M  V30 1605 H 162.114 6.45368 -0.913444 0
M  V30 1606 N 165.547 1.27147 0.931209 0
M  V30 1607 C 166.51 1.09615 2.01289 0
M  V30 1608 C 167.51 0.0412581 1.60747 0
M  V30 1609 O 168.7 0.285545 1.71844 0
M  V30 1610 C 165.832 0.669447 3.34262 0
M  V30 1611 H 167.025 2.05662 2.18273 0
M  V30 1612 H 164.578 1.09885 1.11153 0
M  V30 1613 H 165.313 -0.292572 3.22978 0
M  V30 1614 H 165.098 1.43127 3.65044 0
M  V30 1615 H 166.588 0.568921 4.13706 0
M  V30 1616 N 167.025 -1.13721 1.09112 0
M  V30 1617 C 168.302 -1.81155 0.737706 0
M  V30 1618 C 168.682 -1.96253 -0.777683 0
M  V30 1619 O 168.03 -1.52807 -1.69889 0
M  V30 1620 C 168.24 -3.16392 1.47299 0
M  V30 1621 C 169.588 -3.91787 1.63671 0
M  V30 1622 O 170.612 -3.26005 1.43524 0
M  V30 1623 O 169.471 -5.0977 1.96969 0
M  V30 1624 H 166.565 -0.783518 0.26463 0
M  V30 1625 H 169.111 -1.20676 1.19312 0
M  V30 1626 H 167.883 -3.0061 2.50498 0
M  V30 1627 H 167.506 -3.8457 1.00953 0
M  V30 1628 N 168.503 -0.877838 -1.30888 0
M  V30 1629 C 169.731 -0.507414 -2.00581 0
M  V30 1630 C 170.146 0.902216 -1.65848 0
M  V30 1631 O 169.503 1.59225 -0.891831 0
M  V30 1632 C 169.554 -0.664162 -3.55347 0
M  V30 1633 O 169.275 -2.01829 -3.8884 0
M  V30 1634 C 170.776 -0.295787 -4.42312 0
M  V30 1635 H 167.996 -0.196866 -0.641471 0
M  V30 1636 H 170.54 -1.18117 -1.66939 0
M  V30 1637 H 168.695 -0.0378619 -3.87381 0
M  V30 1638 H 169.109 -2.03174 -4.8355 0
M  V30 1639 H 170.583 -0.456388 -5.5011 0
M  V30 1640 H 171.06 0.765663 -4.32475 0
M  V30 1641 H 171.666 -0.898113 -4.15709 0
M  V30 1642 N 169.982 1.44106 -0.638065 0
M  V30 1643 C 171.21 2.06336 -0.152615 0
M  V30 1644 C 171.625 1.47731 1.17563 0
M  V30 1645 O 170.982 0.602806 1.72257 0
M  V30 1646 C 171.033 3.61479 -0.0391491 0
M  V30 1647 O 170.754 4.17903 -1.31487 0
M  V30 1648 C 172.255 4.40757 0.474176 0
M  V30 1649 H 169.475 0.665862 -0.0828776 0
M  V30 1650 H 172.019 1.84862 -0.87443 0
M  V30 1651 H 170.174 3.82191 0.633142 0
M  V30 1652 H 170.588 5.11416 -1.16421 0
M  V30 1653 H 172.062 5.49707 0.502562 0
M  V30 1654 H 172.539 4.12697 1.50258 0
M  V30 1655 H 173.145 4.24979 -0.165102 0
M  V30 1656 N 171.46 0.379036 1.52974 0
M  V30 1657 C 172.706 -0.199244 2.02422 0
M  V30 1658 C 173.061 -1.4532 1.26095 0
M  V30 1659 O 172.354 -1.88377 0.34996 0
M  V30 1660 C 172.548 -0.53096 3.53434 0
M  V30 1661 C 172.377 0.689298 4.44386 0
M  V30 1662 C 171.147 1.20546 4.9071 0
M  V30 1663 C 173.345 1.55856 4.90116 0
M  V30 1664 N 171.327 2.38434 5.65705 0
M  V30 1665 C 172.698 2.58396 5.63588 0
M  V30 1666 C 174.753 1.57986 4.7217 0
M  V30 1667 C 173.456 3.62939 6.21022 0
M  V30 1668 C 175.482 2.6143 5.30479 0
M  V30 1669 C 174.844 3.62693 6.03849 0
M  V30 1670 H 170.943 -0.0352671 0.781204 0
M  V30 1671 H 173.527 0.526614 1.87443 0
M  V30 1672 H 171.698 -1.22588 3.68547 0
M  V30 1673 H 173.43 -1.0955 3.89591 0
M  V30 1674 H 170.185 0.768022 4.67331 0
M  V30 1675 H 170.609 2.98055 6.07859 0
M  V30 1676 H 175.251 0.810475 4.14959 0
M  V30 1677 H 172.969 4.40751 6.77321 0
M  V30 1678 H 176.555 2.63949 5.18481 0
M  V30 1679 H 175.435 4.41424 6.48163 0
M  V30 1680 N 172.938 -1.57226 0.108567 0
M  V30 1681 C 174.184 -1.95919 -0.546564 0
M  V30 1682 C 174.539 -0.990417 -1.6495 0
M  V30 1683 O 173.832 -0.0186593 -1.91591 0
M  V30 1684 C 174.026 -3.38911 -1.13463 0
M  V30 1685 C 173.855 -4.4961 -0.0901926 0
M  V30 1686 C 172.625 -5.04168 0.338008 0
M  V30 1687 C 174.823 -5.09693 0.686808 0
M  V30 1688 N 172.805 -5.98434 1.36931 0
M  V30 1689 C 174.176 -5.99804 1.56958 0
M  V30 1690 C 176.231 -4.92388 0.738846 0
M  V30 1691 C 174.934 -6.74463 2.49983 0
M  V30 1692 C 176.96 -5.67719 1.65676 0
M  V30 1693 C 176.322 -6.57507 2.52713 0
M  V30 1694 H 172.421 -0.763312 -0.169936 0
M  V30 1695 H 175.005 -1.93728 0.194264 0
M  V30 1696 H 173.176 -3.41769 -1.84522 0
M  V30 1697 H 174.908 -3.64752 -1.75322 0
M  V30 1698 H 171.663 -4.73571 -0.0523673 0
M  V30 1699 H 172.087 -6.5027 1.88356 0
M  V30 1700 H 176.729 -4.22724 0.080084 0
M  V30 1701 H 174.447 -7.4338 3.16878 0
M  V30 1702 H 178.033 -5.56338 1.70233 0
M  V30 1703 H 176.913 -7.14778 3.22586 0
M  V30 1704 N 174.416 0.165178 -1.56732 0
M  V30 1705 C 175.348 1.22911 -1.93457 0
M  V30 1706 C 176.361 1.40152 -0.828333 0
M  V30 1707 O 177.55 1.40046 -1.10677 0
M  V30 1708 C 174.65 2.59686 -2.17753 0
M  V30 1709 C 173.823 2.63663 -3.48999 0
M  V30 1710 C 172.882 3.81845 -3.62051 0
M  V30 1711 O 171.908 3.67559 -4.34613 0
M  V30 1712 N 173.11 4.98557 -2.97357 0
M  V30 1713 H 175.875 0.917118 -2.85323 0
M  V30 1714 H 173.436 0.354895 -1.57962 0
M  V30 1715 H 175.428 3.37225 -2.23743 0
M  V30 1716 H 173.998 2.83251 -1.32242 0
M  V30 1717 H 173.218 1.72173 -3.54612 0
M  V30 1718 H 174.506 2.63336 -4.35352 0
M  V30 1719 H 173.904 5.13065 -2.38287 0
M  V30 1720 H 172.461 5.73936 -3.08934 0
M  V30 1721 N 175.894 1.51508 0.433938 0
M  V30 1722 C 177.119 1.68443 1.21003 0
M  V30 1723 C 177.544 0.382636 1.84167 0
M  V30 1724 O 176.902 -0.65755 1.68956 0
M  V30 1725 C 176.95 2.80405 2.26727 0
M  V30 1726 O 176.054 2.44245 3.32292 0
M  V30 1727 H 175.395 0.561536 0.354363 0
M  V30 1728 H 177.925 1.9809 0.512024 0
M  V30 1729 H 177.935 3.0459 2.71457 0
M  V30 1730 H 176.61 3.74867 1.80132 0
M  V30 1731 H 175.187 2.30644 2.93015 0
M  V30 1732 N 177.372 -0.689602 1.41712 0
M  V30 1733 C 178.304 -1.815 1.39966 0
M  V30 1734 C 179.317 -1.59995 0.300917 0
M  V30 1735 O 180.506 -1.69387 0.563039 0
M  V30 1736 C 177.606 -3.18364 1.16179 0
M  V30 1737 C 176.779 -3.66847 2.38206 0
M  V30 1738 C 175.838 -4.82398 2.10186 0
M  V30 1739 O 174.864 -4.93706 2.83272 0
M  V30 1740 N 176.066 -5.70064 1.0958 0
M  V30 1741 H 178.831 -1.83488 2.36965 0
M  V30 1742 H 176.392 -0.872149 1.36401 0
M  V30 1743 H 178.384 -3.93301 0.953756 0
M  V30 1744 H 176.954 -3.11365 0.27756 0
M  V30 1745 H 176.174 -2.82751 2.74673 0
M  V30 1746 H 177.462 -3.95978 3.19498 0
M  V30 1747 H 176.86 -5.63565 0.491019 0
M  V30 1748 H 175.417 -6.44874 0.947656 0
M  V30 1749 N 178.85 -1.27639 -0.924453 0
M  V30 1750 C 180.078 -1.16989 -1.70649 0
M  V30 1751 C 180.493 0.272869 -1.86818 0
M  V30 1752 O 179.85 1.18549 -1.38753 0
M  V30 1753 C 179.901 -1.85229 -3.10439 0
M  V30 1754 O 179.622 -3.23868 -2.95028 0
M  V30 1755 C 181.123 -1.80746 -4.04779 0
M  V30 1756 H 178.343 -0.406595 -0.53378 0
M  V30 1757 H 180.887 -1.68569 -1.15778 0
M  V30 1758 H 179.042 -1.37545 -3.6216 0
M  V30 1759 H 179.456 -3.57889 -3.83426 0
M  V30 1760 H 180.93 -2.33101 -5.00368 0
M  V30 1761 H 181.407 -0.777499 -4.32263 0
M  V30 1762 H 182.013 -2.28059 -3.58984 0
M  V30 1763 N 180.328 1.1314 -1.09713 0
M  V30 1764 C 181.261 2.17735 -0.683137 0
M  V30 1765 C 182.239 1.59582 0.311841 0
M  V30 1766 O 183.423 1.87298 0.212514 0
M  V30 1767 C 180.55 3.38699 -0.00684324 0
M  V30 1768 C 179.596 4.1546 -0.964102 0
M  V30 1769 S 180.429 4.74733 -2.47767 0
M  V30 1770 C 181.585 5.9904 -1.81387 0
M  V30 1771 H 181.818 2.52515 -1.56918 0
M  V30 1772 H 179.351 1.24484 -0.913404 0
M  V30 1773 H 181.309 4.08765 0.377044 0
M  V30 1774 H 179.97 3.02214 0.85589 0
M  V30 1775 H 179.163 5.02093 -0.43803 0
M  V30 1776 H 178.765 3.51066 -1.28953 0
M  V30 1777 H 181.057 6.67846 -1.13967 0
M  V30 1778 H 182 6.56261 -2.65947 0
M  V30 1779 H 182.408 5.4976 -1.28155 0
M  V30 1780 N 181.806 0.884767 1.30421 0
M  V30 1781 C 182.736 0.367574 2.30589 0
M  V30 1782 C 183.717 -0.549464 1.60981 0
M  V30 1783 O 184.902 -0.46336 1.88591 0
M  V30 1784 C 182.032 -0.418944 3.44764 0
M  V30 1785 C 180.986 0.406316 4.26067 0
M  V30 1786 C 180.312 -0.506793 5.32293 0
M  V30 1787 C 181.612 1.64832 4.95608 0
M  V30 1788 H 183.306 1.20462 2.74097 0
M  V30 1789 H 180.852 0.580695 1.31772 0
M  V30 1790 H 182.805 -0.791395 4.13902 0
M  V30 1791 H 181.529 -1.28964 3.0006 0
M  V30 1792 H 180.188 0.760903 3.58617 0
M  V30 1793 H 179.836 -1.37519 4.83836 0
M  V30 1794 H 179.536 0.0415828 5.87585 0
M  V30 1795 H 181.06 -0.875764 6.04287 0
M  V30 1796 H 182.474 1.34646 5.57264 0
M  V30 1797 H 180.871 2.13688 5.60765 0
M  V30 1798 H 181.941 2.39284 4.21748 0
M  V30 1799 N 183.284 -1.43765 0.645699 0
M  V30 1800 C 184.247 -2.29163 -0.0409488 0
M  V30 1801 C 185.247 -1.41813 -0.757996 0
M  V30 1802 O 186.437 -1.63527 -0.600382 0
M  V30 1803 C 183.569 -3.23716 -1.06869 0
M  V30 1804 H 184.762 -2.91366 0.710345 0
M  V30 1805 H 182.315 -1.5092 0.406547 0
M  V30 1806 H 183.05 -2.66393 -1.84947 0
M  V30 1807 H 182.835 -3.88105 -0.558277 0
M  V30 1808 H 184.325 -3.87831 -1.54845 0
M  V30 1809 N 184.763 -0.387143 -1.52771 0
M  V30 1810 C 186.011 0.195349 -2.01154 0
M  V30 1811 C 186.332 1.475 -1.27549 0
M  V30 1812 O 185.602 1.91878 -0.394924 0
M  V30 1813 H 184.182 0.075178 -0.743207 0
M  V30 1814 H 186.844 -0.518337 -1.87881 0
M  V30 1815 H 185.94 0.407096 -3.09434 0
M  V30 1816 N 186.241 1.57166 -0.116904 0
M  V30 1817 C 187.487 1.95412 0.542405 0
M  V30 1818 C 187.82 1.00019 1.66463 0
M  V30 1819 O 187.095 0.0370346 1.94465 0
M  V30 1820 C 187.378 3.43615 1.07708 0
M  V30 1821 C 187.231 4.49781 -0.0415868 0
M  V30 1822 C 188.55 3.93616 1.96861 0
M  V30 1823 H 185.669 0.710543 0.195696 0
M  V30 1824 H 188.311 1.89027 -0.192038 0
M  V30 1825 H 186.461 3.49187 1.70296 0
M  V30 1826 H 188.133 4.56308 -0.676793 0
M  V30 1827 H 186.376 4.28033 -0.705019 0
M  V30 1828 H 187.047 5.50733 0.373717 0
M  V30 1829 H 189.523 3.90335 1.44146 0
M  V30 1830 H 188.399 4.97838 2.3119 0
M  V30 1831 H 188.66 3.34188 2.89432 0
M  V30 1832 N 187.719 -0.156864 1.56817 0
M  V30 1833 C 188.651 -1.21883 1.94106 0
M  V30 1834 C 189.664 -1.3971 0.835754 0
M  V30 1835 O 190.853 -1.39457 1.11418 0
M  V30 1836 C 187.953 -2.58527 2.19127 0
M  V30 1837 C 187.126 -2.61809 3.50393 0
M  V30 1838 C 186.185 -3.7992 3.64071 0
M  V30 1839 O 185.211 -3.65249 4.36557 0
M  V30 1840 N 186.413 -4.96973 2.99997 0
M  V30 1841 H 189.178 -0.901974 2.85805 0
M  V30 1842 H 186.739 -0.346513 1.58148 0
M  V30 1843 H 188.731 -3.36034 2.25529 0
M  V30 1844 H 187.301 -2.82545 1.33742 0
M  V30 1845 H 186.521 -1.7029 3.5552 0
M  V30 1846 H 187.809 -2.61024 4.36742 0
M  V30 1847 H 187.207 -5.11794 2.41004 0
M  V30 1848 H 185.764 -5.7229 3.11974 0
M  V30 1849 N 189.197 -1.51736 -0.425897 0
M  V30 1850 C 190.427 -1.68549 -1.19476 0
M  V30 1851 C 190.835 -0.387288 -1.85194 0
M  V30 1852 O 190.178 0.645142 -1.71999 0
M  V30 1853 C 190.24 -2.75275 -2.31223 0
M  V30 1854 C 189.904 -4.17534 -1.8578 0
M  V30 1855 C 190.901 -5.01936 -1.35485 0
M  V30 1856 C 188.586 -4.6369 -1.93123 0
M  V30 1857 C 190.58 -6.30559 -0.931347 0
M  V30 1858 C 188.267 -5.92307 -1.50384 0
M  V30 1859 C 189.265 -6.75569 -1.00473 0
M  V30 1860 O 188.953 -8.0178 -0.583452 0
M  V30 1861 H 188.685 -0.568525 -0.365725 0
M  V30 1862 H 191.239 -1.98982 -0.509444 0
M  V30 1863 H 189.469 -2.40182 -3.03067 0
M  V30 1864 H 191.158 -2.80853 -2.93047 0
M  V30 1865 H 191.924 -4.67475 -1.29197 0
M  V30 1866 H 187.803 -3.98997 -2.30916 0
M  V30 1867 H 191.347 -6.95498 -0.541084 0
M  V30 1868 H 187.244 -6.2628 -1.56346 0
M  V30 1869 H 188.012 -8.1543 -0.708275 0
M  V30 1870 N 190.675 0.682077 -1.42076 0
M  V30 1871 C 192.086 1.26246 -1.37546 0
M  V30 1872 C 192.437 1.96092 -0.0651481 0
M  V30 1873 O 191.562 1.99587 0.836297 0
M  V30 1874 C 192.157 2.29594 -2.49143 0
M  V30 1875 C 190.716 2.83175 -2.47969 0
M  V30 1876 C 189.863 1.57395 -2.28303 0
M  V30 1877 H 192.814 0.475937 -1.51395 0
M  V30 1878 H 192.835 3.11175 -2.18976 0
M  V30 1879 H 192.347 1.78729 -3.44496 0
M  V30 1880 H 190.448 3.3818 -1.56413 0
M  V30 1881 H 190.561 3.32687 -3.44755 0
M  V30 1882 H 188.925 1.83699 -1.76428 0
M  V30 1883 H 189.708 1.08507 -3.25701 0
M  V30 1884 N 192.153 1.28127 0.917671 0
M  V30 1885 C 193.378 1.18007 1.70555 0
M  V30 1886 C 193.803 -0.258257 1.86319 0
M  V30 1887 O 193.161 -1.1869 1.37049 0
M  V30 1888 C 193.209 1.87948 3.07746 0
M  V30 1889 O 192.313 1.18427 3.9503 0
M  V30 1890 H 191.654 0.409867 0.522403 0
M  V30 1891 H 194.184 1.69379 1.1477 0
M  V30 1892 H 194.194 1.95701 3.58001 0
M  V30 1893 H 192.869 2.92573 2.95591 0
M  V30 1894 H 191.446 1.18811 3.53466 0
M  V30 1895 N 193.631 -1.12557 1.10312 0
M  V30 1896 C 194.856 -1.88405 0.867085 0
M  V30 1897 C 195.281 -1.79038 -0.576817 0
M  V30 1898 O 194.639 -1.14439 -1.40618 0
M  V30 1899 C 194.687 -3.3563 1.31851 0
M  V30 1900 O 193.791 -4.09565 0.482734 0
M  V30 1901 H 193.132 -0.585455 0.313271 0
M  V30 1902 H 195.662 -1.42352 1.4696 0
M  V30 1903 H 195.672 -3.86469 1.3079 0
M  V30 1904 H 194.347 -3.41765 2.37001 0
M  V30 1905 H 192.924 -3.68695 0.558448 0
M  V30 1906 N 195.109 -0.891671 -1.2995 0
M  V30 1907 C 196.358 -0.509521 -1.95158 0
M  V30 1908 C 196.671 0.947388 -1.71125 0
M  V30 1909 O 197.877 1.43669 -2.30372 0
M  V30 1910 C 196.333 -0.860315 -3.49466 0
M  V30 1911 C 195.941 -2.33545 -3.8231 0
M  V30 1912 C 197.685 -0.547687 -4.20952 0
M  V30 1913 C 195.592 -2.62752 -5.29826 0
M  V30 1914 H 194.522 -0.18682 -0.730489 0
M  V30 1915 H 197.173 -1.08756 -1.47798 0
M  V30 1916 H 195.555 -0.211285 -3.95436 0
M  V30 1917 H 196.729 -3.02936 -3.47227 0
M  V30 1918 H 195.044 -2.61629 -3.23944 0
M  V30 1919 H 197.641 -0.742854 -5.29515 0
M  V30 1920 H 197.984 0.51332 -4.13123 0
M  V30 1921 H 198.517 -1.1542 -3.80688 0
M  V30 1922 H 195.256 -3.6762 -5.42712 0
M  V30 1923 H 194.776 -1.97977 -5.66185 0
M  V30 1924 H 196.455 -2.48601 -5.97333 0
M  V30 1925 N 196.587 1.43421 -0.653314 0
M  V30 1926 C 197.535 2.32546 0.0501531 0
M  V30 1927 C 198.529 1.48617 0.812985 0
M  V30 1928 O 199.735 1.64825 0.723375 0
M  V30 1929 H 196.11 0.751185 0.0350032 0
M  V30 1930 H 198.081 2.89602 -0.719261 0
M  V30 1931 C 196.83 3.32925 1.00279 0
M  V30 1932 H 196.153 3.97532 0.425236 0
M  V30 1933 H 197.593 3.9792 1.46409 0
M  V30 1934 C 196.052 2.63532 2.09886 0
M  V30 1935 O 196.582 2.45092 3.18265 0
M  V30 1936 N 194.788 2.22905 1.86445 0
M  V30 1937 H 194.335 2.38103 0.98309 0
M  V30 1938 H 194.293 1.76805 2.59976 0
M  V30 1939 N 198.065 0.39524 1.52563 0
M  V30 1940 C 198.995 -0.428384 2.29537 0
M  V30 1941 C 199.976 -1.05831 1.33169 0
M  V30 1942 O 201.161 -1.06995 1.62067 0
M  V30 1943 C 198.291 -1.55274 3.10656 0
M  V30 1944 C 197.245 -1.04855 4.14957 0
M  V30 1945 C 196.571 -2.26543 4.84337 0
M  V30 1946 C 197.871 -0.112324 5.22179 0
M  V30 1947 H 199.565 0.213867 2.98635 0
M  V30 1948 H 197.111 0.104298 1.43622 0
M  V30 1949 H 199.064 -2.1358 3.63265 0
M  V30 1950 H 197.788 -2.22266 2.39302 0
M  V30 1951 H 196.447 -0.487985 3.63338 0
M  V30 1952 H 196.095 -2.92059 4.09525 0
M  V30 1953 H 195.795 -1.93466 5.54837 0
M  V30 1954 H 197.319 -2.85481 5.39753 0
M  V30 1955 H 198.733 -0.603752 5.70112 0
M  V30 1956 H 197.13 0.128968 5.99961 0
M  V30 1957 H 198.2 0.837052 4.77621 0
M  V30 1958 N 199.544 -1.57102 0.125237 0
M  V30 1959 C 200.772 -1.99761 -0.538797 0
M  V30 1960 C 201.187 -1.00503 -1.59827 0
M  V30 1961 O 200.544 0.00119474 -1.825 0
M  V30 1962 C 200.595 -3.42408 -1.15927 0
M  V30 1963 O 200.316 -4.37869 -0.142143 0
M  V30 1964 C 201.817 -4.00232 -1.90602 0
M  V30 1965 H 199.037 -0.655772 -0.14214 0
M  V30 1966 H 201.581 -2.03383 0.213413 0
M  V30 1967 H 199.736 -3.39706 -1.86223 0
M  V30 1968 H 200.15 -5.21128 -0.593775 0
M  V30 1969 H 201.624 -5.02105 -2.29335 0
M  V30 1970 H 202.101 -3.39721 -2.78363 0
M  V30 1971 H 202.707 -4.06499 -1.25055 0
M  V30 1972 N 201.022 0.148545 -1.56898 0
M  V30 1973 C 201.952 1.18524 -2.01182 0
M  V30 1974 C 202.933 1.4489 -0.891123 0
M  V30 1975 O 204.118 1.55836 -1.15882 0
M  V30 1976 C 201.248 2.51879 -2.39112 0
M  V30 1977 C 200.202 2.40038 -3.54353 0
M  V30 1978 C 199.528 3.78089 -3.78091 0
M  V30 1979 C 200.828 1.88577 -4.87069 0
M  V30 1980 H 202.522 0.817029 -2.88036 0
M  V30 1981 H 200.068 0.391575 -1.38574 0
M  V30 1982 H 202.021 3.24627 -2.68692 0
M  V30 1983 H 200.745 2.90532 -1.49193 0
M  V30 1984 H 199.404 1.69742 -3.24936 0
M  V30 1985 H 199.052 4.14175 -2.85426 0
M  V30 1986 H 198.752 3.71028 -4.55645 0
M  V30 1987 H 200.276 4.52387 -4.10095 0
M  V30 1988 H 201.69 2.51117 -5.15377 0
M  V30 1989 H 200.087 1.9241 -5.68417 0
M  V30 1990 H 201.157 0.84136 -4.77545 0
M  V30 1991 N 202.5 1.5196 0.417844 0
M  V30 1992 C 203.45 1.7106 1.5074 0
M  V30 1993 C 204.434 0.564487 1.50673 0
M  V30 1994 O 205.626 0.821206 1.56797 0
M  V30 1995 C 202.755 1.85677 2.88754 0
M  V30 1996 C 201.841 3.06133 2.93502 0
M  V30 1997 N 202.232 4.28987 2.67962 0
M  V30 1998 C 200.53 3.05787 3.24669 0
M  V30 1999 C 201.231 5.10395 2.79055 0
M  V30 2000 N 200.207 4.45455 3.11561 0
M  V30 2001 H 204.009 2.63696 1.29775 0
M  V30 2002 H 201.523 1.49873 0.625436 0
M  V30 2003 H 203.52 1.97475 3.67164 0
M  V30 2004 H 202.18 0.942348 3.10725 0
M  V30 2005 H 203.191 4.57607 2.4252 0
M  V30 2006 H 199.868 2.2405 3.52289 0
M  V30 2007 H 201.258 6.18247 2.63097 0
M  V30 2008 N 203.978 -0.674533 1.42435 0
M  V30 2009 C 204.908 -1.80009 1.48724 0
M  V30 2010 C 205.889 -1.6659 0.343793 0
M  V30 2011 O 207.074 -1.86007 0.558137 0
M  V30 2012 C 204.204 -3.18306 1.38919 0
M  V30 2013 C 203.158 -3.46461 2.51294 0
M  V30 2014 C 202.484 -4.84335 2.26547 0
M  V30 2015 C 203.784 -3.43328 3.93603 0
M  V30 2016 H 205.478 -1.75004 2.42928 0
M  V30 2017 H 203.024 -0.840533 1.16923 0
M  V30 2018 H 204.977 -3.9678 1.41927 0
M  V30 2019 H 203.701 -3.2399 0.412094 0
M  V30 2020 H 202.36 -2.70348 2.47604 0
M  V30 2021 H 202.008 -4.86669 1.2713 0
M  V30 2022 H 201.708 -5.04136 3.01861 0
M  V30 2023 H 203.232 -5.65094 2.31304 0
M  V30 2024 H 204.646 -4.11772 3.98894 0
M  V30 2025 H 203.043 -3.74664 4.68771 0
M  V30 2026 H 204.113 -2.41897 4.20255 0
M  V30 2027 N 205.456 -1.28612 -0.910864 0
M  V30 2028 C 206.704 -1.15705 -1.65701 0
M  V30 2029 C 207.025 0.29416 -1.92769 0
M  V30 2030 O 206.295 1.20331 -1.54588 0
M  V30 2031 H 204.875 -0.425216 -0.614167 0
M  V30 2032 H 207.537 -1.61381 -1.0928 0
M  V30 2033 H 206.633 -1.6988 -2.61815 0
M  V30 2034 N 206.934 1.1197 -1.10907 0
M  V30 2035 C 207.881 2.17846 -0.762345 0
M  V30 2036 C 208.851 1.63995 0.263599 0
M  V30 2037 O 210.036 1.90273 0.141773 0
M  V30 2038 C 207.176 3.44487 -0.205651 0
M  V30 2039 C 206.289 4.12369 -1.28748 0
M  V30 2040 C 205.424 5.26674 -0.691919 0
M  V30 2041 C 204.463 5.86431 -1.75399 0
M  V30 2042 N 203.6 6.92142 -1.17833 0
M  V30 2043 H 208.44 2.46851 -1.6694 0
M  V30 2044 H 205.977 1.21188 -0.833776 0
M  V30 2045 H 207.935 4.16981 0.135037 0
M  V30 2046 H 206.565 3.15884 0.664613 0
M  V30 2047 H 205.617 3.38003 -1.74522 0
M  V30 2048 H 206.929 4.52844 -2.09125 0
M  V30 2049 H 206.083 6.05953 -0.300963 0
M  V30 2050 H 204.822 4.8749 0.143232 0
M  V30 2051 H 203.827 5.05835 -2.15432 0
M  V30 2052 H 205.052 6.27685 -2.59208 0
M  V30 2053 H 202.998 6.54985 -0.364725 0
M  V30 2054 H 202.915 7.31242 -1.91887 0
M  V30 2055 H 204.183 7.75237 -0.81408 0
M  V30 2056 N 208.412 0.89855 1.29475 0
M  V30 2057 C 209.375 0.380272 2.26023 0
M  V30 2058 C 210.375 -0.484891 1.53315 0
M  V30 2059 O 211.565 -0.290108 1.71767 0
M  V30 2060 C 208.697 -0.45651 3.3783 0
M  V30 2061 H 209.89 1.23295 2.73383 0
M  V30 2062 H 207.443 0.676589 1.40897 0
M  V30 2063 H 208.178 -1.32922 2.95808 0
M  V30 2064 H 207.963 0.163393 3.91759 0
M  V30 2065 H 209.453 -0.810466 4.0966 0
M  V30 2066 N 209.89 -1.43072 0.660911 0
M  V30 2067 C 211.137 -2.01721 0.177445 0
M  V30 2068 C 211.465 -1.5218 -1.21126 0
M  V30 2069 O 210.72 -0.708659 -1.82419 0
M  V30 2070 C 211.019 -3.57103 0.145563 0
M  V30 2071 C 210.685 -4.26021 1.47705 0
M  V30 2072 C 209.347 -4.44563 1.84165 0
M  V30 2073 C 211.699 -4.64983 2.35458 0
M  V30 2074 C 209.027 -4.99334 3.0803 0
M  V30 2075 C 211.379 -5.21127 3.58622 0
M  V30 2076 C 210.043 -5.37884 3.95268 0
M  V30 2077 H 209.313 -0.73815 0.0649317 0
M  V30 2078 H 211.96 -1.71446 0.853144 0
M  V30 2079 H 210.265 -3.86965 -0.61361 0
M  V30 2080 H 211.962 -4.00248 -0.2455 0
M  V30 2081 H 208.552 -4.11939 1.18339 0
M  V30 2082 H 212.736 -4.50343 2.08579 0
M  V30 2083 H 207.992 -5.10493 3.36462 0
M  V30 2084 H 212.166 -5.50262 4.26831 0
M  V30 2085 H 209.793 -5.80089 4.91325 0
M  V30 2086 N 211.368 -0.403325 -1.52352 0
M  V30 2087 C 212.645 0.232611 -1.94212 0
M  V30 2088 C 213.025 1.63133 -1.33981 0
M  V30 2089 O 212.373 2.22659 -0.513344 0
M  V30 2090 C 212.583 0.244811 -3.4814 0
M  V30 2091 C 213.931 0.46698 -4.22024 0
M  V30 2092 O 214.955 0.324419 -3.5472 0
M  V30 2093 O 213.814 0.74747 -5.41364 0
M  V30 2094 H 210.908 0.148223 -0.813609 0
M  V30 2095 H 213.454 -0.458848 -1.63379 0
M  V30 2096 H 212.226 -0.734378 -3.84347 0
M  V30 2097 H 211.849 0.980611 -3.85318 0
M  V30 2098 N 212.846 1.57033 -0.133567 0
M  V30 2099 C 214.095 1.94861 0.520768 0
M  V30 2100 C 214.408 1.02012 1.66892 0
M  V30 2101 O 215.614 1.29365 2.38699 0
M  V30 2102 C 214.07 3.46362 0.977809 0
M  V30 2103 C 213.678 4.47773 -0.142674 0
M  V30 2104 C 215.422 3.93083 1.60269 0
M  V30 2105 C 213.329 5.90468 0.331883 0
M  V30 2106 H 212.259 0.727453 0.198315 0
M  V30 2107 H 214.91 1.82227 -0.215759 0
M  V30 2108 H 213.292 3.54282 1.7692 0
M  V30 2109 H 214.466 4.51536 -0.919317 0
M  V30 2110 H 212.781 4.10891 -0.675124 0
M  V30 2111 H 215.378 4.97121 1.96914 0
M  V30 2112 H 215.721 3.33876 2.48662 0
M  V30 2113 H 216.254 3.88025 0.876453 0
M  V30 2114 H 212.993 6.53463 -0.516341 0
M  V30 2115 H 212.513 5.90094 1.07469 0
M  V30 2116 H 214.192 6.42179 0.788332 0
M  V30 2117 N 214.325 -0.140222 1.56975 0
M  V30 2118 C 215.553 -0.866437 1.87884 0
M  V30 2119 C 215.968 -1.74428 0.722517 0
M  V30 2120 O 215.325 -1.79891 -0.30749 0
M  V30 2121 C 215.376 -1.71753 3.18093 0
M  V30 2122 O 215.097 -0.875056 4.29272 0
M  V30 2123 C 216.598 -2.55074 3.62563 0
M  V30 2124 H 213.818 -0.25019 0.622612 0
M  V30 2125 H 216.362 -0.130977 2.0408 0
M  V30 2126 H 214.517 -2.40598 3.03631 0
M  V30 2127 H 214.931 -1.46002 5.03769 0
M  V30 2128 H 216.405 -3.10356 4.5649 0
M  V30 2129 H 216.882 -3.31434 2.88181 0
M  V30 2130 H 217.488 -1.91509 3.79743 0
M  V30 2131 N 215.803 -1.52179 -0.40978 0
M  V30 2132 C 217.033 -1.69807 -1.17682 0
M  V30 2133 C 217.441 -0.406908 -1.84773 0
M  V30 2134 O 216.784 0.626863 -1.72673 0
M  V30 2135 C 216.846 -2.77712 -2.2829 0
M  V30 2136 C 216.51 -4.19481 -1.81341 0
M  V30 2137 C 217.507 -5.03345 -1.30154 0
M  V30 2138 C 215.192 -4.65713 -1.88194 0
M  V30 2139 C 217.186 -6.31511 -0.864416 0
M  V30 2140 C 214.873 -5.93869 -1.44093 0
M  V30 2141 C 215.871 -6.76597 -0.933023 0
M  V30 2142 O 215.559 -8.02354 -0.49838 0
M  V30 2143 H 215.291 -0.572372 -0.359675 0
M  V30 2144 H 217.845 -1.99511 -0.488311 0
M  V30 2145 H 216.075 -2.43383 -3.00502 0
M  V30 2146 H 217.764 -2.83946 -2.90051 0
M  V30 2147 H 218.53 -4.68819 -1.24232 0
M  V30 2148 H 214.409 -4.01424 -2.26671 0
M  V30 2149 H 217.953 -6.96033 -0.467286 0
M  V30 2150 H 213.85 -6.27903 -1.49694 0
M  V30 2151 H 214.618 -8.16135 -0.621747 0
M  V30 2152 N 217.281 0.66697 -1.42791 0
M  V30 2153 C 218.527 1.4291 -1.43891 0
M  V30 2154 C 218.86 1.94114 -0.0578972 0
M  V30 2155 O 218.135 1.71414 0.91911 0
M  V30 2156 C 218.418 2.62049 -2.46987 0
M  V30 2157 C 218.271 2.16426 -3.94309 0
M  V30 2158 C 219.59 3.64266 -2.46978 0
M  V30 2159 H 216.709 0.518306 -0.523954 0
M  V30 2160 H 219.351 0.757321 -1.74255 0
M  V30 2161 H 217.501 3.19361 -2.21225 0
M  V30 2162 H 219.173 1.64221 -4.31079 0
M  V30 2163 H 217.416 1.47925 -4.078 0
M  V30 2164 H 218.087 3.02038 -4.62036 0
M  V30 2165 H 220.563 3.16686 -2.69906 0
M  V30 2166 H 219.439 4.45196 -3.21079 0
M  V30 2167 H 219.7 4.15927 -1.49857 0
M  V30 2168 N 218.759 1.29093 0.90403 0
M  V30 2169 C 220.175 1.07011 1.1841 0
M  V30 2170 C 220.375 -0.181358 2.00682 0
M  V30 2171 O 219.431 -0.880331 2.36657 0
M  V30 2172 C 220.744 2.32311 1.90924 0
M  V30 2173 C 222.292 2.37587 2.03768 0
M  V30 2174 C 222.767 3.62679 2.79693 0
M  V30 2175 N 224.258 3.63376 2.87249 0
M  V30 2176 C 224.993 4.56848 3.46522 0
M  V30 2177 N 224.489 5.60648 4.06996 0
M  V30 2178 N 226.282 4.44426 3.44154 0
M  V30 2179 H 218.433 2.09412 0.354993 0
M  V30 2180 H 220.696 0.922181 0.219742 0
M  V30 2181 H 220.402 3.23536 1.37905 0
M  V30 2182 H 220.276 2.39483 2.91424 0
M  V30 2183 H 222.663 1.46853 2.55965 0
M  V30 2184 H 222.744 2.34403 1.02415 0
M  V30 2185 H 222.388 4.53762 2.28173 0
M  V30 2186 H 222.318 3.63119 3.81381 0
M  V30 2187 H 224.809 2.88321 2.44293 0
M  V30 2188 H 225.122 6.28101 4.50232 0
M  V30 2189 H 223.467 5.64463 4.05471 0
M  V30 2190 H 226.658 3.62529 2.96126 0
M  V30 2191 H 226.831 5.17457 3.90054 0
M  V30 2192 N 220.237 -1.11381 1.11499 0
M  V30 2193 C 221.167 -2.19509 0.796125 0
M  V30 2194 C 222.148 -1.68458 -0.235796 0
M  V30 2195 O 223.333 -1.93947 -0.0991344 0
M  V30 2196 C 220.463 -3.46475 0.239205 0
M  V30 2197 C 219.417 -4.10744 1.20307 0
M  V30 2198 C 218.743 -5.32293 0.50683 0
M  V30 2199 C 220.043 -4.55597 2.55399 0
M  V30 2200 H 221.737 -2.46439 1.70024 0
M  V30 2201 H 219.283 -1.18446 0.818935 0
M  V30 2202 H 221.236 -4.214 0.00392006 0
M  V30 2203 H 219.96 -3.19006 -0.700206 0
M  V30 2204 H 218.619 -3.37813 1.42399 0
M  V30 2205 H 218.267 -5.01095 -0.437408 0
M  V30 2206 H 217.967 -5.76243 1.1497 0
M  V30 2207 H 219.491 -6.09956 0.280351 0
M  V30 2208 H 220.905 -5.21841 2.37391 0
M  V30 2209 H 219.302 -5.10363 3.15673 0
M  V30 2210 H 220.372 -3.69013 3.14575 0
M  V30 2211 N 221.715 -0.905404 -1.28997 0
M  V30 2212 C 222.662 -0.385892 -2.27551 0
M  V30 2213 C 223.632 0.535113 -1.57244 0
M  V30 2214 O 224.817 0.459119 -1.85194 0
M  V30 2215 C 221.957 0.375461 -3.43051 0
M  V30 2216 C 221.07 -0.577092 -4.28128 0
M  V30 2217 C 220.205 0.201879 -5.30816 0
M  V30 2218 C 219.244 -0.744829 -6.07551 0
M  V30 2219 N 218.381 9.42587e-05 -7.021 0
M  V30 2220 H 223.221 -1.23139 -2.71368 0
M  V30 2221 H 220.758 -0.618542 -1.33463 0
M  V30 2222 H 222.716 0.832992 -4.088 0
M  V30 2223 H 221.346 1.18537 -3.00248 0
M  V30 2224 H 220.398 -1.15315 -3.62501 0
M  V30 2225 H 221.71 -1.30152 -4.8152 0
M  V30 2226 H 220.864 0.720351 -6.02408 0
M  V30 2227 H 219.603 0.959413 -4.7817 0
M  V30 2228 H 218.608 -1.27475 -5.34818 0
M  V30 2229 H 219.833 -1.50178 -6.62286 0
M  V30 2230 H 217.779 0.739791 -6.51815 0
M  V30 2231 H 217.696 -0.664321 -7.53076 0
M  V30 2232 H 218.964 0.498644 -7.77903 0
M  V30 2233 N 223.193 1.4272 -0.668489 0
M  V30 2234 C 224.44 2.01624 -0.18814 0
M  V30 2235 C 224.768 1.5282 1.20317 0
M  V30 2236 O 224.023 0.718323 1.8204 0
M  V30 2237 C 224.322 3.57021 -0.164499 0
M  V30 2238 C 223.988 4.25232 -1.49962 0
M  V30 2239 C 222.65 4.4358 -1.8652 0
M  V30 2240 C 225.002 4.63727 -2.37921 0
M  V30 2241 C 222.33 4.97694 -3.10674 0
M  V30 2242 C 224.682 5.19218 -3.6138 0
M  V30 2243 C 223.346 5.3578 -3.98115 0
M  V30 2244 H 222.616 0.737795 -0.0688454 0
M  V30 2245 H 225.263 1.70991 -0.862225 0
M  V30 2246 H 223.568 3.87285 0.593079 0
M  V30 2247 H 225.265 4.00372 0.224271 0
M  V30 2248 H 221.855 4.11306 -1.20522 0
M  V30 2249 H 226.039 4.4923 -2.10964 0
M  V30 2250 H 221.295 5.08702 -3.39164 0
M  V30 2251 H 225.469 5.4799 -4.29743 0
M  V30 2252 H 223.096 5.77475 -4.94395 0
M  V30 2253 N 224.671 0.411399 1.52136 0
M  V30 2254 C 225.621 -0.430376 2.23901 0
M  V30 2255 C 226.605 -1.0116 1.25121 0
M  V30 2256 O 227.797 -0.934044 1.50348 0
M  V30 2257 C 224.926 -1.54527 3.06556 0
M  V30 2258 C 224.012 -0.9747 4.12747 0
M  V30 2259 N 224.403 -0.130991 5.0563 0
M  V30 2260 C 222.701 -1.24497 4.28271 0
M  V30 2261 C 223.402 0.186689 5.814 0
M  V30 2262 N 222.378 -0.42304 5.41951 0
M  V30 2263 H 226.18 0.220509 2.93072 0
M  V30 2264 H 223.694 0.221952 1.60876 0
M  V30 2265 H 225.691 -2.16093 3.56524 0
M  V30 2266 H 224.351 -2.19875 2.38925 0
M  V30 2267 H 225.362 0.23349 5.17373 0
M  V30 2268 H 222.039 -1.89787 3.7187 0
M  V30 2269 H 223.429 0.871673 6.66222 0
M  V30 2270 N 226.149 -1.5696 0.141893 0
M  V30 2271 C 227.377 -2.00322 -0.517579 0
M  V30 2272 C 227.792 -1.02193 -1.58752 0
M  V30 2273 O 227.149 -0.0181619 -1.82491 0
M  V30 2274 C 227.2 -3.43618 -1.12289 0
M  V30 2275 O 226.921 -4.37995 -0.0956929 0
M  V30 2276 C 228.422 -4.02231 -1.86347 0
M  V30 2277 H 225.642 -0.657243 -0.135177 0
M  V30 2278 H 228.186 -2.03146 0.234973 0
M  V30 2279 H 226.341 -3.41662 -1.82609 0
M  V30 2280 H 226.755 -5.21729 -0.538469 0
M  V30 2281 H 228.229 -5.04509 -2.23997 0
M  V30 2282 H 228.706 -3.42655 -2.74744 0
M  V30 2283 H 229.312 -4.07802 -1.20737 0
M  V30 2284 N 227.627 0.131896 -1.57047 0
M  V30 2285 C 228.852 0.860418 -1.8871 0
M  V30 2286 C 229.277 1.73251 -0.73251 0
M  V30 2287 O 228.635 1.785 0.317429 0
M  V30 2288 C 228.683 1.68047 -3.19049 0
M  V30 2289 O 227.787 2.7862 -3.04047 0
M  V30 2290 H 227.128 0.238743 -0.619595 0
M  V30 2291 H 229.658 0.118169 -2.04258 0
M  V30 2292 H 229.668 2.07238 -3.51449 0
M  V30 2293 H 228.343 1.04018 -4.02682 0
M  V30 2294 H 226.92 2.42726 -2.83088 0
M  V30 2295 N 229.106 1.52395 0.401703 0
M  V30 2296 C 230.522 1.41363 0.740864 0
M  V30 2297 C 230.722 0.523982 1.94568 0
M  V30 2298 O 229.778 -0.00741204 2.52499 0
M  V30 2299 C 231.091 2.84011 0.987847 0
M  V30 2300 C 232.639 2.93404 1.09011 0
M  V30 2301 C 233.114 4.37036 1.3698 0
M  V30 2302 N 234.605 4.40304 1.43829 0
M  V30 2303 C 235.34 5.48508 1.67112 0
M  V30 2304 N 234.836 6.66819 1.87949 0
M  V30 2305 N 236.629 5.36034 1.69187 0
M  V30 2306 H 228.78 2.08765 -0.391262 0
M  V30 2307 H 231.043 0.941265 -0.112798 0
M  V30 2308 H 230.749 3.51265 0.174835 0
M  V30 2309 H 230.623 3.25502 1.906 0
M  V30 2310 H 233.01 2.26325 1.8937 0
M  V30 2311 H 233.091 2.55359 0.15015 0
M  V30 2312 H 232.735 5.04676 0.571353 0
M  V30 2313 H 232.665 4.72623 2.3224 0
M  V30 2314 H 235.156 3.55024 1.29486 0
M  V30 2315 H 235.469 7.45063 2.05185 0
M  V30 2316 H 233.814 6.6987 1.85199 0
M  V30 2317 H 237.005 4.42579 1.52451 0
M  V30 2318 H 237.178 6.20434 1.86993 0
M  V30 2319 N 230.584 -0.659388 1.43143 0
M  V30 2320 C 231.995 -1.24041 1.39537 0
M  V30 2321 C 232.346 -1.95963 0.0963364 0
M  V30 2322 O 231.471 -2.00892 -0.804438 0
M  V30 2323 C 232.066 -2.25601 2.52764 0
M  V30 2324 C 230.625 -2.79195 2.52443 0
M  V30 2325 C 229.772 -1.53743 2.30778 0
M  V30 2326 H 232.723 -0.451792 1.52133 0
M  V30 2327 H 232.744 -3.07651 2.23899 0
M  V30 2328 H 232.256 -1.73226 3.47296 0
M  V30 2329 H 230.357 -3.35649 1.61773 0
M  V30 2330 H 230.47 -3.2716 3.50004 0
M  V30 2331 H 228.834 -1.80869 1.79328 0
M  V30 2332 H 229.617 -1.03312 3.27386 0
M  V30 2333 N 232.062 -1.29571 -0.897171 0
M  V30 2334 C 232.972 -1.16808 -2.03453 0
M  V30 2335 C 233.988 -0.0907471 -1.73763 0
M  V30 2336 O 235.164 -0.303312 -1.99103 0
M  V30 2337 C 232.229 -0.848264 -3.36163 0
M  V30 2338 C 231.29 -2.0097 -3.79354 0
M  V30 2339 C 230.523 -1.70505 -5.05731 0
M  V30 2340 O 230.746 -0.62718 -5.66941 0
M  V30 2341 O 229.68 -2.5538 -5.45036 0
M  V30 2342 H 233.506 -2.12325 -2.17144 0
M  V30 2343 H 231.091 -1.09047 -1.02123 0
M  V30 2344 H 232.973 -0.684581 -4.15802 0
M  V30 2345 H 231.648 0.0771071 -3.23608 0
M  V30 2346 H 230.555 -2.22863 -3.00471 0
M  V30 2347 H 231.888 -2.91636 -3.96496 0
M  V30 2348 N 233.54 1.10788 -1.12088 0
M  V30 2349 C 234.765 1.87002 -0.896949 0
M  V30 2350 C 235.19 1.79933 0.548261 0
M  V30 2351 O 234.548 1.16662 1.38779 0
M  V30 2352 C 234.596 3.3349 -1.37174 0
M  V30 2353 O 233.7 4.08745 -0.547831 0
M  V30 2354 H 233.041 0.580397 -0.322545 0
M  V30 2355 H 235.571 1.39996 -1.49206 0
M  V30 2356 H 235.581 3.84339 -1.36922 0
M  V30 2357 H 234.256 3.37951 -2.42408 0
M  V30 2358 H 232.833 3.6776 -0.617034 0
M  V30 2359 N 235.018 0.912232 1.28515 0
M  V30 2360 C 236.265 0.544599 1.95039 0
M  V30 2361 C 236.593 -0.911435 1.71823 0
M  V30 2362 O 235.848 -1.66317 1.03137 0
M  V30 2363 C 236.147 0.798392 3.48368 0
M  V30 2364 C 235.813 2.23374 3.91682 0
M  V30 2365 C 234.475 2.62617 4.03219 0
M  V30 2366 C 236.827 3.16786 4.13879 0
M  V30 2367 C 234.155 3.94429 4.3433 0
M  V30 2368 C 236.507 4.48161 4.46469 0
M  V30 2369 C 235.171 4.8726 4.56217 0
M  V30 2370 H 234.441 0.199283 0.7137 0
M  V30 2371 H 237.088 1.15327 1.52879 0
M  V30 2372 H 235.393 0.106908 3.91654 0
M  V30 2373 H 237.09 0.493141 3.97956 0
M  V30 2374 H 233.68 1.91922 3.83228 0
M  V30 2375 H 237.864 2.87677 4.0442 0
M  V30 2376 H 233.12 4.24426 4.40082 0
M  V30 2377 H 237.294 5.20559 4.62592 0
M  V30 2378 H 234.921 5.89431 4.80078 0
M  V30 2379 N 236.496 -1.42363 0.676048 0
M  V30 2380 C 237.459 -2.29199 0.00766941 0
M  V30 2381 C 238.459 -1.43389 -0.727745 0
M  V30 2382 O 239.649 -1.64764 -0.56556 0
M  V30 2383 C 236.781 -3.2591 -0.999785 0
M  V30 2384 H 237.974 -2.89794 0.771988 0
M  V30 2385 H 235.527 -1.50024 0.438468 0
M  V30 2386 H 236.262 -2.70256 -1.79255 0
M  V30 2387 H 236.047 -3.89202 -0.475829 0
M  V30 2388 H 237.537 -3.91028 -1.46583 0
M  V30 2389 N 237.974 -0.419461 -1.51915 0
M  V30 2390 C 239.223 0.154346 -2.01109 0
M  V30 2391 C 239.536 1.45338 -1.30905 0
M  V30 2392 O 240.742 2.10906 -1.7097 0
M  V30 2393 C 239.198 0.325615 -3.58424 0
M  V30 2394 C 238.806 -0.961934 -4.37551 0
M  V30 2395 C 240.55 0.854155 -4.15818 0
M  V30 2396 C 238.457 -0.757287 -5.86531 0
M  V30 2397 H 237.387 0.0614563 -0.751491 0
M  V30 2398 H 240.038 -0.54649 -1.75173 0
M  V30 2399 H 238.42 1.08903 -3.80731 0
M  V30 2400 H 239.594 -1.7323 -4.26999 0
M  V30 2401 H 237.909 -1.41766 -3.91524 0
M  V30 2402 H 240.506 1.02346 -5.24814 0
M  V30 2403 H 240.849 1.83172 -3.73837 0
M  V30 2404 H 241.382 0.149528 -3.97519 0
M  V30 2405 H 238.121 -1.70671 -6.32892 0
M  V30 2406 H 237.641 -0.0264061 -5.99794 0
M  V30 2407 H 239.32 -0.403482 -6.45741 0
M  V30 2408 N 239.452 1.56882 -0.150215 0
M  V30 2409 C 240.682 2.00302 0.506213 0
M  V30 2410 C 241.09 1.02934 1.58749 0
M  V30 2411 O 240.433 0.0188384 1.8369 0
M  V30 2412 C 240.495 3.40156 1.16337 0
M  V30 2413 C 240.159 4.56439 0.226311 0
M  V30 2414 C 241.156 5.17012 -0.547265 0
M  V30 2415 C 238.841 5.02136 0.128279 0
M  V30 2416 C 240.835 6.21693 -1.40629 0
M  V30 2417 C 238.522 6.06672 -0.734345 0
M  V30 2418 C 239.52 6.6632 -1.50023 0
M  V30 2419 O 239.208 7.68831 -2.34848 0
M  V30 2420 H 238.94 0.662182 0.135984 0
M  V30 2421 H 241.494 2.03961 -0.242746 0
M  V30 2422 H 239.724 3.33346 1.96004 0
M  V30 2423 H 241.413 3.67663 1.71985 0
M  V30 2424 H 242.179 4.82603 -0.48158 0
M  V30 2425 H 238.058 4.55435 0.714157 0
M  V30 2426 H 241.602 6.68179 -2.00455 0
M  V30 2427 H 237.499 6.40507 -0.801309 0
M  V30 2428 H 238.267 7.86065 -2.28131 0
M  V30 2429 N 240.93 -0.123565 1.57115 0
M  V30 2430 C 241.877 -1.15177 2.00007 0
M  V30 2431 C 242.847 -1.41403 0.871454 0
M  V30 2432 O 244.032 -1.53346 1.13533 0
M  V30 2433 C 241.172 -2.47436 2.40561 0
M  V30 2434 C 240.285 -2.28184 3.66819 0
M  V30 2435 C 239.42 -3.53641 3.96373 0
M  V30 2436 C 238.459 -3.29528 5.15827 0
M  V30 2437 N 237.596 -4.47175 5.41275 0
M  V30 2438 H 242.436 -0.779008 2.87638 0
M  V30 2439 H 239.973 -0.373166 1.42288 0
M  V30 2440 H 241.931 -3.24584 2.62109 0
M  V30 2441 H 240.561 -2.82614 1.55978 0
M  V30 2442 H 239.613 -1.41976 3.52912 0
M  V30 2443 H 240.925 -2.0634 4.5412 0
M  V30 2444 H 240.079 -4.39209 4.18545 0
M  V30 2445 H 238.818 -3.78512 3.07538 0
M  V30 2446 H 237.823 -2.42349 4.93505 0
M  V30 2447 H 239.048 -3.06031 6.06236 0
M  V30 2448 H 236.994 -4.72175 4.55397 0
M  V30 2449 H 236.911 -4.28419 6.22891 0
M  V30 2450 H 238.179 -5.3389 5.67963 0
M  V30 2451 N 242.408 -1.52605 -0.393616 0
M  V30 2452 C 243.824 -1.41753 -0.733357 0
M  V30 2453 C 244.024 -0.534293 -1.94287 0
M  V30 2454 O 243.08 -0.0059787 -2.52499 0
M  V30 2455 C 244.393 -2.84531 -0.972772 0
M  V30 2456 C 245.941 -2.93978 -1.07453 0
M  V30 2457 C 246.416 -4.37756 -1.3466 0
M  V30 2458 N 247.907 -4.4106 -1.41492 0
M  V30 2459 C 248.642 -5.49387 -1.642 0
M  V30 2460 N 248.138 -6.67806 -1.8441 0
M  V30 2461 N 249.931 -5.36923 -1.66342 0
M  V30 2462 H 242.082 -2.08555 0.402328 0
M  V30 2463 H 244.345 -0.940654 0.117789 0
M  V30 2464 H 244.051 -3.51353 -0.156204 0
M  V30 2465 H 243.925 -3.26508 -1.88871 0
M  V30 2466 H 246.312 -2.27326 -1.88167 0
M  V30 2467 H 246.393 -2.55435 -0.136605 0
M  V30 2468 H 246.037 -5.04972 -0.544581 0
M  V30 2469 H 245.967 -4.73848 -2.2973 0
M  V30 2470 H 248.458 -3.55705 -1.27601 0
M  V30 2471 H 248.771 -7.46141 -2.01231 0
M  V30 2472 H 247.116 -6.70843 -1.81644 0
M  V30 2473 H 250.307 -4.43381 -1.50102 0
M  V30 2474 H 250.48 -6.21416 -1.837 0
M  V30 2475 N 243.887 0.651787 -1.4349 0
M  V30 2476 C 245.115 1.43937 -1.48626 0
M  V30 2477 C 245.53 1.8851 -0.104587 0
M  V30 2478 O 244.887 1.5958 0.885464 0
M  V30 2479 C 244.938 2.6734 -2.43334 0
M  V30 2480 O 244.659 2.24631 -3.76128 0
M  V30 2481 C 246.16 3.60683 -2.57726 0
M  V30 2482 H 243.38 0.44213 -0.504739 0
M  V30 2483 H 245.924 0.798944 -1.88248 0
M  V30 2484 H 244.079 3.2752 -2.06904 0
M  V30 2485 H 244.493 3.04485 -4.2707 0
M  V30 2486 H 245.967 4.43933 -3.28067 0
M  V30 2487 H 246.444 4.08126 -1.62265 0
M  V30 2488 H 247.05 3.06384 -2.94973 0
M  V30 2489 N 245.365 1.30045 0.890287 0
M  V30 2490 C 246.781 1.08261 1.17268 0
M  V30 2491 C 246.981 -0.160063 2.00863 0
M  V30 2492 O 246.037 -0.855181 2.37577 0
M  V30 2493 C 247.35 2.34323 1.8845 0
M  V30 2494 C 248.898 2.39735 2.01237 0
M  V30 2495 C 249.373 3.65625 2.7583 0
M  V30 2496 N 250.864 3.66402 2.83379 0
M  V30 2497 C 251.599 4.60498 3.41657 0
M  V30 2498 N 251.095 5.64933 4.01026 0
M  V30 2499 N 252.888 4.48051 3.39421 0
M  V30 2500 H 245.039 2.09777 0.332762 0
M  V30 2501 H 247.302 0.92446 0.209948 0
M  V30 2502 H 247.008 3.2498 1.34465 0
M  V30 2503 H 246.882 2.4256 2.88867 0
M  V30 2504 H 249.269 1.4956 2.54393 0
M  V30 2505 H 249.35 2.35476 0.999232 0
M  V30 2506 H 248.994 4.56156 2.23347 0
M  V30 2507 H 248.924 3.67144 3.77509 0
M  V30 2508 H 251.415 2.90896 2.41222 0
M  V30 2509 H 251.728 6.32841 4.43545 0
M  V30 2510 H 250.073 5.68732 3.99461 0
M  V30 2511 H 253.264 3.65649 2.92264 0
M  V30 2512 H 253.437 5.21565 3.84544 0
M  V30 2513 N 246.843 -1.10192 1.12674 0
M  V30 2514 C 247.753 -2.20172 0.810026 0
M  V30 2515 C 248.769 -1.72821 -0.202188 0
M  V30 2516 O 249.945 -2.01369 -0.0351691 0
M  V30 2517 C 247.01 -3.45631 0.272007 0
M  V30 2518 C 246.071 -4.07704 1.34447 0
M  V30 2519 C 245.304 -5.27175 0.832029 0
M  V30 2520 O 245.527 -5.69425 -0.333284 0
M  V30 2521 O 244.461 -5.80168 1.60277 0
M  V30 2522 H 248.287 -2.49701 1.72867 0
M  V30 2523 H 245.872 -1.18977 0.903597 0
M  V30 2524 H 247.754 -4.21394 -0.0230219 0
M  V30 2525 H 246.429 -3.17723 -0.619164 0
M  V30 2526 H 245.336 -3.33614 1.6927 0
M  V30 2527 H 246.669 -4.3982 2.2095 0
M  V30 2528 N 248.321 -0.919034 -1.28029 0
M  V30 2529 C 249.598 -0.473668 -1.89778 0
M  V30 2530 C 249.978 1.04783 -1.83259 0
M  V30 2531 O 249.326 1.8982 -1.27202 0
M  V30 2532 C 249.536 -1.00998 -3.34066 0
M  V30 2533 C 250.884 -1.06525 -4.1102 0
M  V30 2534 O 251.908 -0.958996 -3.43048 0
M  V30 2535 O 250.767 -1.22776 -5.3253 0
M  V30 2536 H 247.861 -0.15098 -0.813101 0
M  V30 2537 H 250.407 -1.01016 -1.36359 0
M  V30 2538 H 249.179 -2.05392 -3.33061 0
M  V30 2539 H 248.802 -0.454626 -3.94992 0
M  V30 2540 N 249.799 1.42003 -0.683588 0
M  V30 2541 C 251.047 2.01015 -0.209101 0
M  V30 2542 C 251.368 1.54365 1.19149 0
M  V30 2543 O 250.638 0.769083 1.80172 0
M  V30 2544 H 249.218 0.743294 -0.074315 0
M  V30 2545 H 251.88 1.73798 -0.882066 0
M  V30 2546 H 250.976 3.11343 -0.2172 0
M  V30 2547 N 251.277 0.427512 1.51691 0
M  V30 2548 C 252.688 -0.0378867 1.86662 0
M  V30 2549 C 253.039 -1.42819 1.34525 0
M  V30 2550 O 252.164 -2.05037 0.692014 0
M  V30 2551 C 252.759 -0.0755266 3.38716 0
M  V30 2552 C 251.318 -0.485309 3.73258 0
M  V30 2553 C 250.465 0.328399 2.75349 0
M  V30 2554 H 253.416 0.64379 1.45055 0
M  V30 2555 H 253.437 -0.887056 3.70016 0
M  V30 2556 H 252.949 0.936487 3.76632 0
M  V30 2557 H 251.05 -1.50329 3.40928 0
M  V30 2558 H 251.163 -0.21693 4.78609 0
M  V30 2559 H 249.527 -0.211905 2.53817 0
M  V30 2560 H 250.31 1.3391 3.16106 0
M  V30 2561 N 252.755 -1.56801 0.158532 0
M  V30 2562 C 254.001 -1.97559 -0.483957 0
M  V30 2563 C 254.356 -1.04239 -1.61716 0
M  V30 2564 O 253.649 -0.079603 -1.91435 0
M  V30 2565 C 253.843 -3.4235 -1.02623 0
M  V30 2566 C 253.672 -4.49669 0.0528929 0
M  V30 2567 C 252.442 -5.02838 0.498234 0
M  V30 2568 C 254.64 -5.0725 0.848616 0
M  V30 2569 N 252.622 -5.93775 1.559 0
M  V30 2570 C 253.993 -5.94506 1.7596 0
M  V30 2571 C 256.048 -4.89788 0.895121 0
M  V30 2572 C 254.751 -6.66169 2.71314 0
M  V30 2573 C 256.777 -5.62161 1.83654 0
M  V30 2574 C 256.139 -6.49134 2.73503 0
M  V30 2575 H 252.238 -0.768332 -0.145566 0
M  V30 2576 H 254.822 -1.93012 0.255799 0
M  V30 2577 H 252.993 -3.47467 -1.73555 0
M  V30 2578 H 254.725 -3.70145 -1.63629 0
M  V30 2579 H 251.48 -4.73498 0.0983222 0
M  V30 2580 H 251.904 -6.43948 2.08949 0
M  V30 2581 H 256.546 -4.22255 0.21453 0
M  V30 2582 H 254.264 -7.32923 3.40367 0
M  V30 2583 H 257.85 -5.5064 1.87847 0
M  V30 2584 H 256.73 -7.04153 3.45163 0
M  V30 2585 N 254.233 0.115231 -1.57178 0
M  V30 2586 C 255.482 0.820945 -1.84237 0
M  V30 2587 C 255.795 1.80866 -0.744761 0
M  V30 2588 O 257.001 2.56083 -0.901871 0
M  V30 2589 C 255.457 1.51072 -3.26658 0
M  V30 2590 C 255.065 0.563795 -4.44438 0
M  V30 2591 C 256.809 2.20134 -3.62962 0
M  V30 2592 C 254.716 1.25701 -5.77887 0
M  V30 2593 H 253.646 0.310328 -0.687177 0
M  V30 2594 H 256.297 0.0737134 -1.83352 0
M  V30 2595 H 254.679 2.30471 -3.22024 0
M  V30 2596 H 255.853 -0.197247 -4.60378 0
M  V30 2597 H 254.168 -0.0200638 -4.16395 0
M  V30 2598 H 256.765 2.72696 -4.59936 0
M  V30 2599 H 257.108 2.98107 -2.90582 0
M  V30 2600 H 257.641 1.47619 -3.69396 0
M  V30 2601 H 254.38 0.518493 -6.53446 0
M  V30 2602 H 253.9 1.98997 -5.65827 0
M  V30 2603 H 255.579 1.78915 -6.2177 0
M  V30 2604 N 255.711 1.52812 0.385517 0
M  V30 2605 C 257.122 1.5993 0.963293 0
M  V30 2606 C 257.473 0.454302 1.90868 0
M  V30 2607 O 256.598 -0.422132 2.12243 0
M  V30 2608 C 257.193 2.89871 1.75387 0
M  V30 2609 C 255.752 2.99389 2.28129 0
M  V30 2610 C 254.899 2.55071 1.08783 0
M  V30 2611 H 257.85 1.5784 0.164948 0
M  V30 2612 H 257.871 2.76553 2.61341 0
M  V30 2613 H 257.383 3.73186 1.06554 0
M  V30 2614 H 255.484 2.20619 3.00263 0
M  V30 2615 H 255.597 4.04096 2.57377 0
M  V30 2616 H 253.961 2.09473 1.4489 0
M  V30 2617 H 254.744 3.40785 0.414807 0
M  V30 2618 N 257.189 -0.644168 1.43834 0
M  V30 2619 C 258.419 -1.42939 1.49171 0
M  V30 2620 C 258.827 -1.88874 0.111048 0
M  V30 2621 O 258.17 -1.60656 -0.8908 0
M  V30 2622 C 258.232 -2.69151 2.38324 0
M  V30 2623 C 257.896 -2.45097 3.85715 0
M  V30 2624 C 258.893 -2.07747 4.76589 0
M  V30 2625 C 256.578 -2.59141 4.30292 0
M  V30 2626 C 258.572 -1.8475 6.10038 0
M  V30 2627 C 256.259 -2.35759 5.63792 0
M  V30 2628 C 257.257 -1.9862 6.53482 0
M  V30 2629 O 256.945 -1.75489 7.84512 0
M  V30 2630 H 256.677 -0.445271 0.508635 0
M  V30 2631 H 259.231 -0.79621 1.8934 0
M  V30 2632 H 257.461 -3.3506 1.93058 0
M  V30 2633 H 259.15 -3.31123 2.3476 0
M  V30 2634 H 259.916 -1.96465 4.43426 0
M  V30 2635 H 255.795 -2.87022 3.60749 0
M  V30 2636 H 259.339 -1.55686 6.80006 0
M  V30 2637 H 255.236 -2.46646 5.9652 0
M  V30 2638 H 256.004 -1.89841 7.9618 0
M  V30 2639 N 258.668 -1.30515 -0.883378 0
M  V30 2640 C 259.6 -1.12846 -1.99496 0
M  V30 2641 C 260.613 -0.0712571 -1.62644 0
M  V30 2642 O 261.802 -0.317432 -1.75655 0
M  V30 2643 C 258.902 -0.699123 -3.3161 0
M  V30 2644 C 258.075 -1.83842 -3.96889 0
M  V30 2645 C 257.134 -1.39737 -5.07307 0
M  V30 2646 O 256.16 -2.10485 -5.28852 0
M  V30 2647 N 257.362 -0.277279 -5.79837 0
M  V30 2648 H 260.127 -2.08585 -2.15203 0
M  V30 2649 H 257.688 -1.22672 -1.05656 0
M  V30 2650 H 259.68 -0.387044 -4.02845 0
M  V30 2651 H 258.25 0.166276 -3.12157 0
M  V30 2652 H 257.47 -2.31853 -3.18807 0
M  V30 2653 H 258.758 -2.60187 -4.37241 0
M  V30 2654 H 258.156 0.3122 -5.64838 0
M  V30 2655 H 256.713 -0.0246623 -6.51795 0
M  V30 2656 N 260.146 1.09593 -1.13257 0
M  V30 2657 C 261.376 1.85231 -0.915049 0
M  V30 2658 C 261.784 1.81345 0.539498 0
M  V30 2659 O 261.127 1.20664 1.38513 0
M  V30 2660 C 261.189 3.34275 -1.3229 0
M  V30 2661 C 260.853 3.6191 -2.79052 0
M  V30 2662 C 261.85 3.57777 -3.77216 0
M  V30 2663 C 259.535 3.90309 -3.16171 0
M  V30 2664 C 261.529 3.81652 -5.1051 0
M  V30 2665 C 259.216 4.13839 -4.49644 0
M  V30 2666 C 260.214 4.09502 -5.46623 0
M  V30 2667 O 259.902 4.32426 -6.77689 0
M  V30 2668 H 259.634 0.591997 -0.326367 0
M  V30 2669 H 262.188 1.394 -1.50854 0
M  V30 2670 H 260.418 3.80805 -0.672667 0
M  V30 2671 H 262.107 3.9132 -1.07812 0
M  V30 2672 H 262.873 3.35865 -3.49885 0
M  V30 2673 H 258.752 3.92811 -2.41289 0
M  V30 2674 H 262.296 3.78182 -5.86195 0
M  V30 2675 H 258.193 4.35232 -4.767 0
M  V30 2676 H 258.961 4.49896 -6.83766 0
M  V30 2677 N 261.624 0.925811 1.2754 0
M  V30 2678 C 262.854 0.580666 1.98272 0
M  V30 2679 C 263.262 -0.845207 1.69272 0
M  V30 2680 O 262.605 -1.57306 0.948707 0
M  V30 2681 C 262.667 0.724418 3.52126 0
M  V30 2682 C 262.331 2.12206 4.04744 0
M  V30 2683 C 263.328 3.09604 4.17662 0
M  V30 2684 C 261.013 2.4385 4.39138 0
M  V30 2685 C 263.007 4.36755 4.64246 0
M  V30 2686 C 260.694 3.71237 4.85414 0
M  V30 2687 C 261.692 4.67503 4.97926 0
M  V30 2688 O 261.38 5.92624 5.43187 0
M  V30 2689 H 261.112 0.218987 0.639547 0
M  V30 2690 H 263.666 1.24452 1.63404 0
M  V30 2691 H 261.896 0.0034663 3.867 0
M  V30 2692 H 263.585 0.384607 4.04074 0
M  V30 2693 H 264.351 2.86478 3.91351 0
M  V30 2694 H 260.23 1.69665 4.28643 0
M  V30 2695 H 263.774 5.11898 4.73927 0
M  V30 2696 H 259.671 3.94182 5.11166 0
M  V30 2697 H 260.439 5.95585 5.61445 0
M  V30 2698 N 263.102 -1.41638 0.69111 0
M  V30 2699 C 264.327 -2.06148 0.227583 0
M  V30 2700 C 264.752 -1.51652 -1.11281 0
M  V30 2701 O 264.11 -0.64164 -1.69566 0
M  V30 2702 C 264.158 -3.60095 0.190858 0
M  V30 2703 O 263.262 -4.03845 -0.835664 0
M  V30 2704 H 262.603 -0.654434 0.112306 0
M  V30 2705 H 265.133 -1.81484 0.944714 0
M  V30 2706 H 265.143 -4.07995 0.020207 0
M  V30 2707 H 263.818 -3.99129 1.16915 0
M  V30 2708 H 262.395 -3.67458 -0.63473 0
M  V30 2709 N 264.58 -0.43555 -1.51462 0
M  V30 2710 C 265.828 0.131254 -2.01673 0
M  V30 2711 C 266.149 1.43368 -1.32177 0
M  V30 2712 O 265.419 1.90524 -0.455769 0
M  V30 2713 H 263.999 0.0514954 -0.745223 0
M  V30 2714 H 266.661 -0.577847 -1.86137 0
M  V30 2715 H 265.757 0.308446 -3.10572 0
M  V30 2716 N 266.058 1.56714 -0.166846 0
M  V30 2717 C 267.283 2.01557 0.488833 0
M  V30 2718 C 267.708 1.0463 1.56314 0
M  V30 2719 O 267.066 0.0251304 1.81283 0
M  V30 2720 C 267.114 3.4503 1.04818 0
M  V30 2721 O 266.218 3.51163 2.16236 0
M  V30 2722 H 265.559 0.653516 0.117526 0
M  V30 2723 H 268.089 2.02818 -0.269421 0
M  V30 2724 H 268.099 3.84243 1.37191 0
M  V30 2725 H 266.774 4.15077 0.261572 0
M  V30 2726 H 265.351 3.23807 1.84942 0
M  V30 2727 N 267.536 -0.106894 1.57237 0
M  V30 2728 C 268.776 -0.818277 1.87306 0
M  V30 2729 C 269.14 -1.76474 0.756371 0
M  V30 2730 O 270.341 -2.5186 0.939155 0
M  V30 2731 C 268.612 -1.53806 3.22612 0
M  V30 2732 S 270.171 -2.28935 3.74345 0
M  V30 2733 H 266.989 -0.272862 0.656557 0
M  V30 2734 H 269.591 -0.075988 1.95352 0
M  V30 2735 H 268.295 -0.834951 4.01817 0
M  V30 2736 H 267.826 -2.32049 3.17674 0
M  V30 2737 H 269.841 -3.54871 3.46815 0
M  V30 2738 N 269.014 -1.53014 -0.377408 0
M  V30 2739 C 269.924 -1.81557 -1.48574 0
M  V30 2740 C 270.94 -0.703102 -1.59162 0
M  V30 2741 O 272.116 -0.99192 -1.75279 0
M  V30 2742 C 269.181 -1.9889 -2.83978 0
M  V30 2743 C 268.242 -3.22801 -2.83016 0
M  V30 2744 C 267.475 -3.39298 -4.11962 0
M  V30 2745 O 267.698 -2.60345 -5.0752 0
M  V30 2746 O 266.632 -4.32604 -4.18494 0
M  V30 2747 H 270.458 -2.75695 -1.27382 0
M  V30 2748 H 268.043 -1.38248 -0.566373 0
M  V30 2749 H 269.925 -2.11931 -3.6423 0
M  V30 2750 H 268.6 -1.07942 -3.05172 0
M  V30 2751 H 267.507 -3.15193 -2.01505 0
M  V30 2752 H 268.84 -4.13632 -2.66775 0
M  V30 2753 N 270.492 0.636531 -1.44174 0
M  V30 2754 C 271.44 1.76995 -1.50915 0
M  V30 2755 C 272.434 1.65053 -0.381295 0
M  V30 2756 O 273.64 1.71197 -0.55601 0
M  V30 2757 H 270.015 0.584247 -0.473455 0
M  V30 2758 H 271.986 1.68432 -2.4632 0
M  V30 2759 C 270.735 3.15314 -1.46534 0
M  V30 2760 H 270.058 3.25149 -2.32633 0
M  V30 2761 H 271.498 3.9453 -1.55312 0
M  V30 2762 C 269.957 3.3639 -0.185305 0
M  V30 2763 O 270.487 3.94699 0.746688 0
M  V30 2764 N 268.693 2.9046 -0.0901606 0
M  V30 2765 H 268.24 2.43193 -0.849416 0
M  V30 2766 H 268.198 3.04937 0.765553 0
M  V30 2767 N 271.97 1.30982 0.876444 0
M  V30 2768 C 273.198 1.23242 1.6619 0
M  V30 2769 C 273.613 -0.203345 1.87702 0
M  V30 2770 O 272.97 -1.13317 1.43057 0
M  V30 2771 C 273.021 1.96623 3.03351 0
M  V30 2772 O 272.742 3.34594 2.82804 0
M  V30 2773 C 274.243 1.95644 3.97792 0
M  V30 2774 H 271.463 0.426126 0.518322 0
M  V30 2775 H 274.007 1.7275 1.09442 0
M  V30 2776 H 272.162 1.50892 3.56806 0
M  V30 2777 H 272.576 3.71873 3.69879 0
M  V30 2778 H 274.05 2.51511 4.91372 0
M  V30 2779 H 274.527 0.937395 4.2908 0
M  V30 2780 H 275.133 2.41225 3.50272 0
M  V30 2781 N 273.449 -1.08991 1.13837 0
M  V30 2782 C 274.679 -1.84743 0.924859 0
M  V30 2783 C 275.087 -1.81629 -0.529874 0
M  V30 2784 O 274.43 -1.21397 -1.37872 0
M  V30 2785 C 274.492 -3.33568 1.34061 0
M  V30 2786 C 274.156 -3.60425 2.80968 0
M  V30 2787 C 275.153 -3.55771 3.79108 0
M  V30 2788 C 272.838 -3.88627 3.18236 0
M  V30 2789 C 274.832 -3.78939 5.12527 0
M  V30 2790 C 272.519 -4.11449 4.51833 0
M  V30 2791 C 273.517 -4.06598 5.48787 0
M  V30 2792 O 273.205 -4.28826 6.79973 0
M  V30 2793 H 272.937 -0.590258 0.329502 0
M  V30 2794 H 275.491 -1.38598 1.51591 0
M  V30 2795 H 273.721 -3.80442 0.692853 0
M  V30 2796 H 275.41 -3.90743 1.09886 0
M  V30 2797 H 276.176 -3.34005 3.51661 0
M  V30 2798 H 272.055 -3.91526 2.43369 0
M  V30 2799 H 275.599 -3.75068 5.88192 0
M  V30 2800 H 271.496 -4.32698 4.79002 0
M  V30 2801 H 272.264 -4.46264 6.86142 0
M  V30 2802 N 274.927 -0.932562 -1.27047 0
M  V30 2803 C 276.152 -0.591474 -1.98787 0
M  V30 2804 C 276.577 0.824601 -1.69062 0
M  V30 2805 O 275.935 1.5541 -0.933677 0
M  V30 2806 C 275.983 -0.829808 -3.50922 0
M  V30 2807 O 275.087 0.102266 -4.12273 0
M  V30 2808 H 274.428 -0.227185 -0.623926 0
M  V30 2809 H 276.958 -1.25314 -1.61733 0
M  V30 2810 H 276.968 -0.747292 -4.01098 0
M  V30 2811 H 275.643 -1.86201 -3.7189 0
M  V30 2812 H 274.22 -0.0305761 -3.72887 0
M  V30 2813 N 276.405 1.4127 -0.698611 0
M  V30 2814 C 277.352 2.30773 -0.0352094 0
M  V30 2815 C 278.322 1.47273 0.768111 0
M  V30 2816 O 279.507 1.76053 0.735524 0
M  V30 2817 C 276.647 3.33346 0.893 0
M  V30 2818 C 275.76 4.31924 0.0809695 0
M  V30 2819 C 274.895 5.21566 1.0071 0
M  V30 2820 C 273.934 6.11811 0.188155 0
M  V30 2821 N 273.071 6.93926 1.06825 0
M  V30 2822 H 277.911 2.86943 -0.804207 0
M  V30 2823 H 275.448 1.4132 -0.408294 0
M  V30 2824 H 277.406 3.91368 1.44523 0
M  V30 2825 H 276.036 2.78719 1.62836 0
M  V30 2826 H 275.088 3.75825 -0.588224 0
M  V30 2827 H 276.4 4.95716 -0.553801 0
M  V30 2828 H 275.554 5.84437 1.62845 0
M  V30 2829 H 274.293 4.58008 1.67572 0
M  V30 2830 H 273.298 5.47986 -0.446254 0
M  V30 2831 H 274.523 6.77425 -0.476716 0
M  V30 2832 H 272.469 6.32973 1.72283 0
M  V30 2833 H 272.386 7.54416 0.489123 0
M  V30 2834 H 273.654 7.61262 1.67632 0
M  V30 2835 N 277.883 0.443576 1.51229 0
M  V30 2836 C 278.846 -0.353132 2.26463 0
M  V30 2837 C 279.846 -0.944338 1.3015 0
M  V30 2838 O 281.036 -0.817813 1.5381 0
M  V30 2839 C 278.168 -1.50023 3.06114 0
M  V30 2840 H 279.361 0.3063 2.98332 0
M  V30 2841 H 276.914 0.196902 1.55055 0
M  V30 2842 H 277.649 -2.19553 2.38677 0
M  V30 2843 H 277.434 -1.08241 3.76864 0
M  V30 2844 H 278.924 -2.06296 3.63087 0
M  V30 2845 N 279.361 -1.56624 0.175154 0
M  V30 2846 C 280.309 -2.19468 -0.770495 0
M  V30 2847 C 281.303 -1.15985 -1.23466 0
M  V30 2848 O 282.509 -1.34176 -1.19987 0
M  V30 2849 H 278.884 -0.703095 -0.266761 0
M  V30 2850 H 280.855 -2.97613 -0.216542 0
M  V30 2851 C 279.604 -2.85264 -1.98796 0
M  V30 2852 H 278.927 -3.64623 -1.63983 0
M  V30 2853 H 280.367 -3.327 -2.62843 0
M  V30 2854 C 278.826 -1.85239 -2.81404 0
M  V30 2855 O 279.356 -1.34024 -3.78682 0
M  V30 2856 N 277.562 -1.53911 -2.46495 0
M  V30 2857 H 277.109 -1.95751 -1.67449 0
M  V30 2858 H 277.067 -0.872382 -3.02054 0
M  V30 2859 N 280.839 0.0985539 -1.57292 0
M  V30 2860 C 282.255 0.45267 -1.53046 0
M  V30 2861 C 282.455 1.80713 -0.891342 0
M  V30 2862 O 281.511 2.4785 -0.482375 0
M  V30 2863 C 282.824 0.418341 -2.97776 0
M  V30 2864 C 284.372 0.500443 -3.08973 0
M  V30 2865 C 284.847 0.496297 -4.55303 0
M  V30 2866 N 286.338 0.557151 -4.59837 0
M  V30 2867 C 287.073 0.575726 -5.70502 0
M  V30 2868 N 286.569 0.550714 -6.90608 0
M  V30 2869 N 288.362 0.620277 -5.58667 0
M  V30 2870 H 280.513 -0.788673 -1.97215 0
M  V30 2871 H 282.776 -0.293188 -0.901524 0
M  V30 2872 H 282.482 -0.509659 -3.47988 0
M  V30 2873 H 282.356 1.2386 -3.56284 0
M  V30 2874 H 284.743 1.41886 -2.58751 0
M  V30 2875 H 284.824 -0.347894 -2.53423 0
M  V30 2876 H 284.468 -0.418162 -5.06176 0
M  V30 2877 H 284.398 1.3618 -5.08687 0
M  V30 2878 H 286.889 0.581816 -3.73394 0
M  V30 2879 H 287.202 0.568075 -7.70709 0
M  V30 2880 H 285.547 0.517816 -6.93068 0
M  V30 2881 H 288.738 0.637322 -4.63741 0
M  V30 2882 H 288.911 0.631283 -6.44918 0
M  V30 2883 N 282.317 1.53212 0.369288 0
M  V30 2884 C 283.565 1.68881 1.11012 0
M  V30 2885 C 283.886 0.441285 1.89941 0
M  V30 2886 O 283.156 -0.544623 1.88177 0
M  V30 2887 H 281.736 0.622569 0.412816 0
M  V30 2888 H 284.398 1.90391 0.416802 0
M  V30 2889 H 283.494 2.54822 1.80201 0
M  V30 2890 N 283.795 -0.628877 1.44509 0
M  V30 2891 C 285.042 -1.38839 1.47411 0
M  V30 2892 C 285.37 -1.94202 0.10757 0
M  V30 2893 O 284.625 -1.74243 -0.890947 0
M  V30 2894 C 284.924 -2.56995 2.48371 0
M  V30 2895 C 284.59 -2.19908 3.93639 0
M  V30 2896 C 283.252 -2.09506 4.33198 0
M  V30 2897 C 285.604 -1.9064 4.85083 0
M  V30 2898 C 282.932 -1.68028 5.62124 0
M  V30 2899 C 285.284 -1.50655 6.14399 0
M  V30 2900 C 283.948 -1.38796 6.5291 0
M  V30 2901 H 283.218 -0.508048 0.539414 0
M  V30 2902 H 285.865 -0.712913 1.77735 0
M  V30 2903 H 284.17 -3.29786 2.11538 0
M  V30 2904 H 285.867 -3.15223 2.47861 0
M  V30 2905 H 282.457 -2.28922 3.62343 0
M  V30 2906 H 286.641 -1.97585 4.55273 0
M  V30 2907 H 281.897 -1.57452 5.90778 0
M  V30 2908 H 286.071 -1.27048 6.84713 0
M  V30 2909 H 283.698 -1.06429 7.52713 0
M  V30 2910 N 285.273 -1.31445 -0.869486 0
M  V30 2911 C 286.522 -1.20517 -1.61736 0
M  V30 2912 C 286.835 0.235341 -1.94179 0
M  V30 2913 O 288.041 0.466312 -2.67465 0
M  V30 2914 C 286.497 -2.10982 -2.91573 0
M  V30 2915 C 286.105 -3.60032 -2.66611 0
M  V30 2916 C 287.849 -2.08856 -3.69567 0
M  V30 2917 C 285.756 -4.42503 -3.92358 0
M  V30 2918 H 284.686 -0.447493 -0.606849 0
M  V30 2919 H 287.337 -1.56303 -0.96133 0
M  V30 2920 H 285.719 -1.68095 -3.58553 0
M  V30 2921 H 286.893 -4.11167 -2.08035 0
M  V30 2922 H 285.208 -3.64139 -2.0197 0
M  V30 2923 H 287.805 -2.67716 -4.62852 0
M  V30 2924 H 288.148 -1.07582 -4.02159 0
M  V30 2925 H 288.681 -2.49945 -3.09471 0
M  V30 2926 H 285.42 -5.44533 -3.64916 0
M  V30 2927 H 284.94 -3.96125 -4.50383 0
M  V30 2928 H 286.619 -4.54741 -4.60238 0
M  V30 2929 N 286.751 1.08385 -1.14413 0
M  V30 2930 C 288.167 1.32844 -0.884563 0
M  V30 2931 C 288.367 1.95841 0.474181 0
M  V30 2932 O 287.423 2.21158 1.21842 0
M  V30 2933 C 288.736 2.22978 -2.01745 0
M  V30 2934 C 290.284 2.36458 -2.05077 0
M  V30 2935 C 290.759 3.29934 -3.1766 0
M  V30 2936 N 292.25 3.37511 -3.17239 0
M  V30 2937 C 292.985 4.09871 -4.0099 0
M  V30 2938 N 292.481 4.84936 -4.94781 0
M  V30 2939 N 294.274 4.05704 -3.89051 0
M  V30 2940 H 286.425 0.658756 -2.01926 0
M  V30 2941 H 288.688 0.352821 -0.879899 0
M  V30 2942 H 288.394 1.83934 -2.99769 0
M  V30 2943 H 288.268 3.23441 -1.94077 0
M  V30 2944 H 290.655 2.7476 -1.0766 0
M  V30 2945 H 290.736 1.35736 -2.16816 0
M  V30 2946 H 290.38 2.92352 -4.15322 0
M  V30 2947 H 290.31 4.30584 -3.03158 0
M  V30 2948 H 292.801 2.83996 -2.49308 0
M  V30 2949 H 293.114 5.37612 -5.55151 0
M  V30 2950 H 291.459 4.83988 -4.98779 0
M  V30 2951 H 294.65 3.46167 -3.15097 0
M  V30 2952 H 294.823 4.61834 -4.54547 0
M  V30 2953 N 288.23 0.939286 1.26551 0
M  V30 2954 C 289.458 0.602536 1.97932 0
M  V30 2955 C 289.873 -0.82206 1.69964 0
M  V30 2956 O 289.23 -1.54789 0.966784 0
M  V30 2957 C 289.281 0.832946 3.51773 0
M  V30 2958 O 289.002 2.20151 3.78768 0
M  V30 2959 C 290.503 0.506483 4.40397 0
M  V30 2960 H 287.723 0.227248 0.631347 0
M  V30 2961 H 290.267 1.25948 1.61113 0
M  V30 2962 H 288.422 0.222644 3.8676 0
M  V30 2963 H 288.836 2.26013 4.73306 0
M  V30 2964 H 290.31 0.718333 5.47306 0
M  V30 2965 H 290.787 -0.558451 4.35635 0
M  V30 2966 H 291.393 1.09543 4.10951 0
M  V30 2967 N 289.708 -1.40897 0.706093 0
M  V30 2968 C 290.956 -2.00657 0.241054 0
M  V30 2969 C 291.277 -1.56241 -1.16678 0
M  V30 2970 O 290.547 -0.79765 -1.78926 0
M  V30 2971 H 289.127 -0.742018 0.0861308 0
M  V30 2972 H 291.789 -1.72372 0.909604 0
M  V30 2973 H 290.885 -3.10958 0.266705 0
M  V30 2974 N 291.186 -0.45159 -1.50991 0
M  V30 2975 C 292.434 0.109857 -2.01801 0
M  V30 2976 C 292.755 1.41958 -1.3369 0
M  V30 2977 O 292.025 1.9003 -0.475951 0
M  V30 2978 H 290.605 0.0435884 -0.745727 0
M  V30 2979 H 293.267 -0.597557 -1.85514 0
M  V30 2980 H 292.363 0.275489 -3.10882 0
M  V30 2981 N 292.664 1.56529 -0.183458 0
M  V30 2982 C 293.941 1.88959 0.50536 0
M  V30 2983 C 294.321 1.09523 1.80466 0
M  V30 2984 O 293.669 0.19278 2.27685 0
M  V30 2985 C 293.879 3.41162 0.73547 0
M  V30 2986 C 295.227 4.11155 1.06005 0
M  V30 2987 O 296.251 3.46548 0.823594 0
M  V30 2988 O 295.11 5.25318 1.50675 0
M  V30 2989 H 292.204 0.78441 0.261973 0
M  V30 2990 H 294.75 1.68231 -0.222802 0
M  V30 2991 H 293.522 3.90874 -0.182561 0
M  V30 2992 H 293.145 3.67543 1.51651 0
M  V30 2993 N 294.142 -0.090211 1.57342 0
M  V30 2994 C 295.052 -1.12735 2.05738 0
M  V30 2995 C 296.068 -1.43557 0.983231 0
M  V30 2996 O 297.244 -1.54101 1.29672 0
M  V30 2997 C 294.309 -2.42659 2.47624 0
M  V30 2998 C 293.37 -2.18975 3.69254 0
M  V30 2999 C 292.603 -3.42704 4.09133 0
M  V30 3000 O 292.826 -4.51127 3.49057 0
M  V30 3001 O 291.76 -3.32003 5.02053 0
M  V30 3002 H 295.586 -0.746279 2.94388 0
M  V30 3003 H 293.171 -0.303064 1.46294 0
M  V30 3004 H 295.053 -3.19155 2.7517 0
M  V30 3005 H 293.728 -2.80182 1.62109 0
M  V30 3006 H 292.635 -1.40244 3.46818 0
M  V30 3007 H 293.968 -1.86342 4.55563 0
M  V30 3008 N 295.62 -1.53406 -0.361157 0
M  V30 3009 C 296.552 -1.76446 -1.46286 0
M  V30 3010 C 297.565 -0.645322 -1.49464 0
M  V30 3011 O 298.754 -0.921681 -1.52864 0
M  V30 3012 C 295.854 -1.83332 -2.85031 0
M  V30 3013 C 295.027 -3.13033 -3.05498 0
M  V30 3014 C 294.086 -3.11104 -4.24383 0
M  V30 3015 O 293.112 -3.84888 -4.19344 0
M  V30 3016 N 294.314 -2.32234 -5.32022 0
M  V30 3017 H 297.079 -2.71508 -1.26899 0
M  V30 3018 H 294.64 -1.52238 -0.550915 0
M  V30 3019 H 296.632 -1.79514 -3.62708 0
M  V30 3020 H 295.202 -0.955342 -2.97644 0
M  V30 3021 H 294.422 -3.30119 -2.15442 0
M  V30 3022 H 295.71 -3.9874 -3.16044 0
M  V30 3023 H 295.108 -1.71807 -5.38979 0
M  V30 3024 H 293.665 -2.3423 -6.08259 0
M  V30 3025 N 297.098 0.621204 -1.44841 0
M  V30 3026 C 298.03 1.74615 -1.48466 0
M  V30 3027 C 299.043 1.58377 -0.37691 0
M  V30 3028 O 300.232 1.66508 -0.643215 0
M  V30 3029 C 297.332 3.12459 -1.31236 0
M  V30 3030 C 296.505 3.55064 -2.55438 0
M  V30 3031 C 295.564 4.71821 -2.32963 0
M  V30 3032 O 294.59 4.79628 -3.06505 0
M  V30 3033 N 295.792 5.64186 -1.36654 0
M  V30 3034 H 298.557 1.71973 -2.45449 0
M  V30 3035 H 296.118 0.806077 -1.40407 0
M  V30 3036 H 298.11 3.88302 -1.14032 0
M  V30 3037 H 296.68 3.09686 -0.4258 0
M  V30 3038 H 295.9 2.69324 -2.87851 0
M  V30 3039 H 297.188 3.80284 -3.38026 0
M  V30 3040 H 296.586 5.6058 -0.759344 0
M  V30 3041 H 295.143 6.39618 -1.25425 0
M  V30 3042 N 298.576 1.31904 0.862503 0
M  V30 3043 C 299.539 1.20131 1.95195 0
M  V30 3044 C 300.539 0.126409 1.60302 0
M  V30 3045 O 301.729 0.376234 1.70089 0
M  V30 3046 C 298.861 0.845691 3.30244 0
M  V30 3047 H 300.054 2.16943 2.07064 0
M  V30 3048 H 297.607 1.15622 1.05172 0
M  V30 3049 H 298.342 -0.120957 3.24074 0
M  V30 3050 H 298.127 1.62276 3.56944 0
M  V30 3051 H 299.617 0.787418 4.10109 0
M  V30 3052 N 300.054 -1.07777 1.14986 0
M  V30 3053 C 300.984 -2.16865 0.865557 0
M  V30 3054 C 301.965 -1.69123 -0.182083 0
M  V30 3055 O 303.15 -1.94164 -0.0373815 0
M  V30 3056 C 300.28 -3.45539 0.349313 0
M  V30 3057 C 299.234 -4.06708 1.33313 0
M  V30 3058 C 298.56 -5.30411 0.675918 0
M  V30 3059 C 299.86 -4.47241 2.69764 0
M  V30 3060 H 301.554 -2.40905 1.77778 0
M  V30 3061 H 299.1 -1.15781 0.856203 0
M  V30 3062 H 301.053 -4.21174 0.137983 0
M  V30 3063 H 299.777 -3.21072 -0.598362 0
M  V30 3064 H 298.436 -3.33112 1.53075 0
M  V30 3065 H 298.084 -5.02232 -0.277767 0
M  V30 3066 H 297.784 -5.72293 1.33244 0
M  V30 3067 H 299.308 -6.08755 0.474262 0
M  V30 3068 H 300.722 -5.14025 2.53873 0
M  V30 3069 H 299.119 -5.00062 3.3175 0
M  V30 3070 H 300.189 -3.58818 3.26156 0
M  V30 3071 N 301.532 -0.945985 -1.26051 0
M  V30 3072 C 302.772 -0.603665 -1.95282 0
M  V30 3073 C 303.136 0.842377 -1.72534 0
M  V30 3074 O 304.337 1.29387 -2.35611 0
M  V30 3075 C 302.608 -0.942292 -3.44754 0
M  V30 3076 S 304.167 -0.711242 -4.32997 0
M  V30 3077 H 300.985 -0.222176 -0.675395 0
M  V30 3078 H 303.587 -1.21832 -1.52896 0
M  V30 3079 H 302.291 -1.99203 -3.58812 0
M  V30 3080 H 301.822 -0.317546 -3.92116 0
M  V30 3081 H 303.837 0.422221 -4.944 0
M  V30 3082 N 303.011 1.40521 -0.713556 0
M  V30 3083 C 304.239 2.05237 -0.261775 0
M  V30 3084 C 304.654 1.53755 1.09567 0
M  V30 3085 O 304.011 0.693268 1.6882 0
M  V30 3086 C 304.062 3.60763 -0.230706 0
M  V30 3087 O 303.783 4.10345 -1.53455 0
M  V30 3088 C 305.284 4.42651 0.239874 0
M  V30 3089 H 302.504 0.660533 -0.118057 0
M  V30 3090 H 305.048 1.79967 -0.971192 0
M  V30 3091 H 303.203 3.8501 0.429661 0
M  V30 3092 H 303.617 5.04526 -1.43366 0
M  V30 3093 H 305.091 5.51599 0.210468 0
M  V30 3094 H 305.568 4.20082 1.28171 0
M  V30 3095 H 306.174 4.23507 -0.390142 0
M  V30 3096 N 304.489 0.459591 1.5075 0
M  V30 3097 C 305.766 -0.160371 1.94941 0
M  V30 3098 C 306.146 -1.58048 1.39943 0
M  V30 3099 O 305.494 -2.206 0.595629 0
M  V30 3100 C 305.704 -0.115432 3.48809 0
M  V30 3101 C 307.052 -0.310026 4.23467 0
M  V30 3102 O 308.076 -0.192543 3.55679 0
M  V30 3103 O 306.935 -0.546031 5.43765 0
M  V30 3104 H 304.029 -0.117925 0.818549 0
M  V30 3105 H 306.575 0.519169 1.61563 0
M  V30 3106 H 305.347 0.87652 3.81357 0
M  V30 3107 H 304.97 -0.836928 3.88692 0
M  V30 3108 N 305.967 -1.56429 0.191757 0
M  V30 3109 C 306.877 -2.22541 -0.742481 0
M  V30 3110 C 307.893 -1.22342 -1.23727 0
M  V30 3111 O 309.069 -1.55069 -1.28513 0
M  V30 3112 C 306.134 -2.8692 -1.94623 0
M  V30 3113 C 305.195 -4.02378 -1.49633 0
M  V30 3114 C 304.428 -4.63678 -2.6427 0
M  V30 3115 O 304.651 -4.23895 -3.81666 0
M  V30 3116 O 303.585 -5.53202 -2.37174 0
M  V30 3117 H 307.411 -3.02977 -0.209462 0
M  V30 3118 H 304.996 -1.49353 -0.0373832 0
M  V30 3119 H 306.878 -3.27663 -2.64982 0
M  V30 3120 H 305.553 -2.09466 -2.46791 0
M  V30 3121 H 304.46 -3.66265 -0.761636 0
M  V30 3122 H 305.793 -4.81487 -1.02134 0
M  V30 3123 N 307.445 0.0818655 -1.57387 0
M  V30 3124 C 308.692 0.782914 -1.86753 0
M  V30 3125 C 309.02 1.78082 -0.782118 0
M  V30 3126 O 308.275 1.94426 0.22295 0
M  V30 3127 C 308.574 1.53513 -3.22752 0
M  V30 3128 C 308.24 0.678134 -4.45771 0
M  V30 3129 C 306.902 0.441929 -4.79166 0
M  V30 3130 C 309.254 0.0832243 -5.21134 0
M  V30 3131 C 306.582 -0.398833 -5.85343 0
M  V30 3132 C 308.934 -0.744935 -6.28199 0
M  V30 3133 C 307.598 -0.991107 -6.60101 0
M  V30 3134 H 306.868 0.286489 -0.683378 0
M  V30 3135 H 309.515 0.0439808 -1.91449 0
M  V30 3136 H 307.82 2.34599 -3.138 0
M  V30 3137 H 309.517 2.08218 -3.42705 0
M  V30 3138 H 306.107 0.872357 -4.19628 0
M  V30 3139 H 310.291 0.252847 -4.95655 0
M  V30 3140 H 305.547 -0.598405 -6.08465 0
M  V30 3141 H 309.721 -1.21271 -6.8576 0
M  V30 3142 H 307.348 -1.64437 -7.42202 0
M  V30 3143 N 308.923 1.53595 0.353017 0
M  V30 3144 C 310.148 1.7462 1.11904 0
M  V30 3145 C 310.573 0.479721 1.8188 0
M  V30 3146 O 309.931 -0.567066 1.72204 0
M  V30 3147 C 309.979 2.92029 2.11545 0
M  V30 3148 O 309.083 2.61516 3.18878 0
M  V30 3149 H 308.424 0.579531 0.324099 0
M  V30 3150 H 310.954 2.00525 0.406301 0
M  V30 3151 H 310.964 3.18551 2.5493 0
M  V30 3152 H 309.639 3.83888 1.60008 0
M  V30 3153 H 308.216 2.45852 2.80377 0
M  V30 3154 N 310.401 -0.613514 1.45168 0
M  V30 3155 C 311.678 -1.37263 1.39349 0
M  V30 3156 C 312.058 -2.11012 0.0610848 0
M  V30 3157 O 311.406 -2.07502 -0.956825 0
M  V30 3158 C 311.616 -2.3244 2.60332 0
M  V30 3159 C 312.964 -2.9523 3.05163 0
M  V30 3160 O 313.988 -2.42762 2.60663 0
M  V30 3161 O 312.847 -3.90454 3.82372 0
M  V30 3162 H 309.941 -0.615188 0.552696 0
M  V30 3163 H 312.487 -0.637097 1.57287 0
M  V30 3164 H 311.259 -1.77164 3.48896 0
M  V30 3165 H 310.882 -3.13383 2.44698 0
M  V30 3166 N 311.879 -1.3236 -0.855495 0
M  V30 3167 C 313.128 -1.22226 -1.60448 0
M  V30 3168 C 313.441 0.214733 -1.94418 0
M  V30 3169 O 314.647 0.437917 -2.67945 0
M  V30 3170 C 313.103 -2.14063 -2.89318 0
M  V30 3171 C 312.711 -3.62839 -2.62777 0
M  V30 3172 C 314.455 -2.12764 -3.67331 0
M  V30 3173 C 312.362 -4.4664 -3.87643 0
M  V30 3174 H 311.292 -0.453904 -0.602069 0
M  V30 3175 H 313.943 -1.57314 -0.944698 0
M  V30 3176 H 312.325 -1.71889 -3.5675 0
M  V30 3177 H 313.499 -4.1335 -2.03662 0
M  V30 3178 H 311.814 -3.66261 -1.98096 0
M  V30 3179 H 314.411 -2.72611 -4.59987 0
M  V30 3180 H 314.754 -1.11841 -4.00995 0
M  V30 3181 H 315.287 -2.53214 -3.06802 0
M  V30 3182 H 312.026 -5.48373 -3.5912 0
M  V30 3183 H 311.546 -4.0088 -4.46156 0
M  V30 3184 H 313.225 -4.59597 -4.55389 0
M  V30 3185 N 313.357 1.07166 -1.15556 0
M  V30 3186 C 314.582 1.84053 -0.955988 0
M  V30 3187 C 315.007 1.81586 0.490739 0
M  V30 3188 O 314.365 1.21018 1.34997 0
M  V30 3189 C 314.413 3.28957 -1.47714 0
M  V30 3190 O 313.517 4.06795 -0.677593 0
M  V30 3191 H 312.858 0.569842 -0.340847 0
M  V30 3192 H 315.388 1.35178 -1.53584 0
M  V30 3193 H 315.398 3.79788 -1.4908 0
M  V30 3194 H 314.073 3.30068 -2.53037 0
M  V30 3195 H 312.65 3.6561 -0.733721 0
M  V30 3196 N 314.835 0.952656 1.25548 0
M  V30 3197 C 316.246 0.647392 1.75116 0
M  V30 3198 C 316.597 -0.837274 1.77438 0
M  V30 3199 O 315.722 -1.65525 1.39393 0
M  V30 3200 C 316.317 1.16845 3.18014 0
M  V30 3201 C 314.876 0.913382 3.6515 0
M  V30 3202 C 314.023 1.31265 2.44264 0
M  V30 3203 H 316.974 1.12968 1.11462 0
M  V30 3204 H 316.995 0.527606 3.76824 0
M  V30 3205 H 316.507 2.24902 3.16292 0
M  V30 3206 H 314.608 -0.152316 3.72289 0
M  V30 3207 H 314.721 1.54845 4.53387 0
M  V30 3208 H 313.085 0.731028 2.43984 0
M  V30 3209 H 313.868 2.40239 2.45234 0
M  V30 3210 N 316.313 -1.40141 0.720998 0
M  V30 3211 C 317.243 -2.33339 0.0867621 0
M  V30 3212 C 318.224 -1.53178 -0.739622 0
M  V30 3213 O 319.409 -1.81625 -0.687449 0
M  V30 3214 C 316.539 -3.37194 -0.831728 0
M  V30 3215 C 315.493 -4.27857 -0.110558 0
M  V30 3216 C 314.819 -5.22294 -1.14513 0
M  V30 3217 C 316.119 -5.11872 1.0385 0
M  V30 3218 H 317.813 -2.86626 0.865219 0
M  V30 3219 H 315.359 -1.37814 0.417516 0
M  V30 3220 H 317.312 -4.01335 -1.28485 0
M  V30 3221 H 316.036 -2.82314 -1.64214 0
M  V30 3222 H 314.695 -3.65176 0.322797 0
M  V30 3223 H 314.343 -4.63717 -1.94874 0
M  V30 3224 H 314.043 -5.83797 -0.667446 0
M  V30 3225 H 315.567 -5.89312 -1.59824 0
M  V30 3226 H 316.981 -5.69436 0.664482 0
M  V30 3227 H 315.378 -5.82445 1.4449 0
M  V30 3228 H 316.448 -4.4753 1.86668 0
M  V30 3229 N 317.792 -0.46758 -1.50504 0
M  V30 3230 C 319.02 0.0864133 -2.06719 0
M  V30 3231 C 319.435 1.33819 -1.33184 0
M  V30 3232 O 318.792 1.78061 -0.400083 0
M  V30 3233 C 318.843 0.378079 -3.59517 0
M  V30 3234 O 318.564 -0.824044 -4.3028 0
M  V30 3235 C 320.065 0.979426 -4.32345 0
M  V30 3236 H 317.285 -0.00551697 -0.670977 0
M  V30 3237 H 319.829 -0.655354 -1.93715 0
M  V30 3238 H 317.984 1.06977 -3.72337 0
M  V30 3239 H 318.398 -0.566518 -5.21432 0
M  V30 3240 H 319.872 1.1333 -5.40241 0
M  V30 3241 H 320.349 1.9686 -3.9261 0
M  V30 3242 H 320.955 0.326216 -4.24047 0
M  V30 3243 N 319.27 1.56325 -0.20005 0
M  V30 3244 C 320.518 1.97329 0.436547 0
M  V30 3245 C 320.839 1.08826 1.61808 0
M  V30 3246 O 320.109 0.160604 1.95241 0
M  V30 3247 H 318.689 0.728714 0.164272 0
M  V30 3248 H 321.351 1.92761 -0.287937 0
M  V30 3249 H 320.447 3.02264 0.777353 0
M  V30 3250 N 320.748 -0.0735177 1.57428 0
M  V30 3251 C 321.996 -0.771472 1.86796 0
M  V30 3252 C 322.317 -1.78201 0.791804 0
M  V30 3253 O 321.587 -1.95074 -0.179718 0
M  V30 3254 H 320.167 -0.28791 0.689287 0
M  V30 3255 H 322.829 -0.0500161 1.94836 0
M  V30 3256 H 321.925 -1.28874 2.8425 0
M  V30 3257 N 322.226 -1.5378 -0.344866 0
M  V30 3258 C 323.174 -1.82373 -1.4437 0
M  V30 3259 C 324.168 -0.694128 -1.54526 0
M  V30 3260 O 325.374 -0.877442 -1.57165 0
M  V30 3261 H 321.749 -0.577765 -0.481344 0
M  V30 3262 H 323.72 -2.74306 -1.17468 0
M  V30 3263 C 322.469 -2.04898 -2.80913 0
M  V30 3264 H 321.792 -2.9127 -2.73865 0
M  V30 3265 H 323.232 -2.28871 -3.56923 0
M  V30 3266 C 321.691 -0.834116 -3.26411 0
M  V30 3267 O 322.221 -0.0328885 -4.01687 0
M  V30 3268 N 320.427 -0.65171 -2.83198 0
M  V30 3269 H 319.974 -1.30489 -2.22104 0
M  V30 3270 H 319.932 0.159686 -3.13994 0
M  V30 3271 N 323.704 0.605807 -1.45491 0
M  V30 3272 C 324.95 1.36679 -1.49823 0
M  V30 3273 C 325.283 1.93693 -0.140175 0
M  V30 3274 O 324.558 1.75158 0.845581 0
M  V30 3275 C 324.841 2.51337 -2.57879 0
M  V30 3276 C 324.694 1.99508 -4.03134 0
M  V30 3277 C 326.013 3.53463 -2.62205 0
M  V30 3278 H 323.132 0.495617 -0.545466 0
M  V30 3279 H 325.774 0.682732 -1.7731 0
M  V30 3280 H 323.924 3.09691 -2.34571 0
M  V30 3281 H 325.596 1.45789 -4.37656 0
M  V30 3282 H 323.839 1.30496 -4.13707 0
M  V30 3283 H 324.51 2.82169 -4.74431 0
M  V30 3284 H 326.986 3.04953 -2.83095 0
M  V30 3285 H 325.862 4.31178 -3.39672 0
M  V30 3286 H 326.123 4.09197 -1.67363 0
M  V30 3287 N 325.182 1.32811 0.848464 0
M  V30 3288 C 326.145 1.22194 1.9391 0
M  V30 3289 C 327.145 0.143404 1.60159 0
M  V30 3290 O 328.335 0.394253 1.6968 0
M  V30 3291 C 325.467 0.88067 3.29328 0
M  V30 3292 H 326.66 2.19127 2.04752 0
M  V30 3293 H 324.213 1.16731 1.0394 0
M  V30 3294 H 324.948 -0.0865776 3.24184 0
M  V30 3295 H 324.733 1.66052 3.55203 0
M  V30 3296 H 326.223 0.830871 4.09251 0
M  V30 3297 N 326.66 -1.06551 1.16123 0
M  V30 3298 C 327.907 -1.79302 0.941126 0
M  V30 3299 C 328.235 -1.87105 -0.531235 0
M  V30 3300 O 327.49 -1.35692 -1.41018 0
M  V30 3301 C 327.789 -3.23911 1.51052 0
M  V30 3302 C 327.455 -3.36193 3.00475 0
M  V30 3303 C 326.117 -3.39252 3.41265 0
M  V30 3304 C 328.469 -3.38326 3.96465 0
M  V30 3305 C 325.797 -3.42057 4.76669 0
M  V30 3306 C 328.149 -3.4267 5.31752 0
M  V30 3307 C 326.813 -3.4401 5.72026 0
M  V30 3308 H 326.083 -0.656111 0.344382 0
M  V30 3309 H 328.73 -1.25325 1.44796 0
M  V30 3310 H 327.035 -3.80723 0.925063 0
M  V30 3311 H 328.732 -3.78793 1.31593 0
M  V30 3312 H 325.322 -3.34516 2.6795 0
M  V30 3313 H 329.506 -3.35176 3.6602 0
M  V30 3314 H 324.762 -3.41398 5.07206 0
M  V30 3315 H 328.936 -3.43268 6.05921 0
M  V30 3316 H 326.563 -3.45937 6.76928 0
M  V30 3317 N 328.138 -0.959301 -1.25041 0
M  V30 3318 C 329.363 -0.633507 -1.97488 0
M  V30 3319 C 329.788 0.788555 -1.70773 0
M  V30 3320 O 329.146 1.53394 -0.966431 0
M  V30 3321 C 329.194 -0.904057 -3.49083 0
M  V30 3322 O 328.298 0.0147939 -4.12397 0
M  V30 3323 H 327.639 -0.240368 -0.618966 0
M  V30 3324 H 330.169 -1.28717 -1.59038 0
M  V30 3325 H 330.179 -0.832203 -3.99423 0
M  V30 3326 H 328.854 -1.94048 -3.67856 0
M  V30 3327 H 327.431 -0.109664 -3.72739 0
M  V30 3328 N 329.616 1.39756 -0.72842 0
M  V30 3329 C 330.844 2.04948 -0.283528 0
M  V30 3330 C 331.259 1.54908 1.0793 0
M  V30 3331 O 330.616 0.711135 1.68075 0
M  V30 3332 C 330.667 3.60498 -0.268957 0
M  V30 3333 O 330.388 4.08695 -1.57798 0
M  V30 3334 C 331.889 4.4288 0.192912 0
M  V30 3335 H 329.109 0.659243 -0.125056 0
M  V30 3336 H 331.653 1.78927 -0.990226 0
M  V30 3337 H 329.808 3.85444 0.388801 0
M  V30 3338 H 330.222 5.02977 -1.48709 0
M  V30 3339 H 331.696 5.51791 0.151952 0
M  V30 3340 H 332.173 4.21418 1.23708 0
M  V30 3341 H 332.779 4.23069 -0.435039 0
M  V30 3342 N 331.094 0.475555 1.50254 0
M  V30 3343 C 332.024 -0.30611 2.31485 0
M  V30 3344 C 333.005 -0.986228 1.38591 0
M  V30 3345 O 334.19 -0.982541 1.67511 0
M  V30 3346 C 331.32 -1.38588 3.1845 0
M  V30 3347 C 330.274 -0.827115 4.19932 0
M  V30 3348 C 329.6 -2.00551 4.95665 0
M  V30 3349 C 330.9 0.16463 5.2204 0
M  V30 3350 H 332.594 0.371866 2.97082 0
M  V30 3351 H 330.14 0.180282 1.42867 0
M  V30 3352 H 332.093 -1.94023 3.74076 0
M  V30 3353 H 330.817 -2.09269 2.50747 0
M  V30 3354 H 329.476 -0.294702 3.65414 0
M  V30 3355 H 329.124 -2.6994 4.2443 0
M  V30 3356 H 328.824 -1.63784 5.64313 0
M  V30 3357 H 330.348 -2.56468 5.54127 0
M  V30 3358 H 331.762 -0.300699 5.72511 0
M  V30 3359 H 330.159 0.446813 5.98434 0
M  V30 3360 H 331.229 1.08905 4.72512 0
M  V30 3361 N 332.573 -1.56217 0.208337 0
M  V30 3362 C 333.483 -2.23316 -0.718836 0
M  V30 3363 C 334.499 -1.23648 -1.22422 0
M  V30 3364 O 335.675 -1.56423 -1.26861 0
M  V30 3365 C 332.74 -2.88968 -1.91568 0
M  V30 3366 C 331.801 -4.03943 -1.45357 0
M  V30 3367 C 331.034 -4.66455 -2.59337 0
M  V30 3368 O 331.257 -4.27919 -3.77149 0
M  V30 3369 O 330.191 -5.55686 -2.31293 0
M  V30 3370 H 334.017 -3.03182 -0.177315 0
M  V30 3371 H 331.602 -1.49384 -0.0215402 0
M  V30 3372 H 333.484 -3.30455 -2.61491 0
M  V30 3373 H 332.159 -2.12071 -2.44556 0
M  V30 3374 H 331.066 -3.67052 -0.722746 0
M  V30 3375 H 332.399 -4.82543 -0.970219 0
M  V30 3376 N 334.051 0.0651679 -1.57465 0
M  V30 3377 C 335.299 0.761555 -1.87202 0
M  V30 3378 C 335.62 1.77778 -0.801243 0
M  V30 3379 O 334.89 1.95166 0.16937 0
M  V30 3380 H 333.47 0.284251 -0.690804 0
M  V30 3381 H 336.132 0.0396827 -1.9486 0
M  V30 3382 H 335.228 1.27365 -2.84929 0
M  V30 3383 N 335.529 1.53961 0.336706 0
M  V30 3384 C 336.945 1.44378 0.680241 0
M  V30 3385 C 337.145 0.606034 1.9217 0
M  V30 3386 O 336.201 0.099688 2.52303 0
M  V30 3387 C 337.514 2.87945 0.8665 0
M  V30 3388 C 339.062 2.97763 0.964682 0
M  V30 3389 C 339.537 4.42453 1.18321 0
M  V30 3390 N 341.028 4.46008 1.25025 0
M  V30 3391 C 341.763 5.55102 1.43697 0
M  V30 3392 N 341.259 6.7419 1.59498 0
M  V30 3393 N 343.052 5.42727 1.463 0
M  V30 3394 H 335.203 2.06918 -0.479455 0
M  V30 3395 H 337.466 0.935634 -0.152619 0
M  V30 3396 H 337.172 3.51691 0.0256937 0
M  V30 3397 H 337.046 3.33293 1.76623 0
M  V30 3398 H 339.433 2.34153 1.796 0
M  V30 3399 H 339.514 2.55766 0.041708 0
M  V30 3400 H 339.158 5.06645 0.356788 0
M  V30 3401 H 339.088 4.82048 2.11985 0
M  V30 3402 H 341.579 3.60196 1.14312 0
M  V30 3403 H 341.892 7.53095 1.734 0
M  V30 3404 H 340.237 6.77123 1.56621 0
M  V30 3405 H 343.428 4.48647 1.33543 0
M  V30 3406 H 343.601 6.27806 1.6051 0
M  V30 3407 N 337.007 -0.598083 1.45811 0
M  V30 3408 C 338.418 -1.18011 1.44673 0
M  V30 3409 C 338.769 -1.95378 0.179364 0
M  V30 3410 O 337.894 -2.04124 -0.718509 0
M  V30 3411 C 338.489 -2.14677 2.62105 0
M  V30 3412 C 337.048 -2.68236 2.64057 0
M  V30 3413 C 336.195 -1.43816 2.37091 0
M  V30 3414 H 339.146 -0.38686 1.53913 0
M  V30 3415 H 339.167 -2.97878 2.36746 0
M  V30 3416 H 338.679 -1.5834 3.5433 0
M  V30 3417 H 336.78 -3.28486 1.75864 0
M  V30 3418 H 336.893 -3.12021 3.63566 0
M  V30 3419 H 335.257 -1.731 1.86838 0
M  V30 3420 H 336.04 -0.893333 3.31473 0
M  V30 3421 N 338.485 -1.33259 -0.841409 0
M  V30 3422 C 339.71 -1.2775 -1.63385 0
M  V30 3423 C 340.135 0.149188 -1.87507 0
M  V30 3424 O 339.493 1.10498 -1.43736 0
M  V30 3425 C 339.541 -2.05571 -2.96265 0
M  V30 3426 O 338.645 -1.41257 -3.87453 0
M  V30 3427 H 337.986 -0.439627 -0.497618 0
M  V30 3428 H 340.516 -1.75782 -1.04699 0
M  V30 3429 H 340.526 -2.16241 -3.45982 0
M  V30 3430 H 339.201 -3.09309 -2.7803 0
M  V30 3431 H 337.778 -1.39217 -3.45938 0
M  V30 3432 N 339.963 1.05934 -1.16686 0
M  V30 3433 C 340.926 2.11669 -0.879144 0
M  V30 3434 C 341.926 1.60294 0.127445 0
M  V30 3435 O 343.116 1.7389 -0.103865 0
M  V30 3436 C 340.248 3.39438 -0.315425 0
M  V30 3437 H 341.441 2.38626 -1.81653 0
M  V30 3438 H 338.994 1.22058 -0.976299 0
M  V30 3439 H 339.729 3.18132 0.629468 0
M  V30 3440 H 339.514 3.78034 -1.04079 0
M  V30 3441 H 341.004 4.17391 -0.132189 0
M  V30 3442 N 341.441 0.965919 1.2453 0
M  V30 3443 C 342.671 0.643451 1.96324 0
M  V30 3444 C 343.079 -0.790927 1.71875 0
M  V30 3445 O 342.422 -1.54208 0.998273 0
M  V30 3446 C 342.484 0.836078 3.49643 0
M  V30 3447 C 342.148 2.24975 3.97788 0
M  V30 3448 C 343.145 3.22735 4.07601 0
M  V30 3449 C 340.83 2.57697 4.31158 0
M  V30 3450 C 342.824 4.51303 4.50116 0
M  V30 3451 C 340.511 3.86492 4.73357 0
M  V30 3452 C 341.509 4.83107 4.828 0
M  V30 3453 O 341.197 6.09605 5.24058 0
M  V30 3454 H 340.929 0.239223 0.632257 0
M  V30 3455 H 343.483 1.29587 1.59362 0
M  V30 3456 H 341.713 0.12649 3.86493 0
M  V30 3457 H 343.402 0.512965 4.02646 0
M  V30 3458 H 344.168 2.98783 3.82039 0
M  V30 3459 H 340.047 1.83216 4.23028 0
M  V30 3460 H 343.591 5.26716 4.57401 0
M  V30 3461 H 339.488 4.10245 4.98366 0
M  V30 3462 H 340.256 6.13146 5.42213 0
M  V30 3463 N 342.919 -1.39368 0.735821 0
M  V30 3464 C 343.867 -2.32443 0.0855131 0
M  V30 3465 C 344.861 -1.53104 -0.724954 0
M  V30 3466 O 346.067 -1.68762 -0.626047 0
M  V30 3467 H 342.442 -0.751948 0.00885257 0
M  V30 3468 H 344.413 -2.84916 0.886883 0
M  V30 3469 C 343.162 -3.38206 -0.806983 0
M  V30 3470 H 342.485 -3.99335 -0.19274 0
M  V30 3471 H 343.925 -4.05779 -1.2296 0
M  V30 3472 C 342.384 -2.75321 -1.94165 0
M  V30 3473 O 342.914 -2.63231 -3.03435 0
M  V30 3474 N 341.12 -2.33396 -1.73132 0
M  V30 3475 H 340.667 -2.4343 -0.842596 0
M  V30 3476 H 340.625 -1.91661 -2.49225 0
M  V30 3477 N 344.397 -0.483516 -1.5 0
M  V30 3478 C 345.644 0.0671597 -2.02389 0
M  V30 3479 C 345.972 1.38597 -1.36459 0
M  V30 3480 O 345.227 1.89634 -0.483458 0
M  V30 3481 C 345.526 0.286226 -3.56252 0
M  V30 3482 C 345.192 -0.952416 -4.40726 0
M  V30 3483 C 343.854 -1.29199 -4.63531 0
M  V30 3484 C 346.206 -1.77655 -4.89988 0
M  V30 3485 C 343.534 -2.45553 -5.32842 0
M  V30 3486 C 345.886 -2.93147 -5.60578 0
M  V30 3487 C 344.55 -3.27505 -5.81633 0
M  V30 3488 H 343.82 0.0245755 -0.740592 0
M  V30 3489 H 346.467 -0.640124 -1.80485 0
M  V30 3490 H 344.772 1.07587 -3.76739 0
M  V30 3491 H 346.469 0.726473 -3.94365 0
M  V30 3492 H 343.059 -0.677881 -4.23205 0
M  V30 3493 H 347.243 -1.52737 -4.72213 0
M  V30 3494 H 342.499 -2.72431 -5.47349 0
M  V30 3495 H 346.673 -3.57344 -5.97727 0
M  V30 3496 H 344.3 -4.1777 -6.35116 0
M  V30 3497 N 345.875 1.56104 -0.216619 0
M  V30 3498 C 347.152 1.89988 0.465165 0
M  V30 3499 C 347.532 1.13326 1.78102 0
M  V30 3500 O 346.88 0.241033 2.27225 0
M  V30 3501 C 347.09 3.42646 0.662939 0
M  V30 3502 C 348.438 4.13311 0.972602 0
M  V30 3503 O 349.462 3.48217 0.749901 0
M  V30 3504 O 348.321 5.28396 1.39499 0
M  V30 3505 H 345.415 0.78979 0.245276 0
M  V30 3506 H 347.961 1.67721 -0.258436 0
M  V30 3507 H 346.733 3.90399 -0.26543 0
M  V30 3508 H 346.356 3.70677 1.43821 0
M  V30 3509 N 347.353 -0.0568162 1.57498 0
M  V30 3510 C 348.301 -1.08452 2.05769 0
M  V30 3511 C 349.295 -1.39164 0.965903 0
M  V30 3512 O 350.501 -1.38395 1.15095 0
M  V30 3513 H 346.876 -0.367148 0.656282 0
M  V30 3514 H 348.847 -0.651368 2.91204 0
M  V30 3515 C 347.596 -2.38543 2.52968 0
M  V30 3516 H 346.919 -2.15765 3.36579 0
M  V30 3517 H 348.359 -3.08863 2.90481 0
M  V30 3518 C 346.818 -3.05562 1.41893 0
M  V30 3519 O 347.348 -3.94262 0.769442 0
M  V30 3520 N 345.554 -2.6643 1.16032 0
M  V30 3521 H 345.101 -1.94387 1.6903 0
M  V30 3522 H 345.059 -3.11593 0.419219 0
M  V30 3523 N 348.832 -1.54138 -0.328536 0
M  V30 3524 C 350.057 -1.76378 -1.09112 0
M  V30 3525 C 350.482 -0.508596 -1.81094 0
M  V30 3526 O 349.84 0.539598 -1.73084 0
M  V30 3527 C 349.888 -2.95358 -2.06872 0
M  V30 3528 O 348.992 -2.66556 -3.14677 0
M  V30 3529 H 348.333 -0.584614 -0.314838 0
M  V30 3530 H 350.863 -2.01146 -0.374348 0
M  V30 3531 H 350.873 -3.22566 -2.4983 0
M  V30 3532 H 349.548 -3.86385 -1.5388 0
M  V30 3533 H 348.125 -2.50282 -2.7643 0
M  V30 3534 N 350.31 0.590341 -1.46126 0
M  V30 3535 C 351.721 1.17243 -1.45296 0
M  V30 3536 C 352.072 1.95281 -0.189723 0
M  V30 3537 O 351.197 2.04502 0.707674 0
M  V30 3538 C 351.792 2.13284 -2.6324 0
M  V30 3539 C 350.351 2.66832 -2.65476 0
M  V30 3540 C 349.498 1.42557 -2.3785 0
M  V30 3541 H 352.449 0.378692 -1.54116 0
M  V30 3542 H 352.47 2.96619 -2.38323 0
M  V30 3543 H 351.982 1.56459 -3.55165 0
M  V30 3544 H 350.083 3.27548 -1.77603 0
M  V30 3545 H 350.196 3.10088 -3.65215 0
M  V30 3546 H 348.56 1.72107 -1.87753 0
M  V30 3547 H 349.343 0.875741 -3.31942 0
M  V30 3548 N 351.788 1.33704 0.83433 0
M  V30 3549 C 353.034 1.25603 1.59222 0
M  V30 3550 C 353.367 -0.176659 1.93395 0
M  V30 3551 O 352.642 -1.11915 1.59076 0
M  V30 3552 C 352.925 2.13576 2.89926 0
M  V30 3553 C 352.778 3.65326 2.62406 0
M  V30 3554 C 354.097 2.01238 3.91397 0
M  V30 3555 H 351.216 0.457613 0.577719 0
M  V30 3556 H 353.858 1.63848 0.961972 0
M  V30 3557 H 352.008 1.8109 3.43713 0
M  V30 3558 H 353.68 4.08124 2.15017 0
M  V30 3559 H 351.923 3.8698 1.96033 0
M  V30 3560 H 352.594 4.22232 3.55562 0
M  V30 3561 H 355.07 2.29738 3.46929 0
M  V30 3562 H 353.946 2.65036 4.80673 0
M  V30 3563 H 354.207 0.985951 4.30966 0
M  V30 3564 N 353.266 -1.05314 1.17247 0
M  V30 3565 C 354.196 -2.1498 0.911362 0
M  V30 3566 C 355.177 -1.69471 -0.146169 0
M  V30 3567 O 356.362 -1.942 0.003812 0
M  V30 3568 C 353.492 -3.4472 0.422528 0
M  V30 3569 C 352.446 -4.03789 1.4191 0
M  V30 3570 C 351.772 -5.28858 0.788274 0
M  V30 3571 C 353.072 -4.41418 2.7919 0
M  V30 3572 H 354.766 -2.3708 1.82848 0
M  V30 3573 H 352.312 -1.13938 0.880569 0
M  V30 3574 H 354.265 -4.20787 0.227289 0
M  V30 3575 H 352.989 -3.22269 -0.530123 0
M  V30 3576 H 351.648 -3.2979 1.60106 0
M  V30 3577 H 351.296 -5.02709 -0.171173 0
M  V30 3578 H 350.996 -5.69338 1.45353 0
M  V30 3579 H 352.52 -6.07612 0.603282 0
M  V30 3580 H 353.934 -5.08524 2.64719 0
M  V30 3581 H 352.331 -4.92913 3.42282 0
M  V30 3582 H 353.401 -3.51819 3.33693 0
M  V30 3583 N 354.744 -0.972509 -1.24016 0
M  V30 3584 C 355.676 -0.464375 -2.24446 0
M  V30 3585 C 356.689 0.4295 -1.57032 0
M  V30 3586 O 357.878 0.234902 -1.76948 0
M  V30 3587 C 354.978 0.348385 -3.37105 0
M  V30 3588 C 354.151 -0.53673 -4.34094 0
M  V30 3589 C 353.21 0.220838 -5.25736 0
M  V30 3590 O 352.236 -0.386867 -5.67884 0
M  V30 3591 N 353.438 1.50907 -5.60542 0
M  V30 3592 H 356.203 -1.32788 -2.68677 0
M  V30 3593 H 353.764 -0.844877 -1.38107 0
M  V30 3594 H 355.756 0.863341 -3.95384 0
M  V30 3595 H 354.326 1.11285 -2.92121 0
M  V30 3596 H 353.546 -1.23261 -3.74433 0
M  V30 3597 H 354.834 -1.14022 -4.95859 0
M  V30 3598 H 354.232 2.02444 -5.28236 0
M  V30 3599 H 352.789 1.96962 -6.21329 0
M  V30 3600 N 356.222 1.38976 -0.743202 0
M  V30 3601 C 357.132 2.3434 -0.110399 0
M  V30 3602 C 358.148 1.58741 0.712559 0
M  V30 3603 O 359.324 1.9099 0.639125 0
M  V30 3604 C 356.389 3.37812 0.780012 0
M  V30 3605 C 355.45 4.29263 -0.0561319 0
M  V30 3606 C 354.683 5.27793 0.791875 0
M  V30 3607 O 354.906 5.33043 2.03031 0
M  V30 3608 O 353.84 6.01512 0.216183 0
M  V30 3609 H 357.666 2.90129 -0.897714 0
M  V30 3610 H 355.251 1.40643 -0.503966 0
M  V30 3611 H 357.133 4.01194 1.28923 0
M  V30 3612 H 355.808 2.84395 1.546 0
M  V30 3613 H 354.715 3.69076 -0.611056 0
M  V30 3614 H 356.048 4.85907 -0.784531 0
M  V30 3615 N 357.7 0.491464 1.49741 0
M  V30 3616 C 358.946 -0.0485431 2.03342 0
M  V30 3617 C 359.301 -1.35566 1.36527 0
M  V30 3618 O 358.594 -1.85262 0.488729 0
M  V30 3619 C 358.788 -0.267329 3.56399 0
M  V30 3620 C 358.617 1.01703 4.38049 0
M  V30 3621 C 357.387 1.56614 4.80417 0
M  V30 3622 C 359.585 1.91782 4.77204 0
M  V30 3623 N 357.567 2.7974 5.4646 0
M  V30 3624 C 358.938 2.99489 5.42868 0
M  V30 3625 C 360.993 1.92575 4.5915 0
M  V30 3626 C 359.696 4.08005 5.92389 0
M  V30 3627 C 361.722 3.0006 5.09626 0
M  V30 3628 C 361.084 4.06485 5.75282 0
M  V30 3629 H 357.183 0.0227779 0.781668 0
M  V30 3630 H 359.767 0.664204 1.8302 0
M  V30 3631 H 357.938 -0.949126 3.76625 0
M  V30 3632 H 359.67 -0.803492 3.96644 0
M  V30 3633 H 356.425 1.11256 4.60347 0
M  V30 3634 H 356.849 3.42323 5.84075 0
M  V30 3635 H 361.491 1.11605 4.07804 0
M  V30 3636 H 359.209 4.89779 6.42761 0
M  V30 3637 H 362.795 3.01681 4.97473 0
M  V30 3638 H 361.675 4.88287 6.13633 0
M  V30 3639 N 359.178 -1.55987 0.224894 0
M  V30 3640 C 360.424 -1.98684 -0.406502 0
M  V30 3641 C 360.757 -1.11248 -1.59177 0
M  V30 3642 O 360.032 -0.170909 -1.93748 0
M  V30 3643 C 360.315 -3.50218 -0.837808 0
M  V30 3644 C 360.168 -4.48426 0.351332 0
M  V30 3645 C 361.487 -4.06243 -1.69278 0
M  V30 3646 H 358.606 -0.722337 -0.146283 0
M  V30 3647 H 361.248 -1.87255 0.321799 0
M  V30 3648 H 359.398 -3.60089 -1.45837 0
M  V30 3649 H 361.07 -4.50562 0.989526 0
M  V30 3650 H 359.313 -4.22159 0.998207 0
M  V30 3651 H 359.984 -5.52 0.00655905 0
M  V30 3652 H 362.46 -3.99337 -1.16914 0
M  V30 3653 H 361.336 -5.12581 -1.96346 0
M  V30 3654 H 361.597 -3.53332 -2.65723 0
M  V30 3655 N 360.656 0.0484629 -1.57525 0
M  V30 3656 C 361.884 0.755421 -1.92616 0
M  V30 3657 C 362.299 1.69919 -0.822984 0
M  V30 3658 O 361.656 1.81378 0.202085 0
M  V30 3659 C 361.707 1.52915 -3.27566 0
M  V30 3660 O 361.428 0.62329 -4.33644 0
M  V30 3661 C 362.929 2.33502 -3.76818 0
M  V30 3662 H 360.149 0.213465 -0.63614 0
M  V30 3663 H 362.693 0.0117698 -2.04497 0
M  V30 3664 H 360.848 2.22486 -3.17142 0
M  V30 3665 H 361.262 1.16383 -5.11425 0
M  V30 3666 H 362.736 2.83214 -4.73808 0
M  V30 3667 H 363.213 3.14068 -3.07014 0
M  V30 3668 H 363.819 1.69043 -3.90262 0
M  V30 3669 N 362.134 1.5431 0.320358 0
M  V30 3670 C 363.097 1.83195 1.3774 0
M  V30 3671 C 364.097 0.703906 1.44575 0
M  V30 3672 O 365.287 0.972214 1.44546 0
M  V30 3673 C 362.419 1.99487 2.76438 0
M  V30 3674 H 363.612 2.77642 1.1338 0
M  V30 3675 H 361.165 1.46076 0.556012 0
M  V30 3676 H 361.9 1.07262 3.06048 0
M  V30 3677 H 361.685 2.81575 2.7287 0
M  V30 3678 H 363.175 2.23271 3.52902 0
M  V30 3679 N 363.613 -0.582584 1.46437 0
M  V30 3680 C 364.841 -1.36682 1.55324 0
M  V30 3681 C 365.256 -1.87796 0.194409 0
M  V30 3682 O 364.613 -1.63623 -0.808318 0
M  V30 3683 C 364.664 -2.55426 2.55812 0
M  V30 3684 O 364.385 -2.0643 3.86417 0
M  V30 3685 C 365.886 -3.47976 2.74641 0
M  V30 3686 H 363.106 -0.417545 0.525259 0
M  V30 3687 H 365.65 -0.708219 1.91845 0
M  V30 3688 H 363.805 -3.17275 2.22295 0
M  V30 3689 H 364.219 -2.83762 4.41111 0
M  V30 3690 H 365.693 -4.27775 3.48874 0
M  V30 3691 H 366.17 -3.99919 1.81553 0
M  V30 3692 H 366.776 -2.91962 3.09255 0
M  V30 3693 N 365.091 -1.34144 -0.827227 0
M  V30 3694 C 366.368 -1.16844 -1.56865 0
M  V30 3695 C 366.748 0.260654 -2.09485 0
M  V30 3696 O 366.096 1.26138 -1.9053 0
M  V30 3697 C 366.306 -2.21939 -2.6934 0
M  V30 3698 C 367.654 -2.56695 -3.3822 0
M  V30 3699 O 368.678 -2.20695 -2.79593 0
M  V30 3700 O 367.537 -3.18518 -4.44082 0
M  V30 3701 H 364.631 -0.452669 -0.692112 0
M  V30 3702 H 367.177 -1.45763 -0.868973 0
M  V30 3703 H 365.949 -3.17882 -2.28182 0
M  V30 3704 H 365.572 -1.94172 -3.46962 0
M  V30 3705 N 366.569 1.04691 -1.17803 0
M  V30 3706 C 367.818 1.77176 -0.963931 0
M  V30 3707 C 368.131 1.88888 0.508015 0
M  V30 3708 O 369.337 2.58164 0.840465 0
M  V30 3709 C 367.793 3.18518 -1.67555 0
M  V30 3710 C 367.401 3.14919 -3.18637 0
M  V30 3711 C 369.145 3.95424 -1.54402 0
M  V30 3712 C 367.052 4.51081 -3.82466 0
M  V30 3713 H 365.982 0.664116 -0.357023 0
M  V30 3714 H 368.633 1.17303 -1.4111 0
M  V30 3715 H 367.015 3.78748 -1.15613 0
M  V30 3716 H 368.189 2.64178 -3.77554 0
M  V30 3717 H 366.504 2.51512 -3.31859 0
M  V30 3718 H 369.101 4.96106 -1.99456 0
M  V30 3719 H 369.444 4.13343 -0.495329 0
M  V30 3720 H 369.977 3.41754 -2.0359 0
M  V30 3721 H 366.716 4.38368 -4.87354 0
M  V30 3722 H 366.236 5.01951 -3.28337 0
M  V30 3723 H 367.915 5.2001 -3.84965 0
M  V30 3724 N 368.047 0.979072 1.23499 0
M  V30 3725 C 369.463 0.687475 1.44034 0
M  V30 3726 C 369.663 -0.746801 1.8715 0
M  V30 3727 O 368.719 -1.51939 2.0167 0
M  V30 3728 C 370.032 1.68127 2.49307 0
M  V30 3729 C 371.58 1.69516 2.63122 0
M  V30 3730 C 372.055 2.67723 3.71603 0
M  V30 3731 N 373.546 2.66233 3.79044 0
M  V30 3732 C 374.281 3.38891 4.62537 0
M  V30 3733 N 373.777 4.21103 5.50131 0
M  V30 3734 N 375.57 3.27661 4.56721 0
M  V30 3735 H 367.721 1.90559 0.938135 0
M  V30 3736 H 369.984 0.821051 0.473897 0
M  V30 3737 H 369.69 2.70693 2.2454 0
M  V30 3738 H 369.564 1.46306 3.4767 0
M  V30 3739 H 371.951 0.676561 2.8724 0
M  V30 3740 H 372.032 1.95404 1.65079 0
M  V30 3741 H 371.676 3.69724 3.48233 0
M  V30 3742 H 371.606 2.39111 4.69184 0
M  V30 3743 H 374.097 2.06568 3.16446 0
M  V30 3744 H 374.41 4.73403 6.10827 0
M  V30 3745 H 372.755 4.25195 5.49759 0
M  V30 3746 H 375.946 2.62887 3.87309 0
M  V30 3747 H 376.119 3.84547 5.21562 0
M  V30 3748 N 369.525 -1.3858 0.750561 0
M  V30 3749 C 370.771 -2.00481 0.305825 0
M  V30 3750 C 371.104 -1.5944 -1.10872 0
M  V30 3751 O 370.379 -0.83052 -1.75877 0
M  V30 3752 C 370.662 -3.5758 0.425287 0
M  V30 3753 C 370.515 -4.08594 1.88072 0
M  V30 3754 C 371.834 -4.39719 -0.183122 0
M  V30 3755 H 368.953 -0.728348 0.112598 0
M  V30 3756 H 371.595 -1.64566 0.949638 0
M  V30 3757 H 369.745 -3.88306 -0.122828 0
M  V30 3758 H 371.417 -3.88523 2.48691 0
M  V30 3759 H 369.66 -3.61574 2.39681 0
M  V30 3760 H 370.331 -5.177 1.91548 0
M  V30 3761 H 372.807 -4.15128 0.284303 0
M  V30 3762 H 371.683 -5.48856 -0.0692757 0
M  V30 3763 H 371.944 -4.23434 -1.27106 0
M  V30 3764 N 371.003 -0.499398 -1.49478 0
M  V30 3765 C 372.231 0.0425456 -2.06856 0
M  V30 3766 C 372.646 1.30964 -1.35992 0
M  V30 3767 O 372.003 1.77172 -0.437762 0
M  V30 3768 C 372.054 0.301735 -3.60239 0
M  V30 3769 O 371.775 -0.915127 -4.28436 0
M  V30 3770 C 373.276 0.887499 -4.34325 0
M  V30 3771 H 370.496 -0.0197482 -0.670709 0
M  V30 3772 H 373.04 -0.696297 -1.92281 0
M  V30 3773 H 371.195 0.990556 -3.74522 0
M  V30 3774 H 371.609 -0.676993 -5.20113 0
M  V30 3775 H 373.083 1.01845 -5.42523 0
M  V30 3776 H 373.56 1.88488 -3.96698 0
M  V30 3777 H 374.166 0.236196 -4.24644 0
M  V30 3778 N 372.481 1.55866 -0.233164 0
M  V30 3779 C 373.411 2.23783 0.666599 0
M  V30 3780 C 374.392 1.21343 1.19205 0
M  V30 3781 O 375.577 1.4996 1.23392 0
M  V30 3782 C 372.707 2.92671 1.86978 0
M  V30 3783 C 371.661 4.01682 1.47768 0
M  V30 3784 C 370.987 4.57926 2.76058 0
M  V30 3785 C 372.287 5.18126 0.658993 0
M  V30 3786 H 373.981 2.99232 0.100306 0
M  V30 3787 H 371.527 1.43924 0.046804 0
M  V30 3788 H 373.48 3.3888 2.50476 0
M  V30 3789 H 372.204 2.14688 2.46123 0
M  V30 3790 H 370.863 3.56222 0.866106 0
M  V30 3791 H 370.511 3.76659 3.33372 0
M  V30 3792 H 370.211 5.31505 2.50552 0
M  V30 3793 H 371.735 5.06859 3.40479 0
M  V30 3794 H 373.149 5.60644 1.19795 0
M  V30 3795 H 371.546 5.98009 0.500552 0
M  V30 3796 H 372.616 4.83763 -0.331856 0
M  V30 3797 N 373.959 -0.0401083 1.57549 0
M  V30 3798 C 374.907 -1.06264 2.06908 0
M  V30 3799 C 375.901 -1.38132 0.980608 0
M  V30 3800 O 377.107 -1.37167 1.16556 0
M  V30 3801 H 373.482 -0.360166 0.660139 0
M  V30 3802 H 375.453 -0.620445 2.91878 0
M  V30 3803 C 374.202 -2.35846 2.55483 0
M  V30 3804 H 373.525 -2.12183 3.38849 0
M  V30 3805 H 374.965 -3.05765 2.93741 0
M  V30 3806 C 373.424 -3.0404 1.45126 0
M  V30 3807 O 373.954 -3.93424 0.811216 0
M  V30 3808 N 372.16 -2.65184 1.18852 0
M  V30 3809 H 371.707 -1.92584 1.71083 0
M  V30 3810 H 371.665 -3.1113 0.452244 0
M  V30 3811 N 375.437 -1.54477 -0.31217 0
M  V30 3812 C 376.853 -1.45442 -0.657185 0
M  V30 3813 C 377.053 -0.63653 -1.91182 0
M  V30 3814 O 376.109 -0.139815 -2.52113 0
M  V30 3815 C 377.422 -2.89287 -0.82058 0
M  V30 3816 C 378.97 -2.9926 -0.917188 0
M  V30 3817 C 379.445 -4.44279 -1.11267 0
M  V30 3818 N 380.936 -4.4794 -1.17914 0
M  V30 3819 C 381.671 -5.57318 -1.34848 0
M  V30 3820 N 381.167 -6.76642 -1.48752 0
M  V30 3821 N 382.96 -5.44986 -1.37647 0
M  V30 3822 H 375.111 -2.06129 0.512313 0
M  V30 3823 H 377.374 -0.933088 0.167485 0
M  V30 3824 H 377.08 -3.51687 0.0302604 0
M  V30 3825 H 376.954 -3.36061 -1.71298 0
M  V30 3826 H 379.341 -2.36981 -1.75852 0
M  V30 3827 H 379.422 -2.558 -0.00101257 0
M  V30 3828 H 379.066 -5.07149 -0.27614 0
M  V30 3829 H 378.996 -4.85359 -2.04289 0
M  V30 3830 H 381.487 -3.61969 -1.08567 0
M  V30 3831 H 381.8 -7.55758 -1.61397 0
M  V30 3832 H 380.145 -6.79529 -1.45828 0
M  V30 3833 H 383.336 -4.50715 -1.26388 0
M  V30 3834 H 383.509 -6.3028 -1.50501 0
M  V30 3835 N 376.915 0.57481 -1.46744 0
M  V30 3836 C 377.845 1.69337 -1.60771 0
M  V30 3837 C 378.826 1.63825 -0.457736 0
M  V30 3838 O 380.011 1.8172 -0.684947 0
M  V30 3839 C 377.141 3.0798 -1.60517 0
M  V30 3840 C 376.095 3.28327 -2.74564 0
M  V30 3841 C 375.421 4.67578 -2.59373 0
M  V30 3842 C 376.721 3.15398 -4.16319 0
M  V30 3843 H 378.415 1.57853 -2.54407 0
M  V30 3844 H 375.961 0.75799 -1.22436 0
M  V30 3845 H 377.914 3.86061 -1.68923 0
M  V30 3846 H 376.638 3.20381 -0.634305 0
M  V30 3847 H 375.297 2.52649 -2.65639 0
M  V30 3848 H 374.945 4.76755 -1.60353 0
M  V30 3849 H 374.645 4.82144 -3.35873 0
M  V30 3850 H 376.169 5.47817 -2.69682 0
M  V30 3851 H 377.583 3.83315 -4.26313 0
M  V30 3852 H 375.98 3.41482 -4.93468 0
M  V30 3853 H 377.05 2.12372 -4.3592 0
M  V30 3854 N 378.394 1.34581 0.820102 0
M  V30 3855 C 379.342 1.26401 1.95258 0
M  V30 3856 C 380.336 0.161553 1.68628 0
M  V30 3857 O 381.542 0.326703 1.7701 0
M  V30 3858 H 377.917 0.392749 0.64129 0
M  V30 3859 H 379.888 2.22105 1.99279 0
M  V30 3860 C 378.637 1.03919 3.31807 0
M  V30 3861 H 377.96 1.87984 3.52848 0
M  V30 3862 H 379.4 1.02232 4.11491 0
M  V30 3863 C 377.859 -0.257433 3.35915 0
M  V30 3864 O 378.389 -1.25784 3.81499 0
M  V30 3865 N 376.595 -0.291524 2.89134 0
M  V30 3866 H 376.142 0.523161 2.52232 0
M  V30 3867 H 376.1 -1.15883 2.92264 0
M  V30 3868 N 379.872 -1.04064 1.18357 0
M  V30 3869 C 381.1 -1.80916 1.00384 0
M  V30 3870 C 381.515 -1.83414 -0.447738 0
M  V30 3871 O 380.872 -1.26962 -1.31099 0
M  V30 3872 C 380.923 -3.26516 1.55144 0
M  V30 3873 O 380.644 -3.2424 2.94618 0
M  V30 3874 C 382.145 -4.20013 1.41789 0
M  V30 3875 H 379.365 -0.569728 0.354474 0
M  V30 3876 H 381.909 -1.31151 1.56906 0
M  V30 3877 H 380.064 -3.73512 1.02798 0
M  V30 3878 H 380.478 -4.15452 3.20156 0
M  V30 3879 H 381.952 -5.20111 1.84901 0
M  V30 3880 H 382.429 -4.37667 0.36661 0
M  V30 3881 H 383.035 -3.78881 1.93207 0
M  V30 3882 N 381.35 -0.985608 -1.22978 0
M  V30 3883 C 382.597 -0.657386 -1.91532 0
M  V30 3884 C 382.925 0.809707 -1.76845 0
M  V30 3885 O 382.18 1.60021 -1.12658 0
M  V30 3886 C 382.479 -1.00014 -3.43121 0
M  V30 3887 C 382.145 -2.4583 -3.77993 0
M  V30 3888 C 380.807 -2.85679 -3.87222 0
M  V30 3889 C 383.159 -3.40378 -3.94705 0
M  V30 3890 C 380.487 -4.19081 -4.10595 0
M  V30 3891 C 382.839 -4.73429 -4.1958 0
M  V30 3892 C 381.503 -5.1303 -4.27032 0
M  V30 3893 H 380.773 -0.240555 -0.700867 0
M  V30 3894 H 383.42 -1.24044 -1.45895 0
M  V30 3895 H 381.725 -0.335072 -3.90365 0
M  V30 3896 H 383.422 -0.724322 -3.94404 0
M  V30 3897 H 380.012 -2.13939 -3.71387 0
M  V30 3898 H 384.196 -3.10766 -3.8696 0
M  V30 3899 H 379.452 -4.49362 -4.14589 0
M  V30 3900 H 383.626 -5.46644 -4.31455 0
M  V30 3901 H 381.253 -6.16418 -4.44896 0
M  V30 3902 N 382.828 1.3818 -0.7579 0
M  V30 3903 C 384.076 1.99624 -0.315361 0
M  V30 3904 C 384.397 1.60464 1.10799 0
M  V30 3905 O 383.667 0.863507 1.75842 0
M  V30 3906 H 382.247 0.73831 -0.113611 0
M  V30 3907 H 384.909 1.68878 -0.972952 0
M  V30 3908 H 384.005 3.09754 -0.381931 0
M  V30 3909 N 384.306 0.507319 1.49211 0
M  V30 3910 C 385.583 -0.0982702 1.95353 0
M  V30 3911 C 385.963 -1.53516 1.449 0
M  V30 3912 O 385.311 -2.18594 0.66551 0
M  V30 3913 C 385.521 -0.00440283 3.49 0
M  V30 3914 C 386.869 -0.175147 4.24239 0
M  V30 3915 O 387.893 -0.0792891 3.56112 0
M  V30 3916 O 386.752 -0.37276 5.45227 0
M  V30 3917 H 383.846 -0.0918236 0.821887 0
M  V30 3918 H 386.392 0.570307 1.5983 0
M  V30 3919 H 385.164 0.997402 3.78375 0
M  V30 3920 H 384.787 -0.712845 3.91158 0
M  V30 3921 N 385.784 -1.5574 0.241426 0
M  V30 3922 C 386.694 -2.2479 -0.671305 0
M  V30 3923 C 387.71 -1.26217 -1.19772 0
M  V30 3924 O 388.886 -1.59079 -1.23514 0
M  V30 3925 C 385.951 -2.92966 -1.85396 0
M  V30 3926 C 385.012 -4.06935 -1.36756 0
M  V30 3927 C 384.245 -4.71851 -2.49384 0
M  V30 3928 O 384.468 -4.35823 -3.67987 0
M  V30 3929 O 383.402 -5.60467 -2.19454 0
M  V30 3930 H 387.228 -3.0349 -0.112966 0
M  V30 3931 H 384.813 -1.49397 0.0101513 0
M  V30 3932 H 386.695 -3.35927 -2.54423 0
M  V30 3933 H 385.37 -2.17211 -2.40002 0
M  V30 3934 H 384.277 -3.68503 -0.644726 0
M  V30 3935 H 385.61 -4.84492 -0.867647 0
M  V30 3936 N 387.262 0.0317525 -1.57568 0
M  V30 3937 C 388.508 0.724175 -1.8943 0
M  V30 3938 C 388.841 1.75149 -0.838836 0
M  V30 3939 O 388.116 1.93948 0.146422 0
M  V30 3940 C 388.399 1.39615 -3.31933 0
M  V30 3941 C 388.252 0.382537 -4.4817 0
M  V30 3942 C 389.571 2.33084 -3.73309 0
M  V30 3943 H 386.69 0.261797 -0.688935 0
M  V30 3944 H 389.332 -0.013017 -1.89996 0
M  V30 3945 H 387.482 2.02451 -3.31581 0
M  V30 3946 H 389.154 -0.243689 -4.60656 0
M  V30 3947 H 387.397 -0.29844 -4.32772 0
M  V30 3948 H 388.068 0.891145 -5.44759 0
M  V30 3949 H 390.544 1.80295 -3.7501 0
M  V30 3950 H 389.42 2.77084 -4.73831 0
M  V30 3951 H 389.681 3.19643 -3.05419 0
M  V30 3952 N 388.74 1.54641 0.303973 0
M  V30 3953 C 389.987 1.7378 1.03955 0
M  V30 3954 C 390.315 0.521986 1.87365 0
M  V30 3955 O 389.57 -0.496099 1.89308 0
M  V30 3956 C 389.869 2.97753 1.97681 0
M  V30 3957 C 389.535 4.31671 1.30271 0
M  V30 3958 C 388.197 4.68075 1.11619 0
M  V30 3959 C 390.549 5.147 0.82055 0
M  V30 3960 C 387.877 5.8509 0.434304 0
M  V30 3961 C 390.229 6.32416 0.152395 0
M  V30 3962 C 388.893 6.67484 -0.0461067 0
M  V30 3963 H 388.163 0.635908 0.380398 0
M  V30 3964 H 390.81 1.88896 0.314718 0
M  V30 3965 H 389.115 2.77406 2.76682 0
M  V30 3966 H 390.812 3.09756 2.54661 0
M  V30 3967 H 387.402 4.03041 1.45795 0
M  V30 3968 H 391.586 4.87077 0.952374 0
M  V30 3969 H 386.842 6.10806 0.269495 0
M  V30 3970 H 391.016 6.96023 -0.229126 0
M  V30 3971 H 388.643 7.58011 -0.576494 0
M  V30 3972 N 390.218 -0.567019 1.47046 0
M  V30 3973 C 391.166 -1.69593 1.59188 0
M  V30 3974 C 392.16 -1.63046 0.459609 0
M  V30 3975 O 393.366 -1.6835 0.637058 0
M  V30 3976 H 389.741 -0.560993 0.500791 0
M  V30 3977 H 391.712 -1.56488 2.54075 0
M  V30 3978 C 390.461 -3.07964 1.61411 0
M  V30 3979 H 389.784 -3.13679 2.47881 0
M  V30 3980 H 391.224 -3.86671 1.73958 0
M  V30 3981 C 389.683 -3.35123 0.34559 0
M  V30 3982 O 390.213 -3.97812 -0.557521 0
M  V30 3983 N 388.419 -2.89699 0.22864 0
M  V30 3984 H 387.966 -2.38863 0.964479 0
M  V30 3985 H 387.924 -3.08242 -0.619192 0
M  V30 3986 N 391.696 -1.35014 -0.812953 0
M  V30 3987 C 392.973 -1.18502 -1.55617 0
M  V30 3988 C 393.353 0.238421 -2.09749 0
M  V30 3989 O 392.701 1.2411 -1.91857 0
M  V30 3990 C 392.911 -2.24783 -2.66971 0
M  V30 3991 C 394.259 -2.60268 -3.35478 0
M  V30 3992 O 395.283 -2.23648 -2.77236 0
M  V30 3993 O 394.142 -3.2321 -4.40678 0
M  V30 3994 H 391.236 -0.459984 -0.687272 0
M  V30 3995 H 393.782 -1.46677 -0.853464 0
M  V30 3996 H 392.554 -3.20284 -2.24798 0
M  V30 3997 H 392.177 -1.97841 -3.44884 0
M  V30 3998 N 393.175 1.03435 -1.18907 0
M  V30 3999 C 394.586 1.58195 -0.991523 0
M  V30 4000 C 394.937 1.90801 0.457081 0
M  V30 4001 O 394.062 1.70272 1.33553 0
M  V30 4002 C 394.657 2.87432 -1.79355 0
M  V30 4003 C 393.216 3.38785 -1.64017 0
M  V30 4004 C 392.363 2.12292 -1.78402 0
M  V30 4005 H 395.314 0.860299 -1.33359 0
M  V30 4006 H 395.335 3.58096 -1.28638 0
M  V30 4007 H 394.847 2.63669 -2.84781 0
M  V30 4008 H 392.948 3.67547 -0.611536 0
M  V30 4009 H 393.061 4.12186 -2.44212 0
M  V30 4010 H 391.425 2.23901 -1.2141 0
M  V30 4011 H 392.208 1.90977 -2.85277 0
M  V30 4012 N 394.653 0.992116 1.22453 0
M  V30 4013 C 395.6 0.541731 2.24352 0
M  V30 4014 C 396.57 -0.425519 1.60557 0
M  V30 4015 O 397.755 -0.330453 1.87917 0
M  V30 4016 C 394.895 -0.138248 3.44823 0
M  V30 4017 C 394.008 0.870649 4.23136 0
M  V30 4018 C 393.143 0.164269 5.30946 0
M  V30 4019 C 392.182 1.16159 6.00977 0
M  V30 4020 N 391.319 0.483568 7.00433 0
M  V30 4021 H 396.159 1.41541 2.62241 0
M  V30 4022 H 393.696 0.709013 1.28885 0
M  V30 4023 H 395.654 -0.5494 4.13567 0
M  V30 4024 H 394.284 -0.975721 3.077 0
M  V30 4025 H 393.336 1.40013 3.53696 0
M  V30 4026 H 394.648 1.63014 4.7141 0
M  V30 4027 H 393.802 -0.303653 6.0594 0
M  V30 4028 H 392.541 -0.627733 4.83643 0
M  V30 4029 H 391.546 1.64015 5.24766 0
M  V30 4030 H 392.771 1.95445 6.50368 0
M  V30 4031 H 390.717 -0.289012 6.55363 0
M  V30 4032 H 390.634 1.18152 7.4671 0
M  V30 4033 H 391.902 0.0384219 7.79491 0
M  V30 4034 N 396.131 -1.37776 0.765217 0
M  V30 4035 C 397.377 -2.00145 0.327072 0
M  V30 4036 C 397.71 -1.60607 -1.09175 0
M  V30 4037 O 396.985 -0.849127 -1.74986 0
M  V30 4038 C 397.268 -3.57109 0.46319 0
M  V30 4039 C 397.121 -4.06576 1.92395 0
M  V30 4040 C 398.44 -4.39888 -0.136473 0
M  V30 4041 H 395.559 -0.727113 0.120316 0
M  V30 4042 H 398.201 -1.63549 0.967039 0
M  V30 4043 H 396.351 -3.88414 -0.0816358 0
M  V30 4044 H 398.023 -3.85864 2.52798 0
M  V30 4045 H 396.266 -3.59011 2.43503 0
M  V30 4046 H 396.937 -5.15639 1.97028 0
M  V30 4047 H 399.413 -4.14803 0.328317 0
M  V30 4048 H 398.289 -5.48899 -0.0110582 0
M  V30 4049 H 398.55 -4.24758 -1.22608 0
M  V30 4050 N 397.609 -0.515225 -1.4894 0
M  V30 4051 C 398.539 0.244628 -2.32215 0
M  V30 4052 C 399.52 0.949136 -1.41157 0
M  V30 4053 O 400.705 0.937783 -1.70057 0
M  V30 4054 C 397.835 1.30096 -3.22013 0
M  V30 4055 C 396.789 0.715486 -4.21977 0
M  V30 4056 C 396.115 1.87339 -5.00808 0
M  V30 4057 C 397.415 -0.302982 -5.2142 0
M  V30 4058 H 399.109 -0.450501 -2.95991 0
M  V30 4059 H 396.655 -0.218098 -1.42339 0
M  V30 4060 H 398.608 1.84037 -3.79089 0
M  V30 4061 H 397.332 2.02547 -2.56207 0
M  V30 4062 H 395.991 0.197715 -3.66066 0
M  V30 4063 H 395.639 2.58592 -4.31438 0
M  V30 4064 H 395.339 1.48764 -5.68457 0
M  V30 4065 H 396.863 2.41686 -5.60732 0
M  V30 4066 H 398.277 0.148802 -5.73107 0
M  V30 4067 H 396.674 -0.60532 -5.97039 0
M  V30 4068 H 397.744 -1.21395 -4.69459 0
M  V30 4069 N 399.087 1.5561 -0.249682 0
M  V30 4070 C 400.034 2.21496 0.648694 0
M  V30 4071 C 401.004 1.17977 1.16921 0
M  V30 4072 O 402.189 1.46434 1.22318 0
M  V30 4073 C 399.329 2.92039 1.83868 0
M  V30 4074 C 398.442 4.10219 1.35442 0
M  V30 4075 C 397.577 4.6847 2.50419 0
M  V30 4076 C 396.616 5.78893 1.98869 0
M  V30 4077 N 395.753 6.31315 3.07223 0
M  V30 4078 H 400.593 2.97892 0.0801582 0
M  V30 4079 H 398.13 1.47074 0.0278031 0
M  V30 4080 H 400.088 3.31138 2.53778 0
M  V30 4081 H 398.718 2.18111 2.37965 0
M  V30 4082 H 397.77 3.76413 0.54928 0
M  V30 4083 H 399.082 4.89927 0.936649 0
M  V30 4084 H 398.236 5.10158 3.28366 0
M  V30 4085 H 396.975 3.87984 2.95499 0
M  V30 4086 H 395.98 5.3668 1.19393 0
M  V30 4087 H 397.205 6.61232 1.54755 0
M  V30 4088 H 395.151 5.53733 3.51732 0
M  V30 4089 H 395.068 7.06224 2.69784 0
M  V30 4090 H 396.336 6.77662 3.8522 0
M  V30 4091 N 400.565 -0.0233959 1.57583 0
M  V30 4092 C 401.79 -0.728376 1.94189 0
M  V30 4093 C 402.215 -1.67793 0.850119 0
M  V30 4094 O 401.573 -1.80262 -0.19371 0
M  V30 4095 C 401.621 -1.45669 3.29868 0
M  V30 4096 O 400.725 -2.57013 3.22518 0
M  V30 4097 H 400.066 -0.195493 0.63457 0
M  V30 4098 H 402.596 0.0228214 2.04587 0
M  V30 4099 H 402.606 -1.82535 3.6489 0
M  V30 4100 H 401.281 -0.760314 4.08891 0
M  V30 4101 H 399.858 -2.22648 2.99136 0
M  V30 4102 N 402.043 -1.548 -0.295768 0
M  V30 4103 C 403.273 -1.78069 -1.04762 0
M  V30 4104 C 403.681 -0.542847 -1.81245 0
M  V30 4105 O 403.024 0.497051 -1.76848 0
M  V30 4106 C 403.086 -2.93881 -2.07061 0
M  V30 4107 C 402.75 -4.31777 -1.49725 0
M  V30 4108 C 403.747 -5.11613 -0.924581 0
M  V30 4109 C 401.432 -4.78389 -1.5313 0
M  V30 4110 C 403.426 -6.36184 -0.393594 0
M  V30 4111 C 401.113 -6.02921 -0.996447 0
M  V30 4112 C 402.111 -6.81654 -0.428569 0
M  V30 4113 O 401.799 -8.0384 0.0981593 0
M  V30 4114 H 401.531 -0.597475 -0.316226 0
M  V30 4115 H 404.085 -2.02584 -0.338973 0
M  V30 4116 H 402.315 -2.65003 -2.81621 0
M  V30 4117 H 404.004 -3.04679 -2.6819 0
M  V30 4118 H 404.77 -4.76743 -0.891136 0
M  V30 4119 H 400.649 -4.17132 -1.9627 0
M  V30 4120 H 404.193 -6.97582 0.0503014 0
M  V30 4121 H 400.09 -6.37277 -1.02706 0
M  V30 4122 H 400.858 -8.18499 -0.0146455 0
M  V30 4123 N 403.521 0.559213 -1.47345 0
M  V30 4124 C 404.751 1.33999 -1.57251 0
M  V30 4125 C 405.159 1.87905 -0.220978 0
M  V30 4126 O 404.502 1.65577 0.795617 0
M  V30 4127 C 404.564 2.54798 -2.53611 0
M  V30 4128 C 404.228 2.22192 -3.99349 0
M  V30 4129 C 405.225 1.79607 -4.87891 0
M  V30 4130 C 402.91 2.33613 -4.44669 0
M  V30 4131 C 404.904 1.48868 -6.19772 0
M  V30 4132 C 402.591 2.02487 -5.76578 0
M  V30 4133 C 403.589 1.60183 -6.63951 0
M  V30 4134 O 403.277 1.29451 -7.93409 0
M  V30 4135 H 403.009 0.414858 -0.533731 0
M  V30 4136 H 405.563 0.684465 -1.9366 0
M  V30 4137 H 403.793 3.23235 -2.12265 0
M  V30 4138 H 405.482 3.16873 -2.53666 0
M  V30 4139 H 406.248 1.70278 -4.54126 0
M  V30 4140 H 402.127 2.65501 -3.76869 0
M  V30 4141 H 405.671 1.15775 -6.87926 0
M  V30 4142 H 401.568 2.11448 -6.09885 0
M  V30 4143 H 402.336 1.43098 -8.05894 0
M  V30 4144 N 404.999 1.35443 0.805782 0
M  V30 4145 C 406.229 1.31687 1.59192 0
M  V30 4146 C 406.637 -0.10756 1.88894 0
M  V30 4147 O 405.98 -1.07017 1.49309 0
M  V30 4148 C 406.042 2.05686 2.94845 0
M  V30 4149 C 405.706 3.54868 2.87954 0
M  V30 4150 C 406.703 4.49444 2.61335 0
M  V30 4151 C 404.388 3.97528 3.07046 0
M  V30 4152 C 406.382 5.84655 2.53885 0
M  V30 4153 C 404.069 5.32833 2.99219 0
M  V30 4154 C 405.067 6.26209 2.72674 0
M  V30 4155 O 404.755 7.59032 2.64811 0
M  V30 4156 H 404.487 0.453878 0.50097 0
M  V30 4157 H 407.041 1.78892 1.0093 0
M  V30 4158 H 405.271 1.5312 3.55093 0
M  V30 4159 H 406.96 1.94998 3.55993 0
M  V30 4160 H 407.726 4.17804 2.46303 0
M  V30 4161 H 403.605 3.25233 3.26718 0
M  V30 4162 H 407.149 6.57508 2.33086 0
M  V30 4163 H 403.046 5.64087 3.13809 0
M  V30 4164 H 403.814 7.68967 2.80413 0
M  V30 4165 N 406.477 -1.02803 1.19454 0
M  V30 4166 C 407.44 -2.09264 0.934955 0
M  V30 4167 C 408.44 -1.60576 -0.0849015 0
M  V30 4168 O 409.63 -1.73554 0.149933 0
M  V30 4169 C 406.762 -3.38482 0.40531 0
M  V30 4170 H 407.955 -2.33726 1.87916 0
M  V30 4171 H 405.508 -1.19426 1.00832 0
M  V30 4172 H 406.243 -3.19689 -0.544899 0
M  V30 4173 H 406.028 -3.75142 1.14065 0
M  V30 4174 H 407.518 -4.16894 0.242806 0
M  V30 4175 N 407.956 -0.998596 -1.21925 0
M  V30 4176 C 409.205 -0.673085 -1.90138 0
M  V30 4177 C 409.518 0.79895 -1.78539 0
M  V30 4178 O 410.724 1.23628 -2.4172 0
M  V30 4179 C 409.18 -1.15339 -3.40918 0
M  V30 4180 C 408.788 -2.65106 -3.61141 0
M  V30 4181 C 410.532 -0.902476 -4.14796 0
M  V30 4182 C 408.439 -3.0671 -5.05651 0
M  V30 4183 H 407.369 -0.248057 -0.712028 0
M  V30 4184 H 410.02 -1.20891 -1.38049 0
M  V30 4185 H 408.402 -0.545658 -3.92223 0
M  V30 4186 H 409.576 -3.31274 -3.20304 0
M  V30 4187 H 407.891 -2.88142 -3.00605 0
M  V30 4188 H 410.488 -1.18895 -5.21314 0
M  V30 4189 H 410.831 0.161349 -4.15987 0
M  V30 4190 H 411.364 -1.47269 -3.69536 0
M  V30 4191 H 408.103 -4.12292 -5.09603 0
M  V30 4192 H 407.623 -2.45249 -5.47369 0
M  V30 4193 H 409.302 -2.9833 -5.74115 0
M  V30 4194 N 409.434 1.37368 -0.772513 0
M  V30 4195 C 410.659 2.0447 -0.347386 0
M  V30 4196 C 411.084 1.57882 1.0225 0
M  V30 4197 O 410.442 0.73941 1.65537 0
M  V30 4198 C 410.49 3.58369 -0.400479 0
M  V30 4199 O 409.594 4.0803 0.598789 0
M  V30 4200 H 408.935 0.646773 -0.15027 0
M  V30 4201 H 411.465 1.75667 -1.04892 0
M  V30 4202 H 411.475 4.07183 -0.258045 0
M  V30 4203 H 410.15 3.91633 -1.39986 0
M  V30 4204 H 408.727 3.70534 0.419411 0
M  V30 4205 N 410.912 0.523116 1.48665 0
M  V30 4206 C 412.189 -0.0775449 1.95446 0
M  V30 4207 C 412.569 -1.5197 1.4652 0
M  V30 4208 O 411.917 -2.17876 0.688657 0
M  V30 4209 C 412.127 0.0326135 3.48985 0
M  V30 4210 C 413.475 -0.130141 4.24401 0
M  V30 4211 O 414.499 -0.0415142 3.56176 0
M  V30 4212 O 413.358 -0.31491 5.45592 0
M  V30 4213 H 410.452 -0.0831012 0.822814 0
M  V30 4214 H 412.998 0.587227 1.59216 0
M  V30 4215 H 411.77 1.03748 3.77296 0
M  V30 4216 H 411.393 -0.671317 3.91892 0
M  V30 4217 N 412.39 -1.55475 0.257931 0
M  V30 4218 C 413.637 -1.99207 -0.363728 0
M  V30 4219 C 413.965 -1.1462 -1.57139 0
M  V30 4220 O 413.22 -0.199653 -1.94679 0
M  V30 4221 C 413.519 -3.48183 -0.806433 0
M  V30 4222 C 413.185 -4.49936 0.294684 0
M  V30 4223 C 411.847 -4.77481 0.597076 0
M  V30 4224 C 414.199 -5.10769 1.03751 0
M  V30 4225 C 411.527 -5.63132 1.64618 0
M  V30 4226 C 413.879 -5.97558 2.07622 0
M  V30 4227 C 412.543 -6.23432 2.38514 0
M  V30 4228 H 411.813 -0.728949 -0.133097 0
M  V30 4229 H 414.46 -1.8793 0.368059 0
M  V30 4230 H 412.765 -3.56848 -1.61761 0
M  V30 4231 H 414.462 -3.79415 -1.29789 0
M  V30 4232 H 411.052 -4.28572 0.0488649 0
M  V30 4233 H 415.236 -4.89527 0.817149 0
M  V30 4234 H 410.492 -5.8143 1.89074 0
M  V30 4235 H 414.666 -6.43735 2.65666 0
M  V30 4236 H 412.293 -6.89594 3.19943 0
M  V30 4237 N 413.868 0.0150385 -1.57593 0
M  V30 4238 C 414.831 0.995996 -2.06428 0
M  V30 4239 C 415.831 1.2818 -0.970903 0
M  V30 4240 O 417.021 1.22949 -1.23406 0
M  V30 4241 C 414.153 2.32506 -2.49307 0
M  V30 4242 H 415.346 0.573873 -2.94358 0
M  V30 4243 H 412.899 0.262186 -1.54085 0
M  V30 4244 H 413.634 2.79438 -1.64575 0
M  V30 4245 H 413.419 2.13087 -3.29145 0
M  V30 4246 H 414.909 3.02906 -2.87468 0
M  V30 4247 N 415.346 1.54954 0.287554 0
M  V30 4248 C 416.592 1.75132 1.02257 0
M  V30 4249 C 416.925 0.542858 1.86458 0
M  V30 4250 O 416.2 -0.459856 1.88986 0
M  V30 4251 C 416.483 3.04812 1.91733 0
M  V30 4252 C 416.336 4.35985 1.10622 0
M  V30 4253 C 417.655 3.30438 2.90687 0
M  V30 4254 H 414.774 0.637194 0.370341 0
M  V30 4255 H 417.416 1.87678 0.296111 0
M  V30 4256 H 415.566 2.94247 2.53675 0
M  V30 4257 H 417.238 4.58487 0.508636 0
M  V30 4258 H 415.481 4.31865 0.409271 0
M  V30 4259 H 416.152 5.23017 1.76513 0
M  V30 4260 H 418.628 3.40701 2.38877 0
M  V30 4261 H 417.504 4.22467 3.50447 0
M  V30 4262 H 417.765 2.49377 3.65053 0
M  V30 4263 N 416.824 -0.551391 1.4764 0
M  V30 4264 C 418.072 -1.30572 1.54258 0
M  V30 4265 C 418.393 -1.93877 0.208963 0
M  V30 4266 O 417.663 -1.80234 -0.767619 0
M  V30 4267 H 416.243 -0.484894 0.568231 0
M  V30 4268 H 418.905 -0.643402 1.83974 0
M  V30 4269 H 418.001 -2.09621 2.31226 0
M  V30 4270 N 418.302 -1.35869 -0.798587 0
M  V30 4271 C 419.55 -1.29332 -1.55298 0
M  V30 4272 C 419.871 0.129729 -1.94568 0
M  V30 4273 O 419.141 1.06796 -1.6423 0
M  V30 4274 H 417.721 -0.475737 -0.57592 0
M  V30 4275 H 420.383 -1.70062 -0.952093 0
M  V30 4276 H 419.479 -1.91458 -2.46476 0
M  V30 4277 N 419.78 1.02168 -1.19998 0
M  V30 4278 C 421.196 1.27969 -0.953737 0
M  V30 4279 C 421.396 1.98079 0.369703 0
M  V30 4280 O 420.452 2.27306 1.09947 0
M  V30 4281 C 421.765 2.11971 -2.13281 0
M  V30 4282 C 423.313 2.25255 -2.17323 0
M  V30 4283 C 423.788 3.12632 -3.34702 0
M  V30 4284 N 425.279 3.2022 -3.34684 0
M  V30 4285 C 426.014 3.88039 -4.22153 0
M  V30 4286 N 425.51 4.58027 -5.19791 0
M  V30 4287 N 427.303 3.84511 -4.10009 0
M  V30 4288 H 419.454 0.550794 -2.05134 0
M  V30 4289 H 421.717 0.305683 -0.897364 0
M  V30 4290 H 421.423 1.67785 -3.09097 0
M  V30 4291 H 421.297 3.12699 -2.10949 0
M  V30 4292 H 423.684 2.68667 -1.22073 0
M  V30 4293 H 423.765 1.24053 -2.23706 0
M  V30 4294 H 423.409 2.69926 -4.30235 0
M  V30 4295 H 423.339 4.13909 -3.25556 0
M  V30 4296 H 425.83 2.70382 -2.64012 0
M  V30 4297 H 426.143 5.07429 -5.82868 0
M  V30 4298 H 424.488 4.56869 -5.23733 0
M  V30 4299 H 427.679 3.28978 -3.33003 0
M  V30 4300 H 427.852 4.3709 -4.78389 0
M  V30 4301 N 421.258 1.00505 1.21394 0
M  V30 4302 C 422.498 0.696149 1.9218 0
M  V30 4303 C 422.862 -0.759099 1.76357 0
M  V30 4304 O 424.063 -1.17998 2.41516 0
M  V30 4305 C 422.334 1.10571 3.39866 0
M  V30 4306 S 423.893 0.91702 4.29111 0
M  V30 4307 H 420.711 0.254147 0.664026 0
M  V30 4308 H 423.313 1.28988 1.46909 0
M  V30 4309 H 422.017 2.16096 3.489 0
M  V30 4310 H 421.548 0.504268 3.90155 0
M  V30 4311 H 423.563 -0.185855 4.95852 0
M  V30 4312 N 422.737 -1.36956 0.779787 0
M  V30 4313 C 423.684 -2.30175 0.169697 0
M  V30 4314 C 424.654 -1.51501 -0.68094 0
M  V30 4315 O 425.839 -1.80042 -0.631629 0
M  V30 4316 C 422.979 -3.37985 -0.697131 0
M  V30 4317 C 422.092 -4.31661 0.170992 0
M  V30 4318 C 421.227 -5.2655 -0.701298 0
M  V30 4319 C 420.266 -6.11867 0.168869 0
M  V30 4320 N 419.403 -6.98973 -0.661855 0
M  V30 4321 H 424.243 -2.81767 0.970135 0
M  V30 4322 H 421.78 -1.38699 0.489994 0
M  V30 4323 H 423.738 -3.99128 -1.2146 0
M  V30 4324 H 422.368 -2.87739 -1.46309 0
M  V30 4325 H 421.42 -3.71756 0.80634 0
M  V30 4326 H 422.732 -4.91644 0.841875 0
M  V30 4327 H 421.886 -5.92937 -1.28494 0
M  V30 4328 H 420.625 -4.66998 -1.40584 0
M  V30 4329 H 419.63 -5.44452 0.764986 0
M  V30 4330 H 420.855 -6.73493 0.870863 0
M  V30 4331 H 418.801 -6.41941 -1.35086 0
M  V30 4332 H 418.718 -7.55984 -0.0484447 0
M  V30 4333 H 419.986 -7.6974 -1.22963 0
M  V30 4334 N 424.215 -0.530993 -1.48385 0
M  V30 4335 C 425.455 0.000718982 -2.044 0
M  V30 4336 C 425.819 1.31485 -1.39913 0
M  V30 4337 O 427.02 1.93265 -1.86821 0
M  V30 4338 C 425.291 0.119177 -3.57201 0
M  V30 4339 S 426.85 0.600806 -4.34667 0
M  V30 4340 H 423.668 -0.0125473 -0.710889 0
M  V30 4341 H 426.27 -0.711783 -1.82082 0
M  V30 4342 H 424.974 -0.842061 -4.01668 0
M  V30 4343 H 424.505 0.856026 -3.83974 0
M  V30 4344 H 426.52 1.86514 -4.59812 0
M  V30 4345 N 425.693 1.55336 -0.266172 0
M  V30 4346 C 426.641 2.23587 0.641228 0
M  V30 4347 C 427.635 1.22986 1.16494 0
M  V30 4348 O 428.841 1.40943 1.1196 0
M  V30 4349 H 425.216 0.717452 0.225315 0
M  V30 4350 H 427.187 2.9837 0.0426561 0
M  V30 4351 C 425.936 2.96369 1.81826 0
M  V30 4352 H 425.259 3.73563 1.42445 0
M  V30 4353 H 426.699 3.47459 2.42998 0
M  V30 4354 C 425.158 2.0133 2.70125 0
M  V30 4355 O 425.688 1.55875 3.70224 0
M  V30 4356 N 423.894 1.6802 2.37102 0
M  V30 4357 H 423.441 2.05181 1.55751 0
M  V30 4358 H 423.399 1.047 2.96454 0
M  V30 4359 N 427.171 -0.0066808 1.57599 0
M  V30 4360 C 428.419 -0.691552 1.899 0
M  V30 4361 C 428.74 -1.74682 0.866672 0
M  V30 4362 O 428.01 -1.95661 -0.0968189 0
M  V30 4363 H 426.59 -0.258416 0.700878 0
M  V30 4364 H 429.252 0.0326655 1.94873 0
M  V30 4365 H 428.348 -1.16702 2.8946 0
M  V30 4366 N 428.649 -1.55105 -0.279332 0
M  V30 4367 C 429.599 -1.83937 -1.34727 0
M  V30 4368 C 430.583 -0.69785 -1.44979 0
M  V30 4369 O 431.775 -0.95904 -1.48766 0
M  V30 4370 C 428.904 -2.1092 -2.70864 0
M  V30 4371 C 427.99 -3.31314 -2.64748 0
M  V30 4372 N 428.381 -4.51371 -2.2825 0
M  V30 4373 C 426.679 -3.33777 -2.95819 0
M  V30 4374 C 427.38 -5.33447 -2.31969 0
M  V30 4375 N 426.356 -4.71697 -2.7019 0
M  V30 4376 H 430.158 -2.74309 -1.05506 0
M  V30 4377 H 427.672 -1.54896 -0.487959 0
M  V30 4378 H 429.669 -2.2973 -3.47893 0
M  V30 4379 H 428.329 -1.21828 -3.00979 0
M  V30 4380 H 429.34 -4.77584 -2.00335 0
M  V30 4381 H 426.017 -2.54858 -3.30687 0
M  V30 4382 H 427.407 -6.39424 -2.06365 0
M  V30 4383 N 430.127 0.543554 -1.4793 0
M  V30 4384 C 431.09 1.63156 -1.60975 0
M  V30 4385 C 432.09 1.53346 -0.483899 0
M  V30 4386 O 433.28 1.5726 -0.749339 0
M  V30 4387 C 430.412 3.02743 -1.56716 0
M  V30 4388 H 431.605 1.52934 -2.57975 0
M  V30 4389 H 429.158 0.764557 -1.36324 0
M  V30 4390 H 429.893 3.18484 -0.611418 0
M  V30 4391 H 429.678 3.11272 -2.38438 0
M  V30 4392 H 431.168 3.81871 -1.6901 0
M  V30 4393 N 431.605 1.3629 0.791371 0
M  V30 4394 C 432.83 1.33726 1.58531 0
M  V30 4395 C 433.255 -0.0794933 1.87932 0
M  V30 4396 O 432.613 -1.05087 1.47738 0
M  V30 4397 C 432.661 2.16425 2.88431 0
M  V30 4398 O 431.765 1.5554 3.81944 0
M  V30 4399 H 431.106 0.457793 0.480959 0
M  V30 4400 H 433.636 1.79547 0.981031 0
M  V30 4401 H 433.646 2.28933 3.37718 0
M  V30 4402 H 432.321 3.19415 2.66359 0
M  V30 4403 H 430.898 1.51961 3.40532 0
M  V30 4404 N 433.083 -1.0153 1.20538 0
M  V30 4405 C 433.993 -2.13557 0.971113 0
M  V30 4406 C 435.009 -1.73845 -0.0734366 0
M  V30 4407 O 436.185 -2.01075 0.114299 0
M  V30 4408 C 433.25 -3.42661 0.527639 0
M  V30 4409 C 432.311 -3.96608 1.64319 0
M  V30 4410 C 431.544 -5.1955 1.22078 0
M  V30 4411 O 431.767 -5.70329 0.0900198 0
M  V30 4412 O 430.701 -5.66681 2.02871 0
M  V30 4413 H 434.527 -2.3619 1.90913 0
M  V30 4414 H 432.112 -1.11946 0.989362 0
M  V30 4415 H 433.994 -4.20404 0.289621 0
M  V30 4416 H 432.669 -3.21441 -0.381779 0
M  V30 4417 H 431.576 -3.20139 1.93551 0
M  V30 4418 H 432.909 -4.22219 2.52966 0
M  V30 4419 N 434.561 -1.01147 -1.20859 0
M  V30 4420 C 435.801 -0.706331 -1.91808 0
M  V30 4421 C 436.165 0.749736 -1.76757 0
M  V30 4422 O 437.366 1.16716 -2.42138 0
M  V30 4423 C 435.637 -1.12371 -3.39275 0
M  V30 4424 S 437.196 -0.939764 -4.28619 0
M  V30 4425 H 434.014 -0.257665 -0.662669 0
M  V30 4426 H 436.616 -1.29766 -1.46223 0
M  V30 4427 H 435.32 -2.17943 -3.47749 0
M  V30 4428 H 434.851 -0.524952 -3.89882 0
M  V30 4429 H 436.866 0.159556 -4.95943 0
M  V30 4430 N 436.039 1.36541 -0.78704 0
M  V30 4431 C 436.972 2.27831 -0.129765 0
M  V30 4432 C 437.95 1.47105 0.692732 0
M  V30 4433 O 439.134 1.7641 0.664222 0
M  V30 4434 C 436.261 3.28577 0.821883 0
M  V30 4435 C 435.307 4.26422 0.0814771 0
M  V30 4436 S 436.14 5.20919 -1.24112 0
M  V30 4437 C 437.296 6.25212 -0.293409 0
M  V30 4438 H 437.529 2.83229 -0.903811 0
M  V30 4439 H 435.062 1.43046 -0.581144 0
M  V30 4440 H 437.02 3.87123 1.3655 0
M  V30 4441 H 435.681 2.72096 1.56916 0
M  V30 4442 H 434.874 4.97554 0.803485 0
M  V30 4443 H 434.476 3.71944 -0.391589 0
M  V30 4444 H 436.768 6.75435 0.528622 0
M  V30 4445 H 437.711 7.01378 -0.973344 0
M  V30 4446 H 438.119 5.64407 0.102196 0
M  V30 4447 N 437.518 0.538854 1.48102 0
M  V30 4448 C 438.465 -0.219042 2.29758 0
M  V30 4449 C 439.435 -0.925562 1.37922 0
M  V30 4450 O 440.62 -0.924855 1.66886 0
M  V30 4451 C 437.76 -1.25452 3.2149 0
M  V30 4452 C 436.873 -0.555943 4.28408 0
M  V30 4453 C 436.008 -1.57512 5.0731 0
M  V30 4454 C 435.047 -0.860498 6.06021 0
M  V30 4455 N 434.184 -1.82564 6.77949 0
M  V30 4456 H 439.024 0.483449 2.94052 0
M  V30 4457 H 436.561 0.250247 1.44956 0
M  V30 4458 H 438.519 -1.86727 3.7308 0
M  V30 4459 H 437.149 -1.92528 2.591 0
M  V30 4460 H 436.201 0.170938 3.80016 0
M  V30 4461 H 437.513 0.00474616 4.988 0
M  V30 4462 H 436.667 -2.26191 5.62959 0
M  V30 4463 H 435.406 -2.16972 4.36778 0
M  V30 4464 H 434.411 -0.159686 5.49568 0
M  V30 4465 H 435.636 -0.271897 6.78555 0
M  V30 4466 H 433.582 -2.40915 6.10161 0
M  V30 4467 H 433.499 -1.31662 7.44447 0
M  V30 4468 H 434.767 -2.50414 7.38182 0
M  V30 4469 N 438.996 -1.55193 0.274407 0
M  V30 4470 C 439.944 -2.23924 -0.629362 0
M  V30 4471 C 440.938 -1.23602 -1.1584 0
M  V30 4472 O 442.144 -1.41535 -1.11211 0
M  V30 4473 H 438.519 -0.718637 -0.221507 0
M  V30 4474 H 440.49 -2.98388 -0.0268322 0
M  V30 4475 C 439.239 -2.97329 -1.80252 0
M  V30 4476 H 438.562 -3.74313 -1.40462 0
M  V30 4477 H 440.002 -3.48743 -2.41152 0
M  V30 4478 C 438.461 -2.0276 -2.69054 0
M  V30 4479 O 438.991 -1.57836 -3.69392 0
M  V30 4480 N 437.197 -1.69275 -2.36208 0
M  V30 4481 H 436.744 -2.06004 -1.54661 0
M  V30 4482 H 436.702 -1.06271 -2.95895 0
M  V30 4483 N 440.474 -0.00167713 -1.576 0
M  V30 4484 C 441.384 1.00548 -2.1196 0
M  V30 4485 C 442.4 1.3758 -1.06526 0
M  V30 4486 O 443.576 1.46278 -1.38436 0
M  V30 4487 C 440.641 2.27809 -2.6135 0
M  V30 4488 C 439.702 1.97074 -3.81393 0
M  V30 4489 C 438.935 3.18267 -4.28417 0
M  V30 4490 O 439.158 4.30009 -3.74765 0
M  V30 4491 O 438.092 3.02167 -5.20556 0
M  V30 4492 H 441.918 0.573373 -2.98238 0
M  V30 4493 H 439.503 0.217255 -1.47812 0
M  V30 4494 H 441.385 3.02568 -2.93309 0
M  V30 4495 H 440.06 2.70254 -1.78169 0
M  V30 4496 H 438.967 1.19785 -3.54404 0
M  V30 4497 H 440.3 1.59464 -4.65652 0
M  V30 4498 N 441.952 1.55251 0.271103 0
M  V30 4499 C 443.199 1.75946 1.00245 0
M  V30 4500 C 443.527 0.561611 1.86215 0
M  V30 4501 O 442.782 -0.455832 1.90317 0
M  V30 4502 C 443.081 3.01879 1.91321 0
M  V30 4503 C 442.747 4.34337 1.21086 0
M  V30 4504 C 441.409 4.70338 1.01666 0
M  V30 4505 C 443.761 5.16325 0.71119 0
M  V30 4506 C 441.089 5.8588 0.310099 0
M  V30 4507 C 443.441 6.32597 0.0182157 0
M  V30 4508 C 442.105 6.67236 -0.18768 0
M  V30 4509 H 441.375 0.643833 0.366824 0
M  V30 4510 H 444.022 1.89521 0.27458 0
M  V30 4511 H 442.327 2.83212 2.70736 0
M  V30 4512 H 444.024 3.15088 2.48033 0
M  V30 4513 H 440.614 4.06043 1.37213 0
M  V30 4514 H 444.798 4.88987 0.848844 0
M  V30 4515 H 440.054 6.1124 0.139873 0
M  V30 4516 H 444.228 6.9538 -0.376711 0
M  V30 4517 H 441.855 7.56618 -0.73715 0
M  V30 4518 N 443.43 -0.535701 1.48216 0
M  V30 4519 C 444.707 -1.29683 1.46429 0
M  V30 4520 C 445.087 -2.10391 0.172852 0
M  V30 4521 O 444.435 -2.12282 -0.845488 0
M  V30 4522 C 444.645 -2.18313 2.72287 0
M  V30 4523 C 445.993 -2.78639 3.20383 0
M  V30 4524 O 447.017 -2.28604 2.73164 0
M  V30 4525 O 445.876 -3.69636 4.02531 0
M  V30 4526 H 442.97 -0.585026 0.584529 0
M  V30 4527 H 445.516 -0.552827 1.60443 0
M  V30 4528 H 444.288 -1.58421 3.57797 0
M  V30 4529 H 443.911 -2.99971 2.60966 0
M  V30 4530 N 444.908 -1.36708 -0.784132 0
M  V30 4531 C 445.855 -1.31466 -1.89698 0
M  V30 4532 C 446.825 -0.18239 -1.65096 0
M  V30 4533 O 448.01 -0.369762 -1.87183 0
M  V30 4534 C 445.15 -1.1151 -3.26588 0
M  V30 4535 C 444.263 -2.33859 -3.63227 0
M  V30 4536 C 443.398 -2.06873 -4.89262 0
M  V30 4537 C 442.437 -3.25154 -5.18595 0
M  V30 4538 N 441.574 -2.978 -6.35814 0
M  V30 4539 H 446.414 -2.26619 -1.93515 0
M  V30 4540 H 443.951 -1.12625 -0.946256 0
M  V30 4541 H 445.909 -0.979653 -4.05535 0
M  V30 4542 H 444.539 -0.200103 -3.22179 0
M  V30 4543 H 443.591 -2.58188 -2.79362 0
M  V30 4544 H 444.903 -3.22109 -3.8085 0
M  V30 4545 H 444.057 -1.90289 -5.76086 0
M  V30 4546 H 442.796 -1.15942 -4.73718 0
M  V30 4547 H 441.801 -3.42292 -4.30251 0
M  V30 4548 H 443.026 -4.1692 -5.36055 0
M  V30 4549 H 440.972 -2.09485 -6.21653 0
M  V30 4550 H 440.889 -3.7959 -6.53794 0
M  V30 4551 H 442.157 -2.84805 -7.25607 0
M  V30 4552 N 446.386 1.0089 -1.21074 0
M  V30 4553 C 447.316 2.1145 -0.990523 0
M  V30 4554 C 448.297 1.69897 0.0831699 0
M  V30 4555 O 449.482 1.94052 -0.0758853 0
M  V30 4556 C 446.612 3.42914 -0.550177 0
M  V30 4557 C 445.566 3.98244 -1.56799 0
M  V30 4558 C 444.892 5.25568 -0.984013 0
M  V30 4559 C 446.192 4.30752 -2.95381 0
M  V30 4560 H 447.886 2.3013 -1.91521 0
M  V30 4561 H 445.432 1.10592 -0.92225 0
M  V30 4562 H 447.385 4.19653 -0.383305 0
M  V30 4563 H 446.109 3.24014 0.41015 0
M  V30 4564 H 444.768 3.23621 -1.72236 0
M  V30 4565 H 444.416 5.02998 -0.0155216 0
M  V30 4566 H 444.116 5.63551 -1.66384 0
M  V30 4567 H 445.64 6.04955 -0.828378 0
M  V30 4568 H 447.054 4.98349 -2.8341 0
M  V30 4569 H 445.451 4.79869 -3.60341 0
M  V30 4570 H 446.521 3.39192 -3.46521 0
M  V30 4571 N 447.864 1.01787 1.20321 0
M  V30 4572 C 449.11 0.708985 1.90003 0
M  V30 4573 C 449.443 -0.759572 1.78729 0
M  V30 4574 O 448.718 -1.55198 1.17234 0
M  V30 4575 C 449.001 1.1469 3.41348 0
M  V30 4576 C 448.854 2.67586 3.61549 0
M  V30 4577 C 450.173 0.71915 4.34185 0
M  V30 4578 H 447.292 0.259034 0.689978 0
M  V30 4579 H 449.934 1.26584 1.41692 0
M  V30 4580 H 448.084 0.673128 3.82624 0
M  V30 4581 H 449.756 3.22826 3.29517 0
M  V30 4582 H 447.999 3.085 3.04976 0
M  V30 4583 H 448.67 2.93281 4.67643 0
M  V30 4584 H 451.146 1.12647 4.00562 0
M  V30 4585 H 450.022 1.05358 5.38694 0
M  V30 4586 H 450.283 -0.379111 4.40472 0
M  V30 4587 N 449.342 -1.36122 0.79427 0
M  V30 4588 C 450.582 -2.00942 0.374376 0
M  V30 4589 C 450.946 -1.61666 -1.03577 0
M  V30 4590 O 452.147 -2.19113 -1.55701 0
M  V30 4591 C 450.418 -3.53323 0.538327 0
M  V30 4592 S 451.977 -4.38311 0.20703 0
M  V30 4593 H 448.795 -0.696515 0.142785 0
M  V30 4594 H 451.397 -1.65929 1.03382 0
M  V30 4595 H 450.101 -3.79395 1.56484 0
M  V30 4596 H 449.632 -3.93162 -0.136882 0
M  V30 4597 H 451.647 -4.8623 -0.989695 0
M  V30 4598 N 450.82 -0.546701 -1.47814 0
M  V30 4599 C 451.768 0.220048 -2.31557 0
M  V30 4600 C 452.762 0.919472 -1.42275 0
M  V30 4601 O 453.968 0.841953 -1.59095 0
M  V30 4602 H 450.343 0.0898334 -0.746615 0
M  V30 4603 H 452.314 -0.505589 -2.94086 0
M  V30 4604 C 451.063 1.24353 -3.24702 0
M  V30 4605 H 450.386 0.714758 -3.93359 0
M  V30 4606 H 451.826 1.75112 -3.8615 0
M  V30 4607 C 450.285 2.28593 -2.47481 0
M  V30 4608 O 450.815 3.35334 -2.21165 0
M  V30 4609 N 449.021 2.02244 -2.08676 0
M  V30 4610 H 448.568 1.15455 -2.30278 0
M  V30 4611 H 448.526 2.72207 -1.57323 0
M  V30 4612 N 452.299 1.55045 -0.282633 0
M  V30 4613 C 453.539 2.01668 0.333088 0
M  V30 4614 C 453.903 1.1667 1.52486 0
M  V30 4615 O 455.104 1.52907 2.21072 0
M  V30 4616 C 453.375 3.50509 0.698442 0
M  V30 4617 S 454.934 4.19112 1.29963 0
M  V30 4618 H 451.752 0.703468 0.103219 0
M  V30 4619 H 454.354 1.91233 -0.406222 0
M  V30 4620 H 453.058 4.10015 -0.177693 0
M  V30 4621 H 452.589 3.64943 1.46902 0
M  V30 4622 H 454.604 4.23362 2.58803 0
M  V30 4623 N 453.777 0.010035 1.57597 0
M  V30 4624 C 454.724 -0.978122 2.09049 0
M  V30 4625 C 455.694 -1.33509 0.988159 0
M  V30 4626 O 456.879 -1.43172 1.26121 0
M  V30 4627 C 454.019 -2.26158 2.60666 0
M  V30 4628 C 453.132 -1.96275 3.84838 0
M  V30 4629 C 452.267 -3.18776 4.24918 0
M  V30 4630 C 451.306 -2.84625 5.41899 0
M  V30 4631 N 450.443 -3.99693 5.77226 0
M  V30 4632 H 455.283 -0.532431 2.93205 0
M  V30 4633 H 452.82 -0.251234 1.44939 0
M  V30 4634 H 454.778 -3.01202 2.88675 0
M  V30 4635 H 453.408 -2.68378 1.79369 0
M  V30 4636 H 452.46 -1.11555 3.63675 0
M  V30 4637 H 453.772 -1.67111 4.69974 0
M  V30 4638 H 452.926 -4.02157 4.54262 0
M  V30 4639 H 451.665 -3.51087 3.38511 0
M  V30 4640 H 450.67 -1.99653 5.12268 0
M  V30 4641 H 451.895 -2.53551 6.29991 0
M  V30 4642 H 449.841 -4.31882 4.93776 0
M  V30 4643 H 449.758 -3.74087 6.56959 0
M  V30 4644 H 451.026 -4.83834 6.11167 0
M  V30 4645 N 455.255 -1.55392 -0.262866 0
M  V30 4646 C 456.205 -1.85355 -1.32768 0
M  V30 4647 C 457.189 -0.713188 -1.44231 0
M  V30 4648 O 458.381 -0.974765 -1.47741 0
M  V30 4649 C 455.51 -2.13781 -2.68612 0
M  V30 4650 C 454.596 -3.34104 -2.61219 0
M  V30 4651 N 454.987 -4.53766 -2.2345 0
M  V30 4652 C 453.285 -3.36895 -2.92263 0
M  V30 4653 C 453.986 -5.35877 -2.26298 0
M  V30 4654 N 452.962 -4.74536 -2.65172 0
M  V30 4655 H 456.764 -2.75413 -1.02591 0
M  V30 4656 H 454.278 -1.55405 -0.471503 0
M  V30 4657 H 456.275 -2.33407 -3.45437 0
M  V30 4658 H 454.935 -1.25013 -2.99669 0
M  V30 4659 H 455.946 -4.79682 -1.95258 0
M  V30 4660 H 452.623 -2.58351 -3.27965 0
M  V30 4661 H 454.013 -6.41577 -1.99572 0
M  V30 4662 N 456.733 0.527833 -1.48498 0
M  V30 4663 C 457.681 1.65313 -1.63628 0
M  V30 4664 C 458.675 1.6177 -0.502676 0
M  V30 4665 O 459.881 1.66601 -0.681469 0
M  V30 4666 H 456.256 0.547518 -0.515488 0
M  V30 4667 H 458.227 1.49696 -2.58135 0
M  V30 4668 C 456.976 3.03576 -1.6952 0
M  V30 4669 H 456.299 3.06997 -2.56111 0
M  V30 4670 H 457.739 3.81923 -1.84149 0
M  V30 4671 C 456.198 3.34089 -0.43432 0
M  V30 4672 O 456.728 3.99151 0.451852 0
M  V30 4673 N 454.934 2.88991 -0.305368 0
M  V30 4674 H 454.481 2.36222 -1.02747 0
M  V30 4675 H 454.439 3.09776 0.537249 0
M  V30 4676 N 458.211 1.37122 0.776871 0
M  V30 4677 C 459.439 1.3523 1.5659 0
M  V30 4678 C 459.854 -0.0635518 1.88693 0
M  V30 4679 O 459.211 -1.02394 1.51069 0
M  V30 4680 C 459.262 2.18583 2.8793 0
M  V30 4681 O 458.983 3.5465 2.57206 0
M  V30 4682 C 460.484 2.24612 3.82183 0
M  V30 4683 H 457.704 0.4634 0.485285 0
M  V30 4684 H 460.248 1.80392 0.963266 0
M  V30 4685 H 458.403 1.76943 3.4463 0
M  V30 4686 H 458.817 3.98286 3.41275 0
M  V30 4687 H 460.291 2.87267 4.71361 0
M  V30 4688 H 460.768 1.25309 4.20944 0
M  V30 4689 H 461.374 2.66543 3.31414 0
M  V30 4690 N 459.689 -1.00246 1.21608 0
M  V30 4691 C 460.919 -1.77373 1.05935 0
M  V30 4692 C 461.327 -1.85059 -0.393686 0
M  V30 4693 O 460.67 -1.31289 -1.28487 0
M  V30 4694 C 460.732 -3.22705 1.58435 0
M  V30 4695 C 460.396 -3.38591 3.06929 0
M  V30 4696 C 461.393 -3.2667 4.04454 0
M  V30 4697 C 459.078 -3.6395 3.46187 0
M  V30 4698 C 461.072 -3.39877 5.39224 0
M  V30 4699 C 458.759 -3.768 4.81108 0
M  V30 4700 C 459.757 -3.6477 5.77436 0
M  V30 4701 O 459.445 -3.77206 7.09909 0
M  V30 4702 H 459.177 -0.56419 0.372378 0
M  V30 4703 H 461.731 -1.26971 1.61454 0
M  V30 4704 H 459.961 -3.74255 0.973147 0
M  V30 4705 H 461.65 -3.81515 1.38568 0
M  V30 4706 H 462.416 -3.06999 3.75468 0
M  V30 4707 H 458.295 -3.72395 2.71741 0
M  V30 4708 H 461.839 -3.30404 6.14393 0
M  V30 4709 H 457.736 -3.95975 5.09779 0
M  V30 4710 H 458.504 -3.94138 7.17355 0
M  V30 4711 N 461.167 -1.02423 -1.1978 0
M  V30 4712 C 462.415 -0.716569 -1.8897 0
M  V30 4713 C 462.736 0.756769 -1.79716 0
M  V30 4714 O 462.006 1.5449 -1.20456 0
M  V30 4715 H 460.586 -0.262062 -0.699523 0
M  V30 4716 H 463.248 -1.29747 -1.45436 0
M  V30 4717 H 462.344 -1.00675 -2.95417 0
M  V30 4718 N 462.645 1.35699 -0.801477 0
M  V30 4719 C 463.891 1.99208 -0.380022 0
M  V30 4720 C 464.224 1.63445 1.04878 0
M  V30 4721 O 463.499 0.895223 1.72673 0
M  V30 4722 C 463.782 3.55755 -0.557708 0
M  V30 4723 C 463.635 4.01332 -2.03107 0
M  V30 4724 C 464.954 4.40096 0.0197968 0
M  V30 4725 H 462.073 0.723667 -0.139552 0
M  V30 4726 H 464.715 1.60928 -1.01006 0
M  V30 4727 H 462.865 3.88494 -0.0213741 0
M  V30 4728 H 464.537 3.79026 -2.62939 0
M  V30 4729 H 462.78 3.52429 -2.52936 0
M  V30 4730 H 463.451 5.10234 -2.1063 0
M  V30 4731 H 465.927 4.13786 -0.438179 0
M  V30 4732 H 464.803 5.48735 -0.134477 0
M  V30 4733 H 465.064 4.2786 1.11303 0
M  V30 4734 N 464.123 0.554532 1.47522 0
M  V30 4735 C 465.4 -0.0360704 1.95567 0
M  V30 4736 C 465.78 -1.48828 1.49711 0
M  V30 4737 O 465.128 -2.16366 0.734717 0
M  V30 4738 C 465.338 0.106631 3.48837 0
M  V30 4739 C 466.686 -0.0400899 4.24581 0
M  V30 4740 O 467.71 0.0340453 3.56184 0
M  V30 4741 O 466.569 -0.199111 5.46137 0
M  V30 4742 H 463.663 -0.0656294 0.824392 0
M  V30 4743 H 466.209 0.620867 1.57935 0
M  V30 4744 H 464.981 1.11727 3.7501 0
M  V30 4745 H 464.604 -0.58804 3.93227 0
M  V30 4746 N 465.601 -1.54893 0.290851 0
M  V30 4747 C 466.841 -2.01842 -0.322388 0
M  V30 4748 C 467.205 -1.17477 -1.51865 0
M  V30 4749 O 468.406 -1.54077 -2.20258 0
M  V30 4750 C 466.677 -3.50874 -0.679844 0
M  V30 4751 S 468.236 -4.19796 -1.27739 0
M  V30 4752 H 465.054 -0.704005 -0.0994866 0
M  V30 4753 H 467.656 -1.91015 0.416358 0
M  V30 4754 H 466.36 -4.09915 0.199435 0
M  V30 4755 H 465.891 -3.65717 -1.44964 0
M  V30 4756 H 467.906 -4.24729 -2.56554 0
M  V30 4757 N 467.08 -0.0183926 -1.57589 0
M  V30 4758 C 467.99 0.982943 -2.13015 0
M  V30 4759 C 469.006 1.36443 -1.07979 0
M  V30 4760 O 470.182 1.44802 -1.3998 0
M  V30 4761 C 467.247 2.25024 -2.63752 0
M  V30 4762 C 466.308 1.93018 -3.83461 0
M  V30 4763 C 465.541 3.13706 -4.31769 0
M  V30 4764 O 465.764 4.2601 -3.79305 0
M  V30 4765 O 464.698 2.96629 -5.23732 0
M  V30 4766 H 468.524 0.541709 -2.9883 0
M  V30 4767 H 466.109 0.201565 -1.48034 0
M  V30 4768 H 467.991 2.99441 -2.96502 0
M  V30 4769 H 466.666 2.68349 -1.81026 0
M  V30 4770 H 465.573 1.16019 -3.55655 0
M  V30 4771 H 466.906 1.54516 -4.67317 0
M  V30 4772 N 468.558 1.5553 0.254621 0
M  V30 4773 C 469.505 1.89666 1.31512 0
M  V30 4774 C 470.475 0.750057 1.482 0
M  V30 4775 O 471.66 1.00301 1.62309 0
M  V30 4776 C 468.8 2.19009 2.667 0
M  V30 4777 C 467.913 3.46435 2.58083 0
M  V30 4778 C 467.048 3.65386 3.85573 0
M  V30 4779 C 466.087 4.8644 3.71541 0
M  V30 4780 N 465.224 5.01952 4.90906 0
M  V30 4781 H 470.064 2.80109 1.017 0
M  V30 4782 H 467.601 1.38666 0.490938 0
M  V30 4783 H 469.559 2.34025 3.45381 0
M  V30 4784 H 468.189 1.31779 2.94676 0
M  V30 4785 H 467.241 3.39792 1.71013 0
M  V30 4786 H 468.553 4.35258 2.43622 0
M  V30 4787 H 467.707 3.80319 4.72697 0
M  V30 4788 H 466.446 2.74781 4.02922 0
M  V30 4789 H 465.451 4.71491 2.82801 0
M  V30 4790 H 466.676 5.78497 3.55694 0
M  V30 4791 H 464.622 4.14283 5.08631 0
M  V30 4792 H 464.539 5.84851 4.79046 0
M  V30 4793 H 465.807 5.21289 5.7955 0
M  V30 4794 N 470.036 -0.519951 1.48776 0
M  V30 4795 C 471.276 -1.2856 1.58908 0
M  V30 4796 C 471.64 -1.90212 0.261418 0
M  V30 4797 O 472.841 -2.67746 0.237791 0
M  V30 4798 C 471.112 -2.33836 2.70288 0
M  V30 4799 S 472.671 -3.19992 3.0025 0
M  V30 4800 H 469.489 -0.43717 0.560717 0
M  V30 4801 H 472.091 -0.591205 1.86346 0
M  V30 4802 H 470.795 -1.87041 3.653 0
M  V30 4803 H 470.326 -3.07969 2.44783 0
M  V30 4804 H 472.341 -4.34122 2.40317 0
M  V30 4805 N 471.514 -1.37532 -0.769588 0
M  V30 4806 C 472.444 -1.36172 -1.89682 0
M  V30 4807 C 473.425 -0.23001 -1.68538 0
M  V30 4808 O 474.61 -0.43069 -1.89364 0
M  V30 4809 C 471.74 -1.1701 -3.26995 0
M  V30 4810 C 470.694 -2.27216 -3.62708 0
M  V30 4811 C 470.02 -1.93174 -4.98586 0
M  V30 4812 C 471.32 -3.6941 -3.69234 0
M  V30 4813 H 473.014 -2.30499 -1.91078 0
M  V30 4814 H 470.56 -1.10953 -0.917902 0
M  V30 4815 H 472.513 -1.14688 -4.05493 0
M  V30 4816 H 471.237 -0.191395 -3.26039 0
M  V30 4817 H 469.896 -2.28697 -2.86519 0
M  V30 4818 H 469.544 -0.938281 -4.94171 0
M  V30 4819 H 469.244 -2.66973 -5.23449 0
M  V30 4820 H 470.768 -1.92443 -5.79481 0
M  V30 4821 H 472.182 -3.70047 -4.37879 0
M  V30 4822 H 470.579 -4.4228 -4.05597 0
M  V30 4823 H 471.649 -4.0288 -2.69844 0
M  V30 4824 N 472.992 0.995999 -1.22138 0
M  V30 4825 C 474.403 1.54961 -1.04135 0
M  V30 4826 C 474.754 1.92159 0.396147 0
M  V30 4827 O 473.879 1.74435 1.28069 0
M  V30 4828 C 474.474 2.81581 -1.88408 0
M  V30 4829 C 473.033 3.33396 -1.74712 0
M  V30 4830 C 472.18 2.06509 -1.85066 0
M  V30 4831 H 475.131 0.817436 -1.36028 0
M  V30 4832 H 475.152 3.53822 -1.39966 0
M  V30 4833 H 474.664 2.54476 -2.93025 0
M  V30 4834 H 472.765 3.65416 -0.728159 0
M  V30 4835 H 472.878 4.04208 -2.57202 0
M  V30 4836 H 471.242 2.19925 -1.28472 0
M  V30 4837 H 472.025 1.81804 -2.91208 0
M  V30 4838 N 474.47 1.03057 1.19235 0
M  V30 4839 C 475.717 0.728019 1.88961 0
M  V30 4840 C 476.045 -0.743515 1.79728 0
M  V30 4841 O 475.3 -1.55729 1.1852 0
M  V30 4842 C 475.599 1.1268 3.39172 0
M  V30 4843 C 475.265 2.5969 3.68608 0
M  V30 4844 C 473.927 2.99854 3.76352 0
M  V30 4845 C 476.279 3.54793 3.81801 0
M  V30 4846 C 473.607 4.34031 3.94758 0
M  V30 4847 C 475.959 4.88675 4.0172 0
M  V30 4848 C 474.623 5.28526 4.07697 0
M  V30 4849 H 473.893 0.266401 0.691456 0
M  V30 4850 H 476.54 1.29373 1.41191 0
M  V30 4851 H 474.845 0.479722 3.88852 0
M  V30 4852 H 476.542 0.870203 3.91444 0
M  V30 4853 H 473.132 2.27575 3.63191 0
M  V30 4854 H 477.316 3.24914 3.7516 0
M  V30 4855 H 472.572 4.6444 3.97625 0
M  V30 4856 H 476.746 5.6228 4.1087 0
M  V30 4857 H 474.373 6.32506 4.21712 0
M  V30 4858 N 475.948 -1.35272 0.808662 0
M  V30 4859 C 477.195 -1.98709 0.390003 0
M  V30 4860 C 477.523 -1.64148 -1.04335 0
M  V30 4861 O 476.778 -0.897797 -1.73891 0
M  V30 4862 C 477.077 -3.53556 0.522798 0
M  V30 4863 C 476.743 -4.0799 1.91977 0
M  V30 4864 C 475.405 -4.22568 2.30195 0
M  V30 4865 C 477.757 -4.37442 2.83361 0
M  V30 4866 C 475.085 -4.63918 3.59162 0
M  V30 4867 C 477.437 -4.80232 4.11776 0
M  V30 4868 C 476.101 -4.93016 4.49991 0
M  V30 4869 H 475.371 -0.727127 0.142712 0
M  V30 4870 H 478.018 -1.6145 1.02985 0
M  V30 4871 H 476.323 -3.91287 -0.200494 0
M  V30 4872 H 478.02 -4.00598 0.179608 0
M  V30 4873 H 474.61 -3.97096 1.61284 0
M  V30 4874 H 478.794 -4.25731 2.55083 0
M  V30 4875 H 474.05 -4.72005 3.88615 0
M  V30 4876 H 478.224 -5.01982 4.82687 0
M  V30 4877 H 475.851 -5.24814 5.49976 0
M  V30 4878 N 477.426 -0.562348 -1.47226 0
M  V30 4879 C 478.374 0.195476 -2.31777 0
M  V30 4880 C 479.368 0.90433 -1.43242 0
M  V30 4881 O 480.574 0.825031 -1.59979 0
M  V30 4882 H 476.949 0.0819095 -0.747526 0
M  V30 4883 H 478.92 -0.536753 -2.93533 0
M  V30 4884 C 477.669 1.20902 -3.26003 0
M  V30 4885 H 476.992 0.672997 -3.94095 0
M  V30 4886 H 478.432 1.71006 -3.87986 0
M  V30 4887 C 476.891 2.25955 -2.49891 0
M  V30 4888 O 477.421 3.32969 -2.2471 0
M  V30 4889 N 475.627 2.00019 -2.1081 0
M  V30 4890 H 475.174 1.13006 -2.31489 0
M  V30 4891 H 475.132 2.70523 -1.60201 0
M  V30 4892 N 478.904 1.54736 -0.299062 0
M  V30 4893 C 480.181 1.92187 0.363802 0
M  V30 4894 C 480.561 1.22607 1.71845 0
M  V30 4895 O 479.909 0.361141 2.25628 0
M  V30 4896 C 480.119 3.45678 0.480377 0
M  V30 4897 C 481.467 4.17885 0.752147 0
M  V30 4898 O 482.491 3.51702 0.564264 0
M  V30 4899 O 481.35 5.35048 1.11294 0
M  V30 4900 H 478.444 0.801681 0.203066 0
M  V30 4901 H 480.99 1.66115 -0.346978 0
M  V30 4902 H 479.762 3.88443 -0.471999 0
M  V30 4903 H 479.385 3.77779 1.2397 0
M  V30 4904 N 480.382 0.0267497 1.57577 0
M  V30 4905 C 481.798 -0.32962 1.56159 0
M  V30 4906 C 481.998 -1.73059 1.03213 0
M  V30 4907 O 481.054 -2.43233 0.677804 0
M  V30 4908 C 482.367 -0.18039 3.00158 0
M  V30 4909 C 483.915 -0.253334 3.11973 0
M  V30 4910 C 484.39 -0.132921 4.57807 0
M  V30 4911 N 485.881 -0.189979 4.6281 0
M  V30 4912 C 486.616 -0.120554 5.73273 0
M  V30 4913 N 486.112 -0.000180315 6.928 0
M  V30 4914 N 487.905 -0.174369 5.61829 0
M  V30 4915 H 480.056 0.942896 1.90324 0
M  V30 4916 H 482.319 0.3639 0.875375 0
M  V30 4917 H 482.025 0.784576 3.42837 0
M  V30 4918 H 481.899 -0.951565 3.65 0
M  V30 4919 H 484.286 -1.20876 2.69208 0
M  V30 4920 H 484.367 0.548177 2.49857 0
M  V30 4921 H 484.011 0.819073 5.01252 0
M  V30 4922 H 483.941 -0.953264 5.179 0
M  V30 4923 H 486.432 -0.283257 3.76837 0
M  V30 4924 H 486.745 0.0461666 7.72786 0
M  V30 4925 H 485.09 0.034569 6.94991 0
M  V30 4926 H 488.281 -0.266794 4.67339 0
M  V30 4927 H 488.454 -0.116802 6.47895 0
M  V30 4928 N 481.861 -1.55662 -0.24637 0
M  V30 4929 C 483.272 -1.67953 -0.81539 0
M  V30 4930 C 483.623 -0.624302 -1.86002 0
M  V30 4931 O 482.748 0.229328 -2.15181 0
M  V30 4932 C 483.343 -3.04484 -1.48576 0
M  V30 4933 C 481.902 -3.18713 -2.00248 0
M  V30 4934 C 481.049 -2.6383 -0.853766 0
M  V30 4935 H 484 -1.58685 -0.0221692 0
M  V30 4936 H 484.021 -2.98959 -2.3538 0
M  V30 4937 H 483.533 -3.81264 -0.725222 0
M  V30 4938 H 481.634 -2.46757 -2.79181 0
M  V30 4939 H 481.747 -4.25628 -2.1995 0
M  V30 4940 H 480.111 -2.21667 -1.25442 0
M  V30 4941 H 480.894 -3.43135 -0.106302 0
M  V30 4942 N 483.339 0.512053 -1.4905 0
M  V30 4943 C 484.585 1.26613 -1.59187 0
M  V30 4944 C 484.94 1.90494 -0.270163 0
M  V30 4945 O 484.233 1.77204 0.728648 0
M  V30 4946 C 484.427 2.36446 -2.68008 0
M  V30 4947 C 484.256 1.83334 -4.10632 0
M  V30 4948 C 483.026 1.65131 -4.77556 0
M  V30 4949 C 485.224 1.35153 -4.96224 0
M  V30 4950 N 483.206 1.06833 -6.04533 0
M  V30 4951 C 484.577 0.889186 -6.13591 0
M  V30 4952 C 486.632 1.23623 -4.82309 0
M  V30 4953 C 485.335 0.322953 -7.18575 0
M  V30 4954 C 487.361 0.683978 -5.87431 0
M  V30 4955 C 486.723 0.2318 -7.04018 0
M  V30 4956 H 482.822 0.453678 -0.636946 0
M  V30 4957 H 485.406 0.575217 -1.86009 0
M  V30 4958 H 483.577 3.03012 -2.42978 0
M  V30 4959 H 485.309 3.03485 -2.67729 0
M  V30 4960 H 482.064 1.89178 -4.34176 0
M  V30 4961 H 482.488 0.796425 -6.72299 0
M  V30 4962 H 487.13 1.57184 -3.92496 0
M  V30 4963 H 484.848 -0.024943 -8.08096 0
M  V30 4964 H 488.434 0.597694 -5.78722 0
M  V30 4965 H 487.314 -0.188869 -7.83973 0
M  V30 4966 N 484.817 1.37938 0.762283 0
M  V30 4967 C 486.233 1.18945 1.06415 0
M  V30 4968 C 486.433 0.0321163 2.01474 0
M  V30 4969 O 485.489 -0.624844 2.44647 0
M  V30 4970 C 486.802 2.51218 1.65258 0
M  V30 4971 C 488.35 2.57824 1.7747 0
M  V30 4972 C 488.825 3.90251 2.39725 0
M  V30 4973 N 490.316 3.91744 2.47166 0
M  V30 4974 C 491.051 4.90966 2.96209 0
M  V30 4975 N 490.547 6.00585 3.45354 0
M  V30 4976 N 492.34 4.78363 2.9517 0
M  V30 4977 H 484.491 2.11994 0.131301 0
M  V30 4978 H 486.754 0.940262 0.120879 0
M  V30 4979 H 486.46 3.36317 1.02878 0
M  V30 4980 H 486.334 2.68989 2.64433 0
M  V30 4981 H 488.721 1.73126 2.3898 0
M  V30 4982 H 488.802 2.43928 0.770241 0
M  V30 4983 H 488.446 4.75368 1.78852 0
M  V30 4984 H 488.376 4.01454 3.40796 0
M  V30 4985 H 490.867 3.12563 2.12397 0
M  V30 4986 H 491.18 6.72236 3.81207 0
M  V30 4987 H 489.525 6.04217 3.43434 0
M  V30 4988 H 492.716 3.91841 2.56082 0
M  V30 4989 H 492.889 5.55843 3.33081 0
M  V30 4990 N 486.295 -0.989507 1.22664 0
M  V30 4991 C 487.711 -1.25395 0.987331 0
M  V30 4992 C 487.911 -1.9899 -0.317056 0
M  V30 4993 O 486.967 -2.30141 -1.03882 0
M  V30 4994 C 488.28 -2.06242 2.18826 0
M  V30 4995 C 489.828 -2.19413 2.23219 0
M  V30 4996 C 490.303 -3.03648 3.42873 0
M  V30 4997 N 491.794 -3.11234 3.43056 0
M  V30 4998 C 492.529 -3.7671 4.32293 0
M  V30 4999 N 492.025 -4.44085 5.31752 0
M  V30 5000 N 493.818 -3.73505 4.2006 0
M  V30 5001 H 485.969 -0.496212 2.06522 0
M  V30 5002 H 488.232 -0.281784 0.905153 0
M  V30 5003 H 487.938 -1.59531 3.13437 0
M  V30 5004 H 487.812 -3.06996 2.19165 0
M  V30 5005 H 490.199 -2.65336 1.29154 0
M  V30 5006 H 490.28 -1.18078 2.26917 0
M  V30 5007 H 489.924 -2.58424 4.37241 0
M  V30 5008 H 489.854 -4.05132 3.36416 0
M  V30 5009 H 492.345 -2.63287 2.71088 0
M  V30 5010 H 492.658 -4.91797 5.96117 0
M  V30 5011 H 491.003 -4.42822 5.35662 0
M  V30 5012 H 494.194 -3.20033 3.41609 0
M  V30 5013 H 494.367 -4.24253 4.8981 0
M  V30 5014 N 487.773 -1.03688 -1.18687 0
M  V30 5015 C 488.736 -0.629115 -2.20397 0
M  V30 5016 C 489.736 0.311495 -1.57754 0
M  V30 5017 O 490.926 0.0974107 -1.73927 0
M  V30 5018 C 488.058 0.0782231 -3.4081 0
M  V30 5019 H 489.251 -1.52915 -2.57987 0
M  V30 5020 H 486.804 -0.828988 -1.32505 0
M  V30 5021 H 487.539 0.992233 -3.08748 0
M  V30 5022 H 487.324 -0.597776 -3.87517 0
M  V30 5023 H 488.814 0.350156 -4.16129 0
M  V30 5024 N 489.251 1.34841 -0.815825 0
M  V30 5025 C 490.479 2.0273 -0.413294 0
M  V30 5026 C 490.894 1.61459 0.978599 0
M  V30 5027 O 490.251 0.816584 1.63212 0
M  V30 5028 C 490.302 3.58058 -0.497676 0
M  V30 5029 O 490.023 3.97832 -1.8347 0
M  V30 5030 C 491.524 4.4321 -0.0891339 0
M  V30 5031 H 488.744 0.649956 -0.166728 0
M  V30 5032 H 491.288 1.72267 -1.10201 0
M  V30 5033 H 489.443 3.87136 0.142886 0
M  V30 5034 H 489.857 4.92501 -1.80396 0
M  V30 5035 H 491.331 5.5164 -0.199274 0
M  V30 5036 H 491.808 4.28432 0.966571 0
M  V30 5037 H 492.414 4.19446 -0.703214 0
M  V30 5038 N 490.729 0.570148 1.46925 0
M  V30 5039 C 491.692 -0.159933 2.28641 0
M  V30 5040 C 492.692 -0.830638 1.37685 0
M  V30 5041 O 493.882 -0.684516 1.60187 0
M  V30 5042 C 491.014 -1.2354 3.17727 0
M  V30 5043 H 492.207 0.558035 2.94662 0
M  V30 5044 H 489.76 0.327603 1.52828 0
M  V30 5045 H 490.495 -1.98535 2.56426 0
M  V30 5046 H 490.28 -0.759125 3.84681 0
M  V30 5047 H 491.77 -1.74782 3.79264 0
M  V30 5048 N 492.207 -1.54576 0.307264 0
M  V30 5049 C 493.117 -2.27435 -0.57536 0
M  V30 5050 C 494.133 -1.31183 -1.14311 0
M  V30 5051 O 495.309 -1.64175 -1.16656 0
M  V30 5052 C 492.374 -3.00566 -1.72803 0
M  V30 5053 C 491.435 -4.12369 -1.19373 0
M  V30 5054 C 490.668 -4.82003 -2.29147 0
M  V30 5055 O 490.891 -4.51038 -3.49171 0
M  V30 5056 O 489.825 -5.69271 -1.95485 0
M  V30 5057 H 493.651 -3.03696 0.0158558 0
M  V30 5058 H 491.236 -1.49219 0.0735064 0
M  V30 5059 H 493.118 -3.46416 -2.39946 0
M  V30 5060 H 491.793 -2.27195 -2.30574 0
M  V30 5061 H 490.7 -3.70905 -0.487851 0
M  V30 5062 H 492.033 -4.87736 -0.661376 0
M  V30 5063 N 493.685 -0.035106 -1.57561 0
M  V30 5064 C 494.91 0.655802 -1.96759 0
M  V30 5065 C 495.335 1.64523 -0.911809 0
M  V30 5066 O 494.693 1.80857 0.126673 0
M  V30 5067 C 494.741 1.33326 -3.35047 0
M  V30 5068 O 493.845 2.44866 -3.31835 0
M  V30 5069 H 493.186 0.171807 -0.641388 0
M  V30 5070 H 495.716 -0.0987369 -2.04362 0
M  V30 5071 H 495.726 1.68867 -3.71413 0
M  V30 5072 H 494.401 0.608033 -4.11431 0
M  V30 5073 H 492.978 2.11392 -3.07193 0
M  V30 5074 N 495.163 1.55791 0.238111 0
M  V30 5075 C 496.126 1.90239 1.27835 0
M  V30 5076 C 497.126 0.779552 1.4064 0
M  V30 5077 O 498.316 1.04747 1.3919 0
M  V30 5078 C 495.448 2.13859 2.65475 0
M  V30 5079 H 496.641 2.83262 0.985034 0
M  V30 5080 H 494.194 1.48818 0.477799 0
M  V30 5081 H 494.929 1.23334 2.99932 0
M  V30 5082 H 494.714 2.95643 2.57561 0
M  V30 5083 H 496.204 2.41664 3.40571 0
M  V30 5084 N 496.642 -0.504142 1.49319 0
M  V30 5085 C 497.867 -1.28729 1.62615 0
M  V30 5086 C 498.292 -1.85752 0.296309 0
M  V30 5087 O 497.65 -1.65704 -0.735649 0
M  V30 5088 C 497.698 -2.39561 2.69524 0
M  V30 5089 O 496.802 -3.43324 2.28478 0
M  V30 5090 H 496.143 -0.380172 0.544395 0
M  V30 5091 H 498.673 -0.603872 1.95485 0
M  V30 5092 H 498.683 -2.8537 2.91595 0
M  V30 5093 H 497.358 -1.97423 3.66056 0
M  V30 5094 H 495.935 -3.03455 2.16725 0
M  V30 5095 N 498.12 -1.38341 -0.754957 0
M  V30 5096 C 499.03 -1.3769 -1.89944 0
M  V30 5097 C 500.046 -0.274194 -1.71826 0
M  V30 5098 O 501.222 -0.512391 -1.94773 0
M  V30 5099 C 498.287 -1.19938 -3.25293 0
M  V30 5100 C 497.348 -2.40001 -3.55946 0
M  V30 5101 C 496.581 -2.23087 -4.84838 0
M  V30 5102 O 496.804 -1.22386 -5.57116 0
M  V30 5103 O 495.738 -3.11646 -5.14937 0
M  V30 5104 H 499.564 -2.3412 -1.93446 0
M  V30 5105 H 497.149 -1.19246 -0.900044 0
M  V30 5106 H 499.031 -1.12093 -4.06218 0
M  V30 5107 H 497.706 -0.265919 -3.22606 0
M  V30 5108 H 496.613 -2.53421 -2.75188 0
M  V30 5109 H 497.946 -3.31973 -3.63394 0
M  V30 5110 N 499.598 0.982988 -1.23187 0
M  V30 5111 C 500.838 1.73903 -1.07412 0
M  V30 5112 C 501.202 1.88146 0.382764 0
M  V30 5113 O 502.403 2.6053 0.661638 0
M  V30 5114 C 500.674 3.10105 -1.77678 0
M  V30 5115 S 502.233 4.01323 -1.77441 0
M  V30 5116 H 499.051 0.598093 -0.384456 0
M  V30 5117 H 501.653 1.17456 -1.56283 0
M  V30 5118 H 500.357 2.97388 -2.82822 0
M  V30 5119 H 499.888 3.71622 -1.29077 0
M  V30 5120 H 501.903 4.89189 -0.831162 0
M  V30 5121 N 501.076 1.04316 1.18135 0
M  V30 5122 C 502.006 0.657299 2.24058 0
M  V30 5123 C 502.987 -0.340678 1.66654 0
M  V30 5124 O 504.172 -0.220223 1.92947 0
M  V30 5125 C 501.302 0.0220715 3.47293 0
M  V30 5126 C 500.256 0.943857 4.17463 0
M  V30 5127 C 499.582 0.172973 5.3442 0
M  V30 5128 C 500.882 2.26409 4.70677 0
M  V30 5129 H 502.576 1.5428 2.56589 0
M  V30 5130 H 500.122 0.743263 1.23335 0
M  V30 5131 H 502.075 -0.259607 4.206 0
M  V30 5132 H 500.799 -0.898323 3.14003 0
M  V30 5133 H 499.458 1.20996 3.46057 0
M  V30 5134 H 499.106 -0.749907 4.97379 0
M  V30 5135 H 498.806 0.787098 5.82304 0
M  V30 5136 H 500.33 -0.101628 6.10515 0
M  V30 5137 H 501.744 2.04294 5.35665 0
M  V30 5138 H 500.141 2.8314 5.29105 0
M  V30 5139 H 501.211 2.90883 3.87962 0
M  V30 5140 N 502.554 -1.34406 0.822964 0
M  V30 5141 C 503.965 -1.8069 0.469879 0
M  V30 5142 C 504.316 -1.68223 -1.00972 0
M  V30 5143 O 503.441 -1.22226 -1.78577 0
M  V30 5144 C 504.036 -3.28064 0.846118 0
M  V30 5145 C 502.595 -3.72428 0.545402 0
M  V30 5146 C 501.742 -2.56116 1.06301 0
M  V30 5147 H 504.693 -1.22153 1.01313 0
M  V30 5148 H 504.714 -3.80205 0.149922 0
M  V30 5149 H 504.226 -3.37107 1.92304 0
M  V30 5150 H 502.327 -3.68924 -0.522109 0
M  V30 5151 H 502.44 -4.66548 1.0895 0
M  V30 5152 H 500.804 -2.50048 0.484554 0
M  V30 5153 H 501.587 -2.67928 2.14638 0
M  V30 5154 N 504.032 -0.577932 -1.46621 0
M  V30 5155 C 505.272 -0.0643097 -2.04299 0
M  V30 5156 C 505.636 1.26967 -1.44026 0
M  V30 5157 O 506.837 1.87224 -1.92875 0
M  V30 5158 C 505.108 0.00547588 -3.574 0
M  V30 5159 S 506.667 0.462216 -4.36359 0
M  V30 5160 H 503.485 -0.0351573 -0.71013 0
M  V30 5161 H 506.087 -0.76935 -1.79725 0
M  V30 5162 H 504.791 -0.969423 -3.98786 0
M  V30 5163 H 504.322 0.733435 -3.86503 0
M  V30 5164 H 506.337 1.71791 -4.65513 0
M  V30 5165 N 505.51 1.54411 -0.315457 0
M  V30 5166 C 506.787 1.92562 0.343398 0
M  V30 5167 C 507.167 1.24423 1.70535 0
M  V30 5168 O 506.515 0.385051 2.25232 0
M  V30 5169 C 506.725 3.46168 0.443687 0
M  V30 5170 C 508.073 4.18659 0.707783 0
M  V30 5171 O 509.097 3.52281 0.52693 0
M  V30 5172 O 507.956 5.36198 1.05612 0
M  V30 5173 H 505.05 0.80379 0.194552 0
M  V30 5174 H 507.596 1.65738 -0.364577 0
M  V30 5175 H 506.368 3.8792 -0.513172 0
M  V30 5176 H 505.991 3.79073 1.19956 0
M  V30 5177 N 506.988 0.0434614 1.5754 0
M  V30 5178 C 508.228 -0.636023 1.94253 0
M  V30 5179 C 508.592 -1.68461 0.921132 0
M  V30 5180 O 509.793 -2.41762 1.17494 0
M  V30 5181 C 508.064 -1.22357 3.35803 0
M  V30 5182 S 509.623 -1.92213 3.94461 0
M  V30 5183 H 506.441 -0.209041 0.679575 0
M  V30 5184 H 509.043 0.110556 1.95187 0
M  V30 5185 H 507.747 -0.448162 4.07946 0
M  V30 5186 H 507.278 -2.00713 3.38346 0
M  V30 5187 H 509.293 -3.20199 3.79061 0
M  V30 5188 N 508.466 -1.55915 -0.229846 0
M  V30 5189 C 509.414 -1.9258 -1.30444 0
M  V30 5190 C 510.408 -0.806839 -1.48951 0
M  V30 5191 O 511.614 -0.991606 -1.50224 0
M  V30 5192 H 507.989 -0.611878 -0.437161 0
M  V30 5193 H 509.96 -2.82264 -0.96797 0
M  V30 5194 C 508.709 -2.25171 -2.6494 0
M  V30 5195 H 508.032 -3.10782 -2.51504 0
M  V30 5196 H 509.472 -2.54716 -3.38963 0
M  V30 5197 C 507.931 -1.07394 -3.19324 0
M  V30 5198 O 508.461 -0.330759 -4.00336 0
M  V30 5199 N 506.667 -0.859984 -2.77584 0
M  V30 5200 H 506.214 -1.46605 -2.11813 0
M  V30 5201 H 506.172 -0.0736671 -3.14314 0
M  V30 5202 N 509.944 0.496216 -1.49584 0
M  V30 5203 C 511.192 1.24756 -1.58998 0
M  V30 5204 C 511.513 1.92968 -0.280775 0
M  V30 5205 O 510.783 1.82959 0.700198 0
M  V30 5206 H 509.363 0.463471 -0.585836 0
M  V30 5207 H 512.025 0.574678 -1.86235 0
M  V30 5208 H 511.121 2.00895 -2.38847 0
M  V30 5209 N 511.423 1.38739 0.74761 0
M  V30 5210 C 512.839 1.20067 1.05148 0
M  V30 5211 C 513.039 0.0534835 2.01429 0
M  V30 5212 O 512.095 -0.59886 2.45296 0
M  V30 5213 C 513.408 2.52957 1.62584 0
M  V30 5214 C 514.956 2.59692 1.74726 0
M  V30 5215 C 515.431 3.92772 2.35573 0
M  V30 5216 N 516.922 3.94343 2.42997 0
M  V30 5217 C 517.657 4.9408 2.90985 0
M  V30 5218 N 517.153 6.04214 3.38965 0
M  V30 5219 N 518.946 4.81466 2.9008 0
M  V30 5220 H 511.097 2.12121 0.108808 0
M  V30 5221 H 513.36 0.941491 0.110899 0
M  V30 5222 H 513.066 3.37389 0.993051 0
M  V30 5223 H 512.94 2.71779 2.61565 0
M  V30 5224 H 515.327 1.75651 2.3713 0
M  V30 5225 H 515.408 2.44731 0.744326 0
M  V30 5226 H 515.052 4.77238 1.738 0
M  V30 5227 H 514.982 4.05046 3.36519 0
M  V30 5228 H 517.473 3.14799 2.0907 0
M  V30 5229 H 517.786 6.76241 3.74056 0
M  V30 5230 H 516.131 6.07825 3.37007 0
M  V30 5231 H 519.322 3.94535 2.51912 0
M  V30 5232 H 519.495 5.59344 3.27166 0
M  V30 5233 N 512.901 -0.976442 1.23707 0
M  V30 5234 C 514.126 -1.75875 1.09922 0
M  V30 5235 C 514.551 -1.84911 -0.34489 0
M  V30 5236 O 513.909 -1.31363 -1.24954 0
M  V30 5237 C 513.957 -3.16179 1.73388 0
M  V30 5238 O 513.061 -4.00124 0.99871 0
M  V30 5239 H 512.402 -0.540954 0.385052 0
M  V30 5240 H 514.932 -1.22546 1.6384 0
M  V30 5241 H 514.942 -3.66741 1.78788 0
M  V30 5242 H 513.617 -3.08917 2.78466 0
M  V30 5243 H 512.194 -3.58624 1.02193 0
M  V30 5244 N 514.379 -1.04941 -1.1758 0
M  V30 5245 C 515.311 -0.606174 -2.21039 0
M  V30 5246 C 516.324 0.328763 -1.59446 0
M  V30 5247 O 517.513 0.121895 -1.78083 0
M  V30 5248 C 514.613 0.133294 -3.38638 0
M  V30 5249 C 513.786 -0.811711 -4.29802 0
M  V30 5250 C 512.845 -0.113958 -5.26077 0
M  V30 5251 O 511.871 -0.747237 -5.64274 0
M  V30 5252 N 513.073 1.14953 -5.69004 0
M  V30 5253 H 515.838 -1.49606 -2.59689 0
M  V30 5254 H 513.399 -0.930997 -1.32454 0
M  V30 5255 H 515.391 0.610144 -4.00074 0
M  V30 5256 H 513.961 0.924816 -2.98607 0
M  V30 5257 H 513.181 -1.46824 -3.65837 0
M  V30 5258 H 514.469 -1.45326 -4.87604 0
M  V30 5259 H 513.867 1.68441 -5.40041 0
M  V30 5260 H 512.424 1.57049 -6.32597 0
M  V30 5261 N 515.857 1.33968 -0.830081 0
M  V30 5262 C 516.767 2.33164 -0.259207 0
M  V30 5263 C 517.783 1.62951 0.610164 0
M  V30 5264 O 518.959 1.94668 0.516369 0
M  V30 5265 C 516.024 3.42088 0.563598 0
M  V30 5266 C 515.085 4.28037 -0.329014 0
M  V30 5267 C 514.318 5.3176 0.454616 0
M  V30 5268 O 514.541 5.44876 1.6872 0
M  V30 5269 O 513.475 6.01669 -0.166794 0
M  V30 5270 H 517.301 2.83832 -1.08041 0
M  V30 5271 H 514.886 1.37154 -0.59239 0
M  V30 5272 H 516.768 4.08581 1.03147 0
M  V30 5273 H 515.443 2.93651 1.36201 0
M  V30 5274 H 514.35 3.64443 -0.844538 0
M  V30 5275 H 515.683 4.79934 -1.09196 0
M  V30 5276 N 517.335 0.585699 1.46312 0
M  V30 5277 C 518.575 0.0751432 2.04262 0
M  V30 5278 C 518.939 -1.26201 1.44697 0
M  V30 5279 O 520.14 -1.86198 1.93865 0
M  V30 5280 C 518.411 0.013478 3.57397 0
M  V30 5281 S 519.97 -0.439068 4.36598 0
M  V30 5282 H 516.788 0.0389228 0.709934 0
M  V30 5283 H 519.39 0.778871 1.79315 0
M  V30 5284 H 518.094 0.990558 3.98266 0
M  V30 5285 H 517.625 -0.712927 3.86886 0
M  V30 5286 H 519.64 -1.6932 4.66417 0
M  V30 5287 N 518.813 -1.54241 0.323641 0
M  V30 5288 C 520.043 -2.04687 -0.280464 0
M  V30 5289 C 520.451 -1.19939 -1.46326 0
M  V30 5290 O 519.794 -0.222872 -1.82343 0
M  V30 5291 C 519.856 -3.50978 -0.778123 0
M  V30 5292 C 519.52 -4.56127 0.282371 0
M  V30 5293 C 520.517 -5.07726 1.11847 0
M  V30 5294 C 518.202 -5.00451 0.430582 0
M  V30 5295 C 520.196 -6.02212 2.08851 0
M  V30 5296 C 517.883 -5.94752 1.40404 0
M  V30 5297 C 518.881 -6.45519 2.23147 0
M  V30 5298 O 518.569 -7.37968 3.1884 0
M  V30 5299 H 518.301 -0.673192 -0.0615473 0
M  V30 5300 H 520.855 -1.99999 0.467921 0
M  V30 5301 H 519.085 -3.53064 -1.57742 0
M  V30 5302 H 520.774 -3.84499 -1.30058 0
M  V30 5303 H 521.54 -4.74261 1.01496 0
M  V30 5304 H 517.419 -4.6055 -0.203569 0
M  V30 5305 H 520.963 -6.41761 2.73474 0
M  V30 5306 H 516.86 -6.27633 1.5082 0
M  V30 5307 H 517.628 -7.55841 3.14079 0
M  V30 5308 N 520.291 -0.0518155 -1.57515 0
M  V30 5309 C 521.538 0.621823 -1.92716 0
M  V30 5310 C 521.866 1.70813 -0.930229 0
M  V30 5311 O 521.121 1.95616 0.0573708 0
M  V30 5312 C 521.42 1.25607 -3.34601 0
M  V30 5313 C 521.086 0.297901 -4.49915 0
M  V30 5314 C 519.748 0.034243 -4.81188 0
M  V30 5315 C 522.1 -0.358738 -5.19964 0
M  V30 5316 C 519.428 -0.893479 -5.79857 0
M  V30 5317 C 521.78 -1.27466 -6.19625 0
M  V30 5318 C 520.444 -1.54698 -6.49326 0
M  V30 5319 H 519.714 0.227541 -0.705199 0
M  V30 5320 H 522.361 -0.118432 -1.91133 0
M  V30 5321 H 520.666 2.07161 -3.32553 0
M  V30 5322 H 522.363 1.78424 -3.59118 0
M  V30 5323 H 518.953 0.513581 -4.25512 0
M  V30 5324 H 523.137 -0.168133 -4.96015 0
M  V30 5325 H 518.393 -1.11193 -6.01204 0
M  V30 5326 H 522.567 -1.78953 -6.73015 0
M  V30 5327 H 520.194 -2.26748 -7.25596 0
M  V30 5328 N 521.769 1.56035 0.221574 0
M  V30 5329 C 523.046 1.69837 0.970301 0
M  V30 5330 C 523.426 0.599065 2.02421 0
M  V30 5331 O 522.774 -0.393929 2.25079 0
M  V30 5332 C 522.984 3.11148 1.58076 0
M  V30 5333 C 524.332 3.70555 2.07302 0
M  V30 5334 O 525.356 3.14109 1.6797 0
M  V30 5335 O 524.215 4.69562 2.79596 0
M  V30 5336 H 521.309 0.691727 0.453257 0
M  V30 5337 H 523.855 1.68353 0.213358 0
M  V30 5338 H 522.627 3.82617 0.819759 0
M  V30 5339 H 522.25 3.16749 2.40324 0
M  V30 5340 N 523.247 -0.488276 1.49845 0
M  V30 5341 C 524.658 -1.06955 1.53028 0
M  V30 5342 C 525.009 -1.9351 0.323797 0
M  V30 5343 O 524.134 -2.08891 -0.565116 0
M  V30 5344 C 524.729 -1.94643 2.77307 0
M  V30 5345 C 523.288 -2.4791 2.83227 0
M  V30 5346 C 522.435 -1.25833 2.47106 0
M  V30 5347 H 525.386 -0.271626 1.56358 0
M  V30 5348 H 525.407 -2.79496 2.5819 0
M  V30 5349 H 524.919 -1.31621 3.65099 0
M  V30 5350 H 523.02 -3.14535 1.99745 0
M  V30 5351 H 523.133 -2.84193 3.85709 0
M  V30 5352 H 521.497 -1.58764 1.99163 0
M  V30 5353 H 522.28 -0.644993 3.37186 0
M  V30 5354 N 524.725 -1.39134 -0.740242 0
M  V30 5355 C 525.635 -1.39697 -1.88473 0
M  V30 5356 C 526.651 -0.292403 -1.71526 0
M  V30 5357 O 527.827 -0.533021 -1.94219 0
M  V30 5358 C 524.892 -1.23382 -3.24003 0
M  V30 5359 C 523.953 -2.43763 -3.53381 0
M  V30 5360 C 523.186 -2.28216 -4.82445 0
M  V30 5361 O 523.409 -1.28288 -5.55786 0
M  V30 5362 O 522.343 -3.1709 -5.11603 0
M  V30 5363 H 526.169 -2.36159 -1.90952 0
M  V30 5364 H 523.754 -1.20194 -0.887346 0
M  V30 5365 H 525.636 -1.16395 -4.05006 0
M  V30 5366 H 524.311 -0.300121 -3.22306 0
M  V30 5367 H 523.218 -2.56325 -2.72485 0
M  V30 5368 H 524.551 -3.35808 -3.59852 0
M  V30 5369 N 526.204 0.969867 -1.24223 0
M  V30 5370 C 527.134 2.08191 -1.05729 0
M  V30 5371 C 528.115 1.70075 0.0290765 0
M  V30 5372 O 529.3 1.93712 -0.137583 0
M  V30 5373 C 526.43 3.40991 -0.658995 0
M  V30 5374 C 525.384 3.93054 -1.69389 0
M  V30 5375 C 524.71 5.22171 -1.15072 0
M  V30 5376 C 526.01 4.21137 -3.08935 0
M  V30 5377 H 527.704 2.23921 -1.98746 0
M  V30 5378 H 525.25 1.07602 -0.956967 0
M  V30 5379 H 527.203 4.18221 -0.51662 0
M  V30 5380 H 525.927 3.25155 0.30686 0
M  V30 5381 H 524.586 3.17977 -1.82444 0
M  V30 5382 H 524.234 5.02694 -0.175539 0
M  V30 5383 H 523.934 5.57973 -1.84229 0
M  V30 5384 H 525.458 6.02013 -1.02042 0
M  V30 5385 H 526.872 4.8908 -2.99121 0
M  V30 5386 H 525.269 4.68163 -3.75425 0
M  V30 5387 H 526.339 3.27996 -3.57137 0
M  V30 5388 N 527.682 1.05563 1.17022 0
M  V30 5389 C 528.912 0.787307 1.91011 0
M  V30 5390 C 529.32 -0.661256 1.77268 0
M  V30 5391 O 528.663 -1.46379 1.10991 0
M  V30 5392 C 528.725 1.09313 3.42478 0
M  V30 5393 C 528.389 2.53863 3.80004 0
M  V30 5394 C 529.386 3.52081 3.82538 0
M  V30 5395 C 527.071 2.88969 4.10855 0
M  V30 5396 C 529.065 4.83449 4.15399 0
M  V30 5397 C 526.752 4.2054 4.43384 0
M  V30 5398 C 527.75 5.17589 4.45635 0
M  V30 5399 O 527.438 6.46799 4.77395 0
M  V30 5400 H 527.17 0.285463 0.61277 0
M  V30 5401 H 529.724 1.41051 1.49311 0
M  V30 5402 H 527.954 0.412833 3.8449 0
M  V30 5403 H 529.643 0.810224 3.97731 0
M  V30 5404 H 530.409 3.26299 3.58823 0
M  V30 5405 H 526.288 2.1409 4.08272 0
M  V30 5406 H 529.832 5.59194 4.1707 0
M  V30 5407 H 525.729 4.46083 4.66563 0
M  V30 5408 H 526.497 6.51677 4.95237 0
M  V30 5409 N 529.16 -1.33526 0.837174 0
M  V30 5410 C 530.576 -1.50727 0.524743 0
M  V30 5411 C 530.776 -1.77792 -0.948279 0
M  V30 5412 O 529.832 -1.83719 -1.73216 0
M  V30 5413 C 531.145 -2.66299 1.39661 0
M  V30 5414 C 532.693 -2.80183 1.39521 0
M  V30 5415 C 533.168 -3.98815 2.25189 0
M  V30 5416 N 534.659 -4.06047 2.2289 0
M  V30 5417 C 535.394 -4.97032 2.85915 0
M  V30 5418 N 534.89 -5.93143 3.57985 0
M  V30 5419 N 536.683 -4.90015 2.75394 0
M  V30 5420 H 528.834 -1.1422 1.79074 0
M  V30 5421 H 531.097 -0.561399 0.763894 0
M  V30 5422 H 530.803 -2.52974 2.4433 0
M  V30 5423 H 530.677 -3.61663 1.07145 0
M  V30 5424 H 533.064 -2.92942 0.356253 0
M  V30 5425 H 533.145 -1.85586 1.76044 0
M  V30 5426 H 532.789 -3.86817 3.29143 0
M  V30 5427 H 532.719 -4.92654 1.86009 0
M  V30 5428 H 535.21 -3.37262 1.70478 0
M  V30 5429 H 535.523 -6.59227 4.03286 0
M  V30 5430 H 533.868 -5.93223 3.62093 0
M  V30 5431 H 537.059 -4.13894 2.18654 0
M  V30 5432 H 537.232 -5.60724 3.24796 0
M  V30 5433 N 530.638 -0.59345 -1.46 0
M  V30 5434 C 531.863 -0.0872365 -2.07216 0
M  V30 5435 C 532.288 1.2131 -1.43755 0
M  V30 5436 O 531.646 1.73528 -0.525152 0
M  V30 5437 C 531.694 0.0538197 -3.6056 0
M  V30 5438 O 530.798 1.10765 -3.97247 0
M  V30 5439 H 530.139 -0.0676598 -0.660544 0
M  V30 5440 H 532.669 -0.819445 -1.87473 0
M  V30 5441 H 532.679 0.256567 -4.07193 0
M  V30 5442 H 531.354 -0.895739 -4.0614 0
M  V30 5443 H 529.931 0.882501 -3.62307 0
M  V30 5444 N 532.116 1.54067 -0.331816 0
M  V30 5445 C 533.344 2.05131 0.269996 0
M  V30 5446 C 533.759 1.20749 1.45138 0
M  V30 5447 O 533.116 0.240069 1.80914 0
M  V30 5448 C 533.167 3.54728 0.696456 0
M  V30 5449 O 532.888 4.35906 -0.43794 0
M  V30 5450 C 534.389 4.21916 1.36021 0
M  V30 5451 H 531.609 0.668807 0.0542042 0
M  V30 5452 H 534.153 1.98777 -0.4804 0
M  V30 5453 H 532.308 3.61342 1.39681 0
M  V30 5454 H 532.722 5.24404 -0.100334 0
M  V30 5455 H 534.196 5.28015 1.60947 0
M  V30 5456 H 534.673 3.73538 2.31011 0
M  V30 5457 H 535.279 4.19463 0.702212 0
M  V30 5458 N 533.594 0.0601682 1.57485 0
M  V30 5459 C 534.842 -0.610386 1.92662 0
M  V30 5460 C 535.163 -1.70849 0.939981 0
M  V30 5461 O 534.433 -1.95895 -0.0137455 0
M  V30 5462 H 533.013 -0.228457 0.711208 0
M  V30 5463 H 535.675 0.115288 1.94559 0
M  V30 5464 H 534.771 -1.0432 2.94149 0
M  V30 5465 N 535.072 -1.5615 -0.213296 0
M  V30 5466 C 536.022 -1.89485 -1.26804 0
M  V30 5467 C 537.006 -0.758713 -1.41889 0
M  V30 5468 O 538.198 -1.02127 -1.44565 0
M  V30 5469 C 535.327 -2.22219 -2.61675 0
M  V30 5470 C 534.413 -3.42245 -2.50458 0
M  V30 5471 N 534.804 -4.60645 -2.089 0
M  V30 5472 C 533.102 -3.46023 -2.81397 0
M  V30 5473 C 533.803 -5.42805 -2.09135 0
M  V30 5474 N 532.779 -4.82732 -2.49941 0
M  V30 5475 H 536.581 -2.78537 -0.937771 0
M  V30 5476 H 534.095 -1.56826 -0.421824 0
M  V30 5477 H 536.092 -2.44278 -3.37837 0
M  V30 5478 H 534.752 -1.34484 -2.95541 0
M  V30 5479 H 535.763 -4.85651 -1.79899 0
M  V30 5480 H 532.44 -2.68654 -3.1958 0
M  V30 5481 H 533.83 -6.47601 -1.79059 0
M  V30 5482 N 536.55 0.480323 -1.50102 0
M  V30 5483 C 537.798 1.23063 -1.60312 0
M  V30 5484 C 538.119 1.92659 -0.301226 0
M  V30 5485 O 537.389 1.83691 0.680753 0
M  V30 5486 H 535.969 0.457231 -0.590719 0
M  V30 5487 H 538.631 0.554893 -1.86834 0
M  V30 5488 H 537.727 1.9835 -2.40964 0
M  V30 5489 N 538.028 1.39524 0.732853 0
M  V30 5490 C 539.276 1.36594 1.48951 0
M  V30 5491 C 539.597 -0.0367507 1.94965 0
M  V30 5492 O 538.867 -0.988391 1.69138 0
M  V30 5493 H 537.447 0.502673 0.552566 0
M  V30 5494 H 540.109 1.74411 0.869869 0
M  V30 5495 H 539.205 2.03 2.3706 0
M  V30 5496 N 539.506 -0.963266 1.24736 0
M  V30 5497 C 540.456 -2.0438 1.01058 0
M  V30 5498 C 541.44 -1.60824 -0.0495354 0
M  V30 5499 O 542.632 -1.76232 0.164741 0
M  V30 5500 C 539.761 -3.37617 0.622067 0
M  V30 5501 C 538.847 -3.87722 1.7185 0
M  V30 5502 N 539.238 -4.10715 2.95207 0
M  V30 5503 C 537.536 -4.16426 1.59703 0
M  V30 5504 C 538.237 -4.51872 3.66315 0
M  V30 5505 N 537.213 -4.57302 2.93897 0
M  V30 5506 H 541.015 -2.20138 1.94721 0
M  V30 5507 H 538.529 -1.14741 1.14927 0
M  V30 5508 H 540.526 -4.14638 0.43366 0
M  V30 5509 H 539.186 -3.23242 -0.307327 0
M  V30 5510 H 540.197 -3.98037 3.31341 0
M  V30 5511 H 536.874 -4.10962 0.73598 0
M  V30 5512 H 538.264 -4.78037 4.72155 0
M  V30 5513 N 540.985 -1.06182 -1.16461 0
M  V30 5514 C 542.225 -0.787048 -1.8864 0
M  V30 5515 C 542.589 0.674093 -1.79778 0
M  V30 5516 O 543.79 1.06341 -2.46871 0
M  V30 5517 C 542.061 -1.2666 -3.34203 0
M  V30 5518 S 543.62 -1.12071 -4.24247 0
M  V30 5519 H 540.438 -0.285539 -0.651144 0
M  V30 5520 H 543.04 -1.35851 -1.40587 0
M  V30 5521 H 541.744 -2.32496 -3.38192 0
M  V30 5522 H 541.275 -0.689841 -3.87304 0
M  V30 5523 H 543.29 -0.0509341 -4.96174 0
M  V30 5524 N 542.463 1.3308 -0.844243 0
M  V30 5525 C 543.691 2.01808 -0.456203 0
M  V30 5526 C 544.106 1.63498 0.944131 0
M  V30 5527 O 543.463 0.85102 1.61443 0
M  V30 5528 C 543.514 3.56922 -0.573513 0
M  V30 5529 O 543.235 3.93851 -1.91868 0
M  V30 5530 C 544.736 4.42922 -0.183125 0
M  V30 5531 H 541.956 0.646273 -0.180477 0
M  V30 5532 H 544.5 1.69891 -1.1383 0
M  V30 5533 H 542.655 3.87352 0.0607367 0
M  V30 5534 H 543.069 4.88564 -1.90802 0
M  V30 5535 H 544.543 5.51093 -0.316241 0
M  V30 5536 H 545.02 4.30386 0.875477 0
M  V30 5537 H 545.626 4.1786 -0.792027 0
M  V30 5538 N 543.941 0.601185 1.45683 0
M  V30 5539 C 544.889 -0.133955 2.32214 0
M  V30 5540 C 545.883 -0.866034 1.45589 0
M  V30 5541 O 547.089 -0.782326 1.6211 0
M  V30 5542 H 543.464 -0.0620613 0.749435 0
M  V30 5543 H 545.435 0.614389 2.92007 0
M  V30 5544 C 544.184 -1.12216 3.29094 0
M  V30 5545 H 543.507 -0.568273 3.95741 0
M  V30 5546 H 544.947 -1.60659 3.92383 0
M  V30 5547 C 543.406 -2.19251 2.55794 0
M  V30 5548 O 543.936 -3.26894 2.33459 0
M  V30 5549 N 542.142 -1.9436 2.16039 0
M  V30 5550 H 541.689 -1.06829 2.34404 0
M  V30 5551 H 541.647 -2.66181 1.67318 0
M  V30 5552 N 545.419 -1.53889 0.339982 0
M  V30 5553 C 546.659 -2.02765 -0.258011 0
M  V30 5554 C 547.023 -1.22249 -1.48051 0
M  V30 5555 O 548.224 -1.61007 -2.15245 0
M  V30 5556 C 546.495 -3.5286 -0.567872 0
M  V30 5557 S 548.054 -4.23647 -1.14318 0
M  V30 5558 H 544.872 -0.706814 -0.0770389 0
M  V30 5559 H 547.474 -1.89594 0.476917 0
M  V30 5560 H 546.178 -4.09073 0.329745 0
M  V30 5561 H 545.709 -3.70144 -1.33256 0
M  V30 5562 H 547.724 -4.32676 -2.42911 0
M  V30 5563 N 546.897 -0.0685191 -1.57451 0
M  V30 5564 C 547.829 0.929372 -2.09512 0
M  V30 5565 C 548.842 1.26354 -1.02657 0
M  V30 5566 O 550.031 1.2213 -1.30179 0
M  V30 5567 C 547.131 2.24612 -2.53777 0
M  V30 5568 C 546.304 2.09128 -3.84167 0
M  V30 5569 C 545.363 3.24079 -4.14559 0
M  V30 5570 O 544.389 2.99215 -4.8421 0
M  V30 5571 N 545.591 4.49077 -3.67845 0
M  V30 5572 H 548.356 0.484901 -2.95751 0
M  V30 5573 H 545.917 0.11729 -1.61475 0
M  V30 5574 H 547.909 3.00412 -2.71172 0
M  V30 5575 H 546.479 2.60569 -1.72692 0
M  V30 5576 H 545.699 1.17815 -3.76182 0
M  V30 5577 H 546.987 1.9603 -4.69521 0
M  V30 5578 H 546.385 4.72165 -3.11571 0
M  V30 5579 H 544.942 5.21915 -3.90446 0
M  V30 5580 N 548.375 1.56261 0.205012 0
M  V30 5581 C 549.652 1.70856 0.952233 0
M  V30 5582 C 550.032 0.620501 2.01775 0
M  V30 5583 O 549.38 -0.370035 2.25484 0
M  V30 5584 C 549.59 3.12807 1.54767 0
M  V30 5585 C 550.938 3.72733 2.0336 0
M  V30 5586 O 551.962 3.15873 1.64629 0
M  V30 5587 O 550.821 4.72501 2.746 0
M  V30 5588 H 547.915 0.696496 0.445895 0
M  V30 5589 H 550.461 1.6857 0.195489 0
M  V30 5590 H 549.233 3.83465 0.779132 0
M  V30 5591 H 548.856 3.1928 2.36951 0
M  V30 5592 N 549.853 -0.472356 1.50355 0
M  V30 5593 C 550.801 -1.59126 1.69651 0
M  V30 5594 C 551.795 -1.59793 0.56237 0
M  V30 5595 O 553.001 -1.63957 0.742832 0
M  V30 5596 H 549.376 -0.528008 0.535454 0
M  V30 5597 H 551.347 -1.40013 2.63513 0
M  V30 5598 C 550.096 -2.97075 1.8067 0
M  V30 5599 H 549.419 -2.9728 2.67329 0
M  V30 5600 H 550.859 -3.74825 1.98197 0
M  V30 5601 C 549.318 -3.32247 0.558016 0
M  V30 5602 O 549.848 -4.00553 -0.303399 0
M  V30 5603 N 548.054 -2.87659 0.412415 0
M  V30 5604 H 547.601 -2.32246 1.11443 0
M  V30 5605 H 547.559 -3.11556 -0.421908 0
M  V30 5606 N 551.331 -1.39911 -0.725443 0
M  V30 5607 C 552.559 -1.40949 -1.51463 0
M  V30 5608 C 552.974 -0.0065242 -1.88799 0
M  V30 5609 O 552.331 0.967163 -1.54765 0
M  V30 5610 C 552.382 -2.29119 -2.79619 0
M  V30 5611 O 552.103 -3.63952 -2.43866 0
M  V30 5612 C 553.604 -2.38642 -3.73584 0
M  V30 5613 H 550.824 -0.481091 -0.467752 0
M  V30 5614 H 553.368 -1.83843 -0.895651 0
M  V30 5615 H 551.523 -1.89612 -3.37826 0
M  V30 5616 H 551.937 -4.10677 -3.26258 0
M  V30 5617 H 553.411 -3.04563 -4.60375 0
M  V30 5618 H 553.888 -1.40846 -4.16004 0
M  V30 5619 H 554.494 -2.78659 -3.21293 0
M  V30 5620 N 552.809 0.956637 -1.25245 0
M  V30 5621 C 554.086 1.67716 -1.00651 0
M  V30 5622 C 554.466 2.0585 0.467866 0
M  V30 5623 O 553.814 1.77029 1.44475 0
M  V30 5624 C 554.024 2.90093 -1.94028 0
M  V30 5625 C 555.372 3.6209 -2.21756 0
M  V30 5626 O 556.396 3.00171 -1.9177 0
M  V30 5627 O 555.255 4.7358 -2.72735 0
M  V30 5628 H 552.349 0.733731 -0.381533 0
M  V30 5629 H 554.895 1.00974 -1.3639 0
M  V30 5630 H 553.667 2.58689 -2.93591 0
M  V30 5631 H 553.29 3.64566 -1.58674 0
M  V30 5632 N 554.287 1.06798 1.15896 0
M  V30 5633 C 555.535 0.786211 1.8618 0
M  V30 5634 C 555.856 -0.689547 1.82401 0
M  V30 5635 O 555.126 -1.49913 1.26107 0
M  V30 5636 H 553.706 0.287843 0.689315 0
M  V30 5637 H 556.368 1.35055 1.40521 0
M  V30 5638 H 555.464 1.1157 2.91477 0
M  V30 5639 N 555.766 -1.3263 0.851289 0
M  V30 5640 C 556.729 -2.27247 0.298541 0
M  V30 5641 C 557.729 -1.51467 -0.539847 0
M  V30 5642 O 558.919 -1.7061 -0.351843 0
M  V30 5643 C 556.051 -3.35964 -0.578004 0
M  V30 5644 H 557.244 -2.7765 1.13359 0
M  V30 5645 H 554.797 -1.43245 0.625354 0
M  V30 5646 H 555.532 -2.90823 -1.435 0
M  V30 5647 H 555.317 -3.92094 0.0220539 0
M  V30 5648 H 556.807 -4.06472 -0.957626 0
M  V30 5649 N 557.244 -0.608902 -1.45362 0
M  V30 5650 C 558.194 0.130616 -2.27626 0
M  V30 5651 C 559.178 0.837323 -1.37396 0
M  V30 5652 O 560.37 0.727096 -1.61376 0
M  V30 5653 C 557.499 1.12646 -3.24293 0
M  V30 5654 C 556.585 0.42052 -4.2201 0
M  V30 5655 N 556.976 -0.538569 -5.02925 0
M  V30 5656 C 555.274 0.667901 -4.40971 0
M  V30 5657 C 555.975 -0.953625 -5.7383 0
M  V30 5658 N 554.951 -0.297097 -5.42788 0
M  V30 5659 H 558.753 -0.605996 -2.87585 0
M  V30 5660 H 556.267 -0.432672 -1.5653 0
M  V30 5661 H 558.264 1.67066 -3.81961 0
M  V30 5662 H 556.924 1.86361 -2.65894 0
M  V30 5663 H 557.935 -0.915375 -5.09746 0
M  V30 5664 H 554.612 1.38963 -3.93695 0
M  V30 5665 H 556.002 -1.74473 -6.48852 0
M  V30 5666 N 558.722 1.53707 -0.348139 0
M  V30 5667 C 559.962 2.02899 0.247254 0
M  V30 5668 C 560.326 1.23033 1.47401 0
M  V30 5669 O 561.527 1.62146 2.14388 0
M  V30 5670 C 559.798 3.53156 0.549151 0
M  V30 5671 S 561.357 4.24247 1.1207 0
M  V30 5672 H 558.175 0.707213 0.0732894 0
M  V30 5673 H 560.777 1.89338 -0.486965 0
M  V30 5674 H 559.481 4.08893 -0.351435 0
M  V30 5675 H 559.012 3.70845 1.31291 0
M  V30 5676 H 561.027 4.33958 2.40613 0
M  V30 5677 N 560.2 0.0768682 1.57412 0
M  V30 5678 C 561.11 -0.903207 2.16516 0
M  V30 5679 C 562.126 -1.32341 1.12968 0
M  V30 5680 O 563.302 -1.39507 1.45258 0
M  V30 5681 C 560.367 -2.1508 2.71922 0
M  V30 5682 C 559.428 -1.78653 3.90361 0
M  V30 5683 C 558.661 -2.97465 4.43114 0
M  V30 5684 O 558.884 -4.11638 3.94854 0
M  V30 5685 O 557.818 -2.76987 5.3438 0
M  V30 5686 H 561.644 -0.430427 3.00634 0
M  V30 5687 H 559.229 -0.146485 1.4868 0
M  V30 5688 H 561.111 -2.8823 3.07411 0
M  V30 5689 H 559.786 -2.61446 1.9086 0
M  V30 5690 H 558.693 -1.0274 3.59716 0
M  V30 5691 H 560.026 -1.37066 4.7273 0
M  V30 5692 N 561.678 -1.56367 -0.196722 0
M  V30 5693 C 563.094 -1.49916 -0.54749 0
M  V30 5694 C 563.294 -0.77659 -1.85934 0
M  V30 5695 O 562.35 -0.32644 -2.50381 0
M  V30 5696 C 563.663 -2.94577 -0.603734 0
M  V30 5697 C 565.211 -3.05239 -0.692677 0
M  V30 5698 C 565.686 -4.51308 -0.780046 0
M  V30 5699 N 567.177 -4.55453 -0.843616 0
M  V30 5700 C 567.912 -5.65786 -0.931358 0
M  V30 5701 N 567.408 -6.85812 -0.981503 0
M  V30 5702 N 569.201 -5.53695 -0.968421 0
M  V30 5703 H 561.352 -2.01761 0.663803 0
M  V30 5704 H 563.615 -0.918094 0.236238 0
M  V30 5705 H 563.321 -3.50494 0.29105 0
M  V30 5706 H 563.195 -3.47841 -1.45898 0
M  V30 5707 H 565.582 -2.49372 -1.57789 0
M  V30 5708 H 565.663 -2.55103 0.188736 0
M  V30 5709 H 565.307 -5.078 0.100811 0
M  V30 5710 H 565.237 -4.99176 -1.67724 0
M  V30 5711 H 567.728 -3.69025 -0.814176 0
M  V30 5712 H 568.041 -7.65648 -1.04892 0
M  V30 5713 H 566.386 -6.88474 -0.950208 0
M  V30 5714 H 569.577 -4.58848 -0.926072 0
M  V30 5715 H 569.75 -6.39708 -1.03334 0
M  V30 5716 N 563.156 0.464375 -1.50603 0
M  V30 5717 C 564.396 1.22573 -1.6357 0
M  V30 5718 C 564.76 1.89111 -0.331834 0
M  V30 5719 O 565.961 2.66679 -0.336999 0
M  V30 5720 C 564.232 2.23643 -2.7878 0
M  V30 5721 S 565.791 3.08628 -3.1192 0
M  V30 5722 H 562.609 0.416058 -0.576556 0
M  V30 5723 H 565.211 0.521637 -1.88412 0
M  V30 5724 H 563.915 1.73354 -3.7199 0
M  V30 5725 H 563.446 2.98672 -2.56044 0
M  V30 5726 H 565.461 4.24904 -2.56264 0
M  V30 5727 N 564.634 1.40294 0.718013 0
M  V30 5728 C 566.05 1.2227 1.02577 0
M  V30 5729 C 566.25 0.0961976 2.0127 0
M  V30 5730 O 565.306 -0.546695 2.46511 0
M  V30 5731 C 566.619 2.56348 1.57182 0
M  V30 5732 C 568.167 2.6334 1.69178 0
M  V30 5733 C 568.642 3.9768 2.27188 0
M  V30 5734 N 570.133 3.99409 2.34578 0
M  V30 5735 C 570.868 5.00141 2.8044 0
M  V30 5736 N 570.364 6.11268 3.26073 0
M  V30 5737 N 572.157 4.87511 2.79802 0
M  V30 5738 H 564.308 2.12304 0.0637899 0
M  V30 5739 H 566.571 0.943632 0.0909036 0
M  V30 5740 H 566.277 3.3942 0.921262 0
M  V30 5741 H 566.151 2.77266 2.55741 0
M  V30 5742 H 568.538 1.80641 2.33351 0
M  V30 5743 H 568.619 2.46255 0.692247 0
M  V30 5744 H 568.263 4.80817 1.63638 0
M  V30 5745 H 568.193 4.12093 3.27852 0
M  V30 5746 H 570.684 3.19162 2.02346 0
M  V30 5747 H 570.997 6.84023 3.59628 0
M  V30 5748 H 569.342 6.14837 3.24038 0
M  V30 5749 H 572.533 3.9979 2.43487 0
M  V30 5750 H 572.706 5.66158 3.15228 0
M  V30 5751 N 566.112 -0.949982 1.2575 0
M  V30 5752 C 567.022 -2.08109 1.08295 0
M  V30 5753 C 568.038 -1.7399 0.0188181 0
M  V30 5754 O 569.214 -2.00187 0.220724 0
M  V30 5755 C 566.279 -3.39383 0.708534 0
M  V30 5756 C 565.34 -3.8734 1.85111 0
M  V30 5757 C 564.573 -5.12349 1.49447 0
M  V30 5758 O 564.796 -5.6905 0.392212 0
M  V30 5759 O 563.73 -5.5513 2.32624 0
M  V30 5760 H 567.556 -2.25738 2.03165 0
M  V30 5761 H 565.141 -1.06545 1.04731 0
M  V30 5762 H 567.023 -4.18277 0.512061 0
M  V30 5763 H 565.698 -3.23013 -0.210854 0
M  V30 5764 H 564.605 -3.09429 2.10248 0
M  V30 5765 H 565.938 -4.08216 2.74991 0
M  V30 5766 N 567.59 -1.07411 -1.15328 0
M  V30 5767 C 568.538 -0.689316 -2.22151 0
M  V30 5768 C 569.532 0.300156 -1.6672 0
M  V30 5769 O 570.738 0.163804 -1.79253 0
M  V30 5770 H 567.113 -0.204834 -0.723566 0
M  V30 5771 H 569.084 -1.59988 -2.51886 0
M  V30 5772 C 567.833 -0.103848 -3.47545 0
M  V30 5773 H 567.156 -0.856367 -3.90521 0
M  V30 5774 H 568.596 0.127725 -4.23808 0
M  V30 5775 C 567.055 1.15563 -3.1646 0
M  V30 5776 O 567.585 2.242 -3.33312 0
M  V30 5777 N 565.791 1.06203 -2.70498 0
M  V30 5778 H 565.338 0.177933 -2.56985 0
M  V30 5779 H 565.296 1.90553 -2.50074 0
M  V30 5780 N 569.068 1.32177 -0.85831 0
M  V30 5781 C 570.315 1.97125 -0.463484 0
M  V30 5782 C 570.643 1.67907 0.981705 0
M  V30 5783 O 569.898 0.961717 1.70439 0
M  V30 5784 C 570.197 3.51372 -0.653658 0
M  V30 5785 C 569.863 4.00584 -2.06987 0
M  V30 5786 C 568.525 4.13733 -2.4572 0
M  V30 5787 C 570.877 4.26624 -2.99402 0
M  V30 5788 C 568.205 4.50268 -3.76132 0
M  V30 5789 C 570.557 4.64618 -4.29316 0
M  V30 5790 C 569.221 4.75975 -4.67979 0
M  V30 5791 H 568.491 0.72133 -0.169601 0
M  V30 5792 H 571.138 1.57517 -1.08907 0
M  V30 5793 H 569.443 3.91761 0.0551328 0
M  V30 5794 H 571.14 3.99655 -0.328163 0
M  V30 5795 H 567.73 3.90837 -1.75911 0
M  V30 5796 H 571.914 4.1597 -2.70708 0
M  V30 5797 H 567.17 4.57256 -4.05865 0
M  V30 5798 H 571.344 4.83722 -5.00985 0
M  V30 5799 H 568.971 5.04041 -5.69076 0
M  V30 5800 N 570.547 0.616602 1.45037 0
M  V30 5801 C 571.794 0.115331 2.02171 0
M  V30 5802 C 572.122 -1.25748 1.48383 0
M  V30 5803 O 571.377 -1.84511 0.652229 0
M  V30 5804 C 571.676 0.0356829 3.57382 0
M  V30 5805 C 571.342 1.34535 4.30362 0
M  V30 5806 C 570.004 1.70408 4.50016 0
M  V30 5807 C 572.356 2.21049 4.72003 0
M  V30 5808 C 569.684 2.92529 5.0857 0
M  V30 5809 C 572.036 3.42427 5.31908 0
M  V30 5810 C 570.7 3.78541 5.49784 0
M  V30 5811 H 569.97 0.0422024 0.739797 0
M  V30 5812 H 572.617 0.80002 1.73988 0
M  V30 5813 H 570.922 -0.732314 3.84895 0
M  V30 5814 H 572.619 -0.368463 3.99304 0
M  V30 5815 H 569.209 1.05615 4.15383 0
M  V30 5816 H 573.393 1.94632 4.56544 0
M  V30 5817 H 568.649 3.20605 5.20598 0
M  V30 5818 H 572.823 4.09709 5.63127 0
M  V30 5819 H 570.45 4.73255 5.94923 0
M  V30 5820 N 572.025 -1.5352 0.356285 0
M  V30 5821 C 573.441 -1.59599 0.00485267 0
M  V30 5822 C 573.641 -1.37179 -1.47595 0
M  V30 5823 O 572.697 -1.17234 -2.23635 0
M  V30 5824 C 574.01 -2.97277 0.452454 0
M  V30 5825 C 575.558 -3.10357 0.405881 0
M  V30 5826 C 576.033 -4.50432 0.829148 0
M  V30 5827 N 577.524 -4.5652 0.783838 0
M  V30 5828 C 578.259 -5.63077 1.08315 0
M  V30 5829 N 577.755 -6.77429 1.45126 0
M  V30 5830 N 579.548 -5.53014 1.00655 0
M  V30 5831 H 571.699 -1.66346 1.32071 0
M  V30 5832 H 573.962 -0.77971 0.539218 0
M  V30 5833 H 573.668 -3.18792 1.48542 0
M  V30 5834 H 573.542 -3.76836 -0.165762 0
M  V30 5835 H 575.929 -2.88558 -0.617934 0
M  V30 5836 H 576.01 -2.32828 1.05947 0
M  V30 5837 H 575.654 -4.72968 1.85103 0
M  V30 5838 H 575.584 -5.26378 0.152906 0
M  V30 5839 H 578.075 -3.74408 0.512513 0
M  V30 5840 H 578.388 -7.54669 1.66415 0
M  V30 5841 H 576.733 -6.78844 1.48983 0
M  V30 5842 H 579.924 -4.62557 0.718215 0
M  V30 5843 H 580.097 -6.35964 1.24315 0
M  V30 5844 N 573.503 -0.0852151 -1.57369 0
M  V30 5845 C 574.433 0.874556 -2.16503 0
M  V30 5846 C 575.414 1.30111 -1.09568 0
M  V30 5847 O 576.599 1.36977 -1.37662 0
M  V30 5848 C 573.729 2.13731 -2.73745 0
M  V30 5849 C 572.683 1.84971 -3.85966 0
M  V30 5850 C 572.009 3.17991 -4.29867 0
M  V30 5851 C 573.309 1.14442 -5.09608 0
M  V30 5852 H 575.003 0.381899 -2.96954 0
M  V30 5853 H 572.549 0.18225 -1.42842 0
M  V30 5854 H 574.502 2.81302 -3.13763 0
M  V30 5855 H 573.226 2.65263 -1.90534 0
M  V30 5856 H 571.885 1.19801 -3.46473 0
M  V30 5857 H 571.533 3.6739 -3.4356 0
M  V30 5858 H 571.233 2.99534 -5.05523 0
M  V30 5859 H 572.757 3.86737 -4.72511 0
M  V30 5860 H 574.171 1.72105 -5.46857 0
M  V30 5861 H 572.568 1.06197 -5.90629 0
M  V30 5862 H 573.638 0.12559 -4.84737 0
M  V30 5863 N 574.981 1.5647 0.188427 0
M  V30 5864 C 576.229 1.80655 0.905986 0
M  V30 5865 C 576.55 0.659391 1.83513 0
M  V30 5866 O 575.82 -0.321868 1.93238 0
M  V30 5867 H 574.4 0.666391 0.337538 0
M  V30 5868 H 577.062 1.93949 0.192339 0
M  V30 5869 H 576.158 2.74066 1.49313 0
M  V30 5870 N 576.459 -0.456382 1.50847 0
M  V30 5871 C 577.407 -1.57318 1.71329 0
M  V30 5872 C 578.401 -1.59187 0.579287 0
M  V30 5873 O 579.607 -1.6316 0.76018 0
M  V30 5874 H 575.982 -0.5223 0.541024 0
M  V30 5875 H 577.953 -1.3721 2.64983 0
M  V30 5876 C 576.702 -2.95142 1.83811 0
M  V30 5877 H 576.025 -2.94428 2.70467 0
M  V30 5878 H 577.465 -3.72702 2.02161 0
M  V30 5879 C 575.924 -3.31636 0.593224 0
M  V30 5880 O 576.454 -4.00852 -0.260898 0
M  V30 5881 N 574.66 -2.87205 0.442902 0
M  V30 5882 H 574.207 -2.31051 1.13901 0
M  V30 5883 H 574.165 -3.11986 -0.38884 0
M  V30 5884 N 577.937 -1.40673 -0.710563 0
M  V30 5885 C 578.885 -1.41517 -1.84596 0
M  V30 5886 C 579.879 -0.295043 -1.66811 0
M  V30 5887 O 581.085 -0.466331 -1.73854 0
M  V30 5888 H 577.46 -0.442467 -0.608052 0
M  V30 5889 H 579.431 -2.37238 -1.80999 0
M  V30 5890 C 578.18 -1.29957 -3.225 0
M  V30 5891 H 577.503 -2.15429 -3.36794 0
M  V30 5892 H 578.943 -1.34608 -4.02066 0
M  V30 5893 C 577.402 -0.0103164 -3.36898 0
M  V30 5894 O 577.932 0.950707 -3.90288 0
M  V30 5895 N 576.138 0.0608409 -2.90536 0
M  V30 5896 H 575.685 -0.721943 -2.47277 0
M  V30 5897 H 575.643 0.92292 -3.00549 0
M  V30 5898 N 579.415 0.9433 -1.26252 0
M  V30 5899 C 580.325 2.07532 -1.09397 0
M  V30 5900 C 581.341 1.73977 -0.0280449 0
M  V30 5901 O 582.517 2.00067 -0.231337 0
M  V30 5902 C 579.582 3.39002 -0.726523 0
M  V30 5903 C 578.643 3.86353 -1.87163 0
M  V30 5904 C 577.876 5.11549 -1.52162 0
M  V30 5905 O 578.099 5.68834 -0.422385 0
M  V30 5906 O 577.033 5.53889 -2.35565 0
M  V30 5907 H 580.859 2.24658 -2.04359 0
M  V30 5908 H 578.444 1.05988 -1.05295 0
M  V30 5909 H 580.326 4.18 -0.534236 0
M  V30 5910 H 579.001 3.2312 0.193721 0
M  V30 5911 H 577.908 3.0831 -2.11886 0
M  V30 5912 H 579.241 4.06752 -2.77152 0
M  V30 5913 N 580.893 1.08022 1.14757 0
M  V30 5914 C 581.856 0.71048 2.1791 0
M  V30 5915 C 582.856 -0.252731 1.58801 0
M  V30 5916 O 584.046 -0.0327915 1.74169 0
M  V30 5917 C 581.178 0.0483203 3.40866 0
M  V30 5918 H 582.371 1.62384 2.52134 0
M  V30 5919 H 579.924 0.877595 1.29337 0
M  V30 5920 H 580.659 -0.876959 3.12218 0
M  V30 5921 H 580.444 0.741189 3.85031 0
M  V30 5922 H 581.934 -0.195471 4.17142 0
M  V30 5923 N 582.371 -1.3172 0.865308 0
M  V30 5924 C 583.611 -1.98675 0.480365 0
M  V30 5925 C 583.975 -1.66929 -0.948621 0
M  V30 5926 O 585.176 -2.27059 -1.43867 0
M  V30 5927 C 583.447 -3.49972 0.724858 0
M  V30 5928 S 585.006 -4.36598 0.439078 0
M  V30 5929 H 581.824 -0.687967 0.179506 0
M  V30 5930 H 584.426 -1.60215 1.12033 0
M  V30 5931 H 583.13 -3.70567 1.76375 0
M  V30 5932 H 582.661 -3.93335 0.0717173 0
M  V30 5933 H 584.676 -4.90792 -0.730564 0
M  V30 5934 N 583.85 -0.624285 -1.44708 0
M  V30 5935 C 585.075 -0.131171 -2.06985 0
M  V30 5936 C 585.5 1.18234 -1.46295 0
M  V30 5937 O 584.858 1.72375 -0.561842 0
M  V30 5938 C 584.906 -0.0226724 -3.60593 0
M  V30 5939 O 584.01 1.02314 -3.99507 0
M  V30 5940 H 583.351 -0.0816556 -0.65896 0
M  V30 5941 H 585.88 -0.859027 -1.85693 0
M  V30 5942 H 585.891 0.170138 -4.07645 0
M  V30 5943 H 584.566 -0.981685 -4.04148 0
M  V30 5944 H 583.143 0.805452 -3.64097 0
M  V30 5945 N 585.328 1.53329 -0.364422 0
M  V30 5946 C 586.553 2.06132 0.229033 0
M  V30 5947 C 586.978 1.23625 1.41769 0
M  V30 5948 O 586.336 0.255038 1.79497 0
M  V30 5949 C 586.384 3.55544 0.60174 0
M  V30 5950 O 585.488 3.75771 1.69912 0
M  V30 5951 H 584.829 0.663148 0.0336213 0
M  V30 5952 H 587.359 1.97758 -0.524689 0
M  V30 5953 H 587.369 3.98549 0.873073 0
M  V30 5954 H 586.044 4.15039 -0.267421 0
M  V30 5955 H 584.621 3.44663 1.42343 0
M  V30 5956 N 586.806 0.0935595 1.57322 0
M  V30 5957 C 588.046 -0.573901 1.96178 0
M  V30 5958 C 588.41 -1.65445 0.97426 0
M  V30 5959 O 589.611 -2.37901 1.25126 0
M  V30 5960 C 587.882 -1.11612 3.39526 0
M  V30 5961 S 589.441 -1.79566 4.00377 0
M  V30 5962 H 586.259 -0.187315 0.685882 0
M  V30 5963 H 588.861 0.172597 1.94737 0
M  V30 5964 H 587.565 -0.31815 4.09165 0
M  V30 5965 H 587.096 -1.89848 3.4456 0
M  V30 5966 H 589.111 -3.07978 3.89056 0
M  V30 5967 N 588.284 -1.56567 -0.180126 0
M  V30 5968 C 589.234 -1.92132 -1.22756 0
M  V30 5969 C 590.218 -0.788639 -1.40247 0
M  V30 5970 O 591.41 -1.05171 -1.42366 0
M  V30 5971 C 588.539 -2.27719 -2.56902 0
M  V30 5972 C 587.625 -3.47481 -2.43142 0
M  V30 5973 N 588.016 -4.64973 -1.99082 0
M  V30 5974 C 586.314 -3.51914 -2.73994 0
M  V30 5975 C 587.015 -5.47119 -1.97574 0
M  V30 5976 N 585.991 -4.87925 -2.39645 0
M  V30 5977 H 589.793 -2.80464 -0.878478 0
M  V30 5978 H 587.307 -1.57686 -0.388463 0
M  V30 5979 H 589.304 -2.51389 -3.32579 0
M  V30 5980 H 587.964 -1.40722 -2.92621 0
M  V30 5981 H 588.975 -4.89358 -1.69557 0
M  V30 5982 H 585.652 -2.75372 -3.13809 0
M  V30 5983 H 587.042 -6.51254 -1.65282 0
M  V30 5984 N 589.762 0.448376 -1.51087 0
M  V30 5985 C 591.002 1.20832 -1.64861 0
M  V30 5986 C 591.366 1.88748 -0.351873 0
M  V30 5987 O 592.567 2.66307 -0.365265 0
M  V30 5988 C 590.838 2.20674 -2.81137 0
M  V30 5989 S 592.397 3.05303 -3.15176 0
M  V30 5990 H 589.215 0.40992 -0.580936 0
M  V30 5991 H 591.817 0.501624 -1.88955 0
M  V30 5992 H 590.521 1.69399 -3.73808 0
M  V30 5993 H 590.052 2.9594 -2.59198 0
M  V30 5994 H 592.067 4.22162 -2.60756 0
M  V30 5995 N 591.24 1.41047 0.703093 0
M  V30 5996 C 592.465 1.43537 1.49706 0
M  V30 5997 C 592.89 0.0401853 1.88057 0
M  V30 5998 O 592.248 -0.954785 1.54122 0
M  V30 5999 C 592.296 2.3433 2.74084 0
M  V30 6000 O 591.4 1.79515 3.71279 0
M  V30 6001 H 590.741 0.487454 0.450871 0
M  V30 6002 H 593.271 1.85422 0.86486 0
M  V30 6003 H 593.281 2.49947 3.22476 0
M  V30 6004 H 591.956 3.35708 2.45506 0
M  V30 6005 H 590.533 1.7331 3.30179 0
M  V30 6006 N 592.718 -0.936591 1.26751 0
M  V30 6007 C 594.129 -1.49816 1.1141 0
M  V30 6008 C 594.48 -1.9383 -0.304015 0
M  V30 6009 O 593.605 -1.80346 -1.196 0
M  V30 6010 C 594.2 -2.72271 2.01629 0
M  V30 6011 C 592.759 -3.2468 1.9042 0
M  V30 6012 C 591.906 -1.97444 1.94708 0
M  V30 6013 H 594.857 -0.751604 1.39773 0
M  V30 6014 H 594.878 -3.46741 1.56688 0
M  V30 6015 H 594.39 -2.40205 3.04833 0
M  V30 6016 H 592.491 -3.61525 0.901674 0
M  V30 6017 H 592.604 -3.91476 2.76195 0
M  V30 6018 H 590.968 -2.13545 1.38818 0
M  V30 6019 H 591.751 -1.67703 2.9955 0
M  V30 6020 N 594.196 -1.08629 -1.14182 0
M  V30 6021 C 595.442 -0.818556 -1.85546 0
M  V30 6022 C 595.775 0.654076 -1.82854 0
M  V30 6023 O 595.05 1.48099 -1.26083 0
M  V30 6024 C 595.333 -1.34397 -3.3408 0
M  V30 6025 C 595.186 -2.8821 -3.45333 0
M  V30 6026 C 596.505 -0.971069 -4.29253 0
M  V30 6027 H 593.624 -0.298821 -0.673702 0
M  V30 6028 H 596.266 -1.34629 -1.34071 0
M  V30 6029 H 594.416 -0.895064 -3.78049 0
M  V30 6030 H 596.088 -3.41488 -3.10134 0
M  V30 6031 H 594.331 -3.25756 -2.86471 0
M  V30 6032 H 595.002 -3.20047 -4.49749 0
M  V30 6033 H 597.478 -1.35809 -3.93313 0
M  V30 6034 H 596.354 -1.36586 -5.31635 0
M  V30 6035 H 596.615 0.121659 -4.41933 0
M  V30 6036 N 595.674 1.31259 -0.872281 0
M  V30 6037 C 596.922 1.96233 -0.483409 0
M  V30 6038 C 597.243 1.69276 0.968012 0
M  V30 6039 O 596.513 1.00943 1.67891 0
M  V30 6040 H 595.093 0.726025 -0.175774 0
M  V30 6041 H 597.755 1.60024 -1.11258 0
M  V30 6042 H 596.851 3.05403 -0.643075 0
M  V30 6043 N 597.152 0.631951 1.44375 0
M  V30 6044 C 598.377 0.142146 2.06912 0
M  V30 6045 C 598.802 -1.17456 1.4692 0
M  V30 6046 O 598.16 -1.72074 0.570975 0
M  V30 6047 C 598.208 0.0417952 3.60576 0
M  V30 6048 O 597.312 -1.00194 4.00044 0
M  V30 6049 H 596.653 0.0851491 0.658518 0
M  V30 6050 H 599.183 0.868863 1.85235 0
M  V30 6051 H 599.193 -0.148517 4.0773 0
M  V30 6052 H 597.868 1.0031 4.03622 0
M  V30 6053 H 596.445 -0.786131 3.64519 0
M  V30 6054 N 598.631 -1.53133 0.372548 0
M  V30 6055 C 599.561 -2.28876 -0.462412 0
M  V30 6056 C 600.542 -1.31583 -1.07796 0
M  V30 6057 O 601.727 -1.60461 -1.09389 0
M  V30 6058 C 598.857 -3.08317 -1.59868 0
M  V30 6059 C 597.811 -4.13355 -1.11003 0
M  V30 6060 C 597.137 -4.8092 -2.33708 0
M  V30 6061 C 598.437 -5.21955 -0.18983 0
M  V30 6062 H 600.131 -2.9892 0.169511 0
M  V30 6063 H 597.677 -1.43761 0.0829658 0
M  V30 6064 H 599.63 -3.60055 -2.18949 0
M  V30 6065 H 598.354 -2.35976 -2.25794 0
M  V30 6066 H 597.013 -3.62573 -0.541869 0
M  V30 6067 H 596.661 -4.05144 -2.98106 0
M  V30 6068 H 596.361 -5.51904 -2.01682 0
M  V30 6069 H 597.885 -5.35455 -2.93462 0
M  V30 6070 H 599.299 -5.69153 -0.688319 0
M  V30 6071 H 597.696 -6.00087 0.0398887 0
M  V30 6072 H 598.766 -4.78811 0.766057 0
M  V30 6073 N 600.109 -0.101901 -1.5727 0
M  V30 6074 C 601.334 0.571759 -1.99363 0
M  V30 6075 C 601.759 1.60507 -0.980768 0
M  V30 6076 O 601.117 1.81231 0.0498517 0
M  V30 6077 C 601.165 1.18996 -3.404 0
M  V30 6078 O 600.269 2.30572 -3.41922 0
M  V30 6079 H 599.61 0.144449 -0.648098 0
M  V30 6080 H 602.14 -0.185325 -2.03759 0
M  V30 6081 H 602.15 1.52962 -3.78241 0
M  V30 6082 H 600.825 0.432984 -4.1364 0
M  V30 6083 H 599.402 1.98173 -3.15883 0
M  V30 6084 N 601.587 1.56661 0.17182 0
M  V30 6085 C 602.815 1.861 0.904115 0
M  V30 6086 C 603.23 0.687227 1.75848 0
M  V30 6087 O 602.587 -0.343671 1.79235 0
M  V30 6088 C 602.638 3.14568 1.78127 0
M  V30 6089 O 602.359 4.27422 0.961366 0
M  V30 6090 C 603.86 3.5735 2.62327 0
M  V30 6091 H 601.08 0.617445 0.262684 0
M  V30 6092 H 603.624 2.03775 0.172068 0
M  V30 6093 H 601.779 2.98721 2.46666 0
M  V30 6094 H 602.193 5.00725 1.56123 0
M  V30 6095 H 603.667 4.50144 3.1949 0
M  V30 6096 H 604.144 2.81445 3.37173 0
M  V30 6097 H 604.75 3.75807 1.99121 0
M  V30 6098 N 603.065 -0.440357 1.51323 0
M  V30 6099 C 603.997 -1.55254 1.68609 0
M  V30 6100 C 605.01 -1.52614 0.566812 0
M  V30 6101 O 606.199 -1.57445 0.841032 0
M  V30 6102 C 603.299 -2.94169 1.68279 0
M  V30 6103 C 602.472 -3.21346 2.96742 0
M  V30 6104 C 601.531 -4.3997 2.8864 0
M  V30 6105 O 600.557 -4.38771 3.62586 0
M  V30 6106 N 601.759 -5.43367 2.04285 0
M  V30 6107 H 604.524 -1.40831 2.6455 0
M  V30 6108 H 602.085 -0.629251 1.49171 0
M  V30 6109 H 604.077 -3.71543 1.60431 0
M  V30 6110 H 602.647 -3.02205 0.799441 0
M  V30 6111 H 601.867 -2.32299 3.18482 0
M  V30 6112 H 603.155 -3.3633 3.81785 0
M  V30 6113 H 602.553 -5.47176 1.43578 0
M  V30 6114 H 601.11 -6.19605 2.02318 0
M  V30 6115 N 604.543 -1.41418 -0.695603 0
M  V30 6116 C 605.783 -1.42241 -1.46788 0
M  V30 6117 C 606.147 -0.0300827 -1.91976 0
M  V30 6118 O 607.348 0.0868914 -2.6866 0
M  V30 6119 C 605.619 -2.4011 -2.6473 0
M  V30 6120 S 607.178 -2.59462 -3.53871 0
M  V30 6121 H 603.996 -0.503893 -0.50161 0
M  V30 6122 H 606.598 -1.77855 -0.811654 0
M  V30 6123 H 605.302 -3.40073 -2.29736 0
M  V30 6124 H 604.833 -2.05849 -3.35246 0
M  V30 6125 H 606.848 -1.862 -4.59939 0
M  V30 6126 N 606.021 0.929856 -1.27246 0
M  V30 6127 C 607.298 1.65544 -1.04186 0
M  V30 6128 C 607.678 2.06796 0.424097 0
M  V30 6129 O 607.026 1.80053 1.40688 0
M  V30 6130 C 607.236 2.85912 -2.00138 0
M  V30 6131 C 608.584 3.57305 -2.29387 0
M  V30 6132 O 609.608 2.96036 -1.98094 0
M  V30 6133 O 608.467 4.67688 -2.82719 0
M  V30 6134 H 605.561 0.725473 -0.397011 0
M  V30 6135 H 608.107 0.980583 -1.38501 0
M  V30 6136 H 606.879 2.52403 -2.99013 0
M  V30 6137 H 606.502 3.61118 -1.66371 0
M  V30 6138 N 607.499 1.09233 1.13605 0
M  V30 6139 C 608.724 0.849067 1.89224 0
M  V30 6140 C 609.149 -0.593875 1.78479 0
M  V30 6141 O 608.507 -1.41703 1.13092 0
M  V30 6142 C 608.555 1.28642 3.36873 0
M  V30 6143 O 607.659 0.44363 4.10007 0
M  V30 6144 H 607 0.30767 0.588417 0
M  V30 6145 H 609.53 1.45595 1.43748 0
M  V30 6146 H 609.54 1.27096 3.87699 0
M  V30 6147 H 608.215 2.33729 3.44011 0
M  V30 6148 H 606.792 0.523241 3.69211 0
M  V30 6149 N 608.977 -1.30795 0.87923 0
M  V30 6150 C 610.207 -2.00237 0.50881 0
M  V30 6151 C 610.615 -1.66115 -0.905682 0
M  V30 6152 O 609.958 -0.89138 -1.60624 0
M  V30 6153 C 610.02 -3.54508 0.597003 0
M  V30 6154 C 609.684 -4.12131 1.97477 0
M  V30 6155 C 610.681 -4.28552 2.94346 0
M  V30 6156 C 608.366 -4.47644 2.2786 0
M  V30 6157 C 610.36 -4.79689 4.19735 0
M  V30 6158 C 608.047 -4.98481 3.53496 0
M  V30 6159 C 609.045 -5.14456 4.49248 0
M  V30 6160 O 608.733 -5.64199 5.72656 0
M  V30 6161 H 608.465 -0.647026 0.195788 0
M  V30 6162 H 611.019 -1.67785 1.1848 0
M  V30 6163 H 609.249 -3.86461 -0.135945 0
M  V30 6164 H 610.938 -4.05198 0.238684 0
M  V30 6165 H 611.704 -4.01424 2.72183 0
M  V30 6166 H 607.583 -4.34481 1.54102 0
M  V30 6167 H 611.127 -4.92073 4.9448 0
M  V30 6168 H 607.024 -5.25044 3.75498 0
M  V30 6169 H 607.792 -5.82551 5.74957 0
M  V30 6170 N 610.455 -0.639598 -1.44038 0
M  V30 6171 C 611.703 -0.147188 -2.01563 0
M  V30 6172 C 612.024 1.2384 -1.50628 0
M  V30 6173 O 611.294 1.82452 -0.713316 0
M  V30 6174 H 609.874 -0.0514231 -0.745228 0
M  V30 6175 H 612.536 -0.828205 -1.76428 0
M  V30 6176 H 611.632 -0.121358 -3.11864 0
M  V30 6177 N 611.933 1.52934 -0.380664 0
M  V30 6178 C 613.349 1.59571 -0.0302429 0
M  V30 6179 C 613.549 1.39509 1.45394 0
M  V30 6180 O 612.605 1.20777 2.21741 0
M  V30 6181 C 613.918 2.96519 -0.499691 0
M  V30 6182 C 615.466 3.09672 -0.455204 0
M  V30 6183 C 615.941 4.49056 -0.900703 0
M  V30 6184 N 617.432 4.55215 -0.856367 0
M  V30 6185 C 618.167 5.61282 -1.17259 0
M  V30 6186 N 617.663 6.75035 -1.55885 0
M  V30 6187 N 619.456 5.51343 -1.0944 0
M  V30 6188 H 611.607 1.64224 -1.347 0
M  V30 6189 H 613.87 0.771033 -0.551554 0
M  V30 6190 H 613.576 3.16388 -1.53595 0
M  V30 6191 H 613.45 3.77052 0.105789 0
M  V30 6192 H 615.837 2.89504 0.571949 0
M  V30 6193 H 615.918 2.31113 -1.09638 0
M  V30 6194 H 615.562 4.69964 -1.92604 0
M  V30 6195 H 615.492 5.26068 -0.236629 0
M  V30 6196 H 617.983 3.73546 -0.572013 0
M  V30 6197 H 618.296 7.51926 -1.784 0
M  V30 6198 H 616.641 6.76388 -1.59764 0
M  V30 6199 H 619.832 4.61356 -0.791713 0
M  V30 6200 H 620.005 6.33905 -1.34417 0
M  V30 6201 N 613.412 0.11024 1.57214 0
M  V30 6202 C 614.652 -0.553061 1.96775 0
M  V30 6203 C 615.016 -1.64403 0.991753 0
M  V30 6204 O 616.217 -2.36561 1.27642 0
M  V30 6205 C 614.488 -1.08004 3.4069 0
M  V30 6206 S 616.047 -1.75309 4.02259 0
M  V30 6207 H 612.865 -0.18003 0.68783 0
M  V30 6208 H 615.467 0.193242 1.94543 0
M  V30 6209 H 614.171 -0.274735 4.09479 0
M  V30 6210 H 613.702 -1.86182 3.46554 0
M  V30 6211 H 615.717 -3.03834 3.923 0
M  V30 6212 N 614.89 -1.56749 -0.16351 0
M  V30 6213 C 616.115 -1.86938 -0.898264 0
M  V30 6214 C 616.54 -0.697456 -1.74692 0
M  V30 6215 O 615.898 0.353327 -1.77824 0
M  V30 6216 C 615.946 -3.15599 -1.74441 0
M  V30 6217 O 615.05 -2.98371 -2.8469 0
M  V30 6218 H 614.391 -0.614659 -0.251178 0
M  V30 6219 H 616.921 -2.03979 -0.159298 0
M  V30 6220 H 616.931 -3.47202 -2.14277 0
M  V30 6221 H 615.606 -4.00505 -1.1211 0
M  V30 6222 H 614.183 -2.7814 -2.4838 0
M  V30 6223 N 616.368 0.432326 -1.51554 0
M  V30 6224 C 617.608 1.19076 -1.66133 0
M  V30 6225 C 617.972 1.88364 -0.371873 0
M  V30 6226 O 619.173 2.65904 -0.39349 0
M  V30 6227 C 617.444 2.1768 -2.83461 0
M  V30 6228 S 619.003 3.01943 -3.18396 0
M  V30 6229 H 615.821 0.403735 -0.585251 0
M  V30 6230 H 618.423 0.481554 -1.89476 0
M  V30 6231 H 617.127 1.65424 -3.75583 0
M  V30 6232 H 616.658 2.93174 -2.62322 0
M  V30 6233 H 618.673 4.19373 -2.65219 0
M  V30 6234 N 617.846 1.41785 0.688094 0
M  V30 6235 C 618.793 1.44221 1.80191 0
M  V30 6236 C 619.763 0.295688 1.63447 0
M  V30 6237 O 620.948 0.49783 1.84191 0
M  V30 6238 C 618.088 1.33743 3.1813 0
M  V30 6239 C 617.201 2.58325 3.46254 0
M  V30 6240 C 616.336 2.40086 4.73848 0
M  V30 6241 C 615.375 3.60107 4.94964 0
M  V30 6242 N 614.512 3.40892 6.13789 0
M  V30 6243 H 619.352 2.39411 1.77444 0
M  V30 6244 H 616.889 1.18876 0.866423 0
M  V30 6245 H 618.847 1.25669 3.97823 0
M  V30 6246 H 617.477 0.42157 3.20035 0
M  V30 6247 H 616.529 2.7682 2.60912 0
M  V30 6248 H 617.841 3.4758 3.57756 0
M  V30 6249 H 616.995 2.29522 5.61609 0
M  V30 6250 H 615.734 1.483 4.64606 0
M  V30 6251 H 614.739 3.71118 4.05649 0
M  V30 6252 H 615.964 4.52857 5.06061 0
M  V30 6253 H 613.91 2.51812 6.05745 0
M  V30 6254 H 613.827 4.23727 6.26092 0
M  V30 6255 H 615.095 3.34114 7.04264 0
M  V30 6256 N 619.324 -0.923095 1.27737 0
M  V30 6257 C 620.735 -1.48626 1.12993 0
M  V30 6258 C 621.086 -1.94142 -0.283439 0
M  V30 6259 O 620.211 -1.81605 -1.17681 0
M  V30 6260 C 620.806 -2.70117 2.04505 0
M  V30 6261 C 619.365 -3.22642 1.93853 0
M  V30 6262 C 618.512 -1.95368 1.96791 0
M  V30 6263 H 621.463 -0.736737 1.40563 0
M  V30 6264 H 621.484 -3.4506 1.60356 0
M  V30 6265 H 620.996 -2.36959 3.07363 0
M  V30 6266 H 619.097 -3.60549 0.939968 0
M  V30 6267 H 619.21 -3.88525 2.80331 0
M  V30 6268 H 617.574 -2.12061 1.41076 0
M  V30 6269 H 618.357 -1.64517 3.01312 0
M  V30 6270 N 620.802 -1.09834 -1.13024 0
M  V30 6271 C 622.05 -0.835297 -1.8403 0
M  V30 6272 C 622.371 0.640944 -1.84165 0
M  V30 6273 O 621.641 1.46517 -1.30037 0
M  V30 6274 H 620.221 -0.306018 -0.681441 0
M  V30 6275 H 622.883 -1.38734 -1.36891 0
M  V30 6276 H 621.979 -1.19258 -2.88416 0
M  V30 6277 N 622.28 1.30327 -0.886154 0
M  V30 6278 C 623.526 1.96388 -0.505941 0
M  V30 6279 C 623.859 1.69784 0.942712 0
M  V30 6280 O 623.134 1.00322 1.6663 0
M  V30 6281 C 623.417 3.51488 -0.782826 0
M  V30 6282 C 623.27 3.87603 -2.28219 0
M  V30 6283 C 624.589 4.39331 -0.260128 0
M  V30 6284 H 621.708 0.713327 -0.185292 0
M  V30 6285 H 624.35 1.54178 -1.11036 0
M  V30 6286 H 622.5 3.87572 -0.268399 0
M  V30 6287 H 624.172 3.61537 -2.86512 0
M  V30 6288 H 622.415 3.3563 -2.74837 0
M  V30 6289 H 623.086 4.95806 -2.42653 0
M  V30 6290 H 625.562 4.10162 -0.700444 0
M  V30 6291 H 624.438 5.46769 -0.483179 0
M  V30 6292 H 624.699 4.34072 0.838674 0
M  V30 6293 N 623.758 0.647228 1.43697 0
M  V30 6294 C 624.691 -0.097646 2.27991 0
M  V30 6295 C 625.669 -0.83571 1.3948 0
M  V30 6296 O 626.853 -0.836509 1.68922 0
M  V30 6297 C 623.98 -1.14484 3.18765 0
M  V30 6298 C 623.026 -0.505503 4.23494 0
M  V30 6299 S 623.859 0.716471 5.30685 0
M  V30 6300 C 625.015 -0.330339 6.25028 0
M  V30 6301 H 625.248 0.617417 2.90818 0
M  V30 6302 H 622.781 0.435881 1.4812 0
M  V30 6303 H 624.739 -1.74403 3.7161 0
M  V30 6304 H 623.4 -1.83219 2.55127 0
M  V30 6305 H 622.593 -1.29473 4.87086 0
M  V30 6306 H 622.195 0.0194377 3.73995 0
M  V30 6307 H 624.487 -1.19828 6.66819 0
M  V30 6308 H 625.43 0.270409 7.07583 0
M  V30 6309 H 625.838 -0.663459 5.60588 0
M  V30 6310 N 625.236 -1.5273 0.388769 0
M  V30 6311 C 626.484 -2.01174 -0.193208 0
M  V30 6312 C 626.805 -1.27705 -1.47365 0
M  V30 6313 O 626.075 -0.396966 -1.91836 0
M  V30 6314 H 624.655 -0.743287 -0.0743871 0
M  V30 6315 H 627.317 -1.87826 0.520336 0
M  V30 6316 H 626.413 -3.09477 -0.403803 0
M  V30 6317 N 626.714 -0.118576 -1.57153 0
M  V30 6318 C 627.991 0.583062 -1.86708 0
M  V30 6319 C 628.371 1.84841 -1.01967 0
M  V30 6320 O 627.719 2.28288 -0.0984673 0
M  V30 6321 C 627.929 0.875912 -3.3783 0
M  V30 6322 C 629.277 1.22916 -4.0642 0
M  V30 6323 O 630.301 0.966188 -3.42846 0
M  V30 6324 O 629.16 1.72269 -5.18638 0
M  V30 6325 H 626.254 0.294185 -0.772906 0
M  V30 6326 H 628.8 -0.153048 -1.69008 0
M  V30 6327 H 627.572 -0.0207776 -3.91294 0
M  V30 6328 H 627.195 1.66719 -3.60958 0
M  V30 6329 N 628.193 1.56834 0.155195 0
M  V30 6330 C 629.14 1.97646 1.19184 0
M  V30 6331 C 630.11 0.842788 1.4313 0
M  V30 6332 O 631.295 1.1042 1.55602 0
M  V30 6333 C 628.435 2.35527 2.52232 0
M  V30 6334 C 627.548 3.62147 2.35529 0
M  V30 6335 C 626.683 3.89167 3.61555 0
M  V30 6336 C 625.722 5.09084 3.39853 0
M  V30 6337 N 624.859 5.32156 4.5799 0
M  V30 6338 H 629.699 2.8601 0.836802 0
M  V30 6339 H 627.236 1.41507 0.401758 0
M  V30 6340 H 629.194 2.55516 3.29799 0
M  V30 6341 H 627.824 1.50253 2.85699 0
M  V30 6342 H 626.876 3.4998 1.49057 0
M  V30 6343 H 628.188 4.49871 2.15448 0
M  V30 6344 H 627.342 4.09611 4.47553 0
M  V30 6345 H 626.081 2.9985 3.84632 0
M  V30 6346 H 625.086 4.88522 2.52243 0
M  V30 6347 H 626.311 5.99947 3.18183 0
M  V30 6348 H 624.257 4.45791 4.81255 0
M  V30 6349 H 624.174 6.14133 4.40882 0
M  V30 6350 H 625.442 5.57091 5.45225 0
M  V30 6351 N 629.671 -0.424282 1.51781 0
M  V30 6352 C 630.911 -1.18194 1.66762 0
M  V30 6353 C 631.275 -1.88164 0.381857 0
M  V30 6354 O 632.476 -2.65692 0.407586 0
M  V30 6355 C 630.747 -2.16173 2.84612 0
M  V30 6356 S 632.306 -3.0025 3.19993 0
M  V30 6357 H 629.124 -0.400626 0.587384 0
M  V30 6358 H 631.726 -0.471499 1.89729 0
M  V30 6359 H 630.43 -1.6343 3.76455 0
M  V30 6360 H 629.961 -2.91778 2.63873 0
M  V30 6361 H 631.976 -4.1796 2.67439 0
M  V30 6362 N 631.149 -1.42148 -0.680565 0
M  V30 6363 C 632.426 -1.32795 -1.43614 0
M  V30 6364 C 632.806 0.037415 -2.11067 0
M  V30 6365 O 632.154 1.05258 -2.02813 0
M  V30 6366 C 632.364 -2.49206 -2.44331 0
M  V30 6367 C 633.712 -2.91059 -3.09144 0
M  V30 6368 O 634.736 -2.49054 -2.54657 0
M  V30 6369 O 633.595 -3.63741 -4.07866 0
M  V30 6370 H 630.689 -0.523397 -0.640301 0
M  V30 6371 H 633.235 -1.54144 -0.709775 0
M  V30 6372 H 632.007 -3.40252 -1.93247 0
M  V30 6373 H 631.63 -2.29813 -3.24456 0
M  V30 6374 N 632.627 0.916307 -1.28225 0
M  V30 6375 C 634.043 1.19425 -1.05876 0
M  V30 6376 C 634.243 2.005 0.2005 0
M  V30 6377 O 633.299 2.35806 0.902873 0
M  V30 6378 C 634.612 1.93133 -2.30478 0
M  V30 6379 C 636.16 2.06026 -2.35632 0
M  V30 6380 C 636.635 2.83141 -3.59994 0
M  V30 6381 N 638.126 2.90704 -3.60618 0
M  V30 6382 C 638.861 3.50865 -4.53521 0
M  V30 6383 N 638.357 4.12327 -5.56739 0
M  V30 6384 N 640.15 3.48379 -4.41122 0
M  V30 6385 H 632.301 0.37496 -2.09064 0
M  V30 6386 H 634.564 0.228531 -0.920042 0
M  V30 6387 H 634.27 1.40985 -3.22205 0
M  V30 6388 H 634.144 2.93696 -2.36691 0
M  V30 6389 H 636.531 2.57355 -1.44404 0
M  V30 6390 H 636.612 1.04647 -2.33415 0
M  V30 6391 H 636.256 2.32492 -4.51564 0
M  V30 6392 H 636.186 3.84829 -3.59464 0
M  V30 6393 H 638.677 2.47034 -2.85977 0
M  V30 6394 H 638.99 4.56205 -6.23776 0
M  V30 6395 H 637.335 4.10839 -5.60568 0
M  V30 6396 H 640.526 2.99572 -3.59686 0
M  V30 6397 H 640.699 3.94974 -5.13712 0
M  V30 6398 N 634.105 1.10431 1.1244 0
M  V30 6399 C 635.345 0.856518 1.85589 0
M  V30 6400 C 635.709 -0.606905 1.82156 0
M  V30 6401 O 636.91 -0.97105 2.50647 0
M  V30 6402 C 635.181 1.38977 3.29272 0
M  V30 6403 S 636.74 1.27739 4.19795 0
M  V30 6404 H 633.558 0.309509 0.640098 0
M  V30 6405 H 636.16 1.40975 1.35449 0
M  V30 6406 H 634.864 2.44887 3.2933 0
M  V30 6407 H 634.395 0.833112 3.84477 0
M  V30 6408 H 636.41 0.235051 4.95643 0
M  V30 6409 N 635.583 -1.29855 0.893053 0
M  V30 6410 C 636.515 -2.26911 0.32311 0
M  V30 6411 C 637.528 -1.54039 -0.526858 0
M  V30 6412 O 638.717 -1.75132 -0.345095 0
M  V30 6413 C 635.817 -3.34266 -0.558509 0
M  V30 6414 C 634.99 -4.36601 0.264222 0
M  V30 6415 C 634.049 -5.23326 -0.549171 0
M  V30 6416 O 633.075 -5.69192 0.0309883 0
M  V30 6417 N 634.277 -5.50008 -1.85664 0
M  V30 6418 H 637.042 -2.76455 1.15726 0
M  V30 6419 H 634.603 -1.4312 0.756859 0
M  V30 6420 H 636.595 -3.89211 -1.1089 0
M  V30 6421 H 635.165 -2.8459 -1.29334 0
M  V30 6422 H 634.385 -3.81409 0.996046 0
M  V30 6423 H 635.673 -5.02019 0.827906 0
M  V30 6424 H 635.071 -5.14542 -2.35081 0
M  V30 6425 H 633.628 -6.07796 -2.35431 0
M  V30 6426 N 637.061 -0.65484 -1.43351 0
M  V30 6427 C 638.472 -0.248506 -1.85039 0
M  V30 6428 C 638.823 1.20526 -1.54816 0
M  V30 6429 O 637.948 1.92016 -0.99794 0
M  V30 6430 C 638.543 -0.444241 -3.35875 0
M  V30 6431 C 637.102 -0.0922108 -3.76287 0
M  V30 6432 C 636.249 -0.746327 -2.67068 0
M  V30 6433 H 639.2 -0.8584 -1.33481 0
M  V30 6434 H 639.221 0.309762 -3.79237 0
M  V30 6435 H 638.733 -1.50239 -3.5784 0
M  V30 6436 H 636.834 0.96328 -3.59933 0
M  V30 6437 H 636.947 -0.518807 -4.76283 0
M  V30 6438 H 635.311 -0.179416 -2.54067 0
M  V30 6439 H 636.094 -1.80754 -2.91861 0
M  V30 6440 N 638.539 1.52521 -0.396863 0
M  V30 6441 C 639.787 2.01274 0.182536 0
M  V30 6442 C 640.108 1.28485 1.46685 0
M  V30 6443 O 639.378 0.407134 1.91623 0
M  V30 6444 H 637.958 0.743671 0.0704442 0
M  V30 6445 H 640.62 1.87547 -0.530289 0
M  V30 6446 H 639.716 3.09687 0.387385 0
M  V30 6447 N 640.017 0.126909 1.57088 0
M  V30 6448 C 641.264 -0.529168 1.95464 0
M  V30 6449 C 641.592 -1.6618 1.01067 0
M  V30 6450 O 640.847 -1.95667 0.0360254 0
M  V30 6451 C 641.146 -1.095 3.40212 0
M  V30 6452 C 640.812 -0.0829015 4.50824 0
M  V30 6453 C 639.474 0.195377 4.80803 0
M  V30 6454 C 641.826 0.606411 5.1766 0
M  V30 6455 C 639.154 1.16912 5.74933 0
M  V30 6456 C 641.506 1.56884 6.12838 0
M  V30 6457 C 640.17 1.85502 6.41206 0
M  V30 6458 H 639.44 -0.193636 0.715252 0
M  V30 6459 H 642.087 0.209489 1.90351 0
M  V30 6460 H 640.392 -1.91058 3.42059 0
M  V30 6461 H 642.089 -1.61087 3.67222 0
M  V30 6462 H 638.679 -0.309979 4.27478 0
M  V30 6463 H 642.863 0.404597 4.94648 0
M  V30 6464 H 638.119 1.3975 5.95214 0
M  V30 6465 H 642.293 2.10859 6.6371 0
M  V30 6466 H 639.92 2.61109 7.13951 0
M  V30 6467 N 641.495 -1.56914 -0.146875 0
M  V30 6468 C 642.445 -1.94693 -1.18653 0
M  V30 6469 C 643.429 -0.81821 -1.38543 0
M  V30 6470 O 644.621 -1.08167 -1.40103 0
M  V30 6471 C 641.75 -2.33117 -2.52014 0
M  V30 6472 C 640.836 -3.5256 -2.35717 0
M  V30 6473 N 641.227 -4.69091 -1.89175 0
M  V30 6474 C 639.525 -3.57647 -2.66467 0
M  V30 6475 C 640.226 -5.51187 -1.85924 0
M  V30 6476 N 639.202 -4.92899 -2.29242 0
M  V30 6477 H 643.004 -2.82264 -0.81879 0
M  V30 6478 H 640.518 -1.58474 -0.354929 0
M  V30 6479 H 642.515 -2.58387 -3.27172 0
M  V30 6480 H 641.175 -1.46898 -2.89571 0
M  V30 6481 H 642.186 -4.92844 -1.59139 0
M  V30 6482 H 638.863 -2.81967 -3.07898 0
M  V30 6483 H 640.253 -6.54613 -1.51431 0
M  V30 6484 N 642.974 0.416227 -1.52004 0
M  V30 6485 C 644.199 1.19029 -1.69843 0
M  V30 6486 C 644.624 1.83708 -0.404103 0
M  V30 6487 O 643.982 1.69711 0.637787 0
M  V30 6488 C 644.03 2.23439 -2.83032 0
M  V30 6489 O 643.134 3.29419 -2.48106 0
M  V30 6490 H 642.475 0.347785 -0.565634 0
M  V30 6491 H 645.005 0.488871 -1.98674 0
M  V30 6492 H 645.015 2.67884 -3.07737 0
M  V30 6493 H 643.69 1.75745 -3.76944 0
M  V30 6494 H 642.267 2.90303 -2.34048 0
M  V30 6495 N 644.452 1.42507 0.673017 0
M  V30 6496 C 645.382 1.48916 1.79851 0
M  V30 6497 C 646.363 0.345566 1.66553 0
M  V30 6498 O 647.548 0.560116 1.85947 0
M  V30 6499 C 644.678 1.39258 3.18158 0
M  V30 6500 C 643.632 2.51662 3.46194 0
M  V30 6501 C 642.958 2.27062 4.84094 0
M  V30 6502 C 644.258 3.93968 3.42909 0
M  V30 6503 H 645.952 2.43114 1.74745 0
M  V30 6504 H 643.498 1.17013 0.839288 0
M  V30 6505 H 645.451 1.42349 3.96629 0
M  V30 6506 H 644.175 0.415542 3.23946 0
M  V30 6507 H 642.834 2.47891 2.70084 0
M  V30 6508 H 642.482 1.27648 4.86534 0
M  V30 6509 H 642.182 3.02398 5.03815 0
M  V30 6510 H 643.706 2.31905 5.64847 0
M  V30 6511 H 645.12 3.99332 4.11347 0
M  V30 6512 H 643.517 4.6917 3.74165 0
M  V30 6513 H 644.587 4.20512 2.41449 0
M  V30 6514 N 645.93 -0.909495 1.28709 0
M  V30 6515 C 647.158 -1.69272 1.18973 0
M  V30 6516 C 647.573 -1.87123 -0.251048 0
M  V30 6517 O 646.93 -1.40127 -1.16922 0
M  V30 6518 C 646.981 -3.08257 1.88839 0
M  V30 6519 O 646.702 -2.91228 3.27289 0
M  V30 6520 C 648.203 -4.02642 1.85457 0
M  V30 6521 H 645.423 -0.528999 0.412797 0
M  V30 6522 H 647.967 -1.13803 1.69909 0
M  V30 6523 H 646.122 -3.6053 1.41762 0
M  V30 6524 H 646.536 -3.79223 3.6234 0
M  V30 6525 H 648.01 -4.97613 2.38925 0
M  V30 6526 H 648.487 -4.31327 0.827893 0
M  V30 6527 H 649.093 -3.56298 2.32233 0
M  V30 6528 N 647.408 -1.11026 -1.11852 0
M  V30 6529 C 648.318 -0.777252 -2.2135 0
M  V30 6530 C 649.334 0.227821 -1.72502 0
M  V30 6531 O 650.51 0.0650587 -2.01295 0
M  V30 6532 C 647.575 -0.220668 -3.45997 0
M  V30 6533 C 646.636 -1.2838 -4.09655 0
M  V30 6534 C 645.869 -0.753678 -5.28352 0
M  V30 6535 O 646.092 0.417779 -5.68868 0
M  V30 6536 O 645.026 -1.51647 -5.82483 0
M  V30 6537 H 648.852 -1.69141 -2.5224 0
M  V30 6538 H 646.437 -0.885836 -1.20305 0
M  V30 6539 H 648.319 0.0855756 -4.21313 0
M  V30 6540 H 646.994 0.666262 -3.16769 0
M  V30 6541 H 645.901 -1.64299 -3.3609 0
M  V30 6542 H 647.234 -2.14396 -4.43052 0
M  V30 6543 N 648.886 1.2938 -0.899927 0
M  V30 6544 C 649.849 2.25983 -0.382677 0
M  V30 6545 C 650.849 1.53366 0.483259 0
M  V30 6546 O 652.039 1.71798 0.28828 0
M  V30 6547 C 649.171 3.37878 0.452915 0
M  V30 6548 H 650.364 2.73252 -1.23586 0
M  V30 6549 H 647.917 1.40825 -0.678088 0
M  V30 6550 H 648.652 2.95949 1.32608 0
M  V30 6551 H 648.437 3.91742 -0.167562 0
M  V30 6552 H 649.927 4.09746 0.806107 0
M  V30 6553 N 650.364 0.662433 1.43002 0
M  V30 6554 C 651.612 0.179237 2.01304 0
M  V30 6555 C 651.933 -1.21428 1.52579 0
M  V30 6556 O 651.203 -1.81294 0.742252 0
M  V30 6557 H 649.783 0.0632725 0.744316 0
M  V30 6558 H 652.445 0.856169 1.75088 0
M  V30 6559 H 651.541 0.170957 3.11631 0
M  V30 6560 N 651.842 -1.52309 0.404946 0
M  V30 6561 C 653.082 -2.03677 -0.171779 0
M  V30 6562 C 653.446 -1.28419 -1.42733 0
M  V30 6563 O 654.647 -1.69991 -2.08222 0
M  V30 6564 C 652.918 -3.54951 -0.417701 0
M  V30 6565 S 654.477 -4.28114 -0.962472 0
M  V30 6566 H 651.295 -0.709445 -0.0469912 0
M  V30 6567 H 653.897 -1.874 0.556901 0
M  V30 6568 H 652.601 -4.07306 0.50295 0
M  V30 6569 H 652.132 -3.75462 -1.17437 0
M  V30 6570 H 654.147 -4.42589 -2.24342 0
M  V30 6571 N 653.32 -0.135238 -1.57019 0
M  V30 6572 C 654.736 0.221262 -1.58059 0
M  V30 6573 C 654.936 1.65538 -1.14889 0
M  V30 6574 O 653.992 2.37985 -0.843751 0
M  V30 6575 C 655.305 -0.0268114 -3.00688 0
M  V30 6576 C 656.853 0.0378206 -3.12977 0
M  V30 6577 C 657.328 -0.182769 -4.57635 0
M  V30 6578 N 658.819 -0.129292 -4.6302 0
M  V30 6579 C 659.554 -0.274648 -5.72742 0
M  V30 6580 N 659.05 -0.477075 -6.91155 0
M  V30 6581 N 660.843 -0.213077 -5.61696 0
M  V30 6582 H 652.994 -1.07177 -1.83376 0
M  V30 6583 H 655.257 -0.423338 -0.848227 0
M  V30 6584 H 654.963 -1.01889 -3.36618 0
M  V30 6585 H 654.837 0.697863 -3.70688 0
M  V30 6586 H 657.224 1.02043 -2.76896 0
M  V30 6587 H 657.305 -0.718996 -2.45487 0
M  V30 6588 H 656.949 -1.16243 -4.94419 0
M  V30 6589 H 656.879 0.59423 -5.23237 0
M  V30 6590 H 659.37 0.0229896 -3.77893 0
M  V30 6591 H 659.683 -0.578413 -7.70632 0
M  V30 6592 H 658.028 -0.513252 -6.93102 0
M  V30 6593 H 661.219 -0.0557796 -4.68067 0
M  V30 6594 H 661.392 -0.329796 -6.4716 0
M  V30 6595 N 654.798 1.5699 0.138552 0
M  V30 6596 C 656.209 1.73171 0.697754 0
M  V30 6597 C 656.56 0.750952 1.8126 0
M  V30 6598 O 655.685 -0.080549 2.1625 0
M  V30 6599 C 656.28 3.13996 1.27248 0
M  V30 6600 C 654.839 3.3175 1.77816 0
M  V30 6601 C 653.986 2.69084 0.669991 0
M  V30 6602 H 656.937 1.5846 -0.0871979 0
M  V30 6603 H 656.958 3.14463 2.14227 0
M  V30 6604 H 656.47 3.85354 0.460855 0
M  V30 6605 H 654.571 2.65403 2.61519 0
M  V30 6606 H 654.684 4.39768 1.90107 0
M  V30 6607 H 653.048 2.29782 1.09874 0
M  V30 6608 H 653.831 3.43053 -0.130329 0
M  V30 6609 N 656.276 -0.40816 1.52223 0
M  V30 6610 C 657.516 -1.16418 1.68006 0
M  V30 6611 C 657.88 -1.87749 0.401793 0
M  V30 6612 O 659.081 -2.65245 0.435743 0
M  V30 6613 C 657.352 -2.13143 2.86889 0
M  V30 6614 S 658.911 -2.96839 3.2316 0
M  V30 6615 H 655.729 -0.394373 0.5916 0
M  V30 6616 H 658.331 -0.451349 1.90219 0
M  V30 6617 H 657.035 -1.59428 3.78168 0
M  V30 6618 H 656.566 -2.88963 2.66953 0
M  V30 6619 H 658.581 -4.151 2.71857 0
M  V30 6620 N 657.755 -1.42862 -0.66545 0
M  V30 6621 C 658.98 -1.47456 -1.45848 0
M  V30 6622 C 659.405 -0.0900312 -1.87884 0
M  V30 6623 O 658.763 0.913587 -1.56599 0
M  V30 6624 C 658.811 -2.41514 -2.67774 0
M  V30 6625 O 657.915 -1.89296 -3.66389 0
M  V30 6626 H 657.256 -0.499236 -0.437789 0
M  V30 6627 H 659.786 -1.8765 -0.815394 0
M  V30 6628 H 659.796 -2.58409 -3.15735 0
M  V30 6629 H 658.471 -3.42099 -2.36519 0
M  V30 6630 H 657.048 -1.82003 -3.25468 0
M  V30 6631 N 659.233 0.902656 -1.29189 0
M  V30 6632 C 660.473 1.6672 -1.18254 0
M  V30 6633 C 660.837 1.90199 0.262336 0
M  V30 6634 O 662.038 2.6421 0.494612 0
M  V30 6635 C 660.309 2.98178 -1.9704 0
M  V30 6636 S 661.868 3.89226 -2.02605 0
M  V30 6637 H 658.686 0.572432 -0.421714 0
M  V30 6638 H 661.288 1.07279 -1.63436 0
M  V30 6639 H 659.992 2.788 -3.01163 0
M  V30 6640 H 659.523 3.62661 -1.5245 0
M  V30 6641 H 661.538 4.82913 -1.14059 0
M  V30 6642 N 660.711 1.11618 1.11262 0
M  V30 6643 C 661.988 0.777876 1.79467 0
M  V30 6644 C 662.368 -0.733774 1.97937 0
M  V30 6645 O 661.716 -1.66443 1.56554 0
M  V30 6646 C 661.926 1.5431 3.13032 0
M  V30 6647 C 663.274 1.72357 3.88044 0
M  V30 6648 O 664.298 1.5075 3.22727 0
M  V30 6649 O 663.157 2.08276 5.05256 0
M  V30 6650 H 660.251 0.282018 0.777428 0
M  V30 6651 H 662.797 1.21971 1.17988 0
M  V30 6652 H 661.569 2.57132 2.94956 0
M  V30 6653 H 661.192 1.09495 3.82226 0
M  V30 6654 N 662.189 -1.289 0.906776 0
M  V30 6655 C 663.6 -1.77336 0.58384 0
M  V30 6656 C 663.951 -1.74304 -0.900697 0
M  V30 6657 O 663.076 -1.33335 -1.70443 0
M  V30 6658 C 663.671 -3.22019 1.05304 0
M  V30 6659 C 662.23 -3.68205 0.781148 0
M  V30 6660 C 661.377 -2.48837 1.22373 0
M  V30 6661 H 664.328 -1.15462 1.08877 0
M  V30 6662 H 664.349 -3.78481 0.391414 0
M  V30 6663 H 663.861 -3.24194 2.13353 0
M  V30 6664 H 661.962 -3.71497 -0.28643 0
M  V30 6665 H 662.075 -4.58675 1.384 0
M  V30 6666 H 660.439 -2.46461 0.642594 0
M  V30 6667 H 661.222 -2.53736 2.31242 0
M  V30 6668 N 663.667 -0.670007 -1.42649 0
M  V30 6669 C 664.892 -0.196955 -2.06463 0
M  V30 6670 C 665.317 1.1352 -1.49983 0
M  V30 6671 O 664.675 1.705 -0.616397 0
M  V30 6672 C 664.723 -0.137381 -3.60338 0
M  V30 6673 O 663.827 0.895523 -4.02559 0
M  V30 6674 H 663.168 -0.102579 -0.656029 0
M  V30 6675 H 665.698 -0.917669 -1.82866 0
M  V30 6676 H 665.708 0.0403625 -4.0798 0
M  V30 6677 H 664.383 -1.10977 -4.0082 0
M  V30 6678 H 662.96 0.689209 -3.66476 0
M  V30 6679 N 665.145 1.52092 -0.413018 0
M  V30 6680 C 666.393 2.01456 0.161178 0
M  V30 6681 C 666.714 1.30034 1.45314 0
M  V30 6682 O 665.984 0.427435 1.9118 0
M  V30 6683 H 664.564 0.744376 0.0625526 0
M  V30 6684 H 667.226 1.86974 -0.550151 0
M  V30 6685 H 666.322 3.1008 0.354517 0
M  V30 6686 N 666.623 0.143563 1.56945 0
M  V30 6687 C 667.848 -0.518701 2.00809 0
M  V30 6688 C 668.273 -1.5785 1.02298 0
M  V30 6689 O 667.631 -1.813 -0.0017839 0
M  V30 6690 C 667.679 -1.09929 3.43436 0
M  V30 6691 O 666.783 -2.21425 3.47915 0
M  V30 6692 H 666.124 -0.127215 0.6517 0
M  V30 6693 H 668.654 0.239283 2.03196 0
M  V30 6694 H 668.664 -1.4288 3.82164 0
M  V30 6695 H 667.339 -0.323162 4.14643 0
M  V30 6696 H 665.916 -1.89728 3.21026 0
M  V30 6697 N 668.101 -1.57061 -0.130224 0
M  V30 6698 C 669.35 -1.83446 -0.838488 0
M  V30 6699 C 669.663 -0.727468 -1.81569 0
M  V30 6700 O 670.869 -0.877394 -2.56932 0
M  V30 6701 C 669.325 -3.25201 -1.54182 0
M  V30 6702 C 668.933 -4.4388 -0.606178 0
M  V30 6703 C 670.677 -3.60844 -2.23588 0
M  V30 6704 C 668.584 -5.76661 -1.31209 0
M  V30 6705 H 667.514 -0.684185 -0.316871 0
M  V30 6706 H 670.165 -1.83273 -0.0912059 0
M  V30 6707 H 668.547 -3.1981 -2.33533 0
M  V30 6708 H 669.721 -4.60545 0.153308 0
M  V30 6709 H 668.036 -4.16395 -0.0196705 0
M  V30 6710 H 670.633 -4.57313 -2.77072 0
M  V30 6711 H 670.976 -2.87724 -3.00867 0
M  V30 6712 H 671.509 -3.67971 -1.51137 0
M  V30 6713 H 668.248 -6.52922 -0.580823 0
M  V30 6714 H 667.768 -5.63902 -2.04387 0
M  V30 6715 H 669.447 -6.20035 -1.8484 0
M  V30 6716 N 669.579 0.400081 -1.52437 0
M  V30 6717 C 670.856 1.15973 -1.57511 0
M  V30 6718 C 671.236 2.0798 -0.361572 0
M  V30 6719 O 670.584 2.19032 0.650929 0
M  V30 6720 C 670.794 1.92912 -2.90837 0
M  V30 6721 C 672.142 2.48662 -3.44169 0
M  V30 6722 O 673.166 2.03081 -2.92637 0
M  V30 6723 O 672.025 3.31894 -4.34176 0
M  V30 6724 H 669.119 0.530023 -0.634827 0
M  V30 6725 H 671.665 0.40613 -1.64769 0
M  V30 6726 H 670.437 1.25564 -3.70607 0
M  V30 6727 H 670.06 2.75257 -2.86913 0
M  V30 6728 N 671.057 1.43213 0.657864 0
M  V30 6729 C 671.967 1.50448 1.80007 0
M  V30 6730 C 672.983 0.39191 1.69529 0
M  V30 6731 O 674.159 0.645349 1.90781 0
M  V30 6732 C 671.224 1.42062 3.16258 0
M  V30 6733 C 670.285 2.63951 3.38568 0
M  V30 6734 C 669.518 2.55956 4.68318 0
M  V30 6735 O 669.741 1.60473 5.47361 0
M  V30 6736 O 668.675 3.46378 4.92245 0
M  V30 6737 H 672.501 2.4689 1.76858 0
M  V30 6738 H 670.086 1.25163 0.81576 0
M  V30 6739 H 671.968 1.3981 3.97531 0
M  V30 6740 H 670.643 0.487524 3.20008 0
M  V30 6741 H 669.55 2.71776 2.57077 0
M  V30 6742 H 670.883 3.56217 3.39662 0
M  V30 6743 N 672.536 -0.895792 1.29666 0
M  V30 6744 C 673.776 -1.6609 1.19136 0
M  V30 6745 C 674.14 -1.90336 -0.252245 0
M  V30 6746 O 675.341 -2.64469 -0.480593 0
M  V30 6747 C 673.612 -2.97129 1.98618 0
M  V30 6748 S 675.171 -3.88146 2.04666 0
M  V30 6749 H 671.989 -0.570188 0.424744 0
M  V30 6750 H 674.591 -1.06411 1.64003 0
M  V30 6751 H 673.295 -2.77199 3.02637 0
M  V30 6752 H 672.826 -3.61847 1.54371 0
M  V30 6753 H 674.841 -4.82301 1.16618 0
M  V30 6754 N 674.014 -1.12206 -1.10668 0
M  V30 6755 C 674.962 -0.782918 -2.19028 0
M  V30 6756 C 675.956 0.229175 -1.67843 0
M  V30 6757 O 677.162 0.0876295 -1.79787 0
M  V30 6758 H 673.537 -0.235339 -0.714227 0
M  V30 6759 H 675.508 -1.70527 -2.44874 0
M  V30 6760 C 674.257 -0.25116 -3.46792 0
M  V30 6761 H 673.58 -1.02123 -3.86537 0
M  V30 6762 H 675.02 -0.0521409 -4.23968 0
M  V30 6763 C 673.479 1.02037 -3.21076 0
M  V30 6764 O 674.009 2.09862 -3.42522 0
M  V30 6765 N 672.215 0.946348 -2.74759 0
M  V30 6766 H 671.762 0.068777 -2.57508 0
M  V30 6767 H 671.72 1.79775 -2.57931 0
M  V30 6768 N 675.492 1.28418 -0.913599 0
M  V30 6769 C 676.741 1.94265 -0.542572 0
M  V30 6770 C 677.054 1.72709 0.918207 0
M  V30 6771 O 678.26 2.32778 1.39738 0
M  V30 6772 C 676.716 3.47956 -0.919507 0
M  V30 6773 C 676.324 3.78291 -2.4 0
M  V30 6774 C 678.068 4.19962 -0.619057 0
M  V30 6775 C 675.975 5.2529 -2.71707 0
M  V30 6776 H 674.905 0.727213 -0.199192 0
M  V30 6777 H 677.556 1.45931 -1.11249 0
M  V30 6778 H 675.938 3.9502 -0.278372 0
M  V30 6779 H 677.112 3.42035 -3.08786 0
M  V30 6780 H 675.427 3.19456 -2.67089 0
M  V30 6781 H 678.024 5.28178 -0.832623 0
M  V30 6782 H 678.367 4.13935 0.443126 0
M  V30 6783 H 678.9 3.78674 -1.21865 0
M  V30 6784 H 675.639 5.36394 -3.76778 0
M  V30 6785 H 675.159 5.62743 -2.07559 0
M  V30 6786 H 676.838 5.93027 -2.58703 0
M  V30 6787 N 676.97 0.677563 1.42291 0
M  V30 6788 C 677.88 0.000962654 2.346 0
M  V30 6789 C 678.896 -0.785833 1.55244 0
M  V30 6790 O 680.072 -0.727523 1.87801 0
M  V30 6791 C 677.137 -0.936746 3.33805 0
M  V30 6792 C 676.198 -0.144173 4.29058 0
M  V30 6793 C 675.431 -1.03722 5.23524 0
M  V30 6794 O 675.654 -2.27675 5.22992 0
M  V30 6795 O 674.588 -0.496542 5.99848 0
M  V30 6796 H 678.414 0.761397 2.94001 0
M  V30 6797 H 675.999 0.43781 1.42841 0
M  V30 6798 H 677.881 -1.47497 3.94744 0
M  V30 6799 H 676.556 -1.67698 2.76874 0
M  V30 6800 H 675.463 0.438224 3.71524 0
M  V30 6801 H 676.796 0.55701 4.89038 0
M  V30 6802 N 678.448 -1.51871 0.421078 0
M  V30 6803 C 679.676 -2.06356 -0.14994 0
M  V30 6804 C 680.091 -1.29006 -1.37851 0
M  V30 6805 O 679.448 -0.345139 -1.79207 0
M  V30 6806 C 679.499 -3.58185 -0.488454 0
M  V30 6807 O 679.22 -4.32611 0.691341 0
M  V30 6808 C 680.721 -4.29129 -1.11191 0
M  V30 6809 H 677.941 -0.67083 -0.0151186 0
M  V30 6810 H 680.485 -1.95638 0.595476 0
M  V30 6811 H 678.64 -3.68871 -1.18376 0
M  V30 6812 H 679.054 -5.22927 0.405906 0
M  V30 6813 H 680.528 -5.36501 -1.29889 0
M  V30 6814 H 681.005 -3.86371 -2.0884 0
M  V30 6815 H 681.611 -4.22843 -0.456458 0
M  V30 6816 N 679.926 -0.151884 -1.56866 0
M  V30 6817 C 681.174 0.497021 -1.95893 0
M  V30 6818 C 681.495 1.65078 -1.03799 0
M  V30 6819 O 680.765 1.95642 -0.10049 0
M  V30 6820 H 679.345 0.186603 -0.723318 0
M  V30 6821 H 682.007 -0.228525 -1.93556 0
M  V30 6822 H 681.103 0.869933 -2.99731 0
M  V30 6823 N 681.404 1.57128 0.121893 0
M  V30 6824 C 682.82 1.52357 0.47534 0
M  V30 6825 C 683.02 0.864417 1.82017 0
M  V30 6826 O 682.076 0.445529 2.48538 0
M  V30 6827 C 683.389 2.97122 0.4625 0
M  V30 6828 C 684.937 3.08196 0.546255 0
M  V30 6829 C 685.412 4.54516 0.563833 0
M  V30 6830 N 686.903 4.58959 0.625353 0
M  V30 6831 C 687.638 5.69585 0.660354 0
M  V30 6832 N 687.134 6.89714 0.653175 0
M  V30 6833 N 688.927 5.57685 0.703143 0
M  V30 6834 H 681.078 1.98364 -0.75931 0
M  V30 6835 H 683.341 0.905777 -0.279772 0
M  V30 6836 H 683.047 3.48706 -0.457943 0
M  V30 6837 H 682.921 3.54406 1.29136 0
M  V30 6838 H 685.308 2.56617 1.45712 0
M  V30 6839 H 685.389 2.53912 -0.310234 0
M  V30 6840 H 685.033 5.06741 -0.342974 0
M  V30 6841 H 684.963 5.06609 1.43716 0
M  V30 6842 H 687.454 3.72489 0.637182 0
M  V30 6843 H 687.767 7.69781 0.682425 0
M  V30 6844 H 686.112 6.92223 0.620646 0
M  V30 6845 H 689.303 4.62744 0.706095 0
M  V30 6846 H 689.476 6.43909 0.726952 0
M  V30 6847 N 682.882 -0.391992 1.52647 0
M  V30 6848 C 684.122 -1.1463 1.69232 0
M  V30 6849 C 684.486 -1.87312 0.421684 0
M  V30 6850 O 685.687 -2.64768 0.463852 0
M  V30 6851 C 683.958 -2.10088 2.89133 0
M  V30 6852 S 685.517 -2.93395 3.2629 0
M  V30 6853 H 682.335 -0.388076 0.59575 0
M  V30 6854 H 684.937 -0.431149 1.90687 0
M  V30 6855 H 683.641 -1.55408 3.79837 0
M  V30 6856 H 683.172 -2.86116 2.70003 0
M  V30 6857 H 685.187 -4.12193 2.76244 0
M  V30 6858 N 684.36 -1.4356 -0.65026 0
M  V30 6859 C 685.606 -1.45549 -1.41221 0
M  V30 6860 C 685.939 -0.0805472 -1.94033 0
M  V30 6861 O 685.214 0.899043 -1.72475 0
M  V30 6862 C 685.497 -2.50028 -2.59148 0
M  V30 6863 C 685.35 -3.96808 -2.1181 0
M  V30 6864 C 686.669 -2.51212 -3.61359 0
M  V30 6865 H 683.788 -0.529967 -0.512156 0
M  V30 6866 H 686.43 -1.75127 -0.736933 0
M  V30 6867 H 684.58 -2.24937 -3.16758 0
M  V30 6868 H 686.252 -4.32966 -1.59178 0
M  V30 6869 H 684.495 -4.09498 -1.43156 0
M  V30 6870 H 685.166 -4.6553 -2.96625 0
M  V30 6871 H 687.642 -2.73583 -3.13515 0
M  V30 6872 H 686.518 -3.26252 -4.41419 0
M  V30 6873 H 686.779 -1.54701 -4.1415 0
M  V30 6874 N 685.838 0.888903 -1.30139 0
M  V30 6875 C 687.078 1.65456 -1.20015 0
M  V30 6876 C 687.442 1.90467 0.242148 0
M  V30 6877 O 688.643 2.6472 0.466561 0
M  V30 6878 C 686.914 2.96071 -2.00191 0
M  V30 6879 S 688.473 3.87055 -2.06721 0
M  V30 6880 H 685.291 0.567927 -0.427761 0
M  V30 6881 H 687.893 1.05539 -1.64565 0
M  V30 6882 H 686.597 2.7559 -3.04103 0
M  V30 6883 H 686.128 3.61023 -1.56288 0
M  V30 6884 H 688.143 4.81676 -1.19174 0
M  V30 6885 N 687.317 1.12792 1.10072 0
M  V30 6886 C 688.264 0.79921 2.16521 0
M  V30 6887 C 689.234 -0.235726 1.64419 0
M  V30 6888 O 690.419 -0.109457 1.90486 0
M  V30 6889 C 687.559 0.264091 3.44088 0
M  V30 6890 C 686.672 1.35729 4.10124 0
M  V30 6891 C 685.807 0.781212 5.25424 0
M  V30 6892 C 684.846 1.85327 5.8337 0
M  V30 6893 N 683.983 1.29564 6.90042 0
M  V30 6894 H 688.823 1.71105 2.43981 0
M  V30 6895 H 686.36 0.854225 1.19756 0
M  V30 6896 H 688.318 -0.0642423 4.17151 0
M  V30 6897 H 686.948 -0.610901 3.16967 0
M  V30 6898 H 686 1.80234 3.34993 0
M  V30 6899 H 687.312 2.16782 4.4923 0
M  V30 6900 H 686.466 0.403769 6.05355 0
M  V30 6901 H 685.205 -0.0604686 4.87663 0
M  V30 6902 H 684.21 2.23986 5.02106 0
M  V30 6903 H 685.435 2.69824 6.23195 0
M  V30 6904 H 683.381 0.475844 6.54272 0
M  V30 6905 H 683.298 2.04271 7.2788 0
M  V30 6906 H 684.566 0.945545 7.73744 0
M  V30 6907 N 688.795 -1.27931 0.920396 0
M  V30 6908 C 690.072 -1.89728 0.475687 0
M  V30 6909 C 690.452 -1.8337 -1.04588 0
M  V30 6910 O 689.8 -1.27404 -1.89685 0
M  V30 6911 C 690.01 -3.33959 1.01354 0
M  V30 6912 C 691.358 -4.10907 1.06963 0
M  V30 6913 O 692.382 -3.42945 0.962646 0
M  V30 6914 O 691.241 -5.32399 1.23343 0
M  V30 6915 H 688.335 -0.81294 0.151845 0
M  V30 6916 H 690.881 -1.36252 1.01161 0
M  V30 6917 H 689.653 -3.32843 2.05746 0
M  V30 6918 H 689.276 -3.94944 0.458829 0
M  V30 6919 N 690.273 -0.685099 -1.4193 0
M  V30 6920 C 691.221 -0.00165985 -2.326 0
M  V30 6921 C 692.215 0.779678 -1.50391 0
M  V30 6922 O 693.421 0.68648 -1.66395 0
M  V30 6923 H 689.796 0.0182616 -0.751778 0
M  V30 6924 H 691.767 -0.783592 -2.87928 0
M  V30 6925 C 690.516 0.928385 -3.35077 0
M  V30 6926 H 689.839 0.336578 -3.98381 0
M  V30 6927 H 691.279 1.37509 -4.01083 0
M  V30 6928 C 689.738 2.03964 -2.68142 0
M  V30 6929 O 690.268 3.12727 -2.5212 0
M  V30 6930 N 688.474 1.81433 -2.27003 0
M  V30 6931 H 688.021 0.929807 -2.40234 0
M  V30 6932 H 687.979 2.55973 -1.82552 0
M  V30 6933 N 691.751 1.51645 -0.429126 0
M  V30 6934 C 692.997 2.02314 0.140286 0
M  V30 6935 C 693.33 1.31314 1.43074 0
M  V30 6936 O 692.605 0.425531 1.89788 0
M  V30 6937 C 692.888 3.5822 0.36749 0
M  V30 6938 C 692.741 4.39846 -0.941039 0
M  V30 6939 C 694.06 4.25055 1.14089 0
M  V30 6940 H 691.179 0.735335 0.0495112 0
M  V30 6941 H 693.821 1.81358 -0.566514 0
M  V30 6942 H 691.971 3.76207 0.969556 0
M  V30 6943 H 693.643 4.33527 -1.57646 0
M  V30 6944 H 691.886 4.05259 -1.54751 0
M  V30 6945 H 692.557 5.47069 -0.73621 0
M  V30 6946 H 695.033 4.11288 0.630986 0
M  V30 6947 H 693.909 5.34038 1.26863 0
M  V30 6948 H 694.17 3.85358 2.16683 0
M  V30 6949 N 693.229 0.160201 1.56784 0
M  V30 6950 C 694.139 -0.787167 2.21 0
M  V30 6951 C 695.155 -1.26167 1.19825 0
M  V30 6952 O 696.331 -1.31611 1.52448 0
M  V30 6953 C 693.396 -2.00364 2.8294 0
M  V30 6954 C 692.457 -1.5771 3.99282 0
M  V30 6955 C 691.69 -2.73558 4.58259 0
M  V30 6956 O 691.913 -3.90129 4.16119 0
M  V30 6957 O 690.847 -2.48271 5.48311 0
M  V30 6958 H 694.673 -0.270462 3.02493 0
M  V30 6959 H 692.258 -0.0674666 1.49248 0
M  V30 6960 H 694.14 -2.71529 3.22257 0
M  V30 6961 H 692.815 -2.50961 2.04451 0
M  V30 6962 H 691.722 -0.835274 3.64656 0
M  V30 6963 H 693.055 -1.11815 4.79331 0
M  V30 6964 N 694.707 -1.5719 -0.113559 0
M  V30 6965 C 695.955 -1.84772 -0.818761 0
M  V30 6966 C 696.276 -0.746196 -1.80158 0
M  V30 6967 O 695.546 0.229305 -1.94553 0
M  V30 6968 H 694.126 -0.681737 -0.305359 0
M  V30 6969 H 696.788 -1.94645 -0.0995845 0
M  V30 6970 H 695.884 -2.80878 -1.36067 0
M  V30 6971 N 696.185 0.383891 -1.52853 0
M  V30 6972 C 697.432 1.12842 -1.68146 0
M  V30 6973 C 697.76 1.89823 -0.423954 0
M  V30 6974 O 697.015 1.86475 0.593765 0
M  V30 6975 C 697.314 2.12881 -2.87082 0
M  V30 6976 C 696.98 1.52519 -4.24322 0
M  V30 6977 C 695.642 1.35783 -4.61645 0
M  V30 6978 C 697.994 1.0868 -5.09743 0
M  V30 6979 C 695.322 0.737643 -5.82044 0
M  V30 6980 C 697.674 0.480699 -6.30771 0
M  V30 6981 C 696.338 0.300681 -6.66822 0
M  V30 6982 H 695.608 0.412917 -0.615289 0
M  V30 6983 H 698.255 0.412416 -1.87006 0
M  V30 6984 H 696.56 2.90719 -2.62659 0
M  V30 6985 H 698.257 2.70408 -2.96109 0
M  V30 6986 H 694.847 1.66534 -3.94923 0
M  V30 6987 H 699.031 1.2041 -4.81472 0
M  V30 6988 H 694.287 0.586415 -6.08581 0
M  V30 6989 H 698.461 0.132733 -6.96273 0
M  V30 6990 H 696.088 -0.181966 -7.59982 0
M  V30 6991 N 697.663 1.43903 0.642637 0
M  V30 6992 C 698.611 1.50164 1.77634 0
M  V30 6993 C 699.605 0.374294 1.65213 0
M  V30 6994 O 700.811 0.548748 1.71431 0
M  V30 6995 H 697.186 0.470974 0.586249 0
M  V30 6996 H 699.157 2.45603 1.69474 0
M  V30 6997 C 697.906 1.45196 3.15933 0
M  V30 6998 H 697.229 2.31253 3.26132 0
M  V30 6999 H 698.669 1.53638 3.95185 0
M  V30 7000 C 697.128 0.171043 3.36466 0
M  V30 7001 O 697.658 -0.763413 3.94379 0
M  V30 7002 N 695.864 0.077847 2.90496 0
M  V30 7003 H 695.411 0.8391 2.43551 0
M  V30 7004 H 695.369 -0.778473 3.0461 0
M  V30 7005 N 699.141 -0.881989 1.30609 0
M  V30 7006 C 700.381 -1.64817 1.20891 0
M  V30 7007 C 700.745 -1.90593 -0.232043 0
M  V30 7008 O 701.946 -2.64964 -0.452516 0
M  V30 7009 C 700.217 -2.95006 2.01758 0
M  V30 7010 S 701.776 -3.85953 2.08771 0
M  V30 7011 H 698.594 -0.565651 0.430767 0
M  V30 7012 H 701.196 -1.04665 1.65122 0
M  V30 7013 H 699.9 -2.73973 3.0556 0
M  V30 7014 H 699.431 -3.60189 1.582 0
M  V30 7015 H 701.446 -4.81037 1.21727 0
M  V30 7016 N 700.619 -1.13374 -1.09472 0
M  V30 7017 C 701.529 -0.824029 -2.19652 0
M  V30 7018 C 702.545 0.19118 -1.72947 0
M  V30 7019 O 703.721 0.0223464 -2.01388 0
M  V30 7020 C 700.786 -0.294009 -3.45451 0
M  V30 7021 C 699.847 -1.3704 -4.0684 0
M  V30 7022 C 699.08 -0.86558 -5.26634 0
M  V30 7023 O 699.303 0.29702 -5.69626 0
M  V30 7024 O 698.237 -1.63968 -5.79136 0
M  V30 7025 H 702.063 -1.74454 -2.48595 0
M  V30 7026 H 699.648 -0.911155 -1.18399 0
M  V30 7027 H 701.53 -0.00381039 -4.214 0
M  V30 7028 H 700.205 0.598921 -3.18111 0
M  V30 7029 H 699.112 -1.71391 -3.3253 0
M  V30 7030 H 700.445 -2.23746 -4.38405 0
M  V30 7031 N 702.098 1.27442 -0.927168 0
M  V30 7032 C 703.514 1.46754 -0.627329 0
M  V30 7033 C 703.714 1.83902 0.823549 0
M  V30 7034 O 702.77 1.95215 1.60148 0
M  V30 7035 C 704.083 2.56045 -1.57674 0
M  V30 7036 C 705.631 2.69906 -1.58491 0
M  V30 7037 C 706.106 3.82355 -2.52128 0
M  V30 7038 N 707.597 3.89728 -2.50332 0
M  V30 7039 C 708.332 4.76155 -3.19475 0
M  V30 7040 N 707.828 5.67073 -3.97995 0
M  V30 7041 N 709.621 4.6988 -3.08496 0
M  V30 7042 H 701.772 1.01613 -1.86517 0
M  V30 7043 H 704.035 0.507443 -0.800753 0
M  V30 7044 H 703.741 2.35542 -2.61176 0
M  V30 7045 H 703.615 3.53423 -1.31804 0
M  V30 7046 H 706.002 2.89792 -0.557208 0
M  V30 7047 H 706.083 1.73018 -1.8841 0
M  V30 7048 H 705.727 3.63224 -3.55008 0
M  V30 7049 H 705.657 4.7867 -2.19505 0
M  V30 7050 H 708.148 3.24717 -1.93306 0
M  V30 7051 H 708.461 6.2988 -4.4774 0
M  V30 7052 H 706.806 5.6687 -4.02098 0
M  V30 7053 H 709.997 3.97848 -2.46646 0
M  V30 7054 H 710.17 5.37017 -3.62652 0
M  V30 7055 N 703.576 0.692616 1.41565 0
M  V30 7056 C 704.816 0.226453 2.03142 0
M  V30 7057 C 705.18 -1.1512 1.5366 0
M  V30 7058 O 706.381 -1.71305 2.07143 0
M  V30 7059 C 704.652 0.27855 3.56313 0
M  V30 7060 S 706.211 -0.114001 4.38652 0
M  V30 7061 H 703.029 0.0914767 0.705091 0
M  V30 7062 H 705.631 0.909737 1.73043 0
M  V30 7063 H 704.335 1.28325 3.89821 0
M  V30 7064 H 703.866 -0.423981 3.91109 0
M  V30 7065 H 705.881 -1.34256 4.77692 0
M  V30 7066 N 705.054 -1.51416 0.437162 0
M  V30 7067 C 706.001 -2.27743 -0.374374 0
M  V30 7068 C 706.971 -1.31327 -1.01698 0
M  V30 7069 O 708.156 -1.60229 -1.03592 0
M  V30 7070 C 705.296 -3.12241 -1.46969 0
M  V30 7071 C 704.409 -4.23651 -0.845236 0
M  V30 7072 C 703.544 -4.95458 -1.91559 0
M  V30 7073 C 702.583 -5.98789 -1.26956 0
M  V30 7074 N 701.72 -6.64005 -2.28126 0
M  V30 7075 H 706.56 -2.96654 0.282892 0
M  V30 7076 H 704.097 -1.46319 0.151352 0
M  V30 7077 H 706.055 -3.59556 -2.11602 0
M  V30 7078 H 704.685 -2.45445 -2.09659 0
M  V30 7079 H 703.737 -3.803 -0.0872059 0
M  V30 7080 H 705.049 -4.97683 -0.333582 0
M  V30 7081 H 704.203 -5.46321 -2.63854 0
M  V30 7082 H 702.942 -4.21055 -2.46097 0
M  V30 7083 H 701.947 -5.47219 -0.53207 0
M  V30 7084 H 703.172 -6.75149 -0.731509 0
M  V30 7085 H 701.118 -5.92415 -2.81745 0
M  V30 7086 H 701.035 -7.33802 -1.81852 0
M  V30 7087 H 702.303 -7.19498 -2.99905 0
M  V30 7088 N 706.532 -0.168513 -1.56696 0
M  V30 7089 C 707.943 0.348694 -1.83415 0
M  V30 7090 C 708.294 1.63257 -1.0882 0
M  V30 7091 O 707.419 2.13707 -0.340333 0
M  V30 7092 C 708.014 0.639423 -3.32711 0
M  V30 7093 C 706.573 1.10108 -3.59935 0
M  V30 7094 C 705.72 0.135464 -2.76969 0
M  V30 7095 H 708.671 -0.392829 -1.53761 0
M  V30 7096 H 708.692 1.49179 -3.50037 0
M  V30 7097 H 708.204 -0.295173 -3.86976 0
M  V30 7098 H 706.305 2.05088 -3.11079 0
M  V30 7099 H 706.418 1.01218 -4.68286 0
M  V30 7100 H 704.782 0.632286 -2.46727 0
M  V30 7101 H 705.565 -0.793104 -3.34013 0
M  V30 7102 N 708.01 1.57248 0.105221 0
M  V30 7103 C 709.258 1.85204 0.808951 0
M  V30 7104 C 709.579 0.75574 1.7976 0
M  V30 7105 O 708.849 -0.218984 1.94672 0
M  V30 7106 H 707.429 0.683346 0.301739 0
M  V30 7107 H 710.091 1.94695 0.0892605 0
M  V30 7108 H 709.187 2.81595 1.34575 0
M  V30 7109 N 709.488 -0.375779 1.53054 0
M  V30 7110 C 710.735 -1.11948 1.68742 0
M  V30 7111 C 711.063 -1.89596 0.434015 0
M  V30 7112 O 710.318 -1.86787 -0.583867 0
M  V30 7113 C 710.617 -2.11356 2.88207 0
M  V30 7114 C 710.283 -1.50266 4.25124 0
M  V30 7115 C 708.945 -1.33333 4.62359 0
M  V30 7116 C 711.297 -1.05976 5.10312 0
M  V30 7117 C 708.625 -0.706765 5.82427 0
M  V30 7118 C 710.977 -0.447241 6.31017 0
M  V30 7119 C 709.641 -0.265314 6.66973 0
M  V30 7120 H 708.911 -0.409648 0.61747 0
M  V30 7121 H 711.558 -0.402492 1.87222 0
M  V30 7122 H 709.863 -2.89322 2.64197 0
M  V30 7123 H 711.56 -2.68833 2.97539 0
M  V30 7124 H 708.15 -1.64437 3.95801 0
M  V30 7125 H 712.334 -1.17855 4.82104 0
M  V30 7126 H 707.59 -0.554132 6.08884 0
M  V30 7127 H 711.764 -0.0958064 6.96334 0
M  V30 7128 H 709.391 0.222267 7.59875 0
M  V30 7129 N 710.966 -1.44241 -0.634997 0
M  V30 7130 C 712.213 -1.46821 -1.39463 0
M  V30 7131 C 712.541 -0.0993362 -1.94246 0
M  V30 7132 O 711.796 0.898325 -1.73864 0
M  V30 7133 C 712.095 -2.47279 -2.58046 0
M  V30 7134 C 711.761 -3.92703 -2.21574 0
M  V30 7135 C 710.423 -4.32306 -2.1134 0
M  V30 7136 C 712.775 -4.84271 -1.92695 0
M  V30 7137 C 710.103 -5.61407 -1.70409 0
M  V30 7138 C 712.455 -6.13755 -1.53258 0
M  V30 7139 C 711.119 -6.52316 -1.41562 0
M  V30 7140 H 710.389 -0.537256 -0.51033 0
M  V30 7141 H 713.036 -1.77431 -0.720441 0
M  V30 7142 H 711.341 -2.10138 -3.3068 0
M  V30 7143 H 713.038 -2.46523 -3.16271 0
M  V30 7144 H 709.628 -3.61369 -2.30456 0
M  V30 7145 H 713.812 -4.54432 -1.99513 0
M  V30 7146 H 709.068 -5.90105 -1.59955 0
M  V30 7147 H 713.242 -6.84168 -1.29949 0
M  V30 7148 H 710.869 -7.52255 -1.09619 0
M  V30 7149 N 712.444 0.87505 -1.31075 0
M  V30 7150 C 713.392 2.00317 -1.18219 0
M  V30 7151 C 714.386 1.69152 -0.0916872 0
M  V30 7152 O 715.592 1.7821 -0.253229 0
M  V30 7153 H 711.967 0.656981 -0.365895 0
M  V30 7154 H 713.938 2.08293 -2.13674 0
M  V30 7155 C 712.687 3.35821 -0.901095 0
M  V30 7156 H 712.01 3.6032 -1.73233 0
M  V30 7157 H 713.45 4.15366 -0.851295 0
M  V30 7158 C 711.909 3.34563 0.396114 0
M  V30 7159 O 712.439 3.75971 1.41452 0
M  V30 7160 N 710.645 2.87681 0.410832 0
M  V30 7161 H 710.192 2.54179 -0.418415 0
M  V30 7162 H 710.15 2.87223 1.27869 0
M  V30 7163 N 713.922 1.13953 1.08869 0
M  V30 7164 C 714.852 0.844824 2.17681 0
M  V30 7165 C 715.833 -0.198213 1.68941 0
M  V30 7166 O 717.018 -0.0559073 1.9412 0
M  V30 7167 C 714.148 0.316325 3.45856 0
M  V30 7168 C 713.102 1.29426 4.07962 0
M  V30 7169 C 712.428 0.625275 5.31031 0
M  V30 7170 C 713.728 2.65484 4.49795 0
M  V30 7171 H 715.422 1.75471 2.42591 0
M  V30 7172 H 712.968 0.845116 1.16592 0
M  V30 7173 H 714.921 0.0977876 4.21287 0
M  V30 7174 H 713.645 -0.628972 3.20486 0
M  V30 7175 H 712.304 1.49889 3.34558 0
M  V30 7176 H 711.952 -0.325678 5.01945 0
M  V30 7177 H 711.652 1.27777 5.73539 0
M  V30 7178 H 713.176 0.416152 6.0918 0
M  V30 7179 H 714.59 2.48957 5.16424 0
M  V30 7180 H 712.987 3.26963 5.03205 0
M  V30 7181 H 714.057 3.22717 3.61914 0
M  V30 7182 N 715.4 -1.26948 0.933913 0
M  V30 7183 C 716.31 -2.30366 0.443671 0
M  V30 7184 C 717.326 -1.67284 -0.478745 0
M  V30 7185 O 718.502 -1.98156 -0.360043 0
M  V30 7186 C 715.567 -3.45485 -0.289974 0
M  V30 7187 C 714.628 -4.24069 0.668114 0
M  V30 7188 C 713.861 -5.33691 -0.0306138 0
M  V30 7189 O 714.084 -5.5656 -1.24888 0
M  V30 7190 O 713.018 -5.98441 0.644384 0
M  V30 7191 H 716.844 -2.74349 1.30254 0
M  V30 7192 H 714.429 -1.32012 0.699506 0
M  V30 7193 H 716.311 -4.15486 -0.70353 0
M  V30 7194 H 714.986 -3.03546 -1.12435 0
M  V30 7195 H 713.893 -3.56579 1.13147 0
M  V30 7196 H 715.226 -4.69739 1.46989 0
M  V30 7197 N 716.879 -0.700114 -1.41195 0
M  V30 7198 C 718.104 -0.240704 -2.05998 0
M  V30 7199 C 718.529 1.10313 -1.52357 0
M  V30 7200 O 717.887 1.69154 -0.652424 0
M  V30 7201 C 717.935 -0.213783 -3.59966 0
M  V30 7202 O 717.039 0.809933 -4.04368 0
M  V30 7203 H 716.38 -0.116471 -0.653705 0
M  V30 7204 H 718.91 -0.956251 -1.80878 0
M  V30 7205 H 718.92 -0.0461852 -4.07974 0
M  V30 7206 H 717.595 -1.19454 -3.98376 0
M  V30 7207 H 716.172 0.611319 -3.67855 0
M  V30 7208 N 718.357 1.51182 -0.445186 0
M  V30 7209 C 719.582 2.07056 0.119445 0
M  V30 7210 C 720.007 1.30966 1.35016 0
M  V30 7211 O 719.365 0.349827 1.77893 0
M  V30 7212 C 719.413 3.58234 0.412428 0
M  V30 7213 O 718.517 3.84249 1.49754 0
M  V30 7214 H 717.858 0.663998 -0.00157797 0
M  V30 7215 H 720.388 1.94699 -0.628779 0
M  V30 7216 H 720.398 4.02617 0.660583 0
M  V30 7217 H 719.073 4.13038 -0.487049 0
M  V30 7218 H 717.65 3.51724 1.23873 0
M  V30 7219 N 719.835 0.176821 1.56605 0
M  V30 7220 C 720.783 -0.768159 2.1955 0
M  V30 7221 C 721.777 -1.23343 1.16116 0
M  V30 7222 O 722.983 -1.19844 1.34303 0
M  V30 7223 H 719.358 -0.266013 0.703378 0
M  V30 7224 H 721.329 -0.213374 2.97636 0
M  V30 7225 C 720.078 -1.98492 2.85475 0
M  V30 7226 H 719.401 -1.63595 3.64797 0
M  V30 7227 H 720.841 -2.62489 3.3298 0
M  V30 7228 C 719.3 -2.81207 1.85538 0
M  V30 7229 O 719.83 -3.7854 1.34427 0
M  V30 7230 N 718.036 -2.46331 1.54173 0
M  V30 7231 H 717.583 -1.67241 1.95929 0
M  V30 7232 H 717.541 -3.01961 0.875595 0
M  V30 7233 N 721.313 -1.57302 -0.09688 0
M  V30 7234 C 722.724 -1.7496 -0.651595 0
M  V30 7235 C 723.075 -0.798746 -1.79205 0
M  V30 7236 O 722.2 0.0231858 -2.16388 0
M  V30 7237 C 722.795 -3.17259 -1.18878 0
M  V30 7238 C 721.354 -3.36348 -1.68958 0
M  V30 7239 C 720.501 -2.70766 -0.598413 0
M  V30 7240 H 723.452 -1.58173 0.12918 0
M  V30 7241 H 723.473 -3.20033 -2.05814 0
M  V30 7242 H 722.985 -3.8644 -0.358523 0
M  V30 7243 H 721.086 -2.72243 -2.5439 0
M  V30 7244 H 721.199 -4.44654 -1.7838 0
M  V30 7245 H 719.563 -2.32615 -1.03743 0
M  V30 7246 H 720.346 -3.42586 0.221238 0
M  V30 7247 N 722.791 0.367657 -1.53252 0
M  V30 7248 C 724.207 0.709191 -1.42978 0
M  V30 7249 C 724.407 1.93352 -0.567193 0
M  V30 7250 O 723.463 2.52453 -0.0488349 0
M  V30 7251 C 724.776 0.924338 -2.86141 0
M  V30 7252 C 726.324 1.02448 -2.95759 0
M  V30 7253 C 726.799 1.27211 -4.39979 0
M  V30 7254 N 728.29 1.33986 -4.43398 0
M  V30 7255 C 729.025 1.54852 -5.52095 0
M  V30 7256 N 728.521 1.73049 -6.7084 0
M  V30 7257 N 730.314 1.57205 -5.39669 0
M  V30 7258 H 722.465 -0.437669 -2.07842 0
M  V30 7259 H 724.728 -0.133737 -0.938519 0
M  V30 7260 H 724.434 0.0965455 -3.51567 0
M  V30 7261 H 724.308 1.83302 -3.29667 0
M  V30 7262 H 726.695 1.84282 -2.30487 0
M  V30 7263 H 726.776 0.0932301 -2.5563 0
M  V30 7264 H 726.42 0.458792 -5.05824 0
M  V30 7265 H 726.35 2.21654 -4.77679 0
M  V30 7266 H 728.841 1.21545 -3.5782 0
M  V30 7267 H 729.154 1.88538 -7.49449 0
M  V30 7268 H 727.499 1.70231 -6.7383 0
M  V30 7269 H 730.69 1.42555 -4.45865 0
M  V30 7270 H 730.863 1.73126 -6.24445 0
M  V30 7271 N 724.269 1.44576 0.627338 0
M  V30 7272 C 725.517 1.47267 1.38408 0
M  V30 7273 C 725.838 0.107971 1.94701 0
M  V30 7274 O 725.108 -0.860206 1.76004 0
M  V30 7275 H 723.688 0.542276 0.513756 0
M  V30 7276 H 726.35 1.80383 0.738099 0
M  V30 7277 H 725.446 2.20025 2.21349 0
M  V30 7278 N 725.747 -0.868086 1.31537 0
M  V30 7279 C 726.987 -1.63526 1.22632 0
M  V30 7280 C 727.351 -1.90828 -0.211815 0
M  V30 7281 O 728.552 -2.65429 -0.424387 0
M  V30 7282 C 726.823 -2.92849 2.04876 0
M  V30 7283 S 728.382 -3.83717 2.12853 0
M  V30 7284 H 725.2 -0.56105 0.436743 0
M  V30 7285 H 727.802 -1.02908 1.66223 0
M  V30 7286 H 726.506 -2.70717 3.08449 0
M  V30 7287 H 726.037 -3.58491 1.62011 0
M  V30 7288 H 728.052 -4.79719 1.26822 0
M  V30 7289 N 727.225 -1.14528 -1.08264 0
M  V30 7290 C 728.453 -0.937964 -1.84418 0
M  V30 7291 C 728.868 0.51357 -1.81681 0
M  V30 7292 O 728.225 1.35591 -1.22153 0
M  V30 7293 C 728.276 -1.43272 -3.31897 0
M  V30 7294 O 727.997 -2.82738 -3.34651 0
M  V30 7295 C 729.498 -1.26555 -4.24851 0
M  V30 7296 H 726.718 -0.333704 -0.582136 0
M  V30 7297 H 729.262 -1.52076 -1.36723 0
M  V30 7298 H 727.417 -0.892653 -3.76975 0
M  V30 7299 H 727.831 -3.04971 -4.26724 0
M  V30 7300 H 729.305 -1.66031 -5.26439 0
M  V30 7301 H 729.782 -0.208589 -4.38704 0
M  V30 7302 H 730.388 -1.79423 -3.856 0
M  V30 7303 N 728.703 1.26451 -0.940633 0
M  V30 7304 C 730.114 1.75726 -0.630653 0
M  V30 7305 C 730.465 1.76631 0.854167 0
M  V30 7306 O 729.59 1.37807 1.66848 0
M  V30 7307 C 730.185 3.19114 -1.13805 0
M  V30 7308 C 728.744 3.66005 -0.878497 0
M  V30 7309 C 727.891 2.45505 -1.28928 0
M  V30 7310 H 730.842 1.12535 -1.119 0
M  V30 7311 H 730.863 3.77311 -0.491625 0
M  V30 7312 H 730.375 3.18424 -2.21874 0
M  V30 7313 H 728.476 3.72126 0.187833 0
M  V30 7314 H 728.589 4.54844 -1.50512 0
M  V30 7315 H 726.953 2.4467 -0.707713 0
M  V30 7316 H 727.736 2.47516 -2.37888 0
M  V30 7317 N 730.181 0.707592 1.40822 0
M  V30 7318 C 731.421 0.247986 2.0289 0
M  V30 7319 C 731.785 -1.13484 1.54872 0
M  V30 7320 O 732.986 -1.69098 2.08948 0
M  V30 7321 C 731.257 0.316326 3.55997 0
M  V30 7322 S 732.816 -0.0674698 4.38748 0
M  V30 7323 H 729.634 0.09895 0.704081 0
M  V30 7324 H 732.236 0.928039 1.72069 0
M  V30 7325 H 730.94 1.32453 3.88438 0
M  V30 7326 H 730.471 -0.382474 3.91536 0
M  V30 7327 H 732.486 -1.29182 4.79089 0
M  V30 7328 N 731.66 -1.50943 0.453197 0
M  V30 7329 C 732.907 -2.02212 -0.107922 0
M  V30 7330 C 733.235 -1.33639 -1.41318 0
M  V30 7331 O 732.49 -0.445154 -1.9057 0
M  V30 7332 C 732.789 -3.55603 -0.357944 0
M  V30 7333 C 732.455 -4.42556 0.863427 0
M  V30 7334 C 731.117 -4.6604 1.19834 0
M  V30 7335 C 733.469 -4.93468 1.67747 0
M  V30 7336 C 730.797 -5.37681 2.34768 0
M  V30 7337 C 733.149 -5.6637 2.81793 0
M  V30 7338 C 731.813 -5.88113 3.1572 0
M  V30 7339 H 731.083 -0.739947 -0.0394916 0
M  V30 7340 H 733.73 -1.81738 0.60363 0
M  V30 7341 H 732.035 -3.74495 -1.15156 0
M  V30 7342 H 733.732 -3.92821 -0.805781 0
M  V30 7343 H 730.322 -4.24485 0.592478 0
M  V30 7344 H 734.506 -4.75194 1.43192 0
M  V30 7345 H 729.762 -5.52727 2.61348 0
M  V30 7346 H 733.936 -6.04806 3.45229 0
M  V30 7347 H 731.563 -6.43404 4.04889 0
M  V30 7348 N 733.138 -0.185124 -1.56509 0
M  V30 7349 C 734.378 0.458547 -1.9919 0
M  V30 7350 C 734.742 1.59484 -1.06906 0
M  V30 7351 O 735.943 2.30201 -1.38783 0
M  V30 7352 C 734.214 0.916263 -3.45455 0
M  V30 7353 S 735.773 1.55918 -4.10165 0
M  V30 7354 H 732.591 0.147008 -0.695636 0
M  V30 7355 H 735.193 -0.285841 -1.93399 0
M  V30 7356 H 733.897 0.0790543 -4.10324 0
M  V30 7357 H 733.428 1.69436 -3.55042 0
M  V30 7358 H 735.443 2.84771 -4.0635 0
M  V30 7359 N 734.616 1.57351 0.0885366 0
M  V30 7360 C 735.863 1.86419 0.790824 0
M  V30 7361 C 736.191 0.774561 1.78412 0
M  V30 7362 O 735.446 -0.23119 1.9433 0
M  V30 7363 C 735.745 3.22098 1.5488 0
M  V30 7364 C 735.411 4.4548 0.697025 0
M  V30 7365 C 734.073 4.78975 0.462237 0
M  V30 7366 C 736.425 5.21094 0.105315 0
M  V30 7367 C 733.753 5.85507 -0.374016 0
M  V30 7368 C 736.105 6.28509 -0.718298 0
M  V30 7369 C 734.769 6.60515 -0.963116 0
M  V30 7370 H 734.039 0.682157 0.289383 0
M  V30 7371 H 736.686 1.91429 0.0520961 0
M  V30 7372 H 734.991 3.12803 2.35927 0
M  V30 7373 H 736.688 3.41819 2.09669 0
M  V30 7374 H 733.278 4.19255 0.890137 0
M  V30 7375 H 737.462 4.95544 0.273856 0
M  V30 7376 H 732.718 6.08713 -0.572606 0
M  V30 7377 H 736.892 6.86268 -1.18362 0
M  V30 7378 H 734.519 7.42893 -1.6129 0
M  V30 7379 N 736.094 -0.359525 1.53444 0
M  V30 7380 C 737.342 -1.09935 1.69584 0
M  V30 7381 C 737.663 -1.89656 0.453371 0
M  V30 7382 O 736.933 -1.8852 -0.53263 0
M  V30 7383 H 735.513 -0.408843 0.625185 0
M  V30 7384 H 738.175 -0.40467 1.90653 0
M  V30 7385 H 737.271 -1.78575 2.55964 0
M  V30 7386 N 737.572 -1.44907 -0.619662 0
M  V30 7387 C 738.522 -1.49085 -1.72504 0
M  V30 7388 C 739.506 -0.355372 -1.56926 0
M  V30 7389 O 740.698 -0.601441 -1.66468 0
M  V30 7390 C 737.827 -1.44889 -3.11227 0
M  V30 7391 C 736.913 -2.63593 -3.32234 0
M  V30 7392 N 737.304 -3.88775 -3.23555 0
M  V30 7393 C 735.602 -2.59033 -3.63067 0
M  V30 7394 C 736.303 -4.67932 -3.45564 0
M  V30 7395 N 735.279 -3.9919 -3.68983 0
M  V30 7396 H 739.081 -2.43706 -1.6427 0
M  V30 7397 H 736.595 -1.4003 -0.82252 0
M  V30 7398 H 738.592 -1.45966 -3.90512 0
M  V30 7399 H 737.252 -0.513143 -3.2062 0
M  V30 7400 H 738.263 -4.20574 -3.02221 0
M  V30 7401 H 734.94 -1.7431 -3.79371 0
M  V30 7402 H 736.33 -5.76952 -3.44349 0
M  V30 7403 N 739.05 0.861098 -1.31996 0
M  V30 7404 C 740.275 1.65264 -1.2531 0
M  V30 7405 C 740.7 1.87265 0.177007 0
M  V30 7406 O 740.058 1.4208 1.12619 0
M  V30 7407 C 740.106 2.99284 -2.0115 0
M  V30 7408 O 739.21 3.89508 -1.3549 0
M  V30 7409 H 738.551 0.50409 -0.432192 0
M  V30 7410 H 741.081 1.07297 -1.74208 0
M  V30 7411 H 741.091 3.49154 -2.11081 0
M  V30 7412 H 739.766 2.82591 -3.05148 0
M  V30 7413 H 738.343 3.47966 -1.34066 0
M  V30 7414 N 740.528 1.15101 1.07655 0
M  V30 7415 C 741.753 0.948177 1.84457 0
M  V30 7416 C 742.178 -0.498432 1.81376 0
M  V30 7417 O 741.536 -1.35509 1.20445 0
M  V30 7418 C 741.584 1.46318 3.29581 0
M  V30 7419 O 740.688 0.660342 4.07079 0
M  V30 7420 H 740.029 0.338428 0.571281 0
M  V30 7421 H 742.559 1.5301 1.35828 0
M  V30 7422 H 742.569 1.47468 3.80417 0
M  V30 7423 H 741.244 2.51635 3.31138 0
M  V30 7424 H 739.821 0.718216 3.65918 0
M  V30 7425 N 742.006 -1.2595 0.947325 0
M  V30 7426 C 743.252 -1.9375 0.599064 0
M  V30 7427 C 743.585 -1.74088 -0.860632 0
M  V30 7428 O 742.86 -1.08158 -1.61654 0
M  V30 7429 C 743.143 -3.47353 0.949634 0
M  V30 7430 C 742.996 -3.76273 2.46452 0
M  V30 7431 C 744.315 -4.37589 0.469442 0
M  V30 7432 H 741.434 -0.703674 0.219115 0
M  V30 7433 H 744.076 -1.48705 1.18266 0
M  V30 7434 H 742.226 -3.8585 0.453008 0
M  V30 7435 H 743.898 -3.47455 3.03435 0
M  V30 7436 H 742.141 -3.22135 2.90537 0
M  V30 7437 H 742.812 -4.83664 2.66032 0
M  V30 7438 H 745.288 -4.06353 0.89534 0
M  V30 7439 H 744.164 -5.43841 0.7435 0
M  V30 7440 H 744.425 -4.37579 -0.630618 0
M  V30 7441 N 743.484 -0.715051 -1.40445 0
M  V30 7442 C 744.724 -0.258742 -2.02756 0
M  V30 7443 C 745.088 1.12661 -1.55472 0
M  V30 7444 O 746.289 1.67988 -2.09842 0
M  V30 7445 C 744.56 -0.335201 -3.55825 0
M  V30 7446 S 746.119 0.044201 -4.38778 0
M  V30 7447 H 742.937 -0.102683 -0.703546 0
M  V30 7448 H 745.539 -0.937151 -1.71574 0
M  V30 7449 H 744.243 -1.34511 -3.87731 0
M  V30 7450 H 743.774 0.361705 -3.91734 0
M  V30 7451 H 745.789 1.26639 -4.79768 0
M  V30 7452 N 744.962 1.50701 -0.461195 0
M  V30 7453 C 746.19 2.06681 0.0951756 0
M  V30 7454 C 746.605 1.32615 1.34382 0
M  V30 7455 O 745.962 0.392531 1.78229 0
M  V30 7456 C 746.013 3.59354 0.393316 0
M  V30 7457 O 745.734 4.30626 -0.805797 0
M  V30 7458 C 747.235 4.31926 0.997744 0
M  V30 7459 H 744.455 0.670995 -0.00267259 0
M  V30 7460 H 746.999 1.93991 -0.647137 0
M  V30 7461 H 745.154 3.7188 1.08555 0
M  V30 7462 H 745.568 5.21667 -0.544409 0
M  V30 7463 H 747.042 5.39756 1.15619 0
M  V30 7464 H 747.519 3.91772 1.98523 0
M  V30 7465 H 748.125 4.23905 0.344188 0
M  V30 7466 N 746.441 0.193421 1.56409 0
M  V30 7467 C 747.389 -0.744829 2.20352 0
M  V30 7468 C 748.383 -1.22104 1.17418 0
M  V30 7469 O 749.589 -1.18413 1.35567 0
M  V30 7470 H 745.964 -0.258538 0.70616 0
M  V30 7471 H 747.935 -0.181794 2.97846 0
M  V30 7472 C 746.684 -1.95453 2.87565 0
M  V30 7473 H 746.007 -1.59716 3.66512 0
M  V30 7474 H 747.447 -2.58942 3.35745 0
M  V30 7475 C 745.906 -2.79223 1.8851 0
M  V30 7476 O 746.436 -3.77093 1.38434 0
M  V30 7477 N 744.642 -2.44682 1.56777 0
M  V30 7478 H 744.189 -1.65153 1.97692 0
M  V30 7479 H 744.147 -3.01016 0.907573 0
M  V30 7480 N 747.919 -1.57396 -0.0801906 0
M  V30 7481 C 748.882 -2.02133 -1.0805 0
M  V30 7482 C 749.882 -0.91707 -1.32085 0
M  V30 7483 O 751.072 -1.18217 -1.27947 0
M  V30 7484 C 748.204 -2.39479 -2.42616 0
M  V30 7485 H 749.397 -2.91733 -0.6951 0
M  V30 7486 H 746.95 -1.52869 -0.325677 0
M  V30 7487 H 747.685 -1.52879 -2.86004 0
M  V30 7488 H 747.47 -3.20052 -2.26515 0
M  V30 7489 H 748.96 -2.74697 -3.14534 0
M  V30 7490 N 749.397 0.351382 -1.53633 0
M  V30 7491 C 750.643 1.09411 -1.70754 0
M  V30 7492 C 750.976 1.88544 -0.465293 0
M  V30 7493 O 750.251 1.86923 0.537608 0
M  V30 7494 C 750.534 2.04173 -2.96623 0
M  V30 7495 C 750.387 1.28556 -4.31038 0
M  V30 7496 C 751.706 3.04102 -3.18136 0
M  V30 7497 H 748.825 0.396373 -0.621335 0
M  V30 7498 H 751.467 0.373464 -1.86293 0
M  V30 7499 H 749.617 2.65625 -2.83506 0
M  V30 7500 H 751.289 0.697786 -4.55992 0
M  V30 7501 H 749.532 0.587498 -4.29803 0
M  V30 7502 H 750.203 1.97989 -5.15271 0
M  V30 7503 H 752.679 2.5276 -3.30532 0
M  V30 7504 H 751.555 3.67616 -4.07615 0
M  V30 7505 H 751.816 3.75053 -2.34068 0
M  V30 7506 N 750.875 1.45233 0.611969 0
M  V30 7507 C 752.123 1.48727 1.36838 0
M  V30 7508 C 752.444 0.128616 1.94575 0
M  V30 7509 O 751.714 -0.84149 1.76906 0
M  V30 7510 H 750.294 0.547695 0.507976 0
M  V30 7511 H 752.956 1.81156 0.718925 0
M  V30 7512 H 752.052 2.2236 2.19003 0
M  V30 7513 N 752.353 -0.854086 1.3245 0
M  V30 7514 C 753.583 -1.63836 1.25862 0
M  V30 7515 C 753.991 -1.88383 -0.175588 0
M  V30 7516 O 753.334 -1.45353 -1.1233 0
M  V30 7517 C 753.396 -3.02068 1.94923 0
M  V30 7518 C 753.06 -3.0056 3.44257 0
M  V30 7519 C 754.057 -2.77368 4.39731 0
M  V30 7520 C 751.742 -3.21177 3.862 0
M  V30 7521 C 753.736 -2.74797 5.75122 0
M  V30 7522 C 751.423 -3.18234 5.217 0
M  V30 7523 C 752.421 -2.95072 6.15972 0
M  V30 7524 O 752.109 -2.92003 7.48992 0
M  V30 7525 H 751.841 -0.517007 0.435523 0
M  V30 7526 H 754.395 -1.07314 1.75137 0
M  V30 7527 H 752.625 -3.60382 1.40219 0
M  V30 7528 H 754.314 -3.62791 1.82037 0
M  V30 7529 H 755.08 -2.61205 4.08653 0
M  V30 7530 H 750.959 -3.38231 3.13243 0
M  V30 7531 H 754.503 -2.56638 6.48678 0
M  V30 7532 H 750.4 -3.33941 5.52407 0
M  V30 7533 H 751.168 -3.07953 7.58358 0
M  V30 7534 N 753.831 -1.1567 -1.07043 0
M  V30 7535 C 755.056 -0.957946 -1.83952 0
M  V30 7536 C 755.481 0.488807 -1.81638 0
M  V30 7537 O 754.839 1.34869 -1.21162 0
M  V30 7538 C 754.887 -1.48064 -3.288 0
M  V30 7539 O 753.991 -0.681921 -4.06723 0
M  V30 7540 H 753.332 -0.341453 -0.569479 0
M  V30 7541 H 755.862 -1.53728 -1.35015 0
M  V30 7542 H 755.872 -1.49484 -3.7963 0
M  V30 7543 H 754.547 -2.53388 -3.29799 0
M  V30 7544 H 753.124 -0.737612 -3.65532 0
M  V30 7545 N 755.309 1.25446 -0.953992 0
M  V30 7546 C 756.555 1.9343 -0.60933 0
M  V30 7547 C 756.888 1.74542 0.851388 0
M  V30 7548 O 756.163 1.09014 1.61078 0
M  V30 7549 C 756.446 3.46844 -0.968041 0
M  V30 7550 C 756.299 3.74961 -2.48444 0
M  V30 7551 C 757.618 4.37334 -0.492641 0
M  V30 7552 H 754.737 0.702502 -0.222844 0
M  V30 7553 H 757.379 1.48076 -1.19053 0
M  V30 7554 H 755.529 3.85604 -0.473465 0
M  V30 7555 H 757.201 3.45841 -3.05273 0
M  V30 7556 H 755.444 3.20589 -2.92241 0
M  V30 7557 H 756.115 4.82246 -2.68594 0
M  V30 7558 H 758.591 4.05873 -0.916878 0
M  V30 7559 H 757.467 5.43439 -0.772331 0
M  V30 7560 H 757.728 4.37908 0.607403 0
M  V30 7561 N 756.787 0.722489 1.40064 0
M  V30 7562 C 758.017 0.274439 2.04769 0
M  V30 7563 C 758.425 -1.09125 1.54559 0
M  V30 7564 O 757.768 -1.69834 0.700149 0
M  V30 7565 C 757.83 0.184091 3.59028 0
M  V30 7566 C 757.494 1.48619 4.32159 0
M  V30 7567 C 758.491 2.42947 4.59644 0
M  V30 7568 C 756.176 1.74703 4.7094 0
M  V30 7569 C 758.17 3.616 5.24904 0
M  V30 7570 C 755.857 2.93636 5.3593 0
M  V30 7571 C 756.855 3.86907 5.62843 0
M  V30 7572 O 756.543 5.03753 6.26489 0
M  V30 7573 H 756.275 0.119847 0.665292 0
M  V30 7574 H 758.829 0.983352 1.80331 0
M  V30 7575 H 757.059 -0.580821 3.82313 0
M  V30 7576 H 758.748 -0.230306 4.05246 0
M  V30 7577 H 759.514 2.24062 4.30141 0
M  V30 7578 H 755.393 1.02955 4.49356 0
M  V30 7579 H 758.937 4.34418 5.45827 0
M  V30 7580 H 754.834 3.12428 5.64853 0
M  V30 7581 H 755.602 5.03922 6.44984 0
M  V30 7582 N 758.265 -1.50454 0.469181 0
M  V30 7583 C 759.49 -2.0722 -0.0864892 0
M  V30 7584 C 759.915 -1.33098 -1.32916 0
M  V30 7585 O 759.273 -0.378084 -1.77314 0
M  V30 7586 C 759.321 -3.58845 -0.355384 0
M  V30 7587 O 758.425 -3.86583 -1.43622 0
M  V30 7588 H 757.766 -0.663889 0.0121414 0
M  V30 7589 H 760.296 -1.93674 0.659674 0
M  V30 7590 H 760.306 -4.03617 -0.596447 0
M  V30 7591 H 758.981 -4.12211 0.552698 0
M  V30 7592 H 757.558 -3.5365 -1.18262 0
M  V30 7593 N 759.743 -0.201713 -1.56304 0
M  V30 7594 C 760.992 0.435557 -1.96941 0
M  V30 7595 C 761.305 1.62299 -1.09172 0
M  V30 7596 O 762.511 2.32849 -1.3962 0
M  V30 7597 C 760.967 0.826298 -3.50286 0
M  V30 7598 C 760.575 -0.337216 -4.46729 0
M  V30 7599 C 762.319 1.43028 -3.99679 0
M  V30 7600 C 760.226 0.0748539 -5.91353 0
M  V30 7601 H 759.156 0.1665 -0.735387 0
M  V30 7602 H 761.807 -0.294781 -1.81117 0
M  V30 7603 H 760.189 1.61349 -3.61639 0
M  V30 7604 H 761.363 -1.11476 -4.47113 0
M  V30 7605 H 759.678 -0.853126 -4.07567 0
M  V30 7606 H 762.275 1.75115 -5.05212 0
M  V30 7607 H 762.618 2.33911 -3.44371 0
M  V30 7608 H 763.151 0.706924 -3.91468 0
M  V30 7609 H 759.89 -0.799957 -6.506 0
M  V30 7610 H 759.41 0.817122 -5.94208 0
M  V30 7611 H 761.089 0.508389 -6.45 0
M  V30 7612 N 761.222 1.57436 0.0718424 0
M  V30 7613 C 762.447 1.91858 0.787745 0
M  V30 7614 C 762.872 0.798119 1.70328 0
M  V30 7615 O 762.23 -0.24905 1.79581 0
M  V30 7616 C 762.278 3.25232 1.55744 0
M  V30 7617 O 761.382 3.14462 2.6681 0
M  V30 7618 H 760.723 0.628258 0.214914 0
M  V30 7619 H 763.253 2.04561 0.0401012 0
M  V30 7620 H 763.263 3.59105 1.9367 0
M  V30 7621 H 761.938 4.0636 0.885691 0
M  V30 7622 H 760.515 2.92148 2.31741 0
M  V30 7623 N 762.7 -0.34323 1.53817 0
M  V30 7624 C 763.925 -1.1079 1.75329 0
M  V30 7625 C 764.35 -1.81571 0.491293 0
M  V30 7626 O 763.708 -1.72561 -0.556089 0
M  V30 7627 C 763.756 -2.09681 2.9337 0
M  V30 7628 O 762.86 -3.17207 2.63541 0
M  V30 7629 H 762.201 -0.320402 0.581583 0
M  V30 7630 H 764.731 -0.393525 2.0078 0
M  V30 7631 H 764.741 -2.52897 3.20168 0
M  V30 7632 H 763.416 -1.5756 3.84899 0
M  V30 7633 H 761.993 -2.78806 2.47632 0
M  V30 7634 N 764.178 -1.45556 -0.604258 0
M  V30 7635 C 765.406 -1.53278 -1.38973 0
M  V30 7636 C 765.821 -0.166509 -1.88064 0
M  V30 7637 O 765.178 0.832519 -1.62405 0
M  V30 7638 C 765.229 -2.51992 -2.59195 0
M  V30 7639 O 764.95 -3.8331 -2.12143 0
M  V30 7640 C 766.451 -2.69445 -3.52015 0
M  V30 7641 H 763.671 -0.519003 -0.425297 0
M  V30 7642 H 766.215 -1.90773 -0.736621 0
M  V30 7643 H 764.37 -2.17561 -3.2054 0
M  V30 7644 H 764.784 -4.3685 -2.90279 0
M  V30 7645 H 766.258 -3.42485 -4.32907 0
M  V30 7646 H 766.735 -1.75596 -4.0257 0
M  V30 7647 H 767.341 -3.04886 -2.9652 0
M  V30 7648 N 765.656 0.84705 -1.32902 0
M  V30 7649 C 766.903 1.60176 -1.23894 0
M  V30 7650 C 767.231 1.93496 0.197341 0
M  V30 7651 O 766.486 1.58173 1.15238 0
M  V30 7652 C 766.785 2.92663 -2.05142 0
M  V30 7653 C 766.451 2.7874 -3.54422 0
M  V30 7654 C 765.113 2.7465 -3.95121 0
M  V30 7655 C 767.465 2.64128 -4.49317 0
M  V30 7656 C 764.793 2.53837 -5.28946 0
M  V30 7657 C 767.145 2.44849 -5.83294 0
M  V30 7658 C 765.809 2.39156 -6.23186 0
M  V30 7659 H 765.079 0.586127 -0.453361 0
M  V30 7660 H 767.726 0.981994 -1.64405 0
M  V30 7661 H 766.031 3.588 -1.57383 0
M  V30 7662 H 767.728 3.50095 -1.95537 0
M  V30 7663 H 764.318 2.82751 -3.22102 0
M  V30 7664 H 768.502 2.66327 -4.18788 0
M  V30 7665 H 763.758 2.4787 -5.58901 0
M  V30 7666 H 767.932 2.32524 -6.56434 0
M  V30 7667 H 765.559 2.22789 -7.26821 0
M  V30 7668 N 767.134 1.16236 1.06428 0
M  V30 7669 C 768.066 0.825446 2.1382 0
M  V30 7670 C 769.079 -0.166707 1.61944 0
M  V30 7671 O 770.268 0.0578606 1.78406 0
M  V30 7672 C 767.368 0.208023 3.38261 0
M  V30 7673 C 766.541 1.23994 4.19457 0
M  V30 7674 C 765.6 0.642569 5.22262 0
M  V30 7675 O 764.626 1.31106 5.53895 0
M  V30 7676 N 765.828 -0.571327 5.77682 0
M  V30 7677 H 768.593 1.7497 2.43322 0
M  V30 7678 H 766.154 1.05951 1.22417 0
M  V30 7679 H 768.146 -0.204608 4.04182 0
M  V30 7680 H 766.716 -0.619752 3.06395 0
M  V30 7681 H 765.936 1.82879 3.49212 0
M  V30 7682 H 767.224 1.93638 4.70512 0
M  V30 7683 H 766.622 -1.13263 5.54245 0
M  V30 7684 H 765.179 -0.926187 6.45186 0
M  V30 7685 N 768.612 -1.24939 0.960631 0
M  V30 7686 C 769.861 -1.92118 0.614298 0
M  V30 7687 C 770.174 -1.75998 -0.853474 0
M  V30 7688 O 771.38 -2.37804 -1.31003 0
M  V30 7689 C 769.836 -3.44303 1.04801 0
M  V30 7690 C 769.444 -3.69123 2.53875 0
M  V30 7691 C 771.188 -4.17375 0.774497 0
M  V30 7692 C 769.095 -5.14843 2.91016 0
M  V30 7693 H 768.025 -0.719319 0.226045 0
M  V30 7694 H 770.676 -1.41701 1.16589 0
M  V30 7695 H 769.058 -3.93715 0.42479 0
M  V30 7696 H 770.232 -3.30339 3.21267 0
M  V30 7697 H 768.547 -3.09323 2.78762 0
M  V30 7698 H 771.144 -5.24723 1.02808 0
M  V30 7699 H 771.487 -4.15294 -0.289192 0
M  V30 7700 H 772.02 -3.7389 1.35835 0
M  V30 7701 H 768.759 -5.2204 3.96427 0
M  V30 7702 H 768.279 -5.54652 2.28302 0
M  V30 7703 H 769.958 -5.83017 2.80535 0
M  V30 7704 N 770.09 -0.729906 -1.39679 0
M  V30 7705 C 771.367 -0.202149 -1.94553 0
M  V30 7706 C 771.747 1.29507 -1.66707 0
M  V30 7707 O 771.095 2.05819 -0.992517 0
M  V30 7708 C 771.305 -0.530279 -3.44948 0
M  V30 7709 C 772.653 -0.476808 -4.21914 0
M  V30 7710 O 773.677 -0.467171 -3.53123 0
M  V30 7711 O 772.536 -0.466869 -5.44502 0
M  V30 7712 H 769.63 -0.0351644 -0.826252 0
M  V30 7713 H 772.176 -0.808417 -1.49207 0
M  V30 7714 H 770.948 -1.56526 -3.5863 0
M  V30 7715 H 770.571 0.10522 -3.97461 0
M  V30 7716 N 771.568 1.50203 -0.477153 0
M  V30 7717 C 772.478 2.32421 0.319027 0
M  V30 7718 C 773.494 1.43075 0.990233 0
M  V30 7719 O 774.67 1.76123 0.976873 0
M  V30 7720 C 771.735 3.17909 1.38328 0
M  V30 7721 C 770.796 4.23082 0.728036 0
M  V30 7722 C 770.029 5.04484 1.74158 0
M  V30 7723 O 770.252 4.8705 2.96881 0
M  V30 7724 O 769.186 5.8747 1.31006 0
M  V30 7725 H 773.012 3.01638 -0.353281 0
M  V30 7726 H 770.597 1.47478 -0.238891 0
M  V30 7727 H 772.479 3.70937 1.9996 0
M  V30 7728 H 771.154 2.51413 2.03895 0
M  V30 7729 H 770.061 3.7403 0.07261 0
M  V30 7730 H 771.394 4.92065 0.115216 0
M  V30 7731 N 773.046 0.209999 1.56195 0
M  V30 7732 C 774.323 -0.473214 1.89789 0
M  V30 7733 C 774.703 -1.78581 1.1257 0
M  V30 7734 O 774.051 -2.27325 0.231398 0
M  V30 7735 C 774.261 -0.677458 3.42362 0
M  V30 7736 C 775.609 -0.990114 4.12895 0
M  V30 7737 O 776.633 -0.764655 3.47896 0
M  V30 7738 O 775.492 -1.41737 5.278 0
M  V30 7739 H 772.586 -0.248622 0.788743 0
M  V30 7740 H 775.132 0.251324 1.67829 0
M  V30 7741 H 773.904 0.248878 3.90508 0
M  V30 7742 H 773.527 -1.45391 3.70064 0
M  V30 7743 N 774.524 -1.57472 -0.0634922 0
M  V30 7744 C 775.772 -1.87283 -0.759563 0
M  V30 7745 C 776.093 -0.803135 -1.77693 0
M  V30 7746 O 775.363 0.167293 -1.95184 0
M  V30 7747 H 773.943 -0.691106 -0.283516 0
M  V30 7748 H 776.605 -1.94864 -0.0376091 0
M  V30 7749 H 775.701 -2.85064 -1.27062 0
M  V30 7750 N 776.003 0.335068 -1.53997 0
M  V30 7751 C 777.249 1.07222 -1.72844 0
M  V30 7752 C 777.604 1.86054 -0.490075 0
M  V30 7753 O 776.897 1.84481 0.517416 0
M  V30 7754 C 777.091 2.0364 -2.9371 0
M  V30 7755 C 776.92 1.34287 -4.29182 0
M  V30 7756 C 775.69 1.08417 -4.93532 0
M  V30 7757 C 777.888 0.764703 -5.08583 0
M  V30 7758 N 775.87 0.357342 -6.12859 0
M  V30 7759 C 777.241 0.168876 -6.1977 0
M  V30 7760 C 779.296 0.666383 -4.9342 0
M  V30 7761 C 777.999 -0.515716 -7.17449 0
M  V30 7762 C 780.025 -0.0044859 -5.914 0
M  V30 7763 C 779.387 -0.589305 -7.01931 0
M  V30 7764 H 775.486 0.376448 -0.685427 0
M  V30 7765 H 778.07 0.354778 -1.9144 0
M  V30 7766 H 776.241 2.72668 -2.76599 0
M  V30 7767 H 777.973 2.70256 -3.01237 0
M  V30 7768 H 774.728 1.37351 -4.53246 0
M  V30 7769 H 775.152 0.00840481 -6.76999 0
M  V30 7770 H 779.794 1.10426 -4.08125 0
M  V30 7771 H 777.512 -0.965457 -8.02312 0
M  V30 7772 H 781.098 -0.0800446 -5.81745 0
M  V30 7773 H 779.978 -1.10019 -7.76444 0
M  V30 7774 N 777.481 1.45874 0.596531 0
M  V30 7775 C 778.897 1.30524 0.918459 0
M  V30 7776 C 779.097 0.266429 1.99731 0
M  V30 7777 O 778.153 -0.335809 2.50257 0
M  V30 7778 C 779.466 2.68747 1.3489 0
M  V30 7779 C 781.014 2.7673 1.46251 0
M  V30 7780 C 781.489 4.15504 1.92667 0
M  V30 7781 N 782.98 4.17853 1.99883 0
M  V30 7782 C 783.715 5.22109 2.37044 0
M  V30 7783 N 783.211 6.36704 2.73094 0
M  V30 7784 N 785.004 5.09471 2.37479 0
M  V30 7785 H 777.155 2.12081 -0.116368 0
M  V30 7786 H 779.418 0.947941 0.0106033 0
M  V30 7787 H 779.124 3.46006 0.630288 0
M  V30 7788 H 778.998 2.97942 2.31323 0
M  V30 7789 H 781.385 1.99768 2.17202 0
M  V30 7790 H 781.466 2.51236 0.481054 0
M  V30 7791 H 781.11 4.92956 1.223 0
M  V30 7792 H 781.04 4.38396 2.91747 0
M  V30 7793 H 783.531 3.35163 1.74568 0
M  V30 7794 H 783.844 7.12041 3.00362 0
M  V30 7795 H 782.189 6.40087 2.70764 0
M  V30 7796 H 785.38 4.18987 2.08728 0
M  V30 7797 H 785.553 5.90837 2.66112 0
M  V30 7798 N 778.959 -0.83999 1.33349 0
M  V30 7799 C 779.922 -1.93128 1.23426 0
M  V30 7800 C 780.922 -1.60065 0.153599 0
M  V30 7801 O 782.112 -1.69425 0.405049 0
M  V30 7802 C 779.244 -3.28761 0.901622 0
M  V30 7803 H 780.437 -2.03352 2.20427 0
M  V30 7804 H 777.99 -1.03194 1.17391 0
M  V30 7805 H 778.725 -3.24233 -0.0659337 0
M  V30 7806 H 778.51 -3.54138 1.68311 0
M  V30 7807 H 780 -4.08714 0.856913 0
M  V30 7808 N 780.437 -1.16799 -1.0581 0
M  V30 7809 C 781.347 -0.893492 -2.16919 0
M  V30 7810 C 782.363 0.136061 -1.73467 0
M  V30 7811 O 783.539 -0.0417348 -2.01357 0
M  V30 7812 C 780.604 -0.403763 -3.44341 0
M  V30 7813 C 779.665 -1.49914 -4.02274 0
M  V30 7814 C 778.898 -1.03269 -5.23614 0
M  V30 7815 O 779.121 0.115647 -5.70283 0
M  V30 7816 O 778.055 -1.8231 -5.73626 0
M  V30 7817 H 781.881 -1.82274 -2.42919 0
M  V30 7818 H 779.466 -0.948361 -1.1544 0
M  V30 7819 H 781.348 -0.137874 -4.21174 0
M  V30 7820 H 780.023 0.497413 -3.19855 0
M  V30 7821 H 778.93 -1.81883 -3.26909 0
M  V30 7822 H 780.263 -2.3758 -4.31064 0
M  V30 7823 N 781.915 1.24427 -0.967243 0
M  V30 7824 C 782.847 2.24641 -0.454856 0
M  V30 7825 C 783.86 1.56849 0.436152 0
M  V30 7826 O 785.049 1.76846 0.242401 0
M  V30 7827 C 782.149 3.36954 0.362672 0
M  V30 7828 C 781.322 4.34318 -0.518324 0
M  V30 7829 C 780.381 5.25638 0.243122 0
M  V30 7830 O 779.407 5.68043 -0.362791 0
M  V30 7831 N 780.609 5.59897 1.53282 0
M  V30 7832 H 783.374 2.69238 -1.31648 0
M  V30 7833 H 780.935 1.38464 -0.839015 0
M  V30 7834 H 782.927 3.95014 0.880094 0
M  V30 7835 H 781.497 2.91646 1.12522 0
M  V30 7836 H 780.717 3.74953 -1.21672 0
M  V30 7837 H 782.005 4.96338 -1.11919 0
M  V30 7838 H 781.403 5.27373 2.04682 0
M  V30 7839 H 779.96 6.20488 1.99594 0
M  V30 7840 N 783.393 0.737304 1.3929 0
M  V30 7841 C 784.809 0.413132 1.5416 0
M  V30 7842 C 785.009 -1.07574 1.70382 0
M  V30 7843 O 784.065 -1.86185 1.70562 0
M  V30 7844 C 785.378 1.19817 2.75798 0
M  V30 7845 C 786.926 1.18662 2.89635 0
M  V30 7846 C 787.401 1.95427 4.14213 0
M  V30 7847 N 788.892 1.92605 4.21257 0
M  V30 7848 C 789.627 2.48808 5.16606 0
M  V30 7849 N 789.123 3.13659 6.1773 0
M  V30 7850 N 790.916 2.38829 5.08839 0
M  V30 7851 H 783.067 1.70243 1.27008 0
M  V30 7852 H 785.33 0.720802 0.61575 0
M  V30 7853 H 785.036 2.25179 2.70161 0
M  V30 7854 H 784.91 0.804144 3.68529 0
M  V30 7855 H 787.297 0.141112 2.94762 0
M  V30 7856 H 787.378 1.62003 1.97961 0
M  V30 7857 H 787.022 2.9998 4.09847 0
M  V30 7858 H 786.952 1.4949 5.04936 0
M  V30 7859 H 789.443 1.45362 3.48824 0
M  V30 7860 H 789.756 3.54006 6.8695 0
M  V30 7861 H 788.101 3.17749 6.1811 0
M  V30 7862 H 791.292 1.87806 4.28773 0
M  V30 7863 H 791.465 2.82929 5.82971 0
M  V30 7864 N 784.871 -1.49948 0.485112 0
M  V30 7865 C 786.148 -1.95186 -0.12726 0
M  V30 7866 C 786.528 -1.42605 -1.5565 0
M  V30 7867 O 785.876 -0.632986 -2.19558 0
M  V30 7868 C 786.086 -3.48955 -0.0562117 0
M  V30 7869 C 787.434 -4.23932 -0.238106 0
M  V30 7870 O 788.458 -3.55955 -0.132145 0
M  V30 7871 O 787.317 -5.44614 -0.453658 0
M  V30 7872 H 784.411 -0.820433 -0.104014 0
M  V30 7873 H 786.957 -1.60659 0.546517 0
M  V30 7874 H 785.729 -3.79814 0.941122 0
M  V30 7875 H 785.352 -3.90056 -0.770834 0
M  V30 7876 N 786.349 -0.21828 -1.56081 0
M  V30 7877 C 787.597 0.413488 -1.97825 0
M  V30 7878 C 787.918 1.60527 -1.10707 0
M  V30 7879 O 787.188 1.9504 -0.183378 0
M  V30 7880 H 785.768 0.155757 -0.730581 0
M  V30 7881 H 788.43 -0.310413 -1.92412 0
M  V30 7882 H 787.526 0.742024 -3.03151 0
M  V30 7883 N 787.827 1.57504 0.0551401 0
M  V30 7884 C 789.052 1.92682 0.767352 0
M  V30 7885 C 789.477 0.81614 1.69472 0
M  V30 7886 O 788.835 -0.229989 1.79835 0
M  V30 7887 C 788.883 3.26866 1.52286 0
M  V30 7888 O 787.987 3.17274 2.63459 0
M  V30 7889 H 787.328 0.630502 0.208238 0
M  V30 7890 H 789.858 2.04592 0.0184026 0
M  V30 7891 H 789.868 3.61138 1.8985 0
M  V30 7892 H 788.543 4.07276 0.842541 0
M  V30 7893 H 787.12 2.94589 2.2863 0
M  V30 7894 N 789.305 -0.326896 1.54172 0
M  V30 7895 C 790.215 -1.42525 1.86343 0
M  V30 7896 C 791.231 -1.56764 0.75505 0
M  V30 7897 O 792.407 -1.71924 1.04901 0
M  V30 7898 C 789.472 -2.77286 2.08119 0
M  V30 7899 C 788.533 -2.7225 3.31931 0
M  V30 7900 C 787.766 -4.00584 3.52659 0
M  V30 7901 O 787.989 -4.98686 2.76891 0
M  V30 7902 O 786.923 -4.04045 4.46129 0
M  V30 7903 H 790.749 -1.18249 2.79734 0
M  V30 7904 H 788.334 -0.520614 1.40036 0
M  V30 7905 H 790.216 -3.57065 2.23791 0
M  V30 7906 H 788.891 -3.01459 1.17917 0
M  V30 7907 H 787.798 -1.91033 3.21647 0
M  V30 7908 H 789.131 -2.53032 4.2218 0
M  V30 7909 N 790.784 -1.46188 -0.588786 0
M  V30 7910 C 791.747 -1.55882 -1.68029 0
M  V30 7911 C 792.747 -0.436515 -1.54762 0
M  V30 7912 O 793.937 -0.700626 -1.59489 0
M  V30 7913 C 791.069 -1.47332 -3.07418 0
M  V30 7914 H 792.262 -2.5315 -1.60795 0
M  V30 7915 H 789.815 -1.33908 -0.806116 0
M  V30 7916 H 790.55 -0.513193 -3.20214 0
M  V30 7917 H 790.335 -2.28753 -3.18456 0
M  V30 7918 H 791.825 -1.57187 -3.86887 0
M  V30 7919 N 792.262 0.832906 -1.33792 0
M  V30 7920 C 793.487 1.62568 -1.28788 0
M  V30 7921 C 793.912 1.87599 0.137246 0
M  V30 7922 O 793.27 1.44436 1.0958 0
M  V30 7923 C 793.318 2.9495 -2.07453 0
M  V30 7924 O 792.422 3.86546 -1.43722 0
M  V30 7925 H 791.763 0.494809 -0.442787 0
M  V30 7926 H 794.293 1.03578 -1.76445 0
M  V30 7927 H 794.303 3.44599 -2.1844 0
M  V30 7928 H 792.978 2.76055 -3.11073 0
M  V30 7929 H 791.555 3.45044 -1.41417 0
M  V30 7930 N 793.74 1.17359 1.05189 0
M  V30 7931 C 794.67 0.91365 2.14883 0
M  V30 7932 C 795.651 -0.144365 1.69486 0
M  V30 7933 O 796.836 0.00587861 1.94199 0
M  V30 7934 C 793.966 0.426196 3.44675 0
M  V30 7935 C 792.92 1.4234 4.03638 0
M  V30 7936 C 792.246 0.793902 5.28773 0
M  V30 7937 C 793.546 2.7966 4.41121 0
M  V30 7938 H 795.24 1.831 2.36885 0
M  V30 7939 H 792.786 0.881781 1.13845 0
M  V30 7940 H 794.739 0.231767 4.20762 0
M  V30 7941 H 793.463 -0.526693 3.22325 0
M  V30 7942 H 792.122 1.60457 3.2962 0
M  V30 7943 H 791.77 -0.165824 5.02727 0
M  V30 7944 H 791.47 1.45959 5.69183 0
M  V30 7945 H 792.994 0.609747 6.07548 0
M  V30 7946 H 794.408 2.6526 5.08242 0
M  V30 7947 H 792.805 3.42807 4.92548 0
M  V30 7948 H 793.875 3.34068 3.51464 0
M  V30 7949 N 795.218 -1.23913 0.973828 0
M  V30 7950 C 796.128 -2.28838 0.516735 0
M  V30 7951 C 797.144 -1.68723 -0.425282 0
M  V30 7952 O 798.32 -1.99201 -0.296819 0
M  V30 7953 C 795.385 -3.46233 -0.179914 0
M  V30 7954 C 794.446 -4.21729 0.80269 0
M  V30 7955 C 793.679 -5.33518 0.139191 0
M  V30 7956 O 793.902 -5.60252 -1.07118 0
M  V30 7957 O 792.836 -5.96088 0.834447 0
M  V30 7958 H 796.662 -2.70067 1.38916 0
M  V30 7959 H 794.247 -1.2972 0.74115 0
M  V30 7960 H 796.129 -4.17514 -0.570991 0
M  V30 7961 H 794.804 -3.06969 -1.02721 0
M  V30 7962 H 793.711 -3.52799 1.24434 0
M  V30 7963 H 795.044 -4.64825 1.61859 0
M  V30 7964 N 796.696 -0.74468 -1.38897 0
M  V30 7965 C 797.942 -0.306249 -2.01081 0
M  V30 7966 C 798.297 1.09724 -1.58046 0
M  V30 7967 O 797.59 1.73923 -0.803834 0
M  V30 7968 C 797.784 -0.357302 -3.55609 0
M  V30 7969 C 797.613 -1.76421 -4.13649 0
M  V30 7970 C 796.383 -2.3787 -4.4581 0
M  V30 7971 C 798.581 -2.71942 -4.36523 0
M  V30 7972 N 796.563 -3.70614 -4.89406 0
M  V30 7973 C 797.934 -3.89437 -4.8243 0
M  V30 7974 C 799.989 -2.69579 -4.18607 0
M  V30 7975 C 798.692 -5.04917 -5.123 0
M  V30 7976 C 800.718 -3.8421 -4.49596 0
M  V30 7977 C 800.08 -5.00442 -4.95719 0
M  V30 7978 H 796.179 -0.158531 -0.765762 0
M  V30 7979 H 798.763 -0.972726 -1.6866 0
M  V30 7980 H 796.934 0.278865 -3.87398 0
M  V30 7981 H 798.666 0.100599 -4.04575 0
M  V30 7982 H 795.421 -1.8971 -4.33943 0
M  V30 7983 H 795.845 -4.38791 -5.1555 0
M  V30 7984 H 800.487 -1.80905 -3.82143 0
M  V30 7985 H 798.205 -5.94213 -5.47665 0
M  V30 7986 H 801.791 -3.83691 -4.37347 0
M  V30 7987 H 800.671 -5.87671 -5.19242 0
M  V30 7988 N 798.174 1.49689 -0.493057 0
M  V30 7989 C 799.399 2.07331 0.0535114 0
M  V30 7990 C 799.824 1.35196 1.30781 0
M  V30 7991 O 799.182 0.406246 1.7669 0
M  V30 7992 C 799.23 3.59364 0.29825 0
M  V30 7993 O 798.334 3.88819 1.37454 0
M  V30 7994 H 797.675 0.663612 -0.0227018 0
M  V30 7995 H 800.205 1.926 -0.690402 0
M  V30 7996 H 800.215 4.04515 0.532159 0
M  V30 7997 H 798.89 4.1128 -0.618207 0
M  V30 7998 H 797.467 3.55487 1.12621 0
M  V30 7999 N 799.652 0.226554 1.55963 0
M  V30 8000 C 800.877 -0.411527 2.03276 0
M  V30 8001 C 801.302 -1.52206 1.10521 0
M  V30 8002 O 800.66 -1.81054 0.0943217 0
M  V30 8003 C 800.708 -0.915694 3.4878 0
M  V30 8004 O 799.812 -2.02672 3.59163 0
M  V30 8005 H 799.153 -0.0924907 0.657527 0
M  V30 8006 H 801.683 0.346656 2.01642 0
M  V30 8007 H 801.693 -1.22421 3.892 0
M  V30 8008 H 800.368 -0.102915 4.15773 0
M  V30 8009 H 798.945 -1.72445 3.30632 0
M  V30 8010 N 801.13 -1.57531 -0.0467866 0
M  V30 8011 C 802.04 -2.08768 -1.07018 0
M  V30 8012 C 803.056 -1.02245 -1.40791 0
M  V30 8013 O 804.232 -1.33873 -1.50466 0
M  V30 8014 C 801.297 -2.54221 -2.35738 0
M  V30 8015 C 800.358 -3.75152 -2.08709 0
M  V30 8016 C 799.591 -4.18428 -3.31291 0
M  V30 8017 O 799.814 -3.61365 -4.4133 0
M  V30 8018 O 798.748 -5.11018 -3.18032 0
M  V30 8019 H 802.574 -2.96334 -0.664812 0
M  V30 8020 H 800.159 -1.47074 -0.262605 0
M  V30 8021 H 802.041 -2.83866 -3.11445 0
M  V30 8022 H 800.716 -1.69774 -2.75605 0
M  V30 8023 H 799.623 -3.50553 -1.30627 0
M  V30 8024 H 800.956 -4.60528 -1.73708 0
M  V30 8025 N 802.608 0.318715 -1.54344 0
M  V30 8026 C 804.024 0.663345 -1.45162 0
M  V30 8027 C 804.224 1.9145 -0.62842 0
M  V30 8028 O 803.28 2.5217 -0.129126 0
M  V30 8029 C 804.593 0.832836 -2.88937 0
M  V30 8030 C 806.141 0.929866 -2.98869 0
M  V30 8031 C 806.616 1.13149 -4.43803 0
M  V30 8032 N 808.107 1.19811 -4.47437 0
M  V30 8033 C 808.842 1.37209 -5.56742 0
M  V30 8034 N 808.338 1.51619 -6.76006 0
M  V30 8035 N 810.131 1.39956 -5.44398 0
M  V30 8036 H 802.282 -0.50357 -2.06344 0
M  V30 8037 H 804.545 -0.163528 -0.933789 0
M  V30 8038 H 804.251 -0.0153519 -3.51697 0
M  V30 8039 H 804.125 1.72721 -3.35332 0
M  V30 8040 H 806.512 1.76855 -2.36233 0
M  V30 8041 H 806.593 0.0118561 -2.55797 0
M  V30 8042 H 806.237 0.297636 -5.07027 0
M  V30 8043 H 806.167 2.06345 -4.84489 0
M  V30 8044 H 808.658 1.101 -3.61506 0
M  V30 8045 H 808.971 1.64599 -7.55067 0
M  V30 8046 H 807.316 1.48708 -6.78904 0
M  V30 8047 H 810.507 1.28298 -4.50175 0
M  V30 8048 H 810.68 1.53172 -6.29637 0
M  V30 8049 N 804.086 1.46499 0.581025 0
M  V30 8050 C 805.018 1.53225 1.70455 0
M  V30 8051 C 806.031 0.420443 1.57277 0
M  V30 8052 O 807.22 0.688888 1.64671 0
M  V30 8053 C 804.32 1.39803 3.08721 0
M  V30 8054 C 803.493 2.65132 3.47884 0
M  V30 8055 C 802.552 2.45886 4.65217 0
M  V30 8056 O 801.578 3.19615 4.70993 0
M  V30 8057 N 802.78 1.5216 5.60203 0
M  V30 8058 H 805.545 2.50098 1.65139 0
M  V30 8059 H 803.106 1.42576 0.76705 0
M  V30 8060 H 805.098 1.24697 3.8501 0
M  V30 8061 H 803.668 0.51104 3.08394 0
M  V30 8062 H 802.888 2.95169 2.61284 0
M  V30 8063 H 804.176 3.48385 3.70817 0
M  V30 8064 H 803.574 0.913646 5.58273 0
M  V30 8065 H 802.131 1.43017 6.35916 0
M  V30 8066 N 805.565 -0.825799 1.34232 0
M  V30 8067 C 806.842 -1.56741 1.17011 0
M  V30 8068 C 807.222 -2.09512 -0.258425 0
M  V30 8069 O 806.57 -1.90664 -1.25935 0
M  V30 8070 C 806.78 -2.69104 2.22225 0
M  V30 8071 C 808.128 -3.37947 2.57055 0
M  V30 8072 O 809.152 -2.79358 2.20992 0
M  V30 8073 O 808.011 -4.43743 3.1899 0
M  V30 8074 H 805.105 -0.69163 0.453405 0
M  V30 8075 H 807.651 -0.867422 1.45856 0
M  V30 8076 H 806.423 -2.27844 3.18124 0
M  V30 8077 H 806.046 -3.46756 1.94541 0
M  V30 8078 N 807.043 -1.17915 -1.04565 0
M  V30 8079 C 808.292 -0.965816 -1.77073 0
M  V30 8080 C 808.605 0.506005 -1.88942 0
M  V30 8081 O 809.811 0.837717 -2.58253 0
M  V30 8082 C 808.267 -1.67894 -3.18339 0
M  V30 8083 C 807.875 -3.18972 -3.1458 0
M  V30 8084 C 809.619 -1.54823 -3.9526 0
M  V30 8085 C 807.526 -3.82946 -4.50674 0
M  V30 8086 H 806.456 -0.357729 -0.663736 0
M  V30 8087 H 809.107 -1.41235 -1.17153 0
M  V30 8088 H 807.489 -1.16016 -3.78624 0
M  V30 8089 H 808.663 -3.77835 -2.63776 0
M  V30 8090 H 806.978 -3.32127 -2.51159 0
M  V30 8091 H 809.575 -1.99984 -4.95894 0
M  V30 8092 H 809.918 -0.499727 -4.1329 0
M  V30 8093 H 810.451 -2.03953 -3.41538 0
M  V30 8094 H 807.19 -4.8782 -4.37849 0
M  V30 8095 H 806.71 -3.2887 -5.01602 0
M  V30 8096 H 808.389 -3.85518 -5.196 0
M  V30 8097 N 808.521 1.23394 -0.980386 0
M  V30 8098 C 809.484 2.23092 -0.525619 0
M  V30 8099 C 810.484 1.56129 0.384745 0
M  V30 8100 O 811.674 1.73284 0.178439 0
M  V30 8101 C 808.806 3.40074 0.23712 0
M  V30 8102 H 809.999 2.64839 -1.40714 0
M  V30 8103 H 807.552 1.36227 -0.766275 0
M  V30 8104 H 808.287 3.03783 1.13518 0
M  V30 8105 H 808.072 3.89883 -0.416356 0
M  V30 8106 H 809.562 4.14043 0.543892 0
M  V30 8107 N 809.999 0.752036 1.385 0
M  V30 8108 C 811.245 0.307958 2.00448 0
M  V30 8109 C 811.578 -1.10702 1.59558 0
M  V30 8110 O 810.853 -1.75788 0.832391 0
M  V30 8111 C 811.136 0.429092 3.57534 0
M  V30 8112 C 810.989 1.88507 4.08393 0
M  V30 8113 C 812.308 -0.178442 4.39738 0
M  V30 8114 H 809.427 0.113373 0.728228 0
M  V30 8115 H 812.069 0.951389 1.64465 0
M  V30 8116 H 810.219 -0.118695 3.88319 0
M  V30 8117 H 811.891 2.49104 3.88259 0
M  V30 8118 H 810.134 2.40066 3.61318 0
M  V30 8119 H 810.805 1.92099 5.17496 0
M  V30 8120 H 813.281 0.28872 4.15097 0
M  V30 8121 H 812.157 -0.0634349 5.48863 0
M  V30 8122 H 812.418 -1.26655 4.23569 0
M  V30 8123 N 811.477 -1.49425 0.500989 0
M  V30 8124 C 812.726 -2.01649 -0.04538 0
M  V30 8125 C 813.039 -1.38572 -1.38047 0
M  V30 8126 O 814.245 -1.82124 -2.01353 0
M  V30 8127 C 812.701 -3.5966 -0.131337 0
M  V30 8128 C 812.309 -4.3171 1.19711 0
M  V30 8129 C 814.053 -4.19828 -0.628071 0
M  V30 8130 C 811.96 -5.81579 1.07332 0
M  V30 8131 H 810.89 -0.753715 -0.0207329 0
M  V30 8132 H 813.541 -1.71962 0.640407 0
M  V30 8133 H 811.923 -3.86063 -0.881574 0
M  V30 8134 H 813.097 -4.17008 1.96064 0
M  V30 8135 H 811.412 -3.83286 1.62729 0
M  V30 8136 H 814.009 -5.2958 -0.738198 0
M  V30 8137 H 814.352 -3.83194 -1.6269 0
M  V30 8138 H 814.885 -3.97746 0.0656314 0
M  V30 8139 H 811.624 -6.22738 2.04642 0
M  V30 8140 H 811.144 -5.98774 0.350679 0
M  V30 8141 H 812.823 -6.42614 0.752047 0
M  V30 8142 N 812.955 -0.234822 -1.55841 0
M  V30 8143 C 814.18 0.400741 -2.03492 0
M  V30 8144 C 814.605 1.51618 -1.11327 0
M  V30 8145 O 813.963 1.81002 -0.103922 0
M  V30 8146 C 814.011 0.897184 -3.49261 0
M  V30 8147 O 813.115 2.00764 -3.60233 0
M  V30 8148 H 812.456 0.0890023 -0.658008 0
M  V30 8149 H 814.986 -0.357345 -2.01455 0
M  V30 8150 H 814.996 1.20356 -3.89844 0
M  V30 8151 H 813.671 0.0808639 -4.15821 0
M  V30 8152 H 812.248 1.70689 -3.31541 0
M  V30 8153 N 814.433 1.57553 0.0384317 0
M  V30 8154 C 815.71 1.79977 0.766002 0
M  V30 8155 C 816.09 0.830625 1.94072 0
M  V30 8156 O 815.438 -0.129243 2.28134 0
M  V30 8157 C 815.648 3.27434 1.20781 0
M  V30 8158 C 816.996 3.92167 1.62758 0
M  V30 8159 O 818.02 3.31527 1.30263 0
M  V30 8160 O 816.879 4.98917 2.23035 0
M  V30 8161 H 813.973 0.739787 0.369654 0
M  V30 8162 H 816.519 1.69693 0.0159312 0
M  V30 8163 H 815.291 3.89558 0.368792 0
M  V30 8164 H 814.914 3.42571 2.01819 0
M  V30 8165 N 815.911 -0.310526 1.54511 0
M  V30 8166 C 817.136 -1.07046 1.7764 0
M  V30 8167 C 817.561 -1.80488 0.529696 0
M  V30 8168 O 816.919 -1.73702 -0.519361 0
M  V30 8169 C 816.967 -2.03411 2.97752 0
M  V30 8170 O 816.071 -3.11545 2.7021 0
M  V30 8171 H 815.412 -0.307994 0.588248 0
M  V30 8172 H 817.942 -0.350848 2.01569 0
M  V30 8173 H 817.952 -2.46048 3.2546 0
M  V30 8174 H 816.627 -1.49361 3.88155 0
M  V30 8175 H 815.204 -2.7349 2.53491 0
M  V30 8176 N 817.389 -1.46805 -0.573248 0
M  V30 8177 C 818.619 -1.55965 -1.35494 0
M  V30 8178 C 819.027 -0.203038 -1.88107 0
M  V30 8179 O 818.37 0.81138 -1.6481 0
M  V30 8180 C 818.432 -2.51168 -2.57206 0
M  V30 8181 C 818.096 -3.97211 -2.25993 0
M  V30 8182 C 819.093 -4.86155 -1.84254 0
M  V30 8183 C 816.778 -4.42419 -2.37846 0
M  V30 8184 C 818.772 -6.18323 -1.54776 0
M  V30 8185 C 816.459 -5.74619 -2.0798 0
M  V30 8186 C 817.457 -6.62392 -1.66511 0
M  V30 8187 O 817.145 -7.92137 -1.37016 0
M  V30 8188 H 816.877 -0.529748 -0.419932 0
M  V30 8189 H 819.431 -1.92998 -0.702914 0
M  V30 8190 H 817.661 -2.09171 -3.25245 0
M  V30 8191 H 819.35 -2.50631 -3.19279 0
M  V30 8192 H 820.116 -4.52481 -1.74603 0
M  V30 8193 H 815.995 -3.74319 -2.69085 0
M  V30 8194 H 819.539 -6.8679 -1.22334 0
M  V30 8195 H 815.436 -6.0784 -2.17258 0
M  V30 8196 H 816.204 -8.04492 -1.50782 0
M  V30 8197 N 818.867 0.818669 -1.34668 0
M  V30 8198 C 820.114 1.57512 -1.27264 0
M  V30 8199 C 820.442 1.93871 0.156254 0
M  V30 8200 O 819.697 1.60582 1.11857 0
M  V30 8201 C 819.996 2.88245 -2.11304 0
M  V30 8202 C 819.662 2.71159 -3.60255 0
M  V30 8203 C 818.324 2.66207 -4.00858 0
M  V30 8204 C 820.676 2.54538 -4.54819 0
M  V30 8205 C 818.004 2.4256 -5.34211 0
M  V30 8206 C 820.356 2.32421 -5.88356 0
M  V30 8207 C 819.02 2.25884 -6.28118 0
M  V30 8208 H 818.29 0.576378 -0.465692 0
M  V30 8209 H 820.937 0.9469 -1.66451 0
M  V30 8210 H 819.242 3.55381 -1.64958 0
M  V30 8211 H 820.939 3.45869 -2.02919 0
M  V30 8212 H 817.529 2.75856 -3.28027 0
M  V30 8213 H 821.713 2.57384 -4.24343 0
M  V30 8214 H 816.969 2.35959 -5.64033 0
M  V30 8215 H 821.143 2.18548 -6.61218 0
M  V30 8216 H 818.77 2.07322 -7.31383 0
M  V30 8217 N 820.346 1.18468 1.03938 0
M  V30 8218 C 821.757 0.984808 1.58614 0
M  V30 8219 C 822.108 -0.465165 1.90606 0
M  V30 8220 O 821.233 -1.34274 1.69704 0
M  V30 8221 C 821.828 1.78135 2.8819 0
M  V30 8222 C 820.387 1.62579 3.39478 0
M  V30 8223 C 819.534 1.77501 2.13046 0
M  V30 8224 H 822.485 1.32993 0.865944 0
M  V30 8225 H 822.506 1.27119 3.58638 0
M  V30 8226 H 822.018 2.83661 2.64874 0
M  V30 8227 H 820.119 0.59595 3.67803 0
M  V30 8228 H 820.232 2.42463 4.13217 0
M  V30 8229 H 818.596 1.2046 2.24414 0
M  V30 8230 H 819.379 2.84464 1.92185 0
M  V30 8231 N 821.824 -1.22873 0.986916 0
M  V30 8232 C 823.24 -1.43594 0.696633 0
M  V30 8233 C 823.44 -1.87622 -0.734869 0
M  V30 8234 O 822.496 -2.02633 -1.50652 0
M  V30 8235 C 823.809 -2.48231 1.69711 0
M  V30 8236 C 825.357 -2.62037 1.71188 0
M  V30 8237 C 825.832 -3.6989 2.70084 0
M  V30 8238 N 827.323 -3.77341 2.68641 0
M  V30 8239 C 828.058 -4.6037 3.41829 0
M  V30 8240 N 827.554 -5.47438 4.24598 0
M  V30 8241 N 829.347 -4.54626 3.30563 0
M  V30 8242 H 821.498 -0.925982 1.91153 0
M  V30 8243 H 823.761 -0.46866 0.824052 0
M  V30 8244 H 823.467 -2.22812 2.72117 0
M  V30 8245 H 823.341 -3.46731 1.48516 0
M  V30 8246 H 825.728 -2.86803 0.694837 0
M  V30 8247 H 825.809 -1.63831 1.96451 0
M  V30 8248 H 825.453 -3.45872 3.71934 0
M  V30 8249 H 825.383 -4.67652 2.42093 0
M  V30 8250 H 827.874 -3.15124 2.08578 0
M  V30 8251 H 828.187 -6.078 4.77283 0
M  V30 8252 H 826.532 -5.4704 4.28687 0
M  V30 8253 H 829.723 -3.85627 2.65347 0
M  V30 8254 H 829.896 -5.19103 3.8786 0
M  V30 8255 N 823.302 -0.75937 -1.38099 0
M  V30 8256 C 824.532 -0.328634 -2.0397 0
M  V30 8257 C 824.94 1.04989 -1.57398 0
M  V30 8258 O 824.283 1.67918 -0.744932 0
M  V30 8259 C 824.345 -0.279216 -3.58414 0
M  V30 8260 C 824.009 -1.60025 -4.28067 0
M  V30 8261 C 825.006 -2.55048 -4.53041 0
M  V30 8262 C 822.691 -1.87128 -4.66142 0
M  V30 8263 C 824.685 -3.7539 -5.15132 0
M  V30 8264 C 822.372 -3.07742 -5.27956 0
M  V30 8265 C 823.37 -4.01694 -5.52387 0
M  V30 8266 O 823.058 -5.20186 -6.12912 0
M  V30 8267 H 822.79 -0.137443 -0.66188 0
M  V30 8268 H 825.344 -1.03082 -1.77661 0
M  V30 8269 H 823.574 0.479254 -3.83719 0
M  V30 8270 H 825.263 0.122781 -4.05714 0
M  V30 8271 H 826.029 -2.35387 -4.24049 0
M  V30 8272 H 821.908 -1.14833 -4.46469 0
M  V30 8273 H 825.452 -4.48737 -5.34117 0
M  V30 8274 H 821.349 -3.27294 -5.56371 0
M  V30 8275 H 822.117 -5.20846 -6.31397 0
M  V30 8276 N 824.78 1.49157 -0.508906 0
M  V30 8277 C 826.027 2.02473 0.0327983 0
M  V30 8278 C 826.355 1.38792 1.36261 0
M  V30 8279 O 825.61 0.515576 1.88786 0
M  V30 8280 C 825.909 3.56687 0.225717 0
M  V30 8281 C 825.575 4.39046 -1.02708 0
M  V30 8282 C 824.237 4.61271 -1.37048 0
M  V30 8283 C 826.589 4.86902 -1.85946 0
M  V30 8284 C 823.917 5.28598 -2.54562 0
M  V30 8285 C 826.269 5.55521 -3.0262 0
M  V30 8286 C 824.933 5.7599 -3.3733 0
M  V30 8287 H 824.203 0.740903 0.0120017 0
M  V30 8288 H 826.85 1.79372 -0.670665 0
M  V30 8289 H 825.155 3.78511 1.01177 0
M  V30 8290 H 826.852 3.95541 0.659433 0
M  V30 8291 H 823.442 4.21994 -0.749615 0
M  V30 8292 H 827.626 4.69553 -1.6073 0
M  V30 8293 H 822.882 5.42646 -2.81682 0
M  V30 8294 H 827.056 5.91576 -3.67438 0
M  V30 8295 H 824.683 6.27934 -4.2849 0
M  V30 8296 N 826.258 0.243083 1.55714 0
M  V30 8297 C 827.507 -0.383188 1.98027 0
M  V30 8298 C 827.82 -1.59347 1.13436 0
M  V30 8299 O 829.026 -2.29065 1.45745 0
M  V30 8300 C 827.482 -0.733135 3.52354 0
M  V30 8301 C 827.09 0.455539 4.45678 0
M  V30 8302 C 828.834 -1.32381 4.03331 0
M  V30 8303 C 826.741 0.0819591 5.91343 0
M  V30 8304 H 825.671 -0.146944 0.739543 0
M  V30 8305 H 828.322 0.342697 1.80272 0
M  V30 8306 H 826.704 -1.51704 3.65789 0
M  V30 8307 H 827.878 1.23291 4.44 0
M  V30 8308 H 826.193 0.960886 4.05162 0
M  V30 8309 H 828.79 -1.61658 5.09677 0
M  V30 8310 H 829.133 -2.24698 3.50452 0
M  V30 8311 H 829.666 -0.602885 3.93205 0
M  V30 8312 H 826.405 0.972171 6.48251 0
M  V30 8313 H 825.925 -0.659291 5.96166 0
M  V30 8314 H 827.604 -0.3372 6.46121 0
M  V30 8315 N 827.736 -1.57571 -0.0300757 0
M  V30 8316 C 828.699 -2.05468 -1.01565 0
M  V30 8317 C 829.699 -0.958628 -1.29101 0
M  V30 8318 O 830.889 -1.22228 -1.24121 0
M  V30 8319 C 828.021 -2.47077 -2.34874 0
M  V30 8320 H 829.214 -2.93797 -0.601936 0
M  V30 8321 H 826.767 -1.53828 -0.276878 0
M  V30 8322 H 827.502 -1.61901 -2.80996 0
M  V30 8323 H 827.287 -3.27097 -2.16218 0
M  V30 8324 H 828.777 -2.84564 -3.05635 0
M  V30 8325 N 829.214 0.302327 -1.54673 0
M  V30 8326 C 830.625 0.875409 -1.64904 0
M  V30 8327 C 830.976 1.88132 -0.55684 0
M  V30 8328 O 830.101 2.14215 0.306754 0
M  V30 8329 C 830.696 1.59457 -2.9893 0
M  V30 8330 C 829.255 2.11607 -3.11287 0
M  V30 8331 C 828.402 0.948324 -2.6058 0
M  V30 8332 H 831.353 0.079362 -1.58501 0
M  V30 8333 H 831.374 2.46005 -2.90279 0
M  V30 8334 H 830.886 0.8622 -3.78402 0
M  V30 8335 H 828.987 2.87895 -2.36532 0
M  V30 8336 H 829.1 2.35151 -4.17422 0
M  V30 8337 H 827.464 1.33352 -2.17001 0
M  V30 8338 H 828.247 0.229936 -3.42529 0
M  V30 8339 N 830.692 1.47107 0.565454 0
M  V30 8340 C 831.655 1.58535 1.65527 0
M  V30 8341 C 832.655 0.461081 1.54048 0
M  V30 8342 O 833.845 0.725911 1.58355 0
M  V30 8343 C 830.977 1.52204 3.05036 0
M  V30 8344 H 832.17 2.55676 1.56747 0
M  V30 8345 H 829.723 1.35174 0.78471 0
M  V30 8346 H 830.458 0.564071 3.19357 0
M  V30 8347 H 830.243 2.3379 3.14777 0
M  V30 8348 H 831.733 1.63322 3.84338 0
M  V30 8349 N 832.17 -0.811516 1.35101 0
M  V30 8350 C 833.117 -1.92308 1.27617 0
M  V30 8351 C 834.087 -1.6543 0.149091 0
M  V30 8352 O 835.272 -1.8789 0.331974 0
M  V30 8353 C 832.412 -3.28768 1.04908 0
M  V30 8354 C 831.525 -3.67865 2.26493 0
M  V30 8355 C 830.66 -4.9333 1.96974 0
M  V30 8356 C 829.699 -5.25041 3.1464 0
M  V30 8357 N 828.836 -6.41685 2.84929 0
M  V30 8358 H 833.676 -1.98041 2.22674 0
M  V30 8359 H 831.213 -0.968755 1.10696 0
M  V30 8360 H 833.171 -4.07426 0.897749 0
M  V30 8361 H 831.801 -3.22517 0.135151 0
M  V30 8362 H 830.853 -2.84507 2.52507 0
M  V30 8363 H 832.165 -3.87263 3.14371 0
M  V30 8364 H 831.319 -5.79803 1.78643 0
M  V30 8365 H 830.058 -4.75958 1.06374 0
M  V30 8366 H 829.063 -4.3706 3.33554 0
M  V30 8367 H 830.288 -5.44346 4.06035 0
M  V30 8368 H 828.234 -6.25747 1.96918 0
M  V30 8369 H 828.151 -6.6131 3.66341 0
M  V30 8370 H 829.419 -7.31198 2.70128 0
M  V30 8371 N 833.648 -1.19017 -1.03309 0
M  V30 8372 C 834.895 -0.990214 -1.76638 0
M  V30 8373 C 835.223 0.479435 -1.88498 0
M  V30 8374 O 834.478 1.37223 -1.39529 0
M  V30 8375 C 834.777 -1.59927 -3.19622 0
M  V30 8376 C 834.443 -3.09632 -3.27779 0
M  V30 8377 C 833.105 -3.50491 -3.29712 0
M  V30 8378 C 835.457 -4.05644 -3.27264 0
M  V30 8379 C 832.785 -4.85921 -3.28782 0
M  V30 8380 C 835.137 -5.41 -3.27875 0
M  V30 8381 C 833.801 -5.81295 -3.28104 0
M  V30 8382 H 833.071 -0.362345 -0.646364 0
M  V30 8383 H 835.718 -1.48197 -1.21284 0
M  V30 8384 H 834.023 -1.0297 -3.78027 0
M  V30 8385 H 835.72 -1.41989 -3.7502 0
M  V30 8386 H 832.31 -2.77073 -3.26999 0
M  V30 8387 H 836.494 -3.75124 -3.24955 0
M  V30 8388 H 831.75 -5.16427 -3.27281 0
M  V30 8389 H 835.924 -6.15157 -3.26428 0
M  V30 8390 H 833.551 -6.86211 -3.27138 0
M  V30 8391 N 835.127 1.22348 -0.993418 0
M  V30 8392 C 836.057 2.26584 -0.564088 0
M  V30 8393 C 837.038 1.65102 0.409298 0
M  V30 8394 O 838.223 1.91872 0.299819 0
M  V30 8395 C 835.353 3.47087 0.121554 0
M  V30 8396 C 834.307 4.21009 -0.770429 0
M  V30 8397 C 833.633 5.34678 0.0481586 0
M  V30 8398 C 834.933 4.79636 -2.06752 0
M  V30 8399 H 836.627 2.62749 -1.43538 0
M  V30 8400 H 834.173 1.26303 -0.691628 0
M  V30 8401 H 836.126 4.19166 0.433303 0
M  V30 8402 H 834.85 3.1002 1.0274 0
M  V30 8403 H 833.509 3.50764 -1.06583 0
M  V30 8404 H 833.157 4.93852 0.954933 0
M  V30 8405 H 832.857 5.85061 -0.545641 0
M  V30 8406 H 834.381 6.09573 0.353991 0
M  V30 8407 H 835.795 5.43654 -1.81969 0
M  V30 8408 H 834.192 5.4036 -2.61019 0
M  V30 8409 H 835.262 3.99659 -2.74592 0
M  V30 8410 N 836.605 0.766683 1.37694 0
M  V30 8411 C 837.853 0.328065 1.9942 0
M  V30 8412 C 838.174 -1.09775 1.61166 0
M  V30 8413 O 837.444 -1.75288 0.874686 0
M  V30 8414 H 836.024 0.11831 0.737572 0
M  V30 8415 H 838.686 0.983686 1.68255 0
M  V30 8416 H 837.782 0.401647 3.09505 0
M  V30 8417 N 838.083 -1.48885 0.516809 0
M  V30 8418 C 839.03 -2.29408 -0.253125 0
M  V30 8419 C 840 -1.36533 -0.945935 0
M  V30 8420 O 841.185 -1.65495 -0.949527 0
M  V30 8421 C 838.325 -3.19592 -1.30211 0
M  V30 8422 C 837.438 -4.27535 -0.61948 0
M  V30 8423 C 836.573 -5.04916 -1.65026 0
M  V30 8424 C 835.612 -6.04677 -0.950368 0
M  V30 8425 N 834.749 -6.75164 -1.92608 0
M  V30 8426 H 839.589 -2.94738 0.439744 0
M  V30 8427 H 837.126 -1.45311 0.2287 0
M  V30 8428 H 839.084 -3.70267 -1.92245 0
M  V30 8429 H 837.714 -2.56213 -1.96353 0
M  V30 8430 H 836.766 -3.80228 0.114505 0
M  V30 8431 H 838.078 -4.98752 -0.0693016 0
M  V30 8432 H 837.232 -5.59539 -2.34523 0
M  V30 8433 H 835.971 -4.33508 -2.23432 0
M  V30 8434 H 834.976 -5.4927 -0.241252 0
M  V30 8435 H 836.201 -6.78077 -0.372599 0
M  V30 8436 H 834.147 -6.06517 -2.49946 0
M  V30 8437 H 834.064 -7.4241 -1.42699 0
M  V30 8438 H 835.332 -7.34384 -2.61345 0
M  V30 8439 N 839.561 -0.251338 -1.55583 0
M  V30 8440 C 840.493 0.679167 -2.18906 0
M  V30 8441 C 841.506 1.13545 -1.16667 0
M  V30 8442 O 842.695 1.06146 -1.4351 0
M  V30 8443 C 839.795 1.93544 -2.78198 0
M  V30 8444 C 838.968 1.62987 -4.05899 0
M  V30 8445 C 838.027 2.73618 -4.49466 0
M  V30 8446 O 837.053 2.40815 -5.15749 0
M  V30 8447 N 838.255 4.03204 -4.1762 0
M  V30 8448 H 841.02 0.137328 -2.99385 0
M  V30 8449 H 838.581 -0.0714754 -1.61742 0
M  V30 8450 H 840.573 2.66804 -3.04299 0
M  V30 8451 H 839.143 2.38695 -2.0185 0
M  V30 8452 H 838.363 0.732237 -3.8734 0
M  V30 8453 H 839.651 1.40041 -4.89148 0
M  V30 8454 H 839.049 4.32686 -3.64416 0
M  V30 8455 H 837.606 4.72916 -4.48547 0
M  V30 8456 N 841.039 1.57585 0.0217189 0
M  V30 8457 C 842.285 1.89887 0.712099 0
M  V30 8458 C 842.618 0.849971 1.74611 0
M  V30 8459 O 841.893 -0.13407 1.94037 0
M  V30 8460 C 842.176 3.32815 1.37499 0
M  V30 8461 C 842.029 4.48405 0.353993 0
M  V30 8462 C 843.348 3.74786 2.30703 0
M  V30 8463 H 840.467 0.690588 0.257405 0
M  V30 8464 H 843.109 1.89983 -0.0251145 0
M  V30 8465 H 841.259 3.32863 2.00335 0
M  V30 8466 H 842.931 4.60491 -0.273015 0
M  V30 8467 H 841.174 4.32573 -0.32599 0
M  V30 8468 H 841.845 5.45316 0.85644 0
M  V30 8469 H 844.321 3.76151 1.77904 0
M  V30 8470 H 843.197 4.75585 2.74061 0
M  V30 8471 H 843.458 3.07449 3.17691 0
M  V30 8472 N 842.517 -0.29412 1.54831 0
M  V30 8473 C 843.447 -1.36757 1.89261 0
M  V30 8474 C 844.428 -1.52564 0.752214 0
M  V30 8475 O 845.613 -1.65958 1.00855 0
M  V30 8476 C 842.743 -2.73066 2.14597 0
M  V30 8477 C 841.697 -2.72017 3.3044 0
M  V30 8478 C 841.023 -4.11679 3.4121 0
M  V30 8479 C 842.323 -2.33149 4.67375 0
M  V30 8480 H 844.017 -1.08191 2.79169 0
M  V30 8481 H 841.563 -0.519014 1.34321 0
M  V30 8482 H 843.516 -3.48255 2.37269 0
M  V30 8483 H 842.24 -3.03172 1.21467 0
M  V30 8484 H 840.899 -1.99285 3.07703 0
M  V30 8485 H 840.547 -4.38973 2.45584 0
M  V30 8486 H 840.247 -4.11877 4.19084 0
M  V30 8487 H 841.771 -4.88637 3.6615 0
M  V30 8488 H 843.185 -2.98054 4.89731 0
M  V30 8489 H 841.582 -2.44546 5.48012 0
M  V30 8490 H 842.652 -1.28275 4.67626 0
M  V30 8491 N 843.995 -1.47404 -0.557645 0
M  V30 8492 C 845.22 -1.57868 -1.34508 0
M  V30 8493 C 845.645 -0.229151 -1.86699 0
M  V30 8494 O 845.003 0.794908 -1.62944 0
M  V30 8495 C 845.051 -2.60712 -2.49122 0
M  V30 8496 O 844.155 -2.15952 -3.51338 0
M  V30 8497 H 843.496 -0.530335 -0.399551 0
M  V30 8498 H 846.026 -1.93181 -0.673954 0
M  V30 8499 H 846.036 -2.81118 -2.95697 0
M  V30 8500 H 844.711 -3.58701 -2.10491 0
M  V30 8501 H 843.288 -2.05644 -3.11071 0
M  V30 8502 N 845.473 0.80434 -1.35529 0
M  V30 8503 C 846.703 1.59052 -1.31856 0
M  V30 8504 C 847.111 1.88905 0.105549 0
M  V30 8505 O 846.454 1.49422 1.06858 0
M  V30 8506 C 846.516 2.94626 -2.06 0
M  V30 8507 C 846.18 2.87576 -3.55175 0
M  V30 8508 C 847.177 2.60856 -4.49722 0
M  V30 8509 C 844.862 3.06623 -3.97854 0
M  V30 8510 C 846.856 2.53262 -5.84925 0
M  V30 8511 C 844.543 2.98652 -5.33151 0
M  V30 8512 C 845.541 2.72007 -6.26499 0
M  V30 8513 O 845.229 2.64003 -7.59314 0
M  V30 8514 H 844.961 0.500486 -0.454411 0
M  V30 8515 H 847.515 1.0074 -1.78999 0
M  V30 8516 H 845.745 3.5493 -1.53498 0
M  V30 8517 H 847.434 3.55785 -1.95376 0
M  V30 8518 H 848.2 2.45858 -4.18066 0
M  V30 8519 H 844.079 3.26372 -3.2558 0
M  V30 8520 H 847.623 2.32386 -6.57756 0
M  V30 8521 H 843.52 3.13208 -5.64421 0
M  V30 8522 H 844.288 2.79595 -7.69265 0
M  V30 8523 N 846.951 1.19563 1.02676 0
M  V30 8524 C 848.199 0.997593 1.75763 0
M  V30 8525 C 848.52 -0.47253 1.89188 0
M  V30 8526 O 847.79 -1.34214 1.42701 0
M  V30 8527 H 846.37 0.366128 0.651122 0
M  V30 8528 H 849.032 1.50495 1.23844 0
M  V30 8529 H 848.128 1.44741 2.76508 0
M  V30 8530 N 848.429 -1.21819 0.999893 0
M  V30 8531 C 849.361 -2.23356 0.514256 0
M  V30 8532 C 850.374 -1.5795 -0.394413 0
M  V30 8533 O 851.563 -1.77427 -0.195428 0
M  V30 8534 C 848.663 -3.37797 -0.273207 0
M  V30 8535 C 847.836 -4.32791 0.633293 0
M  V30 8536 C 846.895 -5.26098 -0.103673 0
M  V30 8537 O 845.921 -5.66881 0.513269 0
M  V30 8538 N 847.123 -5.63764 -1.38383 0
M  V30 8539 H 849.888 -2.65653 1.3874 0
M  V30 8540 H 847.449 -1.3619 0.875431 0
M  V30 8541 H 849.441 -3.97209 -0.775053 0
M  V30 8542 H 848.011 -2.94527 -1.0475 0
M  V30 8543 H 847.231 -3.71595 1.31571 0
M  V30 8544 H 848.519 -4.93196 1.25039 0
M  V30 8545 H 847.917 -5.32614 -1.90627 0
M  V30 8546 H 846.474 -6.25562 -1.83073 0
M  V30 8547 N 849.908 -0.773975 -1.37286 0
M  V30 8548 C 850.856 -0.149581 -2.32119 0
M  V30 8549 C 851.85 0.682457 -1.55045 0
M  V30 8550 O 853.056 0.579269 -1.70424 0
M  V30 8551 H 849.431 -0.0295857 -0.751418 0
M  V30 8552 H 851.402 -0.965117 -2.82362 0
M  V30 8553 C 850.151 0.713409 -3.40302 0
M  V30 8554 H 849.474 0.0825416 -3.99715 0
M  V30 8555 H 850.914 1.11723 -4.09016 0
M  V30 8556 C 849.373 1.86498 -2.80571 0
M  V30 8557 O 849.903 2.9606 -2.71498 0
M  V30 8558 N 848.109 1.66629 -2.38082 0
M  V30 8559 H 847.656 0.775145 -2.45661 0
M  V30 8560 H 847.614 2.43845 -1.98461 0
M  V30 8561 N 851.386 1.48609 -0.524698 0
M  V30 8562 C 852.316 2.32366 0.229837 0
M  V30 8563 C 853.297 1.41759 0.940129 0
M  V30 8564 O 854.482 1.7065 0.926936 0
M  V30 8565 C 851.612 3.22835 1.28043 0
M  V30 8566 C 850.566 4.22424 0.688603 0
M  V30 8567 C 849.892 5.0199 1.84146 0
M  V30 8568 C 851.192 5.21217 -0.336176 0
M  V30 8569 H 852.886 2.95698 -0.469339 0
M  V30 8570 H 850.432 1.42197 -0.227156 0
M  V30 8571 H 852.385 3.80253 1.8162 0
M  V30 8572 H 851.109 2.57492 2.00912 0
M  V30 8573 H 849.768 3.66185 0.174402 0
M  V30 8574 H 849.416 4.33076 2.5584 0
M  V30 8575 H 849.116 5.69392 1.45142 0
M  V30 8576 H 850.64 5.62259 2.38111 0
M  V30 8577 H 852.054 5.7319 0.112307 0
M  V30 8578 H 850.451 5.96642 -0.643324 0
M  V30 8579 H 851.521 4.68676 -1.24381 0
M  V30 8580 N 852.864 0.259585 1.55447 0
M  V30 8581 C 854.089 -0.368317 2.04103 0
M  V30 8582 C 854.514 -1.49827 1.13725 0
M  V30 8583 O 853.872 -1.80814 0.132705 0
M  V30 8584 C 853.92 -0.841506 3.50644 0
M  V30 8585 O 853.024 -1.95008 3.63381 0
M  V30 8586 H 852.365 -0.0785227 0.659341 0
M  V30 8587 H 854.895 0.389349 2.00861 0
M  V30 8588 H 854.905 -1.14138 3.9171 0
M  V30 8589 H 853.58 -0.0147001 4.15897 0
M  V30 8590 H 852.157 -1.65393 3.34215 0
M  V30 8591 N 854.342 -1.57594 -0.0133615 0
M  V30 8592 C 855.589 -1.8998 -0.70098 0
M  V30 8593 C 855.917 -0.858802 -1.74513 0
M  V30 8594 O 855.172 0.138209 -1.95211 0
M  V30 8595 C 855.471 -3.29121 -1.39336 0
M  V30 8596 C 855.137 -4.48298 -0.483687 0
M  V30 8597 C 853.799 -4.80635 -0.233186 0
M  V30 8598 C 856.151 -5.21003 0.143426 0
M  V30 8599 C 853.479 -5.83055 0.652943 0
M  V30 8600 C 855.831 -6.24366 1.01735 0
M  V30 8601 C 854.495 -6.55168 1.27716 0
M  V30 8602 H 853.765 -0.695187 -0.256507 0
M  V30 8603 H 856.412 -1.9146 0.0392965 0
M  V30 8604 H 854.717 -3.23703 -2.20735 0
M  V30 8605 H 856.414 -3.51433 -1.93121 0
M  V30 8606 H 853.004 -4.23024 -0.689092 0
M  V30 8607 H 857.188 -4.96286 -0.0371139 0
M  V30 8608 H 852.444 -6.05288 0.862379 0
M  V30 8609 H 856.618 -6.79839 1.5097 0
M  V30 8610 H 854.245 -7.34351 1.9655 0
M  V30 8611 N 855.82 0.285905 -1.54985 0
M  V30 8612 C 857.045 1.04207 -1.7932 0
M  V30 8613 C 857.47 1.79622 -0.558343 0
M  V30 8614 O 856.828 1.74506 0.491661 0
M  V30 8615 C 856.876 1.98648 -3.0095 0
M  V30 8616 O 855.98 3.07207 -2.75132 0
M  V30 8617 H 855.321 0.298596 -0.593074 0
M  V30 8618 H 857.851 0.318736 -2.02102 0
M  V30 8619 H 857.861 2.4084 -3.29333 0
M  V30 8620 H 856.536 1.43167 -3.90482 0
M  V30 8621 H 855.113 2.69423 -2.57809 0
M  V30 8622 N 857.298 1.47698 0.54982 0
M  V30 8623 C 858.545 1.54702 1.30665 0
M  V30 8624 C 858.873 0.212418 1.93337 0
M  V30 8625 O 858.128 -0.79543 1.78805 0
M  V30 8626 C 858.427 2.61903 2.4319 0
M  V30 8627 C 858.093 4.04953 1.98302 0
M  V30 8628 C 856.755 4.43893 1.85776 0
M  V30 8629 C 859.107 4.94682 1.64133 0
M  V30 8630 C 856.435 5.70387 1.37388 0
M  V30 8631 C 858.787 6.21646 1.17214 0
M  V30 8632 C 857.451 6.5946 1.0329 0
M  V30 8633 H 856.721 0.566096 0.478139 0
M  V30 8634 H 859.368 1.8133 0.615767 0
M  V30 8635 H 857.673 2.2906 3.17866 0
M  V30 8636 H 859.37 2.64543 3.0136 0
M  V30 8637 H 855.96 3.74191 2.08995 0
M  V30 8638 H 860.144 4.65291 1.72679 0
M  V30 8639 H 855.4 5.98427 1.25278 0
M  V30 8640 H 859.574 6.90581 0.898391 0
M  V30 8641 H 857.201 7.57367 0.655735 0
M  V30 8642 N 858.776 -0.797141 1.35954 0
M  V30 8643 C 860.192 -1.09408 1.16198 0
M  V30 8644 C 860.392 -2.01491 -0.0191682 0
M  V30 8645 O 859.448 -2.42977 -0.686902 0
M  V30 8646 C 860.761 -1.71597 2.46931 0
M  V30 8647 C 862.309 -1.83974 2.53224 0
M  V30 8648 C 862.784 -2.49579 3.84024 0
M  V30 8649 N 864.275 -2.57055 3.85327 0
M  V30 8650 C 865.01 -3.08608 4.83268 0
M  V30 8651 N 864.506 -3.60527 5.91601 0
M  V30 8652 N 866.299 -3.07249 4.70696 0
M  V30 8653 H 858.45 -0.185209 2.11591 0
M  V30 8654 H 860.713 -0.144768 0.936881 0
M  V30 8655 H 860.419 -1.11404 3.3359 0
M  V30 8656 H 860.293 -2.71193 2.62172 0
M  V30 8657 H 862.68 -2.43308 1.66988 0
M  V30 8658 H 862.761 -0.83207 2.41889 0
M  V30 8659 H 862.405 -1.90892 4.70662 0
M  V30 8660 H 862.335 -3.50902 3.92651 0
M  V30 8661 H 864.826 -2.20283 3.07057 0
M  V30 8662 H 865.139 -3.98192 6.62317 0
M  V30 8663 H 863.484 -3.587 5.95281 0
M  V30 8664 H 866.675 -2.65972 3.85197 0
M  V30 8665 H 866.848 -3.47119 5.47186 0
M  V30 8666 N 860.254 -1.20106 -1.0204 0
M  V30 8667 C 861.5 -1.01039 -1.75838 0
M  V30 8668 C 861.833 0.456819 -1.88751 0
M  V30 8669 O 861.108 1.33919 -1.41053 0
M  V30 8670 C 861.391 -1.69009 -3.17975 0
M  V30 8671 C 861.244 -3.2315 -3.1288 0
M  V30 8672 C 862.563 -1.42005 -4.16561 0
M  V30 8673 H 859.682 -0.368465 -0.638281 0
M  V30 8674 H 862.324 -1.48066 -1.19064 0
M  V30 8675 H 860.474 -1.29026 -3.66449 0
M  V30 8676 H 862.146 -3.72402 -2.72239 0
M  V30 8677 H 860.389 -3.54253 -2.50374 0
M  V30 8678 H 861.06 -3.65862 -4.13339 0
M  V30 8679 H 863.536 -1.76685 -3.76725 0
M  V30 8680 H 862.412 -1.92101 -5.14187 0
M  V30 8681 H 862.673 -0.346884 -4.40737 0
M  V30 8682 N 861.732 1.21287 -1.00634 0
M  V30 8683 C 863.009 1.86 -0.605257 0
M  V30 8684 C 863.389 1.90139 0.917072 0
M  V30 8685 O 862.737 1.40169 1.80458 0
M  V30 8686 C 862.947 3.26183 -1.24119 0
M  V30 8687 C 864.295 4.02562 -1.35015 0
M  V30 8688 O 865.319 3.35499 -1.19661 0
M  V30 8689 O 864.178 5.22638 -1.59726 0
M  V30 8690 H 861.272 0.800549 -0.207486 0
M  V30 8691 H 863.818 1.28959 -1.10307 0
M  V30 8692 H 862.59 3.17878 -2.28186 0
M  V30 8693 H 862.213 3.90845 -0.729807 0
M  V30 8694 N 863.21 0.781244 1.36873 0
M  V30 8695 C 864.626 0.461968 1.52768 0
M  V30 8696 C 864.826 -1.02099 1.73719 0
M  V30 8697 O 863.882 -1.80665 1.76399 0
M  V30 8698 C 865.195 1.2853 2.71846 0
M  V30 8699 C 866.743 1.27817 2.85713 0
M  V30 8700 C 867.218 2.08506 4.07786 0
M  V30 8701 N 868.709 2.05909 4.14917 0
M  V30 8702 C 869.444 2.65118 5.08429 0
M  V30 8703 N 868.94 3.33152 6.07438 0
M  V30 8704 N 870.733 2.54896 5.00983 0
M  V30 8705 H 862.884 1.74198 1.21527 0
M  V30 8706 H 865.147 0.740027 0.592506 0
M  V30 8707 H 864.853 2.3366 2.62861 0
M  V30 8708 H 864.727 0.920981 3.65784 0
M  V30 8709 H 867.114 0.234817 2.94164 0
M  V30 8710 H 867.195 1.68219 1.92707 0
M  V30 8711 H 866.839 3.12867 4.00096 0
M  V30 8712 H 866.769 1.65479 4.99924 0
M  V30 8713 H 869.26 1.56386 3.44023 0
M  V30 8714 H 869.573 3.75681 6.75339 0
M  V30 8715 H 867.918 3.37253 6.07689 0
M  V30 8716 H 871.109 2.01352 4.22581 0
M  V30 8717 H 871.282 3.01332 5.73675 0
M  V30 8718 N 864.689 -1.48329 0.532571 0
M  V30 8719 C 866.105 -1.58458 0.190605 0
M  V30 8720 C 866.305 -1.53427 -1.30623 0
M  V30 8721 O 865.361 -1.4247 -2.08467 0
M  V30 8722 C 866.674 -2.89989 0.79543 0
M  V30 8723 C 868.222 -3.03523 0.7644 0
M  V30 8724 C 868.697 -4.37718 1.34785 0
M  V30 8725 N 870.188 -4.44292 1.30993 0
M  V30 8726 C 870.923 -5.4664 1.73124 0
M  V30 8727 N 870.419 -6.5593 2.22997 0
M  V30 8728 N 872.212 -5.37538 1.64346 0
M  V30 8729 H 864.363 -1.49842 1.50537 0
M  V30 8730 H 866.626 -0.71164 0.626316 0
M  V30 8731 H 866.332 -2.99333 1.84642 0
M  V30 8732 H 866.206 -3.76203 0.27403 0
M  V30 8733 H 868.593 -2.93789 -0.277831 0
M  V30 8734 H 868.674 -2.18912 1.3233 0
M  V30 8735 H 868.318 -4.48206 2.38902 0
M  V30 8736 H 868.248 -5.21019 0.764609 0
M  V30 8737 H 870.739 -3.65897 0.944868 0
M  V30 8738 H 871.052 -7.30167 2.53133 0
M  V30 8739 H 869.397 -6.56886 2.26992 0
M  V30 8740 H 872.588 -4.51052 1.25178 0
M  V30 8741 H 872.761 -6.17169 1.97501 0
M  V30 8742 N 866.167 -0.267825 -1.55308 0
M  V30 8743 C 867.444 0.402449 -1.91415 0
M  V30 8744 C 867.824 1.7428 -1.1912 0
M  V30 8745 O 867.172 2.2631 -0.315609 0
M  V30 8746 C 867.382 0.549926 -3.4464 0
M  V30 8747 C 868.73 0.836188 -4.16285 0
M  V30 8748 O 869.754 0.635009 -3.50494 0
M  V30 8749 O 868.613 1.22051 -5.32697 0
M  V30 8750 H 865.707 0.219177 -0.797427 0
M  V30 8751 H 868.253 -0.313439 -1.6678 0
M  V30 8752 H 867.025 -0.393641 -3.89315 0
M  V30 8753 H 866.648 1.31556 -3.75205 0
M  V30 8754 N 867.645 1.57599 0.00500368 0
M  V30 8755 C 868.873 1.94626 0.702016 0
M  V30 8756 C 869.288 0.86953 1.67585 0
M  V30 8757 O 868.645 -0.15199 1.81866 0
M  V30 8758 C 868.696 3.31658 1.43824 0
M  V30 8759 O 868.417 4.35197 0.503467 0
M  V30 8760 C 869.918 3.83114 2.23021 0
M  V30 8761 H 867.138 0.641785 0.195841 0
M  V30 8762 H 869.682 2.04451 -0.0446287 0
M  V30 8763 H 867.837 3.23156 2.13655 0
M  V30 8764 H 868.251 5.1444 1.02235 0
M  V30 8765 H 869.725 4.81438 2.7004 0
M  V30 8766 H 870.202 3.15559 3.05482 0
M  V30 8767 H 870.808 3.94775 1.58216 0
M  V30 8768 N 869.123 -0.277682 1.55134 0
M  V30 8769 C 870.539 -0.624625 1.46869 0
M  V30 8770 C 870.739 -1.89717 0.678958 0
M  V30 8771 O 869.795 -2.51739 0.195939 0
M  V30 8772 C 871.108 -0.755937 2.91043 0
M  V30 8773 C 872.656 -0.850299 3.01229 0
M  V30 8774 C 873.131 -1.01343 4.46647 0
M  V30 8775 N 874.622 -1.07906 4.50456 0
M  V30 8776 C 875.357 -1.224 5.60184 0
M  V30 8777 N 874.853 -1.33642 6.79788 0
M  V30 8778 N 876.646 -1.25473 5.47917 0
M  V30 8779 H 868.797 0.558102 2.04937 0
M  V30 8780 H 871.06 0.188228 0.929125 0
M  V30 8781 H 870.766 0.108593 3.51532 0
M  V30 8782 H 870.64 -1.6377 3.39793 0
M  V30 8783 H 873.027 -1.7053 2.40839 0
M  V30 8784 H 873.108 0.0559681 2.55739 0
M  V30 8785 H 872.752 -0.163102 5.07638 0
M  V30 8786 H 872.682 -1.93427 4.89789 0
M  V30 8787 H 875.173 -1.00477 3.64298 0
M  V30 8788 H 875.486 -1.44522 7.59166 0
M  V30 8789 H 873.831 -1.30655 6.82608 0
M  V30 8790 H 877.022 -1.16317 4.53418 0
M  V30 8791 H 877.195 -1.36424 6.33476 0
M  V30 8792 N 870.601 -1.47988 -0.541979 0
M  V30 8793 C 871.531 -1.64503 -1.65713 0
M  V30 8794 C 872.512 -0.494116 -1.62765 0
M  V30 8795 O 873.697 -0.725256 -1.80149 0
M  V30 8796 C 870.827 -1.67337 -3.04328 0
M  V30 8797 C 869.781 -2.81809 -3.2213 0
M  V30 8798 C 869.107 -2.69724 -4.61685 0
M  V30 8799 C 870.407 -4.23241 -3.06046 0
M  V30 8800 H 872.101 -2.5786 -1.52147 0
M  V30 8801 H 869.647 -1.24094 -0.730529 0
M  V30 8802 H 871.6 -1.77481 -3.82202 0
M  V30 8803 H 870.324 -0.705514 -3.18889 0
M  V30 8804 H 868.983 -2.71201 -2.46669 0
M  V30 8805 H 868.631 -1.70934 -4.73065 0
M  V30 8806 H 868.331 -3.4653 -4.74543 0
M  V30 8807 H 869.855 -2.81818 -5.41674 0
M  V30 8808 H 871.269 -4.34746 -3.73723 0
M  V30 8809 H 869.666 -5.00952 -3.30405 0
M  V30 8810 H 870.736 -4.40543 -2.02609 0
M  V30 8811 N 872.079 0.78992 -1.36375 0
M  V30 8812 C 873.304 1.58389 -1.33895 0
M  V30 8813 C 873.729 1.8794 0.0774934 0
M  V30 8814 O 873.087 1.4785 1.0493 0
M  V30 8815 C 873.135 2.88201 -2.16732 0
M  V30 8816 O 872.239 3.81778 -1.55946 0
M  V30 8817 H 871.58 0.480471 -0.458305 0
M  V30 8818 H 874.11 0.979119 -1.79651 0
M  V30 8819 H 874.12 3.37475 -2.29292 0
M  V30 8820 H 872.795 2.66019 -3.19698 0
M  V30 8821 H 871.372 3.40371 -1.52323 0
M  V30 8822 N 873.557 1.20646 1.01402 0
M  V30 8823 C 874.52 0.959314 2.08158 0
M  V30 8824 C 875.52 -0.0661558 1.60664 0
M  V30 8825 O 876.71 0.170177 1.73367 0
M  V30 8826 C 873.842 0.444785 3.37986 0
M  V30 8827 H 875.035 1.90631 2.31517 0
M  V30 8828 H 872.588 1.02219 1.18241 0
M  V30 8829 H 873.323 -0.507553 3.20304 0
M  V30 8830 H 873.108 1.18435 3.73785 0
M  V30 8831 H 874.598 0.291443 4.16582 0
M  V30 8832 N 875.035 -1.20752 1.01276 0
M  V30 8833 C 875.945 -2.27079 0.589277 0
M  V30 8834 C 876.961 -1.6999 -0.371389 0
M  V30 8835 O 878.137 -2.00044 -0.233294 0
M  V30 8836 C 875.202 -3.4663 -0.0696715 0
M  V30 8837 C 874.263 -4.18962 0.936454 0
M  V30 8838 C 873.496 -5.32806 0.308856 0
M  V30 8839 O 873.719 -5.63376 -0.8924 0
M  V30 8840 O 872.653 -5.93131 1.02367 0
M  V30 8841 H 876.479 -2.6551 1.47438 0
M  V30 8842 H 874.064 -1.27297 0.782045 0
M  V30 8843 H 875.946 -4.19119 -0.437873 0
M  V30 8844 H 874.621 -3.10082 -0.929029 0
M  V30 8845 H 873.528 -3.48661 1.35595 0
M  V30 8846 H 874.861 -4.59441 1.76565 0
M  V30 8847 N 876.513 -0.788492 -1.36457 0
M  V30 8848 C 877.79 -0.284484 -1.9352 0
M  V30 8849 C 878.17 1.2232 -1.7205 0
M  V30 8850 O 877.518 2.01424 -1.07892 0
M  V30 8851 C 877.728 -0.676106 -3.42388 0
M  V30 8852 C 879.076 -0.655327 -4.19512 0
M  V30 8853 O 880.1 -0.616523 -3.50824 0
M  V30 8854 O 878.959 -0.697391 -5.42032 0
M  V30 8855 H 876.053 -0.0701769 -0.824017 0
M  V30 8856 H 878.599 -0.870974 -1.45644 0
M  V30 8857 H 877.371 -1.71596 -3.51668 0
M  V30 8858 H 876.994 -0.0634517 -3.97549 0
M  V30 8859 N 877.991 1.48044 -0.54043 0
M  V30 8860 C 878.921 2.32597 0.205178 0
M  V30 8861 C 879.902 1.42748 0.925041 0
M  V30 8862 O 881.087 1.71624 0.908784 0
M  V30 8863 C 878.217 3.24175 1.24612 0
M  V30 8864 C 877.171 4.23131 0.64376 0
M  V30 8865 C 876.497 5.03915 1.78812 0
M  V30 8866 C 877.797 5.20831 -0.39144 0
M  V30 8867 H 879.491 2.95184 -0.500676 0
M  V30 8868 H 877.037 1.41948 -0.242225 0
M  V30 8869 H 878.99 3.82158 1.77576 0
M  V30 8870 H 877.714 2.59608 1.98169 0
M  V30 8871 H 876.373 3.66349 0.135554 0
M  V30 8872 H 876.021 4.35765 2.51232 0
M  V30 8873 H 875.721 5.709 1.39094 0
M  V30 8874 H 877.245 5.64753 2.32134 0
M  V30 8875 H 878.659 5.73277 0.0515064 0
M  V30 8876 H 877.056 5.95926 -0.706569 0
M  V30 8877 H 878.126 4.6733 -1.29345 0
M  V30 8878 N 879.47 0.276058 1.55163 0
M  V30 8879 C 880.716 -0.340959 1.99913 0
M  V30 8880 C 881.049 -1.55434 1.16422 0
M  V30 8881 O 880.324 -1.93081 0.234517 0
M  V30 8882 C 880.607 -0.722211 3.52783 0
M  V30 8883 C 880.46 0.498575 4.47028 0
M  V30 8884 C 881.779 -1.5583 4.11589 0
M  V30 8885 H 878.898 -0.122455 0.726756 0
M  V30 8886 H 881.54 0.38319 1.86096 0
M  V30 8887 H 879.69 -1.33919 3.64689 0
M  V30 8888 H 881.362 1.13713 4.47065 0
M  V30 8889 H 879.605 1.13646 4.18649 0
M  V30 8890 H 880.276 0.188041 5.5168 0
M  V30 8891 H 882.752 -1.03722 4.02965 0
M  V30 8892 H 881.628 -1.79387 5.1876 0
M  V30 8893 H 881.889 -2.53963 3.61877 0
M  V30 8894 N 880.948 -1.576 0.00335426 0
M  V30 8895 C 881.878 -2.11668 -0.985839 0
M  V30 8896 C 882.859 -1.02661 -1.35627 0
M  V30 8897 O 884.044 -1.30361 -1.43943 0
M  V30 8898 C 881.174 -2.62273 -2.27662 0
M  V30 8899 C 880.128 -3.75837 -2.0477 0
M  V30 8900 C 879.454 -4.12769 -3.39891 0
M  V30 8901 C 880.754 -5.02975 -1.40759 0
M  V30 8902 H 882.448 -2.9457 -0.535637 0
M  V30 8903 H 879.994 -1.41702 -0.256204 0
M  V30 8904 H 881.947 -2.98727 -2.97221 0
M  V30 8905 H 880.671 -1.76498 -2.74802 0
M  V30 8906 H 879.33 -3.39782 -1.37636 0
M  V30 8907 H 878.978 -3.24013 -3.8474 0
M  V30 8908 H 878.678 -4.89281 -3.25389 0
M  V30 8909 H 880.202 -4.51784 -4.1076 0
M  V30 8910 H 881.616 -5.37179 -2.00279 0
M  V30 8911 H 880.013 -5.84315 -1.36734 0
M  V30 8912 H 881.083 -4.83431 -0.377218 0
M  V30 8913 N 882.426 0.269451 -1.5528 0
M  V30 8914 C 883.336 1.35511 -1.91505 0
M  V30 8915 C 884.352 1.53854 -0.812712 0
M  V30 8916 O 885.528 1.67912 -1.1121 0
M  V30 8917 C 882.593 2.6937 -2.18267 0
M  V30 8918 C 881.654 2.59743 -3.41807 0
M  V30 8919 C 880.887 3.87219 -3.67283 0
M  V30 8920 O 881.11 4.88066 -2.95208 0
M  V30 8921 O 880.044 3.87209 -4.60818 0
M  V30 8922 H 883.87 1.07785 -2.8393 0
M  V30 8923 H 881.455 0.468282 -1.41871 0
M  V30 8924 H 883.337 3.48513 -2.36889 0
M  V30 8925 H 882.012 2.96874 -1.29024 0
M  V30 8926 H 880.919 1.78964 -3.28516 0
M  V30 8927 H 882.252 2.37188 -4.3128 0
M  V30 8928 N 883.904 1.48273 0.534124 0
M  V30 8929 C 885.152 1.55771 1.28762 0
M  V30 8930 C 885.473 0.231575 1.9362 0
M  V30 8931 O 884.743 -0.746533 1.81118 0
M  V30 8932 H 883.323 0.573851 0.47823 0
M  V30 8933 H 885.985 1.84712 0.621888 0
M  V30 8934 H 885.081 2.33657 2.06908 0
M  V30 8935 N 885.382 -0.782676 1.36792 0
M  V30 8936 C 886.345 -1.8772 1.31507 0
M  V30 8937 C 887.345 -1.59269 0.221349 0
M  V30 8938 O 888.535 -1.67555 0.476544 0
M  V30 8939 C 885.667 -3.24641 1.04025 0
M  V30 8940 H 886.86 -1.9382 2.28853 0
M  V30 8941 H 884.413 -0.981226 1.21662 0
M  V30 8942 H 885.148 -3.24221 0.0716439 0
M  V30 8943 H 884.933 -3.46681 1.8318 0
M  V30 8944 H 886.423 -4.04711 1.02949 0
M  V30 8945 N 886.86 -1.21182 -1.00761 0
M  V30 8946 C 888.108 -1.02543 -1.74153 0
M  V30 8947 C 888.429 0.442372 -1.89916 0
M  V30 8948 O 887.699 1.31927 -1.44818 0
M  V30 8949 H 886.279 -0.37644 -0.645214 0
M  V30 8950 H 888.941 -1.52446 -1.21434 0
M  V30 8951 H 888.037 -1.49122 -2.7417 0
M  V30 8952 N 888.338 1.20213 -1.01915 0
M  V30 8953 C 889.268 2.25336 -0.612023 0
M  V30 8954 C 890.249 1.65933 0.374186 0
M  V30 8955 O 891.434 1.92464 0.259053 0
M  V30 8956 C 888.564 3.47267 0.047904 0
M  V30 8957 C 887.518 4.1928 -0.859557 0
M  V30 8958 C 886.844 5.3466 -0.0652655 0
M  V30 8959 C 888.144 4.75143 -2.1688 0
M  V30 8960 H 889.838 2.59645 -1.49079 0
M  V30 8961 H 887.384 1.24808 -0.718263 0
M  V30 8962 H 889.337 4.19991 0.344294 0
M  V30 8963 H 888.061 3.12129 0.961404 0
M  V30 8964 H 886.72 3.48425 -1.13999 0
M  V30 8965 H 886.368 4.95767 0.849964 0
M  V30 8966 H 886.068 5.83772 -0.669618 0
M  V30 8967 H 887.592 6.10187 0.224612 0
M  V30 8968 H 889.006 5.39672 -1.9346 0
M  V30 8969 H 887.403 5.34702 -2.72422 0
M  V30 8970 H 888.473 3.93744 -2.83008 0
M  V30 8971 N 889.816 0.795718 1.36037 0
M  V30 8972 C 891.232 0.478145 1.52269 0
M  V30 8973 C 891.432 -1.0025 1.74792 0
M  V30 8974 O 890.488 -1.78783 1.78305 0
M  V30 8975 C 891.801 1.31406 2.70468 0
M  V30 8976 C 893.349 1.3084 2.84341 0
M  V30 8977 C 893.824 2.12819 4.05551 0
M  V30 8978 N 895.315 2.10298 4.12709 0
M  V30 8979 C 896.05 2.70495 5.05589 0
M  V30 8980 N 895.546 3.39576 6.03871 0
M  V30 8981 N 897.339 2.60195 4.98252 0
M  V30 8982 H 889.49 1.75477 1.19673 0
M  V30 8983 H 891.753 0.74627 0.584624 0
M  V30 8984 H 891.459 2.36435 2.60368 0
M  V30 8985 H 891.333 0.959726 3.64786 0
M  V30 8986 H 893.72 0.266003 2.93899 0
M  V30 8987 H 893.801 1.70254 1.90912 0
M  V30 8988 H 893.445 3.17093 3.96755 0
M  V30 8989 H 893.375 1.70772 4.98141 0
M  V30 8990 H 895.866 1.60026 3.42345 0
M  V30 8991 H 896.179 3.82823 6.71317 0
M  V30 8992 H 894.524 3.43679 6.04077 0
M  V30 8993 H 897.715 2.05823 4.20422 0
M  V30 8994 H 897.888 3.074 5.70447 0
M  V30 8995 N 891.294 -1.47756 0.548274 0
M  V30 8996 C 892.54 -2.02789 0.0209265 0
M  V30 8997 C 892.873 -1.42268 -1.32187 0
M  V30 8998 O 892.148 -0.575001 -1.85806 0
M  V30 8999 C 892.431 -3.60007 -0.0816674 0
M  V30 9000 C 892.284 -4.30977 1.28759 0
M  V30 9001 C 893.603 -4.32777 -0.799515 0
M  V30 9002 H 890.722 -0.736944 0.00907884 0
M  V30 9003 H 893.364 -1.76282 0.708839 0
M  V30 9004 H 891.514 -3.82722 -0.667537 0
M  V30 9005 H 893.186 -4.19629 1.91597 0
M  V30 9006 H 891.429 -3.9168 1.86466 0
M  V30 9007 H 892.1 -5.39488 1.16861 0
M  V30 9008 H 894.576 -4.15001 -0.30216 0
M  V30 9009 H 893.452 -5.42431 -0.840239 0
M  V30 9010 H 893.713 -4.01358 -1.85375 0
M  V30 9011 N 892.772 -0.284283 -1.55015 0
M  V30 9012 C 893.997 0.335799 -2.04664 0
M  V30 9013 C 894.422 1.47999 -1.16094 0
M  V30 9014 O 893.78 1.8058 -0.161454 0
M  V30 9015 C 893.828 0.785615 -3.51938 0
M  V30 9016 O 892.932 1.89202 -3.66437 0
M  V30 9017 H 892.273 0.0680233 -0.660506 0
M  V30 9018 H 894.803 -0.421255 -2.00216 0
M  V30 9019 H 894.813 1.07892 -3.93476 0
M  V30 9020 H 893.488 -0.0514675 -4.15868 0
M  V30 9021 H 892.065 1.60055 -3.36804 0
M  V30 9022 N 894.251 1.57596 -0.0117121 0
M  V30 9023 C 895.497 1.91355 0.671661 0
M  V30 9024 C 895.83 0.886818 1.72769 0
M  V30 9025 O 895.105 -0.0928813 1.94278 0
M  V30 9026 C 895.388 3.35657 1.30409 0
M  V30 9027 C 895.241 4.49055 0.2588 0
M  V30 9028 C 896.56 3.79595 2.22701 0
M  V30 9029 H 893.679 0.695893 0.242698 0
M  V30 9030 H 896.321 1.89887 -0.0654071 0
M  V30 9031 H 894.471 3.37038 1.9323 0
M  V30 9032 H 896.143 4.59809 -0.370631 0
M  V30 9033 H 894.386 4.31785 -0.417672 0
M  V30 9034 H 895.057 5.4701 0.740578 0
M  V30 9035 H 897.533 3.7984 1.69885 0
M  V30 9036 H 896.409 4.81292 2.63912 0
M  V30 9037 H 896.67 3.14118 3.11098 0
M  V30 9038 N 895.729 -0.261212 1.5542 0
M  V30 9039 C 897.14 -0.83138 1.67167 0
M  V30 9040 C 897.491 -1.8659 0.606525 0
M  V30 9041 O 896.616 -2.14953 -0.24985 0
M  V30 9042 C 897.211 -1.51475 3.03052 0
M  V30 9043 C 895.77 -2.0328 3.16787 0
M  V30 9044 C 894.917 -0.878903 2.63003 0
M  V30 9045 H 897.868 -0.0373102 1.58656 0
M  V30 9046 H 897.889 -2.38222 2.96699 0
M  V30 9047 H 897.401 -0.76157 3.80554 0
M  V30 9048 H 895.502 -2.81523 2.44082 0
M  V30 9049 H 895.615 -2.24001 4.2351 0
M  V30 9050 H 893.979 -1.27551 2.2046 0
M  V30 9051 H 894.762 -0.13904 3.43018 0
M  V30 9052 N 897.207 -1.48554 -0.526253 0
M  V30 9053 C 898.137 -1.66252 -1.63959 0
M  V30 9054 C 899.118 -0.511351 -1.62232 0
M  V30 9055 O 900.303 -0.744322 -1.7937 0
M  V30 9056 C 897.433 -1.70556 -3.02536 0
M  V30 9057 C 896.387 -2.8521 -3.19123 0
M  V30 9058 C 895.713 -2.74606 -4.58798 0
M  V30 9059 C 897.013 -4.26463 -3.0154 0
M  V30 9060 H 898.707 -2.59459 -1.49404 0
M  V30 9061 H 896.253 -1.24862 -0.717326 0
M  V30 9062 H 898.206 -1.81524 -3.80298 0
M  V30 9063 H 896.93 -0.739297 -3.18123 0
M  V30 9064 H 895.589 -2.73802 -2.43779 0
M  V30 9065 H 895.237 -1.75941 -4.71226 0
M  V30 9066 H 894.937 -3.51544 -4.70841 0
M  V30 9067 H 896.461 -2.87548 -5.38655 0
M  V30 9068 H 897.875 -4.38685 -3.69091 0
M  V30 9069 H 896.272 -5.04428 -3.25073 0
M  V30 9070 H 897.342 -4.42667 -1.97925 0
M  V30 9071 N 898.685 0.775411 -1.37205 0
M  V30 9072 C 899.934 1.52909 -1.31536 0
M  V30 9073 C 900.247 1.9535 0.0989374 0
M  V30 9074 O 901.453 2.70072 0.278079 0
M  V30 9075 C 899.909 2.761 -2.30861 0
M  V30 9076 C 899.517 2.40773 -3.77799 0
M  V30 9077 C 901.261 3.54052 -2.34195 0
M  V30 9078 C 899.168 3.60444 -4.68865 0
M  V30 9079 H 898.098 0.574061 -0.488845 0
M  V30 9080 H 900.749 0.849642 -1.62645 0
M  V30 9081 H 899.131 3.45916 -1.92764 0
M  V30 9082 H 900.305 1.78764 -4.24712 0
M  V30 9083 H 898.62 1.76004 -3.77375 0
M  V30 9084 H 901.217 4.42992 -2.99437 0
M  V30 9085 H 901.56 3.93649 -1.35449 0
M  V30 9086 H 902.093 2.91229 -2.7098 0
M  V30 9087 H 898.832 3.25932 -5.68725 0
M  V30 9088 H 898.352 4.21571 -4.26659 0
M  V30 9089 H 900.031 4.27302 -4.85821 0
M  V30 9090 N 900.163 1.21714 1.00117 0
M  V30 9091 C 901.126 0.981338 2.07129 0
M  V30 9092 C 902.126 -0.0491116 1.60725 0
M  V30 9093 O 903.316 0.188555 1.73177 0
M  V30 9094 C 900.448 0.480608 3.37495 0
M  V30 9095 H 901.641 1.93075 2.29482 0
M  V30 9096 H 899.194 1.03467 1.17151 0
M  V30 9097 H 899.929 -0.473552 3.20824 0
M  V30 9098 H 899.714 1.22393 3.72508 0
M  V30 9099 H 901.204 0.33561 4.16249 0
M  V30 9100 N 901.641 -1.19671 1.02551 0
M  V30 9101 C 902.573 -2.22215 0.561517 0
M  V30 9102 C 903.586 -1.58751 -0.360821 0
M  V30 9103 O 904.775 -1.77802 -0.157749 0
M  V30 9104 C 901.875 -3.383 -0.201494 0
M  V30 9105 C 901.048 -4.3135 0.724952 0
M  V30 9106 C 900.107 -5.26199 0.00794334 0
M  V30 9107 O 899.133 -5.65665 0.633398 0
M  V30 9108 N 900.335 -5.66573 -1.26394 0
M  V30 9109 H 903.1 -2.6265 1.44343 0
M  V30 9110 H 900.661 -1.34303 0.904122 0
M  V30 9111 H 902.653 -3.98764 -0.690625 0
M  V30 9112 H 901.223 -2.96683 -0.98479 0
M  V30 9113 H 900.443 -3.6872 1.39423 0
M  V30 9114 H 901.731 -4.90433 1.35472 0
M  V30 9115 H 901.129 -5.36538 -1.79287 0
M  V30 9116 H 899.686 -6.29304 -1.69763 0
M  V30 9117 N 903.119 -0.802921 -1.35613 0
M  V30 9118 C 904.367 -0.380822 -1.9848 0
M  V30 9119 C 904.688 1.05464 -1.6402 0
M  V30 9120 O 903.958 1.72908 -0.920854 0
M  V30 9121 H 902.538 -0.137824 -0.734176 0
M  V30 9122 H 905.2 -1.02795 -1.65587 0
M  V30 9123 H 904.296 -0.483565 -3.08331 0
M  V30 9124 N 904.597 1.47463 -0.556102 0
M  V30 9125 C 905.545 2.31692 0.205299 0
M  V30 9126 C 906.539 1.42857 0.910394 0
M  V30 9127 O 907.745 1.59628 0.831806 0
M  V30 9128 H 904.12 0.747172 0.0850775 0
M  V30 9129 H 906.091 2.93758 -0.524305 0
M  V30 9130 C 904.84 3.25487 1.22283 0
M  V30 9131 H 904.163 3.93806 0.689697 0
M  V30 9132 H 905.603 3.87257 1.7265 0
M  V30 9133 C 904.062 2.48931 2.27013 0
M  V30 9134 O 904.592 2.23296 3.33919 0
M  V30 9135 N 902.798 2.0996 2.00911 0
M  V30 9136 H 902.345 2.31008 1.13986 0
M  V30 9137 H 902.303 1.59053 2.712 0
M  V30 9138 N 906.075 0.2925 1.54862 0
M  V30 9139 C 907.3 -0.32494 2.04839 0
M  V30 9140 C 907.725 -1.47381 1.16877 0
M  V30 9141 O 907.083 -1.80492 0.171028 0
M  V30 9142 C 907.131 -0.76694 3.5235 0
M  V30 9143 O 906.235 -1.87256 3.67436 0
M  V30 9144 H 905.576 -0.0645195 0.660858 0
M  V30 9145 H 908.106 0.431867 1.9999 0
M  V30 9146 H 908.116 -1.05804 3.94043 0
M  V30 9147 H 906.791 0.0735212 4.15835 0
M  V30 9148 H 905.368 -1.58266 3.37648 0
M  V30 9149 N 907.553 -1.57587 0.0200696 0
M  V30 9150 C 908.783 -1.95435 -0.669991 0
M  V30 9151 C 909.191 -0.894647 -1.66711 0
M  V30 9152 O 908.534 0.133009 -1.83218 0
M  V30 9153 C 908.596 -3.29379 -1.44047 0
M  V30 9154 C 908.26 -4.53008 -0.602691 0
M  V30 9155 C 909.257 -5.19766 0.118188 0
M  V30 9156 C 906.942 -4.99359 -0.542754 0
M  V30 9157 C 908.936 -6.31187 0.887774 0
M  V30 9158 C 906.623 -6.10665 0.230543 0
M  V30 9159 C 907.621 -6.76438 0.944522 0
M  V30 9160 O 907.309 -7.85608 1.70516 0
M  V30 9161 H 907.041 -0.648681 -0.190234 0
M  V30 9162 H 909.595 -2.05269 0.0733838 0
M  V30 9163 H 907.825 -3.1601 -2.22878 0
M  V30 9164 H 909.514 -3.52194 -2.01777 0
M  V30 9165 H 910.28 -4.84932 0.0811604 0
M  V30 9166 H 906.159 -4.47976 -1.08804 0
M  V30 9167 H 909.703 -6.82458 1.44558 0
M  V30 9168 H 905.6 -6.44938 0.26932 0
M  V30 9169 H 906.368 -8.02228 1.62398 0
M  V30 9170 N 909.032 0.252966 -1.55557 0
M  V30 9171 C 910.443 0.822503 -1.67606 0
M  V30 9172 C 910.794 1.86265 -0.616411 0
M  V30 9173 O 909.919 2.15082 0.238447 0
M  V30 9174 C 910.514 1.49866 -3.03852 0
M  V30 9175 C 909.073 2.01597 -3.17861 0
M  V30 9176 C 908.22 0.864943 -2.63465 0
M  V30 9177 H 911.171 0.0288958 -1.58674 0
M  V30 9178 H 911.192 2.36646 -2.97958 0
M  V30 9179 H 910.704 0.741378 -3.80953 0
M  V30 9180 H 908.805 2.80224 -2.45571 0
M  V30 9181 H 908.918 2.21752 -4.24692 0
M  V30 9182 H 907.282 1.2638 -2.21134 0
M  V30 9183 H 908.065 0.120847 -3.43087 0
M  V30 9184 N 910.51 1.48831 0.518367 0
M  V30 9185 C 911.735 1.61379 1.30275 0
M  V30 9186 C 912.16 0.278571 1.86026 0
M  V30 9187 O 911.518 -0.751427 1.64995 0
M  V30 9188 C 911.566 2.67225 2.42122 0
M  V30 9189 O 910.67 2.25192 3.45489 0
M  V30 9190 H 910.011 0.540742 0.385349 0
M  V30 9191 H 912.541 1.949 0.622498 0
M  V30 9192 H 912.551 2.88859 2.8814 0
M  V30 9193 H 911.226 3.64155 2.00907 0
M  V30 9194 H 909.803 2.13819 3.05509 0
M  V30 9195 N 911.988 -0.768124 1.37614 0
M  V30 9196 C 912.898 -1.91249 1.35871 0
M  V30 9197 C 913.914 -1.7208 0.257786 0
M  V30 9198 O 915.09 -1.95253 0.493782 0
M  V30 9199 C 912.155 -3.26423 1.16829 0
M  V30 9200 C 911.216 -3.5822 2.36594 0
M  V30 9201 C 910.449 -4.86945 2.1845 0
M  V30 9202 O 910.672 -5.58258 1.17064 0
M  V30 9203 O 909.606 -5.17888 3.06718 0
M  V30 9204 H 913.432 -1.95671 2.32264 0
M  V30 9205 H 911.017 -0.911382 1.18382 0
M  V30 9206 H 912.899 -4.07269 1.08212 0
M  V30 9207 H 911.574 -3.22845 0.235123 0
M  V30 9208 H 910.481 -2.77594 2.50783 0
M  V30 9209 H 911.814 -3.66545 3.2849 0
M  V30 9210 N 913.466 -1.22244 -0.994698 0
M  V30 9211 C 914.694 -1.07218 -1.76952 0
M  V30 9212 C 915.109 0.377388 -1.8499 0
M  V30 9213 O 914.466 1.26157 -1.31874 0
M  V30 9214 C 914.517 -1.67496 -3.20355 0
M  V30 9215 O 914.238 -3.06782 -3.12756 0
M  V30 9216 C 915.739 -1.57721 -4.14294 0
M  V30 9217 H 912.959 -0.375966 -0.555779 0
M  V30 9218 H 915.503 -1.61799 -1.25065 0
M  V30 9219 H 913.658 -1.16982 -3.69315 0
M  V30 9220 H 914.072 -3.35784 -4.02926 0
M  V30 9221 H 915.546 -2.04623 -5.12673 0
M  V30 9222 H 916.023 -0.533434 -4.35949 0
M  V30 9223 H 916.629 -2.07531 -3.71229 0
M  V30 9224 N 914.944 1.19125 -1.03184 0
M  V30 9225 C 916.172 1.92838 -0.74975 0
M  V30 9226 C 916.587 1.75667 0.691851 0
M  V30 9227 O 915.944 1.0805 1.47076 0
M  V30 9228 C 915.995 3.44509 -1.09525 0
M  V30 9229 O 915.716 3.6113 -2.48025 0
M  V30 9230 C 917.217 4.35338 -0.836397 0
M  V30 9231 H 914.437 0.61246 -0.274105 0
M  V30 9232 H 916.981 1.5118 -1.37712 0
M  V30 9233 H 915.136 3.83988 -0.513006 0
M  V30 9234 H 915.55 4.54959 -2.60984 0
M  V30 9235 H 917.024 5.4035 -1.12808 0
M  V30 9236 H 917.501 4.38602 0.229102 0
M  V30 9237 H 918.107 4.01544 -1.40152 0
M  V30 9238 N 916.422 0.810101 1.35185 0
M  V30 9239 C 917.668 0.392698 1.98962 0
M  V30 9240 C 918.001 -1.03835 1.64109 0
M  V30 9241 O 917.276 -1.721 0.9062 0
M  V30 9242 C 917.559 0.580349 3.55393 0
M  V30 9243 C 917.412 2.05658 4.00031 0
M  V30 9244 C 918.731 0.00822618 4.40099 0
M  V30 9245 H 915.85 0.144157 0.722764 0
M  V30 9246 H 918.492 1.02029 1.60281 0
M  V30 9247 H 916.642 0.0461106 3.88473 0
M  V30 9248 H 918.314 2.65348 3.77344 0
M  V30 9249 H 916.557 2.55174 3.50811 0
M  V30 9250 H 917.228 2.13875 5.08883 0
M  V30 9251 H 919.704 0.464517 4.13499 0
M  V30 9252 H 918.58 0.169414 5.48638 0
M  V30 9253 H 918.841 -1.08576 4.2856 0
M  V30 9254 N 917.9 -1.47166 0.563914 0
M  V30 9255 C 918.847 -2.30097 -0.180013 0
M  V30 9256 C 919.817 -1.39473 -0.902019 0
M  V30 9257 O 921.002 -1.68432 -0.896396 0
M  V30 9258 C 918.142 -3.23573 -1.19978 0
M  V30 9259 C 917.255 -4.2929 -0.483149 0
M  V30 9260 C 916.39 -5.0991 -1.48879 0
M  V30 9261 C 915.429 -6.07395 -0.757513 0
M  V30 9262 N 914.566 -6.8095 -1.71031 0
M  V30 9263 H 919.406 -2.93189 0.53329 0
M  V30 9264 H 916.943 -1.4451 0.274814 0
M  V30 9265 H 918.901 -3.76196 -1.80368 0
M  V30 9266 H 917.531 -2.6233 -1.88103 0
M  V30 9267 H 916.583 -3.79671 0.235414 0
M  V30 9268 H 917.895 -4.9872 0.0894075 0
M  V30 9269 H 917.049 -5.66717 -2.16603 0
M  V30 9270 H 915.788 -4.40397 -2.09527 0
M  V30 9271 H 914.793 -5.4976 -0.0663841 0
M  V30 9272 H 916.018 -6.78919 -0.156685 0
M  V30 9273 H 913.964 -6.14162 -2.30524 0
M  V30 9274 H 913.881 -7.46574 -1.19007 0
M  V30 9275 H 915.149 -7.42326 -2.37849 0
M  V30 9276 N 919.378 -0.300708 -1.54705 0
M  V30 9277 C 920.608 0.310819 -2.04249 0
M  V30 9278 C 921.016 1.4809 -1.17754 0
M  V30 9279 O 920.359 1.82654 -0.195779 0
M  V30 9280 C 920.421 0.83014 -3.49784 0
M  V30 9281 C 920.085 -0.214628 -4.56496 0
M  V30 9282 C 921.082 -1.04298 -5.09331 0
M  V30 9283 C 918.767 -0.356242 -5.01035 0
M  V30 9284 C 920.761 -1.99889 -6.05246 0
M  V30 9285 C 918.448 -1.3156 -5.96771 0
M  V30 9286 C 919.446 -2.1354 -6.4876 0
M  V30 9287 O 919.134 -3.07849 -7.4262 0
M  V30 9288 H 918.866 0.0715341 -0.672204 0
M  V30 9289 H 921.42 -0.438179 -2.00672 0
M  V30 9290 H 919.65 1.62966 -3.50684 0
M  V30 9291 H 921.339 1.35752 -3.82526 0
M  V30 9292 H 922.105 -0.944439 -4.75716 0
M  V30 9293 H 917.984 0.271916 -4.60197 0
M  V30 9294 H 921.528 -2.63917 -6.45751 0
M  V30 9295 H 917.425 -1.41486 -6.29803 0
M  V30 9296 H 918.193 -3.02824 -7.60421 0
M  V30 9297 N 920.856 1.57574 -0.0284266 0
M  V30 9298 C 922.102 1.92056 0.651327 0
M  V30 9299 C 922.435 0.905092 1.71819 0
M  V30 9300 O 921.71 -0.0722703 1.94366 0
M  V30 9301 C 921.993 3.37021 1.26841 0
M  V30 9302 C 921.846 4.49304 0.211157 0
M  V30 9303 C 923.165 3.81936 2.18662 0
M  V30 9304 H 920.284 0.698428 0.235304 0
M  V30 9305 H 922.926 1.89807 -0.0855435 0
M  V30 9306 H 921.076 3.39068 1.89644 0
M  V30 9307 H 922.748 4.5939 -0.419379 0
M  V30 9308 H 920.991 4.31317 -0.463445 0
M  V30 9309 H 921.662 5.47764 0.682518 0
M  V30 9310 H 924.138 3.8162 1.65847 0
M  V30 9311 H 923.014 4.84064 2.58792 0
M  V30 9312 H 923.275 3.174 3.07749 0
M  V30 9313 N 922.334 -0.244713 1.55689 0
M  V30 9314 C 923.581 -0.972446 1.77622 0
M  V30 9315 C 923.909 -1.85235 0.593137 0
M  V30 9316 O 923.164 -1.91064 -0.423464 0
M  V30 9317 C 923.463 -1.8617 3.05083 0
M  V30 9318 C 923.129 -1.13696 4.3633 0
M  V30 9319 C 921.791 -0.936679 4.71996 0
M  V30 9320 C 924.143 -0.623451 5.17458 0
M  V30 9321 C 921.471 -0.210612 5.86322 0
M  V30 9322 C 923.823 0.0891587 6.32537 0
M  V30 9323 C 922.487 0.300904 6.66821 0
M  V30 9324 H 921.757 -0.355843 0.649967 0
M  V30 9325 H 924.404 -0.242372 1.8996 0
M  V30 9326 H 922.709 -2.6589 2.87767 0
M  V30 9327 H 924.406 -2.4265 3.19253 0
M  V30 9328 H 920.996 -1.30301 4.08313 0
M  V30 9329 H 925.18 -0.765725 4.90357 0
M  V30 9330 H 920.436 -0.0361062 6.11389 0
M  V30 9331 H 924.61 0.494685 6.94641 0
M  V30 9332 H 922.237 0.865466 7.55257 0
M  V30 9333 N 923.813 -1.49104 -0.510467 0
M  V30 9334 C 925.229 -1.35657 -0.840797 0
M  V30 9335 C 925.429 -0.382425 -1.97838 0
M  V30 9336 O 924.485 0.189331 -2.51789 0
M  V30 9337 C 925.798 -2.76155 -1.18992 0
M  V30 9338 C 927.346 -2.84786 -1.29868 0
M  V30 9339 C 927.821 -4.2603 -1.68115 0
M  V30 9340 N 929.312 -4.28796 -1.75181 0
M  V30 9341 C 930.047 -5.35041 -2.062 0
M  V30 9342 N 929.543 -6.51543 -2.35508 0
M  V30 9343 N 931.336 -5.2245 -2.07371 0
M  V30 9344 H 923.487 -2.11042 0.23982 0
M  V30 9345 H 925.75 -0.946946 0.0446824 0
M  V30 9346 H 925.456 -3.49092 -0.427484 0
M  V30 9347 H 925.33 -3.10922 -2.13558 0
M  V30 9348 H 927.717 -2.12092 -2.05186 0
M  V30 9349 H 927.798 -2.53613 -0.333758 0
M  V30 9350 H 927.442 -4.99247 -0.933512 0
M  V30 9351 H 927.372 -4.5466 -2.65691 0
M  V30 9352 H 929.863 -3.44771 -1.5473 0
M  V30 9353 H 930.176 -7.28342 -2.58337 0
M  V30 9354 H 928.521 -6.54785 -2.32985 0
M  V30 9355 H 931.712 -4.30444 -1.83945 0
M  V30 9356 H 931.885 -6.05347 -2.31212 0
M  V30 9357 N 925.291 0.760815 -1.38019 0
M  V30 9358 C 926.221 1.88811 -1.37377 0
M  V30 9359 C 927.202 1.68388 -0.240737 0
M  V30 9360 O 928.387 1.89086 -0.442739 0
M  V30 9361 C 925.517 3.26244 -1.1909 0
M  V30 9362 C 924.471 3.61254 -2.29521 0
M  V30 9363 C 923.797 4.97346 -1.96345 0
M  V30 9364 C 925.097 3.66874 -3.71753 0
M  V30 9365 H 926.791 1.89606 -2.31711 0
M  V30 9366 H 924.337 0.910818 -1.11535 0
M  V30 9367 H 926.29 4.04755 -1.17267 0
M  V30 9368 H 925.014 3.2591 -0.212152 0
M  V30 9369 H 923.673 2.85057 -2.30517 0
M  V30 9370 H 923.321 4.93564 -0.969728 0
M  V30 9371 H 923.021 5.21739 -2.703 0
M  V30 9372 H 924.545 5.78244 -1.96129 0
M  V30 9373 H 925.959 4.35514 -3.72828 0
M  V30 9374 H 924.356 4.02772 -4.44853 0
M  V30 9375 H 925.426 2.67273 -4.0459 0
M  V30 9376 N 926.769 1.22769 0.988202 0
M  V30 9377 C 927.719 0.969202 2.06375 0
M  V30 9378 C 928.703 -0.0819274 1.60691 0
M  V30 9379 O 929.895 0.129201 1.76528 0
M  V30 9380 C 927.024 0.553919 3.38802 0
M  V30 9381 C 926.11 1.64003 3.91106 0
M  V30 9382 N 926.501 2.86872 4.16579 0
M  V30 9383 C 924.799 1.5128 4.1956 0
M  V30 9384 C 925.5 3.57137 4.5916 0
M  V30 9385 N 924.476 2.84624 4.63131 0
M  V30 9386 H 928.278 1.90247 2.24017 0
M  V30 9387 H 925.792 1.12592 1.17033 0
M  V30 9388 H 927.789 0.350033 4.15428 0
M  V30 9389 H 926.449 -0.37239 3.22558 0
M  V30 9390 H 927.46 3.23254 4.04632 0
M  V30 9391 H 924.137 0.653032 4.12361 0
M  V30 9392 H 925.527 4.62428 4.87452 0
M  V30 9393 N 928.247 -1.18576 1.03814 0
M  V30 9394 C 929.157 -2.25778 0.637311 0
M  V30 9395 C 930.173 -1.7074 -0.335248 0
M  V30 9396 O 931.349 -2.00494 -0.19081 0
M  V30 9397 C 928.414 -3.467 0.00386953 0
M  V30 9398 C 927.475 -4.16881 1.02511 0
M  V30 9399 C 926.708 -5.32031 0.421802 0
M  V30 9400 O 926.931 -5.65142 -0.772699 0
M  V30 9401 O 925.865 -5.90826 1.14925 0
M  V30 9402 H 929.691 -2.62323 1.53037 0
M  V30 9403 H 927.276 -1.25609 0.80887 0
M  V30 9404 H 929.158 -4.19953 -0.348873 0
M  V30 9405 H 927.833 -3.11983 -0.863047 0
M  V30 9406 H 926.74 -3.45707 1.4296 0
M  V30 9407 H 928.073 -4.55592 1.86271 0
M  V30 9408 N 929.725 -0.817259 -1.34754 0
M  V30 9409 C 930.688 -0.240611 -2.27934 0
M  V30 9410 C 931.688 0.578219 -1.50044 0
M  V30 9411 O 932.878 0.395148 -1.69659 0
M  V30 9412 C 930.01 0.663318 -3.34384 0
M  V30 9413 H 931.203 -1.06257 -2.80445 0
M  V30 9414 H 928.756 -0.588697 -1.4479 0
M  V30 9415 H 929.491 1.50855 -2.87077 0
M  V30 9416 H 929.276 0.0777388 -3.92023 0
M  V30 9417 H 930.766 1.06076 -4.03903 0
M  V30 9418 N 931.203 1.46865 -0.571711 0
M  V30 9419 C 932.431 2.06818 -0.0583975 0
M  V30 9420 C 932.846 1.42218 1.24175 0
M  V30 9421 O 932.203 0.523655 1.74826 0
M  V30 9422 C 932.254 3.61281 0.125673 0
M  V30 9423 O 931.975 4.23462 -1.123 0
M  V30 9424 C 933.476 4.38137 0.674604 0
M  V30 9425 H 930.696 0.668948 -0.052438 0
M  V30 9426 H 933.24 1.88656 -0.789251 0
M  V30 9427 H 931.395 3.78908 0.806707 0
M  V30 9428 H 931.809 5.16192 -0.929869 0
M  V30 9429 H 933.283 5.46845 0.752626 0
M  V30 9430 H 933.76 4.05419 1.68915 0
M  V30 9431 H 934.366 4.2529 0.0287979 0
M  V30 9432 N 932.681 0.308908 1.54543 0
M  V30 9433 C 933.958 -0.351558 1.92415 0
M  V30 9434 C 934.338 -1.71061 1.23699 0
M  V30 9435 O 933.686 -2.25394 0.3755 0
M  V30 9436 C 933.896 -0.458357 3.45977 0
M  V30 9437 C 935.244 -0.725524 4.18355 0
M  V30 9438 O 936.268 -0.541859 3.52054 0
M  V30 9439 O 935.127 -1.07884 5.35745 0
M  V30 9440 H 932.221 -0.197957 0.802958 0
M  V30 9441 H 934.767 0.357548 1.65891 0
M  V30 9442 H 933.539 0.496723 3.88134 0
M  V30 9443 H 933.162 -1.21562 3.78561 0
M  V30 9444 N 934.159 -1.57557 0.0367827 0
M  V30 9445 C 935.389 -1.96134 -0.649225 0
M  V30 9446 C 935.797 -0.912279 -1.65753 0
M  V30 9447 O 935.14 0.113569 -1.83349 0
M  V30 9448 C 935.202 -3.30889 -1.40545 0
M  V30 9449 C 934.866 -4.53622 -0.554609 0
M  V30 9450 C 935.863 -5.19611 0.17331 0
M  V30 9451 C 933.548 -4.99907 -0.48976 0
M  V30 9452 C 935.542 -6.3021 0.95467 0
M  V30 9453 C 933.229 -6.10386 0.295299 0
M  V30 9454 C 934.227 -6.75398 1.01621 0
M  V30 9455 O 933.915 -7.83755 1.78839 0
M  V30 9456 H 933.647 -0.650662 -0.183344 0
M  V30 9457 H 936.201 -2.05179 0.0951512 0
M  V30 9458 H 934.431 -3.18356 -2.19513 0
M  V30 9459 H 936.12 -3.54315 -1.9803 0
M  V30 9460 H 936.886 -4.84819 0.132589 0
M  V30 9461 H 932.765 -4.49105 -1.04046 0
M  V30 9462 H 936.309 -6.80886 1.51789 0
M  V30 9463 H 932.206 -6.44616 0.33771 0
M  V30 9464 H 932.974 -8.0046 1.70898 0
M  V30 9465 N 935.637 0.236453 -1.55816 0
M  V30 9466 C 937.048 0.80468 -1.68469 0
M  V30 9467 C 937.399 1.85601 -0.636133 0
M  V30 9468 O 936.524 2.15323 0.215622 0
M  V30 9469 C 937.119 1.46634 -3.05424 0
M  V30 9470 C 935.678 1.98214 -3.19981 0
M  V30 9471 C 934.825 0.83695 -2.64368 0
M  V30 9472 H 937.776 0.0120647 -1.58695 0
M  V30 9473 H 937.797 2.33472 -3.00451 0
M  V30 9474 H 937.309 0.700931 -3.81718 0
M  V30 9475 H 935.41 2.77604 -2.4853 0
M  V30 9476 H 935.523 2.17235 -4.2702 0
M  V30 9477 H 933.887 1.24028 -2.22462 0
M  V30 9478 H 934.67 0.084451 -3.43196 0
M  V30 9479 N 937.115 1.49373 0.502552 0
M  V30 9480 C 938.361 1.5999 1.25597 0
M  V30 9481 C 938.716 0.282287 1.90318 0
M  V30 9482 O 938.009 -0.71735 1.77664 0
M  V30 9483 C 938.203 2.69508 2.34735 0
M  V30 9484 C 938.032 4.11791 1.80716 0
M  V30 9485 C 936.802 4.78598 1.62087 0
M  V30 9486 C 939 4.97074 1.31991 0
M  V30 9487 N 936.982 6.05201 1.02981 0
M  V30 9488 C 938.353 6.14144 0.850098 0
M  V30 9489 C 940.408 4.83086 1.20549 0
M  V30 9490 C 939.111 7.18766 0.277192 0
M  V30 9491 C 941.137 5.87855 0.64656 0
M  V30 9492 C 940.499 7.04152 0.186968 0
M  V30 9493 H 936.598 0.639822 0.449613 0
M  V30 9494 H 939.182 1.86371 0.563361 0
M  V30 9495 H 937.353 2.44902 3.01459 0
M  V30 9496 H 939.085 2.69656 3.01774 0
M  V30 9497 H 935.84 4.35372 1.8641 0
M  V30 9498 H 936.264 6.72793 0.753601 0
M  V30 9499 H 940.906 3.93489 1.54681 0
M  V30 9500 H 938.624 8.08064 -0.0763971 0
M  V30 9501 H 942.21 5.79091 0.560832 0
M  V30 9502 H 941.09 7.83836 -0.238784 0
M  V30 9503 N 938.594 -0.753485 1.38421 0
M  V30 9504 C 940.01 -1.05656 1.1962 0
M  V30 9505 C 940.21 -2.0145 0.0449443 0
M  V30 9506 O 939.266 -2.45039 -0.609253 0
M  V30 9507 C 940.579 -1.63655 2.52265 0
M  V30 9508 C 942.127 -1.75825 2.58949 0
M  V30 9509 C 942.602 -2.37236 3.91769 0
M  V30 9510 N 944.093 -2.44666 3.9331 0
M  V30 9511 C 944.828 -2.93077 4.92842 0
M  V30 9512 N 944.324 -3.41523 6.02772 0
M  V30 9513 N 946.117 -2.92118 4.80232 0
M  V30 9514 H 938.268 -0.117799 2.12073 0
M  V30 9515 H 940.531 -0.114889 0.941012 0
M  V30 9516 H 940.237 -1.00734 3.36965 0
M  V30 9517 H 940.111 -2.62715 2.70667 0
M  V30 9518 H 942.498 -2.37873 1.74644 0
M  V30 9519 H 942.579 -0.754693 2.44414 0
M  V30 9520 H 942.223 -1.75822 4.76497 0
M  V30 9521 H 942.153 -3.38233 4.03616 0
M  V30 9522 H 944.644 -2.10403 3.1391 0
M  V30 9523 H 944.957 -3.76919 6.74649 0
M  V30 9524 H 943.302 -3.3958 6.06391 0
M  V30 9525 H 946.493 -2.53582 3.93464 0
M  V30 9526 H 946.666 -3.29535 5.57952 0
M  V30 9527 N 940.072 -1.23292 -0.981677 0
M  V30 9528 C 941.483 -1.05936 -1.53735 0
M  V30 9529 C 941.834 0.373695 -1.92608 0
M  V30 9530 O 940.959 1.26024 -1.75917 0
M  V30 9531 C 941.554 -1.91682 -2.79363 0
M  V30 9532 C 940.113 -1.78591 -3.31334 0
M  V30 9533 C 939.26 -1.87463 -2.04335 0
M  V30 9534 H 942.211 -1.36973 -0.801505 0
M  V30 9535 H 942.232 -1.44085 -3.52164 0
M  V30 9536 H 941.744 -2.95975 -2.51039 0
M  V30 9537 H 939.845 -0.770755 -3.64541 0
M  V30 9538 H 939.958 -2.61902 -4.01179 0
M  V30 9539 H 938.322 -1.3103 -2.18411 0
M  V30 9540 H 939.105 -2.9331 -1.78394 0
M  V30 9541 N 941.55 1.18024 -1.04442 0
M  V30 9542 C 942.513 2.19992 -0.643136 0
M  V30 9543 C 943.513 1.57949 0.301444 0
M  V30 9544 O 944.703 1.73986 0.0863341 0
M  V30 9545 C 941.835 3.40853 0.0565208 0
M  V30 9546 H 943.028 2.57008 -1.54554 0
M  V30 9547 H 940.581 1.31974 -0.837408 0
M  V30 9548 H 941.316 3.09373 0.972553 0
M  V30 9549 H 941.101 3.87128 -0.622439 0
M  V30 9550 H 942.591 4.16344 0.323652 0
M  V30 9551 N 943.028 0.824394 1.34319 0
M  V30 9552 C 943.958 0.262077 2.32025 0
M  V30 9553 C 944.939 -0.622277 1.58309 0
M  V30 9554 O 946.124 -0.548848 1.86283 0
M  V30 9555 C 943.254 -0.57567 3.42496 0
M  V30 9556 C 942.208 0.21167 4.27476 0
M  V30 9557 C 941.534 -0.748913 5.29429 0
M  V30 9558 C 942.834 1.42068 5.02607 0
M  V30 9559 H 944.528 1.07842 2.79304 0
M  V30 9560 H 942.074 0.520022 1.34282 0
M  V30 9561 H 944.027 -0.979251 4.09864 0
M  V30 9562 H 942.751 -1.42508 2.93869 0
M  V30 9563 H 941.41 0.596636 3.61712 0
M  V30 9564 H 941.058 -1.59432 4.77064 0
M  V30 9565 H 940.758 -0.226313 5.87164 0
M  V30 9566 H 942.282 -1.15032 5.99667 0
M  V30 9567 H 943.696 1.09103 5.62823 0
M  V30 9568 H 942.093 1.87903 5.69923 0
M  V30 9569 H 943.163 2.1981 4.32217 0
M  V30 9570 N 944.506 -1.46559 0.579492 0
M  V30 9571 C 945.734 -2.06784 0.0693648 0
M  V30 9572 C 946.149 -1.42875 -1.23419 0
M  V30 9573 O 945.506 -0.532919 -1.74546 0
M  V30 9574 C 945.557 -3.61343 -0.106511 0
M  V30 9575 O 945.278 -4.22861 1.14545 0
M  V30 9576 C 946.779 -4.38489 -0.651359 0
M  V30 9577 H 943.999 -0.66866 0.0559848 0
M  V30 9578 H 946.543 -1.88235 0.799245 0
M  V30 9579 H 944.698 -3.7933 -0.786601 0
M  V30 9580 H 945.112 -5.15691 0.95723 0
M  V30 9581 H 946.586 -5.47237 -0.723615 0
M  V30 9582 H 947.063 -4.06309 -1.66763 0
M  V30 9583 H 947.669 -4.253 -0.0062433 0
M  V30 9584 N 945.984 -0.3171 -1.54377 0
M  V30 9585 C 947.395 0.172287 -1.85903 0
M  V30 9586 C 947.746 1.52141 -1.23885 0
M  V30 9587 O 946.871 2.0949 -0.542476 0
M  V30 9588 C 947.466 0.319392 -3.37291 0
M  V30 9589 C 946.025 0.752998 -3.68791 0
M  V30 9590 C 945.172 -0.129143 -2.76999 0
M  V30 9591 H 948.123 -0.537597 -1.49317 0
M  V30 9592 H 948.144 1.15137 -3.62662 0
M  V30 9593 H 947.656 -0.662671 -3.82401 0
M  V30 9594 H 945.757 1.74504 -3.2921 0
M  V30 9595 H 945.87 0.561228 -4.75801 0
M  V30 9596 H 944.234 0.394242 -2.5163 0
M  V30 9597 H 945.017 -1.10785 -3.24933 0
M  V30 9598 N 947.462 1.57535 -0.0451378 0
M  V30 9599 C 948.709 1.92451 0.629987 0
M  V30 9600 C 949.037 0.92298 1.71206 0
M  V30 9601 O 948.292 -0.0656626 1.9559 0
M  V30 9602 C 948.591 3.34065 1.27024 0
M  V30 9603 C 948.257 4.49785 0.316971 0
M  V30 9604 C 946.919 4.81169 0.0546406 0
M  V30 9605 C 949.271 5.20111 -0.336693 0
M  V30 9606 C 946.599 5.8023 -0.86889 0
M  V30 9607 C 948.951 6.2016 -1.24838 0
M  V30 9608 C 947.615 6.49976 -1.51944 0
M  V30 9609 H 946.885 0.704228 0.230529 0
M  V30 9610 H 949.532 1.91182 -0.110328 0
M  V30 9611 H 947.837 3.31672 2.08568 0
M  V30 9612 H 949.534 3.58359 1.79945 0
M  V30 9613 H 946.124 4.2529 0.531614 0
M  V30 9614 H 950.308 4.96082 -0.147105 0
M  V30 9615 H 945.564 6.0167 -1.08643 0
M  V30 9616 H 949.738 6.73767 -1.76098 0
M  V30 9617 H 947.365 7.26551 -2.2367 0
M  V30 9618 N 948.94 -0.228186 1.55939 0
M  V30 9619 C 949.85 -1.30386 1.9503 0
M  V30 9620 C 950.866 -1.51645 0.853218 0
M  V30 9621 O 952.042 -1.64904 1.15623 0
M  V30 9622 C 949.107 -2.63489 2.25332 0
M  V30 9623 C 948.168 -2.5059 3.48573 0
M  V30 9624 C 947.401 -3.77345 3.7742 0
M  V30 9625 O 947.624 -4.80067 3.08045 0
M  V30 9626 O 946.558 -3.74855 4.70922 0
M  V30 9627 H 950.384 -1.0022 2.86687 0
M  V30 9628 H 947.969 -0.430503 1.43063 0
M  V30 9629 H 949.851 -3.4211 2.46046 0
M  V30 9630 H 948.526 -2.93349 1.3685 0
M  V30 9631 H 947.433 -1.70191 3.33145 0
M  V30 9632 H 948.766 -2.2567 4.37417 0
M  V30 9633 N 950.418 -1.49637 -0.494624 0
M  V30 9634 C 951.665 -1.59445 -1.24834 0
M  V30 9635 C 951.993 -0.284028 -1.92415 0
M  V30 9636 O 951.248 0.728519 -1.81634 0
M  V30 9637 C 951.547 -2.70749 -2.33302 0
M  V30 9638 C 951.213 -4.12034 -1.83135 0
M  V30 9639 C 949.875 -4.50482 -1.69173 0
M  V30 9640 C 952.227 -5.00432 -1.4566 0
M  V30 9641 C 949.555 -5.75093 -1.16124 0
M  V30 9642 C 951.907 -6.25568 -0.940608 0
M  V30 9643 C 950.571 -6.62839 -0.787432 0
M  V30 9644 H 949.841 -0.583451 -0.456799 0
M  V30 9645 H 952.488 -1.8349 -0.548044 0
M  V30 9646 H 950.793 -2.407 -3.09145 0
M  V30 9647 H 952.49 -2.75546 -2.91334 0
M  V30 9648 H 949.08 -3.8169 -1.94964 0
M  V30 9649 H 953.264 -4.71379 -1.55291 0
M  V30 9650 H 948.52 -6.02665 -1.02982 0
M  V30 9651 H 952.694 -6.93439 -0.641467 0
M  V30 9652 H 950.321 -7.59279 -0.374191 0
M  V30 9653 N 951.896 0.746133 -1.38819 0
M  V30 9654 C 952.828 1.86991 -1.3254 0
M  V30 9655 C 953.841 1.61077 -0.236216 0
M  V30 9656 O 955.03 1.71518 -0.494341 0
M  V30 9657 C 952.13 3.22786 -1.03258 0
M  V30 9658 C 951.303 3.76145 -2.23234 0
M  V30 9659 C 950.362 4.90474 -1.90581 0
M  V30 9660 O 949.388 5.04717 -2.63153 0
M  V30 9661 N 950.59 5.74015 -0.86525 0
M  V30 9662 H 953.355 1.92885 -2.2938 0
M  V30 9663 H 950.916 0.926392 -1.32776 0
M  V30 9664 H 952.908 3.96824 -0.794533 0
M  V30 9665 H 951.478 3.12231 -0.151895 0
M  V30 9666 H 950.698 2.93587 -2.63059 0
M  V30 9667 H 951.986 4.08528 -3.03285 0
M  V30 9668 H 951.384 5.65086 -0.263577 0
M  V30 9669 H 949.941 6.48168 -0.687087 0
M  V30 9670 N 953.375 1.23811 0.975125 0
M  V30 9671 C 954.322 1.02394 2.06843 0
M  V30 9672 C 955.292 -0.060337 1.6599 0
M  V30 9673 O 956.477 0.0928187 1.90574 0
M  V30 9674 C 953.617 0.626882 3.39359 0
M  V30 9675 C 952.73 1.78385 3.9345 0
M  V30 9676 C 951.865 1.33307 5.14201 0
M  V30 9677 C 950.904 2.46045 5.60471 0
M  V30 9678 N 950.041 2.01888 6.72448 0
M  V30 9679 H 954.881 1.95973 2.24496 0
M  V30 9680 H 952.418 0.976206 1.10039 0
M  V30 9681 H 954.376 0.377742 4.15486 0
M  V30 9682 H 953.006 -0.271907 3.21653 0
M  V30 9683 H 952.058 2.14685 3.14029 0
M  V30 9684 H 953.37 2.63122 4.23755 0
M  V30 9685 H 952.524 1.04237 5.97678 0
M  V30 9686 H 951.263 0.456143 4.85562 0
M  V30 9687 H 950.268 2.75884 4.75571 0
M  V30 9688 H 951.493 3.34283 5.91127 0
M  V30 9689 H 949.439 1.16583 6.45558 0
M  V30 9690 H 949.356 2.80182 7.02164 0
M  V30 9691 H 950.624 1.75937 7.59386 0
M  V30 9692 N 954.853 -1.17469 1.05066 0
M  V30 9693 C 955.783 -2.23635 0.671552 0
M  V30 9694 C 956.764 -1.66867 -0.33006 0
M  V30 9695 O 957.949 -1.93084 -0.207933 0
M  V30 9696 C 955.079 -3.47272 0.0441845 0
M  V30 9697 C 954.033 -4.16854 0.97042 0
M  V30 9698 C 953.359 -5.34299 0.206998 0
M  V30 9699 C 954.659 -4.69225 2.29401 0
M  V30 9700 H 956.353 -2.55602 1.55911 0
M  V30 9701 H 953.899 -1.2286 0.751101 0
M  V30 9702 H 955.852 -4.20756 -0.23282 0
M  V30 9703 H 954.576 -3.14568 -0.878311 0
M  V30 9704 H 953.235 -3.4528 1.23197 0
M  V30 9705 H 952.883 -4.97846 -0.718222 0
M  V30 9706 H 952.583 -5.81792 0.82416 0
M  V30 9707 H 954.107 -6.10568 -0.0627525 0
M  V30 9708 H 955.521 -5.34353 2.077 0
M  V30 9709 H 953.918 -5.27291 2.86503 0
M  V30 9710 H 954.988 -3.86102 2.93348 0
M  V30 9711 N 956.331 -0.831506 -1.3388 0
M  V30 9712 C 957.261 -0.274378 -2.31882 0
M  V30 9713 C 958.242 0.613872 -1.58637 0
M  V30 9714 O 959.427 0.538961 -1.86571 0
M  V30 9715 C 956.557 0.557498 -3.42796 0
M  V30 9716 C 955.511 -0.234337 -4.27358 0
M  V30 9717 C 954.837 0.720825 -5.29819 0
M  V30 9718 C 956.137 -1.44732 -5.01847 0
M  V30 9719 H 957.831 -1.09322 -2.78728 0
M  V30 9720 H 955.377 -0.527136 -1.34005 0
M  V30 9721 H 957.33 0.957501 -4.10378 0
M  V30 9722 H 956.054 1.40947 -2.94621 0
M  V30 9723 H 954.713 -0.61581 -3.61391 0
M  V30 9724 H 954.361 1.569 -4.77903 0
M  V30 9725 H 954.061 0.195171 -5.87276 0
M  V30 9726 H 955.585 1.1185 -6.00268 0
M  V30 9727 H 956.999 -1.12087 -5.62236 0
M  V30 9728 H 955.396 -1.90923 -5.68919 0
M  V30 9729 H 956.466 -2.22099 -4.31045 0
M  V30 9730 N 957.809 1.4625 -0.587256 0
M  V30 9731 C 958.757 2.32076 0.156108 0
M  V30 9732 C 959.751 1.44756 0.879887 0
M  V30 9733 O 960.957 1.61356 0.797759 0
M  V30 9734 H 957.332 0.748808 0.0692098 0
M  V30 9735 H 959.303 2.9258 -0.586497 0
M  V30 9736 C 958.052 3.28008 1.15352 0
M  V30 9737 H 957.375 3.9518 0.60601 0
M  V30 9738 H 958.815 3.90832 1.64396 0
M  V30 9739 C 957.274 2.53691 2.21681 0
M  V30 9740 O 957.804 2.30329 3.29107 0
M  V30 9741 N 956.01 2.14174 1.96412 0
M  V30 9742 H 955.557 2.33374 1.09061 0
M  V30 9743 H 955.515 1.6477 2.67765 0
M  V30 9744 N 959.287 0.325282 1.54207 0
M  V30 9745 C 960.235 -0.5554 2.25872 0
M  V30 9746 C 961.229 -1.11714 1.27344 0
M  V30 9747 O 962.435 -1.06498 1.45115 0
M  V30 9748 H 958.81 -0.19776 0.725531 0
M  V30 9749 H 960.781 0.0712858 2.98315 0
M  V30 9750 C 959.53 -1.70379 3.03095 0
M  V30 9751 H 958.853 -1.2808 3.78729 0
M  V30 9752 H 960.293 -2.29556 3.56483 0
M  V30 9753 C 958.752 -2.62242 2.11496 0
M  V30 9754 O 959.282 -3.64003 1.69895 0
M  V30 9755 N 957.488 -2.30515 1.7695 0
M  V30 9756 H 957.035 -1.47805 2.10978 0
M  V30 9757 H 956.993 -2.92241 1.15942 0
M  V30 9758 N 960.765 -1.57509 0.0534917 0
M  V30 9759 C 961.695 -2.14698 -0.917999 0
M  V30 9760 C 962.676 -1.06924 -1.32292 0
M  V30 9761 O 963.861 -1.34875 -1.39723 0
M  V30 9762 C 960.991 -2.69383 -2.19203 0
M  V30 9763 C 959.945 -3.82161 -1.9271 0
M  V30 9764 C 959.271 -4.23373 -3.26587 0
M  V30 9765 C 960.571 -5.07199 -1.24686 0
M  V30 9766 H 962.265 -2.96125 -0.44165 0
M  V30 9767 H 959.811 -1.42446 -0.210993 0
M  V30 9768 H 961.764 -3.08031 -2.87567 0
M  V30 9769 H 960.488 -1.85151 -2.69048 0
M  V30 9770 H 959.147 -3.43989 -1.26757 0
M  V30 9771 H 958.795 -3.36089 -3.74237 0
M  V30 9772 H 958.495 -4.99385 -3.09658 0
M  V30 9773 H 960.019 -4.64623 -3.96178 0
M  V30 9774 H 961.433 -5.43279 -1.83088 0
M  V30 9775 H 959.83 -5.88369 -1.18076 0
M  V30 9776 H 960.9 -4.84386 -0.223227 0
M  V30 9777 N 962.243 0.219913 -1.56058 0
M  V30 9778 C 963.471 0.960915 -1.83232 0
M  V30 9779 C 963.886 1.77878 -0.632828 0
M  V30 9780 O 963.243 1.78093 0.398624 0
M  V30 9781 C 963.294 1.87716 -3.08942 0
M  V30 9782 O 963.015 1.09235 -4.24263 0
M  V30 9783 C 964.516 2.73192 -3.49115 0
M  V30 9784 H 961.736 0.281546 -0.609075 0
M  V30 9785 H 964.28 0.234648 -2.03149 0
M  V30 9786 H 962.435 2.55736 -2.90995 0
M  V30 9787 H 962.849 1.71446 -4.95688 0
M  V30 9788 H 964.323 3.33181 -4.40107 0
M  V30 9789 H 964.8 3.45668 -2.70943 0
M  V30 9790 H 965.406 2.10583 -3.69506 0
M  V30 9791 N 963.721 1.49897 0.486681 0
M  V30 9792 C 964.946 1.64106 1.26823 0
M  V30 9793 C 965.371 0.317967 1.85393 0
M  V30 9794 O 964.729 -0.71626 1.66551 0
M  V30 9795 C 964.777 2.72301 2.36399 0
M  V30 9796 O 963.881 2.32469 3.40634 0
M  V30 9797 H 963.222 0.548794 0.373793 0
M  V30 9798 H 965.752 1.96177 0.581017 0
M  V30 9799 H 965.762 2.94906 2.81948 0
M  V30 9800 H 964.437 3.68335 1.93137 0
M  V30 9801 H 963.014 2.20251 3.00905 0
M  V30 9802 N 965.199 -0.738761 1.39212 0
M  V30 9803 C 966.448 -1.49368 1.35543 0
M  V30 9804 C 966.761 -1.95543 -0.0471091 0
M  V30 9805 O 967.967 -2.70714 -0.206376 0
M  V30 9806 C 966.423 -2.69882 2.381 0
M  V30 9807 C 966.031 -2.30672 3.8405 0
M  V30 9808 C 967.775 -3.47718 2.435 0
M  V30 9809 C 965.682 -3.47886 4.78256 0
M  V30 9810 H 964.612 -0.560898 0.503894 0
M  V30 9811 H 967.263 -0.806221 1.6484 0
M  V30 9812 H 965.645 -3.40684 2.01867 0
M  V30 9813 H 966.819 -1.67441 4.29302 0
M  V30 9814 H 965.134 -1.65936 3.81909 0
M  V30 9815 H 967.731 -4.34897 3.11077 0
M  V30 9816 H 968.074 -3.89919 1.45838 0
M  V30 9817 H 968.607 -2.83942 2.78606 0
M  V30 9818 H 965.346 -3.10739 5.77167 0
M  V30 9819 H 964.866 -4.10111 4.37686 0
M  V30 9820 H 966.545 -4.14271 4.96979 0
M  V30 9821 N 966.677 -1.24326 -0.968545 0
M  V30 9822 C 967.624 -1.0349 -2.06297 0
M  V30 9823 C 968.594 0.0515333 -1.6602 0
M  V30 9824 O 969.779 -0.102924 -1.90522 0
M  V30 9825 C 966.919 -0.64487 -3.39021 0
M  V30 9826 C 966.032 -1.80469 -3.92498 0
M  V30 9827 C 965.167 -1.36032 -5.13487 0
M  V30 9828 C 964.206 -2.49014 -5.59159 0
M  V30 9829 N 963.343 -2.05451 -6.71367 0
M  V30 9830 H 968.183 -1.97161 -2.23454 0
M  V30 9831 H 965.72 -0.982028 -1.0952 0
M  V30 9832 H 967.678 -0.399771 -4.1528 0
M  V30 9833 H 966.308 0.254845 -3.21792 0
M  V30 9834 H 965.36 -2.16348 -3.12886 0
M  V30 9835 H 966.672 -2.65365 -4.22354 0
M  V30 9836 H 965.826 -1.07405 -5.97117 0
M  V30 9837 H 964.565 -0.481887 -4.85313 0
M  V30 9838 H 963.57 -2.78402 -4.74102 0
M  V30 9839 H 964.795 -3.37413 -5.89346 0
M  V30 9840 H 962.741 -1.20004 -6.4493 0
M  V30 9841 H 962.658 -2.83901 -7.00668 0
M  V30 9842 H 963.926 -1.79962 -7.58442 0
M  V30 9843 N 968.156 1.1691 -1.05688 0
M  V30 9844 C 969.405 1.86629 -0.765022 0
M  V30 9845 C 969.718 1.82223 0.710918 0
M  V30 9846 O 970.924 2.47462 1.11691 0
M  V30 9847 C 969.38 3.34886 -1.3183 0
M  V30 9848 C 968.988 3.47781 -2.82404 0
M  V30 9849 C 970.732 4.099 -1.10372 0
M  V30 9850 C 968.639 4.9009 -3.31008 0
M  V30 9851 H 967.569 0.699082 -0.282491 0
M  V30 9852 H 970.22 1.31989 -1.27481 0
M  V30 9853 H 968.602 3.89094 -0.736312 0
M  V30 9854 H 969.776 3.03765 -3.46502 0
M  V30 9855 H 968.091 2.86193 -3.02461 0
M  V30 9856 H 970.688 5.14894 -1.4418 0
M  V30 9857 H 971.031 4.16279 -0.0417372 0
M  V30 9858 H 971.564 3.61913 -1.65117 0
M  V30 9859 H 968.303 4.88887 -4.36657 0
M  V30 9860 H 967.823 5.34756 -2.71655 0
M  V30 9861 H 969.502 5.58881 -3.25977 0
M  V30 9862 N 969.634 0.838594 1.33437 0
M  V30 9863 C 971.05 0.526347 1.50671 0
M  V30 9864 C 971.25 -0.946387 1.77893 0
M  V30 9865 O 970.306 -1.7302 1.83903 0
M  V30 9866 C 971.619 1.39945 2.6615 0
M  V30 9867 C 973.167 1.3982 2.80035 0
M  V30 9868 C 973.642 2.25614 3.98576 0
M  V30 9869 N 975.133 2.23322 4.0581 0
M  V30 9870 C 975.868 2.86443 4.96727 0
M  V30 9871 N 975.364 3.58616 5.92762 0
M  V30 9872 N 977.157 2.75915 4.89722 0
M  V30 9873 H 969.308 1.79195 1.1403 0
M  V30 9874 H 971.571 0.764491 0.560586 0
M  V30 9875 H 971.277 2.44599 2.52714 0
M  V30 9876 H 971.151 1.07529 3.61548 0
M  V30 9877 H 973.538 0.35937 2.92904 0
M  V30 9878 H 973.619 1.76241 1.85399 0
M  V30 9879 H 973.263 3.29555 3.86466 0
M  V30 9880 H 973.193 1.86533 4.92456 0
M  V30 9881 H 975.684 1.70836 3.37081 0
M  V30 9882 H 975.997 4.03987 6.58798 0
M  V30 9883 H 974.342 3.62724 5.92838 0
M  V30 9884 H 977.533 2.19094 4.13661 0
M  V30 9885 H 977.706 3.25393 5.60378 0
M  V30 9886 N 971.112 -1.45937 0.595003 0
M  V30 9887 C 972.36 -2.01921 0.0851368 0
M  V30 9888 C 972.681 -1.46748 -1.28413 0
M  V30 9889 O 971.951 -0.656873 -1.84559 0
M  V30 9890 H 970.531 -0.746457 0.0284826 0
M  V30 9891 H 973.193 -1.78891 0.773561 0
M  V30 9892 H 972.289 -3.1209 0.0254002 0
M  V30 9893 N 972.59 -0.333456 -1.54032 0
M  V30 9894 C 973.818 0.267813 -2.05159 0
M  V30 9895 C 974.233 1.4501 -1.20903 0
M  V30 9896 O 973.59 1.80888 -0.241994 0
M  V30 9897 C 973.641 0.69268 -3.54802 0
M  V30 9898 O 973.362 -0.442579 -4.35859 0
M  V30 9899 C 974.863 1.35572 -4.2206 0
M  V30 9900 H 972.083 0.0534924 -0.668864 0
M  V30 9901 H 974.627 -0.482515 -1.98726 0
M  V30 9902 H 972.782 1.39297 -3.6149 0
M  V30 9903 H 973.196 -0.105915 -5.24393 0
M  V30 9904 H 974.67 1.60385 -5.28186 0
M  V30 9905 H 975.147 2.30614 -3.73783 0
M  V30 9906 H 975.753 0.697748 -4.19537 0
M  V30 9907 N 974.068 1.57479 -0.061844 0
M  V30 9908 C 975.298 1.97142 0.61794 0
M  V30 9909 C 975.706 0.938533 1.64281 0
M  V30 9910 O 975.049 -0.084385 1.83506 0
M  V30 9911 C 975.111 3.33083 1.35263 0
M  V30 9912 C 974.775 4.54447 0.482372 0
M  V30 9913 C 975.772 5.1927 -0.255954 0
M  V30 9914 C 973.457 5.00623 0.410167 0
M  V30 9915 C 975.451 6.28612 -1.05481 0
M  V30 9916 C 973.138 6.09839 -0.392369 0
M  V30 9917 C 974.136 6.73696 -1.12354 0
M  V30 9918 O 973.824 7.80811 -1.91285 0
M  V30 9919 H 973.556 0.653497 0.172969 0
M  V30 9920 H 976.11 2.05002 -0.127781 0
M  V30 9921 H 974.34 3.21808 2.14421 0
M  V30 9922 H 976.029 3.5742 1.92368 0
M  V30 9923 H 976.795 4.84546 -0.209703 0
M  V30 9924 H 972.674 4.50704 0.968883 0
M  V30 9925 H 976.218 6.78385 -1.62602 0
M  V30 9926 H 972.115 6.43997 -0.44022 0
M  V30 9927 H 972.883 7.9764 -1.83611 0
M  V30 9928 N 975.546 -0.211634 1.56173 0
M  V30 9929 C 976.771 -0.955324 1.84088 0
M  V30 9930 C 977.196 -1.76754 0.643407 0
M  V30 9931 O 976.554 -1.76653 -0.407842 0
M  V30 9932 C 976.602 -1.84063 3.10085 0
M  V30 9933 O 975.706 -2.9373 2.89476 0
M  V30 9934 H 975.047 -0.26996 0.606645 0
M  V30 9935 H 977.577 -0.221947 2.03393 0
M  V30 9936 H 977.587 -2.24852 3.40449 0
M  V30 9937 H 976.262 -1.24373 3.96868 0
M  V30 9938 H 974.839 -2.56816 2.7037 0
M  V30 9939 N 977.024 -1.50153 -0.478725 0
M  V30 9940 C 977.934 -1.71232 -1.60364 0
M  V30 9941 C 978.95 -0.595269 -1.63501 0
M  V30 9942 O 980.126 -0.872683 -1.81511 0
M  V30 9943 C 977.191 -1.79487 -2.96623 0
M  V30 9944 C 976.252 -3.03185 -3.03937 0
M  V30 9945 C 975.485 -3.11036 -4.33696 0
M  V30 9946 O 975.708 -2.2588 -5.23769 0
M  V30 9947 O 974.642 -4.03698 -4.46443 0
M  V30 9948 H 978.468 -2.66575 -1.45505 0
M  V30 9949 H 976.053 -1.34158 -0.65741 0
M  V30 9950 H 977.935 -1.8714 -3.77567 0
M  V30 9951 H 976.61 -0.873264 -3.11698 0
M  V30 9952 H 975.517 -3.01036 -2.22099 0
M  V30 9953 H 976.85 -3.94898 -2.93796 0
M  V30 9954 N 978.502 0.731368 -1.39602 0
M  V30 9955 C 979.918 1.03739 -1.21286 0
M  V30 9956 C 980.118 2.01353 -0.0769875 0
M  V30 9957 O 979.174 2.45978 0.570193 0
M  V30 9958 C 980.487 1.59621 -2.54837 0
M  V30 9959 C 982.035 1.71683 -2.61713 0
M  V30 9960 C 982.51 2.30973 -3.95494 0
M  V30 9961 N 984.001 2.38378 -3.97153 0
M  V30 9962 C 984.736 2.852 -4.97442 0
M  V30 9963 N 984.232 3.31891 -6.08129 0
M  V30 9964 N 986.025 2.84441 -4.84819 0
M  V30 9965 H 978.176 0.0840456 -2.12234 0
M  V30 9966 H 980.439 0.0999038 -0.942721 0
M  V30 9967 H 980.145 0.953608 -3.38525 0
M  V30 9968 H 980.019 2.58375 -2.74813 0
M  V30 9969 H 982.406 2.35064 -1.78406 0
M  V30 9970 H 982.487 0.715714 -2.45583 0
M  V30 9971 H 982.131 1.68219 -4.79234 0
M  V30 9972 H 982.061 3.31769 -4.08946 0
M  V30 9973 H 984.552 2.05382 -3.17217 0
M  V30 9974 H 984.865 3.66138 -6.8056 0
M  V30 9975 H 983.21 3.2989 -6.11717 0
M  V30 9976 H 986.401 2.4729 -3.97448 0
M  V30 9977 H 986.574 3.20616 -5.63124 0
M  V30 9978 N 979.98 1.24838 0.961938 0
M  V30 9979 C 981.205 1.11967 1.7458 0
M  V30 9980 C 981.63 -0.323287 1.85301 0
M  V30 9981 O 980.988 -1.23412 1.32812 0
M  V30 9982 C 981.036 1.77066 3.14134 0
M  V30 9983 O 980.14 1.04534 3.98932 0
M  V30 9984 H 979.481 0.391338 0.536424 0
M  V30 9985 H 982.011 1.65259 1.20626 0
M  V30 9986 H 982.021 1.83056 3.64629 0
M  V30 9987 H 980.696 2.82052 3.05646 0
M  V30 9988 H 979.273 1.06372 3.57407 0
M  V30 9989 N 981.458 -1.16348 1.06306 0
M  V30 9990 C 982.421 -2.18941 0.678053 0
M  V30 9991 C 983.421 -1.58409 -0.276277 0
M  V30 9992 O 984.611 -1.74101 -0.0586435 0
M  V30 9993 C 981.743 -3.409 -0.00228684 0
M  V30 9994 H 982.936 -2.54516 1.58624 0
M  V30 9995 H 980.489 -1.30625 0.858298 0
M  V30 9996 H 981.224 -3.10881 -0.923212 0
M  V30 9997 H 981.009 -3.86089 0.683949 0
M  V30 9998 H 982.499 -4.16806 -0.257374 0
M  V30 9999 N 982.937 -0.845659 -1.3299 0
M  V30 10000 C 984.185 -0.443774 -1.97168 0
M  V30 10001 C 984.506 1.00192 -1.67292 0
M  V30 10002 O 983.776 1.69891 -0.975397 0
M  V30 10003 H 982.356 -0.161111 -0.729419 0
M  V30 10004 H 985.018 -1.08011 -1.62233 0
M  V30 10005 H 984.114 -0.581414 -3.06637 0
M  V30 10006 N 984.415 1.45619 -0.602734 0
M  V30 10007 C 985.645 2.06348 -0.102105 0
M  V30 10008 C 986.053 1.44884 1.21677 0
M  V30 10009 O 985.396 0.555559 1.75098 0
M  V30 10010 C 985.458 3.59309 0.117026 0
M  V30 10011 C 985.122 4.43081 -1.11931 0
M  V30 10012 C 986.119 4.78364 -2.03627 0
M  V30 10013 C 983.804 4.83908 -1.34677 0
M  V30 10014 C 985.798 5.53325 -3.16403 0
M  V30 10015 C 983.485 5.58624 -2.47754 0
M  V30 10016 C 984.483 5.93249 -3.38445 0
M  V30 10017 O 984.171 6.6645 -4.49555 0
M  V30 10018 H 983.903 0.672988 -0.0637478 0
M  V30 10019 H 986.457 1.87928 -0.828983 0
M  V30 10020 H 984.687 3.76111 0.898742 0
M  V30 10021 H 986.376 4.01897 0.568649 0
M  V30 10022 H 987.142 4.47384 -1.87277 0
M  V30 10023 H 983.021 4.56396 -0.649875 0
M  V30 10024 H 986.565 5.80268 -3.87214 0
M  V30 10025 H 982.462 5.89019 -2.64059 0
M  V30 10026 H 983.23 6.84895 -4.48175 0
M  V30 10027 N 985.893 0.34162 1.53853 0
M  V30 10028 C 986.823 -0.508431 2.27897 0
M  V30 10029 C 987.804 -1.10425 1.29384 0
M  V30 10030 O 988.989 -1.126 1.58224 0
M  V30 10031 C 986.119 -1.66048 3.05034 0
M  V30 10032 C 985.073 -1.19309 4.11035 0
M  V30 10033 C 984.399 -2.4335 4.76114 0
M  V30 10034 C 985.699 -0.294952 5.21467 0
M  V30 10035 H 987.393 0.109251 2.99201 0
M  V30 10036 H 984.939 0.0539847 1.43899 0
M  V30 10037 H 986.892 -2.26158 3.5557 0
M  V30 10038 H 985.616 -2.30503 2.31379 0
M  V30 10039 H 984.275 -0.614809 3.61408 0
M  V30 10040 H 983.923 -3.06208 3.99056 0
M  V30 10041 H 983.623 -2.1276 5.47729 0
M  V30 10042 H 985.147 -3.0419 5.29434 0
M  V30 10043 H 986.561 -0.80285 5.67651 0
M  V30 10044 H 984.958 -0.0810221 6.00045 0
M  V30 10045 H 986.028 0.669433 4.80257 0
M  V30 10046 N 987.371 -1.57444 0.0701946 0
M  V30 10047 C 988.648 -1.84826 -0.6402 0
M  V30 10048 C 989.028 -0.962344 -1.87889 0
M  V30 10049 O 988.376 -0.0282209 -2.28483 0
M  V30 10050 C 988.586 -3.34976 -0.979382 0
M  V30 10051 C 989.934 -4.02448 -1.35355 0
M  V30 10052 O 990.958 -3.39713 -1.07116 0
M  V30 10053 O 989.817 -5.13096 -1.88136 0
M  V30 10054 H 986.911 -0.763494 -0.317813 0
M  V30 10055 H 989.457 -1.69399 0.101004 0
M  V30 10056 H 988.229 -3.91173 -0.0995576 0
M  V30 10057 H 987.852 -3.5566 -1.7774 0
M  V30 10058 N 988.849 0.203349 -1.56283 0
M  V30 10059 C 990.126 0.950415 -1.70958 0
M  V30 10060 C 990.506 2.01708 -0.622647 0
M  V30 10061 O 989.854 2.25523 0.367635 0
M  V30 10062 C 990.064 1.54434 -3.12971 0
M  V30 10063 C 991.412 2.02964 -3.72949 0
M  V30 10064 O 992.436 1.64293 -3.16048 0
M  V30 10065 O 991.295 2.74097 -4.72793 0
M  V30 10066 H 988.389 0.445154 -0.69697 0
M  V30 10067 H 990.935 0.193695 -1.68591 0
M  V30 10068 H 989.707 0.77505 -3.83547 0
M  V30 10069 H 989.33 2.36611 -3.19532 0
M  V30 10070 N 990.327 1.50405 0.470755 0
M  V30 10071 C 991.573 1.6165 1.22462 0
M  V30 10072 C 991.906 0.316034 1.91611 0
M  V30 10073 O 991.181 -0.682509 1.82132 0
M  V30 10074 C 991.464 2.79702 2.26801 0
M  V30 10075 C 991.317 4.19631 1.61955 0
M  V30 10076 C 992.636 2.93313 3.28109 0
M  V30 10077 H 989.755 0.588345 0.443868 0
M  V30 10078 H 992.397 1.82792 0.518376 0
M  V30 10079 H 990.547 2.61807 2.87036 0
M  V30 10080 H 992.219 4.49117 1.05316 0
M  V30 10081 H 990.462 4.23874 0.922674 0
M  V30 10082 H 991.133 4.98162 2.37779 0
M  V30 10083 H 993.609 3.09697 2.77897 0
M  V30 10084 H 992.485 3.77537 3.98443 0
M  V30 10085 H 992.746 2.03942 3.9225 0
M  V30 10086 N 991.805 -0.723954 1.39988 0
M  V30 10087 C 993.033 -1.51313 1.4111 0
M  V30 10088 C 993.448 -1.88798 0.00853333 0
M  V30 10089 O 992.805 -1.54868 -0.965516 0
M  V30 10090 C 992.856 -2.79375 2.29416 0
M  V30 10091 O 992.577 -2.43478 3.64211 0
M  V30 10092 C 994.078 -3.7333 2.3904 0
M  V30 10093 H 991.298 -0.46724 0.481589 0
M  V30 10094 H 993.842 -0.893694 1.83938 0
M  V30 10095 H 991.997 -3.37624 1.89971 0
M  V30 10096 H 992.411 -3.25821 4.11024 0
M  V30 10097 H 993.885 -4.60051 3.05053 0
M  V30 10098 H 994.362 -4.15854 1.41289 0
M  V30 10099 H 994.968 -3.20996 2.79001 0
M  V30 10100 N 993.283 -1.25346 -0.955304 0
M  V30 10101 C 994.213 -1.08152 -2.06943 0
M  V30 10102 C 995.194 0.00922598 -1.70097 0
M  V30 10103 O 996.379 -0.160181 -1.93538 0
M  V30 10104 C 993.509 -0.698745 -3.40198 0
M  V30 10105 C 992.463 -1.73965 -3.9105 0
M  V30 10106 C 991.789 -1.21158 -5.20792 0
M  V30 10107 C 993.089 -3.13829 -4.17503 0
M  V30 10108 H 994.783 -2.01345 -2.21586 0
M  V30 10109 H 992.329 -0.969459 -1.06478 0
M  V30 10110 H 994.282 -0.565394 -4.1759 0
M  V30 10111 H 993.006 0.268892 -3.25491 0
M  V30 10112 H 991.665 -1.86143 -3.15827 0
M  V30 10113 H 991.313 -0.234193 -5.02455 0
M  V30 10114 H 991.013 -1.90728 -5.55785 0
M  V30 10115 H 992.537 -1.09061 -6.00781 0
M  V30 10116 H 993.951 -3.04809 -4.85556 0
M  V30 10117 H 992.348 -3.80863 -4.63749 0
M  V30 10118 H 993.418 -3.6094 -3.23806 0
M  V30 10119 N 994.761 1.15782 -1.06922 0
M  V30 10120 C 995.724 2.18578 -0.689654 0
M  V30 10121 C 996.724 1.58553 0.267872 0
M  V30 10122 O 997.914 1.7413 0.0494097 0
M  V30 10123 C 995.046 3.40896 -0.0157919 0
M  V30 10124 H 996.239 2.53672 -1.59971 0
M  V30 10125 H 993.792 1.30168 -0.865214 0
M  V30 10126 H 994.527 3.11367 0.906712 0
M  V30 10127 H 994.312 3.85721 -0.704415 0
M  V30 10128 H 995.802 4.16937 0.235266 0
M  V30 10129 N 996.239 0.8527 1.3254 0
M  V30 10130 C 997.464 0.468157 2.02047 0
M  V30 10131 C 997.889 -0.926967 1.63673 0
M  V30 10132 O 997.247 -1.60855 0.836378 0
M  V30 10133 C 997.295 0.612519 3.5536 0
M  V30 10134 O 996.399 -0.355506 4.10865 0
M  V30 10135 H 995.74 0.188401 0.636711 0
M  V30 10136 H 998.27 1.15135 1.6913 0
M  V30 10137 H 998.28 0.499315 4.04933 0
M  V30 10138 H 996.955 1.62988 3.82632 0
M  V30 10139 H 995.532 -0.198703 3.7237 0
M  V30 10140 N 997.718 -1.45297 0.610449 0
M  V30 10141 C 998.681 -2.28995 -0.0968194 0
M  V30 10142 C 999.681 -1.39923 -0.792353 0
M  V30 10143 O 1000.87 -1.62014 -0.64008 0
M  V30 10144 C 998.003 -3.21013 -1.14731 0
M  V30 10145 H 999.196 -2.93012 0.639082 0
M  V30 10146 H 996.749 -1.51867 0.369624 0
M  V30 10147 H 997.484 -2.61803 -1.91388 0
M  V30 10148 H 997.269 -3.86628 -0.652753 0
M  V30 10149 H 998.759 -3.8394 -1.64256 0
M  V30 10150 N 999.196 -0.349774 -1.5367 0
M  V30 10151 C 1000.61 0.00191293 -1.596 0
M  V30 10152 C 1000.81 1.48175 -1.36552 0
M  V30 10153 O 999.868 2.24129 -1.16285 0
M  V30 10154 C 1001.18 -0.439848 -2.97466 0
M  V30 10155 C 1002.73 -0.392721 -3.10526 0
M  V30 10156 C 1003.2 -0.810047 -4.5078 0
M  V30 10157 N 1004.69 -0.764478 -4.56848 0
M  V30 10158 C 1005.43 -1.05927 -5.63531 0
M  V30 10159 N 1004.93 -1.42253 -6.78038 0
M  V30 10160 N 1006.72 -0.983098 -5.53436 0
M  V30 10161 H 998.87 -1.31364 -1.66905 0
M  V30 10162 H 1001.13 -0.535908 -0.781989 0
M  V30 10163 H 1000.84 -1.47189 -3.19419 0
M  V30 10164 H 1000.71 0.181735 -3.76762 0
M  V30 10165 H 1003.1 0.630161 -2.88293 0
M  V30 10166 H 1003.18 -1.04959 -2.33275 0
M  V30 10167 H 1002.82 -1.83097 -4.73749 0
M  V30 10168 H 1002.75 -0.130591 -5.26438 0
M  V30 10169 H 1005.25 -0.496637 -3.74622 0
M  V30 10170 H 1005.56 -1.63215 -7.55368 0
M  V30 10171 H 1003.9 -1.46104 -6.79469 0
M  V30 10172 H 1007.09 -0.698601 -4.62858 0
M  V30 10173 H 1007.27 -1.21618 -6.36485 0
M  V30 10174 N 1000.67 1.57404 -0.0785433 0
M  V30 10175 C 1002.08 1.81118 0.45311 0
M  V30 10176 C 1002.44 0.992963 1.69218 0
M  V30 10177 O 1001.56 0.217448 2.15305 0
M  V30 10178 C 1002.16 3.28506 0.82882 0
M  V30 10179 C 1000.71 3.53042 1.3053 0
M  V30 10180 C 999.862 2.75739 0.29378 0
M  V30 10181 H 1002.81 1.55758 -0.304171 0
M  V30 10182 H 1002.83 3.40924 1.68971 0
M  V30 10183 H 1002.35 3.88031 -0.0731826 0
M  V30 10184 H 1000.45 2.98829 2.22558 0
M  V30 10185 H 1000.56 4.61724 1.27857 0
M  V30 10186 H 998.924 2.42703 0.772477 0
M  V30 10187 H 999.707 3.38005 -0.600613 0
M  V30 10188 N 1002.15 -0.195058 1.56388 0
M  V30 10189 C 1003.4 -0.913636 1.8027 0
M  V30 10190 C 1003.72 -1.83791 0.651606 0
M  V30 10191 O 1002.99 -1.931 -0.330057 0
M  V30 10192 H 1001.57 -0.34036 0.664954 0
M  V30 10193 H 1004.23 -0.200559 1.93865 0
M  V30 10194 H 1003.33 -1.50473 2.7343 0
M  V30 10195 N 1003.63 -1.50653 -0.462772 0
M  V30 10196 C 1005.04 -1.54821 -1.04342 0
M  V30 10197 C 1005.39 -0.356595 -1.92932 0
M  V30 10198 O 1004.52 0.529579 -2.0982 0
M  V30 10199 C 1005.11 -2.80571 -1.89909 0
M  V30 10200 C 1003.67 -2.87394 -2.43067 0
M  V30 10201 C 1002.82 -2.49206 -1.21621 0
M  V30 10202 H 1005.77 -1.56797 -0.245048 0
M  V30 10203 H 1005.79 -2.62897 -2.75074 0
M  V30 10204 H 1005.3 -3.67281 -1.25405 0
M  V30 10205 H 1003.4 -2.05055 -3.111 0
M  V30 10206 H 1003.52 -3.90477 -2.77605 0
M  V30 10207 H 1001.88 -2.01829 -1.55361 0
M  V30 10208 H 1002.66 -3.38233 -0.587669 0
M  V30 10209 N 1005.11 0.71652 -1.4037 0
M  V30 10210 C 1006.36 1.47347 -1.38324 0
M  V30 10211 C 1006.68 1.94995 0.0139949 0
M  V30 10212 O 1005.95 1.7028 0.968585 0
M  V30 10213 H 1004.53 0.546662 -0.509087 0
M  V30 10214 H 1007.19 0.849455 -1.75415 0
M  V30 10215 H 1006.29 2.34675 -2.05752 0
M  V30 10216 N 1006.59 1.25851 0.948643 0
M  V30 10217 C 1007.83 1.11119 1.69648 0
M  V30 10218 C 1008.17 -0.345995 1.91093 0
M  V30 10219 O 1007.44 -1.25467 1.48621 0
M  V30 10220 C 1007.72 1.87261 3.0758 0
M  V30 10221 C 1007.58 3.40842 2.93507 0
M  V30 10222 C 1008.9 1.6605 4.07573 0
M  V30 10223 H 1006.01 0.405052 0.615713 0
M  V30 10224 H 1008.66 1.54756 1.10229 0
M  V30 10225 H 1006.81 1.50172 3.58303 0
M  V30 10226 H 1008.48 3.87641 2.50064 0
M  V30 10227 H 1006.72 3.68248 2.29294 0
M  V30 10228 H 1007.39 3.89339 3.91305 0
M  V30 10229 H 1009.87 1.98348 3.65783 0
M  V30 10230 H 1008.74 2.21753 5.02113 0
M  V30 10231 H 1009.01 0.603256 4.37965 0
M  V30 10232 N 1008.06 -1.15214 1.07534 0
M  V30 10233 C 1009.48 -1.67628 0.822045 0
M  V30 10234 C 1009.83 -1.8503 -0.652571 0
M  V30 10235 O 1008.95 -1.55497 -1.50498 0
M  V30 10236 C 1009.55 -3.04489 1.48566 0
M  V30 10237 C 1008.11 -3.53974 1.27983 0
M  V30 10238 C 1007.25 -2.29656 1.55414 0
M  V30 10239 H 1010.2 -0.994016 1.23713 0
M  V30 10240 H 1010.22 -3.69509 0.907916 0
M  V30 10241 H 1009.74 -2.91792 2.55888 0
M  V30 10242 H 1007.84 -3.71908 0.226906 0
M  V30 10243 H 1007.95 -4.35298 2.0013 0
M  V30 10244 H 1006.31 -2.35289 0.975251 0
M  V30 10245 H 1007.1 -2.19544 2.63923 0
M  V30 10246 N 1009.54 -0.859717 -1.32086 0
M  V30 10247 C 1010.51 -0.313005 -2.27053 0
M  V30 10248 C 1011.51 0.530191 -1.51808 0
M  V30 10249 O 1012.7 0.340972 -1.7083 0
M  V30 10250 C 1009.83 0.5566 -3.36325 0
M  V30 10251 H 1011.02 -1.15125 -2.76923 0
M  V30 10252 H 1008.57 -0.634463 -1.42843 0
M  V30 10253 H 1009.31 1.41645 -2.91731 0
M  V30 10254 H 1009.09 -0.0470197 -3.92072 0
M  V30 10255 H 1010.58 0.931725 -4.07073 0
M  V30 10256 N 1011.02 1.44971 -0.618145 0
M  V30 10257 C 1012.25 2.06527 -0.124165 0
M  V30 10258 C 1012.66 1.46097 1.19588 0
M  V30 10259 O 1012.02 0.57901 1.73071 0
M  V30 10260 C 1012.07 3.61498 0.0106701 0
M  V30 10261 O 1011.79 4.19675 -1.25716 0
M  V30 10262 C 1013.29 4.40061 0.534872 0
M  V30 10263 H 1010.51 0.666941 -0.0736935 0
M  V30 10264 H 1013.06 1.8605 -0.848871 0
M  V30 10265 H 1011.21 3.81282 0.685752 0
M  V30 10266 H 1011.63 5.12972 -1.09362 0
M  V30 10267 H 1013.1 5.48963 0.57827 0
M  V30 10268 H 1013.58 4.10587 1.55931 0
M  V30 10269 H 1014.18 4.25167 -0.10652 0
M  V30 10270 N 1012.5 0.357919 1.53482 0
M  V30 10271 C 1013.74 -0.22712 2.02128 0
M  V30 10272 C 1014.1 -1.47044 1.2408 0
M  V30 10273 O 1013.39 -1.88841 0.323966 0
M  V30 10274 C 1013.59 -0.579617 3.52669 0
M  V30 10275 C 1013.42 0.627992 4.45294 0
M  V30 10276 C 1012.19 1.13772 4.92325 0
M  V30 10277 C 1014.38 1.49087 4.92217 0
M  V30 10278 N 1012.37 2.30615 5.68937 0
M  V30 10279 C 1013.74 2.50604 5.67096 0
M  V30 10280 C 1015.79 1.51464 4.74303 0
M  V30 10281 C 1014.49 3.54346 6.25964 0
M  V30 10282 C 1016.52 2.54095 5.34032 0
M  V30 10283 C 1015.88 3.54337 6.0879 0
M  V30 10284 H 1011.98 -0.0460295 0.780644 0
M  V30 10285 H 1014.57 0.500733 1.88151 0
M  V30 10286 H 1012.74 -1.27656 3.66822 0
M  V30 10287 H 1014.47 -1.14908 3.88044 0
M  V30 10288 H 1011.22 0.703546 4.68345 0
M  V30 10289 H 1011.65 2.8965 6.11909 0
M  V30 10290 H 1016.29 0.753213 4.16037 0
M  V30 10291 H 1014.01 4.31375 6.83331 0
M  V30 10292 H 1017.59 2.56779 5.22069 0
M  V30 10293 H 1016.47 4.32449 6.54184 0
M  V30 10294 N 1013.98 -1.5736 0.0868897 0
M  V30 10295 C 1015.22 -1.94341 -0.579598 0
M  V30 10296 C 1015.56 -0.968238 -1.68341 0
M  V30 10297 O 1014.83 8.29649e-05 -1.945 0
M  V30 10298 C 1015.11 -3.41497 -1.14245 0
M  V30 10299 C 1014.97 -4.49778 -0.044255 0
M  V30 10300 C 1016.29 -3.89788 -2.04336 0
M  V30 10301 H 1013.4 -0.70668 -0.20922 0
M  V30 10302 H 1016.05 -1.89359 0.15593 0
M  V30 10303 H 1014.2 -3.45873 -1.76929 0
M  V30 10304 H 1015.87 -4.57517 0.58959 0
M  V30 10305 H 1014.11 -4.293 0.623207 0
M  V30 10306 H 1014.78 -5.4992 -0.478749 0
M  V30 10307 H 1017.26 -3.87513 -1.51569 0
M  V30 10308 H 1016.13 -4.93335 -2.40648 0
M  V30 10309 H 1016.4 -3.28603 -2.95757 0
M  V30 10310 N 1015.45 0.186762 -1.56489 0
M  V30 10311 C 1016.36 1.25169 -1.98419 0
M  V30 10312 C 1017.38 1.49329 -0.893124 0
M  V30 10313 O 1018.56 1.61781 -1.19954 0
M  V30 10314 C 1015.62 2.57422 -2.32239 0
M  V30 10315 C 1014.68 2.4126 -3.55095 0
M  V30 10316 C 1013.92 3.67206 -3.87292 0
M  V30 10317 O 1014.14 4.71731 -3.20665 0
M  V30 10318 O 1013.07 3.62238 -4.80695 0
M  V30 10319 H 1016.9 0.925834 -2.89244 0
M  V30 10320 H 1014.48 0.392421 -1.44154 0
M  V30 10321 H 1016.37 3.35466 -2.5503 0
M  V30 10322 H 1015.04 2.89618 -1.44579 0
M  V30 10323 H 1013.95 1.61299 -3.37541 0
M  V30 10324 H 1015.28 2.13994 -4.43247 0
M  V30 10325 N 1016.93 1.50896 0.454776 0
M  V30 10326 C 1018.16 1.66759 1.23313 0
M  V30 10327 C 1018.58 0.35722 1.84677 0
M  V30 10328 O 1017.94 -0.680771 1.68033 0
M  V30 10329 C 1017.99 2.77254 2.3057 0
M  V30 10330 O 1017.09 2.39642 3.35627 0
M  V30 10331 H 1016.43 0.556599 0.362068 0
M  V30 10332 H 1018.96 1.97365 0.539274 0
M  V30 10333 H 1018.97 3.0082 2.75629 0
M  V30 10334 H 1017.65 3.72349 1.85281 0
M  V30 10335 H 1016.23 2.26584 2.96165 0
M  V30 10336 N 1018.41 -0.709066 1.40748 0
M  V30 10337 C 1019.65 -1.48139 1.40834 0
M  V30 10338 C 1020.01 -1.91996 0.0117625 0
M  V30 10339 O 1021.22 -2.68564 -0.112524 0
M  V30 10340 C 1019.49 -2.67009 2.37573 0
M  V30 10341 S 1021.05 -3.56331 2.56073 0
M  V30 10342 H 1017.86 -0.506396 0.499084 0
M  V30 10343 H 1020.47 -0.828588 1.77072 0
M  V30 10344 H 1019.17 -2.32971 3.37865 0
M  V30 10345 H 1018.7 -3.37195 2.02641 0
M  V30 10346 H 1020.72 -4.61695 1.81803 0
M  V30 10347 N 1019.89 -1.26353 -0.941956 0
M  V30 10348 C 1021.12 -1.14626 -1.72245 0
M  V30 10349 C 1021.53 0.298588 -1.86424 0
M  V30 10350 O 1020.89 1.2045 -1.37106 0
M  V30 10351 C 1020.94 -1.80933 -3.12963 0
M  V30 10352 O 1020.66 -3.19771 -2.99463 0
M  V30 10353 C 1022.16 -1.7515 -4.07231 0
M  V30 10354 H 1019.38 -0.3992 -0.539333 0
M  V30 10355 H 1021.93 -1.66958 -1.1809 0
M  V30 10356 H 1020.08 -1.32541 -3.64021 0
M  V30 10357 H 1020.5 -3.52571 -3.88322 0
M  V30 10358 H 1021.97 -2.26183 -5.03533 0
M  V30 10359 H 1022.45 -0.717855 -4.33294 0
M  V30 10360 H 1023.05 -2.2309 -3.62093 0
M  V30 10361 N 1021.37 1.14642 -1.08144 0
M  V30 10362 C 1022.61 1.87277 -0.818953 0
M  V30 10363 C 1022.97 1.80896 0.643482 0
M  V30 10364 O 1024.17 2.4864 1.02135 0
M  V30 10365 C 1022.44 3.32006 -1.32314 0
M  V30 10366 S 1024 4.22284 -1.19256 0
M  V30 10367 H 1020.82 0.646204 -0.29655 0
M  V30 10368 H 1023.42 1.38261 -1.38217 0
M  V30 10369 H 1022.13 3.34197 -2.38203 0
M  V30 10370 H 1021.66 3.86078 -0.75548 0
M  V30 10371 H 1023.67 4.96016 -0.135143 0
M  V30 10372 N 1022.85 0.866709 1.31628 0
M  V30 10373 C 1024.26 0.529032 1.79048 0
M  V30 10374 C 1024.61 -0.953871 1.71452 0
M  V30 10375 O 1023.73 -1.74462 1.28031 0
M  V30 10376 C 1024.33 0.953522 3.25105 0
M  V30 10377 C 1022.89 0.667554 3.70433 0
M  V30 10378 C 1022.03 1.14664 2.52483 0
M  V30 10379 H 1024.98 1.05275 1.18756 0
M  V30 10380 H 1025.01 0.274844 3.79506 0
M  V30 10381 H 1024.52 2.03283 3.30602 0
M  V30 10382 H 1022.62 -0.400532 3.70441 0
M  V30 10383 H 1022.73 1.2423 4.62714 0
M  V30 10384 H 1021.1 0.566502 2.4832 0
M  V30 10385 H 1021.88 2.2333 2.60727 0
M  V30 10386 N 1024.32 -1.44642 0.625825 0
M  V30 10387 C 1025.57 -2.02393 0.128391 0
M  V30 10388 C 1025.9 -1.49075 -1.2446 0
M  V30 10389 O 1025.18 -0.672684 -1.82497 0
M  V30 10390 C 1025.46 -3.59934 0.109279 0
M  V30 10391 C 1025.31 -4.23546 1.51423 0
M  V30 10392 C 1026.63 -4.36406 -0.568985 0
M  V30 10393 H 1023.75 -0.735427 0.0481299 0
M  V30 10394 H 1026.39 -1.72277 0.801286 0
M  V30 10395 H 1024.54 -3.85722 -0.463726 0
M  V30 10396 H 1026.22 -4.08882 2.13572 0
M  V30 10397 H 1024.46 -3.81245 2.06966 0
M  V30 10398 H 1025.13 -5.32535 1.45294 0
M  V30 10399 H 1027.61 -4.1602 -0.0817516 0
M  V30 10400 H 1026.48 -5.46122 -0.551527 0
M  V30 10401 H 1026.74 -4.1062 -1.6384 0
M  V30 10402 N 1025.8 -0.366053 -1.5329 0
M  V30 10403 C 1027.05 0.223051 -2.00865 0
M  V30 10404 C 1027.37 1.49244 -1.25504 0
M  V30 10405 O 1026.64 1.92404 -0.368444 0
M  V30 10406 H 1025.22 0.085413 -0.742101 0
M  V30 10407 H 1027.88 -0.492396 -1.88578 0
M  V30 10408 H 1026.98 0.449701 -3.08843 0
M  V30 10409 N 1027.28 1.57312 -0.0952337 0
M  V30 10410 C 1028.51 1.98409 0.575984 0
M  V30 10411 C 1028.92 0.973168 1.62253 0
M  V30 10412 O 1028.26 -0.0454416 1.83644 0
M  V30 10413 C 1028.32 3.35877 1.28167 0
M  V30 10414 C 1027.99 4.55368 0.385868 0
M  V30 10415 C 1028.98 5.1861 -0.366041 0
M  V30 10416 C 1026.67 5.0138 0.303885 0
M  V30 10417 C 1028.66 6.26233 -1.18791 0
M  V30 10418 C 1026.35 6.0887 -0.521637 0
M  V30 10419 C 1027.35 6.71161 -1.26618 0
M  V30 10420 O 1027.04 7.76577 -2.07804 0
M  V30 10421 H 1026.77 0.657018 0.159068 0
M  V30 10422 H 1029.32 2.04685 -0.171237 0
M  V30 10423 H 1027.55 3.26284 2.07547 0
M  V30 10424 H 1029.24 3.6142 1.84744 0
M  V30 10425 H 1030.01 4.83993 -0.312435 0
M  V30 10426 H 1025.89 4.52657 0.873065 0
M  V30 10427 H 1029.43 6.74784 -1.76955 0
M  V30 10428 H 1025.33 6.42918 -0.576722 0
M  V30 10429 H 1026.09 7.93566 -2.00489 0
M  V30 10430 N 1028.76 -0.17846 1.56586 0
M  V30 10431 C 1030.01 -0.894464 1.81228 0
M  V30 10432 C 1030.33 -1.83089 0.671062 0
M  V30 10433 O 1029.6 -1.93439 -0.309557 0
M  V30 10434 H 1028.18 -0.333288 0.668527 0
M  V30 10435 H 1030.84 -0.179986 1.94067 0
M  V30 10436 H 1029.93 -1.47565 2.75011 0
M  V30 10437 N 1030.24 -1.51135 -0.446768 0
M  V30 10438 C 1031.48 -1.63013 -1.19461 0
M  V30 10439 C 1031.8 -0.344067 -1.91941 0
M  V30 10440 O 1031.07 0.639666 -1.85162 0
M  V30 10441 H 1029.65 -0.600757 -0.443959 0
M  V30 10442 H 1032.32 -1.88024 -0.513137 0
M  V30 10443 H 1031.41 -2.45322 -1.92933 0
M  V30 10444 N 1031.71 0.701592 -1.41122 0
M  V30 10445 C 1032.65 1.8268 -1.38422 0
M  V30 10446 C 1033.66 1.60244 -0.287342 0
M  V30 10447 O 1034.85 1.69859 -0.548658 0
M  V30 10448 C 1031.95 3.19338 -1.13475 0
M  V30 10449 C 1031.12 3.68853 -2.35088 0
M  V30 10450 C 1030.18 4.84163 -2.06089 0
M  V30 10451 O 1029.21 4.9609 -2.79077 0
M  V30 10452 N 1030.41 5.70972 -1.04743 0
M  V30 10453 H 1033.17 1.8549 -2.35401 0
M  V30 10454 H 1030.73 0.883682 -1.35656 0
M  V30 10455 H 1032.73 3.94095 -0.920377 0
M  V30 10456 H 1031.3 3.11589 -0.251152 0
M  V30 10457 H 1030.52 2.8507 -2.72266 0
M  V30 10458 H 1031.8 3.98673 -3.16129 0
M  V30 10459 H 1031.2 5.63961 -0.443221 0
M  V30 10460 H 1029.76 6.45654 -0.892949 0
M  V30 10461 N 1033.19 1.2685 0.935242 0
M  V30 10462 C 1034.44 1.12745 1.68211 0
M  V30 10463 C 1034.77 -0.328128 1.91712 0
M  V30 10464 O 1034.02 -1.25701 1.49993 0
M  V30 10465 C 1034.32 1.8482 3.05903 0
M  V30 10466 C 1033.99 3.347 3.02137 0
M  V30 10467 C 1032.65 3.75583 3.00817 0
M  V30 10468 C 1035 4.30368 2.93995 0
M  V30 10469 C 1032.33 5.10511 2.89129 0
M  V30 10470 C 1034.68 5.65343 2.83848 0
M  V30 10471 C 1033.34 6.0553 2.80874 0
M  V30 10472 H 1032.61 0.412563 0.615527 0
M  V30 10473 H 1035.26 1.57366 1.09124 0
M  V30 10474 H 1033.57 1.32685 3.68649 0
M  V30 10475 H 1035.26 1.71341 3.62551 0
M  V30 10476 H 1031.85 3.02182 3.03947 0
M  V30 10477 H 1036.04 3.9976 2.94118 0
M  V30 10478 H 1031.29 5.40802 2.85208 0
M  V30 10479 H 1035.47 6.39151 2.76512 0
M  V30 10480 H 1033.09 7.10037 2.71573 0
M  V30 10481 N 1034.67 -1.14067 1.0875 0
M  V30 10482 C 1035.91 -1.8684 0.828873 0
M  V30 10483 C 1036.27 -1.81235 -0.633879 0
M  V30 10484 O 1037.48 -2.49178 -1.00815 0
M  V30 10485 C 1035.75 -3.31299 1.34073 0
M  V30 10486 S 1037.31 -4.21645 1.21494 0
M  V30 10487 H 1034.12 -0.644622 0.299972 0
M  V30 10488 H 1036.73 -1.37526 1.38949 0
M  V30 10489 H 1035.43 -3.32929 2.39972 0
M  V30 10490 H 1034.96 -3.85672 0.775944 0
M  V30 10491 H 1036.98 -4.95937 0.161446 0
M  V30 10492 N 1036.15 -0.873678 -1.31166 0
M  V30 10493 C 1037.06 -0.335726 -2.32185 0
M  V30 10494 C 1038.07 0.556259 -1.64869 0
M  V30 10495 O 1039.25 0.452087 -1.9626 0
M  V30 10496 C 1036.32 0.450822 -3.43756 0
M  V30 10497 C 1035.38 -0.469565 -4.26724 0
M  V30 10498 C 1034.61 0.279538 -5.32967 0
M  V30 10499 O 1034.83 1.50715 -5.50128 0
M  V30 10500 O 1033.77 -0.36452 -6.00795 0
M  V30 10501 H 1037.59 -1.17314 -2.80127 0
M  V30 10502 H 1035.18 -0.637163 -1.35132 0
M  V30 10503 H 1037.06 0.896582 -4.11752 0
M  V30 10504 H 1035.73 1.26472 -2.9797 0
M  V30 10505 H 1034.64 -0.963902 -3.61469 0
M  V30 10506 H 1035.97 -1.24916 -4.76085 0
M  V30 10507 N 1037.63 1.44308 -0.633487 0
M  V30 10508 C 1038.56 2.27887 0.119397 0
M  V30 10509 C 1039.54 1.38676 0.848981 0
M  V30 10510 O 1040.72 1.68116 0.85259 0
M  V30 10511 C 1037.85 3.17658 1.17521 0
M  V30 10512 C 1036.89 4.22992 0.54589 0
M  V30 10513 S 1037.73 5.31345 -0.6658 0
M  V30 10514 C 1038.88 6.24684 0.389965 0
M  V30 10515 H 1039.12 2.91394 -0.589638 0
M  V30 10516 H 1036.65 1.48529 -0.421727 0
M  V30 10517 H 1038.61 3.69929 1.77941 0
M  V30 10518 H 1037.27 2.53367 1.85645 0
M  V30 10519 H 1036.46 4.85828 1.34115 0
M  V30 10520 H 1036.06 3.73996 0.0162506 0
M  V30 10521 H 1038.36 6.65645 1.26185 0
M  V30 10522 H 1039.3 7.07809 -0.202878 0
M  V30 10523 H 1039.71 5.59929 0.716922 0
M  V30 10524 N 1039.1 0.374177 1.53094 0
M  V30 10525 C 1040.34 -0.21278 2.03289 0
M  V30 10526 C 1040.71 -1.45291 1.25517 0
M  V30 10527 O 1041.91 -2.11605 1.65761 0
M  V30 10528 C 1040.18 -0.48913 3.54037 0
M  V30 10529 S 1041.74 -1.04853 4.26088 0
M  V30 10530 H 1038.56 -0.0612752 0.708355 0
M  V30 10531 H 1041.16 0.519031 1.88484 0
M  V30 10532 H 1039.86 0.420786 4.08237 0
M  V30 10533 H 1039.39 -1.24978 3.7302 0
M  V30 10534 H 1041.41 -2.33213 4.3798 0
M  V30 10535 N 1040.58 -1.57259 0.103575 0
M  V30 10536 C 1041.51 -2.17509 -0.84923 0
M  V30 10537 C 1042.49 -1.11079 -1.28824 0
M  V30 10538 O 1043.68 -1.39252 -1.35361 0
M  V30 10539 C 1040.81 -2.76221 -2.10522 0
M  V30 10540 C 1039.76 -3.88098 -1.80454 0
M  V30 10541 C 1039.09 -4.33549 -3.12952 0
M  V30 10542 C 1040.39 -5.10909 -1.08486 0
M  V30 10543 H 1042.08 -2.9738 -0.347217 0
M  V30 10544 H 1039.63 -1.43045 -0.165568 0
M  V30 10545 H 1041.58 -3.17024 -2.77621 0
M  V30 10546 H 1040.31 -1.93617 -2.63021 0
M  V30 10547 H 1038.96 -3.47847 -1.15749 0
M  V30 10548 H 1038.61 -3.47825 -3.63355 0
M  V30 10549 H 1038.31 -5.08984 -2.93614 0
M  V30 10550 H 1039.84 -4.76992 -3.81196 0
M  V30 10551 H 1041.25 -5.48828 -1.65711 0
M  V30 10552 H 1039.65 -5.91828 -0.992973 0
M  V30 10553 H 1040.72 -4.84851 -0.0690108 0
M  V30 10554 N 1042.06 0.170153 -1.56679 0
M  V30 10555 C 1043.29 0.90618 -1.86556 0
M  V30 10556 C 1043.71 1.74986 -0.690044 0
M  V30 10557 O 1043.07 1.77672 0.360862 0
M  V30 10558 C 1043.12 1.75777 -3.14857 0
M  V30 10559 O 1042.22 2.85952 -2.97162 0
M  V30 10560 H 1041.56 0.253781 -0.613589 0
M  V30 10561 H 1044.09 0.167943 -2.0391 0
M  V30 10562 H 1044.1 2.15747 -3.46291 0
M  V30 10563 H 1042.78 1.13807 -4.00026 0
M  V30 10564 H 1041.35 2.49557 -2.77084 0
M  V30 10565 N 1043.54 1.5137 0.438746 0
M  V30 10566 C 1044.79 1.63645 1.18595 0
M  V30 10567 C 1045.11 0.354241 1.91755 0
M  V30 10568 O 1044.38 -0.629838 1.85499 0
M  V30 10569 H 1042.96 0.603103 0.440767 0
M  V30 10570 H 1045.62 1.88293 0.503159 0
M  V30 10571 H 1044.72 2.46342 1.9163 0
M  V30 10572 N 1045.02 -0.694098 1.41492 0
M  V30 10573 C 1046.25 -1.48071 1.44078 0
M  V30 10574 C 1046.65 -1.89147 0.0448984 0
M  V30 10575 O 1046 -1.57441 -0.946464 0
M  V30 10576 C 1046.06 -2.77324 2.28761 0
M  V30 10577 C 1045.72 -2.58443 3.76904 0
M  V30 10578 C 1046.72 -2.24294 4.69029 0
M  V30 10579 C 1044.41 -2.74037 4.20962 0
M  V30 10580 C 1046.4 -2.0598 6.03201 0
M  V30 10581 C 1044.09 -2.5534 5.55198 0
M  V30 10582 C 1045.08 -2.21362 6.46133 0
M  V30 10583 O 1044.77 -2.02829 7.77892 0
M  V30 10584 H 1044.5 -0.462794 0.492745 0
M  V30 10585 H 1047.06 -0.861968 1.86438 0
M  V30 10586 H 1045.29 -3.4161 1.81217 0
M  V30 10587 H 1046.98 -3.39134 2.23031 0
M  V30 10588 H 1047.74 -2.11859 4.36281 0
M  V30 10589 H 1043.62 -2.99467 3.50486 0
M  V30 10590 H 1047.17 -1.79382 6.74142 0
M  V30 10591 H 1043.06 -2.67366 5.87525 0
M  V30 10592 H 1043.83 -2.17581 7.89051 0
M  V30 10593 N 1046.49 -1.27344 -0.928501 0
M  V30 10594 C 1047.91 -1.04732 -1.2043 0
M  V30 10595 C 1048.11 0.219623 -2.003 0
M  V30 10596 O 1047.17 0.925333 -2.34934 0
M  V30 10597 C 1048.48 -2.28625 -1.95323 0
M  V30 10598 C 1050.03 -2.33655 -2.08265 0
M  V30 10599 C 1050.5 -3.57275 -2.86563 0
M  V30 10600 N 1051.99 -3.57828 -2.94132 0
M  V30 10601 C 1052.73 -4.50152 -3.55177 0
M  V30 10602 N 1052.22 -5.52779 -4.17621 0
M  V30 10603 N 1054.02 -4.37777 -3.52573 0
M  V30 10604 H 1046.17 -2.08697 -0.394892 0
M  V30 10605 H 1048.43 -0.91782 -0.2373 0
M  V30 10606 H 1048.14 -3.20845 -1.44054 0
M  V30 10607 H 1048.01 -2.33878 -2.95941 0
M  V30 10608 H 1050.4 -1.41942 -2.58721 0
M  V30 10609 H 1050.48 -2.32406 -1.0687 0
M  V30 10610 H 1050.12 -4.49325 -2.3679 0
M  V30 10611 H 1050.05 -3.55775 -3.88242 0
M  V30 10612 H 1052.54 -2.83607 -2.49751 0
M  V30 10613 H 1052.86 -6.19394 -4.62137 0
M  V30 10614 H 1051.2 -5.56622 -4.16169 0
M  V30 10615 H 1054.39 -3.56811 -3.02991 0
M  V30 10616 H 1054.57 -5.09919 -3.99858 0
M  V30 10617 N 1047.97 1.13488 -1.09353 0
M  V30 10618 C 1049.39 1.36739 -0.823086 0
M  V30 10619 C 1049.59 1.93476 0.562963 0
M  V30 10620 O 1048.64 2.15374 1.31796 0
M  V30 10621 C 1049.96 2.31943 -1.91371 0
M  V30 10622 C 1051.51 2.4556 -1.94085 0
M  V30 10623 C 1051.98 3.44072 -3.02289 0
M  V30 10624 N 1053.47 3.51622 -3.01524 0
M  V30 10625 C 1054.21 4.27724 -3.8189 0
M  V30 10626 N 1053.7 5.06987 -4.72161 0
M  V30 10627 N 1055.5 4.23018 -3.70152 0
M  V30 10628 H 1047.65 0.75012 -1.98713 0
M  V30 10629 H 1049.91 0.392564 -0.862901 0
M  V30 10630 H 1049.62 1.97408 -2.91072 0
M  V30 10631 H 1049.49 3.31952 -1.79131 0
M  V30 10632 H 1051.88 2.79382 -0.950234 0
M  V30 10633 H 1051.96 1.45479 -2.10403 0
M  V30 10634 H 1051.6 3.10981 -4.01564 0
M  V30 10635 H 1051.53 4.43956 -2.83214 0
M  V30 10636 H 1054.02 2.95066 -2.36103 0
M  V30 10637 H 1054.34 5.6236 -5.30067 0
M  V30 10638 H 1052.68 5.06222 -4.76197 0
M  V30 10639 H 1055.87 3.60171 -2.98989 0
M  V30 10640 H 1056.04 4.82075 -4.33022 0
M  V30 10641 N 1049.45 0.880621 1.30701 0
M  V30 10642 C 1050.36 0.348034 2.32004 0
M  V30 10643 C 1051.38 -0.547508 1.65162 0
M  V30 10644 O 1052.55 -0.441673 1.96497 0
M  V30 10645 C 1049.62 -0.432585 3.43991 0
M  V30 10646 C 1048.68 0.492189 4.26469 0
M  V30 10647 C 1047.91 -0.25127 5.33108 0
M  V30 10648 O 1048.14 -1.47795 5.5092 0
M  V30 10649 O 1047.07 0.396376 6.00593 0
M  V30 10650 H 1050.9 1.18798 2.79501 0
M  V30 10651 H 1048.48 0.64432 1.34792 0
M  V30 10652 H 1050.36 -0.874733 4.12221 0
M  V30 10653 H 1049.04 -1.2489 2.98637 0
M  V30 10654 H 1047.94 0.983058 3.60953 0
M  V30 10655 H 1049.28 1.27439 4.75416 0
M  V30 10656 N 1050.93 -1.4397 0.641131 0
M  V30 10657 C 1052.16 -2.06303 0.157006 0
M  V30 10658 C 1052.57 -1.47981 -1.17248 0
M  V30 10659 O 1051.93 -0.606471 -1.72128 0
M  V30 10660 C 1051.98 -3.6147 0.0468425 0
M  V30 10661 O 1051.7 -4.17622 1.32376 0
M  V30 10662 C 1053.2 -4.40857 -0.464795 0
M  V30 10663 H 1050.42 -0.665684 0.0842946 0
M  V30 10664 H 1052.97 -1.84675 0.878363 0
M  V30 10665 H 1051.12 -3.82325 -0.625006 0
M  V30 10666 H 1051.54 -5.11167 1.17509 0
M  V30 10667 H 1053.01 -5.49813 -0.490862 0
M  V30 10668 H 1053.49 -4.13016 -1.4938 0
M  V30 10669 H 1054.09 -4.24943 0.174146 0
M  V30 10670 N 1052.41 -0.382291 -1.52893 0
M  V30 10671 C 1053.82 0.0932841 -1.86467 0
M  V30 10672 C 1054.17 1.4675 -1.30226 0
M  V30 10673 O 1053.29 2.07001 -0.63084 0
M  V30 10674 C 1053.89 0.176048 -3.38342 0
M  V30 10675 C 1052.45 0.595904 -3.71653 0
M  V30 10676 C 1051.6 -0.246511 -2.76202 0
M  V30 10677 H 1054.55 -0.600443 -1.46903 0
M  V30 10678 H 1054.57 0.996512 -3.67219 0
M  V30 10679 H 1054.08 -0.824264 -3.79246 0
M  V30 10680 H 1052.18 1.60384 -3.36315 0
M  V30 10681 H 1052.29 0.358919 -4.77754 0
M  V30 10682 H 1050.66 0.287162 -2.53076 0
M  V30 10683 H 1051.44 -1.24467 -3.19942 0
M  V30 10684 N 1053.89 1.57202 -0.111913 0
M  V30 10685 C 1054.83 2.16186 0.858286 0
M  V30 10686 C 1055.83 1.10917 1.28039 0
M  V30 10687 O 1057.03 1.29233 1.25295 0
M  V30 10688 H 1053.41 0.691777 0.29487 0
M  V30 10689 H 1055.38 2.96499 0.336265 0
M  V30 10690 C 1054.13 2.77024 2.10127 0
M  V30 10691 H 1053.45 3.5772 1.78539 0
M  V30 10692 H 1054.89 3.21841 2.76033 0
M  V30 10693 C 1053.35 1.73752 2.88638 0
M  V30 10694 O 1053.88 1.18659 3.83774 0
M  V30 10695 N 1052.09 1.43855 2.52496 0
M  V30 10696 H 1051.63 1.88846 1.75199 0
M  V30 10697 H 1051.59 0.749985 3.05324 0
M  V30 10698 N 1055.36 -0.161842 1.56767 0
M  V30 10699 C 1056.29 -1.20226 2.0017 0
M  V30 10700 C 1057.27 -1.4564 0.878807 0
M  V30 10701 O 1058.46 -1.56813 1.14557 0
M  V30 10702 C 1055.59 -2.53897 2.36968 0
M  V30 10703 C 1054.54 -2.43033 3.52305 0
M  V30 10704 C 1053.87 -3.81281 3.74872 0
M  V30 10705 C 1055.17 -1.927 4.85453 0
M  V30 10706 H 1056.86 -0.84142 2.87333 0
M  V30 10707 H 1054.41 -0.403309 1.38237 0
M  V30 10708 H 1056.36 -3.26893 2.6593 0
M  V30 10709 H 1055.09 -2.91787 1.46724 0
M  V30 10710 H 1053.75 -1.7249 3.23485 0
M  V30 10711 H 1053.39 -4.1658 2.81904 0
M  V30 10712 H 1053.09 -3.74877 4.52483 0
M  V30 10713 H 1054.62 -4.55848 4.06245 0
M  V30 10714 H 1056.03 -2.55477 5.13229 0
M  V30 10715 H 1054.43 -1.97222 5.66766 0
M  V30 10716 H 1055.5 -0.881816 4.76814 0
M  V30 10717 N 1056.84 -1.516 -0.430713 0
M  V30 10718 C 1058.09 -1.64271 -1.17726 0
M  V30 10719 C 1058.41 -0.364406 -1.91565 0
M  V30 10720 O 1057.68 0.619991 -1.8583 0
M  V30 10721 H 1056.26 -0.605432 -0.437562 0
M  V30 10722 H 1058.92 -1.88557 -0.493166 0
M  V30 10723 H 1058.02 -2.47355 -1.90321 0
M  V30 10724 N 1058.32 0.686584 -1.41858 0
M  V30 10725 C 1059.73 1.26682 -1.37145 0
M  V30 10726 C 1060.08 1.96112 -0.058922 0
M  V30 10727 O 1059.21 1.99321 0.842629 0
M  V30 10728 C 1059.8 2.30383 -2.48413 0
M  V30 10729 C 1058.36 2.83961 -2.47069 0
M  V30 10730 C 1057.51 1.58119 -2.27802 0
M  V30 10731 H 1060.46 0.480742 -1.51243 0
M  V30 10732 H 1060.48 3.11868 -2.17987 0
M  V30 10733 H 1059.99 1.79822 -3.43927 0
M  V30 10734 H 1058.09 3.38675 -1.55338 0
M  V30 10735 H 1058.21 3.3378 -3.43697 0
M  V30 10736 H 1056.57 1.84258 -1.75844 0
M  V30 10737 H 1057.35 1.09541 -3.25355 0
M  V30 10738 N 1059.8 1.27835 0.921735 0
M  V30 10739 C 1061.03 1.17182 1.70153 0
M  V30 10740 C 1061.44 -0.273207 1.87217 0
M  V30 10741 O 1060.78 -1.19729 1.39322 0
M  V30 10742 C 1060.84 1.78969 3.11786 0
M  V30 10743 C 1060.5 3.28179 3.18037 0
M  V30 10744 C 1061.5 4.24729 2.99835 0
M  V30 10745 C 1059.19 3.68995 3.40805 0
M  V30 10746 C 1061.18 5.60071 3.04301 0
M  V30 10747 C 1058.87 5.04465 3.44904 0
M  V30 10748 C 1059.87 5.99813 3.2667 0
M  V30 10749 O 1059.55 7.32813 3.30515 0
M  V30 10750 H 1059.29 0.408079 0.538932 0
M  V30 10751 H 1061.84 1.69326 1.16266 0
M  V30 10752 H 1060.07 1.2131 3.6718 0
M  V30 10753 H 1061.76 1.62946 3.71757 0
M  V30 10754 H 1062.52 3.94533 2.8208 0
M  V30 10755 H 1058.4 2.9525 3.54045 0
M  V30 10756 H 1061.95 6.34471 2.89987 0
M  V30 10757 H 1057.84 5.34315 3.62185 0
M  V30 10758 H 1058.61 7.41338 3.4693 0
M  V30 10759 N 1061.28 -1.12907 1.09954 0
M  V30 10760 C 1062.5 -1.88679 0.861099 0
M  V30 10761 C 1062.93 -1.78853 -0.582499 0
M  V30 10762 O 1062.28 -1.13992 -1.4098 0
M  V30 10763 C 1062.33 -3.36047 1.30785 0
M  V30 10764 O 1061.44 -4.09716 0.469728 0
M  V30 10765 H 1060.78 -0.586447 0.31141 0
M  V30 10766 H 1063.31 -1.42818 1.46507 0
M  V30 10767 H 1063.32 -3.86882 1.29562 0
M  V30 10768 H 1061.99 -3.42516 2.35914 0
M  V30 10769 H 1060.57 -3.6887 0.54674 0
M  V30 10770 N 1062.75 -0.88754 -1.30232 0
M  V30 10771 C 1064.16 -0.55745 -1.78184 0
M  V30 10772 C 1064.52 0.926474 -1.72948 0
M  V30 10773 O 1063.64 1.72403 -1.3079 0
M  V30 10774 C 1064.24 -1.00512 -3.23547 0
M  V30 10775 C 1062.79 -0.726402 -3.69324 0
M  V30 10776 C 1061.94 -1.18666 -2.50627 0
M  V30 10777 H 1064.89 -1.07151 -1.17066 0
M  V30 10778 H 1064.91 -0.335185 -3.79021 0
M  V30 10779 H 1064.43 -2.08517 -3.27326 0
M  V30 10780 H 1062.53 0.341548 -3.71031 0
M  V30 10781 H 1062.64 -1.31575 -4.60679 0
M  V30 10782 H 1061 -0.605936 -2.47387 0
M  V30 10783 H 1061.79 -2.2745 -2.57141 0
M  V30 10784 N 1064.23 1.43628 -0.648757 0
M  V30 10785 C 1065.47 2.03742 -0.163878 0
M  V30 10786 C 1065.84 1.50047 1.19791 0
M  V30 10787 O 1067.04 2.01777 1.77594 0
M  V30 10788 C 1065.31 3.57001 -0.168849 0
M  V30 10789 S 1066.87 4.38094 0.248835 0
M  V30 10790 H 1063.69 0.70757 -0.0697515 0
M  V30 10791 H 1066.29 1.75759 -0.856094 0
M  V30 10792 H 1064.99 3.93583 -1.16277 0
M  V30 10793 H 1064.52 3.8962 0.544048 0
M  V30 10794 H 1066.54 4.73338 1.48882 0
M  V30 10795 N 1065.71 0.390394 1.52688 0
M  V30 10796 C 1066.96 -0.191729 2.01892 0
M  V30 10797 C 1067.29 -1.4637 1.27631 0
M  V30 10798 O 1066.56 -1.90809 0.377094 0
M  V30 10799 C 1066.85 -0.458535 3.57169 0
M  V30 10800 C 1066.7 0.828796 4.42098 0
M  V30 10801 C 1068.02 -1.2487 4.22014 0
M  V30 10802 H 1065.14 -0.0682091 0.733837 0
M  V30 10803 H 1067.78 0.520176 1.82741 0
M  V30 10804 H 1065.93 -1.06498 3.73618 0
M  V30 10805 H 1067.6 1.46562 4.37398 0
M  V30 10806 H 1065.85 1.44388 4.09066 0
M  V30 10807 H 1066.52 0.596746 5.48765 0
M  V30 10808 H 1068.99 -0.735452 4.09549 0
M  V30 10809 H 1067.87 -1.40412 5.30637 0
M  V30 10810 H 1068.13 -2.2642 3.79719 0
M  V30 10811 N 1067.19 -1.57141 0.120249 0
M  V30 10812 C 1068.12 -2.18398 -0.826112 0
M  V30 10813 C 1069.1 -1.12439 -1.27638 0
M  V30 10814 O 1070.28 -1.40679 -1.33877 0
M  V30 10815 C 1067.41 -2.78438 -2.0758 0
M  V30 10816 C 1066.37 -3.89991 -1.76327 0
M  V30 10817 C 1065.69 -4.36844 -3.08336 0
M  V30 10818 C 1066.99 -5.12031 -1.03062 0
M  V30 10819 H 1068.69 -2.97731 -0.315656 0
M  V30 10820 H 1066.23 -1.43213 -0.150387 0
M  V30 10821 H 1068.19 -3.19951 -2.74243 0
M  V30 10822 H 1066.91 -1.96396 -2.60953 0
M  V30 10823 H 1065.57 -3.49055 -1.12053 0
M  V30 10824 H 1065.22 -3.51659 -3.59646 0
M  V30 10825 H 1064.92 -5.1207 -2.88199 0
M  V30 10826 H 1066.44 -4.81009 -3.76116 0
M  V30 10827 H 1067.86 -5.50555 -1.59881 0
M  V30 10828 H 1066.25 -5.92848 -0.930146 0
M  V30 10829 H 1067.32 -4.84897 -0.017582 0
M  V30 10830 N 1068.67 0.153526 -1.5685 0
M  V30 10831 C 1069.91 0.873522 -1.84794 0
M  V30 10832 C 1070.27 1.78642 -0.703648 0
M  V30 10833 O 1071.47 2.54537 -0.863972 0
M  V30 10834 C 1069.74 1.63316 -3.17904 0
M  V30 10835 S 1071.3 2.39948 -3.67383 0
M  V30 10836 H 1068.12 0.292233 -0.648167 0
M  V30 10837 H 1070.72 0.133949 -1.95041 0
M  V30 10838 H 1069.43 0.95387 -3.99161 0
M  V30 10839 H 1068.96 2.41377 -3.10646 0
M  V30 10840 H 1070.97 3.65011 -3.36127 0
M  V30 10841 N 1070.14 1.51827 0.422667 0
M  V30 10842 C 1071.11 1.7359 1.49663 0
M  V30 10843 C 1072.11 0.605811 1.48952 0
M  V30 10844 O 1073.3 0.87354 1.50715 0
M  V30 10845 C 1070.43 1.80585 2.8914 0
M  V30 10846 H 1071.62 2.69453 1.31664 0
M  V30 10847 H 1069.18 1.42038 0.652298 0
M  V30 10848 H 1069.91 0.865895 3.12526 0
M  V30 10849 H 1069.7 2.62729 2.9106 0
M  V30 10850 H 1071.19 1.99212 3.67021 0
M  V30 10851 N 1071.62 -0.679052 1.4222 0
M  V30 10852 C 1072.86 -1.45118 1.43945 0
M  V30 10853 C 1073.23 -1.91928 0.0524851 0
M  V30 10854 O 1074.43 -2.68743 -0.0555318 0
M  V30 10855 C 1072.7 -2.6191 2.43183 0
M  V30 10856 S 1074.26 -3.50819 2.63574 0
M  V30 10857 H 1071.08 -0.495695 0.509713 0
M  V30 10858 H 1073.68 -0.790842 1.7879 0
M  V30 10859 H 1072.38 -2.25752 3.42731 0
M  V30 10860 H 1071.91 -3.3282 2.09748 0
M  V30 10861 H 1073.93 -4.57735 1.91555 0
M  V30 10862 N 1073.1 -1.28322 -0.914942 0
M  V30 10863 C 1074.05 -1.12003 -2.03858 0
M  V30 10864 C 1075.04 -0.0396287 -1.69354 0
M  V30 10865 O 1076.25 -0.198309 -1.78904 0
M  V30 10866 H 1072.62 -0.34552 -0.667922 0
M  V30 10867 H 1074.59 -2.07168 -2.14765 0
M  V30 10868 C 1073.34 -0.797402 -3.38433 0
M  V30 10869 H 1072.67 -1.62071 -3.65476 0
M  V30 10870 H 1074.11 -0.723165 -4.17787 0
M  V30 10871 C 1072.57 0.498807 -3.33187 0
M  V30 10872 O 1073.1 1.52946 -3.71444 0
M  V30 10873 N 1071.3 0.499101 -2.86282 0
M  V30 10874 H 1070.85 -0.340056 -2.55346 0
M  V30 10875 H 1070.81 1.36641 -2.83155 0
M  V30 10876 N 1074.58 1.12322 -1.10551 0
M  V30 10877 C 1075.83 1.83495 -0.846998 0
M  V30 10878 C 1076.15 1.8457 0.629205 0
M  V30 10879 O 1075.42 1.30968 1.45686 0
M  V30 10880 H 1074 0.679479 -0.310351 0
M  V30 10881 H 1076.66 1.36004 -1.39602 0
M  V30 10882 H 1075.76 2.87651 -1.21092 0
M  V30 10883 N 1076.06 0.894434 1.2976 0
M  V30 10884 C 1077.01 0.339611 2.25457 0
M  V30 10885 C 1077.99 -0.537326 1.51663 0
M  V30 10886 O 1079.18 -0.380204 1.72868 0
M  V30 10887 C 1076.31 -0.436494 3.40514 0
M  V30 10888 C 1075.4 0.455065 4.21651 0
M  V30 10889 N 1075.79 1.55988 4.81146 0
M  V30 10890 C 1074.09 0.251893 4.45288 0
M  V30 10891 C 1074.79 2.1117 5.42017 0
M  V30 10892 N 1073.76 1.40541 5.25118 0
M  V30 10893 H 1077.57 1.18365 2.69011 0
M  V30 10894 H 1075.08 0.744895 1.44309 0
M  V30 10895 H 1077.08 -0.850678 4.08129 0
M  V30 10896 H 1075.74 -1.27786 2.98498 0
M  V30 10897 H 1076.75 1.94266 4.80084 0
M  V30 10898 H 1073.42 -0.551536 4.13841 0
M  V30 10899 H 1074.81 3.04 5.99194 0
M  V30 10900 N 1077.53 -1.43282 0.656365 0
M  V30 10901 C 1078.76 -2.06641 0.177245 0
M  V30 10902 C 1079.18 -1.48893 -1.14946 0
M  V30 10903 O 1078.54 -0.600099 -1.7108 0
M  V30 10904 C 1078.59 -3.60453 0.10299 0
M  V30 10905 O 1077.69 -4.01687 -0.933895 0
M  V30 10906 H 1077.04 -0.656978 0.096314 0
M  V30 10907 H 1079.57 -1.83733 0.900178 0
M  V30 10908 H 1079.58 -4.07923 -0.079291 0
M  V30 10909 H 1078.25 -4.01861 1.07147 0
M  V30 10910 H 1076.83 -3.65801 -0.724148 0
M  V30 10911 N 1079.01 -0.398486 -1.52479 0
M  V30 10912 C 1079.92 0.439328 -2.3045 0
M  V30 10913 C 1080.94 1.06322 -1.37738 0
M  V30 10914 O 1082.12 1.06704 -1.7081 0
M  V30 10915 C 1079.18 1.54655 -3.10294 0
M  V30 10916 C 1078.24 0.946824 -4.18729 0
M  V30 10917 C 1077.47 2.00129 -4.94757 0
M  V30 10918 O 1077.7 3.2178 -4.70971 0
M  V30 10919 O 1076.63 1.61345 -5.79872 0
M  V30 10920 H 1080.46 -0.196118 -3.03066 0
M  V30 10921 H 1078.04 -0.161961 -1.4852 0
M  V30 10922 H 1079.92 2.18958 -3.60049 0
M  V30 10923 H 1078.6 2.1668 -2.40482 0
M  V30 10924 H 1077.51 0.266802 -3.73147 0
M  V30 10925 H 1078.84 0.370664 -4.90802 0
M  V30 10926 N 1080.49 1.57075 -0.12858 0
M  V30 10927 C 1081.72 1.99876 0.534544 0
M  V30 10928 C 1082.13 1.00843 1.59612 0
M  V30 10929 O 1081.49 0.00268947 1.825 0
M  V30 10930 C 1081.54 3.42654 1.15198 0
M  V30 10931 O 1081.26 4.37899 0.132823 0
M  V30 10932 C 1082.76 4.00637 1.8975 0
M  V30 10933 H 1079.98 0.656073 0.140744 0
M  V30 10934 H 1082.53 2.03337 -0.217742 0
M  V30 10935 H 1080.68 3.40101 1.85499 0
M  V30 10936 H 1081.1 5.21253 0.582682 0
M  V30 10937 H 1082.57 5.02592 2.28266 0
M  V30 10938 H 1083.05 3.40313 2.7764 0
M  V30 10939 H 1083.65 4.06764 1.2419 0
M  V30 10940 N 1081.97 -0.145205 1.5693 0
M  V30 10941 C 1083.21 -0.863709 1.85255 0
M  V30 10942 C 1083.57 -1.78266 0.713112 0
M  V30 10943 O 1084.77 -2.54075 0.877459 0
M  V30 10944 C 1083.05 -1.61628 3.18765 0
M  V30 10945 S 1084.6 -2.37996 3.68651 0
M  V30 10946 H 1081.42 -0.288792 0.649708 0
M  V30 10947 H 1084.02 -0.123603 1.95109 0
M  V30 10948 H 1082.73 -0.932688 3.99661 0
M  V30 10949 H 1082.26 -2.39726 3.11921 0
M  V30 10950 H 1084.27 -3.63223 3.38058 0
M  V30 10951 N 1083.45 -1.52049 -0.414609 0
M  V30 10952 C 1084.72 -1.56397 -1.17471 0
M  V30 10953 C 1085.1 -0.34171 -2.08316 0
M  V30 10954 O 1084.45 0.6718 -2.18401 0
M  V30 10955 C 1084.66 -2.88983 -1.95678 0
M  V30 10956 C 1086.01 -3.41781 -2.51935 0
M  V30 10957 O 1087.03 -2.90686 -2.05865 0
M  V30 10958 O 1085.89 -4.30989 -3.36022 0
M  V30 10959 H 1082.99 -0.62974 -0.536056 0
M  V30 10960 H 1085.53 -1.64374 -0.421834 0
M  V30 10961 H 1084.31 -3.69392 -1.29094 0
M  V30 10962 H 1083.93 -2.84274 -2.77983 0
M  V30 10963 N 1084.93 0.6715 -1.42579 0
M  V30 10964 C 1086.34 1.2522 -1.38481 0
M  V30 10965 C 1086.69 1.96038 -0.079719 0
M  V30 10966 O 1085.81 2.00203 0.821441 0
M  V30 10967 C 1086.41 2.27736 -2.50842 0
M  V30 10968 C 1084.97 2.81325 -2.50067 0
M  V30 10969 C 1084.11 1.55694 -2.29466 0
M  V30 10970 H 1087.06 0.464673 -1.51745 0
M  V30 10971 H 1087.09 3.09539 -2.21283 0
M  V30 10972 H 1086.6 1.76164 -3.45815 0
M  V30 10973 H 1084.7 3.37008 -1.58922 0
M  V30 10974 H 1084.81 3.30116 -3.47218 0
M  V30 10975 H 1083.18 1.82383 -1.77788 0
M  V30 10976 H 1083.96 1.06084 -3.26498 0
M  V30 10977 N 1086.4 1.28806 0.908124 0
M  V30 10978 C 1087.31 1.15079 2.04436 0
M  V30 10979 C 1088.33 0.076012 1.73834 0
M  V30 10980 O 1089.51 0.286421 1.99353 0
M  V30 10981 C 1086.57 0.819733 3.3687 0
M  V30 10982 C 1085.63 1.97746 3.81045 0
M  V30 10983 C 1084.86 1.66211 5.07158 0
M  V30 10984 O 1085.09 0.579092 5.67453 0
M  V30 10985 O 1084.02 2.5075 5.47182 0
M  V30 10986 H 1087.85 2.10477 2.18937 0
M  V30 10987 H 1085.43 1.08177 1.03044 0
M  V30 10988 H 1087.31 0.649304 4.16368 0
M  V30 10989 H 1085.99 -0.10454 3.23531 0
M  V30 10990 H 1084.9 2.20308 3.02349 0
M  V30 10991 H 1086.23 2.88264 3.98955 0
M  V30 10992 N 1087.88 -1.11734 1.11145 0
M  V30 10993 C 1089.11 -1.87215 0.880811 0
M  V30 10994 C 1089.52 -1.80016 -0.569195 0
M  V30 10995 O 1088.88 -1.17926 -1.39283 0
M  V30 10996 C 1088.93 -3.36146 1.32998 0
M  V30 10997 O 1088.65 -3.43187 2.72313 0
M  V30 10998 C 1090.15 -4.28542 1.1343 0
M  V30 10999 H 1087.37 -0.592123 0.315645 0
M  V30 11000 H 1089.92 -1.41335 1.478 0
M  V30 11001 H 1088.07 -3.79542 0.776308 0
M  V30 11002 H 1088.49 -4.359 2.91705 0
M  V30 11003 H 1089.96 -5.31295 1.49764 0
M  V30 11004 H 1090.44 -4.39138 0.0735859 0
M  V30 11005 H 1091.04 -3.90935 1.67481 0
M  V30 11006 N 1089.36 -0.901303 -1.29284 0
M  V30 11007 C 1090.61 -0.527 -1.95108 0
M  V30 11008 C 1090.93 0.930065 -1.71391 0
M  V30 11009 O 1090.2 1.65601 -1.04658 0
M  V30 11010 H 1088.78 -0.191903 -0.721929 0
M  V30 11011 H 1091.44 -1.14795 -1.57506 0
M  V30 11012 H 1090.54 -0.710945 -3.03895 0
M  V30 11013 N 1090.84 1.42931 -0.663954 0
M  V30 11014 C 1092.08 2.01982 -0.182007 0
M  V30 11015 C 1092.42 1.52323 1.20463 0
M  V30 11016 O 1091.69 0.720834 1.80649 0
M  V30 11017 C 1091.97 3.59518 -0.204671 0
M  V30 11018 C 1091.83 4.19382 -1.62599 0
M  V30 11019 C 1093.15 4.37762 0.45308 0
M  V30 11020 H 1090.27 0.733892 -0.0676115 0
M  V30 11021 H 1092.91 1.70092 -0.84668 0
M  V30 11022 H 1091.06 3.86816 0.361295 0
M  V30 11023 H 1092.73 4.03076 -2.24337 0
M  V30 11024 H 1090.97 3.75623 -2.17001 0
M  V30 11025 H 1091.64 5.28496 -1.59362 0
M  V30 11026 H 1094.12 4.1609 -0.0285774 0
M  V30 11027 H 1093 5.47392 0.406538 0
M  V30 11028 H 1093.26 4.1482 1.52895 0
M  V30 11029 N 1092.32 0.406567 1.52266 0
M  V30 11030 C 1093.56 -0.169611 2.03695 0
M  V30 11031 C 1093.92 -1.42596 1.2857 0
M  V30 11032 O 1095.12 -2.08041 1.70212 0
M  V30 11033 C 1093.39 -0.413924 3.54995 0
M  V30 11034 S 1094.95 -0.957916 4.28217 0
M  V30 11035 H 1091.77 -0.0462362 0.709495 0
M  V30 11036 H 1094.37 0.558895 1.87341 0
M  V30 11037 H 1093.07 0.507285 4.07253 0
M  V30 11038 H 1092.61 -1.17038 3.75587 0
M  V30 11039 H 1094.62 -2.2387 4.42828 0
M  V30 11040 N 1093.79 -1.57004 0.136909 0
M  V30 11041 C 1094.74 -2.17524 -0.823784 0
M  V30 11042 C 1095.74 -1.1294 -1.26258 0
M  V30 11043 O 1096.94 -1.3121 -1.23223 0
M  V30 11044 H 1093.32 -0.696381 -0.283827 0
M  V30 11045 H 1095.29 -2.96997 -0.289052 0
M  V30 11046 C 1094.04 -2.80331 -2.05693 0
M  V30 11047 H 1093.36 -3.60515 -1.72825 0
M  V30 11048 H 1094.8 -3.26192 -2.70878 0
M  V30 11049 C 1093.26 -1.78322 -2.85837 0
M  V30 11050 O 1093.79 -1.2475 -3.81838 0
M  V30 11051 N 1092 -1.47854 -2.50175 0
M  V30 11052 H 1091.54 -1.9161 -1.72173 0
M  V30 11053 H 1091.5 -0.798464 -3.04092 0
M  V30 11054 N 1095.27 0.136881 -1.57004 0
M  V30 11055 C 1096.51 0.853873 -1.8571 0
M  V30 11056 C 1096.88 1.77885 -0.722556 0
M  V30 11057 O 1098.08 2.53606 -0.89092 0
M  V30 11058 C 1096.35 1.59935 -3.19618 0
M  V30 11059 S 1097.91 2.36038 -3.69908 0
M  V30 11060 H 1094.73 0.285342 -0.65123 0
M  V30 11061 H 1097.33 0.113254 -1.95172 0
M  V30 11062 H 1096.03 0.91148 -4.0015 0
M  V30 11063 H 1095.56 2.38069 -3.13188 0
M  V30 11064 H 1097.58 3.61425 -3.3998 0
M  V30 11065 N 1096.75 1.52266 0.40654 0
M  V30 11066 C 1098.17 1.41127 0.745348 0
M  V30 11067 C 1098.37 0.517802 1.94733 0
M  V30 11068 O 1097.42 -0.0154286 2.52495 0
M  V30 11069 C 1098.74 2.83696 0.996859 0
M  V30 11070 C 1100.28 2.93056 1.09942 0
M  V30 11071 C 1100.76 4.36599 1.38367 0
M  V30 11072 N 1102.25 4.39845 1.45226 0
M  V30 11073 C 1102.98 5.47975 1.68852 0
M  V30 11074 N 1102.48 6.66219 1.90065 0
M  V30 11075 N 1104.27 5.35494 1.70888 0
M  V30 11076 H 1096.42 2.08888 -0.384632 0
M  V30 11077 H 1098.69 0.941619 -0.109809 0
M  V30 11078 H 1098.39 3.51208 0.185986 0
M  V30 11079 H 1098.27 3.24895 1.91632 0
M  V30 11080 H 1100.65 2.25723 1.90088 0
M  V30 11081 H 1100.74 2.5531 0.158256 0
M  V30 11082 H 1100.38 5.04492 0.587373 0
M  V30 11083 H 1100.31 4.71883 2.33739 0
M  V30 11084 H 1102.8 3.54611 1.30612 0
M  V30 11085 H 1103.11 7.44408 2.0755 0
M  V30 11086 H 1101.46 6.69279 1.87325 0
M  V30 11087 H 1104.65 4.42093 1.53856 0
M  V30 11088 H 1104.82 6.19837 1.88962 0
M  V30 11089 N 1098.23 -0.663929 1.42933 0
M  V30 11090 C 1099.51 -1.42054 1.34462 0
M  V30 11091 C 1099.89 -2.11096 -0.0127801 0
M  V30 11092 O 1099.23 -2.04027 -1.02884 0
M  V30 11093 C 1099.44 -2.41406 2.5204 0
M  V30 11094 C 1100.79 -3.05726 2.94647 0
M  V30 11095 O 1101.82 -2.51733 2.52009 0
M  V30 11096 O 1100.67 -4.03593 3.68477 0
M  V30 11097 H 1097.77 -0.634149 0.530834 0
M  V30 11098 H 1100.31 -0.691738 1.54962 0
M  V30 11099 H 1099.09 -1.89263 3.42484 0
M  V30 11100 H 1098.71 -3.21752 2.33584 0
M  V30 11101 N 1099.71 -1.29285 -0.901281 0
M  V30 11102 C 1100.65 -1.14159 -2.02659 0
M  V30 11103 C 1101.65 -0.0575887 -1.69302 0
M  V30 11104 O 1102.85 -0.217273 -1.78684 0
M  V30 11105 H 1099.23 -0.352584 -0.66422 0
M  V30 11106 H 1101.2 -2.09434 -2.12555 0
M  V30 11107 C 1099.95 -0.833253 -3.37568 0
M  V30 11108 H 1099.27 -1.65939 -3.63737 0
M  V30 11109 H 1100.71 -0.767436 -4.16997 0
M  V30 11110 C 1099.17 0.46344 -3.33697 0
M  V30 11111 O 1099.7 1.48998 -3.73045 0
M  V30 11112 N 1097.91 0.468709 -2.86795 0
M  V30 11113 H 1097.45 -0.36712 -2.54971 0
M  V30 11114 H 1097.41 1.3363 -2.84588 0
M  V30 11115 N 1101.18 1.11143 -1.11736 0
M  V30 11116 C 1102.41 1.86745 -0.890727 0
M  V30 11117 C 1102.83 1.80315 0.55964 0
M  V30 11118 O 1102.18 1.18663 1.38656 0
M  V30 11119 C 1102.24 3.35436 -1.34779 0
M  V30 11120 O 1101.96 3.41738 -2.74129 0
M  V30 11121 C 1103.46 4.27935 -1.15702 0
M  V30 11122 H 1100.68 0.59044 -0.318781 0
M  V30 11123 H 1103.22 1.40549 -1.48547 0
M  V30 11124 H 1101.38 3.79125 -0.796425 0
M  V30 11125 H 1101.79 4.34347 -2.94012 0
M  V30 11126 H 1103.26 5.30494 -1.52579 0
M  V30 11127 H 1103.74 4.39093 -0.0968735 0
M  V30 11128 H 1104.35 3.90042 -1.69551 0
M  V30 11129 N 1102.66 0.908147 1.28804 0
M  V30 11130 C 1103.63 0.397058 2.25735 0
M  V30 11131 C 1104.63 -0.473483 1.53671 0
M  V30 11132 O 1105.82 -0.277335 1.71978 0
M  V30 11133 C 1102.95 -0.431392 3.38159 0
M  V30 11134 H 1104.14 1.25323 2.72459 0
M  V30 11135 H 1101.69 0.687041 1.4039 0
M  V30 11136 H 1102.43 -1.3072 2.96787 0
M  V30 11137 H 1102.21 0.192502 3.91627 0
M  V30 11138 H 1103.7 -0.78 4.10251 0
M  V30 11139 N 1104.14 -1.42577 0.671525 0
M  V30 11140 C 1105.39 -2.01185 0.192051 0
M  V30 11141 C 1105.71 -1.53349 -1.20454 0
M  V30 11142 O 1104.98 -0.753781 -1.80817 0
M  V30 11143 H 1103.56 -0.743898 0.0680106 0
M  V30 11144 H 1106.22 -1.74539 0.8673 0
M  V30 11145 H 1105.32 -3.11516 0.190796 0
M  V30 11146 N 1105.62 -0.414636 -1.52048 0
M  V30 11147 C 1107.03 0.0537107 -1.86623 0
M  V30 11148 C 1107.38 1.43955 -1.3331 0
M  V30 11149 O 1106.51 2.05616 -0.674606 0
M  V30 11150 C 1107.1 0.104241 -3.3864 0
M  V30 11151 C 1105.66 0.516936 -3.72833 0
M  V30 11152 C 1104.81 -0.305042 -2.75617 0
M  V30 11153 H 1107.76 -0.631469 -1.45596 0
M  V30 11154 H 1107.78 0.918395 -3.6925 0
M  V30 11155 H 1107.29 -0.904523 -3.77412 0
M  V30 11156 H 1105.39 1.53214 -3.39641 0
M  V30 11157 H 1105.5 0.2575 -4.78408 0
M  V30 11158 H 1103.87 0.233416 -2.53628 0
M  V30 11159 H 1104.65 -1.31226 -3.1723 0
M  V30 11160 N 1107.1 1.56929 -0.145233 0
M  V30 11161 C 1108.05 2.13246 0.806846 0
M  V30 11162 C 1109.03 1.05984 1.21063 0
M  V30 11163 O 1110.22 1.32165 1.17734 0
M  V30 11164 C 1107.35 2.75622 2.04663 0
M  V30 11165 C 1106.44 3.90006 1.66603 0
M  V30 11166 N 1106.83 4.95946 0.993545 0
M  V30 11167 C 1105.13 4.0068 1.95886 0
M  V30 11168 C 1105.83 5.76032 0.810087 0
M  V30 11169 N 1104.8 5.26739 1.34339 0
M  V30 11170 H 1108.61 2.92527 0.283806 0
M  V30 11171 H 1106.12 1.62302 0.0563676 0
M  V30 11172 H 1108.12 3.14329 2.73867 0
M  V30 11173 H 1106.78 1.97815 2.57487 0
M  V30 11174 H 1107.79 5.13748 0.654508 0
M  V30 11175 H 1104.46 3.33946 2.50572 0
M  V30 11176 H 1105.85 6.71315 0.280209 0
M  V30 11177 N 1108.58 -0.128553 1.57075 0
M  V30 11178 C 1109.82 -0.844012 1.86161 0
M  V30 11179 C 1110.18 -1.77499 0.73198 0
M  V30 11180 O 1111.38 -2.5313 0.904357 0
M  V30 11181 C 1109.65 -1.58238 3.20462 0
M  V30 11182 S 1111.21 -2.34073 3.71154 0
M  V30 11183 H 1108.03 -0.281884 0.652734 0
M  V30 11184 H 1110.63 -0.102902 1.95229 0
M  V30 11185 H 1109.33 -0.890246 4.00628 0
M  V30 11186 H 1108.87 -2.36404 3.14446 0
M  V30 11187 H 1110.88 -3.59617 3.41892 0
M  V30 11188 N 1110.05 -1.5248 -0.398459 0
M  V30 11189 C 1110.96 -1.79492 -1.51062 0
M  V30 11190 C 1111.98 -0.681101 -1.60116 0
M  V30 11191 O 1113.16 -0.967671 -1.7663 0
M  V30 11192 C 1110.22 -1.94958 -2.86692 0
M  V30 11193 C 1109.28 -3.1887 -2.87438 0
M  V30 11194 C 1108.51 -3.33588 -4.16599 0
M  V30 11195 O 1108.74 -2.53327 -5.11059 0
M  V30 11196 O 1107.67 -4.26795 -4.24416 0
M  V30 11197 H 1111.5 -2.73913 -1.31169 0
M  V30 11198 H 1109.08 -1.37455 -0.585372 0
M  V30 11199 H 1110.96 -2.06891 -3.67116 0
M  V30 11200 H 1109.64 -1.03726 -3.06631 0
M  V30 11201 H 1108.55 -3.12386 -2.0583 0
M  V30 11202 H 1109.88 -4.09917 -2.7245 0
M  V30 11203 N 1111.53 0.65634 -1.43283 0
M  V30 11204 C 1112.48 1.76934 -1.48199 0
M  V30 11205 C 1113.45 1.62748 -0.332023 0
M  V30 11206 O 1114.63 1.83036 -0.538735 0
M  V30 11207 C 1111.77 3.15072 -1.40797 0
M  V30 11208 C 1110.89 3.40414 -2.65974 0
M  V30 11209 C 1110.02 4.68383 -2.50582 0
M  V30 11210 C 1109.06 4.8682 -3.71043 0
M  V30 11211 N 1108.2 6.06043 -3.5448 0
M  V30 11212 H 1113.04 1.72067 -2.43304 0
M  V30 11213 H 1110.57 0.839728 -1.20777 0
M  V30 11214 H 1112.53 3.94925 -1.345 0
M  V30 11215 H 1111.16 3.19017 -0.492754 0
M  V30 11216 H 1110.21 2.54681 -2.82563 0
M  V30 11217 H 1111.53 3.49925 -3.55463 0
M  V30 11218 H 1110.68 5.56357 -2.41975 0
M  V30 11219 H 1109.42 4.61187 -1.58612 0
M  V30 11220 H 1108.42 3.97282 -3.80062 0
M  V30 11221 H 1109.65 4.95847 -4.64017 0
M  V30 11222 H 1107.6 5.99985 -2.65242 0
M  V30 11223 H 1107.51 6.16498 -4.37568 0
M  V30 11224 H 1108.78 6.96647 -3.49719 0
M  V30 11225 N 1113.01 1.29761 0.894412 0
M  V30 11226 C 1114.25 1.19313 1.65963 0
M  V30 11227 C 1114.61 -0.25022 1.90363 0
M  V30 11228 O 1115.81 -0.477779 2.6452 0
M  V30 11229 C 1114.09 1.98934 2.96917 0
M  V30 11230 S 1115.64 2.05079 3.87928 0
M  V30 11231 H 1112.46 0.42535 0.569735 0
M  V30 11232 H 1115.06 1.64116 1.06236 0
M  V30 11233 H 1113.77 3.02932 2.76876 0
M  V30 11234 H 1113.3 1.54756 3.61682 0
M  V30 11235 H 1115.31 1.17131 4.82177 0
M  V30 11236 N 1114.49 -1.10549 1.12324 0
M  V30 11237 C 1115.71 -1.8681 0.900927 0
M  V30 11238 C 1116.14 -1.80049 -0.54443 0
M  V30 11239 O 1115.5 -1.16957 -1.38531 0
M  V30 11240 C 1115.54 -3.33197 1.37883 0
M  V30 11241 O 1114.65 -4.08628 0.556529 0
M  V30 11242 H 1113.99 -0.579709 0.32378 0
M  V30 11243 H 1116.52 -1.39678 1.49503 0
M  V30 11244 H 1116.53 -3.84047 1.37739 0
M  V30 11245 H 1115.2 -3.37435 2.43127 0
M  V30 11246 H 1113.78 -3.67627 0.62486 0
M  V30 11247 N 1115.97 -0.914965 -1.28321 0
M  V30 11248 C 1117.24 -0.46764 -1.89928 0
M  V30 11249 C 1117.62 1.05364 -1.82925 0
M  V30 11250 O 1116.97 1.90223 -1.26599 0
M  V30 11251 C 1117.18 -0.999372 -3.34385 0
M  V30 11252 C 1118.53 -1.0522 -4.11356 0
M  V30 11253 O 1119.55 -0.9481 -3.4335 0
M  V30 11254 O 1118.41 -1.21085 -5.32917 0
M  V30 11255 H 1115.51 -0.148398 -0.813577 0
M  V30 11256 H 1118.05 -1.00583 -1.36679 0
M  V30 11257 H 1116.82 -2.04333 -3.33712 0
M  V30 11258 H 1116.45 -0.442083 -3.95135 0
M  V30 11259 N 1117.44 1.42219 -0.679077 0
M  V30 11260 C 1118.69 2.01081 -0.202718 0
M  V30 11261 C 1119.01 1.53986 1.19639 0
M  V30 11262 O 1118.28 0.763359 1.80415 0
M  V30 11263 H 1116.86 0.743526 -0.0719547 0
M  V30 11264 H 1119.52 1.74077 -0.876544 0
M  V30 11265 H 1118.62 3.11411 -0.207314 0
M  V30 11266 N 1118.92 0.422693 1.51826 0
M  V30 11267 C 1120.15 -0.14753 2.06073 0
M  V30 11268 C 1120.56 -1.38264 1.2915 0
M  V30 11269 O 1119.9 -1.8052 0.340306 0
M  V30 11270 C 1119.96 -0.549558 3.55275 0
M  V30 11271 C 1119.63 0.576704 4.53347 0
M  V30 11272 C 1120.63 1.44442 4.99432 0
M  V30 11273 C 1118.31 0.753264 4.9662 0
M  V30 11274 C 1120.3 2.47352 5.87448 0
M  V30 11275 C 1117.99 1.78566 5.84429 0
M  V30 11276 C 1118.99 2.64419 6.29739 0
M  V30 11277 O 1118.68 3.65888 7.15808 0
M  V30 11278 H 1118.41 -0.0178911 0.675763 0
M  V30 11279 H 1120.96 0.596258 1.96555 0
M  V30 11280 H 1119.19 -1.34583 3.62525 0
M  V30 11281 H 1120.88 -1.04925 3.92104 0
M  V30 11282 H 1121.65 1.31948 4.66706 0
M  V30 11283 H 1117.53 0.0946405 4.60903 0
M  V30 11284 H 1121.07 3.14397 6.22736 0
M  V30 11285 H 1116.97 1.91086 6.16568 0
M  V30 11286 H 1117.74 3.62294 7.33952 0
M  V30 11287 N 1120.4 -1.5685 0.153553 0
M  V30 11288 C 1121.63 -2.0041 -0.501949 0
M  V30 11289 C 1122.04 -1.03272 -1.58529 0
M  V30 11290 O 1121.38 -0.0227479 -1.83686 0
M  V30 11291 C 1121.44 -3.40402 -1.15613 0
M  V30 11292 C 1121.11 -4.56486 -0.216596 0
M  V30 11293 C 1122.1 -5.16894 0.558267 0
M  V30 11294 C 1119.79 -5.02162 -0.117592 0
M  V30 11295 C 1121.78 -6.21392 1.41951 0
M  V30 11296 C 1119.47 -6.06514 0.747255 0
M  V30 11297 C 1120.47 -6.65999 1.51441 0
M  V30 11298 O 1120.16 -7.6833 2.36483 0
M  V30 11299 H 1119.89 -0.66247 -0.134574 0
M  V30 11300 H 1122.44 -2.03908 0.247086 0
M  V30 11301 H 1120.67 -3.33762 -1.95294 0
M  V30 11302 H 1122.36 -3.68028 -1.71202 0
M  V30 11303 H 1123.13 -4.825 0.491851 0
M  V30 11304 H 1119.01 -4.55586 -0.704462 0
M  V30 11305 H 1122.55 -6.67751 2.01877 0
M  V30 11306 H 1118.45 -6.40335 0.81494 0
M  V30 11307 H 1119.21 -7.85578 2.29803 0
M  V30 11308 N 1121.88 0.120221 -1.57141 0
M  V30 11309 C 1123.13 0.826586 -1.84423 0
M  V30 11310 C 1123.45 1.80473 -0.738553 0
M  V30 11311 O 1122.72 1.94454 0.23755 0
M  V30 11312 H 1121.3 0.308246 -0.680436 0
M  V30 11313 H 1123.96 0.107835 -1.94601 0
M  V30 11314 H 1123.05 1.37256 -2.80298 0
M  V30 11315 N 1123.36 1.52689 0.390367 0
M  V30 11316 C 1124.63 1.58246 1.14968 0
M  V30 11317 C 1125.01 0.374808 2.07746 0
M  V30 11318 O 1124.36 -0.636969 2.19442 0
M  V30 11319 C 1124.57 2.92059 1.91056 0
M  V30 11320 C 1125.92 3.45745 2.46466 0
M  V30 11321 O 1126.94 2.93924 2.01214 0
M  V30 11322 O 1125.8 4.3628 3.29122 0
M  V30 11323 H 1122.9 0.638189 0.52597 0
M  V30 11324 H 1125.44 1.65024 0.39563 0
M  V30 11325 H 1124.21 3.71399 1.23201 0
M  V30 11326 H 1123.84 2.8866 2.73425 0
M  V30 11327 N 1124.83 -0.648732 1.43629 0
M  V30 11328 C 1126.06 -1.44117 1.49148 0
M  V30 11329 C 1126.48 -1.87767 0.111952 0
M  V30 11330 O 1125.84 -1.57655 -0.895249 0
M  V30 11331 C 1125.89 -2.64938 2.44623 0
M  V30 11332 O 1124.99 -3.64155 1.93559 0
M  V30 11333 H 1124.34 -0.431933 0.504312 0
M  V30 11334 H 1126.87 -0.793439 1.88589 0
M  V30 11335 H 1126.88 -3.12698 2.62076 0
M  V30 11336 H 1125.55 -2.3251 3.44836 0
M  V30 11337 H 1124.13 -3.23322 1.85789 0
M  V30 11338 N 1126.31 -1.30234 -0.887518 0
M  V30 11339 C 1127.54 -1.21829 -1.67229 0
M  V30 11340 C 1127.96 0.219251 -1.87523 0
M  V30 11341 O 1127.31 1.14526 -1.42091 0
M  V30 11342 C 1127.36 -1.94044 -3.05007 0
M  V30 11343 O 1127.08 -3.32185 -2.85631 0
M  V30 11344 C 1128.59 -1.92265 -3.99436 0
M  V30 11345 H 1125.81 -0.421716 -0.521916 0
M  V30 11346 H 1128.35 -1.71816 -1.10903 0
M  V30 11347 H 1126.5 -1.47861 -3.58072 0
M  V30 11348 H 1126.92 -3.68724 -3.73018 0
M  V30 11349 H 1128.39 -2.47336 -4.93486 0
M  V30 11350 H 1128.87 -0.900984 -4.29859 0
M  V30 11351 H 1129.48 -2.38247 -3.52305 0
M  V30 11352 N 1127.79 1.09952 -1.12909 0
M  V30 11353 C 1128.75 2.14615 -0.804548 0
M  V30 11354 C 1129.75 1.5975 0.18345 0
M  V30 11355 O 1130.94 1.74147 -0.0429623 0
M  V30 11356 C 1128.08 3.40333 -0.196471 0
M  V30 11357 H 1129.27 2.44835 -1.73193 0
M  V30 11358 H 1126.82 1.25399 -0.932997 0
M  V30 11359 H 1127.56 3.15735 0.740388 0
M  V30 11360 H 1127.34 3.81444 -0.907886 0
M  V30 11361 H 1128.83 4.17598 0.0139264 0
M  V30 11362 N 1129.27 0.921757 1.27833 0
M  V30 11363 C 1130.52 0.557974 1.94245 0
M  V30 11364 C 1130.84 -0.90268 1.72849 0
M  V30 11365 O 1130.11 -1.63915 1.07279 0
M  V30 11366 H 1128.69 0.203364 0.718785 0
M  V30 11367 H 1131.35 1.17286 1.5566 0
M  V30 11368 H 1130.45 0.759202 3.02725 0
M  V30 11369 N 1130.75 -1.41857 0.686609 0
M  V30 11370 C 1131.97 -2.05699 0.222561 0
M  V30 11371 C 1132.39 -1.51636 -1.12481 0
M  V30 11372 O 1131.75 -0.660925 -1.70112 0
M  V30 11373 C 1131.8 -3.61138 0.161818 0
M  V30 11374 O 1131.52 -4.13199 1.45596 0
M  V30 11375 C 1133.02 -4.42112 -0.324304 0
M  V30 11376 H 1130.24 -0.662665 0.10543 0
M  V30 11377 H 1132.78 -1.81788 0.936671 0
M  V30 11378 H 1130.94 -3.8412 -0.503056 0
M  V30 11379 H 1131.35 -5.0717 1.33712 0
M  V30 11380 H 1132.83 -5.51097 -0.315694 0
M  V30 11381 H 1133.3 -4.1756 -1.36164 0
M  V30 11382 H 1133.91 -4.24174 0.309251 0
M  V30 11383 N 1132.22 -0.430739 -1.51599 0
M  V30 11384 C 1133.45 0.139197 -2.06932 0
M  V30 11385 C 1133.87 1.3626 -1.29672 0
M  V30 11386 O 1133.23 1.78219 -0.332836 0
M  V30 11387 C 1133.28 0.446593 -3.57824 0
M  V30 11388 O 1132.38 1.53414 -3.82803 0
M  V30 11389 H 1131.73 0.00475812 -0.663983 0
M  V30 11390 H 1134.26 -0.610171 -1.9529 0
M  V30 11391 H 1134.27 0.698972 -4.01968 0
M  V30 11392 H 1132.94 -0.447613 -4.13484 0
M  V30 11393 H 1131.52 1.27224 -3.50526 0
M  V30 11394 N 1133.7 1.56767 -0.161869 0
M  V30 11395 C 1134.93 2.01401 0.49523 0
M  V30 11396 C 1135.35 1.04133 1.56646 0
M  V30 11397 O 1134.71 0.0193747 1.8129 0
M  V30 11398 C 1134.76 3.44695 1.05913 0
M  V30 11399 O 1133.86 3.50475 2.1735 0
M  V30 11400 H 1133.2 0.65314 0.1196 0
M  V30 11401 H 1135.73 2.02903 -0.26298 0
M  V30 11402 H 1135.74 3.83805 1.3841 0
M  V30 11403 H 1134.42 4.14991 0.274749 0
M  V30 11404 H 1133 3.23218 1.85969 0
M  V30 11405 N 1135.18 -0.111886 1.57202 0
M  V30 11406 C 1136.46 -0.849125 1.76208 0
M  V30 11407 C 1136.84 -1.97735 0.73919 0
M  V30 11408 O 1136.19 -2.27283 -0.235523 0
M  V30 11409 C 1136.4 -1.35924 3.21443 0
M  V30 11410 C 1137.74 -1.80874 3.84148 0
M  V30 11411 O 1138.77 -1.45587 3.25089 0
M  V30 11412 O 1137.63 -2.46065 4.87969 0
M  V30 11413 H 1134.72 -0.403761 0.721738 0
M  V30 11414 H 1137.27 -0.0950726 1.69433 0
M  V30 11415 H 1136.04 -0.550113 3.87414 0
M  V30 11416 H 1135.66 -2.17579 3.32784 0
M  V30 11417 N 1136.66 -1.52894 -0.382264 0
M  V30 11418 C 1137.9 -1.69958 -1.1355 0
M  V30 11419 C 1138.26 -0.433602 -1.8704 0
M  V30 11420 O 1139.46 -0.480701 -2.64467 0
M  V30 11421 C 1137.73 -2.90465 -2.08242 0
M  V30 11422 S 1139.29 -3.28151 -2.91311 0
M  V30 11423 H 1136.11 -0.598209 -0.384275 0
M  V30 11424 H 1138.71 -1.90957 -0.418998 0
M  V30 11425 H 1137.42 -3.80819 -1.52987 0
M  V30 11426 H 1136.95 -2.71819 -2.84391 0
M  V30 11427 H 1138.96 -2.78863 -4.10426 0
M  V30 11428 N 1138.14 0.641106 -1.43971 0
M  V30 11429 C 1139.07 1.76645 -1.46046 0
M  V30 11430 C 1140.08 1.58881 -0.355049 0
M  V30 11431 O 1141.27 1.67379 -0.620207 0
M  V30 11432 C 1138.37 3.14237 -1.26918 0
M  V30 11433 C 1137.54 3.5855 -2.50521 0
M  V30 11434 C 1136.6 4.74986 -2.26438 0
M  V30 11435 O 1135.63 4.83807 -2.99866 0
M  V30 11436 N 1136.83 5.66016 -1.28866 0
M  V30 11437 H 1139.6 1.75339 -2.43056 0
M  V30 11438 H 1137.16 0.82535 -1.39282 0
M  V30 11439 H 1139.15 3.89837 -1.0867 0
M  V30 11440 H 1137.72 3.10244 -0.383082 0
M  V30 11441 H 1136.94 2.73265 -2.84112 0
M  V30 11442 H 1138.23 3.84906 -3.32754 0
M  V30 11443 H 1137.63 5.61574 -0.682018 0
M  V30 11444 H 1136.18 6.41286 -1.16599 0
M  V30 11445 N 1139.62 1.30703 0.880598 0
M  V30 11446 C 1141.03 1.17818 1.4483 0
M  V30 11447 C 1141.38 -0.219456 1.94969 0
M  V30 11448 O 1140.5 -1.11646 1.85375 0
M  V30 11449 C 1141.1 2.13275 2.63247 0
M  V30 11450 C 1139.66 2.04356 3.16094 0
M  V30 11451 C 1138.8 2.03108 1.88792 0
M  V30 11452 H 1141.75 1.42909 0.690125 0
M  V30 11453 H 1141.78 1.71615 3.39601 0
M  V30 11454 H 1141.29 3.14988 2.26725 0
M  V30 11455 H 1139.39 1.058 3.57263 0
M  V30 11456 H 1139.5 2.92953 3.79098 0
M  V30 11457 H 1137.87 1.47971 2.07308 0
M  V30 11458 H 1138.65 3.06558 1.54521 0
M  V30 11459 N 1141.09 -1.09351 1.1349 0
M  V30 11460 C 1142.33 -1.83156 0.907372 0
M  V30 11461 C 1142.7 -1.8376 -0.556441 0
M  V30 11462 O 1143.9 -2.5323 -0.90156 0
M  V30 11463 C 1142.17 -3.25315 1.48004 0
M  V30 11464 S 1143.73 -4.16113 1.39268 0
M  V30 11465 H 1140.55 -0.631319 0.327043 0
M  V30 11466 H 1143.15 -1.31509 1.44657 0
M  V30 11467 H 1141.85 -3.22452 2.53876 0
M  V30 11468 H 1141.38 -3.82034 0.938822 0
M  V30 11469 H 1143.4 -4.94806 0.371645 0
M  V30 11470 N 1142.57 -0.928524 -1.27343 0
M  V30 11471 C 1143.98 -0.613856 -1.7632 0
M  V30 11472 C 1144.33 0.870983 -1.75808 0
M  V30 11473 O 1143.46 1.68155 -1.36209 0
M  V30 11474 C 1144.05 -1.10755 -3.20186 0
M  V30 11475 C 1142.61 -0.843532 -3.66826 0
M  V30 11476 C 1141.76 -1.26579 -2.46724 0
M  V30 11477 H 1144.71 -1.10821 -1.13598 0
M  V30 11478 H 1144.73 -0.455598 -3.77763 0
M  V30 11479 H 1144.24 -2.18825 -3.20526 0
M  V30 11480 H 1142.34 0.223334 -3.7193 0
M  V30 11481 H 1142.46 -1.46165 -4.56259 0
M  V30 11482 H 1140.82 -0.684334 -2.45334 0
M  V30 11483 H 1141.6 -2.35516 -2.49774 0
M  V30 11484 N 1144.05 1.41491 -0.694123 0
M  V30 11485 C 1145.29 2.03117 -0.228614 0
M  V30 11486 C 1145.65 1.53782 1.14957 0
M  V30 11487 O 1146.85 2.07325 1.71084 0
M  V30 11488 C 1145.13 3.56283 -0.282341 0
M  V30 11489 S 1146.68 4.38664 0.109333 0
M  V30 11490 H 1143.5 0.704993 -0.092227 0
M  V30 11491 H 1146.1 1.72947 -0.911578 0
M  V30 11492 H 1144.81 3.89685 -1.2874 0
M  V30 11493 H 1144.34 3.91154 0.419818 0
M  V30 11494 H 1146.35 4.77835 1.33747 0
M  V30 11495 N 1145.53 0.438773 1.51369 0
M  V30 11496 C 1146.94 -0.0240139 1.86685 0
M  V30 11497 C 1147.29 -1.41816 1.35583 0
M  V30 11498 O 1146.41 -2.04517 0.707232 0
M  V30 11499 C 1147.01 -0.0503527 3.38763 0
M  V30 11500 C 1145.57 -0.457556 3.73609 0
M  V30 11501 C 1144.72 0.348852 2.75097 0
M  V30 11502 H 1147.67 0.654552 1.44573 0
M  V30 11503 H 1147.69 -0.859534 3.70665 0
M  V30 11504 H 1147.2 0.964451 3.75925 0
M  V30 11505 H 1145.3 -1.47791 3.42036 0
M  V30 11506 H 1145.41 -0.181357 4.78757 0
M  V30 11507 H 1143.78 -0.193037 2.53967 0
M  V30 11508 H 1144.56 1.36256 3.15102 0
M  V30 11509 N 1147.01 -1.56678 0.170181 0
M  V30 11510 C 1148.25 -1.9646 -0.474125 0
M  V30 11511 C 1148.57 -1.05719 -1.63855 0
M  V30 11512 O 1147.84 -0.123316 -1.95511 0
M  V30 11513 H 1146.42 -0.725446 -0.178149 0
M  V30 11514 H 1149.09 -1.93276 0.251099 0
M  V30 11515 H 1148.18 -3.00726 -0.834894 0
M  V30 11516 N 1148.48 0.103547 -1.57259 0
M  V30 11517 C 1149.73 0.806979 -1.8529 0
M  V30 11518 C 1150.05 1.79679 -0.757653 0
M  V30 11519 O 1149.32 1.94695 0.216913 0
M  V30 11520 H 1147.9 0.301012 -0.683667 0
M  V30 11521 H 1150.56 0.0871886 -1.94705 0
M  V30 11522 H 1149.66 1.34275 -2.81738 0
M  V30 11523 N 1149.96 1.53094 0.37415 0
M  V30 11524 C 1151.19 1.73061 1.143 0
M  V30 11525 C 1151.61 0.454611 1.82524 0
M  V30 11526 O 1150.97 -0.590743 1.71406 0
M  V30 11527 C 1151.02 2.89086 2.15549 0
M  V30 11528 O 1150.12 2.57096 3.22452 0
M  V30 11529 H 1149.46 0.575009 0.332055 0
M  V30 11530 H 1151.99 1.99946 0.433897 0
M  V30 11531 H 1152 3.15007 2.59296 0
M  V30 11532 H 1150.68 3.81647 1.65283 0
M  V30 11533 H 1149.25 2.41965 2.83738 0
M  V30 11534 N 1151.44 -0.633461 1.44309 0
M  V30 11535 C 1152.66 -1.42527 1.50668 0
M  V30 11536 C 1153.09 -1.87637 0.131861 0
M  V30 11537 O 1152.45 -1.58595 -0.878477 0
M  V30 11538 C 1152.5 -2.62328 2.47419 0
M  V30 11539 O 1151.6 -3.62081 1.97411 0
M  V30 11540 H 1150.94 -0.426559 0.508864 0
M  V30 11541 H 1153.47 -0.773392 1.8942 0
M  V30 11542 H 1153.48 -3.09901 2.65378 0
M  V30 11543 H 1152.16 -2.2884 3.47283 0
M  V30 11544 H 1150.73 -3.21333 1.89208 0
M  V30 11545 N 1152.92 -1.31168 -0.873655 0
M  V30 11546 C 1154.16 -1.21938 -1.64044 0
M  V30 11547 C 1154.52 0.219903 -1.90737 0
M  V30 11548 O 1155.72 0.435635 -2.65246 0
M  V30 11549 C 1153.99 -2.03633 -2.93715 0
M  V30 11550 S 1155.55 -2.11224 -3.84616 0
M  V30 11551 H 1152.37 -0.43436 -0.562896 0
M  V30 11552 H 1154.97 -1.65786 -1.03612 0
M  V30 11553 H 1153.68 -3.07298 -2.72022 0
M  V30 11554 H 1153.21 -1.6049 -3.59175 0
M  V30 11555 H 1155.22 -1.24787 -4.80253 0
M  V30 11556 N 1154.4 1.08748 -1.14068 0
M  V30 11557 C 1155.36 2.1375 -0.827266 0
M  V30 11558 C 1156.36 1.59936 0.166496 0
M  V30 11559 O 1157.55 1.74092 -0.0614305 0
M  V30 11560 C 1154.68 3.40106 -0.232557 0
M  V30 11561 H 1155.87 2.42985 -1.7578 0
M  V30 11562 H 1153.43 1.24402 -0.946244 0
M  V30 11563 H 1154.16 3.16503 0.706859 0
M  V30 11564 H 1153.95 3.8046 -0.948293 0
M  V30 11565 H 1155.44 4.17589 -0.0303662 0
M  V30 11566 N 1155.87 0.935264 1.26849 0
M  V30 11567 C 1157.12 0.580548 1.94313 0
M  V30 11568 C 1157.45 -0.877205 1.73259 0
M  V30 11569 O 1156.73 -1.62679 1.06611 0
M  V30 11570 C 1157.01 0.916445 3.48243 0
M  V30 11571 C 1156.86 2.42851 3.78607 0
M  V30 11572 C 1158.18 0.427665 4.38017 0
M  V30 11573 H 1155.3 0.21239 0.705733 0
M  V30 11574 H 1157.94 1.16841 1.49827 0
M  V30 11575 H 1156.09 0.416169 3.86265 0
M  V30 11576 H 1157.77 3.00106 3.50335 0
M  V30 11577 H 1156.01 2.8745 3.24892 0
M  V30 11578 H 1156.68 2.61405 4.8618 0
M  V30 11579 H 1159.16 0.856525 4.07189 0
M  V30 11580 H 1158.03 0.691571 5.44526 0
M  V30 11581 H 1158.29 -0.672344 4.36958 0
M  V30 11582 N 1157.35 -1.41121 0.701616 0
M  V30 11583 C 1158.6 -2.01428 0.235495 0
M  V30 11584 C 1158.93 -1.55463 -1.16382 0
M  V30 11585 O 1158.21 -0.768477 -1.78675 0
M  V30 11586 C 1158.49 -3.58849 0.299919 0
M  V30 11587 C 1158.34 -4.14924 1.73661 0
M  V30 11588 C 1159.66 -4.38809 -0.336856 0
M  V30 11589 H 1156.78 -0.731842 0.0870456 0
M  V30 11590 H 1159.42 -1.67787 0.891479 0
M  V30 11591 H 1157.57 -3.87638 -0.258611 0
M  V30 11592 H 1159.24 -3.96987 2.34945 0
M  V30 11593 H 1157.49 -3.69738 2.26884 0
M  V30 11594 H 1158.16 -5.24085 1.73318 0
M  V30 11595 H 1160.63 -4.15868 0.138886 0
M  V30 11596 H 1159.51 -5.48278 -0.261264 0
M  V30 11597 H 1159.77 -4.18728 -1.41843 0
M  V30 11598 N 1158.83 -0.446794 -1.51134 0
M  V30 11599 C 1160.24 0.0141132 -1.86695 0
M  V30 11600 C 1160.59 1.41095 -1.36333 0
M  V30 11601 O 1159.72 2.04139 -0.718068 0
M  V30 11602 C 1160.31 0.0323866 -3.38785 0
M  V30 11603 C 1158.87 0.437737 -3.73846 0
M  V30 11604 C 1158.02 -0.363436 -2.74908 0
M  V30 11605 H 1160.97 -0.66221 -1.44224 0
M  V30 11606 H 1160.99 0.839865 -3.71115 0
M  V30 11607 H 1160.5 -0.984374 -3.75409 0
M  V30 11608 H 1158.6 1.45975 -3.42815 0
M  V30 11609 H 1158.72 0.155964 -4.78846 0
M  V30 11610 H 1157.08 0.179566 -2.54066 0
M  V30 11611 H 1157.86 -1.37925 -3.14375 0
M  V30 11612 N 1160.31 1.56586 -0.178487 0
M  V30 11613 C 1161.26 2.18309 0.74899 0
M  V30 11614 C 1162.23 1.12525 1.22178 0
M  V30 11615 O 1163.41 1.40706 1.28866 0
M  V30 11616 C 1160.55 2.83353 1.9699 0
M  V30 11617 C 1159.66 4.03618 1.54002 0
M  V30 11618 C 1158.8 4.56567 2.71514 0
M  V30 11619 C 1157.84 5.69226 2.25051 0
M  V30 11620 N 1156.97 6.16654 3.35682 0
M  V30 11621 H 1161.81 2.97217 0.21587 0
M  V30 11622 H 1159.35 1.46794 0.0948182 0
M  V30 11623 H 1161.31 3.19226 2.68609 0
M  V30 11624 H 1159.94 2.07037 2.4766 0
M  V30 11625 H 1158.99 3.73518 0.720298 0
M  V30 11626 H 1160.3 4.85148 1.15901 0
M  V30 11627 H 1159.46 4.94659 3.5128 0
M  V30 11628 H 1158.2 3.7411 3.12879 0
M  V30 11629 H 1157.2 5.30679 1.43734 0
M  V30 11630 H 1158.43 6.5349 1.84736 0
M  V30 11631 H 1156.37 5.37124 3.76609 0
M  V30 11632 H 1156.29 6.93192 3.01697 0
M  V30 11633 H 1157.56 6.59397 4.15711 0
M  V30 11634 N 1161.79 -0.095206 1.57312 0
M  V30 11635 C 1163.01 -0.81227 1.90289 0
M  V30 11636 C 1163.43 -1.72287 0.772178 0
M  V30 11637 O 1162.79 -1.80698 -0.255841 0
M  V30 11638 C 1162.84 -1.62572 3.22882 0
M  V30 11639 O 1162.56 -0.75175 4.31602 0
M  V30 11640 C 1164.06 -2.44585 3.6972 0
M  V30 11641 H 1161.28 -0.232256 0.629522 0
M  V30 11642 H 1163.82 -0.0724733 2.04372 0
M  V30 11643 H 1161.98 -2.31803 3.10397 0
M  V30 11644 H 1162.39 -1.31514 5.07744 0
M  V30 11645 H 1163.87 -2.97155 4.65191 0
M  V30 11646 H 1164.34 -3.23044 2.97555 0
M  V30 11647 H 1164.95 -1.80554 3.85072 0
M  V30 11648 N 1163.26 -1.53291 -0.366026 0
M  V30 11649 C 1164.21 -1.79697 -1.44836 0
M  V30 11650 C 1165.18 -0.641321 -1.5322 0
M  V30 11651 O 1166.37 -0.883453 -1.69115 0
M  V30 11652 C 1163.51 -1.99223 -2.81788 0
M  V30 11653 C 1162.62 -3.26938 -2.82375 0
M  V30 11654 C 1161.75 -3.36654 -4.10898 0
M  V30 11655 C 1160.79 -4.58404 -4.05626 0
M  V30 11656 N 1159.93 -4.65275 -5.25798 0
M  V30 11657 H 1164.77 -2.72053 -1.21619 0
M  V30 11658 H 1162.31 -1.34768 -0.589577 0
M  V30 11659 H 1164.27 -2.0853 -3.61346 0
M  V30 11660 H 1162.9 -1.10204 -3.03406 0
M  V30 11661 H 1161.95 -3.26587 -1.95052 0
M  V30 11662 H 1163.26 -4.16573 -2.74351 0
M  V30 11663 H 1162.41 -3.4527 -4.98872 0
M  V30 11664 H 1161.15 -2.45035 -4.21674 0
M  V30 11665 H 1160.16 -4.49888 -3.16039 0
M  V30 11666 H 1161.38 -5.51364 -3.96453 0
M  V30 11667 H 1159.33 -3.76557 -5.3716 0
M  V30 11668 H 1159.25 -5.48814 -5.19942 0
M  V30 11669 H 1160.51 -4.78175 -6.15605 0
M  V30 11670 N 1164.74 0.6258 -1.44643 0
M  V30 11671 C 1165.65 1.76611 -1.5442 0
M  V30 11672 C 1166.67 1.68614 -0.429576 0
M  V30 11673 O 1167.84 1.89296 -0.687686 0
M  V30 11674 C 1164.91 3.13015 -1.49071 0
M  V30 11675 C 1163.97 3.32604 -2.71428 0
M  V30 11676 C 1163.2 4.62501 -2.66325 0
M  V30 11677 O 1163.43 5.43651 -1.72626 0
M  V30 11678 O 1162.36 4.84408 -3.57258 0
M  V30 11679 H 1166.19 1.71315 -2.50769 0
M  V30 11680 H 1163.77 0.787677 -1.26949 0
M  V30 11681 H 1165.65 3.94318 -1.48631 0
M  V30 11682 H 1164.33 3.18842 -0.558686 0
M  V30 11683 H 1163.24 2.50959 -2.77435 0
M  V30 11684 H 1164.57 3.31642 -3.63695 0
M  V30 11685 N 1166.22 1.31629 0.866686 0
M  V30 11686 C 1167.47 1.21683 1.62238 0
M  V30 11687 C 1167.8 -0.223767 1.92907 0
M  V30 11688 O 1167.07 -1.15761 1.563 0
M  V30 11689 C 1167.36 2.06443 2.95048 0
M  V30 11690 C 1167.21 3.58818 2.71237 0
M  V30 11691 C 1168.53 1.91634 3.96187 0
M  V30 11692 H 1165.65 0.443389 0.588707 0
M  V30 11693 H 1168.29 1.61453 1.00164 0
M  V30 11694 H 1166.44 1.72654 3.48027 0
M  V30 11695 H 1168.11 4.0276 2.24905 0
M  V30 11696 H 1166.36 3.82085 2.05411 0
M  V30 11697 H 1167.03 4.13436 3.65752 0
M  V30 11698 H 1169.5 2.21209 3.52428 0
M  V30 11699 H 1168.38 2.53236 4.86993 0
M  V30 11700 H 1168.64 0.880564 4.33242 0
M  V30 11701 N 1167.7 -1.08142 1.14644 0
M  V30 11702 C 1168.95 -1.80849 0.917685 0
M  V30 11703 C 1169.28 -1.86123 -0.554249 0
M  V30 11704 O 1168.55 -1.33907 -1.41065 0
M  V30 11705 C 1168.84 -3.26325 1.52264 0
M  V30 11706 C 1168.69 -3.29244 3.06461 0
M  V30 11707 C 1170.01 -4.23375 1.20175 0
M  V30 11708 H 1167.13 -0.656559 0.334812 0
M  V30 11709 H 1169.77 -1.26595 1.41682 0
M  V30 11710 H 1167.92 -3.72656 1.09817 0
M  V30 11711 H 1169.59 -2.91216 3.57758 0
M  V30 11712 H 1167.83 -2.68438 3.40769 0
M  V30 11713 H 1168.51 -4.31785 3.43897 0
M  V30 11714 H 1170.98 -3.85394 1.56877 0
M  V30 11715 H 1169.86 -5.23472 1.65132 0
M  V30 11716 H 1170.12 -4.41944 0.117474 0
M  V30 11717 N 1169.18 -0.941978 -1.26351 0
M  V30 11718 C 1170.42 -0.597462 -1.95473 0
M  V30 11719 C 1170.78 0.847851 -1.72266 0
M  V30 11720 O 1171.98 1.30134 -2.35199 0
M  V30 11721 C 1170.25 -0.931342 -3.45052 0
M  V30 11722 S 1171.81 -0.697491 -4.33221 0
M  V30 11723 H 1168.63 -0.22003 -0.676097 0
M  V30 11724 H 1171.23 -1.21346 -1.53282 0
M  V30 11725 H 1169.94 -1.98063 -3.59443 0
M  V30 11726 H 1169.47 -0.305095 -3.92215 0
M  V30 11727 H 1171.48 0.437915 -4.94264 0
M  V30 11728 N 1170.66 1.40747 -0.709091 0
M  V30 11729 C 1171.88 2.05319 -0.255258 0
M  V30 11730 C 1172.3 1.53406 1.10054 0
M  V30 11731 O 1171.66 0.687905 1.69039 0
M  V30 11732 C 1171.71 3.60835 -0.219251 0
M  V30 11733 O 1171.43 4.1083 -1.52151 0
M  V30 11734 C 1172.93 4.42572 0.253927 0
M  V30 11735 H 1170.15 0.660904 -0.115959 0
M  V30 11736 H 1172.69 1.80274 -0.965474 0
M  V30 11737 H 1170.85 3.84872 0.441882 0
M  V30 11738 H 1171.26 5.04979 -1.41764 0
M  V30 11739 H 1172.74 5.51529 0.22798 0
M  V30 11740 H 1173.21 4.19673 1.29504 0
M  V30 11741 H 1173.82 4.23629 -0.376694 0
M  V30 11742 N 1172.13 0.454803 1.50895 0
M  V30 11743 C 1173.08 -0.361974 2.29766 0
M  V30 11744 C 1174.08 -1.00519 1.36353 0
M  V30 11745 O 1175.28 -0.938159 1.53618 0
M  V30 11746 H 1171.66 -0.135559 0.739681 0
M  V30 11747 H 1173.63 0.323853 2.96637 0
M  V30 11748 C 1172.38 -1.44078 3.16444 0
M  V30 11749 H 1171.7 -0.955212 3.88221 0
M  V30 11750 H 1173.14 -1.98518 3.74655 0
M  V30 11751 C 1171.6 -2.43374 2.32961 0
M  V30 11752 O 1172.13 -3.48295 2.00133 0
M  V30 11753 N 1170.33 -2.14689 1.95849 0
M  V30 11754 H 1169.88 -1.29392 2.22745 0
M  V30 11755 H 1169.84 -2.81363 1.40292 0
M  V30 11756 N 1173.61 -1.56489 0.186789 0
M  V30 11757 C 1174.85 -1.99239 -0.456427 0
M  V30 11758 C 1175.22 -1.07076 -1.5937 0
M  V30 11759 O 1176.42 -1.39028 -2.30054 0
M  V30 11760 C 1174.69 -3.45553 -0.912587 0
M  V30 11761 S 1176.25 -4.1033 -1.55481 0
M  V30 11762 H 1173.06 -0.695792 -0.146267 0
M  V30 11763 H 1175.67 -1.93369 0.287899 0
M  V30 11764 H 1174.37 -4.10332 -0.0746877 0
M  V30 11765 H 1173.9 -3.55222 -1.69058 0
M  V30 11766 H 1175.92 -4.06653 -2.84338 0
M  V30 11767 N 1175.09 0.086862 -1.5736 0
M  V30 11768 C 1176.5 0.640442 -1.75372 0
M  V30 11769 C 1176.85 1.78693 -0.81014 0
M  V30 11770 O 1175.98 2.16398 0.00940712 0
M  V30 11771 C 1176.57 1.16856 -3.1801 0
M  V30 11772 C 1175.13 1.66813 -3.37417 0
M  V30 11773 C 1174.28 0.58116 -2.71142 0
M  V30 11774 H 1177.23 -0.139249 -1.58088 0
M  V30 11775 H 1177.25 2.03772 -3.21337 0
M  V30 11776 H 1176.76 0.333909 -3.86661 0
M  V30 11777 H 1174.86 2.52652 -2.73858 0
M  V30 11778 H 1174.98 1.75545 -4.45781 0
M  V30 11779 H 1173.34 1.0226 -2.3327 0
M  V30 11780 H 1174.12 -0.243047 -3.42439 0
M  V30 11781 N 1176.57 1.53483 0.357892 0
M  V30 11782 C 1177.8 1.73956 1.12013 0
M  V30 11783 C 1178.21 0.472053 1.82803 0
M  V30 11784 O 1177.57 -0.555499 1.7384 0
M  V30 11785 C 1177.62 2.91015 2.14459 0
M  V30 11786 O 1177.34 4.12862 1.4655 0
M  V30 11787 C 1178.84 3.23423 3.0317 0
M  V30 11788 H 1176.06 0.58161 0.334621 0
M  V30 11789 H 1178.6 2.00256 0.414467 0
M  V30 11790 H 1176.76 2.67087 2.80612 0
M  V30 11791 H 1177.17 4.78468 2.14869 0
M  V30 11792 H 1178.65 4.08717 3.71018 0
M  V30 11793 H 1179.12 2.39114 3.68404 0
M  V30 11794 H 1179.73 3.49305 2.42624 0
M  V30 11795 N 1178.05 -0.61812 1.44973 0
M  V30 11796 C 1179.29 -1.37468 1.48145 0
M  V30 11797 C 1179.61 -1.94628 0.120366 0
M  V30 11798 O 1178.88 -1.76548 -0.848982 0
M  V30 11799 H 1177.46 -0.510293 0.545536 0
M  V30 11800 H 1180.13 -0.726598 1.8085 0
M  V30 11801 H 1179.22 -2.19944 2.2143 0
M  V30 11802 N 1179.52 -1.32087 -0.859693 0
M  V30 11803 C 1180.75 -1.25348 -1.64607 0
M  V30 11804 C 1181.17 0.179425 -1.87945 0
M  V30 11805 O 1180.52 1.11487 -1.44489 0
M  V30 11806 C 1180.57 -2.0047 -3.00822 0
M  V30 11807 O 1180.3 -3.38169 -2.7852 0
M  V30 11808 C 1181.8 -2.00694 -3.95268 0
M  V30 11809 H 1179.02 -0.432692 -0.512854 0
M  V30 11810 H 1181.56 -1.7413 -1.07234 0
M  V30 11811 H 1179.72 -1.55423 -3.54855 0
M  V30 11812 H 1180.13 -3.76553 -3.65113 0
M  V30 11813 H 1181.6 -2.57748 -4.88129 0
M  V30 11814 H 1182.08 -0.99196 -4.27851 0
M  V30 11815 H 1182.69 -2.45666 -3.47172 0
M  V30 11816 N 1181 1.07532 -1.15215 0
M  V30 11817 C 1182.23 1.83817 -0.949687 0
M  V30 11818 C 1182.64 1.82004 0.501991 0
M  V30 11819 O 1182 1.23014 1.34811 0
M  V30 11820 C 1182.05 3.30978 -1.45382 0
M  V30 11821 O 1181.77 3.32844 -2.84863 0
M  V30 11822 C 1183.27 4.24037 -1.29257 0
M  V30 11823 H 1180.49 0.58 -0.337404 0
M  V30 11824 H 1183.04 1.35752 -1.52944 0
M  V30 11825 H 1181.19 3.76399 -0.916638 0
M  V30 11826 H 1181.61 4.24773 -3.07682 0
M  V30 11827 H 1183.08 5.25371 -1.69379 0
M  V30 11828 H 1183.56 4.38563 -0.236519 0
M  V30 11829 H 1184.16 3.8445 -1.81874 0
M  V30 11830 N 1182.48 0.948665 1.2585 0
M  V30 11831 C 1183.73 0.59905 1.93018 0
M  V30 11832 C 1184.05 -0.865813 1.74725 0
M  V30 11833 O 1183.32 -1.61602 1.10732 0
M  V30 11834 H 1181.9 0.218565 0.71431 0
M  V30 11835 H 1184.56 1.20561 1.53137 0
M  V30 11836 H 1183.66 0.823244 3.01047 0
M  V30 11837 N 1183.96 -1.40369 0.716545 0
M  V30 11838 C 1184.91 -2.3071 0.0645944 0
M  V30 11839 C 1185.88 -1.48239 -0.749294 0
M  V30 11840 O 1187.06 -1.76975 -0.713045 0
M  V30 11841 C 1184.2 -3.34456 -0.850478 0
M  V30 11842 C 1183.31 -4.31992 -0.0259594 0
M  V30 11843 C 1182.45 -5.22806 -0.940599 0
M  V30 11844 C 1181.49 -6.12001 -0.110228 0
M  V30 11845 N 1180.62 -6.9523 -0.979796 0
M  V30 11846 H 1185.46 -2.85896 0.840682 0
M  V30 11847 H 1183 -1.40789 0.426258 0
M  V30 11848 H 1184.96 -3.93177 -1.39528 0
M  V30 11849 H 1183.59 -2.8077 -1.59274 0
M  V30 11850 H 1182.64 -3.75045 0.636036 0
M  V30 11851 H 1183.95 -4.94971 0.616883 0
M  V30 11852 H 1183.11 -5.86463 -1.5539 0
M  V30 11853 H 1181.85 -4.60104 -1.61726 0
M  V30 11854 H 1180.85 -5.47373 0.516001 0
M  V30 11855 H 1182.08 -6.76763 0.562944 0
M  V30 11856 H 1180.02 -6.35115 -1.64209 0
M  V30 11857 H 1179.94 -7.54978 -0.393012 0
M  V30 11858 H 1181.21 -7.63335 -1.57924 0
M  V30 11859 N 1185.44 -0.462799 -1.50652 0
M  V30 11860 C 1186.85 -0.11648 -1.59174 0
M  V30 11861 C 1187.05 1.37638 -1.47167 0
M  V30 11862 O 1186.11 2.14886 -1.3259 0
M  V30 11863 C 1187.42 -0.659289 -2.93383 0
M  V30 11864 C 1188.97 -0.62198 -3.06758 0
M  V30 11865 C 1189.44 -1.14219 -4.43529 0
M  V30 11866 N 1190.94 -1.10125 -4.49919 0
M  V30 11867 C 1191.67 -1.47436 -5.54121 0
M  V30 11868 N 1191.17 -1.92156 -6.65618 0
M  V30 11869 N 1192.96 -1.39091 -5.44619 0
M  V30 11870 H 1185.11 -1.43383 -1.56701 0
M  V30 11871 H 1187.37 -0.592438 -0.740082 0
M  V30 11872 H 1187.08 -1.70477 -3.07621 0
M  V30 11873 H 1186.95 -0.0982388 -3.77072 0
M  V30 11874 H 1189.34 0.414576 -2.92173 0
M  V30 11875 H 1189.42 -1.21974 -2.24847 0
M  V30 11876 H 1189.07 -2.17734 -4.58862 0
M  V30 11877 H 1189 -0.52073 -5.24019 0
M  V30 11878 H 1191.49 -0.773154 -3.69906 0
M  V30 11879 H 1191.8 -2.18796 -7.4118 0
M  V30 11880 H 1190.14 -1.96103 -6.6676 0
M  V30 11881 H 1193.34 -1.04001 -4.564 0
M  V30 11882 H 1193.51 -1.68496 -6.2571 0
M  V30 11883 N 1186.91 1.56388 -0.195085 0
M  V30 11884 C 1188.15 1.99478 0.445855 0
M  V30 11885 C 1188.52 1.0792 1.588 0
M  V30 11886 O 1189.72 1.40246 2.29313 0
M  V30 11887 C 1187.99 3.46032 0.894248 0
M  V30 11888 S 1189.55 4.11149 1.53303 0
M  V30 11889 H 1186.37 0.696558 0.142575 0
M  V30 11890 H 1188.97 1.93213 -0.298149 0
M  V30 11891 H 1187.67 4.10366 0.0529258 0
M  V30 11892 H 1187.2 3.56114 1.67172 0
M  V30 11893 H 1189.22 4.08155 2.82177 0
M  V30 11894 N 1188.39 -0.0785156 1.57404 0
M  V30 11895 C 1189.3 -1.11203 2.0657 0
M  V30 11896 C 1190.32 -1.42822 0.993872 0
M  V30 11897 O 1191.49 -1.53133 1.30814 0
M  V30 11898 C 1188.56 -2.40812 2.4942 0
M  V30 11899 C 1187.62 -2.16225 3.70871 0
M  V30 11900 C 1186.85 -3.39654 4.11668 0
M  V30 11901 O 1187.08 -4.48521 3.524 0
M  V30 11902 O 1186.01 -3.28263 5.04507 0
M  V30 11903 H 1189.84 -0.724381 2.94935 0
M  V30 11904 H 1187.42 -0.292184 1.46515 0
M  V30 11905 H 1189.3 -3.17101 2.77534 0
M  V30 11906 H 1187.98 -2.7897 1.64187 0
M  V30 11907 H 1186.89 -1.37663 3.4785 0
M  V30 11908 H 1188.22 -1.82951 4.56935 0
M  V30 11909 N 1189.87 -1.5367 -0.349747 0
M  V30 11910 C 1190.8 -1.84208 -1.43492 0
M  V30 11911 C 1191.78 -0.696725 -1.55177 0
M  V30 11912 O 1192.97 -0.948061 -1.69486 0
M  V30 11913 C 1190.1 -2.04613 -2.80625 0
M  V30 11914 C 1189.05 -3.20419 -2.83753 0
M  V30 11915 C 1188.38 -3.26147 -4.23713 0
M  V30 11916 C 1189.68 -4.58666 -2.49846 0
M  V30 11917 H 1191.37 -2.75087 -1.18185 0
M  V30 11918 H 1188.92 -1.32363 -0.567101 0
M  V30 11919 H 1190.87 -2.2456 -3.56582 0
M  V30 11920 H 1189.59 -1.10459 -3.07354 0
M  V30 11921 H 1188.25 -3.00318 -2.10249 0
M  V30 11922 H 1187.9 -2.29599 -4.47541 0
M  V30 11923 H 1187.6 -4.03963 -4.26717 0
M  V30 11924 H 1189.12 -3.48296 -5.0152 0
M  V30 11925 H 1190.54 -4.78668 -3.15516 0
M  V30 11926 H 1188.94 -5.3884 -2.64144 0
M  V30 11927 H 1190.01 -4.62697 -1.4505 0
M  V30 11928 N 1191.35 0.610423 -1.45298 0
M  V30 11929 C 1192.59 1.38085 -1.50705 0
M  V30 11930 C 1192.95 1.91459 -0.143997 0
M  V30 11931 O 1194.15 2.68702 -0.0727521 0
M  V30 11932 C 1192.42 2.50009 -2.55402 0
M  V30 11933 S 1193.98 3.37844 -2.80012 0
M  V30 11934 H 1190.8 0.470812 -0.532783 0
M  V30 11935 H 1193.4 0.704638 -1.8236 0
M  V30 11936 H 1192.11 2.09143 -3.53111 0
M  V30 11937 H 1191.64 3.22434 -2.25388 0
M  V30 11938 H 1193.65 4.48074 -2.13176 0
M  V30 11939 N 1192.83 1.32541 0.852676 0
M  V30 11940 C 1194.1 1.1383 1.59067 0
M  V30 11941 C 1194.48 -0.300584 2.08949 0
M  V30 11942 O 1193.83 -1.29751 1.88088 0
M  V30 11943 C 1194.04 2.16758 2.73527 0
M  V30 11944 C 1195.39 2.50194 3.43057 0
M  V30 11945 O 1196.41 2.15319 2.83754 0
M  V30 11946 O 1195.27 3.09985 4.50079 0
M  V30 11947 H 1192.37 0.439379 0.700625 0
M  V30 11948 H 1194.91 1.44078 0.896632 0
M  V30 11949 H 1193.68 3.13469 2.34207 0
M  V30 11950 H 1193.31 1.87515 3.50605 0
M  V30 11951 N 1194.3 -1.0692 1.15784 0
M  V30 11952 C 1195.58 -1.76367 0.845825 0
M  V30 11953 C 1195.96 -2.00594 -0.657672 0
M  V30 11954 O 1195.31 -1.62794 -1.60345 0
M  V30 11955 C 1195.52 -3.06913 1.66149 0
M  V30 11956 C 1196.87 -3.81181 1.87046 0
M  V30 11957 O 1197.89 -3.16737 1.62961 0
M  V30 11958 O 1196.75 -4.96936 2.27413 0
M  V30 11959 H 1193.84 -0.766095 0.311493 0
M  V30 11960 H 1196.39 -1.13246 1.26386 0
M  V30 11961 H 1195.16 -2.84924 2.68205 0
M  V30 11962 H 1194.79 -3.77767 1.24007 0
M  V30 11963 N 1195.78 -0.955326 -1.25345 0
M  V30 11964 C 1197.03 -0.609278 -1.92697 0
M  V30 11965 C 1197.35 0.856535 -1.75181 0
M  V30 11966 O 1196.62 1.61013 -1.11587 0
M  V30 11967 H 1195.2 -0.22235 -0.713141 0
M  V30 11968 H 1197.86 -1.21372 -1.52496 0
M  V30 11969 H 1196.96 -0.839198 -3.00606 0
M  V30 11970 N 1197.26 1.39987 -0.723979 0
M  V30 11971 C 1198.49 2.0474 -0.276618 0
M  V30 11972 C 1198.9 1.54675 1.0896 0
M  V30 11973 O 1198.24 0.701956 1.69759 0
M  V30 11974 C 1198.3 3.59009 -0.187912 0
M  V30 11975 C 1197.97 4.32 -1.49079 0
M  V30 11976 C 1198.97 4.59385 -2.43436 0
M  V30 11977 C 1196.65 4.70753 -1.75204 0
M  V30 11978 C 1198.64 5.24519 -3.62159 0
M  V30 11979 C 1196.33 5.35617 -2.94206 0
M  V30 11980 C 1197.33 5.62431 -3.87506 0
M  V30 11981 O 1197.02 6.25952 -5.0442 0
M  V30 11982 H 1196.75 0.665164 -0.120554 0
M  V30 11983 H 1199.3 1.80226 -0.98527 0
M  V30 11984 H 1197.53 3.82375 0.576753 0
M  V30 11985 H 1199.22 4.0527 0.225993 0
M  V30 11986 H 1199.99 4.29902 -2.24519 0
M  V30 11987 H 1195.87 4.49247 -1.03433 0
M  V30 11988 H 1199.41 5.45364 -4.34999 0
M  V30 11989 H 1195.31 5.64521 -3.13029 0
M  V30 11990 H 1196.08 6.44448 -5.04608 0
M  V30 11991 N 1198.74 0.470782 1.50404 0
M  V30 11992 C 1199.99 -0.084316 2.02324 0
M  V30 11993 C 1200.31 -1.39749 1.35279 0
M  V30 11994 O 1199.57 -1.90037 0.467364 0
M  V30 11995 C 1199.87 -0.316419 3.55997 0
M  V30 11996 C 1199.53 0.915017 4.41518 0
M  V30 11997 C 1198.2 1.25265 4.6461 0
M  V30 11998 C 1200.55 1.73494 4.91477 0
M  V30 11999 C 1197.88 2.41027 5.34905 0
M  V30 12000 C 1200.23 2.88384 5.63043 0
M  V30 12001 C 1198.89 3.22562 5.84389 0
M  V30 12002 H 1198.16 -0.0308534 0.740357 0
M  V30 12003 H 1200.81 0.624799 1.81021 0
M  V30 12004 H 1199.11 -1.10778 3.75813 0
M  V30 12005 H 1200.81 -0.759882 3.93734 0
M  V30 12006 H 1197.4 0.641977 4.23765 0
M  V30 12007 H 1201.59 1.48728 4.73491 0
M  V30 12008 H 1196.84 2.67781 5.49639 0
M  V30 12009 H 1201.02 3.52264 6.00735 0
M  V30 12010 H 1198.64 4.1237 6.38635 0
M  V30 12011 N 1200.22 -1.56282 0.203376 0
M  V30 12012 C 1201.47 -1.97421 -0.432346 0
M  V30 12013 C 1201.79 -1.0917 -1.61576 0
M  V30 12014 O 1201.06 -0.164759 -1.95206 0
M  V30 12015 H 1199.64 -0.729062 -0.162721 0
M  V30 12016 H 1202.3 -1.927 0.292039 0
M  V30 12017 H 1201.39 -3.02429 -0.770918 0
M  V30 12018 N 1201.7 0.070167 -1.57444 0
M  V30 12019 C 1202.97 0.802108 -1.78397 0
M  V30 12020 C 1203.35 1.95706 -0.791356 0
M  V30 12021 O 1202.7 2.27827 0.17518 0
M  V30 12022 C 1202.91 1.27354 -3.24934 0
M  V30 12023 C 1204.26 1.70626 -3.88808 0
M  V30 12024 O 1205.28 1.36916 -3.28835 0
M  V30 12025 O 1204.14 2.33041 -4.94322 0
M  V30 12026 H 1201.24 0.384483 -0.73219 0
M  V30 12027 H 1203.78 0.0501168 -1.69626 0
M  V30 12028 H 1202.55 0.447204 -3.88736 0
M  V30 12029 H 1202.18 2.0868 -3.38435 0
M  V30 12030 N 1203.17 1.53854 0.341593 0
M  V30 12031 C 1204.58 1.62623 0.917093 0
M  V30 12032 C 1204.94 0.508781 1.89488 0
M  V30 12033 O 1204.06 -0.361171 2.13365 0
M  V30 12034 C 1204.66 2.94775 1.67012 0
M  V30 12035 C 1203.21 3.058 2.19461 0
M  V30 12036 C 1202.36 2.58082 1.01433 0
M  V30 12037 H 1205.31 1.58248 0.119674 0
M  V30 12038 H 1205.33 2.83924 2.53313 0
M  V30 12039 H 1204.85 3.76085 0.958221 0
M  V30 12040 H 1202.95 2.29128 2.93821 0
M  V30 12041 H 1203.06 4.11302 2.45698 0
M  V30 12042 H 1201.42 2.13537 1.38831 0
M  V30 12043 H 1202.21 3.41833 0.317033 0
M  V30 12044 N 1204.65 -0.602709 1.4562 0
M  V30 12045 C 1205.58 -1.72374 1.5751 0
M  V30 12046 C 1206.56 -1.64669 0.426389 0
M  V30 12047 O 1207.75 -1.82994 0.650143 0
M  V30 12048 C 1204.88 -3.10987 1.5461 0
M  V30 12049 C 1203.83 -3.33507 2.68248 0
M  V30 12050 C 1203.16 -4.72443 2.50403 0
M  V30 12051 C 1204.46 -3.23285 4.10224 0
M  V30 12052 H 1206.15 -1.62679 2.51348 0
M  V30 12053 H 1203.7 -0.781217 1.20967 0
M  V30 12054 H 1205.65 -3.89214 1.61525 0
M  V30 12055 H 1204.37 -3.21533 0.573049 0
M  V30 12056 H 1203.03 -2.57672 2.60769 0
M  V30 12057 H 1202.68 -4.79729 1.51226 0
M  V30 12058 H 1202.38 -4.88466 3.26611 0
M  V30 12059 H 1203.91 -5.52864 2.59179 0
M  V30 12060 H 1205.32 -3.91381 4.1892 0
M  V30 12061 H 1203.72 -3.50837 4.86861 0
M  V30 12062 H 1204.79 -2.20652 4.31788 0
M  V30 12063 N 1206.13 -1.32992 -0.845635 0
M  V30 12064 C 1207.38 -1.2382 -1.59728 0
M  V30 12065 C 1207.7 0.197724 -1.93995 0
M  V30 12066 O 1206.97 1.12477 -1.60392 0
M  V30 12067 H 1205.55 -0.455296 -0.592212 0
M  V30 12068 H 1208.21 -1.66627 -1.01101 0
M  V30 12069 H 1207.31 -1.82717 -2.53023 0
M  V30 12070 N 1207.61 1.06304 -1.1635 0
M  V30 12071 C 1209.02 1.31227 -0.90838 0
M  V30 12072 C 1209.22 1.96665 0.438779 0
M  V30 12073 O 1208.28 2.2332 1.17833 0
M  V30 12074 C 1209.59 2.19303 -2.05734 0
M  V30 12075 C 1211.14 2.3272 -2.09309 0
M  V30 12076 C 1211.62 3.24151 -3.23559 0
M  V30 12077 N 1213.11 3.31734 -3.23275 0
M  V30 12078 C 1213.84 4.02572 -4.08318 0
M  V30 12079 N 1213.34 4.75933 -5.03448 0
M  V30 12080 N 1215.13 3.98621 -3.96305 0
M  V30 12081 H 1207.28 0.622228 -2.03081 0
M  V30 12082 H 1209.54 0.336892 -0.886119 0
M  V30 12083 H 1209.25 1.78497 -3.03037 0
M  V30 12084 H 1209.12 3.19888 -1.99879 0
M  V30 12085 H 1211.51 2.72774 -1.12599 0
M  V30 12086 H 1211.59 1.31804 -2.19229 0
M  V30 12087 H 1211.24 2.84813 -4.20528 0
M  V30 12088 H 1211.17 4.25046 -3.10875 0
M  V30 12089 H 1213.66 2.79453 -2.5439 0
M  V30 12090 H 1213.97 5.27512 -5.64758 0
M  V30 12091 H 1212.32 4.74913 -5.07427 0
M  V30 12092 H 1215.51 3.40427 -3.21289 0
M  V30 12093 H 1215.68 4.5356 -4.62804 0
M  V30 12094 N 1209.09 0.96196 1.24836 0
M  V30 12095 C 1210.03 0.479282 2.27609 0
M  V30 12096 C 1211.03 -0.454224 1.63197 0
M  V30 12097 O 1212.23 -0.330146 1.76946 0
M  V30 12098 H 1208.61 0.13651 0.739506 0
M  V30 12099 H 1210.58 1.35817 2.657 0
M  V30 12100 C 1209.33 -0.220499 3.47 0
M  V30 12101 H 1208.65 0.488694 3.96802 0
M  V30 12102 H 1210.09 -0.522137 4.20773 0
M  V30 12103 C 1208.55 -1.44552 3.04313 0
M  V30 12104 O 1209.08 -2.54287 3.10967 0
M  V30 12105 N 1207.29 -1.3095 2.59423 0
M  V30 12106 H 1206.83 -0.416656 2.54208 0
M  V30 12107 H 1206.79 -2.13029 2.31227 0
M  V30 12108 N 1210.56 -1.39601 0.731392 0
M  V30 12109 C 1211.81 -2.0019 0.277208 0
M  V30 12110 C 1212.13 -1.5832 -1.13841 0
M  V30 12111 O 1211.4 -0.829793 -1.77458 0
M  V30 12112 H 1209.98 -0.740344 0.0995006 0
M  V30 12113 H 1212.64 -1.70704 0.940547 0
M  V30 12114 H 1211.74 -3.10427 0.322749 0
M  V30 12115 N 1212.04 -0.478751 -1.50152 0
M  V30 12116 C 1213.45 -0.0254907 -1.86683 0
M  V30 12117 C 1213.8 1.38171 -1.39295 0
M  V30 12118 O 1212.93 2.0257 -0.761207 0
M  V30 12119 C 1213.52 -0.0394819 -3.38777 0
M  V30 12120 C 1212.08 0.35834 -3.7469 0
M  V30 12121 C 1211.23 -0.421667 -2.74075 0
M  V30 12122 H 1214.18 -0.692653 -1.42787 0
M  V30 12123 H 1214.2 0.760957 -3.72813 0
M  V30 12124 H 1213.71 -1.06378 -3.73236 0
M  V30 12125 H 1211.82 1.38671 -3.45834 0
M  V30 12126 H 1211.93 0.0543589 -4.79069 0
M  V30 12127 H 1210.29 0.125634 -2.5439 0
M  V30 12128 H 1211.08 -1.44562 -3.11379 0
M  V30 12129 N 1213.52 1.56172 -0.211661 0
M  V30 12130 C 1214.77 1.98332 0.423332 0
M  V30 12131 C 1215.1 1.09895 1.60115 0
M  V30 12132 O 1214.37 0.154477 1.93886 0
M  V30 12133 C 1214.66 3.49495 0.86747 0
M  V30 12134 C 1214.51 4.48708 -0.313302 0
M  V30 12135 C 1215.83 4.04793 1.72716 0
M  V30 12136 H 1212.95 0.72107 0.152402 0
M  V30 12137 H 1215.59 1.87521 -0.305912 0
M  V30 12138 H 1213.74 3.58839 1.48885 0
M  V30 12139 H 1215.41 4.51385 -0.951291 0
M  V30 12140 H 1213.66 4.2299 -0.96238 0
M  V30 12141 H 1214.33 5.51985 0.0402402 0
M  V30 12142 H 1216.8 3.98332 1.20296 0
M  V30 12143 H 1215.68 5.10898 2.00684 0
M  V30 12144 H 1215.94 3.51067 2.68709 0
M  V30 12145 N 1215 -0.0618163 1.57479 0
M  V30 12146 C 1216.41 -0.416827 1.54061 0
M  V30 12147 C 1216.61 -1.78584 0.933277 0
M  V30 12148 O 1215.67 -2.46656 0.54009 0
M  V30 12149 C 1216.98 -0.348728 2.98671 0
M  V30 12150 C 1218.53 -0.428194 3.10057 0
M  V30 12151 C 1219.01 -0.389898 4.56337 0
M  V30 12152 N 1220.5 -0.449677 4.61012 0
M  V30 12153 C 1221.23 -0.442418 5.71691 0
M  V30 12154 N 1220.73 -0.389381 6.91705 0
M  V30 12155 N 1222.52 -0.489719 5.59963 0
M  V30 12156 H 1214.67 0.834487 1.9532 0
M  V30 12157 H 1216.94 0.314149 0.894435 0
M  V30 12158 H 1216.64 0.590738 3.46703 0
M  V30 12159 H 1216.52 -1.15511 3.59078 0
M  V30 12160 H 1218.9 -1.35808 2.61992 0
M  V30 12161 H 1218.98 0.406946 2.52542 0
M  V30 12162 H 1218.63 0.536186 5.05062 0
M  V30 12163 H 1218.56 -1.24271 5.11727 0
M  V30 12164 H 1221.05 -0.49451 3.74651 0
M  V30 12165 H 1221.36 -0.388042 7.71825 0
M  V30 12166 H 1219.71 -0.355918 6.94088 0
M  V30 12167 H 1222.9 -0.528915 4.65102 0
M  V30 12168 H 1223.07 -0.480592 6.46215 0
M  V30 12169 N 1216.48 -1.54033 -0.333429 0
M  V30 12170 C 1217.41 -1.85719 -1.4153 0
M  V30 12171 C 1218.39 -0.713144 -1.54429 0
M  V30 12172 O 1219.57 -0.965984 -1.68471 0
M  V30 12173 C 1216.7 -2.07578 -2.78439 0
M  V30 12174 C 1215.66 -3.23411 -2.80338 0
M  V30 12175 C 1214.98 -3.30622 -4.2023 0
M  V30 12176 C 1216.28 -4.6129 -2.44968 0
M  V30 12177 H 1217.98 -2.76325 -1.15261 0
M  V30 12178 H 1215.52 -1.32957 -0.55303 0
M  V30 12179 H 1217.48 -2.28329 -3.5418 0
M  V30 12180 H 1216.2 -1.13713 -3.06165 0
M  V30 12181 H 1214.86 -3.02531 -2.07052 0
M  V30 12182 H 1214.51 -2.34333 -4.45081 0
M  V30 12183 H 1214.21 -4.08466 -4.22409 0
M  V30 12184 H 1215.73 -3.53596 -4.97798 0
M  V30 12185 H 1217.14 -4.81987 -3.10421 0
M  V30 12186 H 1215.54 -5.41611 -2.58414 0
M  V30 12187 H 1216.61 -4.6421 -1.40134 0
M  V30 12188 N 1217.95 0.594978 -1.45938 0
M  V30 12189 C 1219.19 1.36479 -1.52161 0
M  V30 12190 C 1219.56 1.91296 -0.164295 0
M  V30 12191 O 1220.76 2.68609 -0.101247 0
M  V30 12192 C 1219.03 2.47286 -2.5804 0
M  V30 12193 S 1220.59 3.34855 -2.8358 0
M  V30 12194 H 1217.41 0.465134 -0.537746 0
M  V30 12195 H 1220.01 0.685257 -1.83097 0
M  V30 12196 H 1218.71 2.05386 -3.5531 0
M  V30 12197 H 1218.24 3.20025 -2.28795 0
M  V30 12198 H 1220.26 4.45788 -2.17916 0
M  V30 12199 N 1219.43 1.33438 0.838571 0
M  V30 12200 C 1220.85 1.12779 1.12929 0
M  V30 12201 C 1221.05 -0.0811188 2.01337 0
M  V30 12202 O 1220.1 -0.761294 2.4075 0
M  V30 12203 C 1221.42 2.41537 1.7911 0
M  V30 12204 C 1222.97 2.47447 1.91674 0
M  V30 12205 C 1223.44 3.76167 2.6127 0
M  V30 12206 N 1224.93 3.7724 2.68783 0
M  V30 12207 C 1225.67 4.7355 3.23323 0
M  V30 12208 N 1225.16 5.80235 3.78549 0
M  V30 12209 N 1226.96 4.61025 3.21578 0
M  V30 12210 H 1219.11 2.10921 0.250187 0
M  V30 12211 H 1221.37 0.931986 0.17351 0
M  V30 12212 H 1221.08 3.30006 1.21609 0
M  V30 12213 H 1220.95 2.53709 2.79127 0
M  V30 12214 H 1223.34 1.59427 2.48328 0
M  V30 12215 H 1223.42 2.39216 0.906058 0
M  V30 12216 H 1223.06 4.64569 2.05275 0
M  V30 12217 H 1222.99 3.81675 3.62811 0
M  V30 12218 H 1225.48 3.00138 2.29621 0
M  V30 12219 H 1225.8 6.49759 4.1837 0
M  V30 12220 H 1224.14 5.83969 3.76836 0
M  V30 12221 H 1227.33 3.76836 2.77691 0
M  V30 12222 H 1227.5 5.36253 3.63781 0
M  V30 12223 N 1220.91 -1.05686 1.16912 0
M  V30 12224 C 1221.84 -2.15268 0.904532 0
M  V30 12225 C 1222.82 -1.69424 -0.151548 0
M  V30 12226 O 1224.01 -1.942 -0.00235371 0
M  V30 12227 C 1221.14 -3.44853 0.411581 0
M  V30 12228 C 1220.09 -4.04237 1.40628 0
M  V30 12229 C 1219.42 -5.29105 0.771479 0
M  V30 12230 C 1220.72 -4.42303 2.77787 0
M  V30 12231 H 1222.41 -2.37659 1.82094 0
M  V30 12232 H 1219.96 -1.14217 0.876947 0
M  V30 12233 H 1221.91 -4.20857 0.213929 0
M  V30 12234 H 1220.63 -3.22099 -0.540352 0
M  V30 12235 H 1219.29 -3.30297 1.59058 0
M  V30 12236 H 1218.94 -5.02652 -0.187133 0
M  V30 12237 H 1218.64 -5.69797 1.43545 0
M  V30 12238 H 1220.16 -6.07801 0.583988 0
M  V30 12239 H 1221.58 -5.09362 2.63103 0
M  V30 12240 H 1219.98 -4.93997 3.40716 0
M  V30 12241 H 1221.05 -3.52877 3.32575 0
M  V30 12242 N 1222.39 -0.968567 -1.24324 0
M  V30 12243 C 1223.63 -0.63879 -1.94162 0
M  V30 12244 C 1223.99 0.81112 -1.74025 0
M  V30 12245 O 1225.19 1.25116 -2.37906 0
M  V30 12246 C 1223.46 -1.00432 -3.42999 0
M  V30 12247 S 1225.02 -0.789227 -4.31644 0
M  V30 12248 H 1221.84 -0.234322 -0.671278 0
M  V30 12249 H 1224.44 -1.2457 -1.50673 0
M  V30 12250 H 1223.15 -2.05643 -3.55161 0
M  V30 12251 H 1222.68 -0.388221 -3.9148 0
M  V30 12252 H 1224.69 0.332976 -4.95082 0
M  V30 12253 N 1223.87 1.39211 -0.738786 0
M  V30 12254 C 1224.8 2.29117 -0.0616489 0
M  V30 12255 C 1225.81 1.47008 0.699462 0
M  V30 12256 O 1227 1.70041 0.542998 0
M  V30 12257 C 1224.1 3.25692 0.936893 0
M  V30 12258 C 1223.27 4.3676 0.236515 0
M  V30 12259 C 1222.33 5.1362 1.1437 0
M  V30 12260 O 1221.36 5.65816 0.619762 0
M  V30 12261 N 1222.56 5.25184 2.4731 0
M  V30 12262 H 1225.33 2.8787 -0.833711 0
M  V30 12263 H 1222.89 1.50832 -0.588323 0
M  V30 12264 H 1224.88 3.73987 1.54648 0
M  V30 12265 H 1223.45 2.67943 1.61014 0
M  V30 12266 H 1222.67 3.90293 -0.553594 0
M  V30 12267 H 1223.96 5.08192 -0.248707 0
M  V30 12268 H 1223.35 4.84302 2.92349 0
M  V30 12269 H 1221.91 5.76905 3.03355 0
M  V30 12270 N 1225.34 0.486708 1.49896 0
M  V30 12271 C 1226.58 -0.0613987 2.04308 0
M  V30 12272 C 1226.95 -1.3558 1.35948 0
M  V30 12273 O 1228.15 -1.98726 1.81001 0
M  V30 12274 C 1226.42 -0.225167 3.5669 0
M  V30 12275 S 1227.98 -0.729581 4.32692 0
M  V30 12276 H 1224.8 -0.00856238 0.710948 0
M  V30 12277 H 1227.4 0.657414 1.84115 0
M  V30 12278 H 1226.1 0.722447 4.03991 0
M  V30 12279 H 1225.63 -0.969639 3.81263 0
M  V30 12280 H 1227.65 -2.00082 4.54072 0
M  V30 12281 N 1226.82 -1.56058 0.219941 0
M  V30 12282 C 1228.05 -2.031 -0.42014 0
M  V30 12283 C 1228.47 -1.09875 -1.52673 0
M  V30 12284 O 1227.83 -0.0866458 -1.81093 0
M  V30 12285 C 1227.88 -3.48389 -0.93047 0
M  V30 12286 O 1226.98 -3.583 -2.04192 0
M  V30 12287 H 1226.32 -0.657129 -0.0952772 0
M  V30 12288 H 1228.85 -2.01787 0.338105 0
M  V30 12289 H 1228.86 -3.88678 -1.2407 0
M  V30 12290 H 1227.54 -4.15725 -0.120539 0
M  V30 12291 H 1226.12 -3.29898 -1.73845 0
M  V30 12292 N 1228.3 0.053464 -1.57509 0
M  V30 12293 C 1229.58 0.783141 -1.79238 0
M  V30 12294 C 1229.96 1.94855 -0.812069 0
M  V30 12295 O 1229.31 2.28 0.151006 0
M  V30 12296 C 1229.52 1.239 -3.26266 0
M  V30 12297 C 1230.86 1.66492 -3.90596 0
M  V30 12298 O 1231.89 1.33421 -3.30269 0
M  V30 12299 O 1230.75 2.27785 -4.96766 0
M  V30 12300 H 1227.84 0.376696 -0.736226 0
M  V30 12301 H 1230.39 0.0321229 -1.6967 0
M  V30 12302 H 1229.16 0.405948 -3.89189 0
M  V30 12303 H 1228.78 2.05078 -3.4063 0
M  V30 12304 N 1229.78 1.54207 0.325255 0
M  V30 12305 C 1230.73 1.84197 1.42036 0
M  V30 12306 C 1231.72 0.71375 1.53629 0
M  V30 12307 O 1232.93 0.897385 1.56035 0
M  V30 12308 H 1229.3 0.583848 0.473947 0
M  V30 12309 H 1231.27 2.7578 1.13965 0
M  V30 12310 C 1230.02 2.08459 2.78281 0
M  V30 12311 H 1229.35 2.94734 2.70133 0
M  V30 12312 H 1230.79 2.33398 3.5398 0
M  V30 12313 C 1229.24 0.875615 3.25322 0
M  V30 12314 O 1229.77 0.0840387 4.01612 0
M  V30 12315 N 1227.98 0.687721 2.82345 0
M  V30 12316 H 1227.53 1.33307 2.20425 0
M  V30 12317 H 1227.49 -0.119687 3.14172 0
M  V30 12318 N 1231.26 -0.58723 1.46251 0
M  V30 12319 C 1232.51 -1.34179 1.50595 0
M  V30 12320 C 1232.82 -1.94943 0.160171 0
M  V30 12321 O 1234.03 -2.71378 0.0813797 0
M  V30 12322 C 1232.48 -2.43159 2.65333 0
M  V30 12323 C 1232.09 -1.88718 4.06312 0
M  V30 12324 C 1233.83 -3.19986 2.78943 0
M  V30 12325 C 1231.74 -2.953 5.12398 0
M  V30 12326 H 1230.67 -0.504401 0.560442 0
M  V30 12327 H 1233.32 -0.627179 1.72449 0
M  V30 12328 H 1231.7 -3.17398 2.368 0
M  V30 12329 H 1232.88 -1.21051 4.44616 0
M  V30 12330 H 1231.19 -1.24572 3.97329 0
M  V30 12331 H 1233.79 -3.9952 3.5537 0
M  V30 12332 H 1234.13 -3.72288 1.86298 0
M  V30 12333 H 1234.67 -2.52852 3.07101 0
M  V30 12334 H 1231.4 -2.4789 6.0682 0
M  V30 12335 H 1230.92 -3.61469 4.78644 0
M  V30 12336 H 1232.6 -3.5933 5.38044 0
M  V30 12337 N 1232.74 -1.33881 -0.831482 0
M  V30 12338 C 1234.01 -1.16346 -1.57236 0
M  V30 12339 C 1234.39 0.267304 -2.09401 0
M  V30 12340 O 1233.74 1.26742 -1.90128 0
M  V30 12341 C 1233.95 -2.21082 -2.70044 0
M  V30 12342 C 1235.3 -2.5562 -3.39033 0
M  V30 12343 O 1236.32 -2.19806 -2.80292 0
M  V30 12344 O 1235.18 -3.17106 -4.45091 0
M  V30 12345 H 1232.28 -0.450469 -0.693546 0
M  V30 12346 H 1234.82 -1.45487 -0.873597 0
M  V30 12347 H 1233.59 -3.17155 -2.2919 0
M  V30 12348 H 1233.22 -1.9307 -3.47577 0
M  V30 12349 N 1234.21 1.05064 -1.1747 0
M  V30 12350 C 1235.62 1.59547 -0.969628 0
M  V30 12351 C 1235.98 1.90153 0.483332 0
M  V30 12352 O 1235.1 1.68415 1.35887 0
M  V30 12353 C 1235.7 2.89877 -1.75377 0
M  V30 12354 C 1234.25 3.41013 -1.59332 0
M  V30 12355 C 1233.4 2.1473 -1.7546 0
M  V30 12356 H 1236.35 0.878595 -1.3216 0
M  V30 12357 H 1236.37 3.59834 -1.23691 0
M  V30 12358 H 1235.89 2.67569 -2.8112 0
M  V30 12359 H 1233.99 3.68355 -0.560827 0
M  V30 12360 H 1234.1 4.15512 -2.38509 0
M  V30 12361 H 1232.46 2.25553 -1.18313 0
M  V30 12362 H 1233.25 1.9489 -2.82618 0
M  V30 12363 N 1235.69 0.975146 1.23809 0
M  V30 12364 C 1236.64 0.503396 2.27087 0
M  V30 12365 C 1237.63 -0.43689 1.63669 0
M  V30 12366 O 1238.84 -0.31136 1.77287 0
M  V30 12367 H 1235.21 0.144346 0.738017 0
M  V30 12368 H 1237.19 1.38627 2.64244 0
M  V30 12369 C 1235.93 -0.183682 3.47214 0
M  V30 12370 H 1235.26 0.530753 3.96261 0
M  V30 12371 H 1236.7 -0.477479 4.21303 0
M  V30 12372 C 1235.16 -1.41317 3.05829 0
M  V30 12373 O 1235.69 -2.50975 3.13647 0
M  V30 12374 N 1233.89 -1.28191 2.60798 0
M  V30 12375 H 1233.44 -0.38967 2.54636 0
M  V30 12376 H 1233.4 -2.10565 2.33473 0
M  V30 12377 N 1237.17 -1.38817 0.746158 0
M  V30 12378 C 1238.13 -2.28876 0.121886 0
M  V30 12379 C 1239.13 -1.46838 -0.655379 0
M  V30 12380 O 1240.32 -1.67377 -0.482744 0
M  V30 12381 C 1237.45 -3.30487 -0.836118 0
M  V30 12382 H 1238.65 -2.85586 0.915453 0
M  V30 12383 H 1236.2 -1.47652 0.512691 0
M  V30 12384 H 1236.94 -2.78853 -1.65563 0
M  V30 12385 H 1236.72 -3.9109 -0.281271 0
M  V30 12386 H 1238.21 -3.97848 -1.26914 0
M  V30 12387 N 1238.65 -0.49465 -1.49636 0
M  V30 12388 C 1239.89 0.0521945 -2.02733 0
M  V30 12389 C 1240.23 1.3723 -1.37411 0
M  V30 12390 O 1239.5 1.87758 -0.507642 0
M  V30 12391 C 1239.78 0.2114 -3.59479 0
M  V30 12392 C 1239.64 -1.13138 -4.35339 0
M  V30 12393 C 1240.96 0.955015 -4.29613 0
M  V30 12394 H 1238.08 0.0174946 -0.736792 0
M  V30 12395 H 1240.72 -0.644827 -1.78723 0
M  V30 12396 H 1238.87 0.805078 -3.80067 0
M  V30 12397 H 1240.54 -1.76345 -4.26263 0
M  V30 12398 H 1238.78 -1.72224 -3.98147 0
M  V30 12399 H 1239.45 -0.97336 -5.4335 0
M  V30 12400 H 1241.93 0.451575 -4.13642 0
M  V30 12401 H 1240.81 1.03524 -5.39049 0
M  V30 12402 H 1241.07 1.99724 -3.94414 0
M  V30 12403 N 1240.13 1.55939 -0.228214 0
M  V30 12404 C 1241.37 1.98084 0.400884 0
M  V30 12405 C 1241.69 1.11727 1.59819 0
M  V30 12406 O 1240.96 0.195794 1.94919 0
M  V30 12407 H 1239.54 0.731558 0.151102 0
M  V30 12408 H 1242.21 1.92211 -0.322659 0
M  V30 12409 H 1241.3 3.03617 0.722706 0
M  V30 12410 N 1241.6 -0.0451101 1.57535 0
M  V30 12411 C 1242.55 -1.0692 2.06569 0
M  V30 12412 C 1243.55 -1.38443 0.976218 0
M  V30 12413 O 1244.75 -1.37536 1.1612 0
M  V30 12414 H 1241.13 -0.36226 0.658993 0
M  V30 12415 H 1243.1 -0.629709 2.9168 0
M  V30 12416 C 1241.85 -2.36656 2.54733 0
M  V30 12417 H 1241.17 -2.13257 3.38174 0
M  V30 12418 H 1242.61 -3.06696 2.92769 0
M  V30 12419 C 1241.07 -3.04499 1.4416 0
M  V30 12420 O 1241.6 -3.93679 0.798721 0
M  V30 12421 N 1239.81 -2.6556 1.18009 0
M  V30 12422 H 1239.35 -1.93126 1.7047 0
M  V30 12423 H 1239.31 -3.11272 0.442363 0
M  V30 12424 N 1243.08 -1.54377 -0.317073 0
M  V30 12425 C 1244.32 -1.74621 -1.06239 0
M  V30 12426 C 1244.69 -0.512542 -1.85032 0
M  V30 12427 O 1245.89 -0.592438 -2.6219 0
M  V30 12428 C 1244.16 -2.99036 -1.95735 0
M  V30 12429 S 1245.72 -3.40212 -2.77131 0
M  V30 12430 H 1242.54 -0.613969 -0.358557 0
M  V30 12431 H 1245.14 -1.92562 -0.33763 0
M  V30 12432 H 1243.84 -3.86965 -1.36697 0
M  V30 12433 H 1243.37 -2.83636 -2.72606 0
M  V30 12434 H 1245.39 -2.9602 -3.98229 0
M  V30 12435 N 1244.56 0.579466 -1.4656 0
M  V30 12436 C 1245.51 1.70937 -1.57744 0
M  V30 12437 C 1246.5 1.6343 -0.44577 0
M  V30 12438 O 1247.71 1.68884 -0.622762 0
M  V30 12439 H 1244.08 0.565218 -0.496017 0
M  V30 12440 H 1246.05 1.58636 -2.52739 0
M  V30 12441 C 1244.8 3.09321 -1.58794 0
M  V30 12442 H 1244.13 3.1577 -2.45213 0
M  V30 12443 H 1245.57 3.88132 -1.70674 0
M  V30 12444 C 1244.03 3.35404 -0.317165 0
M  V30 12445 O 1244.56 3.97325 0.591228 0
M  V30 12446 N 1242.76 2.89883 -0.204071 0
M  V30 12447 H 1242.31 2.39672 -0.944194 0
M  V30 12448 H 1242.27 3.07706 0.645303 0
M  V30 12449 N 1246.04 1.3432 0.824371 0
M  V30 12450 C 1247.45 1.1397 1.11727 0
M  V30 12451 C 1247.65 -0.0597597 2.01411 0
M  V30 12452 O 1246.71 -0.735717 2.41544 0
M  V30 12453 C 1248.02 2.43423 1.76538 0
M  V30 12454 C 1249.57 2.49466 1.89039 0
M  V30 12455 C 1250.05 3.78917 2.57266 0
M  V30 12456 N 1251.54 3.8007 2.64767 0
M  V30 12457 C 1252.27 4.76953 3.18282 0
M  V30 12458 N 1251.77 5.84217 3.72373 0
M  V30 12459 N 1253.56 4.6441 3.1667 0
M  V30 12460 H 1245.71 2.11175 0.227802 0
M  V30 12461 H 1247.98 0.933774 0.163615 0
M  V30 12462 H 1247.68 3.31278 1.18102 0
M  V30 12463 H 1247.56 2.56655 2.7642 0
M  V30 12464 H 1249.94 1.62052 2.46623 0
M  V30 12465 H 1250.02 2.40163 0.880635 0
M  V30 12466 H 1249.67 4.6672 2.00336 0
M  V30 12467 H 1249.6 3.85502 3.58742 0
M  V30 12468 H 1252.09 3.02556 2.26425 0
M  V30 12469 H 1252.4 6.54159 4.11455 0
M  V30 12470 H 1250.75 5.87933 3.70621 0
M  V30 12471 H 1253.94 3.7976 2.73678 0
M  V30 12472 H 1254.11 5.40081 3.58073 0
M  V30 12473 N 1247.52 -1.0444 1.18026 0
M  V30 12474 C 1248.45 -2.14297 0.927314 0
M  V30 12475 C 1249.43 -1.69575 -0.13357 0
M  V30 12476 O 1250.61 -1.94191 0.0182439 0
M  V30 12477 C 1247.74 -3.44397 0.448134 0
M  V30 12478 C 1246.7 -4.02723 1.44907 0
M  V30 12479 C 1246.02 -5.28257 0.827555 0
M  V30 12480 C 1247.32 -4.39331 2.82463 0
M  V30 12481 H 1249.02 -2.35715 1.84605 0
M  V30 12482 H 1246.56 -1.13281 0.889012 0
M  V30 12483 H 1248.52 -4.20606 0.258554 0
M  V30 12484 H 1247.24 -3.22654 -0.506159 0
M  V30 12485 H 1245.9 -3.28591 1.62552 0
M  V30 12486 H 1245.55 -5.02822 -0.13381 0
M  V30 12487 H 1245.25 -5.68242 1.49581 0
M  V30 12488 H 1246.77 -6.07147 0.64842 0
M  V30 12489 H 1248.18 -5.06543 2.68491 0
M  V30 12490 H 1246.58 -4.90355 3.45936 0
M  V30 12491 H 1247.65 -3.4933 3.36299 0
M  V30 12492 N 1248.99 -0.981699 -1.2329 0
M  V30 12493 C 1250.22 -0.66937 -1.95773 0
M  V30 12494 C 1250.64 0.763898 -1.72656 0
M  V30 12495 O 1249.99 1.51418 -1.01876 0
M  V30 12496 C 1250.05 -0.951863 -3.48743 0
M  V30 12497 O 1249.77 -2.3288 -3.71078 0
M  V30 12498 C 1251.27 -0.655668 -4.38424 0
M  V30 12499 H 1248.49 -0.248545 -0.623271 0
M  V30 12500 H 1251.03 -1.31343 -1.56746 0
M  V30 12501 H 1249.19 -0.353787 -3.85781 0
M  V30 12502 H 1249.6 -2.41948 -4.65362 0
M  V30 12503 H 1251.07 -0.903683 -5.44553 0
M  V30 12504 H 1251.55 0.410269 -4.3728 0
M  V30 12505 H 1252.16 -1.23428 -4.06996 0
M  V30 12506 N 1250.47 1.3842 -0.753509 0
M  V30 12507 C 1251.72 1.99723 -0.309021 0
M  V30 12508 C 1252.04 1.60111 1.11308 0
M  V30 12509 O 1251.31 0.85792 1.76115 0
M  V30 12510 H 1249.89 0.738667 -0.111266 0
M  V30 12511 H 1252.55 1.69186 -0.967586 0
M  V30 12512 H 1251.65 3.09874 -0.372095 0
M  V30 12513 N 1251.95 0.502579 1.49372 0
M  V30 12514 C 1252.86 -0.279532 2.32929 0
M  V30 12515 C 1253.88 -0.965806 1.44735 0
M  V30 12516 O 1255.05 -0.946839 1.77755 0
M  V30 12517 C 1252.12 -1.32913 3.20211 0
M  V30 12518 C 1251.18 -0.656121 4.24256 0
M  V30 12519 C 1250.41 -1.65571 5.07368 0
M  V30 12520 O 1250.63 -2.88571 4.92019 0
M  V30 12521 O 1249.57 -1.21016 5.89609 0
M  V30 12522 H 1253.39 0.404427 3.00995 0
M  V30 12523 H 1250.98 0.263888 1.47051 0
M  V30 12524 H 1252.86 -1.93635 3.74277 0
M  V30 12525 H 1251.54 -1.99598 2.54837 0
M  V30 12526 H 1250.44 -0.00911489 3.74099 0
M  V30 12527 H 1251.78 -0.0316802 4.9219 0
M  V30 12528 N 1253.43 -1.55816 0.23648 0
M  V30 12529 C 1254.67 -2.0059 -0.39281 0
M  V30 12530 C 1255.03 -1.12092 -1.55883 0
M  V30 12531 O 1256.23 -1.46277 -2.25514 0
M  V30 12532 C 1254.5 -3.48281 -0.80219 0
M  V30 12533 S 1256.06 -4.15069 -1.42348 0
M  V30 12534 H 1252.88 -0.700093 -0.124057 0
M  V30 12535 H 1255.48 -1.92355 0.349272 0
M  V30 12536 H 1254.19 -4.10362 0.0558941 0
M  V30 12537 H 1253.72 -3.60421 -1.57671 0
M  V30 12538 H 1255.73 -4.15493 -2.71257 0
M  V30 12539 N 1254.91 0.036755 -1.57557 0
M  V30 12540 C 1255.84 1.03939 -2.09091 0
M  V30 12541 C 1256.82 1.38196 -0.991761 0
M  V30 12542 O 1258 1.47214 -1.26656 0
M  V30 12543 C 1255.13 2.34263 -2.56394 0
M  V30 12544 C 1254.09 2.14269 -3.70504 0
M  V30 12545 C 1253.41 3.50286 -4.03985 0
M  V30 12546 C 1254.71 1.53514 -4.9923 0
M  V30 12547 H 1256.41 0.610429 -2.93111 0
M  V30 12548 H 1253.95 0.292183 -1.41005 0
M  V30 12549 H 1255.91 3.04727 -2.91066 0
M  V30 12550 H 1254.63 2.79205 -1.69447 0
M  V30 12551 H 1253.29 1.46239 -3.36169 0
M  V30 12552 H 1252.94 3.92861 -3.14116 0
M  V30 12553 H 1252.64 3.37735 -4.80842 0
M  V30 12554 H 1254.16 4.22124 -4.41184 0
M  V30 12555 H 1255.57 2.13885 -5.31908 0
M  V30 12556 H 1253.97 1.51561 -5.80646 0
M  V30 12557 H 1255.04 0.500126 -4.82314 0
M  V30 12558 N 1256.39 1.54543 0.308881 0
M  V30 12559 C 1257.33 1.84949 1.38067 0
M  V30 12560 C 1258.3 0.697746 1.50734 0
M  V30 12561 O 1259.49 0.94561 1.65719 0
M  V30 12562 C 1256.63 2.09544 2.74199 0
M  V30 12563 C 1255.74 3.37193 2.70046 0
M  V30 12564 C 1254.88 3.51672 3.98121 0
M  V30 12565 C 1253.91 4.73143 3.88333 0
M  V30 12566 N 1253.05 4.84469 5.08167 0
M  V30 12567 H 1257.89 2.76379 1.11438 0
M  V30 12568 H 1255.43 1.36863 0.539153 0
M  V30 12569 H 1257.39 2.21798 3.53358 0
M  V30 12570 H 1256.02 1.21389 2.99106 0
M  V30 12571 H 1255.07 3.33601 1.82796 0
M  V30 12572 H 1256.38 4.26468 2.58701 0
M  V30 12573 H 1255.53 3.63548 4.85714 0
M  V30 12574 H 1254.27 2.60516 4.1229 0
M  V30 12575 H 1253.28 4.61308 2.99124 0
M  V30 12576 H 1254.5 5.65698 3.75716 0
M  V30 12577 H 1252.45 3.96234 5.22814 0
M  V30 12578 H 1252.37 5.67733 4.99215 0
M  V30 12579 H 1253.63 5.00693 5.97434 0
M  V30 12580 N 1257.86 -0.571685 1.46866 0
M  V30 12581 C 1259.1 -1.34041 1.54313 0
M  V30 12582 C 1259.47 -1.9101 0.194708 0
M  V30 12583 O 1260.67 -2.68414 0.143968 0
M  V30 12584 C 1258.94 -2.4315 2.61941 0
M  V30 12585 S 1260.5 -3.30301 2.88871 0
M  V30 12586 H 1257.32 -0.45652 0.545078 0
M  V30 12587 H 1259.92 -0.656041 1.84164 0
M  V30 12588 H 1258.62 -1.99707 3.58532 0
M  V30 12589 H 1258.15 -3.16345 2.33858 0
M  V30 12590 H 1260.17 -4.42265 2.24981 0
M  V30 12591 N 1259.34 -1.34755 -0.817236 0
M  V30 12592 C 1260.59 -1.26771 -1.56882 0
M  V30 12593 C 1260.9 0.158962 -1.94953 0
M  V30 12594 O 1262.11 0.360996 -2.69089 0
M  V30 12595 C 1260.57 -2.22261 -2.83069 0
M  V30 12596 C 1260.17 -3.70216 -2.52277 0
M  V30 12597 C 1261.92 -2.23197 -3.61086 0
M  V30 12598 C 1259.82 -4.57559 -3.74691 0
M  V30 12599 H 1258.75 -0.470961 -0.588822 0
M  V30 12600 H 1261.41 -1.59955 -0.899254 0
M  V30 12601 H 1259.79 -1.82036 -3.5168 0
M  V30 12602 H 1260.96 -4.19014 -1.9174 0
M  V30 12603 H 1259.28 -3.71784 -1.87525 0
M  V30 12604 H 1261.87 -2.85673 -4.5199 0
M  V30 12605 H 1262.22 -1.2328 -3.97628 0
M  V30 12606 H 1262.75 -2.61897 -2.99424 0
M  V30 12607 H 1259.49 -5.58434 -3.43267 0
M  V30 12608 H 1259.01 -4.13494 -4.34491 0
M  V30 12609 H 1260.69 -4.72451 -4.42039 0
M  V30 12610 N 1260.82 1.03812 -1.18578 0
M  V30 12611 C 1262.05 1.8044 -1.00623 0
M  V30 12612 C 1262.46 1.83808 0.448451 0
M  V30 12613 O 1261.8 1.27417 1.32328 0
M  V30 12614 C 1261.86 3.27266 -1.48785 0
M  V30 12615 C 1261.53 3.47553 -2.96742 0
M  V30 12616 C 1262.52 3.38533 -3.94578 0
M  V30 12617 C 1260.21 3.74067 -3.3523 0
M  V30 12618 C 1262.2 3.55735 -5.28896 0
M  V30 12619 C 1259.89 3.90916 -4.6971 0
M  V30 12620 C 1260.89 3.81751 -5.66352 0
M  V30 12621 O 1260.58 3.98115 -6.98398 0
M  V30 12622 H 1260.31 0.574996 -0.355465 0
M  V30 12623 H 1262.86 1.31708 -1.57614 0
M  V30 12624 H 1261.09 3.76979 -0.861613 0
M  V30 12625 H 1262.78 3.85461 -1.27181 0
M  V30 12626 H 1263.55 3.18011 -3.66189 0
M  V30 12627 H 1259.43 3.80298 -2.60566 0
M  V30 12628 H 1262.97 3.48498 -6.04314 0
M  V30 12629 H 1258.87 4.10934 -4.97799 0
M  V30 12630 H 1259.63 4.1526 -7.05338 0
M  V30 12631 N 1262.3 0.988223 1.22768 0
M  V30 12632 C 1263.25 0.527454 2.26541 0
M  V30 12633 C 1264.24 -0.419506 1.64123 0
M  V30 12634 O 1265.45 -0.292539 1.77607 0
M  V30 12635 H 1261.82 0.152165 0.736444 0
M  V30 12636 H 1263.79 1.41422 2.62759 0
M  V30 12637 C 1262.54 -0.146845 3.4739 0
M  V30 12638 H 1261.86 0.572752 3.95676 0
M  V30 12639 H 1263.3 -0.432768 4.21786 0
M  V30 12640 C 1261.76 -1.38065 3.0731 0
M  V30 12641 O 1262.29 -2.47634 3.16291 0
M  V30 12642 N 1260.5 -1.25418 2.62143 0
M  V30 12643 H 1260.05 -0.362641 2.55035 0
M  V30 12644 H 1260 -2.08077 2.35694 0
M  V30 12645 N 1263.78 -1.38018 0.760839 0
M  V30 12646 C 1265 -2.04231 0.331285 0
M  V30 12647 C 1265.42 -1.57385 -1.04285 0
M  V30 12648 O 1264.78 -0.750168 -1.66369 0
M  V30 12649 C 1264.83 -3.59772 0.353021 0
M  V30 12650 O 1264.55 -4.049 1.67294 0
M  V30 12651 C 1266.05 -4.4321 -0.0894942 0
M  V30 12652 H 1263.27 -0.656145 0.140408 0
M  V30 12653 H 1265.81 -1.76567 1.03172 0
M  V30 12654 H 1263.97 -3.86246 -0.298735 0
M  V30 12655 H 1264.38 -4.99369 1.60408 0
M  V30 12656 H 1265.86 -5.51995 -0.0231262 0
M  V30 12657 H 1266.33 -4.2419 -1.13839 0
M  V30 12658 H 1266.94 -4.21939 0.533661 0
M  V30 12659 N 1265.25 -0.510493 -1.49103 0
M  V30 12660 C 1266.22 0.251915 -2.27811 0
M  V30 12661 C 1267.22 0.885432 -1.34226 0
M  V30 12662 O 1268.41 0.748494 -1.573 0
M  V30 12663 C 1265.54 1.3624 -3.12492 0
M  V30 12664 H 1266.73 -0.438872 -2.96671 0
M  V30 12665 H 1264.28 -0.265767 -1.54024 0
M  V30 12666 H 1265.02 2.08705 -2.48219 0
M  V30 12667 H 1264.8 0.913485 -3.81311 0
M  V30 12668 H 1266.29 1.89919 -3.71915 0
M  V30 12669 N 1266.73 1.55688 -0.24474 0
M  V30 12670 C 1267.98 1.98498 0.379852 0
M  V30 12671 C 1268.3 1.13416 1.58625 0
M  V30 12672 O 1267.57 0.216456 1.947 0
M  V30 12673 H 1266.15 0.73312 0.143334 0
M  V30 12674 H 1268.81 1.91858 -0.343027 0
M  V30 12675 H 1267.91 3.04367 0.690463 0
M  V30 12676 N 1268.21 -0.0283989 1.57574 0
M  V30 12677 C 1269.46 -0.719077 1.89303 0
M  V30 12678 C 1269.78 -1.75325 0.84211 0
M  V30 12679 O 1269.04 -1.95071 -0.15683 0
M  V30 12680 C 1269.34 -1.4247 3.27776 0
M  V30 12681 C 1269 -0.526442 4.47816 0
M  V30 12682 C 1267.67 -0.279038 4.8039 0
M  V30 12683 C 1270.02 0.0937038 5.21116 0
M  V30 12684 C 1267.35 0.597277 5.83652 0
M  V30 12685 C 1269.7 0.957725 6.25308 0
M  V30 12686 C 1268.36 1.21458 6.56357 0
M  V30 12687 H 1267.63 -0.263129 0.692708 0
M  V30 12688 H 1270.28 0.0210252 1.91488 0
M  V30 12689 H 1268.58 -2.23813 3.21582 0
M  V30 12690 H 1270.28 -1.96466 3.49574 0
M  V30 12691 H 1266.87 -0.729426 4.22347 0
M  V30 12692 H 1271.06 -0.084469 4.96228 0
M  V30 12693 H 1266.31 0.804582 6.06083 0
M  V30 12694 H 1270.49 1.44476 6.81249 0
M  V30 12695 H 1268.11 1.89534 7.36193 0
M  V30 12696 N 1269.69 -1.54705 -0.300681 0
M  V30 12697 C 1270.92 -1.77735 -1.05327 0
M  V30 12698 C 1271.33 -0.53709 -1.81417 0
M  V30 12699 O 1270.67 0.502663 -1.76689 0
M  V30 12700 C 1270.73 -2.93222 -2.07993 0
M  V30 12701 C 1270.39 -4.313 -1.51095 0
M  V30 12702 C 1271.39 -5.11317 -0.94082 0
M  V30 12703 C 1269.08 -4.77901 -1.54648 0
M  V30 12704 C 1271.07 -6.36055 -0.413791 0
M  V30 12705 C 1268.76 -6.02602 -1.01558 0
M  V30 12706 C 1269.76 -6.81515 -0.450209 0
M  V30 12707 O 1269.44 -8.03867 0.0726375 0
M  V30 12708 H 1269.18 -0.596468 -0.318122 0
M  V30 12709 H 1271.73 -2.02475 -0.345404 0
M  V30 12710 H 1269.96 -2.64108 -2.82461 0
M  V30 12711 H 1271.65 -3.03826 -2.69156 0
M  V30 12712 H 1272.41 -4.76458 -0.906268 0
M  V30 12713 H 1268.29 -4.16507 -1.97594 0
M  V30 12714 H 1271.84 -6.97594 0.0281534 0
M  V30 12715 H 1267.73 -6.36948 -1.04728 0
M  V30 12716 H 1268.5 -8.1849 -0.0406321 0
M  V30 12717 N 1271.17 0.563888 -1.47167 0
M  V30 12718 C 1272.41 1.33221 -1.55021 0
M  V30 12719 C 1272.77 1.90904 -0.204835 0
M  V30 12720 O 1273.97 2.68334 -0.158201 0
M  V30 12721 C 1272.24 2.41757 -2.63227 0
M  V30 12722 S 1273.8 3.28765 -2.90619 0
M  V30 12723 H 1270.62 0.453623 -0.547491 0
M  V30 12724 H 1273.22 0.646265 -1.84509 0
M  V30 12725 H 1271.93 1.97803 -3.59586 0
M  V30 12726 H 1271.46 3.151 -2.35532 0
M  V30 12727 H 1273.47 4.41065 -2.27323 0
M  V30 12728 N 1272.64 1.35187 0.810078 0
M  V30 12729 C 1273.92 1.18832 1.55365 0
M  V30 12730 C 1274.3 -0.233956 2.098 0
M  V30 12731 O 1273.65 -1.23701 1.92121 0
M  V30 12732 C 1273.86 2.25351 2.66492 0
M  V30 12733 C 1275.21 2.60981 3.34924 0
M  V30 12734 O 1276.23 2.24238 2.7676 0
M  V30 12735 O 1275.09 3.24147 4.3999 0
M  V30 12736 H 1272.18 0.461446 0.686292 0
M  V30 12737 H 1274.73 1.46858 0.850341 0
M  V30 12738 H 1273.5 3.20762 2.24115 0
M  V30 12739 H 1273.13 1.98575 3.44462 0
M  V30 12740 N 1274.12 -1.03182 1.19127 0
M  V30 12741 C 1275.54 -1.28773 0.942854 0
M  V30 12742 C 1275.74 -1.97759 -0.386483 0
M  V30 12743 O 1274.79 -2.26365 -1.1187 0
M  V30 12744 C 1276.11 -2.13771 2.11476 0
M  V30 12745 C 1277.66 -2.27089 2.15406 0
M  V30 12746 C 1278.13 -3.15458 3.32039 0
M  V30 12747 N 1279.62 -3.23046 3.31957 0
M  V30 12748 C 1280.36 -3.91604 4.18848 0
M  V30 12749 N 1279.85 -4.62418 5.15889 0
M  V30 12750 N 1281.65 -3.87974 4.06734 0
M  V30 12751 H 1273.8 -0.568165 2.0466 0
M  V30 12752 H 1276.06 -0.31328 0.89474 0
M  V30 12753 H 1275.77 -1.704 3.07663 0
M  V30 12754 H 1275.64 -3.14476 2.0829 0
M  V30 12755 H 1278.03 -2.69693 1.19791 0
M  V30 12756 H 1278.11 -1.25945 2.22647 0
M  V30 12757 H 1277.75 -2.73564 4.27931 0
M  V30 12758 H 1277.68 -4.16654 3.22035 0
M  V30 12759 H 1280.17 -2.7261 2.6171 0
M  V30 12760 H 1280.49 -5.12353 5.78545 0
M  V30 12761 H 1278.83 -4.61293 5.1984 0
M  V30 12762 H 1282.02 -3.31789 3.30202 0
M  V30 12763 H 1282.19 -4.4113 4.74666 0
M  V30 12764 N 1275.6 -0.99472 -1.22242 0
M  V30 12765 C 1276.84 -0.679831 -1.92763 0
M  V30 12766 C 1277.2 0.774024 -1.75707 0
M  V30 12767 O 1278.41 1.20041 -2.40507 0
M  V30 12768 C 1276.68 -1.07685 -3.40791 0
M  V30 12769 S 1278.24 -0.880607 -4.29873 0
M  V30 12770 H 1275.05 -0.248508 -0.666157 0
M  V30 12771 H 1277.66 -1.27738 -1.47997 0
M  V30 12772 H 1276.36 -2.1313 -3.50719 0
M  V30 12773 H 1275.89 -0.471172 -3.90568 0
M  V30 12774 H 1277.91 0.227887 -4.95676 0
M  V30 12775 N 1277.08 1.37613 -0.768148 0
M  V30 12776 C 1278.03 2.30311 -0.150176 0
M  V30 12777 C 1279 1.50918 0.69376 0
M  V30 12778 O 1280.18 1.795 0.64687 0
M  V30 12779 C 1277.32 3.37382 0.72576 0
M  V30 12780 C 1276.43 4.31791 -0.13439 0
M  V30 12781 C 1275.57 5.25937 0.745915 0
M  V30 12782 C 1274.61 6.11988 -0.116988 0
M  V30 12783 N 1273.74 6.98387 0.721091 0
M  V30 12784 H 1278.58 2.82579 -0.946212 0
M  V30 12785 H 1276.12 1.3911 -0.478217 0
M  V30 12786 H 1278.08 3.98084 1.24839 0
M  V30 12787 H 1276.71 2.86488 1.48743 0
M  V30 12788 H 1275.76 3.72426 -0.774793 0
M  V30 12789 H 1277.07 4.9234 -0.800163 0
M  V30 12790 H 1276.23 5.91826 1.33516 0
M  V30 12791 H 1274.97 4.6579 1.44538 0
M  V30 12792 H 1273.97 5.45081 -0.7188 0
M  V30 12793 H 1275.2 6.74207 -0.813732 0
M  V30 12794 H 1273.14 6.40772 1.40524 0
M  V30 12795 H 1273.06 7.55916 0.112536 0
M  V30 12796 H 1274.33 7.6867 1.29485 0
M  V30 12797 N 1278.56 0.518393 1.4883 0
M  V30 12798 C 1279.83 -0.0837498 1.95421 0
M  V30 12799 C 1280.21 -1.52435 1.46037 0
M  V30 12800 O 1279.56 -2.18093 0.681736 0
M  V30 12801 C 1279.77 0.0215333 3.48993 0
M  V30 12802 C 1281.12 -0.143615 4.24357 0
M  V30 12803 O 1282.14 -0.0528223 3.56161 0
M  V30 12804 O 1281 -0.332231 5.45489 0
M  V30 12805 H 1278.1 -0.0857132 0.822546 0
M  V30 12806 H 1280.64 0.582169 1.59402 0
M  V30 12807 H 1279.41 1.02549 3.77623 0
M  V30 12808 H 1279.04 -0.683756 3.91677 0
M  V30 12809 N 1280.03 -1.55556 0.252993 0
M  V30 12810 C 1281.28 -1.98697 -0.369319 0
M  V30 12811 C 1281.6 -1.14256 -1.58021 0
M  V30 12812 O 1280.87 -0.226779 -1.94583 0
M  V30 12813 H 1279.45 -0.733869 -0.139444 0
M  V30 12814 H 1282.12 -1.91673 0.353197 0
M  V30 12815 H 1281.21 -3.04728 -0.674312 0
M  V30 12816 N 1281.51 0.0200419 -1.57587 0
M  V30 12817 C 1282.76 0.709027 -1.89681 0
M  V30 12818 C 1283.09 1.74876 -0.851396 0
M  V30 12819 O 1282.34 1.95151 0.146483 0
M  V30 12820 C 1282.64 1.40729 -3.28527 0
M  V30 12821 C 1282.31 0.502686 -4.48089 0
M  V30 12822 C 1280.97 0.253558 -4.80532 0
M  V30 12823 C 1283.32 -0.121338 -5.21059 0
M  V30 12824 C 1280.65 -0.628221 -5.83327 0
M  V30 12825 C 1283 -0.990873 -6.24792 0
M  V30 12826 C 1281.67 -1.24937 -6.55703 0
M  V30 12827 H 1280.94 0.259451 -0.694094 0
M  V30 12828 H 1283.58 -0.03118 -1.91475 0
M  V30 12829 H 1281.89 2.22105 -3.22764 0
M  V30 12830 H 1283.58 1.94609 -3.50611 0
M  V30 12831 H 1280.17 0.707018 -4.22728 0
M  V30 12832 H 1284.36 0.0581516 -4.96266 0
M  V30 12833 H 1279.61 -0.836712 -6.05648 0
M  V30 12834 H 1283.79 -1.48087 -6.80473 0
M  V30 12835 H 1281.42 -1.93436 -7.35178 0
M  V30 12836 N 1282.99 1.54862 0.292472 0
M  V30 12837 C 1284.24 1.74548 1.02661 0
M  V30 12838 C 1284.57 0.535895 1.86972 0
M  V30 12839 O 1283.82 -0.482016 1.89671 0
M  V30 12840 C 1284.12 2.99214 1.95463 0
M  V30 12841 C 1283.79 4.32628 1.2706 0
M  V30 12842 C 1282.45 4.68892 1.08138 0
M  V30 12843 C 1284.8 5.15296 0.782278 0
M  V30 12844 C 1282.13 5.85397 0.39081 0
M  V30 12845 C 1284.48 6.32512 0.105392 0
M  V30 12846 C 1283.14 6.67431 -0.0957097 0
M  V30 12847 H 1282.41 0.638717 0.375662 0
M  V30 12848 H 1285.06 1.89125 0.300672 0
M  V30 12849 H 1283.37 2.79454 2.74613 0
M  V30 12850 H 1285.06 3.1164 2.52352 0
M  V30 12851 H 1281.65 4.04113 1.42796 0
M  V30 12852 H 1285.84 4.87771 0.916151 0
M  V30 12853 H 1281.09 6.10989 0.224095 0
M  V30 12854 H 1285.27 6.95833 -0.280845 0
M  V30 12855 H 1282.89 7.57562 -0.63281 0
M  V30 12856 N 1284.47 -0.556076 1.47464 0
M  V30 12857 C 1285.72 -1.31061 1.53842 0
M  V30 12858 C 1286.04 -1.93943 0.202806 0
M  V30 12859 O 1285.31 -1.7999 -0.773338 0
M  V30 12860 H 1283.89 -0.486696 0.566689 0
M  V30 12861 H 1286.55 -0.64924 1.83769 0
M  V30 12862 H 1285.65 -2.10354 2.30559 0
M  V30 12863 N 1285.95 -1.35615 -0.802897 0
M  V30 12864 C 1286.9 -1.28877 -1.93632 0
M  V30 12865 C 1287.89 -0.183014 -1.68408 0
M  V30 12866 O 1289.1 -0.349218 -1.7658 0
M  V30 12867 H 1285.47 -0.400883 -0.636236 0
M  V30 12868 H 1287.44 -2.24624 -1.96435 0
M  V30 12869 C 1286.19 -1.08136 -3.30457 0
M  V30 12870 H 1285.51 -1.92463 -3.50426 0
M  V30 12871 H 1286.95 -1.07464 -4.10155 0
M  V30 12872 C 1285.41 0.214635 -3.36216 0
M  V30 12873 O 1285.94 1.20916 -3.8307 0
M  V30 12874 N 1284.15 0.25468 -2.89482 0
M  V30 12875 H 1283.7 -0.555239 -2.51545 0
M  V30 12876 H 1283.65 1.12152 -2.93716 0
M  V30 12877 N 1287.43 1.02549 -1.19673 0
M  V30 12878 C 1288.84 1.57454 -1.00325 0
M  V30 12879 C 1289.19 1.91136 0.442889 0
M  V30 12880 O 1288.31 1.7126 1.32284 0
M  V30 12881 C 1288.91 2.86091 -1.81486 0
M  V30 12882 C 1287.47 3.37557 -1.6653 0
M  V30 12883 C 1286.61 2.1096 -1.79975 0
M  V30 12884 H 1289.56 0.850364 -1.33994 0
M  V30 12885 H 1289.59 3.5713 -1.31296 0
M  V30 12886 H 1289.1 2.61546 -2.86733 0
M  V30 12887 H 1287.2 3.67083 -0.638834 0
M  V30 12888 H 1287.31 4.1036 -2.47269 0
M  V30 12889 H 1285.68 2.22993 -1.23071 0
M  V30 12890 H 1286.46 1.88852 -2.86688 0
M  V30 12891 N 1288.9 1.00119 1.21713 0
M  V30 12892 C 1289.83 0.578504 2.2622 0
M  V30 12893 C 1290.81 -0.398777 1.6536 0
M  V30 12894 O 1292 -0.287596 1.92059 0
M  V30 12895 C 1289.13 -0.0994508 3.47158 0
M  V30 12896 C 1288.08 0.79722 4.2051 0
M  V30 12897 C 1287.41 -0.0141125 5.34698 0
M  V30 12898 C 1288.71 2.09802 4.7831 0
M  V30 12899 H 1290.4 1.45208 2.6183 0
M  V30 12900 H 1287.95 0.699656 1.2586 0
M  V30 12901 H 1289.9 -0.406605 4.19434 0
M  V30 12902 H 1288.63 -1.00763 3.10667 0
M  V30 12903 H 1287.29 1.08814 3.50079 0
M  V30 12904 H 1286.93 -0.923468 4.9445 0
M  V30 12905 H 1286.63 0.582883 5.84702 0
M  V30 12906 H 1288.16 -0.31517 6.09786 0
M  V30 12907 H 1289.57 1.85427 5.42485 0
M  V30 12908 H 1287.97 2.64455 5.38687 0
M  V30 12909 H 1289.04 2.77132 3.97902 0
M  V30 12910 N 1290.38 -1.37203 0.775435 0
M  V30 12911 C 1291.34 -2.28566 0.170406 0
M  V30 12912 C 1292.34 -1.48195 -0.624085 0
M  V30 12913 O 1293.53 -1.68364 -0.447132 0
M  V30 12914 C 1290.67 -3.32186 -0.765829 0
M  V30 12915 H 1291.86 -2.8358 0.975824 0
M  V30 12916 H 1289.41 -1.46531 0.543895 0
M  V30 12917 H 1290.15 -2.82303 -1.59611 0
M  V30 12918 H 1289.93 -3.91598 -0.198251 0
M  V30 12919 H 1291.42 -4.0045 -1.18446 0
M  V30 12920 N 1291.86 -0.526279 -1.48553 0
M  V30 12921 C 1293.27 -0.0848694 -1.86507 0
M  V30 12922 C 1293.62 1.3367 -1.43621 0
M  V30 12923 O 1292.75 2.00046 -0.825268 0
M  V30 12924 C 1293.34 -0.147241 -3.3848 0
M  V30 12925 C 1291.9 0.238954 -3.75641 0
M  V30 12926 C 1291.05 -0.508648 -2.72595 0
M  V30 12927 H 1294 -0.737728 -1.40511 0
M  V30 12928 H 1294.02 0.641964 -3.75045 0
M  V30 12929 H 1293.53 -1.18199 -3.69663 0
M  V30 12930 H 1291.63 1.27598 -3.50071 0
M  V30 12931 H 1291.75 -0.0980808 -4.79 0
M  V30 12932 H 1290.11 0.0446382 -2.54661 0
M  V30 12933 H 1290.89 -1.54395 -3.06622 0
M  V30 12934 N 1293.34 1.5542 -0.261239 0
M  V30 12935 C 1294.29 2.23382 0.648324 0
M  V30 12936 C 1295.28 1.22615 1.16884 0
M  V30 12937 O 1296.49 1.40587 1.12407 0
M  V30 12938 H 1292.86 0.716733 0.227592 0
M  V30 12939 H 1294.83 2.98354 0.0521289 0
M  V30 12940 C 1293.58 2.9579 1.82766 0
M  V30 12941 H 1292.9 3.73109 1.4363 0
M  V30 12942 H 1294.34 3.46686 2.441 0
M  V30 12943 C 1292.8 2.00472 2.70763 0
M  V30 12944 O 1293.33 1.54698 3.70717 0
M  V30 12945 N 1291.54 1.67267 2.37635 0
M  V30 12946 H 1291.09 2.04685 1.56402 0
M  V30 12947 H 1291.04 1.03759 2.96785 0
M  V30 12948 N 1294.82 -0.0116844 1.57596 0
M  V30 12949 C 1296.23 -0.55604 1.78228 0
M  V30 12950 C 1296.58 -1.74624 0.894474 0
M  V30 12951 O 1295.7 -2.16196 0.0938498 0
M  V30 12952 C 1296.3 -1.0155 3.23223 0
M  V30 12953 C 1294.86 -1.50525 3.44992 0
M  V30 12954 C 1294 -0.451133 2.73606 0
M  V30 12955 H 1296.95 0.214516 1.57243 0
M  V30 12956 H 1296.98 -1.88208 3.30693 0
M  V30 12957 H 1296.49 -0.149048 3.87814 0
M  V30 12958 H 1294.59 -2.39298 2.856 0
M  V30 12959 H 1294.7 -1.54076 4.53649 0
M  V30 12960 H 1293.07 -0.910135 2.37884 0
M  V30 12961 H 1293.85 0.406152 3.40889 0
M  V30 12962 N 1296.29 -1.55015 -0.284256 0
M  V30 12963 C 1297.26 -1.8636 -1.33426 0
M  V30 12964 C 1298.26 -0.737457 -1.42892 0
M  V30 12965 O 1299.45 -1.00569 -1.42238 0
M  V30 12966 C 1296.58 -2.05884 -2.71707 0
M  V30 12967 H 1297.77 -2.80212 -1.06869 0
M  V30 12968 H 1295.32 -1.47334 -0.521767 0
M  V30 12969 H 1296.06 -1.14376 -3.03461 0
M  V30 12970 H 1295.84 -2.87867 -2.66224 0
M  V30 12971 H 1297.33 -2.31447 -3.47595 0
M  V30 12972 N 1297.77 0.548248 -1.47757 0
M  V30 12973 C 1299.05 1.3092 -1.45325 0
M  V30 12974 C 1299.43 2.1053 -0.155008 0
M  V30 12975 O 1298.78 2.11558 0.863455 0
M  V30 12976 C 1298.99 2.20614 -2.70426 0
M  V30 12977 C 1300.33 2.81345 -3.18009 0
M  V30 12978 O 1301.36 2.30911 -2.71216 0
M  V30 12979 O 1300.22 3.73036 -3.99383 0
M  V30 12980 H 1297.31 0.58996 -0.579548 0
M  V30 12981 H 1299.86 0.56641 -1.59968 0
M  V30 12982 H 1298.63 1.61449 -3.56441 0
M  V30 12983 H 1298.25 3.02173 -2.58413 0
M  V30 12984 N 1299.25 1.36039 0.795694 0
M  V30 12985 C 1300.2 1.29853 1.90806 0
M  V30 12986 C 1301.17 0.168387 1.65244 0
M  V30 12987 O 1302.35 0.353879 1.8749 0
M  V30 12988 C 1299.49 1.08737 3.27521 0
M  V30 12989 C 1298.6 2.30771 3.65197 0
M  V30 12990 C 1297.74 2.02718 4.90998 0
M  V30 12991 C 1296.78 3.20746 5.21333 0
M  V30 12992 N 1295.92 2.92399 6.38316 0
M  V30 12993 H 1300.76 2.2497 1.95429 0
M  V30 12994 H 1298.29 1.11819 0.955771 0
M  V30 12995 H 1300.25 0.945236 4.06351 0
M  V30 12996 H 1298.88 0.172781 3.22337 0
M  V30 12997 H 1297.93 2.5581 2.81541 0
M  V30 12998 H 1299.24 3.18869 3.83568 0
M  V30 12999 H 1298.4 1.85398 5.77679 0
M  V30 13000 H 1297.14 1.11921 4.74684 0
M  V30 13001 H 1296.14 3.38632 4.33138 0
M  V30 13002 H 1297.37 4.1236 5.3957 0
M  V30 13003 H 1295.31 2.04207 6.23406 0
M  V30 13004 H 1295.23 3.74034 6.56989 0
M  V30 13005 H 1296.5 2.78643 7.27996 0
M  V30 13006 N 1300.73 -1.01913 1.20215 0
M  V30 13007 C 1301.97 -1.77015 1.02202 0
M  V30 13008 C 1302.33 -1.86927 -0.43845 0
M  V30 13009 O 1303.53 -2.58451 -0.73869 0
M  V30 13010 C 1301.8 -3.15244 1.68393 0
M  V30 13011 S 1303.36 -4.06414 1.65449 0
M  V30 13012 H 1300.18 -0.609242 0.366531 0
M  V30 13013 H 1302.78 -1.22044 1.52727 0
M  V30 13014 H 1301.49 -3.05653 2.73869 0
M  V30 13015 H 1301.02 -3.7529 1.17988 0
M  V30 13016 H 1303.03 -4.91441 0.685571 0
M  V30 13017 N 1302.21 -1.00763 -1.2118 0
M  V30 13018 C 1303.15 -0.570257 -2.23644 0
M  V30 13019 C 1304.12 0.405039 -1.61086 0
M  V30 13020 O 1305.31 0.306496 -1.88322 0
M  V30 13021 C 1302.45 0.094325 -3.44971 0
M  V30 13022 C 1301.56 -0.924463 -4.21993 0
M  V30 13023 C 1300.7 -0.231869 -5.30694 0
M  V30 13024 C 1299.74 -1.23803 -5.99449 0
M  V30 13025 N 1298.87 -0.572725 -6.9976 0
M  V30 13026 H 1303.71 -1.44869 -2.60417 0
M  V30 13027 H 1301.25 -0.725369 -1.27972 0
M  V30 13028 H 1303.21 0.496689 -4.14233 0
M  V30 13029 H 1301.84 0.936457 -3.08918 0
M  V30 13030 H 1300.89 -1.44505 -3.51884 0
M  V30 13031 H 1302.2 -1.69004 -4.69296 0
M  V30 13032 H 1301.36 0.226465 -6.06277 0
M  V30 13033 H 1300.09 0.566092 -4.84403 0
M  V30 13034 H 1299.1 -1.70684 -5.22635 0
M  V30 13035 H 1300.32 -2.03711 -6.47826 0
M  V30 13036 H 1298.27 0.205531 -6.55678 0
M  V30 13037 H 1298.19 -1.27651 -7.45145 0
M  V30 13038 H 1299.46 -0.137683 -7.79378 0
M  V30 13039 N 1303.68 1.3679 -0.7827 0
M  V30 13040 C 1304.65 2.28472 -0.182525 0
M  V30 13041 C 1305.65 1.48524 0.616217 0
M  V30 13042 O 1306.84 1.68599 0.438197 0
M  V30 13043 C 1303.97 3.32588 0.748202 0
M  V30 13044 H 1305.16 2.83059 -0.99085 0
M  V30 13045 H 1302.72 1.46241 -0.551658 0
M  V30 13046 H 1303.45 2.83145 1.58112 0
M  V30 13047 H 1303.24 3.91698 0.177481 0
M  V30 13048 H 1304.73 4.01073 1.16321 0
M  V30 13049 N 1305.16 0.53415 1.48272 0
M  V30 13050 C 1306.4 0.00363134 2.044 0
M  V30 13051 C 1306.77 -1.31187 1.40193 0
M  V30 13052 O 1307.97 -1.92867 1.87232 0
M  V30 13053 C 1306.24 -0.111574 3.57226 0
M  V30 13054 S 1307.8 -0.591554 4.34794 0
M  V30 13055 H 1304.62 0.0140602 0.710861 0
M  V30 13056 H 1307.22 0.715656 1.8193 0
M  V30 13057 H 1305.92 0.850608 4.01488 0
M  V30 13058 H 1305.45 -0.847852 3.84155 0
M  V30 13059 H 1307.47 -1.85535 4.60208 0
M  V30 13060 N 1306.64 -1.55279 0.269478 0
M  V30 13061 C 1307.59 -2.23723 -0.636468 0
M  V30 13062 C 1308.58 -1.23234 -1.16232 0
M  V30 13063 O 1309.79 -1.41181 -1.1166 0
M  V30 13064 H 1306.16 -0.71793 -0.223788 0
M  V30 13065 H 1308.13 -2.98378 -0.0363057 0
M  V30 13066 C 1306.88 -2.96755 -1.81195 0
M  V30 13067 H 1306.21 -3.73865 -1.4165 0
M  V30 13068 H 1307.65 -3.47975 -2.42258 0
M  V30 13069 C 1306.11 -2.01905 -2.69696 0
M  V30 13070 O 1306.64 -1.56662 -3.69892 0
M  V30 13071 N 1304.84 -1.68524 -2.36744 0
M  V30 13072 H 1304.39 -2.05512 -1.55314 0
M  V30 13073 H 1304.35 -1.05331 -2.96231 0
M  V30 13074 N 1308.12 0.00332656 -1.576 0
M  V30 13075 C 1309.36 0.69341 -1.92279 0
M  V30 13076 C 1309.72 1.71121 -0.870715 0
M  V30 13077 O 1310.92 2.45143 -1.10265 0
M  V30 13078 C 1309.19 1.32272 -3.32022 0
M  V30 13079 S 1310.75 2.03838 -3.88581 0
M  V30 13080 H 1307.57 0.229123 -0.67307 0
M  V30 13081 H 1310.17 -0.0525621 -1.95429 0
M  V30 13082 H 1308.88 0.569071 -4.06435 0
M  V30 13083 H 1308.41 2.10669 -3.32238 0
M  V30 13084 H 1310.42 3.31311 -3.69388 0
M  V30 13085 N 1309.6 1.55164 0.276031 0
M  V30 13086 C 1310.54 1.88623 1.36104 0
M  V30 13087 C 1311.54 0.762265 1.51281 0
M  V30 13088 O 1312.74 0.946573 1.53101 0
M  V30 13089 H 1309.12 0.59863 0.455133 0
M  V30 13090 H 1311.09 2.79266 1.05134 0
M  V30 13091 C 1309.84 2.17207 2.71508 0
M  V30 13092 H 1309.16 3.03179 2.6062 0
M  V30 13093 H 1310.6 2.44541 3.46375 0
M  V30 13094 C 1309.06 0.978671 3.22372 0
M  V30 13095 O 1309.59 0.211766 4.01141 0
M  V30 13096 N 1307.8 0.777199 2.80014 0
M  V30 13097 H 1307.34 1.40252 2.16072 0
M  V30 13098 H 1307.3 -0.0196754 3.14394 0
M  V30 13099 N 1311.07 -0.540404 1.48045 0
M  V30 13100 C 1312 -1.65538 1.6468 0
M  V30 13101 C 1312.99 -1.62713 0.495847 0
M  V30 13102 O 1314.17 -1.80072 0.727172 0
M  V30 13103 C 1311.3 -3.0415 1.67661 0
M  V30 13104 C 1310.25 -3.2183 2.82152 0
M  V30 13105 C 1309.58 -4.61397 2.70216 0
M  V30 13106 C 1310.88 -3.05596 4.23567 0
M  V30 13107 H 1312.57 -1.51873 2.58021 0
M  V30 13108 H 1310.12 -0.729208 1.24171 0
M  V30 13109 H 1312.07 -3.82013 1.77887 0
M  V30 13110 H 1310.8 -3.18814 0.708907 0
M  V30 13111 H 1309.46 -2.4638 2.71463 0
M  V30 13112 H 1309.1 -4.72883 1.71437 0
M  V30 13113 H 1308.8 -4.74174 3.47035 0
M  V30 13114 H 1310.33 -5.41374 2.82395 0
M  V30 13115 H 1311.74 -3.73261 4.35143 0
M  V30 13116 H 1310.14 -3.29871 5.01303 0
M  V30 13117 H 1311.21 -2.0214 4.40758 0
M  V30 13118 N 1312.55 -1.36459 -0.788468 0
M  V30 13119 C 1313.78 -1.33703 -1.57502 0
M  V30 13120 C 1314.19 0.0834961 -1.89016 0
M  V30 13121 O 1313.53 1.05107 -1.50659 0
M  V30 13122 C 1313.6 -2.09424 -2.92201 0
M  V30 13123 C 1313.26 -3.58507 -2.83411 0
M  V30 13124 C 1314.26 -4.52736 -2.5559 0
M  V30 13125 C 1311.94 -4.01405 -3.01959 0
M  V30 13126 C 1313.94 -5.87841 -2.46419 0
M  V30 13127 C 1311.62 -5.366 -2.92409 0
M  V30 13128 C 1312.62 -6.29631 -2.64677 0
M  V30 13129 O 1312.31 -7.62343 -2.55124 0
M  V30 13130 H 1312.04 -0.460221 -0.495149 0
M  V30 13131 H 1314.59 -1.80163 -0.986437 0
M  V30 13132 H 1312.82 -1.5763 -3.53114 0
M  V30 13133 H 1314.51 -1.99515 -3.53481 0
M  V30 13134 H 1315.28 -4.20906 -2.40962 0
M  V30 13135 H 1311.16 -3.29367 -3.2255 0
M  V30 13136 H 1314.7 -6.60423 -2.24694 0
M  V30 13137 H 1310.6 -5.68038 -3.066 0
M  V30 13138 H 1311.37 -7.72476 -2.70598 0
M  V30 13139 N 1314.03 1.01274 -1.20754 0
M  V30 13140 C 1315.28 1.74586 -1.01804 0
M  V30 13141 C 1315.6 1.89727 0.450419 0
M  V30 13142 O 1314.87 1.44257 1.32539 0
M  V30 13143 H 1313.45 0.646804 -0.373702 0
M  V30 13144 H 1316.11 1.22079 -1.5193 0
M  V30 13145 H 1315.21 2.748 -1.47958 0
M  V30 13146 N 1315.51 1.01404 1.20644 0
M  V30 13147 C 1316.74 0.72104 1.93929 0
M  V30 13148 C 1317.15 -0.717853 1.7462 0
M  V30 13149 O 1316.51 -1.48664 1.05855 0
M  V30 13150 C 1316.56 1.04399 3.46097 0
M  V30 13151 O 1316.28 2.42637 3.64773 0
M  V30 13152 C 1317.78 0.771678 4.36532 0
M  V30 13153 H 1315 0.264983 0.616462 0
M  V30 13154 H 1317.55 1.35453 1.53208 0
M  V30 13155 H 1315.7 0.455946 3.84708 0
M  V30 13156 H 1316.12 2.54201 4.58783 0
M  V30 13157 H 1317.59 1.04774 5.41965 0
M  V30 13158 H 1318.07 -0.294188 4.38214 0
M  V30 13159 H 1318.67 1.34176 4.0358 0
M  V30 13160 N 1316.99 -1.36373 0.789944 0
M  V30 13161 C 1317.92 -2.27803 0.134613 0
M  V30 13162 C 1318.9 -1.47252 -0.689599 0
M  V30 13163 O 1320.08 -1.76551 -0.660466 0
M  V30 13164 C 1317.21 -3.28751 -0.814888 0
M  V30 13165 C 1316.26 -4.26439 -0.0724012 0
M  V30 13166 S 1317.09 -5.20654 1.2522 0
M  V30 13167 C 1318.24 -6.25148 0.306715 0
M  V30 13168 H 1318.48 -2.83036 0.909837 0
M  V30 13169 H 1316.01 -1.42922 0.584187 0
M  V30 13170 H 1317.97 -3.87413 -1.35726 0
M  V30 13171 H 1316.63 -2.72429 -1.56336 0
M  V30 13172 H 1315.82 -4.97724 -0.792894 0
M  V30 13173 H 1315.42 -3.7186 0.399504 0
M  V30 13174 H 1317.72 -6.75546 -0.514246 0
M  V30 13175 H 1318.66 -7.0117 0.98827 0
M  V30 13176 H 1319.07 -5.64428 -0.0901834 0
M  V30 13177 N 1318.47 -0.542005 -1.47987 0
M  V30 13178 C 1319.41 0.214151 -2.29804 0
M  V30 13179 C 1320.38 0.922625 -1.38119 0
M  V30 13180 O 1321.57 0.921301 -1.67083 0
M  V30 13181 C 1318.71 1.24768 -3.21756 0
M  V30 13182 C 1317.82 0.546824 -4.28525 0
M  V30 13183 C 1316.96 1.56432 -5.07644 0
M  V30 13184 C 1315.99 0.847598 -6.06203 0
M  V30 13185 N 1315.13 1.81121 -6.78336 0
M  V30 13186 H 1319.97 -0.489707 -2.93949 0
M  V30 13187 H 1317.51 -0.253331 -1.44902 0
M  V30 13188 H 1319.47 1.85933 -3.73477 0
M  V30 13189 H 1318.1 1.91976 -2.59509 0
M  V30 13190 H 1317.15 -0.179026 -3.79978 0
M  V30 13191 H 1318.46 -0.0153623 -4.98798 0
M  V30 13192 H 1317.61 2.24992 -5.63439 0
M  V30 13193 H 1316.35 2.16041 -4.37238 0
M  V30 13194 H 1315.36 0.147989 -5.49601 0
M  V30 13195 H 1316.58 0.257454 -6.78612 0
M  V30 13196 H 1314.53 2.39615 -6.10672 0
M  V30 13197 H 1314.45 1.30077 -7.44725 0
M  V30 13198 H 1315.71 2.48842 -7.38714 0
M  V30 13199 N 1319.94 1.55134 -0.277709 0
M  V30 13200 C 1320.88 2.20028 0.641913 0
M  V30 13201 C 1321.89 1.18578 1.11549 0
M  V30 13202 O 1323.08 1.45291 1.03695 0
M  V30 13203 C 1320.18 2.81443 1.88794 0
M  V30 13204 C 1319.35 4.08607 1.56074 0
M  V30 13205 C 1318.41 4.54045 2.6595 0
M  V30 13206 O 1317.44 5.19762 2.32026 0
M  V30 13207 N 1318.64 4.24403 3.96058 0
M  V30 13208 H 1321.4 2.99575 0.0864929 0
M  V30 13209 H 1318.96 1.61598 -0.0989178 0
M  V30 13210 H 1320.96 3.08784 2.616 0
M  V30 13211 H 1319.53 2.05873 2.35234 0
M  V30 13212 H 1318.75 3.88527 0.666388 0
M  V30 13213 H 1320.03 4.91455 1.31719 0
M  V30 13214 H 1319.43 3.71708 4.26439 0
M  V30 13215 H 1317.99 4.56509 4.65234 0
M  V30 13216 N 1321.42 0.00503138 1.57599 0
M  V30 13217 C 1322.35 -1.01302 2.05598 0
M  V30 13218 C 1323.37 -1.30388 0.974829 0
M  V30 13219 O 1324.56 -1.27275 1.25153 0
M  V30 13220 C 1321.66 -2.34654 2.44522 0
M  V30 13221 C 1320.83 -2.24436 3.7543 0
M  V30 13222 C 1319.89 -3.40517 4.01166 0
M  V30 13223 O 1318.91 -3.18479 4.71762 0
M  V30 13224 N 1320.12 -4.63532 3.49454 0
M  V30 13225 H 1322.88 -0.603656 2.93558 0
M  V30 13226 H 1320.44 -0.182248 1.60871 0
M  V30 13227 H 1322.43 -3.11093 2.5885 0
M  V30 13228 H 1321 -2.67315 1.62055 0
M  V30 13229 H 1320.22 -1.32875 3.71131 0
M  V30 13230 H 1321.51 -2.14786 4.61242 0
M  V30 13231 H 1320.91 -4.84334 2.92296 0
M  V30 13232 H 1319.47 -5.37221 3.69103 0
M  V30 13233 N 1322.9 -1.55308 -0.267798 0
M  V30 13234 C 1324.12 -1.80524 -1.02107 0
M  V30 13235 C 1324.55 -0.579268 -1.78958 0
M  V30 13236 O 1323.91 0.471262 -1.75068 0
M  V30 13237 C 1323.96 -3.03248 -1.95123 0
M  V30 13238 O 1323.06 -2.78699 -3.03975 0
M  V30 13239 H 1322.4 -0.596518 -0.291655 0
M  V30 13240 H 1324.93 -2.0246 -0.295128 0
M  V30 13241 H 1324.94 -3.32121 -2.3698 0
M  V30 13242 H 1323.62 -3.92126 -1.386 0
M  V30 13243 H 1322.19 -2.60936 -2.66396 0
M  V30 13244 N 1324.38 0.532545 -1.4833 0
M  V30 13245 C 1325.6 1.31809 -1.60129 0
M  V30 13246 C 1326.03 1.86283 -0.260807 0
M  V30 13247 O 1325.39 1.6427 0.767137 0
M  V30 13248 C 1325.43 2.44661 -2.64903 0
M  V30 13249 O 1324.54 3.47622 -2.21885 0
M  V30 13250 H 1323.88 0.390492 -0.53704 0
M  V30 13251 H 1326.41 0.641068 -1.94297 0
M  V30 13252 H 1326.42 2.90883 -2.86096 0
M  V30 13253 H 1325.09 2.04373 -3.62222 0
M  V30 13254 H 1323.67 3.07536 -2.10894 0
M  V30 13255 N 1325.86 1.36875 0.78122 0
M  V30 13256 C 1327.1 1.32949 1.55254 0
M  V30 13257 C 1327.46 -0.0879862 1.91798 0
M  V30 13258 O 1328.66 -0.251878 2.67617 0
M  V30 13259 C 1326.93 2.23382 2.78989 0
M  V30 13260 S 1328.49 2.37218 3.69152 0
M  V30 13261 H 1325.31 0.472105 0.531637 0
M  V30 13262 H 1327.91 1.72529 0.91945 0
M  V30 13263 H 1326.61 3.25307 2.50207 0
M  V30 13264 H 1326.15 1.84852 3.47266 0
M  V30 13265 H 1328.16 1.57575 4.70515 0
M  V30 13266 N 1327.33 -1.00632 1.21289 0
M  V30 13267 C 1328.28 -2.11502 0.96798 0
M  V30 13268 C 1329.28 -1.6919 -0.0843024 0
M  V30 13269 O 1330.48 -1.79875 0.06697 0
M  V30 13270 H 1326.86 -0.691398 0.295759 0
M  V30 13271 H 1328.83 -2.29337 1.90911 0
M  V30 13272 C 1327.58 -3.43357 0.547818 0
M  V30 13273 H 1326.9 -3.76348 1.34915 0
M  V30 13274 H 1328.34 -4.21957 0.415759 0
M  V30 13275 C 1326.8 -3.28648 -0.741086 0
M  V30 13276 O 1327.33 -3.59267 -1.79695 0
M  V30 13277 N 1325.53 -2.81866 -0.707084 0
M  V30 13278 H 1325.08 -2.57149 0.152447 0
M  V30 13279 H 1325.04 -2.72406 -1.56979 0
M  V30 13280 N 1328.81 -1.02043 -1.20104 0
M  V30 13281 C 1330.22 -0.742954 -1.71281 0
M  V30 13282 C 1330.57 0.738173 -1.81784 0
M  V30 13283 O 1329.7 1.57588 -1.48307 0
M  V30 13284 C 1330.29 -1.342 -3.11088 0
M  V30 13285 C 1328.85 -1.11331 -3.59559 0
M  V30 13286 C 1328 -1.44532 -2.36655 0
M  V30 13287 H 1330.95 -1.18942 -1.05064 0
M  V30 13288 H 1330.97 -0.734558 -3.73342 0
M  V30 13289 H 1330.48 -2.41998 -3.03411 0
M  V30 13290 H 1328.58 -0.05317 -3.72562 0
M  V30 13291 H 1328.7 -1.79606 -4.4416 0
M  V30 13292 H 1327.06 -0.864431 -2.39582 0
M  V30 13293 H 1327.84 -2.53394 -2.31616 0
M  V30 13294 N 1330.29 1.35952 -0.797165 0
M  V30 13295 C 1331.54 1.99327 -0.373695 0
M  V30 13296 C 1331.87 1.63111 1.05396 0
M  V30 13297 O 1331.14 0.889736 1.72956 0
M  V30 13298 C 1331.43 3.5593 -0.54641 0
M  V30 13299 C 1331.28 4.01975 -2.01832 0
M  V30 13300 C 1332.6 4.40087 0.0337694 0
M  V30 13301 H 1329.72 0.724107 -0.137254 0
M  V30 13302 H 1332.36 1.61248 -1.00495 0
M  V30 13303 H 1330.51 3.88499 -0.00903959 0
M  V30 13304 H 1332.18 3.79859 -2.61735 0
M  V30 13305 H 1330.43 3.5323 -2.51815 0
M  V30 13306 H 1331.1 5.109 -2.09009 0
M  V30 13307 H 1333.57 4.13923 -0.425039 0
M  V30 13308 H 1332.45 5.48775 -0.117054 0
M  V30 13309 H 1332.71 4.27504 1.12661 0
M  V30 13310 N 1331.77 0.549846 1.47697 0
M  V30 13311 C 1333 0.0276889 2.06881 0
M  V30 13312 C 1333.41 -1.26273 1.40359 0
M  V30 13313 O 1332.77 -1.75584 0.497644 0
M  V30 13314 C 1332.82 -0.179291 3.61055 0
M  V30 13315 O 1332.54 1.06002 4.25083 0
M  V30 13316 C 1334.04 -0.739571 4.37087 0
M  V30 13317 H 1331.26 0.0425016 0.669653 0
M  V30 13318 H 1333.81 0.761158 1.89807 0
M  V30 13319 H 1331.96 -0.862867 3.77668 0
M  V30 13320 H 1332.37 0.853137 5.17515 0
M  V30 13321 H 1333.85 -0.833722 5.45668 0
M  V30 13322 H 1334.33 -1.74915 4.02867 0
M  V30 13323 H 1334.93 -0.0919294 4.25201 0
M  V30 13324 N 1333.25 -1.54984 0.285932 0
M  V30 13325 C 1334.49 -1.99436 -0.32709 0
M  V30 13326 C 1334.82 -1.17582 -1.55562 0
M  V30 13327 O 1334.09 -0.268002 -1.94058 0
M  V30 13328 H 1332.67 -0.736662 -0.123846 0
M  V30 13329 H 1335.33 -1.90881 0.393774 0
M  V30 13330 H 1334.42 -3.0609 -0.609523 0
M  V30 13331 N 1334.72 -0.0133892 -1.57594 0
M  V30 13332 C 1335.66 1.00211 -2.06132 0
M  V30 13333 C 1336.67 1.29869 -0.98173 0
M  V30 13334 O 1337.86 1.2661 -1.25826 0
M  V30 13335 C 1334.96 2.33354 -2.45763 0
M  V30 13336 C 1334.13 2.22441 -3.76615 0
M  V30 13337 C 1333.19 3.38385 -4.02967 0
M  V30 13338 O 1332.22 3.15973 -4.73445 0
M  V30 13339 N 1333.42 4.61672 -3.51908 0
M  V30 13340 H 1336.18 0.588079 -2.93874 0
M  V30 13341 H 1333.74 0.173714 -1.60965 0
M  V30 13342 H 1335.74 3.09716 -2.60496 0
M  V30 13343 H 1334.31 2.66451 -1.6347 0
M  V30 13344 H 1333.53 1.30905 -3.7183 0
M  V30 13345 H 1334.81 2.12337 -4.62375 0
M  V30 13346 H 1334.21 4.82777 -2.9486 0
M  V30 13347 H 1332.77 5.35256 -3.71947 0
M  V30 13348 N 1336.2 1.55448 0.259558 0
M  V30 13349 C 1337.44 1.78444 0.996849 0
M  V30 13350 C 1337.81 0.580862 1.83003 0
M  V30 13351 O 1339.01 0.68934 2.59811 0
M  V30 13352 C 1337.28 3.06094 1.84502 0
M  V30 13353 S 1338.84 3.50263 2.64313 0
M  V30 13354 H 1335.66 0.626854 0.335523 0
M  V30 13355 H 1338.26 1.93683 0.265929 0
M  V30 13356 H 1336.96 3.91772 1.22241 0
M  V30 13357 H 1336.49 2.93558 2.61891 0
M  V30 13358 H 1338.51 3.10596 3.86968 0
M  V30 13359 N 1337.68 -0.524672 1.4861 0
M  V30 13360 C 1338.59 -1.65554 1.6622 0
M  V30 13361 C 1339.61 -1.65254 0.54471 0
M  V30 13362 O 1340.78 -1.84109 0.816454 0
M  V30 13363 C 1337.85 -3.02003 1.7028 0
M  V30 13364 C 1336.91 -3.13116 2.93695 0
M  V30 13365 C 1336.14 -4.43055 2.97553 0
M  V30 13366 O 1336.36 -5.30468 2.09667 0
M  V30 13367 O 1335.3 -4.58646 3.89779 0
M  V30 13368 H 1339.12 -1.53633 2.61974 0
M  V30 13369 H 1336.71 -0.698354 1.32073 0
M  V30 13370 H 1338.59 -3.83143 1.75441 0
M  V30 13371 H 1337.27 -3.14236 0.777002 0
M  V30 13372 H 1336.17 -2.31251 2.94064 0
M  V30 13373 H 1337.51 -3.058 3.85677 0
M  V30 13374 N 1339.16 -1.37287 -0.77395 0
M  V30 13375 C 1340.4 -1.33771 -1.54547 0
M  V30 13376 C 1340.76 0.0778134 -1.91842 0
M  V30 13377 O 1341.96 0.237682 -2.67747 0
M  V30 13378 C 1340.23 -2.24859 -2.77801 0
M  V30 13379 S 1341.79 -2.39172 -3.67889 0
M  V30 13380 H 1338.61 -0.474918 -0.529126 0
M  V30 13381 H 1341.21 -1.73015 -0.910287 0
M  V30 13382 H 1339.92 -3.2663 -2.48478 0
M  V30 13383 H 1339.45 -1.86691 -3.4628 0
M  V30 13384 H 1341.46 -1.60068 -4.69673 0
M  V30 13385 N 1340.64 0.999871 -1.21821 0
M  V30 13386 C 1341.57 2.10708 -1.00621 0
M  V30 13387 C 1342.55 1.69954 0.0705417 0
M  V30 13388 O 1343.73 1.9399 -0.0903042 0
M  V30 13389 C 1340.86 3.42496 -0.575646 0
M  V30 13390 C 1339.82 3.97068 -1.59754 0
M  V30 13391 C 1339.14 5.24822 -1.02304 0
M  V30 13392 C 1340.44 4.28545 -2.98574 0
M  V30 13393 H 1342.14 2.28701 -1.93226 0
M  V30 13394 H 1339.68 1.09903 -0.930443 0
M  V30 13395 H 1341.64 4.19357 -0.414481 0
M  V30 13396 H 1340.36 3.2431 0.386059 0
M  V30 13397 H 1339.02 3.22332 -1.74636 0
M  V30 13398 H 1338.67 5.02972 -0.0529016 0
M  V30 13399 H 1338.37 5.62299 -1.70567 0
M  V30 13400 H 1339.89 6.04322 -0.873312 0
M  V30 13401 H 1341.3 4.96229 -2.87106 0
M  V30 13402 H 1339.7 4.77178 -3.63897 0
M  V30 13403 H 1340.77 3.36607 -3.49032 0
M  V30 13404 N 1342.11 1.02678 1.19562 0
M  V30 13405 C 1343.53 0.752027 1.70884 0
M  V30 13406 C 1343.88 -0.728523 1.82173 0
M  V30 13407 O 1343 -1.56799 1.49141 0
M  V30 13408 C 1343.6 1.35848 3.10372 0
M  V30 13409 C 1342.16 1.13236 3.58963 0
M  V30 13410 C 1341.3 1.45785 2.35886 0
M  V30 13411 H 1344.25 1.19497 1.04432 0
M  V30 13412 H 1344.27 0.754347 3.72948 0
M  V30 13413 H 1343.79 2.43604 3.02124 0
M  V30 13414 H 1341.89 0.0729271 3.72529 0
M  V30 13415 H 1342 1.81959 4.43202 0
M  V30 13416 H 1340.36 0.877125 2.3912 0
M  V30 13417 H 1341.15 2.54619 2.30269 0
M  V30 13418 N 1343.59 -1.35528 0.804364 0
M  V30 13419 C 1344.54 -2.27241 0.18591 0
M  V30 13420 C 1345.53 -1.47669 -0.638956 0
M  V30 13421 O 1346.72 -1.69891 -0.496578 0
M  V30 13422 C 1343.85 -3.36769 -0.666446 0
M  V30 13423 C 1342.93 -4.23767 0.168027 0
M  V30 13424 N 1343.32 -4.90618 1.22994 0
M  V30 13425 C 1341.62 -4.45971 -0.0507088 0
M  V30 13426 C 1342.32 -5.55092 1.7392 0
M  V30 13427 N 1341.3 -5.33441 1.04601 0
M  V30 13428 H 1345.1 -2.7642 0.998467 0
M  V30 13429 H 1342.62 -1.49029 0.645301 0
M  V30 13430 H 1344.61 -4.01419 -1.12554 0
M  V30 13431 H 1343.27 -2.89143 -1.47738 0
M  V30 13432 H 1344.28 -4.92155 1.61256 0
M  V30 13433 H 1340.96 -4.09147 -0.830958 0
M  V30 13434 H 1342.35 -6.18434 2.62659 0
M  V30 13435 N 1345.07 -0.557671 -1.47404 0
M  V30 13436 C 1346.32 -0.0338384 -2.02772 0
M  V30 13437 C 1346.65 1.31278 -1.43107 0
M  V30 13438 O 1345.93 1.85436 -0.58682 0
M  V30 13439 C 1346.21 0.0587427 -3.60052 0
M  V30 13440 C 1346.06 -1.315 -4.30148 0
M  V30 13441 C 1347.38 0.771942 -4.33277 0
M  V30 13442 H 1344.5 -0.0137711 -0.736871 0
M  V30 13443 H 1347.14 -0.720049 -1.75827 0
M  V30 13444 H 1345.29 0.643154 -3.83139 0
M  V30 13445 H 1346.96 -1.94265 -4.184 0
M  V30 13446 H 1345.21 -1.88956 -3.90484 0
M  V30 13447 H 1345.88 -1.20294 -5.38733 0
M  V30 13448 H 1348.35 0.275729 -4.15185 0
M  V30 13449 H 1347.23 0.805683 -5.42955 0
M  V30 13450 H 1347.49 1.82816 -4.0253 0
M  V30 13451 N 1346.55 1.54831 -0.294147 0
M  V30 13452 C 1347.78 2.04411 0.319938 0
M  V30 13453 C 1348.19 1.17174 1.4804 0
M  V30 13454 O 1347.55 0.195881 1.81446 0
M  V30 13455 C 1347.6 3.52924 0.782751 0
M  V30 13456 O 1347.32 4.36844 -0.331512 0
M  V30 13457 C 1348.82 4.18474 1.4627 0
M  V30 13458 H 1346.04 0.667286 0.0704973 0
M  V30 13459 H 1348.59 1.9989 -0.431785 0
M  V30 13460 H 1346.74 3.57828 1.48451 0
M  V30 13461 H 1347.16 5.24493 0.0275743 0
M  V30 13462 H 1348.63 5.23933 1.73776 0
M  V30 13463 H 1349.11 3.67793 2.40052 0
M  V30 13464 H 1349.71 4.17626 0.804291 0
M  V30 13465 N 1348.03 0.0217466 1.57585 0
M  V30 13466 C 1349.28 -0.657187 1.91116 0
M  V30 13467 C 1349.6 -1.7309 0.898039 0
M  V30 13468 O 1348.87 -1.95803 -0.0615116 0
M  V30 13469 H 1347.45 -0.245732 0.705425 0
M  V30 13470 H 1350.11 0.0678096 1.94782 0
M  V30 13471 H 1349.2 -1.11462 2.91518 0
M  V30 13472 N 1349.51 -1.55583 -0.251311 0
M  V30 13473 C 1350.44 -1.86388 -1.33387 0
M  V30 13474 C 1351.45 -0.749829 -1.44504 0
M  V30 13475 O 1352.64 -1.0279 -1.45933 0
M  V30 13476 C 1349.74 -2.0311 -2.71293 0
M  V30 13477 C 1348.91 -3.33937 -2.82498 0
M  V30 13478 C 1347.97 -3.40455 -4.01219 0
M  V30 13479 O 1347 -4.13695 -3.90954 0
M  V30 13480 N 1348.2 -2.69427 -5.14188 0
M  V30 13481 H 1350.96 -2.79834 -1.07298 0
M  V30 13482 H 1348.53 -1.55766 -0.441418 0
M  V30 13483 H 1350.52 -2.04817 -3.49045 0
M  V30 13484 H 1349.09 -1.16429 -2.90109 0
M  V30 13485 H 1348.31 -3.44584 -1.91456 0
M  V30 13486 H 1349.6 -4.20176 -2.86931 0
M  V30 13487 H 1348.99 -2.09647 -5.25419 0
M  V30 13488 H 1347.55 -2.76832 -5.90091 0
M  V30 13489 N 1350.98 0.516783 -1.48886 0
M  V30 13490 C 1352.26 1.27808 -1.48069 0
M  V30 13491 C 1352.64 2.10154 -0.19963 0
M  V30 13492 O 1351.99 2.13342 0.818386 0
M  V30 13493 C 1352.2 2.14828 -2.75045 0
M  V30 13494 C 1353.55 2.74536 -3.23906 0
M  V30 13495 O 1354.57 2.25107 -2.76053 0
M  V30 13496 O 1353.43 3.6448 -4.07206 0
M  V30 13497 H 1350.52 0.577535 -0.591931 0
M  V30 13498 H 1353.07 0.532351 -1.61134 0
M  V30 13499 H 1351.84 1.53852 -3.59785 0
M  V30 13500 H 1351.46 2.96624 -2.64764 0
M  V30 13501 N 1352.46 1.37696 0.766659 0
M  V30 13502 C 1353.7 1.34588 1.53836 0
M  V30 13503 C 1354.07 -0.0676384 1.91881 0
M  V30 13504 O 1355.27 -0.223479 2.67869 0
M  V30 13505 C 1353.54 2.26329 2.76604 0
M  V30 13506 S 1355.1 2.4112 3.66615 0
M  V30 13507 H 1351.91 0.477717 0.5266 0
M  V30 13508 H 1354.52 1.73495 0.901099 0
M  V30 13509 H 1353.22 3.27943 2.46742 0
M  V30 13510 H 1352.75 1.88525 3.45285 0
M  V30 13511 H 1354.77 1.62556 4.68818 0
M  V30 13512 N 1353.94 -0.993397 1.22349 0
M  V30 13513 C 1355.19 -1.72945 1.04568 0
M  V30 13514 C 1355.51 -1.90419 -0.420178 0
M  V30 13515 O 1354.78 -1.46348 -1.30227 0
M  V30 13516 H 1353.36 -0.640777 0.383945 0
M  V30 13517 H 1356.02 -1.19647 1.53853 0
M  V30 13518 H 1355.12 -2.72411 1.52311 0
M  V30 13519 N 1355.42 -1.03311 -1.19015 0
M  V30 13520 C 1356.38 -0.622114 -2.20596 0
M  V30 13521 C 1357.38 0.316502 -1.57654 0
M  V30 13522 O 1358.57 0.102932 -1.73896 0
M  V30 13523 C 1355.7 0.0890432 -3.40784 0
M  V30 13524 H 1356.9 -1.52095 -2.58471 0
M  V30 13525 H 1354.45 -0.824777 -1.32767 0
M  V30 13526 H 1355.18 1.00203 -3.08431 0
M  V30 13527 H 1354.97 -0.58547 -3.87704 0
M  V30 13528 H 1356.46 0.363366 -4.16016 0
M  V30 13529 N 1356.9 1.35099 -0.81154 0
M  V30 13530 C 1358.14 2.00449 -0.399935 0
M  V30 13531 C 1358.5 1.62971 1.0151 0
M  V30 13532 O 1359.7 2.21078 1.52898 0
M  V30 13533 C 1357.97 3.52608 -0.583277 0
M  V30 13534 S 1359.53 4.38012 -0.26283 0
M  V30 13535 H 1356.35 0.69464 -0.151644 0
M  V30 13536 H 1358.95 1.64599 -1.05487 0
M  V30 13537 H 1357.65 3.77372 -1.61303 0
M  V30 13538 H 1357.19 3.93304 0.0868032 0
M  V30 13539 H 1359.2 4.87451 0.927696 0
M  V30 13540 N 1358.37 0.56548 1.47106 0
M  V30 13541 C 1359.65 -0.0215358 1.95588 0
M  V30 13542 C 1360.03 -1.47712 1.50813 0
M  V30 13543 O 1359.38 -2.15814 0.750776 0
M  V30 13544 C 1359.59 0.132552 3.48748 0
M  V30 13545 C 1360.94 -0.00853591 4.24599 0
M  V30 13546 O 1361.96 0.0605142 3.56149 0
M  V30 13547 O 1360.82 -0.158519 5.4627 0
M  V30 13548 H 1357.91 -0.0595011 0.824857 0
M  V30 13549 H 1360.46 0.632586 1.57469 0
M  V30 13550 H 1359.23 1.14511 3.7417 0
M  V30 13551 H 1358.85 -0.558801 3.93654 0
M  V30 13552 N 1359.85 -1.54672 0.302354 0
M  V30 13553 C 1361.26 -1.85731 -0.190019 0
M  V30 13554 C 1361.61 -1.22427 -1.53317 0
M  V30 13555 O 1360.74 -0.522461 -2.09998 0
M  V30 13556 C 1361.33 -3.36971 -0.351562 0
M  V30 13557 C 1359.89 -3.68056 -0.788155 0
M  V30 13558 C 1359.04 -2.7711 0.102705 0
M  V30 13559 H 1361.99 -1.49823 0.523324 0
M  V30 13560 H 1362.01 -3.61547 -1.18592 0
M  V30 13561 H 1361.52 -3.83016 0.626152 0
M  V30 13562 H 1359.63 -3.2753 -1.77637 0
M  V30 13563 H 1359.74 -4.75244 -0.606604 0
M  V30 13564 H 1358.1 -2.51243 -0.418235 0
M  V30 13565 H 1358.89 -3.25975 1.0768 0
M  V30 13566 N 1361.33 -0.0301034 -1.57571 0
M  V30 13567 C 1362.58 0.647042 -1.91462 0
M  V30 13568 C 1362.9 1.72612 -0.907206 0
M  V30 13569 O 1362.17 1.95833 0.0511268 0
M  V30 13570 H 1360.75 0.241988 -0.706718 0
M  V30 13571 H 1363.41 -0.0781385 -1.94743 0
M  V30 13572 H 1362.51 1.09915 -2.92105 0
M  V30 13573 N 1362.81 1.55714 0.243056 0
M  V30 13574 C 1364.06 1.77726 0.970555 0
M  V30 13575 C 1364.38 0.595108 1.85172 0
M  V30 13576 O 1363.64 -0.42143 1.91108 0
M  V30 13577 C 1363.94 3.05281 1.85845 0
M  V30 13578 C 1363.6 4.36451 1.13232 0
M  V30 13579 C 1362.27 4.72095 0.931656 0
M  V30 13580 C 1364.62 5.17524 0.617944 0
M  V30 13581 C 1361.95 5.86344 0.204373 0
M  V30 13582 C 1364.3 6.32527 -0.0958899 0
M  V30 13583 C 1362.96 6.66789 -0.308 0
M  V30 13584 H 1362.23 0.650345 0.355151 0
M  V30 13585 H 1364.88 1.89986 0.240351 0
M  V30 13586 H 1363.18 2.8805 2.65584 0
M  V30 13587 H 1364.88 3.19511 2.4231 0
M  V30 13588 H 1361.47 4.08451 1.29867 0
M  V30 13589 H 1365.65 4.90439 0.760507 0
M  V30 13590 H 1360.91 6.11393 0.0296 0
M  V30 13591 H 1365.08 6.94588 -0.502077 0
M  V30 13592 H 1362.71 7.55165 -0.873502 0
M  V30 13593 N 1364.29 -0.50888 1.49158 0
M  V30 13594 C 1365.52 -1.28585 1.61708 0
M  V30 13595 C 1365.92 -1.87047 0.284629 0
M  V30 13596 O 1365.27 -1.68182 -0.738959 0
M  V30 13597 C 1365.33 -2.46043 2.62113 0
M  V30 13598 C 1364.99 -2.0851 4.0666 0
M  V30 13599 C 1365.99 -1.62943 4.93706 0
M  V30 13600 C 1363.68 -2.18386 4.52342 0
M  V30 13601 C 1365.67 -1.27747 6.24467 0
M  V30 13602 C 1363.36 -1.82801 5.83118 0
M  V30 13603 C 1364.35 -1.37555 6.69005 0
M  V30 13604 O 1364.04 -1.02447 7.97345 0
M  V30 13605 H 1363.77 -0.396504 0.547504 0
M  V30 13606 H 1366.33 -0.61834 1.95872 0
M  V30 13607 H 1364.56 -3.15844 2.23113 0
M  V30 13608 H 1366.25 -3.08081 2.64275 0
M  V30 13609 H 1367.01 -1.54766 4.59644 0
M  V30 13610 H 1362.89 -2.52556 3.85664 0
M  V30 13611 H 1366.44 -0.923589 6.91459 0
M  V30 13612 H 1362.33 -1.90626 6.16711 0
M  V30 13613 H 1363.1 -1.15663 8.10287 0
M  V30 13614 N 1365.76 -1.381 -0.759346 0
M  V30 13615 C 1366.71 -1.34972 -1.89434 0
M  V30 13616 C 1367.71 -0.236499 -1.67741 0
M  V30 13617 O 1368.91 -0.405218 -1.7538 0
M  V30 13618 H 1365.29 -0.420922 -0.62316 0
M  V30 13619 H 1367.26 -2.3076 -1.89189 0
M  V30 13620 C 1366.01 -1.18594 -3.2685 0
M  V30 13621 H 1365.33 -2.03514 -3.44125 0
M  V30 13622 H 1366.77 -1.20458 -4.06529 0
M  V30 13623 C 1365.23 0.107562 -3.36728 0
M  V30 13624 O 1365.76 1.08668 -3.86722 0
M  V30 13625 N 1363.97 0.162455 -2.90146 0
M  V30 13626 H 1363.51 -0.634985 -2.49651 0
M  V30 13627 H 1363.47 1.02751 -2.97136 0
M  V30 13628 N 1367.24 0.986894 -1.22875 0
M  V30 13629 C 1368.17 2.09628 -1.0285 0
M  V30 13630 C 1369.15 1.70019 0.0525118 0
M  V30 13631 O 1370.34 1.93883 -0.110874 0
M  V30 13632 C 1367.47 3.41866 -0.61194 0
M  V30 13633 C 1366.42 3.95351 -1.63956 0
M  V30 13634 C 1365.75 5.23707 -1.07865 0
M  V30 13635 C 1367.05 4.25354 -3.03102 0
M  V30 13636 H 1368.74 2.26639 -1.95641 0
M  V30 13637 H 1366.29 1.0891 -0.942048 0
M  V30 13638 H 1368.24 4.18893 -0.458936 0
M  V30 13639 H 1366.97 3.24701 0.35164 0
M  V30 13640 H 1365.62 3.20462 -1.78045 0
M  V30 13641 H 1365.27 5.02888 -0.106246 0
M  V30 13642 H 1364.97 5.60459 -1.76522 0
M  V30 13643 H 1366.5 6.03362 -0.937359 0
M  V30 13644 H 1367.91 4.93156 -2.92353 0
M  V30 13645 H 1366.31 4.73292 -3.68938 0
M  V30 13646 H 1367.38 3.32887 -3.52583 0
M  V30 13647 N 1368.72 1.0394 1.18466 0
M  V30 13648 C 1369.65 0.587413 2.21545 0
M  V30 13649 C 1370.67 -0.34227 1.59161 0
M  V30 13650 O 1371.85 -0.136988 1.77974 0
M  V30 13651 C 1368.95 -0.161999 3.38513 0
M  V30 13652 C 1368.13 0.775243 4.30475 0
M  V30 13653 C 1367.19 0.0693526 5.26154 0
M  V30 13654 O 1366.21 0.69937 5.64887 0
M  V30 13655 N 1367.41 -1.19773 5.68009 0
M  V30 13656 H 1370.18 1.47399 2.60948 0
M  V30 13657 H 1367.74 0.919734 1.33239 0
M  V30 13658 H 1369.73 -0.644041 3.99542 0
M  V30 13659 H 1368.3 -0.950099 2.97812 0
M  V30 13660 H 1367.52 1.43717 3.67068 0
M  V30 13661 H 1368.81 1.41187 4.88819 0
M  V30 13662 H 1368.21 -1.73013 5.38593 0
M  V30 13663 H 1366.77 -1.62407 6.31243 0
M  V30 13664 N 1370.2 -1.34667 0.818693 0
M  V30 13665 C 1371.42 -2.03173 0.416585 0
M  V30 13666 C 1371.85 -1.61261 -0.968321 0
M  V30 13667 O 1371.21 -0.79517 -1.62932 0
M  V30 13668 C 1371.25 -3.56803 0.521884 0
M  V30 13669 O 1370.36 -4.09827 -0.459953 0
M  V30 13670 H 1369.7 -0.6413 0.172136 0
M  V30 13671 H 1372.23 -1.72006 1.10794 0
M  V30 13672 H 1372.24 -4.06073 0.3961 0
M  V30 13673 H 1370.91 -3.86656 1.53198 0
M  V30 13674 H 1369.49 -3.71744 -0.293405 0
M  V30 13675 N 1371.68 -0.573274 -1.46804 0
M  V30 13676 C 1372.92 -0.0551522 -2.02025 0
M  V30 13677 C 1373.25 1.30577 -1.44826 0
M  V30 13678 O 1372.52 1.85514 -0.629403 0
M  V30 13679 H 1371.1 -0.0173982 -0.746797 0
M  V30 13680 H 1373.76 -0.746919 -1.8002 0
M  V30 13681 H 1372.85 0.0209326 -3.12093 0
M  V30 13682 N 1373.15 1.5451 -0.310553 0
M  V30 13683 C 1374.09 2.2134 0.595098 0
M  V30 13684 C 1375.1 1.20917 1.09009 0
M  V30 13685 O 1376.29 1.47458 1.0059 0
M  V30 13686 C 1373.39 2.85384 1.82782 0
M  V30 13687 C 1372.56 4.11826 1.47372 0
M  V30 13688 C 1371.62 4.59584 2.56259 0
M  V30 13689 O 1370.65 5.24567 2.20949 0
M  V30 13690 N 1371.85 4.32709 3.86967 0
M  V30 13691 H 1374.61 2.99691 0.0229291 0
M  V30 13692 H 1372.17 1.61351 -0.133173 0
M  V30 13693 H 1374.17 3.14263 2.54992 0
M  V30 13694 H 1372.74 2.10816 2.30815 0
M  V30 13695 H 1371.96 3.89853 0.583826 0
M  V30 13696 H 1373.24 4.94138 1.21265 0
M  V30 13697 H 1372.64 3.80669 4.18458 0
M  V30 13698 H 1371.2 4.66275 4.55446 0
M  V30 13699 N 1374.63 0.0384594 1.57553 0
M  V30 13700 C 1375.88 -0.636879 1.91803 0
M  V30 13701 C 1376.2 -1.72128 0.916347 0
M  V30 13702 O 1375.47 -1.95858 -0.0407405 0
M  V30 13703 H 1374.05 -0.238237 0.707992 0
M  V30 13704 H 1376.71 0.0884651 1.94699 0
M  V30 13705 H 1375.81 -1.08364 2.92683 0
M  V30 13706 N 1376.11 -1.55841 -0.234795 0
M  V30 13707 C 1377.35 -1.80007 -0.968334 0
M  V30 13708 C 1377.72 -0.609903 -1.82055 0
M  V30 13709 O 1378.92 -0.730586 -2.58681 0
M  V30 13710 C 1377.19 -3.08991 -1.79609 0
M  V30 13711 S 1378.75 -3.54423 -2.58707 0
M  V30 13712 H 1375.56 -0.632112 -0.325508 0
M  V30 13713 H 1378.17 -1.94081 -0.235082 0
M  V30 13714 H 1376.87 -3.93667 -1.15993 0
M  V30 13715 H 1376.4 -2.97688 -2.57188 0
M  V30 13716 H 1378.42 -3.16713 -3.81978 0
M  V30 13717 N 1377.59 0.500963 -1.49426 0
M  V30 13718 C 1378.5 1.62889 -1.68833 0
M  V30 13719 C 1379.52 1.64367 -0.570932 0
M  V30 13720 O 1380.69 1.82786 -0.845641 0
M  V30 13721 C 1377.76 2.99255 -1.75063 0
M  V30 13722 C 1376.82 3.08404 -2.9864 0
M  V30 13723 C 1376.05 4.38266 -3.04564 0
M  V30 13724 O 1376.27 5.27065 -2.1808 0
M  V30 13725 O 1375.21 4.52387 -3.97026 0
M  V30 13726 H 1379.03 1.49446 -2.64385 0
M  V30 13727 H 1376.62 0.677254 -1.33168 0
M  V30 13728 H 1378.5 3.80303 -1.81515 0
M  V30 13729 H 1377.18 3.1296 -0.826896 0
M  V30 13730 H 1376.08 2.26544 -2.97706 0
M  V30 13731 H 1377.42 2.99626 -3.90494 0
M  V30 13732 N 1379.07 1.38501 0.752011 0
M  V30 13733 C 1380.48 1.19733 1.05529 0
M  V30 13734 C 1380.68 0.047088 2.01445 0
M  V30 13735 O 1379.74 -0.606645 2.45104 0
M  V30 13736 C 1381.05 2.52439 1.63386 0
M  V30 13737 C 1382.6 2.59136 1.7555 0
M  V30 13738 C 1383.08 3.92022 2.36819 0
M  V30 13739 N 1384.57 3.9357 2.44248 0
M  V30 13740 C 1385.3 4.93154 2.92553 0
M  V30 13741 N 1384.8 6.03135 3.40882 0
M  V30 13742 N 1386.59 4.80543 2.91607 0
M  V30 13743 H 1378.74 2.12085 0.115543 0
M  V30 13744 H 1381 0.941134 0.113888 0
M  V30 13745 H 1380.71 3.37072 1.00376 0
M  V30 13746 H 1380.58 2.70947 2.62427 0
M  V30 13747 H 1382.97 1.74897 2.37687 0
M  V30 13748 H 1383.05 2.44494 0.752092 0
M  V30 13749 H 1382.7 4.76684 1.75314 0
M  V30 13750 H 1382.63 4.03976 3.37803 0
M  V30 13751 H 1385.12 3.14133 2.10068 0
M  V30 13752 H 1385.43 6.7505 3.76201 0
M  V30 13753 H 1383.78 6.06752 3.38935 0
M  V30 13754 H 1386.97 3.93733 2.53163 0
M  V30 13755 H 1387.14 5.58303 3.28941 0
M  V30 13756 N 1380.55 -0.980364 1.23396 0
M  V30 13757 C 1381.79 -1.73674 1.07781 0
M  V30 13758 C 1382.15 -1.88227 -0.378759 0
M  V30 13759 O 1383.35 -2.6067 -0.656092 0
M  V30 13760 C 1381.62 -3.09727 1.78337 0
M  V30 13761 S 1383.18 -4.00944 1.78295 0
M  V30 13762 H 1380 -0.597273 0.385728 0
M  V30 13763 H 1382.6 -1.17123 1.56533 0
M  V30 13764 H 1381.3 -2.96786 2.83455 0
M  V30 13765 H 1380.84 -3.71346 1.29868 0
M  V30 13766 H 1382.85 -4.89011 0.841572 0
M  V30 13767 N 1382.02 -1.04567 -1.17913 0
M  V30 13768 C 1383.3 -0.666082 -1.8391 0
M  V30 13769 C 1383.68 0.854062 -1.93052 0
M  V30 13770 O 1383.03 1.75752 -1.46026 0
M  V30 13771 C 1383.24 -1.34776 -3.21926 0
M  V30 13772 C 1384.59 -1.48177 -3.97905 0
M  V30 13773 O 1385.61 -1.30627 -3.31384 0
M  V30 13774 O 1384.47 -1.76822 -5.17104 0
M  V30 13775 H 1381.56 -0.233694 -0.793294 0
M  V30 13776 H 1384.11 -1.14487 -1.25263 0
M  V30 13777 H 1382.88 -2.38514 -3.10204 0
M  V30 13778 H 1382.5 -0.857914 -3.88234 0
M  V30 13779 N 1383.5 1.34231 -0.825823 0
M  V30 13780 C 1384.74 2.00014 -0.421173 0
M  V30 13781 C 1385.11 1.64039 0.997759 0
M  V30 13782 O 1386.31 2.22688 1.50545 0
M  V30 13783 C 1384.58 3.5197 -0.620643 0
M  V30 13784 S 1386.14 4.37709 -0.309272 0
M  V30 13785 H 1382.95 0.692993 -0.159003 0
M  V30 13786 H 1385.56 1.63471 -1.07227 0
M  V30 13787 H 1384.26 3.7564 -1.65296 0
M  V30 13788 H 1383.79 3.93374 0.0450832 0
M  V30 13789 H 1385.81 4.88407 0.875943 0
M  V30 13790 N 1384.98 0.581051 1.46498 0
M  V30 13791 C 1385.93 -0.174031 2.27335 0
M  V30 13792 C 1386.91 -0.863391 1.35773 0
M  V30 13793 O 1388.11 -0.75776 1.59959 0
M  V30 13794 C 1385.23 -1.18814 3.22084 0
M  V30 13795 C 1384.32 -0.500978 4.21131 0
M  V30 13796 N 1384.71 0.442495 5.03861 0
M  V30 13797 C 1383.01 -0.751932 4.39616 0
M  V30 13798 C 1383.71 0.843944 5.75545 0
M  V30 13799 N 1382.69 0.19346 5.43256 0
M  V30 13800 H 1386.49 0.551004 2.88689 0
M  V30 13801 H 1384 0.402722 1.57327 0
M  V30 13802 H 1386 -1.74325 3.78703 0
M  V30 13803 H 1384.66 -1.91401 2.62289 0
M  V30 13804 H 1385.67 0.817931 5.114 0
M  V30 13805 H 1382.35 -1.46451 3.90971 0
M  V30 13806 H 1383.74 1.62058 6.52063 0
M  V30 13807 N 1386.46 -1.54343 0.318742 0
M  V30 13808 C 1387.42 -2.22828 -0.536679 0
M  V30 13809 C 1388.42 -1.22013 -1.04735 0
M  V30 13810 O 1389.61 -1.46626 -0.940549 0
M  V30 13811 C 1386.74 -2.92857 -1.74493 0
M  V30 13812 H 1387.94 -2.99836 0.0619325 0
M  V30 13813 H 1385.49 -1.56144 0.0697687 0
M  V30 13814 H 1386.22 -2.19973 -2.3829 0
M  V30 13815 H 1386.01 -3.66779 -1.38621 0
M  V30 13816 H 1387.5 -3.45049 -2.35225 0
M  V30 13817 N 1387.94 -0.0468143 -1.5753 0
M  V30 13818 C 1388.87 0.927092 -2.14306 0
M  V30 13819 C 1389.85 1.32745 -1.06362 0
M  V30 13820 O 1391.03 1.40293 -1.34281 0
M  V30 13821 C 1388.16 2.20343 -2.68452 0
M  V30 13822 C 1387.12 1.94328 -3.81341 0
M  V30 13823 C 1386.44 3.28379 -4.21985 0
M  V30 13824 C 1387.74 1.26835 -5.06666 0
M  V30 13825 H 1389.44 0.454199 -2.95935 0
M  V30 13826 H 1386.98 0.217029 -1.42355 0
M  V30 13827 H 1388.93 2.8887 -3.0681 0
M  V30 13828 H 1387.66 2.6983 -1.84009 0
M  V30 13829 H 1386.32 1.28214 -3.43448 0
M  V30 13830 H 1385.97 3.75658 -3.34499 0
M  V30 13831 H 1385.67 3.11772 -4.98068 0
M  V30 13832 H 1387.19 3.98145 -4.6294 0
M  V30 13833 H 1388.6 1.85389 -5.42498 0
M  V30 13834 H 1387 1.20569 -5.87863 0
M  V30 13835 H 1388.07 0.243759 -4.84287 0
M  V30 13836 N 1389.41 1.55964 0.226527 0
M  V30 13837 C 1390.66 1.78392 0.94977 0
M  V30 13838 C 1390.98 0.614444 1.85066 0
M  V30 13839 O 1390.25 -0.368894 1.92395 0
M  V30 13840 H 1388.83 0.657962 0.353688 0
M  V30 13841 H 1391.5 1.93422 0.239577 0
M  V30 13842 H 1390.59 2.70343 1.55952 0
M  V30 13843 N 1390.89 -0.493031 1.4969 0
M  V30 13844 C 1392.12 -1.27517 1.63567 0
M  V30 13845 C 1392.54 -1.85526 0.310105 0
M  V30 13846 O 1391.9 -1.66246 -0.723314 0
M  V30 13847 C 1391.95 -2.37551 2.71296 0
M  V30 13848 O 1391.05 -3.41617 2.31023 0
M  V30 13849 H 1390.39 -0.376116 0.547205 0
M  V30 13850 H 1392.92 -0.589328 1.95929 0
M  V30 13851 H 1392.93 -2.83196 2.93708 0
M  V30 13852 H 1391.61 -1.94697 3.67513 0
M  V30 13853 H 1390.19 -3.01836 2.18974 0
M  V30 13854 N 1392.37 -1.38898 -0.744656 0
M  V30 13855 C 1393.6 -1.38848 -1.53391 0
M  V30 13856 C 1394.01 0.0194949 -1.8879 0
M  V30 13857 O 1393.37 0.988399 -1.53417 0
M  V30 13858 C 1393.42 -2.25243 -2.8275 0
M  V30 13859 O 1393.14 -3.60557 -2.48858 0
M  V30 13860 C 1394.64 -2.33471 -3.76837 0
M  V30 13861 H 1391.86 -0.4746 -0.474338 0
M  V30 13862 H 1394.41 -1.82591 -0.920902 0
M  V30 13863 H 1392.56 -1.84938 -3.40407 0
M  V30 13864 H 1392.98 -4.06142 -3.31887 0
M  V30 13865 H 1394.45 -2.9819 -4.64528 0
M  V30 13866 H 1394.93 -1.351 -4.17905 0
M  V30 13867 H 1395.53 -2.74205 -3.25103 0
M  V30 13868 N 1393.85 0.973806 -1.23914 0
M  V30 13869 C 1394.8 2.08861 -1.02372 0
M  V30 13870 C 1395.79 1.69354 0.039415 0
M  V30 13871 O 1397 1.79635 -0.114637 0
M  V30 13872 H 1393.37 0.683313 -0.313986 0
M  V30 13873 H 1395.34 2.24195 -1.96924 0
M  V30 13874 C 1394.09 3.41784 -0.638661 0
M  V30 13875 H 1393.41 3.72639 -1.44846 0
M  V30 13876 H 1394.85 4.20706 -0.527487 0
M  V30 13877 C 1393.31 3.30497 0.65369 0
M  V30 13878 O 1393.84 3.63905 1.70107 0
M  V30 13879 N 1392.05 2.83642 0.632104 0
M  V30 13880 H 1391.6 2.56654 -0.220571 0
M  V30 13881 H 1391.55 2.76472 1.49701 0
M  V30 13882 N 1395.33 1.05191 1.17357 0
M  V30 13883 C 1396.57 0.760479 1.87246 0
M  V30 13884 C 1396.9 -0.714618 1.81434 0
M  V30 13885 O 1396.17 -1.51636 1.24029 0
M  V30 13886 H 1394.75 0.278317 0.693216 0
M  V30 13887 H 1397.41 1.33106 1.42369 0
M  V30 13888 H 1396.5 1.07542 2.92987 0
M  V30 13889 N 1396.8 -1.33791 0.83293 0
M  V30 13890 C 1397.74 -2.28148 0.219336 0
M  V30 13891 C 1398.75 -1.51477 -0.596529 0
M  V30 13892 O 1399.94 -1.73377 -0.424571 0
M  V30 13893 C 1397.04 -3.31373 -0.710305 0
M  V30 13894 C 1396.21 -4.37352 0.0649215 0
M  V30 13895 C 1395.27 -5.20279 -0.78716 0
M  V30 13896 O 1394.3 -5.68741 -0.228511 0
M  V30 13897 N 1395.5 -5.40973 -2.10544 0
M  V30 13898 H 1398.26 -2.81443 1.03004 0
M  V30 13899 H 1395.82 -1.46421 0.690831 0
M  V30 13900 H 1397.82 -3.83752 -1.28517 0
M  V30 13901 H 1396.39 -2.78398 -1.42173 0
M  V30 13902 H 1395.61 -3.85553 0.821144 0
M  V30 13903 H 1396.89 -5.05271 0.598199 0
M  V30 13904 H 1396.29 -5.03291 -2.58292 0
M  V30 13905 H 1394.85 -5.96432 -2.62893 0
M  V30 13906 N 1398.28 -0.588812 -1.46187 0
M  V30 13907 C 1399.52 -0.0794904 -2.04245 0
M  V30 13908 C 1399.89 1.25893 -1.44965 0
M  V30 13909 O 1401.09 1.85785 -1.94261 0
M  V30 13910 C 1399.36 -0.0210846 -3.57394 0
M  V30 13911 S 1400.92 0.429775 -4.3669 0
M  V30 13912 H 1397.74 -0.0404337 -0.709849 0
M  V30 13913 H 1400.34 -0.782686 -1.79149 0
M  V30 13914 H 1399.04 -0.999032 -3.98055 0
M  V30 13915 H 1398.57 0.704691 -3.87037 0
M  V30 13916 H 1400.59 1.68327 -4.66777 0
M  V30 13917 N 1399.76 1.54172 -0.326923 0
M  V30 13918 C 1401.04 1.92812 0.329078 0
M  V30 13919 C 1401.42 1.25687 1.69605 0
M  V30 13920 O 1400.77 0.401779 2.2494 0
M  V30 13921 C 1400.98 3.46488 0.417949 0
M  V30 13922 C 1402.32 4.19174 0.67665 0
M  V30 13923 O 1403.35 3.52663 0.500735 0
M  V30 13924 O 1402.21 5.36968 1.01625 0
M  V30 13925 H 1399.3 0.805214 0.188573 0
M  V30 13926 H 1401.85 1.65462 -0.376884 0
M  V30 13927 H 1400.62 3.87528 -0.541986 0
M  V30 13928 H 1400.24 3.79954 1.17136 0
M  V30 13929 N 1401.24 0.0551678 1.57503 0
M  V30 13930 C 1402.49 -0.617201 1.92025 0
M  V30 13931 C 1402.8 -1.71767 0.93571 0
M  V30 13932 O 1404.01 -2.44847 1.17312 0
M  V30 13933 C 1402.46 -1.14915 3.41061 0
M  V30 13934 C 1402.07 -0.0805814 4.47928 0
M  V30 13935 C 1403.81 -1.79654 3.8461 0
M  V30 13936 C 1401.72 -0.625639 5.88081 0
M  V30 13937 H 1400.65 -0.23431 0.716669 0
M  V30 13938 H 1403.3 0.124706 1.83076 0
M  V30 13939 H 1401.68 -1.9435 3.45028 0
M  V30 13940 H 1402.86 0.693222 4.55556 0
M  V30 13941 H 1401.17 0.469581 4.13744 0
M  V30 13942 H 1403.77 -2.21436 4.86693 0
M  V30 13943 H 1404.11 -2.64987 3.21073 0
M  V30 13944 H 1404.65 -1.06868 3.83176 0
M  V30 13945 H 1401.39 0.190148 6.55224 0
M  V30 13946 H 1400.91 -1.36734 5.84007 0
M  V30 13947 H 1402.58 -1.10728 6.37454 0
M  V30 13948 N 1402.72 -1.56081 -0.218252 0
M  V30 13949 C 1404.13 -1.49147 -0.568098 0
M  V30 13950 C 1404.33 -0.750893 -1.86986 0
M  V30 13951 O 1403.39 -0.291904 -2.50807 0
M  V30 13952 C 1404.7 -2.93717 -0.644272 0
M  V30 13953 C 1406.25 -3.04256 -0.734677 0
M  V30 13954 C 1406.72 -4.50191 -0.842167 0
M  V30 13955 N 1408.22 -4.54247 -0.906302 0
M  V30 13956 C 1408.95 -5.64448 -1.00924 0
M  V30 13957 N 1408.45 -6.84394 -1.07592 0
M  V30 13958 N 1410.24 -5.52308 -1.04463 0
M  V30 13959 H 1402.39 -2.02656 0.635935 0
M  V30 13960 H 1404.65 -0.921262 0.223563 0
M  V30 13961 H 1404.36 -3.50861 0.242721 0
M  V30 13962 H 1404.23 -3.45798 -1.50678 0
M  V30 13963 H 1406.62 -2.47174 -1.61211 0
M  V30 13964 H 1406.7 -2.55339 0.153563 0
M  V30 13965 H 1406.35 -5.07891 0.0308214 0
M  V30 13966 H 1406.28 -4.96817 -1.74587 0
M  V30 13967 H 1408.77 -3.67868 -0.864954 0
M  V30 13968 H 1409.08 -7.6413 -1.15433 0
M  V30 13969 H 1407.42 -6.87099 -1.045 0
M  V30 13970 H 1410.62 -4.57528 -0.989218 0
M  V30 13971 H 1410.79 -6.38223 -1.1214 0
M  V30 13972 N 1404.2 0.485086 -1.49949 0
M  V30 13973 C 1405.42 1.26179 -1.63971 0
M  V30 13974 C 1405.84 1.86113 -0.317408 0
M  V30 13975 O 1405.2 1.68581 0.699038 0
M  V30 13976 C 1405.25 2.38062 -2.72046 0
M  V30 13977 O 1404.97 1.80588 -3.99149 0
M  V30 13978 C 1406.47 3.29174 -2.96916 0
M  V30 13979 H 1403.69 0.382122 -0.551565 0
M  V30 13980 H 1406.23 0.580607 -1.96085 0
M  V30 13981 H 1404.39 3.0198 -2.42666 0
M  V30 13982 H 1404.8 2.54159 -4.58807 0
M  V30 13983 H 1406.28 4.03922 -3.76233 0
M  V30 13984 H 1406.75 3.87123 -2.07443 0
M  V30 13985 H 1407.36 2.71006 -3.27774 0
M  V30 13986 N 1405.67 1.39291 0.737279 0
M  V30 13987 C 1406.92 1.36121 1.49384 0
M  V30 13988 C 1407.24 -0.0429406 1.94953 0
M  V30 13989 O 1406.51 -0.993756 1.68823 0
M  V30 13990 H 1405.09 0.500916 0.554159 0
M  V30 13991 H 1407.75 1.74134 0.875402 0
M  V30 13992 H 1406.85 2.02246 2.37704 0
M  V30 13993 N 1407.15 -0.967221 1.24429 0
M  V30 13994 C 1408.08 -2.06479 0.994946 0
M  V30 13995 C 1409.1 -1.62761 -0.0357582 0
M  V30 13996 O 1410.29 -1.77361 0.201336 0
M  V30 13997 C 1407.39 -3.35487 0.479736 0
M  V30 13998 C 1406.56 -4.0811 1.57368 0
M  V30 13999 C 1405.62 -5.15392 1.06104 0
M  V30 14000 O 1404.64 -5.41539 1.75283 0
M  V30 14001 N 1405.85 -5.80406 -0.104288 0
M  V30 14002 H 1408.61 -2.28443 1.93995 0
M  V30 14003 H 1406.17 -1.13488 1.15465 0
M  V30 14004 H 1408.16 -4.04517 0.121528 0
M  V30 14005 H 1406.73 -3.1039 -0.371012 0
M  V30 14006 H 1405.95 -3.33351 2.10406 0
M  V30 14007 H 1407.24 -4.53391 2.30897 0
M  V30 14008 H 1406.64 -5.61566 -0.682638 0
M  V30 14009 H 1405.2 -6.50549 -0.403638 0
M  V30 14010 N 1408.63 -1.05812 -1.16797 0
M  V30 14011 C 1409.87 -0.781055 -1.88889 0
M  V30 14012 C 1410.23 0.679797 -1.79563 0
M  V30 14013 O 1411.43 1.07124 -2.46532 0
M  V30 14014 C 1409.71 -1.25598 -3.34604 0
M  V30 14015 S 1411.26 -1.10724 -4.24601 0
M  V30 14016 H 1408.08 -0.28347 -0.652047 0
M  V30 14017 H 1410.68 -1.35404 -1.41018 0
M  V30 14018 H 1409.39 -2.31421 -3.38928 0
M  V30 14019 H 1408.92 -0.677541 -3.87522 0
M  V30 14020 H 1410.93 -0.0351807 -4.96188 0
M  V30 14021 N 1410.11 1.33347 -0.840014 0
M  V30 14022 C 1411.02 2.32965 -0.276527 0
M  V30 14023 C 1412.03 1.634 0.598037 0
M  V30 14024 O 1413.21 1.95046 0.501888 0
M  V30 14025 C 1410.27 3.42498 0.53816 0
M  V30 14026 C 1409.34 4.27781 -0.360814 0
M  V30 14027 C 1408.57 5.32083 0.415085 0
M  V30 14028 O 1408.79 5.46115 1.64666 0
M  V30 14029 O 1407.73 6.01528 -0.211503 0
M  V30 14030 H 1411.55 2.83022 -1.10147 0
M  V30 14031 H 1409.14 1.3671 -0.602566 0
M  V30 14032 H 1411.02 4.09336 1.00108 0
M  V30 14033 H 1409.69 2.94655 1.34015 0
M  V30 14034 H 1408.6 3.63805 -0.871598 0
M  V30 14035 H 1409.93 4.7911 -1.1276 0
M  V30 14036 N 1411.59 0.596556 1.45873 0
M  V30 14037 C 1412.83 0.090321 2.042 0
M  V30 14038 C 1413.19 -1.25123 1.45631 0
M  V30 14039 O 1414.39 -1.84752 1.95243 0
M  V30 14040 C 1412.66 0.0400377 3.57378 0
M  V30 14041 S 1414.22 -0.40661 4.36912 0
M  V30 14042 H 1411.04 0.0441976 0.709625 0
M  V30 14043 H 1413.64 0.792175 1.78731 0
M  V30 14044 H 1412.34 1.02013 3.97519 0
M  V30 14045 H 1411.88 -0.684156 3.87405 0
M  V30 14046 H 1413.89 -1.65849 4.67663 0
M  V30 14047 N 1413.06 -1.53996 0.335095 0
M  V30 14048 C 1414 -2.22258 -0.559809 0
M  V30 14049 C 1415.01 -1.22636 -1.07071 0
M  V30 14050 O 1416.2 -1.4904 -0.982312 0
M  V30 14051 C 1413.3 -2.88256 -1.78218 0
M  V30 14052 C 1412.47 -4.14118 -1.40801 0
M  V30 14053 C 1411.53 -4.63603 -2.48915 0
M  V30 14054 O 1410.56 -5.28015 -2.12576 0
M  V30 14055 N 1411.76 -4.3881 -3.80034 0
M  V30 14056 H 1414.52 -2.9969 0.0247521 0
M  V30 14057 H 1412.08 -1.61119 0.158826 0
M  V30 14058 H 1414.08 -3.1828 -2.4996 0
M  V30 14059 H 1412.65 -2.14461 -2.27431 0
M  V30 14060 H 1411.87 -3.90732 -0.521729 0
M  V30 14061 H 1413.15 -4.96005 -1.13388 0
M  V30 14062 H 1412.55 -3.87278 -4.12349 0
M  V30 14063 H 1411.11 -4.73461 -4.47971 0
M  V30 14064 N 1414.54 -0.0635198 -1.57472 0
M  V30 14065 C 1415.95 0.470372 -1.80678 0
M  V30 14066 C 1416.3 1.70158 -0.976771 0
M  V30 14067 O 1415.43 2.15502 -0.196893 0
M  V30 14068 C 1416.02 0.860129 -3.277 0
M  V30 14069 C 1414.58 1.33893 -3.51781 0
M  V30 14070 C 1413.73 0.320078 -2.75447 0
M  V30 14071 H 1416.68 -0.289295 -1.56041 0
M  V30 14072 H 1416.7 1.72216 -3.39296 0
M  V30 14073 H 1416.21 -0.0361525 -3.88083 0
M  V30 14074 H 1414.31 2.25399 -2.96692 0
M  V30 14075 H 1414.43 1.32257 -4.60483 0
M  V30 14076 H 1412.79 0.795601 -2.41955 0
M  V30 14077 H 1413.57 -0.568332 -3.38563 0
M  V30 14078 N 1416.02 1.56195 0.209972 0
M  V30 14079 C 1417.27 1.7939 0.930796 0
M  V30 14080 C 1417.59 0.634038 1.84404 0
M  V30 14081 O 1416.86 -0.348467 1.92776 0
M  V30 14082 H 1415.44 0.661676 0.346689 0
M  V30 14083 H 1418.1 1.93665 0.219049 0
M  V30 14084 H 1417.2 2.71982 1.53075 0
M  V30 14085 N 1417.5 -0.477127 1.50204 0
M  V30 14086 C 1418.75 -1.22639 1.60133 0
M  V30 14087 C 1419.06 -1.93218 0.304333 0
M  V30 14088 O 1420.27 -2.70027 0.282457 0
M  V30 14089 C 1418.72 -2.22807 2.82639 0
M  V30 14090 C 1418.33 -1.58059 4.19191 0
M  V30 14091 C 1420.07 -2.98413 3.01911 0
M  V30 14092 C 1417.98 -2.56478 5.32891 0
M  V30 14093 H 1416.91 -0.461439 0.596314 0
M  V30 14094 H 1419.56 -0.497533 1.76626 0
M  V30 14095 H 1417.94 -2.98959 2.59692 0
M  V30 14096 H 1419.12 -0.877374 4.5237 0
M  V30 14097 H 1417.43 -0.947563 4.05475 0
M  V30 14098 H 1420.03 -3.72059 3.84026 0
M  V30 14099 H 1420.37 -3.57444 2.134 0
M  V30 14100 H 1420.91 -2.29375 3.25011 0
M  V30 14101 H 1417.64 -2.02194 6.23536 0
M  V30 14102 H 1417.16 -3.24969 5.04138 0
M  V30 14103 H 1418.84 -3.18429 5.63216 0
M  V30 14104 N 1418.98 -1.3968 -0.729882 0
M  V30 14105 C 1420.2 -1.40467 -1.5191 0
M  V30 14106 C 1420.62 -0.000529943 -1.888 0
M  V30 14107 O 1419.98 0.972072 -1.54457 0
M  V30 14108 C 1420.03 -2.2823 -2.80345 0
M  V30 14109 O 1419.75 -3.63176 -2.4502 0
M  V30 14110 C 1421.25 -2.37455 -3.74339 0
M  V30 14111 H 1418.47 -0.479604 -0.469277 0
M  V30 14112 H 1421.01 -1.83558 -0.901484 0
M  V30 14113 H 1419.17 -1.88538 -3.38426 0
M  V30 14114 H 1419.58 -4.0964 -3.2756 0
M  V30 14115 H 1421.06 -3.031 -4.6134 0
M  V30 14116 H 1421.53 -1.39525 -4.16449 0
M  V30 14117 H 1422.14 -2.77638 -3.22176 0
M  V30 14118 N 1420.45 0.960609 -1.2494 0
M  V30 14119 C 1421.7 1.70111 -1.09117 0
M  V30 14120 C 1422.02 1.91466 0.369544 0
M  V30 14121 O 1421.29 1.49749 1.26302 0
M  V30 14122 H 1419.87 0.630372 -0.400799 0
M  V30 14123 H 1422.54 1.15525 -1.56971 0
M  V30 14124 H 1421.63 2.68277 -1.5948 0
M  V30 14125 N 1421.93 1.0643 1.16234 0
M  V30 14126 C 1422.86 0.634274 2.20249 0
M  V30 14127 C 1423.88 -0.308432 1.59852 0
M  V30 14128 O 1425.07 -0.0992067 1.78224 0
M  V30 14129 C 1422.17 -0.0901593 3.3878 0
M  V30 14130 C 1421.34 0.866379 4.28734 0
M  V30 14131 C 1420.4 0.180942 5.25889 0
M  V30 14132 O 1419.42 0.819034 5.63277 0
M  V30 14133 N 1420.63 -1.07698 5.70422 0
M  V30 14134 H 1423.39 1.52901 2.57762 0
M  V30 14135 H 1420.95 0.947789 1.31258 0
M  V30 14136 H 1422.94 -0.559147 4.00819 0
M  V30 14137 H 1421.51 -0.886715 2.9976 0
M  V30 14138 H 1420.73 1.51471 3.63937 0
M  V30 14139 H 1422.02 1.51524 4.85714 0
M  V30 14140 H 1421.42 -1.6155 5.42142 0
M  V30 14141 H 1419.98 -1.48981 6.34545 0
M  V30 14142 N 1423.41 -1.329 0.847073 0
M  V30 14143 C 1424.36 -2.26534 0.258111 0
M  V30 14144 C 1425.34 -1.49627 -0.591653 0
M  V30 14145 O 1426.54 -1.71385 -0.442277 0
M  V30 14146 C 1423.67 -3.38719 -0.558969 0
M  V30 14147 C 1422.75 -4.23018 0.30276 0
M  V30 14148 N 1423.14 -4.86457 1.38541 0
M  V30 14149 C 1421.44 -4.45907 0.0911992 0
M  V30 14150 C 1422.14 -5.49277 1.91492 0
M  V30 14151 N 1421.12 -5.29843 1.21519 0
M  V30 14152 H 1424.92 -2.73103 1.0859 0
M  V30 14153 H 1422.43 -1.46901 0.692386 0
M  V30 14154 H 1424.43 -4.04797 -0.997259 0
M  V30 14155 H 1423.09 -2.93697 -1.38464 0
M  V30 14156 H 1424.1 -4.86776 1.76832 0
M  V30 14157 H 1420.78 -4.11584 -0.70037 0
M  V30 14158 H 1422.17 -6.09764 2.82201 0
M  V30 14159 N 1424.89 -0.604284 -1.45555 0
M  V30 14160 C 1426.13 -0.101149 -2.0415 0
M  V30 14161 C 1426.49 1.24348 -1.46292 0
M  V30 14162 O 1427.69 1.83714 -1.9622 0
M  V30 14163 C 1425.96 -0.0589898 -3.57351 0
M  V30 14164 S 1427.52 0.383434 -4.37122 0
M  V30 14165 H 1424.34 -0.0479603 -0.709381 0
M  V30 14166 H 1426.94 -0.801643 -1.78309 0
M  V30 14167 H 1425.65 -1.04119 -3.96973 0
M  V30 14168 H 1425.18 0.663601 -3.87763 0
M  V30 14169 H 1427.19 1.63367 -4.68536 0
M  V30 14170 N 1426.37 1.53816 -0.343257 0
M  V30 14171 C 1427.28 2.28716 0.522121 0
M  V30 14172 C 1428.29 1.33815 1.11218 0
M  V30 14173 O 1429.47 1.66853 1.12793 0
M  V30 14174 C 1426.53 3.04517 1.65741 0
M  V30 14175 C 1425.59 4.15043 1.09716 0
M  V30 14176 C 1424.83 4.8722 2.17835 0
M  V30 14177 O 1425.05 4.59065 3.38549 0
M  V30 14178 O 1423.98 5.73678 1.82145 0
M  V30 14179 H 1427.81 3.03576 -0.086732 0
M  V30 14180 H 1425.4 1.49007 -0.108313 0
M  V30 14181 H 1427.28 3.51921 2.31796 0
M  V30 14182 H 1425.95 2.32514 2.25208 0
M  V30 14183 H 1424.86 3.71943 0.401152 0
M  V30 14184 H 1426.19 4.89147 0.547362 0
M  V30 14185 N 1427.84 0.0718701 1.57436 0
M  V30 14186 C 1429.26 -0.28476 1.57039 0
M  V30 14187 C 1429.46 -1.70032 1.08127 0
M  V30 14188 O 1428.52 -2.41191 0.747189 0
M  V30 14189 C 1429.83 -0.0943482 3.00552 0
M  V30 14190 C 1431.38 -0.163879 3.12571 0
M  V30 14191 C 1431.85 -0.00174658 4.58 0
M  V30 14192 N 1433.34 -0.0573489 4.63164 0
M  V30 14193 C 1434.08 0.0436849 5.73383 0
M  V30 14194 N 1433.57 0.198243 6.92516 0
M  V30 14195 N 1435.37 -0.0133856 5.62098 0
M  V30 14196 H 1427.52 0.99702 1.87545 0
M  V30 14197 H 1429.78 0.388822 0.864593 0
M  V30 14198 H 1429.49 0.882445 3.40449 0
M  V30 14199 H 1429.36 -0.846636 3.67576 0
M  V30 14200 H 1431.75 -1.13116 2.7256 0
M  V30 14201 H 1431.83 0.619513 2.48185 0
M  V30 14202 H 1431.47 0.9623 4.98701 0
M  V30 14203 H 1431.4 -0.804543 5.20418 0
M  V30 14204 H 1433.89 -0.175212 3.77494 0
M  V30 14205 H 1434.21 0.267479 7.72337 0
M  V30 14206 H 1432.55 0.233606 6.94607 0
M  V30 14207 H 1435.74 -0.132835 4.67911 0
M  V30 14208 H 1435.92 0.0688076 6.47963 0
M  V30 14209 N 1429.32 -1.56304 -0.201686 0
M  V30 14210 C 1430.56 -1.82021 -0.929934 0
M  V30 14211 C 1430.93 -0.648382 -1.80721 0
M  V30 14212 O 1432.13 -0.785292 -2.57073 0
M  V30 14213 C 1430.4 -3.12731 -1.73014 0
M  V30 14214 S 1431.96 -3.59831 -2.51131 0
M  V30 14215 H 1428.78 -0.638874 -0.312027 0
M  V30 14216 H 1431.38 -1.94536 -0.193861 0
M  V30 14217 H 1430.08 -3.96039 -1.07616 0
M  V30 14218 H 1429.61 -3.03076 -2.50816 0
M  V30 14219 H 1431.63 -3.24744 -3.75174 0
M  V30 14220 N 1430.8 0.469154 -1.50455 0
M  V30 14221 C 1431.71 1.59271 -1.7225 0
M  V30 14222 C 1432.73 1.63119 -0.605668 0
M  V30 14223 O 1433.9 1.80952 -0.884222 0
M  V30 14224 C 1430.97 2.95475 -1.81372 0
M  V30 14225 C 1430.03 3.02 -3.05114 0
M  V30 14226 C 1429.26 4.31707 -3.13791 0
M  V30 14227 O 1429.48 5.2232 -2.29211 0
M  V30 14228 O 1428.42 4.43864 -4.06532 0
M  V30 14229 H 1432.24 1.43804 -2.67496 0
M  V30 14230 H 1429.83 0.648855 -1.34574 0
M  V30 14231 H 1431.71 3.76367 -1.89541 0
M  V30 14232 H 1430.39 3.11136 -0.893094 0
M  V30 14233 H 1429.29 2.20178 -3.02444 0
M  V30 14234 H 1430.63 2.91275 -3.96761 0
M  V30 14235 N 1432.28 1.40065 0.722464 0
M  V30 14236 C 1433.52 1.38175 1.48444 0
M  V30 14237 C 1433.86 -0.0182857 1.94191 0
M  V30 14238 O 1433.13 -0.985638 1.67677 0
M  V30 14239 C 1433.42 2.36518 2.71535 0
M  V30 14240 C 1433.27 3.85517 2.31726 0
M  V30 14241 C 1434.59 2.325 3.73673 0
M  V30 14242 H 1431.71 0.503221 0.538458 0
M  V30 14243 H 1434.35 1.7115 0.825087 0
M  V30 14244 H 1432.5 2.08529 3.27793 0
M  V30 14245 H 1434.17 4.24306 1.81003 0
M  V30 14246 H 1432.41 4.01684 1.63807 0
M  V30 14247 H 1433.08 4.49834 3.19928 0
M  V30 14248 H 1435.56 2.57277 3.27029 0
M  V30 14249 H 1434.44 3.03369 4.57447 0
M  V30 14250 H 1434.7 1.33427 4.21485 0
M  V30 14251 N 1433.76 -0.95397 1.25448 0
M  V30 14252 C 1434.71 -2.07206 1.05681 0
M  V30 14253 C 1435.7 -1.69395 -0.0124672 0
M  V30 14254 O 1436.91 -1.79429 0.143201 0
M  V30 14255 H 1433.28 -0.678231 0.324817 0
M  V30 14256 H 1435.25 -2.21034 2.00466 0
M  V30 14257 C 1434 -3.40725 0.692955 0
M  V30 14258 H 1433.32 -3.70287 1.50756 0
M  V30 14259 H 1434.76 -4.19814 0.594351 0
M  V30 14260 C 1433.22 -3.31495 -0.601028 0
M  V30 14261 O 1433.75 -3.66565 -1.64296 0
M  V30 14262 N 1431.96 -2.84612 -0.586899 0
M  V30 14263 H 1431.51 -2.56271 0.261375 0
M  V30 14264 H 1431.46 -2.78819 -1.45284 0
M  V30 14265 N 1435.24 -1.07045 -1.15668 0
M  V30 14266 C 1436.19 -0.65786 -2.18303 0
M  V30 14267 C 1437.17 0.315405 -1.57778 0
M  V30 14268 O 1438.36 0.129631 -1.76525 0
M  V30 14269 C 1435.49 -0.0538843 -3.43258 0
M  V30 14270 C 1434.58 -1.0521 -4.10843 0
M  V30 14271 N 1434.97 -2.23051 -4.53963 0
M  V30 14272 C 1433.27 -0.884739 -4.37137 0
M  V30 14273 C 1433.97 -2.86354 -5.06336 0
M  V30 14274 N 1432.94 -2.14037 -4.99689 0
M  V30 14275 H 1436.74 -1.55542 -2.49367 0
M  V30 14276 H 1434.26 -0.9432 -1.32202 0
M  V30 14277 H 1436.26 0.259575 -4.16091 0
M  V30 14278 H 1434.92 0.83883 -3.13678 0
M  V30 14279 H 1435.93 -2.60786 -4.4745 0
M  V30 14280 H 1432.6 -0.0446575 -4.17476 0
M  V30 14281 H 1433.99 -3.86393 -5.49682 0
M  V30 14282 N 1436.71 1.32449 -0.85411 0
M  V30 14283 C 1437.96 1.97271 -0.457223 0
M  V30 14284 C 1438.29 1.67595 0.987031 0
M  V30 14285 O 1437.54 0.956301 1.70744 0
M  V30 14286 C 1437.84 3.51577 -0.642499 0
M  V30 14287 C 1437.51 4.01239 -2.05714 0
M  V30 14288 C 1436.17 4.14512 -2.44405 0
M  V30 14289 C 1438.52 4.27573 -2.98046 0
M  V30 14290 C 1435.85 4.5146 -3.74701 0
M  V30 14291 C 1438.2 4.65979 -4.27839 0
M  V30 14292 C 1436.87 4.77458 -4.66465 0
M  V30 14293 H 1436.14 0.721865 -0.16731 0
M  V30 14294 H 1438.78 1.57862 -1.08406 0
M  V30 14295 H 1437.09 3.91742 0.0675706 0
M  V30 14296 H 1438.79 3.99757 -0.315473 0
M  V30 14297 H 1435.38 3.91393 -1.74669 0
M  V30 14298 H 1439.56 4.16827 -2.69386 0
M  V30 14299 H 1434.82 4.58542 -4.04412 0
M  V30 14300 H 1438.99 4.8531 -4.99447 0
M  V30 14301 H 1436.62 5.05845 -5.67472 0
M  V30 14302 N 1438.19 0.611994 1.45232 0
M  V30 14303 C 1439.44 0.108696 2.01807 0
M  V30 14304 C 1439.76 -1.26692 1.48237 0
M  V30 14305 O 1439.03 -1.8378 0.678368 0
M  V30 14306 H 1437.61 0.0371921 0.746074 0
M  V30 14307 H 1440.27 0.794386 1.77976 0
M  V30 14308 H 1439.37 0.0618207 3.12039 0
M  V30 14309 N 1439.67 -1.53632 0.351409 0
M  V30 14310 C 1440.92 -2.0104 -0.242687 0
M  V30 14311 C 1441.24 -1.23906 -1.49925 0
M  V30 14312 O 1440.5 -0.316927 -1.93117 0
M  V30 14313 C 1440.8 -3.5242 -0.594561 0
M  V30 14314 C 1440.46 -4.47333 0.566031 0
M  V30 14315 C 1439.13 -4.73001 0.884515 0
M  V30 14316 C 1441.48 -5.03566 1.34426 0
M  V30 14317 C 1438.81 -5.52156 1.98346 0
M  V30 14318 C 1441.16 -5.8392 2.43351 0
M  V30 14319 C 1439.82 -6.0788 2.7575 0
M  V30 14320 H 1439.09 -0.735659 -0.0888056 0
M  V30 14321 H 1441.74 -1.85362 0.480948 0
M  V30 14322 H 1440.04 -3.65971 -1.39902 0
M  V30 14323 H 1441.74 -3.86565 -1.06625 0
M  V30 14324 H 1438.33 -4.27494 0.307751 0
M  V30 14325 H 1442.52 -4.83694 1.11146 0
M  V30 14326 H 1437.77 -5.68942 2.23863 0
M  V30 14327 H 1441.95 -6.26505 3.04079 0
M  V30 14328 H 1439.57 -6.69001 3.61029 0
M  V30 14329 N 1441.15 -0.0802183 -1.57396 0
M  V30 14330 C 1442.4 0.585802 -1.93424 0
M  V30 14331 C 1442.72 1.69638 -0.961662 0
M  V30 14332 O 1441.99 1.95897 -0.011202 0
M  V30 14333 H 1440.57 0.219382 -0.714059 0
M  V30 14334 H 1443.23 -0.140055 -1.94396 0
M  V30 14335 H 1442.32 1.00566 -2.95454 0
M  V30 14336 N 1442.63 1.56409 0.193394 0
M  V30 14337 C 1444.04 1.70624 0.757915 0
M  V30 14338 C 1444.39 0.687074 1.83776 0
M  V30 14339 O 1443.51 -0.15616 2.15836 0
M  V30 14340 C 1444.11 3.09352 1.38156 0
M  V30 14341 C 1442.67 3.25326 1.89315 0
M  V30 14342 C 1441.81 2.66576 0.763727 0
M  V30 14343 H 1444.76 1.58668 -0.0317034 0
M  V30 14344 H 1444.79 3.06776 2.25098 0
M  V30 14345 H 1444.3 3.83506 0.595398 0
M  V30 14346 H 1442.4 2.5609 2.70644 0
M  V30 14347 H 1442.51 4.32848 2.05376 0
M  V30 14348 H 1440.88 2.25797 1.17846 0
M  V30 14349 H 1441.66 3.43298 -0.0102243 0
M  V30 14350 N 1444.1 -0.461169 1.50702 0
M  V30 14351 C 1445.01 -1.58355 1.73092 0
M  V30 14352 C 1446.03 -1.62795 0.61431 0
M  V30 14353 O 1447.21 -1.8048 0.893806 0
M  V30 14354 C 1444.27 -2.94509 1.82936 0
M  V30 14355 C 1443.33 -3.00378 3.06711 0
M  V30 14356 C 1442.56 -4.30037 3.16076 0
M  V30 14357 O 1442.79 -5.21097 2.31978 0
M  V30 14358 O 1441.72 -4.41702 4.08881 0
M  V30 14359 H 1445.55 -1.42384 2.68255 0
M  V30 14360 H 1443.13 -0.641709 1.34916 0
M  V30 14361 H 1445.01 -3.75357 1.91534 0
M  V30 14362 H 1443.69 -3.10658 0.909581 0
M  V30 14363 H 1442.6 -2.18571 3.03608 0
M  V30 14364 H 1443.93 -2.89167 3.983 0
M  V30 14365 N 1445.58 -1.40446 -0.715026 0
M  V30 14366 C 1446.83 -1.3848 -1.47199 0
M  V30 14367 C 1447.15 0.0119198 -1.94996 0
M  V30 14368 O 1446.42 0.966772 -1.70383 0
M  V30 14369 H 1445 -0.509669 -0.54612 0
M  V30 14370 H 1447.66 -1.75505 -0.847588 0
M  V30 14371 H 1446.76 -2.06002 -2.34456 0
M  V30 14372 N 1447.06 0.947303 -1.25952 0
M  V30 14373 C 1448.3 1.70755 -1.12348 0
M  V30 14374 C 1448.66 1.89165 0.328721 0
M  V30 14375 O 1449.86 2.62318 0.586749 0
M  V30 14376 C 1448.14 3.04889 -1.86486 0
M  V30 14377 S 1449.69 3.96076 -1.88863 0
M  V30 14378 H 1446.51 0.586836 -0.401428 0
M  V30 14379 H 1449.11 1.12932 -1.59583 0
M  V30 14380 H 1447.82 2.89166 -2.91224 0
M  V30 14381 H 1447.35 3.67772 -1.39668 0
M  V30 14382 H 1449.36 4.86608 -0.970929 0
M  V30 14383 N 1448.54 1.07657 1.15099 0
M  V30 14384 C 1449.49 0.699678 2.19939 0
M  V30 14385 C 1450.46 -0.310432 1.63173 0
M  V30 14386 O 1451.64 -0.196177 1.89789 0
M  V30 14387 C 1448.78 0.106963 3.44934 0
M  V30 14388 C 1447.89 1.16892 4.15885 0
M  V30 14389 C 1447.03 0.540884 5.28439 0
M  V30 14390 C 1446.07 1.58542 5.91211 0
M  V30 14391 N 1445.2 0.979731 6.95231 0
M  V30 14392 H 1450.04 1.59805 2.51528 0
M  V30 14393 H 1447.58 0.798746 1.23525 0
M  V30 14394 H 1449.54 -0.254335 4.16424 0
M  V30 14395 H 1448.17 -0.754756 3.13852 0
M  V30 14396 H 1447.22 1.64775 3.4286 0
M  V30 14397 H 1448.53 1.96078 4.58645 0
M  V30 14398 H 1447.69 0.127397 6.06566 0
M  V30 14399 H 1446.43 -0.282708 4.8688 0
M  V30 14400 H 1445.43 2.00865 5.11794 0
M  V30 14401 H 1446.66 2.41135 6.34847 0
M  V30 14402 H 1444.6 0.177098 6.55761 0
M  V30 14403 H 1444.52 1.70878 7.36435 0
M  V30 14404 H 1445.79 0.591849 7.7725 0
M  V30 14405 N 1450.02 -1.31994 0.861122 0
M  V30 14406 C 1451.43 -1.79271 0.521437 0
M  V30 14407 C 1451.78 -1.71046 -0.96113 0
M  V30 14408 O 1450.9 -1.2729 -1.75003 0
M  V30 14409 C 1451.5 -3.25507 0.939731 0
M  V30 14410 C 1450.06 -3.70713 0.651845 0
M  V30 14411 C 1449.2 -2.52967 1.13592 0
M  V30 14412 H 1452.16 -1.19201 1.0477 0
M  V30 14413 H 1452.18 -3.79619 0.258754 0
M  V30 14414 H 1451.69 -3.3146 2.0188 0
M  V30 14415 H 1449.79 -3.70268 -0.416232 0
M  V30 14416 H 1449.9 -4.63236 1.22267 0
M  V30 14417 H 1448.27 -2.48558 0.555971 0
M  V30 14418 H 1449.05 -2.61671 2.22223 0
M  V30 14419 N 1451.49 -0.619688 -1.44906 0
M  V30 14420 C 1452.73 -0.122796 -2.04031 0
M  V30 14421 C 1453.1 1.2279 -1.47603 0
M  V30 14422 O 1454.3 1.81623 -1.98158 0
M  V30 14423 C 1452.57 -0.0968883 -3.57269 0
M  V30 14424 S 1454.13 0.33705 -4.37504 0
M  V30 14425 H 1450.95 -0.0554816 -0.708832 0
M  V30 14426 H 1453.55 -0.82051 -1.77448 0
M  V30 14427 H 1452.25 -1.08324 -3.95846 0
M  V30 14428 H 1451.78 0.622437 -3.88445 0
M  V30 14429 H 1453.8 1.58388 -4.70242 0
M  V30 14430 N 1452.97 1.53444 -0.359552 0
M  V30 14431 C 1454.25 1.93467 0.288106 0
M  V30 14432 C 1454.63 1.29256 1.66901 0
M  V30 14433 O 1453.98 0.449402 2.24037 0
M  V30 14434 C 1454.19 3.47297 0.344359 0
M  V30 14435 C 1455.54 4.20515 0.587585 0
M  V30 14436 O 1456.56 3.53646 0.425818 0
M  V30 14437 O 1455.42 5.39003 0.902119 0
M  V30 14438 H 1452.51 0.809033 0.171451 0
M  V30 14439 H 1455.06 1.64625 -0.411896 0
M  V30 14440 H 1453.83 3.86292 -0.624064 0
M  V30 14441 H 1453.45 3.82353 1.0905 0
M  V30 14442 N 1454.45 0.0885642 1.57351 0
M  V30 14443 C 1455.69 -0.580127 1.95995 0
M  V30 14444 C 1456.05 -1.65754 0.969003 0
M  V30 14445 O 1457.26 -2.38297 1.2437 0
M  V30 14446 C 1455.53 -1.12689 3.3917 0
M  V30 14447 S 1457.09 -1.80836 3.99805 0
M  V30 14448 H 1453.9 -0.189492 0.685284 0
M  V30 14449 H 1456.51 0.166414 1.9479 0
M  V30 14450 H 1455.21 -0.331139 4.09062 0
M  V30 14451 H 1454.74 -1.90941 3.43955 0
M  V30 14452 H 1456.76 -3.09211 3.88076 0
M  V30 14453 N 1455.93 -1.56509 -0.185096 0
M  V30 14454 C 1456.88 -1.91742 -1.23366 0
M  V30 14455 C 1457.86 -0.784182 -1.40497 0
M  V30 14456 O 1459.05 -1.04718 -1.42699 0
M  V30 14457 C 1456.18 -2.26903 -2.57624 0
M  V30 14458 C 1455.27 -3.46707 -2.44244 0
M  V30 14459 N 1455.66 -4.64338 -2.00558 0
M  V30 14460 C 1453.96 -3.51042 -2.7511 0
M  V30 14461 C 1454.66 -5.46489 -1.9931 0
M  V30 14462 N 1453.64 -4.87162 -2.41193 0
M  V30 14463 H 1457.44 -2.80184 -0.887378 0
M  V30 14464 H 1454.95 -1.57561 -0.393468 0
M  V30 14465 H 1456.95 -2.50332 -3.33376 0
M  V30 14466 H 1455.61 -1.39792 -2.93067 0
M  V30 14467 H 1456.62 -4.88817 -1.7111 0
M  V30 14468 H 1453.3 -2.74375 -3.14682 0
M  V30 14469 H 1454.69 -6.50726 -1.67349 0
M  V30 14470 N 1457.41 0.45317 -1.50944 0
M  V30 14471 C 1458.82 1.03354 -1.55482 0
M  V30 14472 C 1459.17 1.92701 -0.368873 0
M  V30 14473 O 1458.29 2.10153 0.516208 0
M  V30 14474 C 1458.89 1.88118 -2.81775 0
M  V30 14475 C 1457.45 2.41232 -2.88936 0
M  V30 14476 C 1456.59 1.20032 -2.49975 0
M  V30 14477 H 1459.55 0.235059 -1.5695 0
M  V30 14478 H 1459.57 2.73394 -2.64643 0
M  V30 14479 H 1459.08 1.23064 -3.68072 0
M  V30 14480 H 1457.18 3.09788 -2.07032 0
M  V30 14481 H 1457.29 2.75113 -3.92237 0
M  V30 14482 H 1455.66 1.54072 -2.02815 0
M  V30 14483 H 1456.44 0.56612 -3.386 0
M  V30 14484 N 1458.88 1.40823 0.707568 0
M  V30 14485 C 1459.79 1.44058 1.85161 0
M  V30 14486 C 1460.81 0.332357 1.70796 0
M  V30 14487 O 1461.99 0.578205 1.92922 0
M  V30 14488 C 1459.05 1.3091 3.21035 0
M  V30 14489 C 1458.11 2.51944 3.47595 0
M  V30 14490 C 1457.35 2.39414 4.76987 0
M  V30 14491 O 1457.57 1.41224 5.52641 0
M  V30 14492 O 1456.5 3.28944 5.04063 0
M  V30 14493 H 1460.33 2.40551 1.85388 0
M  V30 14494 H 1457.91 1.22232 0.859052 0
M  V30 14495 H 1459.8 1.25816 4.02179 0
M  V30 14496 H 1458.47 0.375263 3.21517 0
M  V30 14497 H 1457.38 2.62615 2.66428 0
M  V30 14498 H 1458.71 3.44115 3.51917 0
M  V30 14499 N 1460.36 -0.94061 1.26453 0
M  V30 14500 C 1461.61 -1.68354 1.11809 0
M  V30 14501 C 1461.93 -1.9203 -0.339037 0
M  V30 14502 O 1461.2 -1.51739 -1.23903 0
M  V30 14503 H 1459.78 -0.623916 0.410777 0
M  V30 14504 H 1462.44 -1.13014 1.58789 0
M  V30 14505 H 1461.54 -2.65706 1.63728 0
M  V30 14506 N 1461.84 -1.08266 -1.14527 0
M  V30 14507 C 1463.07 -0.832994 -1.89937 0
M  V30 14508 C 1463.49 0.608985 -1.77969 0
M  V30 14509 O 1462.85 1.42657 -1.11887 0
M  V30 14510 C 1462.9 -1.25782 -3.37952 0
M  V30 14511 O 1462 -0.408853 -4.10368 0
M  V30 14512 H 1461.34 -0.30267 -0.591005 0
M  V30 14513 H 1463.87 -1.44371 -1.44977 0
M  V30 14514 H 1463.88 -1.23804 -3.88763 0
M  V30 14515 H 1462.56 -2.30804 -3.4598 0
M  V30 14516 H 1461.13 -0.49192 -3.69641 0
M  V30 14517 N 1463.32 1.31536 -0.86811 0
M  V30 14518 C 1464.25 2.31037 -0.33822 0
M  V30 14519 C 1465.23 1.60269 0.569892 0
M  V30 14520 O 1466.42 1.87987 0.487305 0
M  V30 14521 C 1463.55 3.44203 0.462753 0
M  V30 14522 C 1462.5 4.26549 -0.3521 0
M  V30 14523 C 1461.83 5.31605 0.574443 0
M  V30 14524 C 1463.13 4.97665 -1.58516 0
M  V30 14525 H 1464.82 2.75607 -1.16967 0
M  V30 14526 H 1462.37 1.325 -0.56389 0
M  V30 14527 H 1464.32 4.12862 0.843967 0
M  V30 14528 H 1463.04 2.98396 1.32769 0
M  V30 14529 H 1461.7 3.59555 -0.715237 0
M  V30 14530 H 1461.35 4.82048 1.43661 0
M  V30 14531 H 1461.05 5.87591 0.0331436 0
M  V30 14532 H 1462.57 6.03124 0.952541 0
M  V30 14533 H 1463.99 5.58931 -1.27549 0
M  V30 14534 H 1462.38 5.63437 -2.06539 0
M  V30 14535 H 1463.45 4.24756 -2.33902 0
M  V30 14536 N 1464.8 0.627364 1.44575 0
M  V30 14537 C 1466.02 0.135576 2.06956 0
M  V30 14538 C 1466.45 -1.17922 1.46547 0
M  V30 14539 O 1465.81 -1.72255 0.565509 0
M  V30 14540 C 1465.85 0.030347 3.60587 0
M  V30 14541 O 1464.96 -1.01464 3.99724 0
M  V30 14542 H 1464.3 0.083058 0.658785 0
M  V30 14543 H 1466.83 0.862977 1.8551 0
M  V30 14544 H 1466.84 -0.161461 4.0768 0
M  V30 14545 H 1465.51 0.990285 4.03938 0
M  V30 14546 H 1464.09 -0.797701 3.64268 0
M  V30 14547 N 1466.28 -1.53251 0.367684 0
M  V30 14548 C 1467.21 -2.28728 -0.469676 0
M  V30 14549 C 1468.19 -1.3124 -1.08213 0
M  V30 14550 O 1469.37 -1.60112 -1.09898 0
M  V30 14551 C 1466.5 -3.07808 -1.60846 0
M  V30 14552 C 1465.46 -4.13 -1.12315 0
M  V30 14553 C 1464.78 -4.80176 -2.35234 0
M  V30 14554 C 1466.08 -5.21892 -0.2064 0
M  V30 14555 H 1467.78 -2.98972 0.160019 0
M  V30 14556 H 1465.32 -1.43786 0.0784011 0
M  V30 14557 H 1467.27 -3.59358 -2.20091 0
M  V30 14558 H 1466 -2.35258 -2.26542 0
M  V30 14559 H 1464.66 -3.62399 -0.553378 0
M  V30 14560 H 1464.31 -4.04196 -2.99391 0
M  V30 14561 H 1464.01 -5.51261 -2.03433 0
M  V30 14562 H 1465.53 -5.34521 -2.9516 0
M  V30 14563 H 1466.94 -5.68932 -0.706386 0
M  V30 14564 H 1465.34 -6.00096 0.0208362 0
M  V30 14565 H 1466.41 -4.79051 0.750851 0
M  V30 14566 N 1467.75 -0.0969077 -1.57302 0
M  V30 14567 C 1468.69 0.891431 -2.11154 0
M  V30 14568 C 1469.7 1.24482 -1.04919 0
M  V30 14569 O 1470.89 1.19762 -1.3236 0
M  V30 14570 C 1467.99 2.19998 -2.57787 0
M  V30 14571 C 1467.16 2.02165 -3.87876 0
M  V30 14572 C 1466.22 3.16549 -4.20337 0
M  V30 14573 O 1465.25 2.90432 -4.89528 0
M  V30 14574 N 1466.45 4.42369 -3.75885 0
M  V30 14575 H 1469.21 0.431477 -2.96578 0
M  V30 14576 H 1466.77 0.0881458 -1.6166 0
M  V30 14577 H 1468.77 2.95472 -2.76547 0
M  V30 14578 H 1467.34 2.57412 -1.77364 0
M  V30 14579 H 1466.56 1.11011 -3.78246 0
M  V30 14580 H 1467.84 1.87529 -4.7298 0
M  V30 14581 H 1467.24 4.66469 -3.20036 0
M  V30 14582 H 1465.8 5.14787 -3.99797 0
M  V30 14583 N 1469.23 1.56605 0.176793 0
M  V30 14584 C 1470.47 1.83477 0.900858 0
M  V30 14585 C 1470.84 0.677051 1.79666 0
M  V30 14586 O 1472.04 0.826091 2.55791 0
M  V30 14587 C 1470.31 3.15444 1.68017 0
M  V30 14588 S 1471.87 3.63781 2.45375 0
M  V30 14589 H 1468.68 0.643758 0.301823 0
M  V30 14590 H 1471.29 1.9482 0.162888 0
M  V30 14591 H 1469.99 3.97701 1.01302 0
M  V30 14592 H 1469.52 3.07028 2.45962 0
M  V30 14593 H 1471.54 3.30672 3.6996 0
M  V30 14594 N 1470.71 -0.445159 1.51182 0
M  V30 14595 C 1471.66 -1.53975 1.71931 0
M  V30 14596 C 1472.63 -1.56344 0.560865 0
M  V30 14597 O 1473.81 -1.73475 0.794414 0
M  V30 14598 C 1470.95 -2.91756 1.84316 0
M  V30 14599 C 1470.06 -2.98976 3.11829 0
M  V30 14600 C 1469.2 -4.27831 3.14855 0
M  V30 14601 C 1468.24 -4.2889 4.36715 0
M  V30 14602 N 1467.38 -5.49257 4.37334 0
M  V30 14603 H 1472.22 -1.35586 2.65368 0
M  V30 14604 H 1469.75 -0.658787 1.31523 0
M  V30 14605 H 1471.71 -3.7169 1.89479 0
M  V30 14606 H 1470.34 -3.08721 0.942947 0
M  V30 14607 H 1469.39 -2.11753 3.16014 0
M  V30 14608 H 1470.7 -2.95619 4.01759 0
M  V30 14609 H 1469.86 -5.16134 3.1889 0
M  V30 14610 H 1468.6 -4.33833 2.228 0
M  V30 14611 H 1467.6 -3.38982 4.32864 0
M  V30 14612 H 1468.83 -4.24558 5.30026 0
M  V30 14613 H 1466.77 -5.55995 3.48145 0
M  V30 14614 H 1466.69 -5.47748 5.21064 0
M  V30 14615 H 1467.96 -6.39613 4.45551 0
M  V30 14616 N 1472.19 -1.41197 -0.700089 0
M  V30 14617 C 1473.46 -1.30803 -1.4543 0
M  V30 14618 C 1473.84 0.0664987 -2.10995 0
M  V30 14619 O 1473.19 1.08043 -2.01343 0
M  V30 14620 C 1473.4 -2.45815 -2.47742 0
M  V30 14621 C 1474.75 -2.86771 -3.13126 0
M  V30 14622 O 1475.77 -2.45521 -2.58065 0
M  V30 14623 O 1474.63 -3.58086 -4.1284 0
M  V30 14624 H 1471.73 -0.514523 -0.647453 0
M  V30 14625 H 1474.27 -1.53151 -0.73095 0
M  V30 14626 H 1473.05 -3.37557 -1.97917 0
M  V30 14627 H 1472.67 -2.25319 -3.27593 0
M  V30 14628 N 1473.67 0.933891 -1.2695 0
M  V30 14629 C 1474.94 1.65874 -1.0366 0
M  V30 14630 C 1475.32 2.0666 0.43066 0
M  V30 14631 O 1474.67 1.79606 1.41259 0
M  V30 14632 C 1474.88 2.86546 -1.99229 0
M  V30 14633 C 1476.23 3.58031 -2.28251 0
M  V30 14634 O 1477.25 2.96663 -1.97154 0
M  V30 14635 O 1476.11 4.68583 -2.81233 0
M  V30 14636 H 1473.21 0.72673 -0.394706 0
M  V30 14637 H 1475.75 0.984975 -1.38189 0
M  V30 14638 H 1474.52 2.53351 -2.9821 0
M  V30 14639 H 1474.15 3.61645 -1.65224 0
M  V30 14640 N 1475.14 1.08871 1.13951 0
M  V30 14641 C 1476.39 0.819665 1.84732 0
M  V30 14642 C 1476.71 -0.656535 1.83615 0
M  V30 14643 O 1475.98 -1.47614 1.28791 0
M  V30 14644 H 1474.56 0.30023 0.684011 0
M  V30 14645 H 1477.22 1.37568 1.38062 0
M  V30 14646 H 1476.32 1.16809 2.89417 0
M  V30 14647 N 1476.62 -1.31073 0.875073 0
M  V30 14648 C 1478.04 -1.49162 0.567697 0
M  V30 14649 C 1478.24 -1.80435 -0.896969 0
M  V30 14650 O 1477.29 -1.88604 -1.67883 0
M  V30 14651 C 1478.61 -2.6219 1.47231 0
M  V30 14652 C 1480.15 -2.76072 1.47489 0
M  V30 14653 C 1480.63 -3.92202 2.36519 0
M  V30 14654 N 1482.12 -3.99497 2.34428 0
M  V30 14655 C 1482.86 -4.88639 3.00033 0
M  V30 14656 N 1482.35 -5.82647 3.74826 0
M  V30 14657 N 1484.14 -4.81926 2.89315 0
M  V30 14658 H 1476.3 -1.09045 1.82272 0
M  V30 14659 H 1478.56 -0.539291 0.77966 0
M  V30 14660 H 1478.26 -2.45872 2.51475 0
M  V30 14661 H 1478.14 -3.58446 1.17459 0
M  V30 14662 H 1480.53 -2.91801 0.440008 0
M  V30 14663 H 1480.61 -1.80468 1.81287 0
M  V30 14664 H 1480.25 -3.77231 3.40087 0
M  V30 14665 H 1480.18 -4.87125 2.00043 0
M  V30 14666 H 1482.67 -3.32241 1.80067 0
M  V30 14667 H 1482.98 -6.47406 4.22001 0
M  V30 14668 H 1481.33 -5.82609 3.78934 0
M  V30 14669 H 1484.52 -4.07462 2.30418 0
M  V30 14670 H 1484.69 -5.51192 3.40722 0
M  V30 14671 N 1478.1 -0.635022 -1.4424 0
M  V30 14672 C 1479.34 -0.144429 -2.03889 0
M  V30 14673 C 1479.7 1.21217 -1.48897 0
M  V30 14674 O 1480.91 1.79511 -2.00073 0
M  V30 14675 C 1479.18 -0.134776 -3.57146 0
M  V30 14676 S 1480.74 0.290628 -4.37836 0
M  V30 14677 H 1477.55 -0.0629965 -0.708204 0
M  V30 14678 H 1480.16 -0.839284 -1.76568 0
M  V30 14679 H 1478.86 -1.12516 -3.94675 0
M  V30 14680 H 1478.39 0.581202 -3.89083 0
M  V30 14681 H 1480.41 1.53392 -4.71896 0
M  V30 14682 N 1479.58 1.53054 -0.375806 0
M  V30 14683 C 1480.49 2.29772 0.47349 0
M  V30 14684 C 1481.5 1.36144 1.08355 0
M  V30 14685 O 1482.68 1.69208 1.09228 0
M  V30 14686 C 1479.75 3.07964 1.59245 0
M  V30 14687 C 1478.81 4.17277 1.00888 0
M  V30 14688 C 1478.04 4.91731 2.07451 0
M  V30 14689 O 1478.26 4.66143 3.28736 0
M  V30 14690 O 1477.2 5.77413 1.69936 0
M  V30 14691 H 1481.02 3.03324 -0.151105 0
M  V30 14692 H 1478.61 1.48744 -0.139895 0
M  V30 14693 H 1480.49 3.56759 2.24279 0
M  V30 14694 H 1479.16 2.37239 2.20226 0
M  V30 14695 H 1478.07 3.7271 0.322167 0
M  V30 14696 H 1479.4 4.90198 0.443483 0
M  V30 14697 N 1481.06 0.105248 1.57248 0
M  V30 14698 C 1482.3 -0.559306 1.96599 0
M  V30 14699 C 1482.66 -1.64717 0.986529 0
M  V30 14700 O 1483.86 -2.36965 1.2689 0
M  V30 14701 C 1482.13 -1.09085 3.40346 0
M  V30 14702 S 1483.69 -1.76586 4.017 0
M  V30 14703 H 1480.51 -0.182213 0.687255 0
M  V30 14704 H 1483.11 0.187064 1.94603 0
M  V30 14705 H 1481.82 -0.287734 4.0939 0
M  V30 14706 H 1481.35 -1.87282 3.45961 0
M  V30 14707 H 1483.36 -3.05078 3.91334 0
M  V30 14708 N 1482.53 -1.56697 -0.168486 0
M  V30 14709 C 1483.95 -1.50879 -0.52036 0
M  V30 14710 C 1484.15 -0.810001 -1.84503 0
M  V30 14711 O 1483.21 -0.371549 -2.49751 0
M  V30 14712 C 1484.52 -2.95618 -0.550502 0
M  V30 14713 C 1486.07 -3.06439 -0.637508 0
M  V30 14714 C 1486.54 -4.52642 -0.698516 0
M  V30 14715 N 1488.03 -4.569 -0.761328 0
M  V30 14716 C 1488.77 -5.67373 -0.829155 0
M  V30 14717 N 1488.26 -6.87471 -0.857642 0
M  V30 14718 N 1490.06 -5.55352 -0.868392 0
M  V30 14719 H 1482.21 -2.00531 0.700087 0
M  V30 14720 H 1484.47 -0.913683 0.252759 0
M  V30 14721 H 1484.18 -3.49912 0.354222 0
M  V30 14722 H 1484.05 -3.50416 -1.396 0
M  V30 14723 H 1486.44 -2.52178 -1.53266 0
M  V30 14724 H 1486.52 -2.54721 0.234719 0
M  V30 14725 H 1486.16 -5.07535 0.192387 0
M  V30 14726 H 1486.09 -5.0212 -1.58693 0
M  V30 14727 H 1488.58 -3.70434 -0.747482 0
M  V30 14728 H 1488.9 -7.67416 -0.910648 0
M  V30 14729 H 1487.24 -6.90076 -0.825872 0
M  V30 14730 H 1490.43 -4.60444 -0.843158 0
M  V30 14731 H 1490.61 -6.41468 -0.917789 0
M  V30 14732 N 1484.01 0.437135 -1.51416 0
M  V30 14733 C 1484.92 1.55581 -1.75589 0
M  V30 14734 C 1485.94 1.61797 -0.640132 0
M  V30 14735 O 1487.11 1.79035 -0.922406 0
M  V30 14736 C 1484.18 2.91561 -1.87598 0
M  V30 14737 C 1483.24 2.9546 -3.11451 0
M  V30 14738 C 1482.47 4.24954 -3.22878 0
M  V30 14739 O 1482.7 5.17341 -2.40238 0
M  V30 14740 O 1481.63 4.35141 -4.15856 0
M  V30 14741 H 1485.46 1.38098 -2.70486 0
M  V30 14742 H 1483.04 0.620163 -1.3592 0
M  V30 14743 H 1484.92 3.72262 -1.97481 0
M  V30 14744 H 1483.6 3.09171 -0.958889 0
M  V30 14745 H 1482.51 2.13713 -3.07046 0
M  V30 14746 H 1483.84 2.82794 -4.0285 0
M  V30 14747 N 1485.49 1.41566 0.692592 0
M  V30 14748 C 1486.74 1.40805 1.44978 0
M  V30 14749 C 1487.06 0.0191039 1.94991 0
M  V30 14750 O 1486.33 -0.939544 1.71899 0
M  V30 14751 H 1484.91 0.518293 0.537942 0
M  V30 14752 H 1487.57 1.76831 0.81956 0
M  V30 14753 H 1486.67 2.09706 2.31149 0
M  V30 14754 N 1486.97 -0.927146 1.27443 0
M  V30 14755 C 1488.22 -1.67489 1.13814 0
M  V30 14756 C 1488.54 -1.91917 -0.315914 0
M  V30 14757 O 1487.8 -1.5079 -1.24743 0
M  V30 14758 C 1488.1 -3.0472 1.86764 0
M  V30 14759 C 1487.76 -3 3.36617 0
M  V30 14760 C 1486.43 -2.9842 3.77491 0
M  V30 14761 C 1488.78 -2.91249 4.32231 0
M  V30 14762 C 1486.11 -2.85872 5.12342 0
M  V30 14763 C 1488.46 -2.80242 5.67139 0
M  V30 14764 C 1487.12 -2.77013 6.07306 0
M  V30 14765 H 1486.39 -0.612887 0.416474 0
M  V30 14766 H 1489.04 -1.0812 1.58058 0
M  V30 14767 H 1487.34 -3.67797 1.35029 0
M  V30 14768 H 1489.04 -3.61453 1.73646 0
M  V30 14769 H 1485.63 -3.02017 3.04111 0
M  V30 14770 H 1489.81 -2.91567 4.01625 0
M  V30 14771 H 1485.07 -2.81758 5.42607 0
M  V30 14772 H 1489.24 -2.72437 6.40899 0
M  V30 14773 H 1486.87 -2.67047 7.11751 0
M  V30 14774 N 1488.45 -1.09474 -1.13372 0
M  V30 14775 C 1489.69 -0.832323 -1.84933 0
M  V30 14776 C 1490.03 0.640469 -1.83335 0
M  V30 14777 O 1489.3 1.47158 -1.2718 0
M  V30 14778 C 1489.58 -1.36876 -3.33072 0
M  V30 14779 C 1489.44 -2.90769 -3.43181 0
M  V30 14780 C 1490.76 -1.00294 -4.2852 0
M  V30 14781 H 1487.87 -0.30382 -0.671463 0
M  V30 14782 H 1490.52 -1.35622 -1.33066 0
M  V30 14783 H 1488.67 -0.923134 -3.77373 0
M  V30 14784 H 1490.34 -3.43784 -3.07588 0
M  V30 14785 H 1488.58 -3.27876 -2.84042 0
M  V30 14786 H 1489.25 -3.23381 -4.47358 0
M  V30 14787 H 1491.73 -1.38729 -3.92293 0
M  V30 14788 H 1490.6 -1.40533 -5.30605 0
M  V30 14789 H 1490.87 0.0888133 -4.42011 0
M  V30 14790 N 1489.92 1.30607 -0.882012 0
M  V30 14791 C 1491.17 1.95869 -0.497978 0
M  V30 14792 C 1491.49 1.69991 0.955405 0
M  V30 14793 O 1490.76 1.02188 1.67136 0
M  V30 14794 H 1489.34 0.724699 -0.181165 0
M  V30 14795 H 1492.01 1.59193 -1.12444 0
M  V30 14796 H 1491.1 3.04917 -0.665754 0
M  V30 14797 N 1491.4 0.642663 1.43901 0
M  V30 14798 C 1492.35 -0.0673926 2.32502 0
M  V30 14799 C 1493.34 -0.823981 1.4801 0
M  V30 14800 O 1494.55 -0.735575 1.64284 0
M  V30 14801 H 1490.93 -0.0405715 0.750905 0
M  V30 14802 H 1492.9 0.69777 2.90127 0
M  V30 14803 C 1491.65 -1.02745 3.32173 0
M  V30 14804 H 1490.97 -0.454697 3.97206 0
M  V30 14805 H 1492.41 -1.49355 3.96824 0
M  V30 14806 C 1490.87 -2.11835 2.61969 0
M  V30 14807 O 1491.4 -3.20074 2.42725 0
M  V30 14808 N 1489.6 -1.88092 2.21517 0
M  V30 14809 H 1489.15 -1.00072 2.37368 0
M  V30 14810 H 1489.11 -2.61279 1.74873 0
M  V30 14811 N 1492.88 -1.52852 0.383918 0
M  V30 14812 C 1494.3 -1.59565 0.0336391 0
M  V30 14813 C 1494.5 -1.39819 -1.45097 0
M  V30 14814 O 1493.55 -1.21249 -2.21484 0
M  V30 14815 C 1494.87 -2.96412 0.506001 0
M  V30 14816 C 1496.41 -3.09575 0.461794 0
M  V30 14817 C 1496.89 -4.48863 0.910259 0
M  V30 14818 N 1498.38 -4.55032 0.866053 0
M  V30 14819 C 1499.12 -5.61032 1.18453 0
M  V30 14820 N 1498.61 -6.74701 1.57321 0
M  V30 14821 N 1500.4 -5.51109 1.10613 0
M  V30 14822 H 1492.56 -1.63937 1.3505 0
M  V30 14823 H 1494.82 -0.769857 0.553194 0
M  V30 14824 H 1494.52 -3.16061 1.54268 0
M  V30 14825 H 1494.4 -3.77073 -0.0977643 0
M  V30 14826 H 1496.79 -2.89625 -0.565786 0
M  V30 14827 H 1496.87 -2.30879 1.10129 0
M  V30 14828 H 1496.51 -4.69553 1.93604 0
M  V30 14829 H 1496.44 -5.26017 0.247825 0
M  V30 14830 H 1498.93 -3.73423 0.579962 0
M  V30 14831 H 1499.24 -7.51545 1.8 0
M  V30 14832 H 1497.59 -6.76046 1.61203 0
M  V30 14833 H 1500.78 -4.61187 0.801531 0
M  V30 14834 H 1500.95 -6.33618 1.35766 0
M  V30 14835 N 1494.36 -0.113586 -1.5719 0
M  V30 14836 C 1495.6 0.548872 -1.96893 0
M  V30 14837 C 1495.96 1.64191 -0.99525 0
M  V30 14838 O 1497.16 2.36289 -1.28145 0
M  V30 14839 C 1495.44 1.07279 -3.40919 0
M  V30 14840 S 1496.99 1.74453 -4.02631 0
M  V30 14841 H 1493.81 0.178565 -0.688212 0
M  V30 14842 H 1496.41 -0.197382 -1.94501 0
M  V30 14843 H 1495.12 0.266019 -4.09537 0
M  V30 14844 H 1494.65 1.85444 -3.46949 0
M  V30 14845 H 1496.66 3.02998 -3.92946 0
M  V30 14846 N 1495.84 1.56784 0.160173 0
M  V30 14847 C 1497.11 1.73513 0.902908 0
M  V30 14848 C 1497.49 0.678036 1.99915 0
M  V30 14849 O 1496.84 -0.305302 2.26451 0
M  V30 14850 C 1497.05 3.17111 1.45744 0
M  V30 14851 C 1498.4 3.78404 1.92602 0
M  V30 14852 O 1499.42 3.20459 1.55515 0
M  V30 14853 O 1498.28 4.80172 2.60954 0
M  V30 14854 H 1495.38 0.708981 0.425764 0
M  V30 14855 H 1497.92 1.69061 0.147129 0
M  V30 14856 H 1496.7 3.85539 0.668985 0
M  V30 14857 H 1496.32 3.25936 2.2771 0
M  V30 14858 N 1497.32 -0.429099 1.51646 0
M  V30 14859 C 1498.25 -1.53996 1.69758 0
M  V30 14860 C 1499.26 -1.52189 0.578138 0
M  V30 14861 O 1500.45 -1.56816 0.852709 0
M  V30 14862 C 1497.55 -2.9291 1.7046 0
M  V30 14863 C 1496.72 -3.19132 2.99122 0
M  V30 14864 C 1495.78 -4.37813 2.91901 0
M  V30 14865 O 1494.81 -4.36065 3.65836 0
M  V30 14866 N 1496.01 -5.41834 2.08317 0
M  V30 14867 H 1498.77 -1.38861 2.65589 0
M  V30 14868 H 1496.34 -0.618148 1.49635 0
M  V30 14869 H 1498.33 -3.7034 1.63187 0
M  V30 14870 H 1496.9 -3.01602 0.821877 0
M  V30 14871 H 1496.12 -2.29926 3.20199 0
M  V30 14872 H 1497.41 -3.33483 3.84274 0
M  V30 14873 H 1496.8 -5.46094 1.4764 0
M  V30 14874 H 1495.36 -6.18085 2.06917 0
M  V30 14875 N 1498.79 -1.41931 -0.685074 0
M  V30 14876 C 1500.03 -1.43328 -1.45727 0
M  V30 14877 C 1500.4 -0.0443486 -1.91949 0
M  V30 14878 O 1501.6 0.0669235 -2.68717 0
M  V30 14879 C 1499.87 -2.42071 -2.62938 0
M  V30 14880 S 1501.43 -2.62085 -3.51933 0
M  V30 14881 H 1498.25 -0.507607 -0.497852 0
M  V30 14882 H 1500.85 -1.78453 -0.798414 0
M  V30 14883 H 1499.55 -3.41771 -2.27203 0
M  V30 14884 H 1499.08 -2.08335 -3.33707 0
M  V30 14885 H 1501.1 -1.89613 -4.58543 0
M  V30 14886 N 1500.27 0.920374 -1.27933 0
M  V30 14887 C 1501.18 2.05525 -1.13123 0
M  V30 14888 C 1502.2 1.73899 -0.059421 0
M  V30 14889 O 1503.37 1.99617 -0.267386 0
M  V30 14890 C 1500.44 3.37637 -0.787551 0
M  V30 14891 C 1499.5 3.82914 -1.94101 0
M  V30 14892 C 1498.73 5.08721 -1.61364 0
M  V30 14893 O 1498.96 5.6798 -0.524918 0
M  V30 14894 O 1497.89 5.4955 -2.45517 0
M  V30 14895 H 1501.72 2.20935 -2.08378 0
M  V30 14896 H 1499.3 1.04071 -1.07189 0
M  V30 14897 H 1501.18 4.16968 -0.609544 0
M  V30 14898 H 1499.86 3.23417 0.135407 0
M  V30 14899 H 1498.76 3.04438 -2.17413 0
M  V30 14900 H 1500.1 4.01687 -2.84444 0
M  V30 14901 N 1501.75 1.10074 1.1279 0
M  V30 14902 C 1502.66 0.758458 2.22001 0
M  V30 14903 C 1503.68 -0.242438 1.72303 0
M  V30 14904 O 1504.85 -0.0821223 2.01233 0
M  V30 14905 C 1501.92 0.191326 3.46172 0
M  V30 14906 C 1500.98 1.24902 4.10729 0
M  V30 14907 C 1500.21 0.708857 5.28972 0
M  V30 14908 O 1500.43 -0.465993 5.68493 0
M  V30 14909 O 1499.37 1.46703 5.83748 0
M  V30 14910 H 1503.19 1.66997 2.53665 0
M  V30 14911 H 1500.78 0.875604 1.21052 0
M  V30 14912 H 1502.66 -0.121292 4.21225 0
M  V30 14913 H 1501.34 -0.693094 3.16193 0
M  V30 14914 H 1500.24 1.61444 3.37471 0
M  V30 14915 H 1501.58 2.10632 4.44854 0
M  V30 14916 N 1503.23 -1.30138 0.888926 0
M  V30 14917 C 1504.18 -2.29979 0.348212 0
M  V30 14918 C 1505.17 -1.60329 -0.546894 0
M  V30 14919 O 1506.38 -1.74767 -0.43089 0
M  V30 14920 H 1502.75 -0.746107 0.0939563 0
M  V30 14921 H 1504.72 -2.73038 1.20385 0
M  V30 14922 C 1503.47 -3.45169 -0.418762 0
M  V30 14923 H 1502.79 -3.98949 0.260761 0
M  V30 14924 H 1504.23 -4.17094 -0.762133 0
M  V30 14925 C 1502.69 -2.95539 -1.61734 0
M  V30 14926 O 1503.22 -2.95902 -2.7167 0
M  V30 14927 N 1501.43 -2.51502 -1.45585 0
M  V30 14928 H 1500.98 -2.51406 -0.561483 0
M  V30 14929 H 1500.93 -2.18654 -2.25916 0
M  V30 14930 N 1504.71 -0.650285 -1.43559 0
M  V30 14931 C 1505.94 -0.169893 -2.059 0
M  V30 14932 C 1506.34 1.16848 -1.48806 0
M  V30 14933 O 1505.69 1.73177 -0.612827 0
M  V30 14934 C 1505.75 -0.00117055 -3.595 0
M  V30 14935 C 1505.41 -1.26438 -4.39161 0
M  V30 14936 C 1506.41 -2.19245 -4.7141 0
M  V30 14937 C 1504.09 -1.50514 -4.79219 0
M  V30 14938 C 1506.09 -3.34424 -5.42623 0
M  V30 14939 C 1503.78 -2.65987 -5.50177 0
M  V30 14940 C 1504.77 -3.57767 -5.81801 0
M  V30 14941 O 1504.46 -4.71223 -6.51309 0
M  V30 14942 H 1504.19 -0.0858397 -0.670528 0
M  V30 14943 H 1506.75 -0.890321 -1.85101 0
M  V30 14944 H 1504.98 0.774599 -3.78863 0
M  V30 14945 H 1506.67 0.436206 -4.03549 0
M  V30 14946 H 1507.43 -2.01885 -4.40985 0
M  V30 14947 H 1503.31 -0.799577 -4.54013 0
M  V30 14948 H 1506.86 -4.06082 -5.67224 0
M  V30 14949 H 1502.75 -2.83282 -5.80019 0
M  V30 14950 H 1503.52 -4.70451 -6.6979 0
M  V30 14951 N 1506.18 1.52647 -0.392018 0
M  V30 14952 C 1507.43 2.01613 0.1893 0
M  V30 14953 C 1507.76 1.27837 1.46588 0
M  V30 14954 O 1507.01 0.368018 1.92209 0
M  V30 14955 C 1507.31 3.53872 0.500914 0
M  V30 14956 C 1506.98 4.45675 -0.684434 0
M  V30 14957 C 1505.64 4.70489 -1.00961 0
M  V30 14958 C 1507.99 4.99825 -1.4773 0
M  V30 14959 C 1505.32 5.46703 -2.12915 0
M  V30 14960 C 1507.67 5.77263 -2.58747 0
M  V30 14961 C 1506.34 6.00355 -2.9177 0
M  V30 14962 H 1505.61 0.737755 0.0692697 0
M  V30 14963 H 1508.25 1.84022 -0.529924 0
M  V30 14964 H 1506.56 3.69551 1.3015 0
M  V30 14965 H 1508.26 3.89256 0.963382 0
M  V30 14966 H 1504.85 4.26527 -0.420985 0
M  V30 14967 H 1509.03 4.80577 -1.23932 0
M  V30 14968 H 1504.29 5.62807 -2.38868 0
M  V30 14969 H 1508.46 6.18223 -3.20583 0
M  V30 14970 H 1506.09 6.59194 -3.7864 0
M  V30 14971 N 1507.66 0.121921 1.57128 0
M  V30 14972 C 1508.89 -0.542225 1.99358 0
M  V30 14973 C 1509.3 -1.60578 1.00057 0
M  V30 14974 O 1508.64 -1.83694 -0.0142649 0
M  V30 14975 C 1508.71 -1.22448 3.38004 0
M  V30 14976 C 1508.37 -0.308522 4.55957 0
M  V30 14977 C 1509.37 0.454012 5.17914 0
M  V30 14978 C 1507.05 -0.218741 5.01823 0
M  V30 14979 C 1509.05 1.29403 6.24126 0
M  V30 14980 C 1506.73 0.624906 6.07896 0
M  V30 14981 C 1507.73 1.37992 6.68915 0
M  V30 14982 O 1507.42 2.20955 7.72938 0
M  V30 14983 H 1507.15 -0.147894 0.659624 0
M  V30 14984 H 1509.7 0.205954 2.04365 0
M  V30 14985 H 1507.93 -2.01979 3.2976 0
M  V30 14986 H 1509.62 -1.78583 3.64504 0
M  V30 14987 H 1510.39 0.394539 4.83393 0
M  V30 14988 H 1506.27 -0.796109 4.54074 0
M  V30 14989 H 1509.81 1.88382 6.71683 0
M  V30 14990 H 1505.71 0.685762 6.41847 0
M  V30 14991 H 1506.48 2.13929 7.90049 0
M  V30 14992 N 1509.14 -1.56867 -0.151857 0
M  V30 14993 C 1510.09 -1.98842 -1.20685 0
M  V30 14994 C 1511.08 -0.88007 -1.44745 0
M  V30 14995 O 1512.29 -1.06524 -1.45095 0
M  V30 14996 H 1508.66 -0.632904 -0.406123 0
M  V30 14997 H 1510.63 -2.86737 -0.826095 0
M  V30 14998 C 1509.38 -2.38095 -2.53389 0
M  V30 14999 H 1508.71 -3.2293 -2.35703 0
M  V30 15000 H 1510.15 -2.71292 -3.25847 0
M  V30 15001 C 1508.61 -1.23175 -3.13575 0
M  V30 15002 O 1509.14 -0.529864 -3.9819 0
M  V30 15003 N 1507.34 -0.997255 -2.72953 0
M  V30 15004 H 1506.89 -1.56979 -2.04243 0
M  V30 15005 H 1506.85 -0.23022 -3.13556 0
M  V30 15006 N 1510.62 0.421051 -1.51871 0
M  V30 15007 C 1512.03 0.758781 -1.40409 0
M  V30 15008 C 1512.23 1.95219 -0.499197 0
M  V30 15009 O 1511.29 2.52469 0.0395216 0
M  V30 15010 C 1512.6 1.02388 -2.82731 0
M  V30 15011 C 1514.15 1.12733 -2.91994 0
M  V30 15012 C 1514.63 1.42527 -4.35259 0
M  V30 15013 N 1516.12 1.49417 -4.38439 0
M  V30 15014 C 1516.85 1.74074 -5.46339 0
M  V30 15015 N 1516.35 1.96414 -6.64375 0
M  V30 15016 N 1518.14 1.7599 -5.33839 0
M  V30 15017 H 1510.29 -0.364682 -2.09246 0
M  V30 15018 H 1512.56 -0.100819 -0.942624 0
M  V30 15019 H 1512.26 0.219491 -3.51014 0
M  V30 15020 H 1512.14 1.94724 -3.23052 0
M  V30 15021 H 1514.52 1.92233 -2.23899 0
M  V30 15022 H 1514.6 0.182611 -2.55147 0
M  V30 15023 H 1514.25 0.635486 -5.03909 0
M  V30 15024 H 1514.18 2.38231 -4.69631 0
M  V30 15025 H 1516.67 1.3399 -3.53348 0
M  V30 15026 H 1516.98 2.14644 -7.42393 0
M  V30 15027 H 1515.33 1.93702 -6.67461 0
M  V30 15028 H 1518.52 1.58067 -4.40605 0
M  V30 15029 H 1518.69 1.94868 -6.18005 0
M  V30 15030 N 1512.1 1.42293 0.677538 0
M  V30 15031 C 1513.32 1.46214 1.47092 0
M  V30 15032 C 1513.75 0.0740989 1.87954 0
M  V30 15033 O 1513.1 -0.926831 1.55819 0
M  V30 15034 C 1513.15 2.39236 2.69812 0
M  V30 15035 O 1512.26 1.86183 3.6798 0
M  V30 15036 H 1511.6 0.495507 0.442006 0
M  V30 15037 H 1514.13 1.86952 0.831274 0
M  V30 15038 H 1514.14 2.55723 3.17915 0
M  V30 15039 H 1512.81 3.40081 2.39411 0
M  V30 15040 H 1511.39 1.79237 3.26999 0
M  V30 15041 N 1513.57 -0.913576 1.28419 0
M  V30 15042 C 1514.82 -1.66546 1.16765 0
M  V30 15043 C 1515.18 -1.90338 -0.280935 0
M  V30 15044 O 1514.47 -1.49279 -1.2011 0
M  V30 15045 C 1514.66 -3.02722 1.89985 0
M  V30 15046 C 1514.49 -2.9222 3.41815 0
M  V30 15047 C 1513.26 -2.93735 4.11154 0
M  V30 15048 C 1515.46 -2.70279 4.37554 0
M  V30 15049 N 1513.44 -2.73824 5.49448 0
M  V30 15050 C 1514.81 -2.59213 5.63213 0
M  V30 15051 C 1516.87 -2.55278 4.27478 0
M  V30 15052 C 1515.57 -2.34673 6.79942 0
M  V30 15053 C 1517.6 -2.32118 5.43944 0
M  V30 15054 C 1516.96 -2.21806 6.68567 0
M  V30 15055 H 1513.06 -0.615629 0.482208 0
M  V30 15056 H 1515.64 -1.07892 1.62072 0
M  V30 15057 H 1513.81 -3.59462 1.47112 0
M  V30 15058 H 1515.54 -3.66932 1.70714 0
M  V30 15059 H 1512.3 -3.04498 3.62736 0
M  V30 15060 H 1512.72 -2.6696 6.22143 0
M  V30 15061 H 1517.37 -2.62001 3.31836 0
M  V30 15062 H 1515.08 -2.26689 7.75653 0
M  V30 15063 H 1518.67 -2.21375 5.38038 0
M  V30 15064 H 1517.55 -2.0413 7.57166 0
M  V30 15065 N 1515.05 -1.1067 -1.12204 0
M  V30 15066 C 1516.46 -0.867959 -1.65298 0
M  V30 15067 C 1516.81 0.601297 -1.86759 0
M  V30 15068 O 1515.94 1.46153 -1.59588 0
M  V30 15069 C 1516.53 -1.56906 -3.00276 0
M  V30 15070 C 1515.09 -1.37696 -3.5031 0
M  V30 15071 C 1514.24 -1.61688 -2.25282 0
M  V30 15072 H 1517.19 -1.26408 -0.959521 0
M  V30 15073 H 1517.21 -1.00947 -3.66865 0
M  V30 15074 H 1516.72 -2.63838 -2.84625 0
M  V30 15075 H 1514.83 -0.329381 -3.71141 0
M  V30 15076 H 1514.94 -2.12058 -4.29614 0
M  V30 15077 H 1513.3 -1.03977 -2.3251 0
M  V30 15078 H 1514.09 -2.69877 -2.12182 0
M  V30 15079 N 1516.53 1.29665 -0.895815 0
M  V30 15080 C 1517.78 1.9533 -0.518725 0
M  V30 15081 C 1518.1 1.70995 0.937322 0
M  V30 15082 O 1517.37 1.03955 1.66043 0
M  V30 15083 H 1515.95 0.722736 -0.188841 0
M  V30 15084 H 1518.61 1.57991 -1.14126 0
M  V30 15085 H 1517.71 3.04193 -0.698057 0
M  V30 15086 N 1518.01 0.657889 1.43212 0
M  V30 15087 C 1519.25 0.176848 2.03634 0
M  V30 15088 C 1519.61 -1.18833 1.50807 0
M  V30 15089 O 1520.81 -1.76305 2.02904 0
M  V30 15090 C 1519.08 0.191578 3.56886 0
M  V30 15091 S 1520.64 -0.220935 4.38243 0
M  V30 15092 H 1517.46 0.0742555 0.707112 0
M  V30 15093 H 1520.06 0.867268 1.7521 0
M  V30 15094 H 1518.77 1.18781 3.92835 0
M  V30 15095 H 1518.3 -0.519229 3.89958 0
M  V30 15096 H 1520.31 -1.45865 4.74276 0
M  V30 15097 N 1519.49 -1.52437 0.400108 0
M  V30 15098 C 1520.42 -2.24433 -0.465038 0
M  V30 15099 C 1521.43 -1.27067 -1.01773 0
M  V30 15100 O 1522.62 -1.53072 -0.918215 0
M  V30 15101 C 1519.72 -2.95555 -1.65832 0
M  V30 15102 C 1518.89 -4.19717 -1.2311 0
M  V30 15103 C 1517.95 -4.73743 -2.29028 0
M  V30 15104 O 1516.98 -5.36556 -1.8999 0
M  V30 15105 N 1518.18 -4.54534 -3.6108 0
M  V30 15106 H 1520.95 -2.99315 0.151839 0
M  V30 15107 H 1518.51 -1.603 0.227019 0
M  V30 15108 H 1520.5 -3.28595 -2.36235 0
M  V30 15109 H 1519.07 -2.23915 -2.18131 0
M  V30 15110 H 1518.29 -3.92593 -0.355537 0
M  V30 15111 H 1519.58 -5.00367 -0.922487 0
M  V30 15112 H 1518.97 -4.04419 -3.95552 0
M  V30 15113 H 1517.53 -4.92035 -4.27486 0
M  V30 15114 N 1520.96 -0.130252 -1.57061 0
M  V30 15115 C 1521.87 0.829198 -2.19457 0
M  V30 15116 C 1522.89 1.2843 -1.17395 0
M  V30 15117 O 1524.07 1.34496 -1.49909 0
M  V30 15118 C 1521.13 2.05727 -2.79065 0
M  V30 15119 C 1520.19 1.65301 -3.962 0
M  V30 15120 C 1519.43 2.82253 -4.52956 0
M  V30 15121 O 1519.65 3.97999 -4.08598 0
M  V30 15122 O 1518.58 2.5869 -5.43473 0
M  V30 15123 H 1522.41 0.328139 -3.01922 0
M  V30 15124 H 1519.99 0.0959361 -1.49092 0
M  V30 15125 H 1521.88 2.7763 -3.17017 0
M  V30 15126 H 1520.55 2.54817 -1.99624 0
M  V30 15127 H 1519.46 0.904712 -3.62996 0
M  V30 15128 H 1520.79 1.20942 -4.7711 0
M  V30 15129 N 1522.44 1.56945 0.143535 0
M  V30 15130 C 1523.68 1.85347 0.861738 0
M  V30 15131 C 1524.05 0.715009 1.7819 0
M  V30 15132 O 1525.25 0.880162 2.53981 0
M  V30 15133 C 1523.52 3.18937 1.61288 0
M  V30 15134 S 1525.08 3.68904 2.37603 0
M  V30 15135 H 1521.9 0.650015 0.2881 0
M  V30 15136 H 1524.5 1.95122 0.121527 0
M  V30 15137 H 1523.2 3.9976 0.928434 0
M  V30 15138 H 1522.73 3.12176 2.39394 0
M  V30 15139 H 1524.75 3.38445 3.62863 0
M  V30 15140 N 1523.92 -0.412991 1.52093 0
M  V30 15141 C 1525.33 -0.991955 1.58168 0
M  V30 15142 C 1525.68 -1.91655 0.419834 0
M  V30 15143 O 1524.81 -2.11448 -0.460308 0
M  V30 15144 C 1525.4 -1.80581 2.86663 0
M  V30 15145 C 1523.96 -2.33487 2.9523 0
M  V30 15146 C 1523.11 -1.13362 2.5307 0
M  V30 15147 H 1526.06 -0.193364 1.57518 0
M  V30 15148 H 1526.08 -2.66282 2.71798 0
M  V30 15149 H 1525.59 -1.13262 3.71205 0
M  V30 15150 H 1523.69 -3.0419 2.15173 0
M  V30 15151 H 1523.81 -2.64617 3.99393 0
M  V30 15152 H 1522.17 -1.48641 2.06828 0
M  V30 15153 H 1522.95 -0.476148 3.39982 0
M  V30 15154 N 1525.4 -1.4265 -0.669982 0
M  V30 15155 C 1526.36 -1.46196 -1.7652 0
M  V30 15156 C 1527.36 -0.348884 -1.5697 0
M  V30 15157 O 1528.55 -0.609921 -1.63174 0
M  V30 15158 C 1525.68 -1.29829 -3.1521 0
M  V30 15159 H 1526.88 -2.43718 -1.74762 0
M  V30 15160 H 1524.43 -1.29168 -0.88007 0
M  V30 15161 H 1525.17 -0.332493 -3.22591 0
M  V30 15162 H 1524.95 -2.10501 -3.30804 0
M  V30 15163 H 1526.44 -1.35205 -3.95107 0
M  V30 15164 N 1526.88 0.906753 -1.28902 0
M  V30 15165 C 1528.12 1.67094 -1.17724 0
M  V30 15166 C 1528.48 1.90115 0.268373 0
M  V30 15167 O 1529.68 2.64052 0.502998 0
M  V30 15168 C 1527.95 2.98802 -1.96092 0
M  V30 15169 S 1529.51 3.89867 -2.01368 0
M  V30 15170 H 1526.33 0.573768 -0.419894 0
M  V30 15171 H 1528.93 1.07797 -1.63095 0
M  V30 15172 H 1527.64 2.79755 -3.00276 0
M  V30 15173 H 1527.17 3.63143 -1.51298 0
M  V30 15174 H 1529.18 4.83273 -1.12525 0
M  V30 15175 N 1528.36 1.11264 1.11616 0
M  V30 15176 C 1529.59 0.881522 1.8685 0
M  V30 15177 C 1529.99 -0.572088 1.80344 0
M  V30 15178 O 1529.34 -1.40665 1.18148 0
M  V30 15179 C 1529.4 1.26245 3.36604 0
M  V30 15180 C 1529.06 2.72485 3.6688 0
M  V30 15181 C 1530.06 3.70708 3.64516 0
M  V30 15182 C 1527.74 3.09086 3.95943 0
M  V30 15183 C 1529.74 5.0355 3.90789 0
M  V30 15184 C 1527.43 4.42114 4.21875 0
M  V30 15185 C 1528.42 5.39155 4.19286 0
M  V30 15186 O 1528.11 6.69787 4.44568 0
M  V30 15187 H 1527.84 0.315647 0.597782 0
M  V30 15188 H 1530.4 1.48317 1.42095 0
M  V30 15189 H 1528.63 0.603938 3.81955 0
M  V30 15190 H 1530.32 1.00744 3.93199 0
M  V30 15191 H 1531.08 3.43776 3.42115 0
M  V30 15192 H 1526.96 2.34171 3.97095 0
M  V30 15193 H 1530.51 5.79285 3.88684 0
M  V30 15194 H 1526.4 4.6878 4.43751 0
M  V30 15195 H 1527.17 6.75548 4.62144 0
M  V30 15196 N 1529.83 -1.29188 0.902679 0
M  V30 15197 C 1531.25 -1.47924 0.599209 0
M  V30 15198 C 1531.45 -1.82297 -0.858494 0
M  V30 15199 O 1530.51 -1.92123 -1.63845 0
M  V30 15200 C 1531.82 -2.59008 1.52759 0
M  V30 15201 C 1533.37 -2.72882 1.53312 0
M  V30 15202 C 1533.84 -3.87097 2.44785 0
M  V30 15203 N 1535.33 -3.94435 2.42849 0
M  V30 15204 C 1536.07 -4.82165 3.1033 0
M  V30 15205 N 1535.56 -5.74565 3.87101 0
M  V30 15206 N 1537.36 -4.75681 2.99473 0
M  V30 15207 H 1529.51 -1.05154 1.84544 0
M  V30 15208 H 1531.77 -0.522632 0.790924 0
M  V30 15209 H 1531.48 -2.40483 2.56634 0
M  V30 15210 H 1531.35 -3.55873 1.25036 0
M  V30 15211 H 1533.74 -2.90802 0.501804 0
M  V30 15212 H 1533.82 -1.76582 1.85074 0
M  V30 15213 H 1533.46 -3.69932 3.48012 0
M  V30 15214 H 1533.39 -4.82772 2.10331 0
M  V30 15215 H 1535.88 -3.28347 1.87074 0
M  V30 15216 H 1536.2 -6.3831 4.35638 0
M  V30 15217 H 1534.54 -5.74441 3.91207 0
M  V30 15218 H 1537.73 -4.02483 2.39009 0
M  V30 15219 H 1537.91 -5.4384 3.52337 0
M  V30 15220 N 1531.31 -0.665475 -1.42861 0
M  V30 15221 C 1532.24 0.00482845 -2.335 0
M  V30 15222 C 1533.22 0.799135 -1.50159 0
M  V30 15223 O 1534.41 0.75816 -1.78789 0
M  V30 15224 C 1531.54 0.963347 -3.33672 0
M  V30 15225 C 1530.49 0.278294 -4.27094 0
M  V30 15226 C 1529.82 1.34911 -5.174 0
M  V30 15227 C 1531.12 -0.836925 -5.15551 0
M  V30 15228 H 1532.81 -0.752129 -2.89799 0
M  V30 15229 H 1530.36 -0.363139 -1.39346 0
M  V30 15230 H 1532.31 1.44128 -3.95986 0
M  V30 15231 H 1531.03 1.75161 -2.75656 0
M  V30 15232 H 1529.69 -0.179314 -3.66161 0
M  V30 15233 H 1529.34 2.12912 -4.55716 0
M  V30 15234 H 1529.04 0.895919 -5.8073 0
M  V30 15235 H 1530.57 1.82816 -5.8259 0
M  V30 15236 H 1531.98 -0.440617 -5.71604 0
M  V30 15237 H 1530.38 -1.21533 -5.87665 0
M  V30 15238 H 1531.45 -1.6897 -4.54507 0
M  V30 15239 N 1532.79 1.52222 -0.408187 0
M  V30 15240 C 1534.04 2.02102 0.168154 0
M  V30 15241 C 1534.37 1.2933 1.4487 0
M  V30 15242 O 1533.64 0.399336 1.90356 0
M  V30 15243 C 1533.93 3.57679 0.416821 0
M  V30 15244 C 1533.78 4.41101 -0.880335 0
M  V30 15245 C 1535.1 4.23442 1.19936 0
M  V30 15246 H 1532.22 0.734583 0.0596402 0
M  V30 15247 H 1534.86 1.82121 -0.541467 0
M  V30 15248 H 1533.01 3.74835 1.02131 0
M  V30 15249 H 1534.68 4.35658 -1.51656 0
M  V30 15250 H 1532.92 4.07353 -1.49152 0
M  V30 15251 H 1533.6 5.48031 -0.660748 0
M  V30 15252 H 1536.07 4.10379 0.687605 0
M  V30 15253 H 1534.95 5.32239 1.3421 0
M  V30 15254 H 1535.21 3.82335 2.21973 0
M  V30 15255 N 1534.27 0.138579 1.5699 0
M  V30 15256 C 1535.21 -0.804305 2.16332 0
M  V30 15257 C 1536.18 -1.25002 1.09379 0
M  V30 15258 O 1537.37 -1.32405 1.37381 0
M  V30 15259 C 1534.51 -2.04137 2.78248 0
M  V30 15260 C 1533.62 -1.64223 3.99568 0
M  V30 15261 C 1532.76 -2.83046 4.49509 0
M  V30 15262 C 1531.8 -2.39465 5.63314 0
M  V30 15263 N 1530.93 -3.51267 6.07911 0
M  V30 15264 H 1535.77 -0.29144 2.96571 0
M  V30 15265 H 1533.31 -0.132146 1.46505 0
M  V30 15266 H 1535.27 -2.76646 3.12286 0
M  V30 15267 H 1533.9 -2.52849 2.00667 0
M  V30 15268 H 1532.95 -0.815123 3.71564 0
M  V30 15269 H 1534.26 -1.2821 4.82041 0
M  V30 15270 H 1533.42 -3.63755 4.85559 0
M  V30 15271 H 1532.16 -3.22298 3.66026 0
M  V30 15272 H 1531.16 -1.57193 5.2685 0
M  V30 15273 H 1532.39 -2.01307 6.48577 0
M  V30 15274 H 1530.33 -3.90156 5.27365 0
M  V30 15275 H 1530.25 -3.19241 6.85289 0
M  V30 15276 H 1531.52 -4.32358 6.48604 0
M  V30 15277 N 1535.75 -1.57019 -0.13521 0
M  V30 15278 C 1537.02 -1.74928 -0.875189 0
M  V30 15279 C 1537.4 -0.709755 -1.98811 0
M  V30 15280 O 1536.75 0.269237 -2.26908 0
M  V30 15281 C 1536.96 -3.1939 -1.40681 0
M  V30 15282 C 1538.31 -3.8142 -1.86557 0
M  V30 15283 O 1539.33 -3.22892 -1.50397 0
M  V30 15284 O 1538.19 -4.84263 -2.53282 0
M  V30 15285 H 1535.29 -0.715665 -0.414431 0
M  V30 15286 H 1537.83 -1.69274 -0.120215 0
M  V30 15287 H 1536.6 -3.86554 -0.607564 0
M  V30 15288 H 1536.23 -3.29517 -2.22496 0
M  V30 15289 N 1537.22 0.404919 -1.52309 0
M  V30 15290 C 1538.17 1.49363 -1.75953 0
M  V30 15291 C 1539.14 1.54802 -0.60212 0
M  V30 15292 O 1540.33 1.71308 -0.840128 0
M  V30 15293 C 1537.47 2.86767 -1.91987 0
M  V30 15294 C 1536.58 2.90603 -3.19646 0
M  V30 15295 C 1535.71 4.19333 -3.26088 0
M  V30 15296 C 1534.75 4.17161 -4.47932 0
M  V30 15297 N 1533.89 5.37469 -4.51743 0
M  V30 15298 H 1538.73 1.28503 -2.6887 0
M  V30 15299 H 1536.27 0.623684 -1.33224 0
M  V30 15300 H 1538.23 3.66536 -1.99267 0
M  V30 15301 H 1536.86 3.06112 -1.02447 0
M  V30 15302 H 1535.91 2.033 -3.21517 0
M  V30 15303 H 1537.22 2.84864 -4.09456 0
M  V30 15304 H 1536.37 5.07497 -3.32463 0
M  V30 15305 H 1535.11 4.27774 -2.34224 0
M  V30 15306 H 1534.12 3.27386 -4.417 0
M  V30 15307 H 1535.34 4.10356 -5.41096 0
M  V30 15308 H 1533.29 5.46569 -3.62764 0
M  V30 15309 H 1533.21 5.3374 -5.35404 0
M  V30 15310 H 1534.47 6.27575 -4.62353 0
M  V30 15311 N 1538.7 1.43003 0.662408 0
M  V30 15312 C 1539.95 1.44346 1.4245 0
M  V30 15313 C 1540.28 0.064094 1.94094 0
M  V30 15314 O 1539.56 -0.913633 1.71706 0
M  V30 15315 C 1539.84 2.47822 2.61259 0
M  V30 15316 C 1539.69 3.94998 2.15166 0
M  V30 15317 C 1541.01 2.48139 3.63476 0
M  V30 15318 H 1538.13 0.525606 0.51663 0
M  V30 15319 H 1540.77 1.74495 0.751754 0
M  V30 15320 H 1538.92 2.22244 3.18653 0
M  V30 15321 H 1540.59 4.31601 1.62843 0
M  V30 15322 H 1538.84 4.0827 1.46622 0
M  V30 15323 H 1539.51 4.62998 3.00561 0
M  V30 15324 H 1541.98 2.70916 3.15823 0
M  V30 15325 H 1540.86 3.22498 4.44169 0
M  V30 15326 H 1541.12 1.51184 4.15447 0
M  V30 15327 N 1540.18 -0.899904 1.29381 0
M  V30 15328 C 1541.14 -1.98554 1.14494 0
M  V30 15329 C 1542.14 -1.60599 0.0804732 0
M  V30 15330 O 1543.33 -1.71096 0.327395 0
M  V30 15331 C 1540.47 -3.32529 0.750818 0
M  V30 15332 H 1541.66 -2.13189 2.10928 0
M  V30 15333 H 1539.21 -1.08438 1.12565 0
M  V30 15334 H 1539.95 -3.23595 -0.213668 0
M  V30 15335 H 1539.73 -3.61443 1.51992 0
M  V30 15336 H 1541.22 -4.12195 0.669709 0
M  V30 15337 N 1541.66 -1.11854 -1.11024 0
M  V30 15338 C 1542.94 -0.781693 -1.79301 0
M  V30 15339 C 1543.32 0.72956 -1.98092 0
M  V30 15340 O 1542.66 1.66109 -1.56908 0
M  V30 15341 C 1542.87 -1.54976 -3.12703 0
M  V30 15342 C 1544.22 -1.73183 -3.87676 0
M  V30 15343 O 1545.25 -1.51437 -3.22406 0
M  V30 15344 O 1544.1 -2.0935 -5.04812 0
M  V30 15345 H 1541.2 -0.283672 -0.776826 0
M  V30 15346 H 1543.74 -1.22222 -1.17728 0
M  V30 15347 H 1542.52 -2.57759 -2.94408 0
M  V30 15348 H 1542.14 -1.10308 -3.81992 0
M  V30 15349 N 1543.14 1.28707 -0.909517 0
M  V30 15350 C 1544.09 2.25045 -0.365899 0
M  V30 15351 C 1545.07 1.5228 0.51959 0
M  V30 15352 O 1546.26 1.733 0.360004 0
M  V30 15353 C 1543.39 3.41 0.396725 0
M  V30 15354 C 1542.48 4.21092 -0.504243 0
M  V30 15355 N 1542.87 4.79293 -1.61592 0
M  V30 15356 C 1541.17 4.44964 -0.303843 0
M  V30 15357 C 1541.87 5.39516 -2.17481 0
M  V30 15358 N 1540.84 5.23442 -1.4666 0
M  V30 15359 H 1544.65 2.67611 -1.21497 0
M  V30 15360 H 1542.16 1.4343 -0.761686 0
M  V30 15361 H 1544.16 4.09094 0.80299 0
M  V30 15362 H 1542.82 2.99969 1.24294 0
M  V30 15363 H 1543.83 4.77785 -1.99856 0
M  V30 15364 H 1540.5 4.14456 0.503201 0
M  V30 15365 H 1541.89 5.95606 -3.10972 0
M  V30 15366 N 1544.61 0.673042 1.42506 0
M  V30 15367 C 1546.03 0.342429 1.55883 0
M  V30 15368 C 1546.23 -1.15229 1.65302 0
M  V30 15369 O 1545.29 -1.93767 1.61897 0
M  V30 15370 C 1546.6 1.0712 2.80973 0
M  V30 15371 C 1548.15 1.05336 2.94743 0
M  V30 15372 C 1548.62 1.76342 4.22691 0
M  V30 15373 N 1550.11 1.73201 4.29599 0
M  V30 15374 C 1550.85 2.25 5.27411 0
M  V30 15375 N 1550.34 2.85173 6.31386 0
M  V30 15376 N 1552.14 2.15385 5.19197 0
M  V30 15377 H 1544.29 1.64277 1.34636 0
M  V30 15378 H 1546.55 0.691984 0.647968 0
M  V30 15379 H 1546.26 2.1263 2.80145 0
M  V30 15380 H 1546.13 0.635313 3.71811 0
M  V30 15381 H 1548.52 0.00659669 2.95099 0
M  V30 15382 H 1548.6 1.52811 2.0514 0
M  V30 15383 H 1548.24 2.80985 4.23096 0
M  V30 15384 H 1548.17 1.26317 5.11225 0
M  V30 15385 H 1550.66 1.2931 3.55088 0
M  V30 15386 H 1550.98 3.22323 7.02373 0
M  V30 15387 H 1549.32 2.89242 6.31953 0
M  V30 15388 H 1552.51 1.68065 4.36889 0
M  V30 15389 H 1552.69 2.5606 5.95262 0
M  V30 15390 N 1546.09 -1.52004 0.416254 0
M  V30 15391 C 1547.34 -2.02188 -0.157434 0
M  V30 15392 C 1547.67 -1.30097 -1.44182 0
M  V30 15393 O 1546.95 -0.409426 -1.90142 0
M  V30 15394 C 1547.23 -3.57896 -0.397847 0
M  V30 15395 C 1547.08 -4.40628 0.903715 0
M  V30 15396 C 1548.4 -4.24072 -1.17689 0
M  V30 15397 H 1545.52 -0.734889 -0.0557437 0
M  V30 15398 H 1548.16 -1.81831 0.551118 0
M  V30 15399 H 1546.31 -3.75372 -1.00142 0
M  V30 15400 H 1547.98 -4.34848 1.53964 0
M  V30 15401 H 1546.23 -4.06556 1.5131 0
M  V30 15402 H 1546.9 -5.47673 0.689802 0
M  V30 15403 H 1549.37 -4.10738 -0.665832 0
M  V30 15404 H 1548.25 -5.32944 -1.31386 0
M  V30 15405 H 1548.51 -3.83507 -2.19942 0
M  V30 15406 N 1547.57 -0.146903 -1.56914 0
M  V30 15407 C 1548.52 0.792821 -2.16756 0
M  V30 15408 C 1549.49 1.2442 -1.1004 0
M  V30 15409 O 1550.67 1.31674 -1.38081 0
M  V30 15410 C 1547.81 2.02659 -2.79327 0
M  V30 15411 C 1546.93 1.62102 -4.00433 0
M  V30 15412 C 1546.06 2.80658 -4.51004 0
M  V30 15413 C 1545.1 2.36474 -5.64576 0
M  V30 15414 N 1544.24 3.48038 -6.09766 0
M  V30 15415 H 1549.08 0.275708 -2.96722 0
M  V30 15416 H 1546.61 0.124374 -1.46573 0
M  V30 15417 H 1548.57 2.74986 -3.13749 0
M  V30 15418 H 1547.2 2.51781 -2.02005 0
M  V30 15419 H 1546.25 0.795407 -3.71991 0
M  V30 15420 H 1547.57 1.25652 -4.82714 0
M  V30 15421 H 1546.72 3.61175 -4.87481 0
M  V30 15422 H 1545.46 3.20353 -3.6773 0
M  V30 15423 H 1544.46 1.54397 -5.27676 0
M  V30 15424 H 1545.69 1.97865 -6.49635 0
M  V30 15425 H 1543.63 3.87354 -5.29427 0
M  V30 15426 H 1543.55 3.15602 -6.86972 0
M  V30 15427 H 1544.82 4.28912 -6.50887 0
M  V30 15428 N 1549.05 1.57088 0.126881 0
M  V30 15429 C 1549.98 2.02799 1.15737 0
M  V30 15430 C 1550.96 0.911031 1.43646 0
M  V30 15431 O 1552.14 1.18021 1.54223 0
M  V30 15432 C 1549.27 2.42565 2.48555 0
M  V30 15433 C 1548.23 3.57631 2.35125 0
M  V30 15434 C 1547.55 3.83272 3.72836 0
M  V30 15435 C 1548.85 4.89625 1.81838 0
M  V30 15436 H 1550.55 2.89136 0.777207 0
M  V30 15437 H 1548.09 1.39101 0.372416 0
M  V30 15438 H 1550.05 2.73146 3.20888 0
M  V30 15439 H 1548.77 1.53188 2.88446 0
M  V30 15440 H 1547.43 3.27247 1.65242 0
M  V30 15441 H 1547.08 2.91114 4.10197 0
M  V30 15442 H 1546.78 4.60721 3.64705 0
M  V30 15443 H 1548.3 4.16298 4.46686 0
M  V30 15444 H 1549.72 5.18793 2.43981 0
M  V30 15445 H 1548.11 5.71018 1.84548 0
M  V30 15446 H 1549.18 4.7866 0.775385 0
M  V30 15447 N 1550.53 -0.396836 1.52522 0
M  V30 15448 C 1551.46 -1.50361 1.72986 0
M  V30 15449 C 1552.47 -1.50928 0.610289 0
M  V30 15450 O 1553.66 -1.54972 0.88578 0
M  V30 15451 C 1550.76 -2.89229 1.76635 0
M  V30 15452 C 1549.93 -3.12715 3.05824 0
M  V30 15453 C 1548.99 -4.31523 3.01122 0
M  V30 15454 O 1548.02 -4.28207 3.75004 0
M  V30 15455 N 1549.22 -5.37294 2.19763 0
M  V30 15456 H 1551.99 -1.33196 2.68475 0
M  V30 15457 H 1549.55 -0.586269 1.50912 0
M  V30 15458 H 1551.54 -3.66796 1.71006 0
M  V30 15459 H 1550.11 -2.99791 0.885667 0
M  V30 15460 H 1549.33 -2.23083 3.25004 0
M  V30 15461 H 1550.62 -3.25257 3.91261 0
M  V30 15462 H 1550.01 -5.4284 1.5919 0
M  V30 15463 H 1548.57 -6.13557 2.19981 0
M  V30 15464 N 1552.01 -1.43353 -0.654814 0
M  V30 15465 C 1552.92 -1.50831 -1.79687 0
M  V30 15466 C 1553.93 -0.395518 -1.69445 0
M  V30 15467 O 1555.11 -0.649408 -1.90643 0
M  V30 15468 C 1552.17 -1.42735 -3.15955 0
M  V30 15469 C 1551.23 -2.64671 -3.38005 0
M  V30 15470 C 1550.47 -2.56952 -4.67773 0
M  V30 15471 O 1550.69 -1.61638 -5.47019 0
M  V30 15472 O 1549.62 -3.47425 -4.91507 0
M  V30 15473 H 1553.45 -2.47266 -1.76333 0
M  V30 15474 H 1551.03 -1.25336 -0.813095 0
M  V30 15475 H 1552.92 -1.40656 -3.97233 0
M  V30 15476 H 1551.59 -0.494334 -3.19903 0
M  V30 15477 H 1550.5 -2.72323 -2.56498 0
M  V30 15478 H 1551.83 -3.5694 -3.38903 0
M  V30 15479 N 1553.48 0.89303 -1.29857 0
M  V30 15480 C 1554.41 2.01422 -1.18117 0
M  V30 15481 C 1555.39 1.6994 -0.0737487 0
M  V30 15482 O 1556.58 1.92527 -0.254387 0
M  V30 15483 C 1553.71 3.36385 -0.863842 0
M  V30 15484 C 1552.66 3.821 -1.92831 0
M  V30 15485 C 1551.99 5.14263 -1.46415 0
M  V30 15486 C 1553.29 4.01699 -3.33819 0
M  V30 15487 H 1554.98 2.11502 -2.11913 0
M  V30 15488 H 1552.53 1.01622 -1.02024 0
M  V30 15489 H 1554.48 4.14335 -0.768397 0
M  V30 15490 H 1553.21 3.26415 0.109816 0
M  V30 15491 H 1551.87 3.06372 -2.01325 0
M  V30 15492 H 1551.51 5.00714 -0.478983 0
M  V30 15493 H 1551.21 5.45821 -2.17609 0
M  V30 15494 H 1552.74 5.94747 -1.38234 0
M  V30 15495 H 1554.15 4.70111 -3.28129 0
M  V30 15496 H 1552.55 4.44621 -4.03029 0
M  V30 15497 H 1553.62 3.05816 -3.76304 0
M  V30 15498 N 1554.96 1.12442 1.10429 0
M  V30 15499 C 1555.87 0.805377 2.20343 0
M  V30 15500 C 1556.89 -0.205836 1.72778 0
M  V30 15501 O 1558.06 -0.0394195 2.01361 0
M  V30 15502 C 1555.13 0.264711 3.45688 0
M  V30 15503 C 1554.19 1.33586 4.07987 0
M  V30 15504 C 1553.42 0.8209 5.27349 0
M  V30 15505 O 1553.65 -0.345303 5.69354 0
M  V30 15506 O 1552.58 1.59052 5.80505 0
M  V30 15507 H 1556.41 1.7234 2.50065 0
M  V30 15508 H 1553.99 0.901084 1.19167 0
M  V30 15509 H 1555.87 -0.0319164 4.21388 0
M  V30 15510 H 1554.55 -0.625869 3.17592 0
M  V30 15511 H 1553.45 1.68566 3.33971 0
M  V30 15512 H 1554.79 2.20021 4.40286 0
M  V30 15513 N 1556.44 -1.28223 0.91633 0
M  V30 15514 C 1557.66 -1.99523 0.566147 0
M  V30 15515 C 1558.09 -1.68 -0.846034 0
M  V30 15516 O 1557.45 -0.913838 -1.56584 0
M  V30 15517 C 1557.5 -3.51949 0.785114 0
M  V30 15518 O 1556.6 -4.1211 -0.154686 0
M  V30 15519 H 1555.94 -0.626764 0.219232 0
M  V30 15520 H 1558.47 -1.63313 1.23247 0
M  V30 15521 H 1558.48 -4.02016 0.696224 0
M  V30 15522 H 1557.16 -3.74227 1.81457 0
M  V30 15523 H 1555.73 -3.72896 -0.0168463 0
M  V30 15524 N 1557.92 -0.68059 -1.42147 0
M  V30 15525 C 1558.85 -0.0199376 -2.33491 0
M  V30 15526 C 1559.83 0.783164 -1.50999 0
M  V30 15527 O 1561.01 0.739154 -1.79583 0
M  V30 15528 C 1558.14 0.927902 -3.34675 0
M  V30 15529 C 1557.1 0.232979 -4.27365 0
M  V30 15530 C 1556.42 1.29415 -5.18802 0
M  V30 15531 C 1557.72 -0.891559 -5.14634 0
M  V30 15532 H 1559.42 -0.782823 -2.88985 0
M  V30 15533 H 1556.96 -0.377898 -1.38953 0
M  V30 15534 H 1558.92 1.3992 -3.97493 0
M  V30 15535 H 1557.64 1.72228 -2.77498 0
M  V30 15536 H 1556.3 -0.21814 -3.6595 0
M  V30 15537 H 1555.95 2.08067 -4.57949 0
M  V30 15538 H 1555.65 0.834274 -5.81647 0
M  V30 15539 H 1557.17 1.76627 -5.84496 0
M  V30 15540 H 1558.59 -0.501219 -5.71105 0
M  V30 15541 H 1556.98 -1.27759 -5.86343 0
M  V30 15542 H 1558.05 -1.73781 -4.5269 0
M  V30 15543 N 1559.4 1.51781 -0.424309 0
M  V30 15544 C 1560.64 2.01157 0.147925 0
M  V30 15545 C 1560.96 1.31369 1.44919 0
M  V30 15546 O 1562.16 1.71643 2.10359 0
M  V30 15547 C 1560.62 3.58526 0.31417 0
M  V30 15548 C 1560.23 4.37242 -0.975898 0
M  V30 15549 C 1561.97 4.16088 0.840876 0
M  V30 15550 C 1559.88 5.86287 -0.776009 0
M  V30 15551 H 1558.81 0.751684 0.0590568 0
M  V30 15552 H 1561.46 1.74998 -0.552079 0
M  V30 15553 H 1559.84 3.81077 1.07687 0
M  V30 15554 H 1561.02 4.26444 -1.74592 0
M  V30 15555 H 1559.33 3.9107 -1.43015 0
M  V30 15556 H 1561.93 5.25138 1.0067 0
M  V30 15557 H 1562.27 3.7442 1.81977 0
M  V30 15558 H 1562.8 3.97565 0.136836 0
M  V30 15559 H 1559.54 6.32343 -1.7269 0
M  V30 15560 H 1559.06 5.99783 -0.0455544 0
M  V30 15561 H 1560.74 6.45609 -0.424095 0
M  V30 15562 N 1560.87 0.155222 1.56834 0
M  V30 15563 C 1561.84 -0.767266 2.15976 0
M  V30 15564 C 1562.84 -1.16946 1.10364 0
M  V30 15565 O 1564.03 -1.08905 1.35961 0
M  V30 15566 C 1561.16 -2.04226 2.72956 0
M  V30 15567 H 1562.35 -0.252662 2.98834 0
M  V30 15568 H 1559.9 -0.0942677 1.56015 0
M  V30 15569 H 1560.64 -2.60033 1.93787 0
M  V30 15570 H 1560.42 -1.76299 3.5023 0
M  V30 15571 H 1561.91 -2.70093 3.18495 0
M  V30 15572 N 1562.35 -1.57153 -0.118549 0
M  V30 15573 C 1563.3 -2.01357 -1.1644 0
M  V30 15574 C 1564.29 -0.910574 -1.42846 0
M  V30 15575 O 1565.5 -1.09578 -1.42803 0
M  V30 15576 H 1561.87 -0.641376 -0.392607 0
M  V30 15577 H 1563.85 -2.88425 -0.765087 0
M  V30 15578 C 1562.59 -2.43416 -2.48282 0
M  V30 15579 H 1561.92 -3.27857 -2.288 0
M  V30 15580 H 1563.36 -2.78143 -3.20019 0
M  V30 15581 C 1561.82 -1.29799 -3.10892 0
M  V30 15582 O 1562.35 -0.614207 -3.96977 0
M  V30 15583 N 1560.55 -1.05493 -2.70776 0
M  V30 15584 H 1560.1 -1.61276 -2.00868 0
M  V30 15585 H 1560.06 -0.296678 -3.12997 0
M  V30 15586 N 1563.83 0.388742 -1.5273 0
M  V30 15587 C 1564.76 1.48133 -1.80496 0
M  V30 15588 C 1565.74 1.56899 -0.657008 0
M  V30 15589 O 1566.93 1.71844 -0.904621 0
M  V30 15590 C 1564.06 2.85742 -1.97405 0
M  V30 15591 C 1563.01 2.91815 -3.13094 0
M  V30 15592 C 1562.34 4.31876 -3.15258 0
M  V30 15593 C 1563.64 2.61438 -4.52159 0
M  V30 15594 H 1565.33 1.25147 -2.7199 0
M  V30 15595 H 1562.88 0.600603 -1.30877 0
M  V30 15596 H 1564.83 3.62182 -2.15412 0
M  V30 15597 H 1563.55 3.10065 -1.02601 0
M  V30 15598 H 1562.21 2.17824 -2.9487 0
M  V30 15599 H 1561.86 4.53239 -2.18135 0
M  V30 15600 H 1561.56 4.3686 -3.92972 0
M  V30 15601 H 1563.08 5.10221 -3.3542 0
M  V30 15602 H 1564.5 3.27596 -4.70483 0
M  V30 15603 H 1562.89 2.77771 -5.31943 0
M  V30 15604 H 1563.96 1.56778 -4.58856 0
M  V30 15605 N 1565.31 1.43698 0.647203 0
M  V30 15606 C 1566.56 1.45346 1.40425 0
M  V30 15607 C 1566.88 0.081129 1.94831 0
M  V30 15608 O 1566.15 -0.884379 1.74801 0
M  V30 15609 H 1564.73 0.535145 0.521181 0
M  V30 15610 H 1567.39 1.79349 0.762887 0
M  V30 15611 H 1566.48 2.16954 2.2436 0
M  V30 15612 N 1566.79 -0.886131 1.30328 0
M  V30 15613 C 1568.01 -1.67099 1.22007 0
M  V30 15614 C 1568.43 -1.87546 -0.217255 0
M  V30 15615 O 1567.79 -1.42213 -1.14375 0
M  V30 15616 C 1567.84 -3.048 1.94368 0
M  V30 15617 O 1567.56 -2.85277 3.32489 0
M  V30 15618 C 1569.06 -3.99231 1.9269 0
M  V30 15619 H 1566.28 -0.521467 0.422271 0
M  V30 15620 H 1568.82 -1.1072 1.71934 0
M  V30 15621 H 1566.98 -3.57915 1.48242 0
M  V30 15622 H 1567.39 -3.72626 3.69121 0
M  V30 15623 H 1568.87 -4.93223 2.47861 0
M  V30 15624 H 1569.34 -4.29763 0.905558 0
M  V30 15625 H 1569.95 -3.52051 2.38621 0
M  V30 15626 N 1568.26 -1.13026 -1.09832 0
M  V30 15627 C 1569.51 -0.887662 -1.81563 0
M  V30 15628 C 1569.83 0.587935 -1.85926 0
M  V30 15629 O 1569.1 1.42732 -1.3418 0
M  V30 15630 H 1567.68 -0.32541 -0.672397 0
M  V30 15631 H 1570.35 -1.42597 -1.32861 0
M  V30 15632 H 1569.44 -1.2747 -2.84882 0
M  V30 15633 N 1569.74 1.27735 -0.923117 0
M  V30 15634 C 1571.02 1.89626 -0.479724 0
M  V30 15635 C 1571.4 1.83592 1.04197 0
M  V30 15636 O 1570.75 1.27808 1.89413 0
M  V30 15637 C 1570.96 3.33742 -1.02064 0
M  V30 15638 C 1572.31 4.10678 -1.07837 0
M  V30 15639 O 1573.33 3.4274 -0.969943 0
M  V30 15640 O 1572.19 5.32135 -1.24476 0
M  V30 15641 H 1569.28 0.812615 -0.153575 0
M  V30 15642 H 1571.83 1.36036 -1.01451 0
M  V30 15643 H 1570.6 3.32404 -2.06454 0
M  V30 15644 H 1570.22 3.94845 -0.467234 0
M  V30 15645 N 1571.22 0.688118 1.41784 0
M  V30 15646 C 1572.13 0.018397 2.34593 0
M  V30 15647 C 1573.15 -0.774275 1.55824 0
M  V30 15648 O 1574.32 -0.713546 1.88336 0
M  V30 15649 C 1571.39 -0.911914 3.34492 0
M  V30 15650 C 1570.45 -0.112284 4.29153 0
M  V30 15651 C 1569.68 -0.998285 5.2428 0
M  V30 15652 O 1569.9 -2.23782 5.24669 0
M  V30 15653 O 1568.84 -0.451951 6.00201 0
M  V30 15654 H 1572.66 0.783224 2.93427 0
M  V30 15655 H 1570.25 0.448413 1.42512 0
M  V30 15656 H 1572.13 -1.4456 3.95829 0
M  V30 15657 H 1570.81 -1.65636 2.78112 0
M  V30 15658 H 1569.71 0.465822 3.71189 0
M  V30 15659 H 1571.05 0.593338 4.88611 0
M  V30 15660 N 1572.7 -1.51554 0.432352 0
M  V30 15661 C 1573.63 -2.24175 -0.426721 0
M  V30 15662 C 1574.61 -1.2591 -1.02885 0
M  V30 15663 O 1575.79 -1.55031 -1.07227 0
M  V30 15664 C 1572.92 -2.9883 -1.59431 0
M  V30 15665 C 1571.97 -4.11712 -1.11335 0
M  V30 15666 S 1572.8 -5.35467 -0.0594485 0
M  V30 15667 C 1573.96 -6.13659 -1.23182 0
M  V30 15668 H 1574.19 -2.96693 0.18984 0
M  V30 15669 H 1571.72 -1.5287 0.216828 0
M  V30 15670 H 1573.68 -3.42442 -2.2637 0
M  V30 15671 H 1572.34 -2.2591 -2.18228 0
M  V30 15672 H 1571.53 -4.63207 -1.98633 0
M  V30 15673 H 1571.14 -3.70335 -0.522268 0
M  V30 15674 H 1573.43 -6.42443 -2.15113 0
M  V30 15675 H 1574.37 -7.04043 -0.756938 0
M  V30 15676 H 1574.78 -5.45074 -1.46813 0
M  V30 15677 N 1574.18 -0.163538 -1.56749 0
M  V30 15678 C 1575.42 0.48412 -1.96937 0
M  V30 15679 C 1575.76 1.63418 -1.04919 0
M  V30 15680 O 1575.03 1.94269 -0.094783 0
M  V30 15681 C 1575.31 0.974532 -3.46663 0
M  V30 15682 C 1575.17 -0.175173 -4.49459 0
M  V30 15683 C 1576.49 1.85082 -3.9929 0
M  V30 15684 H 1573.6 0.174503 -0.716043 0
M  V30 15685 H 1576.25 -0.248103 -1.88373 0
M  V30 15686 H 1574.4 1.59849 -3.54091 0
M  V30 15687 H 1576.07 -0.812038 -4.54096 0
M  V30 15688 H 1574.31 -0.831853 -4.2575 0
M  V30 15689 H 1574.98 0.20996 -5.51601 0
M  V30 15690 H 1577.46 1.32488 -3.94444 0
M  V30 15691 H 1576.33 2.163 -5.04485 0
M  V30 15692 H 1576.6 2.79378 -3.42638 0
M  V30 15693 N 1575.65 1.57214 0.110213 0
M  V30 15694 C 1576.88 1.89505 0.830391 0
M  V30 15695 C 1577.3 0.755702 1.73016 0
M  V30 15696 O 1576.65 -0.273072 1.80445 0
M  V30 15697 C 1576.71 3.21316 1.65646 0
M  V30 15698 O 1576.43 4.30865 0.7929 0
M  V30 15699 C 1577.93 3.67369 2.48102 0
M  V30 15700 H 1575.15 0.627277 0.238252 0
M  V30 15701 H 1577.69 2.04293 0.0919716 0
M  V30 15702 H 1575.85 3.08171 2.34754 0
M  V30 15703 H 1576.26 5.06466 1.36353 0
M  V30 15704 H 1577.73 4.62335 3.0158 0
M  V30 15705 H 1578.21 2.94459 3.25869 0
M  V30 15706 H 1578.82 3.83331 1.8422 0
M  V30 15707 N 1577.13 -0.380637 1.52934 0
M  V30 15708 C 1578.41 -1.13958 1.58975 0
M  V30 15709 C 1578.79 -2.07503 0.388028 0
M  V30 15710 O 1578.14 -2.19844 -0.622984 0
M  V30 15711 C 1578.35 -1.89192 2.9327 0
M  V30 15712 C 1579.7 -2.44259 3.47308 0
M  V30 15713 O 1580.72 -1.99338 2.95199 0
M  V30 15714 O 1579.58 -3.26338 4.38367 0
M  V30 15715 H 1576.67 -0.521896 0.641525 0
M  V30 15716 H 1579.22 -0.385114 1.65272 0
M  V30 15717 H 1577.99 -1.20834 3.72176 0
M  V30 15718 H 1577.61 -2.71581 2.90395 0
M  V30 15719 N 1578.61 -1.44039 -0.639573 0
M  V30 15720 C 1579.54 -1.46233 -1.76489 0
M  V30 15721 C 1580.56 -0.356739 -1.58843 0
M  V30 15722 O 1581.74 -0.621988 -1.67313 0
M  V30 15723 C 1578.84 -1.27252 -3.14102 0
M  V30 15724 C 1578.02 -2.50902 -3.58283 0
M  V30 15725 C 1577.08 -2.26944 -4.74745 0
M  V30 15726 O 1576.1 -3.00381 -4.83487 0
M  V30 15727 N 1577.3 -1.29468 -5.65878 0
M  V30 15728 H 1580.07 -2.43243 -1.7508 0
M  V30 15729 H 1577.63 -1.3937 -0.823867 0
M  V30 15730 H 1579.62 -1.09085 -3.89721 0
M  V30 15731 H 1578.19 -0.386383 -3.10203 0
M  V30 15732 H 1577.41 -2.84403 -2.72963 0
M  V30 15733 H 1578.7 -3.33163 -3.84552 0
M  V30 15734 H 1578.1 -0.687994 -5.61501 0
M  V30 15735 H 1576.66 -1.17281 -6.41162 0
M  V30 15736 N 1580.09 0.879207 -1.30796 0
M  V30 15737 C 1581.05 1.96707 -1.17639 0
M  V30 15738 C 1582.05 1.6045 -0.106013 0
M  V30 15739 O 1583.24 1.70553 -0.354573 0
M  V30 15740 C 1580.37 3.31292 -0.803625 0
M  V30 15741 H 1581.57 2.09806 -2.14293 0
M  V30 15742 H 1579.12 1.06634 -1.14276 0
M  V30 15743 H 1579.85 3.23894 0.162159 0
M  V30 15744 H 1579.64 3.58979 -1.57723 0
M  V30 15745 H 1581.13 4.11077 -0.735201 0
M  V30 15746 N 1581.57 1.13606 1.09231 0
M  V30 15747 C 1582.81 0.899054 1.81448 0
M  V30 15748 C 1583.14 -0.574726 1.85815 0
M  V30 15749 O 1582.4 -1.44144 1.32366 0
M  V30 15750 C 1582.7 1.43456 3.27345 0
M  V30 15751 C 1582.36 2.92553 3.43109 0
M  V30 15752 C 1581.02 3.3326 3.47118 0
M  V30 15753 C 1583.38 3.88467 3.47481 0
M  V30 15754 C 1580.7 4.68562 3.53081 0
M  V30 15755 C 1583.06 5.23616 3.54978 0
M  V30 15756 C 1581.72 5.63847 3.57257 0
M  V30 15757 H 1580.99 0.328987 0.663964 0
M  V30 15758 H 1583.64 1.41834 1.28668 0
M  V30 15759 H 1581.94 0.83602 3.82777 0
M  V30 15760 H 1583.64 1.22723 3.81759 0
M  V30 15761 H 1580.23 2.60076 3.40674 0
M  V30 15762 H 1584.41 3.58103 3.43622 0
M  V30 15763 H 1579.67 4.99106 3.53134 0
M  V30 15764 H 1583.84 5.9775 3.57306 0
M  V30 15765 H 1581.47 6.68676 3.6163 0
M  V30 15766 N 1583.05 -1.27244 0.929878 0
M  V30 15767 C 1583.96 -2.30506 0.436355 0
M  V30 15768 C 1584.97 -1.67131 -0.484054 0
M  V30 15769 O 1586.15 -1.9804 -0.366332 0
M  V30 15770 C 1583.21 -3.45391 -0.300942 0
M  V30 15771 C 1582.27 -4.24279 0.654647 0
M  V30 15772 C 1581.51 -5.33679 -0.047558 0
M  V30 15773 O 1581.73 -5.56161 -1.26654 0
M  V30 15774 O 1580.66 -5.98642 0.62538 0
M  V30 15775 H 1584.49 -2.74762 1.29382 0
M  V30 15776 H 1582.07 -1.32234 0.695311 0
M  V30 15777 H 1583.96 -4.1526 -0.716718 0
M  V30 15778 H 1582.63 -3.03187 -1.13398 0
M  V30 15779 H 1581.54 -3.56936 1.12015 0
M  V30 15780 H 1582.87 -4.70204 1.45497 0
M  V30 15781 N 1584.52 -0.695628 -1.41417 0
M  V30 15782 C 1585.8 -0.154646 -1.94988 0
M  V30 15783 C 1586.18 1.33534 -1.63499 0
M  V30 15784 O 1585.53 2.08178 -0.942031 0
M  V30 15785 C 1585.74 -0.446004 -3.46138 0
M  V30 15786 C 1587.09 -0.37378 -4.22952 0
M  V30 15787 O 1588.11 -0.380921 -3.54157 0
M  V30 15788 O 1586.97 -0.33395 -5.45479 0
M  V30 15789 H 1584.06 -0.0150053 -0.826864 0
M  V30 15790 H 1586.61 -0.771792 -1.51134 0
M  V30 15791 H 1585.38 -1.47734 -3.6234 0
M  V30 15792 H 1585 0.202111 -3.97086 0
M  V30 15793 N 1586 1.51322 -0.440383 0
M  V30 15794 C 1587.42 1.5933 -0.0928372 0
M  V30 15795 C 1587.62 1.45107 1.39807 0
M  V30 15796 O 1586.67 1.29385 2.16831 0
M  V30 15797 C 1587.99 2.9433 -0.615663 0
M  V30 15798 C 1589.53 3.07647 -0.576373 0
M  V30 15799 C 1590.01 4.45176 -1.07622 0
M  V30 15800 N 1591.5 4.51504 -1.03434 0
M  V30 15801 C 1592.24 5.56249 -1.39194 0
M  V30 15802 N 1591.73 6.68398 -1.82254 0
M  V30 15803 N 1593.52 5.46624 -1.30991 0
M  V30 15804 H 1585.68 1.58812 -1.41041 0
M  V30 15805 H 1587.94 0.748795 -0.581386 0
M  V30 15806 H 1587.64 3.10117 -1.65892 0
M  V30 15807 H 1587.52 3.77176 -0.0422513 0
M  V30 15808 H 1589.91 2.91526 0.457904 0
M  V30 15809 H 1589.99 2.26633 -1.18622 0
M  V30 15810 H 1589.63 4.62044 -2.10898 0
M  V30 15811 H 1589.56 5.24734 -0.442882 0
M  V30 15812 H 1592.05 3.71013 -0.718156 0
M  V30 15813 H 1592.36 7.44347 -2.07769 0
M  V30 15814 H 1590.71 6.69598 -1.86183 0
M  V30 15815 H 1593.9 4.57894 -0.972145 0
M  V30 15816 H 1594.07 6.28143 -1.59188 0
M  V30 15817 N 1587.48 0.171848 1.5666 0
M  V30 15818 C 1588.41 -0.753861 2.20996 0
M  V30 15819 C 1589.39 -1.23873 1.16574 0
M  V30 15820 O 1590.58 -1.29179 1.45005 0
M  V30 15821 C 1587.71 -1.98314 2.85112 0
M  V30 15822 C 1586.66 -1.6341 3.95577 0
M  V30 15823 C 1585.99 -2.93807 4.46745 0
M  V30 15824 C 1587.29 -0.861713 5.15142 0
M  V30 15825 H 1588.98 -0.217598 2.98608 0
M  V30 15826 H 1586.53 -0.10322 1.4363 0
M  V30 15827 H 1588.48 -2.63576 3.28794 0
M  V30 15828 H 1587.2 -2.54354 2.04869 0
M  V30 15829 H 1585.86 -1.00516 3.52551 0
M  V30 15830 H 1585.51 -3.47889 3.63293 0
M  V30 15831 H 1585.21 -2.71207 5.21268 0
M  V30 15832 H 1586.73 -3.60098 4.93114 0
M  V30 15833 H 1588.15 -1.41693 5.55514 0
M  V30 15834 H 1586.54 -0.734727 5.95585 0
M  V30 15835 H 1587.61 0.141851 4.84692 0
M  V30 15836 N 1588.96 -1.5727 -0.101874 0
M  V30 15837 C 1589.9 -2.01577 -1.12406 0
M  V30 15838 C 1590.87 -0.890883 -1.40187 0
M  V30 15839 O 1592.06 -1.15638 -1.51764 0
M  V30 15840 C 1589.2 -2.43952 -2.44093 0
M  V30 15841 C 1588.31 -3.69932 -2.23101 0
M  V30 15842 C 1587.45 -4.01215 -3.48138 0
M  V30 15843 C 1586.49 -5.20325 -3.22379 0
M  V30 15844 N 1585.62 -5.47394 -4.39664 0
M  V30 15845 H 1590.46 -2.88685 -0.739244 0
M  V30 15846 H 1588 -1.42789 -0.353497 0
M  V30 15847 H 1589.96 -2.66563 -3.20936 0
M  V30 15848 H 1588.59 -1.59863 -2.80435 0
M  V30 15849 H 1587.64 -3.54838 -1.37092 0
M  V30 15850 H 1588.95 -4.56924 -2.00054 0
M  V30 15851 H 1588.11 -4.24566 -4.33392 0
M  V30 15852 H 1586.85 -3.12732 -3.74233 0
M  V30 15853 H 1585.85 -4.96802 -2.35517 0
M  V30 15854 H 1587.08 -6.10401 -2.97637 0
M  V30 15855 H 1585.02 -4.61869 -4.65847 0
M  V30 15856 H 1584.94 -6.28743 -4.19783 0
M  V30 15857 H 1586.21 -5.75276 -5.26002 0
M  V30 15858 N 1590.44 0.372521 -1.53134 0
M  V30 15859 C 1591.35 1.47994 -1.8203 0
M  V30 15860 C 1592.36 1.58937 -0.708179 0
M  V30 15861 O 1593.54 1.74962 -0.997511 0
M  V30 15862 C 1590.6 2.83342 -1.99796 0
M  V30 15863 C 1589.66 2.81984 -3.23702 0
M  V30 15864 C 1588.9 4.10877 -3.40611 0
M  V30 15865 O 1589.12 5.06686 -2.61964 0
M  V30 15866 O 1588.05 4.17111 -4.33938 0
M  V30 15867 H 1591.88 1.26501 -2.761 0
M  V30 15868 H 1589.46 0.561957 -1.38428 0
M  V30 15869 H 1591.35 3.63551 -2.13092 0
M  V30 15870 H 1590.02 3.04826 -1.08916 0
M  V30 15871 H 1588.93 2.00498 -3.15834 0
M  V30 15872 H 1590.26 2.65453 -4.14482 0
M  V30 15873 N 1591.91 1.44376 0.631925 0
M  V30 15874 C 1592.88 1.50825 1.72582 0
M  V30 15875 C 1593.88 0.390379 1.55989 0
M  V30 15876 O 1595.07 0.65297 1.61499 0
M  V30 15877 C 1592.2 1.38141 3.11657 0
M  V30 15878 H 1593.39 2.48265 1.68239 0
M  V30 15879 H 1590.94 1.31456 0.845514 0
M  V30 15880 H 1591.68 0.417905 3.21596 0
M  V30 15881 H 1591.46 2.19198 3.25107 0
M  V30 15882 H 1592.95 1.45633 3.91383 0
M  V30 15883 N 1593.39 -0.872258 1.31261 0
M  V30 15884 C 1594.3 -2.01185 1.20673 0
M  V30 15885 C 1595.32 -1.73558 0.123921 0
M  V30 15886 O 1596.49 -1.98487 0.341288 0
M  V30 15887 C 1593.56 -3.34481 0.91232 0
M  V30 15888 C 1592.62 -3.75446 2.08179 0
M  V30 15889 C 1591.85 -5.02382 1.80134 0
M  V30 15890 O 1592.08 -5.6564 0.735358 0
M  V30 15891 O 1591.01 -5.40059 2.65744 0
M  V30 15892 H 1594.84 -2.13049 2.16434 0
M  V30 15893 H 1592.42 -1.00021 1.10978 0
M  V30 15894 H 1594.3 -4.14419 0.763879 0
M  V30 15895 H 1592.98 -3.23696 -0.0152802 0
M  V30 15896 H 1591.88 -2.96159 2.28562 0
M  V30 15897 H 1593.22 -3.90853 2.99156 0
M  V30 15898 N 1594.87 -1.14184 -1.08627 0
M  V30 15899 C 1596.29 -0.881757 -1.33031 0
M  V30 15900 C 1596.49 0.478313 -1.95741 0
M  V30 15901 O 1595.54 1.22308 -2.209 0
M  V30 15902 C 1596.85 -2.01274 -2.23404 0
M  V30 15903 C 1598.4 -2.04578 -2.3689 0
M  V30 15904 C 1598.88 -3.16962 -3.30604 0
M  V30 15905 N 1600.37 -3.16526 -3.3818 0
M  V30 15906 C 1601.1 -4.00124 -4.10716 0
M  V30 15907 N 1600.6 -4.93757 -4.8598 0
M  V30 15908 N 1602.39 -3.88193 -4.06525 0
M  V30 15909 H 1594.54 -2.01787 -0.663017 0
M  V30 15910 H 1596.81 -0.879152 -0.354677 0
M  V30 15911 H 1596.51 -2.9938 -1.84566 0
M  V30 15912 H 1596.39 -1.93393 -3.2385 0
M  V30 15913 H 1598.77 -1.0708 -2.74987 0
M  V30 15914 H 1598.85 -2.16529 -1.36194 0
M  V30 15915 H 1598.5 -4.14704 -2.93228 0
M  V30 15916 H 1598.43 -3.02248 -4.31223 0
M  V30 15917 H 1600.92 -2.48708 -2.84522 0
M  V30 15918 H 1601.23 -5.54015 -5.38783 0
M  V30 15919 H 1599.58 -4.97756 -4.8504 0
M  V30 15920 H 1602.77 -3.14365 -3.46831 0
M  V30 15921 H 1602.94 -4.53571 -4.62793 0
M  V30 15922 N 1596.35 1.26749 -0.936613 0
M  V30 15923 C 1597.26 2.30272 -0.448573 0
M  V30 15924 C 1598.27 1.67386 0.475184 0
M  V30 15925 O 1599.45 1.98232 0.355825 0
M  V30 15926 C 1596.52 3.45546 0.28262 0
M  V30 15927 C 1595.58 4.23926 -0.677138 0
M  V30 15928 C 1594.81 5.33697 0.019255 0
M  V30 15929 O 1595.03 5.56825 1.23703 0
M  V30 15930 O 1593.97 5.98302 -0.657119 0
M  V30 15931 H 1597.79 2.74072 -1.30838 0
M  V30 15932 H 1595.38 1.31863 -0.702314 0
M  V30 15933 H 1597.26 4.15635 0.694686 0
M  V30 15934 H 1595.93 3.03784 1.11789 0
M  V30 15935 H 1594.84 3.56337 -1.13906 0
M  V30 15936 H 1596.17 4.69425 -1.47988 0
M  V30 15937 N 1597.83 0.703118 1.41046 0
M  V30 15938 C 1599.07 0.237638 2.01403 0
M  V30 15939 C 1599.41 -1.16217 1.55587 0
M  V30 15940 O 1598.68 -1.78593 0.770377 0
M  V30 15941 C 1598.96 0.303738 3.58817 0
M  V30 15942 C 1598.82 1.74103 4.14739 0
M  V30 15943 C 1600.14 -0.332186 4.38845 0
M  V30 15944 H 1597.25 0.0878243 0.731749 0
M  V30 15945 H 1599.9 0.893264 1.67693 0
M  V30 15946 H 1598.05 -0.254485 3.87666 0
M  V30 15947 H 1599.72 2.35368 3.96736 0
M  V30 15948 H 1597.96 2.27277 3.69496 0
M  V30 15949 H 1598.63 1.73876 5.239 0
M  V30 15950 H 1601.11 0.143312 4.15853 0
M  V30 15951 H 1599.98 -0.255429 5.48305 0
M  V30 15952 H 1600.25 -1.41397 4.18878 0
M  V30 15953 N 1599.3 -1.51086 0.448402 0
M  V30 15954 C 1600.24 -2.24615 -0.402921 0
M  V30 15955 C 1601.22 -1.26994 -1.01544 0
M  V30 15956 O 1602.4 -1.56159 -1.05577 0
M  V30 15957 C 1599.53 -3.00504 -1.56253 0
M  V30 15958 C 1598.57 -4.1287 -1.06961 0
M  V30 15959 S 1599.41 -5.355 -0.00265176 0
M  V30 15960 C 1600.56 -6.14931 -1.16667 0
M  V30 15961 H 1600.79 -2.96475 0.221298 0
M  V30 15962 H 1598.33 -1.52631 0.23303 0
M  V30 15963 H 1600.29 -3.44824 -2.22726 0
M  V30 15964 H 1598.95 -2.28212 -2.15819 0
M  V30 15965 H 1598.14 -4.65288 -1.93708 0
M  V30 15966 H 1597.74 -3.70869 -0.48296 0
M  V30 15967 H 1600.03 -6.44688 -2.08286 0
M  V30 15968 H 1600.98 -7.04806 -0.682223 0
M  V30 15969 H 1601.38 -5.46601 -1.41024 0
M  V30 15970 N 1600.78 -0.180154 -1.56567 0
M  V30 15971 C 1602.06 0.509347 -1.88852 0
M  V30 15972 C 1602.44 1.80697 -1.09141 0
M  V30 15973 O 1601.79 2.27726 -0.187974 0
M  V30 15974 C 1602 0.742669 -3.41006 0
M  V30 15975 C 1603.35 1.06873 -4.1093 0
M  V30 15976 O 1604.37 0.830907 -3.46373 0
M  V30 15977 O 1603.23 1.51784 -5.24999 0
M  V30 15978 H 1600.32 0.263629 -0.783855 0
M  V30 15979 H 1602.87 -0.219251 -1.68278 0
M  V30 15980 H 1601.64 -0.17431 -3.90912 0
M  V30 15981 H 1601.26 1.52427 -3.67222 0
M  V30 15982 N 1602.26 1.57322 0.0935319 0
M  V30 15983 C 1603.19 2.05208 1.11409 0
M  V30 15984 C 1604.17 0.941295 1.41681 0
M  V30 15985 O 1605.36 1.21266 1.51684 0
M  V30 15986 C 1602.49 2.47782 2.43354 0
M  V30 15987 C 1601.44 3.62538 2.27486 0
M  V30 15988 C 1600.77 3.91095 3.64622 0
M  V30 15989 C 1602.07 4.93371 1.71412 0
M  V30 15990 H 1603.76 2.9072 0.715702 0
M  V30 15991 H 1601.31 1.3986 0.342827 0
M  V30 15992 H 1603.26 2.79891 3.15022 0
M  V30 15993 H 1601.98 1.59272 2.85132 0
M  V30 15994 H 1600.64 3.30679 1.58263 0
M  V30 15995 H 1600.29 2.99749 4.0393 0
M  V30 15996 H 1599.99 4.68353 3.5485 0
M  V30 15997 H 1601.51 4.25679 4.37755 0
M  V30 15998 H 1602.93 5.23851 2.32922 0
M  V30 15999 H 1601.33 5.74804 1.72395 0
M  V30 16000 H 1602.4 4.80197 0.67368 0
M  V30 16001 N 1603.74 -0.364395 1.53329 0
M  V30 16002 C 1604.67 -1.45243 1.8283 0
M  V30 16003 C 1605.65 -1.55834 0.681886 0
M  V30 16004 O 1606.83 -1.70383 0.931845 0
M  V30 16005 C 1603.96 -2.82565 2.01926 0
M  V30 16006 C 1602.92 -2.86797 3.17697 0
M  V30 16007 C 1602.24 -4.26806 3.22089 0
M  V30 16008 C 1603.54 -2.54212 4.56261 0
M  V30 16009 H 1605.24 -1.20804 2.73946 0
M  V30 16010 H 1602.78 -0.579705 1.31816 0
M  V30 16011 H 1604.74 -3.58709 2.21147 0
M  V30 16012 H 1603.46 -3.08394 1.07521 0
M  V30 16013 H 1602.12 -2.13105 2.98298 0
M  V30 16014 H 1601.77 -4.49712 2.25318 0
M  V30 16015 H 1601.47 -4.30553 3.99873 0
M  V30 16016 H 1602.99 -5.04821 3.43495 0
M  V30 16017 H 1604.41 -3.20069 4.75635 0
M  V30 16018 H 1602.8 -2.69273 5.36295 0
M  V30 16019 H 1603.87 -1.49458 4.61292 0
M  V30 16020 N 1605.22 -1.44709 -0.62426 0
M  V30 16021 C 1606.63 -1.28747 -0.9432 0
M  V30 16022 C 1606.83 -0.228265 -2.00203 0
M  V30 16023 O 1605.89 0.383506 -2.49571 0
M  V30 16024 C 1607.2 -2.66124 -1.39995 0
M  V30 16025 C 1608.75 -2.73889 -1.51506 0
M  V30 16026 C 1609.22 -4.11751 -2.00562 0
M  V30 16027 N 1610.72 -4.13962 -2.07821 0
M  V30 16028 C 1611.45 -5.1749 -2.46964 0
M  V30 16029 N 1610.95 -6.31376 -2.85195 0
M  V30 16030 N 1612.74 -5.04846 -2.47158 0
M  V30 16031 H 1604.89 -2.12264 0.0758746 0
M  V30 16032 H 1607.15 -0.947566 -0.0286915 0
M  V30 16033 H 1606.86 -3.4474 -0.696203 0
M  V30 16034 H 1606.73 -2.93474 -2.36967 0
M  V30 16035 H 1609.12 -1.95587 -2.20975 0
M  V30 16036 H 1609.2 -2.50272 -0.528911 0
M  V30 16037 H 1608.85 -4.90532 -1.31685 0
M  V30 16038 H 1608.78 -4.32749 -3.0006 0
M  V30 16039 H 1611.27 -3.31771 -1.80933 0
M  V30 16040 H 1611.58 -7.06179 -3.13896 0
M  V30 16041 H 1609.92 -6.34804 -2.8293 0
M  V30 16042 H 1613.12 -4.14927 -2.16686 0
M  V30 16043 H 1613.29 -5.85651 -2.77339 0
M  V30 16044 N 1606.69 0.865285 -1.31722 0
M  V30 16045 C 1607.6 2.00542 -1.21738 0
M  V30 16046 C 1608.62 1.7349 -0.133124 0
M  V30 16047 O 1609.8 1.98303 -0.351809 0
M  V30 16048 C 1606.86 3.33993 -0.930045 0
M  V30 16049 C 1605.92 3.74337 -2.10167 0
M  V30 16050 C 1605.16 5.0142 -1.82795 0
M  V30 16051 O 1605.38 5.65242 -0.765345 0
M  V30 16052 O 1604.31 5.38642 -2.68604 0
M  V30 16053 H 1608.14 2.11898 -2.17561 0
M  V30 16054 H 1605.72 0.994313 -1.11507 0
M  V30 16055 H 1607.61 4.14008 -0.785846 0
M  V30 16056 H 1606.28 3.237 -0.00188642 0
M  V30 16057 H 1605.19 2.94943 -2.3013 0
M  V30 16058 H 1606.52 3.89261 -3.01225 0
M  V30 16059 N 1608.17 1.14759 1.0802 0
M  V30 16060 C 1609.14 0.840859 2.13219 0
M  V30 16061 C 1610.14 -0.156309 1.60038 0
M  V30 16062 O 1611.33 0.0725143 1.74049 0
M  V30 16063 C 1608.46 0.254208 3.39951 0
M  V30 16064 H 1609.65 1.77323 2.4186 0
M  V30 16065 H 1607.2 0.954146 1.23797 0
M  V30 16066 H 1607.94 -0.686692 3.16946 0
M  V30 16067 H 1607.72 0.972499 3.79848 0
M  V30 16068 H 1609.21 0.0569551 4.17561 0
M  V30 16069 N 1609.65 -1.26251 0.943322 0
M  V30 16070 C 1610.58 -2.25468 0.411904 0
M  V30 16071 C 1611.6 -1.55988 -0.466005 0
M  V30 16072 O 1612.78 -1.76352 -0.276106 0
M  V30 16073 C 1609.88 -3.362 -0.426909 0
M  V30 16074 C 1609.06 -4.35228 0.435346 0
M  V30 16075 C 1608.12 -5.25078 -0.343388 0
M  V30 16076 O 1607.14 -5.68632 0.254322 0
M  V30 16077 N 1608.34 -5.5687 -1.63939 0
M  V30 16078 H 1611.11 -2.71701 1.26486 0
M  V30 16079 H 1608.67 -1.40039 0.812438 0
M  V30 16080 H 1610.66 -3.93263 -0.955316 0
M  V30 16081 H 1609.23 -2.89446 -1.18067 0
M  V30 16082 H 1608.45 -3.77206 1.14495 0
M  V30 16083 H 1609.74 -4.98384 1.02427 0
M  V30 16084 H 1609.14 -5.2337 -2.14709 0
M  V30 16085 H 1607.7 -6.16566 -2.11399 0
M  V30 16086 N 1611.13 -0.710588 -1.40671 0
M  V30 16087 C 1612.41 -0.175319 -1.94813 0
M  V30 16088 C 1612.79 1.31792 -1.64906 0
M  V30 16089 O 1612.13 2.07167 -0.964058 0
M  V30 16090 C 1612.34 -0.482691 -3.45646 0
M  V30 16091 C 1613.69 -0.418619 -4.22531 0
M  V30 16092 O 1614.72 -0.418463 -3.53733 0
M  V30 16093 O 1613.58 -0.391787 -5.45094 0
M  V30 16094 H 1610.67 -0.0237744 -0.826658 0
M  V30 16095 H 1613.22 -0.787778 -1.50307 0
M  V30 16096 H 1611.99 -1.51569 -3.60753 0
M  V30 16097 H 1611.61 0.159984 -3.97278 0
M  V30 16098 N 1612.61 1.50847 -0.456408 0
M  V30 16099 C 1613.85 2.02534 0.103772 0
M  V30 16100 C 1614.19 1.33874 1.40682 0
M  V30 16101 O 1613.46 0.459695 1.8899 0
M  V30 16102 C 1613.74 3.58825 0.302817 0
M  V30 16103 C 1613.6 4.38077 -1.02022 0
M  V30 16104 C 1614.92 4.27044 1.06404 0
M  V30 16105 H 1612.04 0.736108 0.0362398 0
M  V30 16106 H 1614.68 1.80306 -0.599134 0
M  V30 16107 H 1612.83 3.77895 0.901542 0
M  V30 16108 H 1614.5 4.30613 -1.6544 0
M  V30 16109 H 1612.74 4.02401 -1.62036 0
M  V30 16110 H 1613.41 5.45652 -0.834766 0
M  V30 16111 H 1615.89 4.12359 0.556698 0
M  V30 16112 H 1614.77 5.3624 1.17209 0
M  V30 16113 H 1615.03 3.89204 2.09697 0
M  V30 16114 N 1614.09 0.188454 1.56469 0
M  V30 16115 C 1615.03 -0.735074 2.18781 0
M  V30 16116 C 1616 -1.21459 1.133 0
M  V30 16117 O 1617.19 -1.27967 1.41524 0
M  V30 16118 C 1614.33 -1.95181 2.84602 0
M  V30 16119 C 1613.44 -1.51428 4.0459 0
M  V30 16120 C 1612.58 -2.68601 4.58287 0
M  V30 16121 C 1611.61 -2.21422 5.70648 0
M  V30 16122 N 1610.75 -3.31749 6.18779 0
M  V30 16123 H 1615.59 -0.19694 2.97349 0
M  V30 16124 H 1613.13 -0.0854693 1.46851 0
M  V30 16125 H 1615.09 -2.66571 3.2093 0
M  V30 16126 H 1613.72 -2.46337 2.0861 0
M  V30 16127 H 1612.77 -0.6965 3.73969 0
M  V30 16128 H 1614.08 -1.1281 4.85876 0
M  V30 16129 H 1613.23 -3.48123 4.96885 0
M  V30 16130 H 1611.97 -3.1049 3.76095 0
M  V30 16131 H 1610.98 -1.40352 5.31584 0
M  V30 16132 H 1612.2 -1.80572 6.54653 0
M  V30 16133 H 1610.15 -3.73181 5.39511 0
M  V30 16134 H 1610.07 -2.97277 6.95099 0
M  V30 16135 H 1611.33 -4.11504 6.62031 0
M  V30 16136 N 1615.56 -1.5737 -0.0851874 0
M  V30 16137 C 1616.84 -1.77624 -0.819094 0
M  V30 16138 C 1617.22 -0.772645 -1.96452 0
M  V30 16139 O 1616.57 0.196912 -2.2765 0
M  V30 16140 C 1616.78 -3.23704 -1.30449 0
M  V30 16141 C 1618.13 -3.87163 -1.74328 0
M  V30 16142 O 1619.15 -3.27513 -1.40048 0
M  V30 16143 O 1618.01 -4.92075 -2.37748 0
M  V30 16144 H 1615.1 -0.728487 -0.391453 0
M  V30 16145 H 1617.65 -1.6957 -0.0663006 0
M  V30 16146 H 1616.42 -3.88292 -0.484277 0
M  V30 16147 H 1616.04 -3.36429 -2.119 0
M  V30 16148 N 1617.04 0.356258 -1.53521 0
M  V30 16149 C 1618.29 1.09953 -1.70406 0
M  V30 16150 C 1618.62 1.8869 -0.459304 0
M  V30 16151 O 1617.9 1.86751 0.54354 0
M  V30 16152 C 1618.18 2.05114 -2.95973 0
M  V30 16153 C 1618.03 1.29924 -4.30627 0
M  V30 16154 C 1619.35 3.0511 -3.17168 0
M  V30 16155 H 1616.47 0.398343 -0.620074 0
M  V30 16156 H 1619.11 0.379376 -1.86174 0
M  V30 16157 H 1617.26 2.66524 -2.82661 0
M  V30 16158 H 1618.93 0.71226 -4.55768 0
M  V30 16159 H 1617.18 0.601141 -4.29615 0
M  V30 16160 H 1617.85 1.99624 -5.1464 0
M  V30 16161 H 1620.32 2.53809 -3.29728 0
M  V30 16162 H 1619.2 3.68908 -4.06445 0
M  V30 16163 H 1619.46 3.75794 -2.32876 0
M  V30 16164 N 1618.52 1.45038 0.616577 0
M  V30 16165 C 1619.8 1.39059 1.37557 0
M  V30 16166 C 1620.18 0.0566307 2.11024 0
M  V30 16167 O 1619.52 -0.961203 2.073 0
M  V30 16168 C 1619.73 2.59841 2.32989 0
M  V30 16169 C 1621.08 3.04539 2.95874 0
M  V30 16170 O 1622.11 2.6015 2.43312 0
M  V30 16171 O 1620.97 3.81547 3.9126 0
M  V30 16172 H 1618.06 0.551396 0.616353 0
M  V30 16173 H 1620.61 1.57152 0.640416 0
M  V30 16174 H 1619.38 3.48521 1.779 0
M  V30 16175 H 1619 2.44036 3.13899 0
M  V30 16176 N 1620 -0.858287 1.32179 0
M  V30 16177 C 1620.93 -1.97304 1.16636 0
M  V30 16178 C 1621.94 -1.62478 0.102311 0
M  V30 16179 O 1623.13 -1.75016 0.350926 0
M  V30 16180 C 1620.23 -3.30215 0.762337 0
M  V30 16181 C 1619.4 -3.93305 1.9139 0
M  V30 16182 C 1618.46 -5.04545 1.49402 0
M  V30 16183 O 1617.49 -5.24735 2.20548 0
M  V30 16184 N 1618.69 -5.79202 0.387984 0
M  V30 16185 H 1621.46 -2.11179 2.12658 0
M  V30 16186 H 1619.02 -1.03294 1.24668 0
M  V30 16187 H 1621.01 -4.02032 0.463922 0
M  V30 16188 H 1619.58 -3.12418 -0.10662 0
M  V30 16189 H 1618.8 -3.1432 2.37901 0
M  V30 16190 H 1620.09 -4.32192 2.68492 0
M  V30 16191 H 1619.49 -5.65331 -0.204252 0
M  V30 16192 H 1618.04 -6.51629 0.149158 0
M  V30 16193 N 1621.48 -1.1533 -1.07409 0
M  V30 16194 C 1622.42 -0.845328 -2.16696 0
M  V30 16195 C 1623.42 0.181009 -1.6843 0
M  V30 16196 O 1624.62 0.0361013 -1.79964 0
M  V30 16197 H 1621 -0.255698 -0.707193 0
M  V30 16198 H 1622.97 -1.7747 -2.39889 0
M  V30 16199 C 1621.72 -0.350381 -3.4593 0
M  V30 16200 H 1621.04 -1.13152 -3.83454 0
M  V30 16201 H 1622.48 -0.173547 -4.23645 0
M  V30 16202 C 1620.94 0.927991 -3.23867 0
M  V30 16203 O 1621.47 1.99965 -3.48392 0
M  V30 16204 N 1619.68 0.867266 -2.77357 0
M  V30 16205 H 1619.22 -0.00500352 -2.576 0
M  V30 16206 H 1619.18 1.72314 -2.62974 0
M  V30 16207 N 1622.95 1.25748 -0.950004 0
M  V30 16208 C 1623.88 2.28419 -0.484467 0
M  V30 16209 C 1624.86 1.63569 0.466813 0
M  V30 16210 O 1626.05 1.90705 0.366766 0
M  V30 16211 C 1623.18 3.46449 0.242916 0
M  V30 16212 C 1622.13 4.23447 -0.622657 0
M  V30 16213 C 1621.46 5.34182 0.235199 0
M  V30 16214 C 1622.76 4.86576 -1.89845 0
M  V30 16215 H 1624.45 2.6761 -1.34257 0
M  V30 16216 H 1622 1.28646 -0.647014 0
M  V30 16217 H 1623.95 4.17394 0.579693 0
M  V30 16218 H 1622.68 3.06235 1.13523 0
M  V30 16219 H 1621.34 3.54279 -0.942453 0
M  V30 16220 H 1620.98 4.90209 1.12713 0
M  V30 16221 H 1620.68 5.86612 -0.340609 0
M  V30 16222 H 1622.21 6.07961 0.567048 0
M  V30 16223 H 1623.62 5.49688 -1.62837 0
M  V30 16224 H 1622.02 5.49162 -2.41954 0
M  V30 16225 H 1623.09 4.09021 -2.60441 0
M  V30 16226 N 1624.43 0.718038 1.40292 0
M  V30 16227 C 1625.36 0.0160994 2.28194 0
M  V30 16228 C 1626.34 -0.765159 1.43472 0
M  V30 16229 O 1627.53 -0.751283 1.72881 0
M  V30 16230 C 1624.65 -0.984558 3.24074 0
M  V30 16231 C 1623.7 -0.293817 4.25487 0
M  V30 16232 S 1624.53 0.980059 5.26455 0
M  V30 16233 C 1625.69 -0.0184326 6.25897 0
M  V30 16234 H 1625.92 0.761585 2.8738 0
M  V30 16235 H 1623.45 0.509158 1.45763 0
M  V30 16236 H 1625.41 -1.55667 3.7984 0
M  V30 16237 H 1624.07 -1.70276 2.63941 0
M  V30 16238 H 1623.27 -1.05037 4.92933 0
M  V30 16239 H 1622.87 0.205802 3.73433 0
M  V30 16240 H 1625.16 -0.864464 6.71962 0
M  V30 16241 H 1626.1 0.622712 7.05357 0
M  V30 16242 H 1626.51 -0.383254 5.63197 0
M  V30 16243 N 1625.91 -1.50602 0.464402 0
M  V30 16244 C 1627.19 -1.94992 -0.154146 0
M  V30 16245 C 1627.57 -1.40447 -1.57601 0
M  V30 16246 O 1626.92 -0.602668 -2.20409 0
M  V30 16247 C 1627.13 -3.48844 -0.104296 0
M  V30 16248 C 1628.47 -4.23563 -0.296506 0
M  V30 16249 O 1629.5 -3.55739 -0.181187 0
M  V30 16250 O 1628.36 -5.43937 -0.528668 0
M  V30 16251 H 1625.45 -0.818921 -0.115311 0
M  V30 16252 H 1628 -1.61397 0.524324 0
M  V30 16253 H 1626.77 -3.81075 0.88869 0
M  V30 16254 H 1626.39 -3.88957 -0.824514 0
M  V30 16255 N 1627.39 -0.19675 -1.56367 0
M  V30 16256 C 1628.8 0.159068 -1.58805 0
M  V30 16257 C 1629 1.60902 -1.21297 0
M  V30 16258 O 1628.06 2.34491 -0.93649 0
M  V30 16259 C 1629.37 -0.144784 -3.00351 0
M  V30 16260 C 1630.92 -0.0850243 -3.12884 0
M  V30 16261 C 1631.4 -0.362209 -4.56565 0
M  V30 16262 N 1632.89 -0.310887 -4.62156 0
M  V30 16263 C 1633.62 -0.499187 -5.71223 0
M  V30 16264 N 1633.12 -0.747925 -6.88751 0
M  V30 16265 N 1634.91 -0.433329 -5.60427 0
M  V30 16266 H 1627.06 -1.1429 -1.79029 0
M  V30 16267 H 1629.33 -0.456298 -0.830961 0
M  V30 16268 H 1629.03 -1.15019 -3.3236 0
M  V30 16269 H 1628.91 0.551864 -3.73141 0
M  V30 16270 H 1631.29 0.910992 -2.80687 0
M  V30 16271 H 1631.37 -0.814774 -2.42477 0
M  V30 16272 H 1631.02 -1.35555 -4.89477 0
M  V30 16273 H 1630.95 0.388448 -5.25165 0
M  V30 16274 H 1633.44 -0.125318 -3.77692 0
M  V30 16275 H 1633.75 -0.880372 -7.67769 0
M  V30 16276 H 1632.1 -0.784838 -6.90554 0
M  V30 16277 H 1635.29 -0.239411 -4.67487 0
M  V30 16278 H 1635.46 -0.583495 -6.45368 0
M  V30 16279 N 1628.87 1.57413 0.0768405 0
M  V30 16280 C 1629.8 2.06378 1.09226 0
M  V30 16281 C 1630.78 0.956269 1.40675 0
M  V30 16282 O 1631.96 1.22868 1.5039 0
M  V30 16283 C 1629.09 2.50349 2.40712 0
M  V30 16284 C 1628.05 3.64931 2.23628 0
M  V30 16285 C 1627.37 3.9494 3.60453 0
M  V30 16286 C 1628.67 4.95162 1.66169 0
M  V30 16287 H 1630.37 2.91463 0.684827 0
M  V30 16288 H 1627.91 1.40215 0.327974 0
M  V30 16289 H 1629.87 2.83216 3.12036 0
M  V30 16290 H 1628.59 1.62287 2.83426 0
M  V30 16291 H 1627.25 3.32339 1.54747 0
M  V30 16292 H 1626.9 3.04016 4.00728 0
M  V30 16293 H 1626.6 4.72091 3.49863 0
M  V30 16294 H 1628.12 4.30299 4.33215 0
M  V30 16295 H 1629.53 5.26292 2.27353 0
M  V30 16296 H 1627.93 5.76601 1.66289 0
M  V30 16297 H 1629 4.80885 0.62271 0
M  V30 16298 N 1630.34 -0.348112 1.53707 0
M  V30 16299 C 1631.28 -1.44781 1.77682 0
M  V30 16300 C 1632.29 -1.4891 0.657997 0
M  V30 16301 O 1633.48 -1.52075 0.934635 0
M  V30 16302 C 1630.58 -2.83463 1.85747 0
M  V30 16303 C 1629.75 -3.02827 3.15618 0
M  V30 16304 C 1628.81 -4.21724 3.14698 0
M  V30 16305 O 1627.84 -4.16059 3.88437 0
M  V30 16306 N 1629.04 -5.3003 2.36746 0
M  V30 16307 H 1631.8 -1.24587 2.72577 0
M  V30 16308 H 1629.36 -0.537961 1.52701 0
M  V30 16309 H 1631.36 -3.6117 1.82589 0
M  V30 16310 H 1629.93 -2.96822 0.980595 0
M  V30 16311 H 1629.15 -2.1263 3.31937 0
M  V30 16312 H 1630.43 -3.12645 4.01411 0
M  V30 16313 H 1629.83 -5.375 1.7638 0
M  V30 16314 H 1628.39 -6.06247 2.39389 0
M  V30 16315 N 1631.82 -1.45363 -0.608876 0
M  V30 16316 C 1633.24 -1.29741 -0.929491 0
M  V30 16317 C 1633.44 -0.249486 -1.9995 0
M  V30 16318 O 1632.49 0.357014 -2.49963 0
M  V30 16319 C 1633.81 -2.67594 -1.37164 0
M  V30 16320 C 1635.36 -2.7548 -1.48592 0
M  V30 16321 C 1635.83 -4.13855 -1.96183 0
M  V30 16322 N 1637.32 -4.16143 -2.03419 0
M  V30 16323 C 1638.06 -5.20081 -2.41462 0
M  V30 16324 N 1637.55 -6.34365 -2.78482 0
M  V30 16325 N 1639.35 -5.07439 -2.4179 0
M  V30 16326 H 1631.5 -2.12172 0.0983838 0
M  V30 16327 H 1633.76 -0.947817 -0.0186397 0
M  V30 16328 H 1633.47 -3.45459 -0.6596 0
M  V30 16329 H 1633.34 -2.9597 -2.33841 0
M  V30 16330 H 1635.73 -1.97919 -2.18888 0
M  V30 16331 H 1635.81 -2.50819 -0.502337 0
M  V30 16332 H 1635.45 -4.91901 -1.26475 0
M  V30 16333 H 1635.38 -4.35907 -2.95453 0
M  V30 16334 H 1637.87 -3.33671 -1.77404 0
M  V30 16335 H 1638.19 -7.09469 -3.06388 0
M  V30 16336 H 1636.53 -6.37769 -2.76181 0
M  V30 16337 H 1639.72 -4.17202 -2.12273 0
M  V30 16338 H 1639.89 -5.8856 -2.71112 0
M  V30 16339 N 1633.3 0.851265 -1.32632 0
M  V30 16340 C 1634.55 1.60807 -1.23568 0
M  V30 16341 C 1634.88 1.93155 0.201238 0
M  V30 16342 O 1634.15 1.5764 1.13929 0
M  V30 16343 C 1634.44 2.92619 -2.09872 0
M  V30 16344 C 1634.29 2.67031 -3.61959 0
M  V30 16345 C 1635.61 3.93924 -1.96244 0
M  V30 16346 H 1632.73 0.583492 -0.450229 0
M  V30 16347 H 1635.37 0.98273 -1.62611 0
M  V30 16348 H 1633.52 3.45988 -1.76704 0
M  V30 16349 H 1635.19 2.2019 -4.05357 0
M  V30 16350 H 1633.44 2.00938 -3.84456 0
M  V30 16351 H 1634.11 3.60902 -4.17676 0
M  V30 16352 H 1636.58 3.49823 -2.25307 0
M  V30 16353 H 1635.46 4.84005 -2.58902 0
M  V30 16354 H 1635.72 4.32185 -0.931065 0
M  V30 16355 N 1634.78 1.15898 1.06796 0
M  V30 16356 C 1635.73 0.856808 2.16244 0
M  V30 16357 C 1636.72 -0.172075 1.68524 0
M  V30 16358 O 1637.93 -0.0265569 1.7998 0
M  V30 16359 H 1634.3 0.259445 0.705827 0
M  V30 16360 H 1636.27 1.7874 2.38945 0
M  V30 16361 C 1635.02 0.368721 3.45739 0
M  V30 16362 H 1634.34 1.15184 3.82848 0
M  V30 16363 H 1635.78 0.196012 4.23547 0
M  V30 16364 C 1634.24 -0.910802 3.24355 0
M  V30 16365 O 1634.77 -1.98115 3.49447 0
M  V30 16366 N 1632.98 -0.852545 2.77813 0
M  V30 16367 H 1632.53 0.0186646 2.57593 0
M  V30 16368 H 1632.48 -1.70917 2.63884 0
M  V30 16369 N 1636.26 -1.25243 0.956659 0
M  V30 16370 C 1637.2 -2.2781 0.46963 0
M  V30 16371 C 1638.2 -1.63003 -0.461138 0
M  V30 16372 O 1639.4 -1.76805 -0.337644 0
M  V30 16373 H 1635.78 -0.740078 0.133374 0
M  V30 16374 H 1637.75 -2.66273 1.34689 0
M  V30 16375 C 1636.5 -3.46904 -0.235206 0
M  V30 16376 H 1635.82 -3.97006 0.471869 0
M  V30 16377 H 1637.26 -4.20548 -0.539969 0
M  V30 16378 C 1635.72 -3.03697 -1.45841 0
M  V30 16379 O 1636.25 -3.09887 -2.55603 0
M  V30 16380 N 1634.46 -2.58866 -1.32049 0
M  V30 16381 H 1634 -2.54029 -0.427428 0
M  V30 16382 H 1633.96 -2.30322 -2.14008 0
M  V30 16383 N 1637.73 -0.725468 -1.3991 0
M  V30 16384 C 1638.96 -0.279202 -2.05007 0
M  V30 16385 C 1639.38 1.08257 -1.5468 0
M  V30 16386 O 1638.73 1.68224 -0.707585 0
M  V30 16387 C 1638.79 -0.261347 -3.60554 0
M  V30 16388 O 1638.51 -1.56935 -4.09027 0
M  V30 16389 C 1640.01 0.202259 -4.42838 0
M  V30 16390 H 1637.23 -0.123664 -0.659506 0
M  V30 16391 H 1639.77 -0.986447 -1.79135 0
M  V30 16392 H 1637.93 0.396936 -3.85361 0
M  V30 16393 H 1638.34 -1.47647 -5.0329 0
M  V30 16394 H 1639.81 0.163598 -5.51758 0
M  V30 16395 H 1640.29 1.24597 -4.21156 0
M  V30 16396 H 1640.9 -0.426108 -4.2316 0
M  V30 16397 N 1639.21 1.50354 -0.472382 0
M  V30 16398 C 1640.14 2.3142 0.310995 0
M  V30 16399 C 1641.12 1.38383 0.989151 0
M  V30 16400 O 1642.31 1.67303 0.986074 0
M  V30 16401 C 1639.44 3.18157 1.3926 0
M  V30 16402 C 1638.39 4.19756 0.835977 0
M  V30 16403 C 1637.72 4.9524 2.01597 0
M  V30 16404 C 1639.02 5.22074 -0.15361 0
M  V30 16405 H 1640.71 2.97159 -0.365595 0
M  V30 16406 H 1638.26 1.42905 -0.177266 0
M  V30 16407 H 1640.21 3.73666 1.94813 0
M  V30 16408 H 1638.94 2.50305 2.09798 0
M  V30 16409 H 1637.59 3.65351 0.302414 0
M  V30 16410 H 1637.24 4.2386 2.70836 0
M  V30 16411 H 1636.94 5.63966 1.64974 0
M  V30 16412 H 1638.47 5.53584 2.57637 0
M  V30 16413 H 1639.88 5.72446 0.312783 0
M  V30 16414 H 1638.28 5.98527 -0.43418 0
M  V30 16415 H 1639.35 4.72741 -1.07908 0
M  V30 16416 N 1640.69 0.205039 1.56261 0
M  V30 16417 C 1641.92 -0.439502 2.0269 0
M  V30 16418 C 1642.34 -1.53715 1.08413 0
M  V30 16419 O 1641.7 -1.81167 0.0693616 0
M  V30 16420 C 1641.75 -0.963672 3.47485 0
M  V30 16421 O 1640.85 -2.07602 3.56336 0
M  V30 16422 H 1640.19 -0.101543 0.65619 0
M  V30 16423 H 1642.72 0.318835 2.021 0
M  V30 16424 H 1642.73 -1.27773 3.87476 0
M  V30 16425 H 1641.41 -0.160203 4.15591 0
M  V30 16426 H 1639.98 -1.76985 3.28224 0
M  V30 16427 N 1642.17 -1.57451 -0.0684915 0
M  V30 16428 C 1643.39 -1.92025 -0.78366 0
M  V30 16429 C 1643.82 -0.801743 -1.70158 0
M  V30 16430 O 1643.18 0.245227 -1.79634 0
M  V30 16431 C 1643.23 -3.25563 -1.55051 0
M  V30 16432 O 1642.33 -3.15029 -2.6614 0
M  V30 16433 H 1641.67 -0.628714 -0.213576 0
M  V30 16434 H 1644.2 -2.04569 -0.0357474 0
M  V30 16435 H 1644.21 -3.59516 -1.92905 0
M  V30 16436 H 1642.89 -4.06547 -0.87704 0
M  V30 16437 H 1641.46 -2.9264 -2.31119 0
M  V30 16438 N 1643.65 0.339955 -1.5389 0
M  V30 16439 C 1644.58 1.43837 -1.78448 0
M  V30 16440 C 1645.59 1.48559 -0.665885 0
M  V30 16441 O 1646.78 1.51577 -0.942686 0
M  V30 16442 C 1643.88 2.82474 -1.87248 0
M  V30 16443 C 1643.05 3.01149 -3.17219 0
M  V30 16444 C 1642.11 4.20049 -3.16931 0
M  V30 16445 O 1641.14 4.13994 -3.90638 0
M  V30 16446 N 1642.34 5.28767 -2.39553 0
M  V30 16447 H 1645.11 1.2314 -2.73234 0
M  V30 16448 H 1642.67 0.529855 -1.52984 0
M  V30 16449 H 1644.66 3.60196 -1.84502 0
M  V30 16450 H 1643.23 2.96297 -0.996322 0
M  V30 16451 H 1642.45 2.10867 -3.3306 0
M  V30 16452 H 1643.74 3.10511 -4.03063 0
M  V30 16453 H 1643.14 5.36557 -1.79228 0
M  V30 16454 H 1641.69 6.04969 -2.42601 0
M  V30 16455 N 1645.13 1.45684 0.601159 0
M  V30 16456 C 1646.37 1.49308 1.3561 0
M  V30 16457 C 1646.69 0.141561 1.95087 0
M  V30 16458 O 1647.89 0.0554805 2.71443 0
M  V30 16459 C 1646.35 2.63001 2.4568 0
M  V30 16460 C 1645.96 4.04493 1.92586 0
M  V30 16461 C 1647.7 2.75877 3.22633 0
M  V30 16462 C 1645.61 5.09557 3.00176 0
M  V30 16463 H 1644.54 0.555604 0.509726 0
M  V30 16464 H 1647.19 1.71843 0.643606 0
M  V30 16465 H 1645.57 2.33761 3.19643 0
M  V30 16466 H 1646.75 4.4344 1.25289 0
M  V30 16467 H 1645.06 3.96123 1.28358 0
M  V30 16468 H 1647.66 3.51541 4.02893 0
M  V30 16469 H 1648 1.82737 3.74049 0
M  V30 16470 H 1648.53 3.04674 2.5577 0
M  V30 16471 H 1645.27 6.04427 2.53669 0
M  V30 16472 H 1644.79 4.75173 3.6602 0
M  V30 16473 H 1646.47 5.34591 3.64447 0
M  V30 16474 N 1646.6 -0.84422 1.33082 0
M  V30 16475 C 1647.83 -1.63654 1.27405 0
M  V30 16476 C 1648.25 -1.87476 -0.153146 0
M  V30 16477 O 1647.61 -1.43502 -1.10801 0
M  V30 16478 C 1647.66 -2.96698 2.04945 0
M  V30 16479 O 1646.76 -3.87751 1.40439 0
M  V30 16480 H 1646.1 -0.498545 0.438576 0
M  V30 16481 H 1648.63 -1.0507 1.7556 0
M  V30 16482 H 1648.64 -3.46438 2.1551 0
M  V30 16483 H 1647.32 -2.78682 3.08722 0
M  V30 16484 H 1645.9 -3.46231 1.38487 0
M  V30 16485 N 1648.08 -1.16463 -1.0618 0
M  V30 16486 C 1649.5 -0.909776 -1.31131 0
M  V30 16487 C 1649.7 0.436686 -1.96711 0
M  V30 16488 O 1648.75 1.17595 -2.23445 0
M  V30 16489 C 1650.07 -2.05967 -2.19084 0
M  V30 16490 C 1651.61 -2.09557 -2.32497 0
M  V30 16491 C 1652.09 -3.23904 -3.23806 0
M  V30 16492 N 1653.58 -3.23628 -3.3139 0
M  V30 16493 C 1654.32 -4.08746 -4.02137 0
M  V30 16494 N 1653.81 -5.03954 -4.75397 0
M  V30 16495 N 1655.6 -3.96729 -3.98199 0
M  V30 16496 H 1647.76 -2.03148 -0.620066 0
M  V30 16497 H 1650.02 -0.886477 -0.335949 0
M  V30 16498 H 1649.72 -3.03227 -1.78174 0
M  V30 16499 H 1649.6 -2.00219 -3.19675 0
M  V30 16500 H 1651.99 -1.12889 -2.72654 0
M  V30 16501 H 1652.07 -2.19369 -1.3157 0
M  V30 16502 H 1651.71 -4.20831 -2.84366 0
M  V30 16503 H 1651.64 -3.11327 -4.24715 0
M  V30 16504 H 1654.13 -2.54687 -2.79182 0
M  V30 16505 H 1654.44 -5.65319 -5.2691 0
M  V30 16506 H 1652.79 -5.07932 -4.74373 0
M  V30 16507 H 1655.98 -3.21652 -3.40085 0
M  V30 16508 H 1656.15 -4.63286 -4.53067 0
M  V30 16509 N 1649.56 1.24734 -0.963288 0
M  V30 16510 C 1650.49 2.27892 -0.508667 0
M  V30 16511 C 1651.47 1.64055 0.449438 0
M  V30 16512 O 1652.66 1.91083 0.346519 0
M  V30 16513 C 1649.79 3.46688 0.206157 0
M  V30 16514 C 1648.74 4.22762 -0.667534 0
M  V30 16515 C 1648.07 5.34402 0.178529 0
M  V30 16516 C 1649.37 4.84535 -1.94995 0
M  V30 16517 H 1651.06 2.66171 -1.37088 0
M  V30 16518 H 1648.61 1.27952 -0.660622 0
M  V30 16519 H 1650.56 4.17985 0.535391 0
M  V30 16520 H 1649.28 3.07422 1.10269 0
M  V30 16521 H 1647.94 3.53259 -0.979976 0
M  V30 16522 H 1647.59 4.91377 1.07508 0
M  V30 16523 H 1647.29 5.86218 -0.402808 0
M  V30 16524 H 1648.81 6.08529 0.502533 0
M  V30 16525 H 1650.23 5.4793 -1.68658 0
M  V30 16526 H 1648.62 5.46564 -2.47765 0
M  V30 16527 H 1649.69 4.06236 -2.64765 0
M  V30 16528 N 1651.04 0.732878 1.39523 0
M  V30 16529 C 1651.97 0.0519358 2.29141 0
M  V30 16530 C 1652.98 -0.705687 1.4671 0
M  V30 16531 O 1654.17 -0.550202 1.69809 0
M  V30 16532 C 1651.27 -0.950691 3.25292 0
M  V30 16533 C 1650.44 -0.255028 4.36656 0
M  V30 16534 C 1649.5 -1.16546 5.13131 0
M  V30 16535 O 1648.53 -0.643742 5.65548 0
M  V30 16536 N 1649.73 -2.49534 5.24131 0
M  V30 16537 H 1652.5 0.8215 2.88221 0
M  V30 16538 H 1650.06 0.581924 1.5108 0
M  V30 16539 H 1652.05 -1.56232 3.73328 0
M  V30 16540 H 1650.62 -1.62148 2.67258 0
M  V30 16541 H 1649.84 0.537045 3.90525 0
M  V30 16542 H 1651.13 0.227162 5.08293 0
M  V30 16543 H 1650.53 -2.944 4.83058 0
M  V30 16544 H 1649.08 -3.05798 5.75613 0
M  V30 16545 N 1652.52 -1.50101 0.480349 0
M  V30 16546 C 1653.46 -2.30347 -0.322924 0
M  V30 16547 C 1654.46 -1.3804 -0.981904 0
M  V30 16548 O 1655.66 -1.55188 -0.91195 0
M  V30 16549 H 1652.04 -0.741875 -0.122985 0
M  V30 16550 H 1654.01 -2.96045 0.374155 0
M  V30 16551 C 1652.76 -3.18844 -1.38686 0
M  V30 16552 H 1652.08 -3.89787 -0.889181 0
M  V30 16553 H 1653.52 -3.77971 -1.9213 0
M  V30 16554 C 1651.98 -2.37058 -2.39385 0
M  V30 16555 O 1652.51 -2.06016 -3.44848 0
M  V30 16556 N 1650.72 -1.99465 -2.11334 0
M  V30 16557 H 1650.26 -2.24909 -1.25593 0
M  V30 16558 H 1650.22 -1.45048 -2.78942 0
M  V30 16559 N 1653.99 -0.213323 -1.5615 0
M  V30 16560 C 1655.24 0.420909 -1.97259 0
M  V30 16561 C 1655.56 1.61483 -1.10375 0
M  V30 16562 O 1656.76 2.31804 -1.41347 0
M  V30 16563 C 1655.22 0.800243 -3.5089 0
M  V30 16564 C 1654.83 -0.370405 -4.46466 0
M  V30 16565 C 1656.57 1.40054 -4.00731 0
M  V30 16566 C 1654.48 0.0309052 -5.91392 0
M  V30 16567 H 1653.41 0.16103 -0.736604 0
M  V30 16568 H 1656.06 -0.308232 -1.80893 0
M  V30 16569 H 1654.44 1.58657 -3.62828 0
M  V30 16570 H 1655.61 -1.14796 -4.46272 0
M  V30 16571 H 1653.93 -0.883391 -4.06922 0
M  V30 16572 H 1656.53 1.71355 -5.06499 0
M  V30 16573 H 1656.87 2.31345 -3.461 0
M  V30 16574 H 1657.4 0.677813 -3.91983 0
M  V30 16575 H 1654.14 -0.848284 -6.49988 0
M  V30 16576 H 1653.66 0.772941 -5.94799 0
M  V30 16577 H 1655.34 0.460441 -6.4536 0
M  V30 16578 N 1655.47 1.57485 0.0601405 0
M  V30 16579 C 1656.89 1.54105 0.415187 0
M  V30 16580 C 1657.09 0.935177 1.78484 0
M  V30 16581 O 1656.14 0.542715 2.46599 0
M  V30 16582 C 1657.46 2.98708 0.34555 0
M  V30 16583 C 1659.01 3.10103 0.424895 0
M  V30 16584 C 1659.48 4.56379 0.385041 0
M  V30 16585 N 1660.97 4.6106 0.444771 0
M  V30 16586 C 1661.71 5.71737 0.436334 0
M  V30 16587 N 1661.2 6.91746 0.38202 0
M  V30 16588 N 1663 5.60014 0.483759 0
M  V30 16589 H 1655.15 1.95232 -0.836565 0
M  V30 16590 H 1657.41 0.894101 -0.3151 0
M  V30 16591 H 1657.12 3.4664 -0.594427 0
M  V30 16592 H 1656.99 3.59201 1.15129 0
M  V30 16593 H 1659.38 2.62137 1.3553 0
M  V30 16594 H 1659.46 2.52499 -0.409633 0
M  V30 16595 H 1659.1 5.05004 -0.541561 0
M  V30 16596 H 1659.03 5.11859 1.23726 0
M  V30 16597 H 1661.52 3.74703 0.490522 0
M  V30 16598 H 1661.84 7.71866 0.379829 0
M  V30 16599 H 1660.18 6.94126 0.348532 0
M  V30 16600 H 1663.37 4.65158 0.523965 0
M  V30 16601 H 1663.54 6.46266 0.473715 0
M  V30 16602 N 1656.95 -0.331789 1.54068 0
M  V30 16603 C 1657.9 -1.42815 1.83593 0
M  V30 16604 C 1658.89 -1.53931 0.707231 0
M  V30 16605 O 1660.1 -1.56414 0.890763 0
M  V30 16606 H 1656.47 -0.476418 0.581833 0
M  V30 16607 H 1658.44 -1.15133 2.75294 0
M  V30 16608 C 1657.19 -2.79162 2.07277 0
M  V30 16609 H 1656.52 -2.7138 2.93586 0
M  V30 16610 H 1657.96 -3.54966 2.31895 0
M  V30 16611 C 1656.42 -3.25691 0.861816 0
M  V30 16612 O 1656.95 -4.01644 0.0670133 0
M  V30 16613 N 1655.15 -2.82634 0.675746 0
M  V30 16614 H 1654.7 -2.20988 1.32371 0
M  V30 16615 H 1654.66 -3.14119 -0.133004 0
M  V30 16616 N 1658.43 -1.46001 -0.593424 0
M  V30 16617 C 1659.66 -1.54307 -1.3783 0
M  V30 16618 C 1660.07 -0.18048 -1.87935 0
M  V30 16619 O 1659.43 0.820427 -1.63019 0
M  V30 16620 C 1659.48 -2.53911 -2.57316 0
M  V30 16621 O 1659.2 -3.84876 -2.09289 0
M  V30 16622 C 1660.7 -2.72054 -3.50002 0
M  V30 16623 H 1657.92 -0.522149 -0.421428 0
M  V30 16624 H 1660.47 -1.91315 -0.722423 0
M  V30 16625 H 1658.62 -2.19937 -3.18915 0
M  V30 16626 H 1659.03 -4.38996 -2.87025 0
M  V30 16627 H 1660.51 -3.45692 -4.3035 0
M  V30 16628 H 1660.99 -1.78583 -4.01254 0
M  V30 16629 H 1661.59 -3.07082 -2.94246 0
M  V30 16630 N 1659.91 0.83715 -1.33527 0
M  V30 16631 C 1661.16 1.58747 -1.24428 0
M  V30 16632 C 1661.47 1.94696 0.187885 0
M  V30 16633 O 1662.67 2.68524 0.400903 0
M  V30 16634 C 1661.13 2.86337 -2.18035 0
M  V30 16635 C 1660.74 2.57745 -3.66431 0
M  V30 16636 C 1662.48 3.6436 -2.17812 0
M  V30 16637 C 1660.39 3.81443 -4.51946 0
M  V30 16638 H 1659.32 0.595749 -0.462168 0
M  V30 16639 H 1661.97 0.922901 -1.58603 0
M  V30 16640 H 1660.35 3.54344 -1.76795 0
M  V30 16641 H 1661.53 1.97939 -4.16121 0
M  V30 16642 H 1659.84 1.93023 -3.68959 0
M  V30 16643 H 1662.44 4.56181 -2.78932 0
M  V30 16644 H 1662.78 3.99414 -1.17364 0
M  V30 16645 H 1663.31 3.03279 -2.57423 0
M  V30 16646 H 1660.05 3.51519 -5.53276 0
M  V30 16647 H 1659.57 4.40582 -4.06998 0
M  V30 16648 H 1661.25 4.49004 -4.65837 0
M  V30 16649 N 1661.38 1.17024 1.05561 0
M  V30 16650 C 1662.29 0.898107 2.16728 0
M  V30 16651 C 1663.31 -0.132369 1.73496 0
M  V30 16652 O 1664.49 0.0460203 2.01347 0
M  V30 16653 C 1661.55 0.411091 3.44254 0
M  V30 16654 C 1660.61 1.5077 4.01954 0
M  V30 16655 C 1659.85 1.04383 5.23393 0
M  V30 16656 O 1660.07 -0.10351 5.70306 0
M  V30 16657 O 1659 1.8353 5.73237 0
M  V30 16658 H 1662.83 1.82791 2.42531 0
M  V30 16659 H 1660.41 0.950816 1.15238 0
M  V30 16660 H 1662.3 0.146837 4.21144 0
M  V30 16661 H 1660.97 -0.490605 3.19961 0
M  V30 16662 H 1659.88 1.82579 3.26521 0
M  V30 16663 H 1661.21 2.38497 4.30558 0
M  V30 16664 N 1662.86 -1.24221 0.969889 0
M  V30 16665 C 1663.77 -2.29001 0.509467 0
M  V30 16666 C 1664.79 -1.68587 -0.430637 0
M  V30 16667 O 1665.96 -1.99106 -0.303142 0
M  V30 16668 C 1663.03 -3.46174 -0.190906 0
M  V30 16669 C 1662.09 -4.21982 0.789296 0
M  V30 16670 C 1661.32 -5.3356 0.122252 0
M  V30 16671 O 1661.55 -5.59909 -1.08896 0
M  V30 16672 O 1660.48 -5.9635 0.815517 0
M  V30 16673 H 1664.31 -2.70506 1.38058 0
M  V30 16674 H 1661.89 -1.29955 0.737028 0
M  V30 16675 H 1663.77 -4.1733 -0.584244 0
M  V30 16676 H 1662.45 -3.06642 -1.03695 0
M  V30 16677 H 1661.36 -3.53192 1.23313 0
M  V30 16678 H 1662.69 -4.65337 1.60382 0
M  V30 16679 N 1664.34 -0.740267 -1.39132 0
M  V30 16680 C 1665.57 -0.30093 -2.047 0
M  V30 16681 C 1665.98 1.0661 -1.5582 0
M  V30 16682 O 1665.34 1.67465 -0.725388 0
M  V30 16683 C 1665.39 -0.299574 -3.60257 0
M  V30 16684 O 1665.11 -1.61265 -4.07339 0
M  V30 16685 C 1666.61 0.155279 -4.43028 0
M  V30 16686 H 1663.83 -0.130652 -0.658157 0
M  V30 16687 H 1666.38 -1.00539 -1.78079 0
M  V30 16688 H 1664.53 0.356041 -3.8576 0
M  V30 16689 H 1664.95 -1.52977 -5.01695 0
M  V30 16690 H 1666.42 0.105068 -5.519 0
M  V30 16691 H 1666.9 1.20123 -4.22454 0
M  V30 16692 H 1667.5 -0.470965 -4.22684 0
M  V30 16693 N 1665.82 1.49844 -0.488302 0
M  V30 16694 C 1667.07 2.02009 0.0605782 0
M  V30 16695 C 1667.39 1.37114 1.38653 0
M  V30 16696 O 1666.66 0.522182 1.88812 0
M  V30 16697 H 1665.24 0.746569 0.0253773 0
M  V30 16698 H 1667.9 1.84 -0.64265 0
M  V30 16699 H 1667 3.11461 0.199542 0
M  V30 16700 N 1667.3 0.221601 1.56034 0
M  V30 16701 C 1668.24 -0.704963 2.2166 0
M  V30 16702 C 1669.24 -1.19966 1.19601 0
M  V30 16703 O 1670.44 -1.15949 1.37681 0
M  V30 16704 H 1666.82 -0.245758 0.710709 0
M  V30 16705 H 1668.79 -0.128041 2.98125 0
M  V30 16706 C 1667.54 -1.90234 2.91043 0
M  V30 16707 H 1666.86 -1.53079 3.69333 0
M  V30 16708 H 1668.3 -2.52844 3.40361 0
M  V30 16709 C 1666.76 -2.75777 1.93516 0
M  V30 16710 O 1667.29 -3.74534 1.45214 0
M  V30 16711 N 1665.5 -2.41815 1.61165 0
M  V30 16712 H 1665.04 -1.61561 2.00639 0
M  V30 16713 H 1665 -2.9933 0.96172 0
M  V30 16714 N 1668.77 -1.57515 -0.0517878 0
M  V30 16715 C 1669.7 -2.0809 -1.05929 0
M  V30 16716 C 1670.69 -0.978529 -1.39136 0
M  V30 16717 O 1671.87 -1.25245 -1.48416 0
M  V30 16718 C 1669 -2.54147 -2.36699 0
M  V30 16719 C 1667.95 -3.68442 -2.17794 0
M  V30 16720 C 1667.28 -4.00624 -3.54125 0
M  V30 16721 C 1668.58 -4.97743 -1.5827 0
M  V30 16722 H 1670.27 -2.92515 -0.638371 0
M  V30 16723 H 1667.82 -1.40719 -0.305625 0
M  V30 16724 H 1669.77 -2.88145 -3.07491 0
M  V30 16725 H 1668.5 -1.66775 -2.80809 0
M  V30 16726 H 1667.16 -3.34758 -1.4944 0
M  V30 16727 H 1666.8 -3.10353 -3.95841 0
M  V30 16728 H 1666.5 -4.77597 -3.42308 0
M  V30 16729 H 1668.03 -4.37136 -4.26315 0
M  V30 16730 H 1669.44 -5.29843 -2.18951 0
M  V30 16731 H 1667.84 -5.79173 -1.57094 0
M  V30 16732 H 1668.91 -4.81815 -0.546127 0
M  V30 16733 N 1670.25 0.323614 -1.54242 0
M  V30 16734 C 1671.22 1.38126 -1.82904 0
M  V30 16735 C 1672.22 1.44723 -0.700853 0
M  V30 16736 O 1673.41 1.44751 -0.969161 0
M  V30 16737 C 1670.54 2.76858 -1.98903 0
M  V30 16738 H 1671.73 1.13966 -2.77402 0
M  V30 16739 H 1669.28 0.559094 -1.45958 0
M  V30 16740 H 1670.02 3.06274 -1.06616 0
M  V30 16741 H 1669.8 2.73464 -2.80998 0
M  V30 16742 H 1671.29 3.53372 -2.22526 0
M  V30 16743 N 1671.73 1.46313 0.585673 0
M  V30 16744 C 1672.64 1.59232 1.72286 0
M  V30 16745 C 1673.66 0.475912 1.67365 0
M  V30 16746 O 1674.83 0.739627 1.87327 0
M  V30 16747 C 1671.9 1.57647 3.08785 0
M  V30 16748 C 1670.96 2.80497 3.24992 0
M  V30 16749 C 1670.19 2.78978 4.5498 0
M  V30 16750 O 1670.42 1.87553 5.38684 0
M  V30 16751 O 1669.35 3.7048 4.74371 0
M  V30 16752 H 1673.18 2.55398 1.64334 0
M  V30 16753 H 1670.76 1.29073 0.752369 0
M  V30 16754 H 1672.64 1.59448 3.90069 0
M  V30 16755 H 1671.32 0.6464 3.1718 0
M  V30 16756 H 1670.22 2.8425 2.43213 0
M  V30 16757 H 1671.56 3.72703 3.21487 0
M  V30 16758 N 1673.21 -0.830057 1.33969 0
M  V30 16759 C 1674.14 -1.94785 1.20795 0
M  V30 16760 C 1675.15 -1.62225 0.136752 0
M  V30 16761 O 1676.34 -1.74233 0.38797 0
M  V30 16762 C 1673.44 -3.28523 0.832209 0
M  V30 16763 C 1672.62 -3.89157 1.99689 0
M  V30 16764 C 1671.68 -5.01262 1.6007 0
M  V30 16765 O 1670.7 -5.19939 2.31629 0
M  V30 16766 N 1671.9 -5.78249 0.510754 0
M  V30 16767 H 1674.67 -2.06621 2.17089 0
M  V30 16768 H 1672.23 -1.00626 1.26831 0
M  V30 16769 H 1674.22 -4.00958 0.549094 0
M  V30 16770 H 1672.79 -3.12574 -0.0403271 0
M  V30 16771 H 1672.01 -3.09203 2.44514 0
M  V30 16772 H 1673.3 -4.26399 2.77599 0
M  V30 16773 H 1672.7 -5.65637 -0.0842912 0
M  V30 16774 H 1671.25 -6.51166 0.287345 0
M  V30 16775 N 1674.69 -1.17582 -1.04939 0
M  V30 16776 C 1675.65 -0.897095 -2.10914 0
M  V30 16777 C 1676.65 0.113823 -1.60397 0
M  V30 16778 O 1677.84 -0.118635 -1.73796 0
M  V30 16779 C 1674.97 -0.344251 -3.39157 0
M  V30 16780 H 1676.17 -1.83674 -2.37074 0
M  V30 16781 H 1673.72 -0.986634 -1.21224 0
M  V30 16782 H 1674.45 0.602417 -3.18656 0
M  V30 16783 H 1674.24 -1.07287 -3.77137 0
M  V30 16784 H 1675.73 -0.167644 -4.17263 0
M  V30 16785 N 1676.17 1.23705 -0.976463 0
M  V30 16786 C 1677.58 1.44179 -0.684434 0
M  V30 16787 C 1677.78 1.86992 0.75075 0
M  V30 16788 O 1676.84 2.01349 1.52365 0
M  V30 16789 C 1678.15 2.49661 -1.676 0
M  V30 16790 C 1679.7 2.63479 -1.68961 0
M  V30 16791 C 1680.17 3.72167 -2.66938 0
M  V30 16792 N 1681.66 3.79605 -2.65433 0
M  V30 16793 C 1682.4 4.63251 -3.37914 0
M  V30 16794 N 1681.9 5.51018 -4.19941 0
M  V30 16795 N 1683.69 4.57412 -3.26697 0
M  V30 16796 H 1675.84 0.942155 -1.90361 0
M  V30 16797 H 1678.1 0.475629 -0.820049 0
M  V30 16798 H 1677.81 2.25111 -2.70218 0
M  V30 16799 H 1677.68 3.47978 -1.45571 0
M  V30 16800 H 1680.07 2.87382 -0.670497 0
M  V30 16801 H 1680.15 1.65491 -1.95055 0
M  V30 16802 H 1679.79 3.49013 -3.68988 0
M  V30 16803 H 1679.72 4.69688 -2.3812 0
M  V30 16804 H 1682.22 3.16882 -2.05899 0
M  V30 16805 H 1682.53 6.11825 -4.72113 0
M  V30 16806 H 1680.87 5.50655 -4.24033 0
M  V30 16807 H 1684.06 3.87863 -2.62069 0
M  V30 16808 H 1684.24 5.22373 -3.83446 0
M  V30 16809 N 1677.64 0.747635 1.38738 0
M  V30 16810 C 1678.61 0.124321 2.28863 0
M  V30 16811 C 1679.61 -0.653816 1.46908 0
M  V30 16812 O 1680.8 -0.480963 1.67429 0
M  V30 16813 C 1677.93 -0.832601 3.30576 0
M  V30 16814 H 1679.12 0.918492 2.85489 0
M  V30 16815 H 1676.67 0.514262 1.47598 0
M  V30 16816 H 1677.41 -1.65267 2.79029 0
M  V30 16817 H 1677.19 -0.277109 3.9112 0
M  V30 16818 H 1678.68 -1.2649 3.97982 0
M  V30 16819 N 1679.12 -1.49583 0.496242 0
M  V30 16820 C 1680.07 -2.25966 -0.303873 0
M  V30 16821 C 1681.06 -1.30609 -0.939693 0
M  V30 16822 O 1682.25 -1.5536 -0.848079 0
M  V30 16823 C 1679.38 -3.14755 -1.37055 0
M  V30 16824 C 1678.46 -4.17573 -0.741214 0
M  V30 16825 N 1678.85 -5.05567 0.153357 0
M  V30 16826 C 1677.15 -4.34591 -1.00234 0
M  V30 16827 C 1677.85 -5.79432 0.513115 0
M  V30 16828 N 1676.83 -5.43472 -0.117819 0
M  V30 16829 H 1680.63 -2.91369 0.384854 0
M  V30 16830 H 1678.14 -1.59375 0.312007 0
M  V30 16831 H 1680.14 -3.68104 -1.95717 0
M  V30 16832 H 1678.8 -2.50903 -2.06101 0
M  V30 16833 H 1679.81 -5.15244 0.523862 0
M  V30 16834 H 1676.49 -3.81947 -1.6859 0
M  V30 16835 H 1677.88 -6.60271 1.24468 0
M  V30 16836 N 1680.6 -0.229873 -1.55915 0
M  V30 16837 C 1681.85 0.400157 -1.98813 0
M  V30 16838 C 1682.18 1.58821 -1.11756 0
M  V30 16839 O 1681.45 1.93692 -0.177094 0
M  V30 16840 C 1681.74 0.826623 -3.50484 0
M  V30 16841 C 1681.59 -0.365647 -4.48311 0
M  V30 16842 C 1682.91 1.6798 -4.06781 0
M  V30 16843 H 1680.03 0.143977 -0.7228 0
M  V30 16844 H 1682.67 -0.327775 -1.87151 0
M  V30 16845 H 1680.82 1.44687 -3.60552 0
M  V30 16846 H 1682.49 -1.00391 -4.50244 0
M  V30 16847 H 1680.73 -1.01168 -4.21838 0
M  V30 16848 H 1681.41 -0.0241816 -5.51995 0
M  V30 16849 H 1683.88 1.15639 -3.99708 0
M  V30 16850 H 1682.76 1.94708 -5.13206 0
M  V30 16851 H 1683.02 2.64594 -3.54179 0
M  V30 16852 N 1682.08 1.5754 0.0434337 0
M  V30 16853 C 1682.99 2.08996 1.06574 0
M  V30 16854 C 1684 1.02544 1.40573 0
M  V30 16855 O 1685.18 1.34192 1.50181 0
M  V30 16856 C 1682.24 2.54723 2.35196 0
M  V30 16857 C 1681.31 3.75595 2.0791 0
M  V30 16858 C 1680.54 4.19132 3.304 0
M  V30 16859 O 1680.76 3.62303 4.40559 0
M  V30 16860 O 1679.7 5.11694 3.16944 0
M  V30 16861 H 1683.52 2.96475 0.658503 0
M  V30 16862 H 1681.11 1.47129 0.259475 0
M  V30 16863 H 1682.99 2.84529 3.1084 0
M  V30 16864 H 1681.66 1.70361 2.75243 0
M  V30 16865 H 1680.57 3.5083 1.2988 0
M  V30 16866 H 1681.9 4.60897 1.72727 0
M  V30 16867 N 1683.56 -0.31543 1.54411 0
M  V30 16868 C 1684.5 -1.4086 1.85098 0
M  V30 16869 C 1685.5 -1.53172 0.723518 0
M  V30 16870 O 1686.7 -1.55461 0.907303 0
M  V30 16871 H 1683.08 -0.47022 0.586853 0
M  V30 16872 H 1685.05 -1.12207 2.765 0
M  V30 16873 C 1683.8 -2.76948 2.10227 0
M  V30 16874 H 1683.12 -2.68251 2.96448 0
M  V30 16875 H 1684.56 -3.52486 2.35647 0
M  V30 16876 C 1683.02 -3.24758 0.896312 0
M  V30 16877 O 1683.55 -4.0155 0.109609 0
M  V30 16878 N 1681.76 -2.81901 0.705685 0
M  V30 16879 H 1681.3 -2.19571 1.34708 0
M  V30 16880 H 1681.26 -3.14242 -0.0996804 0
M  V30 16881 N 1685.03 -1.46622 -0.577906 0
M  V30 16882 C 1686.26 -1.5576 -1.36185 0
M  V30 16883 C 1686.68 -0.200403 -1.87733 0
M  V30 16884 O 1686.03 0.803091 -1.6388 0
M  V30 16885 C 1686.09 -2.56626 -2.54608 0
M  V30 16886 O 1685.81 -3.87074 -2.05195 0
M  V30 16887 C 1687.31 -2.75751 -3.47097 0
M  V30 16888 H 1684.53 -0.526589 -0.415866 0
M  V30 16889 H 1687.07 -1.9207 -0.702091 0
M  V30 16890 H 1685.23 -2.23307 -3.16564 0
M  V30 16891 H 1685.64 -4.42015 -2.82352 0
M  V30 16892 H 1687.11 -3.50237 -4.26659 0
M  V30 16893 H 1687.59 -1.82829 -3.99337 0
M  V30 16894 H 1688.2 -3.10185 -2.90973 0
M  V30 16895 N 1686.51 0.822941 -1.34408 0
M  V30 16896 C 1687.42 1.96567 -1.28056 0
M  V30 16897 C 1688.44 1.72979 -0.188251 0
M  V30 16898 O 1689.61 1.97084 -0.41472 0
M  V30 16899 C 1686.68 3.30865 -1.03583 0
M  V30 16900 C 1685.74 3.67461 -2.2197 0
M  V30 16901 C 1684.97 4.9535 -1.98655 0
M  V30 16902 O 1685.2 5.62521 -0.944785 0
M  V30 16903 O 1684.13 5.29824 -2.85605 0
M  V30 16904 H 1687.96 2.0487 -2.24192 0
M  V30 16905 H 1685.54 0.958334 -1.14614 0
M  V30 16906 H 1687.42 4.11298 -0.917162 0
M  V30 16907 H 1686.1 3.2353 -0.104868 0
M  V30 16908 H 1685.01 2.87472 -2.39396 0
M  V30 16909 H 1686.34 3.79481 -3.13456 0
M  V30 16910 N 1687.99 1.18137 1.04314 0
M  V30 16911 C 1689.41 0.930523 1.29667 0
M  V30 16912 C 1689.61 -0.405336 1.97381 0
M  V30 16913 O 1688.66 -1.14025 2.25288 0
M  V30 16914 C 1689.98 2.09427 2.1578 0
M  V30 16915 C 1691.52 2.13229 2.29134 0
M  V30 16916 C 1692 3.29014 3.18612 0
M  V30 16917 N 1693.49 3.28859 3.26199 0
M  V30 16918 C 1694.22 4.15092 3.95583 0
M  V30 16919 N 1693.72 5.11453 4.67319 0
M  V30 16920 N 1695.51 4.03014 3.91837 0
M  V30 16921 H 1687.66 2.04108 0.587669 0
M  V30 16922 H 1689.93 0.89171 0.321804 0
M  V30 16923 H 1689.63 3.06023 1.73328 0
M  V30 16924 H 1689.51 2.0528 3.16449 0
M  V30 16925 H 1691.89 1.17212 2.70823 0
M  V30 16926 H 1691.98 2.21435 1.28064 0
M  V30 16927 H 1691.62 4.25302 2.77635 0
M  V30 16928 H 1691.55 3.18045 4.19708 0
M  V30 16929 H 1694.04 2.59097 2.75095 0
M  V30 16930 H 1694.35 5.7363 5.1785 0
M  V30 16931 H 1692.7 5.15415 4.66232 0
M  V30 16932 H 1695.89 3.27021 3.34925 0
M  V30 16933 H 1696.06 4.70435 4.4564 0
M  V30 16934 N 1689.47 -1.23186 0.98301 0
M  V30 16935 C 1690.4 -2.27054 0.544858 0
M  V30 16936 C 1691.38 -1.64749 -0.423281 0
M  V30 16937 O 1692.56 -1.91611 -0.316075 0
M  V30 16938 C 1689.69 -3.46972 -0.150976 0
M  V30 16939 C 1688.65 -4.21647 0.734707 0
M  V30 16940 C 1687.97 -5.34618 -0.0934874 0
M  V30 16941 C 1689.27 -4.81372 2.02679 0
M  V30 16942 H 1690.97 -2.63957 1.41305 0
M  V30 16943 H 1688.51 -1.26885 0.680895 0
M  V30 16944 H 1690.47 -4.18784 -0.468825 0
M  V30 16945 H 1689.19 -3.09137 -1.05364 0
M  V30 16946 H 1687.85 -3.51655 1.03605 0
M  V30 16947 H 1687.5 -4.93025 -0.996768 0
M  V30 16948 H 1687.2 -5.85503 0.496019 0
M  V30 16949 H 1688.72 -6.09251 -0.405658 0
M  V30 16950 H 1690.14 -5.45178 1.77353 0
M  V30 16951 H 1688.53 -5.42554 2.56429 0
M  V30 16952 H 1689.6 -4.01972 2.71194 0
M  V30 16953 N 1690.95 -0.754982 -1.38339 0
M  V30 16954 C 1692.2 -0.308537 -1.99326 0
M  V30 16955 C 1692.51 1.1164 -1.60611 0
M  V30 16956 O 1693.71 1.66339 -2.14578 0
M  V30 16957 C 1692.17 -0.500688 -3.564 0
M  V30 16958 C 1691.78 -1.9348 -4.04066 0
M  V30 16959 C 1693.52 -0.117026 -4.24339 0
M  V30 16960 C 1691.43 -2.07544 -5.53786 0
M  V30 16961 H 1690.36 -0.111611 -0.745694 0
M  V30 16962 H 1693.01 -0.931722 -1.58086 0
M  V30 16963 H 1691.39 0.191702 -3.95536 0
M  V30 16964 H 1692.57 -2.66077 -3.76217 0
M  V30 16965 H 1690.88 -2.27351 -3.48856 0
M  V30 16966 H 1693.48 -0.200847 -5.34323 0
M  V30 16967 H 1693.82 0.930531 -4.05767 0
M  V30 16968 H 1694.35 -0.761323 -3.90447 0
M  V30 16969 H 1691.09 -3.10559 -5.77264 0
M  V30 16970 H 1690.61 -1.39409 -5.83374 0
M  V30 16971 H 1692.29 -1.86605 -6.19506 0
M  V30 16972 N 1692.42 1.49318 -0.504168 0
M  V30 16973 C 1693.33 2.32958 0.277053 0
M  V30 16974 C 1694.35 1.44838 0.964266 0
M  V30 16975 O 1695.53 1.77856 0.944947 0
M  V30 16976 C 1692.59 3.20352 1.32572 0
M  V30 16977 C 1691.65 4.24326 0.651606 0
M  V30 16978 C 1690.89 5.07544 1.65031 0
M  V30 16979 O 1691.11 4.92326 2.88047 0
M  V30 16980 O 1690.04 5.89737 1.20388 0
M  V30 16981 H 1693.87 3.00952 -0.40763 0
M  V30 16982 H 1691.45 1.47023 -0.265453 0
M  V30 16983 H 1693.34 3.74483 1.93237 0
M  V30 16984 H 1692.01 2.5505 1.99327 0
M  V30 16985 H 1690.92 3.741 0.00513384 0
M  V30 16986 H 1692.25 4.92193 0.0264424 0
M  V30 16987 N 1693.9 0.238138 1.5579 0
M  V30 16988 C 1695.15 -0.389474 1.97904 0
M  V30 16989 C 1695.46 -1.59707 1.1293 0
M  V30 16990 O 1696.67 -2.29526 1.45017 0
M  V30 16991 C 1695.13 -0.744319 3.52119 0
M  V30 16992 C 1694.73 0.441387 4.4582 0
M  V30 16993 C 1696.48 -1.33661 4.02908 0
M  V30 16994 C 1694.39 0.063184 5.91366 0
M  V30 16995 H 1693.32 -0.149291 0.739072 0
M  V30 16996 H 1695.97 0.336972 1.80379 0
M  V30 16997 H 1694.35 -1.52865 3.65306 0
M  V30 16998 H 1695.52 1.21881 4.44389 0
M  V30 16999 H 1693.84 0.948017 4.05465 0
M  V30 17000 H 1696.43 -1.63276 5.09161 0
M  V30 17001 H 1696.78 -2.2581 3.49737 0
M  V30 17002 H 1697.31 -0.615366 3.93012 0
M  V30 17003 H 1694.05 0.951584 6.48556 0
M  V30 17004 H 1693.57 -0.678216 5.95953 0
M  V30 17005 H 1695.25 -0.357712 6.4601 0
M  V30 17006 N 1695.38 -1.57561 -0.0350783 0
M  V30 17007 C 1696.34 -2.05145 -1.02217 0
M  V30 17008 C 1697.34 -0.954524 -1.29404 0
M  V30 17009 O 1698.53 -1.21833 -1.24509 0
M  V30 17010 C 1695.67 -2.4633 -2.35658 0
M  V30 17011 H 1696.86 -2.93605 -0.61126 0
M  V30 17012 H 1694.41 -1.53739 -0.28176 0
M  V30 17013 H 1695.15 -1.61008 -2.81508 0
M  V30 17014 H 1694.93 -3.26408 -2.17256 0
M  V30 17015 H 1696.42 -2.83592 -3.06537 0
M  V30 17016 N 1696.86 0.307236 -1.54576 0
M  V30 17017 C 1698.08 1.06668 -1.77867 0
M  V30 17018 C 1698.51 1.80375 -0.533536 0
M  V30 17019 O 1697.87 1.73812 0.515663 0
M  V30 17020 C 1697.91 2.02777 -2.98184 0
M  V30 17021 O 1697.02 3.10969 -2.70872 0
M  V30 17022 H 1696.36 0.306741 -0.588902 0
M  V30 17023 H 1698.89 0.346557 -2.01644 0
M  V30 17024 H 1698.9 2.45355 -3.25983 0
M  V30 17025 H 1697.57 1.48534 -3.88472 0
M  V30 17026 H 1696.15 2.7295 -2.54072 0
M  V30 17027 N 1698.34 1.46926 0.570122 0
M  V30 17028 C 1699.75 1.32159 0.894766 0
M  V30 17029 C 1699.95 0.302411 1.99218 0
M  V30 17030 O 1699.01 -0.290615 2.50822 0
M  V30 17031 C 1700.32 2.71136 1.30021 0
M  V30 17032 C 1701.87 2.79323 1.41236 0
M  V30 17033 C 1702.34 4.18911 1.85142 0
M  V30 17034 N 1703.84 4.2139 1.92314 0
M  V30 17035 C 1704.57 5.263 2.27588 0
M  V30 17036 N 1704.07 6.41526 2.61565 0
M  V30 17037 N 1705.86 5.13671 2.28251 0
M  V30 17038 H 1698.01 2.11837 -0.154603 0
M  V30 17039 H 1700.27 0.947978 -0.00649658 0
M  V30 17040 H 1699.98 3.47087 0.567775 0
M  V30 17041 H 1699.85 3.02066 2.25911 0
M  V30 17042 H 1702.24 2.03653 2.13564 0
M  V30 17043 H 1702.32 2.52063 0.43566 0
M  V30 17044 H 1701.97 4.95081 1.13389 0
M  V30 17045 H 1701.9 4.43587 2.83792 0
M  V30 17046 H 1704.39 3.38257 1.68495 0
M  V30 17047 H 1704.7 7.17343 2.8747 0
M  V30 17048 H 1703.04 6.44867 2.59175 0
M  V30 17049 H 1706.24 4.22684 2.01137 0
M  V30 17050 H 1706.41 5.95541 2.55412 0
M  V30 17051 N 1699.82 -0.815801 1.34842 0
M  V30 17052 C 1700.73 -1.95886 1.29097 0
M  V30 17053 C 1701.74 -1.72876 0.197422 0
M  V30 17054 O 1702.92 -1.96861 0.425166 0
M  V30 17055 C 1699.98 -3.30311 1.05336 0
M  V30 17056 C 1699.04 -3.66279 2.23916 0
M  V30 17057 C 1698.28 -4.9429 2.01279 0
M  V30 17058 O 1698.5 -5.62012 0.974603 0
M  V30 17059 O 1697.43 -5.28302 2.88411 0
M  V30 17060 H 1701.26 -2.03678 2.25276 0
M  V30 17061 H 1698.84 -0.952243 1.1512 0
M  V30 17062 H 1700.73 -4.10806 0.938961 0
M  V30 17063 H 1699.4 -3.2347 0.122024 0
M  V30 17064 H 1698.31 -2.86198 2.40918 0
M  V30 17065 H 1699.64 -3.77814 3.15464 0
M  V30 17066 N 1701.29 -1.18689 -1.03686 0
M  V30 17067 C 1702.22 -0.94094 -2.13702 0
M  V30 17068 C 1703.2 0.12277 -1.69656 0
M  V30 17069 O 1704.39 -0.0306085 -1.94176 0
M  V30 17070 C 1701.52 -0.470054 -3.44104 0
M  V30 17071 C 1700.47 -1.47468 -4.01792 0
M  V30 17072 C 1699.8 -0.861174 -5.2772 0
M  V30 17073 C 1701.1 -2.85254 -4.37524 0
M  V30 17074 H 1702.79 -1.86102 -2.34534 0
M  V30 17075 H 1700.34 -0.896207 -1.12713 0
M  V30 17076 H 1702.29 -0.28533 -4.20433 0
M  V30 17077 H 1701.02 0.485604 -3.2297 0
M  V30 17078 H 1699.68 -1.64641 -3.2755 0
M  V30 17079 H 1699.32 0.10179 -5.02897 0
M  V30 17080 H 1699.02 -1.53196 -5.67278 0
M  V30 17081 H 1700.55 -0.687066 -6.06722 0
M  V30 17082 H 1701.96 -2.71711 -5.04823 0
M  V30 17083 H 1700.36 -3.49051 -4.88143 0
M  V30 17084 H 1701.43 -3.38516 -3.47181 0
M  V30 17085 N 1702.77 1.22662 -0.989529 0
M  V30 17086 C 1703.68 2.28162 -0.545835 0
M  V30 17087 C 1704.7 1.69251 0.403762 0
M  V30 17088 O 1705.87 1.99563 0.271428 0
M  V30 17089 C 1702.94 3.46434 0.135808 0
M  V30 17090 C 1702 4.20673 -0.85633 0
M  V30 17091 C 1701.23 5.33298 -0.207121 0
M  V30 17092 O 1701.46 5.6157 0.99975 0
M  V30 17093 O 1700.39 5.94977 -0.910288 0
M  V30 17094 H 1704.22 2.68276 -1.42344 0
M  V30 17095 H 1701.8 1.28766 -0.757609 0
M  V30 17096 H 1703.68 4.18207 0.517776 0
M  V30 17097 H 1702.36 3.08252 0.988035 0
M  V30 17098 H 1701.26 3.51186 -1.28917 0
M  V30 17099 H 1702.6 4.62726 -1.67765 0
M  V30 17100 N 1704.25 0.762308 1.37937 0
M  V30 17101 C 1705.2 0.140412 2.30372 0
M  V30 17102 C 1706.17 -0.700152 1.50622 0
M  V30 17103 O 1707.35 -0.654474 1.79224 0
M  V30 17104 C 1704.49 -0.740056 3.37071 0
M  V30 17105 C 1703.6 0.116084 4.31844 0
M  V30 17106 C 1702.74 -0.768203 5.25616 0
M  V30 17107 C 1701.78 0.0910442 6.12032 0
M  V30 17108 N 1700.92 -0.75069 6.98075 0
M  V30 17109 H 1705.76 0.934224 2.82977 0
M  V30 17110 H 1703.29 0.472316 1.39311 0
M  V30 17111 H 1705.25 -1.26525 3.97551 0
M  V30 17112 H 1703.88 -1.49956 2.85855 0
M  V30 17113 H 1702.93 0.758999 3.72751 0
M  V30 17114 H 1704.24 0.779285 4.92675 0
M  V30 17115 H 1703.4 -1.36024 5.91255 0
M  V30 17116 H 1702.14 -1.46511 4.65173 0
M  V30 17117 H 1701.14 0.695687 5.45381 0
M  V30 17118 H 1702.37 0.785145 6.74546 0
M  V30 17119 H 1700.31 -1.43239 6.40171 0
M  V30 17120 H 1700.23 -0.144579 7.55862 0
M  V30 17121 H 1701.5 -1.32742 7.68114 0
M  V30 17122 N 1705.73 -1.49049 0.51208 0
M  V30 17123 C 1706.69 -2.27838 -0.249491 0
M  V30 17124 C 1707.69 -1.34321 -0.884004 0
M  V30 17125 O 1708.88 -1.57379 -0.74682 0
M  V30 17126 C 1706.01 -3.12637 -1.35908 0
M  V30 17127 H 1707.21 -2.96625 0.442029 0
M  V30 17128 H 1704.76 -1.53996 0.267406 0
M  V30 17129 H 1705.49 -2.48441 -2.0844 0
M  V30 17130 H 1705.28 -3.81408 -0.909427 0
M  V30 17131 H 1706.77 -3.72117 -1.89523 0
M  V30 17132 N 1707.21 -0.246397 -1.55662 0
M  V30 17133 C 1708.15 0.653368 -2.21359 0
M  V30 17134 C 1709.12 1.1717 -1.1773 0
M  V30 17135 O 1710.31 1.22626 -1.46176 0
M  V30 17136 C 1707.45 1.84484 -2.9165 0
M  V30 17137 C 1706.56 1.36308 -4.09932 0
M  V30 17138 C 1705.7 2.51407 -4.6794 0
M  V30 17139 C 1704.73 2.0009 -5.78472 0
M  V30 17140 N 1703.87 3.08555 -6.30665 0
M  V30 17141 H 1708.71 0.0864458 -2.97875 0
M  V30 17142 H 1706.25 0.0309074 -1.47068 0
M  V30 17143 H 1708.21 2.54476 -3.30602 0
M  V30 17144 H 1706.84 2.38425 -2.17609 0
M  V30 17145 H 1705.89 0.557224 -3.76297 0
M  V30 17146 H 1707.2 0.946988 -4.89728 0
M  V30 17147 H 1706.35 3.29442 -5.09463 0
M  V30 17148 H 1705.09 2.96318 -3.87359 0
M  V30 17149 H 1704.1 1.20526 -5.36427 0
M  V30 17150 H 1705.32 1.5615 -6.60904 0
M  V30 17151 H 1703.27 3.529 -5.52989 0
M  V30 17152 H 1703.19 2.71274 -7.05653 0
M  V30 17153 H 1704.45 3.8665 -6.76847 0
M  V30 17154 N 1708.68 1.57577 0.026722 0
M  V30 17155 C 1709.93 1.8966 0.718124 0
M  V30 17156 C 1710.26 0.844423 1.7488 0
M  V30 17157 O 1709.54 -0.14023 1.93994 0
M  V30 17158 C 1709.82 3.32377 1.38555 0
M  V30 17159 C 1709.67 4.4829 0.368227 0
M  V30 17160 C 1710.99 3.74051 2.31891 0
M  V30 17161 H 1708.11 0.689767 0.259596 0
M  V30 17162 H 1710.75 1.8999 -0.0190825 0
M  V30 17163 H 1708.9 3.32226 2.01391 0
M  V30 17164 H 1710.58 4.60576 -0.258394 0
M  V30 17165 H 1708.82 4.32675 -0.312255 0
M  V30 17166 H 1709.49 5.45041 0.873749 0
M  V30 17167 H 1711.97 3.75584 1.79097 0
M  V30 17168 H 1710.84 4.74713 2.7557 0
M  V30 17169 H 1711.1 3.06438 3.18666 0
M  V30 17170 N 1710.16 -0.299034 1.54737 0
M  V30 17171 C 1711.12 -1.35199 1.85078 0
M  V30 17172 C 1712.12 -1.4359 0.723788 0
M  V30 17173 O 1713.31 -1.43191 0.992067 0
M  V30 17174 C 1710.45 -2.73659 2.03282 0
M  V30 17175 H 1711.64 -1.09538 2.7918 0
M  V30 17176 H 1709.19 -0.535803 1.46829 0
M  V30 17177 H 1709.93 -3.04539 1.11475 0
M  V30 17178 H 1709.71 -2.68959 2.85313 0
M  V30 17179 H 1711.2 -3.49787 2.28119 0
M  V30 17180 N 1711.64 -1.47227 -0.562322 0
M  V30 17181 C 1712.6 -1.58887 -1.6519 0
M  V30 17182 C 1713.6 -0.464359 -1.53949 0
M  V30 17183 O 1714.79 -0.729279 -1.582 0
M  V30 17184 C 1711.92 -1.52853 -3.04711 0
M  V30 17185 H 1713.12 -2.5601 -1.56202 0
M  V30 17186 H 1710.67 -1.35341 -0.781832 0
M  V30 17187 H 1711.41 -0.570867 -3.19236 0
M  V30 17188 H 1711.19 -2.3446 -3.14279 0
M  V30 17189 H 1712.68 -1.6414 -3.83989 0
M  V30 17190 N 1713.12 0.808639 -1.35273 0
M  V30 17191 C 1714.08 1.90195 -1.279 0
M  V30 17192 C 1715.08 1.59663 -0.190915 0
M  V30 17193 O 1716.27 1.68434 -0.444482 0
M  V30 17194 C 1713.4 3.26567 -0.978106 0
M  V30 17195 H 1714.6 1.98152 -2.25113 0
M  V30 17196 H 1712.15 1.00426 -1.19767 0
M  V30 17197 H 1712.88 3.24299 -0.00975789 0
M  V30 17198 H 1712.67 3.50114 -1.7653 0
M  V30 17199 H 1714.16 4.06602 -0.95207 0
M  V30 17200 N 1714.6 1.19237 1.03055 0
M  V30 17201 C 1715.54 0.925171 2.13409 0
M  V30 17202 C 1716.54 -0.118373 1.68986 0
M  V30 17203 O 1717.74 0.0307159 1.79974 0
M  V30 17204 H 1714.12 0.281769 0.697216 0
M  V30 17205 H 1716.09 1.86252 2.33137 0
M  V30 17206 C 1714.84 0.478529 3.44391 0
M  V30 17207 H 1714.16 1.27305 3.7899 0
M  V30 17208 H 1715.6 0.330661 4.22709 0
M  V30 17209 C 1714.06 -0.80715 3.27088 0
M  V30 17210 O 1714.59 -1.86897 3.55573 0
M  V30 17211 N 1712.8 -0.76373 2.80385 0
M  V30 17212 H 1712.34 0.100606 2.57403 0
M  V30 17213 H 1712.3 -1.62435 2.69188 0
M  V30 17214 N 1716.07 -1.22136 0.99602 0
M  V30 17215 C 1717.32 -1.9125 0.674632 0
M  V30 17216 C 1717.65 -1.77331 -0.791655 0
M  V30 17217 O 1716.93 -1.14419 -1.57285 0
M  V30 17218 C 1717.21 -3.43359 1.08521 0
M  V30 17219 C 1717.06 -3.66312 2.61028 0
M  V30 17220 C 1718.38 -4.3541 0.640795 0
M  V30 17221 H 1715.5 -0.694534 0.246559 0
M  V30 17222 H 1718.14 -1.4395 1.2401 0
M  V30 17223 H 1716.29 -3.83775 0.604071 0
M  V30 17224 H 1717.97 -3.3528 3.16836 0
M  V30 17225 H 1716.21 -3.10485 3.02954 0
M  V30 17226 H 1716.88 -4.72852 2.84807 0
M  V30 17227 H 1719.36 -4.02527 1.05411 0
M  V30 17228 H 1718.23 -5.40505 0.956337 0
M  V30 17229 H 1718.49 -4.39717 -0.458421 0
M  V30 17230 N 1717.55 -0.769612 -1.37531 0
M  V30 17231 C 1718.78 -0.343069 -2.04543 0
M  V30 17232 C 1719.2 1.02583 -1.57665 0
M  V30 17233 O 1718.56 1.65692 -0.735915 0
M  V30 17234 C 1718.61 -0.392914 -3.58453 0
M  V30 17235 O 1717.71 0.607401 -4.07902 0
M  V30 17236 H 1717.05 -0.148905 -0.647088 0
M  V30 17237 H 1719.58 -1.04521 -1.75888 0
M  V30 17238 H 1719.59 -0.24945 -4.07237 0
M  V30 17239 H 1718.27 -1.39159 -3.91928 0
M  V30 17240 H 1716.85 0.427231 -3.70445 0
M  V30 17241 N 1719.03 1.48775 -0.519977 0
M  V30 17242 C 1720.28 2.02792 0.0177768 0
M  V30 17243 C 1720.61 1.3972 1.34878 0
M  V30 17244 O 1719.88 0.539438 1.8687 0
M  V30 17245 C 1720.17 3.59786 0.150355 0
M  V30 17246 C 1720.02 4.33356 -1.20511 0
M  V30 17247 C 1721.34 4.31172 0.881959 0
M  V30 17248 H 1718.46 0.736983 0.00498634 0
M  V30 17249 H 1721.1 1.77603 -0.675069 0
M  V30 17250 H 1719.25 3.81378 0.740452 0
M  V30 17251 H 1720.92 4.23209 -1.83554 0
M  V30 17252 H 1719.17 3.95167 -1.78957 0
M  V30 17253 H 1719.84 5.4162 -1.06544 0
M  V30 17254 H 1722.31 4.14349 0.381302 0
M  V30 17255 H 1721.19 5.40729 0.943601 0
M  V30 17256 H 1721.45 3.97747 1.93001 0
M  V30 17257 N 1720.51 0.254649 1.55529 0
M  V30 17258 C 1721.74 -0.371856 2.03531 0
M  V30 17259 C 1722.15 -1.50974 1.13368 0
M  V30 17260 O 1721.51 -1.81885 0.14964 0
M  V30 17261 C 1721.56 -0.872314 3.50818 0
M  V30 17262 O 1721.28 0.22023 4.37546 0
M  V30 17263 C 1722.78 -1.56872 4.14616 0
M  V30 17264 H 1720 -0.0874565 0.665276 0
M  V30 17265 H 1722.55 0.380774 2.00924 0
M  V30 17266 H 1720.7 -1.5751 3.53934 0
M  V30 17267 H 1721.11 -0.161046 5.24253 0
M  V30 17268 H 1722.59 -1.87053 5.19341 0
M  V30 17269 H 1723.07 -2.49334 3.61565 0
M  V30 17270 H 1723.67 -0.910314 4.15444 0
M  V30 17271 N 1721.99 -1.57589 -0.0183649 0
M  V30 17272 C 1722.92 -2.04071 -1.04343 0
M  V30 17273 C 1723.93 -0.955366 -1.3182 0
M  V30 17274 O 1725.12 -1.23249 -1.29119 0
M  V30 17275 C 1722.22 -2.41011 -2.38258 0
M  V30 17276 C 1721.39 -3.72057 -2.29984 0
M  V30 17277 C 1720.45 -3.96067 -3.46435 0
M  V30 17278 O 1719.48 -4.66982 -3.25447 0
M  V30 17279 N 1720.68 -3.42535 -4.68669 0
M  V30 17280 H 1723.45 -2.92629 -0.647168 0
M  V30 17281 H 1721.01 -1.60583 -0.20611 0
M  V30 17282 H 1723 -2.54203 -3.14902 0
M  V30 17283 H 1721.57 -1.58068 -2.69691 0
M  V30 17284 H 1720.79 -3.69117 -1.38369 0
M  V30 17285 H 1722.08 -4.58003 -2.2161 0
M  V30 17286 H 1721.47 -2.85073 -4.8862 0
M  V30 17287 H 1720.03 -3.61087 -5.42641 0
M  V30 17288 N 1723.46 0.290824 -1.54893 0
M  V30 17289 C 1724.88 0.86313 -1.6555 0
M  V30 17290 C 1725.23 1.87713 -0.570806 0
M  V30 17291 O 1724.35 2.14437 0.290826 0
M  V30 17292 C 1724.95 1.57231 -3.00107 0
M  V30 17293 C 1723.51 2.09288 -3.1285 0
M  V30 17294 C 1722.65 0.928933 -2.61278 0
M  V30 17295 H 1725.6 0.0675807 -1.58556 0
M  V30 17296 H 1725.62 2.43841 -2.92099 0
M  V30 17297 H 1725.14 0.834055 -3.79032 0
M  V30 17298 H 1723.24 2.86129 -2.38665 0
M  V30 17299 H 1723.35 2.32042 -4.19158 0
M  V30 17300 H 1721.71 1.31735 -2.17986 0
M  V30 17301 H 1722.5 0.204475 -3.42691 0
M  V30 17302 N 1724.94 1.47523 0.554506 0
M  V30 17303 C 1725.85 1.62851 1.68869 0
M  V30 17304 C 1726.87 0.511305 1.66318 0
M  V30 17305 O 1728.04 0.779195 1.85716 0
M  V30 17306 C 1725.11 1.64161 3.05372 0
M  V30 17307 C 1724.17 2.87327 3.1897 0
M  V30 17308 C 1723.4 2.88566 4.48961 0
M  V30 17309 O 1723.63 1.98937 5.34584 0
M  V30 17310 O 1722.56 3.80459 4.66406 0
M  V30 17311 H 1726.39 2.58826 1.5888 0
M  V30 17312 H 1723.97 1.3064 0.724822 0
M  V30 17313 H 1725.85 1.67686 3.866 0
M  V30 17314 H 1724.53 0.713534 3.15738 0
M  V30 17315 H 1723.44 2.89345 2.37129 0
M  V30 17316 H 1724.77 3.79438 3.13509 0
M  V30 17317 N 1726.42 -0.801453 1.357 0
M  V30 17318 C 1727.65 -1.59518 1.32547 0
M  V30 17319 C 1728.07 -1.87868 -0.0934243 0
M  V30 17320 O 1727.43 -1.46955 -1.06179 0
M  V30 17321 C 1727.48 -2.90028 2.14281 0
M  V30 17322 O 1726.58 -3.83086 1.52704 0
M  V30 17323 H 1725.92 -0.48434 0.454215 0
M  V30 17324 H 1728.45 -0.994315 1.78814 0
M  V30 17325 H 1728.46 -3.39406 2.26423 0
M  V30 17326 H 1727.14 -2.6872 3.17431 0
M  V30 17327 H 1725.71 -3.4165 1.49432 0
M  V30 17328 N 1727.9 -1.19782 -1.02421 0
M  V30 17329 C 1729.13 -1.02871 -1.79514 0
M  V30 17330 C 1729.54 0.422387 -1.84014 0
M  V30 17331 O 1728.9 1.29335 -1.28758 0
M  V30 17332 C 1728.95 -1.59634 -3.24344 0
M  V30 17333 O 1728.67 -2.99064 -3.20144 0
M  V30 17334 C 1730.17 -1.47571 -4.18016 0
M  V30 17335 H 1727.39 -0.362301 -0.564782 0
M  V30 17336 H 1729.94 -1.58701 -1.28974 0
M  V30 17337 H 1728.09 -1.07942 -3.72058 0
M  V30 17338 H 1728.5 -3.25859 -4.10994 0
M  V30 17339 H 1729.98 -1.92061 -5.1751 0
M  V30 17340 H 1730.46 -0.426967 -4.3712 0
M  V30 17341 H 1731.06 -1.98417 -3.76179 0
M  V30 17342 N 1729.38 1.21606 -1.00248 0
M  V30 17343 C 1730.63 1.90231 -0.682401 0
M  V30 17344 C 1730.95 1.78324 0.78903 0
M  V30 17345 O 1730.22 1.17653 1.56635 0
M  V30 17346 H 1728.8 0.704132 -0.249414 0
M  V30 17347 H 1731.46 1.47751 -1.27105 0
M  V30 17348 H 1730.55 2.97183 -0.953351 0
M  V30 17349 N 1730.86 0.776895 1.37121 0
M  V30 17350 C 1732.13 0.268067 1.93754 0
M  V30 17351 C 1732.51 -1.23774 1.71007 0
M  V30 17352 O 1731.86 -2.02331 1.0618 0
M  V30 17353 C 1732.07 0.647054 3.42949 0
M  V30 17354 C 1733.42 0.619737 4.20053 0
M  V30 17355 O 1734.44 0.586757 3.51334 0
M  V30 17356 O 1733.3 0.651412 5.42604 0
M  V30 17357 H 1730.4 0.0631883 0.824582 0
M  V30 17358 H 1732.94 0.858594 1.46377 0
M  V30 17359 H 1731.71 1.68608 3.5311 0
M  V30 17360 H 1731.34 0.0297448 3.97589 0
M  V30 17361 N 1732.33 -1.48497 0.527859 0
M  V30 17362 C 1733.74 -1.86498 0.0868541 0
M  V30 17363 C 1734.1 -1.43763 -1.33517 0
M  V30 17364 O 1733.22 -0.827397 -1.99958 0
M  V30 17365 C 1733.82 -3.38464 0.150843 0
M  V30 17366 C 1732.37 -3.75666 -0.234956 0
M  V30 17367 C 1731.52 -2.72541 0.511549 0
M  V30 17368 H 1734.47 -1.40432 0.739223 0
M  V30 17369 H 1734.49 -3.75114 -0.637972 0
M  V30 17370 H 1734.01 -3.69537 1.18592 0
M  V30 17371 H 1732.11 -3.50206 -1.27225 0
M  V30 17372 H 1732.22 -4.78989 0.103178 0
M  V30 17373 H 1730.58 -2.54665 -0.0419281 0
M  V30 17374 H 1731.37 -3.06457 1.54722 0
M  V30 17375 N 1733.81 -0.262893 -1.55392 0
M  V30 17376 C 1734.76 0.645946 -2.23451 0
M  V30 17377 C 1735.75 1.16753 -1.2274 0
M  V30 17378 O 1736.96 1.12257 -1.40706 0
M  V30 17379 H 1733.33 0.226829 -0.716975 0
M  V30 17380 H 1735.31 0.0489539 -2.9836 0
M  V30 17381 C 1734.05 1.82451 -2.95985 0
M  V30 17382 H 1733.38 1.43233 -3.73262 0
M  V30 17383 H 1734.82 2.43731 -3.46945 0
M  V30 17384 C 1733.28 2.7055 -2.0076 0
M  V30 17385 O 1733.81 3.70552 -1.55093 0
M  V30 17386 N 1732.01 2.37457 -1.67519 0
M  V30 17387 H 1731.56 1.56184 -2.04852 0
M  V30 17388 H 1731.52 2.96675 -1.04074 0
M  V30 17389 N 1735.29 1.57597 0.0100073 0
M  V30 17390 C 1736.24 2.089 1.02292 0
M  V30 17391 C 1737.23 1.00681 1.36234 0
M  V30 17392 O 1738.44 1.19155 1.34915 0
M  V30 17393 H 1734.81 0.666899 0.347491 0
M  V30 17394 H 1736.78 2.9301 0.56458 0
M  V30 17395 C 1735.53 2.59942 2.30923 0
M  V30 17396 H 1734.86 3.4284 2.05672 0
M  V30 17397 H 1736.3 2.99528 3.00098 0
M  V30 17398 C 1734.75 1.50907 3.01212 0
M  V30 17399 O 1735.28 0.886216 3.91802 0
M  V30 17400 N 1733.49 1.23895 2.62866 0
M  V30 17401 H 1733.04 1.7473 1.89281 0
M  V30 17402 H 1733 0.511591 3.1021 0
M  V30 17403 N 1736.77 -0.282606 1.55045 0
M  V30 17404 C 1737.7 -1.37429 1.82177 0
M  V30 17405 C 1738.68 -1.47967 0.674139 0
M  V30 17406 O 1739.86 -1.64742 0.916103 0
M  V30 17407 C 1736.99 -2.75167 1.97486 0
M  V30 17408 C 1736.04 -2.81962 3.19999 0
M  V30 17409 S 1736.87 -2.42183 4.77606 0
M  V30 17410 C 1738.02 -3.81915 4.95875 0
M  V30 17411 H 1738.26 -1.1421 2.74488 0
M  V30 17412 H 1735.79 -0.481722 1.46693 0
M  V30 17413 H 1737.75 -3.54493 2.06991 0
M  V30 17414 H 1736.41 -2.95645 1.06081 0
M  V30 17415 H 1735.6 -3.83034 3.27569 0
M  V30 17416 H 1735.2 -2.10649 3.09035 0
M  V30 17417 H 1737.5 -4.77094 4.81027 0
M  V30 17418 H 1738.44 -3.79303 5.97942 0
M  V30 17419 H 1738.85 -3.72771 4.23912 0
M  V30 17420 N 1738.25 -1.47815 -0.546675 0
M  V30 17421 C 1739.47 -1.58613 -1.32851 0
M  V30 17422 C 1739.89 -0.240179 -1.87266 0
M  V30 17423 O 1739.25 0.768148 -1.65547 0
M  V30 17424 C 1739.3 -2.61969 -2.49107 0
M  V30 17425 O 1739.02 -3.9134 -1.96938 0
M  V30 17426 C 1740.52 -2.83051 -3.4117 0
M  V30 17427 H 1737.74 -0.535292 -0.404603 0
M  V30 17428 H 1740.28 -1.93516 -0.661192 0
M  V30 17429 H 1738.44 -2.29971 -3.11756 0
M  V30 17430 H 1738.85 -4.47905 -2.72913 0
M  V30 17431 H 1740.33 -3.59209 -4.19134 0
M  V30 17432 H 1740.8 -1.91258 -3.95369 0
M  V30 17433 H 1741.41 -3.16287 -2.84328 0
M  V30 17434 N 1739.72 0.794246 -1.36123 0
M  V30 17435 C 1740.65 1.92105 -1.32732 0
M  V30 17436 C 1741.63 1.68925 -0.199603 0
M  V30 17437 O 1742.82 1.90109 -0.396498 0
M  V30 17438 C 1739.95 3.29051 -1.11098 0
M  V30 17439 C 1738.9 3.66743 -2.20643 0
M  V30 17440 C 1738.23 5.01986 -1.84159 0
M  V30 17441 C 1739.53 3.75831 -3.62696 0
M  V30 17442 H 1741.22 1.952 -2.27018 0
M  V30 17443 H 1738.77 0.937746 -1.09281 0
M  V30 17444 H 1740.72 4.07494 -1.07362 0
M  V30 17445 H 1739.45 3.26331 -0.132614 0
M  V30 17446 H 1738.11 2.90594 -2.23497 0
M  V30 17447 H 1737.75 4.95782 -0.849081 0
M  V30 17448 H 1737.45 5.28175 -2.57497 0
M  V30 17449 H 1738.98 5.82855 -1.8197 0
M  V30 17450 H 1740.39 4.44476 -3.62096 0
M  V30 17451 H 1738.79 4.135 -4.34899 0
M  V30 17452 H 1739.86 2.7706 -3.97952 0
M  V30 17453 N 1741.2 1.20323 1.01785 0
M  V30 17454 C 1742.13 0.974819 2.12178 0
M  V30 17455 C 1743.11 -0.0957637 1.6983 0
M  V30 17456 O 1744.3 0.0614963 1.94103 0
M  V30 17457 C 1741.43 0.524739 3.43313 0
M  V30 17458 C 1740.38 1.53842 3.99395 0
M  V30 17459 C 1739.71 0.945021 5.26283 0
M  V30 17460 C 1741.01 2.92179 4.3293 0
M  V30 17461 H 1742.7 1.8981 2.31544 0
M  V30 17462 H 1740.25 0.914025 1.11273 0
M  V30 17463 H 1742.2 0.352182 4.19926 0
M  V30 17464 H 1740.92 -0.434161 3.23701 0
M  V30 17465 H 1739.58 1.69832 3.24889 0
M  V30 17466 H 1739.23 -0.0217709 5.02995 0
M  V30 17467 H 1738.93 1.62201 5.64769 0
M  V30 17468 H 1740.46 0.783504 6.05552 0
M  V30 17469 H 1741.87 2.79708 5.00436 0
M  V30 17470 H 1740.27 3.56773 4.82528 0
M  V30 17471 H 1741.34 3.43997 3.41752 0
M  V30 17472 N 1742.68 -1.21073 1.00892 0
M  V30 17473 C 1743.64 -2.21804 0.577543 0
M  V30 17474 C 1744.64 -1.56985 -0.348201 0
M  V30 17475 O 1745.83 -1.73653 -0.137947 0
M  V30 17476 C 1742.96 -3.40535 -0.157685 0
M  V30 17477 H 1744.16 -2.61483 1.46856 0
M  V30 17478 H 1741.71 -1.34402 0.79786 0
M  V30 17479 H 1742.45 -3.0635 -1.06397 0
M  V30 17480 H 1742.23 -3.88805 0.507238 0
M  V30 17481 H 1743.72 -4.152 -0.447109 0
M  V30 17482 N 1744.16 -0.784156 -1.36707 0
M  V30 17483 C 1745.07 -0.179959 -2.33909 0
M  V30 17484 C 1746.08 0.665092 -1.60787 0
M  V30 17485 O 1747.26 0.582111 -1.92804 0
M  V30 17486 C 1744.33 0.679323 -3.3998 0
M  V30 17487 C 1743.39 -0.183618 -4.28907 0
M  V30 17488 C 1742.62 0.634747 -5.29912 0
M  V30 17489 O 1742.84 1.87107 -5.38839 0
M  V30 17490 O 1741.78 0.0374113 -6.01888 0
M  V30 17491 H 1745.6 -0.983499 -2.87334 0
M  V30 17492 H 1743.19 -0.545521 -1.39084 0
M  V30 17493 H 1745.07 1.16948 -4.04847 0
M  V30 17494 H 1743.74 1.46084 -2.88862 0
M  V30 17495 H 1742.65 -0.720419 -3.67098 0
M  V30 17496 H 1743.98 -0.928522 -4.83363 0
M  V30 17497 N 1745.64 1.48215 -0.535727 0
M  V30 17498 C 1746.55 2.33494 0.227577 0
M  V30 17499 C 1747.56 1.4685 0.933327 0
M  V30 17500 O 1748.74 1.7982 0.907008 0
M  V30 17501 C 1745.8 3.23092 1.25747 0
M  V30 17502 C 1744.86 4.25613 0.561454 0
M  V30 17503 C 1744.1 5.1093 1.54228 0
M  V30 17504 O 1744.32 4.98325 2.77539 0
M  V30 17505 O 1743.25 5.92158 1.07852 0
M  V30 17506 H 1747.08 3.0002 -0.471375 0
M  V30 17507 H 1744.67 1.46427 -0.296579 0
M  V30 17508 H 1746.55 3.78498 1.8525 0
M  V30 17509 H 1745.22 2.5922 1.93872 0
M  V30 17510 H 1744.13 3.74026 -0.0742194 0
M  V30 17511 H 1745.46 4.92138 -0.0779649 0
M  V30 17512 N 1747.11 0.27113 1.5525 0
M  V30 17513 C 1748.08 -0.604946 2.21072 0
M  V30 17514 C 1749.08 -1.08438 1.18735 0
M  V30 17515 O 1750.27 -0.985192 1.43665 0
M  V30 17516 C 1747.4 -1.83416 2.87353 0
M  V30 17517 H 1748.59 -0.0302981 2.99885 0
M  V30 17518 H 1746.15 0.0217204 1.56285 0
M  V30 17519 H 1746.88 -2.44942 2.12542 0
M  V30 17520 H 1746.67 -1.49834 3.62343 0
M  V30 17521 H 1748.16 -2.45724 3.37653 0
M  V30 17522 N 1748.59 -1.576 -0.00164943 0
M  V30 17523 C 1750.01 -1.5554 -0.357706 0
M  V30 17524 C 1750.21 -1.00078 -1.74891 0
M  V30 17525 O 1749.26 -0.633864 -2.44414 0
M  V30 17526 C 1750.58 -2.99785 -0.234448 0
M  V30 17527 C 1752.13 -3.11466 -0.309509 0
M  V30 17528 C 1752.6 -4.57493 -0.215394 0
M  V30 17529 N 1754.09 -4.62393 -0.273345 0
M  V30 17530 C 1754.83 -5.72963 -0.223836 0
M  V30 17531 N 1754.32 -6.92687 -0.12502 0
M  V30 17532 N 1756.12 -5.61424 -0.27558 0
M  V30 17533 H 1748.27 -1.91992 0.908448 0
M  V30 17534 H 1750.53 -0.88179 0.348067 0
M  V30 17535 H 1750.24 -3.44195 0.722671 0
M  V30 17536 H 1750.11 -3.63226 -1.01718 0
M  V30 17537 H 1752.5 -2.66986 -1.25707 0
M  V30 17538 H 1752.58 -2.50805 0.503064 0
M  V30 17539 H 1752.22 -5.02647 0.728617 0
M  V30 17540 H 1752.15 -5.16098 -1.04643 0
M  V30 17541 H 1754.64 -3.76265 -0.351116 0
M  V30 17542 H 1754.96 -7.72744 -0.0930938 0
M  V30 17543 H 1753.3 -6.94941 -0.0906712 0
M  V30 17544 H 1756.49 -4.66782 -0.350963 0
M  V30 17545 H 1756.66 -6.47579 -0.233531 0
M  V30 17546 N 1750.07 0.274379 -1.55193 0
M  V30 17547 C 1751.02 1.33913 -1.87978 0
M  V30 17548 C 1751.99 1.49142 -0.731149 0
M  V30 17549 O 1753.17 1.63572 -0.98229 0
M  V30 17550 C 1750.31 2.69464 -2.156 0
M  V30 17551 C 1749.43 2.62468 -3.43125 0
M  V30 17552 C 1748.56 3.90188 -3.60453 0
M  V30 17553 C 1747.6 3.77697 -4.81675 0
M  V30 17554 N 1746.74 4.97249 -4.95669 0
M  V30 17555 H 1751.58 1.05254 -2.78793 0
M  V30 17556 H 1749.11 0.508532 -1.3803 0
M  V30 17557 H 1751.07 3.48329 -2.29614 0
M  V30 17558 H 1749.7 2.96328 -1.28021 0
M  V30 17559 H 1748.75 1.7532 -3.3759 0
M  V30 17560 H 1750.07 2.49137 -4.32125 0
M  V30 17561 H 1749.22 4.77495 -3.74277 0
M  V30 17562 H 1747.96 4.06384 -2.69635 0
M  V30 17563 H 1746.96 2.88774 -4.67857 0
M  V30 17564 H 1748.19 3.63022 -5.73927 0
M  V30 17565 H 1746.13 5.13858 -4.07781 0
M  V30 17566 H 1746.05 4.86444 -5.78712 0
M  V30 17567 H 1747.32 5.86132 -5.13877 0
M  V30 17568 N 1751.55 1.48103 0.538828 0
M  V30 17569 C 1752.48 1.64856 1.65363 0
M  V30 17570 C 1753.46 0.497579 1.6266 0
M  V30 17571 O 1754.64 0.729088 1.79994 0
M  V30 17572 C 1751.77 1.67984 3.03971 0
M  V30 17573 C 1750.73 2.82494 3.21529 0
M  V30 17574 C 1750.05 2.70706 4.6111 0
M  V30 17575 C 1751.35 4.23892 3.05145 0
M  V30 17576 H 1753.05 2.58183 1.51598 0
M  V30 17577 H 1750.59 1.24249 0.727886 0
M  V30 17578 H 1752.55 1.78294 3.81824 0
M  V30 17579 H 1751.27 0.712299 3.18738 0
M  V30 17580 H 1749.93 2.71725 2.46091 0
M  V30 17581 H 1749.58 1.7194 4.727 0
M  V30 17582 H 1749.28 3.47539 4.73804 0
M  V30 17583 H 1750.8 2.82971 5.41073 0
M  V30 17584 H 1752.22 4.3554 3.72797 0
M  V30 17585 H 1750.61 5.01654 3.29338 0
M  V30 17586 H 1751.68 4.40973 2.01671 0
M  V30 17587 N 1753.03 -0.787016 1.36542 0
M  V30 17588 C 1753.99 -1.88136 1.3091 0
M  V30 17589 C 1754.99 -1.59339 0.216292 0
M  V30 17590 O 1756.18 -1.67706 0.471222 0
M  V30 17591 C 1753.31 -3.24969 1.02994 0
M  V30 17592 H 1754.5 -1.94546 2.28237 0
M  V30 17593 H 1752.06 -0.985084 1.2135 0
M  V30 17594 H 1752.79 -3.24242 0.0613497 0
M  V30 17595 H 1752.58 -3.47261 1.82078 0
M  V30 17596 H 1754.07 -4.05036 1.01664 0
M  V30 17597 N 1754.5 -1.20861 -1.01145 0
M  V30 17598 C 1755.41 -0.977926 -2.13246 0
M  V30 17599 C 1756.43 0.0678862 -1.73868 0
M  V30 17600 O 1757.61 -0.120717 -2.01038 0
M  V30 17601 C 1754.67 -0.538575 -3.42491 0
M  V30 17602 C 1753.73 -1.65584 -3.96081 0
M  V30 17603 C 1752.97 -1.23736 -5.19158 0
M  V30 17604 O 1753.19 -0.108227 -5.70297 0
M  V30 17605 O 1752.12 -2.04679 -5.6603 0
M  V30 17606 H 1755.95 -1.91666 -2.3558 0
M  V30 17607 H 1753.53 -0.992931 -1.1163 0
M  V30 17608 H 1755.42 -0.303041 -4.20309 0
M  V30 17609 H 1754.09 0.371515 -3.21561 0
M  V30 17610 H 1753 -1.94572 -3.19519 0
M  V30 17611 H 1754.33 -2.54313 -4.21409 0
M  V30 17612 N 1755.98 1.20536 -1.01532 0
M  V30 17613 C 1757.4 1.41929 -0.729957 0
M  V30 17614 C 1757.6 1.89286 0.69088 0
M  V30 17615 O 1756.65 2.06094 1.45882 0
M  V30 17616 C 1757.97 2.44202 -1.75458 0
M  V30 17617 C 1759.52 2.57971 -1.77257 0
M  V30 17618 C 1759.99 3.63486 -2.78643 0
M  V30 17619 N 1761.48 3.70968 -2.77375 0
M  V30 17620 C 1762.22 4.52266 -3.52481 0
M  V30 17621 N 1761.71 5.37379 -4.37259 0
M  V30 17622 N 1763.51 4.46787 -3.41084 0
M  V30 17623 H 1755.66 0.881116 -1.93262 0
M  V30 17624 H 1757.92 0.449299 -0.834766 0
M  V30 17625 H 1757.63 2.16401 -2.77243 0
M  V30 17626 H 1757.5 3.43171 -1.56568 0
M  V30 17627 H 1759.89 2.85103 -0.761586 0
M  V30 17628 H 1759.97 1.59202 -2.00221 0
M  V30 17629 H 1759.61 3.37097 -3.79905 0
M  V30 17630 H 1759.54 4.61874 -2.52942 0
M  V30 17631 H 1762.03 3.10171 -2.15876 0
M  V30 17632 H 1762.35 5.96495 -4.91338 0
M  V30 17633 H 1760.69 5.36886 -4.41337 0
M  V30 17634 H 1763.88 3.79329 -2.74275 0
M  V30 17635 H 1764.05 5.0991 -3.9987 0
M  V30 17636 N 1757.46 0.791395 1.36289 0
M  V30 17637 C 1758.41 0.164218 2.27408 0
M  V30 17638 C 1759.39 -0.653018 1.47053 0
M  V30 17639 O 1760.59 -0.512767 1.6941 0
M  V30 17640 C 1757.72 -0.698551 3.36118 0
M  V30 17641 C 1756.8 0.127583 4.23908 0
M  V30 17642 N 1757.19 1.18307 4.91769 0
M  V30 17643 C 1755.49 -0.0932621 4.45902 0
M  V30 17644 C 1756.19 1.68616 5.56726 0
M  V30 17645 N 1755.17 0.995058 5.34415 0
M  V30 17646 H 1758.97 0.972045 2.7736 0
M  V30 17647 H 1756.48 0.63105 1.49638 0
M  V30 17648 H 1758.48 -1.16379 4.00327 0
M  V30 17649 H 1757.14 -1.5049 2.8772 0
M  V30 17650 H 1758.15 1.56553 4.93672 0
M  V30 17651 H 1754.83 -0.869962 4.08336 0
M  V30 17652 H 1756.22 2.56745 6.20912 0
M  V30 17653 N 1758.94 -1.47929 0.54358 0
M  V30 17654 C 1759.89 -2.29827 -0.211706 0
M  V30 17655 C 1760.86 -1.38217 -0.921154 0
M  V30 17656 O 1762.04 -1.67181 -0.919522 0
M  V30 17657 C 1759.18 -3.21889 -1.24425 0
M  V30 17658 C 1758.29 -4.28583 -0.542264 0
M  V30 17659 C 1757.43 -5.0781 -1.55892 0
M  V30 17660 C 1756.47 -6.06293 -0.841146 0
M  V30 17661 N 1755.61 -6.78528 -1.80399 0
M  V30 17662 H 1760.45 -2.93896 0.492835 0
M  V30 17663 H 1757.98 -1.44875 0.254873 0
M  V30 17664 H 1759.94 -3.73674 -1.85535 0
M  V30 17665 H 1758.57 -2.59713 -1.917 0
M  V30 17666 H 1757.62 -3.79959 0.183069 0
M  V30 17667 H 1758.93 -4.98796 0.0206703 0
M  V30 17668 H 1758.09 -5.63678 -2.24393 0
M  V30 17669 H 1756.83 -4.37468 -2.15576 0
M  V30 17670 H 1755.83 -5.49616 -0.14214 0
M  V30 17671 H 1757.06 -6.78639 -0.250232 0
M  V30 17672 H 1755 -6.10927 -2.38965 0
M  V30 17673 H 1754.92 -7.44863 -1.29285 0
M  V30 17674 H 1756.19 -7.38978 -2.48056 0
M  V30 17675 N 1760.42 -0.27936 -1.55104 0
M  V30 17676 C 1761.35 0.639572 -2.20096 0
M  V30 17677 C 1762.36 1.11423 -1.18696 0
M  V30 17678 O 1763.55 1.0354 -1.45402 0
M  V30 17679 C 1760.65 1.88494 -2.81644 0
M  V30 17680 C 1759.82 1.55639 -4.08773 0
M  V30 17681 C 1758.88 2.65466 -4.54328 0
M  V30 17682 O 1757.91 2.31473 -5.20008 0
M  V30 17683 N 1759.11 3.95606 -4.24825 0
M  V30 17684 H 1761.88 0.0833048 -2.99584 0
M  V30 17685 H 1759.44 -0.100637 -1.61587 0
M  V30 17686 H 1761.43 2.61272 -3.09062 0
M  V30 17687 H 1760 2.35015 -2.06123 0
M  V30 17688 H 1759.22 0.662253 -3.88597 0
M  V30 17689 H 1760.51 1.31196 -4.91594 0
M  V30 17690 H 1759.91 4.26043 -3.72161 0
M  V30 17691 H 1758.46 4.64748 -4.57004 0
M  V30 17692 N 1761.9 1.57599 -0.0067085 0
M  V30 17693 C 1762.81 2.1228 0.998709 0
M  V30 17694 C 1763.82 1.06964 1.37239 0
M  V30 17695 O 1765 1.38902 1.45836 0
M  V30 17696 C 1762.06 2.62076 2.26973 0
M  V30 17697 C 1761.12 3.8202 1.95855 0
M  V30 17698 C 1760.36 4.29431 3.16898 0
M  V30 17699 O 1760.58 3.76136 4.2881 0
M  V30 17700 O 1759.51 5.21518 3.00504 0
M  V30 17701 H 1763.34 2.9842 0.563849 0
M  V30 17702 H 1760.92 1.47881 0.212535 0
M  V30 17703 H 1762.81 2.94274 3.01631 0
M  V30 17704 H 1761.48 1.79031 2.69684 0
M  V30 17705 H 1760.39 3.54785 1.18653 0
M  V30 17706 H 1761.72 4.66159 1.57977 0
M  V30 17707 N 1763.37 -0.266145 1.55336 0
M  V30 17708 C 1764.34 -1.31242 1.87904 0
M  V30 17709 C 1765.34 -1.42022 0.754083 0
M  V30 17710 O 1766.53 -1.41054 1.02222 0
M  V30 17711 C 1763.66 -2.69285 2.09041 0
M  V30 17712 H 1764.85 -1.03592 2.81441 0
M  V30 17713 H 1762.4 -0.504537 1.47933 0
M  V30 17714 H 1763.14 -3.02106 1.17909 0
M  V30 17715 H 1762.92 -2.62846 2.90954 0
M  V30 17716 H 1764.41 -3.4487 2.35488 0
M  V30 17717 N 1764.85 -1.48386 -0.530967 0
M  V30 17718 C 1766.13 -1.46843 -1.29215 0
M  V30 17719 C 1766.51 -0.179567 -2.10335 0
M  V30 17720 O 1765.86 0.838706 -2.12551 0
M  V30 17721 C 1766.07 -2.72983 -2.17443 0
M  V30 17722 C 1767.41 -3.21271 -2.77615 0
M  V30 17723 O 1768.44 -2.73893 -2.2773 0
M  V30 17724 O 1767.3 -4.03709 -3.68349 0
M  V30 17725 H 1764.39 -0.586393 -0.583157 0
M  V30 17726 H 1766.94 -1.60619 -0.547702 0
M  V30 17727 H 1765.71 -3.58301 -1.57278 0
M  V30 17728 H 1765.33 -2.61922 -2.99137 0
M  V30 17729 N 1766.33 0.779763 -1.36958 0
M  V30 17730 C 1767.61 1.52679 -1.22264 0
M  V30 17731 C 1767.99 2.10269 0.187164 0
M  V30 17732 O 1767.33 1.94828 1.19391 0
M  V30 17733 C 1767.54 2.61406 -2.31231 0
M  V30 17734 C 1768.89 3.29027 -2.68377 0
M  V30 17735 O 1769.92 2.71696 -2.30347 0
M  V30 17736 O 1768.78 4.3266 -3.33868 0
M  V30 17737 H 1765.87 0.675843 -0.476619 0
M  V30 17738 H 1768.42 0.817416 -1.48716 0
M  V30 17739 H 1767.19 2.16915 -3.25674 0
M  V30 17740 H 1766.81 3.39953 -2.06199 0
M  V30 17741 N 1767.81 1.21396 1.00503 0
M  V30 17742 C 1769.06 1.02536 1.73693 0
M  V30 17743 C 1769.37 -0.441584 1.9055 0
M  V30 17744 O 1770.58 -0.749579 2.60947 0
M  V30 17745 C 1769.03 1.78602 3.12457 0
M  V30 17746 C 1768.64 3.29466 3.03573 0
M  V30 17747 C 1770.38 1.68149 3.89777 0
M  V30 17748 C 1768.29 3.98021 4.37416 0
M  V30 17749 H 1767.22 0.380052 0.651212 0
M  V30 17750 H 1769.87 1.4513 1.12292 0
M  V30 17751 H 1768.25 1.288 3.74468 0
M  V30 17752 H 1769.43 3.8657 2.50799 0
M  V30 17753 H 1767.74 3.4046 2.39741 0
M  V30 17754 H 1770.34 2.167 4.8882 0
M  V30 17755 H 1770.68 0.639716 4.11355 0
M  V30 17756 H 1771.22 2.15428 3.34418 0
M  V30 17757 H 1767.95 5.02401 4.21039 0
M  V30 17758 H 1767.47 3.45706 4.9015 0
M  V30 17759 H 1769.15 4.02932 5.06216 0
M  V30 17760 N 1769.29 -1.19996 1.0217 0
M  V30 17761 C 1770.53 -1.89776 0.715047 0
M  V30 17762 C 1770.86 -1.78971 -0.753862 0
M  V30 17763 O 1770.14 -1.17729 -1.54823 0
M  V30 17764 C 1770.42 -3.4098 1.15779 0
M  V30 17765 C 1770.28 -3.60693 2.68739 0
M  V30 17766 C 1771.59 -4.33953 0.733008 0
M  V30 17767 H 1768.71 -0.689148 0.261236 0
M  V30 17768 H 1771.36 -1.41287 1.27035 0
M  V30 17769 H 1769.51 -3.82407 0.68534 0
M  V30 17770 H 1771.18 -3.28484 3.23876 0
M  V30 17771 H 1769.42 -3.0399 3.09472 0
M  V30 17772 H 1770.09 -4.66704 2.94773 0
M  V30 17773 H 1772.57 -4.002 1.13925 0
M  V30 17774 H 1771.44 -5.38355 1.07077 0
M  V30 17775 H 1771.7 -4.4059 -0.365047 0
M  V30 17776 N 1770.76 -0.798611 -1.35867 0
M  V30 17777 C 1772.18 -0.481385 -1.52167 0
M  V30 17778 C 1772.38 0.99878 -1.75005 0
M  V30 17779 O 1771.44 1.78404 -1.78685 0
M  V30 17780 C 1772.75 -1.31982 -2.70188 0
M  V30 17781 C 1774.3 -1.31445 -2.84062 0
M  V30 17782 C 1774.77 -2.13682 -4.05098 0
M  V30 17783 N 1776.26 -2.11176 -4.12261 0
M  V30 17784 C 1777 -2.71571 -5.05012 0
M  V30 17785 N 1776.49 -3.40861 -6.03147 0
M  V30 17786 N 1778.29 -2.61255 -4.97697 0
M  V30 17787 H 1770.44 -1.75731 -1.19299 0
M  V30 17788 H 1772.7 -0.747512 -0.583034 0
M  V30 17789 H 1772.41 -2.36989 -2.59864 0
M  V30 17790 H 1772.28 -0.967488 -3.64581 0
M  V30 17791 H 1774.67 -0.272258 -2.93841 0
M  V30 17792 H 1774.75 -1.7066 -1.90549 0
M  V30 17793 H 1774.39 -3.17937 -3.96079 0
M  V30 17794 H 1774.32 -1.71832 -4.97776 0
M  V30 17795 H 1776.81 -1.60754 -3.42004 0
M  V30 17796 H 1777.13 -3.84251 -6.705 0
M  V30 17797 H 1775.47 -3.44964 -6.03345 0
M  V30 17798 H 1778.66 -2.06717 -4.19983 0
M  V30 17799 H 1778.84 -3.08613 -5.69791 0
M  V30 17800 N 1772.24 1.47639 -0.551417 0
M  V30 17801 C 1773.49 2.02784 -0.0252425 0
M  V30 17802 C 1773.82 1.42549 1.31884 0
M  V30 17803 O 1773.1 0.578954 1.85684 0
M  V30 17804 C 1773.38 3.60024 0.0740051 0
M  V30 17805 C 1773.23 4.30702 -1.29676 0
M  V30 17806 C 1774.55 4.32946 0.790302 0
M  V30 17807 H 1771.67 0.736923 -0.0106473 0
M  V30 17808 H 1774.31 1.76131 -0.712589 0
M  V30 17809 H 1772.46 3.82863 0.65939 0
M  V30 17810 H 1774.13 4.1922 -1.9249 0
M  V30 17811 H 1772.38 3.91282 -1.87299 0
M  V30 17812 H 1773.05 5.39238 -1.18009 0
M  V30 17813 H 1775.52 4.15065 0.293326 0
M  V30 17814 H 1774.4 5.42608 0.828692 0
M  V30 17815 H 1774.66 4.01752 1.84521 0
M  V30 17816 N 1773.72 0.287581 1.54954 0
M  V30 17817 C 1774.68 -0.581465 2.21702 0
M  V30 17818 C 1775.68 -1.07172 1.19878 0
M  V30 17819 O 1776.87 -0.969899 1.44702 0
M  V30 17820 C 1774.01 -1.80358 2.89282 0
M  V30 17821 H 1775.2 0.00151035 2.999 0
M  V30 17822 H 1772.75 0.0382953 1.56253 0
M  V30 17823 H 1773.49 -2.42674 2.15128 0
M  V30 17824 H 1773.27 -1.45983 3.63911 0
M  V30 17825 H 1774.76 -2.42129 3.4024 0
M  V30 17826 N 1775.2 -1.57593 0.0150662 0
M  V30 17827 C 1776.15 -2.0936 -0.971443 0
M  V30 17828 C 1777.12 -0.992416 -1.33193 0
M  V30 17829 O 1778.3 -1.26577 -1.42769 0
M  V30 17830 C 1775.44 -2.61386 -2.25324 0
M  V30 17831 C 1774.55 -3.85462 -1.95046 0
M  V30 17832 C 1773.69 -4.25934 -3.17418 0
M  V30 17833 C 1772.73 -5.42805 -2.82894 0
M  V30 17834 N 1771.86 -5.78499 -3.97848 0
M  V30 17835 H 1776.7 -2.93373 -0.523068 0
M  V30 17836 H 1774.24 -1.45018 -0.246605 0
M  V30 17837 H 1776.2 -2.89635 -3.00279 0
M  V30 17838 H 1774.83 -1.80225 -2.67804 0
M  V30 17839 H 1773.88 -3.64029 -1.10394 0
M  V30 17840 H 1775.19 -4.70505 -1.6561 0
M  V30 17841 H 1774.35 -4.55544 -4.00705 0
M  V30 17842 H 1773.09 -3.3963 -3.50004 0
M  V30 17843 H 1772.09 -5.12903 -1.98016 0
M  V30 17844 H 1773.32 -6.30797 -2.51539 0
M  V30 17845 H 1771.26 -4.95152 -4.30303 0
M  V30 17846 H 1771.18 -6.5815 -3.71988 0
M  V30 17847 H 1772.45 -6.12708 -4.8188 0
M  V30 17848 N 1776.68 0.257904 -1.55475 0
M  V30 17849 C 1777.9 1.00531 -1.80834 0
M  V30 17850 C 1778.32 1.79369 -0.589263 0
M  V30 17851 O 1777.68 1.77068 0.441935 0
M  V30 17852 C 1777.73 1.95194 -3.04272 0
M  V30 17853 O 1777.45 1.19548 -4.21473 0
M  V30 17854 C 1778.95 2.81624 -3.42349 0
M  V30 17855 H 1776.17 0.296315 -0.602029 0
M  V30 17856 H 1778.71 0.284118 -2.02517 0
M  V30 17857 H 1776.87 2.62756 -2.84672 0
M  V30 17858 H 1777.28 1.83483 -4.9136 0
M  V30 17859 H 1778.76 3.43815 -4.31851 0
M  V30 17860 H 1779.23 3.52172 -2.62434 0
M  V30 17861 H 1779.84 2.19531 -3.64261 0
M  V30 17862 N 1778.15 1.48666 0.52309 0
M  V30 17863 C 1779.12 1.63211 1.60919 0
M  V30 17864 C 1780.12 0.505012 1.52664 0
M  V30 17865 O 1781.31 0.770967 1.56211 0
M  V30 17866 C 1778.44 1.60878 3.00551 0
M  V30 17867 H 1779.63 2.60061 1.4936 0
M  V30 17868 H 1777.19 1.37366 0.745674 0
M  V30 17869 H 1777.92 0.655306 3.1761 0
M  V30 17870 H 1777.71 2.4271 3.07952 0
M  V30 17871 H 1779.2 1.74263 3.79502 0
M  V30 17872 N 1779.63 -0.772489 1.37369 0
M  V30 17873 C 1780.58 -1.90713 1.33158 0
M  V30 17874 C 1781.57 -1.67959 0.220482 0
M  V30 17875 O 1782.78 -1.75758 0.388465 0
M  V30 17876 H 1779.16 -0.627149 0.414956 0
M  V30 17877 H 1781.13 -1.91382 2.28944 0
M  V30 17878 C 1779.88 -3.27966 1.1547 0
M  V30 17879 H 1779.2 -3.46052 2.00221 0
M  V30 17880 H 1780.64 -4.0766 1.16574 0
M  V30 17881 C 1779.1 -3.3661 -0.139688 0
M  V30 17882 O 1779.63 -3.85668 -1.12353 0
M  V30 17883 N 1777.83 -2.89977 -0.190134 0
M  V30 17884 H 1777.38 -2.50246 0.611134 0
M  V30 17885 H 1777.34 -2.96142 -1.05582 0
M  V30 17886 N 1781.11 -1.21927 -0.998575 0
M  V30 17887 C 1782.39 -0.949034 -1.71034 0
M  V30 17888 C 1782.77 0.537429 -2.04144 0
M  V30 17889 O 1782.12 1.50398 -1.72026 0
M  V30 17890 C 1782.33 -1.84076 -2.96508 0
M  V30 17891 C 1783.67 -2.09345 -3.69405 0
M  V30 17892 O 1784.7 -1.81477 -3.06504 0
M  V30 17893 O 1783.56 -2.56513 -4.82559 0
M  V30 17894 H 1780.65 -0.356423 -0.746252 0
M  V30 17895 H 1783.2 -1.32886 -1.05543 0
M  V30 17896 H 1781.97 -2.84647 -2.68499 0
M  V30 17897 H 1781.59 -1.46215 -3.69739 0
M  V30 17898 N 1782.59 1.19452 -1.02805 0
M  V30 17899 C 1783.82 1.93075 -0.743624 0
M  V30 17900 C 1784.23 1.75446 0.697425 0
M  V30 17901 O 1783.59 1.07583 1.47418 0
M  V30 17902 C 1783.64 3.44855 -1.08431 0
M  V30 17903 O 1783.36 3.61916 -2.46877 0
M  V30 17904 C 1784.86 4.35601 -0.822571 0
M  V30 17905 H 1782.08 0.613327 -0.272159 0
M  V30 17906 H 1784.63 1.51617 -1.37232 0
M  V30 17907 H 1782.78 3.84149 -0.500812 0
M  V30 17908 H 1783.19 4.55785 -2.59538 0
M  V30 17909 H 1784.67 5.40706 -1.11092 0
M  V30 17910 H 1785.15 4.38527 0.243026 0
M  V30 17911 H 1785.75 4.01987 -1.38876 0
M  V30 17912 N 1784.07 0.805805 1.35442 0
M  V30 17913 C 1785.29 0.397179 2.03561 0
M  V30 17914 C 1785.72 -0.983665 1.6033 0
M  V30 17915 O 1785.07 -1.63683 0.779586 0
M  V30 17916 C 1785.12 0.487813 3.57285 0
M  V30 17917 O 1784.23 -0.499039 4.09369 0
M  V30 17918 H 1783.57 0.166009 0.642913 0
M  V30 17919 H 1786.1 1.09147 1.73055 0
M  V30 17920 H 1786.11 0.357334 4.06432 0
M  V30 17921 H 1784.78 1.49501 3.88101 0
M  V30 17922 H 1783.36 -0.328864 3.71447 0
M  V30 17923 N 1785.54 -1.47344 0.559239 0
M  V30 17924 C 1786.77 -2.0686 0.0408612 0
M  V30 17925 C 1787.19 -1.4116 -1.25376 0
M  V30 17926 O 1786.54 -0.508814 -1.75264 0
M  V30 17927 C 1786.6 -3.61162 -0.156298 0
M  V30 17928 O 1786.32 -4.24399 1.08706 0
M  V30 17929 C 1787.82 -4.37549 -0.711725 0
M  V30 17930 H 1785.04 -0.669368 0.0467647 0
M  V30 17931 H 1787.58 -1.89318 0.773229 0
M  V30 17932 H 1785.74 -3.7821 -0.838802 0
M  V30 17933 H 1786.15 -5.16961 0.886072 0
M  V30 17934 H 1787.62 -5.46187 -0.798961 0
M  V30 17935 H 1788.1 -4.03972 -1.72346 0
M  V30 17936 H 1788.71 -4.25251 -0.0648534 0
M  V30 17937 N 1787.02 -0.295795 -1.54799 0
M  V30 17938 C 1787.93 0.592206 -2.27002 0
M  V30 17939 C 1788.95 1.1528 -1.30332 0
M  V30 17940 O 1790.12 1.1787 -1.63305 0
M  V30 17941 C 1787.19 1.75027 -2.99277 0
M  V30 17942 C 1786.25 1.22427 -4.11473 0
M  V30 17943 C 1785.48 2.32714 -4.80291 0
M  V30 17944 O 1785.71 3.52506 -4.48437 0
M  V30 17945 O 1784.64 1.997 -5.67806 0
M  V30 17946 H 1788.47 0.00666048 -3.03699 0
M  V30 17947 H 1786.05 -0.0624413 -1.49269 0
M  V30 17948 H 1787.93 2.42508 -3.44627 0
M  V30 17949 H 1786.61 2.32252 -2.25479 0
M  V30 17950 H 1785.52 0.515337 -3.70534 0
M  V30 17951 H 1786.85 0.697518 -4.87233 0
M  V30 17952 N 1788.5 1.57583 -0.0234236 0
M  V30 17953 C 1789.46 2.08797 0.945325 0
M  V30 17954 C 1790.46 1.00189 1.25773 0
M  V30 17955 O 1791.65 1.2637 1.19901 0
M  V30 17956 C 1788.79 2.54906 2.26353 0
M  V30 17957 H 1789.98 2.95671 0.50187 0
M  V30 17958 H 1787.53 1.54679 0.224507 0
M  V30 17959 H 1788.27 1.71345 2.75339 0
M  V30 17960 H 1788.05 3.34247 2.04991 0
M  V30 17961 H 1789.54 2.94774 2.95801 0
M  V30 17962 N 1789.98 -0.249655 1.5561 0
M  V30 17963 C 1791.21 -0.994263 1.81102 0
M  V30 17964 C 1791.62 -1.79553 0.596445 0
M  V30 17965 O 1790.96 -1.78246 -0.4443 0
M  V30 17966 C 1791.02 -1.9824 2.99902 0
M  V30 17967 C 1790.69 -1.36833 4.36034 0
M  V30 17968 C 1791.68 -0.772202 5.14133 0
M  V30 17969 C 1789.37 -1.38852 4.82727 0
M  V30 17970 C 1791.36 -0.204446 6.37072 0
M  V30 17971 C 1789.05 -0.816913 6.05615 0
M  V30 17972 C 1790.05 -0.225898 6.82626 0
M  V30 17973 O 1789.74 0.336892 8.03194 0
M  V30 17974 H 1789.47 -0.298339 0.606605 0
M  V30 17975 H 1792.02 -0.278647 2.03501 0
M  V30 17976 H 1790.25 -2.73625 2.73252 0
M  V30 17977 H 1791.94 -2.59021 3.12511 0
M  V30 17978 H 1792.71 -0.749129 4.7918 0
M  V30 17979 H 1788.59 -1.83793 4.22778 0
M  V30 17980 H 1792.13 0.257492 6.97125 0
M  V30 17981 H 1788.03 -0.837303 6.40046 0
M  V30 17982 H 1788.79 0.228492 8.18181 0
M  V30 17983 N 1791.46 -1.48941 -0.515198 0
M  V30 17984 C 1792.41 -1.65027 -1.63917 0
M  V30 17985 C 1793.4 -0.516402 -1.61337 0
M  V30 17986 O 1794.61 -0.695598 -1.66016 0
M  V30 17987 H 1790.98 -0.520121 -0.543119 0
M  V30 17988 H 1792.95 -2.59397 -1.47498 0
M  V30 17989 C 1791.7 -1.72093 -3.02125 0
M  V30 17990 H 1791.02 -2.5871 -3.0481 0
M  V30 17991 H 1792.46 -1.87387 -3.80345 0
M  V30 17992 C 1790.92 -0.462688 -3.33708 0
M  V30 17993 O 1791.45 0.417925 -3.9952 0
M  V30 17994 N 1789.66 -0.329909 -2.88721 0
M  V30 17995 H 1789.21 -1.0475 -2.35341 0
M  V30 17996 H 1789.16 0.510912 -3.10221 0
M  V30 17997 N 1792.94 0.765193 -1.37777 0
M  V30 17998 C 1793.87 1.89247 -1.36777 0
M  V30 17999 C 1794.85 1.68463 -0.235389 0
M  V30 18000 O 1796.03 1.89225 -0.436733 0
M  V30 18001 C 1793.16 3.2662 -1.18053 0
M  V30 18002 C 1792.12 3.61981 -2.28372 0
M  V30 18003 C 1791.44 4.97967 -1.94765 0
M  V30 18004 C 1792.74 3.68053 -3.70587 0
M  V30 18005 H 1794.44 1.90341 -2.31108 0
M  V30 18006 H 1791.98 0.914355 -1.11245 0
M  V30 18007 H 1793.93 4.05125 -1.15982 0
M  V30 18008 H 1792.66 3.25976 -0.201803 0
M  V30 18009 H 1791.32 2.85788 -2.2961 0
M  V30 18010 H 1790.97 4.93869 -0.954052 0
M  V30 18011 H 1790.67 5.22594 -2.68642 0
M  V30 18012 H 1792.19 5.78864 -1.94292 0
M  V30 18013 H 1793.6 4.36696 -3.71443 0
M  V30 18014 H 1792 4.04183 -4.43572 0
M  V30 18015 H 1793.07 2.68556 -4.03739 0
M  V30 18016 N 1794.41 1.22455 0.992094 0
M  V30 18017 C 1795.34 1.01961 2.10063 0
M  V30 18018 C 1796.32 -0.0597186 1.69995 0
M  V30 18019 O 1797.51 0.102655 1.93928 0
M  V30 18020 C 1794.64 0.597442 3.42123 0
M  V30 18021 C 1793.59 1.62279 3.96042 0
M  V30 18022 C 1792.92 1.05644 5.2416 0
M  V30 18023 C 1794.22 3.01296 4.26635 0
M  V30 18024 H 1795.91 1.94678 2.27466 0
M  V30 18025 H 1793.46 0.937422 1.09309 0
M  V30 18026 H 1795.41 0.441175 4.19084 0
M  V30 18027 H 1794.14 -0.365401 3.24549 0
M  V30 18028 H 1792.8 1.76685 3.21213 0
M  V30 18029 H 1792.44 0.0849267 5.02928 0
M  V30 18030 H 1792.14 1.74144 5.61202 0
M  V30 18031 H 1793.67 0.911774 6.03754 0
M  V30 18032 H 1795.08 2.9026 4.94391 0
M  V30 18033 H 1793.48 3.66928 4.74852 0
M  V30 18034 H 1794.55 3.51168 3.34378 0
M  V30 18035 N 1795.89 -1.18905 1.03437 0
M  V30 18036 C 1796.82 -2.24539 0.640669 0
M  V30 18037 C 1797.8 -1.66396 -0.353024 0
M  V30 18038 O 1798.99 -1.92779 -0.234522 0
M  V30 18039 C 1796.12 -3.473 -0.00367731 0
M  V30 18040 C 1795.07 -4.18151 0.912881 0
M  V30 18041 C 1794.4 -5.34534 0.133347 0
M  V30 18042 C 1795.7 -4.72342 2.22913 0
M  V30 18043 H 1797.39 -2.57726 1.52374 0
M  V30 18044 H 1794.94 -1.23883 0.734098 0
M  V30 18045 H 1796.89 -4.20396 -0.290783 0
M  V30 18046 H 1795.61 -3.13328 -0.921578 0
M  V30 18047 H 1794.27 -3.46945 1.18427 0
M  V30 18048 H 1793.92 -4.96809 -0.786762 0
M  V30 18049 H 1793.62 -5.82872 0.743905 0
M  V30 18050 H 1795.15 -6.10423 -0.146889 0
M  V30 18051 H 1796.56 -5.37165 2.00317 0
M  V30 18052 H 1794.96 -5.31189 2.79209 0
M  V30 18053 H 1796.03 -3.90108 2.87999 0
M  V30 18054 N 1797.37 -0.812977 -1.35013 0
M  V30 18055 C 1798.79 -0.497497 -1.51648 0
M  V30 18056 C 1798.99 0.980162 -1.76054 0
M  V30 18057 O 1798.04 1.76498 -1.80567 0
M  V30 18058 C 1799.35 -1.3484 -2.68772 0
M  V30 18059 C 1800.9 -1.3445 -2.82652 0
M  V30 18060 C 1801.38 -2.17966 -4.02808 0
M  V30 18061 N 1802.87 -2.15537 -4.09998 0
M  V30 18062 C 1803.6 -2.76912 -5.02103 0
M  V30 18063 N 1803.1 -3.47239 -5.99497 0
M  V30 18064 N 1804.89 -2.66519 -4.94898 0
M  V30 18065 H 1797.04 -1.76987 -1.17429 0
M  V30 18066 H 1799.31 -0.753654 -0.575073 0
M  V30 18067 H 1799.01 -2.39732 -2.57336 0
M  V30 18068 H 1798.89 -1.0061 -3.63535 0
M  V30 18069 H 1801.27 -0.303409 -2.93536 0
M  V30 18070 H 1801.35 -1.72671 -1.88728 0
M  V30 18071 H 1801 -3.2212 -3.92685 0
M  V30 18072 H 1800.93 -1.77102 -4.95926 0
M  V30 18073 H 1803.42 -1.64373 -3.40279 0
M  V30 18074 H 1803.73 -3.91341 -6.66387 0
M  V30 18075 H 1802.08 -3.51344 -5.99652 0
M  V30 18076 H 1805.27 -2.1116 -4.17767 0
M  V30 18077 H 1805.44 -3.14639 -5.66486 0
M  V30 18078 N 1798.85 1.47045 -0.567045 0
M  V30 18079 C 1800.08 2.06835 -0.0518309 0
M  V30 18080 C 1800.49 1.41823 1.24626 0
M  V30 18081 O 1799.85 0.518102 1.74991 0
M  V30 18082 C 1799.9 3.6124 0.137142 0
M  V30 18083 O 1799.62 4.23817 -1.10955 0
M  V30 18084 C 1801.12 4.37921 0.688511 0
M  V30 18085 H 1798.34 0.669111 -0.0503138 0
M  V30 18086 H 1800.88 1.88906 -0.783258 0
M  V30 18087 H 1799.04 3.7865 0.818733 0
M  V30 18088 H 1799.45 5.16484 -0.913475 0
M  V30 18089 H 1800.93 5.46603 0.769984 0
M  V30 18090 H 1801.4 4.0488 1.70201 0
M  V30 18091 H 1802.01 4.25279 0.0423004 0
M  V30 18092 N 1800.33 0.304 1.5464 0
M  V30 18093 C 1801.26 -0.563854 2.2659 0
M  V30 18094 C 1802.24 -1.13547 1.26653 0
M  V30 18095 O 1803.42 -1.16425 1.55431 0
M  V30 18096 C 1800.55 -1.73437 3.00894 0
M  V30 18097 C 1799.51 -1.29297 4.08003 0
M  V30 18098 C 1798.83 -2.54888 4.70038 0
M  V30 18099 C 1800.13 -0.422027 5.20592 0
M  V30 18100 H 1801.83 0.0362569 2.99378 0
M  V30 18101 H 1799.37 0.0188781 1.43988 0
M  V30 18102 H 1801.32 -2.34762 3.4995 0
M  V30 18103 H 1800.05 -2.36076 2.25689 0
M  V30 18104 H 1798.71 -0.702757 3.59801 0
M  V30 18105 H 1798.36 -3.15848 3.9147 0
M  V30 18106 H 1798.06 -2.26054 5.42378 0
M  V30 18107 H 1799.58 -3.17011 5.21859 0
M  V30 18108 H 1800.99 -0.941036 5.65524 0
M  V30 18109 H 1799.39 -0.227323 5.99669 0
M  V30 18110 H 1800.46 0.55212 4.81746 0
M  V30 18111 N 1801.8 -1.57568 0.0317802 0
M  V30 18112 C 1802.77 -2.09296 -0.934239 0
M  V30 18113 C 1803.77 -1.00855 -1.25239 0
M  V30 18114 O 1804.96 -1.27004 -1.19229 0
M  V30 18115 C 1802.09 -2.56103 -2.24998 0
M  V30 18116 H 1803.28 -2.95933 -0.486183 0
M  V30 18117 H 1800.83 -1.54796 -0.2163 0
M  V30 18118 H 1801.57 -1.72803 -2.74426 0
M  V30 18119 H 1801.35 -3.35329 -2.03216 0
M  V30 18120 H 1802.84 -2.96339 -2.94233 0
M  V30 18121 N 1803.28 0.241399 -1.5574 0
M  V30 18122 C 1804.53 0.96675 -1.77478 0
M  V30 18123 C 1804.85 1.85644 -0.596757 0
M  V30 18124 O 1804.12 1.92035 0.387236 0
M  V30 18125 H 1802.7 0.35995 -0.654557 0
M  V30 18126 H 1805.36 0.258023 -1.93185 0
M  V30 18127 H 1804.46 1.58524 -2.68843 0
M  V30 18128 N 1804.76 1.49212 0.507292 0
M  V30 18129 C 1805.67 1.68141 1.63603 0
M  V30 18130 C 1806.69 0.563959 1.64607 0
M  V30 18131 O 1807.86 0.837885 1.83143 0
M  V30 18132 C 1804.93 1.73793 2.99995 0
M  V30 18133 C 1803.99 2.9733 3.09667 0
M  V30 18134 C 1803.22 3.02703 4.39553 0
M  V30 18135 O 1803.44 2.15844 5.27985 0
M  V30 18136 O 1802.38 3.95105 4.54066 0
M  V30 18137 H 1806.2 2.63749 1.50565 0
M  V30 18138 H 1803.79 1.32879 0.682893 0
M  V30 18139 H 1805.67 1.79901 3.81069 0
M  V30 18140 H 1804.35 0.813622 3.13308 0
M  V30 18141 H 1803.25 2.96743 2.27804 0
M  V30 18142 H 1804.59 3.8922 3.01278 0
M  V30 18143 N 1806.24 -0.757876 1.38181 0
M  V30 18144 C 1807.19 -1.8929 1.35174 0
M  V30 18145 C 1808.18 -1.67716 0.238284 0
M  V30 18146 O 1809.39 -1.75336 0.407085 0
M  V30 18147 H 1805.76 -0.622712 0.421585 0
M  V30 18148 H 1807.73 -1.88943 2.30961 0
M  V30 18149 C 1806.48 -3.26723 1.18942 0
M  V30 18150 H 1805.8 -3.43909 2.0388 0
M  V30 18151 H 1807.24 -4.06401 1.20891 0
M  V30 18152 C 1805.7 -3.3674 -0.103978 0
M  V30 18153 O 1806.23 -3.86838 -1.08256 0
M  V30 18154 N 1804.44 -2.90163 -0.159367 0
M  V30 18155 H 1803.99 -2.49583 0.637642 0
M  V30 18156 H 1803.94 -2.97245 -1.02435 0
M  V30 18157 N 1807.72 -1.22979 -0.985586 0
M  V30 18158 C 1808.65 -0.964185 -2.07933 0
M  V30 18159 C 1809.66 0.0599162 -1.6269 0
M  V30 18160 O 1810.85 -0.174984 -1.7764 0
M  V30 18161 C 1807.95 -0.429879 -3.36163 0
M  V30 18162 C 1807.12 -1.51293 -4.10401 0
M  V30 18163 C 1806.18 -0.984411 -5.1691 0
M  V30 18164 O 1805.21 -1.67225 -5.44081 0
M  V30 18165 N 1806.41 0.190439 -5.80188 0
M  V30 18166 H 1809.18 -1.90582 -2.31297 0
M  V30 18167 H 1806.74 -1.13767 -1.15189 0
M  V30 18168 H 1808.73 -0.0614639 -4.04653 0
M  V30 18169 H 1807.3 0.417049 -3.09806 0
M  V30 18170 H 1806.52 -2.05434 -3.36438 0
M  V30 18171 H 1807.81 -2.24141 -4.56769 0
M  V30 18172 H 1807.2 0.765928 -5.60491 0
M  V30 18173 H 1805.76 0.500168 -6.49878 0
M  V30 18174 N 1809.19 1.18355 -1.04066 0
M  V30 18175 C 1810.42 1.92275 -0.76406 0
M  V30 18176 C 1810.84 1.76176 0.678777 0
M  V30 18177 O 1810.19 1.0914 1.46269 0
M  V30 18178 C 1810.25 3.43686 -1.12083 0
M  V30 18179 O 1809.97 3.59277 -2.50702 0
M  V30 18180 C 1811.47 4.34705 -0.868726 0
M  V30 18181 H 1808.69 0.610406 -0.278649 0
M  V30 18182 H 1811.23 1.50153 -1.38832 0
M  V30 18183 H 1809.39 3.83596 -0.541528 0
M  V30 18184 H 1809.8 4.53007 -2.64357 0
M  V30 18185 H 1811.27 5.39497 -1.16821 0
M  V30 18186 H 1811.75 4.3876 0.196501 0
M  V30 18187 H 1812.36 4.00491 -1.43132 0
M  V30 18188 N 1810.67 0.820125 1.3458 0
M  V30 18189 C 1811.64 0.245462 2.27882 0
M  V30 18190 C 1812.64 -0.575025 1.50167 0
M  V30 18191 O 1813.83 -0.391536 1.69743 0
M  V30 18192 C 1810.96 -0.656199 3.34525 0
M  V30 18193 H 1812.15 1.06853 2.80218 0
M  V30 18194 H 1809.7 0.591777 1.44664 0
M  V30 18195 H 1810.44 -1.50244 2.87398 0
M  V30 18196 H 1810.22 -0.0693951 3.92039 0
M  V30 18197 H 1811.71 -1.05216 4.04128 0
M  V30 18198 N 1812.15 -1.46743 0.574835 0
M  V30 18199 C 1813.4 -2.02419 0.0574154 0
M  V30 18200 C 1813.73 -1.44723 -1.29944 0
M  V30 18201 O 1812.98 -0.599149 -1.86303 0
M  V30 18202 C 1813.28 -3.57338 -0.0666259 0
M  V30 18203 C 1812.95 -4.34036 1.22161 0
M  V30 18204 C 1811.61 -4.5471 1.57457 0
M  V30 18205 C 1813.96 -4.78137 2.07448 0
M  V30 18206 C 1811.29 -5.16735 2.77852 0
M  V30 18207 C 1813.64 -5.41492 3.27062 0
M  V30 18208 C 1812.3 -5.60394 3.6265 0
M  V30 18209 H 1811.57 -0.740702 0.0210098 0
M  V30 18210 H 1814.22 -1.76207 0.749892 0
M  V30 18211 H 1812.53 -3.82642 -0.842183 0
M  V30 18212 H 1814.22 -3.98085 -0.482605 0
M  V30 18213 H 1810.81 -4.18236 0.936826 0
M  V30 18214 H 1815 -4.61928 1.81484 0
M  V30 18215 H 1810.25 -5.29562 3.05572 0
M  V30 18216 H 1814.43 -5.74623 3.93422 0
M  V30 18217 H 1812.05 -6.08226 4.56032 0
M  V30 18218 N 1813.63 -0.312197 -1.54477 0
M  V30 18219 C 1814.54 0.568096 -2.27618 0
M  V30 18220 C 1815.55 1.13892 -1.31547 0
M  V30 18221 O 1816.73 1.16131 -1.64546 0
M  V30 18222 C 1813.8 1.71843 -3.01116 0
M  V30 18223 C 1812.86 1.18056 -4.12748 0
M  V30 18224 C 1812.09 2.27607 -4.82733 0
M  V30 18225 O 1812.31 3.4773 -4.52151 0
M  V30 18226 O 1811.25 1.93667 -5.69892 0
M  V30 18227 H 1815.07 -0.0255513 -3.03689 0
M  V30 18228 H 1812.66 -0.0782698 -1.49195 0
M  V30 18229 H 1814.54 2.38839 -3.4718 0
M  V30 18230 H 1813.21 2.29847 -2.2793 0
M  V30 18231 H 1812.12 0.476007 -3.71059 0
M  V30 18232 H 1813.45 0.645802 -4.87945 0
M  V30 18233 N 1815.11 1.57549 -0.040136 0
M  V30 18234 C 1816.36 1.91427 0.635496 0
M  V30 18235 C 1816.67 0.919277 1.72652 0
M  V30 18236 O 1817.87 1.14971 2.45955 0
M  V30 18237 C 1816.33 3.39949 1.18164 0
M  V30 18238 C 1815.94 4.4783 0.12332 0
M  V30 18239 C 1817.68 3.82878 1.83315 0
M  V30 18240 C 1815.59 5.87458 0.681727 0
M  V30 18241 H 1814.52 0.714401 0.241138 0
M  V30 18242 H 1817.17 1.83186 -0.107231 0
M  V30 18243 H 1815.55 3.43157 1.97633 0
M  V30 18244 H 1816.73 4.56197 -0.64972 0
M  V30 18245 H 1815.04 4.14173 -0.43008 0
M  V30 18246 H 1817.64 4.84558 2.2607 0
M  V30 18247 H 1817.98 3.1853 2.68038 0
M  V30 18248 H 1818.51 3.82139 1.10519 0
M  V30 18249 H 1815.25 6.55376 -0.127616 0
M  V30 18250 H 1814.77 5.82675 1.423 0
M  V30 18251 H 1816.45 6.36369 1.16806 0
M  V30 18252 N 1816.58 -0.233136 1.55866 0
M  V30 18253 C 1817.49 -1.31004 1.94615 0
M  V30 18254 C 1818.51 -1.51915 0.848399 0
M  V30 18255 O 1819.69 -1.6527 1.15098 0
M  V30 18256 C 1816.75 -2.64203 2.24494 0
M  V30 18257 C 1815.81 -2.51695 3.47776 0
M  V30 18258 C 1815.05 -3.78542 3.7622 0
M  V30 18259 O 1815.27 -4.81043 3.06519 0
M  V30 18260 O 1814.2 -3.76348 4.69729 0
M  V30 18261 H 1818.03 -1.01129 2.86368 0
M  V30 18262 H 1815.61 -0.435043 1.42926 0
M  V30 18263 H 1817.5 -3.42889 2.44959 0
M  V30 18264 H 1816.17 -2.93782 1.35918 0
M  V30 18265 H 1815.08 -1.71248 3.32603 0
M  V30 18266 H 1816.41 -2.27058 4.36698 0
M  V30 18267 N 1818.06 -1.49479 -0.499372 0
M  V30 18268 C 1818.97 -1.69006 -1.62709 0
M  V30 18269 C 1819.99 -0.572681 -1.64306 0
M  V30 18270 O 1821.17 -0.847586 -1.82696 0
M  V30 18271 C 1818.23 -1.75382 -2.99069 0
M  V30 18272 C 1817.29 -2.98968 -3.08086 0
M  V30 18273 C 1816.52 -3.0503 -4.37941 0
M  V30 18274 O 1816.75 -2.18641 -5.26832 0
M  V30 18275 O 1815.68 -3.97507 -4.51964 0
M  V30 18276 H 1819.51 -2.64544 -1.49164 0
M  V30 18277 H 1817.09 -1.3324 -0.675836 0
M  V30 18278 H 1818.97 -1.81919 -3.8011 0
M  V30 18279 H 1817.65 -0.830226 -3.12872 0
M  V30 18280 H 1816.56 -2.97947 -2.26227 0
M  V30 18281 H 1817.89 -3.90812 -2.9921 0
M  V30 18282 N 1819.54 0.750537 -1.38581 0
M  V30 18283 C 1820.47 1.87785 -1.38777 0
M  V30 18284 C 1821.45 1.68204 -0.253244 0
M  V30 18285 O 1822.64 1.88752 -0.456779 0
M  V30 18286 C 1819.77 3.2535 -1.21511 0
M  V30 18287 C 1818.72 3.59538 -2.32199 0
M  V30 18288 C 1818.05 4.95873 -2.00036 0
M  V30 18289 C 1819.35 3.64102 -3.74469 0
M  V30 18290 H 1821.04 1.87879 -2.33113 0
M  V30 18291 H 1818.59 0.902504 -1.12209 0
M  V30 18292 H 1820.54 4.03872 -1.20272 0
M  V30 18293 H 1819.26 3.25744 -0.236366 0
M  V30 18294 H 1817.92 2.83336 -2.32629 0
M  V30 18295 H 1817.57 4.9283 -1.00638 0
M  V30 18296 H 1817.27 5.19716 -2.7417 0
M  V30 18297 H 1818.8 5.7677 -2.00421 0
M  V30 18298 H 1820.21 4.32731 -3.76054 0
M  V30 18299 H 1818.61 3.99455 -4.47834 0
M  V30 18300 H 1819.68 2.64259 -4.06565 0
M  V30 18301 N 1821.02 1.235 0.979051 0
M  V30 18302 C 1821.97 1.01485 2.09293 0
M  V30 18303 C 1822.96 -0.0465937 1.69336 0
M  V30 18304 O 1824.17 0.107021 1.79682 0
M  V30 18305 H 1820.54 0.311087 0.684638 0
M  V30 18306 H 1822.51 1.95972 2.25028 0
M  V30 18307 C 1821.26 0.624167 3.42052 0
M  V30 18308 H 1820.59 1.43265 3.73249 0
M  V30 18309 H 1822.03 0.509648 4.20926 0
M  V30 18310 C 1820.48 -0.667694 3.30217 0
M  V30 18311 O 1821.01 -1.71648 3.6318 0
M  V30 18312 N 1819.22 -0.644122 2.83372 0
M  V30 18313 H 1818.77 0.20969 2.56745 0
M  V30 18314 H 1818.73 -1.50872 2.75835 0
M  V30 18315 N 1822.5 -1.17802 1.04693 0
M  V30 18316 C 1823.91 -1.39944 0.76733 0
M  V30 18317 C 1824.11 -1.91051 -0.640451 0
M  V30 18318 O 1823.17 -2.09889 -1.40366 0
M  V30 18319 C 1824.48 -2.39465 1.81871 0
M  V30 18320 C 1826.03 -2.5318 1.84035 0
M  V30 18321 C 1826.51 -3.55971 2.88182 0
M  V30 18322 N 1828 -3.63484 2.87113 0
M  V30 18323 C 1828.73 -4.42762 3.64348 0
M  V30 18324 N 1828.23 -5.25597 4.51353 0
M  V30 18325 N 1830.02 -4.37586 3.52809 0
M  V30 18326 H 1822.17 -0.829567 1.9553 0
M  V30 18327 H 1824.43 -0.427009 0.846385 0
M  V30 18328 H 1824.14 -2.08974 2.82883 0
M  V30 18329 H 1824.01 -3.38899 1.65612 0
M  V30 18330 H 1826.4 -2.82984 0.836908 0
M  V30 18331 H 1826.48 -1.53837 2.04371 0
M  V30 18332 H 1826.13 -3.26906 3.88709 0
M  V30 18333 H 1826.06 -4.55006 2.65099 0
M  V30 18334 H 1828.55 -3.04338 2.24024 0
M  V30 18335 H 1828.86 -5.83258 5.06981 0
M  V30 18336 H 1827.21 -5.24996 4.55417 0
M  V30 18337 H 1830.4 -3.71924 2.84236 0
M  V30 18338 H 1830.57 -4.99128 4.13249 0
M  V30 18339 N 1823.98 -0.827251 -1.34143 0
M  V30 18340 C 1824.92 -0.250166 -2.2944 0
M  V30 18341 C 1825.89 0.62749 -1.53791 0
M  V30 18342 O 1827.08 0.568218 -1.82143 0
M  V30 18343 C 1824.22 0.578392 -3.40219 0
M  V30 18344 C 1823.33 -0.321991 -4.30798 0
M  V30 18345 C 1822.47 0.51655 -5.28683 0
M  V30 18346 C 1821.5 -0.382949 -6.10901 0
M  V30 18347 N 1820.64 0.416774 -7.00862 0
M  V30 18348 H 1825.48 -1.06817 -2.78198 0
M  V30 18349 H 1823.02 -0.538245 -1.36899 0
M  V30 18350 H 1824.98 1.07414 -4.03135 0
M  V30 18351 H 1823.61 1.36147 -2.92684 0
M  V30 18352 H 1822.66 -0.935979 -3.68705 0
M  V30 18353 H 1823.97 -1.01346 -4.88396 0
M  V30 18354 H 1823.12 1.0766 -5.97071 0
M  V30 18355 H 1821.86 1.2415 -4.71633 0
M  V30 18356 H 1820.87 -0.955103 -5.41441 0
M  V30 18357 H 1822.09 -1.10609 -6.70032 0
M  V30 18358 H 1820.04 1.12532 -6.46276 0
M  V30 18359 H 1819.96 -0.216217 -7.55691 0
M  V30 18360 H 1821.22 0.959432 -7.73573 0
M  V30 18361 N 1825.45 1.46436 -0.582609 0
M  V30 18362 C 1826.68 2.06469 -0.0736587 0
M  V30 18363 C 1827.09 1.43193 1.23662 0
M  V30 18364 O 1826.43 0.531376 1.75847 0
M  V30 18365 C 1826.5 3.59114 0.166531 0
M  V30 18366 C 1826.16 4.44581 -1.05814 0
M  V30 18367 C 1827.16 4.81125 -1.97016 0
M  V30 18368 C 1824.84 4.85718 -1.27996 0
M  V30 18369 C 1826.84 5.57632 -3.08747 0
M  V30 18370 C 1824.52 5.61986 -2.40032 0
M  V30 18371 C 1825.52 5.97856 -3.30237 0
M  V30 18372 O 1825.21 6.72582 -4.40328 0
M  V30 18373 H 1824.94 0.673802 -0.0544673 0
M  V30 18374 H 1827.5 1.89053 -0.803005 0
M  V30 18375 H 1825.73 3.74837 0.950489 0
M  V30 18376 H 1827.41 4.01075 0.62398 0
M  V30 18377 H 1828.18 4.49922 -1.81094 0
M  V30 18378 H 1824.06 4.57249 -0.586917 0
M  V30 18379 H 1827.6 5.85549 -3.7918 0
M  V30 18380 H 1823.5 5.92602 -2.55917 0
M  V30 18381 H 1824.27 6.91006 -4.38694 0
M  V30 18382 N 1826.93 0.320385 1.54309 0
M  V30 18383 C 1827.84 -0.556017 2.27916 0
M  V30 18384 C 1828.86 -1.13192 1.32149 0
M  V30 18385 O 1830.03 -1.15257 1.6516 0
M  V30 18386 C 1827.1 -1.70244 3.02023 0
M  V30 18387 C 1826.16 -1.15866 4.13369 0
M  V30 18388 C 1825.39 -2.25044 4.83933 0
M  V30 18389 O 1825.62 -3.45327 4.53988 0
M  V30 18390 O 1824.55 -1.90642 5.70911 0
M  V30 18391 H 1828.38 0.0416563 3.03671 0
M  V30 18392 H 1825.96 0.0861809 1.49151 0
M  V30 18393 H 1827.84 -2.36995 3.48442 0
M  V30 18394 H 1826.52 -2.28635 2.29146 0
M  V30 18395 H 1825.42 -0.456323 3.71306 0
M  V30 18396 H 1826.76 -0.619916 4.88281 0
M  V30 18397 N 1828.41 -1.57525 0.0484906 0
M  V30 18398 C 1829.34 -2.08313 -0.955941 0
M  V30 18399 C 1830.35 -1.01042 -1.2765 0
M  V30 18400 O 1831.54 -1.28615 -1.23776 0
M  V30 18401 C 1828.64 -2.509 -2.27821 0
M  V30 18402 C 1827.82 -3.81476 -2.13997 0
M  V30 18403 C 1826.88 -4.10404 -3.29325 0
M  V30 18404 O 1825.9 -4.80366 -3.05348 0
M  V30 18405 N 1827.1 -3.62104 -4.53719 0
M  V30 18406 H 1829.87 -2.95111 -0.522472 0
M  V30 18407 H 1827.43 -1.61312 -0.137816 0
M  V30 18408 H 1829.42 -2.6733 -3.03837 0
M  V30 18409 H 1827.99 -1.69365 -2.62744 0
M  V30 18410 H 1827.21 -3.74654 -1.22589 0
M  V30 18411 H 1828.5 -4.6699 -2.01985 0
M  V30 18412 H 1827.9 -3.05541 -4.7609 0
M  V30 18413 H 1826.45 -3.83778 -5.26838 0
M  V30 18414 N 1829.89 0.224867 -1.55988 0
M  V30 18415 C 1830.85 1.26214 -1.91318 0
M  V30 18416 C 1831.85 1.39973 -0.791472 0
M  V30 18417 O 1833.04 1.38295 -1.05926 0
M  V30 18418 C 1830.17 2.63648 -2.16107 0
M  V30 18419 H 1831.37 0.960933 -2.84088 0
M  V30 18420 H 1828.92 0.465138 -1.49218 0
M  V30 18421 H 1829.65 2.98873 -1.25878 0
M  V30 18422 H 1829.44 2.5504 -2.97821 0
M  V30 18423 H 1830.93 3.38505 -2.44548 0
M  V30 18424 N 1831.37 1.49742 0.491438 0
M  V30 18425 C 1832.31 1.67115 1.59189 0
M  V30 18426 C 1833.28 0.512523 1.57995 0
M  V30 18427 O 1834.47 0.740693 1.75836 0
M  V30 18428 C 1831.61 1.75258 2.97286 0
M  V30 18429 C 1830.72 3.02488 3.08424 0
M  V30 18430 C 1829.86 3.0155 4.37311 0
M  V30 18431 C 1828.89 4.2332 4.42116 0
M  V30 18432 N 1828.03 4.20238 5.62445 0
M  V30 18433 H 1832.87 2.61073 1.43683 0
M  V30 18434 H 1830.41 1.29435 0.69892 0
M  V30 18435 H 1832.37 1.77959 3.77341 0
M  V30 18436 H 1831 0.847568 3.11474 0
M  V30 18437 H 1830.05 3.09353 2.21371 0
M  V30 18438 H 1831.36 3.92479 3.07834 0
M  V30 18439 H 1830.51 3.02868 5.25695 0
M  V30 18440 H 1829.25 2.09354 4.4048 0
M  V30 18441 H 1828.26 4.22236 3.52132 0
M  V30 18442 H 1829.48 5.1672 4.40656 0
M  V30 18443 H 1827.43 3.30884 5.66438 0
M  V30 18444 H 1827.35 5.03974 5.63512 0
M  V30 18445 H 1828.61 4.25672 6.53011 0
M  V30 18446 N 1832.84 -0.743177 1.38977 0
M  V30 18447 C 1833.79 -1.87846 1.37174 0
M  V30 18448 C 1834.79 -1.67454 0.256059 0
M  V30 18449 O 1835.99 -1.74895 0.425658 0
M  V30 18450 H 1832.37 -0.618206 0.428166 0
M  V30 18451 H 1834.34 -1.86483 2.32952 0
M  V30 18452 C 1833.09 -3.25443 1.22401 0
M  V30 18453 H 1832.41 -3.41727 2.07516 0
M  V30 18454 H 1833.85 -4.05095 1.25195 0
M  V30 18455 C 1832.31 -3.36831 -0.0682569 0
M  V30 18456 O 1832.84 -3.87964 -1.04147 0
M  V30 18457 N 1831.05 -2.90315 -0.128582 0
M  V30 18458 H 1830.59 -2.48893 0.664077 0
M  V30 18459 H 1830.55 -2.98315 -0.992762 0
M  V30 18460 N 1834.32 -1.24018 -0.972487 0
M  V30 18461 C 1835.57 -1.07105 -1.70913 0
M  V30 18462 C 1835.88 0.390908 -1.91654 0
M  V30 18463 O 1837.09 0.68013 -2.62843 0
M  V30 18464 C 1835.55 -1.86823 -3.07612 0
M  V30 18465 C 1835.15 -3.37399 -2.94731 0
M  V30 18466 C 1836.9 -1.78425 -3.85182 0
M  V30 18467 C 1834.81 -4.09479 -4.2671 0
M  V30 18468 H 1833.74 -0.397184 -0.640907 0
M  V30 18469 H 1836.39 -1.48056 -1.08405 0
M  V30 18470 H 1834.77 -1.38683 -3.70922 0
M  V30 18471 H 1835.94 -3.93084 -2.40462 0
M  V30 18472 H 1834.26 -3.46697 -2.3063 0
M  V30 18473 H 1836.85 -2.29584 -4.82903 0
M  V30 18474 H 1837.2 -0.748555 -4.09515 0
M  V30 18475 H 1837.73 -2.24219 -3.28589 0
M  V30 18476 H 1834.47 -5.13387 -4.07571 0
M  V30 18477 H 1833.99 -3.5858 -4.80812 0
M  V30 18478 H 1835.67 -4.16212 -4.95355 0
M  V30 18479 N 1835.8 1.17245 -1.05316 0
M  V30 18480 C 1837.03 1.91995 -0.784387 0
M  V30 18481 C 1837.45 1.76362 0.65408 0
M  V30 18482 O 1836.81 1.0822 1.45458 0
M  V30 18483 C 1836.86 3.41043 -1.1714 0
M  V30 18484 O 1835.96 4.11276 -0.304285 0
M  V30 18485 H 1835.3 0.598516 -0.287532 0
M  V30 18486 H 1837.83 1.48604 -1.40634 0
M  V30 18487 H 1837.84 3.91788 -1.13871 0
M  V30 18488 H 1836.52 3.51742 -2.21924 0
M  V30 18489 H 1835.09 3.70773 -0.39769 0
M  V30 18490 N 1837.28 0.834353 1.33702 0
M  V30 18491 C 1838.21 0.221764 2.28125 0
M  V30 18492 C 1839.22 -0.594917 1.51541 0
M  V30 18493 O 1840.41 -0.422726 1.73422 0
M  V30 18494 C 1837.51 -0.706778 3.31448 0
M  V30 18495 C 1836.69 0.0695756 4.37345 0
M  V30 18496 C 1835.74 -0.781623 5.20362 0
M  V30 18497 O 1834.77 -0.222459 5.68765 0
M  V30 18498 N 1835.97 -2.09968 5.41197 0
M  V30 18499 H 1838.74 1.03303 2.81333 0
M  V30 18500 H 1836.3 0.692389 1.46348 0
M  V30 18501 H 1838.29 -1.28109 3.83888 0
M  V30 18502 H 1836.86 -1.41877 2.78549 0
M  V30 18503 H 1836.08 0.825247 3.85465 0
M  V30 18504 H 1837.37 0.603576 5.05207 0
M  V30 18505 H 1836.77 -2.57756 5.03565 0
M  V30 18506 H 1835.32 -2.62258 5.96711 0
M  V30 18507 N 1838.76 -1.46125 0.590367 0
M  V30 18508 C 1840.03 -1.95597 0.0116648 0
M  V30 18509 C 1840.41 -1.53298 -1.45131 0
M  V30 18510 O 1839.76 -0.787298 -2.14508 0
M  V30 18511 C 1839.97 -3.48473 0.191727 0
M  V30 18512 C 1841.32 -4.24552 0.0635332 0
M  V30 18513 O 1842.34 -3.55995 0.120955 0
M  V30 18514 O 1841.2 -5.4646 -0.0657772 0
M  V30 18515 H 1838.3 -0.825748 -0.0454921 0
M  V30 18516 H 1840.84 -1.56372 0.659223 0
M  V30 18517 H 1839.61 -3.72172 1.20846 0
M  V30 18518 H 1839.24 -3.94545 -0.491905 0
M  V30 18519 N 1840.23 -0.328564 -1.54137 0
M  V30 18520 C 1841.16 0.527734 -2.27458 0
M  V30 18521 C 1842.15 1.11518 -1.28444 0
M  V30 18522 O 1843.33 1.13938 -1.57264 0
M  V30 18523 C 1840.46 1.68628 -3.03615 0
M  V30 18524 C 1839.41 1.22789 -4.10008 0
M  V30 18525 C 1838.74 2.47378 -4.74034 0
M  V30 18526 C 1840.04 0.339152 -5.21198 0
M  V30 18527 H 1841.73 -0.0838808 -2.99282 0
M  V30 18528 H 1839.28 -0.0417829 -1.43939 0
M  V30 18529 H 1841.23 2.29165 -3.5364 0
M  V30 18530 H 1839.96 2.32456 -2.29416 0
M  V30 18531 H 1838.62 0.645427 -3.60874 0
M  V30 18532 H 1838.26 3.09581 -3.96445 0
M  V30 18533 H 1837.96 2.17396 -5.45905 0
M  V30 18534 H 1839.49 3.08668 -5.26836 0
M  V30 18535 H 1840.9 0.850947 -5.6695 0
M  V30 18536 H 1839.3 0.131892 -5.99955 0
M  V30 18537 H 1840.37 -0.628692 -4.80807 0
M  V30 18538 N 1841.71 1.57497 -0.0568439 0
M  V30 18539 C 1842.62 2.1535 0.930668 0
M  V30 18540 C 1843.64 1.11276 1.33767 0
M  V30 18541 O 1844.81 1.43472 1.41343 0
M  V30 18542 C 1841.88 2.69165 2.18521 0
M  V30 18543 C 1840.94 3.88057 1.83603 0
M  V30 18544 C 1840.17 4.39296 3.03076 0
M  V30 18545 O 1840.4 3.89588 4.16627 0
M  V30 18546 O 1839.33 5.30814 2.8376 0
M  V30 18547 H 1843.16 3.00063 0.468623 0
M  V30 18548 H 1840.74 1.48482 0.16538 0
M  V30 18549 H 1842.62 3.03721 2.92116 0
M  V30 18550 H 1841.3 1.8752 2.63852 0
M  V30 18551 H 1840.21 3.5838 1.07306 0
M  V30 18552 H 1841.54 4.70949 1.43066 0
M  V30 18553 N 1843.19 -0.216591 1.56105 0
M  V30 18554 C 1844.14 -1.26844 1.92819 0
M  V30 18555 C 1845.11 -1.46326 0.785999 0
M  V30 18556 O 1846.29 -1.59813 1.04232 0
M  V30 18557 C 1843.43 -2.61276 2.25452 0
M  V30 18558 C 1842.55 -2.49552 3.5263 0
M  V30 18559 C 1841.68 -3.76541 3.74686 0
M  V30 18560 C 1840.72 -3.5956 4.95362 0
M  V30 18561 N 1839.86 -4.7851 5.13782 0
M  V30 18562 H 1844.7 -0.948341 2.82508 0
M  V30 18563 H 1842.23 -0.456953 1.39823 0
M  V30 18564 H 1844.19 -3.39567 2.42384 0
M  V30 18565 H 1842.82 -2.91373 1.38931 0
M  V30 18566 H 1841.87 -1.6267 3.43864 0
M  V30 18567 H 1843.19 -2.32927 4.41074 0
M  V30 18568 H 1842.34 -4.63275 3.91741 0
M  V30 18569 H 1841.08 -3.96097 2.84532 0
M  V30 18570 H 1840.08 -2.71211 4.78252 0
M  V30 18571 H 1841.31 -3.41471 5.87005 0
M  V30 18572 H 1839.25 -4.9837 4.26572 0
M  V30 18573 H 1839.17 -4.64631 5.96368 0
M  V30 18574 H 1840.44 -5.66656 5.35277 0
M  V30 18575 N 1844.67 -1.5 -0.48349 0
M  V30 18576 C 1845.6 -1.64096 -1.60016 0
M  V30 18577 C 1846.61 -0.522896 -1.54174 0
M  V30 18578 O 1847.8 -0.795621 -1.59788 0
M  V30 18579 C 1844.9 -1.5979 -2.98865 0
M  V30 18580 C 1844.08 -2.87422 -3.29708 0
M  V30 18581 C 1843.13 -2.75928 -4.48051 0
M  V30 18582 O 1842.16 -3.49878 -4.4897 0
M  V30 18583 N 1843.36 -1.88648 -5.48992 0
M  V30 18584 H 1846.13 -2.60411 -1.48345 0
M  V30 18585 H 1843.69 -1.47309 -0.671691 0
M  V30 18586 H 1845.68 -1.4973 -3.75983 0
M  V30 18587 H 1844.25 -0.712613 -3.04369 0
M  V30 18588 H 1843.47 -3.11702 -2.4132 0
M  V30 18589 H 1844.76 -3.72002 -3.4712 0
M  V30 18590 H 1844.16 -1.27857 -5.51062 0
M  V30 18591 H 1842.71 -1.845 -6.25142 0
M  V30 18592 N 1846.15 0.735796 -1.39369 0
M  V30 18593 C 1847.11 1.83148 -1.37802 0
M  V30 18594 C 1848.11 1.58426 -0.27528 0
M  V30 18595 O 1849.3 1.65841 -0.53314 0
M  V30 18596 C 1846.43 3.20923 -1.14984 0
M  V30 18597 H 1847.62 1.85941 -2.353 0
M  V30 18598 H 1845.18 0.939367 -1.24922 0
M  V30 18599 H 1845.91 3.23791 -0.181648 0
M  V30 18600 H 1845.7 3.40264 -1.94841 0
M  V30 18601 H 1847.19 4.00984 -1.16626 0
M  V30 18602 N 1847.63 1.24532 0.965897 0
M  V30 18603 C 1848.59 1.04026 2.04233 0
M  V30 18604 C 1849.59 -0.00305855 1.608 0
M  V30 18605 O 1850.78 0.238077 1.72565 0
M  V30 18606 C 1847.91 0.577072 3.3598 0
M  V30 18607 H 1849.1 1.99569 2.23858 0
M  V30 18608 H 1846.66 1.0678 1.14139 0
M  V30 18609 H 1847.39 -0.381471 3.22049 0
M  V30 18610 H 1847.18 1.33012 3.6885 0
M  V30 18611 H 1848.67 0.45469 4.15117 0
M  V30 18612 N 1849.1 -1.16685 1.05936 0
M  V30 18613 C 1850.52 -1.39122 0.78213 0
M  V30 18614 C 1850.72 -1.9172 -0.620152 0
M  V30 18615 O 1849.78 -2.11366 -1.38132 0
M  V30 18616 C 1851.09 -2.37522 1.84401 0
M  V30 18617 C 1852.64 -2.51214 1.8671 0
M  V30 18618 C 1853.11 -3.52894 2.91942 0
M  V30 18619 N 1854.6 -3.60418 2.90952 0
M  V30 18620 C 1855.34 -4.38873 3.69023 0
M  V30 18621 N 1854.83 -5.20781 4.56902 0
M  V30 18622 N 1856.63 -4.3382 3.57431 0
M  V30 18623 H 1848.78 -0.808781 1.96399 0
M  V30 18624 H 1851.04 -0.418008 0.850866 0
M  V30 18625 H 1850.75 -2.05962 2.85084 0
M  V30 18626 H 1850.62 -3.37123 1.69197 0
M  V30 18627 H 1853.01 -2.8208 0.866875 0
M  V30 18628 H 1853.09 -1.51661 2.05992 0
M  V30 18629 H 1852.73 -3.22765 3.92155 0
M  V30 18630 H 1852.66 -4.52168 2.6991 0
M  V30 18631 H 1855.15 -3.01945 2.27239 0
M  V30 18632 H 1855.47 -5.77848 5.13138 0
M  V30 18633 H 1853.81 -5.20136 4.60959 0
M  V30 18634 H 1857 -3.68888 2.88165 0
M  V30 18635 H 1857.18 -4.94717 4.1852 0
M  V30 18636 N 1850.58 -0.841432 -1.33258 0
M  V30 18637 C 1851.83 -0.439027 -1.97991 0
M  V30 18638 C 1852.16 0.999767 -1.66488 0
M  V30 18639 O 1851.44 1.69938 -0.94612 0
M  V30 18640 C 1851.72 -0.663137 -3.53941 0
M  V30 18641 C 1851.57 -2.14939 -3.95122 0
M  V30 18642 C 1852.89 -0.11094 -4.3996 0
M  V30 18643 H 1850.01 -0.160987 -0.719203 0
M  V30 18644 H 1852.65 -1.05742 -1.57856 0
M  V30 18645 H 1850.8 -0.136765 -3.88259 0
M  V30 18646 H 1852.47 -2.74082 -3.71048 0
M  V30 18647 H 1850.72 -2.63293 -3.4476 0
M  V30 18648 H 1851.39 -2.25694 -5.03752 0
M  V30 18649 H 1853.86 -0.560898 -4.12302 0
M  V30 18650 H 1852.74 -0.297416 -5.48094 0
M  V30 18651 H 1853 0.985446 -4.30977 0
M  V30 18652 N 1852.06 1.4581 -0.598108 0
M  V30 18653 C 1853.01 2.27522 0.147488 0
M  V30 18654 C 1853.99 1.36772 0.847487 0
M  V30 18655 O 1855.19 1.60833 0.739041 0
M  V30 18656 C 1852.31 3.23449 1.15047 0
M  V30 18657 C 1851.4 4.21687 0.451796 0
M  V30 18658 N 1851.79 5.0331 -0.501268 0
M  V30 18659 C 1850.09 4.40463 0.700576 0
M  V30 18660 C 1850.79 5.74521 -0.911055 0
M  V30 18661 N 1849.77 5.42993 -0.256847 0
M  V30 18662 H 1853.57 2.88026 -0.584658 0
M  V30 18663 H 1851.08 1.56847 -0.421055 0
M  V30 18664 H 1853.08 3.80712 1.69894 0
M  V30 18665 H 1851.74 2.64505 1.88327 0
M  V30 18666 H 1852.75 5.10411 -0.877558 0
M  V30 18667 H 1849.43 3.92654 1.41878 0
M  V30 18668 H 1850.82 6.50128 -1.69657 0
M  V30 18669 N 1853.54 0.336733 1.53961 0
M  V30 18670 C 1854.45 -0.531812 2.28493 0
M  V30 18671 C 1855.46 -1.11784 1.33343 0
M  V30 18672 O 1856.64 -1.13499 1.66373 0
M  V30 18673 C 1853.7 -1.67031 3.03812 0
M  V30 18674 C 1852.77 -1.11475 4.14574 0
M  V30 18675 C 1852 -2.19898 4.86292 0
M  V30 18676 O 1852.22 -3.40492 4.57625 0
M  V30 18677 O 1851.16 -1.84576 5.72901 0
M  V30 18678 H 1854.98 0.0738624 3.0361 0
M  V30 18679 H 1852.57 0.101996 1.49051 0
M  V30 18680 H 1854.45 -2.33286 3.50936 0
M  V30 18681 H 1853.12 -2.26192 2.31558 0
M  V30 18682 H 1852.03 -0.416915 3.7177 0
M  V30 18683 H 1853.36 -0.568092 4.88911 0
M  V30 18684 N 1855.02 -1.57465 0.0651956 0
M  V30 18685 C 1855.93 -2.15841 -0.919235 0
M  V30 18686 C 1856.94 -1.11984 -1.33175 0
M  V30 18687 O 1858.12 -1.44219 -1.4058 0
M  V30 18688 C 1855.18 -2.7032 -2.1709 0
M  V30 18689 C 1854.24 -3.89026 -1.81542 0
M  V30 18690 C 1853.48 -4.40897 -3.00742 0
M  V30 18691 O 1853.7 -3.91792 -4.14555 0
M  V30 18692 O 1852.63 -5.32312 -2.80941 0
M  V30 18693 H 1856.46 -3.00307 -0.452704 0
M  V30 18694 H 1854.04 -1.48567 -0.157504 0
M  V30 18695 H 1855.93 -3.05266 -2.90501 0
M  V30 18696 H 1854.6 -1.88917 -2.62854 0
M  V30 18697 H 1853.51 -3.58944 -1.05404 0
M  V30 18698 H 1854.84 -4.71701 -1.40567 0
M  V30 18699 N 1856.49 0.20831 -1.56217 0
M  V30 18700 C 1857.46 1.24178 -1.92646 0
M  V30 18701 C 1858.46 1.39125 -0.806274 0
M  V30 18702 O 1859.65 1.37163 -1.07386 0
M  V30 18703 C 1856.78 2.61342 -2.18891 0
M  V30 18704 H 1857.97 0.930748 -2.85091 0
M  V30 18705 H 1855.52 0.449285 -1.49703 0
M  V30 18706 H 1856.26 2.97521 -1.29041 0
M  V30 18707 H 1856.04 2.51866 -3.00509 0
M  V30 18708 H 1857.53 3.35892 -2.48125 0
M  V30 18709 N 1857.97 1.50255 0.475528 0
M  V30 18710 C 1858.92 1.68794 1.57408 0
M  V30 18711 C 1859.89 0.529252 1.57442 0
M  V30 18712 O 1861.07 0.759301 1.75041 0
M  V30 18713 C 1858.21 1.78401 2.9541 0
M  V30 18714 C 1857.33 3.05742 3.05198 0
M  V30 18715 C 1856.46 3.06172 4.34088 0
M  V30 18716 C 1855.5 4.27985 4.37602 0
M  V30 18717 N 1854.64 4.26179 5.57957 0
M  V30 18718 H 1859.48 2.62583 1.40905 0
M  V30 18719 H 1857.01 1.30169 0.685152 0
M  V30 18720 H 1858.97 1.81952 3.75432 0
M  V30 18721 H 1857.6 0.880556 3.10558 0
M  V30 18722 H 1856.65 3.11683 2.18077 0
M  V30 18723 H 1857.97 3.95722 3.03654 0
M  V30 18724 H 1857.12 3.08427 5.22454 0
M  V30 18725 H 1855.86 2.14014 4.38234 0
M  V30 18726 H 1854.86 4.25947 3.47634 0
M  V30 18727 H 1856.09 5.21364 4.35151 0
M  V30 18728 H 1854.04 3.36873 5.62897 0
M  V30 18729 H 1853.95 5.09923 5.58135 0
M  V30 18730 H 1855.22 4.32574 6.4846 0
M  V30 18731 N 1859.45 -0.728395 1.39758 0
M  V30 18732 C 1860.87 -1.03481 1.21506 0
M  V30 18733 C 1861.07 -2.01336 0.0812728 0
M  V30 18734 O 1860.12 -2.46099 -0.564956 0
M  V30 18735 C 1861.43 -1.59078 2.55176 0
M  V30 18736 C 1862.98 -1.71126 2.62078 0
M  V30 18737 C 1863.46 -2.30131 3.95985 0
M  V30 18738 N 1864.95 -2.37532 3.97659 0
M  V30 18739 C 1865.68 -2.8414 4.98048 0
M  V30 18740 N 1865.18 -3.30595 6.08834 0
M  V30 18741 N 1866.97 -2.83409 4.85423 0
M  V30 18742 H 1859.12 -0.0795283 2.12251 0
M  V30 18743 H 1861.39 -0.0978972 0.942932 0
M  V30 18744 H 1861.09 -0.946401 3.38727 0
M  V30 18745 H 1860.97 -2.5779 2.75362 0
M  V30 18746 H 1863.35 -2.34684 1.78906 0
M  V30 18747 H 1863.43 -0.710485 2.45735 0
M  V30 18748 H 1863.08 -1.67198 4.79591 0
M  V30 18749 H 1863.01 -3.30898 4.09651 0
M  V30 18750 H 1865.5 -2.04706 3.17654 0
M  V30 18751 H 1865.81 -3.64689 6.81338 0
M  V30 18752 H 1864.16 -3.28587 6.12418 0
M  V30 18753 H 1867.35 -2.46444 3.97974 0
M  V30 18754 H 1867.52 -3.19417 5.63806 0
M  V30 18755 N 1860.93 -1.25042 -0.959279 0
M  V30 18756 C 1861.89 -1.05107 -2.03679 0
M  V30 18757 C 1862.89 -0.0054691 -1.60799 0
M  V30 18758 O 1864.08 -0.247225 -1.72437 0
M  V30 18759 C 1861.21 -0.594881 -3.35669 0
M  V30 18760 H 1862.41 -2.00753 -2.22796 0
M  V30 18761 H 1859.96 -1.07384 -1.13571 0
M  V30 18762 H 1860.69 0.364387 -3.22246 0
M  V30 18763 H 1860.48 -1.34966 -3.68139 0
M  V30 18764 H 1861.97 -0.476698 -4.1487 0
M  V30 18765 N 1862.41 1.16121 -1.06553 0
M  V30 18766 C 1863.65 1.86346 -0.782279 0
M  V30 18767 C 1863.98 1.82255 0.693395 0
M  V30 18768 O 1863.25 1.2579 1.50179 0
M  V30 18769 H 1861.83 0.689921 -0.286388 0
M  V30 18770 H 1864.49 1.40805 -1.34758 0
M  V30 18771 H 1863.58 2.91712 -1.10954 0
M  V30 18772 N 1863.88 0.848487 1.3281 0
M  V30 18773 C 1865.16 0.370395 1.92061 0
M  V30 18774 C 1865.54 -1.14535 1.77327 0
M  V30 18775 O 1864.89 -1.96419 1.16756 0
M  V30 18776 C 1865.1 0.827934 3.39037 0
M  V30 18777 C 1866.45 0.841527 4.16177 0
M  V30 18778 O 1867.47 0.772167 3.4773 0
M  V30 18779 O 1866.33 0.938119 5.38388 0
M  V30 18780 H 1863.42 0.106809 0.820074 0
M  V30 18781 H 1865.97 0.934979 1.4162 0
M  V30 18782 H 1864.74 1.87089 3.43676 0
M  V30 18783 H 1864.37 0.240456 3.96872 0
M  V30 18784 N 1865.36 -1.4549 0.605832 0
M  V30 18785 C 1866.31 -2.30518 -0.114038 0
M  V30 18786 C 1867.28 -1.42 -0.861703 0
M  V30 18787 O 1868.46 -1.7093 -0.847788 0
M  V30 18788 C 1865.6 -3.26876 -1.10661 0
M  V30 18789 C 1864.72 -4.30497 -0.359999 0
M  V30 18790 C 1863.85 -5.13965 -1.34214 0
M  V30 18791 C 1862.89 -6.09315 -0.58324 0
M  V30 18792 N 1862.03 -6.85569 -1.51457 0
M  V30 18793 H 1866.87 -2.91542 0.617043 0
M  V30 18794 H 1864.41 -1.43664 0.31609 0
M  V30 18795 H 1866.36 -3.81207 -1.69519 0
M  V30 18796 H 1864.99 -2.6761 -1.80512 0
M  V30 18797 H 1864.05 -3.78841 0.344058 0
M  V30 18798 H 1865.36 -4.98259 0.232208 0
M  V30 18799 H 1864.51 -5.72688 -2.00283 0
M  V30 18800 H 1863.25 -4.46218 -1.96828 0
M  V30 18801 H 1862.26 -5.49725 0.0910986 0
M  V30 18802 H 1863.48 -6.79089 0.0378268 0
M  V30 18803 H 1861.43 -6.20512 -2.12839 0
M  V30 18804 H 1861.34 -7.49677 -0.97576 0
M  V30 18805 H 1862.61 -7.48834 -2.1649 0
M  V30 18806 N 1866.84 -0.344893 -1.5378 0
M  V30 18807 C 1867.8 0.498781 -2.23707 0
M  V30 18808 C 1868.8 1.02649 -1.23773 0
M  V30 18809 O 1869.99 0.915526 -1.48202 0
M  V30 18810 C 1867.13 1.69497 -2.95776 0
M  V30 18811 H 1868.32 -0.112815 -2.99688 0
M  V30 18812 H 1865.87 -0.0962613 -1.56003 0
M  V30 18813 H 1866.61 2.34522 -2.23986 0
M  V30 18814 H 1866.39 1.32376 -3.69079 0
M  V30 18815 H 1867.88 2.29334 -3.48992 0
M  V30 18816 N 1868.32 1.57428 -0.0735454 0
M  V30 18817 C 1869.56 1.93843 0.596054 0
M  V30 18818 C 1869.9 0.953931 1.69156 0
M  V30 18819 O 1869.17 -0.0165729 1.94493 0
M  V30 18820 C 1869.46 3.40516 1.17137 0
M  V30 18821 C 1869.31 4.49725 0.0823861 0
M  V30 18822 C 1870.63 3.88042 2.07634 0
M  V30 18823 H 1867.75 0.70488 0.215204 0
M  V30 18824 H 1870.39 1.89484 -0.139871 0
M  V30 18825 H 1868.54 3.44361 1.79855 0
M  V30 18826 H 1870.21 4.58 -0.55078 0
M  V30 18827 H 1868.45 4.29813 -0.586788 0
M  V30 18828 H 1869.12 5.49494 0.525354 0
M  V30 18829 H 1871.6 3.86214 1.54849 0
M  V30 18830 H 1870.48 4.91277 2.44822 0
M  V30 18831 H 1870.74 3.26084 2.98532 0
M  V30 18832 N 1869.8 -0.200022 1.56326 0
M  V30 18833 C 1870.71 -1.26847 1.9735 0
M  V30 18834 C 1871.72 -1.50081 0.880432 0
M  V30 18835 O 1872.9 -1.62792 1.18578 0
M  V30 18836 C 1869.96 -2.59382 2.30048 0
M  V30 18837 C 1869.02 -2.44262 3.53036 0
M  V30 18838 C 1868.26 -3.70476 3.84165 0
M  V30 18839 O 1868.48 -4.74433 3.16654 0
M  V30 18840 O 1867.41 -3.663 4.77606 0
M  V30 18841 H 1871.24 -0.950324 2.88449 0
M  V30 18842 H 1868.83 -0.404628 1.43816 0
M  V30 18843 H 1870.71 -3.37616 2.52177 0
M  V30 18844 H 1869.38 -2.90833 1.42119 0
M  V30 18845 H 1868.29 -1.64154 3.36161 0
M  V30 18846 H 1869.62 -2.17744 4.41416 0
M  V30 18847 N 1871.27 -1.50505 -0.467553 0
M  V30 18848 C 1872.52 -1.60911 -1.21617 0
M  V30 18849 C 1872.84 -0.31663 -1.9302 0
M  V30 18850 O 1874.04 -0.299645 -2.69841 0
M  V30 18851 C 1872.5 -2.84052 -2.21003 0
M  V30 18852 C 1872.11 -4.20189 -1.55386 0
M  V30 18853 C 1873.85 -3.03805 -2.96484 0
M  V30 18854 C 1871.76 -5.34514 -2.5308 0
M  V30 18855 H 1870.69 -0.59924 -0.457633 0
M  V30 18856 H 1873.34 -1.7694 -0.486276 0
M  V30 18857 H 1871.72 -2.6159 -2.97299 0
M  V30 18858 H 1872.89 -4.5292 -0.848552 0
M  V30 18859 H 1871.21 -4.0607 -0.921725 0
M  V30 18860 H 1873.81 -3.86387 -3.69606 0
M  V30 18861 H 1874.15 -2.15672 -3.56078 0
M  V30 18862 H 1874.68 -3.26465 -2.27301 0
M  V30 18863 H 1871.42 -6.24811 -1.9822 0
M  V30 18864 H 1870.94 -5.06197 -3.21752 0
M  V30 18865 H 1872.62 -5.65232 -3.14836 0
M  V30 18866 N 1872.75 0.720973 -1.40142 0
M  V30 18867 C 1873.98 1.50793 -1.41226 0
M  V30 18868 C 1874.39 1.89198 -0.00879422 0
M  V30 18869 O 1873.73 1.55606 0.976337 0
M  V30 18870 C 1873.8 2.81639 -2.23427 0
M  V30 18871 C 1873.46 2.65588 -3.71903 0
M  V30 18872 C 1874.46 2.33204 -4.64663 0
M  V30 18873 C 1872.14 2.82021 -4.15655 0
M  V30 18874 C 1874.14 2.17454 -5.9916 0
M  V30 18875 C 1871.82 2.65889 -5.50224 0
M  V30 18876 C 1872.82 2.33653 -6.41791 0
M  V30 18877 O 1872.51 2.17637 -7.73879 0
M  V30 18878 H 1872.24 0.472113 -0.483824 0
M  V30 18879 H 1874.79 0.89739 -1.84759 0
M  V30 18880 H 1873.02 3.45006 -1.74665 0
M  V30 18881 H 1874.71 3.43329 -2.16518 0
M  V30 18882 H 1875.48 2.20146 -4.32158 0
M  V30 18883 H 1871.36 3.06101 -3.44707 0
M  V30 18884 H 1874.9 1.92215 -6.70596 0
M  V30 18885 H 1870.8 2.78529 -5.82316 0
M  V30 18886 H 1871.57 2.32599 -7.84755 0
M  V30 18887 N 1874.23 1.25549 0.952634 0
M  V30 18888 C 1875.19 1.06186 2.03119 0
M  V30 18889 C 1876.19 0.0139966 1.60794 0
M  V30 18890 O 1877.38 0.256367 1.72303 0
M  V30 18891 C 1874.52 0.612674 3.35349 0
M  V30 18892 H 1875.71 2.01932 2.21729 0
M  V30 18893 H 1873.26 1.07984 1.13 0
M  V30 18894 H 1874 -0.347292 3.22435 0
M  V30 18895 H 1873.78 1.36917 3.67418 0
M  V30 18896 H 1875.27 0.498693 4.14612 0
M  V30 18897 N 1875.71 -1.15554 1.07168 0
M  V30 18898 C 1876.93 -1.90723 0.814832 0
M  V30 18899 C 1877.36 -1.7738 -0.62594 0
M  V30 18900 O 1876.72 -1.10521 -1.43718 0
M  V30 18901 C 1876.76 -3.39137 1.22551 0
M  V30 18902 O 1875.87 -4.1074 0.369677 0
M  V30 18903 H 1875.21 -0.593866 0.297017 0
M  V30 18904 H 1877.74 -1.46348 1.42981 0
M  V30 18905 H 1877.75 -3.89926 1.20089 0
M  V30 18906 H 1876.42 -3.48167 2.27492 0
M  V30 18907 H 1875 -3.70094 0.456626 0
M  V30 18908 N 1877.19 -0.855519 -1.32358 0
M  V30 18909 C 1878.43 -0.460002 -1.97514 0
M  V30 18910 C 1878.77 0.982052 -1.67539 0
M  V30 18911 O 1878.04 1.68925 -0.964091 0
M  V30 18912 C 1878.32 -0.70064 -3.53218 0
M  V30 18913 C 1878.18 -2.19118 -3.9282 0
M  V30 18914 C 1879.5 -0.157597 -4.39818 0
M  V30 18915 H 1876.62 -0.168606 -0.717455 0
M  V30 18916 H 1879.26 -1.0741 -1.56726 0
M  V30 18917 H 1877.41 -0.177937 -3.88092 0
M  V30 18918 H 1879.08 -2.78002 -3.6812 0
M  V30 18919 H 1877.32 -2.66934 -3.41948 0
M  V30 18920 H 1877.99 -2.31024 -5.0133 0
M  V30 18921 H 1880.47 -0.604597 -4.11684 0
M  V30 18922 H 1879.35 -0.355532 -5.47747 0
M  V30 18923 H 1879.61 0.939679 -4.31998 0
M  V30 18924 N 1878.67 1.45167 -0.61354 0
M  V30 18925 C 1879.63 2.29016 0.0919454 0
M  V30 18926 C 1880.63 1.40091 0.789373 0
M  V30 18927 O 1881.82 1.6215 0.636631 0
M  V30 18928 C 1878.95 3.21257 1.14048 0
M  V30 18929 H 1880.14 2.92875 -0.645317 0
M  V30 18930 H 1877.7 1.51788 -0.372855 0
M  V30 18931 H 1878.43 2.6221 1.90831 0
M  V30 18932 H 1878.22 3.86766 0.644523 0
M  V30 18933 H 1879.71 3.84288 1.63439 0
M  V30 18934 N 1880.14 0.353044 1.53595 0
M  V30 18935 C 1881.08 -0.533833 2.22897 0
M  V30 18936 C 1882.09 -1.05633 1.23877 0
M  V30 18937 O 1883.28 -0.964851 1.50176 0
M  V30 18938 C 1880.38 -1.74842 2.90316 0
M  V30 18939 C 1879.55 -1.35959 4.15733 0
M  V30 18940 C 1878.61 -2.43488 4.66476 0
M  V30 18941 O 1877.64 -2.06399 5.3046 0
M  V30 18942 N 1878.84 -3.74887 4.43216 0
M  V30 18943 H 1881.6 0.0597255 2.9964 0
M  V30 18944 H 1879.16 0.177618 1.60923 0
M  V30 18945 H 1881.16 -2.46228 3.21176 0
M  V30 18946 H 1879.73 -2.24913 2.17101 0
M  V30 18947 H 1878.95 -0.476094 3.91314 0
M  V30 18948 H 1880.23 -1.07592 4.97294 0
M  V30 18949 H 1879.63 -4.07801 3.92064 0
M  V30 18950 H 1878.19 -4.42415 4.78657 0
M  V30 18951 N 1881.62 -1.57387 0.0818932 0
M  V30 18952 C 1882.55 -2.16318 -0.879124 0
M  V30 18953 C 1883.53 -1.09293 -1.30342 0
M  V30 18954 O 1884.72 -1.37373 -1.37267 0
M  V30 18955 C 1881.85 -2.73293 -2.14308 0
M  V30 18956 C 1880.8 -3.85575 -1.85785 0
M  V30 18957 C 1880.13 -4.29195 -3.18897 0
M  V30 18958 C 1881.43 -5.09365 -1.15517 0
M  V30 18959 H 1883.12 -2.96873 -0.388166 0
M  V30 18960 H 1880.67 -1.42803 -0.185265 0
M  V30 18961 H 1882.62 -3.13168 -2.81964 0
M  V30 18962 H 1881.34 -1.89974 -2.65664 0
M  V30 18963 H 1880 -3.46219 -1.20532 0
M  V30 18964 H 1879.65 -3.42784 -3.68114 0
M  V30 18965 H 1879.35 -5.04889 -3.006 0
M  V30 18966 H 1880.88 -4.71694 -3.87734 0
M  V30 18967 H 1882.29 -5.46493 -1.73259 0
M  V30 18968 H 1880.69 -5.90403 -1.07444 0
M  V30 18969 H 1881.76 -4.8471 -0.135822 0
M  V30 18970 N 1883.1 0.191729 -1.56429 0
M  V30 18971 C 1884.32 0.931804 -1.85289 0
M  V30 18972 C 1884.75 1.7592 -0.665864 0
M  V30 18973 O 1884.11 1.77158 0.385313 0
M  V30 18974 C 1884.16 1.801 -3.12404 0
M  V30 18975 O 1883.26 2.9002 -2.93193 0
M  V30 18976 H 1882.6 0.262213 -0.610033 0
M  V30 18977 H 1885.13 0.196028 -2.03659 0
M  V30 18978 H 1885.14 2.20499 -3.43285 0
M  V30 18979 H 1883.82 1.19309 -3.9842 0
M  V30 18980 H 1882.39 2.53352 -2.73619 0
M  V30 18981 N 1884.58 1.50751 0.459565 0
M  V30 18982 C 1885.99 1.55043 1.04012 0
M  V30 18983 C 1886.34 0.360701 1.92856 0
M  V30 18984 O 1885.46 -0.525112 2.09932 0
M  V30 18985 C 1886.06 2.80975 1.89311 0
M  V30 18986 C 1884.62 2.87911 2.42455 0
M  V30 18987 C 1883.77 2.49464 1.2109 0
M  V30 18988 H 1886.72 1.56849 0.24171 0
M  V30 18989 H 1886.74 2.63482 2.74514 0
M  V30 18990 H 1886.25 3.67547 1.24623 0
M  V30 18991 H 1884.35 2.05717 3.10663 0
M  V30 18992 H 1884.46 3.91067 2.76773 0
M  V30 18993 H 1882.83 2.0216 1.54931 0
M  V30 18994 H 1883.61 3.38357 0.580469 0
M  V30 18995 N 1886.06 -0.713531 1.40522 0
M  V30 18996 C 1886.99 -1.8404 1.43707 0
M  V30 18997 C 1887.97 -1.67474 0.297751 0
M  V30 18998 O 1889.15 -1.87474 0.506662 0
M  V30 18999 C 1886.28 -3.22014 1.30094 0
M  V30 19000 C 1885.24 -3.53255 2.4165 0
M  V30 19001 C 1884.56 -4.90395 2.13113 0
M  V30 19002 C 1885.86 -3.54045 3.83991 0
M  V30 19003 H 1887.56 -1.81632 2.38013 0
M  V30 19004 H 1885.1 -0.872437 1.14562 0
M  V30 19005 H 1887.05 -4.00541 1.30938 0
M  V30 19006 H 1885.78 -3.25002 0.322648 0
M  V30 19007 H 1884.44 -2.77069 2.40059 0
M  V30 19008 H 1884.09 -4.89988 1.13669 0
M  V30 19009 H 1883.79 -5.12264 2.87853 0
M  V30 19010 H 1885.31 -5.71254 2.15642 0
M  V30 19011 H 1886.72 -4.22609 3.87395 0
M  V30 19012 H 1885.12 -3.87441 4.58268 0
M  V30 19013 H 1886.19 -2.53387 4.13428 0
M  V30 19014 N 1887.53 -1.26053 -0.945962 0
M  V30 19015 C 1888.81 -1.02072 -1.66855 0
M  V30 19016 C 1889.19 0.45036 -2.0624 0
M  V30 19017 O 1888.54 1.42966 -1.7825 0
M  V30 19018 C 1888.75 -1.96486 -2.88434 0
M  V30 19019 C 1890.1 -2.24825 -3.60193 0
M  V30 19020 O 1891.12 -1.94314 -2.98531 0
M  V30 19021 O 1889.98 -2.76749 -4.71245 0
M  V30 19022 H 1887.07 -0.387753 -0.730463 0
M  V30 19023 H 1889.62 -1.37243 -0.998117 0
M  V30 19024 H 1888.39 -2.95779 -2.56185 0
M  V30 19025 H 1888.01 -1.61765 -3.63205 0
M  V30 19026 N 1889.01 1.14984 -1.07779 0
M  V30 19027 C 1890.24 1.90288 -0.824935 0
M  V30 19028 C 1890.66 1.77709 0.616524 0
M  V30 19029 O 1890.02 1.11281 1.4313 0
M  V30 19030 C 1890.07 3.38482 -1.24348 0
M  V30 19031 O 1889.17 4.10538 -0.391454 0
M  V30 19032 H 1888.51 0.592283 -0.300162 0
M  V30 19033 H 1891.04 1.45588 -1.43755 0
M  V30 19034 H 1891.05 3.89284 -1.22155 0
M  V30 19035 H 1889.73 3.46956 -2.29335 0
M  V30 19036 H 1888.3 3.69846 -0.476247 0
M  V30 19037 N 1890.49 0.862526 1.31902 0
M  V30 19038 C 1891.4 0.316029 2.32462 0
M  V30 19039 C 1892.42 -0.570217 1.64391 0
M  V30 19040 O 1893.59 -0.46871 1.9587 0
M  V30 19041 C 1890.66 -0.479949 3.43362 0
M  V30 19042 C 1889.72 0.43337 4.27107 0
M  V30 19043 C 1888.95 -0.324714 5.32711 0
M  V30 19044 O 1889.17 -1.55373 5.48831 0
M  V30 19045 O 1888.11 0.313571 6.01083 0
M  V30 19046 H 1891.93 1.14935 2.81111 0
M  V30 19047 H 1889.52 0.625683 1.35667 0
M  V30 19048 H 1891.4 -0.931458 4.10977 0
M  V30 19049 H 1890.08 -1.28994 2.96888 0
M  V30 19050 H 1888.98 0.933222 3.62273 0
M  V30 19051 H 1890.32 1.20876 4.77127 0
M  V30 19052 N 1891.97 -1.4484 0.62123 0
M  V30 19053 C 1893.2 -2.065 0.128561 0
M  V30 19054 C 1893.61 -1.46351 -1.19277 0
M  V30 19055 O 1892.97 -0.582692 -1.72948 0
M  V30 19056 C 1893.02 -3.615 -0.00297622 0
M  V30 19057 O 1892.74 -4.19407 1.26609 0
M  V30 19058 C 1894.24 -4.40174 -0.525505 0
M  V30 19059 H 1891.46 -0.666783 0.0751128 0
M  V30 19060 H 1894.01 -1.85868 0.852829 0
M  V30 19061 H 1892.16 -3.81427 -0.677635 0
M  V30 19062 H 1892.57 -5.12738 1.10454 0
M  V30 19063 H 1894.05 -5.49085 -0.566585 0
M  V30 19064 H 1894.53 -4.10918 -1.55057 0
M  V30 19065 H 1895.13 -4.25143 0.115568 0
M  V30 19066 N 1893.45 -0.361184 -1.53405 0
M  V30 19067 C 1894.38 0.479368 -2.28526 0
M  V30 19068 C 1895.36 1.08768 -1.3078 0
M  V30 19069 O 1896.54 1.10576 -1.59645 0
M  V30 19070 C 1893.67 1.6215 -3.07123 0
M  V30 19071 C 1892.63 1.14065 -4.12521 0
M  V30 19072 C 1891.95 2.37267 -4.79175 0
M  V30 19073 C 1893.25 0.228522 -5.218 0
M  V30 19074 H 1894.95 -0.147344 -2.99037 0
M  V30 19075 H 1892.49 -0.0723051 -1.43818 0
M  V30 19076 H 1894.45 2.21612 -3.58422 0
M  V30 19077 H 1893.17 2.27538 -2.34295 0
M  V30 19078 H 1891.83 0.568735 -3.62162 0
M  V30 19079 H 1891.48 3.01102 -4.02923 0
M  V30 19080 H 1891.18 2.05768 -5.50394 0
M  V30 19081 H 1892.7 2.97424 -5.33265 0
M  V30 19082 H 1894.11 0.730497 -5.68627 0
M  V30 19083 H 1892.51 0.00460259 -6.001 0
M  V30 19084 H 1893.58 -0.730537 -4.79365 0
M  V30 19085 N 1894.92 1.57341 -0.0902386 0
M  V30 19086 C 1895.83 2.17276 0.88478 0
M  V30 19087 C 1896.85 1.14089 1.31376 0
M  V30 19088 O 1898.03 1.46438 1.38268 0
M  V30 19089 C 1895.09 2.73739 2.12762 0
M  V30 19090 C 1894.15 3.91865 1.7533 0
M  V30 19091 C 1893.39 4.45626 2.93689 0
M  V30 19092 O 1893.61 3.98337 4.08269 0
M  V30 19093 O 1892.54 5.36714 2.72437 0
M  V30 19094 H 1896.37 3.00989 0.40487 0
M  V30 19095 H 1893.95 1.48799 0.133848 0
M  V30 19096 H 1895.84 3.09849 2.85608 0
M  V30 19097 H 1894.51 1.93075 2.59815 0
M  V30 19098 H 1893.42 3.60576 0.996799 0
M  V30 19099 H 1894.75 4.73878 1.33045 0
M  V30 19100 N 1896.4 -0.183431 1.56529 0
M  V30 19101 C 1897.35 -1.24666 1.9637 0
M  V30 19102 C 1898.34 -1.46489 0.850728 0
M  V30 19103 O 1899.55 -1.47212 1.03579 0
M  V30 19104 H 1895.93 -0.418792 0.624594 0
M  V30 19105 H 1897.9 -0.883697 2.85015 0
M  V30 19106 C 1896.65 -2.58135 2.32942 0
M  V30 19107 H 1895.97 -2.42162 3.18116 0
M  V30 19108 H 1897.41 -3.31247 2.64672 0
M  V30 19109 C 1895.87 -3.15993 1.16832 0
M  V30 19110 O 1896.4 -3.99177 0.449531 0
M  V30 19111 N 1894.6 -2.74907 0.942059 0
M  V30 19112 H 1894.15 -2.07365 1.52832 0
M  V30 19113 H 1894.11 -3.13956 0.167 0
M  V30 19114 N 1897.88 -1.50992 -0.451564 0
M  V30 19115 C 1898.79 -1.74097 -1.5725 0
M  V30 19116 C 1899.81 -0.624663 -1.62401 0
M  V30 19117 O 1900.98 -0.90528 -1.79907 0
M  V30 19118 C 1898.05 -1.84808 -2.93338 0
M  V30 19119 C 1897.11 -3.08618 -2.98418 0
M  V30 19120 C 1896.34 -3.18808 -4.28015 0
M  V30 19121 O 1896.56 -2.35291 -5.1961 0
M  V30 19122 O 1895.5 -4.11685 -4.39089 0
M  V30 19123 H 1899.32 -2.69156 -1.40673 0
M  V30 19124 H 1896.91 -1.35322 -0.633105 0
M  V30 19125 H 1898.79 -1.9392 -3.7413 0
M  V30 19126 H 1897.47 -0.929344 -3.10072 0
M  V30 19127 H 1896.37 -3.04993 -2.16633 0
M  V30 19128 H 1897.71 -4.00133 -2.86625 0
M  V30 19129 N 1899.36 0.706069 -1.40899 0
M  V30 19130 C 1900.32 1.80184 -1.41656 0
M  V30 19131 C 1901.32 1.57807 -0.308823 0
M  V30 19132 O 1902.51 1.64673 -0.568197 0
M  V30 19133 C 1899.64 3.18412 -1.21765 0
M  V30 19134 H 1900.84 1.80908 -2.39191 0
M  V30 19135 H 1898.39 0.912658 -1.26887 0
M  V30 19136 H 1899.12 3.23333 -0.250288 0
M  V30 19137 H 1898.91 3.36054 -2.02015 0
M  V30 19138 H 1900.4 3.9842 -1.25106 0
M  V30 19139 N 1900.84 1.26553 0.939264 0
M  V30 19140 C 1901.78 1.08092 2.05958 0
M  V30 19141 C 1902.78 0.00730279 1.69398 0
M  V30 19142 O 1903.98 0.164131 1.7925 0
M  V30 19143 H 1900.36 0.33271 0.674394 0
M  V30 19144 H 1902.33 2.03032 2.18679 0
M  V30 19145 C 1901.08 0.732672 3.39893 0
M  V30 19146 H 1900.4 1.55067 3.68503 0
M  V30 19147 H 1901.84 0.643305 4.19091 0
M  V30 19148 C 1900.3 -0.5623 3.32174 0
M  V30 19149 O 1900.83 -1.60007 3.68457 0
M  V30 19150 N 1899.04 -0.553643 2.85277 0
M  V30 19151 H 1898.58 0.291265 2.55948 0
M  V30 19152 H 1898.54 -1.4202 2.80495 0
M  V30 19153 N 1902.31 -1.14411 1.08387 0
M  V30 19154 C 1903.26 -2.21558 0.708165 0
M  V30 19155 C 1904.26 -1.66969 -0.285982 0
M  V30 19156 O 1905.46 -1.79386 -0.14857 0
M  V30 19157 H 1901.84 -0.721799 0.210974 0
M  V30 19158 H 1903.81 -2.50518 1.62122 0
M  V30 19159 C 1902.56 -3.47444 0.13337 0
M  V30 19160 H 1901.88 -3.89779 0.889513 0
M  V30 19161 H 1903.32 -4.23901 -0.0917154 0
M  V30 19162 C 1901.78 -3.1743 -1.1287 0
M  V30 19163 O 1902.31 -3.35205 -2.2136 0
M  V30 19164 N 1900.52 -2.71391 -1.03901 0
M  V30 19165 H 1900.06 -2.57127 -0.156094 0
M  V30 19166 H 1900.02 -2.51684 -1.88422 0
M  V30 19167 N 1903.79 -0.869509 -1.31443 0
M  V30 19168 C 1905.04 -0.476357 -1.95994 0
M  V30 19169 C 1905.35 0.976268 -1.69494 0
M  V30 19170 O 1906.56 1.47555 -2.27903 0
M  V30 19171 C 1905.02 -0.800938 -3.50875 0
M  V30 19172 C 1904.62 -2.27029 -3.86215 0
M  V30 19173 C 1906.37 -0.476234 -4.2182 0
M  V30 19174 C 1904.28 -2.53731 -5.34205 0
M  V30 19175 H 1903.21 -0.174407 -0.733552 0
M  V30 19176 H 1905.86 -1.06235 -1.49621 0
M  V30 19177 H 1904.24 -0.144206 -3.95737 0
M  V30 19178 H 1905.41 -2.97005 -3.52313 0
M  V30 19179 H 1903.73 -2.56098 -3.28333 0
M  V30 19180 H 1906.32 -0.652965 -5.30698 0
M  V30 19181 H 1906.67 0.583294 -4.12193 0
M  V30 19182 H 1907.2 -1.08949 -3.8259 0
M  V30 19183 H 1903.94 -3.58365 -5.48867 0
M  V30 19184 H 1903.46 -1.88349 -5.6946 0
M  V30 19185 H 1905.14 -2.38437 -6.01462 0
M  V30 19186 N 1905.27 1.44508 -0.628902 0
M  V30 19187 C 1906.22 2.3067 0.0773497 0
M  V30 19188 C 1907.19 1.43353 0.839003 0
M  V30 19189 O 1908.37 1.72258 0.820487 0
M  V30 19190 C 1905.51 3.28596 1.05447 0
M  V30 19191 C 1904.63 4.31016 0.291465 0
M  V30 19192 C 1903.76 5.16035 1.2602 0
M  V30 19193 C 1902.8 6.10166 0.486229 0
M  V30 19194 N 1901.94 6.87892 1.40532 0
M  V30 19195 H 1906.78 2.90523 -0.663346 0
M  V30 19196 H 1904.31 1.43143 -0.338906 0
M  V30 19197 H 1906.27 3.83856 1.63433 0
M  V30 19198 H 1904.9 2.70448 1.76232 0
M  V30 19199 H 1903.95 3.78246 -0.404285 0
M  V30 19200 H 1905.27 4.97827 -0.311447 0
M  V30 19201 H 1904.42 5.75802 1.91147 0
M  V30 19202 H 1903.16 4.49293 1.89704 0
M  V30 19203 H 1902.16 5.4951 -0.178543 0
M  V30 19204 H 1903.39 6.78943 -0.145859 0
M  V30 19205 H 1901.33 6.2382 2.0294 0
M  V30 19206 H 1901.25 7.51134 0.856369 0
M  V30 19207 H 1902.52 7.52183 2.04549 0
M  V30 19208 N 1906.75 0.369315 1.53212 0
M  V30 19209 C 1907.68 -0.519053 2.22219 0
M  V30 19210 C 1908.66 -1.08004 1.21548 0
M  V30 19211 O 1909.84 -1.13546 1.50464 0
M  V30 19212 C 1906.97 -1.71652 2.91982 0
M  V30 19213 C 1906.02 -1.28264 4.06756 0
M  V30 19214 S 1906.85 -0.280814 5.34763 0
M  V30 19215 C 1908.01 -1.48452 6.0804 0
M  V30 19216 H 1908.24 0.0669947 2.97225 0
M  V30 19217 H 1905.77 0.15343 1.53636 0
M  V30 19218 H 1907.73 -2.40337 3.32789 0
M  V30 19219 H 1906.39 -2.27382 2.16693 0
M  V30 19220 H 1905.58 -2.17616 4.54598 0
M  V30 19221 H 1905.19 -0.674956 3.67859 0
M  V30 19222 H 1907.48 -2.41494 6.32998 0
M  V30 19223 H 1908.42 -1.04741 7.00311 0
M  V30 19224 H 1908.83 -1.69227 5.38537 0
M  V30 19225 N 1908.23 -1.57291 0.0985816 0
M  V30 19226 C 1909.14 -2.17742 -0.873245 0
M  V30 19227 C 1910.15 -1.14784 -1.3077 0
M  V30 19228 O 1911.33 -1.47169 -1.37489 0
M  V30 19229 C 1908.39 -2.74864 -2.11308 0
M  V30 19230 C 1907.46 -3.92789 -1.73249 0
M  V30 19231 C 1906.69 -4.47177 -2.91322 0
M  V30 19232 O 1906.91 -4.00497 -4.06151 0
M  V30 19233 O 1905.85 -5.38151 -2.69587 0
M  V30 19234 H 1909.67 -3.012 -0.388902 0
M  V30 19235 H 1907.26 -1.48868 -0.125955 0
M  V30 19236 H 1909.14 -3.11359 -2.8396 0
M  V30 19237 H 1907.81 -1.9445 -2.58787 0
M  V30 19238 H 1906.72 -3.61099 -0.977663 0
M  V30 19239 H 1908.05 -4.74577 -1.3053 0
M  V30 19240 N 1909.71 0.175127 -1.56624 0
M  V30 19241 C 1910.67 1.20064 -1.95237 0
M  V30 19242 C 1911.67 1.37384 -0.835603 0
M  V30 19243 O 1912.86 1.34855 -1.10272 0
M  V30 19244 C 1909.99 2.5664 -2.24386 0
M  V30 19245 H 1911.18 0.870066 -2.87001 0
M  V30 19246 H 1908.74 0.41743 -1.50623 0
M  V30 19247 H 1909.47 2.94717 -1.35322 0
M  V30 19248 H 1909.26 2.45436 -3.05784 0
M  V30 19249 H 1910.75 3.30554 -2.55194 0
M  V30 19250 N 1911.18 1.5123 0.44355 0
M  V30 19251 C 1912.09 1.74928 1.56324 0
M  V30 19252 C 1913.11 0.633267 1.62067 0
M  V30 19253 O 1914.29 0.914808 1.79425 0
M  V30 19254 C 1911.35 1.86361 2.92354 0
M  V30 19255 C 1910.41 3.10196 2.96778 0
M  V30 19256 C 1909.64 3.21073 4.26319 0
M  V30 19257 O 1909.87 2.38043 5.18355 0
M  V30 19258 O 1908.8 4.14008 4.369 0
M  V30 19259 H 1912.63 2.69898 1.39243 0
M  V30 19260 H 1910.21 1.35656 0.62592 0
M  V30 19261 H 1912.09 1.95901 3.73096 0
M  V30 19262 H 1910.77 0.945775 3.09575 0
M  V30 19263 H 1909.68 3.06138 2.15013 0
M  V30 19264 H 1911.01 4.01648 2.84499 0
M  V30 19265 N 1912.66 -0.698586 1.41271 0
M  V30 19266 C 1913.61 -1.83387 1.43081 0
M  V30 19267 C 1914.6 -1.66554 0.309204 0
M  V30 19268 O 1915.81 -1.73452 0.481084 0
M  V30 19269 H 1912.18 -0.604271 0.447617 0
M  V30 19270 H 1914.16 -1.78977 2.38767 0
M  V30 19271 C 1912.9 -3.21385 1.32692 0
M  V30 19272 H 1912.23 -3.34952 2.18283 0
M  V30 19273 H 1913.67 -4.00907 1.38019 0
M  V30 19274 C 1912.13 -3.36877 0.0389378 0
M  V30 19275 O 1912.66 -3.91081 -0.917515 0
M  V30 19276 N 1910.86 -2.90578 -0.0361557 0
M  V30 19277 H 1910.41 -2.46654 0.742925 0
M  V30 19278 H 1910.37 -3.01322 -0.897353 0
M  V30 19279 N 1914.14 -1.27049 -0.93254 0
M  V30 19280 C 1915.07 -1.11867 -2.04959 0
M  V30 19281 C 1916.05 -0.0214563 -1.70086 0
M  V30 19282 O 1917.24 -0.195063 -1.93218 0
M  V30 19283 C 1914.37 -0.759993 -3.38883 0
M  V30 19284 C 1913.32 -1.8099 -3.87849 0
M  V30 19285 C 1912.65 -1.30532 -5.18522 0
M  V30 19286 C 1913.95 -3.21309 -4.11774 0
M  V30 19287 H 1915.64 -2.05309 -2.17918 0
M  V30 19288 H 1913.19 -0.988507 -1.04712 0
M  V30 19289 H 1915.14 -0.640623 -4.16502 0
M  V30 19290 H 1913.86 0.210139 -3.25923 0
M  V30 19291 H 1912.52 -1.91809 -3.12418 0
M  V30 19292 H 1912.17 -0.324784 -5.0195 0
M  V30 19293 H 1911.87 -2.00722 -5.52254 0
M  V30 19294 H 1913.39 -1.19879 -5.98716 0
M  V30 19295 H 1914.81 -3.13517 -4.79979 0
M  V30 19296 H 1913.2 -3.89166 -4.56804 0
M  V30 19297 H 1914.27 -3.66722 -3.17243 0
M  V30 19298 N 1915.62 1.13835 -1.08993 0
M  V30 19299 C 1916.53 2.22715 -0.73724 0
M  V30 19300 C 1917.54 1.72064 0.258869 0
M  V30 19301 O 1918.72 2.01145 0.101321 0
M  V30 19302 C 1915.78 3.46338 -0.158285 0
M  V30 19303 C 1914.85 4.11902 -1.20977 0
M  V30 19304 C 1914.08 5.29624 -0.658349 0
M  V30 19305 O 1914.3 5.68023 0.520219 0
M  V30 19306 O 1913.24 5.85121 -1.41126 0
M  V30 19307 H 1917.06 2.55247 -1.64568 0
M  V30 19308 H 1914.65 1.21882 -0.864013 0
M  V30 19309 H 1916.53 4.2109 0.161481 0
M  V30 19310 H 1915.2 3.15517 0.723235 0
M  V30 19311 H 1914.11 3.38996 -1.58216 0
M  V30 19312 H 1915.44 4.46843 -2.06378 0
M  V30 19313 N 1917.1 0.876467 1.3098 0
M  V30 19314 C 1918.03 0.294228 2.27304 0
M  V30 19315 C 1919.04 -0.546404 1.53357 0
M  V30 19316 O 1920.23 -0.367339 1.74679 0
M  V30 19317 C 1917.33 -0.600972 3.33529 0
M  V30 19318 C 1916.5 0.208678 4.36902 0
M  V30 19319 C 1915.56 -0.615677 5.22586 0
M  V30 19320 O 1914.59 -0.0413981 5.69185 0
M  V30 19321 N 1915.79 -1.92644 5.47603 0
M  V30 19322 H 1918.55 1.12201 2.77905 0
M  V30 19323 H 1916.12 0.738597 1.44071 0
M  V30 19324 H 1918.11 -1.15831 3.8777 0
M  V30 19325 H 1916.68 -1.32943 2.82922 0
M  V30 19326 H 1915.9 0.947462 3.82644 0
M  V30 19327 H 1917.19 0.763998 5.03031 0
M  V30 19328 H 1916.58 -2.41605 5.11511 0
M  V30 19329 H 1915.14 -2.43141 6.04752 0
M  V30 19330 N 1918.57 -1.44173 0.636557 0
M  V30 19331 C 1919.5 -2.33442 -0.0518719 0
M  V30 19332 C 1920.48 -1.48519 -0.829226 0
M  V30 19333 O 1921.67 -1.77225 -0.794028 0
M  V30 19334 C 1918.8 -3.31663 -1.03038 0
M  V30 19335 C 1917.75 -4.26447 -0.364286 0
M  V30 19336 C 1917.08 -5.14577 -1.45308 0
M  V30 19337 C 1918.38 -5.17133 0.732884 0
M  V30 19338 H 1920.07 -2.91255 0.693589 0
M  V30 19339 H 1917.62 -1.40049 0.33499 0
M  V30 19340 H 1919.57 -3.93002 -1.52077 0
M  V30 19341 H 1918.3 -2.72071 -1.80679 0
M  V30 19342 H 1916.96 -3.66448 0.105505 0
M  V30 19343 H 1916.6 -4.51334 -2.22051 0
M  V30 19344 H 1916.3 -5.78807 -1.01274 0
M  V30 19345 H 1917.83 -5.78788 -1.94517 0
M  V30 19346 H 1919.24 -5.72376 0.325363 0
M  V30 19347 H 1917.64 -5.89994 1.09669 0
M  V30 19348 H 1918.71 -4.5782 1.59779 0
M  V30 19349 N 1920.05 -0.377435 -1.53014 0
M  V30 19350 C 1921.3 0.209712 -2.00607 0
M  V30 19351 C 1921.61 1.48891 -1.2685 0
M  V30 19352 O 1922.82 2.15538 -1.65093 0
M  V30 19353 C 1921.28 0.424271 -3.5739 0
M  V30 19354 C 1920.88 -0.840982 -4.40036 0
M  V30 19355 C 1922.63 0.968428 -4.13306 0
M  V30 19356 C 1920.53 -0.595355 -5.88396 0
M  V30 19357 H 1919.46 0.0821436 -0.749512 0
M  V30 19358 H 1922.12 -0.498005 -1.76613 0
M  V30 19359 H 1920.5 1.19354 -3.77585 0
M  V30 19360 H 1921.67 -1.61396 -4.31611 0
M  V30 19361 H 1919.99 -1.30922 -3.95283 0
M  V30 19362 H 1922.58 1.16771 -5.21794 0
M  V30 19363 H 1922.93 1.93405 -3.68647 0
M  V30 19364 H 1923.46 0.259025 -3.96956 0
M  V30 19365 H 1920.2 -1.53164 -6.37355 0
M  V30 19366 H 1919.72 0.138904 -5.99639 0
M  V30 19367 H 1921.4 -0.225366 -6.46607 0
M  V30 19368 N 1921.53 1.57237 -0.106922 0
M  V30 19369 C 1922.81 1.8627 0.596889 0
M  V30 19370 C 1923.19 1.00593 1.85591 0
M  V30 19371 O 1922.54 0.0815394 2.28354 0
M  V30 19372 C 1922.75 3.37171 0.900934 0
M  V30 19373 C 1924.09 4.05497 1.25926 0
M  V30 19374 O 1925.12 3.4212 0.99158 0
M  V30 19375 O 1923.98 5.17347 1.76109 0
M  V30 19376 H 1921.07 0.770704 0.299907 0
M  V30 19377 H 1923.62 1.69117 -0.140513 0
M  V30 19378 H 1922.39 3.91299 0.00823337 0
M  V30 19379 H 1922.01 3.59712 1.69391 0
M  V30 19380 N 1923.01 -0.166818 1.56715 0
M  V30 19381 C 1923.94 -1.23113 1.93328 0
M  V30 19382 C 1924.95 -1.40238 0.826866 0
M  V30 19383 O 1926.14 -1.40161 1.10531 0
M  V30 19384 C 1923.24 -2.59914 2.17481 0
M  V30 19385 C 1922.42 -2.64028 3.48723 0
M  V30 19386 C 1921.47 -3.82224 3.61651 0
M  V30 19387 O 1920.5 -3.68014 4.34229 0
M  V30 19388 N 1921.7 -4.98868 2.96835 0
M  V30 19389 H 1924.47 -0.920103 2.85227 0
M  V30 19390 H 1922.03 -0.356548 1.57925 0
M  V30 19391 H 1924.02 -3.37459 2.2339 0
M  V30 19392 H 1922.59 -2.83389 1.31945 0
M  V30 19393 H 1921.81 -1.72544 3.54432 0
M  V30 19394 H 1923.1 -2.63792 4.35076 0
M  V30 19395 H 1922.5 -5.13314 2.3775 0
M  V30 19396 H 1921.05 -5.74259 3.08333 0
M  V30 19397 N 1924.49 -1.51463 -0.435524 0
M  V30 19398 C 1925.43 -1.72908 -1.52877 0
M  V30 19399 C 1926.4 -0.570809 -1.55984 0
M  V30 19400 O 1927.59 -0.805443 -1.72966 0
M  V30 19401 C 1924.73 -1.8617 -2.90576 0
M  V30 19402 C 1923.84 -3.13726 -2.96985 0
M  V30 19403 C 1922.98 -3.17573 -4.25818 0
M  V30 19404 C 1922.02 -4.39437 -4.26101 0
M  V30 19405 N 1921.15 -4.40823 -5.46461 0
M  V30 19406 H 1925.99 -2.66226 -1.33894 0
M  V30 19407 H 1923.53 -1.3194 -0.650399 0
M  V30 19408 H 1925.49 -1.91841 -3.70476 0
M  V30 19409 H 1924.12 -0.962585 -3.08114 0
M  V30 19410 H 1923.17 -3.17356 -2.09737 0
M  V30 19411 H 1924.48 -4.03634 -2.93055 0
M  V30 19412 H 1923.64 -3.2217 -5.14093 0
M  V30 19413 H 1922.37 -2.25558 -4.32406 0
M  V30 19414 H 1921.38 -4.35014 -3.36219 0
M  V30 19415 H 1922.6 -5.32718 -4.21175 0
M  V30 19416 H 1920.55 -3.51679 -5.53767 0
M  V30 19417 H 1920.47 -5.24541 -5.44419 0
M  V30 19418 H 1921.74 -4.49615 -6.36763 0
M  V30 19419 N 1925.96 0.691085 -1.4164 0
M  V30 19420 C 1926.89 1.8173 -1.46616 0
M  V30 19421 C 1927.88 1.66979 -0.324357 0
M  V30 19422 O 1929.06 1.86644 -0.536424 0
M  V30 19423 C 1926.19 3.19903 -1.35201 0
M  V30 19424 C 1925.14 3.49366 -2.47239 0
M  V30 19425 C 1924.47 4.86942 -2.20887 0
M  V30 19426 C 1925.77 3.47891 -3.89575 0
M  V30 19427 H 1927.46 1.77823 -2.40872 0
M  V30 19428 H 1925.01 0.8541 -1.15936 0
M  V30 19429 H 1926.96 3.98407 -1.37293 0
M  V30 19430 H 1925.69 3.24448 -0.374312 0
M  V30 19431 H 1924.35 2.73215 -2.44436 0
M  V30 19432 H 1923.99 4.88118 -1.2145 0
M  V30 19433 H 1923.69 5.0762 -2.95966 0
M  V30 19434 H 1925.22 5.67751 -2.24703 0
M  V30 19435 H 1926.63 4.16392 -3.94069 0
M  V30 19436 H 1925.03 3.80101 -4.64374 0
M  V30 19437 H 1926.1 2.46778 -4.17407 0
M  V30 19438 N 1927.44 1.27542 0.925789 0
M  V30 19439 C 1928.39 1.10432 2.02666 0
M  V30 19440 C 1929.36 0.004846 1.66099 0
M  V30 19441 O 1930.54 0.167531 1.90063 0
M  V30 19442 C 1927.68 0.759567 3.36637 0
M  V30 19443 C 1926.8 1.93687 3.86147 0
M  V30 19444 C 1925.93 1.53382 5.08574 0
M  V30 19445 C 1924.97 2.67849 5.50385 0
M  V30 19446 N 1924.11 2.2812 6.64007 0
M  V30 19447 H 1928.95 2.04632 2.16633 0
M  V30 19448 H 1926.49 1.01863 1.06124 0
M  V30 19449 H 1928.44 0.540492 4.13684 0
M  V30 19450 H 1927.07 -0.145477 3.22472 0
M  V30 19451 H 1926.13 2.26843 3.05363 0
M  V30 19452 H 1927.44 2.79548 4.13104 0
M  V30 19453 H 1926.59 1.2761 5.93128 0
M  V30 19454 H 1925.33 0.646332 4.83398 0
M  V30 19455 H 1924.34 2.94333 4.64379 0
M  V30 19456 H 1925.56 3.57222 5.77554 0
M  V30 19457 H 1923.51 1.41825 6.40485 0
M  V30 19458 H 1923.42 3.07519 6.90629 0
M  V30 19459 H 1924.69 2.056 7.51897 0
M  V30 19460 N 1928.92 -1.13255 1.09595 0
M  V30 19461 C 1930.2 -1.8084 0.74541 0
M  V30 19462 C 1930.58 -1.96582 -0.769323 0
M  V30 19463 O 1929.93 -1.53529 -1.69237 0
M  V30 19464 C 1930.14 -3.15762 1.48645 0
M  V30 19465 C 1931.48 -3.91087 1.65337 0
M  V30 19466 O 1932.51 -3.25391 1.4491 0
M  V30 19467 O 1931.37 -5.08927 1.99137 0
M  V30 19468 H 1928.46 -0.782384 0.267963 0
M  V30 19469 H 1931.01 -1.20167 1.19825 0
M  V30 19470 H 1929.78 -2.99541 2.51775 0
M  V30 19471 H 1929.4 -3.84137 1.02589 0
M  V30 19472 N 1930.4 -0.883401 -1.30514 0
M  V30 19473 C 1931.63 -0.515199 -2.00073 0
M  V30 19474 C 1932.04 0.900374 -1.66403 0
M  V30 19475 O 1931.38 1.60339 -0.896503 0
M  V30 19476 C 1931.44 -0.608317 -3.54316 0
M  V30 19477 C 1931.11 -1.98792 -4.11498 0
M  V30 19478 C 1932.1 -2.95712 -4.2761 0
M  V30 19479 C 1929.79 -2.29288 -4.46914 0
M  V30 19480 C 1931.78 -4.21264 -4.78347 0
M  V30 19481 C 1929.47 -3.55086 -4.9735 0
M  V30 19482 C 1930.47 -4.50888 -5.13019 0
M  V30 19483 O 1930.15 -5.74455 -5.62367 0
M  V30 19484 H 1929.89 -0.197853 -0.646398 0
M  V30 19485 H 1932.44 -1.19015 -1.67405 0
M  V30 19486 H 1930.67 0.123606 -3.86502 0
M  V30 19487 H 1932.36 -0.251619 -4.05119 0
M  V30 19488 H 1933.13 -2.73463 -4.00553 0
M  V30 19489 H 1929 -1.55488 -4.33987 0
M  V30 19490 H 1932.55 -4.96048 -4.90492 0
M  V30 19491 H 1928.45 -3.77172 -5.23843 0
M  V30 19492 H 1929.21 -5.76814 -5.80713 0
M  V30 19493 N 1931.88 1.43833 -0.644194 0
M  V30 19494 C 1932.79 2.34538 0.0537504 0
M  V30 19495 C 1933.8 1.53369 0.821825 0
M  V30 19496 O 1934.98 1.86053 0.771123 0
M  V30 19497 C 1932.04 3.3153 1.01434 0
M  V30 19498 C 1931.1 4.28605 0.244198 0
M  V30 19499 C 1930.34 5.20963 1.15903 0
M  V30 19500 O 1930.56 5.1754 2.3981 0
M  V30 19501 O 1929.49 5.98527 0.636302 0
M  V30 19502 H 1933.32 2.95696 -0.692624 0
M  V30 19503 H 1930.91 1.43823 -0.404377 0
M  V30 19504 H 1932.79 3.91196 1.56663 0
M  V30 19505 H 1931.46 2.72887 1.7411 0
M  V30 19506 H 1930.37 3.72445 -0.351459 0
M  V30 19507 H 1931.7 4.90204 -0.442806 0
M  V30 19508 N 1933.35 0.385544 1.52811 0
M  V30 19509 C 1934.63 -0.255227 1.93928 0
M  V30 19510 C 1935.01 -1.64683 1.32071 0
M  V30 19511 O 1934.36 -2.23242 0.487363 0
M  V30 19512 C 1934.57 -0.285363 3.47831 0
M  V30 19513 C 1935.92 -0.516126 4.21451 0
M  V30 19514 O 1936.94 -0.365732 3.54317 0
M  V30 19515 O 1935.8 -0.810503 5.40456 0
M  V30 19516 H 1932.89 -0.157694 0.811826 0
M  V30 19517 H 1935.44 0.439779 1.63903 0
M  V30 19518 H 1934.21 0.68954 3.85177 0
M  V30 19519 H 1933.84 -1.02545 3.84149 0
M  V30 19520 N 1934.83 -1.57178 0.115259 0
M  V30 19521 C 1935.76 -2.18134 -0.833042 0
M  V30 19522 C 1936.74 -1.12033 -1.27995 0
M  V30 19523 O 1937.93 -1.40254 -1.34323 0
M  V30 19524 C 1935.06 -2.77778 -2.08463 0
M  V30 19525 C 1934.01 -3.89429 -1.77565 0
M  V30 19526 C 1933.34 -4.35863 -3.09722 0
M  V30 19527 C 1934.64 -5.11701 -1.04687 0
M  V30 19528 H 1936.33 -2.9763 -0.325107 0
M  V30 19529 H 1933.88 -1.43164 -0.154933 0
M  V30 19530 H 1935.83 -3.19079 -2.75258 0
M  V30 19531 H 1934.56 -1.95566 -2.61575 0
M  V30 19532 H 1933.21 -3.48698 -1.13161 0
M  V30 19533 H 1932.86 -3.50515 -3.6076 0
M  V30 19534 H 1932.56 -5.11152 -2.89823 0
M  V30 19535 H 1934.09 -4.79812 -3.77641 0
M  V30 19536 H 1935.5 -5.50045 -1.61628 0
M  V30 19537 H 1933.9 -5.92549 -0.948964 0
M  V30 19538 H 1934.97 -4.84889 -0.032977 0
M  V30 19539 N 1936.31 0.158505 -1.56801 0
M  V30 19540 C 1937.73 0.510743 -1.51207 0
M  V30 19541 C 1937.93 1.83983 -0.821733 0
M  V30 19542 O 1936.98 2.4951 -0.387444 0
M  V30 19543 C 1938.3 0.531668 -2.95962 0
M  V30 19544 C 1939.84 0.617983 -3.06839 0
M  V30 19545 C 1940.32 0.66968 -4.53078 0
M  V30 19546 N 1941.81 0.73222 -4.57376 0
M  V30 19547 C 1942.55 0.793011 -5.6789 0
M  V30 19548 N 1942.04 0.81385 -6.88003 0
M  V30 19549 N 1943.83 0.833013 -5.55893 0
M  V30 19550 H 1935.99 -0.712841 -2.00081 0
M  V30 19551 H 1938.25 -0.258572 -0.912055 0
M  V30 19552 H 1937.95 -0.376495 -3.49679 0
M  V30 19553 H 1937.83 1.37366 -3.51298 0
M  V30 19554 H 1940.22 1.51657 -2.53149 0
M  V30 19555 H 1940.3 -0.250933 -2.54566 0
M  V30 19556 H 1939.94 -0.2247 -5.07403 0
M  V30 19557 H 1939.87 1.55492 -5.0312 0
M  V30 19558 H 1942.36 0.72388 -3.70902 0
M  V30 19559 H 1942.67 0.861766 -7.6798 0
M  V30 19560 H 1941.02 0.781915 -6.90587 0
M  V30 19561 H 1944.21 0.813822 -4.60971 0
M  V30 19562 H 1944.38 0.876926 -6.42039 0
M  V30 19563 N 1937.79 1.51692 0.427485 0
M  V30 19564 C 1938.7 1.76576 1.5446 0
M  V30 19565 C 1939.72 0.650421 1.61386 0
M  V30 19566 O 1940.89 0.933787 1.78444 0
M  V30 19567 C 1937.96 1.89451 2.90361 0
M  V30 19568 C 1937.02 3.13326 2.93471 0
M  V30 19569 C 1936.25 3.25577 4.22889 0
M  V30 19570 O 1936.47 2.43528 5.15801 0
M  V30 19571 O 1935.41 4.18618 4.32484 0
M  V30 19572 H 1939.23 2.7136 1.36373 0
M  V30 19573 H 1936.82 1.36312 0.611496 0
M  V30 19574 H 1938.7 1.99848 3.70997 0
M  V30 19575 H 1937.38 0.978556 3.08555 0
M  V30 19576 H 1936.28 3.08401 2.11754 0
M  V30 19577 H 1937.62 4.04643 2.80223 0
M  V30 19578 N 1939.27 -0.683564 1.42004 0
M  V30 19579 C 1940.54 -1.43894 1.32491 0
M  V30 19580 C 1940.92 -2.11058 -0.0418701 0
M  V30 19581 O 1940.27 -2.0259 -1.05686 0
M  V30 19582 C 1940.48 -2.44856 2.48689 0
M  V30 19583 C 1941.83 -3.09758 2.90405 0
M  V30 19584 O 1942.85 -2.55182 2.48516 0
M  V30 19585 O 1941.71 -4.08633 3.6288 0
M  V30 19586 H 1938.81 -0.641404 0.522044 0
M  V30 19587 H 1941.35 -0.713027 1.53994 0
M  V30 19588 H 1940.13 -1.93964 3.39843 0
M  V30 19589 H 1939.75 -3.24941 2.29127 0
M  V30 19590 N 1940.75 -1.28031 -0.919012 0
M  V30 19591 C 1941.68 -1.05827 -2.02178 0
M  V30 19592 C 1942.66 0.0240301 -1.62582 0
M  V30 19593 O 1943.84 -0.122854 -1.88099 0
M  V30 19594 C 1940.97 -0.607109 -3.33214 0
M  V30 19595 C 1940.01 -1.68527 -3.91792 0
M  V30 19596 S 1940.85 -3.27994 -4.23297 0
M  V30 19597 C 1942 -2.847 -5.57402 0
M  V30 19598 H 1942.24 -1.99194 -2.20702 0
M  V30 19599 H 1939.77 -1.1196 -1.06322 0
M  V30 19600 H 1941.73 -0.353498 -4.08975 0
M  V30 19601 H 1940.39 0.306635 -3.126 0
M  V30 19602 H 1939.58 -1.3211 -4.86377 0
M  V30 19603 H 1939.18 -1.89141 -3.22648 0
M  V30 19604 H 1941.47 -2.30544 -6.37068 0
M  V30 19605 H 1942.42 -3.78063 -5.98727 0
M  V30 19606 H 1942.83 -2.23575 -5.18338 0
M  V30 19607 N 1942.22 1.12672 -1.10194 0
M  V30 19608 C 1943.64 1.36123 -0.833225 0
M  V30 19609 C 1943.84 1.93889 0.548569 0
M  V30 19610 O 1942.9 2.16347 1.30192 0
M  V30 19611 C 1944.21 2.30515 -1.93089 0
M  V30 19612 C 1945.76 2.44111 -1.95905 0
M  V30 19613 C 1946.23 3.41816 -3.04838 0
M  V30 19614 N 1947.72 3.49371 -3.04128 0
M  V30 19615 C 1948.46 4.24874 -3.85058 0
M  V30 19616 N 1947.95 5.03464 -4.75916 0
M  V30 19617 N 1949.75 4.20255 -3.73285 0
M  V30 19618 H 1941.9 0.735332 -1.99265 0
M  V30 19619 H 1944.16 0.386141 -0.865794 0
M  V30 19620 H 1943.87 1.95239 -2.92531 0
M  V30 19621 H 1943.74 3.30611 -1.81593 0
M  V30 19622 H 1946.13 2.78669 -0.97097 0
M  V30 19623 H 1946.21 1.43911 -2.11479 0
M  V30 19624 H 1945.85 3.07988 -4.03864 0
M  V30 19625 H 1945.78 4.41839 -2.86506 0
M  V30 19626 H 1948.27 2.93303 -2.38289 0
M  V30 19627 H 1948.59 5.58406 -5.34231 0
M  V30 19628 H 1946.93 5.02669 -4.79946 0
M  V30 19629 H 1950.12 3.57939 -3.01658 0
M  V30 19630 H 1950.3 4.78843 -4.36593 0
M  V30 19631 N 1943.7 0.89031 1.30043 0
M  V30 19632 C 1944.95 0.51044 1.95548 0
M  V30 19633 C 1945.27 -0.944562 1.70596 0
M  V30 19634 O 1944.54 -1.66482 1.0325 0
M  V30 19635 H 1943.12 0.185776 0.723531 0
M  V30 19636 H 1945.78 1.13455 1.58474 0
M  V30 19637 H 1944.88 0.685155 3.04487 0
M  V30 19638 N 1945.18 -1.43489 0.651812 0
M  V30 19639 C 1946.13 -2.30764 -0.0406423 0
M  V30 19640 C 1947.1 -1.44669 -0.816091 0
M  V30 19641 O 1948.28 -1.73541 -0.792978 0
M  V30 19642 C 1945.42 -3.30232 -1.00206 0
M  V30 19643 C 1944.53 -4.31425 -0.222857 0
M  V30 19644 C 1943.67 -5.17975 -1.17794 0
M  V30 19645 C 1942.71 -6.10862 -0.389096 0
M  V30 19646 N 1941.85 -6.90041 -1.2957 0
M  V30 19647 H 1946.69 -2.89431 0.709482 0
M  V30 19648 H 1944.22 -1.42585 0.361636 0
M  V30 19649 H 1946.18 -3.86408 -1.57306 0
M  V30 19650 H 1944.81 -2.73217 -1.71907 0
M  V30 19651 H 1943.86 -3.77554 0.464409 0
M  V30 19652 H 1945.17 -4.97268 0.390608 0
M  V30 19653 H 1944.33 -5.7877 -1.81962 0
M  V30 19654 H 1943.07 -4.52254 -1.82532 0
M  V30 19655 H 1942.07 -5.49156 0.265943 0
M  V30 19656 H 1943.3 -6.78625 0.253855 0
M  V30 19657 H 1941.24 -6.2697 -1.9299 0
M  V30 19658 H 1941.16 -7.52401 -0.736762 0
M  V30 19659 H 1942.43 -7.55342 -1.92557 0
M  V30 19660 N 1946.66 -0.393643 -1.52605 0
M  V30 19661 C 1947.57 0.446642 -2.30309 0
M  V30 19662 C 1948.58 1.06758 -1.374 0
M  V30 19663 O 1949.76 1.07246 -1.70471 0
M  V30 19664 C 1946.82 1.5564 -3.09802 0
M  V30 19665 C 1945.89 0.960113 -4.18426 0
M  V30 19666 C 1945.12 2.01698 -4.94119 0
M  V30 19667 O 1945.34 3.23273 -4.69947 0
M  V30 19668 O 1944.28 1.63186 -5.79357 0
M  V30 19669 H 1948.1 -0.186494 -3.03127 0
M  V30 19670 H 1945.69 -0.157245 -1.4857 0
M  V30 19671 H 1947.57 2.201 -3.59352 0
M  V30 19672 H 1946.24 2.17442 -2.39793 0
M  V30 19673 H 1945.15 0.278648 -3.73061 0
M  V30 19674 H 1946.48 0.386245 -4.90682 0
M  V30 19675 N 1948.14 1.57115 -0.123593 0
M  V30 19676 C 1949.07 2.18573 0.821462 0
M  V30 19677 C 1950.05 1.1271 1.27399 0
M  V30 19678 O 1951.23 1.40964 1.33577 0
M  V30 19679 C 1948.36 2.78879 2.06987 0
M  V30 19680 C 1947.32 3.90365 1.75497 0
M  V30 19681 C 1946.64 4.37499 3.07406 0
M  V30 19682 C 1947.94 5.12249 1.01972 0
M  V30 19683 H 1949.64 2.97798 0.309319 0
M  V30 19684 H 1947.18 1.43244 0.147338 0
M  V30 19685 H 1949.13 3.20534 2.73562 0
M  V30 19686 H 1947.86 1.96951 2.60534 0
M  V30 19687 H 1946.52 3.49293 1.1131 0
M  V30 19688 H 1946.17 3.52424 3.58896 0
M  V30 19689 H 1945.87 5.12682 2.87108 0
M  V30 19690 H 1947.39 4.81808 3.75091 0
M  V30 19691 H 1948.8 5.50894 1.58709 0
M  V30 19692 H 1947.2 5.93044 0.917526 0
M  V30 19693 H 1948.27 4.84899 0.00726173 0
M  V30 19694 N 1949.61 -0.150187 1.56883 0
M  V30 19695 C 1950.52 -1.20504 2.01286 0
M  V30 19696 C 1951.54 -1.47204 0.927733 0
M  V30 19697 O 1952.72 -1.58937 1.23697 0
M  V30 19698 C 1949.78 -2.51932 2.38184 0
M  V30 19699 C 1948.84 -2.32906 3.60629 0
M  V30 19700 C 1948.07 -3.58067 3.95757 0
M  V30 19701 O 1948.3 -4.64119 3.31587 0
M  V30 19702 O 1947.23 -3.5092 4.89018 0
M  V30 19703 H 1951.06 -0.858075 2.91326 0
M  V30 19704 H 1948.64 -0.358669 1.45031 0
M  V30 19705 H 1950.52 -3.29423 2.6279 0
M  V30 19706 H 1949.2 -2.86165 1.513 0
M  V30 19707 H 1948.11 -1.53377 3.41213 0
M  V30 19708 H 1949.44 -2.0359 4.4812 0
M  V30 19709 N 1951.09 -1.51916 -0.419434 0
M  V30 19710 C 1952.34 -1.65714 -1.16905 0
M  V30 19711 C 1952.67 -0.380888 -1.90428 0
M  V30 19712 O 1951.95 0.620297 -1.84344 0
M  V30 19713 C 1952.23 -2.87239 -2.17177 0
M  V30 19714 C 1952.08 -4.24887 -1.47619 0
M  V30 19715 C 1953.4 -3.04281 -3.17964 0
M  V30 19716 H 1950.52 -0.603072 -0.423643 0
M  V30 19717 H 1953.16 -1.84446 -0.456035 0
M  V30 19718 H 1951.31 -2.71398 -2.77984 0
M  V30 19719 H 1952.98 -4.52433 -0.900112 0
M  V30 19720 H 1951.23 -4.26761 -0.778273 0
M  V30 19721 H 1951.9 -5.05945 -2.20733 0
M  V30 19722 H 1954.37 -3.18951 -2.67226 0
M  V30 19723 H 1953.25 -3.90843 -3.85399 0
M  V30 19724 H 1953.51 -2.17138 -3.85102 0
M  V30 19725 N 1952.57 0.676023 -1.42365 0
M  V30 19726 C 1953.52 1.78959 -1.45747 0
M  V30 19727 C 1954.49 1.6319 -0.309563 0
M  V30 19728 O 1955.67 1.83761 -0.51346 0
M  V30 19729 C 1952.81 3.16982 -1.36441 0
M  V30 19730 C 1951.93 3.44047 -2.61257 0
M  V30 19731 C 1951.06 4.71791 -2.44103 0
M  V30 19732 C 1950.1 4.91887 -3.64299 0
M  V30 19733 N 1949.24 6.10871 -3.46094 0
M  V30 19734 H 1954.08 1.75403 -2.4091 0
M  V30 19735 H 1951.61 0.856293 -1.19608 0
M  V30 19736 H 1953.57 3.96741 -1.29044 0
M  V30 19737 H 1952.2 3.19666 -0.448744 0
M  V30 19738 H 1951.25 2.58551 -2.79026 0
M  V30 19739 H 1952.57 3.5479 -3.50607 0
M  V30 19740 H 1951.72 5.59639 -2.34285 0
M  V30 19741 H 1950.46 4.63329 -1.52241 0
M  V30 19742 H 1949.46 4.02482 -3.74551 0
M  V30 19743 H 1950.69 5.02195 -4.5714 0
M  V30 19744 H 1948.63 6.03584 -2.56949 0
M  V30 19745 H 1948.55 6.2247 -4.29031 0
M  V30 19746 H 1949.82 7.014 -3.40085 0
M  V30 19747 N 1954.05 1.28517 0.912209 0
M  V30 19748 C 1955 1.12437 2.03619 0
M  V30 19749 C 1955.99 0.0432331 1.69345 0
M  V30 19750 O 1957.2 0.202116 1.78862 0
M  V30 19751 H 1953.57 0.34694 0.667185 0
M  V30 19752 H 1955.54 2.07625 2.14323 0
M  V30 19753 C 1954.29 0.804603 3.38262 0
M  V30 19754 H 1953.61 1.62849 3.65131 0
M  V30 19755 H 1955.05 0.732055 4.17633 0
M  V30 19756 C 1953.51 -0.491715 3.33292 0
M  V30 19757 O 1954.04 -1.52155 3.71768 0
M  V30 19758 N 1952.25 -0.493007 2.86388 0
M  V30 19759 H 1951.8 0.34549 2.55273 0
M  V30 19760 H 1951.75 -1.36038 2.83445 0
M  V30 19761 N 1955.53 -1.12086 1.1079 0
M  V30 19762 C 1956.46 -2.2001 0.78217 0
M  V30 19763 C 1957.44 -1.68305 -0.246488 0
M  V30 19764 O 1958.62 -1.9388 -0.111448 0
M  V30 19765 C 1955.75 -3.4662 0.2172 0
M  V30 19766 C 1954.71 -4.11499 1.17696 0
M  V30 19767 C 1954.03 -5.32604 0.47302 0
M  V30 19768 C 1955.33 -4.5721 2.52501 0
M  V30 19769 H 1957.03 -2.47514 1.68456 0
M  V30 19770 H 1954.57 -1.18964 0.811397 0
M  V30 19771 H 1956.53 -4.21394 -0.0228381 0
M  V30 19772 H 1955.25 -3.18555 -0.720448 0
M  V30 19773 H 1953.91 -3.38711 1.40252 0
M  V30 19774 H 1953.56 -5.00807 -0.469217 0
M  V30 19775 H 1953.26 -5.76961 1.11308 0
M  V30 19776 H 1954.78 -6.10122 0.241615 0
M  V30 19777 H 1956.19 -5.23338 2.34073 0
M  V30 19778 H 1954.59 -5.12357 3.12426 0
M  V30 19779 H 1955.66 -3.71003 3.12226 0
M  V30 19780 N 1957 -0.897194 -1.29569 0
M  V30 19781 C 1957.93 -0.389601 -2.30227 0
M  V30 19782 C 1958.92 0.53405 -1.61499 0
M  V30 19783 O 1960.1 0.44531 -1.89025 0
M  V30 19784 C 1957.23 0.385966 -3.45149 0
M  V30 19785 C 1956.18 -0.447028 -4.25659 0
M  V30 19786 C 1955.51 0.455883 -5.32753 0
M  V30 19787 C 1956.81 -1.69562 -4.9401 0
M  V30 19788 H 1958.5 -1.23077 -2.72933 0
M  V30 19789 H 1956.05 -0.593265 -1.31211 0
M  V30 19790 H 1958 0.751791 -4.1464 0
M  V30 19791 H 1956.73 1.26089 -3.01279 0
M  V30 19792 H 1955.39 -0.795152 -3.57873 0
M  V30 19793 H 1955.03 1.32887 -4.85129 0
M  V30 19794 H 1954.73 -0.0977528 -5.87519 0
M  V30 19795 H 1956.26 0.817956 -6.05097 0
M  V30 19796 H 1957.67 -1.39968 -5.55951 0
M  V30 19797 H 1956.07 -2.19039 -5.58697 0
M  V30 19798 H 1957.14 -2.43305 -4.19441 0
M  V30 19799 N 1958.48 1.43142 -0.659413 0
M  V30 19800 C 1959.39 2.34582 0.0288714 0
M  V30 19801 C 1960.41 1.54232 0.805512 0
M  V30 19802 O 1961.58 1.8686 0.751347 0
M  V30 19803 C 1958.65 3.32587 0.97912 0
M  V30 19804 C 1957.71 4.2884 0.198725 0
M  V30 19805 C 1956.94 5.22163 1.10371 0
M  V30 19806 O 1957.17 5.20054 2.34308 0
M  V30 19807 O 1956.1 5.99168 0.572785 0
M  V30 19808 H 1959.93 2.94945 -0.723947 0
M  V30 19809 H 1957.51 1.43386 -0.419609 0
M  V30 19810 H 1959.39 3.92836 1.52505 0
M  V30 19811 H 1958.07 2.74719 1.71206 0
M  V30 19812 H 1956.98 3.72052 -0.390942 0
M  V30 19813 H 1958.31 4.89707 -0.494774 0
M  V30 19814 N 1959.96 0.40173 1.52394 0
M  V30 19815 C 1960.91 -0.427385 2.26808 0
M  V30 19816 C 1961.88 -1.04733 1.28919 0
M  V30 19817 O 1963.06 -1.073 1.5777 0
M  V30 19818 C 1960.2 -1.54211 3.08728 0
M  V30 19819 C 1959.32 -0.943809 4.21564 0
M  V30 19820 C 1958.45 -2.03061 4.90856 0
M  V30 19821 C 1957.49 -1.40886 5.95666 0
M  V30 19822 N 1956.63 -2.4355 6.58504 0
M  V30 19823 H 1961.47 0.21363 2.97233 0
M  V30 19824 H 1959 0.117187 1.46632 0
M  V30 19825 H 1960.96 -2.1993 3.54523 0
M  V30 19826 H 1959.59 -2.15326 2.40488 0
M  V30 19827 H 1958.64 -0.175875 3.79993 0
M  V30 19828 H 1959.96 -0.449559 4.9677 0
M  V30 19829 H 1959.11 -2.76523 5.40018 0
M  V30 19830 H 1957.85 -2.5585 4.15201 0
M  V30 19831 H 1956.85 -0.659546 5.4583 0
M  V30 19832 H 1958.08 -0.888766 6.73259 0
M  V30 19833 H 1956.02 -2.95484 5.85683 0
M  V30 19834 H 1955.94 -1.98916 7.29362 0
M  V30 19835 H 1957.21 -3.16604 7.12308 0
M  V30 19836 N 1961.44 -1.57047 0.131923 0
M  V30 19837 C 1962.69 -1.95245 -0.521892 0
M  V30 19838 C 1963.01 -1.01692 -1.66385 0
M  V30 19839 O 1962.28 -0.0756026 -1.95754 0
M  V30 19840 H 1960.86 -0.720886 -0.195786 0
M  V30 19841 H 1963.52 -1.93831 0.203893 0
M  V30 19842 H 1962.62 -2.986 -0.907979 0
M  V30 19843 N 1962.92 0.141865 -1.5696 0
M  V30 19844 C 1963.86 1.175 -1.98651 0
M  V30 19845 C 1964.83 1.42409 -0.854918 0
M  V30 19846 O 1966.02 1.54658 -1.11738 0
M  V30 19847 C 1963.16 2.50222 -2.37661 0
M  V30 19848 C 1962.27 2.32443 -3.64135 0
M  V30 19849 C 1961.41 3.58236 -3.92225 0
M  V30 19850 C 1960.45 3.35516 -5.11952 0
M  V30 19851 N 1959.58 4.53452 -5.36027 0
M  V30 19852 H 1964.42 0.812473 -2.8671 0
M  V30 19853 H 1961.96 0.389721 -1.41844 0
M  V30 19854 H 1963.92 3.27616 -2.58309 0
M  V30 19855 H 1962.55 2.84412 -1.52675 0
M  V30 19856 H 1961.6 1.46078 -3.51234 0
M  V30 19857 H 1962.91 2.11618 -4.51685 0
M  V30 19858 H 1962.07 4.44057 -4.13399 0
M  V30 19859 H 1960.8 3.8207 -3.03106 0
M  V30 19860 H 1959.81 2.48084 -4.90647 0
M  V30 19861 H 1961.03 3.13075 -6.02628 0
M  V30 19862 H 1958.98 4.7745 -4.49864 0
M  V30 19863 H 1958.9 4.35648 -6.17856 0
M  V30 19864 H 1960.17 5.40472 -5.61703 0
M  V30 19865 N 1964.39 1.52136 0.411372 0
M  V30 19866 C 1965.62 1.6993 1.18031 0
M  V30 19867 C 1966.04 0.407806 1.84343 0
M  V30 19868 O 1965.39 -0.615981 1.7179 0
M  V30 19869 C 1965.45 2.83333 2.2451 0
M  V30 19870 O 1965.17 4.07482 1.60905 0
M  V30 19871 C 1966.67 3.12618 3.143 0
M  V30 19872 H 1963.89 0.569546 0.354765 0
M  V30 19873 H 1966.43 1.98683 0.484277 0
M  V30 19874 H 1964.59 2.57106 2.89785 0
M  V30 19875 H 1965 4.70657 2.31478 0
M  V30 19876 H 1966.47 3.95486 3.85091 0
M  V30 19877 H 1966.95 2.26078 3.76544 0
M  V30 19878 H 1967.56 3.40602 2.54697 0
M  V30 19879 N 1965.87 -0.668464 1.42721 0
M  V30 19880 C 1966.78 -1.81118 1.49109 0
M  V30 19881 C 1967.8 -1.69815 0.379331 0
M  V30 19882 O 1968.98 -1.91254 0.631187 0
M  V30 19883 C 1966.04 -3.17303 1.39713 0
M  V30 19884 C 1965.1 -3.40515 2.61434 0
M  V30 19885 C 1964.33 -4.70203 2.52477 0
M  V30 19886 O 1964.56 -5.48536 1.56411 0
M  V30 19887 O 1963.49 -4.948 3.42719 0
M  V30 19888 H 1967.32 -1.78684 2.45572 0
M  V30 19889 H 1964.9 -0.825017 1.24554 0
M  V30 19890 H 1966.78 -3.98557 1.36859 0
M  V30 19891 H 1965.46 -3.2036 0.463785 0
M  V30 19892 H 1964.37 -2.59085 2.69863 0
M  V30 19893 H 1965.7 -3.42293 3.53689 0
M  V30 19894 N 1967.35 -1.28999 -0.905381 0
M  V30 19895 C 1968.28 -1.09447 -2.0138 0
M  V30 19896 C 1969.3 -0.0436697 -1.62741 0
M  V30 19897 O 1970.49 -0.287603 -1.76168 0
M  V30 19898 C 1967.59 -0.642796 -3.32748 0
M  V30 19899 C 1966.76 -1.77086 -3.99949 0
M  V30 19900 C 1965.82 -1.31115 -5.09603 0
M  V30 19901 O 1964.84 -2.01488 -5.32345 0
M  V30 19902 N 1966.05 -0.178924 -5.80224 0
M  V30 19903 H 1968.81 -2.04906 -2.18709 0
M  V30 19904 H 1966.37 -1.20863 -1.07721 0
M  V30 19905 H 1968.36 -0.318684 -4.03443 0
M  V30 19906 H 1966.93 0.21918 -3.11831 0
M  V30 19907 H 1966.15 -2.26414 -3.22692 0
M  V30 19908 H 1967.44 -2.52736 -4.4159 0
M  V30 19909 H 1966.84 0.407926 -5.64227 0
M  V30 19910 H 1965.4 0.085857 -6.51743 0
M  V30 19911 N 1968.83 1.11497 -1.11383 0
M  V30 19912 C 1969.76 2.17283 -0.729431 0
M  V30 19913 C 1970.77 1.61041 0.238642 0
M  V30 19914 O 1971.96 1.78487 0.0216271 0
M  V30 19915 C 1969.06 3.38852 -0.057216 0
M  V30 19916 C 1968.24 4.24562 -1.05196 0
M  V30 19917 C 1967.3 5.24605 -0.40941 0
M  V30 19918 O 1966.32 5.59183 -1.06315 0
M  V30 19919 N 1967.52 5.74565 0.827957 0
M  V30 19920 H 1970.29 2.50871 -1.63963 0
M  V30 19921 H 1967.85 1.27013 -1.00396 0
M  V30 19922 H 1969.84 4.02871 0.384356 0
M  V30 19923 H 1968.41 3.03332 0.755551 0
M  V30 19924 H 1967.63 3.57008 -1.6715 0
M  V30 19925 H 1968.92 4.78667 -1.72498 0
M  V30 19926 H 1968.32 5.48653 1.37827 0
M  V30 19927 H 1966.87 6.40423 1.21252 0
M  V30 19928 N 1970.31 0.904053 1.29092 0
M  V30 19929 C 1971.54 0.547758 1.99517 0
M  V30 19930 C 1971.95 -0.868589 1.67633 0
M  V30 19931 O 1971.31 -1.57394 0.923758 0
M  V30 19932 C 1971.36 0.735683 3.53935 0
M  V30 19933 O 1971.08 2.09629 3.84691 0
M  V30 19934 C 1972.58 0.38492 4.41626 0
M  V30 19935 H 1969.8 0.209762 0.63737 0
M  V30 19936 H 1972.34 1.2146 1.64523 0
M  V30 19937 H 1970.5 0.11597 3.87226 0
M  V30 19938 H 1970.91 2.12883 4.79355 0
M  V30 19939 H 1972.39 0.567226 5.49078 0
M  V30 19940 H 1972.86 -0.678298 4.33931 0
M  V30 19941 H 1973.47 0.981759 4.13813 0
M  V30 19942 N 1971.79 -1.4279 0.666995 0
M  V30 19943 C 1972.75 -2.29199 -0.00688445 0
M  V30 19944 C 1973.75 -1.42924 -0.736835 0
M  V30 19945 O 1974.94 -1.64401 -0.576011 0
M  V30 19946 C 1972.07 -3.25268 -1.02046 0
M  V30 19947 H 1973.26 -2.90278 0.753571 0
M  V30 19948 H 1970.82 -1.50299 0.428933 0
M  V30 19949 H 1971.55 -2.69112 -1.80967 0
M  V30 19950 H 1971.34 -3.88892 -0.500533 0
M  V30 19951 H 1972.83 -3.9009 -1.49063 0
M  V30 19952 N 1973.26 -0.409806 -1.52179 0
M  V30 19953 C 1974.54 0.224342 -1.94309 0
M  V30 19954 C 1974.92 1.62561 -1.34674 0
M  V30 19955 O 1974.27 2.22438 -0.522817 0
M  V30 19956 C 1974.48 0.22999 -3.48241 0
M  V30 19957 C 1975.83 0.449011 -4.22219 0
M  V30 19958 O 1976.85 0.309316 -3.54854 0
M  V30 19959 O 1975.71 0.724419 -5.41677 0
M  V30 19960 H 1972.8 0.144759 -0.814232 0
M  V30 19961 H 1975.35 -0.465799 -1.63182 0
M  V30 19962 H 1974.12 -0.750731 -3.84031 0
M  V30 19963 H 1973.74 0.964201 -3.85732 0
M  V30 19964 N 1974.74 1.56975 -0.14025 0
M  V30 19965 C 1975.67 2.13532 0.832862 0
M  V30 19966 C 1976.69 1.08312 1.21542 0
M  V30 19967 O 1977.88 1.35613 1.16067 0
M  V30 19968 C 1974.98 2.63756 2.12806 0
M  V30 19969 C 1974.15 3.93304 1.91392 0
M  V30 19970 C 1973.21 4.28907 3.04837 0
M  V30 19971 O 1972.23 4.97351 2.76822 0
M  V30 19972 N 1973.44 3.87941 4.31835 0
M  V30 19973 H 1976.2 2.97655 0.349525 0
M  V30 19974 H 1973.76 1.61841 0.0435313 0
M  V30 19975 H 1975.75 2.8459 2.87734 0
M  V30 19976 H 1974.32 1.84395 2.52423 0
M  V30 19977 H 1973.54 3.81164 1.00538 0
M  V30 19978 H 1974.83 4.77972 1.74414 0
M  V30 19979 H 1974.23 3.32779 4.57466 0
M  V30 19980 H 1972.79 4.13841 5.03566 0
M  V30 19981 N 1976.22 -0.133539 1.57033 0
M  V30 19982 C 1977.15 -1.16595 2.02306 0
M  V30 19983 C 1978.13 -1.44031 0.904933 0
M  V30 19984 O 1979.32 -1.54721 1.17367 0
M  V30 19985 C 1976.45 -2.49581 2.41509 0
M  V30 19986 C 1975.4 -2.36639 3.56631 0
M  V30 19987 C 1974.73 -3.74457 3.81688 0
M  V30 19988 C 1976.03 -1.83912 4.88849 0
M  V30 19989 H 1977.72 -0.789456 2.88804 0
M  V30 19990 H 1975.27 -0.378309 1.38942 0
M  V30 19991 H 1977.22 -3.22043 2.71783 0
M  V30 19992 H 1975.94 -2.89093 1.51964 0
M  V30 19993 H 1974.6 -1.66628 3.26544 0
M  V30 19994 H 1974.25 -4.11428 2.89372 0
M  V30 19995 H 1973.95 -3.66655 4.59171 0
M  V30 19996 H 1975.47 -4.48446 4.14401 0
M  V30 19997 H 1976.89 -2.46178 5.17754 0
M  V30 19998 H 1975.28 -1.86967 5.70231 0
M  V30 19999 H 1976.35 -0.795669 4.78327 0
M  V30 20000 N 1977.7 -1.52352 -0.403298 0
M  V30 20001 C 1978.63 -1.79074 -1.49849 0
M  V30 20002 C 1979.61 -0.642006 -1.57519 0
M  V30 20003 O 1980.79 -0.888182 -1.72699 0
M  V30 20004 C 1977.92 -1.9467 -2.87612 0
M  V30 20005 C 1976.88 -3.10295 -2.9479 0
M  V30 20006 C 1976.2 -3.11122 -4.34864 0
M  V30 20007 C 1977.5 -4.49643 -2.65741 0
M  V30 20008 H 1979.2 -2.70783 -1.27737 0
M  V30 20009 H 1976.74 -1.30298 -0.613064 0
M  V30 20010 H 1978.7 -2.11947 -3.64221 0
M  V30 20011 H 1977.42 -0.996377 -3.1103 0
M  V30 20012 H 1976.08 -2.92778 -2.20627 0
M  V30 20013 H 1975.73 -2.13801 -4.553 0
M  V30 20014 H 1975.43 -3.88786 -4.4059 0
M  V30 20015 H 1976.95 -3.30536 -5.13399 0
M  V30 20016 H 1978.37 -4.67335 -3.3207 0
M  V30 20017 H 1976.76 -5.29268 -2.82835 0
M  V30 20018 H 1977.83 -4.57339 -1.61149 0
M  V30 20019 N 1979.18 0.660885 -1.43074 0
M  V30 20020 C 1980.14 1.75586 -1.47317 0
M  V30 20021 C 1981.14 1.56744 -0.358871 0
M  V30 20022 O 1982.33 1.62782 -0.620299 0
M  V30 20023 C 1979.46 3.14377 -1.31833 0
M  V30 20024 H 1980.65 1.73207 -2.44825 0
M  V30 20025 H 1978.21 0.871828 -1.29726 0
M  V30 20026 H 1978.94 3.22373 -0.353027 0
M  V30 20027 H 1978.73 3.29457 -2.12604 0
M  V30 20028 H 1980.22 3.94238 -1.37718 0
M  V30 20029 N 1980.65 1.29477 0.898527 0
M  V30 20030 C 1982.07 1.07514 1.17953 0
M  V30 20031 C 1982.27 -0.172814 2.00758 0
M  V30 20032 O 1981.33 -0.87025 2.37029 0
M  V30 20033 C 1982.64 2.33121 1.89934 0
M  V30 20034 C 1984.19 2.38452 2.02755 0
M  V30 20035 C 1984.66 3.63866 2.78146 0
M  V30 20036 N 1986.15 3.64595 2.857 0
M  V30 20037 C 1986.89 4.58319 3.44574 0
M  V30 20038 N 1986.38 5.62376 4.04605 0
M  V30 20039 N 1988.18 4.45887 3.42259 0
M  V30 20040 H 1980.33 2.09562 0.346076 0
M  V30 20041 H 1982.59 0.923108 0.215814 0
M  V30 20042 H 1982.3 3.2412 1.36526 0
M  V30 20043 H 1982.17 2.40721 2.90402 0
M  V30 20044 H 1984.56 1.47941 2.55338 0
M  V30 20045 H 1984.64 2.34837 1.01416 0
M  V30 20046 H 1984.28 4.54729 2.26239 0
M  V30 20047 H 1984.21 3.6474 3.79832 0
M  V30 20048 H 1986.7 2.89358 2.43064 0
M  V30 20049 H 1987.02 6.30012 4.47555 0
M  V30 20050 H 1985.36 5.66184 4.03064 0
M  V30 20051 H 1988.55 3.63786 2.9458 0
M  V30 20052 H 1988.73 5.19113 3.87848 0
M  V30 20053 N 1982.13 -1.10905 1.11972 0
M  V30 20054 C 1983.1 -2.1529 0.786324 0
M  V30 20055 C 1984.1 -1.59589 -0.196987 0
M  V30 20056 O 1985.29 -1.74177 0.0281964 0
M  V30 20057 C 1982.42 -3.40488 0.167611 0
M  V30 20058 H 1983.61 -2.46295 1.71111 0
M  V30 20059 H 1981.16 -1.26185 0.922332 0
M  V30 20060 H 1981.9 -3.15096 -0.76713 0
M  V30 20061 H 1981.68 -3.822 0.875514 0
M  V30 20062 H 1983.17 -4.17571 -0.0493303 0
M  V30 20063 N 1983.61 -0.910886 -1.2861 0
M  V30 20064 C 1984.89 -0.461608 -1.90075 0
M  V30 20065 C 1985.27 1.05944 -1.8259 0
M  V30 20066 O 1984.62 1.90624 -1.25995 0
M  V30 20067 C 1984.83 -0.98875 -3.34701 0
M  V30 20068 C 1986.17 -1.03913 -4.11688 0
M  V30 20069 O 1987.2 -0.937194 -3.4365 0
M  V30 20070 O 1986.06 -1.19392 -5.33299 0
M  V30 20071 H 1983.15 -0.145814 -0.814044 0
M  V30 20072 H 1985.7 -1.00148 -1.36998 0
M  V30 20073 H 1984.47 -2.03273 -3.34359 0
M  V30 20074 H 1984.09 -0.429535 -3.95273 0
M  V30 20075 N 1985.09 1.42434 -0.674558 0
M  V30 20076 C 1986.05 2.29199 -0.00527063 0
M  V30 20077 C 1987.05 1.43313 0.729245 0
M  V30 20078 O 1988.24 1.64704 0.567284 0
M  V30 20079 C 1985.37 3.25805 1.0032 0
M  V30 20080 H 1986.57 2.89874 -0.768954 0
M  V30 20081 H 1984.12 1.5007 -0.436898 0
M  V30 20082 H 1984.85 2.70068 1.79538 0
M  V30 20083 H 1984.64 3.89152 0.479902 0
M  V30 20084 H 1986.13 3.90875 1.46993 0
M  V30 20085 N 1986.57 0.417871 1.51959 0
M  V30 20086 C 1987.53 -0.391479 2.25832 0
M  V30 20087 C 1988.53 -0.96627 1.2853 0
M  V30 20088 O 1989.72 -0.843774 1.52401 0
M  V30 20089 C 1986.85 -1.55192 3.03526 0
M  V30 20090 H 1988.04 0.255672 2.98808 0
M  V30 20091 H 1985.6 0.170583 1.55366 0
M  V30 20092 H 1986.33 -2.23569 2.3492 0
M  V30 20093 H 1986.12 -1.14616 3.74974 0
M  V30 20094 H 1987.61 -2.12422 3.59537 0
M  V30 20095 N 1988.04 -1.56898 0.148573 0
M  V30 20096 C 1988.99 -2.1684 -0.790514 0
M  V30 20097 C 1989.96 -1.10173 -1.24303 0
M  V30 20098 O 1991.15 -1.38221 -1.31527 0
M  V30 20099 C 1988.29 -2.79542 -2.02361 0
M  V30 20100 C 1987.4 -4.00606 -1.61676 0
M  V30 20101 C 1986.53 -4.51303 -2.80178 0
M  V30 20102 C 1985.57 -5.64828 -2.35873 0
M  V30 20103 N 1984.71 -6.10136 -3.47389 0
M  V30 20104 H 1989.55 -2.96751 -0.27255 0
M  V30 20105 H 1987.09 -1.46586 -0.122814 0
M  V30 20106 H 1989.05 -3.14042 -2.74652 0
M  V30 20107 H 1987.68 -2.02273 -2.51566 0
M  V30 20108 H 1986.73 -3.72076 -0.791448 0
M  V30 20109 H 1988.04 -4.82848 -1.25138 0
M  V30 20110 H 1987.19 -4.87865 -3.60656 0
M  V30 20111 H 1985.93 -3.68071 -3.19961 0
M  V30 20112 H 1984.94 -5.2784 -1.53835 0
M  V30 20113 H 1986.16 -6.49846 -1.97174 0
M  V30 20114 H 1984.11 -5.29839 -3.8679 0
M  V30 20115 H 1984.03 -6.87308 -3.14871 0
M  V30 20116 H 1985.29 -6.51344 -4.28219 0
M  V30 20117 N 1989.52 0.125209 -1.57102 0
M  V30 20118 C 1990.49 1.13792 -1.98957 0
M  V30 20119 C 1991.49 1.34656 -0.878887 0
M  V30 20120 O 1992.68 1.31278 -1.14506 0
M  V30 20121 C 1989.81 2.49371 -2.32437 0
M  V30 20122 H 1991 0.778319 -2.89624 0
M  V30 20123 H 1988.55 0.369299 -1.51875 0
M  V30 20124 H 1989.29 2.90263 -1.4463 0
M  V30 20125 H 1989.07 2.35583 -3.13437 0
M  V30 20126 H 1990.56 3.22268 -2.65581 0
M  V30 20127 N 1991 1.52564 0.395213 0
M  V30 20128 C 1991.93 1.79867 1.48897 0
M  V30 20129 C 1992.91 0.650351 1.57176 0
M  V30 20130 O 1994.1 0.897328 1.72226 0
M  V30 20131 C 1991.23 1.96192 2.86576 0
M  V30 20132 C 1990.18 3.11854 2.9314 0
M  V30 20133 C 1989.51 3.13424 4.33208 0
M  V30 20134 C 1990.81 4.51046 2.63353 0
M  V30 20135 H 1992.5 2.71457 1.26299 0
M  V30 20136 H 1990.05 1.30621 0.606145 0
M  V30 20137 H 1992 2.13875 3.63091 0
M  V30 20138 H 1990.72 1.01286 3.10498 0
M  V30 20139 H 1989.38 2.93944 2.19072 0
M  V30 20140 H 1989.03 2.16212 4.5416 0
M  V30 20141 H 1988.73 3.91117 4.38522 0
M  V30 20142 H 1990.25 3.33254 5.11639 0
M  V30 20143 H 1991.67 4.6909 3.29587 0
M  V30 20144 H 1990.07 5.3076 2.80024 0
M  V30 20145 H 1991.14 4.58187 1.58722 0
M  V30 20146 N 1992.48 -0.653289 1.43422 0
M  V30 20147 C 1993.44 -1.74802 1.48246 0
M  V30 20148 C 1994.44 -1.56552 0.367179 0
M  V30 20149 O 1995.63 -1.62451 0.628923 0
M  V30 20150 C 1992.76 -3.13673 1.33499 0
M  V30 20151 H 1993.96 -1.71906 2.4574 0
M  V30 20152 H 1991.51 -0.864936 1.30187 0
M  V30 20153 H 1992.24 -3.22181 0.370118 0
M  V30 20154 H 1992.03 -3.28325 2.14348 0
M  V30 20155 H 1993.52 -3.93502 1.39806 0
M  V30 20156 N 1993.96 -1.29952 -0.891648 0
M  V30 20157 C 1994.87 -1.17673 -2.02954 0
M  V30 20158 C 1995.88 -0.0981428 -1.73723 0
M  V30 20159 O 1997.06 -0.311785 -1.98972 0
M  V30 20160 C 1994.12 -0.862565 -3.35799 0
M  V30 20161 C 1993.18 -2.02583 -3.78495 0
M  V30 20162 C 1992.42 -1.72656 -5.05001 0
M  V30 20163 O 1992.64 -0.651307 -5.66669 0
M  V30 20164 O 1991.57 -2.57698 -5.43944 0
M  V30 20165 H 1995.4 -2.13248 -2.16239 0
M  V30 20166 H 1992.99 -1.09481 -1.01658 0
M  V30 20167 H 1994.87 -0.702274 -4.15507 0
M  V30 20168 H 1993.54 0.0633315 -3.23638 0
M  V30 20169 H 1992.45 -2.2414 -2.99519 0
M  V30 20170 H 1993.78 -2.93321 -3.95251 0
M  V30 20171 N 1995.44 1.1031 -1.12559 0
M  V30 20172 C 1996.35 2.20257 -0.807721 0
M  V30 20173 C 1997.36 1.728 0.203997 0
M  V30 20174 O 1998.54 2.01365 0.0372766 0
M  V30 20175 C 1995.6 3.4566 -0.26839 0
M  V30 20176 C 1994.66 4.07844 -1.3402 0
M  V30 20177 C 1993.9 5.27261 -0.826511 0
M  V30 20178 O 1994.12 5.6939 0.339244 0
M  V30 20179 O 1993.05 5.80335 -1.5967 0
M  V30 20180 H 1996.88 2.49882 -1.72606 0
M  V30 20181 H 1994.46 1.19071 -0.902352 0
M  V30 20182 H 1996.35 4.21391 0.0274321 0
M  V30 20183 H 1995.02 3.17658 0.622489 0
M  V30 20184 H 1993.93 3.33791 -1.68921 0
M  V30 20185 H 1995.26 4.40051 -2.20489 0
M  V30 20186 N 1996.91 0.917694 1.28125 0
M  V30 20187 C 1997.88 0.413823 2.25433 0
M  V30 20188 C 1998.88 -0.46205 1.54019 0
M  V30 20189 O 2000.07 -0.264546 1.7218 0
M  V30 20190 C 1997.2 -0.406249 3.38471 0
M  V30 20191 H 1998.39 1.27345 2.7152 0
M  V30 20192 H 1995.94 0.697455 1.39876 0
M  V30 20193 H 1996.68 -1.28511 2.97751 0
M  V30 20194 H 1996.46 0.221601 3.91473 0
M  V30 20195 H 1997.95 -0.749491 4.10819 0
M  V30 20196 N 1998.39 -1.42074 0.682102 0
M  V30 20197 C 1999.35 -2.29193 0.0174256 0
M  V30 20198 C 2000.35 -1.43698 -0.721635 0
M  V30 20199 O 2001.54 -1.65003 -0.558542 0
M  V30 20200 C 1998.68 -3.26332 -0.985903 0
M  V30 20201 H 1999.87 -2.89462 0.784316 0
M  V30 20202 H 1997.42 -1.49836 0.44485 0
M  V30 20203 H 1998.16 -2.71016 -1.78103 0
M  V30 20204 H 1997.94 -3.89401 -0.459258 0
M  V30 20205 H 1999.43 -3.91649 -1.44918 0
M  V30 20206 N 1999.87 -0.425924 -1.51735 0
M  V30 20207 C 2000.82 0.391248 -2.2746 0
M  V30 20208 C 2001.79 1.02669 -1.30569 0
M  V30 20209 O 2002.97 1.04777 -1.59457 0
M  V30 20210 C 2000.11 1.4928 -3.11142 0
M  V30 20211 C 1999.22 0.876622 -4.23012 0
M  V30 20212 C 1998.36 1.95227 -4.94024 0
M  V30 20213 C 1997.4 1.31392 -5.97832 0
M  V30 20214 N 1996.54 2.33043 -6.62296 0
M  V30 20215 H 2001.38 -0.26089 -2.96856 0
M  V30 20216 H 1998.91 -0.1405 -1.46427 0
M  V30 20217 H 2000.87 2.14262 -3.57977 0
M  V30 20218 H 1999.5 2.11473 -2.43884 0
M  V30 20219 H 1998.55 0.115399 -3.80225 0
M  V30 20220 H 1999.86 0.370471 -4.97422 0
M  V30 20221 H 1999.02 2.67897 -5.44349 0
M  V30 20222 H 1997.76 2.49212 -4.19219 0
M  V30 20223 H 1996.76 0.572626 -5.4681 0
M  V30 20224 H 1997.99 0.781544 -6.74588 0
M  V30 20225 H 1995.93 2.86129 -5.9031 0
M  V30 20226 H 1995.85 1.87287 -7.32434 0
M  V30 20227 H 1997.12 3.05231 -7.17255 0
M  V30 20228 N 2001.35 1.56817 -0.156891 0
M  V30 20229 C 2002.29 2.17256 0.779004 0
M  V30 20230 C 2003.26 1.1083 1.23717 0
M  V30 20231 O 2004.45 1.38917 1.30793 0
M  V30 20232 C 2001.59 2.80612 2.00876 0
M  V30 20233 C 2000.7 4.01457 1.59549 0
M  V30 20234 C 1999.84 4.52782 2.7778 0
M  V30 20235 C 1998.88 5.66071 2.32874 0
M  V30 20236 N 1998.01 6.11969 3.44148 0
M  V30 20237 H 2002.85 2.96891 0.256809 0
M  V30 20238 H 2000.39 1.46649 0.115039 0
M  V30 20239 H 2002.35 3.15494 2.72983 0
M  V30 20240 H 2000.98 2.03604 2.5049 0
M  V30 20241 H 2000.03 3.7249 0.771705 0
M  V30 20242 H 2001.34 4.83505 1.22576 0
M  V30 20243 H 2000.5 4.89771 3.58064 0
M  V30 20244 H 1999.24 3.69763 3.18005 0
M  V30 20245 H 1998.24 5.28648 1.51034 0
M  V30 20246 H 1999.47 6.50882 1.93724 0
M  V30 20247 H 1997.41 5.31883 3.83975 0
M  V30 20248 H 1997.33 6.88968 3.11222 0
M  V30 20249 H 1998.6 6.53605 4.24759 0
M  V30 20250 N 2002.83 -0.116876 1.57166 0
M  V30 20251 C 2004.07 -0.822659 1.84599 0
M  V30 20252 C 2004.39 -1.80315 0.742392 0
M  V30 20253 O 2003.66 -1.94505 -0.233411 0
M  V30 20254 H 2002.24 -0.306797 0.681091 0
M  V30 20255 H 2004.91 -0.103693 1.94624 0
M  V30 20256 H 2004 -1.36659 2.8059 0
M  V30 20257 N 2004.3 -1.52772 -0.387116 0
M  V30 20258 C 2005.72 -1.42064 -0.727316 0
M  V30 20259 C 2005.92 -0.542559 -1.94058 0
M  V30 20260 O 2004.98 -0.0167267 -2.52494 0
M  V30 20261 C 2006.29 -2.84942 -0.960651 0
M  V30 20262 C 2007.84 -2.94432 -1.06201 0
M  V30 20263 C 2008.31 -4.38326 -1.32796 0
M  V30 20264 N 2009.8 -4.41659 -1.39613 0
M  V30 20265 C 2010.54 -5.50081 -1.6186 0
M  V30 20266 N 2010.03 -6.68585 -1.81566 0
M  V30 20267 N 2011.83 -5.37627 -1.64055 0
M  V30 20268 H 2003.98 -2.08382 0.411202 0
M  V30 20269 H 2006.24 -0.940144 0.121792 0
M  V30 20270 H 2005.95 -3.51416 -0.141246 0
M  V30 20271 H 2005.82 -3.27309 -1.87479 0
M  V30 20272 H 2008.21 -2.28125 -1.87198 0
M  V30 20273 H 2008.29 -2.55491 -0.125731 0
M  V30 20274 H 2007.93 -5.05199 -0.523081 0
M  V30 20275 H 2007.86 -4.74821 -2.27711 0
M  V30 20276 H 2010.35 -3.56245 -1.26086 0
M  V30 20277 H 2010.67 -7.4699 -1.98053 0
M  V30 20278 H 2009.01 -6.7161 -1.78786 0
M  V30 20279 H 2012.2 -4.44016 -1.48213 0
M  V30 20280 H 2012.38 -6.22193 -1.81053 0
M  V30 20281 N 2005.78 0.645673 -1.43767 0
M  V30 20282 C 2007.06 1.40331 -1.3626 0
M  V30 20283 C 2007.44 2.11095 -0.0141031 0
M  V30 20284 O 2006.79 2.05321 1.00277 0
M  V30 20285 C 2007 2.38177 -2.55094 0
M  V30 20286 C 2008.34 3.01949 -2.98516 0
M  V30 20287 O 2009.37 2.48504 -2.55195 0
M  V30 20288 O 2008.23 3.98868 -3.73586 0
M  V30 20289 H 2005.32 0.627337 -0.538866 0
M  V30 20290 H 2007.87 0.671948 -1.5583 0
M  V30 20291 H 2006.64 1.84886 -3.44866 0
M  V30 20292 H 2006.26 3.18752 -2.37662 0
M  V30 20293 N 2007.26 1.30423 0.884744 0
M  V30 20294 C 2008.49 1.22184 1.66969 0
M  V30 20295 C 2008.9 -0.215259 1.87569 0
M  V30 20296 O 2008.26 -1.14224 1.42335 0
M  V30 20297 C 2008.31 1.94692 3.04593 0
M  V30 20298 O 2008.03 3.32792 2.84923 0
M  V30 20299 C 2009.53 1.93114 3.99026 0
M  V30 20300 H 2006.75 0.422826 0.521018 0
M  V30 20301 H 2009.3 1.72052 1.10537 0
M  V30 20302 H 2007.45 1.48623 3.57757 0
M  V30 20303 H 2007.87 3.69517 3.72233 0
M  V30 20304 H 2009.34 2.48386 4.92959 0
M  V30 20305 H 2009.82 0.91013 4.29666 0
M  V30 20306 H 2010.42 2.38996 3.51797 0
M  V30 20307 N 2008.74 -1.09711 1.13142 0
M  V30 20308 C 2009.67 -2.18301 0.828662 0
M  V30 20309 C 2010.65 -1.6879 -0.210733 0
M  V30 20310 O 2011.83 -1.94073 -0.0702977 0
M  V30 20311 C 2008.96 -3.46081 0.290674 0
M  V30 20312 C 2007.92 -4.0891 1.26398 0
M  V30 20313 C 2007.24 -5.3148 0.585887 0
M  V30 20314 C 2008.54 -4.51751 2.62142 0
M  V30 20315 H 2010.24 -2.43885 1.73668 0
M  V30 20316 H 2007.78 -1.17216 0.836449 0
M  V30 20317 H 2009.74 -4.21347 0.0665509 0
M  V30 20318 H 2008.46 -3.20011 -0.652716 0
M  V30 20319 H 2007.12 -3.3566 1.47405 0
M  V30 20320 H 2006.77 -5.01689 -0.362883 0
M  V30 20321 H 2006.47 -5.7447 1.23522 0
M  V30 20322 H 2007.99 -6.09472 0.370976 0
M  V30 20323 H 2009.41 -5.18255 2.45121 0
M  V30 20324 H 2007.8 -5.05615 3.23223 0
M  V30 20325 H 2008.87 -3.64297 3.20025 0
M  V30 20326 N 2010.22 -0.924476 -1.27637 0
M  V30 20327 C 2011.15 -0.378387 -2.26055 0
M  V30 20328 C 2012.16 0.489111 -1.55279 0
M  V30 20329 O 2013.35 0.302255 -1.75922 0
M  V30 20330 C 2010.45 0.476771 -3.3553 0
M  V30 20331 C 2009.62 -0.370688 -4.35826 0
M  V30 20332 C 2008.68 0.421299 -5.24511 0
M  V30 20333 O 2007.71 -0.16988 -5.68946 0
M  V30 20334 N 2008.91 1.72187 -5.54375 0
M  V30 20335 H 2011.68 -1.22438 -2.73549 0
M  V30 20336 H 2009.24 -0.791559 -1.4123 0
M  V30 20337 H 2011.23 1.01359 -3.91801 0
M  V30 20338 H 2009.8 1.22351 -2.87661 0
M  V30 20339 H 2009.02 -1.08882 -3.78864 0
M  V30 20340 H 2010.31 -0.950168 -4.99849 0
M  V30 20341 H 2009.7 2.22454 -5.20125 0
M  V30 20342 H 2008.26 2.20529 -6.1336 0
M  V30 20343 N 2011.69 1.41711 -0.689627 0
M  V30 20344 C 2012.6 2.34591 -0.0208935 0
M  V30 20345 C 2013.62 1.55906 0.772616 0
M  V30 20346 O 2014.8 1.88412 0.711542 0
M  V30 20347 C 2011.86 3.34589 0.908354 0
M  V30 20348 C 2010.92 4.29165 0.107717 0
M  V30 20349 C 2010.16 5.24386 0.992705 0
M  V30 20350 O 2010.38 5.24907 2.23224 0
M  V30 20351 O 2009.31 6.00249 0.445563 0
M  V30 20352 H 2013.14 2.93343 -0.786347 0
M  V30 20353 H 2010.72 1.42464 -0.449929 0
M  V30 20354 H 2012.61 3.95982 1.44138 0
M  V30 20355 H 2011.28 2.78288 1.6534 0
M  V30 20356 H 2010.19 3.71139 -0.469771 0
M  V30 20357 H 2011.52 4.88547 -0.598537 0
M  V30 20358 N 2013.17 0.433965 1.51507 0
M  V30 20359 C 2014.14 -0.367505 2.26234 0
M  V30 20360 C 2015.14 -0.952583 1.29547 0
M  V30 20361 O 2016.33 -0.827563 1.53287 0
M  V30 20362 C 2013.46 -1.51964 3.05155 0
M  V30 20363 H 2014.65 0.28735 2.9852 0
M  V30 20364 H 2012.2 0.187052 1.55177 0
M  V30 20365 H 2012.94 -2.21064 2.37278 0
M  V30 20366 H 2012.72 -1.10632 3.76169 0
M  V30 20367 H 2014.21 -2.08597 3.61769 0
M  V30 20368 N 2014.65 -1.56732 0.165206 0
M  V30 20369 C 2015.6 -2.18974 -0.784415 0
M  V30 20370 C 2016.59 -1.15199 -1.242 0
M  V30 20371 O 2017.8 -1.33411 -1.20837 0
M  V30 20372 H 2014.17 -0.701387 -0.27122 0
M  V30 20373 H 2016.14 -2.9747 -0.235435 0
M  V30 20374 C 2014.89 -2.83996 -2.00603 0
M  V30 20375 H 2014.22 -3.63574 -1.66295 0
M  V30 20376 H 2015.66 -3.31025 -2.6495 0
M  V30 20377 C 2014.12 -1.83448 -2.82574 0
M  V30 20378 O 2014.65 -1.31617 -3.79526 0
M  V30 20379 N 2012.85 -1.52342 -2.47468 0
M  V30 20380 H 2012.4 -1.94684 -1.68689 0
M  V30 20381 H 2012.36 -0.853184 -3.02602 0
M  V30 20382 N 2016.13 0.10854 -1.57226 0
M  V30 20383 C 2017.41 0.845372 -1.76388 0
M  V30 20384 C 2017.79 1.97577 -0.743397 0
M  V30 20385 O 2017.13 2.27333 0.230685 0
M  V30 20386 C 2017.34 1.3524 -3.21732 0
M  V30 20387 C 2018.69 1.80056 -3.84532 0
M  V30 20388 O 2019.72 1.44895 -3.25398 0
M  V30 20389 O 2018.57 2.45026 -4.88492 0
M  V30 20390 H 2015.67 0.402224 -0.722596 0
M  V30 20391 H 2018.21 0.0914662 -1.69453 0
M  V30 20392 H 2016.99 0.541866 -3.8753 0
M  V30 20393 H 2016.61 2.16871 -3.33246 0
M  V30 20394 N 2017.61 1.52975 0.379009 0
M  V30 20395 C 2018.86 1.67728 1.12028 0
M  V30 20396 C 2019.17 0.428628 1.90846 0
M  V30 20397 O 2020.37 0.456461 2.67635 0
M  V30 20398 C 2018.83 2.96454 2.04066 0
M  V30 20399 C 2018.44 4.28534 1.30624 0
M  V30 20400 C 2020.18 3.20574 2.78267 0
M  V30 20401 C 2018.09 5.4836 2.21485 0
M  V30 20402 H 2017.02 0.624902 0.421917 0
M  V30 20403 H 2019.67 1.79474 0.382288 0
M  V30 20404 H 2018.05 2.78478 2.81542 0
M  V30 20405 H 2019.23 4.57097 0.583043 0
M  V30 20406 H 2017.54 4.10754 0.683407 0
M  V30 20407 H 2020.14 4.07279 3.4645 0
M  V30 20408 H 2020.48 2.36066 3.42898 0
M  V30 20409 H 2021.01 3.39162 2.0788 0
M  V30 20410 H 2017.75 6.35305 1.61455 0
M  V30 20411 H 2017.27 5.24095 2.91692 0
M  V30 20412 H 2018.95 5.82626 2.81346 0
M  V30 20413 N 2019.08 -0.63804 1.44107 0
M  V30 20414 C 2020.01 -1.76164 1.5326 0
M  V30 20415 C 2021 -1.6566 0.386107 0
M  V30 20416 O 2022.18 -1.84525 0.605326 0
M  V30 20417 C 2019.31 -3.14665 1.4698 0
M  V30 20418 C 2018.26 -3.39949 2.60035 0
M  V30 20419 C 2017.59 -4.78409 2.38808 0
M  V30 20420 C 2018.89 -3.33193 4.02219 0
M  V30 20421 H 2020.58 -1.6876 2.47306 0
M  V30 20422 H 2018.13 -0.810483 1.19026 0
M  V30 20423 H 2020.08 -3.93037 1.51986 0
M  V30 20424 H 2018.81 -3.22835 0.494471 0
M  V30 20425 H 2017.47 -2.63955 2.54408 0
M  V30 20426 H 2017.11 -4.83274 1.39483 0
M  V30 20427 H 2016.81 -4.96285 3.14602 0
M  V30 20428 H 2018.34 -5.5902 2.4562 0
M  V30 20429 H 2019.75 -4.0148 4.09252 0
M  V30 20430 H 2018.15 -3.62605 4.78161 0
M  V30 20431 H 2019.22 -2.31116 4.26279 0
M  V30 20432 N 2020.56 -1.3089 -0.877815 0
M  V30 20433 C 2021.51 -1.17796 -2.00566 0
M  V30 20434 C 2022.5 -0.0881167 -1.69171 0
M  V30 20435 O 2023.71 -0.249467 -1.78263 0
M  V30 20436 H 2020.09 -0.364508 -0.657752 0
M  V30 20437 H 2022.06 -2.13234 -2.08743 0
M  V30 20438 C 2020.81 -0.894005 -3.3601 0
M  V30 20439 H 2020.13 -1.72472 -3.60684 0
M  V30 20440 H 2021.57 -0.842526 -4.15545 0
M  V30 20441 C 2020.03 0.403175 -3.34479 0
M  V30 20442 O 2020.56 1.42245 -3.75672 0
M  V30 20443 N 2018.76 0.416903 -2.87594 0
M  V30 20444 H 2018.31 -0.413049 -2.54267 0
M  V30 20445 H 2018.27 1.28475 -2.86952 0
M  V30 20446 N 2022.04 1.0911 -1.13723 0
M  V30 20447 C 2022.99 2.17927 -0.813066 0
M  V30 20448 C 2023.98 1.68143 0.205993 0
M  V30 20449 O 2025.19 1.7989 0.0628131 0
M  V30 20450 H 2021.56 0.710911 -0.245171 0
M  V30 20451 H 2023.53 2.42497 -1.7389 0
M  V30 20452 C 2022.28 3.46412 -0.298989 0
M  V30 20453 H 2021.61 3.85091 -1.07447 0
M  V30 20454 H 2023.05 4.23856 -0.110638 0
M  V30 20455 C 2021.51 3.22454 0.975967 0
M  V30 20456 O 2022.04 3.45385 2.05115 0
M  V30 20457 N 2020.24 2.76039 0.908345 0
M  V30 20458 H 2019.79 2.57579 0.0332379 0
M  V30 20459 H 2019.75 2.60387 1.76199 0
M  V30 20460 N 2023.52 0.931232 1.27145 0
M  V30 20461 C 2024.45 0.450505 2.29113 0
M  V30 20462 C 2025.43 -0.491043 1.62858 0
M  V30 20463 O 2026.61 -0.395036 1.9014 0
M  V30 20464 C 2023.74 -0.29432 3.46051 0
M  V30 20465 C 2022.7 0.559727 4.24324 0
M  V30 20466 C 2022.02 -0.314473 5.33774 0
M  V30 20467 C 2023.32 1.826 4.89341 0
M  V30 20468 H 2025.02 1.3027 2.69574 0
M  V30 20469 H 2022.56 0.627845 1.29592 0
M  V30 20470 H 2024.52 -0.641592 4.16487 0
M  V30 20471 H 2023.24 -1.18057 3.04516 0
M  V30 20472 H 2021.9 0.889756 3.55639 0
M  V30 20473 H 2021.55 -1.19978 4.88482 0
M  V30 20474 H 2021.25 0.253489 5.87053 0
M  V30 20475 H 2022.77 -0.657238 6.07053 0
M  V30 20476 H 2024.19 1.54659 5.52045 0
M  V30 20477 H 2022.58 2.33775 5.52693 0
M  V30 20478 H 2023.65 2.5434 4.12842 0
M  V30 20479 N 2025 -1.41343 0.697132 0
M  V30 20480 C 2025.94 -2.30777 0.0327941 0
M  V30 20481 C 2026.91 -1.47192 -0.769652 0
M  V30 20482 O 2028.1 -1.75976 -0.737366 0
M  V30 20483 C 2025.24 -3.33252 -0.896488 0
M  V30 20484 C 2024.35 -4.31915 -0.0854899 0
M  V30 20485 C 2023.49 -5.2146 -1.01256 0
M  V30 20486 C 2022.53 -6.11791 -0.194558 0
M  V30 20487 N 2021.66 -6.93813 -1.07551 0
M  V30 20488 H 2026.5 -2.87027 0.801203 0
M  V30 20489 H 2024.04 -1.41363 0.406815 0
M  V30 20490 H 2026 -3.91216 -1.44933 0
M  V30 20491 H 2024.63 -2.78548 -1.63128 0
M  V30 20492 H 2023.68 -3.75886 0.58429 0
M  V30 20493 H 2024.99 -4.95774 0.548612 0
M  V30 20494 H 2024.15 -5.84266 -1.63457 0
M  V30 20495 H 2022.89 -4.57832 -1.68051 0
M  V30 20496 H 2021.89 -5.48032 0.440518 0
M  V30 20497 H 2023.12 -6.77474 0.469626 0
M  V30 20498 H 2021.06 -6.32792 -1.72946 0
M  V30 20499 H 2020.98 -7.54364 -0.497018 0
M  V30 20500 H 2022.25 -7.61086 -1.68429 0
M  V30 20501 N 2026.48 -0.441993 -1.51275 0
M  V30 20502 C 2027.75 0.183076 -1.94741 0
M  V30 20503 C 2028.13 1.59668 -1.38092 0
M  V30 20504 O 2027.48 2.21279 -0.569882 0
M  V30 20505 C 2027.69 0.156071 -3.48651 0
M  V30 20506 C 2029.04 0.359351 -4.23077 0
M  V30 20507 O 2030.06 0.233977 -3.55431 0
M  V30 20508 O 2028.92 0.609358 -5.43092 0
M  V30 20509 H 2026.02 0.127455 -0.817119 0
M  V30 20510 H 2028.56 -0.500307 -1.62157 0
M  V30 20511 H 2027.33 -0.832021 -3.82352 0
M  V30 20512 H 2026.96 0.882165 -3.8769 0
M  V30 20513 N 2027.95 1.56642 -0.173515 0
M  V30 20514 C 2029.2 1.96949 0.470873 0
M  V30 20515 C 2029.53 1.05958 1.63105 0
M  V30 20516 O 2028.78 0.0941313 1.95473 0
M  V30 20517 C 2029.08 3.43315 0.993457 0
M  V30 20518 C 2028.75 4.50871 -0.05105 0
M  V30 20519 C 2027.41 4.80011 -0.338111 0
M  V30 20520 C 2029.76 5.1563 -0.759912 0
M  V30 20521 C 2027.09 5.71207 -1.33938 0
M  V30 20522 C 2029.44 6.07907 -1.75018 0
M  V30 20523 C 2028.11 6.35413 -2.04467 0
M  V30 20524 H 2027.38 0.720689 0.172305 0
M  V30 20525 H 2030.02 1.89644 -0.265939 0
M  V30 20526 H 2028.33 3.47583 1.80813 0
M  V30 20527 H 2030.03 3.71845 1.50108 0
M  V30 20528 H 2026.62 4.2821 0.182862 0
M  V30 20529 H 2030.8 4.93228 -0.551351 0
M  V30 20530 H 2026.06 5.908 -1.57369 0
M  V30 20531 H 2030.23 6.57154 -2.30481 0
M  V30 20532 H 2027.86 7.0588 -2.82201 0
M  V30 20533 N 2029.43 -0.1002 1.57281 0
M  V30 20534 C 2030.71 -0.836006 1.76834 0
M  V30 20535 C 2031.09 -1.9718 0.753864 0
M  V30 20536 O 2030.44 -2.27452 -0.218626 0
M  V30 20537 C 2030.65 -1.33532 3.22444 0
M  V30 20538 C 2031.99 -1.78015 3.85481 0
M  V30 20539 O 2033.02 -1.43167 3.26162 0
M  V30 20540 O 2031.88 -2.42432 4.89784 0
M  V30 20541 H 2028.97 -0.398386 0.724719 0
M  V30 20542 H 2031.52 -0.0824784 1.69499 0
M  V30 20543 H 2030.29 -0.521307 3.87812 0
M  V30 20544 H 2029.91 -2.151 3.34391 0
M  V30 20545 N 2030.91 -1.53174 -0.370891 0
M  V30 20546 C 2032.33 -1.42828 -0.712207 0
M  V30 20547 C 2032.53 -0.563111 -1.93472 0
M  V30 20548 O 2031.58 -0.0435062 -2.52463 0
M  V30 20549 C 2032.89 -2.85945 -0.930375 0
M  V30 20550 C 2034.44 -2.95542 -1.03072 0
M  V30 20551 C 2034.92 -4.39709 -1.28139 0
M  V30 20552 N 2036.41 -4.43115 -1.34921 0
M  V30 20553 C 2037.14 -5.51766 -1.56017 0
M  V30 20554 N 2036.64 -6.70473 -1.74464 0
M  V30 20555 N 2038.43 -5.39336 -1.58344 0
M  V30 20556 H 2030.58 -2.07934 0.433281 0
M  V30 20557 H 2032.85 -0.938799 0.131756 0
M  V30 20558 H 2032.55 -3.51546 -0.103966 0
M  V30 20559 H 2032.43 -3.29279 -1.83997 0
M  V30 20560 H 2034.81 -2.30098 -1.84768 0
M  V30 20561 H 2034.89 -2.5561 -0.0986256 0
M  V30 20562 H 2034.54 -5.05726 -0.469468 0
M  V30 20563 H 2034.47 -4.7721 -2.22662 0
M  V30 20564 H 2036.96 -3.57563 -1.223 0
M  V30 20565 H 2037.27 -7.49049 -1.90119 0
M  V30 20566 H 2035.62 -6.73469 -1.71653 0
M  V30 20567 H 2038.81 -4.45563 -1.43496 0
M  V30 20568 H 2038.98 -6.24078 -1.74443 0
M  V30 20569 N 2032.39 0.630389 -1.44443 0
M  V30 20570 C 2033.8 0.948649 -1.28346 0
M  V30 20571 C 2034 2.00298 -0.219776 0
M  V30 20572 O 2033.06 2.49406 0.394082 0
M  V30 20573 C 2034.37 1.41121 -2.65528 0
M  V30 20574 C 2035.92 1.52665 -2.73244 0
M  V30 20575 C 2036.4 2.02305 -4.10897 0
M  V30 20576 N 2037.89 2.09574 -4.13077 0
M  V30 20577 C 2038.62 2.49156 -5.16439 0
M  V30 20578 N 2038.12 2.87869 -6.30161 0
M  V30 20579 N 2039.91 2.49296 -5.03794 0
M  V30 20580 H 2032.06 -0.0668759 -2.12295 0
M  V30 20581 H 2034.32 0.032708 -0.947436 0
M  V30 20582 H 2034.03 0.710811 -3.44442 0
M  V30 20583 H 2033.9 2.38208 -2.92466 0
M  V30 20584 H 2036.29 2.21802 -1.94648 0
M  V30 20585 H 2036.37 0.539516 -2.50046 0
M  V30 20586 H 2036.02 1.33763 -4.89969 0
M  V30 20587 H 2035.95 3.01892 -4.31473 0
M  V30 20588 H 2038.44 1.82338 -3.31001 0
M  V30 20589 H 2038.75 3.16887 -7.04842 0
M  V30 20590 H 2037.1 2.85619 -6.33598 0
M  V30 20591 H 2040.29 2.18443 -4.14005 0
M  V30 20592 H 2040.46 2.79819 -5.8447 0
M  V30 20593 N 2033.87 1.31354 0.870861 0
M  V30 20594 C 2035.11 1.21167 1.62623 0
M  V30 20595 C 2035.44 -0.22989 1.92835 0
M  V30 20596 O 2034.72 -1.16257 1.55931 0
M  V30 20597 C 2035 2.05505 2.95702 0
M  V30 20598 C 2034.86 3.57955 2.72375 0
M  V30 20599 C 2036.17 1.90375 3.96794 0
M  V30 20600 H 2033.29 0.441517 0.590111 0
M  V30 20601 H 2035.94 1.61134 1.00676 0
M  V30 20602 H 2034.09 1.71549 3.48573 0
M  V30 20603 H 2035.76 4.02044 2.26183 0
M  V30 20604 H 2034 3.81431 2.06623 0
M  V30 20605 H 2034.67 4.12273 3.67063 0
M  V30 20606 H 2037.15 2.20089 3.53129 0
M  V30 20607 H 2036.02 2.51689 4.87795 0
M  V30 20608 H 2036.28 0.866804 4.33519 0
M  V30 20609 N 2035.34 -1.08505 1.143 0
M  V30 20610 C 2036.29 -2.17492 0.824612 0
M  V30 20611 C 2037.29 -1.6825 -0.197073 0
M  V30 20612 O 2038.49 -1.79921 -0.0532722 0
M  V30 20613 H 2034.87 -0.709601 0.248938 0
M  V30 20614 H 2036.84 -2.41572 1.75173 0
M  V30 20615 C 2035.59 -3.46249 0.317355 0
M  V30 20616 H 2034.91 -3.84516 1.09488 0
M  V30 20617 H 2036.35 -4.23791 0.133114 0
M  V30 20618 C 2034.81 -3.22967 -0.958852 0
M  V30 20619 O 2035.34 -3.46468 -2.03281 0
M  V30 20620 N 2033.54 -2.76517 -0.893693 0
M  V30 20621 H 2033.09 -2.57593 -0.0195774 0
M  V30 20622 H 2033.05 -2.61318 -1.74815 0
M  V30 20623 N 2036.82 -0.937962 -1.26649 0
M  V30 20624 C 2038.1 -0.501822 -1.89053 0
M  V30 20625 C 2038.48 1.02047 -1.84796 0
M  V30 20626 O 2037.83 1.87909 -1.3001 0
M  V30 20627 C 2038.04 -1.05952 -3.32528 0
M  V30 20628 C 2039.38 -1.12622 -4.09391 0
M  V30 20629 O 2040.41 -1.00988 -3.41584 0
M  V30 20630 O 2039.27 -1.30677 -5.30646 0
M  V30 20631 H 2036.36 -0.163048 -0.810768 0
M  V30 20632 H 2038.91 -1.03032 -1.34843 0
M  V30 20633 H 2037.68 -2.10319 -3.29972 0
M  V30 20634 H 2037.3 -0.513282 -3.94273 0
M  V30 20635 N 2038.3 1.40971 -0.704618 0
M  V30 20636 C 2039.25 2.32576 -0.0337552 0
M  V30 20637 C 2040.24 1.51452 0.758852 0
M  V30 20638 O 2041.45 1.67327 0.663455 0
M  V30 20639 H 2037.82 0.751959 0.00788634 0
M  V30 20640 H 2039.79 2.86819 -0.823248 0
M  V30 20641 C 2038.54 3.36326 0.882061 0
M  V30 20642 H 2037.87 3.98807 0.281575 0
M  V30 20643 H 2039.31 4.02942 1.31962 0
M  V30 20644 C 2037.76 2.70931 2.00245 0
M  V30 20645 O 2038.29 2.56412 3.09218 0
M  V30 20646 N 2036.5 2.29485 1.78284 0
M  V30 20647 H 2036.05 2.41494 0.89657 0
M  V30 20648 H 2036.01 1.86067 2.5343 0
M  V30 20649 N 2039.78 0.45001 1.51039 0
M  V30 20650 C 2040.73 -0.355012 2.28053 0
M  V30 20651 C 2041.7 -1.00578 1.32186 0
M  V30 20652 O 2042.88 -1.02227 1.61103 0
M  V30 20653 C 2040.02 -1.44311 3.13478 0
M  V30 20654 C 2039.13 -0.809213 4.24353 0
M  V30 20655 C 2038.27 -1.87342 4.97068 0
M  V30 20656 C 2037.31 -1.21864 5.99846 0
M  V30 20657 N 2036.44 -2.22477 6.65919 0
M  V30 20658 H 2041.28 0.308084 2.96403 0
M  V30 20659 H 2038.82 0.163778 1.46185 0
M  V30 20660 H 2040.78 -2.08539 3.61341 0
M  V30 20661 H 2039.41 -2.07566 2.47217 0
M  V30 20662 H 2038.46 -0.0548937 3.8036 0
M  V30 20663 H 2039.77 -0.291288 4.97949 0
M  V30 20664 H 2038.93 -2.59203 5.48542 0
M  V30 20665 H 2037.67 -2.42511 4.23131 0
M  V30 20666 H 2036.67 -0.48556 5.47652 0
M  V30 20667 H 2037.9 -0.674124 6.75746 0
M  V30 20668 H 2035.84 -2.76702 5.94788 0
M  V30 20669 H 2035.76 -1.75611 7.35321 0
M  V30 20670 H 2037.03 -2.93782 7.2202 0
M  V30 20671 N 2041.26 -1.56548 0.18182 0
M  V30 20672 C 2042.48 -2.01575 -0.466395 0
M  V30 20673 C 2042.9 -1.06202 -1.56098 0
M  V30 20674 O 2042.26 -0.064631 -1.82386 0
M  V30 20675 C 2042.31 -3.46366 -1.03502 0
M  V30 20676 O 2042.03 -4.38097 0.0158824 0
M  V30 20677 C 2043.53 -4.06846 -1.76042 0
M  V30 20678 H 2040.75 -0.660472 -0.118395 0
M  V30 20679 H 2043.29 -2.02481 0.286632 0
M  V30 20680 H 2041.45 -3.46201 -1.73849 0
M  V30 20681 H 2041.86 -5.22931 -0.405425 0
M  V30 20682 H 2043.34 -5.1005 -2.11076 0
M  V30 20683 H 2043.81 -3.4954 -2.65929 0
M  V30 20684 H 2044.42 -4.10745 -1.10312 0
M  V30 20685 N 2042.73 0.0918577 -1.57332 0
M  V30 20686 C 2043.7 1.09546 -2.01326 0
M  V30 20687 C 2044.7 1.32761 -0.907252 0
M  V30 20688 O 2045.89 1.2882 -1.17265 0
M  V30 20689 C 2043.02 2.44385 -2.37674 0
M  V30 20690 H 2044.21 0.71671 -2.9121 0
M  V30 20691 H 2041.77 0.337001 -1.52624 0
M  V30 20692 H 2042.5 2.8713 -1.50755 0
M  V30 20693 H 2042.29 2.28882 -3.18364 0
M  V30 20694 H 2043.78 3.16562 -2.72357 0
M  V30 20695 N 2044.21 1.53368 0.362763 0
M  V30 20696 C 2045.18 1.7933 1.42736 0
M  V30 20697 C 2046.18 0.663794 1.4646 0
M  V30 20698 O 2047.37 0.932009 1.47171 0
M  V30 20699 C 2044.5 1.91792 2.81831 0
M  V30 20700 H 2045.69 2.74412 1.20989 0
M  V30 20701 H 2043.24 1.44488 0.596058 0
M  V30 20702 H 2043.98 0.987867 3.08888 0
M  V30 20703 H 2043.76 2.73948 2.80526 0
M  V30 20704 H 2045.25 2.13461 3.58921 0
M  V30 20705 N 2045.69 -0.62272 1.44776 0
M  V30 20706 C 2046.6 -1.76282 1.54796 0
M  V30 20707 C 2047.62 -1.68522 0.433164 0
M  V30 20708 O 2048.79 -1.89149 0.691713 0
M  V30 20709 C 2045.86 -3.12697 1.49737 0
M  V30 20710 C 2044.92 -3.32026 2.72135 0
M  V30 20711 C 2044.15 -4.61933 2.67308 0
M  V30 20712 O 2044.37 -5.43282 1.73783 0
M  V30 20713 O 2043.31 -4.83646 3.58288 0
M  V30 20714 H 2047.13 -1.70781 2.51133 0
M  V30 20715 H 2044.72 -0.784974 1.27116 0
M  V30 20716 H 2046.6 -3.94001 1.4947 0
M  V30 20717 H 2045.28 -3.18723 0.565471 0
M  V30 20718 H 2044.18 -2.50368 2.77969 0
M  V30 20719 H 2045.52 -3.30868 3.644 0
M  V30 20720 N 2047.17 -1.31814 -0.863883 0
M  V30 20721 C 2048.08 -1.21951 -2.00412 0
M  V30 20722 C 2049.09 -0.13497 -1.73476 0
M  V30 20723 O 2050.27 -0.35392 -1.98266 0
M  V30 20724 C 2047.34 -0.933599 -3.33893 0
M  V30 20725 C 2046.4 -2.10565 -3.74113 0
M  V30 20726 C 2045.63 -1.83329 -5.01225 0
M  V30 20727 O 2045.85 -0.77136 -5.6516 0
M  V30 20728 O 2044.79 -2.69178 -5.38356 0
M  V30 20729 H 2048.61 -2.17786 -2.11667 0
M  V30 20730 H 2046.2 -1.11613 -0.993126 0
M  V30 20731 H 2048.08 -0.790251 -4.13924 0
M  V30 20732 H 2046.75 -0.00533113 -3.237 0
M  V30 20733 H 2045.66 -2.30443 -2.94698 0
M  V30 20734 H 2046.99 -3.01639 -3.88941 0
M  V30 20735 N 2048.65 1.07897 -1.14873 0
M  V30 20736 C 2049.61 2.13129 -0.843128 0
M  V30 20737 C 2050.61 1.60055 0.154606 0
M  V30 20738 O 2051.8 1.74041 -0.0743665 0
M  V30 20739 C 2048.93 3.39924 -0.257826 0
M  V30 20740 H 2050.12 2.41671 -1.77581 0
M  V30 20741 H 2047.68 1.23696 -0.955463 0
M  V30 20742 H 2048.41 3.17019 0.683318 0
M  V30 20743 H 2048.2 3.79745 -0.97654 0
M  V30 20744 H 2049.69 4.17555 -0.0613986 0
M  V30 20745 N 2050.12 0.944665 1.2615 0
M  V30 20746 C 2051.05 0.47478 2.28622 0
M  V30 20747 C 2052.04 -0.473742 1.6337 0
M  V30 20748 O 2053.22 -0.374847 1.90548 0
M  V30 20749 C 2050.35 -0.2576 3.46343 0
M  V30 20750 C 2049.3 0.604701 4.23707 0
M  V30 20751 C 2048.63 -0.257841 5.34078 0
M  V30 20752 C 2049.93 1.8778 4.87377 0
M  V30 20753 H 2051.62 1.33122 2.68177 0
M  V30 20754 H 2049.17 0.641555 1.28919 0
M  V30 20755 H 2051.12 -0.597382 4.17144 0
M  V30 20756 H 2049.85 -1.14821 3.05751 0
M  V30 20757 H 2048.51 0.927426 3.54675 0
M  V30 20758 H 2048.15 -1.1479 4.89727 0
M  V30 20759 H 2047.85 0.315739 5.86751 0
M  V30 20760 H 2049.38 -0.592815 6.07715 0
M  V30 20761 H 2050.79 1.60505 5.50374 0
M  V30 20762 H 2049.19 2.39623 5.50182 0
M  V30 20763 H 2050.26 2.58705 4.10122 0
M  V30 20764 N 2051.6 -1.40596 0.712085 0
M  V30 20765 C 2053.02 -1.5488 0.385286 0
M  V30 20766 C 2053.22 -1.68416 -1.10626 0
M  V30 20767 O 2052.27 -1.67179 -1.89228 0
M  V30 20768 C 2053.59 -2.77912 1.14828 0
M  V30 20769 C 2055.14 -2.91726 1.13424 0
M  V30 20770 C 2055.61 -4.17667 1.87931 0
M  V30 20771 N 2057.1 -4.2466 1.84982 0
M  V30 20772 C 2057.84 -5.21006 2.39459 0
M  V30 20773 N 2057.33 -6.23282 3.02476 0
M  V30 20774 N 2059.13 -5.1306 2.29621 0
M  V30 20775 H 2051.28 -1.30055 1.67927 0
M  V30 20776 H 2053.54 -0.628638 0.70959 0
M  V30 20777 H 2053.25 -2.74175 2.20275 0
M  V30 20778 H 2053.12 -3.69918 0.737606 0
M  V30 20779 H 2055.51 -2.94969 0.0879737 0
M  V30 20780 H 2055.59 -2.00848 1.5841 0
M  V30 20781 H 2055.23 -4.15186 2.92546 0
M  V30 20782 H 2055.16 -5.07548 1.40367 0
M  V30 20783 H 2057.65 -3.51387 1.39053 0
M  V30 20784 H 2057.97 -6.93217 3.4157 0
M  V30 20785 H 2056.31 -6.23736 3.06559 0
M  V30 20786 H 2059.5 -4.32088 1.80049 0
M  V30 20787 H 2059.67 -5.87975 2.72378 0
M  V30 20788 N 2053.08 -0.458013 -1.50798 0
M  V30 20789 C 2054.03 0.342913 -2.28238 0
M  V30 20790 C 2055 0.99876 -1.32718 0
M  V30 20791 O 2056.18 1.01371 -1.61643 0
M  V30 20792 C 2053.32 1.42646 -3.14239 0
M  V30 20793 C 2052.44 0.786698 -4.24776 0
M  V30 20794 C 2051.57 1.84704 -4.98054 0
M  V30 20795 C 2050.61 1.18681 -6.00484 0
M  V30 20796 N 2049.75 2.18942 -6.6709 0
M  V30 20797 H 2054.59 -0.323799 -2.96236 0
M  V30 20798 H 2052.12 -0.171528 -1.46097 0
M  V30 20799 H 2054.08 2.0662 -3.62442 0
M  V30 20800 H 2052.71 2.06252 -2.48314 0
M  V30 20801 H 2051.76 0.0347215 -3.80384 0
M  V30 20802 H 2053.08 0.264877 -4.98096 0
M  V30 20803 H 2052.23 2.5629 -5.49909 0
M  V30 20804 H 2050.97 2.40263 -4.24411 0
M  V30 20805 H 2049.97 0.45651 -5.47901 0
M  V30 20806 H 2051.2 0.638278 -6.76094 0
M  V30 20807 H 2049.14 2.73543 -5.96247 0
M  V30 20808 H 2049.06 1.71709 -7.36242 0
M  V30 20809 H 2050.33 2.89949 -7.23568 0
M  V30 20810 N 2054.56 1.56449 -0.190119 0
M  V30 20811 C 2055.81 1.96613 0.450146 0
M  V30 20812 C 2056.12 1.07965 1.63104 0
M  V30 20813 O 2057.33 1.3789 2.33877 0
M  V30 20814 C 2055.78 3.49664 0.852245 0
M  V30 20815 C 2055.39 4.46967 -0.304086 0
M  V30 20816 C 2057.14 3.98608 1.45987 0
M  V30 20817 C 2055.04 5.91281 0.118694 0
M  V30 20818 H 2053.97 0.734132 0.171947 0
M  V30 20819 H 2056.62 1.8133 -0.281345 0
M  V30 20820 H 2055.01 3.60432 1.64026 0
M  V30 20821 H 2056.18 4.47927 -1.08158 0
M  V30 20822 H 2054.49 4.08188 -0.822886 0
M  V30 20823 H 2057.09 5.039 1.78856 0
M  V30 20824 H 2057.43 3.42627 2.36458 0
M  V30 20825 H 2057.97 3.90933 0.735928 0
M  V30 20826 H 2054.71 6.51176 -0.751699 0
M  V30 20827 H 2054.23 5.93586 0.861154 0
M  V30 20828 H 2055.91 6.44605 0.556195 0
M  V30 20829 N 2056.04 -0.0835127 1.57379 0
M  V30 20830 C 2057.45 -0.636708 1.75508 0
M  V30 20831 C 2057.8 -1.7852 0.813942 0
M  V30 20832 O 2056.92 -2.16399 -0.00480143 0
M  V30 20833 C 2057.52 -1.16179 3.18258 0
M  V30 20834 C 2056.08 -1.66095 3.37771 0
M  V30 20835 C 2055.23 -0.575388 2.71265 0
M  V30 20836 H 2058.18 0.142613 1.58058 0
M  V30 20837 H 2058.2 -2.03087 3.2177 0
M  V30 20838 H 2057.71 -0.325679 3.86731 0
M  V30 20839 H 2055.81 -2.52068 2.74395 0
M  V30 20840 H 2055.92 -1.74596 4.46154 0
M  V30 20841 H 2054.29 -1.01763 2.33487 0
M  V30 20842 H 2055.07 0.250335 3.42386 0
M  V30 20843 N 2057.52 -1.53558 -0.354624 0
M  V30 20844 C 2058.48 -1.80084 -1.41783 0
M  V30 20845 C 2059.48 -0.671552 -1.46105 0
M  V30 20846 O 2060.67 -0.939801 -1.46674 0
M  V30 20847 C 2057.8 -1.93284 -2.8081 0
M  V30 20848 H 2058.99 -2.75049 -1.19532 0
M  V30 20849 H 2056.55 -1.44802 -0.588388 0
M  V30 20850 H 2057.28 -1.00423 -3.0836 0
M  V30 20851 H 2057.07 -2.75432 -2.7907 0
M  V30 20852 H 2058.56 -2.15361 -3.57784 0
M  V30 20853 N 2058.99 0.615033 -1.45104 0
M  V30 20854 C 2060.24 1.37029 -1.48007 0
M  V30 20855 C 2060.56 1.95213 -0.122939 0
M  V30 20856 O 2061.76 2.71484 -0.0295763 0
M  V30 20857 C 2060.22 2.48178 -2.60645 0
M  V30 20858 C 2059.83 1.96437 -4.02637 0
M  V30 20859 C 2061.57 3.25251 -2.72786 0
M  V30 20860 C 2059.48 3.05024 -5.0667 0
M  V30 20861 H 2058.41 0.515004 -0.550715 0
M  V30 20862 H 2061.06 0.659974 -1.71221 0
M  V30 20863 H 2059.44 3.2186 -2.307 0
M  V30 20864 H 2060.61 1.29514 -4.42225 0
M  V30 20865 H 2058.93 1.32132 -3.9488 0
M  V30 20866 H 2061.53 4.06229 -3.47681 0
M  V30 20867 H 2061.87 3.75776 -1.7916 0
M  V30 20868 H 2062.4 2.58666 -3.0222 0
M  V30 20869 H 2059.14 2.59425 -6.01979 0
M  V30 20870 H 2058.66 3.70538 -4.71658 0
M  V30 20871 H 2060.34 3.69532 -5.31089 0
M  V30 20872 N 2060.47 1.3227 0.85688 0
M  V30 20873 C 2061.42 1.20972 1.98667 0
M  V30 20874 C 2062.41 0.115019 1.69009 0
M  V30 20875 O 2063.62 0.277796 1.77843 0
M  V30 20876 H 2059.99 0.374926 0.65187 0
M  V30 20877 H 2061.97 2.16528 2.05324 0
M  V30 20878 C 2060.71 0.947348 3.34545 0
M  V30 20879 H 2060.04 1.78189 3.57895 0
M  V30 20880 H 2061.48 0.908529 4.14152 0
M  V30 20881 C 2059.94 -0.349912 3.35078 0
M  V30 20882 O 2060.47 -1.3625 3.77887 0
M  V30 20883 N 2058.67 -0.371097 2.88221 0
M  V30 20884 H 2058.22 0.453449 2.53578 0
M  V30 20885 H 2058.18 -1.23894 2.8896 0
M  V30 20886 N 2061.95 -1.07287 1.15444 0
M  V30 20887 C 2062.88 -2.14426 0.809571 0
M  V30 20888 C 2063.89 -1.61816 -0.178709 0
M  V30 20889 O 2065.08 -1.78444 0.044632 0
M  V30 20890 C 2062.18 -3.38406 0.182939 0
M  V30 20891 C 2061.36 -4.20365 1.20881 0
M  V30 20892 C 2060.42 -5.22724 0.603831 0
M  V30 20893 O 2059.44 -5.54852 1.26996 0
M  V30 20894 N 2060.64 -5.77242 -0.614141 0
M  V30 20895 H 2063.41 -2.44613 1.73161 0
M  V30 20896 H 2060.97 -1.23199 1.05041 0
M  V30 20897 H 2062.96 -4.0402 -0.234568 0
M  V30 20898 H 2061.53 -3.05927 -0.642451 0
M  V30 20899 H 2060.75 -3.50558 1.80285 0
M  V30 20900 H 2062.04 -4.71935 1.90144 0
M  V30 20901 H 2061.44 -5.53391 -1.17369 0
M  V30 20902 H 2059.99 -6.44482 -0.973996 0
M  V30 20903 N 2063.43 -0.951342 -1.25647 0
M  V30 20904 C 2064.66 -0.621431 -1.97347 0
M  V30 20905 C 2065.07 0.805774 -1.70742 0
M  V30 20906 O 2064.43 1.53857 -0.981537 0
M  V30 20907 C 2064.48 -0.866537 -3.50961 0
M  V30 20908 O 2064.2 -2.23762 -3.76646 0
M  V30 20909 C 2065.7 -0.548561 -4.39893 0
M  V30 20910 H 2062.92 -0.233273 -0.629146 0
M  V30 20911 H 2065.46 -1.27482 -1.59902 0
M  V30 20912 H 2063.62 -0.259607 -3.86529 0
M  V30 20913 H 2064.03 -2.30528 -4.71123 0
M  V30 20914 H 2065.51 -0.770622 -5.46594 0
M  V30 20915 H 2065.98 0.51678 -4.36149 0
M  V30 20916 H 2066.59 -1.13467 -4.09885 0
M  V30 20917 N 2064.91 1.40216 -0.719531 0
M  V30 20918 C 2066.15 2.00047 -0.25771 0
M  V30 20919 C 2066.47 1.57718 1.15692 0
M  V30 20920 O 2067.67 2.10275 1.71746 0
M  V30 20921 C 2066.13 3.57559 -0.409824 0
M  V30 20922 C 2065.74 4.08859 -1.83134 0
M  V30 20923 C 2067.48 4.24499 -0.00899594 0
M  V30 20924 C 2065.39 5.58889 -1.93383 0
M  V30 20925 H 2064.32 0.748293 -0.0925975 0
M  V30 20926 H 2066.97 1.60406 -0.891188 0
M  V30 20927 H 2065.35 3.9492 0.292302 0
M  V30 20928 H 2066.53 3.82867 -2.56417 0
M  V30 20929 H 2064.84 3.54529 -2.18399 0
M  V30 20930 H 2067.44 5.34661 -0.0647997 0
M  V30 20931 H 2067.78 4.03267 1.0335 0
M  V30 20932 H 2068.31 3.92258 -0.66171 0
M  V30 20933 H 2065.05 5.8498 -2.95767 0
M  V30 20934 H 2064.57 5.86733 -1.24517 0
M  V30 20935 H 2066.25 6.24054 -1.70778 0
M  V30 20936 N 2066.38 0.466004 1.50553 0
M  V30 20937 C 2067.61 -0.0885768 2.0671 0
M  V30 20938 C 2068.03 -1.33958 1.33044 0
M  V30 20939 O 2067.38 -1.78102 0.398219 0
M  V30 20940 C 2067.43 -0.381842 3.59478 0
M  V30 20941 O 2067.16 0.81954 4.30366 0
M  V30 20942 C 2068.66 -0.98395 4.32242 0
M  V30 20943 H 2065.88 0.00481473 0.670983 0
M  V30 20944 H 2068.42 0.653327 1.93783 0
M  V30 20945 H 2066.58 -1.07367 3.72224 0
M  V30 20946 H 2066.99 0.56106 5.21491 0
M  V30 20947 H 2068.46 -1.13895 5.40122 0
M  V30 20948 H 2068.94 -1.97271 3.92404 0
M  V30 20949 H 2069.55 -0.330654 4.24013 0
M  V30 20950 N 2067.86 -1.56346 0.198413 0
M  V30 20951 C 2068.77 -2.22855 -0.733001 0
M  V30 20952 C 2069.79 -1.22868 -1.23205 0
M  V30 20953 O 2070.96 -1.55615 -1.27852 0
M  V30 20954 C 2068.03 -2.87746 -1.93399 0
M  V30 20955 C 2067.09 -4.03012 -1.47919 0
M  V30 20956 C 2066.32 -4.64799 -2.62293 0
M  V30 20957 O 2066.55 -4.25516 -3.79859 0
M  V30 20958 O 2065.48 -5.54206 -2.34817 0
M  V30 20959 H 2069.31 -3.03063 -0.196563 0
M  V30 20960 H 2066.89 -1.49368 -0.0310254 0
M  V30 20961 H 2068.77 -3.28788 -2.63584 0
M  V30 20962 H 2067.45 -2.10514 -2.45897 0
M  V30 20963 H 2066.35 -3.66586 -0.746038 0
M  V30 20964 H 2067.69 -4.81917 -1.00084 0
M  V30 20965 N 2069.34 0.0751653 -1.57421 0
M  V30 20966 C 2070.3 1.07404 -2.02477 0
M  V30 20967 C 2071.3 1.31792 -0.921282 0
M  V30 20968 O 2072.49 1.27569 -1.18625 0
M  V30 20969 C 2069.63 2.4185 -2.40253 0
M  V30 20970 H 2070.82 0.685783 -2.91954 0
M  V30 20971 H 2068.37 0.320795 -1.52973 0
M  V30 20972 H 2069.11 2.85515 -1.53791 0
M  V30 20973 H 2068.89 2.25492 -3.20774 0
M  V30 20974 H 2070.38 3.13655 -2.75699 0
M  V30 20975 N 2070.82 1.53744 0.346476 0
M  V30 20976 C 2071.77 1.82222 1.44561 0
M  V30 20977 C 2072.76 0.69251 1.54598 0
M  V30 20978 O 2073.97 0.875797 1.57257 0
M  V30 20979 H 2070.34 0.577261 0.481948 0
M  V30 20980 H 2072.31 2.74183 1.17755 0
M  V30 20981 C 2071.06 2.04604 2.81127 0
M  V30 20982 H 2070.38 2.90983 2.74169 0
M  V30 20983 H 2071.82 2.28497 3.57162 0
M  V30 20984 C 2070.28 0.830699 3.26498 0
M  V30 20985 O 2070.81 0.0286844 4.0169 0
M  V30 20986 N 2069.02 0.648746 2.83266 0
M  V30 20987 H 2068.57 1.30257 2.22241 0
M  V30 20988 H 2068.52 -0.162972 3.13977 0
M  V30 20989 N 2072.3 -0.607329 1.45428 0
M  V30 20990 C 2073.21 -1.7463 1.56657 0
M  V30 20991 C 2074.22 -1.68053 0.451014 0
M  V30 20992 O 2075.4 -1.88405 0.711736 0
M  V30 20993 C 2072.46 -3.11092 1.53045 0
M  V30 20994 C 2071.52 -3.29121 2.75641 0
M  V30 20995 C 2070.76 -4.59072 2.72193 0
M  V30 20996 O 2070.98 -5.41408 1.79536 0
M  V30 20997 O 2069.91 -4.79819 3.63397 0
M  V30 20998 H 2073.74 -1.68108 2.5293 0
M  V30 20999 H 2071.33 -0.771447 1.27942 0
M  V30 21000 H 2073.21 -3.92394 1.5364 0
M  V30 21001 H 2071.88 -3.18105 0.599244 0
M  V30 21002 H 2070.79 -2.47406 2.80608 0
M  V30 21003 H 2072.12 -3.26984 3.67889 0
M  V30 21004 N 2073.77 -1.32722 -0.849853 0
M  V30 21005 C 2074.72 -1.2206 -1.95882 0
M  V30 21006 C 2075.69 -0.101678 -1.65788 0
M  V30 21007 O 2076.88 -0.278058 -1.88763 0
M  V30 21008 C 2074.02 -0.954544 -3.31636 0
M  V30 21009 C 2073.13 -2.15871 -3.74198 0
M  V30 21010 C 2072.26 -1.82773 -4.98766 0
M  V30 21011 C 2071.3 -2.99483 -5.33832 0
M  V30 21012 N 2070.44 -2.66445 -6.49578 0
M  V30 21013 H 2075.28 -2.16914 -2.04334 0
M  V30 21014 H 2072.82 -1.07877 -1.00004 0
M  V30 21015 H 2074.78 -0.780763 -4.09829 0
M  V30 21016 H 2073.41 -0.042781 -3.22772 0
M  V30 21017 H 2072.46 -2.4426 -2.91618 0
M  V30 21018 H 2073.77 -3.03157 -3.96102 0
M  V30 21019 H 2072.92 -1.61974 -5.84679 0
M  V30 21020 H 2071.66 -0.927067 -4.78808 0
M  V30 21021 H 2070.67 -3.20907 -4.46429 0
M  V30 21022 H 2071.89 -3.90288 -5.55745 0
M  V30 21023 H 2069.84 -1.78926 -6.31127 0
M  V30 21024 H 2069.76 -3.47262 -6.71524 0
M  V30 21025 H 2071.02 -2.49088 -7.38631 0
M  V30 21026 N 2075.25 1.06673 -1.16011 0
M  V30 21027 C 2076.48 1.83106 -0.963322 0
M  V30 21028 C 2076.9 1.82372 0.488451 0
M  V30 21029 O 2076.25 1.24012 1.33893 0
M  V30 21030 C 2076.3 3.29888 -1.47838 0
M  V30 21031 O 2076.02 3.30717 -2.87328 0
M  V30 21032 C 2077.53 4.23065 -1.32405 0
M  V30 21033 H 2074.75 0.577476 -0.341705 0
M  V30 21034 H 2077.29 1.34611 -1.53948 0
M  V30 21035 H 2075.44 3.75708 -0.944585 0
M  V30 21036 H 2075.86 4.22475 -3.1083 0
M  V30 21037 H 2077.33 5.24098 -1.73279 0
M  V30 21038 H 2077.81 4.38375 -0.269104 0
M  V30 21039 H 2078.42 3.83088 -1.84726 0
M  V30 21040 N 2076.73 0.957992 1.25141 0
M  V30 21041 C 2078.15 0.662955 1.45179 0
M  V30 21042 C 2078.35 -0.778426 1.85857 0
M  V30 21043 O 2077.4 -1.55337 1.99065 0
M  V30 21044 C 2078.72 1.63876 2.52121 0
M  V30 21045 C 2080.26 1.65031 2.65958 0
M  V30 21046 C 2080.74 2.61384 3.76089 0
M  V30 21047 N 2082.23 2.59768 3.83503 0
M  V30 21048 C 2082.96 3.30999 4.68217 0
M  V30 21049 N 2082.46 4.11715 5.57192 0
M  V30 21050 N 2084.25 3.1987 4.62211 0
M  V30 21051 H 2076.4 1.88941 0.97031 0
M  V30 21052 H 2078.67 0.812898 0.487751 0
M  V30 21053 H 2078.37 2.66846 2.29098 0
M  V30 21054 H 2078.25 1.4039 3.50101 0
M  V30 21055 H 2080.63 0.627761 2.88346 0
M  V30 21056 H 2080.72 1.92576 1.68369 0
M  V30 21057 H 2080.36 3.63767 3.54452 0
M  V30 21058 H 2080.29 2.31121 4.73171 0
M  V30 21059 H 2082.78 2.01172 3.19903 0
M  V30 21060 H 2083.09 4.62978 6.18766 0
M  V30 21061 H 2081.44 4.15812 5.56889 0
M  V30 21062 H 2084.63 2.56282 3.91711 0
M  V30 21063 H 2084.8 3.75649 5.28008 0
M  V30 21064 N 2078.21 -1.39832 0.726957 0
M  V30 21065 C 2079.12 -2.34453 0.0830837 0
M  V30 21066 C 2080.13 -1.579 -0.731009 0
M  V30 21067 O 2081.31 -1.90232 -0.661338 0
M  V30 21068 C 2078.38 -3.3688 -0.819324 0
M  V30 21069 C 2077.44 -4.293 0.00610659 0
M  V30 21070 C 2076.67 -5.26834 -0.853324 0
M  V30 21071 O 2076.89 -5.30641 -2.09228 0
M  V30 21072 O 2075.83 -6.01219 -0.286261 0
M  V30 21073 H 2079.65 -2.91155 0.863845 0
M  V30 21074 H 2077.24 -1.41221 0.487543 0
M  V30 21075 H 2079.12 -3.99665 -1.33589 0
M  V30 21076 H 2077.79 -2.82574 -1.57904 0
M  V30 21077 H 2076.7 -3.69763 0.568007 0
M  V30 21078 H 2078.03 -4.86789 0.727856 0
M  V30 21079 N 2079.69 -0.473982 -1.50304 0
M  V30 21080 C 2080.65 0.307394 -2.27129 0
M  V30 21081 C 2081.65 0.917901 -1.32027 0
M  V30 21082 O 2082.84 0.78663 -1.55428 0
M  V30 21083 C 2079.97 1.4382 -3.09077 0
M  V30 21084 H 2081.16 -0.366396 -2.97653 0
M  V30 21085 H 2078.72 -0.228128 -1.54626 0
M  V30 21086 H 2079.45 2.14696 -2.43056 0
M  V30 21087 H 2079.24 1.0062 -3.7897 0
M  V30 21088 H 2080.73 1.98932 -3.67173 0
M  V30 21089 N 2081.16 1.56239 -0.206702 0
M  V30 21090 C 2082.1 2.16873 0.741546 0
M  V30 21091 C 2083.11 1.1337 1.16838 0
M  V30 21092 O 2084.3 1.40413 1.1021 0
M  V30 21093 C 2081.4 2.72544 2.01427 0
M  V30 21094 C 2080.57 4.01068 1.74538 0
M  V30 21095 C 2079.63 4.4145 2.86371 0
M  V30 21096 O 2078.66 5.08645 2.55479 0
M  V30 21097 N 2079.86 4.05908 4.14993 0
M  V30 21098 H 2082.62 2.98869 0.222965 0
M  V30 21099 H 2080.18 1.6188 -0.0251503 0
M  V30 21100 H 2082.18 2.96538 2.75404 0
M  V30 21101 H 2080.75 1.94935 2.44375 0
M  V30 21102 H 2079.97 3.85085 0.842806 0
M  V30 21103 H 2081.25 4.84939 1.53985 0
M  V30 21104 H 2080.65 3.51882 4.4294 0
M  V30 21105 H 2079.21 4.34827 4.85561 0
M  V30 21106 N 2082.64 -0.0668159 1.57458 0
M  V30 21107 C 2083.57 -1.10569 2.00766 0
M  V30 21108 C 2084.59 -1.34696 0.914378 0
M  V30 21109 O 2085.78 -1.32848 1.19221 0
M  V30 21110 C 2082.88 -2.45556 2.33571 0
M  V30 21111 C 2082.05 -2.41316 3.64808 0
M  V30 21112 C 2081.11 -3.58451 3.85227 0
M  V30 21113 O 2080.13 -3.39654 4.56754 0
M  V30 21114 N 2081.34 -4.7898 3.27961 0
M  V30 21115 H 2084.1 -0.736847 2.90501 0
M  V30 21116 H 2081.66 -0.255392 1.59873 0
M  V30 21117 H 2083.65 -3.2257 2.44399 0
M  V30 21118 H 2082.22 -2.74424 1.497 0
M  V30 21119 H 2081.44 -1.49655 3.64688 0
M  V30 21120 H 2082.73 -2.35589 4.50972 0
M  V30 21121 H 2082.13 -4.97155 2.69913 0
M  V30 21122 H 2080.69 -5.53488 3.4423 0
M  V30 21123 N 2084.12 -1.53926 -0.338317 0
M  V30 21124 C 2085.08 -1.81578 -1.39865 0
M  V30 21125 C 2086.08 -0.687011 -1.45385 0
M  V30 21126 O 2087.27 -0.955305 -1.45669 0
M  V30 21127 C 2084.41 -1.96252 -2.78744 0
M  V30 21128 H 2085.6 -2.76302 -1.16608 0
M  V30 21129 H 2083.15 -1.45418 -0.572996 0
M  V30 21130 H 2083.89 -1.03688 -3.07277 0
M  V30 21131 H 2083.67 -2.78376 -2.76133 0
M  V30 21132 H 2085.16 -2.19144 -3.5548 0
M  V30 21133 N 2085.6 0.599608 -1.45748 0
M  V30 21134 C 2086.53 1.72038 -1.57877 0
M  V30 21135 C 2087.51 1.64578 -0.429893 0
M  V30 21136 O 2088.7 1.82855 -0.654037 0
M  V30 21137 C 2085.83 3.10657 -1.55272 0
M  V30 21138 C 2084.78 3.32936 -2.68957 0
M  V30 21139 C 2084.11 4.71909 -2.51408 0
M  V30 21140 C 2085.41 3.22412 -4.10911 0
M  V30 21141 H 2087.1 1.62144 -2.51694 0
M  V30 21142 H 2084.65 0.778641 -1.21133 0
M  V30 21143 H 2086.6 3.8887 -1.62353 0
M  V30 21144 H 2085.32 3.21411 -0.579891 0
M  V30 21145 H 2083.98 2.57117 -2.61317 0
M  V30 21146 H 2083.63 4.79406 -1.52247 0
M  V30 21147 H 2083.33 4.8777 -3.2765 0
M  V30 21148 H 2084.85 5.52311 -2.60355 0
M  V30 21149 H 2086.27 3.90488 -4.19752 0
M  V30 21150 H 2084.66 3.498 -4.87607 0
M  V30 21151 H 2085.73 2.19732 -4.32256 0
M  V30 21152 N 2087.08 1.33171 0.842803 0
M  V30 21153 C 2088.33 1.24159 1.59464 0
M  V30 21154 C 2088.65 -0.193595 1.94037 0
M  V30 21155 O 2087.92 -1.12135 1.60632 0
M  V30 21156 H 2086.5 0.456555 0.591241 0
M  V30 21157 H 2089.16 1.66842 1.00746 0
M  V30 21158 H 2088.25 1.83255 2.52634 0
M  V30 21159 N 2088.56 -1.06056 1.16576 0
M  V30 21160 C 2089.78 -1.83131 0.973539 0
M  V30 21161 C 2090.21 -1.82047 -0.473358 0
M  V30 21162 O 2089.56 -1.22303 -1.33834 0
M  V30 21163 C 2089.61 -3.2753 1.50852 0
M  V30 21164 O 2088.72 -4.06129 0.716451 0
M  V30 21165 H 2088.06 -0.566557 0.346279 0
M  V30 21166 H 2090.59 -1.33704 1.54869 0
M  V30 21167 H 2090.6 -3.78346 1.52704 0
M  V30 21168 H 2089.27 -3.27634 2.56181 0
M  V30 21169 H 2087.85 -3.64892 0.768639 0
M  V30 21170 N 2090.03 -0.964615 -1.24631 0
M  V30 21171 C 2091 -0.497206 -2.23742 0
M  V30 21172 C 2092 0.404569 -1.55627 0
M  V30 21173 O 2093.19 0.200461 -1.73043 0
M  V30 21174 C 2090.32 0.280348 -3.39745 0
M  V30 21175 H 2091.51 -1.37334 -2.66607 0
M  V30 21176 H 2089.06 -0.748889 -1.37191 0
M  V30 21177 H 2089.8 1.17372 -3.02315 0
M  V30 21178 H 2089.58 -0.366741 -3.90381 0
M  V30 21179 H 2091.07 0.596501 -4.13318 0
M  V30 21180 N 2091.51 1.39445 -0.734362 0
M  V30 21181 C 2092.47 2.28971 -0.102477 0
M  V30 21182 C 2093.47 1.46277 0.667805 0
M  V30 21183 O 2094.66 1.66962 0.496917 0
M  V30 21184 C 2091.8 3.29767 0.864107 0
M  V30 21185 H 2092.99 2.86352 -0.891208 0
M  V30 21186 H 2090.54 1.48082 -0.500154 0
M  V30 21187 H 2091.28 2.7744 1.67922 0
M  V30 21188 H 2091.06 3.90837 0.314418 0
M  V30 21189 H 2092.55 3.96757 1.30282 0
M  V30 21190 N 2092.99 0.481946 1.5005 0
M  V30 21191 C 2093.95 -0.295344 2.27289 0
M  V30 21192 C 2094.95 -0.910886 1.32512 0
M  V30 21193 O 2096.14 -0.778377 1.55843 0
M  V30 21194 C 2093.27 -1.42179 3.09835 0
M  V30 21195 H 2094.47 0.382176 2.97455 0
M  V30 21196 H 2092.02 0.236325 1.54503 0
M  V30 21197 H 2092.76 -2.13404 2.44191 0
M  V30 21198 H 2092.54 -0.986087 3.79498 0
M  V30 21199 H 2094.03 -1.96982 3.68223 0
M  V30 21200 N 2094.47 -1.56127 0.214985 0
M  V30 21201 C 2095.74 -1.8994 -0.467153 0
M  V30 21202 C 2096.12 -1.13139 -1.78221 0
M  V30 21203 O 2095.47 -0.238654 -2.2725 0
M  V30 21204 C 2095.68 -3.42576 -0.666524 0
M  V30 21205 C 2097.03 -4.13209 -0.976927 0
M  V30 21206 O 2098.05 -3.48138 -0.753545 0
M  V30 21207 O 2096.91 -5.2825 -1.40052 0
M  V30 21208 H 2094.01 -0.789533 -0.246102 0
M  V30 21209 H 2096.55 -1.67748 0.256681 0
M  V30 21210 H 2095.33 -3.90426 0.261344 0
M  V30 21211 H 2094.95 -3.70526 -1.44209 0
M  V30 21212 N 2095.95 0.0584645 -1.57492 0
M  V30 21213 C 2096.91 1.05251 -2.03605 0
M  V30 21214 C 2097.91 1.30807 -0.935209 0
M  V30 21215 O 2099.1 1.26304 -1.19971 0
M  V30 21216 C 2096.23 2.39288 -2.42804 0
M  V30 21217 H 2097.42 0.654779 -2.92665 0
M  V30 21218 H 2094.98 0.304552 -1.53304 0
M  V30 21219 H 2095.71 2.83868 -1.56811 0
M  V30 21220 H 2095.5 2.22077 -3.23147 0
M  V30 21221 H 2096.99 3.10713 -2.79011 0
M  V30 21222 N 2097.42 1.54103 0.330149 0
M  V30 21223 C 2098.65 1.75948 1.08857 0
M  V30 21224 C 2099.07 0.504949 1.81922 0
M  V30 21225 O 2098.42 -0.524053 1.74814 0
M  V30 21226 C 2098.47 2.94836 2.09175 0
M  V30 21227 O 2098.2 4.15438 1.39079 0
M  V30 21228 C 2099.7 3.28839 2.97287 0
M  V30 21229 H 2096.92 0.587551 0.324076 0
M  V30 21230 H 2099.46 2.00971 0.378279 0
M  V30 21231 H 2097.62 2.72105 2.75749 0
M  V30 21232 H 2098.03 4.82266 2.06204 0
M  V30 21233 H 2099.5 4.15343 3.63586 0
M  V30 21234 H 2099.98 2.4572 3.64031 0
M  V30 21235 H 2100.59 3.53624 2.36284 0
M  V30 21236 N 2098.9 -0.59187 1.46064 0
M  V30 21237 C 2099.81 -1.72959 1.585 0
M  V30 21238 C 2100.83 -1.67565 0.468813 0
M  V30 21239 O 2102 -1.87639 0.731679 0
M  V30 21240 C 2099.07 -3.09451 1.56336 0
M  V30 21241 C 2098.13 -3.26179 2.79117 0
M  V30 21242 C 2097.36 -4.56159 2.77046 0
M  V30 21243 O 2097.59 -5.39474 1.85268 0
M  V30 21244 O 2096.52 -4.75937 3.68466 0
M  V30 21245 H 2100.35 -1.65416 2.54699 0
M  V30 21246 H 2097.93 -0.757834 1.28753 0
M  V30 21247 H 2099.81 -3.90742 1.57793 0
M  V30 21248 H 2098.49 -3.17451 0.632949 0
M  V30 21249 H 2097.4 -2.44416 2.83217 0
M  V30 21250 H 2098.73 -3.23064 3.71336 0
M  V30 21251 N 2100.38 -1.33616 -0.835729 0
M  V30 21252 C 2101.34 -1.24042 -1.92733 0
M  V30 21253 C 2102.34 -0.158708 -1.60015 0
M  V30 21254 O 2103.53 -0.410456 -1.69295 0
M  V30 21255 C 2100.67 -0.912113 -3.28471 0
M  V30 21256 H 2101.86 -2.21075 -2.02647 0
M  V30 21257 H 2099.41 -1.1772 -1.02819 0
M  V30 21258 H 2100.15 0.0555823 -3.24252 0
M  V30 21259 H 2099.93 -1.69441 -3.53599 0
M  V30 21260 H 2101.42 -0.869957 -4.08438 0
M  V30 21261 N 2101.86 1.05436 -1.17136 0
M  V30 21262 C 2102.81 2.13124 -0.885828 0
M  V30 21263 C 2103.78 1.65235 0.169267 0
M  V30 21264 O 2104.96 1.90772 0.032594 0
M  V30 21265 C 2102.1 3.42744 -0.40256 0
M  V30 21266 C 2101.21 4.0432 -1.52149 0
M  V30 21267 C 2100.35 5.21849 -0.992347 0
M  V30 21268 C 2099.39 5.75426 -2.08689 0
M  V30 21269 N 2098.52 6.84259 -1.5727 0
M  V30 21270 H 2103.36 2.36887 -1.808 0
M  V30 21271 H 2100.9 1.16215 -0.901798 0
M  V30 21272 H 2102.86 4.17071 -0.10394 0
M  V30 21273 H 2101.49 3.19171 0.482653 0
M  V30 21274 H 2100.54 3.27456 -1.93589 0
M  V30 21275 H 2101.85 4.40127 -2.34711 0
M  V30 21276 H 2101.01 6.03236 -0.647426 0
M  V30 21277 H 2099.75 4.8751 -0.13613 0
M  V30 21278 H 2098.75 4.9267 -2.44041 0
M  V30 21279 H 2099.98 6.11813 -2.94722 0
M  V30 21280 H 2097.92 6.51822 -0.739158 0
M  V30 21281 H 2097.84 7.19055 -2.33442 0
M  V30 21282 H 2099.11 7.69304 -1.25663 0
M  V30 21283 N 2103.34 0.971211 1.24118 0
M  V30 21284 C 2104.28 0.496184 2.27246 0
M  V30 21285 C 2105.28 -0.442084 1.6353 0
M  V30 21286 O 2106.48 -0.316987 1.77187 0
M  V30 21287 H 2102.86 0.142002 0.738471 0
M  V30 21288 H 2104.83 1.37788 2.64683 0
M  V30 21289 C 2103.58 -0.194705 3.47154 0
M  V30 21290 H 2102.9 0.518169 3.96428 0
M  V30 21291 H 2104.34 -0.490853 4.21149 0
M  V30 21292 C 2102.8 -1.42287 3.05379 0
M  V30 21293 O 2103.33 -2.5197 3.12849 0
M  V30 21294 N 2101.54 -1.29018 2.60389 0
M  V30 21295 H 2101.08 -0.397753 2.54511 0
M  V30 21296 H 2101.04 -2.11305 2.32804 0
M  V30 21297 N 2104.81 -1.39054 0.741747 0
M  V30 21298 C 2105.76 -2.30556 0.106197 0
M  V30 21299 C 2106.73 -1.49566 -0.722434 0
M  V30 21300 O 2107.92 -1.78233 -0.681008 0
M  V30 21301 C 2105.06 -3.35936 -0.790013 0
M  V30 21302 C 2104.17 -4.31969 0.051964 0
M  V30 21303 C 2103.3 -5.24418 -0.846146 0
M  V30 21304 C 2102.34 -6.121 0.000177444 0
M  V30 21305 N 2101.48 -6.96884 -0.854237 0
M  V30 21306 H 2106.32 -2.84333 0.892113 0
M  V30 21307 H 2103.86 -1.39997 0.451583 0
M  V30 21308 H 2105.82 -3.95629 -1.32413 0
M  V30 21309 H 2104.45 -2.83597 -1.54183 0
M  V30 21310 H 2103.5 -3.73837 0.70358 0
M  V30 21311 H 2104.81 -4.93777 0.706061 0
M  V30 21312 H 2103.96 -5.8917 -1.44786 0
M  V30 21313 H 2102.7 -4.62947 -1.53401 0
M  V30 21314 H 2101.71 -5.46353 0.614648 0
M  V30 21315 H 2102.93 -6.75637 0.684921 0
M  V30 21316 H 2100.88 -6.37974 -1.52727 0
M  V30 21317 H 2100.8 -7.55564 -0.256771 0
M  V30 21318 H 2102.06 -7.66059 -1.4413 0
M  V30 21319 N 2106.29 -0.489897 -1.49792 0
M  V30 21320 C 2107.26 0.283286 -2.27443 0
M  V30 21321 C 2108.26 0.903846 -1.32993 0
M  V30 21322 O 2109.45 0.770101 -1.56253 0
M  V30 21323 C 2106.58 1.40534 -3.10585 0
M  V30 21324 H 2107.77 -0.397946 -2.97248 0
M  V30 21325 H 2105.32 -0.244516 -1.54376 0
M  V30 21326 H 2106.06 2.12106 -2.4532 0
M  V30 21327 H 2105.84 0.965947 -3.80016 0
M  V30 21328 H 2107.33 1.95026 -3.69262 0
M  V30 21329 N 2107.77 1.56011 -0.223262 0
M  V30 21330 C 2108.72 2.17002 0.699568 0
M  V30 21331 C 2109.7 1.11885 1.15631 0
M  V30 21332 O 2110.9 1.37868 1.11001 0
M  V30 21333 C 2108.03 2.8548 1.90673 0
M  V30 21334 C 2107.11 3.97824 1.46959 0
M  V30 21335 N 2107.5 5.00281 0.745146 0
M  V30 21336 C 2105.8 4.09945 1.75674 0
M  V30 21337 C 2106.5 5.79353 0.522003 0
M  V30 21338 N 2105.48 5.32779 1.07921 0
M  V30 21339 H 2109.28 2.93577 0.137666 0
M  V30 21340 H 2106.79 1.62381 -0.0245891 0
M  V30 21341 H 2108.79 3.27587 2.57861 0
M  V30 21342 H 2107.45 2.10401 2.47308 0
M  V30 21343 H 2108.46 5.16371 0.397658 0
M  V30 21344 H 2105.14 3.46019 2.33618 0
M  V30 21345 H 2106.53 6.71878 -0.0547031 0
M  V30 21346 N 2109.25 -0.0501116 1.5752 0
M  V30 21347 C 2110.16 -1.07459 2.08542 0
M  V30 21348 C 2111.17 -1.41006 1.01947 0
M  V30 21349 O 2112.35 -1.50749 1.33555 0
M  V30 21350 C 2109.42 -2.36274 2.53723 0
M  V30 21351 C 2108.48 -2.095 3.74711 0
M  V30 21352 C 2107.71 -3.32174 4.17728 0
M  V30 21353 O 2107.93 -4.42091 3.60432 0
M  V30 21354 O 2106.87 -3.1911 5.10346 0
M  V30 21355 H 2110.69 -0.671065 2.96193 0
M  V30 21356 H 2108.28 -0.265709 1.47018 0
M  V30 21357 H 2110.16 -3.12043 2.83208 0
M  V30 21358 H 2108.83 -2.75963 1.69192 0
M  V30 21359 H 2107.74 -1.31366 3.50277 0
M  V30 21360 H 2109.07 -1.74679 4.60161 0
M  V30 21361 N 2110.73 -1.54276 -0.321972 0
M  V30 21362 C 2111.69 -1.83051 -1.37931 0
M  V30 21363 C 2112.69 -0.702392 -1.44648 0
M  V30 21364 O 2113.88 -0.970701 -1.44648 0
M  V30 21365 C 2111.01 -1.99197 -2.76647 0
M  V30 21366 H 2112.2 -2.77523 -1.1367 0
M  V30 21367 H 2109.76 -1.46018 -0.55754 0
M  V30 21368 H 2110.49 -1.06942 -3.0616 0
M  V30 21369 H 2110.28 -2.81289 -2.73164 0
M  V30 21370 H 2111.77 -2.22902 -3.53135 0
M  V30 21371 N 2112.2 0.584116 -1.46376 0
M  V30 21372 C 2113.11 1.72116 -1.59415 0
M  V30 21373 C 2114.13 1.67314 -0.477692 0
M  V30 21374 O 2115.31 1.87248 -0.74162 0
M  V30 21375 C 2112.37 3.08617 -1.57975 0
M  V30 21376 C 2111.43 3.24694 -2.80842 0
M  V30 21377 C 2110.67 4.54683 -2.79462 0
M  V30 21378 O 2110.89 5.38484 -1.88126 0
M  V30 21379 O 2109.82 4.73977 -3.70985 0
M  V30 21380 H 2113.65 1.64062 -2.55572 0
M  V30 21381 H 2111.23 0.750995 -1.29153 0
M  V30 21382 H 2113.12 3.899 -1.59863 0
M  V30 21383 H 2111.79 3.17111 -0.649775 0
M  V30 21384 H 2110.7 2.4291 -2.84509 0
M  V30 21385 H 2112.03 3.2109 -3.73044 0
M  V30 21386 N 2113.68 1.34058 0.828631 0
M  V30 21387 C 2115.1 1.13615 1.12088 0
M  V30 21388 C 2115.3 -0.0661541 2.01391 0
M  V30 21389 O 2114.36 -0.743382 2.41309 0
M  V30 21390 C 2115.67 2.42862 1.7731 0
M  V30 21391 C 2117.22 2.48865 1.8983 0
M  V30 21392 C 2117.69 3.78099 2.58468 0
M  V30 21393 N 2119.18 3.79227 2.65972 0
M  V30 21394 C 2119.92 4.7594 3.19795 0
M  V30 21395 N 2119.41 5.83032 3.74226 0
M  V30 21396 N 2121.21 4.63402 3.18143 0
M  V30 21397 H 2113.36 2.11101 0.234506 0
M  V30 21398 H 2115.62 0.93325 0.166579 0
M  V30 21399 H 2115.33 3.30901 1.19153 0
M  V30 21400 H 2115.2 2.55776 2.77233 0
M  V30 21401 H 2117.59 1.61268 2.47137 0
M  V30 21402 H 2117.67 2.39883 0.888256 0
M  V30 21403 H 2117.31 4.66082 2.01817 0
M  V30 21404 H 2117.24 3.84361 3.59964 0
M  V30 21405 H 2119.73 3.01836 2.27384 0
M  V30 21406 H 2120.05 6.5285 4.1353 0
M  V30 21407 H 2118.39 5.86753 3.72486 0
M  V30 21408 H 2121.58 3.78889 2.74883 0
M  V30 21409 H 2121.76 5.38942 3.59786 0
M  V30 21410 N 2115.16 -1.04814 1.17694 0
M  V30 21411 C 2116.41 -1.77277 0.962076 0
M  V30 21412 C 2116.72 -1.88834 -0.509992 0
M  V30 21413 O 2117.93 -2.58075 -0.843166 0
M  V30 21414 C 2116.39 -3.18693 1.67221 0
M  V30 21415 C 2115.99 -3.15253 3.18308 0
M  V30 21416 C 2117.74 -3.95585 1.53988 0
M  V30 21417 C 2115.64 -4.51481 3.81993 0
M  V30 21418 H 2114.57 -0.66449 0.356328 0
M  V30 21419 H 2117.23 -1.17451 1.40988 0
M  V30 21420 H 2115.61 -3.78868 1.15216 0
M  V30 21421 H 2116.78 -2.64573 3.77277 0
M  V30 21422 H 2115.1 -2.51859 3.31596 0
M  V30 21423 H 2117.69 -4.96315 1.98937 0
M  V30 21424 H 2118.04 -4.13394 0.491003 0
M  V30 21425 H 2118.57 -3.41967 2.03232 0
M  V30 21426 H 2115.31 -4.38877 4.86895 0
M  V30 21427 H 2114.83 -5.02295 3.27811 0
M  V30 21428 H 2116.51 -5.20413 3.84421 0
M  V30 21429 N 2116.64 -0.977779 -1.23601 0
M  V30 21430 C 2117.6 -0.520908 -2.23202 0
M  V30 21431 C 2118.6 0.38804 -1.56048 0
M  V30 21432 O 2119.79 0.182096 -1.73246 0
M  V30 21433 C 2116.92 0.244298 -3.40024 0
M  V30 21434 H 2118.12 -1.40154 -2.65135 0
M  V30 21435 H 2115.67 -0.763397 -1.36389 0
M  V30 21436 H 2116.41 1.14159 -3.03543 0
M  V30 21437 H 2116.19 -0.408125 -3.8997 0
M  V30 21438 H 2117.68 0.55263 -4.13927 0
M  V30 21439 N 2118.12 1.38658 -0.749111 0
M  V30 21440 C 2119.34 2.0503 -0.312666 0
M  V30 21441 C 2119.77 1.56125 1.04912 0
M  V30 21442 O 2119.13 0.711236 1.66767 0
M  V30 21443 C 2119.17 3.58997 -0.339658 0
M  V30 21444 O 2118.28 4.06956 0.667887 0
M  V30 21445 H 2117.62 0.649228 -0.139282 0
M  V30 21446 H 2120.15 1.7742 -1.01898 0
M  V30 21447 H 2120.16 4.07562 -0.188968 0
M  V30 21448 H 2118.83 3.93951 -1.33325 0
M  V30 21449 H 2117.41 3.69769 0.482177 0
M  V30 21450 N 2119.6 0.497834 1.49531 0
M  V30 21451 C 2120.56 -0.27122 2.2759 0
M  V30 21452 C 2121.56 -0.89678 1.33471 0
M  V30 21453 O 2122.75 -0.761804 1.56659 0
M  V30 21454 C 2119.88 -1.38885 3.11326 0
M  V30 21455 H 2121.07 0.413704 2.97033 0
M  V30 21456 H 2118.63 0.252699 1.54244 0
M  V30 21457 H 2119.36 -2.10802 2.46441 0
M  V30 21458 H 2119.15 -0.94578 3.80523 0
M  V30 21459 H 2120.64 -1.93065 3.70291 0
M  V30 21460 N 2121.07 -1.5589 0.231532 0
M  V30 21461 C 2122.32 -1.98855 -0.398041 0
M  V30 21462 C 2122.65 -1.11925 -1.58702 0
M  V30 21463 O 2121.93 -0.179155 -1.93673 0
M  V30 21464 C 2122.21 -3.50572 -0.822893 0
M  V30 21465 C 2122.06 -4.48272 0.370417 0
M  V30 21466 C 2123.38 -4.0696 -1.67547 0
M  V30 21467 H 2120.5 -0.722953 -0.143207 0
M  V30 21468 H 2123.14 -1.87116 0.329767 0
M  V30 21469 H 2121.29 -3.60706 -1.44303 0
M  V30 21470 H 2122.97 -4.50137 1.0087 0
M  V30 21471 H 2121.21 -4.2173 1.01617 0
M  V30 21472 H 2121.88 -5.51992 0.0300558 0
M  V30 21473 H 2124.36 -3.99831 -1.15214 0
M  V30 21474 H 2123.23 -5.13412 -1.94162 0
M  V30 21475 H 2123.49 -3.5446 -2.64217 0
M  V30 21476 N 2122.55 0.0417572 -1.57545 0
M  V30 21477 C 2123.48 1.07361 -2.025 0
M  V30 21478 C 2124.5 1.33224 -0.935692 0
M  V30 21479 O 2125.69 1.30935 -1.21319 0
M  V30 21480 C 2122.79 2.41809 -2.37448 0
M  V30 21481 C 2121.96 2.35482 -3.68601 0
M  V30 21482 C 2121.02 3.52277 -3.90881 0
M  V30 21483 O 2120.04 3.32344 -4.621 0
M  V30 21484 N 2121.25 4.73702 -3.35539 0
M  V30 21485 H 2124.01 0.690538 -2.91636 0
M  V30 21486 H 2121.57 0.229926 -1.60259 0
M  V30 21487 H 2123.56 3.18641 -2.495 0
M  V30 21488 H 2122.13 2.72008 -1.54047 0
M  V30 21489 H 2121.35 1.43834 -3.67022 0
M  V30 21490 H 2122.64 2.28384 -4.54663 0
M  V30 21491 H 2122.04 4.92798 -2.77788 0
M  V30 21492 H 2120.6 5.47941 -3.52992 0
M  V30 21493 N 2124.03 1.54445 0.313786 0
M  V30 21494 C 2124.98 1.8451 1.38654 0
M  V30 21495 C 2125.95 0.692957 1.50955 0
M  V30 21496 O 2127.13 0.940344 1.66019 0
M  V30 21497 C 2124.27 2.08672 2.74863 0
M  V30 21498 C 2123.38 3.36334 2.71115 0
M  V30 21499 C 2122.52 3.50406 3.99235 0
M  V30 21500 C 2121.56 4.71907 3.89833 0
M  V30 21501 N 2120.7 4.82853 5.09703 0
M  V30 21502 H 2125.54 2.76024 1.12315 0
M  V30 21503 H 2123.07 1.36691 0.543496 0
M  V30 21504 H 2125.03 2.20675 3.5406 0
M  V30 21505 H 2123.66 1.20438 2.9949 0
M  V30 21506 H 2122.71 3.33019 1.83855 0
M  V30 21507 H 2124.02 4.25645 2.60054 0
M  V30 21508 H 2123.18 3.62004 4.86865 0
M  V30 21509 H 2121.92 2.59206 4.13115 0
M  V30 21510 H 2120.92 4.60356 3.00587 0
M  V30 21511 H 2122.15 5.64502 3.7751 0
M  V30 21512 H 2120.09 3.94572 5.2407 0
M  V30 21513 H 2120.01 5.66145 5.01015 0
M  V30 21514 H 2121.28 4.98794 5.9902 0
M  V30 21515 N 2125.51 -0.576345 1.46683 0
M  V30 21516 C 2126.46 -1.70601 1.58108 0
M  V30 21517 C 2127.45 -1.63334 0.449247 0
M  V30 21518 O 2128.66 -1.68751 0.626355 0
M  V30 21519 H 2125.03 -0.564161 0.497218 0
M  V30 21520 H 2127 -1.58098 2.53076 0
M  V30 21521 C 2125.75 -3.08983 1.59452 0
M  V30 21522 H 2125.07 -3.15247 2.45885 0
M  V30 21523 H 2126.51 -3.87768 1.715 0
M  V30 21524 C 2124.97 -3.35335 0.324303 0
M  V30 21525 O 2125.5 -3.9745 -0.58277 0
M  V30 21526 N 2123.71 -2.89838 0.21024 0
M  V30 21527 H 2123.26 -2.39471 0.949293 0
M  V30 21528 H 2123.21 -3.07843 -0.638752 0
M  V30 21529 N 2126.99 -1.34495 -0.82151 0
M  V30 21530 C 2127.95 -1.2608 -1.91407 0
M  V30 21531 C 2128.95 -0.175671 -1.59838 0
M  V30 21532 O 2130.14 -0.428389 -1.6885 0
M  V30 21533 C 2127.27 -0.9469 -3.27485 0
M  V30 21534 H 2128.46 -2.23212 -2.00291 0
M  V30 21535 H 2126.02 -1.18804 -1.01565 0
M  V30 21536 H 2126.75 0.0211878 -3.24293 0
M  V30 21537 H 2126.54 -1.73181 -3.51782 0
M  V30 21538 H 2128.03 -0.913228 -4.07492 0
M  V30 21539 N 2128.46 1.04188 -1.18248 0
M  V30 21540 C 2129.69 1.81021 -1.00194 0
M  V30 21541 C 2130.11 1.83367 0.449658 0
M  V30 21542 O 2129.46 1.26824 1.31232 0
M  V30 21543 C 2129.52 3.26678 -1.54802 0
M  V30 21544 O 2129.24 3.24548 -2.94279 0
M  V30 21545 C 2130.74 4.20161 -1.41349 0
M  V30 21546 H 2127.96 0.570098 -0.353877 0
M  V30 21547 H 2130.5 1.31316 -1.56769 0
M  V30 21548 H 2128.66 3.7362 -1.02407 0
M  V30 21549 H 2129.07 4.15787 -3.19721 0
M  V30 21550 H 2130.54 5.20304 -1.84357 0
M  V30 21551 H 2131.02 4.37705 -0.362029 0
M  V30 21552 H 2131.63 3.79083 -1.92811 0
M  V30 21553 N 2129.94 0.98432 1.23081 0
M  V30 21554 C 2131.17 0.673202 1.9617 0
M  V30 21555 C 2131.59 -0.753958 1.72328 0
M  V30 21556 O 2130.95 -1.51414 0.997167 0
M  V30 21557 C 2131 0.974266 3.47189 0
M  V30 21558 O 2130.1 0.0683695 4.12343 0
M  V30 21559 H 2129.44 0.252801 0.613993 0
M  V30 21560 H 2131.97 1.31898 1.5641 0
M  V30 21561 H 2131.98 0.912577 3.97663 0
M  V30 21562 H 2130.66 2.01426 3.63868 0
M  V30 21563 H 2129.24 0.184805 3.72442 0
M  V30 21564 N 2131.42 -1.38259 0.756453 0
M  V30 21565 C 2132.65 -2.04335 0.324799 0
M  V30 21566 C 2133.06 -1.57053 -1.04784 0
M  V30 21567 O 2132.42 -0.744882 -1.66607 0
M  V30 21568 C 2132.47 -3.59882 0.341597 0
M  V30 21569 O 2132.19 -4.0543 1.66008 0
M  V30 21570 C 2133.69 -4.43179 -0.103565 0
M  V30 21571 H 2130.91 -0.656588 0.138324 0
M  V30 21572 H 2133.46 -1.76894 1.02611 0
M  V30 21573 H 2131.61 -3.8615 -0.310997 0
M  V30 21574 H 2132.03 -4.99876 1.58822 0
M  V30 21575 H 2133.5 -5.51985 -0.0406515 0
M  V30 21576 H 2133.98 -4.23827 -1.15185 0
M  V30 21577 H 2134.58 -4.22106 0.520263 0
M  V30 21578 N 2132.9 -0.505757 -1.49264 0
M  V30 21579 C 2133.85 0.270127 -2.29214 0
M  V30 21580 C 2134.82 0.956031 -1.35828 0
M  V30 21581 O 2136 0.961771 -1.64787 0
M  V30 21582 C 2133.14 1.32577 -3.18618 0
M  V30 21583 C 2132.25 0.65116 -4.27064 0
M  V30 21584 C 2131.39 1.68765 -5.03678 0
M  V30 21585 C 2130.43 0.995172 -6.03956 0
M  V30 21586 N 2129.56 1.97608 -6.73718 0
M  V30 21587 H 2134.4 -0.41788 -2.95056 0
M  V30 21588 H 2131.94 -0.217921 -1.45477 0
M  V30 21589 H 2133.9 1.94985 -3.68832 0
M  V30 21590 H 2132.53 1.98248 -2.5475 0
M  V30 21591 H 2131.58 -0.0863124 -3.80302 0
M  V30 21592 H 2132.89 0.106277 -4.98687 0
M  V30 21593 H 2132.05 2.38665 -5.57785 0
M  V30 21594 H 2130.79 2.2664 -4.3184 0
M  V30 21595 H 2129.79 0.281968 -5.49076 0
M  V30 21596 H 2131.02 0.422861 -6.77782 0
M  V30 21597 H 2128.96 2.54436 -6.04647 0
M  V30 21598 H 2128.88 1.48199 -7.41332 0
M  V30 21599 H 2130.15 2.66782 -7.32426 0
M  V30 21600 N 2134.38 1.55765 -0.239796 0
M  V30 21601 C 2135.34 2.19809 0.649364 0
M  V30 21602 C 2136.34 1.16526 1.10808 0
M  V30 21603 O 2137.53 1.41651 1.01394 0
M  V30 21604 C 2134.66 2.83599 1.89168 0
M  V30 21605 H 2135.85 2.99763 0.0907114 0
M  V30 21606 H 2133.41 1.56297 0.00977153 0
M  V30 21607 H 2134.14 2.07564 2.49174 0
M  V30 21608 H 2133.93 3.5925 1.57104 0
M  V30 21609 H 2135.42 3.32634 2.52477 0
M  V30 21610 N 2135.85 -0.0334016 1.57565 0
M  V30 21611 C 2136.76 -1.05241 2.0967 0
M  V30 21612 C 2137.78 -1.39917 1.03437 0
M  V30 21613 O 2138.96 -1.49324 1.35146 0
M  V30 21614 C 2136.02 -2.3357 2.56215 0
M  V30 21615 C 2135.08 -2.05514 3.76912 0
M  V30 21616 C 2134.32 -3.27724 4.21227 0
M  V30 21617 O 2134.54 -4.38244 3.65101 0
M  V30 21618 O 2133.47 -3.13679 5.13701 0
M  V30 21619 H 2137.3 -0.639612 2.96888 0
M  V30 21620 H 2134.88 -0.250101 1.47292 0
M  V30 21621 H 2136.77 -3.09022 2.86502 0
M  V30 21622 H 2135.44 -2.74153 1.7211 0
M  V30 21623 H 2134.35 -1.27644 3.5165 0
M  V30 21624 H 2135.68 -1.69789 4.61988 0
M  V30 21625 N 2137.33 -1.54609 -0.305591 0
M  V30 21626 C 2138.3 -1.84504 -1.35982 0
M  V30 21627 C 2139.3 -0.717695 -1.43895 0
M  V30 21628 O 2140.49 -0.985988 -1.4361 0
M  V30 21629 C 2137.62 -2.0212 -2.74518 0
M  V30 21630 H 2138.81 -2.78713 -1.10721 0
M  V30 21631 H 2136.36 -1.46601 -0.542022 0
M  V30 21632 H 2137.1 -1.10183 -3.05009 0
M  V30 21633 H 2136.88 -2.84171 -2.70166 0
M  V30 21634 H 2138.37 -2.26635 -3.50751 0
M  V30 21635 N 2138.81 0.568558 -1.46987 0
M  V30 21636 C 2139.72 1.70416 -1.61232 0
M  V30 21637 C 2140.74 1.66798 -0.495411 0
M  V30 21638 O 2141.91 1.86451 -0.761438 0
M  V30 21639 C 2138.98 3.06924 -1.6124 0
M  V30 21640 C 2138.04 3.21697 -2.8427 0
M  V30 21641 C 2137.27 4.51694 -2.84268 0
M  V30 21642 O 2137.49 5.36458 -1.93827 0
M  V30 21643 O 2136.43 4.70015 -3.75991 0
M  V30 21644 H 2140.25 1.61343 -2.57298 0
M  V30 21645 H 2137.84 0.737255 -1.29942 0
M  V30 21646 H 2139.72 3.88182 -1.6399 0
M  V30 21647 H 2138.4 3.16404 -0.683373 0
M  V30 21648 H 2137.3 2.39879 -2.87069 0
M  V30 21649 H 2138.64 3.17115 -3.76429 0
M  V30 21650 N 2140.29 1.34929 0.814366 0
M  V30 21651 C 2141.7 1.14798 1.10877 0
M  V30 21652 C 2141.9 -0.0447901 2.0145 0
M  V30 21653 O 2140.96 -0.717746 2.42084 0
M  V30 21654 C 2142.27 2.44729 1.74724 0
M  V30 21655 C 2143.82 2.50864 1.8718 0
M  V30 21656 C 2144.3 3.80819 2.54443 0
M  V30 21657 N 2145.79 3.82027 2.61935 0
M  V30 21658 C 2146.52 4.79305 3.14729 0
M  V30 21659 N 2146.02 5.86969 3.68021 0
M  V30 21660 N 2147.81 4.6675 3.1321 0
M  V30 21661 H 2139.96 2.11338 0.212102 0
M  V30 21662 H 2142.23 0.934964 0.156671 0
M  V30 21663 H 2141.93 3.32146 1.15637 0
M  V30 21664 H 2141.81 2.58702 2.74505 0
M  V30 21665 H 2144.19 1.6388 2.45412 0
M  V30 21666 H 2144.27 2.40811 0.862763 0
M  V30 21667 H 2143.92 4.68196 1.96862 0
M  V30 21668 H 2143.85 3.88157 3.55867 0
M  V30 21669 H 2146.34 3.04231 2.2417 0
M  V30 21670 H 2146.65 6.57199 4.06582 0
M  V30 21671 H 2145 5.90671 3.66241 0
M  V30 21672 H 2148.19 3.81784 2.70849 0
M  V30 21673 H 2148.36 5.42728 3.54049 0
M  V30 21674 N 2141.77 -1.0356 1.18799 0
M  V30 21675 C 2142.99 -1.80487 1.01153 0
M  V30 21676 C 2143.41 -1.83603 -0.439927 0
M  V30 21677 O 2142.77 -1.27518 -1.30558 0
M  V30 21678 C 2142.82 -3.25853 1.56532 0
M  V30 21679 O 2142.54 -3.22983 2.95996 0
M  V30 21680 C 2144.04 -4.19406 1.43575 0
M  V30 21681 H 2141.26 -0.568214 0.356895 0
M  V30 21682 H 2143.8 -1.30482 1.57463 0
M  V30 21683 H 2141.96 -3.73071 1.04387 0
M  V30 21684 H 2142.37 -4.14085 3.21922 0
M  V30 21685 H 2143.85 -5.19319 1.87114 0
M  V30 21686 H 2144.32 -4.37507 0.385237 0
M  V30 21687 H 2144.93 -3.78055 1.94818 0
M  V30 21688 N 2143.25 -0.990834 -1.22557 0
M  V30 21689 C 2144.49 -0.665533 -1.91251 0
M  V30 21690 C 2144.82 0.802172 -1.77188 0
M  V30 21691 O 2144.08 1.5954 -1.13339 0
M  V30 21692 C 2144.37 -1.01474 -3.42692 0
M  V30 21693 C 2144.04 -2.47437 -3.76943 0
M  V30 21694 C 2142.7 -2.87325 -3.86002 0
M  V30 21695 C 2145.05 -3.42055 -3.93253 0
M  V30 21696 C 2142.38 -4.20825 -4.08807 0
M  V30 21697 C 2144.73 -4.75211 -4.17561 0
M  V30 21698 C 2143.4 -5.14843 -4.24844 0
M  V30 21699 H 2142.67 -0.243536 -0.699837 0
M  V30 21700 H 2145.32 -1.24664 -1.45366 0
M  V30 21701 H 2143.62 -0.351686 -3.90218 0
M  V30 21702 H 2145.32 -0.741104 -3.94092 0
M  V30 21703 H 2141.91 -2.15518 -3.70473 0
M  V30 21704 H 2146.09 -3.1241 -3.85634 0
M  V30 21705 H 2141.35 -4.51123 -4.12672 0
M  V30 21706 H 2145.52 -5.48475 -4.29125 0
M  V30 21707 H 2143.15 -6.18306 -4.42268 0
M  V30 21708 N 2144.72 1.37856 -0.763775 0
M  V30 21709 C 2145.69 2.28702 -0.151022 0
M  V30 21710 C 2146.69 1.47661 0.636627 0
M  V30 21711 O 2147.88 1.67979 0.46139 0
M  V30 21712 C 2145.01 3.31525 0.793965 0
M  V30 21713 H 2146.2 2.84397 -0.951747 0
M  V30 21714 H 2143.75 1.46987 -0.531452 0
M  V30 21715 H 2144.49 2.80939 1.61999 0
M  V30 21716 H 2144.27 3.91416 0.231444 0
M  V30 21717 H 2145.76 3.99432 1.21837 0
M  V30 21718 N 2146.2 0.513665 1.48994 0
M  V30 21719 C 2147.11 -0.262214 2.3313 0
M  V30 21720 C 2148.13 -0.955024 1.45449 0
M  V30 21721 O 2149.3 -0.933603 1.78454 0
M  V30 21722 C 2146.37 -1.30529 3.2119 0
M  V30 21723 C 2145.43 -0.624574 4.24732 0
M  V30 21724 C 2144.66 -1.61795 5.08584 0
M  V30 21725 O 2144.89 -2.84907 4.9415 0
M  V30 21726 O 2143.82 -1.16631 5.90492 0
M  V30 21727 H 2147.65 0.426785 3.00686 0
M  V30 21728 H 2145.23 0.274809 1.46851 0
M  V30 21729 H 2147.11 -1.90848 3.75706 0
M  V30 21730 H 2145.79 -1.97699 2.56314 0
M  V30 21731 H 2144.69 0.0186867 3.74095 0
M  V30 21732 H 2146.03 0.00489798 4.922 0
M  V30 21733 N 2147.68 -1.55636 0.248053 0
M  V30 21734 C 2148.93 -1.99266 -0.376927 0
M  V30 21735 C 2149.26 -1.13602 -1.57506 0
M  V30 21736 O 2148.53 -0.199686 -1.93472 0
M  V30 21737 C 2148.82 -3.51425 -0.785664 0
M  V30 21738 C 2148.67 -4.47854 0.417942 0
M  V30 21739 C 2149.99 -4.08714 -1.63221 0
M  V30 21740 H 2147.11 -0.724431 -0.135531 0
M  V30 21741 H 2149.75 -1.86756 0.349594 0
M  V30 21742 H 2147.9 -3.62216 -1.40469 0
M  V30 21743 H 2149.57 -4.49041 1.05638 0
M  V30 21744 H 2147.81 -4.20629 1.06084 0
M  V30 21745 H 2148.49 -5.51929 0.0886002 0
M  V30 21746 H 2150.96 -4.01031 -1.10966 0
M  V30 21747 H 2149.84 -5.15443 -1.88706 0
M  V30 21748 H 2150.1 -3.57242 -2.60443 0
M  V30 21749 N 2149.16 0.0250451 -1.5758 0
M  V30 21750 C 2150.39 0.72671 -1.93718 0
M  V30 21751 C 2150.8 1.68677 -0.848148 0
M  V30 21752 O 2150.16 1.81658 0.175105 0
M  V30 21753 C 2150.21 1.4803 -3.29802 0
M  V30 21754 O 2149.93 0.55877 -4.34522 0
M  V30 21755 C 2151.43 2.27876 -3.80247 0
M  V30 21756 H 2148.65 0.203986 -0.639242 0
M  V30 21757 H 2151.19 -0.0186251 -2.04492 0
M  V30 21758 H 2149.35 2.17748 -3.20413 0
M  V30 21759 H 2149.76 1.08769 -5.13098 0
M  V30 21760 H 2151.24 2.7614 -4.77965 0
M  V30 21761 H 2151.71 3.09471 -3.11648 0
M  V30 21762 H 2152.32 1.63224 -3.92731 0
M  V30 21763 N 2150.64 1.54769 0.297388 0
M  V30 21764 C 2151.91 1.64904 1.05195 0
M  V30 21765 C 2152.29 0.499658 2.05102 0
M  V30 21766 O 2151.64 -0.503202 2.2289 0
M  V30 21767 C 2151.85 3.03071 1.73058 0
M  V30 21768 C 2153.2 3.60007 2.25123 0
M  V30 21769 O 2154.22 3.05546 1.83085 0
M  V30 21770 O 2153.08 4.55371 3.02158 0
M  V30 21771 H 2150.18 0.668805 0.486444 0
M  V30 21772 H 2152.72 1.67113 0.295187 0
M  V30 21773 H 2151.49 3.78165 1.00534 0
M  V30 21774 H 2151.12 3.04655 2.55482 0
M  V30 21775 N 2152.11 -0.560755 1.47286 0
M  V30 21776 C 2153.04 -1.67792 1.62383 0
M  V30 21777 C 2154.02 -1.6338 0.473377 0
M  V30 21778 O 2155.21 -1.81057 0.702288 0
M  V30 21779 C 2152.34 -3.06431 1.63454 0
M  V30 21780 C 2151.29 -3.25688 2.7769 0
M  V30 21781 C 2150.62 -4.65078 2.63831 0
M  V30 21782 C 2151.92 -3.11404 4.19315 0
M  V30 21783 H 2153.61 -1.55414 2.55904 0
M  V30 21784 H 2151.16 -0.746251 1.23155 0
M  V30 21785 H 2153.11 -3.84428 1.72606 0
M  V30 21786 H 2151.84 -3.1976 0.664904 0
M  V30 21787 H 2150.5 -2.50098 2.68042 0
M  V30 21788 H 2150.14 -4.75201 1.64904 0
M  V30 21789 H 2149.84 -4.78911 3.40467 0
M  V30 21790 H 2151.37 -5.45214 2.74907 0
M  V30 21791 H 2152.78 -3.79222 4.29958 0
M  V30 21792 H 2151.18 -3.36749 4.9671 0
M  V30 21793 H 2152.25 -2.08195 4.3793 0
M  V30 21794 N 2153.59 -1.35359 -0.807199 0
M  V30 21795 C 2154.87 -1.19163 -1.55111 0
M  V30 21796 C 2155.25 0.22949 -2.09849 0
M  V30 21797 O 2154.6 1.23292 -1.92383 0
M  V30 21798 C 2154.81 -2.25917 -2.66012 0
M  V30 21799 C 2156.15 -2.61693 -3.34368 0
M  V30 21800 O 2157.18 -2.24826 -2.76282 0
M  V30 21801 O 2156.04 -3.25083 -4.39299 0
M  V30 21802 H 2153.13 -0.462906 -0.685308 0
M  V30 21803 H 2155.68 -1.47039 -0.847213 0
M  V30 21804 H 2154.45 -3.21238 -2.23432 0
M  V30 21805 H 2154.07 -1.99307 -3.44038 0
M  V30 21806 N 2155.07 1.02928 -1.19346 0
M  V30 21807 C 2156.02 2.1331 -0.927441 0
M  V30 21808 C 2157.01 1.68998 0.116575 0
M  V30 21809 O 2158.22 1.7997 -0.0326311 0
M  V30 21810 H 2154.59 0.696916 -0.282511 0
M  V30 21811 H 2156.56 2.32939 -1.865 0
M  V30 21812 C 2155.31 3.4434 -0.482194 0
M  V30 21813 H 2154.64 3.78854 -1.27709 0
M  V30 21814 H 2156.08 4.22673 -0.335159 0
M  V30 21815 C 2154.53 3.27174 0.803669 0
M  V30 21816 O 2155.06 3.55772 1.86519 0
M  V30 21817 N 2153.27 2.80466 0.760745 0
M  V30 21818 H 2152.82 2.57393 -0.103346 0
M  V30 21819 H 2152.78 2.69361 1.62149 0
M  V30 21820 N 2156.55 0.997319 1.2203 0
M  V30 21821 C 2157.46 0.560352 2.2781 0
M  V30 21822 C 2158.47 -0.392977 1.69504 0
M  V30 21823 O 2159.65 -0.258715 1.99731 0
M  V30 21824 C 2156.71 -0.113747 3.46513 0
M  V30 21825 C 2155.78 0.883099 4.20119 0
M  V30 21826 C 2155.01 0.241074 5.33155 0
M  V30 21827 O 2155.23 -0.963972 5.62195 0
M  V30 21828 O 2154.17 0.948154 5.94385 0
M  V30 21829 H 2157.99 1.44049 2.67364 0
M  V30 21830 H 2155.58 0.765793 1.28281 0
M  V30 21831 H 2157.46 -0.491137 4.18528 0
M  V30 21832 H 2156.13 -0.968387 3.08875 0
M  V30 21833 H 2155.04 1.3115 3.50358 0
M  V30 21834 H 2156.37 1.70708 4.61649 0
M  V30 21835 N 2158.03 -1.37449 0.771075 0
M  V30 21836 C 2159.27 -2.00004 0.335588 0
M  V30 21837 C 2159.61 -1.6107 -1.0849 0
M  V30 21838 O 2158.88 -0.856568 -1.74623 0
M  V30 21839 C 2159.16 -3.56908 0.478386 0
M  V30 21840 C 2159.02 -4.05753 1.94124 0
M  V30 21841 C 2160.34 -4.39942 -0.117748 0
M  V30 21842 H 2157.45 -0.726594 0.12341 0
M  V30 21843 H 2160.1 -1.63136 0.973992 0
M  V30 21844 H 2158.25 -3.88445 -0.0651015 0
M  V30 21845 H 2159.92 -3.84784 2.54438 0
M  V30 21846 H 2158.16 -3.57971 2.45029 0
M  V30 21847 H 2158.83 -5.14796 1.99222 0
M  V30 21848 H 2161.31 -4.14659 0.34597 0
M  V30 21849 H 2160.18 -5.48899 0.0123067 0
M  V30 21850 H 2160.45 -4.25276 -1.20799 0
M  V30 21851 N 2159.5 -0.52156 -1.4872 0
M  V30 21852 C 2160.45 0.259278 -2.3115 0
M  V30 21853 C 2161.45 0.943463 -1.40695 0
M  V30 21854 O 2162.65 0.868807 -1.57644 0
M  V30 21855 H 2159.03 0.10248 -0.744984 0
M  V30 21856 H 2161 -0.455653 -2.94901 0
M  V30 21857 C 2159.75 1.29841 -3.22547 0
M  V30 21858 H 2159.07 0.781352 -3.9209 0
M  V30 21859 H 2160.51 1.81634 -3.83125 0
M  V30 21860 C 2158.97 2.32757 -2.43569 0
M  V30 21861 O 2159.5 3.39036 -2.15448 0
M  V30 21862 N 2157.71 2.05753 -2.05217 0
M  V30 21863 H 2157.25 1.19343 -2.28287 0
M  V30 21864 H 2157.21 2.74836 -1.52685 0
M  V30 21865 N 2160.98 1.55502 -0.256304 0
M  V30 21866 C 2161.93 2.23175 0.655412 0
M  V30 21867 C 2162.92 1.22244 1.17272 0
M  V30 21868 O 2164.13 1.40229 1.12853 0
M  V30 21869 H 2160.51 0.716007 0.229866 0
M  V30 21870 H 2162.48 2.98336 0.0616012 0
M  V30 21871 C 2161.23 2.95209 1.83704 0
M  V30 21872 H 2160.55 3.72651 1.44814 0
M  V30 21873 H 2161.99 3.45909 2.452 0
M  V30 21874 C 2160.45 1.99611 2.71398 0
M  V30 21875 O 2160.98 1.53521 3.71207 0
M  V30 21876 N 2159.18 1.66511 2.38165 0
M  V30 21877 H 2158.73 2.04188 1.57051 0
M  V30 21878 H 2158.69 1.02816 2.97113 0
M  V30 21879 N 2162.46 -0.0166879 1.57591 0
M  V30 21880 C 2163.39 -1.04687 2.02771 0
M  V30 21881 C 2164.37 -1.34455 0.914357 0
M  V30 21882 O 2165.56 -1.46903 1.18118 0
M  V30 21883 C 2162.68 -2.37861 2.41122 0
M  V30 21884 C 2161.73 -2.23867 3.63023 0
M  V30 21885 S 2162.56 -1.58041 5.11648 0
M  V30 21886 C 2163.72 -2.92679 5.53254 0
M  V30 21887 H 2163.95 -0.662104 2.89834 0
M  V30 21888 H 2161.48 -0.227051 1.52721 0
M  V30 21889 H 2163.44 -3.14441 2.63888 0
M  V30 21890 H 2162.1 -2.73481 1.54488 0
M  V30 21891 H 2161.3 -3.22208 3.87554 0
M  V30 21892 H 2160.9 -1.5543 3.40173 0
M  V30 21893 H 2163.19 -3.89 5.54694 0
M  V30 21894 H 2164.13 -2.72868 6.53413 0
M  V30 21895 H 2164.54 -2.95821 4.80781 0
M  V30 21896 N 2163.94 -1.54924 -0.289176 0
M  V30 21897 C 2164.87 -1.89696 -1.36153 0
M  V30 21898 C 2165.85 -0.757081 -1.52323 0
M  V30 21899 O 2167.03 -1.01384 -1.65635 0
M  V30 21900 C 2164.16 -2.15468 -2.7238 0
M  V30 21901 C 2163.12 -3.31307 -2.70961 0
M  V30 21902 C 2162.44 -3.42522 -4.10588 0
M  V30 21903 C 2163.74 -4.68117 -2.31655 0
M  V30 21904 H 2165.44 -2.79513 -1.07299 0
M  V30 21905 H 2162.98 -1.34486 -0.514723 0
M  V30 21906 H 2164.94 -2.3838 -3.47495 0
M  V30 21907 H 2163.66 -1.22435 -3.02783 0
M  V30 21908 H 2162.32 -3.08337 -1.98302 0
M  V30 21909 H 2161.97 -2.46985 -4.38187 0
M  V30 21910 H 2161.67 -4.20397 -4.10537 0
M  V30 21911 H 2163.19 -3.67708 -4.87466 0
M  V30 21912 H 2164.61 -4.9068 -2.96489 0
M  V30 21913 H 2163 -5.4879 -2.42796 0
M  V30 21914 H 2164.07 -4.68033 -1.26781 0
M  V30 21915 N 2165.42 0.552936 -1.47582 0
M  V30 21916 C 2166.36 1.65963 -1.60389 0
M  V30 21917 C 2167.33 1.59979 -0.446754 0
M  V30 21918 O 2168.52 1.78749 -0.667351 0
M  V30 21919 C 2165.66 3.04278 -1.62815 0
M  V30 21920 C 2164.77 3.20668 -2.89476 0
M  V30 21921 C 2163.91 4.49406 -2.8321 0
M  V30 21922 C 2162.95 4.59243 -4.04676 0
M  V30 21923 N 2162.08 5.79341 -3.96621 0
M  V30 21924 H 2166.92 1.54355 -2.54909 0
M  V30 21925 H 2164.46 0.751844 -1.26435 0
M  V30 21926 H 2166.42 3.84377 -1.62204 0
M  V30 21927 H 2165.05 3.14712 -0.718048 0
M  V30 21928 H 2164.1 2.33973 -2.99935 0
M  V30 21929 H 2165.41 3.238 -3.79414 0
M  V30 21930 H 2164.57 5.3777 -2.80872 0
M  V30 21931 H 2163.3 4.4876 -1.90961 0
M  V30 21932 H 2162.31 3.69291 -4.07314 0
M  V30 21933 H 2163.53 4.61645 -4.98057 0
M  V30 21934 H 2161.48 5.79636 -3.07178 0
M  V30 21935 H 2161.4 5.8387 -4.80242 0
M  V30 21936 H 2162.67 6.70054 -3.98306 0
M  V30 21937 N 2166.89 1.35785 0.800009 0
M  V30 21938 C 2167.83 1.25104 1.92046 0
M  V30 21939 C 2168.84 0.172854 1.6188 0
M  V30 21940 O 2170.03 0.426685 1.73325 0
M  V30 21941 C 2167.13 0.905182 3.26588 0
M  V30 21942 C 2166.3 2.08308 3.84612 0
M  V30 21943 C 2165.36 1.71196 4.97572 0
M  V30 21944 O 2164.39 2.43153 5.1465 0
M  V30 21945 N 2165.59 0.639434 5.76967 0
M  V30 21946 H 2168.35 2.21638 2.01734 0
M  V30 21947 H 2165.91 1.29041 0.977759 0
M  V30 21948 H 2167.91 0.638273 3.99635 0
M  V30 21949 H 2166.48 0.02931 3.12586 0
M  V30 21950 H 2165.7 2.51341 3.0368 0
M  V30 21951 H 2166.98 2.87028 4.2011 0
M  V30 21952 H 2166.38 0.0417276 5.65685 0
M  V30 21953 H 2164.94 0.432323 6.50365 0
M  V30 21954 N 2168.37 -1.02294 1.19891 0
M  V30 21955 C 2169.3 -2.12589 0.965816 0
M  V30 21956 C 2170.28 -1.69788 -0.102962 0
M  V30 21957 O 2171.47 -1.94127 0.0532676 0
M  V30 21958 C 2168.6 -3.43532 0.510181 0
M  V30 21959 C 2167.55 -4.00044 1.52147 0
M  V30 21960 C 2166.88 -5.26679 0.922703 0
M  V30 21961 C 2168.18 -4.34165 2.90341 0
M  V30 21962 H 2169.87 -2.32347 1.88826 0
M  V30 21963 H 2167.42 -1.11659 0.9093 0
M  V30 21964 H 2169.37 -4.20071 0.334377 0
M  V30 21965 H 2168.1 -3.23514 -0.447879 0
M  V30 21966 H 2166.75 -3.25606 1.68453 0
M  V30 21967 H 2166.4 -5.02982 -0.0430931 0
M  V30 21968 H 2166.1 -5.65452 1.59806 0
M  V30 21969 H 2167.63 -6.05879 0.757827 0
M  V30 21970 H 2169.04 -5.01617 2.77584 0
M  V30 21971 H 2167.44 -4.84036 3.54724 0
M  V30 21972 H 2168.51 -3.43207 3.42545 0
M  V30 21973 N 2169.85 -1.00378 -1.21499 0
M  V30 21974 C 2170.78 -0.521384 -2.23191 0
M  V30 21975 C 2171.8 0.389369 -1.58075 0
M  V30 21976 O 2172.98 0.189763 -1.77488 0
M  V30 21977 C 2170.08 0.262422 -3.37882 0
M  V30 21978 C 2169.26 -0.647107 -4.32587 0
M  V30 21979 C 2168.32 0.0868769 -5.26128 0
M  V30 21980 O 2167.34 -0.531365 -5.66714 0
M  V30 21981 N 2168.54 1.36582 -5.64203 0
M  V30 21982 H 2171.31 -1.39587 -2.65208 0
M  V30 21983 H 2168.87 -0.879774 -1.3591 0
M  V30 21984 H 2170.86 0.762368 -3.97454 0
M  V30 21985 H 2169.43 1.03809 -2.9486 0
M  V30 21986 H 2168.65 -1.32756 -3.71173 0
M  V30 21987 H 2169.94 -1.26613 -4.92795 0
M  V30 21988 H 2169.34 1.88926 -5.3322 0
M  V30 21989 H 2167.9 1.81075 -6.26143 0
M  V30 21990 N 2171.33 1.37038 -0.778354 0
M  V30 21991 C 2172.24 2.33983 -0.170042 0
M  V30 21992 C 2173.25 1.60504 0.671902 0
M  V30 21993 O 2174.43 1.92556 0.590278 0
M  V30 21994 C 2171.5 3.39689 0.693729 0
M  V30 21995 C 2170.56 4.28981 -0.165434 0
M  V30 21996 C 2169.79 5.29638 0.657205 0
M  V30 21997 O 2170.01 5.38041 1.8939 0
M  V30 21998 O 2168.95 6.01867 0.0629255 0
M  V30 21999 H 2172.77 2.87749 -0.97131 0
M  V30 22000 H 2170.36 1.39314 -0.53962 0
M  V30 22001 H 2172.24 4.04348 1.18664 0
M  V30 22002 H 2170.91 2.8824 1.47307 0
M  V30 22003 H 2169.82 3.674 -0.704851 0
M  V30 22004 H 2171.15 4.83752 -0.908023 0
M  V30 22005 N 2172.81 0.529439 1.48441 0
M  V30 22006 C 2173.77 -0.222884 2.28114 0
M  V30 22007 C 2174.77 -0.868268 1.35343 0
M  V30 22008 O 2175.96 -0.728402 1.5824 0
M  V30 22009 C 2173.09 -1.3225 3.14202 0
M  V30 22010 H 2174.29 0.476616 2.96088 0
M  V30 22011 H 2171.84 0.28536 1.53673 0
M  V30 22012 H 2172.57 -2.05527 2.50857 0
M  V30 22013 H 2172.36 -0.864853 3.82443 0
M  V30 22014 H 2173.85 -1.85168 3.74303 0
M  V30 22015 N 2174.29 -1.55364 0.264547 0
M  V30 22016 C 2175.2 -2.25763 -0.637821 0
M  V30 22017 C 2176.21 -1.27983 -1.17883 0
M  V30 22018 O 2177.39 -1.60897 -1.21136 0
M  V30 22019 C 2174.45 -2.95689 -1.81021 0
M  V30 22020 C 2173.51 -4.08923 -1.30693 0
M  V30 22021 C 2172.75 -4.75505 -2.42344 0
M  V30 22022 O 2172.97 -4.41244 -3.61469 0
M  V30 22023 O 2171.9 -5.63667 -2.111 0
M  V30 22024 H 2175.73 -3.03624 -0.0678471 0
M  V30 22025 H 2173.31 -1.49365 0.0323545 0
M  V30 22026 H 2175.2 -3.39671 -2.49402 0
M  V30 22027 H 2173.87 -2.20754 -2.36747 0
M  V30 22028 H 2172.78 -3.6942 -0.589885 0
M  V30 22029 H 2174.11 -4.85728 -0.795542 0
M  V30 22030 N 2175.76 0.00833021 -1.57598 0
M  V30 22031 C 2176.71 1.00242 -2.07895 0
M  V30 22032 C 2177.68 1.34651 -0.972534 0
M  V30 22033 O 2178.87 1.44632 -1.24444 0
M  V30 22034 C 2176.01 2.2918 -2.58013 0
M  V30 22035 C 2175.12 2.00747 -3.82524 0
M  V30 22036 C 2174.25 3.23706 -4.21175 0
M  V30 22037 C 2173.29 2.90921 -5.38546 0
M  V30 22038 N 2172.43 4.06392 -5.72529 0
M  V30 22039 H 2177.27 0.566561 -2.92565 0
M  V30 22040 H 2174.81 0.268106 -1.44636 0
M  V30 22041 H 2176.76 3.04546 -2.85145 0
M  V30 22042 H 2175.39 2.7045 -1.76229 0
M  V30 22043 H 2174.45 1.15786 -3.6235 0
M  V30 22044 H 2175.76 1.72576 -4.67995 0
M  V30 22045 H 2174.91 4.07424 -4.49545 0
M  V30 22046 H 2173.65 3.55007 -3.34397 0
M  V30 22047 H 2172.66 2.05609 -5.09907 0
M  V30 22048 H 2173.88 2.60875 -6.26993 0
M  V30 22049 H 2171.83 4.37606 -4.88709 0
M  V30 22050 H 2171.74 3.81717 -6.52555 0
M  V30 22051 H 2173.01 4.90923 -6.05487 0
M  V30 22052 N 2177.24 1.55075 0.280956 0
M  V30 22053 C 2178.15 1.90495 1.36927 0
M  V30 22054 C 2179.17 0.801283 1.54452 0
M  V30 22055 O 2180.34 1.09962 1.68732 0
M  V30 22056 C 2177.41 2.16264 2.70981 0
M  V30 22057 C 2176.47 3.39872 2.6227 0
M  V30 22058 C 2175.7 3.64402 3.89932 0
M  V30 22059 O 2175.93 2.91582 4.90241 0
M  V30 22060 O 2174.86 4.57934 3.90615 0
M  V30 22061 H 2178.69 2.83123 1.09888 0
M  V30 22062 H 2176.27 1.4152 0.478787 0
M  V30 22063 H 2178.15 2.34299 3.5026 0
M  V30 22064 H 2176.83 1.2682 2.97823 0
M  V30 22065 H 2175.73 3.2718 1.81395 0
M  V30 22066 H 2177.07 4.2951 2.40379 0
M  V30 22067 N 2178.72 -0.545102 1.47873 0
M  V30 22068 C 2179.65 -1.6606 1.64153 0
M  V30 22069 C 2180.63 -1.62869 0.490679 0
M  V30 22070 O 2181.82 -1.80302 0.721451 0
M  V30 22071 C 2178.95 -3.04681 1.66694 0
M  V30 22072 C 2177.9 -3.22724 2.81128 0
M  V30 22073 C 2177.23 -4.62253 2.68749 0
M  V30 22074 C 2178.53 -3.06939 4.22594 0
M  V30 22075 H 2180.22 -1.52691 2.57538 0
M  V30 22076 H 2177.77 -0.733146 1.23939 0
M  V30 22077 H 2179.72 -3.82576 1.76674 0
M  V30 22078 H 2178.44 -3.19037 0.698781 0
M  V30 22079 H 2177.1 -2.47241 2.7068 0
M  V30 22080 H 2176.75 -4.73425 1.69935 0
M  V30 22081 H 2176.45 -4.75273 3.45527 0
M  V30 22082 H 2177.97 -5.42268 2.80674 0
M  V30 22083 H 2179.39 -3.7464 4.33956 0
M  V30 22084 H 2177.78 -3.31461 5.00253 0
M  V30 22085 H 2178.85 -2.03538 4.40114 0
M  V30 22086 N 2180.2 -1.36208 -0.792797 0
M  V30 22087 C 2181.14 -1.30258 -1.90529 0
M  V30 22088 C 2182.11 -0.171903 -1.65208 0
M  V30 22089 O 2183.3 -0.357869 -1.87414 0
M  V30 22090 C 2180.44 -1.09434 -3.27289 0
M  V30 22091 C 2179.55 -2.31548 -3.64705 0
M  V30 22092 C 2178.69 -2.03763 -4.90565 0
M  V30 22093 C 2177.73 -3.21855 -5.20649 0
M  V30 22094 N 2176.86 -2.93756 -6.37692 0
M  V30 22095 H 2181.7 -2.25385 -1.9495 0
M  V30 22096 H 2179.24 -1.12022 -0.953389 0
M  V30 22097 H 2181.2 -0.953883 -4.06149 0
M  V30 22098 H 2179.83 -0.179641 -3.223 0
M  V30 22099 H 2178.88 -2.56409 -2.80996 0
M  V30 22100 H 2180.19 -3.19685 -3.82888 0
M  V30 22101 H 2179.35 -1.86627 -5.77283 0
M  V30 22102 H 2178.09 -1.12931 -4.74445 0
M  V30 22103 H 2177.09 -3.39553 -4.32416 0
M  V30 22104 H 2178.32 -4.13507 -5.38691 0
M  V30 22105 H 2176.26 -2.05533 -6.2297 0
M  V30 22106 H 2176.18 -3.75431 -6.56192 0
M  V30 22107 H 2177.45 -2.80192 -7.27401 0
M  V30 22108 N 2181.68 1.01656 -1.20431 0
M  V30 22109 C 2183.09 1.27562 -0.959176 0
M  V30 22110 C 2183.29 1.98235 0.361268 0
M  V30 22111 O 2182.35 2.27772 1.08979 0
M  V30 22112 C 2183.66 2.11061 -2.14181 0
M  V30 22113 C 2185.21 2.24327 -2.1828 0
M  V30 22114 C 2185.68 3.11204 -3.3603 0
M  V30 22115 N 2187.17 3.18793 -3.36044 0
M  V30 22116 C 2187.91 3.86239 -4.23801 0
M  V30 22117 N 2187.41 4.55811 -5.21736 0
M  V30 22118 N 2189.2 3.82763 -4.11642 0
M  V30 22119 H 2181.35 0.542057 -2.05367 0
M  V30 22120 H 2183.61 0.30186 -0.898657 0
M  V30 22121 H 2183.32 1.66468 -3.09808 0
M  V30 22122 H 2183.19 3.11798 -2.12278 0
M  V30 22123 H 2185.58 2.68145 -1.23216 0
M  V30 22124 H 2185.66 1.23099 -2.24232 0
M  V30 22125 H 2185.3 2.68092 -4.3138 0
M  V30 22126 H 2185.23 4.1252 -3.27315 0
M  V30 22127 H 2187.73 2.69255 -2.6516 0
M  V30 22128 H 2188.04 5.04944 -5.85023 0
M  V30 22129 H 2186.38 4.54635 -5.25673 0
M  V30 22130 H 2189.57 3.27557 -3.34401 0
M  V30 22131 H 2189.75 4.3505 -4.80245 0
M  V30 22132 N 2183.15 1.01021 1.20965 0
M  V30 22133 C 2184.1 0.575015 2.23522 0
M  V30 22134 C 2185.07 -0.401609 1.61172 0
M  V30 22135 O 2186.26 -0.302487 1.88387 0
M  V30 22136 C 2183.4 -0.0869827 3.4499 0
M  V30 22137 C 2182.51 0.933442 4.21795 0
M  V30 22138 C 2181.64 0.243164 5.30643 0
M  V30 22139 C 2180.68 1.25078 5.99184 0
M  V30 22140 N 2179.82 0.587617 6.99637 0
M  V30 22141 H 2184.66 1.45423 2.60108 0
M  V30 22142 H 2182.2 0.728091 1.27817 0
M  V30 22143 H 2184.15 -0.487872 4.14338 0
M  V30 22144 H 2182.78 -0.929881 3.09117 0
M  V30 22145 H 2181.84 1.45254 3.51576 0
M  V30 22146 H 2183.15 1.70003 4.68936 0
M  V30 22147 H 2182.3 -0.213561 6.06324 0
M  V30 22148 H 2181.04 -0.555781 4.84523 0
M  V30 22149 H 2180.05 1.71796 5.2227 0
M  V30 22150 H 2181.27 2.0509 6.47391 0
M  V30 22151 H 2179.22 -0.191575 6.5572 0
M  V30 22152 H 2179.13 1.29237 7.44872 0
M  V30 22153 H 2180.4 0.154271 7.79347 0
M  V30 22154 N 2184.63 -1.36623 0.78561 0
M  V30 22155 C 2185.56 -2.28776 0.139379 0
M  V30 22156 C 2186.58 -1.49297 -0.649162 0
M  V30 22157 O 2187.77 -1.71786 -0.484971 0
M  V30 22158 C 2184.87 -3.28685 -0.825808 0
M  V30 22159 C 2184.04 -4.37311 -0.0881363 0
M  V30 22160 C 2183.1 -5.17206 -0.96871 0
M  V30 22161 O 2182.12 -5.67593 -0.427359 0
M  V30 22162 N 2183.33 -5.33275 -2.29342 0
M  V30 22163 H 2186.09 -2.84875 0.930938 0
M  V30 22164 H 2183.65 -1.48748 0.639179 0
M  V30 22165 H 2185.64 -3.7902 -1.41865 0
M  V30 22166 H 2184.21 -2.73254 -1.51826 0
M  V30 22167 H 2183.43 -3.8819 0.685747 0
M  V30 22168 H 2184.72 -5.07055 0.421052 0
M  V30 22169 H 2184.12 -4.93946 -2.75743 0
M  V30 22170 H 2182.68 -5.86868 -2.83599 0
M  V30 22171 N 2186.11 -0.537304 -1.48158 0
M  V30 22172 C 2187.39 0.0588571 -1.95511 0
M  V30 22173 C 2187.77 1.50563 -1.47966 0
M  V30 22174 O 2187.11 2.17207 -0.709454 0
M  V30 22175 C 2187.32 -0.0659743 -3.48938 0
M  V30 22176 C 2188.67 0.089563 -4.24506 0
M  V30 22177 O 2189.7 0.00746266 -3.56199 0
M  V30 22178 O 2188.56 0.262738 -5.45868 0
M  V30 22179 H 2185.65 0.0752315 -0.823571 0
M  V30 22180 H 2188.2 -0.60242 -1.58647 0
M  V30 22181 H 2186.97 -1.0735 -3.76287 0
M  V30 22182 H 2186.59 0.633822 -3.92516 0
M  V30 22183 N 2187.59 1.55221 -0.272782 0
M  V30 22184 C 2188.87 1.91543 0.396336 0
M  V30 22185 C 2189.25 1.19676 1.73899 0
M  V30 22186 O 2188.59 0.322832 2.26208 0
M  V30 22187 C 2188.8 3.44814 0.53892 0
M  V30 22188 C 2190.15 4.1655 0.822894 0
M  V30 22189 O 2191.18 3.50695 0.623816 0
M  V30 22190 O 2190.03 5.33084 1.2035 0
M  V30 22191 H 2187.13 0.798123 0.21663 0
M  V30 22192 H 2189.67 1.66679 -0.318762 0
M  V30 22193 H 2188.45 3.89187 -0.406068 0
M  V30 22194 H 2188.07 3.75623 1.30358 0
M  V30 22195 N 2189.07 2.77022e-05 1.576 0
M  V30 22196 C 2190.03 -0.976217 2.07371 0
M  V30 22197 C 2191.03 -1.27246 0.983113 0
M  V30 22198 O 2192.22 -1.21764 1.24576 0
M  V30 22199 C 2189.35 -2.30112 2.51518 0
M  V30 22200 H 2190.54 -0.545707 2.94893 0
M  V30 22201 H 2188.1 -0.247444 1.54329 0
M  V30 22202 H 2188.83 -2.77852 1.67239 0
M  V30 22203 H 2188.62 -2.09931 3.31167 0
M  V30 22204 H 2190.11 -3.00144 2.9035 0
M  V30 22205 N 2190.54 -1.55222 -0.272728 0
M  V30 22206 C 2191.82 -1.66557 -1.02559 0
M  V30 22207 C 2192.2 -0.532225 -2.04281 0
M  V30 22208 O 2191.55 0.467678 -2.23663 0
M  V30 22209 C 2191.76 -3.05785 -1.68215 0
M  V30 22210 C 2193.11 -3.63543 -2.19367 0
M  V30 22211 O 2194.13 -3.0842 -1.78201 0
M  V30 22212 O 2192.99 -4.60121 -2.94875 0
M  V30 22213 H 2190.08 -0.67646 -0.475743 0
M  V30 22214 H 2192.63 -1.67561 -0.268564 0
M  V30 22215 H 2191.4 -3.79716 -0.945046 0
M  V30 22216 H 2191.03 -3.08681 -2.50603 0
M  V30 22217 N 2192.02 0.537252 -1.4816 0
M  V30 22218 C 2192.95 1.65828 -1.58221 0
M  V30 22219 C 2193.97 1.55959 -0.466975 0
M  V30 22220 O 2195.16 1.62552 -0.737499 0
M  V30 22221 C 2192.26 3.04432 -1.48911 0
M  V30 22222 C 2191.43 3.39855 -2.75349 0
M  V30 22223 C 2190.49 4.57708 -2.59596 0
M  V30 22224 O 2189.51 4.61291 -3.33465 0
M  V30 22225 N 2190.72 5.55436 -1.68734 0
M  V30 22226 H 2193.48 1.57637 -2.54893 0
M  V30 22227 H 2191.04 0.72436 -1.44792 0
M  V30 22228 H 2193.03 3.81136 -1.36078 0
M  V30 22229 H 2191.6 3.0674 -0.602422 0
M  V30 22230 H 2190.82 2.52401 -3.028 0
M  V30 22231 H 2192.11 3.60305 -3.59246 0
M  V30 22232 H 2191.51 5.55313 -1.07908 0
M  V30 22233 H 2190.07 6.31387 -1.61843 0
M  V30 22234 N 2193.5 1.36626 0.785562 0
M  V30 22235 C 2194.78 1.21615 1.53196 0
M  V30 22236 C 2195.16 -0.196076 2.10187 0
M  V30 22237 O 2194.51 -1.20216 1.94321 0
M  V30 22238 C 2194.72 2.30121 2.62384 0
M  V30 22239 C 2196.06 2.6698 3.30162 0
M  V30 22240 O 2197.09 2.29193 2.7267 0
M  V30 22241 O 2195.95 3.32031 4.34071 0
M  V30 22242 H 2193.04 0.47375 0.677857 0
M  V30 22243 H 2195.59 1.48368 0.823713 0
M  V30 22244 H 2194.36 3.24752 2.18293 0
M  V30 22245 H 2193.98 2.04756 3.40824 0
M  V30 22246 N 2194.98 -1.01016 1.20969 0
M  V30 22247 C 2195.91 -2.09374 0.907615 0
M  V30 22248 C 2196.89 -1.61971 -0.14284 0
M  V30 22249 O 2198.07 -1.88494 -0.0150059 0
M  V30 22250 C 2195.2 -3.36762 0.36185 0
M  V30 22251 C 2194.25 -4.03065 1.3943 0
M  V30 22252 S 2195.08 -4.46145 2.96167 0
M  V30 22253 C 2196.24 -5.76726 2.43183 0
M  V30 22254 H 2196.47 -2.34675 1.82524 0
M  V30 22255 H 2194 -1.14223 1.03886 0
M  V30 22256 H 2195.96 -4.10465 0.0535244 0
M  V30 22257 H 2194.62 -3.09521 -0.534376 0
M  V30 22258 H 2193.81 -4.94735 0.96194 0
M  V30 22259 H 2193.42 -3.35614 1.65044 0
M  V30 22260 H 2195.71 -6.5222 1.83346 0
M  V30 22261 H 2196.65 -6.24767 3.33275 0
M  V30 22262 H 2197.06 -5.33298 1.85078 0
M  V30 22263 N 2196.46 -1.01661 -1.20428 0
M  V30 22264 C 2197.39 -0.53156 -2.21923 0
M  V30 22265 C 2198.37 0.421005 -1.57055 0
M  V30 22266 O 2199.55 0.341002 -1.8539 0
M  V30 22267 C 2196.68 0.226436 -3.37942 0
M  V30 22268 C 2195.72 -0.675684 -4.21114 0
M  V30 22269 S 2196.56 -2.14484 -4.9067 0
M  V30 22270 C 2197.71 -1.39701 -6.1011 0
M  V30 22271 H 2197.95 -1.39155 -2.62723 0
M  V30 22272 H 2195.48 -0.825502 -1.30479 0
M  V30 22273 H 2197.44 0.657666 -4.05197 0
M  V30 22274 H 2196.1 1.06199 -2.95602 0
M  V30 22275 H 2195.29 -0.0911965 -5.03917 0
M  V30 22276 H 2194.89 -1.04469 -3.59113 0
M  V30 22277 H 2197.19 -0.677015 -6.74109 0
M  V30 22278 H 2198.13 -2.20118 -6.73018 0
M  V30 22279 H 2198.54 -0.899884 -5.57281 0
M  V30 22280 N 2197.93 1.36205 -0.792844 0
M  V30 22281 C 2198.87 2.27773 -0.139462 0
M  V30 22282 C 2199.85 1.47399 0.686464 0
M  V30 22283 O 2201.03 1.76691 0.656707 0
M  V30 22284 C 2198.16 3.28924 0.807889 0
M  V30 22285 C 2197.2 4.26453 0.063325 0
M  V30 22286 S 2198.04 5.20386 -1.26328 0
M  V30 22287 C 2199.19 6.25081 -0.32002 0
M  V30 22288 H 2199.42 2.82842 -0.915859 0
M  V30 22289 H 2196.96 1.42797 -0.587228 0
M  V30 22290 H 2198.92 3.87701 1.34901 0
M  V30 22291 H 2197.58 2.72762 1.55756 0
M  V30 22292 H 2196.77 4.97892 0.782299 0
M  V30 22293 H 2196.37 3.71774 -0.407418 0
M  V30 22294 H 2198.66 6.75653 0.499866 0
M  V30 22295 H 2199.61 7.00958 -1.00319 0
M  V30 22296 H 2200.01 5.64446 0.0781702 0
M  V30 22297 N 2199.41 0.545154 1.47871 0
M  V30 22298 C 2200.38 -0.198677 2.28337 0
M  V30 22299 C 2201.38 -0.853864 1.36256 0
M  V30 22300 O 2202.57 -0.711578 1.59004 0
M  V30 22301 C 2199.7 -1.2891 3.15587 0
M  V30 22302 H 2200.89 0.507993 2.95566 0
M  V30 22303 H 2198.44 0.301643 1.53362 0
M  V30 22304 H 2199.18 -2.02855 2.53023 0
M  V30 22305 H 2198.96 -0.824241 3.83339 0
M  V30 22306 H 2200.45 -1.81187 3.76246 0
M  V30 22307 N 2200.89 -1.55074 0.28101 0
M  V30 22308 C 2202.14 -1.99331 -0.33342 0
M  V30 22309 C 2202.46 -1.17087 -1.55934 0
M  V30 22310 O 2201.73 -0.261839 -1.94142 0
M  V30 22311 H 2200.31 -0.736265 -0.126184 0
M  V30 22312 H 2202.97 -1.91005 0.387712 0
M  V30 22313 H 2202.07 -3.05895 -0.619238 0
M  V30 22314 N 2202.37 -0.00838561 -1.57598 0
M  V30 22315 C 2203.3 1.01448 -2.0441 0
M  V30 22316 C 2204.28 1.32984 -0.935632 0
M  V30 22317 O 2205.46 1.45005 -1.2044 0
M  V30 22318 C 2202.59 2.33995 -2.44876 0
M  V30 22319 C 2201.64 2.18063 -3.66539 0
M  V30 22320 S 2202.47 1.49881 -5.14097 0
M  V30 22321 C 2203.63 2.8384 -5.5784 0
M  V30 22322 H 2203.86 0.61591 -2.9085 0
M  V30 22323 H 2201.39 0.202726 -1.53063 0
M  V30 22324 H 2203.35 3.10203 -2.68857 0
M  V30 22325 H 2202.01 2.70989 -1.5882 0
M  V30 22326 H 2201.2 3.16001 -3.92631 0
M  V30 22327 H 2200.81 1.49998 -3.42603 0
M  V30 22328 H 2203.1 3.80126 -5.60813 0
M  V30 22329 H 2204.04 2.62438 -6.57672 0
M  V30 22330 H 2204.45 2.88135 -4.85426 0
M  V30 22331 N 2203.85 1.55365 0.264492 0
M  V30 22332 C 2204.81 1.88044 1.31042 0
M  V30 22333 C 2205.81 0.755594 1.41942 0
M  V30 22334 O 2207 1.02372 1.40946 0
M  V30 22335 C 2204.13 2.09327 2.69063 0
M  V30 22336 H 2205.33 2.81551 1.03292 0
M  V30 22337 H 2202.88 1.47986 0.502963 0
M  V30 22338 H 2203.61 1.18231 3.0198 0
M  V30 22339 H 2203.4 2.91234 2.62536 0
M  V30 22340 H 2204.89 2.35854 3.44619 0
M  V30 22341 N 2205.33 -0.529387 1.48443 0
M  V30 22342 C 2206.55 -1.31468 1.60409 0
M  V30 22343 C 2206.98 -1.86227 0.264771 0
M  V30 22344 O 2206.33 -1.64433 -0.763639 0
M  V30 22345 C 2206.38 -2.44096 2.65423 0
M  V30 22346 O 2205.49 -3.47149 2.22624 0
M  V30 22347 H 2204.83 -0.389348 0.53787 0
M  V30 22348 H 2207.36 -0.636931 1.94433 0
M  V30 22349 H 2207.37 -2.90274 2.86715 0
M  V30 22350 H 2206.04 -2.03601 3.62656 0
M  V30 22351 H 2204.62 -3.07086 2.11548 0
M  V30 22352 N 2206.8 -1.37041 -0.778305 0
M  V30 22353 C 2207.74 -1.28143 -1.90032 0
M  V30 22354 C 2208.75 -0.198586 -1.61584 0
M  V30 22355 O 2209.94 -0.454206 -1.72625 0
M  V30 22356 C 2207.04 -0.957025 -3.25107 0
M  V30 22357 C 2206.21 -2.14401 -3.81249 0
M  V30 22358 C 2205.27 -1.79091 -4.94786 0
M  V30 22359 O 2204.3 -2.5131 -5.10717 0
M  V30 22360 N 2205.5 -0.731144 -5.75877 0
M  V30 22361 H 2208.26 -2.24819 -1.98183 0
M  V30 22362 H 2205.82 -1.3058 -0.957106 0
M  V30 22363 H 2207.82 -0.701771 -3.98569 0
M  V30 22364 H 2206.39 -0.0790361 -3.125 0
M  V30 22365 H 2205.61 -2.56141 -2.99642 0
M  V30 22366 H 2206.89 -2.93675 -4.1549 0
M  V30 22367 H 2206.29 -0.131718 -5.65547 0
M  V30 22368 H 2204.85 -0.535736 -6.49595 0
M  V30 22369 N 2208.28 1.00373 -1.21503 0
M  V30 22370 C 2209.24 2.07336 -0.976963 0
M  V30 22371 C 2210.24 1.60714 0.052504 0
M  V30 22372 O 2211.43 1.73216 -0.1849 0
M  V30 22373 C 2208.57 3.37596 -0.473483 0
M  V30 22374 H 2209.76 2.29889 -1.92591 0
M  V30 22375 H 2207.31 1.17369 -1.03219 0
M  V30 22376 H 2208.05 3.20723 0.480323 0
M  V30 22377 H 2207.83 3.72766 -1.21607 0
M  V30 22378 H 2209.32 4.16319 -0.326824 0
M  V30 22379 N 2209.76 1.02298 1.19887 0
M  V30 22380 C 2210.72 0.60339 2.21115 0
M  V30 22381 C 2211.72 -0.329856 1.5738 0
M  V30 22382 O 2212.91 -0.117672 1.73802 0
M  V30 22383 C 2210.04 -0.117932 3.40696 0
M  V30 22384 H 2211.24 1.49898 2.59751 0
M  V30 22385 H 2208.79 0.813491 1.33462 0
M  V30 22386 H 2209.53 -1.02814 3.07571 0
M  V30 22387 H 2209.31 0.552579 3.88187 0
M  V30 22388 H 2210.8 -0.398623 4.15693 0
M  V30 22389 N 2211.24 -1.35782 0.800057 0
M  V30 22390 C 2212.17 -2.28615 0.163636 0
M  V30 22391 C 2213.18 -1.49978 -0.633291 0
M  V30 22392 O 2214.37 -1.7229 -0.466724 0
M  V30 22393 C 2211.47 -3.29542 -0.790901 0
M  V30 22394 C 2210.64 -4.3738 -0.0417486 0
M  V30 22395 C 2209.7 -5.18205 -0.913799 0
M  V30 22396 O 2208.73 -5.68015 -0.367134 0
M  V30 22397 N 2209.93 -5.35678 -2.23673 0
M  V30 22398 H 2212.7 -2.83871 0.9611 0
M  V30 22399 H 2210.26 -1.48062 0.65492 0
M  V30 22400 H 2212.25 -3.80504 -1.37837 0
M  V30 22401 H 2210.82 -2.74848 -1.4892 0
M  V30 22402 H 2210.04 -3.8744 0.726881 0
M  V30 22403 H 2211.33 -5.0658 0.474808 0
M  V30 22404 H 2210.73 -4.96843 -2.70488 0
M  V30 22405 H 2209.28 -5.89843 -2.77359 0
M  V30 22406 N 2212.72 -0.552988 -1.4758 0
M  V30 22407 C 2213.63 0.200312 -2.33743 0
M  V30 22408 C 2214.64 0.916125 -1.4793 0
M  V30 22409 O 2215.82 0.885961 -1.80867 0
M  V30 22410 C 2212.88 1.21968 -3.24538 0
M  V30 22411 C 2211.94 0.511745 -4.26239 0
M  V30 22412 C 2211.18 1.48254 -5.12695 0
M  V30 22413 O 2211.4 2.71705 -5.0153 0
M  V30 22414 O 2210.33 1.00934 -5.93377 0
M  V30 22415 H 2214.16 -0.506356 -2.99449 0
M  V30 22416 H 2211.74 -0.313647 -1.46071 0
M  V30 22417 H 2213.63 1.8082 -3.80634 0
M  V30 22418 H 2212.3 1.90834 -2.61465 0
M  V30 22419 H 2211.21 -0.117865 -3.73914 0
M  V30 22420 H 2212.54 -0.135394 -4.92014 0
M  V30 22421 N 2214.19 1.54923 -0.28923 0
M  V30 22422 C 2215.16 2.21763 0.579105 0
M  V30 22423 C 2216.16 1.19992 1.07045 0
M  V30 22424 O 2217.35 1.44805 0.968359 0
M  V30 22425 C 2214.48 2.89473 1.8005 0
M  V30 22426 H 2215.67 2.999 -0.00470179 0
M  V30 22427 H 2213.22 1.56249 -0.0399581 0
M  V30 22428 H 2213.96 2.15386 2.42445 0
M  V30 22429 H 2213.74 3.64067 1.45595 0
M  V30 22430 H 2215.23 3.40498 2.41767 0
M  V30 22431 N 2215.67 0.0167433 1.57591 0
M  V30 22432 C 2216.58 -0.985172 2.12912 0
M  V30 22433 C 2217.6 -1.36555 1.07836 0
M  V30 22434 O 2218.77 -1.44948 1.39828 0
M  V30 22435 C 2215.84 -2.253 2.63516 0
M  V30 22436 C 2214.9 -1.93419 3.83259 0
M  V30 22437 C 2214.13 -3.14157 4.3144 0
M  V30 22438 O 2214.36 -4.26406 3.78859 0
M  V30 22439 O 2213.29 -2.97177 5.23421 0
M  V30 22440 H 2217.12 -0.544836 2.98773 0
M  V30 22441 H 2214.7 -0.203115 1.48013 0
M  V30 22442 H 2216.58 -2.99751 2.96188 0
M  V30 22443 H 2215.26 -2.68539 1.80745 0
M  V30 22444 H 2214.16 -1.16392 3.55533 0
M  V30 22445 H 2215.5 -1.55005 4.67155 0
M  V30 22446 N 2217.15 -1.55503 -0.256249 0
M  V30 22447 C 2218.4 -1.761 -0.983455 0
M  V30 22448 C 2218.71 -0.578928 -1.86836 0
M  V30 22449 O 2219.92 -0.667694 -2.63162 0
M  V30 22450 C 2218.37 -3.11733 -1.79863 0
M  V30 22451 C 2217.98 -4.37559 -0.961571 0
M  V30 22452 C 2219.73 -3.41672 -2.51913 0
M  V30 22453 C 2217.63 -5.64226 -1.7721 0
M  V30 22454 H 2216.56 -0.656453 -0.370925 0
M  V30 22455 H 2219.21 -1.81944 -0.23846 0
M  V30 22456 H 2217.6 -2.9997 -2.58522 0
M  V30 22457 H 2218.77 -4.60284 -0.217967 0
M  V30 22458 H 2217.09 -4.14885 -0.35484 0
M  V30 22459 H 2219.68 -4.33522 -3.1299 0
M  V30 22460 H 2220.03 -2.62567 -3.23054 0
M  V30 22461 H 2220.56 -3.54608 -1.80271 0
M  V30 22462 H 2217.3 -6.46126 -1.10459 0
M  V30 22463 H 2216.82 -5.45617 -2.49123 0
M  V30 22464 H 2218.5 -6.03141 -2.34158 0
M  V30 22465 N 2218.63 0.521507 -1.48721 0
M  V30 22466 C 2219.58 1.64615 -1.64331 0
M  V30 22467 C 2220.57 1.61555 -0.509558 0
M  V30 22468 O 2221.78 1.6631 -0.688554 0
M  V30 22469 H 2218.15 0.545319 -0.517814 0
M  V30 22470 H 2220.12 1.48596 -2.5877 0
M  V30 22471 C 2218.87 3.02852 -1.7081 0
M  V30 22472 H 2218.19 3.05904 -2.57415 0
M  V30 22473 H 2219.63 3.81136 -1.85773 0
M  V30 22474 C 2218.09 3.33901 -0.448537 0
M  V30 22475 O 2218.62 3.99339 0.434858 0
M  V30 22476 N 2216.83 2.88859 -0.317667 0
M  V30 22477 H 2216.38 2.35782 -1.03752 0
M  V30 22478 H 2216.33 3.10002 0.524058 0
M  V30 22479 N 2220.11 1.37452 0.771027 0
M  V30 22480 C 2221.07 1.33097 1.86596 0
M  V30 22481 C 2222.07 0.234873 1.59075 0
M  V30 22482 O 2223.26 0.490762 1.67144 0
M  V30 22483 C 2220.39 1.06779 3.23745 0
M  V30 22484 H 2221.58 2.30492 1.91869 0
M  V30 22485 H 2219.14 1.22491 0.970855 0
M  V30 22486 H 2219.87 0.099186 3.24148 0
M  V30 22487 H 2219.66 1.86118 3.45112 0
M  V30 22488 H 2221.15 1.06384 4.03822 0
M  V30 22489 N 2221.58 -0.997276 1.22033 0
M  V30 22490 C 2223 -1.2602 0.979348 0
M  V30 22491 C 2223.2 -1.98785 -0.329685 0
M  V30 22492 O 2222.26 -2.29477 -1.05341 0
M  V30 22493 C 2223.57 -2.07627 2.17512 0
M  V30 22494 C 2225.12 -2.20826 2.21821 0
M  V30 22495 C 2225.59 -3.05819 3.40938 0
M  V30 22496 N 2227.08 -3.13406 3.41073 0
M  V30 22497 C 2227.82 -3.79447 4.29892 0
M  V30 22498 N 2227.31 -4.47453 5.28922 0
M  V30 22499 N 2229.11 -3.76165 4.17679 0
M  V30 22500 H 2221.26 -0.509316 2.06203 0
M  V30 22501 H 2223.52 -0.287525 0.903346 0
M  V30 22502 H 2223.23 -1.61518 3.12418 0
M  V30 22503 H 2223.1 -3.08381 2.17211 0
M  V30 22504 H 2225.49 -2.66151 1.27466 0
M  V30 22505 H 2225.57 -1.19516 2.26162 0
M  V30 22506 H 2225.21 -2.61195 4.35591 0
M  V30 22507 H 2225.14 -4.0726 3.33836 0
M  V30 22508 H 2227.63 -2.65003 2.6941 0
M  V30 22509 H 2227.95 -4.95572 5.92982 0
M  V30 22510 H 2226.29 -4.46215 5.32839 0
M  V30 22511 H 2229.48 -3.22196 3.3957 0
M  V30 22512 H 2229.66 -4.27355 4.87106 0
M  V30 22513 N 2223.06 -1.02932 -1.19343 0
M  V30 22514 C 2224.01 -0.610503 -2.22579 0
M  V30 22515 C 2224.98 0.375917 -1.6179 0
M  V30 22516 O 2226.16 0.272478 -1.88844 0
M  V30 22517 C 2223.3 0.0320867 -3.45085 0
M  V30 22518 C 2222.42 -1.00043 -4.20256 0
M  V30 22519 C 2221.55 -0.327553 -5.30189 0
M  V30 22520 C 2220.59 -1.34595 -5.97119 0
M  V30 22521 N 2219.73 -0.698849 -6.98613 0
M  V30 22522 H 2224.57 -1.49542 -2.57762 0
M  V30 22523 H 2222.11 -0.748333 -1.26643 0
M  V30 22524 H 2224.06 0.421893 -4.15061 0
M  V30 22525 H 2222.69 0.880585 -3.10557 0
M  V30 22526 H 2221.75 -1.50829 -3.4922 0
M  V30 22527 H 2223.06 -1.77441 -4.66172 0
M  V30 22528 H 2222.21 0.117073 -6.06587 0
M  V30 22529 H 2220.95 0.478627 -4.85346 0
M  V30 22530 H 2219.96 -1.80083 -5.19471 0
M  V30 22531 H 2221.18 -2.15363 -6.44046 0
M  V30 22532 H 2219.13 0.0872318 -6.55942 0
M  V30 22533 H 2219.04 -1.41071 -7.42721 0
M  V30 22534 H 2220.31 -0.278239 -7.79003 0
M  V30 22535 N 2224.54 1.35356 -0.807246 0
M  V30 22536 C 2225.5 2.28106 -0.223706 0
M  V30 22537 C 2226.5 1.49611 0.589328 0
M  V30 22538 O 2227.69 1.69362 0.407716 0
M  V30 22539 C 2224.83 3.33883 0.688091 0
M  V30 22540 H 2226.02 2.81225 -1.04174 0
M  V30 22541 H 2223.57 1.45222 -0.577946 0
M  V30 22542 H 2224.31 2.85951 1.52979 0
M  V30 22543 H 2224.09 3.91955 0.106801 0
M  V30 22544 H 2225.58 4.03105 1.09068 0
M  V30 22545 N 2226.02 0.560807 1.47284 0
M  V30 22546 C 2226.97 -0.184869 2.30058 0
M  V30 22547 C 2227.94 -0.904961 1.39283 0
M  V30 22548 O 2229.12 -0.899949 1.68243 0
M  V30 22549 C 2226.26 -1.2066 3.23319 0
M  V30 22550 C 2225.37 -0.492209 4.29187 0
M  V30 22551 C 2224.51 -1.49955 5.09595 0
M  V30 22552 C 2223.55 -0.770332 6.07233 0
M  V30 22553 N 2222.68 -1.72468 6.80588 0
M  V30 22554 H 2227.52 0.5271 2.93301 0
M  V30 22555 H 2225.06 0.271763 1.44568 0
M  V30 22556 H 2227.02 -1.81161 3.75814 0
M  V30 22557 H 2225.65 -1.88656 2.61933 0
M  V30 22558 H 2224.7 0.2274 3.7972 0
M  V30 22559 H 2226.01 0.0788806 4.98738 0
M  V30 22560 H 2225.17 -2.17799 5.66258 0
M  V30 22561 H 2223.91 -2.10456 4.39954 0
M  V30 22562 H 2222.91 -0.077988 5.49745 0
M  V30 22563 H 2224.14 -0.171015 6.78885 0
M  V30 22564 H 2222.08 -2.31819 6.13674 0
M  V30 22565 H 2222 -1.20583 7.46321 0
M  V30 22566 H 2223.27 -2.39415 7.41823 0
M  V30 22567 N 2227.5 -1.54768 0.297442 0
M  V30 22568 C 2228.44 -2.24834 -0.596011 0
M  V30 22569 C 2229.44 -1.2531 -1.1399 0
M  V30 22570 O 2230.64 -1.43172 -1.09095 0
M  V30 22571 H 2227.02 -0.721849 -0.210802 0
M  V30 22572 H 2228.99 -2.98395 0.0175191 0
M  V30 22573 C 2227.74 -2.99975 -1.75813 0
M  V30 22574 H 2227.06 -3.7636 -1.34883 0
M  V30 22575 H 2228.5 -3.52288 -2.35943 0
M  V30 22576 C 2226.96 -2.06737 -2.6601 0
M  V30 22577 O 2227.49 -1.63308 -3.67006 0
M  V30 22578 N 2225.7 -1.72767 -2.33666 0
M  V30 22579 H 2225.24 -2.0828 -1.51582 0
M  V30 22580 H 2225.2 -1.10657 -2.94283 0
M  V30 22581 N 2228.97 -0.0251005 -1.5758 0
M  V30 22582 C 2230.2 0.668282 -1.96338 0
M  V30 22583 C 2230.62 1.65098 -0.901343 0
M  V30 22584 O 2229.98 1.80773 0.138155 0
M  V30 22585 C 2230.03 1.35451 -3.34194 0
M  V30 22586 O 2229.13 2.46968 -3.30273 0
M  V30 22587 H 2228.48 0.175876 -0.640284 0
M  V30 22588 H 2231.01 -0.0857583 -2.0442 0
M  V30 22589 H 2231.02 1.71222 -3.70334 0
M  V30 22590 H 2229.69 0.634146 -4.11037 0
M  V30 22591 H 2228.27 2.13339 -3.05845 0
M  V30 22592 N 2230.45 1.55637 0.247999 0
M  V30 22593 C 2231.7 1.7768 0.977639 0
M  V30 22594 C 2232.03 0.590167 1.85015 0
M  V30 22595 O 2231.31 -0.411578 1.90095 0
M  V30 22596 C 2231.59 3.09596 1.83908 0
M  V30 22597 C 2231.44 4.38661 0.994833 0
M  V30 22598 C 2232.76 3.37734 2.82177 0
M  V30 22599 H 2229.88 0.646419 0.353994 0
M  V30 22600 H 2232.52 1.88372 0.248219 0
M  V30 22601 H 2230.67 3.00612 2.46099 0
M  V30 22602 H 2232.34 4.59634 0.391708 0
M  V30 22603 H 2230.59 4.32767 0.299155 0
M  V30 22604 H 2231.26 5.27343 1.63136 0
M  V30 22605 H 2233.73 3.46674 2.30123 0
M  V30 22606 H 2232.61 4.31255 3.39574 0
M  V30 22607 H 2232.87 2.58593 3.58584 0
M  V30 22608 N 2231.93 -0.513613 1.48996 0
M  V30 22609 C 2233.16 -1.29285 1.61533 0
M  V30 22610 C 2233.57 -1.86685 0.281834 0
M  V30 22611 O 2232.93 -1.67217 -0.731082 0
M  V30 22612 C 2232.98 -2.4321 2.67453 0
M  V30 22613 O 2232.7 -1.88172 3.9563 0
M  V30 22614 C 2234.2 -3.3478 2.9058 0
M  V30 22615 H 2231.42 -0.392578 0.544172 0
M  V30 22616 H 2233.97 -0.617922 1.94941 0
M  V30 22617 H 2232.12 -3.06556 2.36859 0
M  V30 22618 H 2232.54 -2.62868 4.53873 0
M  V30 22619 H 2234.01 -4.11028 3.68456 0
M  V30 22620 H 2234.49 -3.91011 2.00018 0
M  V30 22621 H 2235.09 -2.77212 3.22542 0
M  V30 22622 N 2233.41 -1.37859 -0.763727 0
M  V30 22623 C 2234.63 -1.36896 -1.55802 0
M  V30 22624 C 2235.06 0.0415805 -1.88054 0
M  V30 22625 O 2234.42 1.02086 -1.49827 0
M  V30 22626 C 2234.47 -2.22197 -2.84008 0
M  V30 22627 O 2233.57 -1.6321 -3.7873 0
M  V30 22628 H 2232.91 -0.467399 -0.47163 0
M  V30 22629 H 2235.44 -1.81488 -0.944625 0
M  V30 22630 H 2235.45 -2.35696 -3.33033 0
M  V30 22631 H 2234.13 -3.24721 -2.59864 0
M  V30 22632 H 2232.7 -1.58797 -3.37399 0
M  V30 22633 N 2234.89 0.990791 -1.22561 0
M  V30 22634 C 2235.82 2.09954 -1.02184 0
M  V30 22635 C 2236.8 1.70001 0.0579095 0
M  V30 22636 O 2237.98 1.93917 -0.104718 0
M  V30 22637 C 2235.11 3.42059 -0.601083 0
M  V30 22638 C 2234.07 3.95869 -1.627 0
M  V30 22639 C 2233.39 5.24047 -1.06202 0
M  V30 22640 C 2234.69 4.26315 -3.0175 0
M  V30 22641 H 2236.39 2.27259 -1.9492 0
M  V30 22642 H 2233.93 1.09209 -0.938585 0
M  V30 22643 H 2235.89 4.19037 -0.445634 0
M  V30 22644 H 2234.61 3.24588 0.361948 0
M  V30 22645 H 2233.27 3.21025 -1.77027 0
M  V30 22646 H 2232.92 5.02919 -0.0902787 0
M  V30 22647 H 2232.62 5.61016 -1.74741 0
M  V30 22648 H 2234.14 6.03657 -0.918198 0
M  V30 22649 H 2235.56 4.94081 -2.90786 0
M  V30 22650 H 2233.95 4.74461 -3.67433 0
M  V30 22651 H 2235.02 3.34004 -3.51524 0
M  V30 22652 N 2236.37 1.03564 1.18795 0
M  V30 22653 C 2237.3 0.643058 2.24471 0
M  V30 22654 C 2238.28 -0.351253 1.66434 0
M  V30 22655 O 2239.46 -0.232471 1.92804 0
M  V30 22656 C 2236.59 1.85533e-05 3.473 0
M  V30 22657 C 2235.55 0.91733 4.18054 0
M  V30 22658 C 2234.87 0.139035 5.34519 0
M  V30 22659 C 2236.17 2.23415 4.72105 0
M  V30 22660 H 2237.87 1.52648 2.57564 0
M  V30 22661 H 2235.41 0.735416 1.23805 0
M  V30 22662 H 2237.36 -0.286309 4.20426 0
M  V30 22663 H 2236.09 -0.918243 3.13426 0
M  V30 22664 H 2234.75 1.18796 3.46818 0
M  V30 22665 H 2234.4 -0.781475 4.96892 0
M  V30 22666 H 2234.1 0.750107 5.82793 0
M  V30 22667 H 2235.62 -0.140393 6.10439 0
M  V30 22668 H 2237.03 2.00888 5.36951 0
M  V30 22669 H 2235.43 2.79774 5.30892 0
M  V30 22670 H 2236.5 2.88414 3.89802 0
M  V30 22671 N 2237.84 -1.34926 0.814413 0
M  V30 22672 C 2239.07 -2.03304 0.410133 0
M  V30 22673 C 2239.49 -1.60953 -0.973436 0
M  V30 22674 O 2238.85 -0.789993 -1.63183 0
M  V30 22675 C 2238.9 -3.56967 0.510553 0
M  V30 22676 O 2238 -4.09679 -0.472963 0
M  V30 22677 H 2237.34 -0.641843 0.170099 0
M  V30 22678 H 2239.87 -1.72356 1.10247 0
M  V30 22679 H 2239.88 -4.06196 0.383206 0
M  V30 22680 H 2238.56 -3.87141 1.5197 0
M  V30 22681 H 2237.14 -3.71649 -0.305206 0
M  V30 22682 N 2239.32 -0.56861 -1.46985 0
M  V30 22683 C 2240.57 -0.0466248 -2.01646 0
M  V30 22684 C 2240.88 1.31584 -1.44723 0
M  V30 22685 O 2242.09 1.92838 -1.91117 0
M  V30 22686 C 2240.55 -0.0328152 -3.59885 0
M  V30 22687 C 2240.15 -1.39274 -4.25801 0
M  V30 22688 C 2241.9 0.435964 -4.22255 0
M  V30 22689 C 2239.8 -1.33742 -5.76079 0
M  V30 22690 H 2238.73 -0.0136602 -0.753876 0
M  V30 22691 H 2241.39 -0.718161 -1.68863 0
M  V30 22692 H 2239.77 0.704601 -3.89681 0
M  V30 22693 H 2240.94 -2.14877 -4.07633 0
M  V30 22694 H 2239.26 -1.80038 -3.75467 0
M  V30 22695 H 2241.85 0.495926 -5.32395 0
M  V30 22696 H 2242.2 1.45046 -3.90214 0
M  V30 22697 H 2242.73 -0.246947 -3.97033 0
M  V30 22698 H 2239.47 -2.32827 -6.12757 0
M  V30 22699 H 2238.99 -0.623372 -5.96552 0
M  V30 22700 H 2240.67 -1.04431 -6.38516 0
M  V30 22701 N 2240.8 1.54608 -0.305646 0
M  V30 22702 C 2242.05 1.9941 0.303063 0
M  V30 22703 C 2242.36 1.19767 1.54646 0
M  V30 22704 O 2243.57 1.54859 2.23005 0
M  V30 22705 C 2242.02 3.55022 0.590525 0
M  V30 22706 C 2241.63 4.4348 -0.634797 0
M  V30 22707 C 2243.38 4.08338 1.16017 0
M  V30 22708 C 2241.28 5.90532 -0.32023 0
M  V30 22709 H 2240.21 0.744864 0.117018 0
M  V30 22710 H 2242.86 1.78744 -0.415076 0
M  V30 22711 H 2241.25 3.71606 1.36838 0
M  V30 22712 H 2242.42 4.3867 -1.41086 0
M  V30 22713 H 2240.73 4.0096 -1.1234 0
M  V30 22714 H 2243.33 5.15778 1.40985 0
M  V30 22715 H 2243.67 3.59223 2.10391 0
M  V30 22716 H 2244.21 3.95315 0.443916 0
M  V30 22717 H 2240.95 6.43806 -1.23265 0
M  V30 22718 H 2240.47 5.98338 0.418474 0
M  V30 22719 H 2242.15 6.46955 0.0765103 0
M  V30 22720 N 2242.28 0.033457 1.57564 0
M  V30 22721 C 2243.23 -0.964923 2.11641 0
M  V30 22722 C 2244.22 -1.33405 1.044 0
M  V30 22723 O 2245.43 -1.31578 1.2283 0
M  V30 22724 H 2241.8 -0.328968 0.676228 0
M  V30 22725 H 2243.77 -0.483562 2.94456 0
M  V30 22726 C 2242.52 -2.23667 2.66211 0
M  V30 22727 H 2241.84 -1.96139 3.48381 0
M  V30 22728 H 2243.28 -2.91724 3.0769 0
M  V30 22729 C 2241.74 -2.96936 1.59156 0
M  V30 22730 O 2242.27 -3.89209 0.993927 0
M  V30 22731 N 2240.48 -2.59349 1.31097 0
M  V30 22732 H 2240.03 -1.8439 1.79883 0
M  V30 22733 H 2239.98 -3.08681 0.596943 0
M  V30 22734 N 2243.76 -1.55766 -0.239741 0
M  V30 22735 C 2245.03 -1.68695 -0.990026 0
M  V30 22736 C 2245.41 -0.575436 -2.03106 0
M  V30 22737 O 2244.76 0.420131 -2.24604 0
M  V30 22738 C 2244.97 -3.09285 -1.61691 0
M  V30 22739 C 2246.32 -3.68114 -2.11606 0
M  V30 22740 O 2247.34 -3.1213 -1.71619 0
M  V30 22741 O 2246.2 -4.66272 -2.85049 0
M  V30 22742 H 2243.3 -0.686399 -0.461287 0
M  V30 22743 H 2245.84 -1.68093 -0.232961 0
M  V30 22744 H 2244.61 -3.81636 -0.86429 0
M  V30 22745 H 2244.24 -3.13927 -2.43999 0
M  V30 22746 N 2245.23 0.505704 -1.49266 0
M  V30 22747 C 2246.16 1.6165 -1.68498 0
M  V30 22748 C 2247.14 1.61511 -0.533688 0
M  V30 22749 O 2248.33 1.78326 -0.769002 0
M  V30 22750 C 2245.46 3.00154 -1.74714 0
M  V30 22751 C 2244.41 3.15157 -2.89586 0
M  V30 22752 C 2243.74 4.54965 -2.80911 0
M  V30 22753 C 2245.04 2.95627 -4.30584 0
M  V30 22754 H 2246.73 1.45809 -2.61496 0
M  V30 22755 H 2244.28 0.700028 -1.2584 0
M  V30 22756 H 2246.23 3.77757 -1.86755 0
M  V30 22757 H 2244.96 3.17072 -0.783123 0
M  V30 22758 H 2243.62 2.39977 -2.7714 0
M  V30 22759 H 2243.26 4.68753 -1.82427 0
M  V30 22760 H 2242.96 4.65945 -3.58007 0
M  V30 22761 H 2244.49 5.34636 -2.94953 0
M  V30 22762 H 2245.9 3.63003 -4.43736 0
M  V30 22763 H 2244.3 3.18082 -5.08866 0
M  V30 22764 H 2245.37 1.91798 -4.45356 0
M  V30 22765 N 2246.71 1.38262 0.756405 0
M  V30 22766 C 2247.64 1.37979 1.88372 0
M  V30 22767 C 2248.62 0.246111 1.6831 0
M  V30 22768 O 2249.81 0.448773 1.88944 0
M  V30 22769 C 2246.94 1.2013 3.25862 0
M  V30 22770 C 2245.89 2.30673 3.60519 0
M  V30 22771 C 2245.22 1.97932 4.96716 0
M  V30 22772 C 2246.52 3.72923 3.65686 0
M  V30 22773 H 2248.21 2.32315 1.88865 0
M  V30 22774 H 2245.76 1.11825 0.907253 0
M  V30 22775 H 2247.71 1.18559 4.04378 0
M  V30 22776 H 2246.44 0.222555 3.25841 0
M  V30 22777 H 2245.09 2.31425 2.8432 0
M  V30 22778 H 2244.74 0.98548 4.93252 0
M  V30 22779 H 2244.44 2.71965 5.20873 0
M  V30 22780 H 2245.97 1.97974 5.77615 0
M  V30 22781 H 2247.38 3.74216 4.34322 0
M  V30 22782 H 2245.78 4.46137 4.0135 0
M  V30 22783 H 2246.85 4.05441 2.6598 0
M  V30 22784 N 2248.19 -0.984277 1.23084 0
M  V30 22785 C 2249.1 -2.11015 1.02518 0
M  V30 22786 C 2250.12 -1.73976 -0.0291397 0
M  V30 22787 O 2251.29 -2.00719 0.165469 0
M  V30 22788 C 2248.36 -3.41207 0.614733 0
M  V30 22789 C 2247.42 -3.92294 1.74366 0
M  V30 22790 C 2246.65 -5.16273 1.3527 0
M  V30 22791 O 2246.87 -5.69915 0.235236 0
M  V30 22792 O 2245.81 -5.6133 2.17237 0
M  V30 22793 H 2249.63 -2.31252 1.96866 0
M  V30 22794 H 2247.22 -1.0939 1.01755 0
M  V30 22795 H 2249.1 -4.1953 0.396591 0
M  V30 22796 H 2247.78 -3.22309 -0.299794 0
M  V30 22797 H 2246.68 -3.15106 2.01641 0
M  V30 22798 H 2248.02 -4.1564 2.63637 0
M  V30 22799 N 2249.67 -1.04192 -1.18244 0
M  V30 22800 C 2250.6 -0.592127 -2.21419 0
M  V30 22801 C 2251.61 0.338881 -1.59234 0
M  V30 22802 O 2252.8 0.1332 -1.78002 0
M  V30 22803 C 2249.9 0.154794 -3.38546 0
M  V30 22804 C 2249.08 -0.784403 -4.30309 0
M  V30 22805 C 2248.13 -0.0805508 -5.26138 0
M  V30 22806 O 2247.16 -0.711391 -5.64737 0
M  V30 22807 N 2248.36 1.18564 -5.68263 0
M  V30 22808 H 2251.13 -1.47954 -2.60633 0
M  V30 22809 H 2248.69 -0.922568 -1.33042 0
M  V30 22810 H 2250.68 0.635535 -3.99679 0
M  V30 22811 H 2249.25 0.943758 -2.98013 0
M  V30 22812 H 2248.47 -1.44498 -3.66762 0
M  V30 22813 H 2249.76 -1.42227 -4.88517 0
M  V30 22814 H 2249.16 1.71867 -5.3896 0
M  V30 22815 H 2247.71 1.61063 -6.31587 0
M  V30 22816 N 2251.15 1.34492 -0.821557 0
M  V30 22817 C 2252.08 2.32079 -0.257179 0
M  V30 22818 C 2253.06 1.58177 0.625617 0
M  V30 22819 O 2254.24 1.86167 0.552779 0
M  V30 22820 C 2251.37 3.42373 0.582898 0
M  V30 22821 C 2250.33 4.2752 -0.202646 0
M  V30 22822 C 2249.65 5.2927 0.760086 0
M  V30 22823 C 2250.95 5.02906 -1.41007 0
M  V30 22824 H 2252.65 2.79531 -1.07252 0
M  V30 22825 H 2250.19 1.34392 -0.517187 0
M  V30 22826 H 2252.15 4.09657 0.9879 0
M  V30 22827 H 2250.87 2.93568 1.43128 0
M  V30 22828 H 2249.53 3.61837 -0.589 0
M  V30 22829 H 2249.18 4.76727 1.60438 0
M  V30 22830 H 2248.88 5.87115 0.238706 0
M  V30 22831 H 2250.4 5.99422 1.16297 0
M  V30 22832 H 2251.81 5.63052 -1.07915 0
M  V30 22833 H 2250.21 5.70319 -1.86699 0
M  V30 22834 H 2251.28 4.3268 -2.18897 0
M  V30 22835 N 2252.62 0.576397 1.46681 0
M  V30 22836 C 2253.87 0.0594518 2.02013 0
M  V30 22837 C 2254.19 -1.30269 1.45104 0
M  V30 22838 O 2253.46 -1.85379 0.63335 0
M  V30 22839 H 2252.04 0.0189876 0.746759 0
M  V30 22840 H 2254.71 0.750749 1.7986 0
M  V30 22841 H 2253.8 -0.0142902 3.12097 0
M  V30 22842 N 2254.1 -1.54444 0.313841 0
M  V30 22843 C 2255.03 -2.21466 -0.590386 0
M  V30 22844 C 2256.05 -1.21149 -1.08751 0
M  V30 22845 O 2257.24 -1.47672 -1.00276 0
M  V30 22846 C 2254.34 -2.85772 -1.82174 0
M  V30 22847 C 2253.51 -4.12138 -1.46495 0
M  V30 22848 C 2252.57 -4.60129 -2.5528 0
M  V30 22849 O 2251.59 -5.25036 -2.19832 0
M  V30 22850 N 2252.8 -4.33532 -3.86045 0
M  V30 22851 H 2255.56 -2.99695 -0.0165506 0
M  V30 22852 H 2253.12 -1.61323 0.136607 0
M  V30 22853 H 2255.11 -3.14805 -2.54322 0
M  V30 22854 H 2253.68 -2.11307 -2.30365 0
M  V30 22855 H 2252.9 -3.89976 -0.575527 0
M  V30 22856 H 2254.19 -4.94395 -1.20213 0
M  V30 22857 H 2253.59 -3.81559 -4.17647 0
M  V30 22858 H 2252.15 -4.67243 -4.54453 0
M  V30 22859 N 2255.58 -0.0418125 -1.57545 0
M  V30 22860 C 2256.51 0.933891 -2.14011 0
M  V30 22861 C 2257.49 1.33082 -1.0594 0
M  V30 22862 O 2258.68 1.40719 -1.33835 0
M  V30 22863 C 2255.81 2.21194 -2.67751 0
M  V30 22864 C 2254.76 1.95538 -3.80722 0
M  V30 22865 C 2254.09 3.29717 -4.20941 0
M  V30 22866 C 2255.39 1.28443 -5.06261 0
M  V30 22867 H 2257.08 0.463593 -2.95789 0
M  V30 22868 H 2254.63 0.221548 -1.42286 0
M  V30 22869 H 2256.58 2.89843 -3.05891 0
M  V30 22870 H 2255.3 2.70413 -1.83151 0
M  V30 22871 H 2253.96 1.29304 -3.4304 0
M  V30 22872 H 2253.61 3.76719 -3.33305 0
M  V30 22873 H 2253.31 3.13352 -4.97076 0
M  V30 22874 H 2254.83 3.99612 -4.61673 0
M  V30 22875 H 2256.25 1.87111 -5.41906 0
M  V30 22876 H 2254.65 1.22434 -5.87477 0
M  V30 22877 H 2255.72 0.259134 -4.84207 0
M  V30 22878 N 2257.06 1.55891 0.231477 0
M  V30 22879 C 2258.34 1.69217 0.981066 0
M  V30 22880 C 2258.72 0.586199 2.02798 0
M  V30 22881 O 2258.06 -0.408214 2.24824 0
M  V30 22882 C 2258.27 3.10138 1.60048 0
M  V30 22883 C 2259.62 3.69231 2.09651 0
M  V30 22884 O 2260.65 3.13036 1.69961 0
M  V30 22885 O 2259.5 4.67777 2.82572 0
M  V30 22886 H 2256.6 0.688835 0.45764 0
M  V30 22887 H 2259.14 1.68215 0.224043 0
M  V30 22888 H 2257.92 3.82089 0.844038 0
M  V30 22889 H 2257.54 3.15217 2.42331 0
M  V30 22890 N 2258.54 -0.497781 1.49532 0
M  V30 22891 C 2259.76 -1.27564 1.62896 0
M  V30 22892 C 2260.18 -1.86375 0.301618 0
M  V30 22893 O 2259.54 -1.67983 -0.713305 0
M  V30 22894 C 2259.59 -2.4036 2.70018 0
M  V30 22895 O 2259.31 -1.83965 3.97603 0
M  V30 22896 C 2260.81 -3.3168 2.94115 0
M  V30 22897 H 2258.03 -0.386785 0.548305 0
M  V30 22898 H 2260.57 -0.597211 1.95585 0
M  V30 22899 H 2258.73 -3.04027 2.40097 0
M  V30 22900 H 2259.14 -2.58039 4.56635 0
M  V30 22901 H 2260.62 -4.07097 3.72795 0
M  V30 22902 H 2261.09 -3.88868 2.04153 0
M  V30 22903 H 2261.7 -2.73775 3.25464 0
M  V30 22904 N 2260.01 -1.38661 -0.749062 0
M  V30 22905 C 2261.26 -1.35317 -1.51054 0
M  V30 22906 C 2261.59 0.055341 -1.94121 0
M  V30 22907 O 2260.87 1.01746 -1.65765 0
M  V30 22908 C 2261.15 -2.31293 -2.75999 0
M  V30 22909 C 2261 -3.81024 -2.39041 0
M  V30 22910 C 2262.32 -2.25327 -3.78042 0
M  V30 22911 H 2259.44 -0.492854 -0.547963 0
M  V30 22912 H 2262.08 -1.69544 -0.857598 0
M  V30 22913 H 2260.23 -2.02235 -3.31713 0
M  V30 22914 H 2261.91 -4.20775 -1.89067 0
M  V30 22915 H 2260.15 -3.98485 -1.71442 0
M  V30 22916 H 2260.82 -4.43646 -3.28454 0
M  V30 22917 H 2263.3 -2.50989 -3.31879 0
M  V30 22918 H 2262.17 -2.94584 -4.63154 0
M  V30 22919 H 2262.43 -1.2536 -4.23954 0
M  V30 22920 N 2261.49 0.977736 -1.23605 0
M  V30 22921 C 2262.77 1.69399 -0.977927 0
M  V30 22922 C 2263.15 2.05027 0.502702 0
M  V30 22923 O 2262.5 1.74554 1.47456 0
M  V30 22924 C 2262.71 2.93341 -1.89082 0
M  V30 22925 C 2264.06 3.65798 -2.15585 0
M  V30 22926 O 2265.08 3.03379 -1.86653 0
M  V30 22927 O 2263.94 4.78136 -2.64666 0
M  V30 22928 H 2261.03 0.740095 -0.369038 0
M  V30 22929 H 2263.58 1.03272 -1.34659 0
M  V30 22930 H 2262.35 2.63629 -2.89163 0
M  V30 22931 H 2261.97 3.67204 -1.52469 0
M  V30 22932 N 2262.97 1.04818 1.1769 0
M  V30 22933 C 2263.9 0.66683 2.23776 0
M  V30 22934 C 2264.88 -0.333581 1.66797 0
M  V30 22935 O 2266.07 -0.212008 1.93039 0
M  V30 22936 C 2263.2 0.0368544 3.4728 0
M  V30 22937 C 2262.15 0.961619 4.17057 0
M  V30 22938 C 2261.48 0.19572 5.34342 0
M  V30 22939 C 2262.78 2.2841 4.69709 0
M  V30 22940 H 2264.47 1.55371 2.5593 0
M  V30 22941 H 2262.02 0.748506 1.23018 0
M  V30 22942 H 2263.97 -0.241701 4.20706 0
M  V30 22943 H 2262.69 -0.884949 3.14382 0
M  V30 22944 H 2261.35 1.22468 3.45539 0
M  V30 22945 H 2261 -0.728729 4.97693 0
M  V30 22946 H 2260.7 0.811878 5.81964 0
M  V30 22947 H 2262.23 -0.0756399 6.10553 0
M  V30 22948 H 2263.64 2.06572 5.34791 0
M  V30 22949 H 2262.04 2.8539 5.27895 0
M  V30 22950 H 2263.11 2.92532 3.86721 0
M  V30 22951 N 2264.45 -1.34055 0.828678 0
M  V30 22952 C 2265.4 -2.31327 0.243014 0
M  V30 22953 C 2266.39 -1.57669 -0.619412 0
M  V30 22954 O 2267.6 -1.72621 -0.51011 0
M  V30 22955 H 2263.97 -0.749615 0.0598471 0
M  V30 22956 H 2265.94 -2.78242 1.07814 0
M  V30 22957 C 2264.69 -3.42901 -0.575673 0
M  V30 22958 H 2264.02 -3.99723 0.0786284 0
M  V30 22959 H 2265.46 -4.13186 -0.951475 0
M  V30 22960 C 2263.91 -2.8786 -1.75039 0
M  V30 22961 O 2264.44 -2.8321 -2.84877 0
M  V30 22962 N 2262.65 -2.44604 -1.56898 0
M  V30 22963 H 2262.2 -2.48585 -0.675503 0
M  V30 22964 H 2262.16 -2.08128 -2.35648 0
M  V30 22965 N 2265.93 -0.584167 -1.46374 0
M  V30 22966 C 2266.87 0.148246 -2.30323 0
M  V30 22967 C 2267.84 0.882688 -1.40705 0
M  V30 22968 O 2269.03 0.873069 -1.69653 0
M  V30 22969 C 2266.17 1.15501 -3.25198 0
M  V30 22970 C 2265.28 0.423867 -4.29916 0
M  V30 22971 C 2264.42 1.41829 -5.11916 0
M  V30 22972 C 2263.46 0.673629 -6.08382 0
M  V30 22973 N 2262.59 1.61618 -6.83245 0
M  V30 22974 H 2267.43 -0.573695 -2.92426 0
M  V30 22975 H 2264.97 -0.294728 -1.44117 0
M  V30 22976 H 2266.93 1.7516 -3.78649 0
M  V30 22977 H 2265.56 1.84465 -2.64901 0
M  V30 22978 H 2264.61 -0.287781 -3.7931 0
M  V30 22979 H 2265.92 -0.158215 -4.98549 0
M  V30 22980 H 2265.08 2.08763 -5.69652 0
M  V30 22981 H 2263.82 2.0343 -4.43247 0
M  V30 22982 H 2262.82 -0.00948147 -5.49799 0
M  V30 22983 H 2264.05 0.0629888 -6.79071 0
M  V30 22984 H 2261.99 2.22027 -6.17284 0
M  V30 22985 H 2261.91 1.08694 -7.48145 0
M  V30 22986 H 2263.18 2.27583 -7.45538 0
M  V30 22987 N 2267.41 1.54275 -0.322027 0
M  V30 22988 C 2268.34 2.27232 0.537371 0
M  V30 22989 C 2269.32 1.2797 1.12061 0
M  V30 22990 O 2270.5 1.56779 1.14603 0
M  V30 22991 C 2267.63 3.02897 1.69913 0
M  V30 22992 C 2266.59 4.09484 1.24526 0
M  V30 22993 C 2265.91 4.72981 2.49385 0
M  V30 22994 C 2267.21 5.21049 0.361243 0
M  V30 22995 H 2268.91 2.99315 -0.0711932 0
M  V30 22996 H 2266.45 1.43956 -0.0356808 0
M  V30 22997 H 2268.4 3.52666 2.30662 0
M  V30 22998 H 2267.13 2.28429 2.33427 0
M  V30 22999 H 2265.79 3.60597 0.660719 0
M  V30 23000 H 2265.44 3.95129 3.11258 0
M  V30 23001 H 2265.14 5.44979 2.19708 0
M  V30 23002 H 2266.66 5.25523 3.10899 0
M  V30 23003 H 2268.07 5.66584 0.874972 0
M  V30 23004 H 2266.47 5.99894 0.157323 0
M  V30 23005 H 2267.54 4.81069 -0.608304 0
M  V30 23006 N 2268.88 0.0501669 1.5752 0
M  V30 23007 C 2269.83 -0.942421 2.12653 0
M  V30 23008 C 2270.83 -1.32291 1.05809 0
M  V30 23009 O 2272.03 -1.30268 1.24219 0
M  V30 23010 H 2268.41 -0.321777 0.679679 0
M  V30 23011 H 2270.38 -0.452304 2.94952 0
M  V30 23012 C 2269.13 -2.20831 2.68568 0
M  V30 23013 H 2268.45 -1.92433 3.50442 0
M  V30 23014 H 2269.89 -2.88444 3.10767 0
M  V30 23015 C 2268.35 -2.95231 1.62297 0
M  V30 23016 O 2268.88 -3.88133 1.03515 0
M  V30 23017 N 2267.08 -2.57944 1.33841 0
M  V30 23018 H 2266.63 -1.82472 1.81829 0
M  V30 23019 H 2266.59 -3.0803 0.629649 0
M  V30 23020 N 2270.36 -1.56011 -0.223207 0
M  V30 23021 C 2271.27 -1.95445 -1.29762 0
M  V30 23022 C 2272.29 -0.858055 -1.51372 0
M  V30 23023 O 2273.46 -1.16148 -1.64534 0
M  V30 23024 C 2270.53 -2.26172 -2.62768 0
M  V30 23025 C 2269.59 -3.49371 -2.49476 0
M  V30 23026 C 2268.82 -3.78623 -3.76139 0
M  V30 23027 O 2269.05 -3.09576 -4.79081 0
M  V30 23028 O 2267.98 -4.72116 -3.7335 0
M  V30 23029 H 2271.81 -2.87006 -0.993039 0
M  V30 23030 H 2269.39 -1.432 -0.425933 0
M  V30 23031 H 2271.27 -2.47137 -3.41323 0
M  V30 23032 H 2269.95 -1.37786 -2.92911 0
M  V30 23033 H 2268.85 -3.33687 -1.69127 0
M  V30 23034 H 2270.19 -4.38135 -2.24273 0
M  V30 23035 N 2271.84 0.489844 -1.49794 0
M  V30 23036 C 2273.09 1.23992 -1.59088 0
M  V30 23037 C 2273.4 1.93469 -0.287941 0
M  V30 23038 O 2274.61 2.70256 -0.259554 0
M  V30 23039 C 2273.06 2.25195 -2.8074 0
M  V30 23040 C 2272.67 1.61607 -4.17836 0
M  V30 23041 C 2274.42 3.00962 -2.9937 0
M  V30 23042 C 2272.32 2.60987 -5.30698 0
M  V30 23043 H 2271.25 0.466478 -0.59238 0
M  V30 23044 H 2273.9 0.512489 -1.76198 0
M  V30 23045 H 2272.29 3.0115 -2.57148 0
M  V30 23046 H 2273.46 0.915695 -4.5161 0
M  V30 23047 H 2271.77 0.981905 -4.04657 0
M  V30 23048 H 2274.37 3.75302 -3.80858 0
M  V30 23049 H 2274.71 3.5924 -2.10362 0
M  V30 23050 H 2275.25 2.32122 -3.23054 0
M  V30 23051 H 2271.99 2.07474 -6.218 0
M  V30 23052 H 2271.51 3.29231 -5.01365 0
M  V30 23053 H 2273.19 3.23193 -5.60496 0
M  V30 23054 N 2273.32 1.39056 0.741698 0
M  V30 23055 C 2274.23 1.395 1.88619 0
M  V30 23056 C 2275.24 0.290608 1.71556 0
M  V30 23057 O 2276.42 0.530988 1.94274 0
M  V30 23058 C 2273.48 1.23042 3.24132 0
M  V30 23059 C 2272.55 2.43393 3.53636 0
M  V30 23060 C 2271.78 2.27711 4.82683 0
M  V30 23061 O 2272 1.27706 5.5592 0
M  V30 23062 O 2270.94 3.16554 5.11935 0
M  V30 23063 H 2274.76 2.35959 1.91199 0
M  V30 23064 H 2272.35 1.20101 0.888604 0
M  V30 23065 H 2274.23 1.15971 4.05128 0
M  V30 23066 H 2272.9 0.296747 3.22337 0
M  V30 23067 H 2271.81 2.5604 2.72753 0
M  V30 23068 H 2273.14 3.35431 3.60204 0
M  V30 23069 N 2274.8 -0.971167 1.24121 0
M  V30 23070 C 2276.04 -1.7103 1.07671 0
M  V30 23071 C 2276.36 -1.91146 -0.385764 0
M  V30 23072 O 2275.63 -1.48673 -1.27567 0
M  V30 23073 H 2274.21 -0.633748 0.39544 0
M  V30 23074 H 2276.88 -1.16852 1.55986 0
M  V30 23075 H 2275.97 -2.69619 1.572 0
M  V30 23076 N 2276.27 -1.05441 -1.17133 0
M  V30 23077 C 2277.5 -0.786447 -1.9137 0
M  V30 23078 C 2277.92 0.658171 -1.76956 0
M  V30 23079 O 2277.27 1.44985 -1.1084 0
M  V30 23080 C 2277.33 -1.16086 -3.42354 0
M  V30 23081 O 2277.05 -2.54878 -3.56327 0
M  V30 23082 C 2278.55 -0.919399 -4.33661 0
M  V30 23083 H 2275.77 -0.285754 -0.607113 0
M  V30 23084 H 2278.31 -1.40575 -1.48522 0
M  V30 23085 H 2276.47 -0.586258 -3.82938 0
M  V30 23086 H 2276.88 -2.69626 -4.49891 0
M  V30 23087 H 2278.35 -1.23109 -5.38097 0
M  V30 23088 H 2278.83 0.145282 -4.3896 0
M  V30 23089 H 2279.44 -1.47796 -3.98794 0
M  V30 23090 N 2277.75 1.33613 -0.835776 0
M  V30 23091 C 2278.68 2.31794 -0.28178 0
M  V30 23092 C 2279.66 1.58832 0.608805 0
M  V30 23093 O 2280.85 1.86742 0.533002 0
M  V30 23094 C 2277.98 3.42972 0.546552 0
M  V30 23095 C 2276.93 4.27281 -0.247979 0
M  V30 23096 C 2276.26 5.30046 0.703907 0
M  V30 23097 C 2277.56 5.01382 -1.46333 0
M  V30 23098 H 2279.25 2.78377 -1.10211 0
M  V30 23099 H 2276.8 1.33836 -0.531412 0
M  V30 23100 H 2278.75 4.10681 0.944395 0
M  V30 23101 H 2277.48 2.95069 1.40006 0
M  V30 23102 H 2276.13 3.61192 -0.627345 0
M  V30 23103 H 2275.78 4.78402 1.55373 0
M  V30 23104 H 2275.48 5.87335 0.176421 0
M  V30 23105 H 2277.01 6.00622 1.09933 0
M  V30 23106 H 2278.42 5.61875 -1.13881 0
M  V30 23107 H 2276.82 5.68306 -1.92738 0
M  V30 23108 H 2277.89 4.30334 -2.23474 0
M  V30 23109 N 2279.23 0.591922 1.46062 0
M  V30 23110 C 2280.18 -0.148698 2.32124 0
M  V30 23111 C 2281.17 -0.875261 1.45036 0
M  V30 23112 O 2282.38 -0.792604 1.6161 0
M  V30 23113 H 2278.75 -0.0668189 0.749026 0
M  V30 23114 H 2280.72 0.595835 2.92391 0
M  V30 23115 C 2279.47 -1.14304 3.28375 0
M  V30 23116 H 2278.8 -0.59339 3.95372 0
M  V30 23117 H 2280.24 -1.63148 3.91355 0
M  V30 23118 C 2278.7 -2.2087 2.54397 0
M  V30 23119 O 2279.23 -3.2837 2.31378 0
M  V30 23120 N 2277.43 -1.95727 2.148 0
M  V30 23121 H 2276.98 -1.08315 2.33721 0
M  V30 23122 H 2276.94 -2.67238 1.65624 0
M  V30 23123 N 2280.71 -1.54102 0.330204 0
M  V30 23124 C 2281.66 -2.24568 -0.532722 0
M  V30 23125 C 2282.63 -1.23893 -1.10633 0
M  V30 23126 O 2283.81 -1.52593 -1.14543 0
M  V30 23127 C 2280.95 -3.01198 -1.68445 0
M  V30 23128 C 2280.06 -4.16702 -1.13943 0
M  V30 23129 C 2279.2 -4.80849 -2.25738 0
M  V30 23130 C 2278.24 -5.88445 -1.68519 0
M  V30 23131 N 2277.37 -6.46426 -2.74003 0
M  V30 23132 H 2282.21 -2.97906 0.0747429 0
M  V30 23133 H 2279.75 -1.4702 0.0486579 0
M  V30 23134 H 2281.71 -3.43878 -2.36228 0
M  V30 23135 H 2280.34 -2.30182 -2.2631 0
M  V30 23136 H 2279.39 -3.78759 -0.352944 0
M  V30 23137 H 2280.7 -4.94132 -0.680805 0
M  V30 23138 H 2279.86 -5.26531 -3.01413 0
M  V30 23139 H 2278.6 -4.02814 -2.7494 0
M  V30 23140 H 2277.6 -5.42159 -0.913448 0
M  V30 23141 H 2278.83 -6.6838 -1.20186 0
M  V30 23142 H 2276.77 -5.71262 -3.22484 0
M  V30 23143 H 2276.69 -7.19289 -2.32723 0
M  V30 23144 H 2277.96 -6.96763 -3.49487 0
M  V30 23145 N 2282.19 -0.0585199 -1.57491 0
M  V30 23146 C 2283.15 0.89858 -2.10851 0
M  V30 23147 C 2284.15 1.2351 -1.02966 0
M  V30 23148 O 2285.34 1.17056 -1.29009 0
M  V30 23149 C 2282.47 2.20618 -2.59885 0
M  V30 23150 H 2283.66 0.435883 -2.96715 0
M  V30 23151 H 2281.22 0.189995 -1.55141 0
M  V30 23152 H 2281.95 2.71454 -1.77436 0
M  V30 23153 H 2281.74 1.97495 -3.3873 0
M  V30 23154 H 2283.23 2.89161 -3.0129 0
M  V30 23155 N 2283.66 1.56128 0.21493 0
M  V30 23156 C 2284.61 1.92954 1.26639 0
M  V30 23157 C 2285.58 0.787555 1.46242 0
M  V30 23158 O 2286.77 1.04402 1.59702 0
M  V30 23159 C 2283.91 2.2573 2.61036 0
M  V30 23160 C 2283.02 3.52895 2.49177 0
M  V30 23161 C 2282.15 3.75087 3.76143 0
M  V30 23162 C 2281.19 4.95744 3.59033 0
M  V30 23163 N 2280.33 5.14291 4.77963 0
M  V30 23164 H 2285.17 2.82608 0.945334 0
M  V30 23165 H 2282.71 1.39871 0.455465 0
M  V30 23166 H 2284.67 2.42745 3.39309 0
M  V30 23167 H 2283.3 1.39241 2.91225 0
M  V30 23168 H 2282.35 3.44037 1.62304 0
M  V30 23169 H 2283.66 4.41322 2.32458 0
M  V30 23170 H 2282.81 3.92234 4.62858 0
M  V30 23171 H 2281.55 2.84954 3.95794 0
M  V30 23172 H 2280.56 4.7854 2.70701 0
M  V30 23173 H 2281.78 5.87368 3.40846 0
M  V30 23174 H 2279.73 4.27102 4.97916 0
M  V30 23175 H 2279.65 5.96862 4.63996 0
M  V30 23176 H 2280.91 5.35879 5.66086 0
M  V30 23177 N 2285.14 -0.481893 1.50052 0
M  V30 23178 C 2286.42 -1.24318 1.51012 0
M  V30 23179 C 2286.8 -2.09631 0.248624 0
M  V30 23180 O 2286.15 -2.15194 -0.768371 0
M  V30 23181 C 2286.36 -2.0835 2.79984 0
M  V30 23182 C 2287.71 -2.66902 3.30225 0
M  V30 23183 O 2288.73 -2.18602 2.81232 0
M  V30 23184 O 2287.59 -3.54877 4.15601 0
M  V30 23185 H 2284.68 -0.563562 0.605249 0
M  V30 23186 H 2287.23 -0.494598 1.62332 0
M  V30 23187 H 2286 -1.45413 3.63278 0
M  V30 23188 H 2285.62 -2.90363 2.71615 0
M  V30 23189 N 2286.62 -1.39448 -0.734313 0
M  V30 23190 C 2287.53 -1.40498 -1.87876 0
M  V30 23191 C 2288.55 -0.299702 -1.71399 0
M  V30 23192 O 2289.72 -0.541283 -1.9399 0
M  V30 23193 C 2286.79 -1.2476 -3.23475 0
M  V30 23194 C 2285.85 -2.45265 -3.5234 0
M  V30 23195 C 2285.08 -2.30268 -4.81469 0
M  V30 23196 O 2285.3 -1.30652 -5.55235 0
M  V30 23197 O 2284.24 -3.19265 -5.10249 0
M  V30 23198 H 2288.06 -2.3697 -1.89945 0
M  V30 23199 H 2285.65 -1.2057 -0.882222 0
M  V30 23200 H 2287.53 -1.18118 -4.04507 0
M  V30 23201 H 2286.21 -0.313838 -3.22175 0
M  V30 23202 H 2285.11 -2.57483 -2.71392 0
M  V30 23203 H 2286.45 -3.37337 -3.5842 0
M  V30 23204 N 2288.1 0.964571 -1.24635 0
M  V30 23205 C 2289.03 2.05861 -0.984698 0
M  V30 23206 C 2290.01 1.6239 0.0826268 0
M  V30 23207 O 2291.19 1.8842 -0.0549627 0
M  V30 23208 C 2288.32 3.35187 -0.486587 0
M  V30 23209 C 2287.37 3.97613 -1.54293 0
M  V30 23210 S 2288.2 4.34846 -3.12521 0
M  V30 23211 C 2289.36 5.67303 -2.6442 0
M  V30 23212 H 2289.59 2.27739 -1.91108 0
M  V30 23213 H 2287.12 1.10289 -1.08054 0
M  V30 23214 H 2289.08 4.09984 -0.205829 0
M  V30 23215 H 2287.74 3.11291 0.419131 0
M  V30 23216 H 2286.93 4.90824 -1.14489 0
M  V30 23217 H 2286.54 3.29257 -1.77386 0
M  V30 23218 H 2288.83 6.44965 -2.07427 0
M  V30 23219 H 2289.77 6.11967 -3.56233 0
M  V30 23220 H 2290.18 5.26061 -2.04743 0
M  V30 23221 N 2289.58 1.0606 1.16572 0
M  V30 23222 C 2290.52 0.669301 2.20882 0
M  V30 23223 C 2291.49 -0.332889 1.6273 0
M  V30 23224 O 2292.68 -0.222313 1.895 0
M  V30 23225 C 2289.82 0.0594178 3.45049 0
M  V30 23226 C 2288.93 1.1115 4.17456 0
M  V30 23227 C 2288.07 0.468009 5.29134 0
M  V30 23228 C 2287.11 1.50379 5.9334 0
M  V30 23229 N 2286.24 0.883828 6.96515 0
M  V30 23230 H 2291.08 1.56324 2.53706 0
M  V30 23231 H 2288.62 0.781647 1.24614 0
M  V30 23232 H 2290.58 -0.311698 4.16034 0
M  V30 23233 H 2289.21 -0.797937 3.12782 0
M  V30 23234 H 2288.26 1.60035 3.45099 0
M  V30 23235 H 2289.57 1.89739 4.61303 0
M  V30 23236 H 2288.73 0.0437937 6.06684 0
M  V30 23237 H 2287.46 -0.349778 4.86444 0
M  V30 23238 H 2286.47 1.93793 5.14514 0
M  V30 23239 H 2287.69 2.32363 6.3811 0
M  V30 23240 H 2285.64 0.0867103 6.55943 0
M  V30 23241 H 2285.56 1.60713 7.3872 0
M  V30 23242 H 2286.83 0.48468 7.77992 0
M  V30 23243 N 2291.06 -1.33168 0.84285 0
M  V30 23244 C 2292.3 -1.97944 0.441134 0
M  V30 23245 C 2292.63 -1.66594 -0.997994 0
M  V30 23246 O 2291.91 -0.947927 -1.69837 0
M  V30 23247 C 2292.19 -3.53871 0.666903 0
M  V30 23248 C 2292.05 -3.94893 2.15359 0
M  V30 23249 C 2293.36 -4.39948 0.115622 0
M  V30 23250 H 2290.48 -0.719031 0.161752 0
M  V30 23251 H 2293.13 -1.57744 1.0591 0
M  V30 23252 H 2291.28 -3.88244 0.140896 0
M  V30 23253 H 2292.95 -3.70756 2.74477 0
M  V30 23254 H 2291.19 -3.4448 2.63659 0
M  V30 23255 H 2291.86 -5.03512 2.2623 0
M  V30 23256 H 2294.34 -4.12242 0.565286 0
M  V30 23257 H 2293.21 -5.48062 0.303249 0
M  V30 23258 H 2293.47 -4.31082 -0.980859 0
M  V30 23259 N 2292.53 -0.599659 -1.45746 0
M  V30 23260 C 2293.76 -0.0960563 -2.07177 0
M  V30 23261 C 2294.18 1.20697 -1.4427 0
M  V30 23262 O 2293.54 1.73303 -0.532534 0
M  V30 23263 C 2293.59 0.0384714 -3.60579 0
M  V30 23264 O 2292.69 1.09073 -3.97714 0
M  V30 23265 H 2292.03 -0.0704709 -0.66025 0
M  V30 23266 H 2294.56 -0.827418 -1.87123 0
M  V30 23267 H 2294.57 0.239232 -4.07298 0
M  V30 23268 H 2293.25 -0.913019 -4.05755 0
M  V30 23269 H 2291.83 0.867071 -3.62679 0
M  V30 23270 N 2294.01 1.53925 -0.338371 0
M  V30 23271 C 2295.29 1.93051 0.31474 0
M  V30 23272 C 2295.67 1.26944 1.68667 0
M  V30 23273 O 2295.02 0.418484 2.24635 0
M  V30 23274 C 2295.23 3.46789 0.392188 0
M  V30 23275 C 2296.57 4.19665 0.645481 0
M  V30 23276 O 2297.6 3.53025 0.474513 0
M  V30 23277 O 2296.46 5.37708 0.976314 0
M  V30 23278 H 2293.55 0.806593 0.182584 0
M  V30 23279 H 2296.1 1.65177 -0.38917 0
M  V30 23280 H 2294.87 3.87115 -0.57077 0
M  V30 23281 H 2294.49 3.80814 1.14309 0
M  V30 23282 N 2295.49 0.0668712 1.57458 0
M  V30 23283 C 2296.42 -0.899726 2.1547 0
M  V30 23284 C 2297.4 -1.31379 1.08044 0
M  V30 23285 O 2298.59 -1.38572 1.36057 0
M  V30 23286 C 2295.72 -2.16907 2.71236 0
M  V30 23287 C 2294.67 -1.89456 3.83784 0
M  V30 23288 C 2294 -3.22978 4.26133 0
M  V30 23289 C 2295.3 -1.20372 5.0824 0
M  V30 23290 H 2296.99 -0.416477 2.96489 0
M  V30 23291 H 2294.54 -0.198883 1.4262 0
M  V30 23292 H 2296.49 -2.84939 3.10463 0
M  V30 23293 H 2295.21 -2.67465 1.8743 0
M  V30 23294 H 2293.87 -1.2383 3.45053 0
M  V30 23295 H 2293.52 -3.71368 3.39256 0
M  V30 23296 H 2293.22 -3.05404 5.01998 0
M  V30 23297 H 2294.74 -3.92217 4.67973 0
M  V30 23298 H 2296.16 -1.78466 5.44814 0
M  V30 23299 H 2294.55 -1.13073 5.89351 0
M  V30 23300 H 2295.62 -0.182068 4.84558 0
M  V30 23301 N 2296.97 -1.56239 -0.206647 0
M  V30 23302 C 2298.24 -1.70757 -0.954021 0
M  V30 23303 C 2298.62 -0.618388 -2.01839 0
M  V30 23304 O 2297.97 0.372394 -2.25445 0
M  V30 23305 C 2298.18 -3.12645 -1.55094 0
M  V30 23306 C 2299.53 -3.7252 -2.0375 0
M  V30 23307 O 2300.55 -3.15701 -1.64959 0
M  V30 23308 O 2299.41 -4.72213 -2.75094 0
M  V30 23309 H 2296.51 -0.696029 -0.446624 0
M  V30 23310 H 2299.05 -1.6855 -0.197254 0
M  V30 23311 H 2297.83 -3.83383 -0.783145 0
M  V30 23312 H 2297.45 -3.19032 -2.37285 0
M  V30 23313 N 2298.45 0.473929 -1.50305 0
M  V30 23314 C 2299.86 0.807442 -1.37668 0
M  V30 23315 C 2300.06 1.96846 -0.430589 0
M  V30 23316 O 2299.12 2.52176 0.12783 0
M  V30 23317 C 2300.43 1.12218 -2.78976 0
M  V30 23318 C 2301.98 1.2288 -2.87871 0
M  V30 23319 C 2302.45 1.57668 -4.30006 0
M  V30 23320 N 2303.94 1.64665 -4.32943 0
M  V30 23321 C 2304.68 1.93082 -5.39914 0
M  V30 23322 N 2304.18 2.19538 -6.57096 0
M  V30 23323 N 2305.97 1.9456 -5.27355 0
M  V30 23324 H 2298.12 -0.291249 -2.10394 0
M  V30 23325 H 2300.38 -0.0677776 -0.945574 0
M  V30 23326 H 2300.09 0.342167 -3.50032 0
M  V30 23327 H 2299.96 2.05907 -3.16041 0
M  V30 23328 H 2302.35 1.99949 -2.17036 0
M  V30 23329 H 2302.43 0.271769 -2.54352 0
M  V30 23330 H 2302.07 0.811401 -5.01377 0
M  V30 23331 H 2302 2.54517 -4.61009 0
M  V30 23332 H 2304.5 1.46271 -3.48444 0
M  V30 23333 H 2304.81 2.40487 -7.34429 0
M  V30 23334 H 2303.15 2.16937 -6.60275 0
M  V30 23335 H 2306.34 1.73386 -4.34804 0
M  V30 23336 H 2306.52 2.16371 -6.10809 0
M  V30 23337 N 2299.92 1.39835 0.726907 0
M  V30 23338 C 2300.87 1.392 1.84097 0
M  V30 23339 C 2301.84 0.250531 1.642 0
M  V30 23340 O 2303.03 0.446879 1.85493 0
M  V30 23341 C 2300.17 1.24925 3.21695 0
M  V30 23342 C 2299.28 2.48684 3.53242 0
M  V30 23343 C 2298.41 2.26936 4.80285 0
M  V30 23344 C 2297.45 3.46329 5.047 0
M  V30 23345 N 2296.59 3.23847 6.22951 0
M  V30 23346 H 2301.43 2.3443 1.83974 0
M  V30 23347 H 2298.97 1.16443 0.898856 0
M  V30 23348 H 2300.92 1.14658 4.01135 0
M  V30 23349 H 2299.55 0.33321 3.21076 0
M  V30 23350 H 2298.61 2.69524 2.68442 0
M  V30 23351 H 2299.92 3.37589 3.67199 0
M  V30 23352 H 2299.07 2.13957 5.67721 0
M  V30 23353 H 2297.81 1.35439 4.68516 0
M  V30 23354 H 2296.82 3.59798 4.15723 0
M  V30 23355 H 2298.04 4.38738 5.18349 0
M  V30 23356 H 2295.99 2.35022 6.12455 0
M  V30 23357 H 2295.9 4.06311 6.37532 0
M  V30 23358 H 2297.17 3.14578 7.13205 0
M  V30 23359 N 2301.4 -0.957948 1.25144 0
M  V30 23360 C 2302.65 -1.70467 1.09858 0
M  V30 23361 C 2302.98 -1.90831 -0.360153 0
M  V30 23362 O 2302.26 -1.47687 -1.26565 0
M  V30 23363 C 2302.54 -3.0896 1.84975 0
M  V30 23364 C 2302.39 -2.96026 3.38657 0
M  V30 23365 C 2303.71 -4.08793 1.63024 0
M  V30 23366 H 2300.83 -0.618699 0.400476 0
M  V30 23367 H 2303.47 -1.11373 1.53935 0
M  V30 23368 H 2301.62 -3.59406 1.47511 0
M  V30 23369 H 2303.29 -2.52931 3.85777 0
M  V30 23370 H 2301.54 -2.32018 3.66538 0
M  V30 23371 H 2302.21 -3.94181 3.86427 0
M  V30 23372 H 2304.68 -3.67243 1.95631 0
M  V30 23373 H 2303.56 -5.03743 2.18024 0
M  V30 23374 H 2303.82 -4.384 0.570769 0
M  V30 23375 N 2302.88 -1.06677 -1.16008 0
M  V30 23376 C 2304.1 -0.80674 -1.91067 0
M  V30 23377 C 2304.53 0.633454 -1.77113 0
M  V30 23378 O 2303.89 1.44185 -1.0991 0
M  V30 23379 C 2303.94 -1.21112 -3.39653 0
M  V30 23380 O 2303.04 -0.352262 -4.10893 0
M  V30 23381 H 2302.38 -0.294497 -0.59512 0
M  V30 23382 H 2304.91 -1.42359 -1.46953 0
M  V30 23383 H 2304.92 -1.18435 -3.90432 0
M  V30 23384 H 2303.6 -2.26014 -3.49128 0
M  V30 23385 H 2302.17 -0.440933 -3.70284 0
M  V30 23386 N 2304.36 1.32719 -0.8499 0
M  V30 23387 C 2305.63 1.92021 -0.372439 0
M  V30 23388 C 2306.01 1.77449 1.14346 0
M  V30 23389 O 2305.36 1.16965 1.96294 0
M  V30 23390 C 2305.57 3.38949 -0.831541 0
M  V30 23391 C 2306.92 4.16087 -0.845955 0
M  V30 23392 O 2307.94 3.47647 -0.775867 0
M  V30 23393 O 2306.8 5.38288 -0.943848 0
M  V30 23394 H 2303.9 0.81996 -0.107681 0
M  V30 23395 H 2306.44 1.4152 -0.936485 0
M  V30 23396 H 2305.22 3.43477 -1.87454 0
M  V30 23397 H 2304.84 3.96846 -0.244679 0
M  V30 23398 N 2305.84 0.60738 1.45426 0
M  V30 23399 C 2306.77 -0.0988942 2.3329 0
M  V30 23400 C 2307.75 -0.858981 1.46818 0
M  V30 23401 O 2308.93 -0.829573 1.7559 0
M  V30 23402 C 2306.06 -1.09699 3.2952 0
M  V30 23403 C 2305.02 -0.450131 4.25626 0
M  V30 23404 C 2304.34 -1.55646 5.11545 0
M  V30 23405 C 2305.64 0.628546 5.18504 0
M  V30 23406 H 2307.34 0.634767 2.92594 0
M  V30 23407 H 2304.88 0.306706 1.40696 0
M  V30 23408 H 2306.84 -1.59964 3.89858 0
M  V30 23409 H 2305.56 -1.86124 2.68375 0
M  V30 23410 H 2304.22 0.0316531 3.66586 0
M  V30 23411 H 2303.87 -2.31099 4.46769 0
M  V30 23412 H 2303.57 -1.12915 5.76649 0
M  V30 23413 H 2305.09 -2.06138 5.74752 0
M  V30 23414 H 2306.5 0.209978 5.72915 0
M  V30 23415 H 2304.9 0.977593 5.92084 0
M  V30 23416 H 2305.97 1.50522 4.60946 0
M  V30 23417 N 2307.31 -1.53743 0.34653 0
M  V30 23418 C 2308.22 -2.28827 -0.517252 0
M  V30 23419 C 2309.24 -1.34052 -1.10933 0
M  V30 23420 O 2310.42 -1.67092 -1.12437 0
M  V30 23421 C 2307.48 -3.04869 -1.65093 0
M  V30 23422 C 2306.54 -4.15276 -1.08833 0
M  V30 23423 C 2305.78 -4.87683 -2.16798 0
M  V30 23424 O 2306 -4.59784 -3.37572 0
M  V30 23425 O 2304.93 -5.74065 -1.80924 0
M  V30 23426 H 2308.76 -3.03557 0.0931929 0
M  V30 23427 H 2306.34 -1.48983 0.111484 0
M  V30 23428 H 2308.23 -3.52414 -2.31046 0
M  V30 23429 H 2306.9 -2.32993 -2.24713 0
M  V30 23430 H 2305.81 -3.72028 -0.393234 0
M  V30 23431 H 2307.14 -4.89262 -0.53695 0
M  V30 23432 N 2308.79 -0.0752207 -1.5742 0
M  V30 23433 C 2309.74 0.908471 -2.14125 0
M  V30 23434 C 2310.73 1.3059 -1.079 0
M  V30 23435 O 2311.94 1.28275 -1.26276 0
M  V30 23436 H 2308.32 0.310923 -0.684712 0
M  V30 23437 H 2310.29 0.405322 -2.95634 0
M  V30 23438 C 2309.04 2.1653 -2.72048 0
M  V30 23439 H 2308.36 1.86833 -3.53459 0
M  V30 23440 H 2309.8 2.83464 -3.15316 0
M  V30 23441 C 2308.26 2.92612 -1.66973 0
M  V30 23442 O 2308.79 3.86437 -1.09677 0
M  V30 23443 N 2306.99 2.55782 -1.37927 0
M  V30 23444 H 2306.54 1.79556 -1.84709 0
M  V30 23445 H 2306.5 3.0699 -0.678574 0
M  V30 23446 N 2310.27 1.56347 0.198358 0
M  V30 23447 C 2311.18 1.97485 1.26637 0
M  V30 23448 C 2312.2 0.882028 1.49988 0
M  V30 23449 O 2313.37 1.18751 1.62666 0
M  V30 23450 C 2310.44 2.30324 2.59137 0
M  V30 23451 C 2309.5 3.53296 2.43886 0
M  V30 23452 C 2308.73 3.84559 3.70067 0
M  V30 23453 O 2308.95 3.17159 4.74096 0
M  V30 23454 O 2307.89 4.77996 3.65792 0
M  V30 23455 H 2311.71 2.88549 0.947253 0
M  V30 23456 H 2309.3 1.43859 0.403098 0
M  V30 23457 H 2311.18 2.52536 3.37348 0
M  V30 23458 H 2309.86 1.42428 2.90682 0
M  V30 23459 H 2308.76 3.36335 1.63797 0
M  V30 23460 H 2310.1 4.41648 2.17274 0
M  V30 23461 N 2311.75 -0.465951 1.50554 0
M  V30 23462 C 2312.71 -1.54571 1.69235 0
M  V30 23463 C 2313.71 -1.50625 0.562928 0
M  V30 23464 O 2314.9 -1.53153 0.830042 0
M  V30 23465 C 2312.03 -2.9419 1.72235 0
M  V30 23466 H 2313.23 -1.39322 2.65574 0
M  V30 23467 H 2310.78 -0.692687 1.40113 0
M  V30 23468 H 2311.51 -3.14877 0.776085 0
M  V30 23469 H 2311.3 -2.98461 2.5429 0
M  V30 23470 H 2312.79 -3.72573 1.88625 0
M  V30 23471 N 2313.23 -1.40218 -0.719481 0
M  V30 23472 C 2314.17 -1.40175 -1.83357 0
M  V30 23473 C 2315.14 -0.259235 -1.64065 0
M  V30 23474 O 2316.33 -0.456709 -1.85253 0
M  V30 23475 C 2313.47 -1.26629 -3.21028 0
M  V30 23476 C 2312.58 -2.50554 -3.51918 0
M  V30 23477 C 2311.72 -2.2948 -4.79075 0
M  V30 23478 C 2310.76 -3.49001 -5.02857 0
M  V30 23479 N 2309.89 -3.27146 -6.21224 0
M  V30 23480 H 2314.73 -2.35402 -1.82729 0
M  V30 23481 H 2312.27 -1.16918 -0.892668 0
M  V30 23482 H 2314.23 -1.16783 -4.00522 0
M  V30 23483 H 2312.86 -0.350232 -3.20894 0
M  V30 23484 H 2311.91 -2.70944 -2.67009 0
M  V30 23485 H 2313.22 -3.39531 -3.65404 0
M  V30 23486 H 2312.38 -2.16965 -5.66578 0
M  V30 23487 H 2311.11 -1.37922 -4.67792 0
M  V30 23488 H 2310.12 -3.61997 -4.13809 0
M  V30 23489 H 2311.34 -4.41481 -5.16015 0
M  V30 23490 H 2309.29 -2.38267 -6.112 0
M  V30 23491 H 2309.21 -4.09687 -6.35368 0
M  V30 23492 H 2310.48 -3.18356 -7.11526 0
M  V30 23493 N 2314.7 0.951297 -1.25651 0
M  V30 23494 C 2315.65 2.0485 -1.06326 0
M  V30 23495 C 2316.62 1.66075 0.0286199 0
M  V30 23496 O 2317.81 1.90362 -0.129204 0
M  V30 23497 C 2314.95 3.38099 -0.691589 0
M  V30 23498 C 2314.06 3.89971 -1.85868 0
M  V30 23499 C 2313.19 5.11561 -1.43105 0
M  V30 23500 C 2312.23 5.55669 -2.56706 0
M  V30 23501 N 2311.37 6.68469 -2.14696 0
M  V30 23502 H 2316.21 2.20712 -2.00226 0
M  V30 23503 H 2313.75 1.08155 -0.997046 0
M  V30 23504 H 2315.71 4.14689 -0.457036 0
M  V30 23505 H 2314.34 3.22113 0.210418 0
M  V30 23506 H 2313.39 3.09871 -2.20644 0
M  V30 23507 H 2314.7 4.18652 -2.71168 0
M  V30 23508 H 2313.85 5.95578 -1.15634 0
M  V30 23509 H 2312.59 4.84602 -0.548808 0
M  V30 23510 H 2311.6 4.70215 -2.84917 0
M  V30 23511 H 2312.82 5.84634 -3.45513 0
M  V30 23512 H 2310.77 6.43213 -1.28892 0
M  V30 23513 H 2310.69 6.96684 -2.93543 0
M  V30 23514 H 2311.95 7.55886 -1.9041 0
M  V30 23515 N 2316.18 1.07291 1.1544 0
M  V30 23516 C 2317.11 0.650624 2.19772 0
M  V30 23517 C 2318.13 -0.296544 1.60076 0
M  V30 23518 O 2319.32 -0.0859592 1.78293 0
M  V30 23519 C 2316.42 -0.0649803 3.38838 0
M  V30 23520 C 2315.59 0.898216 4.28078 0
M  V30 23521 C 2314.65 0.220019 5.2574 0
M  V30 23522 O 2313.67 0.860871 5.62652 0
M  V30 23523 N 2314.88 -1.03455 5.71207 0
M  V30 23524 H 2317.64 1.54812 2.56619 0
M  V30 23525 H 2315.2 0.957517 1.3055 0
M  V30 23526 H 2317.19 -0.529344 4.01223 0
M  V30 23527 H 2315.76 -0.864414 3.00411 0
M  V30 23528 H 2314.98 1.54171 3.62801 0
M  V30 23529 H 2316.27 1.55129 4.84574 0
M  V30 23530 H 2315.67 -1.57517 5.43328 0
M  V30 23531 H 2314.23 -1.44261 6.35635 0
M  V30 23532 N 2317.66 -1.32267 0.856927 0
M  V30 23533 C 2318.57 -2.32594 0.306172 0
M  V30 23534 C 2319.59 -1.64148 -0.57718 0
M  V30 23535 O 2320.76 -1.9567 -0.477009 0
M  V30 23536 C 2317.83 -3.43155 -0.4945 0
M  V30 23537 C 2316.89 -4.27287 0.415261 0
M  V30 23538 C 2316.12 -5.32569 -0.347293 0
M  V30 23539 O 2316.34 -5.48167 -1.57698 0
M  V30 23540 O 2315.28 -6.0121 0.288087 0
M  V30 23541 H 2319.1 -2.81596 1.13742 0
M  V30 23542 H 2316.69 -1.35931 0.619926 0
M  V30 23543 H 2318.57 -4.10578 -0.948871 0
M  V30 23544 H 2317.25 -2.96338 -1.30251 0
M  V30 23545 H 2316.15 -3.62665 0.917856 0
M  V30 23546 H 2317.49 -4.77635 1.18852 0
M  V30 23547 N 2319.14 -0.615084 -1.45102 0
M  V30 23548 C 2320.1 0.0895082 -2.29025 0
M  V30 23549 C 2321.1 0.787882 -1.40175 0
M  V30 23550 O 2322.29 0.634905 -1.62218 0
M  V30 23551 C 2319.42 1.13706 -3.21378 0
M  V30 23552 H 2320.62 -0.648433 -2.92806 0
M  V30 23553 H 2318.17 -0.37447 -1.51748 0
M  V30 23554 H 2318.9 1.90552 -2.62413 0
M  V30 23555 H 2318.69 0.640407 -3.86835 0
M  V30 23556 H 2320.18 1.6303 -3.84462 0
M  V30 23557 N 2320.62 1.53557 -0.354678 0
M  V30 23558 C 2321.58 2.2402 0.484526 0
M  V30 23559 C 2322.58 1.24424 1.01859 0
M  V30 23560 O 2323.77 1.48782 0.906071 0
M  V30 23561 C 2320.9 2.9685 1.6761 0
M  V30 23562 H 2322.1 2.9961 -0.131895 0
M  V30 23563 H 2319.65 1.55939 -0.106193 0
M  V30 23564 H 2320.38 2.25475 2.33091 0
M  V30 23565 H 2320.17 3.69914 1.30023 0
M  V30 23566 H 2321.66 3.50445 2.27108 0
M  V30 23567 N 2322.1 0.083568 1.57378 0
M  V30 23568 C 2323.34 -0.582464 1.93107 0
M  V30 23569 C 2323.66 -1.70051 0.96654 0
M  V30 23570 O 2324.86 -2.42691 1.2171 0
M  V30 23571 C 2323.32 -1.08745 3.43078 0
M  V30 23572 C 2322.93 0.000225151 4.48 0
M  V30 23573 C 2324.67 -1.72687 3.87788 0
M  V30 23574 C 2322.58 -0.519464 5.89114 0
M  V30 23575 H 2321.51 -0.221345 0.720779 0
M  V30 23576 H 2324.16 0.157707 1.82821 0
M  V30 23577 H 2322.54 -1.88095 3.48477 0
M  V30 23578 H 2323.72 0.775279 4.54231 0
M  V30 23579 H 2322.03 0.544133 4.12829 0
M  V30 23580 H 2324.63 -2.12621 4.90608 0
M  V30 23581 H 2324.97 -2.59152 3.258 0
M  V30 23582 H 2325.5 -0.999389 3.85042 0
M  V30 23583 H 2322.24 0.308301 6.54775 0
M  V30 23584 H 2321.76 -1.26178 5.86378 0
M  V30 23585 H 2323.44 -0.992125 6.39348 0
M  V30 23586 N 2323.57 -1.5645 -0.190064 0
M  V30 23587 C 2324.51 -1.90014 -1.26372 0
M  V30 23588 C 2325.48 -0.760791 -1.43704 0
M  V30 23589 O 2326.67 -1.01229 -1.59013 0
M  V30 23590 C 2323.8 -2.13473 -2.62958 0
M  V30 23591 C 2322.84 -3.36174 -2.62468 0
M  V30 23592 S 2323.67 -4.91141 -2.13403 0
M  V30 23593 C 2324.83 -5.17673 -3.51803 0
M  V30 23594 H 2325.06 -2.80784 -0.977131 0
M  V30 23595 H 2322.6 -1.49294 -0.393788 0
M  V30 23596 H 2324.55 -2.2767 -3.41579 0
M  V30 23597 H 2323.22 -1.23444 -2.88826 0
M  V30 23598 H 2322.41 -3.4973 -3.62912 0
M  V30 23599 H 2322.01 -3.20996 -1.91932 0
M  V30 23600 H 2324.3 -5.08502 -4.47697 0
M  V30 23601 H 2325.25 -6.19405 -3.43138 0
M  V30 23602 H 2325.65 -4.45294 -3.46948 0
M  V30 23603 N 2325.05 0.45796 -1.50799 0
M  V30 23604 C 2326.33 1.21899 -1.5297 0
M  V30 23605 C 2326.71 2.09209 -0.281943 0
M  V30 23606 O 2326.06 2.16389 0.734038 0
M  V30 23607 C 2326.27 2.0387 -2.83263 0
M  V30 23608 C 2327.61 2.61615 -3.34429 0
M  V30 23609 O 2328.64 2.14101 -2.84674 0
M  V30 23610 O 2327.5 3.4822 -4.21195 0
M  V30 23611 H 2324.59 0.553862 -0.614139 0
M  V30 23612 H 2327.14 0.46871 -1.63099 0
M  V30 23613 H 2325.91 1.39615 -3.65545 0
M  V30 23614 H 2325.53 2.86006 -2.762 0
M  V30 23615 N 2326.53 1.40598 0.712035 0
M  V30 23616 C 2327.76 1.42184 1.49891 0
M  V30 23617 C 2328.17 0.020841 1.89189 0
M  V30 23618 O 2327.51 -0.966409 1.56225 0
M  V30 23619 C 2327.57 2.25216 2.80211 0
M  V30 23620 C 2327.24 3.73587 2.63215 0
M  V30 23621 C 2328.23 4.66139 2.3024 0
M  V30 23622 C 2325.92 4.17443 2.79369 0
M  V30 23623 C 2327.91 6.00532 2.13634 0
M  V30 23624 C 2325.6 5.51906 2.6238 0
M  V30 23625 C 2326.6 6.43266 2.29561 0
M  V30 23626 O 2326.29 7.75249 2.12705 0
M  V30 23627 H 2326.02 0.48682 0.469023 0
M  V30 23628 H 2328.57 1.85327 0.885608 0
M  V30 23629 H 2326.8 1.76858 3.43887 0
M  V30 23630 H 2328.49 2.187 3.41943 0
M  V30 23631 H 2329.26 4.33551 2.1739 0
M  V30 23632 H 2325.14 3.46649 3.039 0
M  V30 23633 H 2328.68 6.71807 1.87941 0
M  V30 23634 H 2324.58 5.84077 2.74816 0
M  V30 23635 H 2325.34 7.8622 2.27598 0
M  V30 23636 N 2328.01 -0.94462 1.26153 0
M  V30 23637 C 2328.96 -2.06415 1.07218 0
M  V30 23638 C 2329.95 -1.694 0.000121783 0
M  V30 23639 O 2331.16 -1.79318 0.156531 0
M  V30 23640 H 2327.53 -0.675799 0.329849 0
M  V30 23641 H 2329.5 -2.19538 2.02103 0
M  V30 23642 C 2328.25 -3.402 0.718257 0
M  V30 23643 H 2327.57 -3.69157 1.53504 0
M  V30 23644 H 2329.01 -4.1936 0.625533 0
M  V30 23645 C 2327.47 -3.31933 -0.576376 0
M  V30 23646 O 2328 -3.67776 -1.61567 0
M  V30 23647 N 2326.21 -2.8504 -0.565731 0
M  V30 23648 H 2325.76 -2.56069 0.280412 0
M  V30 23649 H 2325.71 -2.79891 -1.43208 0
M  V30 23650 N 2329.49 -1.07901 -1.1487 0
M  V30 23651 C 2330.9 -0.80563 -1.37774 0
M  V30 23652 C 2331.1 0.587521 -1.92744 0
M  V30 23653 O 2330.16 1.34525 -2.1368 0
M  V30 23654 C 2331.47 -1.88406 -2.34358 0
M  V30 23655 C 2333.02 -1.90947 -2.48009 0
M  V30 23656 C 2333.49 -2.97889 -3.47888 0
M  V30 23657 N 2334.98 -2.97028 -3.55428 0
M  V30 23658 C 2335.72 -3.76419 -4.32546 0
M  V30 23659 N 2335.22 -4.65676 -5.1295 0
M  V30 23660 N 2337.01 -3.64743 -4.27691 0
M  V30 23661 H 2329.16 -1.97743 -0.77533 0
M  V30 23662 H 2331.42 -0.857839 -0.403506 0
M  V30 23663 H 2331.13 -2.88538 -2.01093 0
M  V30 23664 H 2331 -1.74895 -3.34203 0
M  V30 23665 H 2333.39 -0.914628 -2.80568 0
M  V30 23666 H 2333.47 -2.08536 -1.48143 0
M  V30 23667 H 2333.11 -3.97576 -3.16062 0
M  V30 23668 H 2333.04 -2.77546 -4.47522 0
M  V30 23669 H 2335.54 -2.32332 -2.98044 0
M  V30 23670 H 2335.85 -5.22872 -5.69056 0
M  V30 23671 H 2334.19 -4.69721 -5.12237 0
M  V30 23672 H 2337.38 -2.94385 -3.63944 0
M  V30 23673 H 2337.56 -4.26856 -4.87542 0
M  V30 23674 N 2330.96 1.31811 -0.863929 0
M  V30 23675 C 2332.24 1.91616 -0.392784 0
M  V30 23676 C 2332.62 1.78652 1.12458 0
M  V30 23677 O 2331.97 1.1904 1.95043 0
M  V30 23678 C 2332.18 3.38048 -0.867445 0
M  V30 23679 C 2333.53 4.15167 -0.890039 0
M  V30 23680 O 2334.55 3.46805 -0.812696 0
M  V30 23681 O 2333.41 5.37256 -1.00089 0
M  V30 23682 H 2330.5 0.818771 -0.116372 0
M  V30 23683 H 2333.05 1.40519 -0.951443 0
M  V30 23684 H 2331.82 3.4147 -1.91087 0
M  V30 23685 H 2331.44 3.96565 -0.286757 0
M  V30 23686 N 2332.44 0.62277 1.44773 0
M  V30 23687 C 2333.69 0.121432 2.01334 0
M  V30 23688 C 2334 -1.26123 1.49507 0
M  V30 23689 O 2335.21 -1.85612 1.98142 0
M  V30 23690 C 2333.67 0.166362 3.59515 0
M  V30 23691 C 2333.27 1.54981 4.20339 0
M  V30 23692 C 2335.02 -0.278946 4.23583 0
M  V30 23693 C 2332.92 1.55031 5.70718 0
M  V30 23694 H 2331.85 0.0416304 0.75285 0
M  V30 23695 H 2334.51 0.780338 1.66081 0
M  V30 23696 H 2332.89 -0.559488 3.92028 0
M  V30 23697 H 2334.06 2.29858 3.99377 0
M  V30 23698 H 2332.38 1.93849 3.68526 0
M  V30 23699 H 2334.97 -0.29799 5.33869 0
M  V30 23700 H 2335.32 -1.30464 3.95329 0
M  V30 23701 H 2335.85 0.394132 3.95843 0
M  V30 23702 H 2332.59 2.55409 6.03694 0
M  V30 23703 H 2332.11 0.844349 5.93827 0
M  V30 23704 H 2333.79 1.28058 6.342 0
M  V30 23705 N 2333.92 -1.53367 0.362817 0
M  V30 23706 C 2334.83 -2.29362 -0.492953 0
M  V30 23707 C 2335.85 -1.35221 -1.09505 0
M  V30 23708 O 2337.02 -1.68275 -1.10659 0
M  V30 23709 C 2334.09 -3.06603 -1.6185 0
M  V30 23710 C 2333.15 -4.16407 -1.04422 0
M  V30 23711 C 2332.38 -4.89955 -2.11613 0
M  V30 23712 O 2332.6 -4.63339 -3.32676 0
M  V30 23713 O 2331.54 -5.75951 -1.74825 0
M  V30 23714 H 2335.36 -3.03441 0.125384 0
M  V30 23715 H 2332.95 -1.48857 0.12728 0
M  V30 23716 H 2334.83 -3.54845 -2.27295 0
M  V30 23717 H 2333.51 -2.35363 -2.22229 0
M  V30 23718 H 2332.41 -3.72424 -0.353754 0
M  V30 23719 H 2333.75 -4.89804 -0.485027 0
M  V30 23720 N 2335.4 -0.091913 -1.57332 0
M  V30 23721 C 2336.31 0.882467 -2.1737 0
M  V30 23722 C 2337.32 1.31255 -1.14228 0
M  V30 23723 O 2338.5 1.38112 -1.46585 0
M  V30 23724 C 2335.57 2.12471 -2.73965 0
M  V30 23725 C 2334.63 1.74913 -3.92051 0
M  V30 23726 C 2333.86 2.93215 -4.45938 0
M  V30 23727 O 2334.08 4.07845 -3.98771 0
M  V30 23728 O 2333.02 2.71866 -5.37003 0
M  V30 23729 H 2336.84 0.401667 -3.01032 0
M  V30 23730 H 2334.43 0.132264 -1.48813 0
M  V30 23731 H 2336.31 2.85278 -3.10152 0
M  V30 23732 H 2334.98 2.59609 -1.93351 0
M  V30 23733 H 2333.89 0.992961 -3.60681 0
M  V30 23734 H 2335.22 1.3254 -4.74019 0
M  V30 23735 N 2336.88 1.56548 0.181765 0
M  V30 23736 C 2338.13 1.80591 0.898316 0
M  V30 23737 C 2338.44 0.667411 1.83861 0
M  V30 23738 O 2339.64 0.792491 2.59676 0
M  V30 23739 C 2338.1 3.19959 1.64785 0
M  V30 23740 C 2337.71 4.41648 0.751711 0
M  V30 23741 C 2339.45 3.53302 2.35325 0
M  V30 23742 C 2337.36 5.72038 1.50088 0
M  V30 23743 H 2336.29 0.673403 0.339182 0
M  V30 23744 H 2338.94 1.82875 0.151381 0
M  V30 23745 H 2337.32 3.11963 2.43916 0
M  V30 23746 H 2338.5 4.608 -0.0018886 0
M  V30 23747 H 2336.81 4.16106 0.156489 0
M  V30 23748 H 2339.41 4.47961 2.9195 0
M  V30 23749 H 2339.75 2.77682 3.10159 0
M  V30 23750 H 2340.28 3.62805 1.63147 0
M  V30 23751 H 2337.02 6.5066 0.795061 0
M  V30 23752 H 2336.54 5.56882 2.22807 0
M  V30 23753 H 2338.22 6.13626 2.05115 0
M  V30 23754 N 2338.35 -0.449957 1.5104 0
M  V30 23755 C 2339.29 -1.56472 1.66108 0
M  V30 23756 C 2340.27 -1.54434 0.508803 0
M  V30 23757 O 2341.45 -1.73747 0.731036 0
M  V30 23758 C 2338.58 -2.95058 1.66309 0
M  V30 23759 C 2337.62 -3.15169 2.87351 0
M  V30 23760 S 2338.46 -2.9281 4.48356 0
M  V30 23761 C 2339.61 -4.337 4.51282 0
M  V30 23762 H 2339.84 -1.43454 2.604 0
M  V30 23763 H 2337.38 -0.63878 1.40567 0
M  V30 23764 H 2339.34 -3.74946 1.67109 0
M  V30 23765 H 2338 -3.05448 0.732162 0
M  V30 23766 H 2337.19 -4.16463 2.83857 0
M  V30 23767 H 2336.79 -2.43086 2.84228 0
M  V30 23768 H 2339.08 -5.26694 4.26146 0
M  V30 23769 H 2340.03 -4.42232 5.53025 0
M  V30 23770 H 2340.43 -4.16766 3.80745 0
M  V30 23771 N 2339.83 -1.40974 -0.704569 0
M  V30 23772 C 2340.78 -1.42112 -1.8186 0
M  V30 23773 C 2341.75 -0.276622 -1.6378 0
M  V30 23774 O 2342.93 -0.476332 -1.84759 0
M  V30 23775 C 2340.07 -1.30027 -3.19667 0
M  V30 23776 C 2339.19 -2.54273 -3.49241 0
M  V30 23777 C 2338.32 -2.34548 -4.76614 0
M  V30 23778 C 2337.36 -3.54315 -4.99127 0
M  V30 23779 N 2336.5 -3.33717 -6.1772 0
M  V30 23780 H 2341.34 -2.37327 -1.80222 0
M  V30 23781 H 2338.88 -1.17858 -0.880217 0
M  V30 23782 H 2340.83 -1.21025 -3.9926 0
M  V30 23783 H 2339.46 -0.384248 -3.20505 0
M  V30 23784 H 2338.52 -2.7376 -2.6412 0
M  V30 23785 H 2339.83 -3.43388 -3.61782 0
M  V30 23786 H 2338.98 -2.22962 -5.64245 0
M  V30 23787 H 2337.72 -1.42875 -4.66302 0
M  V30 23788 H 2336.73 -3.66366 -4.09947 0
M  V30 23789 H 2337.95 -4.46929 -5.11303 0
M  V30 23790 H 2335.9 -2.44736 -6.08638 0
M  V30 23791 H 2335.81 -4.16403 -6.30987 0
M  V30 23792 H 2337.08 -3.25885 -7.0811 0
M  V30 23793 N 2341.31 0.937917 -1.26653 0
M  V30 23794 C 2342.59 1.66202 -1.03132 0
M  V30 23795 C 2342.97 2.06523 0.437219 0
M  V30 23796 O 2342.32 1.79156 1.41828 0
M  V30 23797 C 2342.53 2.87177 -1.98319 0
M  V30 23798 C 2343.87 3.58754 -2.27113 0
M  V30 23799 O 2344.9 2.97287 -1.96211 0
M  V30 23800 O 2343.76 4.69474 -2.79744 0
M  V30 23801 H 2340.85 0.727979 -0.392396 0
M  V30 23802 H 2343.4 0.989358 -1.37876 0
M  V30 23803 H 2342.17 2.54296 -2.97404 0
M  V30 23804 H 2341.79 3.62167 -1.64075 0
M  V30 23805 N 2342.79 1.08509 1.14296 0
M  V30 23806 C 2344.04 0.810338 1.84706 0
M  V30 23807 C 2344.35 -0.666238 1.83904 0
M  V30 23808 O 2345.56 -1.05619 2.50114 0
M  V30 23809 C 2344.01 1.39963 3.31569 0
M  V30 23810 C 2343.62 2.90807 3.40786 0
M  V30 23811 C 2345.36 1.20342 4.07085 0
M  V30 23812 C 2343.27 3.42869 4.81866 0
M  V30 23813 H 2342.2 0.299466 0.69198 0
M  V30 23814 H 2344.85 1.30663 1.28838 0
M  V30 23815 H 2343.23 0.831045 3.87182 0
M  V30 23816 H 2344.41 3.53811 2.95219 0
M  V30 23817 H 2342.72 3.09355 2.78727 0
M  V30 23818 H 2345.32 1.56702 5.11223 0
M  V30 23819 H 2345.66 0.14331 4.16053 0
M  V30 23820 H 2346.2 1.739 3.57776 0
M  V30 23821 H 2342.94 4.48457 4.78086 0
M  V30 23822 H 2342.46 2.84624 5.27967 0
M  V30 23823 H 2344.13 3.39519 5.50759 0
M  V30 23824 N 2344.27 -1.31351 0.870907 0
M  V30 23825 C 2345.68 -1.49342 0.562958 0
M  V30 23826 C 2345.88 -1.80149 -0.902693 0
M  V30 23827 O 2344.94 -1.8807 -1.68481 0
M  V30 23828 C 2346.25 -2.62656 1.46398 0
M  V30 23829 C 2347.8 -2.76539 1.46612 0
M  V30 23830 C 2348.27 -3.92951 2.35273 0
M  V30 23831 N 2349.77 -4.00239 2.33158 0
M  V30 23832 C 2350.5 -4.89589 2.9848 0
M  V30 23833 N 2350 -5.83834 3.72975 0
M  V30 23834 N 2351.79 -4.82843 2.87784 0
M  V30 23835 H 2343.94 -1.09623 1.81925 0
M  V30 23836 H 2346.2 -0.541763 0.777944 0
M  V30 23837 H 2345.91 -2.4667 2.50693 0
M  V30 23838 H 2345.78 -3.58817 1.1632 0
M  V30 23839 H 2348.17 -2.91939 0.430741 0
M  V30 23840 H 2348.25 -1.81043 1.80713 0
M  V30 23841 H 2347.9 -3.78309 3.38888 0
M  V30 23842 H 2347.83 -4.87757 1.98495 0
M  V30 23843 H 2350.32 -3.32811 1.79011 0
M  V30 23844 H 2350.63 -6.48743 4.19943 0
M  V30 23845 H 2348.97 -5.8381 3.77083 0
M  V30 23846 H 2352.17 -4.08191 2.29123 0
M  V30 23847 H 2352.34 -5.52271 3.38971 0
M  V30 23848 N 2345.74 -0.630439 -1.44441 0
M  V30 23849 C 2346.69 0.087102 -2.32437 0
M  V30 23850 C 2347.69 0.836499 -1.47306 0
M  V30 23851 O 2348.89 0.749477 -1.63655 0
M  V30 23852 H 2345.27 0.0469363 -0.750534 0
M  V30 23853 H 2347.24 -0.673148 -2.90708 0
M  V30 23854 C 2345.99 1.05557 -3.3129 0
M  V30 23855 H 2345.31 0.488356 -3.96806 0
M  V30 23856 H 2346.75 1.52714 -3.95543 0
M  V30 23857 C 2345.21 2.14048 -2.60164 0
M  V30 23858 O 2345.74 3.2212 -2.40003 0
M  V30 23859 N 2343.95 1.89964 -2.19914 0
M  V30 23860 H 2343.49 1.0208 -2.36511 0
M  V30 23861 H 2343.45 2.62753 -1.72651 0
M  V30 23862 N 2347.22 1.53172 -0.370945 0
M  V30 23863 C 2348.15 2.28827 0.464807 0
M  V30 23864 C 2349.13 1.3147 1.07933 0
M  V30 23865 O 2350.32 1.60346 1.09557 0
M  V30 23866 C 2347.45 3.0815 1.60191 0
M  V30 23867 C 2346.4 4.13238 1.11436 0
M  V30 23868 C 2345.73 4.80676 2.34211 0
M  V30 23869 C 2347.03 5.21935 0.195292 0
M  V30 23870 H 2348.72 2.98937 -0.166382 0
M  V30 23871 H 2346.27 1.43769 -0.0814612 0
M  V30 23872 H 2348.22 3.59825 2.19325 0
M  V30 23873 H 2346.95 2.35739 2.26041 0
M  V30 23874 H 2345.6 3.62516 0.545664 0
M  V30 23875 H 2345.25 4.04832 2.9853 0
M  V30 23876 H 2344.95 5.51693 2.02259 0
M  V30 23877 H 2346.48 5.35148 2.94022 0
M  V30 23878 H 2347.89 5.69081 0.694275 0
M  V30 23879 H 2346.29 6.00091 -0.0336082 0
M  V30 23880 H 2347.36 4.78891 -0.761045 0
M  V30 23881 N 2348.7 0.100255 1.57281 0
M  V30 23882 C 2349.61 -0.870927 2.17835 0
M  V30 23883 C 2350.63 -1.30647 1.14923 0
M  V30 23884 O 2351.8 -1.37333 1.47315 0
M  V30 23885 C 2348.87 -2.11015 2.75088 0
M  V30 23886 C 2347.93 -1.72831 3.92973 0
M  V30 23887 C 2347.16 -2.90846 4.47487 0
M  V30 23888 O 2347.38 -4.05724 4.00929 0
M  V30 23889 O 2346.32 -2.69014 5.38438 0
M  V30 23890 H 2350.14 -0.385697 3.01241 0
M  V30 23891 H 2347.73 -0.124371 1.48881 0
M  V30 23892 H 2349.61 -2.83629 3.11661 0
M  V30 23893 H 2348.29 -2.5858 1.94725 0
M  V30 23894 H 2347.19 -0.97382 3.61203 0
M  V30 23895 H 2348.53 -1.30024 4.74715 0
M  V30 23896 N 2350.18 -1.56643 -0.17346 0
M  V30 23897 C 2351.46 -1.72742 -0.917586 0
M  V30 23898 C 2351.84 -0.661062 -2.00482 0
M  V30 23899 O 2351.18 0.32449 -2.26184 0
M  V30 23900 C 2351.39 -3.15864 -1.48428 0
M  V30 23901 C 2352.74 -3.76758 -1.95803 0
M  V30 23902 O 2353.77 -3.19129 -1.58226 0
M  V30 23903 O 2352.63 -4.77942 -2.65016 0
M  V30 23904 H 2349.72 -0.705346 -0.431759 0
M  V30 23905 H 2352.27 -1.6893 -0.161457 0
M  V30 23906 H 2351.04 -3.84958 -0.701647 0
M  V30 23907 H 2350.66 -3.23993 -2.30465 0
M  V30 23908 N 2351.66 0.44194 -1.51277 0
M  V30 23909 C 2352.91 1.18868 -1.62952 0
M  V30 23910 C 2353.22 1.92455 -0.349346 0
M  V30 23911 O 2354.43 2.69294 -0.345403 0
M  V30 23912 C 2352.88 2.1615 -2.87762 0
M  V30 23913 C 2352.49 1.48232 -4.22766 0
M  V30 23914 C 2354.23 2.91285 -3.08793 0
M  V30 23915 C 2352.14 2.43971 -5.38732 0
M  V30 23916 H 2351.07 0.447396 -0.606921 0
M  V30 23917 H 2353.72 0.456174 -1.77739 0
M  V30 23918 H 2352.1 2.92816 -2.66598 0
M  V30 23919 H 2353.28 0.771555 -4.54295 0
M  V30 23920 H 2351.59 0.85267 -4.07576 0
M  V30 23921 H 2354.19 3.62995 -3.92605 0
M  V30 23922 H 2354.53 3.52366 -2.21685 0
M  V30 23923 H 2355.07 2.21727 -3.30276 0
M  V30 23924 H 2351.8 1.87586 -6.28086 0
M  V30 23925 H 2351.32 3.13114 -5.11585 0
M  V30 23926 H 2353 3.05197 -5.70494 0
M  V30 23927 N 2353.14 1.41345 0.697083 0
M  V30 23928 C 2354.55 1.23781 1.00749 0
M  V30 23929 C 2354.75 0.126101 2.01105 0
M  V30 23930 O 2353.81 -0.509996 2.47296 0
M  V30 23931 C 2355.12 2.58656 1.53354 0
M  V30 23932 C 2356.67 2.65825 1.65246 0
M  V30 23933 C 2357.14 4.01013 2.21253 0
M  V30 23934 N 2358.63 4.02851 2.28615 0
M  V30 23935 C 2359.37 5.04254 2.72975 0
M  V30 23936 N 2358.87 6.16047 3.16951 0
M  V30 23937 N 2360.66 4.91616 2.72526 0
M  V30 23938 H 2352.81 2.12376 0.0322288 0
M  V30 23939 H 2355.07 0.944878 0.0768687 0
M  V30 23940 H 2354.78 3.40751 0.870713 0
M  V30 23941 H 2354.65 2.81036 2.51592 0
M  V30 23942 H 2357.04 1.8409 2.3064 0
M  V30 23943 H 2357.12 2.47257 0.65557 0
M  V30 23944 H 2356.76 4.83196 1.56474 0
M  V30 23945 H 2356.69 4.16921 3.2169 0
M  V30 23946 H 2359.19 3.22135 1.9758 0
M  V30 23947 H 2359.5 6.89293 3.49421 0
M  V30 23948 H 2357.84 6.19585 3.14864 0
M  V30 23949 H 2361.03 4.03365 2.37518 0
M  V30 23950 H 2361.21 5.70781 3.06779 0
M  V30 23951 N 2354.61 -0.931187 1.27148 0
M  V30 23952 C 2355.56 -2.03132 1.09572 0
M  V30 23953 C 2356.53 -1.661 -0.00219513 0
M  V30 23954 O 2357.72 -1.90132 0.159472 0
M  V30 23955 C 2354.86 -3.36956 0.74529 0
M  V30 23956 C 2353.97 -3.86964 1.92048 0
M  V30 23957 C 2353.1 -5.09219 1.51225 0
M  V30 23958 C 2352.14 -5.51515 2.65514 0
M  V30 23959 N 2351.28 -6.64968 2.25303 0
M  V30 23960 H 2356.12 -2.17498 2.03712 0
M  V30 23961 H 2353.66 -1.06555 1.01413 0
M  V30 23962 H 2355.61 -4.13909 0.522951 0
M  V30 23963 H 2354.24 -3.22407 -0.159145 0
M  V30 23964 H 2353.3 -3.06322 2.25546 0
M  V30 23965 H 2354.61 -4.14285 2.77794 0
M  V30 23966 H 2353.76 -5.93663 1.25095 0
M  V30 23967 H 2352.5 -4.83668 0.625834 0
M  V30 23968 H 2351.51 -4.65623 2.92362 0
M  V30 23969 H 2352.73 -5.79064 3.54771 0
M  V30 23970 H 2350.68 -6.41081 1.39109 0
M  V30 23971 H 2350.59 -6.91926 3.04589 0
M  V30 23972 H 2351.86 -7.52762 2.02411 0
M  V30 23973 N 2356.09 -1.09114 -1.13719 0
M  V30 23974 C 2357.32 -0.846932 -1.88771 0
M  V30 23975 C 2357.73 0.60154 -1.78961 0
M  V30 23976 O 2357.09 1.41386 -1.15397 0
M  V30 23977 C 2357.14 -1.26919 -3.38488 0
M  V30 23978 O 2356.86 -2.66085 -3.48038 0
M  V30 23979 C 2358.36 -1.0569 -4.30517 0
M  V30 23980 H 2355.58 -0.304924 -0.597714 0
M  V30 23981 H 2358.13 -1.45229 -1.43975 0
M  V30 23982 H 2356.28 -0.70779 -3.80879 0
M  V30 23983 H 2356.7 -2.83803 -4.41085 0
M  V30 23984 H 2358.17 -1.40166 -5.33908 0
M  V30 23985 H 2358.65 0.00555696 -4.392 0
M  V30 23986 H 2359.25 -1.60409 -3.9389 0
M  V30 23987 N 2357.57 1.30887 -0.877861 0
M  V30 23988 C 2358.5 2.3078 -0.355381 0
M  V30 23989 C 2359.48 1.60688 0.557965 0
M  V30 23990 O 2360.67 1.88344 0.473322 0
M  V30 23991 C 2357.8 3.44538 0.437161 0
M  V30 23992 C 2356.75 4.26276 -0.38379 0
M  V30 23993 C 2356.08 5.32018 0.534921 0
M  V30 23994 C 2357.38 4.96473 -1.6221 0
M  V30 23995 H 2359.07 2.7473 -1.19012 0
M  V30 23996 H 2356.62 1.32077 -0.573722 0
M  V30 23997 H 2358.57 4.13478 0.813261 0
M  V30 23998 H 2357.29 2.99374 1.30548 0
M  V30 23999 H 2355.95 3.59014 -0.741938 0
M  V30 24000 H 2355.6 4.83103 1.40074 0
M  V30 24001 H 2355.3 5.87599 -0.0105244 0
M  V30 24002 H 2356.82 6.03816 0.907693 0
M  V30 24003 H 2358.24 5.57968 -1.31699 0
M  V30 24004 H 2356.63 5.61887 -2.10721 0
M  V30 24005 H 2357.7 4.23006 -2.37052 0
M  V30 24006 N 2359.05 0.638091 1.44105 0
M  V30 24007 C 2360.46 0.226927 1.85316 0
M  V30 24008 C 2360.81 -1.22322 1.53401 0
M  V30 24009 O 2359.93 -1.93166 0.975497 0
M  V30 24010 C 2360.53 0.405072 3.3637 0
M  V30 24011 C 2359.09 0.0483563 3.76369 0
M  V30 24012 C 2358.24 0.715155 2.67919 0
M  V30 24013 H 2361.19 0.842787 1.34472 0
M  V30 24014 H 2361.21 -0.353933 3.7885 0
M  V30 24015 H 2360.72 1.46059 3.59567 0
M  V30 24016 H 2358.82 -1.00516 3.58786 0
M  V30 24017 H 2358.93 0.463271 4.76855 0
M  V30 24018 H 2357.3 0.149798 2.54259 0
M  V30 24019 H 2358.08 1.77341 2.93948 0
M  V30 24020 N 2360.53 -1.52973 0.379063 0
M  V30 24021 C 2361.75 -2.06341 -0.209317 0
M  V30 24022 C 2362.18 -1.24975 -1.4058 0
M  V30 24023 O 2361.53 -0.272186 -1.79245 0
M  V30 24024 C 2361.58 -3.56103 -0.567723 0
M  V30 24025 O 2360.69 -3.77378 -1.66312 0
M  V30 24026 H 2360.03 -0.663439 -0.0272802 0
M  V30 24027 H 2362.56 -1.97247 0.54357 0
M  V30 24028 H 2362.57 -3.99366 -0.834933 0
M  V30 24029 H 2361.24 -4.14765 0.307086 0
M  V30 24030 H 2359.82 -3.46008 -1.39042 0
M  V30 24031 N 2362 -0.108595 -1.57225 0
M  V30 24032 C 2363.25 0.550819 -1.94449 0
M  V30 24033 C 2363.57 1.67876 -0.992103 0
M  V30 24034 O 2362.84 1.95845 -0.0465344 0
M  V30 24035 H 2361.42 0.206466 -0.7179 0
M  V30 24036 H 2364.08 -0.175096 -1.94112 0
M  V30 24037 H 2363.18 0.952207 -2.9722 0
M  V30 24038 N 2363.48 1.56732 0.16515 0
M  V30 24039 C 2364.72 1.84142 0.887198 0
M  V30 24040 C 2365.09 0.690385 1.79158 0
M  V30 24041 O 2366.29 0.845077 2.5517 0
M  V30 24042 C 2364.56 3.16684 1.65668 0
M  V30 24043 S 2366.12 3.65594 2.42665 0
M  V30 24044 H 2362.93 0.645983 0.297031 0
M  V30 24045 H 2365.54 1.94936 0.148405 0
M  V30 24046 H 2364.24 3.98443 0.983437 0
M  V30 24047 H 2363.77 3.08847 2.43674 0
M  V30 24048 H 2365.79 3.33412 3.67493 0
M  V30 24049 N 2364.96 -0.433911 1.51509 0
M  V30 24050 C 2366.21 -1.18306 1.64347 0
M  V30 24051 C 2366.53 -1.91114 0.361349 0
M  V30 24052 O 2365.79 -1.84423 -0.65472 0
M  V30 24053 C 2366.09 -2.222 2.79932 0
M  V30 24054 C 2365.76 -1.6638 4.19081 0
M  V30 24055 C 2364.42 -1.50879 4.56934 0
M  V30 24056 C 2366.77 -1.25372 5.05897 0
M  V30 24057 C 2364.1 -0.928506 5.79306 0
M  V30 24058 C 2366.45 -0.687712 6.28851 0
M  V30 24059 C 2365.11 -0.519638 6.65474 0
M  V30 24060 H 2364.38 -0.432912 0.601388 0
M  V30 24061 H 2367.03 -0.473644 1.8555 0
M  V30 24062 H 2365.34 -2.99193 2.52964 0
M  V30 24063 H 2367.03 -2.79992 2.87064 0
M  V30 24064 H 2363.62 -1.79421 3.89238 0
M  V30 24065 H 2367.81 -1.36166 4.77255 0
M  V30 24066 H 2363.06 -0.786079 6.06326 0
M  V30 24067 H 2367.24 -0.361459 6.95461 0
M  V30 24068 H 2364.86 -0.0678643 7.6017 0
M  V30 24069 N 2366.44 -1.41713 -0.689577 0
M  V30 24070 C 2367.39 -1.44245 -1.82472 0
M  V30 24071 C 2368.38 -0.319803 -1.66354 0
M  V30 24072 O 2369.59 -0.492119 -1.73142 0
M  V30 24073 H 2365.96 -0.451455 -0.601409 0
M  V30 24074 H 2367.93 -2.39902 -1.77453 0
M  V30 24075 C 2366.68 -1.34736 -3.20533 0
M  V30 24076 H 2366 -2.20411 -3.33555 0
M  V30 24077 H 2367.44 -1.40569 -4.0002 0
M  V30 24078 C 2365.9 -0.0603873 -3.36846 0
M  V30 24079 O 2366.43 0.892594 -3.91658 0
M  V30 24080 N 2364.64 0.0176528 -2.90595 0
M  V30 24081 H 2364.19 -0.758615 -2.46176 0
M  V30 24082 H 2364.14 0.878148 -3.01887 0
M  V30 24083 N 2367.92 0.924431 -1.2764 0
M  V30 24084 C 2369.14 1.70647 -1.16992 0
M  V30 24085 C 2369.56 1.86818 0.272836 0
M  V30 24086 O 2368.92 1.38755 1.18546 0
M  V30 24087 C 2368.97 3.10436 -1.85234 0
M  V30 24088 O 2368.69 2.95022 -3.23873 0
M  V30 24089 C 2370.19 4.04776 -1.80753 0
M  V30 24090 H 2367.41 0.533773 -0.406604 0
M  V30 24091 H 2369.95 1.15775 -1.68571 0
M  V30 24092 H 2368.11 3.62158 -1.37551 0
M  V30 24093 H 2368.52 3.8342 -3.57896 0
M  V30 24094 H 2370 5.00364 -2.3311 0
M  V30 24095 H 2370.47 4.32262 -0.777575 0
M  V30 24096 H 2371.08 3.5898 -2.28065 0
M  V30 24097 N 2369.39 1.09715 1.13139 0
M  V30 24098 C 2370.81 0.853914 1.66028 0
M  V30 24099 C 2371.16 -0.617109 1.86242 0
M  V30 24100 O 2370.28 -1.47501 1.58343 0
M  V30 24101 C 2370.88 1.54355 3.01596 0
M  V30 24102 C 2369.44 1.34721 3.51465 0
M  V30 24103 C 2368.58 1.59773 2.26645 0
M  V30 24104 H 2371.53 1.2559 0.970204 0
M  V30 24105 H 2371.55 0.978331 3.67708 0
M  V30 24106 H 2371.07 2.61415 2.86851 0
M  V30 24107 H 2369.17 0.297903 3.71407 0
M  V30 24108 H 2369.28 2.08408 4.31396 0
M  V30 24109 H 2367.64 1.02002 2.33383 0
M  V30 24110 H 2368.43 2.68069 2.14462 0
M  V30 24111 N 2370.87 -1.30419 0.88479 0
M  V30 24112 C 2372.1 -2.00845 0.517323 0
M  V30 24113 C 2372.52 -1.65887 -0.88675 0
M  V30 24114 O 2371.88 -0.875382 -1.58766 0
M  V30 24115 C 2371.93 -3.53759 0.699056 0
M  V30 24116 O 2371.03 -4.1161 -0.255136 0
M  V30 24117 H 2370.37 -0.631924 0.203883 0
M  V30 24118 H 2372.9 -1.6627 1.19228 0
M  V30 24119 H 2372.91 -4.03594 0.597983 0
M  V30 24120 H 2371.59 -3.78541 1.72277 0
M  V30 24121 H 2370.17 -3.72744 -0.107774 0
M  V30 24122 N 2372.35 -0.645724 -1.43764 0
M  V30 24123 C 2373.6 -0.153448 -2.01115 0
M  V30 24124 C 2373.91 1.23728 -1.51495 0
M  V30 24125 O 2375.12 1.82437 -2.0107 0
M  V30 24126 C 2373.57 -0.223536 -3.59205 0
M  V30 24127 C 2373.18 -1.61649 -4.1782 0
M  V30 24128 C 2374.93 0.211523 -4.23973 0
M  V30 24129 C 2372.83 -1.64091 -5.6818 0
M  V30 24130 H 2371.76 -0.0536024 -0.752092 0
M  V30 24131 H 2374.41 -0.806662 -1.64819 0
M  V30 24132 H 2372.8 0.497049 -3.92868 0
M  V30 24133 H 2373.97 -2.36183 -3.9567 0
M  V30 24134 H 2372.29 -1.99688 -3.65395 0
M  V30 24135 H 2374.88 0.213018 -5.34276 0
M  V30 24136 H 2375.23 1.24158 -3.97354 0
M  V30 24137 H 2375.76 -0.457058 -3.95166 0
M  V30 24138 H 2372.5 -2.64981 -5.99554 0
M  V30 24139 H 2372.02 -0.938715 -5.92409 0
M  V30 24140 H 2373.7 -1.38131 -6.32083 0
M  V30 24141 N 2373.83 1.5277 -0.38717 0
M  V30 24142 C 2374.74 2.30118 0.456401 0
M  V30 24143 C 2375.75 1.36946 1.0734 0
M  V30 24144 O 2376.93 1.70015 1.07968 0
M  V30 24145 C 2374 3.09139 1.56952 0
M  V30 24146 C 2373.06 4.18015 0.977842 0
M  V30 24147 C 2372.29 4.93259 2.03791 0
M  V30 24148 O 2372.51 4.68573 3.25263 0
M  V30 24149 O 2371.45 5.7866 1.6564 0
M  V30 24150 H 2375.27 3.03203 -0.173643 0
M  V30 24151 H 2372.86 1.48636 -0.150945 0
M  V30 24152 H 2374.74 3.58416 2.21621 0
M  V30 24153 H 2373.41 2.38869 2.18456 0
M  V30 24154 H 2372.32 3.72939 0.29446 0
M  V30 24155 H 2373.65 4.90514 0.407042 0
M  V30 24156 N 2375.31 0.116931 1.57166 0
M  V30 24157 C 2376.25 -0.834042 2.15203 0
M  V30 24158 C 2377.22 -1.26497 1.07646 0
M  V30 24159 O 2378.41 -1.34286 1.35543 0
M  V30 24160 C 2375.55 -2.07952 2.75409 0
M  V30 24161 C 2374.66 -1.69714 3.97267 0
M  V30 24162 C 2373.8 -2.89213 4.45566 0
M  V30 24163 C 2372.84 -2.47205 5.59961 0
M  V30 24164 N 2371.97 -3.59611 6.03013 0
M  V30 24165 H 2376.81 -0.332283 2.96142 0
M  V30 24166 H 2374.35 -0.152323 1.46309 0
M  V30 24167 H 2376.31 -2.80923 3.08444 0
M  V30 24168 H 2374.94 -2.5559 1.97163 0
M  V30 24169 H 2373.99 -0.866251 3.70406 0
M  V30 24170 H 2375.3 -1.34841 4.80228 0
M  V30 24171 H 2374.46 -3.70412 4.805 0
M  V30 24172 H 2373.19 -3.27312 3.6155 0
M  V30 24173 H 2372.2 -1.64439 5.24633 0
M  V30 24174 H 2373.42 -2.10226 6.45741 0
M  V30 24175 H 2371.37 -3.97387 5.21938 0
M  V30 24176 H 2371.29 -3.28655 6.80825 0
M  V30 24177 H 2372.56 -4.41255 6.42584 0
M  V30 24178 N 2376.78 -1.56818 -0.156836 0
M  V30 24179 C 2378.2 -1.72346 -0.717886 0
M  V30 24180 C 2378.55 -0.729779 -1.82123 0
M  V30 24181 O 2377.67 0.105743 -2.16141 0
M  V30 24182 C 2378.27 -3.12492 -1.30898 0
M  V30 24183 C 2376.83 -3.29656 -1.8167 0
M  V30 24184 C 2375.97 -2.68285 -0.701302 0
M  V30 24185 H 2378.92 -1.58551 0.0687268 0
M  V30 24186 H 2378.94 -3.11946 -2.17876 0
M  V30 24187 H 2378.46 -3.84791 -0.505728 0
M  V30 24188 H 2376.56 -2.62337 -2.64594 0
M  V30 24189 H 2376.67 -4.37523 -1.95218 0
M  V30 24190 H 2375.03 -2.28486 -1.12544 0
M  V30 24191 H 2375.82 -3.43181 0.0903449 0
M  V30 24192 O 2378.3 0.301651 -1.58658 0
M  V30 24193 H 2378.99 0.948783 -1.68872 0
M  V30 END ATOM
M  V30 BEGIN BOND
M  V30 END BOND
M  V30 END CTAB
M  END
$$$$
