drugbank_target|P11142 Heat shock cognate 71 kDa protein (DB01254; DB07045; DB09130; DB11638)
 OpenBabel12092120393D

  0  0  0     0  0            999 V3000
M  V30 BEGIN CTAB
M  V30 COUNTS 9967 10041 0 0 0
M  V30 BEGIN ATOM
M  V30 1 H -0.908 1.98254 -0.117106 0
M  V30 2 N 0 1.576 0 0
M  V30 3 C 0.933 2.03868 1.02534 0
M  V30 4 C 1.911 0.928543 1.3348 0
M  V30 5 O 3.095 1.19667 1.45644 0
M  V30 6 C 0.222 2.43627 2.35294 0
M  V30 7 C -0.732 3.65373 2.2001 0
M  V30 8 S 0.101 5.13292 1.52614 0
M  V30 9 C 1.257 5.56322 2.86805 0
M  V30 10 H 1.49 2.90518 0.631377 0
M  V30 11 H -0.977 1.52953 0.210867 0
M  V30 12 H 0.981 2.67203 3.11629 0
M  V30 13 H -0.358 1.57376 2.7183 0
M  V30 14 H -1.165 3.90944 3.18086 0
M  V30 15 H -1.563 3.418 1.51819 0
M  V30 16 H 0.729 5.58782 3.83104 0
M  V30 17 H 1.672 6.56266 2.65933 0
M  V30 18 H 2.08 4.83886 2.90714 0
M  V30 19 N 1.4781 -0.272755 1.55222 0
M  V30 20 C 2.7031 -1.02683 1.80197 0
M  V30 21 C 3.1281 -1.79142 0.573551 0
M  V30 22 O 2.4861 -1.74917 -0.476849 0
M  V30 23 C 2.5341 -1.9609 3.02624 0
M  V30 24 O 1.6381 -3.04863 2.77727 0
M  V30 25 H 0.9791 -0.293557 0.595584 0
M  V30 26 H 3.5091 -0.30159 2.02365 0
M  V30 27 H 3.5191 -2.38039 3.31363 0
M  V30 28 H 2.1941 -1.39851 3.91682 0
M  V30 29 H 0.7711 -2.67228 2.60084 0
M  V30 30 N 2.9562 -1.48159 -0.537278 0
M  V30 31 C 3.9032 -1.62138 -1.64256 0
M  V30 32 C 4.8732 -0.463668 -1.59497 0
M  V30 33 O 6.0582 -0.686241 -1.78032 0
M  V30 34 C 3.1982 -1.66028 -3.02537 0
M  V30 35 C 2.3112 -2.92855 -3.17585 0
M  V30 36 C 1.4462 -2.87952 -4.46382 0
M  V30 37 C 0.4852 -4.09516 -4.54932 0
M  V30 38 N -0.3778 -4.02733 -5.75109 0
M  V30 39 H 4.4622 -2.56529 -1.51647 0
M  V30 40 H 1.9992 -1.27224 -0.738414 0
M  V30 41 H 3.9572 -1.66265 -3.82638 0
M  V30 42 H 2.5872 -0.751331 -3.13934 0
M  V30 43 H 1.6392 -3.02395 -2.30784 0
M  V30 44 H 2.9512 -3.82822 -3.19764 0
M  V30 45 H 2.1052 -2.8655 -5.34765 0
M  V30 46 H 0.8442 -1.95702 -4.46712 0
M  V30 47 H -0.1508 -4.11201 -3.64957 0
M  V30 48 H 1.0742 -5.02917 -4.56346 0
M  V30 49 H -0.9798 -3.13299 -5.76351 0
M  V30 50 H -1.0628 -4.86397 -5.78752 0
M  V30 51 H 0.2052 -4.05379 -6.65799 0
M  V30 52 N 4.4343 0.785586 -1.36625 0
M  V30 53 C 5.6823 1.54057 -1.30808 0
M  V30 54 C 6.0033 1.94683 0.111157 0
M  V30 55 O 5.2733 1.65241 1.05224 0
M  V30 56 H 3.8533 0.571354 -0.481211 0
M  V30 57 H 6.5153 0.935821 -1.70963 0
M  V30 58 H 5.6113 2.44637 -1.93801 0
M  V30 59 N 5.9124 1.20967 1.01018 0
M  V30 60 C 7.3234 1.02319 1.56165 0
M  V30 61 C 7.6744 -0.418546 1.91684 0
M  V30 62 O 6.7994 -1.30096 1.72928 0
M  V30 63 C 7.3944 1.85109 2.8376 0
M  V30 64 C 5.9534 1.70809 3.35412 0
M  V30 65 C 5.1004 1.82643 2.08655 0
M  V30 66 H 8.0514 1.35065 0.833255 0
M  V30 67 H 8.0724 1.35827 3.55431 0
M  V30 68 H 7.5844 2.90035 2.57878 0
M  V30 69 H 5.6854 0.685464 3.66241 0
M  V30 70 H 5.7984 2.52467 4.07182 0
M  V30 71 H 4.1624 1.25896 2.21409 0
M  V30 72 H 4.9454 2.89066 1.85191 0
M  V30 73 N 7.3905 -1.2043 1.01659 0
M  V30 74 C 8.3535 -2.21433 0.591616 0
M  V30 75 C 9.3535 -1.57203 -0.338226 0
M  V30 76 O 10.5435 -1.73737 -0.126918 0
M  V30 77 C 7.6755 -3.40628 -0.136058 0
M  V30 78 H 8.8685 -2.60545 1.48514 0
M  V30 79 H 6.4215 -1.33893 0.806379 0
M  V30 80 H 7.1565 -3.07019 -1.04449 0
M  V30 81 H 6.9415 -3.88475 0.531917 0
M  V30 82 H 8.4315 -4.15475 -0.420735 0
M  V30 83 N 8.8686 -0.792821 -1.36206 0
M  V30 84 C 10.1146 -0.36733 -1.99446 0
M  V30 85 C 10.4476 1.05917 -1.62774 0
M  V30 86 O 9.7226 1.7324 -0.88421 0
M  V30 87 C 10.0056 -0.535044 -3.56103 0
M  V30 88 C 9.8586 -2.00548 -4.02617 0
M  V30 89 C 11.1776 0.0478191 -4.40074 0
M  V30 90 H 8.2966 -0.134941 -0.724541 0
M  V30 91 H 10.9386 -0.999794 -1.61568 0
M  V30 92 H 9.0886 0.00336329 -3.885 0
M  V30 93 H 10.7606 -2.60521 -3.80692 0
M  V30 94 H 9.0036 -2.50686 -3.54032 0
M  V30 95 H 9.6746 -2.07377 -5.11565 0
M  V30 96 H 12.1506 -0.411822 -4.14057 0
M  V30 97 H 11.0266 -0.0995336 -5.4881 0
M  V30 98 H 11.2876 1.14025 -4.27142 0
M  V30 99 N 10.3467 1.47872 -0.545128 0
M  V30 100 C 11.5947 2.02093 -0.016553 0
M  V30 101 C 11.9157 1.42305 1.3332 0
M  V30 102 O 11.1857 0.593853 1.86682 0
M  V30 103 H 9.7657 0.746993 -0.00313038 0
M  V30 104 H 12.4277 1.81414 -0.712397 0
M  V30 105 H 11.5237 3.11996 0.0805422 0
M  V30 106 N 11.8248 0.280983 1.55075 0
M  V30 107 C 13.0738 -0.334784 1.98902 0
M  V30 108 C 13.3868 -1.56534 1.17288 0
M  V30 109 O 14.5928 -2.25443 1.51287 0
M  V30 110 C 13.0488 -0.646994 3.54037 0
M  V30 111 C 12.6568 0.564085 4.44435 0
M  V30 112 C 14.4008 -1.22506 4.06439 0
M  V30 113 C 12.3078 0.226137 5.90967 0
M  V30 114 H 11.2378 -0.128866 0.742906 0
M  V30 115 H 13.8888 0.386556 1.79382 0
M  V30 116 H 12.2708 -1.42739 3.6938 0
M  V30 117 H 13.4448 1.34082 4.40861 0
M  V30 118 H 11.7598 1.0594 4.02698 0
M  V30 119 H 14.3568 -1.49182 5.13468 0
M  V30 120 H 14.6998 -2.16085 3.55827 0
M  V30 121 H 15.2328 -0.50682 3.94558 0
M  V30 122 H 11.9718 1.12996 6.45687 0
M  V30 123 H 11.4918 -0.513717 5.97596 0
M  V30 124 H 13.1708 -0.179539 6.46751 0
M  V30 125 N 13.3029 -1.57598 0.00835791 0
M  V30 126 C 14.5799 -1.82172 -0.712235 0
M  V30 127 C 14.9599 -0.887873 -1.9152 0
M  V30 128 O 14.3079 0.06146 -2.28417 0
M  V30 129 C 14.5179 -3.30875 -1.11008 0
M  V30 130 C 15.8659 -3.96826 -1.51044 0
M  V30 131 O 16.8899 -3.35248 -1.20364 0
M  V30 132 O 15.7489 -5.05318 -2.08125 0
M  V30 133 H 12.8429 -0.750435 -0.347529 0
M  V30 134 H 15.3889 -1.69665 0.0344523 0
M  V30 135 H 14.1609 -3.90481 -0.252982 0
M  V30 136 H 13.7839 -3.48412 -1.9156 0
M  V30 137 N 14.781 0.264519 -1.55364 0
M  V30 138 C 15.711 1.33121 -1.91836 0
M  V30 139 C 16.692 1.51101 -0.781192 0
M  V30 140 O 17.877 1.64003 -1.04003 0
M  V30 141 C 15.007 2.68921 -2.19769 0
M  V30 142 C 13.961 2.65661 -3.35571 0
M  V30 143 C 13.287 4.05093 -3.49004 0
M  V30 144 C 14.587 2.24187 -4.71739 0
M  V30 145 H 16.281 1.02844 -2.81182 0
M  V30 146 H 13.827 0.493286 -1.35287 0
M  V30 147 H 15.78 3.43663 -2.43872 0
M  V30 148 H 14.504 3.00799 -1.27231 0
M  V30 149 H 13.163 1.93377 -3.1145 0
M  V30 150 H 12.811 4.34206 -2.53917 0
M  V30 151 H 12.511 4.03804 -4.26868 0
M  V30 152 H 14.035 4.81561 -3.75408 0
M  V30 153 H 15.449 2.88654 -4.9533 0
M  V30 154 H 13.846 2.34044 -5.52579 0
M  V30 155 H 14.916 1.19327 -4.69988 0
M  V30 156 N 16.2591 1.48442 0.529413 0
M  V30 157 C 17.5071 1.56179 1.28267 0
M  V30 158 C 17.8281 0.237721 1.93546 0
M  V30 159 O 17.0981 -0.740779 1.81354 0
M  V30 160 H 15.6781 0.575367 0.476405 0
M  V30 161 H 18.3401 1.84909 0.61602 0
M  V30 162 H 17.4361 2.34312 2.06165 0
M  V30 163 N 17.7372 -0.778329 1.37039 0
M  V30 164 C 18.9652 -1.56734 1.35063 0
M  V30 165 C 19.3802 -1.88686 -0.0655597 0
M  V30 166 O 18.7372 -1.5096 -1.02554 0
M  V30 167 C 18.7882 -2.88163 2.18276 0
M  V30 168 O 18.5092 -2.57583 3.54376 0
M  V30 169 C 20.0102 -3.82422 2.24206 0
M  V30 170 H 17.2302 -0.485778 0.462883 0
M  V30 171 H 19.7742 -0.965185 1.8029 0
M  V30 172 H 17.9292 -3.44818 1.76576 0
M  V30 173 H 18.3432 -3.41699 3.97922 0
M  V30 174 H 19.8172 -4.71667 2.86765 0
M  V30 175 H 20.2942 -4.21078 1.24861 0
M  V30 176 H 20.9002 -3.31697 2.6619 0
M  V30 177 N 19.2153 -1.21501 -1.00376 0
M  V30 178 C 20.4433 -1.059 -1.77744 0
M  V30 179 C 20.8583 0.391125 -1.84704 0
M  V30 180 O 20.2153 1.27133 -1.30933 0
M  V30 181 C 20.2663 -1.65111 -3.21591 0
M  V30 182 O 19.9873 -3.0445 -3.15027 0
M  V30 183 C 21.4883 -1.54637 -4.15454 0
M  V30 184 H 18.7083 -0.371825 -0.558558 0
M  V30 185 H 21.2523 -1.60865 -1.26264 0
M  V30 186 H 19.4073 -1.14235 -3.70175 0
M  V30 187 H 19.8213 -3.3278 -4.0541 0
M  V30 188 H 21.2953 -2.00808 -5.14179 0
M  V30 189 H 21.7723 -0.501022 -4.36333 0
M  V30 190 H 22.3783 -2.04767 -3.72761 0
M  V30 191 N 20.6934 1.19889 -1.02296 0
M  V30 192 C 21.9234 1.93109 -0.734332 0
M  V30 193 C 22.3314 1.75377 0.709889 0
M  V30 194 O 21.6744 1.06912 1.49384 0
M  V30 195 C 21.7364 3.45362 -0.99827 0
M  V30 196 C 21.4004 3.8686 -2.43287 0
M  V30 197 C 22.3974 3.92102 -3.41397 0
M  V30 198 C 20.0824 4.18668 -2.77529 0
M  V30 199 C 22.0764 4.28573 -4.71809 0
M  V30 200 C 19.7634 4.54813 -4.08153 0
M  V30 201 C 20.7614 4.59739 -5.05103 0
M  V30 202 O 20.4494 4.95051 -6.33388 0
M  V30 203 H 20.1814 0.620409 -0.268456 0
M  V30 204 H 22.7354 1.53144 -1.3688 0
M  V30 205 H 20.9654 3.85482 -0.306645 0
M  V30 206 H 22.6544 3.99814 -0.700234 0
M  V30 207 H 23.4204 3.67685 -3.1628 0
M  V30 208 H 19.2994 4.14021 -2.0275 0
M  V30 209 H 22.8434 4.32333 -5.4748 0
M  V30 210 H 18.7404 4.78687 -4.33047 0
M  V30 211 H 19.5084 5.1302 -6.37772 0
M  V30 212 N 22.1715 0.800033 1.35784 0
M  V30 213 C 23.3965 0.388511 2.03729 0
M  V30 214 C 23.8215 -0.990481 1.5991 0
M  V30 215 O 23.1795 -1.64013 0.772612 0
M  V30 216 C 23.2275 0.4726 3.5749 0
M  V30 217 O 22.3315 -0.51646 4.09153 0
M  V30 218 H 21.6725 0.163271 0.643614 0
M  V30 219 H 24.2025 1.0841 1.73518 0
M  V30 220 H 24.2125 0.34003 4.06581 0
M  V30 221 H 22.8875 1.47848 3.88734 0
M  V30 222 H 21.4645 -0.344673 3.71304 0
M  V30 223 N 23.6496 -1.47581 0.552962 0
M  V30 224 C 24.8896 -2.04379 0.0296245 0
M  V30 225 C 25.2536 -1.4185 -1.29393 0
M  V30 226 O 26.4546 -1.89669 -1.90471 0
M  V30 227 C 24.7256 -3.57339 -0.0661371 0
M  V30 228 S 26.2846 -4.35511 -0.536213 0
M  V30 229 H 23.1026 -0.710625 0.0230991 0
M  V30 230 H 25.7046 -1.81005 0.738734 0
M  V30 231 H 24.4086 -4.00374 0.901596 0
M  V30 232 H 23.9396 -3.85202 -0.798931 0
M  V30 233 H 25.9546 -4.6253 -1.79668 0
M  V30 234 N 25.1277 -0.289203 -1.54924 0
M  V30 235 C 26.3737 0.323998 -2.00195 0
M  V30 236 C 26.7067 1.54441 -1.17735 0
M  V30 237 O 25.9817 1.92875 -0.250878 0
M  V30 238 C 26.2647 0.692276 -3.53383 0
M  V30 239 C 26.1177 -0.536457 -4.46589 0
M  V30 240 C 27.4367 1.52335 -4.12895 0
M  V30 241 H 24.5557 0.116289 -0.727768 0
M  V30 242 H 27.1977 -0.398954 -1.85764 0
M  V30 243 H 25.3477 1.30822 -3.65811 0
M  V30 244 H 27.0197 -1.17499 -4.46085 0
M  V30 245 H 25.2627 -1.17192 -4.1767 0
M  V30 246 H 25.9337 -0.234806 -5.515 0
M  V30 247 H 28.4097 1.00302 -4.0383 0
M  V30 248 H 27.2857 1.74982 -5.20262 0
M  V30 249 H 27.5467 2.50886 -3.64018 0
M  V30 250 N 26.6058 1.57591 -0.0167156 0
M  V30 251 C 27.8538 1.90906 0.663285 0
M  V30 252 C 28.1748 0.892509 1.73376 0
M  V30 253 O 27.4448 -0.0677623 1.95783 0
M  V30 254 H 26.0248 0.704637 0.247983 0
M  V30 255 H 28.6868 1.94803 -0.0615909 0
M  V30 256 H 27.7828 2.9116 1.12393 0
M  V30 257 N 28.0839 -0.256276 1.55502 0
M  V30 258 C 29.3299 -0.987079 1.77157 0
M  V30 259 C 29.6629 -1.85327 0.580315 0
M  V30 260 O 28.9379 -1.89874 -0.421686 0
M  V30 261 C 29.2209 -1.85553 3.08613 0
M  V30 262 C 29.0739 -1.01816 4.38125 0
M  V30 263 C 30.3929 -2.8397 3.36228 0
M  V30 264 H 27.5119 -0.357428 0.644526 0
M  V30 265 H 30.1539 -0.258239 1.88237 0
M  V30 266 H 28.3039 -2.47695 2.99298 0
M  V30 267 H 29.9759 -0.416159 4.59419 0
M  V30 268 H 28.2189 -0.322178 4.32602 0
M  V30 269 H 28.8899 -1.65939 5.26468 0
M  V30 270 H 31.3659 -2.31964 3.45445 0
M  V30 271 H 30.2419 -3.41864 4.29442 0
M  V30 272 H 30.5029 -3.59955 2.56681 0
M  V30 273 N 29.562 -1.4872 -0.521534 0
M  V30 274 C 30.809 -1.57168 -1.27689 0
M  V30 275 C 31.137 -0.249275 -1.92896 0
M  V30 276 O 30.392 0.761162 -1.80291 0
M  V30 277 C 30.691 -2.66497 -2.38148 0
M  V30 278 C 30.357 -4.08664 -1.90538 0
M  V30 279 C 29.019 -4.47357 -1.77271 0
M  V30 280 C 31.371 -4.97724 -1.54663 0
M  V30 281 C 28.699 -5.72905 -1.26478 0
M  V30 282 C 31.051 -6.2377 -1.05329 0
M  V30 283 C 29.715 -6.61311 -0.906861 0
M  V30 284 H 28.985 -0.575117 -0.467249 0
M  V30 285 H 31.632 -1.82472 -0.581051 0
M  V30 286 H 29.937 -2.35085 -3.13437 0
M  V30 287 H 31.634 -2.70246 -2.96257 0
M  V30 288 H 28.224 -3.78111 -2.01816 0
M  V30 289 H 32.408 -4.68501 -1.63768 0
M  V30 290 H 27.664 -6.00709 -1.13835 0
M  V30 291 H 31.838 -6.9217 -0.76644 0
M  V30 292 H 29.465 -7.5848 -0.511083 0
M  V30 293 N 31.0401 0.771051 -1.3745 0
M  V30 294 C 31.9721 1.89352 -1.29146 0
M  V30 295 C 32.9851 1.61477 -0.207124 0
M  V30 296 O 34.1741 1.72382 -0.463324 0
M  V30 297 C 31.2741 3.24596 -0.974195 0
M  V30 298 C 30.4471 3.80111 -2.16413 0
M  V30 299 C 29.5061 4.93832 -1.81703 0
M  V30 300 O 28.5321 5.09382 -2.54006 0
M  V30 301 N 29.7341 5.75483 -0.761573 0
M  V30 302 H 32.4991 1.96991 -2.25864 0
M  V30 303 H 30.0601 0.950191 -1.31084 0
M  V30 304 H 32.0521 3.98193 -0.722828 0
M  V30 305 H 30.6221 3.12454 -0.0955527 0
M  V30 306 H 29.8421 2.98284 -2.57721 0
M  V30 307 H 31.1301 4.13932 -2.95867 0
M  V30 308 H 30.5281 5.65469 -0.161609 0
M  V30 309 H 29.0851 6.49302 -0.570064 0
M  V30 310 N 32.5182 1.22032 0.997298 0
M  V30 311 C 33.4682 0.953838 2.07089 0
M  V30 312 C 34.4522 -0.0938669 1.60626 0
M  V30 313 O 35.6442 0.116078 1.76619 0
M  V30 314 C 32.7732 0.528726 3.39204 0
M  V30 315 C 31.8592 1.61092 3.92314 0
M  V30 316 N 32.2502 2.83768 4.18699 0
M  V30 317 C 30.5482 1.48158 4.20672 0
M  V30 318 C 31.2492 3.53715 4.61802 0
M  V30 319 N 30.2252 2.81174 4.65233 0
M  V30 320 H 34.0272 1.88577 2.25424 0
M  V30 321 H 31.5412 1.11719 1.17867 0
M  V30 322 H 33.5382 0.31915 4.15677 0
M  V30 323 H 32.1982 -0.39635 3.22272 0
M  V30 324 H 33.2092 3.20238 4.07023 0
M  V30 325 H 29.8862 0.622369 4.12835 0
M  V30 326 H 31.2762 4.58793 4.90875 0
M  V30 327 N 33.9963 -1.19345 1.0293 0
M  V30 328 C 35.2443 -1.88665 0.724574 0
M  V30 329 C 35.5653 -1.80036 -0.749144 0
M  V30 330 O 34.8353 -1.2111 -1.53978 0
M  V30 331 H 33.4153 -0.698406 0.265025 0
M  V30 332 H 36.0773 -1.44885 1.30362 0
M  V30 333 H 35.1733 -2.94987 1.01926 0
M  V30 334 N 35.4744 -0.807222 -1.35358 0
M  V30 335 C 36.4214 -0.216037 -2.29787 0
M  V30 336 C 37.3914 0.650278 -1.52842 0
M  V30 337 O 38.5764 0.595227 -1.81278 0
M  V30 338 C 35.7164 0.628893 -3.39321 0
M  V30 339 C 34.8294 -0.257927 -4.31229 0
M  V30 340 C 33.9644 0.595069 -5.27856 0
M  V30 341 C 33.0034 -0.292111 -6.11403 0
M  V30 342 N 32.1404 0.520895 -7.00165 0
M  V30 343 H 36.9804 -1.02671 -2.79755 0
M  V30 344 H 34.5174 -0.517839 -1.37684 0
M  V30 345 H 36.4754 1.13393 -4.01494 0
M  V30 346 H 35.1054 1.40482 -2.90628 0
M  V30 347 H 34.1574 -0.881076 -3.70056 0
M  V30 348 H 35.4694 -0.940759 -4.89848 0
M  V30 349 H 34.6234 1.16522 -5.95405 0
M  V30 350 H 33.3624 1.31146 -4.69736 0
M  V30 351 H 32.3674 -0.874525 -5.428 0
M  V30 352 H 33.5924 -1.00638 -6.71602 0
M  V30 353 H 31.5384 1.22125 -6.44532 0
M  V30 354 H 31.4554 -0.103877 -7.55929 0
M  V30 355 H 32.7234 1.0743 -7.72062 0
M  V30 356 N 36.9525 1.47285 -0.560781 0
M  V30 357 C 38.1985 2.02764 -0.0381184 0
M  V30 358 C 38.5315 1.43384 1.30976 0
M  V30 359 O 37.8065 0.590733 1.85312 0
M  V30 360 C 38.0895 3.60064 0.0511427 0
M  V30 361 C 37.9425 4.2987 -1.32408 0
M  V30 362 C 39.2615 4.33439 0.762795 0
M  V30 363 H 36.3805 0.736841 -0.0153264 0
M  V30 364 H 39.0225 1.75675 -0.723759 0
M  V30 365 H 37.1725 3.83274 0.635065 0
M  V30 366 H 38.8445 4.17989 -1.95148 0
M  V30 367 H 37.0875 3.90085 -1.8978 0
M  V30 368 H 37.7585 5.38478 -1.21431 0
M  V30 369 H 40.2345 4.15243 0.266965 0
M  V30 370 H 39.1105 5.43124 0.794221 0
M  V30 371 H 39.3715 4.02915 1.81966 0
M  V30 372 N 38.4306 0.297415 1.54768 0
M  V30 373 C 39.3406 -0.58983 2.27064 0
M  V30 374 C 40.3566 -1.15144 1.30453 0
M  V30 375 O 41.5326 -1.17699 1.63428 0
M  V30 376 C 38.5976 -1.74714 2.9946 0
M  V30 377 C 37.6586 -1.21997 4.11601 0
M  V30 378 C 36.8916 -2.32212 4.80535 0
M  V30 379 O 37.1146 -3.52036 4.48806 0
M  V30 380 O 36.0486 -1.99106 5.68014 0
M  V30 381 H 39.8746 -0.00348199 3.037 0
M  V30 382 H 37.4596 0.0640035 1.49263 0
M  V30 383 H 39.3416 -2.42147 3.44881 0
M  V30 384 H 38.0166 -2.32016 2.25722 0
M  V30 385 H 36.9236 -0.511458 3.70587 0
M  V30 386 H 38.2566 -0.692419 4.87305 0
M  V30 387 N 39.9087 -1.5758 0.0250728 0
M  V30 388 C 41.1577 -1.90811 -0.653767 0
M  V30 389 C 41.4707 -0.90273 -1.73523 0
M  V30 390 O 42.6767 -1.12614 -2.47043 0
M  V30 391 C 41.1327 -3.38804 -1.21409 0
M  V30 392 C 40.7407 -4.47692 -0.166126 0
M  V30 393 C 42.4847 -3.81108 -1.86967 0
M  V30 394 C 40.3917 -5.86779 -0.737856 0
M  V30 395 H 39.3217 -0.712063 -0.247956 0
M  V30 396 H 41.9727 -1.83281 0.0897137 0
M  V30 397 H 40.3547 -3.41252 -2.00905 0
M  V30 398 H 41.5287 -4.56797 0.606079 0
M  V30 399 H 39.8437 -4.14565 0.390466 0
M  V30 400 H 42.4407 -4.82375 -2.30692 0
M  V30 401 H 42.7837 -3.15953 -2.71071 0
M  V30 402 H 43.3167 -3.81065 -1.14167 0
M  V30 403 H 40.0557 -6.55468 0.0649577 0
M  V30 404 H 39.5757 -5.81288 -1.47864 0
M  V30 405 H 41.2547 -6.35223 -1.22884 0
M  V30 406 N 41.3868 0.248026 -1.55636 0
M  V30 407 C 42.6358 0.974134 -1.76617 0
M  V30 408 C 42.9488 1.86528 -0.588796 0
M  V30 409 O 44.1548 2.62805 -0.681594 0
M  V30 410 C 42.6108 1.78213 -3.12679 0
M  V30 411 C 42.2188 0.93843 -4.38061 0
M  V30 412 C 43.9628 2.50104 -3.42999 0
M  V30 413 C 41.8698 1.74225 -5.65155 0
M  V30 414 H 40.7998 0.36745 -0.658405 0
M  V30 415 H 43.4508 0.22884 -1.82067 0
M  V30 416 H 41.8328 2.56933 -3.01333 0
M  V30 417 H 43.0068 0.193635 -4.60393 0
M  V30 418 H 41.3218 0.332905 -4.15067 0
M  V30 419 H 43.9188 3.10694 -4.3517 0
M  V30 420 H 44.2618 3.21662 -2.64271 0
M  V30 421 H 44.7948 1.78395 -3.55556 0
M  V30 422 H 41.5338 1.07043 -6.46701 0
M  V30 423 H 41.0538 2.46235 -5.46926 0
M  V30 424 H 42.7328 2.30967 -6.0437 0
M  V30 425 N 42.8649 1.48995 0.513639 0
M  V30 426 C 43.8279 1.64229 1.59879 0
M  V30 427 C 44.8279 0.514696 1.5234 0
M  V30 428 O 46.0179 0.78087 1.55718 0
M  V30 429 C 43.1499 1.62783 2.99524 0
M  V30 430 H 44.3429 2.61004 1.47705 0
M  V30 431 H 41.8959 1.37837 0.736936 0
M  V30 432 H 42.6309 0.675461 3.17188 0
M  V30 433 H 42.4159 2.4466 3.06404 0
M  V30 434 H 43.9059 1.76669 3.78388 0
M  V30 435 N 44.343 -0.763751 1.37857 0
M  V30 436 C 45.291 -1.89864 1.34367 0
M  V30 437 C 46.285 -1.67816 0.231143 0
M  V30 438 O 47.491 -1.75508 0.399617 0
M  V30 439 H 43.866 -0.624501 0.41893 0
M  V30 440 H 45.837 -1.89925 2.30155 0
M  V30 441 C 44.586 -3.27227 1.1755 0
M  V30 442 H 43.909 -3.44773 2.02414 0
M  V30 443 H 45.349 -4.06911 1.1916 0
M  V30 444 C 43.808 -3.36692 -0.118311 0
M  V30 445 O 44.338 -3.86374 -1.09902 0
M  V30 446 N 42.544 -2.90092 -0.171717 0
M  V30 447 H 42.091 -2.49853 0.627012 0
M  V30 448 H 42.049 -2.96806 -1.03699 0
M  V30 449 N 45.8211 -1.22559 -0.990812 0
M  V30 450 C 47.0981 -0.959875 -1.70428 0
M  V30 451 C 47.4781 0.524455 -2.04481 0
M  V30 452 O 46.8261 1.49302 -1.72977 0
M  V30 453 C 47.0361 -1.85955 -2.95333 0
M  V30 454 C 48.3841 -2.11687 -3.68068 0
M  V30 455 O 49.4081 -1.8342 -3.05345 0
M  V30 456 O 48.2671 -2.59572 -4.80921 0
M  V30 457 H 45.3611 -0.361154 -0.743974 0
M  V30 458 H 47.9071 -1.33554 -1.04697 0
M  V30 459 H 46.6791 -2.86346 -2.66687 0
M  V30 460 H 46.3021 -1.4856 -3.68803 0
M  V30 461 N 47.2992 1.18797 -1.03562 0
M  V30 462 C 48.2312 2.21731 -0.580337 0
M  V30 463 C 49.2442 1.59051 0.347349 0
M  V30 464 O 50.4332 1.77929 0.142669 0
M  V30 465 C 47.5332 3.38459 0.172805 0
M  V30 466 C 46.7062 4.3072 -0.761496 0
M  V30 467 C 45.7652 5.26174 -0.0525547 0
M  V30 468 O 44.7912 5.65108 -0.681333 0
M  V30 469 N 45.9932 5.67624 1.21586 0
M  V30 470 H 48.7582 2.61417 -1.46565 0
M  V30 471 H 46.3192 1.33531 -0.915476 0
M  V30 472 H 48.3112 3.99335 0.656793 0
M  V30 473 H 46.8812 2.97507 0.959602 0
M  V30 474 H 46.1012 3.67525 -1.42544 0
M  V30 475 H 47.3892 4.89267 -1.39626 0
M  V30 476 H 46.7872 5.38038 1.74732 0
M  V30 477 H 45.3442 6.30721 1.64421 0
M  V30 478 N 48.7773 0.814389 1.34928 0
M  V30 479 C 50.0253 0.397636 1.9815 0
M  V30 480 C 50.3463 -1.04069 1.64908 0
M  V30 481 O 49.6163 -1.72121 0.93548 0
M  V30 482 H 48.1963 0.144043 0.732981 0
M  V30 483 H 50.8583 1.04195 1.6471 0
M  V30 484 H 49.9543 0.509688 3.0791 0
M  V30 485 N 50.2554 -1.46986 0.568584 0
M  V30 486 C 51.2034 -2.31858 -0.185649 0
M  V30 487 C 52.1974 -1.43624 -0.898249 0
M  V30 488 O 53.4034 -1.60327 -0.818242 0
M  V30 489 H 49.7784 -0.747866 -0.0787399 0
M  V30 490 H 51.7494 -2.93303 0.549191 0
M  V30 491 C 50.4984 -3.26513 -1.19519 0
M  V30 492 H 49.8214 -3.94377 -0.656285 0
M  V30 493 H 51.2614 -3.88707 -1.6936 0
M  V30 494 C 49.7204 -2.50847 -2.24894 0
M  V30 495 O 50.2504 -2.26119 -3.32014 0
M  V30 496 N 48.4564 -2.11656 -1.99124 0
M  V30 497 H 48.0034 -2.31966 -1.12024 0
M  V30 498 H 47.9614 -1.61347 -2.69842 0
M  V30 499 N 51.7335 -0.305618 -1.54608 0
M  V30 500 C 53.1495 0.0476228 -1.59529 0
M  V30 501 C 53.3495 1.52025 -1.32252 0
M  V30 502 O 52.4055 2.27368 -1.09818 0
M  V30 503 C 53.7185 -0.354471 -2.98603 0
M  V30 504 C 55.2665 -0.303622 -3.11524 0
M  V30 505 C 55.7415 -0.680608 -4.52915 0
M  V30 506 N 57.2325 -0.63332 -4.5885 0
M  V30 507 C 57.9675 -0.897432 -5.66334 0
M  V30 508 N 57.4635 -1.22775 -6.81834 0
M  V30 509 N 59.2565 -0.824186 -5.56025 0
M  V30 510 H 51.4075 -1.2653 -1.70599 0
M  V30 511 H 53.6705 -0.513291 -0.797017 0
M  V30 512 H 53.3765 -1.3798 -3.23503 0
M  V30 513 H 53.2505 0.289568 -3.76087 0
M  V30 514 H 55.6375 0.712472 -2.8637 0
M  V30 515 H 55.7185 -0.982348 -2.36185 0
M  V30 516 H 55.3625 -1.69453 -4.78799 0
M  V30 517 H 55.2925 0.0202385 -5.26596 0
M  V30 518 H 57.7835 -0.389138 -3.75891 0
M  V30 519 H 58.0965 -1.41513 -7.59733 0
M  V30 520 H 56.4415 -1.26583 -6.83375 0
M  V30 521 H 59.6325 -0.565748 -4.64669 0
M  V30 522 H 59.8055 -1.03338 -6.39707 0
M  V30 523 N 53.2116 1.57565 -0.0334293 0
M  V30 524 C 54.4396 1.9628 0.654347 0
M  V30 525 C 54.8546 0.910138 1.65414 0
M  V30 526 O 54.2116 -0.107595 1.82183 0
M  V30 527 C 54.2626 3.35067 1.35693 0
M  V30 528 O 53.9836 4.36296 0.397191 0
M  V30 529 C 55.4846 3.88439 2.13613 0
M  V30 530 H 52.7046 0.646369 0.180132 0
M  V30 531 H 55.2486 2.04282 -0.0944721 0
M  V30 532 H 53.4036 3.2827 2.05712 0
M  V30 533 H 53.8176 5.1678 0.896597 0
M  V30 534 H 55.2916 4.8788 2.58219 0
M  V30 535 H 55.7686 3.22914 2.97696 0
M  V30 536 H 56.3746 3.98516 1.48543 0
M  V30 537 N 54.6897 -0.239769 1.55765 0
M  V30 538 C 55.9177 -0.98417 1.81994 0
M  V30 539 C 56.3327 -1.7867 0.610124 0
M  V30 540 O 55.6897 -1.77571 -0.421271 0
M  V30 541 C 55.7407 -1.91635 3.06526 0
M  V30 542 O 55.4617 -1.14629 4.22838 0
M  V30 543 C 56.9627 -2.77616 3.45607 0
M  V30 544 H 54.1827 -0.28928 0.605441 0
M  V30 545 H 56.7267 -0.260499 2.02834 0
M  V30 546 H 54.8817 -2.5942 2.87715 0
M  V30 547 H 55.2957 -1.77745 4.93464 0
M  V30 548 H 56.7697 -3.38759 4.35828 0
M  V30 549 H 57.2467 -3.4909 2.6652 0
M  V30 550 H 57.8527 -2.15271 3.66795 0
M  V30 551 N 56.1678 -1.49265 -0.50573 0
M  V30 552 C 57.5788 -1.51769 -1.08734 0
M  V30 553 C 57.9298 -0.301192 -1.93874 0
M  V30 554 O 57.0548 0.589456 -2.08217 0
M  V30 555 C 57.6498 -2.75017 -1.97867 0
M  V30 556 C 56.2088 -2.80314 -2.51199 0
M  V30 557 C 55.3558 -2.4562 -1.28709 0
M  V30 558 H 58.3068 -1.56031 -0.289855 0
M  V30 559 H 58.3278 -2.5491 -2.82491 0
M  V30 560 H 57.8398 -3.63539 -1.35873 0
M  V30 561 H 55.9408 -1.96061 -3.16845 0
M  V30 562 H 56.0538 -3.82366 -2.88675 0
M  V30 563 H 54.4178 -1.97297 -1.61078 0
M  V30 564 H 55.2008 -3.36411 -0.6843 0
M  V30 565 N 57.6459 0.756429 -1.3826 0
M  V30 566 C 58.8709 1.55077 -1.37717 0
M  V30 567 C 59.2959 1.88073 0.03164 0
M  V30 568 O 58.6539 1.50364 1.01293 0
M  V30 569 C 58.7019 2.8283 -2.23695 0
M  V30 570 O 57.8059 3.77862 -1.6521 0
M  V30 571 H 57.1469 0.469152 -0.469885 0
M  V30 572 H 59.6769 0.935019 -1.81985 0
M  V30 573 H 59.6869 3.31783 -2.37453 0
M  V30 574 H 58.3619 2.58144 -3.2609 0
M  V30 575 H 56.9389 3.36555 -1.60578 0
M  V30 576 N 59.124 1.23083 0.984299 0
M  V30 577 C 60.354 1.08556 1.75781 0
M  V30 578 C 60.762 -0.366171 1.85623 0
M  V30 579 O 60.105 -1.26524 1.33182 0
M  V30 580 C 60.167 1.63208 3.20318 0
M  V30 581 C 59.831 3.11922 3.33997 0
M  V30 582 C 60.828 4.09259 3.2063 0
M  V30 583 C 58.513 3.51552 3.58771 0
M  V30 584 C 60.507 5.4421 3.31835 0
M  V30 585 C 58.194 4.86649 3.69616 0
M  V30 586 C 59.192 5.82787 3.56157 0
M  V30 587 O 58.88 7.15431 3.66626 0
M  V30 588 H 58.612 0.380713 0.5586 0
M  V30 589 H 61.166 1.63321 1.2456 0
M  V30 590 H 59.396 1.0286 3.72769 0
M  V30 591 H 61.085 1.44216 3.79416 0
M  V30 592 H 61.851 3.79984 3.01392 0
M  V30 593 H 57.73 2.77239 3.6832 0
M  V30 594 H 61.274 6.1923 3.21247 0
M  V30 595 H 57.171 5.15601 3.88363 0
M  V30 596 H 57.939 7.23127 3.83445 0
M  V30 597 N 60.6021 -1.18246 1.0419 0
M  V30 598 C 61.8481 -1.88536 0.747122 0
M  V30 599 C 62.1811 -1.80223 -0.723409 0
M  V30 600 O 61.4561 -1.20337 -1.52804 0
M  V30 601 C 61.7391 -3.38968 1.21544 0
M  V30 602 C 61.5921 -3.56084 2.74816 0
M  V30 603 C 62.9111 -4.32648 0.806482 0
M  V30 604 H 60.0301 -0.684619 0.272883 0
M  V30 605 H 62.6721 -1.39113 1.29413 0
M  V30 606 H 60.8221 -3.8119 0.750081 0
M  V30 607 H 62.4941 -3.22946 3.29399 0
M  V30 608 H 60.7371 -2.98699 3.14582 0
M  V30 609 H 61.4081 -4.61639 3.02644 0
M  V30 610 H 63.8841 -3.98211 1.20695 0
M  V30 611 H 62.7601 -5.36462 1.1619 0
M  V30 612 H 63.0211 -4.41146 -0.29029 0
M  V30 613 N 62.0802 -0.821533 -1.34494 0
M  V30 614 C 63.0432 -0.247847 -2.27856 0
M  V30 615 C 64.0432 0.573453 -1.50227 0
M  V30 616 O 65.2332 0.389759 -1.69784 0
M  V30 617 C 62.3652 0.652698 -3.34593 0
M  V30 618 H 63.5582 -1.07146 -2.80107 0
M  V30 619 H 61.1112 -0.593291 -1.44602 0
M  V30 620 H 61.8462 1.49943 -2.87555 0
M  V30 621 H 61.6312 0.065292 -3.92046 0
M  V30 622 H 63.1212 1.04793 -4.04238 0
M  V30 623 N 63.5583 1.46682 -0.576371 0
M  V30 624 C 64.8053 2.02412 -0.0595339 0
M  V30 625 C 65.1333 1.44859 1.29793 0
M  V30 626 O 64.3883 0.601099 1.8624 0
M  V30 627 C 64.6873 3.57345 0.062886 0
M  V30 628 C 64.3533 4.33908 -1.22616 0
M  V30 629 C 63.0153 4.54544 -1.57933 0
M  V30 630 C 65.3673 4.77919 -2.07948 0
M  V30 631 C 62.6953 5.16444 -2.78393 0
M  V30 632 C 65.0473 5.41149 -3.27629 0
M  V30 633 C 63.7113 5.60014 -3.63236 0
M  V30 634 H 62.9813 0.74068 -0.021785 0
M  V30 635 H 65.6283 1.76128 -0.751735 0
M  V30 636 H 63.9333 3.82729 0.838178 0
M  V30 637 H 65.6303 3.98136 0.478439 0
M  V30 638 H 62.2203 4.18138 -0.941202 0
M  V30 639 H 66.4043 4.61738 -1.81967 0
M  V30 640 H 61.6603 5.29242 -3.06126 0
M  V30 641 H 65.8343 5.74211 -3.94023 0
M  V30 642 H 63.4613 6.07748 -4.56669 0
M  V30 643 N 65.0364 0.313813 1.54444 0
M  V30 644 C 66.2644 -0.293918 2.04802 0
M  V30 645 C 66.6794 -1.46537 1.19047 0
M  V30 646 O 66.0364 -1.81182 0.218939 0
M  V30 647 C 66.0874 -0.737806 3.53891 0
M  V30 648 O 65.8084 0.387038 4.36387 0
M  V30 649 C 67.3094 -1.40936 4.203 0
M  V30 650 H 64.5294 -0.0620057 0.668129 0
M  V30 651 H 67.0734 0.457169 1.99324 0
M  V30 652 H 65.2284 -1.43889 3.59687 0
M  V30 653 H 65.6424 0.0391274 5.24485 0
M  V30 654 H 67.1164 -1.67099 5.26101 0
M  V30 655 H 67.5934 -2.35355 3.70816 0
M  V30 656 H 68.1994 -0.751117 4.18615 0
M  V30 657 N 66.5145 -1.57545 0.0417849 0
M  V30 658 C 67.7915 -1.83642 -0.673433 0
M  V30 659 C 68.1715 -0.928298 -1.89594 0
M  V30 660 O 67.5195 0.0129955 -2.28496 0
M  V30 661 C 67.7295 -3.33155 -1.03964 0
M  V30 662 C 69.0775 -3.99941 -1.42592 0
M  V30 663 O 70.1015 -3.37725 -1.13226 0
M  V30 664 O 68.9605 -5.09619 -1.9736 0
M  V30 665 H 66.0545 -0.757638 -0.331533 0
M  V30 666 H 68.6005 -1.69554 0.070433 0
M  V30 667 H 67.3725 -3.9093 -0.170098 0
M  V30 668 H 66.9955 -3.52396 -1.84126 0
M  V30 669 N 67.9926 0.231505 -1.5589 0
M  V30 670 C 69.2206 0.974505 -1.82513 0
M  V30 671 C 69.6356 1.78344 -0.619591 0
M  V30 672 O 68.9926 1.77792 0.411848 0
M  V30 673 C 69.0436 1.90007 -3.07538 0
M  V30 674 O 68.7646 1.12385 -4.2344 0
M  V30 675 C 70.2656 2.75779 -3.47075 0
M  V30 676 H 67.4856 0.286065 -0.606966 0
M  V30 677 H 70.0296 0.249739 -2.02969 0
M  V30 678 H 68.1846 2.57891 -2.89086 0
M  V30 679 H 68.5986 1.75125 -4.944 0
M  V30 680 H 70.0726 3.36443 -4.37619 0
M  V30 681 H 70.5496 3.47672 -2.68367 0
M  V30 682 H 71.1556 2.13323 -3.67931 0
M  V30 683 N 69.4707 1.49531 0.497807 0
M  V30 684 C 70.3807 1.69176 1.62532 0
M  V30 685 C 71.3967 0.5744 1.64246 0
M  V30 686 O 72.5727 0.849497 1.82608 0
M  V30 687 C 69.6377 1.75695 2.98885 0
M  V30 688 C 68.6987 2.9929 3.07773 0
M  V30 689 C 67.9317 3.05488 4.37622 0
M  V30 690 O 68.1547 2.19192 5.26603 0
M  V30 691 O 67.0887 3.9798 4.51548 0
M  V30 692 H 70.9147 2.647 1.48887 0
M  V30 693 H 68.4997 1.3331 0.674441 0
M  V30 694 H 70.3817 1.82317 3.79919 0
M  V30 695 H 69.0567 0.8335 3.12785 0
M  V30 696 H 67.9637 2.98183 2.25915 0
M  V30 697 H 69.2967 3.91125 2.98801 0
M  V30 698 N 70.9488 -0.749086 1.3866 0
M  V30 699 C 72.3648 -1.05276 1.19955 0
M  V30 700 C 72.5648 -2.01435 0.05134 0
M  V30 701 O 71.6208 -2.45232 -0.60147 0
M  V30 702 C 72.9338 -1.62853 2.52783 0
M  V30 703 C 74.4818 -1.75002 2.59506 0
M  V30 704 C 74.9568 -2.35991 3.92521 0
M  V30 705 N 76.4478 -2.43416 3.94085 0
M  V30 706 C 77.1828 -2.91511 4.9377 0
M  V30 707 N 76.6788 -3.39608 6.03853 0
M  V30 708 N 78.4718 -2.90592 4.81157 0
M  V30 709 H 70.6228 -0.111066 2.12109 0
M  V30 710 H 72.8858 -0.111901 0.941373 0
M  V30 711 H 72.5918 -0.99664 3.37283 0
M  V30 712 H 72.4658 -2.61854 2.715 0
M  V30 713 H 74.8528 -2.37317 1.75398 0
M  V30 714 H 74.9338 -0.74693 2.44652 0
M  V30 715 H 74.5778 -1.74308 4.77053 0
M  V30 716 H 74.5078 -3.3695 4.04688 0
M  V30 717 H 76.9988 -2.09405 3.14576 0
M  V30 718 H 77.3118 -3.74775 6.75843 0
M  V30 719 H 75.6568 -3.37653 6.07466 0
M  V30 720 H 78.8478 -2.52332 3.94267 0
M  V30 721 H 79.0208 -3.27762 5.58996 0
M  V30 722 N 72.4269 -1.23603 -0.977757 0
M  V30 723 C 73.3569 -1.04401 -2.0886 0
M  V30 724 C 74.3379 0.0399052 -1.70053 0
M  V30 725 O 75.5229 -0.125246 -1.93796 0
M  V30 726 C 72.6529 -0.637269 -3.41403 0
M  V30 727 C 71.6069 -1.66883 -3.94124 0
M  V30 728 C 70.9329 -1.11745 -5.22893 0
M  V30 729 C 72.2329 -3.06247 -4.23096 0
M  V30 730 H 73.9269 -1.97316 -2.25182 0
M  V30 731 H 71.4729 -0.950096 -1.08209 0
M  V30 732 H 73.4259 -0.48998 -4.18542 0
M  V30 733 H 72.1499 0.327557 -3.24953 0
M  V30 734 H 70.8089 -1.80416 -3.19133 0
M  V30 735 H 70.4569 -0.143527 -5.02795 0
M  V30 736 H 70.1569 -1.80672 -5.59134 0
M  V30 737 H 71.6809 -0.982067 -6.02651 0
M  V30 738 H 73.0949 -2.96001 -4.90975 0
M  V30 739 H 71.4919 -3.72436 -4.70544 0
M  V30 740 H 72.5619 -3.55041 -3.30263 0
M  V30 741 N 73.905 1.17692 -1.04816 0
M  V30 742 C 75.154 1.87192 -0.751132 0
M  V30 743 C 75.467 1.8169 0.724441 0
M  V30 744 O 76.673 2.46625 1.13527 0
M  V30 745 C 75.129 3.35857 -1.29338 0
M  V30 746 C 74.737 3.4987 -2.79812 0
M  V30 747 C 76.481 4.10709 -1.07322 0
M  V30 748 C 74.388 4.92536 -3.27356 0
M  V30 749 H 73.318 0.701162 -0.277288 0
M  V30 750 H 75.969 1.32932 -1.26496 0
M  V30 751 H 74.351 3.89631 -0.707376 0
M  V30 752 H 75.525 3.06332 -3.44235 0
M  V30 753 H 73.84 2.88433 -3.00325 0
M  V30 754 H 76.437 5.15952 -1.4035 0
M  V30 755 H 76.78 4.16299 -0.0108001 0
M  V30 756 H 77.313 3.6313 -1.62423 0
M  V30 757 H 74.052 4.92119 -4.33012 0
M  V30 758 H 73.572 5.3676 -2.67673 0
M  V30 759 H 75.251 5.61288 -3.21815 0
M  V30 760 N 75.3831 0.828654 1.34056 0
M  V30 761 C 76.6311 0.41863 1.97717 0
M  V30 762 C 76.9521 -1.02314 1.66002 0
M  V30 763 O 76.2221 -1.71119 0.953683 0
M  V30 764 H 74.8021 0.151809 0.731412 0
M  V30 765 H 77.4641 1.05936 1.63596 0
M  V30 766 H 76.5601 0.542318 3.07352 0
M  V30 767 N 76.8612 -1.46375 0.584142 0
M  V30 768 C 78.1382 -1.956 0.0033388 0
M  V30 769 C 78.5182 -1.52679 -1.45782 0
M  V30 770 O 77.8662 -0.77816 -2.14842 0
M  V30 771 C 78.0762 -3.48551 0.176891 0
M  V30 772 C 79.4242 -4.24576 0.0454609 0
M  V30 773 O 80.4482 -3.56043 0.105801 0
M  V30 774 O 79.3072 -5.46427 -0.0890376 0
M  V30 775 H 76.4012 -0.825547 -0.0490066 0
M  V30 776 H 78.9472 -1.56652 0.65256 0
M  V30 777 H 77.7192 -3.72683 1.1926 0
M  V30 778 H 77.3422 -3.94332 -0.508695 0
M  V30 779 N 78.3393 -0.321999 -1.54275 0
M  V30 780 C 79.3023 0.531975 -2.22941 0
M  V30 781 C 80.3023 1.04478 -1.22234 0
M  V30 782 O 81.4923 0.937452 -1.46825 0
M  V30 783 C 78.6243 1.73874 -2.93224 0
M  V30 784 H 79.8173 -0.0682612 -2.99822 0
M  V30 785 H 77.3703 -0.0730644 -1.56129 0
M  V30 786 H 78.1053 2.37825 -2.20476 0
M  V30 787 H 77.8903 1.37847 -3.6707 0
M  V30 788 H 79.3803 2.34496 -3.45545 0
M  V30 789 N 79.8174 1.5752 -0.0501392 0
M  V30 790 C 80.7804 2.1037 0.909786 0
M  V30 791 C 81.7804 1.02308 1.24056 0
M  V30 792 O 82.9704 1.28385 1.17741 0
M  V30 793 C 80.1024 2.58708 2.21998 0
M  V30 794 H 81.2954 2.96479 0.451665 0
M  V30 795 H 78.8484 1.55038 0.198248 0
M  V30 796 H 79.5834 1.75989 2.72394 0
M  V30 797 H 79.3684 3.37675 1.99295 0
M  V30 798 H 80.8584 2.99747 2.9076 0
M  V30 799 N 81.2955 -0.223234 1.56011 0
M  V30 800 C 82.2425 -1.27664 1.92277 0
M  V30 801 C 83.2125 -1.46659 0.779763 0
M  V30 802 O 84.3975 -1.60256 1.03551 0
M  V30 803 C 81.5375 -2.62234 2.24338 0
M  V30 804 C 80.6505 -2.51051 3.51564 0
M  V30 805 C 79.7855 -3.78133 3.7308 0
M  V30 806 C 78.8245 -3.61665 4.93827 0
M  V30 807 N 77.9615 -4.80693 5.11741 0
M  V30 808 H 82.8015 -0.960358 2.82101 0
M  V30 809 H 80.3385 -0.462901 1.39627 0
M  V30 810 H 82.2965 -3.40596 2.40936 0
M  V30 811 H 80.9265 -2.91961 1.3769 0
M  V30 812 H 79.9785 -1.64132 3.43169 0
M  V30 813 H 81.2905 -2.34803 4.40079 0
M  V30 814 H 80.4445 -4.64938 3.89766 0
M  V30 815 H 79.1835 -3.97304 2.82844 0
M  V30 816 H 78.1885 -2.73244 4.77093 0
M  V30 817 H 79.4135 -3.43966 5.85546 0
M  V30 818 H 77.3595 -5.00181 4.24446 0
M  V30 819 H 77.2765 -4.67165 5.94384 0
M  V30 820 H 78.5445 -5.6893 5.3286 0
M  V30 821 N 82.7736 -1.49793 -0.48987 0
M  V30 822 C 83.7216 -1.67783 -1.61095 0
M  V30 823 C 84.7156 -0.543683 -1.60438 0
M  V30 824 O 85.9216 -0.723647 -1.64813 0
M  V30 825 H 82.2966 -0.529255 -0.534222 0
M  V30 826 H 84.2676 -2.61861 -1.43078 0
M  V30 827 C 83.0166 -1.77191 -2.99164 0
M  V30 828 H 82.3396 -2.63841 -3.0038 0
M  V30 829 H 83.7796 -1.93809 -3.77113 0
M  V30 830 C 82.2386 -0.519203 -3.32875 0
M  V30 831 O 82.7686 0.350124 -4.00171 0
M  V30 832 N 80.9746 -0.378816 -2.8812 0
M  V30 833 H 80.5216 -1.08725 -2.33531 0
M  V30 834 H 80.4796 0.458239 -3.11043 0
M  V30 835 N 84.2517 0.741722 -1.39055 0
M  V30 836 C 85.1837 1.8657 -1.33133 0
M  V30 837 C 86.1967 1.61001 -0.241329 0
M  V30 838 O 87.3857 1.7136 -0.499784 0
M  V30 839 C 84.4857 3.22457 -1.04283 0
M  V30 840 C 83.6587 3.75435 -2.24427 0
M  V30 841 C 82.7177 4.89867 -1.92138 0
M  V30 842 O 81.7437 5.03879 -2.64754 0
M  V30 843 N 82.9457 5.73738 -0.88347 0
M  V30 844 H 85.7107 1.92156 -2.29991 0
M  V30 845 H 83.2717 0.922172 -1.3307 0
M  V30 846 H 85.2637 3.9657 -0.807128 0
M  V30 847 H 83.8337 3.12181 -0.161807 0
M  V30 848 H 83.0537 2.92751 -2.6399 0
M  V30 849 H 84.3417 4.07563 -3.04581 0
M  V30 850 H 83.7397 5.64999 -0.281517 0
M  V30 851 H 82.2967 6.47947 -0.707662 0
M  V30 852 N 85.7298 1.2412 0.971189 0
M  V30 853 C 86.9758 1.08041 1.71625 0
M  V30 854 C 87.3088 -0.380407 1.90438 0
M  V30 855 O 86.5838 -1.28127 1.46334 0
M  V30 856 C 86.8668 1.81682 3.10908 0
M  V30 857 C 86.7198 3.35493 2.99608 0
M  V30 858 C 88.0388 1.58671 4.10501 0
M  V30 859 H 85.1578 0.39388 0.622919 0
M  V30 860 H 87.7998 1.52743 1.13003 0
M  V30 861 H 85.9498 1.43684 3.60953 0
M  V30 862 H 87.6218 3.83068 2.57015 0
M  V30 863 H 85.8648 3.64052 2.35899 0
M  V30 864 H 86.5358 3.82217 3.98264 0
M  V30 865 H 89.0118 1.91719 3.69301 0
M  V30 866 H 87.8878 2.1266 5.06031 0
M  V30 867 H 88.1488 0.524161 4.38982 0
M  V30 868 N 87.2079 -1.17134 1.05439 0
M  V30 869 C 88.1709 -2.19439 0.661764 0
M  V30 870 C 89.1709 -1.58199 -0.288042 0
M  V30 871 O 90.3609 -1.74053 -0.0715803 0
M  V30 872 C 87.4929 -3.40889 -0.0276209 0
M  V30 873 H 88.6859 -2.55688 1.56728 0
M  V30 874 H 86.2389 -1.31259 0.848567 0
M  V30 875 H 86.9739 -3.10187 -0.94629 0
M  V30 876 H 86.7589 -3.86586 0.655238 0
M  V30 877 H 88.2489 -4.16603 -0.288342 0
M  V30 878 N 88.686 -0.835752 -1.33615 0
M  V30 879 C 89.619 -0.211815 -2.27215 0
M  V30 880 C 90.597 0.639249 -1.49507 0
M  V30 881 O 91.781 0.600193 -1.78689 0
M  V30 882 C 88.908 0.702893 -3.31326 0
M  V30 883 C 87.954 -0.0723049 -4.26439 0
M  V30 884 S 88.787 -1.42811 -5.16106 0
M  V30 885 C 89.943 -0.518613 -6.23748 0
M  V30 886 H 90.176 -1.00533 -2.79786 0
M  V30 887 H 87.709 -0.632336 -1.40858 0
M  V30 888 H 89.667 1.22505 -3.91794 0
M  V30 889 H 88.328 1.47004 -2.77576 0
M  V30 890 H 87.521 0.62359 -5.00127 0
M  V30 891 H 87.123 -0.525424 -3.70291 0
M  V30 892 H 89.415 0.284778 -6.76901 0
M  V30 893 H 90.358 -1.22556 -6.97413 0
M  V30 894 H 90.766 -0.101344 -5.64409 0
M  V30 895 N 90.1641 1.46063 -0.591896 0
M  V30 896 C 91.1121 2.32124 0.148739 0
M  V30 897 C 92.1061 1.45035 0.875286 0
M  V30 898 O 93.3121 1.61609 0.792632 0
M  V30 899 H 89.6871 0.749024 0.066832 0
M  V30 900 H 91.6581 2.92392 -0.595783 0
M  V30 901 C 90.4071 3.28373 1.1431 0
M  V30 902 H 89.7301 3.95371 0.59346 0
M  V30 903 H 91.1701 3.91352 1.63155 0
M  V30 904 C 89.6291 2.54393 2.20875 0
M  V30 905 O 90.1591 2.31373 3.28374 0
M  V30 906 N 88.3651 2.14797 1.95731 0
M  V30 907 H 87.9121 2.33719 1.08319 0
M  V30 908 H 87.8701 1.65619 2.67241 0
M  V30 909 N 91.6422 0.330177 1.54103 0
M  V30 910 C 93.0532 -0.15652 1.86043 0
M  V30 911 C 93.4042 -1.51086 1.2517 0
M  V30 912 O 92.5292 -2.09023 0.560217 0
M  V30 913 C 93.1242 -0.290784 3.3755 0
M  V30 914 C 91.6832 -0.721705 3.69416 0
M  V30 915 C 90.8302 0.152622 2.7688 0
M  V30 916 H 93.7812 0.550237 1.48856 0
M  V30 917 H 93.8022 -1.12058 3.63625 0
M  V30 918 H 93.3142 0.695068 3.81825 0
M  V30 919 H 91.4152 -1.71706 3.30678 0
M  V30 920 H 91.5282 -0.520869 4.7626 0
M  V30 921 H 89.8922 -0.372894 2.51956 0
M  V30 922 H 90.6752 1.13536 3.23982 0
M  V30 923 N 93.1203 -1.57491 0.0584922 0
M  V30 924 C 94.3483 -1.97296 -0.623037 0
M  V30 925 C 94.7633 -0.936338 -1.63946 0
M  V30 926 O 94.1203 0.0785981 -1.82331 0
M  V30 927 C 94.1713 -3.37183 -1.30345 0
M  V30 928 O 93.8923 -4.36872 -0.32773 0
M  V30 929 C 95.3933 -3.91788 -2.07406 0
M  V30 930 H 92.6133 -0.649153 -0.169826 0
M  V30 931 H 95.1573 -2.04106 0.12696 0
M  V30 932 H 93.3123 -3.31502 -2.00463 0
M  V30 933 H 93.7263 -5.18141 -0.814269 0
M  V30 934 H 95.2003 -4.91926 -2.50425 0
M  V30 935 H 95.6773 -3.27609 -2.92521 0
M  V30 936 H 96.2833 -4.00829 -1.42184 0
M  V30 937 N 94.5984 0.214957 -1.56127 0
M  V30 938 C 95.5464 1.28601 -1.93816 0
M  V30 939 C 96.5404 1.48175 -0.821016 0
M  V30 940 O 97.7464 1.49271 -1.0059 0
M  V30 941 H 94.1214 0.431302 -0.616022 0
M  V30 942 H 96.0924 0.940991 -2.83175 0
M  V30 943 C 94.8414 2.62779 -2.27689 0
M  V30 944 H 94.1644 2.48527 -3.13168 0
M  V30 945 H 95.6044 3.36517 -2.57939 0
M  V30 946 C 94.0634 3.18285 -1.10436 0
M  V30 947 O 94.5934 4.00002 -0.368945 0
M  V30 948 N 92.7994 2.7675 -0.886433 0
M  V30 949 H 92.3464 2.10404 -1.48619 0
M  V30 950 H 92.3044 3.14229 -0.103656 0
M  V30 951 N 96.0765 1.50051 0.48192 0
M  V30 952 C 97.3045 1.64237 1.25832 0
M  V30 953 C 97.7195 0.321336 1.86045 0
M  V30 954 O 97.0765 -0.695478 1.68729 0
M  V30 955 C 97.1275 2.72548 2.37487 0
M  V30 956 O 96.8485 3.99529 1.79745 0
M  V30 957 C 98.3495 2.9761 3.28547 0
M  V30 958 H 95.5695 0.55237 0.380957 0
M  V30 959 H 98.1135 1.96207 0.576467 0
M  V30 960 H 96.2685 2.43303 3.01467 0
M  V30 961 H 96.6825 4.59342 2.5319 0
M  V30 962 H 98.1565 3.77084 4.03127 0
M  V30 963 H 98.6335 2.0826 3.86684 0
M  V30 964 H 99.2395 3.28345 2.70314 0
M  V30 965 N 97.5546 -0.734337 1.39446 0
M  V30 966 C 98.8006 -1.49613 1.36908 0
M  V30 967 C 99.1336 -1.94169 -0.0347829 0
M  V30 968 O 98.4086 -1.66833 -0.999847 0
M  V30 969 C 98.6916 -2.73534 2.34203 0
M  V30 970 C 98.5446 -2.34993 3.83534 0
M  V30 971 C 99.8636 -3.75635 2.29317 0
M  V30 972 H 96.9826 -0.542714 0.498629 0
M  V30 973 H 99.6246 -0.839597 1.70443 0
M  V30 974 H 97.7746 -3.29553 2.05736 0
M  V30 975 H 99.4466 -1.84601 4.22753 0
M  V30 976 H 97.6896 -1.67213 4.00278 0
M  V30 977 H 98.3606 -3.23738 4.47099 0
M  V30 978 H 100.837 -3.29203 2.54489 0
M  V30 979 H 99.7126 -4.60008 2.99472 0
M  V30 980 H 99.9736 -4.22603 1.29842 0
M  V30 981 N 99.0327 -1.24633 -0.964593 0
M  V30 982 C 100.28 -1.08788 -1.70796 0
M  V30 983 C 100.608 0.372783 -1.90894 0
M  V30 984 O 99.8627 1.29167 -1.47018 0
M  V30 985 C 100.162 -1.7763 -3.10133 0
M  V30 986 C 99.8277 -3.27557 -3.09866 0
M  V30 987 C 98.4897 -3.6846 -3.09501 0
M  V30 988 C 100.842 -4.23389 -3.03959 0
M  V30 989 C 98.1697 -5.03624 -3.00965 0
M  V30 990 C 100.522 -5.58565 -2.96965 0
M  V30 991 C 99.1857 -5.98809 -2.9493 0
M  V30 992 H 98.4557 -0.398084 -0.624988 0
M  V30 993 H 101.103 -1.54777 -1.12767 0
M  V30 994 H 99.4077 -1.24044 -3.71645 0
M  V30 995 H 101.105 -1.62832 -3.66451 0
M  V30 996 H 97.6947 -2.95006 -3.10917 0
M  V30 997 H 101.879 -3.92787 -3.03368 0
M  V30 998 H 97.1347 -5.33998 -2.97752 0
M  V30 999 H 101.309 -6.32523 -2.91354 0
M  V30 1000 H 98.9357 -7.03505 -2.88071 0
M  V30 1001 N 100.511 1.16574 -1.06058 0
M  V30 1002 C 101.788 1.83048 -0.689416 0
M  V30 1003 C 102.168 1.94122 0.829443 0
M  V30 1004 O 101.516 1.48249 1.7388 0
M  V30 1005 C 101.726 3.20186 -1.38859 0
M  V30 1006 C 103.074 3.95989 -1.53226 0
M  V30 1007 O 104.098 3.29696 -1.3483 0
M  V30 1008 O 102.957 5.14813 -1.83384 0
M  V30 1009 H 100.051 0.790258 -0.243764 0
M  V30 1010 H 102.597 1.23797 -1.16071 0
M  V30 1011 H 101.369 3.07146 -2.4244 0
M  V30 1012 H 100.992 3.87112 -0.907216 0
M  V30 1013 N 101.989 0.842826 1.3317 0
M  V30 1014 C 102.952 0.284065 2.27433 0
M  V30 1015 C 103.952 -0.54948 1.5112 0
M  V30 1016 O 105.142 -0.362699 1.70382 0
M  V30 1017 C 102.274 -0.599384 3.35589 0
M  V30 1018 H 103.467 1.11589 2.78366 0
M  V30 1019 H 101.02 0.616221 1.4364 0
M  V30 1020 H 101.755 -1.45349 2.89904 0
M  V30 1021 H 101.54 -0.00291266 3.921 0
M  V30 1022 H 103.03 -0.983488 4.05854 0
M  V30 1023 N 103.467 -1.45747 0.599634 0
M  V30 1024 C 104.414 -2.30467 -0.123849 0
M  V30 1025 C 105.384 -1.41632 -0.86774 0
M  V30 1026 O 106.569 -1.70568 -0.855056 0
M  V30 1027 C 103.709 -3.26402 -1.12051 0
M  V30 1028 C 102.822 -4.3034 -0.37832 0
M  V30 1029 C 101.957 -5.13389 -1.364 0
M  V30 1030 C 100.996 -6.09061 -0.609171 0
M  V30 1031 N 100.133 -6.84918 -1.54374 0
M  V30 1032 H 104.973 -2.91802 0.604627 0
M  V30 1033 H 102.51 -1.43797 0.309972 0
M  V30 1034 H 104.468 -3.80482 -1.7114 0
M  V30 1035 H 103.098 -2.66839 -1.8165 0
M  V30 1036 H 102.15 -3.78984 0.327929 0
M  V30 1037 H 103.462 -4.98354 0.210997 0
M  V30 1038 H 102.616 -5.7183 -2.02719 0
M  V30 1039 H 101.355 -4.45376 -1.98725 0
M  V30 1040 H 100.36 -5.49758 0.0676979 0
M  V30 1041 H 101.585 -6.79099 0.00891991 0
M  V30 1042 H 99.531 -6.19601 -2.15478 0
M  V30 1043 H 99.448 -7.49254 -1.00766 0
M  V30 1044 H 100.716 -7.47906 -2.19676 0
M  V30 1045 N 104.945 -0.338344 -1.53925 0
M  V30 1046 C 106.361 0.0137736 -1.59594 0
M  V30 1047 C 106.561 1.49186 -1.35447 0
M  V30 1048 O 105.617 2.24987 -1.14616 0
M  V30 1049 C 106.93 -0.41773 -2.97784 0
M  V30 1050 C 108.478 -0.369633 -3.1081 0
M  V30 1051 C 108.953 -0.776524 -4.51369 0
M  V30 1052 N 110.444 -0.730506 -4.57403 0
M  V30 1053 C 111.179 -1.01736 -5.64303 0
M  V30 1054 N 110.675 -1.3721 -6.79077 0
M  V30 1055 N 112.468 -0.941942 -5.54151 0
M  V30 1056 H 104.619 -1.3012 -1.67876 0
M  V30 1057 H 106.882 -0.530082 -0.78595 0
M  V30 1058 H 106.588 -1.44811 -3.20504 0
M  V30 1059 H 106.462 0.209729 -3.76616 0
M  V30 1060 H 108.849 0.651568 -2.87817 0
M  V30 1061 H 108.93 -1.03223 -2.34049 0
M  V30 1062 H 108.574 -1.79571 -4.75096 0
M  V30 1063 H 108.504 -0.0914649 -5.26521 0
M  V30 1064 H 110.995 -0.468783 -3.74981 0
M  V30 1065 H 111.308 -1.57597 -7.5656 0
M  V30 1066 H 109.653 -1.4105 -6.80536 0
M  V30 1067 H 112.844 -0.664184 -4.63364 0
M  V30 1068 H 113.017 -1.16884 -6.37371 0
M  V30 1069 N 106.423 1.57458 -0.0668435 0
M  V30 1070 C 107.353 2.15468 0.899764 0
M  V30 1071 C 108.334 1.08042 1.31381 0
M  V30 1072 O 109.519 1.36054 1.38574 0
M  V30 1073 C 106.649 2.71232 2.16911 0
M  V30 1074 C 105.603 3.83781 1.89463 0
M  V30 1075 C 104.929 4.26127 3.22986 0
M  V30 1076 C 106.229 5.08238 1.20381 0
M  V30 1077 H 107.923 2.96488 0.416529 0
M  V30 1078 H 105.469 1.4262 0.198908 0
M  V30 1079 H 107.422 3.10458 2.84945 0
M  V30 1080 H 106.146 1.87426 2.67468 0
M  V30 1081 H 104.805 3.45051 1.23836 0
M  V30 1082 H 104.453 3.39249 3.71374 0
M  V30 1083 H 104.153 5.01993 3.05413 0
M  V30 1084 H 105.677 4.67966 3.92225 0
M  V30 1085 H 107.091 5.44811 1.78475 0
M  V30 1086 H 105.488 5.89349 1.13083 0
M  V30 1087 H 106.558 4.84558 0.182153 0
M  V30 1088 N 107.901 -0.206675 1.56239 0
M  V30 1089 C 109.15 -0.926964 1.79138 0
M  V30 1090 C 109.463 -1.84901 0.638043 0
M  V30 1091 O 110.669 -2.60906 0.751033 0
M  V30 1092 C 109.125 -1.6986 3.17294 0
M  V30 1093 C 108.733 -0.821956 4.40395 0
M  V30 1094 C 110.477 -2.40922 3.4951 0
M  V30 1095 C 108.384 -1.59179 5.69575 0
M  V30 1096 H 107.314 -0.349864 0.667915 0
M  V30 1097 H 109.965 -0.180487 1.8261 0
M  V30 1098 H 108.347 -2.48853 3.08039 0
M  V30 1099 H 109.521 -0.0715019 4.60745 0
M  V30 1100 H 107.836 -0.222741 4.15804 0
M  V30 1101 H 110.433 -2.99047 4.43255 0
M  V30 1102 H 110.776 -3.14542 2.72707 0
M  V30 1103 H 111.309 -1.68905 3.60161 0
M  V30 1104 H 108.048 -0.898589 6.49312 0
M  V30 1105 H 107.568 -2.31648 5.53262 0
M  V30 1106 H 109.247 -2.14862 6.10281 0
M  V30 1107 N 109.379 -1.50304 -0.473955 0
M  V30 1108 C 110.627 -1.60832 -1.22382 0
M  V30 1109 C 110.948 -0.30939 -1.9253 0
M  V30 1110 O 110.218 0.67296 -1.83978 0
M  V30 1111 H 108.798 -0.592652 -0.454723 0
M  V30 1112 H 111.46 -1.87068 -0.546968 0
M  V30 1113 H 110.556 -2.41803 -1.97327 0
M  V30 1114 N 110.857 0.726932 -1.39834 0
M  V30 1115 C 112.273 1.03354 -1.21615 0
M  V30 1116 C 112.473 2.01327 -0.08338 0
M  V30 1117 O 111.529 2.46158 0.56238 0
M  V30 1118 C 112.842 1.58811 -2.55342 0
M  V30 1119 C 114.39 1.70851 -2.62257 0
M  V30 1120 C 114.865 2.29716 -3.96225 0
M  V30 1121 N 116.356 2.37116 -3.97907 0
M  V30 1122 C 117.091 2.83619 -4.98345 0
M  V30 1123 N 116.587 3.29958 -6.09179 0
M  V30 1124 N 118.38 2.82901 -4.8572 0
M  V30 1125 H 110.531 0.0773069 -2.12259 0
M  V30 1126 H 112.794 0.0969102 -0.943034 0
M  V30 1127 H 112.5 0.942855 -3.38826 0
M  V30 1128 H 112.374 2.57502 -2.75632 0
M  V30 1129 H 114.761 2.34497 -1.79152 0
M  V30 1130 H 114.842 0.707913 -2.45809 0
M  V30 1131 H 114.486 1.66696 -4.79765 0
M  V30 1132 H 114.416 3.30469 -4.09997 0
M  V30 1133 H 116.907 2.04374 -3.17868 0
M  V30 1134 H 117.22 3.63976 -6.8172 0
M  V30 1135 H 115.565 3.27946 -6.12761 0
M  V30 1136 H 118.756 2.46027 -3.98231 0
M  V30 1137 H 118.929 3.18827 -5.6414 0
M  V30 1138 N 112.336 1.25143 0.95797 0
M  V30 1139 C 113.752 1.01892 1.22842 0
M  V30 1140 C 113.952 -0.266311 1.99732 0
M  V30 1141 O 113.008 -0.979913 2.3271 0
M  V30 1142 C 114.321 2.24004 2.00606 0
M  V30 1143 C 115.869 2.28731 2.13662 0
M  V30 1144 C 116.344 3.5049 2.94823 0
M  V30 1145 N 117.835 3.50866 3.02403 0
M  V30 1146 C 118.57 4.4174 3.65586 0
M  V30 1147 N 118.066 5.42882 4.30408 0
M  V30 1148 N 119.859 4.29429 3.62694 0
M  V30 1149 H 112.01 2.07718 0.443493 0
M  V30 1150 H 114.273 0.912031 0.258657 0
M  V30 1151 H 113.979 3.17395 1.51503 0
M  V30 1152 H 113.853 2.26907 3.01319 0
M  V30 1153 H 116.24 1.35865 2.61963 0
M  V30 1154 H 116.321 2.29848 1.12265 0
M  V30 1155 H 115.965 4.43676 2.47213 0
M  V30 1156 H 115.895 3.46617 3.96439 0
M  V30 1157 H 118.386 2.777 2.56302 0
M  V30 1158 H 118.699 6.0844 4.76467 0
M  V30 1159 H 117.044 5.46758 4.29047 0
M  V30 1160 H 120.235 3.49643 3.11236 0
M  V30 1161 H 120.408 5.00448 4.1165 0
M  V30 1162 N 113.814 -1.1601 1.06675 0
M  V30 1163 C 115.061 -1.86633 0.785781 0
M  V30 1164 C 115.389 -1.81929 -0.687896 0
M  V30 1165 O 114.644 -1.23253 -1.52011 0
M  V30 1166 C 114.943 -3.35547 1.23057 0
M  V30 1167 C 114.609 -3.60448 2.70902 0
M  V30 1168 C 113.271 -3.66954 3.11285 0
M  V30 1169 C 115.623 -3.7071 3.66365 0
M  V30 1170 C 112.951 -3.81225 4.45965 0
M  V30 1171 C 115.303 -3.86503 5.00797 0
M  V30 1172 C 113.967 -3.91252 5.40813 0
M  V30 1173 H 113.237 -0.682937 0.287538 0
M  V30 1174 H 115.884 -1.37146 1.33654 0
M  V30 1175 H 114.189 -3.87193 0.59907 0
M  V30 1176 H 115.886 -3.88583 0.990163 0
M  V30 1177 H 112.476 -3.56021 2.38636 0
M  V30 1178 H 116.66 -3.64991 3.36296 0
M  V30 1179 H 111.916 -3.83155 4.76447 0
M  V30 1180 H 116.09 -3.93385 5.74649 0
M  V30 1181 H 113.717 -4.02062 6.45174 0
M  V30 1182 N 115.292 -0.849877 -1.32721 0
M  V30 1183 C 116.569 -0.372405 -1.92022 0
M  V30 1184 C 116.949 1.1435 -1.77447 0
M  V30 1185 O 116.297 1.96296 -1.16962 0
M  V30 1186 C 116.507 -0.831482 -3.3895 0
M  V30 1187 C 117.855 -0.845882 -4.16089 0
M  V30 1188 O 118.879 -0.775806 -3.47649 0
M  V30 1189 O 117.738 -0.943753 -5.38289 0
M  V30 1190 H 114.832 -0.107667 -0.819961 0
M  V30 1191 H 117.378 -0.93646 -1.41522 0
M  V30 1192 H 116.15 -1.87448 -3.4348 0
M  V30 1193 H 115.773 -0.24461 -3.96847 0
M  V30 1194 N 116.77 1.45427 -0.607355 0
M  V30 1195 C 118.047 1.9557 -0.0344566 0
M  V30 1196 C 118.427 1.54979 1.43334 0
M  V30 1197 O 117.775 0.812241 2.13576 0
M  V30 1198 C 117.985 3.48226 -0.232321 0
M  V30 1199 C 119.333 4.2445 -0.113001 0
M  V30 1200 O 120.357 3.55829 -0.162431 0
M  V30 1201 O 119.216 5.465 0.00209442 0
M  V30 1202 H 116.31 0.826222 0.0358667 0
M  V30 1203 H 118.856 1.55594 -0.6774 0
M  V30 1204 H 117.628 3.70739 -1.25174 0
M  V30 1205 H 117.251 3.95092 0.445896 0
M  V30 1206 N 118.248 0.346503 1.53744 0
M  V30 1207 C 119.211 -0.496439 2.23759 0
M  V30 1208 C 120.211 -1.0252 1.2388 0
M  V30 1209 O 121.401 -0.913974 1.48297 0
M  V30 1210 C 118.533 -1.69187 2.95954 0
M  V30 1211 H 119.726 0.115952 2.99676 0
M  V30 1212 H 117.279 0.0978939 1.55993 0
M  V30 1213 H 118.014 -2.34288 2.24231 0
M  V30 1214 H 117.799 -1.31989 3.69217 0
M  V30 1215 H 119.289 -2.28969 3.49232 0
M  V30 1216 N 119.726 -1.57421 0.075193 0
M  V30 1217 C 120.972 -1.93905 -0.594025 0
M  V30 1218 C 121.305 -0.955701 -1.69056 0
M  V30 1219 O 120.58 0.0145373 -1.94495 0
M  V30 1220 C 120.863 -3.40638 -1.1678 0
M  V30 1221 C 120.716 -4.49733 -0.0776792 0
M  V30 1222 C 122.035 -3.88259 -2.07228 0
M  V30 1223 H 119.154 -0.705105 -0.214466 0
M  V30 1224 H 121.796 -1.8947 0.141854 0
M  V30 1225 H 119.946 -3.44549 -1.79494 0
M  V30 1226 H 121.618 -4.57942 0.555573 0
M  V30 1227 H 119.861 -4.29751 0.591286 0
M  V30 1228 H 120.532 -5.49549 -0.519603 0
M  V30 1229 H 123.008 -3.86376 -1.54445 0
M  V30 1230 H 121.884 -4.91533 -2.44308 0
M  V30 1231 H 122.145 -3.26396 -2.98191 0
M  V30 1232 N 121.204 0.198386 -1.56346 0
M  V30 1233 C 122.45 0.920648 -1.80698 0
M  V30 1234 C 122.783 1.83045 -0.648697 0
M  V30 1235 O 122.058 1.91308 0.350925 0
M  V30 1236 C 122.341 1.73971 -3.15287 0
M  V30 1237 C 122.194 0.85485 -4.41602 0
M  V30 1238 C 123.513 2.71296 -3.46535 0
M  V30 1239 H 120.632 0.333261 -0.657348 0
M  V30 1240 H 123.274 0.188198 -1.89066 0
M  V30 1241 H 121.424 2.36416 -3.08285 0
M  V30 1242 H 123.096 0.245362 -4.60647 0
M  V30 1243 H 121.339 0.161398 -4.335 0
M  V30 1244 H 122.01 1.46286 -5.32264 0
M  V30 1245 H 124.486 2.18983 -3.53816 0
M  V30 1246 H 123.362 3.2569 -4.41834 0
M  V30 1247 H 123.623 3.5018 -2.69864 0
M  V30 1248 N 122.682 1.50554 0.465978 0
M  V30 1249 C 123.614 1.65949 1.58093 0
M  V30 1250 C 124.627 0.540827 1.53554 0
M  V30 1251 O 125.816 0.814187 1.5885 0
M  V30 1252 C 122.916 1.63261 2.96983 0
M  V30 1253 C 122.089 2.91245 3.26336 0
M  V30 1254 C 121.148 2.8113 4.44806 0
M  V30 1255 O 120.174 3.55086 4.44862 0
M  V30 1256 N 121.376 1.95032 5.46756 0
M  V30 1257 H 124.141 2.62122 1.45301 0
M  V30 1258 H 121.702 1.48082 0.65448 0
M  V30 1259 H 123.694 1.54101 3.74212 0
M  V30 1260 H 122.264 0.748032 3.03518 0
M  V30 1261 H 121.484 3.14493 2.37672 0
M  V30 1262 H 122.772 3.76022 3.42761 0
M  V30 1263 H 122.17 1.3427 5.49534 0
M  V30 1264 H 120.727 1.91772 6.2295 0
M  V30 1265 N 124.16 -0.719506 1.40217 0
M  V30 1266 C 125.385 -1.51371 1.4178 0
M  V30 1267 C 125.81 -1.88091 0.0182355 0
M  V30 1268 O 125.168 -1.52997 -0.972707 0
M  V30 1269 C 125.216 -2.768 2.31115 0
M  V30 1270 O 124.32 -3.73349 1.7517 0
M  V30 1271 H 123.661 -0.456529 0.482159 0
M  V30 1272 H 126.191 -0.88644 1.844 0
M  V30 1273 H 126.201 -3.25371 2.46167 0
M  V30 1274 H 124.876 -2.49407 3.3282 0
M  V30 1275 H 123.453 -3.32179 1.69444 0
M  V30 1276 N 125.638 -1.25649 -0.95132 0
M  V30 1277 C 126.915 -1.01361 -1.67288 0
M  V30 1278 C 127.295 0.459135 -2.06046 0
M  V30 1279 O 126.643 1.43723 -1.7764 0
M  V30 1280 C 126.853 -1.95256 -2.89268 0
M  V30 1281 C 128.201 -2.23289 -3.61147 0
M  V30 1282 O 129.225 -1.93041 -2.99355 0
M  V30 1283 O 128.084 -2.74741 -4.72419 0
M  V30 1284 H 125.178 -0.38464 -0.732107 0
M  V30 1285 H 127.724 -1.36817 -1.00395 0
M  V30 1286 H 126.496 -2.94685 -2.57442 0
M  V30 1287 H 126.119 -1.60218 -3.6389 0
M  V30 1288 N 127.117 1.15442 -1.07289 0
M  V30 1289 C 128.05 2.19135 -0.636798 0
M  V30 1290 C 129.028 1.58884 0.34562 0
M  V30 1291 O 130.212 1.86805 0.252195 0
M  V30 1292 C 127.339 3.38638 0.0650014 0
M  V30 1293 C 126.385 4.17412 -0.87576 0
M  V30 1294 S 127.218 4.79882 -2.37642 0
M  V30 1295 C 128.374 6.02753 -1.6864 0
M  V30 1296 H 128.607 2.55787 -1.51526 0
M  V30 1297 H 126.14 1.26394 -0.886793 0
M  V30 1298 H 128.098 4.07873 0.463664 0
M  V30 1299 H 126.759 3.00331 0.919801 0
M  V30 1300 H 125.952 5.02909 -0.33143 0
M  V30 1301 H 125.554 3.53722 -1.21478 0
M  V30 1302 H 127.846 6.70113 -0.997753 0
M  V30 1303 H 128.789 6.61754 -2.51967 0
M  V30 1304 H 129.197 5.52355 -1.16465 0
M  V30 1305 N 128.595 0.856903 1.32268 0
M  V30 1306 C 129.542 0.301172 2.28827 0
M  V30 1307 C 130.512 -0.593104 1.5515 0
M  V30 1308 O 131.697 -0.527537 1.83362 0
M  V30 1309 C 128.837 -0.502523 3.41422 0
M  V30 1310 C 127.95 0.417797 4.29975 0
M  V30 1311 C 127.085 -0.398749 5.29701 0
M  V30 1312 C 126.124 0.518827 6.09897 0
M  V30 1313 N 125.261 -0.260674 7.01616 0
M  V30 1314 H 130.101 1.12983 2.75751 0
M  V30 1315 H 127.638 0.568582 1.35667 0
M  V30 1316 H 129.596 -0.984141 4.05426 0
M  V30 1317 H 128.226 -1.29599 2.95642 0
M  V30 1318 H 127.278 1.01781 3.66531 0
M  V30 1319 H 128.59 1.12191 4.86019 0
M  V30 1320 H 127.744 -0.943435 5.9932 0
M  V30 1321 H 126.483 -1.13622 4.7428 0
M  V30 1322 H 125.488 1.07538 5.39181 0
M  V30 1323 H 126.713 1.25495 6.67404 0
M  V30 1324 H 124.659 -0.981198 6.4862 0
M  V30 1325 H 124.576 0.384364 7.55022 0
M  V30 1326 H 125.844 -0.787014 7.75517 0
M  V30 1327 N 130.073 -1.45103 0.615059 0
M  V30 1328 C 131.023 -2.27679 -0.120966 0
M  V30 1329 C 132.007 -1.3775 -0.831491 0
M  V30 1330 O 133.199 -1.61683 -0.720249 0
M  V30 1331 C 130.328 -3.24767 -1.1127 0
M  V30 1332 C 129.414 -4.22184 -0.402627 0
M  V30 1333 N 129.805 -5.02692 0.559884 0
M  V30 1334 C 128.103 -4.4125 -0.649202 0
M  V30 1335 C 128.804 -5.73421 0.977942 0
M  V30 1336 N 127.78 -5.42657 0.320104 0
M  V30 1337 H 131.582 -2.87325 0.618181 0
M  V30 1338 H 129.096 -1.56345 0.439304 0
M  V30 1339 H 131.093 -3.82666 -1.65446 0
M  V30 1340 H 129.753 -2.66682 -1.85232 0
M  V30 1341 H 130.764 -5.09354 0.936976 0
M  V30 1342 H 127.441 -3.9428 -1.37293 0
M  V30 1343 H 128.831 -6.48107 1.77222 0
M  V30 1344 N 131.551 -0.354651 -1.53558 0
M  V30 1345 C 132.797 0.231422 -2.02079 0
M  V30 1346 C 133.152 1.47308 -1.23767 0
M  V30 1347 O 132.445 1.8891 -0.319947 0
M  V30 1348 C 132.639 0.587121 -3.52545 0
M  V30 1349 C 132.468 -0.618513 -4.45426 0
M  V30 1350 C 131.238 -1.12724 -4.92566 0
M  V30 1351 C 133.436 -1.48039 -4.92533 0
M  V30 1352 N 131.418 -2.29404 -5.69427 0
M  V30 1353 C 132.789 -2.49397 -5.67628 0
M  V30 1354 C 134.844 -1.50454 -4.74624 0
M  V30 1355 C 133.547 -3.53013 -6.26717 0
M  V30 1356 C 135.573 -2.52958 -5.34571 0
M  V30 1357 C 134.935 -3.5304 -6.09543 0
M  V30 1358 H 131.034 0.0476909 -0.780544 0
M  V30 1359 H 133.618 -0.496727 -1.88257 0
M  V30 1360 H 131.789 1.28436 -3.6655 0
M  V30 1361 H 133.521 1.15734 -3.87799 0
M  V30 1362 H 130.276 -0.693577 -4.68494 0
M  V30 1363 H 130.7 -2.88347 -6.12524 0
M  V30 1364 H 135.342 -0.744356 -4.16196 0
M  V30 1365 H 133.06 -4.2992 -6.84247 0
M  V30 1366 H 136.646 -2.55667 -5.22614 0
M  V30 1367 H 135.526 -4.31056 -6.55103 0
M  V30 1368 N 133.029 1.57378 -0.0835403 0
M  V30 1369 C 134.44 1.81261 0.447358 0
M  V30 1370 C 134.791 0.998331 1.68902 0
M  V30 1371 O 133.916 0.224282 2.15235 0
M  V30 1372 C 134.511 3.28767 0.818386 0
M  V30 1373 C 133.07 3.53455 1.29409 0
M  V30 1374 C 132.217 2.75831 0.285024 0
M  V30 1375 H 135.168 1.5566 -0.309115 0
M  V30 1376 H 135.189 3.41459 1.67887 0
M  V30 1377 H 134.701 3.88006 -0.0855019 0
M  V30 1378 H 132.802 2.99534 2.21608 0
M  V30 1379 H 132.915 4.62128 1.2639 0
M  V30 1380 H 131.279 2.42947 0.764767 0
M  V30 1381 H 132.062 3.37813 -0.611341 0
M  V30 1382 N 134.507 -0.190092 1.56449 0
M  V30 1383 C 135.754 -0.909705 1.80916 0
M  V30 1384 C 136.082 -1.83047 0.657583 0
M  V30 1385 O 135.337 -1.92428 -0.356356 0
M  V30 1386 C 135.636 -1.75382 3.1141 0
M  V30 1387 C 135.302 -0.983606 4.40041 0
M  V30 1388 C 133.964 -0.770967 4.74984 0
M  V30 1389 C 136.316 -0.442024 5.19322 0
M  V30 1390 C 133.644 -0.0053448 5.867 0
M  V30 1391 C 135.996 0.310412 6.31838 0
M  V30 1392 C 134.66 0.534023 6.6536 0
M  V30 1393 H 133.93 -0.332885 0.662019 0
M  V30 1394 H 136.577 -0.175762 1.90692 0
M  V30 1395 H 134.882 -2.55659 2.96893 0
M  V30 1396 H 136.579 -2.31331 3.27547 0
M  V30 1397 H 133.169 -1.15936 4.12622 0
M  V30 1398 H 137.353 -0.593693 4.92736 0
M  V30 1399 H 132.609 0.177825 6.11141 0
M  V30 1400 H 136.783 0.737419 6.92485 0
M  V30 1401 H 134.41 1.12918 7.51767 0
M  V30 1402 N 135.985 -1.50799 -0.457987 0
M  V30 1403 C 136.918 -1.65273 -1.57353 0
M  V30 1404 C 137.896 -0.500578 -1.54703 0
M  V30 1405 O 139.08 -0.721781 -1.74134 0
M  V30 1406 C 136.207 -1.64737 -2.95938 0
M  V30 1407 C 135.253 -2.8567 -3.16693 0
M  V30 1408 S 136.086 -4.46791 -2.95191 0
M  V30 1409 C 137.242 -4.48968 -4.36095 0
M  V30 1410 H 137.475 -2.59633 -1.44838 0
M  V30 1411 H 135.008 -1.40225 -0.64625 0
M  V30 1412 H 136.966 -1.65112 -3.7583 0
M  V30 1413 H 135.627 -0.715899 -3.05833 0
M  V30 1414 H 134.82 -2.81637 -4.17967 0
M  V30 1415 H 134.422 -2.8293 -2.44594 0
M  V30 1416 H 136.714 -4.23337 -5.28954 0
M  V30 1417 H 137.657 -5.50664 -4.45168 0
M  V30 1418 H 138.065 -3.78522 -4.18786 0
M  V30 1419 N 137.463 0.71206 -1.40597 0
M  V30 1420 C 138.709 1.47416 -1.39271 0
M  V30 1421 C 139.042 1.942 0.00388791 0
M  V30 1422 O 138.317 1.68403 0.973179 0
M  V30 1423 C 138.6 2.69774 -2.38525 0
M  V30 1424 C 138.453 2.28861 -3.87224 0
M  V30 1425 C 139.772 3.71939 -2.35264 0
M  V30 1426 H 136.891 0.534713 -0.5072 0
M  V30 1427 H 139.533 0.812375 -1.71757 0
M  V30 1428 H 137.683 3.26238 -2.10953 0
M  V30 1429 H 139.355 1.77852 -4.25636 0
M  V30 1430 H 137.598 1.60824 -4.02887 0
M  V30 1431 H 138.269 3.16584 -4.52193 0
M  V30 1432 H 140.745 3.25113 -2.59694 0
M  V30 1433 H 139.621 4.55186 -3.06753 0
M  V30 1434 H 139.882 4.20484 -1.36549 0
M  V30 1435 N 138.941 1.26152 0.944643 0
M  V30 1436 C 140.187 1.11657 1.69294 0
M  V30 1437 C 140.52 -0.339926 1.91202 0
M  V30 1438 O 139.795 -1.24994 1.49019 0
M  V30 1439 C 140.078 1.88236 3.06984 0
M  V30 1440 C 139.931 3.41772 2.92424 0
M  V30 1441 C 141.25 1.67343 4.07043 0
M  V30 1442 H 138.369 0.407004 0.614424 0
M  V30 1443 H 141.011 1.55106 1.09737 0
M  V30 1444 H 139.161 1.51308 3.57824 0
M  V30 1445 H 140.833 3.88433 2.48832 0
M  V30 1446 H 139.076 3.68974 2.28124 0
M  V30 1447 H 139.747 3.90579 3.90067 0
M  V30 1448 H 142.223 1.99509 3.65151 0
M  V30 1449 H 141.099 2.23346 5.01406 0
M  V30 1450 H 141.36 0.617158 4.37771 0
M  V30 1451 N 140.419 -1.14872 1.07899 0
M  V30 1452 C 141.367 -2.21857 0.698727 0
M  V30 1453 C 142.361 -1.66845 -0.293086 0
M  V30 1454 O 143.567 -1.79321 -0.156204 0
M  V30 1455 H 139.942 -0.722691 0.207899 0
M  V30 1456 H 141.913 -2.51205 1.61054 0
M  V30 1457 C 140.662 -3.47498 0.11858 0
M  V30 1458 H 139.985 -3.90154 0.872914 0
M  V30 1459 H 141.425 -4.23858 -0.109759 0
M  V30 1460 C 139.884 -3.16947 -1.1422 0
M  V30 1461 O 140.414 -3.3426 -2.22785 0
M  V30 1462 N 138.62 -2.70946 -1.05055 0
M  V30 1463 H 138.167 -2.57058 -0.167038 0
M  V30 1464 H 138.125 -2.50879 -1.89491 0
M  V30 1465 N 141.898 -0.863906 -1.31812 0
M  V30 1466 C 143.175 -0.39275 -1.91616 0
M  V30 1467 C 143.555 1.12461 -1.7865 0
M  V30 1468 O 142.903 1.95045 -1.19037 0
M  V30 1469 C 143.113 -0.867385 -3.38049 0
M  V30 1470 C 144.461 -0.889966 -4.15168 0
M  V30 1471 O 145.485 -0.812635 -3.46806 0
M  V30 1472 O 144.344 -1.00079 -5.37258 0
M  V30 1473 H 141.438 -0.116358 -0.818773 0
M  V30 1474 H 143.984 -0.951418 -1.40521 0
M  V30 1475 H 142.756 -1.91081 -3.41473 0
M  V30 1476 H 142.379 -0.286687 -3.96565 0
M  V30 1477 N 143.376 1.44774 -0.622745 0
M  V30 1478 C 144.339 2.29069 0.0774015 0
M  V30 1479 C 145.339 1.4059 0.780461 0
M  V30 1480 O 146.529 1.62551 0.626322 0
M  V30 1481 C 143.661 3.21974 1.12006 0
M  V30 1482 H 144.854 2.92459 -0.663901 0
M  V30 1483 H 142.407 1.51548 -0.382486 0
M  V30 1484 H 143.142 2.63417 1.89162 0
M  V30 1485 H 142.927 3.87168 0.619951 0
M  V30 1486 H 144.417 3.85318 1.60995 0
M  V30 1487 N 144.854 0.36279 1.53368 0
M  V30 1488 C 146.102 -0.227326 2.00817 0
M  V30 1489 C 146.423 -1.49511 1.25186 0
M  V30 1490 O 145.693 -1.92482 0.364348 0
M  V30 1491 H 144.273 -0.0869923 0.741917 0
M  V30 1492 H 146.935 0.488381 1.88682 0
M  V30 1493 H 146.031 -0.456273 3.08747 0
M  V30 1494 N 146.332 -1.57332 0.0918853 0
M  V30 1495 C 147.748 -1.57389 -0.264766 0
M  V30 1496 C 147.948 -1.10281 -1.68643 0
M  V30 1497 O 147.004 -0.777801 -2.40222 0
M  V30 1498 C 148.317 -3.00648 -0.0561195 0
M  V30 1499 C 149.865 -3.12754 -0.124116 0
M  V30 1500 C 150.34 -4.57965 0.0564972 0
M  V30 1501 N 151.831 -4.632 0.00155611 0
M  V30 1502 C 152.566 -5.73281 0.116598 0
M  V30 1503 N 152.062 -6.92208 0.286294 0
M  V30 1504 N 153.855 -5.6207 0.0580973 0
M  V30 1505 H 146.006 -1.86262 1.02079 0
M  V30 1506 H 148.269 -0.859579 0.399786 0
M  V30 1507 H 147.975 -3.393 0.925669 0
M  V30 1508 H 147.849 -3.68623 -0.799823 0
M  V30 1509 H 150.236 -2.73976 -1.09641 0
M  V30 1510 H 150.317 -2.47377 0.651024 0
M  V30 1511 H 149.961 -4.97436 1.02564 0
M  V30 1512 H 149.891 -5.21399 -0.738297 0
M  V30 1513 H 152.382 -3.77686 -0.127192 0
M  V30 1514 H 152.695 -7.71934 0.365676 0
M  V30 1515 H 151.04 -6.94254 0.32192 0
M  V30 1516 H 154.231 -4.68043 -0.0733204 0
M  V30 1517 H 154.404 -6.47824 0.151203 0
M  V30 1518 N 147.81 0.181792 -1.56548 0
M  V30 1519 C 149.221 0.745244 -1.71181 0
M  V30 1520 C 149.572 1.83262 -0.70068 0
M  V30 1521 O 148.697 2.15946 0.140154 0
M  V30 1522 C 149.292 1.35859 -3.10367 0
M  V30 1523 C 147.851 1.86898 -3.2672 0
M  V30 1524 C 146.998 0.743942 -2.67134 0
M  V30 1525 H 149.949 -0.0434661 -1.5864 0
M  V30 1526 H 149.97 2.22817 -3.08436 0
M  V30 1527 H 149.482 0.566948 -3.83937 0
M  V30 1528 H 147.583 2.68738 -2.5809 0
M  V30 1529 H 147.696 2.02162 -4.34359 0
M  V30 1530 H 146.06 1.16169 -2.26665 0
M  V30 1531 H 146.843 -0.035676 -3.43281 0
M  V30 1532 N 149.288 1.51039 0.449983 0
M  V30 1533 C 150.235 1.71439 1.54523 0
M  V30 1534 C 151.205 0.555871 1.56522 0
M  V30 1535 O 152.39 0.788871 1.73728 0
M  V30 1536 C 149.53 1.83384 2.92343 0
M  V30 1537 C 148.643 3.10873 2.9997 0
M  V30 1538 C 147.778 3.13488 4.28834 0
M  V30 1539 C 146.817 4.35343 4.30282 0
M  V30 1540 N 145.954 4.35579 5.5065 0
M  V30 1541 H 150.794 2.64934 1.36433 0
M  V30 1542 H 148.331 1.31312 0.662982 0
M  V30 1543 H 150.289 1.88291 3.72293 0
M  V30 1544 H 148.919 0.933086 3.0902 0
M  V30 1545 H 147.971 3.15336 2.12761 0
M  V30 1546 H 149.283 4.00814 2.96901 0
M  V30 1547 H 148.437 3.17241 5.17149 0
M  V30 1548 H 147.176 2.21414 4.34543 0
M  V30 1549 H 146.181 4.3178 3.40362 0
M  V30 1550 H 147.406 5.28668 4.26248 0
M  V30 1551 H 145.352 3.46369 5.57104 0
M  V30 1552 H 145.269 5.19313 5.49409 0
M  V30 1553 H 146.537 4.43507 6.41032 0
M  V30 1554 N 150.766 -0.704594 1.40972 0
M  V30 1555 C 152.012 -1.46675 1.40051 0
M  V30 1556 C 152.345 -1.94199 0.00641102 0
M  V30 1557 O 151.62 -1.68916 -0.964235 0
M  V30 1558 C 151.903 -2.68505 2.39952 0
M  V30 1559 C 151.756 -2.26805 3.88432 0
M  V30 1560 C 153.075 -3.70686 2.37233 0
M  V30 1561 H 150.194 -0.532015 0.510028 0
M  V30 1562 H 152.836 -0.803255 1.72185 0
M  V30 1563 H 150.986 -3.25114 2.1268 0
M  V30 1564 H 152.658 -1.75592 4.26574 0
M  V30 1565 H 150.901 -1.58685 4.03734 0
M  V30 1566 H 151.572 -3.14181 4.53866 0
M  V30 1567 H 154.048 -3.23731 2.61415 0
M  V30 1568 H 152.924 -4.53553 3.09162 0
M  V30 1569 H 153.185 -4.19754 1.38777 0
M  V30 1570 N 152.244 -1.26651 -0.937939 0
M  V30 1571 C 153.176 -1.04283 -2.04102 0
M  V30 1572 C 154.189 -0.00221014 -1.628 0
M  V30 1573 O 155.378 -0.242645 -1.76843 0
M  V30 1574 C 152.478 -0.557846 -3.34277 0
M  V30 1575 C 151.651 -1.66843 -4.04329 0
M  V30 1576 C 150.71 -1.18095 -5.12777 0
M  V30 1577 O 149.736 -1.87865 -5.37304 0
M  V30 1578 N 150.938 -0.0311006 -5.80492 0
M  V30 1579 H 153.703 -1.9927 -2.23856 0
M  V30 1580 H 151.264 -1.1808 -1.10764 0
M  V30 1581 H 153.256 -0.215836 -4.04124 0
M  V30 1582 H 151.826 0.298523 -3.11171 0
M  V30 1583 H 151.046 -2.18123 -3.28353 0
M  V30 1584 H 152.334 -2.41408 -4.47883 0
M  V30 1585 H 151.732 0.551486 -5.63005 0
M  V30 1586 H 150.289 0.251809 -6.51313 0
M  V30 1587 N 153.722 1.14298 -1.08507 0
M  V30 1588 C 154.968 1.85633 -0.816581 0
M  V30 1589 C 155.301 1.82784 0.656021 0
M  V30 1590 O 154.576 1.25926 1.48233 0
M  V30 1591 C 154.859 3.34223 -1.34041 0
M  V30 1592 C 154.712 3.45639 -2.87843 0
M  V30 1593 C 156.031 4.29356 -0.9665 0
M  V30 1594 H 153.15 0.67402 -0.298104 0
M  V30 1595 H 155.792 1.34214 -1.34487 0
M  V30 1596 H 153.942 3.78144 -0.89104 0
M  V30 1597 H 155.614 3.10498 -3.41158 0
M  V30 1598 H 153.857 2.86817 -3.25451 0
M  V30 1599 H 154.528 4.50089 -3.19569 0
M  V30 1600 H 157.004 3.93457 -1.35391 0
M  V30 1601 H 155.88 5.3178 -1.3602 0
M  V30 1602 H 156.141 4.41919 0.126362 0
M  V30 1603 N 155.201 0.870884 1.31352 0
M  V30 1604 C 156.111 0.330783 2.32256 0
M  V30 1605 C 157.127 -0.559767 1.6475 0
M  V30 1606 O 158.303 -0.456263 1.96164 0
M  V30 1607 C 155.368 -0.458137 3.4366 0
M  V30 1608 C 154.429 0.460482 4.26823 0
M  V30 1609 C 153.662 -0.290881 5.32907 0
M  V30 1610 O 153.885 -1.51885 5.49806 0
M  V30 1611 O 152.819 0.351732 6.00871 0
M  V30 1612 H 156.645 1.16718 2.80376 0
M  V30 1613 H 154.23 0.634285 1.35267 0
M  V30 1614 H 156.112 -0.905343 4.1156 0
M  V30 1615 H 154.787 -1.27106 2.97701 0
M  V30 1616 H 153.694 0.956207 3.61673 0
M  V30 1617 H 155.027 1.23903 4.7635 0
M  V30 1618 N 156.679 -1.44442 0.630414 0
M  V30 1619 C 157.909 -2.06115 0.141465 0
M  V30 1620 C 158.317 -1.47179 -1.1889 0
M  V30 1621 O 157.66 -0.588873 -1.74006 0
M  V30 1622 C 157.722 -3.59467 -0.0484355 0
M  V30 1623 C 157.386 -4.40864 1.20366 0
M  V30 1624 C 158.383 -4.74391 2.12719 0
M  V30 1625 C 156.068 -4.8125 1.43887 0
M  V30 1626 C 158.062 -5.47186 3.26904 0
M  V30 1627 C 155.749 -5.53795 2.5837 0
M  V30 1628 C 156.747 -5.86682 3.49705 0
M  V30 1629 O 156.435 -6.57749 4.62191 0
M  V30 1630 H 156.167 -0.671648 0.0765792 0
M  V30 1631 H 158.721 -1.86312 0.864695 0
M  V30 1632 H 156.951 -3.77758 -0.826803 0
M  V30 1633 H 158.64 -4.02909 -0.491849 0
M  V30 1634 H 159.406 -4.43728 1.95781 0
M  V30 1635 H 155.285 -4.55073 0.736853 0
M  V30 1636 H 158.829 -5.72773 3.98217 0
M  V30 1637 H 154.726 -5.83872 2.75251 0
M  V30 1638 H 155.494 -6.76217 4.61164 0
M  V30 1639 N 158.157 -0.370918 -1.53173 0
M  V30 1640 C 159.104 0.473035 -2.259 0
M  V30 1641 C 160.074 1.07311 -1.26781 0
M  V30 1642 O 161.259 1.1046 -1.55574 0
M  V30 1643 C 158.399 1.60405 -3.05556 0
M  V30 1644 C 157.512 1.02863 -4.19575 0
M  V30 1645 C 156.647 2.12918 -4.86661 0
M  V30 1646 C 155.686 1.52869 -5.92704 0
M  V30 1647 N 154.823 2.56779 -6.53459 0
M  V30 1648 H 159.663 -0.153649 -2.97604 0
M  V30 1649 H 157.2 -0.0875946 -1.46839 0
M  V30 1650 H 159.158 2.27034 -3.50016 0
M  V30 1651 H 157.788 2.20131 -2.36097 0
M  V30 1652 H 156.84 0.252465 -3.79561 0
M  V30 1653 H 158.152 0.549642 -4.95762 0
M  V30 1654 H 157.306 2.87356 -5.34333 0
M  V30 1655 H 156.045 2.6417 -4.09958 0
M  V30 1656 H 155.05 0.769479 -5.44389 0
M  V30 1657 H 156.275 1.02435 -6.7133 0
M  V30 1658 H 154.221 3.07235 -5.79606 0
M  V30 1659 H 154.138 2.13583 -7.25202 0
M  V30 1660 H 155.406 3.30903 -7.05779 0
M  V30 1661 N 159.635 1.57281 -0.100228 0
M  V30 1662 C 160.883 1.94153 0.561157 0
M  V30 1663 C 161.204 0.983157 1.68401 0
M  V30 1664 O 160.474 0.0361132 1.95867 0
M  V30 1665 H 159.054 0.716791 0.210283 0
M  V30 1666 H 161.716 1.94202 -0.164765 0
M  V30 1667 H 160.812 2.96709 0.968008 0
M  V30 1668 N 161.113 -0.173488 1.56642 0
M  V30 1669 C 162.023 -1.23482 1.99473 0
M  V30 1670 C 163.039 -1.48567 0.905752 0
M  V30 1671 O 164.215 -1.60758 1.21321 0
M  V30 1672 C 161.28 -2.55444 2.34413 0
M  V30 1673 C 160.341 -2.38241 3.57127 0
M  V30 1674 C 159.574 -3.63909 3.90392 0
M  V30 1675 O 159.797 -4.68996 3.24653 0
M  V30 1676 O 158.731 -3.58149 4.83749 0
M  V30 1677 H 162.557 -0.901279 2.90018 0
M  V30 1678 H 160.142 -0.380185 1.44482 0
M  V30 1679 H 162.024 -3.33292 2.57865 0
M  V30 1680 H 160.699 -2.88382 1.4703 0
M  V30 1681 H 159.606 -1.58431 3.38896 0
M  V30 1682 H 160.939 -2.10228 4.45045 0
M  V30 1683 N 162.591 -1.51276 -0.441967 0
M  V30 1684 C 163.819 -1.67516 -1.21434 0
M  V30 1685 C 164.234 -0.37055 -1.85128 0
M  V30 1686 O 163.591 0.650498 -1.70513 0
M  V30 1687 C 163.642 -2.78748 -2.30177 0
M  V30 1688 O 163.363 -4.04154 -1.69089 0
M  V30 1689 C 164.864 -3.06217 -3.20541 0
M  V30 1690 H 162.084 -0.562276 -0.366178 0
M  V30 1691 H 164.628 -1.97666 -0.524244 0
M  V30 1692 H 162.783 -2.5121 -2.94911 0
M  V30 1693 H 163.197 -4.65894 -2.40922 0
M  V30 1694 H 164.671 -3.8764 -3.92987 0
M  V30 1695 H 165.148 -2.18439 -3.81026 0
M  V30 1696 H 165.754 -3.35397 -2.61513 0
M  V30 1697 N 164.069 0.697108 -1.41344 0
M  V30 1698 C 165.016 1.81106 -1.43071 0
M  V30 1699 C 165.986 1.63632 -0.285275 0
M  V30 1700 O 167.171 1.84504 -0.486091 0
M  V30 1701 C 164.311 3.18975 -1.31715 0
M  V30 1702 C 163.424 3.47892 -2.56115 0
M  V30 1703 C 162.559 4.75367 -2.37064 0
M  V30 1704 C 161.598 4.97247 -3.56948 0
M  V30 1705 N 160.735 6.15947 -3.36977 0
M  V30 1706 H 165.575 1.78965 -2.38276 0
M  V30 1707 H 163.112 0.873975 -1.18322 0
M  V30 1708 H 165.07 3.98615 -1.23133 0
M  V30 1709 H 163.7 3.20297 -0.401183 0
M  V30 1710 H 162.752 2.62669 -2.75153 0
M  V30 1711 H 164.064 3.59962 -3.45295 0
M  V30 1712 H 163.218 5.63059 -2.25941 0
M  V30 1713 H 161.957 4.65541 -1.45338 0
M  V30 1714 H 160.962 4.08004 -3.68527 0
M  V30 1715 H 162.187 5.08934 -4.49626 0
M  V30 1716 H 160.133 6.07336 -2.47949 0
M  V30 1717 H 160.05 6.28777 -4.19732 0
M  V30 1718 H 161.318 7.06377 -3.29623 0
M  V30 1719 N 165.547 1.27147 0.931209 0
M  V30 1720 C 166.772 1.16191 1.71797 0
M  V30 1721 C 167.197 -0.278004 1.86034 0
M  V30 1722 O 166.555 -1.20137 1.35782 0
M  V30 1723 C 166.603 1.84673 3.09723 0
M  V30 1724 O 165.707 1.14231 3.96264 0
M  V30 1725 H 165.048 0.404303 0.526721 0
M  V30 1726 H 167.578 1.68152 1.1656 0
M  V30 1727 H 167.588 1.91893 3.60057 0
M  V30 1728 H 166.263 2.89421 2.98677 0
M  V30 1729 H 164.84 1.15056 3.54706 0
M  V30 1730 N 167.025 -1.13721 1.09112 0
M  V30 1731 C 168.272 -1.84924 0.825192 0
M  V30 1732 C 168.6 -1.83347 -0.649151 0
M  V30 1733 O 167.855 -1.26449 -1.49362 0
M  V30 1734 C 168.154 -3.32861 1.30146 0
M  V30 1735 C 167.82 -3.54621 2.78486 0
M  V30 1736 C 166.482 -3.60268 3.18999 0
M  V30 1737 C 168.834 -3.62855 3.74146 0
M  V30 1738 C 166.162 -3.71679 4.53951 0
M  V30 1739 C 168.514 -3.75793 5.08883 0
M  V30 1740 C 167.178 -3.79692 5.4899 0
M  V30 1741 H 166.448 -0.676684 0.301959 0
M  V30 1742 H 169.095 -1.3428 1.36533 0
M  V30 1743 H 167.4 -3.85835 0.681064 0
M  V30 1744 H 169.097 -3.86395 1.07236 0
M  V30 1745 H 165.687 -3.50879 2.46134 0
M  V30 1746 H 169.871 -3.57775 3.43963 0
M  V30 1747 H 165.127 -3.72963 4.84467 0
M  V30 1748 H 169.301 -3.81107 5.82864 0
M  V30 1749 H 166.928 -3.88287 6.53558 0
M  V30 1750 N 168.503 -0.877838 -1.30888 0
M  V30 1751 C 169.733 -0.506678 -2.00291 0
M  V30 1752 C 170.141 0.907449 -1.66018 0
M  V30 1753 O 169.484 1.60719 -0.88967 0
M  V30 1754 C 169.546 -0.59323 -3.54572 0
M  V30 1755 C 169.21 -1.97038 -4.12341 0
M  V30 1756 C 170.207 -2.93889 -4.28865 0
M  V30 1757 C 167.892 -2.27383 -4.47886 0
M  V30 1758 C 169.886 -4.19224 -4.80136 0
M  V30 1759 C 167.573 -3.52965 -4.98857 0
M  V30 1760 C 168.571 -4.48701 -5.14934 0
M  V30 1761 O 168.259 -5.72056 -5.64808 0
M  V30 1762 H 167.991 -0.1951 -0.647234 0
M  V30 1763 H 170.545 -1.18301 -1.6791 0
M  V30 1764 H 168.775 0.140057 -3.86446 0
M  V30 1765 H 170.464 -0.234372 -4.05223 0
M  V30 1766 H 171.23 -2.71756 -4.01714 0
M  V30 1767 H 167.109 -1.53639 -4.34645 0
M  V30 1768 H 170.653 -4.93956 -4.92599 0
M  V30 1769 H 166.55 -3.74939 -5.25443 0
M  V30 1770 H 167.318 -5.74337 -5.83163 0
M  V30 1771 N 169.982 1.44106 -0.638065 0
M  V30 1772 C 171.393 1.85316 -0.226894 0
M  V30 1773 C 171.744 1.53399 1.22324 0
M  V30 1774 O 170.869 0.975463 1.93167 0
M  V30 1775 C 171.464 3.3637 -0.405013 0
M  V30 1776 C 170.023 3.76369 -0.0482902 0
M  V30 1777 C 169.17 2.67921 -0.715108 0
M  V30 1778 H 172.121 1.34474 -0.842764 0
M  V30 1779 H 172.142 3.7885 0.354 0
M  V30 1780 H 171.654 3.59569 -1.46053 0
M  V30 1781 H 169.755 3.58784 1.00522 0
M  V30 1782 H 169.868 4.76856 -0.463187 0
M  V30 1783 H 168.232 2.54259 -0.149753 0
M  V30 1784 H 169.015 2.93951 -1.77335 0
M  V30 1785 N 171.46 0.379036 1.52974 0
M  V30 1786 C 172.37 -0.468639 2.29872 0
M  V30 1787 C 173.386 -1.08067 1.36373 0
M  V30 1788 O 174.562 -1.08871 1.69438 0
M  V30 1789 C 171.627 -1.58594 3.083 0
M  V30 1790 C 170.688 -1.00007 4.17489 0
M  V30 1791 C 169.921 -2.06413 4.92168 0
M  V30 1792 O 170.144 -3.27751 4.66835 0
M  V30 1793 O 169.078 -1.68717 5.7777 0
M  V30 1794 H 172.904 0.157508 3.03291 0
M  V30 1795 H 170.489 0.143035 1.48714 0
M  V30 1796 H 172.371 -2.23525 3.57232 0
M  V30 1797 H 171.046 -2.19724 2.37703 0
M  V30 1798 H 169.953 -0.314299 3.72777 0
M  V30 1799 H 171.286 -0.433135 4.90291 0
M  V30 1800 N 172.938 -1.57226 0.108567 0
M  V30 1801 C 173.848 -2.18292 -0.859401 0
M  V30 1802 C 174.864 -1.15612 -1.30038 0
M  V30 1803 O 176.04 -1.48039 -1.36552 0
M  V30 1804 C 173.105 -2.762 -2.09558 0
M  V30 1805 C 172.166 -3.93881 -1.70752 0
M  V30 1806 C 171.399 -4.49018 -2.88477 0
M  V30 1807 O 171.622 -4.03068 -4.036 0
M  V30 1808 O 170.556 -5.39852 -2.66164 0
M  V30 1809 H 174.382 -3.01441 -0.369769 0
M  V30 1810 H 171.967 -1.48945 -0.1165 0
M  V30 1811 H 173.849 -3.13156 -2.81978 0
M  V30 1812 H 172.524 -1.96089 -2.57548 0
M  V30 1813 H 171.431 -3.61713 -0.954714 0
M  V30 1814 H 172.764 -4.75396 -1.27513 0
M  V30 1815 N 174.416 0.165178 -1.56732 0
M  V30 1816 C 175.662 0.882112 -1.82611 0
M  V30 1817 C 175.995 1.81628 -0.687378 0
M  V30 1818 O 175.27 1.92009 0.310267 0
M  V30 1819 C 175.553 1.67245 -3.18906 0
M  V30 1820 C 175.406 0.760987 -4.43316 0
M  V30 1821 C 176.725 2.63884 -3.52212 0
M  V30 1822 H 173.844 0.319242 -0.664269 0
M  V30 1823 H 176.486 0.148052 -1.89422 0
M  V30 1824 H 174.636 2.29824 -3.1323 0
M  V30 1825 H 176.308 0.147596 -4.61064 0
M  V30 1826 H 174.551 0.0694102 -4.33744 0
M  V30 1827 H 175.222 1.34962 -5.35247 0
M  V30 1828 H 177.698 2.11429 -3.58381 0
M  V30 1829 H 176.574 3.16245 -4.48643 0
M  V30 1830 H 176.835 3.44377 -2.77231 0
M  V30 1831 N 175.894 1.51508 0.433938 0
M  V30 1832 C 177.119 1.68443 1.21003 0
M  V30 1833 C 177.544 0.382636 1.84167 0
M  V30 1834 O 176.902 -0.65755 1.68956 0
M  V30 1835 C 176.95 2.80405 2.26727 0
M  V30 1836 O 176.054 2.44245 3.32292 0
M  V30 1837 H 175.395 0.561536 0.354363 0
M  V30 1838 H 177.925 1.9809 0.512024 0
M  V30 1839 H 177.935 3.0459 2.71457 0
M  V30 1840 H 176.61 3.74867 1.80132 0
M  V30 1841 H 175.187 2.30644 2.93015 0
M  V30 1842 N 177.372 -0.689602 1.41712 0
M  V30 1843 C 178.597 -1.48329 1.44959 0
M  V30 1844 C 179.022 -1.8801 0.0581283 0
M  V30 1845 O 178.38 -1.55026 -0.940035 0
M  V30 1846 C 178.428 -2.71835 2.36935 0
M  V30 1847 O 177.532 -3.69549 1.8305 0
M  V30 1848 H 176.873 -0.446199 0.491734 0
M  V30 1849 H 179.403 -0.847127 1.86239 0
M  V30 1850 H 179.413 -3.20076 2.53013 0
M  V30 1851 H 178.088 -2.42291 3.38035 0
M  V30 1852 H 176.665 -3.2851 1.76452 0
M  V30 1853 N 178.85 -1.27639 -0.924453 0
M  V30 1854 C 179.783 -1.04966 -2.02626 0
M  V30 1855 C 180.761 0.0309505 -1.62571 0
M  V30 1856 O 181.945 -0.114846 -1.8815 0
M  V30 1857 C 179.072 -0.59292 -3.3347 0
M  V30 1858 C 178.118 -1.66858 -3.92506 0
M  V30 1859 S 178.951 -3.2619 -4.24689 0
M  V30 1860 C 180.107 -2.82325 -5.58609 0
M  V30 1861 H 180.34 -1.98252 -2.21547 0
M  V30 1862 H 177.873 -1.11506 -1.06798 0
M  V30 1863 H 179.831 -0.336086 -4.09122 0
M  V30 1864 H 178.492 0.319939 -3.12466 0
M  V30 1865 H 177.685 -1.30038 -4.86935 0
M  V30 1866 H 177.287 -1.87766 -3.2345 0
M  V30 1867 H 179.579 -2.2783 -6.38044 0
M  V30 1868 H 180.522 -3.75511 -6.00331 0
M  V30 1869 H 180.93 -2.21367 -5.19285 0
M  V30 1870 N 180.328 1.1314 -1.09713 0
M  V30 1871 C 181.574 1.84757 -0.836224 0
M  V30 1872 C 181.907 1.8347 0.636598 0
M  V30 1873 O 181.182 1.27491 1.46889 0
M  V30 1874 C 181.465 3.32782 -1.37578 0
M  V30 1875 C 181.318 3.42567 -2.91493 0
M  V30 1876 C 182.637 4.28307 -1.01198 0
M  V30 1877 H 179.756 0.67082 -0.305236 0
M  V30 1878 H 182.398 1.3278 -1.35903 0
M  V30 1879 H 180.548 3.77177 -0.931097 0
M  V30 1880 H 182.22 3.06862 -3.44432 0
M  V30 1881 H 180.463 2.83349 -3.28475 0
M  V30 1882 H 181.134 4.46674 -3.24324 0
M  V30 1883 H 183.61 3.91999 -1.39556 0
M  V30 1884 H 182.486 5.30307 -1.41653 0
M  V30 1885 H 182.747 4.42029 0.0794833 0
M  V30 1886 N 181.806 0.884767 1.30421 0
M  V30 1887 C 182.736 0.367574 2.30589 0
M  V30 1888 C 183.717 -0.549464 1.60981 0
M  V30 1889 O 184.902 -0.46336 1.88591 0
M  V30 1890 C 182.032 -0.418944 3.44764 0
M  V30 1891 C 180.986 0.406316 4.26067 0
M  V30 1892 C 180.312 -0.506793 5.32293 0
M  V30 1893 C 181.612 1.64832 4.95608 0
M  V30 1894 H 183.306 1.20462 2.74097 0
M  V30 1895 H 180.852 0.580695 1.31772 0
M  V30 1896 H 182.805 -0.791395 4.13902 0
M  V30 1897 H 181.529 -1.28964 3.0006 0
M  V30 1898 H 180.188 0.760903 3.58617 0
M  V30 1899 H 179.836 -1.37519 4.83836 0
M  V30 1900 H 179.536 0.0415828 5.87585 0
M  V30 1901 H 181.06 -0.875764 6.04287 0
M  V30 1902 H 182.474 1.34646 5.57264 0
M  V30 1903 H 180.871 2.13688 5.60765 0
M  V30 1904 H 181.941 2.39284 4.21748 0
M  V30 1905 N 183.284 -1.43765 0.645699 0
M  V30 1906 C 184.512 -2.06253 0.163556 0
M  V30 1907 C 184.927 -1.48352 -1.16778 0
M  V30 1908 O 184.284 -0.611932 -1.71935 0
M  V30 1909 C 184.335 -3.61453 0.0583186 0
M  V30 1910 O 184.056 -4.172 1.33702 0
M  V30 1911 C 185.557 -4.41002 -0.450795 0
M  V30 1912 H 182.777 -0.665413 0.0864077 0
M  V30 1913 H 185.321 -1.84396 0.884222 0
M  V30 1914 H 183.476 -3.82522 -0.612865 0
M  V30 1915 H 183.89 -5.10791 1.19131 0
M  V30 1916 H 185.364 -5.49966 -0.473403 0
M  V30 1917 H 185.841 -4.13488 -1.48068 0
M  V30 1918 H 186.447 -4.24886 0.187637 0
M  V30 1919 N 184.763 -0.387143 -1.52771 0
M  V30 1920 C 185.71 0.449048 -2.26389 0
M  V30 1921 C 186.68 1.05961 -1.27912 0
M  V30 1922 O 187.865 1.08804 -1.56737 0
M  V30 1923 C 185.005 1.57155 -3.0724 0
M  V30 1924 C 184.118 0.984066 -4.20643 0
M  V30 1925 C 183.253 2.07745 -4.88892 0
M  V30 1926 C 182.292 1.46574 -5.94292 0
M  V30 1927 N 181.429 2.49834 -6.56146 0
M  V30 1928 H 186.269 -0.185205 -2.97424 0
M  V30 1929 H 183.806 -0.103164 -1.46738 0
M  V30 1930 H 185.764 2.23309 -3.52405 0
M  V30 1931 H 184.394 2.17615 -2.38419 0
M  V30 1932 H 183.446 0.212193 -3.79808 0
M  V30 1933 H 184.758 0.497029 -4.96318 0
M  V30 1934 H 183.912 2.81673 -5.3735 0
M  V30 1935 H 182.651 2.59807 -4.12737 0
M  V30 1936 H 181.656 0.711696 -5.45174 0
M  V30 1937 H 182.881 0.953088 -6.72379 0
M  V30 1938 H 180.827 3.0107 -5.82832 0
M  V30 1939 H 180.744 2.05879 -7.27427 0
M  V30 1940 H 182.012 3.23399 -7.09249 0
M  V30 1941 N 186.241 1.57166 -0.116904 0
M  V30 1942 C 187.174 2.10912 0.871291 0
M  V30 1943 C 188.152 1.025 1.26224 0
M  V30 1944 O 189.336 1.3014 1.36366 0
M  V30 1945 C 186.463 2.6041 2.16574 0
M  V30 1946 C 185.509 3.80687 1.92302 0
M  V30 1947 S 186.342 5.23199 1.14119 0
M  V30 1948 C 187.498 5.76064 2.44748 0
M  V30 1949 H 187.731 2.94401 0.414138 0
M  V30 1950 H 185.264 1.54096 0.096829 0
M  V30 1951 H 187.222 2.89583 2.9095 0
M  V30 1952 H 185.883 1.77106 2.59408 0
M  V30 1953 H 185.076 4.13462 2.8821 0
M  V30 1954 H 184.678 3.5212 1.26047 0
M  V30 1955 H 186.97 5.8566 3.406 0
M  V30 1956 H 187.913 6.74184 2.16521 0
M  V30 1957 H 188.321 5.04117 2.54019 0
M  V30 1958 N 187.719 -0.156864 1.56817 0
M  V30 1959 C 188.666 -1.19394 1.97519 0
M  V30 1960 C 189.636 -1.4322 0.841265 0
M  V30 1961 O 190.821 -1.55719 1.10255 0
M  V30 1962 C 187.961 -2.52483 2.35258 0
M  V30 1963 C 187.074 -2.35914 3.61896 0
M  V30 1964 C 186.209 -3.61969 3.88782 0
M  V30 1965 C 185.248 -3.40395 5.08722 0
M  V30 1966 N 184.385 -4.58556 5.31668 0
M  V30 1967 H 189.225 -0.839845 2.85921 0
M  V30 1968 H 186.762 -0.403264 1.41464 0
M  V30 1969 H 188.72 -3.30071 2.55165 0
M  V30 1970 H 187.35 -2.85859 1.49949 0
M  V30 1971 H 186.402 -1.49429 3.49821 0
M  V30 1972 H 187.714 -2.15926 4.49641 0
M  V30 1973 H 186.868 -4.47989 4.09135 0
M  V30 1974 H 185.607 -3.84951 2.9944 0
M  V30 1975 H 184.612 -2.52763 4.88253 0
M  V30 1976 H 185.837 -3.18822 5.99608 0
M  V30 1977 H 183.783 -4.81729 4.45279 0
M  V30 1978 H 183.7 -4.41535 6.13664 0
M  V30 1979 H 184.968 -5.45817 5.5651 0
M  V30 1980 N 189.197 -1.51736 -0.425897 0
M  V30 1981 C 190.107 -1.76738 -1.54275 0
M  V30 1982 C 191.123 -0.65211 -1.61318 0
M  V30 1983 O 192.299 -0.935654 -1.78346 0
M  V30 1984 C 189.364 -1.89755 -2.90162 0
M  V30 1985 C 188.425 -3.13633 -2.93143 0
M  V30 1986 C 187.658 -3.2602 -4.22548 0
M  V30 1987 O 187.881 -2.44067 -5.15546 0
M  V30 1988 O 186.815 -4.19071 -4.32046 0
M  V30 1989 H 190.641 -2.71502 -1.36089 0
M  V30 1990 H 188.226 -1.36376 -0.610069 0
M  V30 1991 H 190.108 -2.00236 -3.70788 0
M  V30 1992 H 188.783 -0.981785 -3.08452 0
M  V30 1993 H 187.69 -3.08622 -2.11431 0
M  V30 1994 H 189.023 -4.04936 -2.798 0
M  V30 1995 N 190.675 0.682077 -1.42076 0
M  V30 1996 C 191.924 1.43786 -1.41451 0
M  V30 1997 C 192.237 1.95574 -0.0317074 0
M  V30 1998 O 193.443 2.71326 0.0971462 0
M  V30 1999 C 191.899 2.60071 -2.48779 0
M  V30 2000 C 191.507 2.15013 -3.93031 0
M  V30 2001 C 193.251 3.37626 -2.57311 0
M  V30 2002 C 191.158 3.28336 -4.91883 0
M  V30 2003 H 190.088 0.540143 -0.526082 0
M  V30 2004 H 192.739 0.739157 -1.67955 0
M  V30 2005 H 191.121 3.32275 -2.15429 0
M  V30 2006 H 192.295 1.5001 -4.35699 0
M  V30 2007 H 190.61 1.50416 -3.88284 0
M  V30 2008 H 193.207 4.22012 -3.28345 0
M  V30 2009 H 193.55 3.83727 -1.61429 0
M  V30 2010 H 194.083 2.72488 -2.89819 0
M  V30 2011 H 190.822 2.87234 -5.89217 0
M  V30 2012 H 190.342 3.92145 -4.53853 0
M  V30 2013 H 192.021 3.93913 -5.13265 0
M  V30 2014 N 192.153 1.28127 0.917671 0
M  V30 2015 C 193.116 1.11744 2.00115 0
M  V30 2016 C 194.116 0.0583052 1.60694 0
M  V30 2017 O 195.306 0.303755 1.71531 0
M  V30 2018 C 192.438 0.704862 3.33533 0
M  V30 2019 H 193.631 2.07966 2.16079 0
M  V30 2020 H 191.184 1.11058 1.09981 0
M  V30 2021 H 191.919 -0.258299 3.2327 0
M  V30 2022 H 191.704 1.4699 3.63505 0
M  V30 2023 H 193.194 0.612768 4.1308 0
M  V30 2024 N 193.631 -1.12557 1.10312 0
M  V30 2025 C 194.541 -2.21841 0.763142 0
M  V30 2026 C 195.557 -1.72354 -0.238801 0
M  V30 2027 O 196.733 -2.01249 -0.0778746 0
M  V30 2028 C 193.798 -3.46131 0.198632 0
M  V30 2029 C 192.859 -4.10464 1.25769 0
M  V30 2030 C 192.092 -5.28821 0.72002 0
M  V30 2031 O 192.315 -5.6859 -0.453993 0
M  V30 2032 O 191.249 -5.83437 1.47935 0
M  V30 2033 H 195.075 -2.53312 1.67532 0
M  V30 2034 H 192.66 -1.20867 0.878157 0
M  V30 2035 H 194.542 -4.2125 -0.112401 0
M  V30 2036 H 193.217 -3.16338 -0.686419 0
M  V30 2037 H 192.124 -3.3713 1.62156 0
M  V30 2038 H 193.457 -4.44408 2.11571 0
M  V30 2039 N 195.109 -0.891671 -1.2995 0
M  V30 2040 C 196.072 -0.36828 -2.26222 0
M  V30 2041 C 197.072 0.493014 -1.53056 0
M  V30 2042 O 198.262 0.299213 -1.71611 0
M  V30 2043 C 195.394 0.47442 -3.37583 0
M  V30 2044 H 196.587 -1.21844 -2.74033 0
M  V30 2045 H 194.14 -0.669107 -1.41254 0
M  V30 2046 H 194.875 1.34489 -2.95099 0
M  V30 2047 H 194.66 -0.142615 -3.91841 0
M  V30 2048 H 196.15 0.83218 -4.09224 0
M  V30 2049 N 196.587 1.43421 -0.653314 0
M  V30 2050 C 197.817 2.05864 -0.174238 0
M  V30 2051 C 198.225 1.49052 1.16534 0
M  V30 2052 O 197.568 0.616481 1.73047 0
M  V30 2053 C 197.63 3.59499 -0.00875873 0
M  V30 2054 C 197.294 4.38893 -1.27364 0
M  V30 2055 C 198.291 4.70947 -2.20239 0
M  V30 2056 C 195.976 4.789 -1.51525 0
M  V30 2057 C 197.97 5.41916 -3.35568 0
M  V30 2058 C 195.657 5.49614 -2.67147 0
M  V30 2059 C 196.655 5.81044 -3.58994 0
M  V30 2060 O 196.343 6.50313 -4.72597 0
M  V30 2061 H 196.075 0.670345 -0.0872549 0
M  V30 2062 H 198.629 1.84913 -0.894226 0
M  V30 2063 H 196.859 3.79025 0.7666 0
M  V30 2064 H 198.548 4.0364 0.427687 0
M  V30 2065 H 199.314 4.40558 -2.02815 0
M  V30 2066 H 195.193 4.53843 -0.809158 0
M  V30 2067 H 198.737 5.66365 -4.07279 0
M  V30 2068 H 194.634 5.79419 -2.84505 0
M  V30 2069 H 195.402 6.68795 -4.71864 0
M  V30 2070 N 198.065 0.39524 1.52563 0
M  V30 2071 C 198.995 -0.428384 2.29537 0
M  V30 2072 C 199.976 -1.05831 1.33169 0
M  V30 2073 O 201.161 -1.06995 1.62067 0
M  V30 2074 C 198.291 -1.55274 3.10656 0
M  V30 2075 C 197.245 -1.04855 4.14957 0
M  V30 2076 C 196.571 -2.26543 4.84337 0
M  V30 2077 C 197.871 -0.112324 5.22179 0
M  V30 2078 H 199.565 0.213867 2.98635 0
M  V30 2079 H 197.111 0.104298 1.43622 0
M  V30 2080 H 199.064 -2.1358 3.63265 0
M  V30 2081 H 197.788 -2.22266 2.39302 0
M  V30 2082 H 196.447 -0.487985 3.63338 0
M  V30 2083 H 196.095 -2.92059 4.09525 0
M  V30 2084 H 195.795 -1.93466 5.54837 0
M  V30 2085 H 197.319 -2.85481 5.39753 0
M  V30 2086 H 198.733 -0.603752 5.70112 0
M  V30 2087 H 197.13 0.128968 5.99961 0
M  V30 2088 H 198.2 0.837052 4.77621 0
M  V30 2089 N 199.544 -1.57102 0.125237 0
M  V30 2090 C 200.792 -1.95021 -0.530198 0
M  V30 2091 C 201.113 -1.00982 -1.66816 0
M  V30 2092 O 200.383 -0.0672693 -1.95784 0
M  V30 2093 H 198.963 -0.720046 -0.198853 0
M  V30 2094 H 201.625 -1.93916 0.19564 0
M  V30 2095 H 200.721 -2.98211 -0.920681 0
M  V30 2096 N 201.022 0.148545 -1.56898 0
M  V30 2097 C 201.969 1.18345 -1.98149 0
M  V30 2098 C 202.939 1.42772 -0.848848 0
M  V30 2099 O 204.124 1.55132 -1.11079 0
M  V30 2100 C 201.264 2.51231 -2.36594 0
M  V30 2101 C 200.377 2.33991 -3.63142 0
M  V30 2102 C 199.512 3.59902 -3.90697 0
M  V30 2103 C 198.551 3.37692 -5.1052 0
M  V30 2104 N 197.688 4.5573 -5.34092 0
M  V30 2105 H 202.528 0.82467 -2.86362 0
M  V30 2106 H 200.065 0.395756 -1.41676 0
M  V30 2107 H 202.023 3.28713 -2.56912 0
M  V30 2108 H 200.653 2.85059 -1.51463 0
M  V30 2109 H 199.705 1.47572 -3.50609 0
M  V30 2110 H 201.017 2.13539 -4.5078 0
M  V30 2111 H 200.171 4.45813 -4.11505 0
M  V30 2112 H 198.91 3.83357 -3.01477 0
M  V30 2113 H 197.915 2.5017 -4.89587 0
M  V30 2114 H 199.14 3.15637 -6.0129 0
M  V30 2115 H 197.086 4.79361 -4.47827 0
M  V30 2116 H 197.003 4.38274 -6.15996 0
M  V30 2117 H 198.271 5.42858 -5.59397 0
M  V30 2118 N 202.5 1.5196 0.417844 0
M  V30 2119 C 203.728 1.69426 1.18753 0
M  V30 2120 C 204.143 0.399955 1.84515 0
M  V30 2121 O 203.5 -0.623288 1.71527 0
M  V30 2122 C 203.551 2.82375 2.25714 0
M  V30 2123 O 203.272 4.06793 1.62638 0
M  V30 2124 C 204.773 3.11277 3.15628 0
M  V30 2125 H 201.993 0.568031 0.357186 0
M  V30 2126 H 204.537 1.98475 0.49273 0
M  V30 2127 H 202.692 2.5587 2.90877 0
M  V30 2128 H 203.106 4.69667 2.3348 0
M  V30 2129 H 204.58 3.93843 3.86771 0
M  V30 2130 H 205.057 2.24473 3.77503 0
M  V30 2131 H 205.663 3.39515 2.56144 0
M  V30 2132 N 203.978 -0.674533 1.42435 0
M  V30 2133 C 205.224 -1.43671 1.43131 0
M  V30 2134 C 205.557 -1.94142 0.0476021 0
M  V30 2135 O 204.832 -1.70924 -0.928188 0
M  V30 2136 C 205.115 -2.63355 2.45594 0
M  V30 2137 C 204.968 -2.18514 3.93156 0
M  V30 2138 C 206.287 -3.65571 2.45043 0
M  V30 2139 H 203.406 -0.521077 0.521198 0
M  V30 2140 H 206.048 -0.766551 1.7385 0
M  V30 2141 H 204.198 -3.2053 2.19528 0
M  V30 2142 H 205.87 -1.66504 4.30202 0
M  V30 2143 H 204.113 -1.50086 4.07009 0
M  V30 2144 H 204.784 -3.04484 4.60428 0
M  V30 2145 H 207.26 -3.18113 2.68223 0
M  V30 2146 H 206.136 -4.46893 3.18713 0
M  V30 2147 H 206.397 -4.16716 1.47649 0
M  V30 2148 N 205.456 -1.28612 -0.910864 0
M  V30 2149 C 206.684 -1.18792 -1.69399 0
M  V30 2150 C 207.099 0.253039 -1.87097 0
M  V30 2151 O 206.456 1.17071 -1.40003 0
M  V30 2152 C 206.507 -1.88511 -3.08457 0
M  V30 2153 O 206.228 -3.26979 -2.91576 0
M  V30 2154 C 207.729 -1.85029 -4.02839 0
M  V30 2155 H 204.949 -0.412233 -0.529438 0
M  V30 2156 H 207.493 -1.69788 -1.13984 0
M  V30 2157 H 205.648 -1.41379 -3.60681 0
M  V30 2158 H 206.062 -3.61936 -3.79608 0
M  V30 2159 H 207.536 -2.38395 -4.97867 0
M  V30 2160 H 208.013 -0.823303 -4.31414 0
M  V30 2161 H 208.619 -2.31853 -3.56545 0
M  V30 2162 N 206.934 1.1197 -1.10907 0
M  V30 2163 C 207.882 2.19927 -0.757303 0
M  V30 2164 C 208.876 1.67564 0.248747 0
M  V30 2165 O 210.082 1.79672 0.108605 0
M  V30 2166 H 206.457 0.716925 -0.226987 0
M  V30 2167 H 208.428 2.46847 -1.67658 0
M  V30 2168 C 207.177 3.47061 -0.210671 0
M  V30 2169 H 206.5 3.87703 -0.976049 0
M  V30 2170 H 207.94 4.24 -0.0026584 0
M  V30 2171 C 206.399 3.19864 1.05777 0
M  V30 2172 O 206.929 3.40049 2.13845 0
M  V30 2173 N 205.135 2.73636 0.978349 0
M  V30 2174 H 204.682 2.5741 0.0988246 0
M  V30 2175 H 204.64 2.55815 1.82773 0
M  V30 2176 N 208.412 0.89855 1.29475 0
M  V30 2177 C 209.375 0.380272 2.26023 0
M  V30 2178 C 210.375 -0.484891 1.53315 0
M  V30 2179 O 211.565 -0.290108 1.71767 0
M  V30 2180 C 208.697 -0.45651 3.3783 0
M  V30 2181 H 209.89 1.23295 2.73383 0
M  V30 2182 H 207.443 0.676589 1.40897 0
M  V30 2183 H 208.178 -1.32922 2.95808 0
M  V30 2184 H 207.963 0.163393 3.91759 0
M  V30 2185 H 209.453 -0.810466 4.0966 0
M  V30 2186 N 209.89 -1.43072 0.660911 0
M  V30 2187 C 211.136 -2.0202 0.177708 0
M  V30 2188 C 211.469 -1.52066 -1.20787 0
M  V30 2189 O 210.744 -0.716987 -1.80802 0
M  V30 2190 C 211.027 -3.59561 0.197019 0
M  V30 2191 C 210.88 -4.19727 1.61706 0
M  V30 2192 C 212.199 -4.37664 -0.462396 0
M  V30 2193 H 209.318 -0.734034 0.0660494 0
M  V30 2194 H 211.96 -1.70272 0.843058 0
M  V30 2195 H 210.11 -3.86739 -0.369527 0
M  V30 2196 H 211.782 -4.03553 2.23479 0
M  V30 2197 H 210.025 -3.76084 2.16201 0
M  V30 2198 H 210.696 -5.28834 1.58237 0
M  V30 2199 H 213.172 -4.16095 0.0197215 0
M  V30 2200 H 212.048 -5.47305 -0.418188 0
M  V30 2201 H 212.309 -4.14493 -1.53778 0
M  V30 2202 N 211.368 -0.403325 -1.52352 0
M  V30 2203 C 212.614 0.174605 -2.02047 0
M  V30 2204 C 212.947 1.45282 -1.28867 0
M  V30 2205 O 212.222 1.90483 -0.393257 0
M  V30 2206 C 212.505 0.428238 -3.57545 0
M  V30 2207 C 212.358 -0.866248 -4.4138 0
M  V30 2208 C 213.677 1.21287 -4.23057 0
M  V30 2209 H 210.796 0.0619851 -0.734389 0
M  V30 2210 H 213.438 -0.53565 -1.82293 0
M  V30 2211 H 211.588 1.03327 -3.74507 0
M  V30 2212 H 213.26 -1.50265 -4.3614 0
M  V30 2213 H 211.503 -1.47851 -4.07827 0
M  V30 2214 H 212.174 -0.643249 -5.48239 0
M  V30 2215 H 214.65 0.700703 -4.10158 0
M  V30 2216 H 213.526 1.35909 -5.31808 0
M  V30 2217 H 213.787 2.23193 -3.81625 0
M  V30 2218 N 212.846 1.57033 -0.133567 0
M  V30 2219 C 214.074 2.00044 0.528195 0
M  V30 2220 C 214.489 1.01349 1.59291 0
M  V30 2221 O 213.846 0.00848369 1.82498 0
M  V30 2222 C 213.897 3.43018 1.1411 0
M  V30 2223 O 213.618 4.37939 0.11892 0
M  V30 2224 C 215.119 4.01237 1.88477 0
M  V30 2225 H 212.339 0.656517 0.138661 0
M  V30 2226 H 214.883 2.03267 -0.224196 0
M  V30 2227 H 213.038 3.40688 1.84418 0
M  V30 2228 H 213.452 5.21436 0.56613 0
M  V30 2229 H 214.926 5.03314 2.26669 0
M  V30 2230 H 215.403 3.41193 2.76558 0
M  V30 2231 H 216.009 4.07156 1.22898 0
M  V30 2232 N 214.325 -0.140222 1.56975 0
M  V30 2233 C 215.571 -0.852949 1.83991 0
M  V30 2234 C 215.904 -1.80512 0.716187 0
M  V30 2235 O 215.179 -1.92479 -0.279681 0
M  V30 2236 C 215.462 -1.6215 3.21527 0
M  V30 2237 C 215.315 -0.690363 4.4447 0
M  V30 2238 C 216.634 -2.58247 3.56366 0
M  V30 2239 H 213.753 -0.308634 0.669264 0
M  V30 2240 H 216.395 -0.117898 1.89634 0
M  V30 2241 H 214.545 -2.24812 3.16847 0
M  V30 2242 H 216.217 -0.0742264 4.6124 0
M  V30 2243 H 214.46 -0.000396433 4.338 0
M  V30 2244 H 215.131 -1.2643 5.37326 0
M  V30 2245 H 217.607 -2.05701 3.61699 0
M  V30 2246 H 216.483 -3.09067 4.53617 0
M  V30 2247 H 216.744 -3.39923 2.82674 0
M  V30 2248 N 215.803 -1.52179 -0.40978 0
M  V30 2249 C 217.214 -1.58377 -0.988615 0
M  V30 2250 C 217.565 -0.423879 -1.91566 0
M  V30 2251 O 216.69 0.455844 -2.11544 0
M  V30 2252 C 217.285 -2.87044 -1.79976 0
M  V30 2253 C 215.844 -2.95722 -2.32863 0
M  V30 2254 C 214.991 -2.53309 -1.12828 0
M  V30 2255 H 217.942 -1.57558 -0.190039 0
M  V30 2256 H 217.963 -2.7236 -2.65707 0
M  V30 2257 H 217.475 -3.71444 -1.12478 0
M  V30 2258 H 215.576 -2.15814 -3.03735 0
M  V30 2259 H 215.689 -3.99951 -2.63773 0
M  V30 2260 H 214.053 -2.07142 -1.48204 0
M  V30 2261 H 214.836 -3.40082 -0.46897 0
M  V30 2262 N 217.281 0.66697 -1.42791 0
M  V30 2263 C 218.244 1.76211 -1.46568 0
M  V30 2264 C 219.244 1.56896 -0.352196 0
M  V30 2265 O 220.434 1.63044 -0.613364 0
M  V30 2266 C 217.566 3.14935 -1.30494 0
M  V30 2267 H 218.759 1.74247 -2.44086 0
M  V30 2268 H 216.312 0.877342 -1.29354 0
M  V30 2269 H 217.047 3.2252 -0.339301 0
M  V30 2270 H 216.832 3.30359 -2.11199 0
M  V30 2271 H 218.322 3.94821 -1.36038 0
M  V30 2272 N 218.759 1.29093 0.90403 0
M  V30 2273 C 219.989 1.19516 1.68522 0
M  V30 2274 C 220.397 -0.24738 1.87576 0
M  V30 2275 O 219.74 -1.17798 1.40959 0
M  V30 2276 C 219.802 1.83249 3.0929 0
M  V30 2277 C 219.466 3.32531 3.13484 0
M  V30 2278 C 220.463 4.28821 2.93953 0
M  V30 2279 C 218.148 3.73656 3.35688 0
M  V30 2280 C 220.142 5.64212 2.96553 0
M  V30 2281 C 217.829 5.0917 3.37919 0
M  V30 2282 C 218.827 6.04258 3.18373 0
M  V30 2283 O 218.515 7.37298 3.20385 0
M  V30 2284 H 218.247 0.415467 0.533257 0
M  V30 2285 H 220.801 1.70912 1.13922 0
M  V30 2286 H 219.031 1.26358 3.65473 0
M  V30 2287 H 220.72 1.68054 3.69476 0
M  V30 2288 H 221.486 3.98382 2.76616 0
M  V30 2289 H 217.365 3.00101 3.49943 0
M  V30 2290 H 220.909 6.38407 2.81216 0
M  V30 2291 H 216.806 5.39256 3.54787 0
M  V30 2292 H 217.574 7.46048 3.36681 0
M  V30 2293 N 220.237 -1.11381 1.11499 0
M  V30 2294 C 221.484 -1.83132 0.864231 0
M  V30 2295 C 221.812 -1.84683 -0.610114 0
M  V30 2296 O 221.067 -1.29589 -1.46646 0
M  V30 2297 C 221.366 -3.30026 1.37177 0
M  V30 2298 C 221.032 -3.48634 2.85946 0
M  V30 2299 C 219.694 -3.53421 3.26569 0
M  V30 2300 C 222.046 -3.54837 3.81759 0
M  V30 2301 C 219.374 -3.61967 4.61733 0
M  V30 2302 C 221.726 -3.64915 5.1674 0
M  V30 2303 C 220.39 -3.67962 5.5692 0
M  V30 2304 H 219.66 -0.670127 0.316245 0
M  V30 2305 H 222.307 -1.31354 1.3935 0
M  V30 2306 H 220.612 -3.84304 0.762753 0
M  V30 2307 H 222.309 -3.84034 1.15408 0
M  V30 2308 H 218.899 -3.45579 2.53521 0
M  V30 2309 H 223.083 -3.50399 3.51474 0
M  V30 2310 H 218.339 -3.62603 4.92269 0
M  V30 2311 H 222.513 -3.68658 5.90816 0
M  V30 2312 H 220.14 -3.74336 6.61647 0
M  V30 2313 N 221.715 -0.905404 -1.28997 0
M  V30 2314 C 222.663 -0.377431 -2.29517 0
M  V30 2315 C 223.657 0.526461 -1.61012 0
M  V30 2316 O 224.863 0.40863 -1.753 0
M  V30 2317 H 221.238 -0.103437 -0.744852 0
M  V30 2318 H 223.209 -1.23848 -2.71485 0
M  V30 2319 C 221.958 0.374833 -3.45674 0
M  V30 2320 H 221.281 -0.311474 -3.98585 0
M  V30 2321 H 222.721 0.70903 -4.1803 0
M  V30 2322 C 221.18 1.57963 -2.97572 0
M  V30 2323 O 221.71 2.67886 -2.99333 0
M  V30 2324 N 219.916 1.42375 -2.53333 0
M  V30 2325 H 219.463 0.529466 -2.521 0
M  V30 2326 H 219.421 2.23117 -2.21509 0
M  V30 2327 N 223.193 1.4272 -0.668489 0
M  V30 2328 C 224.47 1.95248 -0.117373 0
M  V30 2329 C 224.85 1.60919 1.36632 0
M  V30 2330 O 224.198 0.902095 2.09939 0
M  V30 2331 C 224.408 3.46927 -0.379806 0
M  V30 2332 C 225.756 4.23588 -0.292923 0
M  V30 2333 O 226.78 3.5482 -0.313204 0
M  V30 2334 O 225.639 5.46017 -0.229697 0
M  V30 2335 H 222.733 0.827 0.00079152 0
M  V30 2336 H 225.279 1.52581 -0.742783 0
M  V30 2337 H 224.051 3.65096 -1.40786 0
M  V30 2338 H 223.674 3.96627 0.277923 0
M  V30 2339 N 224.671 0.411399 1.52136 0
M  V30 2340 C 225.896 -0.165538 2.06738 0
M  V30 2341 C 226.321 -1.379 1.27926 0
M  V30 2342 O 225.679 -1.78628 0.310114 0
M  V30 2343 C 225.727 -0.492124 3.57226 0
M  V30 2344 O 224.831 -1.58276 3.80818 0
M  V30 2345 H 224.172 -0.0132132 0.663869 0
M  V30 2346 H 226.702 0.585253 1.96051 0
M  V30 2347 H 226.712 -0.750104 4.01045 0
M  V30 2348 H 225.387 0.394922 4.14021 0
M  V30 2349 H 223.964 -1.31677 3.48877 0
M  V30 2350 N 226.149 -1.5696 0.141893 0
M  V30 2351 C 227.081 -2.13619 -0.830627 0
M  V30 2352 C 228.094 -1.08439 -1.21428 0
M  V30 2353 O 229.283 -1.35734 -1.15925 0
M  V30 2354 C 226.383 -2.63978 -2.12529 0
M  V30 2355 C 225.556 -3.93504 -1.9098 0
M  V30 2356 C 224.615 -4.29225 -3.04388 0
M  V30 2357 O 223.641 -4.97641 -2.76302 0
M  V30 2358 N 224.843 -3.88393 -4.31429 0
M  V30 2359 H 227.608 -2.97691 -0.34641 0
M  V30 2360 H 225.169 -1.61846 -0.0418375 0
M  V30 2361 H 227.161 -2.84891 -2.87436 0
M  V30 2362 H 225.731 -1.84659 -2.52229 0
M  V30 2363 H 224.951 -3.81269 -1.00139 0
M  V30 2364 H 226.239 -4.78154 -1.73914 0
M  V30 2365 H 225.637 -3.33257 -4.57117 0
M  V30 2366 H 224.194 -4.14368 -5.03133 0
M  V30 2367 N 227.627 0.131896 -1.57047 0
M  V30 2368 C 229.043 0.485031 -1.52051 0
M  V30 2369 C 229.243 1.82563 -0.85281 0
M  V30 2370 O 228.299 2.48817 -0.429694 0
M  V30 2371 C 229.612 0.481409 -2.96821 0
M  V30 2372 C 231.16 0.565868 -3.07842 0
M  V30 2373 C 231.635 0.592762 -4.54148 0
M  V30 2374 N 233.126 0.654564 -4.58552 0
M  V30 2375 C 233.861 0.696608 -5.69153 0
M  V30 2376 N 233.357 0.697078 -6.89284 0
M  V30 2377 N 235.15 0.738639 -5.57226 0
M  V30 2378 H 227.301 -0.746664 -1.98843 0
M  V30 2379 H 229.564 -0.273999 -0.90754 0
M  V30 2380 H 229.27 -0.435731 -3.4899 0
M  V30 2381 H 229.144 1.3139 -3.53577 0
M  V30 2382 H 231.531 1.47343 -2.55684 0
M  V30 2383 H 231.612 -0.29406 -2.54104 0
M  V30 2384 H 231.256 -0.310701 -5.06949 0
M  V30 2385 H 231.186 1.46939 -5.05684 0
M  V30 2386 H 233.677 0.660887 -3.72076 0
M  V30 2387 H 233.99 0.731426 -7.69331 0
M  V30 2388 H 232.335 0.66471 -6.91814 0
M  V30 2389 H 235.526 0.735545 -4.62285 0
M  V30 2390 H 235.699 0.767938 -6.43434 0
M  V30 2391 N 229.106 1.52395 0.401703 0
M  V30 2392 C 230.038 1.72505 1.50912 0
M  V30 2393 C 231.051 0.605468 1.51122 0
M  V30 2394 O 232.24 0.880828 1.55254 0
M  V30 2395 C 229.34 1.75711 2.89791 0
M  V30 2396 C 228.513 3.04824 3.1369 0
M  V30 2397 C 227.572 2.99743 4.32482 0
M  V30 2398 O 226.598 3.73635 4.29402 0
M  V30 2399 N 227.8 2.18047 5.37992 0
M  V30 2400 H 230.565 2.68049 1.34052 0
M  V30 2401 H 228.126 1.50724 0.591084 0
M  V30 2402 H 230.118 1.69834 3.6734 0
M  V30 2403 H 228.688 0.876092 3.00072 0
M  V30 2404 H 227.908 3.2429 2.24119 0
M  V30 2405 H 229.196 3.90221 3.26504 0
M  V30 2406 H 228.594 1.57456 5.43345 0
M  V30 2407 H 227.151 2.18021 6.14256 0
M  V30 2408 N 230.584 -0.659388 1.43143 0
M  V30 2409 C 231.547 -1.75432 1.47501 0
M  V30 2410 C 232.547 -1.56707 0.360512 0
M  V30 2411 O 233.737 -1.62717 0.622002 0
M  V30 2412 C 230.869 -3.14239 1.32162 0
M  V30 2413 H 232.062 -1.7295 2.45006 0
M  V30 2414 H 229.615 -0.870469 1.29817 0
M  V30 2415 H 230.35 -3.22336 0.356401 0
M  V30 2416 H 230.135 -3.29235 2.12948 0
M  V30 2417 H 231.625 -3.94094 1.3813 0
M  V30 2418 N 232.062 -1.29571 -0.897171 0
M  V30 2419 C 233.29 -1.20583 -1.68129 0
M  V30 2420 C 233.705 0.233181 -1.87354 0
M  V30 2421 O 233.062 1.15579 -1.41236 0
M  V30 2422 C 233.113 -1.91772 -3.06441 0
M  V30 2423 O 232.834 -3.30053 -2.88091 0
M  V30 2424 C 234.335 -1.89291 -4.00854 0
M  V30 2425 H 231.555 -0.417826 -0.525036 0
M  V30 2426 H 234.099 -1.70987 -1.12177 0
M  V30 2427 H 232.254 -1.45196 -3.59161 0
M  V30 2428 H 232.668 -3.65942 -3.75748 0
M  V30 2429 H 234.142 -2.43662 -4.95311 0
M  V30 2430 H 234.619 -0.869014 -4.30517 0
M  V30 2431 H 235.225 -2.35622 -3.54066 0
M  V30 2432 N 233.54 1.10788 -1.12088 0
M  V30 2433 C 234.487 2.17025 -0.785407 0
M  V30 2434 C 235.457 1.64265 0.246191 0
M  V30 2435 O 236.642 1.90412 0.121584 0
M  V30 2436 C 233.782 3.44249 -0.242177 0
M  V30 2437 C 232.895 4.1098 -1.33115 0
M  V30 2438 C 232.03 5.25911 -0.747741 0
M  V30 2439 C 231.069 5.84538 -1.81609 0
M  V30 2440 N 230.206 6.90853 -1.25167 0
M  V30 2441 H 235.046 2.45066 -1.69548 0
M  V30 2442 H 232.583 1.20297 -0.846582 0
M  V30 2443 H 234.541 4.17101 0.0908026 0
M  V30 2444 H 233.171 3.16571 0.631072 0
M  V30 2445 H 232.223 3.36133 -1.78097 0
M  V30 2446 H 233.535 4.50601 -2.13917 0
M  V30 2447 H 232.689 6.056 -0.365216 0
M  V30 2448 H 231.428 4.87614 0.0915188 0
M  V30 2449 H 230.433 5.03522 -2.20785 0
M  V30 2450 H 231.658 6.249 -2.6585 0
M  V30 2451 H 229.604 6.54562 -0.434174 0
M  V30 2452 H 229.521 7.29166 -1.99633 0
M  V30 2453 H 230.789 7.7433 -0.896259 0
M  V30 2454 N 235.018 0.912232 1.28515 0
M  V30 2455 C 236.295 0.463597 1.90027 0
M  V30 2456 C 236.675 -1.05753 1.82701 0
M  V30 2457 O 236.023 -1.90492 1.26194 0
M  V30 2458 C 236.233 0.992253 3.34597 0
M  V30 2459 C 237.581 1.04344 4.11579 0
M  V30 2460 O 238.605 0.94079 3.43551 0
M  V30 2461 O 237.464 1.1995 5.33174 0
M  V30 2462 H 234.558 0.146666 0.813891 0
M  V30 2463 H 237.104 1.00292 1.36893 0
M  V30 2464 H 235.876 2.03623 3.34146 0
M  V30 2465 H 235.499 0.433672 3.95228 0
M  V30 2466 N 236.496 -1.42363 0.676048 0
M  V30 2467 C 237.459 -2.29199 0.00766941 0
M  V30 2468 C 238.459 -1.43389 -0.727745 0
M  V30 2469 O 239.649 -1.64764 -0.56556 0
M  V30 2470 C 236.781 -3.2591 -0.999785 0
M  V30 2471 H 237.974 -2.89794 0.771988 0
M  V30 2472 H 235.527 -1.50024 0.438468 0
M  V30 2473 H 236.262 -2.70256 -1.79255 0
M  V30 2474 H 236.047 -3.89202 -0.475829 0
M  V30 2475 H 237.537 -3.91028 -1.46583 0
M  V30 2476 N 237.974 -0.419461 -1.51915 0
M  V30 2477 C 239.222 0.152637 -2.01523 0
M  V30 2478 C 239.543 1.44762 -1.30649 0
M  V30 2479 O 238.813 1.90997 -0.435535 0
M  V30 2480 H 237.393 0.0593966 -0.744635 0
M  V30 2481 H 240.055 -0.558073 -1.86739 0
M  V30 2482 H 239.151 0.341369 -3.10227 0
M  V30 2483 N 239.452 1.56882 -0.150215 0
M  V30 2484 C 240.68 2.00593 0.506948 0
M  V30 2485 C 241.095 1.03033 1.58208 0
M  V30 2486 O 240.452 0.0278396 1.82479 0
M  V30 2487 C 240.503 3.44209 1.10465 0
M  V30 2488 O 240.224 4.3804 0.0724636 0
M  V30 2489 C 241.725 4.03214 1.84211 0
M  V30 2490 H 238.945 0.65795 0.13169 0
M  V30 2491 H 241.489 2.03018 -0.245743 0
M  V30 2492 H 239.644 3.42625 1.80795 0
M  V30 2493 H 240.058 5.22007 0.510793 0
M  V30 2494 H 241.532 5.0569 2.21318 0
M  V30 2495 H 242.009 3.44107 2.72923 0
M  V30 2496 H 242.615 4.08437 1.18572 0
M  V30 2497 N 240.93 -0.123565 1.57115 0
M  V30 2498 C 242.179 -0.830704 1.83799 0
M  V30 2499 C 242.492 -1.81259 0.735158 0
M  V30 2500 O 243.698 -2.56558 0.888278 0
M  V30 2501 C 242.154 -1.52802 3.25852 0
M  V30 2502 C 241.762 -0.587356 4.44133 0
M  V30 2503 C 243.506 -2.22056 3.61789 0
M  V30 2504 C 241.413 -1.28764 5.77212 0
M  V30 2505 H 240.343 -0.313967 0.685522 0
M  V30 2506 H 242.994 -0.0834359 1.8331 0
M  V30 2507 H 241.376 -2.32175 3.20797 0
M  V30 2508 H 242.55 0.172829 4.60476 0
M  V30 2509 H 240.865 -0.00201892 4.164 0
M  V30 2510 H 243.462 -2.75131 4.58483 0
M  V30 2511 H 243.805 -2.99644 2.88997 0
M  V30 2512 H 244.338 -1.49576 3.68608 0
M  V30 2513 H 241.077 -0.55314 6.53162 0
M  V30 2514 H 240.597 -2.01995 5.64764 0
M  V30 2515 H 242.276 -1.8221 6.20813 0
M  V30 2516 N 242.408 -1.52605 -0.393616 0
M  V30 2517 C 243.371 -1.76415 -1.46323 0
M  V30 2518 C 244.371 -0.634126 -1.47768 0
M  V30 2519 O 245.561 -0.902142 -1.4902 0
M  V30 2520 C 242.693 -1.8607 -2.85641 0
M  V30 2521 H 243.886 -2.71916 -1.26498 0
M  V30 2522 H 241.439 -1.43257 -0.625073 0
M  V30 2523 H 242.174 -0.925378 -3.10817 0
M  V30 2524 H 241.959 -2.68235 -2.85993 0
M  V30 2525 H 243.449 -2.06179 -3.63153 0
M  V30 2526 N 243.887 0.651787 -1.4349 0
M  V30 2527 C 245.135 1.40888 -1.44897 0
M  V30 2528 C 245.456 1.94856 -0.0749086 0
M  V30 2529 O 244.726 1.74518 0.889956 0
M  V30 2530 H 243.306 0.522887 -0.533478 0
M  V30 2531 H 245.968 0.768609 -1.79104 0
M  V30 2532 H 245.064 2.25052 -2.16236 0
M  V30 2533 N 245.365 1.30045 0.890287 0
M  V30 2534 C 246.295 1.18541 2.01172 0
M  V30 2535 C 247.276 0.0773356 1.69924 0
M  V30 2536 O 248.461 0.25845 1.92473 0
M  V30 2537 C 245.591 0.870941 3.36202 0
M  V30 2538 C 244.545 1.93637 3.81692 0
M  V30 2539 C 243.871 1.475 5.13953 0
M  V30 2540 C 245.171 3.34666 4.00994 0
M  V30 2541 H 246.865 2.12359 2.11054 0
M  V30 2542 H 244.411 1.02238 1.01407 0
M  V30 2543 H 246.364 0.777141 4.14172 0
M  V30 2544 H 245.088 -0.102926 3.26438 0
M  V30 2545 H 243.747 2.01972 3.05946 0
M  V30 2546 H 243.395 0.489551 5.00612 0
M  V30 2547 H 243.095 2.1876 5.4536 0
M  V30 2548 H 244.619 1.39489 5.94454 0
M  V30 2549 H 246.033 3.2912 4.69417 0
M  V30 2550 H 244.43 4.03966 4.43769 0
M  V30 2551 H 245.5 3.76949 3.05021 0
M  V30 2552 N 246.843 -1.10192 1.12674 0
M  V30 2553 C 247.791 -2.18694 0.792196 0
M  V30 2554 C 248.785 -1.67938 -0.222058 0
M  V30 2555 O 249.991 -1.79822 -0.0800074 0
M  V30 2556 H 246.366 -0.713223 0.238364 0
M  V30 2557 H 248.337 -2.44149 1.71564 0
M  V30 2558 C 247.086 -3.46682 0.265859 0
M  V30 2559 H 246.409 -3.86101 1.03761 0
M  V30 2560 H 247.849 -4.23942 0.0701128 0
M  V30 2561 C 246.308 -3.21506 -1.00675 0
M  V30 2562 O 246.838 -3.43408 -2.08408 0
M  V30 2563 N 245.044 -2.75158 -0.934692 0
M  V30 2564 H 244.591 -2.57535 -0.0578604 0
M  V30 2565 H 244.549 -2.58691 -1.7868 0
M  V30 2566 N 248.321 -0.919034 -1.28029 0
M  V30 2567 C 249.567 -0.555757 -1.95036 0
M  V30 2568 C 249.9 0.899198 -1.72128 0
M  V30 2569 O 249.175 1.64023 -1.04531 0
M  V30 2570 C 249.458 -0.872024 -3.49382 0
M  V30 2571 C 249.311 -2.3801 -3.81669 0
M  V30 2572 C 250.63 -0.37185 -4.38526 0
M  V30 2573 H 247.749 -0.203386 -0.708381 0
M  V30 2574 H 250.391 -1.14924 -1.51303 0
M  V30 2575 H 248.541 -0.366946 -3.86763 0
M  V30 2576 H 250.213 -2.9562 -3.54128 0
M  V30 2577 H 248.456 -2.83289 -3.28526 0
M  V30 2578 H 249.127 -2.55192 -4.8947 0
M  V30 2579 H 251.603 -0.804602 -4.08247 0
M  V30 2580 H 250.479 -0.622173 -5.45362 0
M  V30 2581 H 250.74 0.727934 -4.36066 0
M  V30 2582 N 249.799 1.42003 -0.683588 0
M  V30 2583 C 250.729 2.33487 -0.024866 0
M  V30 2584 C 251.71 1.51163 0.779975 0
M  V30 2585 O 252.895 1.79739 0.735362 0
M  V30 2586 C 250.025 3.3487 0.920836 0
M  V30 2587 C 248.979 4.27414 0.223958 0
M  V30 2588 C 248.305 5.19074 1.2832 0
M  V30 2589 C 249.605 5.14445 -0.90242 0
M  V30 2590 H 251.299 2.88819 -0.788921 0
M  V30 2591 H 248.845 1.38873 -0.38083 0
M  V30 2592 H 250.798 3.97787 1.39081 0
M  V30 2593 H 249.522 2.77861 1.71642 0
M  V30 2594 H 248.181 3.65904 -0.225864 0
M  V30 2595 H 247.829 4.58387 2.071 0
M  V30 2596 H 247.529 5.81822 0.821995 0
M  V30 2597 H 249.053 5.84867 1.75392 0
M  V30 2598 H 250.467 5.70998 -0.513272 0
M  V30 2599 H 248.864 5.86072 -1.28997 0
M  V30 2600 H 249.934 4.52322 -1.74737 0
M  V30 2601 N 251.277 0.427512 1.51691 0
M  V30 2602 C 252.693 0.0792977 1.59403 0
M  V30 2603 C 252.893 -1.41035 1.43914 0
M  V30 2604 O 251.949 -2.17922 1.27539 0
M  V30 2605 C 253.262 0.590636 2.94842 0
M  V30 2606 C 254.81 0.550215 3.08126 0
M  V30 2607 C 255.285 1.03836 4.46074 0
M  V30 2608 N 256.776 0.995943 4.52366 0
M  V30 2609 C 257.511 1.34463 5.57411 0
M  V30 2610 N 257.007 1.76569 6.69922 0
M  V30 2611 N 258.8 1.26343 5.47717 0
M  V30 2612 H 250.951 1.39687 1.60004 0
M  V30 2613 H 253.214 0.575003 0.753708 0
M  V30 2614 H 252.92 1.63251 3.11516 0
M  V30 2615 H 252.794 0.0102061 3.77199 0
M  V30 2616 H 255.181 -0.482654 2.91126 0
M  V30 2617 H 255.262 1.16693 2.27632 0
M  V30 2618 H 254.906 2.06965 4.63819 0
M  V30 2619 H 254.836 0.398286 5.25092 0
M  V30 2620 H 257.327 0.68661 3.7161 0
M  V30 2621 H 257.64 2.01438 7.46085 0
M  V30 2622 H 255.985 1.80488 6.71155 0
M  V30 2623 H 259.176 0.933209 4.58703 0
M  V30 2624 H 259.349 1.53846 6.29472 0
M  V30 2625 N 252.755 -1.56801 0.158532 0
M  V30 2626 C 254.004 -1.95665 -0.489702 0
M  V30 2627 C 254.317 -1.04654 -1.65248 0
M  V30 2628 O 255.523 -1.33146 -2.3661 0
M  V30 2629 C 253.979 -3.47874 -0.922582 0
M  V30 2630 C 253.587 -4.47489 0.213893 0
M  V30 2631 C 255.331 -3.95583 -1.53996 0
M  V30 2632 C 253.238 -5.90921 -0.237903 0
M  V30 2633 H 252.168 -0.730516 -0.186716 0
M  V30 2634 H 254.819 -1.81861 0.244722 0
M  V30 2635 H 253.201 -3.57051 -1.71261 0
M  V30 2636 H 254.375 -4.50017 0.991036 0
M  V30 2637 H 252.69 -4.09764 0.740407 0
M  V30 2638 H 255.287 -5.0019 -1.8898 0
M  V30 2639 H 255.63 -3.37789 -2.43319 0
M  V30 2640 H 256.163 -3.8937 -0.814611 0
M  V30 2641 H 252.902 -6.52559 0.620236 0
M  V30 2642 H 252.422 -5.91729 -0.980676 0
M  V30 2643 H 254.101 -6.43352 -0.686067 0
M  V30 2644 N 254.233 0.115231 -1.57178 0
M  V30 2645 C 255.482 0.820945 -1.84237 0
M  V30 2646 C 255.795 1.80866 -0.744761 0
M  V30 2647 O 257.001 2.56083 -0.901871 0
M  V30 2648 C 255.457 1.51072 -3.26658 0
M  V30 2649 C 255.065 0.563795 -4.44438 0
M  V30 2650 C 256.809 2.20134 -3.62962 0
M  V30 2651 C 254.716 1.25701 -5.77887 0
M  V30 2652 H 253.646 0.310328 -0.687177 0
M  V30 2653 H 256.297 0.0737134 -1.83352 0
M  V30 2654 H 254.679 2.30471 -3.22024 0
M  V30 2655 H 255.853 -0.197247 -4.60378 0
M  V30 2656 H 254.168 -0.0200638 -4.16395 0
M  V30 2657 H 256.765 2.72696 -4.59936 0
M  V30 2658 H 257.108 2.98107 -2.90582 0
M  V30 2659 H 257.641 1.47619 -3.69396 0
M  V30 2660 H 254.38 0.518493 -6.53446 0
M  V30 2661 H 253.9 1.98997 -5.65827 0
M  V30 2662 H 255.579 1.78915 -6.2177 0
M  V30 2663 N 255.711 1.52812 0.385517 0
M  V30 2664 C 256.659 1.78482 1.49155 0
M  V30 2665 C 257.653 0.652914 1.56312 0
M  V30 2666 O 258.859 0.835464 1.59436 0
M  V30 2667 H 255.234 0.5648 0.496493 0
M  V30 2668 H 257.205 2.71095 1.24699 0
M  V30 2669 C 255.954 1.97378 2.86247 0
M  V30 2670 H 255.277 2.83907 2.81491 0
M  V30 2671 H 256.717 2.19327 3.62866 0
M  V30 2672 C 255.176 0.74728 3.28508 0
M  V30 2673 O 255.706 -0.0736232 4.01633 0
M  V30 2674 N 253.912 0.576396 2.84826 0
M  V30 2675 H 253.459 1.24555 2.25486 0
M  V30 2676 H 253.417 -0.24288 3.1346 0
M  V30 2677 N 257.189 -0.644168 1.43834 0
M  V30 2678 C 258.099 -1.78563 1.52159 0
M  V30 2679 C 259.115 -1.69147 0.408069 0
M  V30 2680 O 260.291 -1.90156 0.663524 0
M  V30 2681 C 257.356 -3.14888 1.45073 0
M  V30 2682 C 256.417 -3.36034 2.6717 0
M  V30 2683 C 255.65 -4.65855 2.60413 0
M  V30 2684 O 255.873 -5.45805 1.65689 0
M  V30 2685 O 254.807 -4.88918 3.5106 0
M  V30 2686 H 258.633 -1.74494 2.48567 0
M  V30 2687 H 256.218 -0.80378 1.25935 0
M  V30 2688 H 258.1 -3.96179 1.43597 0
M  V30 2689 H 256.775 -3.19528 0.518037 0
M  V30 2690 H 255.682 -2.54472 2.74217 0
M  V30 2691 H 257.015 -3.36247 3.59442 0
M  V30 2692 N 258.668 -1.30515 -0.883378 0
M  V30 2693 C 260.079 -1.17509 -1.45081 0
M  V30 2694 C 260.43 0.223605 -1.94922 0
M  V30 2695 O 259.555 1.12041 -1.85137 0
M  V30 2696 C 260.15 -2.12715 -2.63701 0
M  V30 2697 C 258.709 -2.03682 -3.16529 0
M  V30 2698 C 257.856 -2.02706 -1.89224 0
M  V30 2699 H 260.807 -1.42762 -0.693165 0
M  V30 2700 H 260.828 -1.70891 -3.39965 0
M  V30 2701 H 260.34 -3.14505 -2.27395 0
M  V30 2702 H 258.441 -1.05039 -3.57488 0
M  V30 2703 H 258.554 -2.92146 -3.7972 0
M  V30 2704 H 256.918 -1.4753 -2.07622 0
M  V30 2705 H 257.701 -3.06229 -1.55174 0
M  V30 2706 N 260.146 1.09593 -1.13257 0
M  V30 2707 C 261.374 1.855 -0.916378 0
M  V30 2708 C 261.789 1.81069 0.534738 0
M  V30 2709 O 261.146 1.20562 1.37007 0
M  V30 2710 C 261.197 3.33546 -1.39388 0
M  V30 2711 O 260.918 3.37927 -2.78813 0
M  V30 2712 C 262.419 4.26299 -1.21588 0
M  V30 2713 H 259.639 0.585991 -0.326887 0
M  V30 2714 H 262.183 1.38488 -1.5047 0
M  V30 2715 H 260.338 3.77992 -0.848597 0
M  V30 2716 H 260.752 4.30254 -2.9997 0
M  V30 2717 H 262.226 5.28341 -1.59876 0
M  V30 2718 H 262.703 4.38918 -0.157376 0
M  V30 2719 H 263.309 3.87668 -1.7491 0
M  V30 2720 N 261.624 0.925811 1.2754 0
M  V30 2721 C 262.587 0.428129 2.25166 0
M  V30 2722 C 263.587 -0.452261 1.54309 0
M  V30 2723 O 264.777 -0.253608 1.72344 0
M  V30 2724 C 261.909 -0.384749 3.38722 0
M  V30 2725 H 263.102 1.29066 2.70706 0
M  V30 2726 H 260.655 0.706323 1.3943 0
M  V30 2727 H 261.39 -1.26618 2.98561 0
M  V30 2728 H 261.175 0.246454 3.91325 0
M  V30 2729 H 262.665 -0.723389 4.11287 0
M  V30 2730 N 263.102 -1.41638 0.69111 0
M  V30 2731 C 264.065 -2.29178 0.0319786 0
M  V30 2732 C 265.065 -1.44153 -0.712496 0
M  V30 2733 O 266.255 -1.65354 -0.548053 0
M  V30 2734 C 263.387 -3.26952 -0.965161 0
M  V30 2735 H 264.58 -2.88959 0.802681 0
M  V30 2736 H 262.133 -1.4955 0.454356 0
M  V30 2737 H 262.868 -2.72142 -1.76378 0
M  V30 2738 H 262.653 -3.89685 -0.434522 0
M  V30 2739 H 264.143 -3.92561 -1.42428 0
M  V30 2740 N 264.58 -0.43555 -1.51462 0
M  V30 2741 C 265.543 0.365137 -2.26273 0
M  V30 2742 C 266.543 0.951227 -1.29647 0
M  V30 2743 O 267.733 0.825958 -1.53374 0
M  V30 2744 C 264.865 1.51645 -3.05314 0
M  V30 2745 H 266.058 -0.290474 -2.9849 0
M  V30 2746 H 263.611 -0.188676 -1.55157 0
M  V30 2747 H 264.346 2.20816 -2.3751 0
M  V30 2748 H 264.131 1.10238 -3.76284 0
M  V30 2749 H 265.621 2.08218 -3.61987 0
M  V30 2750 N 266.058 1.56714 -0.166846 0
M  V30 2751 C 267.307 1.95922 0.479318 0
M  V30 2752 C 267.62 1.05529 1.6469 0
M  V30 2753 O 268.826 1.34399 2.35901 0
M  V30 2754 C 267.282 3.48359 0.90412 0
M  V30 2755 C 266.89 4.47369 -0.237621 0
M  V30 2756 C 268.634 3.96394 1.51896 0
M  V30 2757 C 266.541 5.91039 0.206561 0
M  V30 2758 H 265.471 0.731495 0.18284 0
M  V30 2759 H 268.122 1.81728 -0.254363 0
M  V30 2760 H 266.504 3.57955 1.69365 0
M  V30 2761 H 267.678 4.49485 -1.01489 0
M  V30 2762 H 265.993 4.09366 -0.762128 0
M  V30 2763 H 268.59 5.01186 1.86325 0
M  V30 2764 H 268.933 3.39075 2.41524 0
M  V30 2765 H 269.466 3.89796 0.79395 0
M  V30 2766 H 266.205 6.52221 -0.654834 0
M  V30 2767 H 265.725 5.9224 0.949282 0
M  V30 2768 H 267.404 6.43707 0.651939 0
M  V30 2769 N 267.536 -0.106894 1.57237 0
M  V30 2770 C 268.499 -1.11466 2.0027 0
M  V30 2771 C 269.499 -1.33623 0.894519 0
M  V30 2772 O 270.689 -1.29935 1.16028 0
M  V30 2773 C 267.821 -2.46646 2.35327 0
M  V30 2774 H 269.014 -0.744516 2.90512 0
M  V30 2775 H 266.567 -0.351576 1.52295 0
M  V30 2776 H 267.302 -2.88558 1.48003 0
M  V30 2777 H 267.087 -2.31915 3.16161 0
M  V30 2778 H 268.577 -3.19151 2.69318 0
M  V30 2779 N 269.014 -1.53014 -0.377408 0
M  V30 2780 C 270.244 -1.72265 -1.14054 0
M  V30 2781 C 270.652 -0.44601 -1.83868 0
M  V30 2782 O 269.995 0.590095 -1.73964 0
M  V30 2783 C 270.057 -2.82492 -2.22348 0
M  V30 2784 C 269.721 -4.23233 -1.72402 0
M  V30 2785 C 270.718 -5.05992 -1.19448 0
M  V30 2786 C 268.403 -4.696 -1.78273 0
M  V30 2787 C 270.397 -6.33203 -0.730268 0
M  V30 2788 C 268.084 -5.96792 -1.31464 0
M  V30 2789 C 269.082 -6.78424 -0.789297 0
M  V30 2790 O 268.77 -8.0323 -0.328077 0
M  V30 2791 H 268.502 -0.579873 -0.347453 0
M  V30 2792 H 271.056 -2.00502 -0.445882 0
M  V30 2793 H 269.286 -2.49702 -2.95272 0
M  V30 2794 H 270.975 -2.90034 -2.83963 0
M  V30 2795 H 271.741 -4.71349 -1.14259 0
M  V30 2796 H 267.62 -4.06142 -2.18106 0
M  V30 2797 H 271.164 -6.96868 -0.319542 0
M  V30 2798 H 267.061 -6.30937 -1.36342 0
M  V30 2799 H 267.829 -8.1727 -0.448493 0
M  V30 2800 N 270.492 0.636531 -1.44174 0
M  V30 2801 C 271.74 1.39343 -1.46383 0
M  V30 2802 C 272.061 1.94766 -0.0955715 0
M  V30 2803 O 271.331 1.75452 0.871395 0
M  V30 2804 H 269.911 0.517199 -0.538994 0
M  V30 2805 H 272.573 0.74957 -1.7991 0
M  V30 2806 H 271.669 2.22746 -2.18611 0
M  V30 2807 N 271.97 1.30982 0.876444 0
M  V30 2808 C 272.9 1.20668 1.99903 0
M  V30 2809 C 273.881 0.095354 1.69833 0
M  V30 2810 O 275.066 0.27885 1.92188 0
M  V30 2811 C 272.196 0.90655 3.3526 0
M  V30 2812 C 271.15 1.97675 3.79617 0
M  V30 2813 C 270.476 1.52943 5.1236 0
M  V30 2814 C 271.776 3.389 3.97422 0
M  V30 2815 H 273.47 2.14586 2.0879 0
M  V30 2816 H 271.016 1.03308 1.00317 0
M  V30 2817 H 272.969 0.821025 4.13324 0
M  V30 2818 H 271.693 -0.0682969 3.26529 0
M  V30 2819 H 270.352 2.05205 3.03787 0
M  V30 2820 H 270 0.54262 5.00065 0
M  V30 2821 H 269.7 2.24532 5.43009 0
M  V30 2822 H 271.224 1.45786 5.92941 0
M  V30 2823 H 272.638 3.34081 4.659 0
M  V30 2824 H 271.035 4.0865 4.3946 0
M  V30 2825 H 272.105 3.80163 3.01006 0
M  V30 2826 N 273.449 -1.08991 1.13837 0
M  V30 2827 C 274.726 -1.77863 0.813876 0
M  V30 2828 C 275.106 -1.99375 -0.693746 0
M  V30 2829 O 274.454 -1.59875 -1.63255 0
M  V30 2830 C 274.664 -3.0986 1.60586 0
M  V30 2831 C 276.012 -3.84493 1.8014 0
M  V30 2832 O 277.036 -3.19624 1.57222 0
M  V30 2833 O 275.895 -5.00957 2.18413 0
M  V30 2834 H 272.989 -0.771589 0.297624 0
M  V30 2835 H 275.535 -1.15507 1.24323 0
M  V30 2836 H 274.307 -2.89715 2.63022 0
M  V30 2837 H 273.93 -3.79942 1.17173 0
M  V30 2838 N 274.927 -0.932562 -1.27047 0
M  V30 2839 C 275.874 -0.434072 -2.26681 0
M  V30 2840 C 276.844 0.501639 -1.58344 0
M  V30 2841 O 278.029 0.419734 -1.86126 0
M  V30 2842 C 275.169 0.30261 -3.43771 0
M  V30 2843 C 274.282 -0.667774 -4.26808 0
M  V30 2844 C 273.417 0.0892393 -5.31125 0
M  V30 2845 C 272.456 -0.873532 -6.05835 0
M  V30 2846 N 271.593 -0.148832 -7.01942 0
M  V30 2847 H 276.433 -1.28868 -2.68695 0
M  V30 2848 H 273.97 -0.646713 -1.32121 0
M  V30 2849 H 275.928 0.746092 -4.10474 0
M  V30 2850 H 274.558 1.12142 -3.02695 0
M  V30 2851 H 273.61 -1.22978 -3.59973 0
M  V30 2852 H 274.922 -1.40337 -4.78651 0
M  V30 2853 H 274.076 0.592409 -6.03801 0
M  V30 2854 H 272.815 0.85777 -4.80097 0
M  V30 2855 H 271.82 -1.38791 -5.31994 0
M  V30 2856 H 273.045 -1.64193 -6.58952 0
M  V30 2857 H 270.991 0.601365 -6.53238 0
M  V30 2858 H 270.908 -0.82391 -7.51497 0
M  V30 2859 H 272.176 0.333527 -7.78786 0
M  V30 2860 N 276.405 1.4127 -0.698611 0
M  V30 2861 C 277.352 2.30773 -0.0352094 0
M  V30 2862 C 278.322 1.47273 0.768111 0
M  V30 2863 O 279.507 1.76053 0.735524 0
M  V30 2864 C 276.647 3.33346 0.893 0
M  V30 2865 C 275.76 4.31924 0.0809695 0
M  V30 2866 C 274.895 5.21566 1.0071 0
M  V30 2867 C 273.934 6.11811 0.188155 0
M  V30 2868 N 273.071 6.93926 1.06825 0
M  V30 2869 H 277.911 2.86943 -0.804207 0
M  V30 2870 H 275.448 1.4132 -0.408294 0
M  V30 2871 H 277.406 3.91368 1.44523 0
M  V30 2872 H 276.036 2.78719 1.62836 0
M  V30 2873 H 275.088 3.75825 -0.588224 0
M  V30 2874 H 276.4 4.95716 -0.553801 0
M  V30 2875 H 275.554 5.84437 1.62845 0
M  V30 2876 H 274.293 4.58008 1.67572 0
M  V30 2877 H 273.298 5.47986 -0.446254 0
M  V30 2878 H 274.523 6.77425 -0.476716 0
M  V30 2879 H 272.469 6.32973 1.72283 0
M  V30 2880 H 272.386 7.54416 0.489123 0
M  V30 2881 H 273.654 7.61262 1.67632 0
M  V30 2882 N 277.883 0.443576 1.51229 0
M  V30 2883 C 279.129 -0.120975 2.02439 0
M  V30 2884 C 279.462 -1.41815 1.32674 0
M  V30 2885 O 278.737 -1.89373 0.443622 0
M  V30 2886 C 279.02 -0.333291 3.58554 0
M  V30 2887 C 278.873 0.982968 4.38928 0
M  V30 2888 C 280.192 -1.10028 4.26124 0
M  V30 2889 H 277.311 -0.0424923 0.735774 0
M  V30 2890 H 279.953 0.583794 1.80809 0
M  V30 2891 H 278.103 -0.933614 3.77115 0
M  V30 2892 H 279.775 1.61775 4.32003 0
M  V30 2893 H 278.018 1.58611 4.03763 0
M  V30 2894 H 278.689 0.788379 5.46341 0
M  V30 2895 H 281.165 -0.591711 4.11871 0
M  V30 2896 H 280.041 -1.21761 5.35225 0
M  V30 2897 H 280.302 -2.12996 3.87408 0
M  V30 2898 N 279.361 -1.56624 0.175154 0
M  V30 2899 C 280.609 -1.96609 -0.467885 0
M  V30 2900 C 280.93 -1.06238 -1.63519 0
M  V30 2901 O 280.2 -0.129523 -1.95471 0
M  V30 2902 H 278.78 -0.726008 -0.175845 0
M  V30 2903 H 281.442 -1.93195 0.257234 0
M  V30 2904 H 280.538 -3.00989 -0.825342 0
M  V30 2905 N 280.839 0.0985539 -1.57292 0
M  V30 2906 C 281.802 1.10402 -2.00858 0
M  V30 2907 C 282.802 1.33146 -0.901593 0
M  V30 2908 O 283.992 1.29318 -1.16716 0
M  V30 2909 C 281.124 2.45394 -2.36632 0
M  V30 2910 H 282.317 0.729099 -2.90902 0
M  V30 2911 H 279.87 0.343495 -1.52479 0
M  V30 2912 H 280.605 2.87769 -1.49531 0
M  V30 2913 H 280.39 2.30235 -3.17387 0
M  V30 2914 H 281.88 3.17718 -2.71007 0
M  V30 2915 N 282.317 1.53212 0.369288 0
M  V30 2916 C 283.227 1.82342 1.47609 0
M  V30 2917 C 284.243 0.711532 1.58787 0
M  V30 2918 O 285.419 1.0012 1.74751 0
M  V30 2919 C 282.484 2.00393 2.8292 0
M  V30 2920 C 281.545 3.24297 2.81301 0
M  V30 2921 C 280.778 3.41478 4.10157 0
M  V30 2922 O 281.001 2.63033 5.06132 0
M  V30 2923 O 279.935 4.34817 4.16194 0
M  V30 2924 H 283.761 2.76366 1.25918 0
M  V30 2925 H 281.346 1.38547 0.559034 0
M  V30 2926 H 283.228 2.13859 3.63101 0
M  V30 2927 H 281.903 1.09559 3.04596 0
M  V30 2928 H 280.81 3.16257 1.99831 0
M  V30 2929 H 282.143 4.15041 2.64578 0
M  V30 2930 N 283.795 -0.628877 1.44509 0
M  V30 2931 C 285.211 -0.947305 1.28446 0
M  V30 2932 C 285.411 -2.00275 0.221872 0
M  V30 2933 O 284.467 -2.49447 -0.391471 0
M  V30 2934 C 285.78 -1.40843 2.65676 0
M  V30 2935 C 287.328 -1.52379 2.73404 0
M  V30 2936 C 287.803 -2.01875 4.11109 0
M  V30 2937 N 289.294 -2.09142 4.13296 0
M  V30 2938 C 290.029 -2.48615 5.16699 0
M  V30 2939 N 289.525 -2.87209 6.30462 0
M  V30 2940 N 291.318 -2.48768 5.04054 0
M  V30 2941 H 283.469 0.0690977 2.12288 0
M  V30 2942 H 285.732 -0.0317164 0.947469 0
M  V30 2943 H 285.438 -0.707206 3.44516 0
M  V30 2944 H 285.312 -2.37902 2.92716 0
M  V30 2945 H 287.699 -2.21598 1.9488 0
M  V30 2946 H 287.78 -0.536898 2.50102 0
M  V30 2947 H 287.424 -1.3325 4.90109 0
M  V30 2948 H 287.354 -3.0144 4.31789 0
M  V30 2949 H 289.845 -1.81991 3.31191 0
M  V30 2950 H 290.158 -3.16149 7.05174 0
M  V30 2951 H 288.503 -2.84955 6.33897 0
M  V30 2952 H 291.694 -2.18009 4.14234 0
M  V30 2953 H 291.867 -2.79207 5.84763 0
M  V30 2954 N 285.273 -1.31445 -0.869486 0
M  V30 2955 C 286.221 -1.19067 -1.99814 0
M  V30 2956 C 287.215 -0.0988569 -1.69111 0
M  V30 2957 O 288.421 -0.260781 -1.78101 0
M  V30 2958 H 284.796 -0.368677 -0.655425 0
M  V30 2959 H 286.767 -2.14555 -2.07385 0
M  V30 2960 C 285.516 -0.915323 -3.35436 0
M  V30 2961 H 284.839 -1.74759 -3.59582 0
M  V30 2962 H 286.279 -0.868895 -4.15001 0
M  V30 2963 C 284.738 0.381928 -3.34728 0
M  V30 2964 O 285.268 1.39857 -3.76567 0
M  V30 2965 N 283.474 0.398633 -2.87853 0
M  V30 2966 H 283.021 -0.429186 -2.54 0
M  V30 2967 H 282.979 1.26651 -2.87762 0
M  V30 2968 N 286.751 1.08385 -1.14413 0
M  V30 2969 C 287.997 1.81044 -0.913834 0
M  V30 2970 C 288.33 1.86004 0.558209 0
M  V30 2971 O 287.605 1.33606 1.4135 0
M  V30 2972 C 287.888 3.26648 -1.51569 0
M  V30 2973 C 287.741 3.29895 -3.0576 0
M  V30 2974 C 289.06 4.23629 -1.19273 0
M  V30 2975 H 286.179 0.65727 -0.333414 0
M  V30 2976 H 288.821 1.26896 -1.41412 0
M  V30 2977 H 286.971 3.72889 -1.09023 0
M  V30 2978 H 288.643 2.91977 -3.57137 0
M  V30 2979 H 286.886 2.69163 -3.40197 0
M  V30 2980 H 287.557 4.32516 -3.42977 0
M  V30 2981 H 290.033 3.85727 -1.56057 0
M  V30 2982 H 288.909 5.23822 -1.64017 0
M  V30 2983 H 289.17 4.41968 -0.108068 0
M  V30 2984 N 288.23 0.939286 1.26551 0
M  V30 2985 C 289.16 0.465044 2.28822 0
M  V30 2986 C 290.141 -0.480692 1.63167 0
M  V30 2987 O 291.326 -0.382955 1.90387 0
M  V30 2988 C 288.456 -0.27234 3.46231 0
M  V30 2989 C 287.41 0.58666 4.2396 0
M  V30 2990 C 286.736 -0.280573 5.33963 0
M  V30 2991 C 288.036 1.85704 4.88171 0
M  V30 2992 H 289.73 1.31979 2.68741 0
M  V30 2993 H 287.276 0.636061 1.29191 0
M  V30 2994 H 289.229 -0.615133 4.16886 0
M  V30 2995 H 287.953 -1.16121 3.0526 0
M  V30 2996 H 286.612 0.91232 3.55067 0
M  V30 2997 H 286.26 -1.16874 4.89234 0
M  V30 2998 H 285.96 0.29076 5.8688 0
M  V30 2999 H 287.484 -0.618678 6.07458 0
M  V30 3000 H 288.898 1.58161 5.51052 0
M  V30 3001 H 287.295 2.37279 5.51197 0
M  V30 3002 H 288.365 2.56957 4.11219 0
M  V30 3003 N 289.708 -1.40897 0.706093 0
M  V30 3004 C 290.957 -2.00284 0.238574 0
M  V30 3005 C 291.27 -1.56604 -1.17194 0
M  V30 3006 O 292.476 -2.08624 -1.73748 0
M  V30 3007 C 290.932 -3.57934 0.375623 0
M  V30 3008 C 290.54 -4.10591 1.79217 0
M  V30 3009 C 292.284 -4.24488 -0.0315857 0
M  V30 3010 C 290.191 -5.60712 1.88032 0
M  V30 3011 H 289.121 -0.749144 0.0854398 0
M  V30 3012 H 291.772 -1.61251 0.875813 0
M  V30 3013 H 290.154 -3.94622 -0.330042 0
M  V30 3014 H 291.328 -3.85301 2.52745 0
M  V30 3015 H 289.643 -3.56601 2.15 0
M  V30 3016 H 292.24 -5.34698 0.0136842 0
M  V30 3017 H 292.583 -4.02261 -1.072 0
M  V30 3018 H 293.116 -3.92873 0.624181 0
M  V30 3019 H 289.855 -5.87781 2.90161 0
M  V30 3020 H 289.375 -5.87896 1.18903 0
M  V30 3021 H 291.054 -6.25658 1.64805 0
M  V30 3022 N 291.186 -0.45159 -1.50991 0
M  V30 3023 C 292.433 0.110074 -2.02201 0
M  V30 3024 C 292.761 1.4146 -1.33489 0
M  V30 3025 O 292.016 1.90617 -0.443125 0
M  V30 3026 C 292.315 0.361728 -3.55565 0
M  V30 3027 C 291.981 -0.858717 -4.42648 0
M  V30 3028 C 290.643 -1.19338 -4.66167 0
M  V30 3029 C 292.995 -1.67221 -4.93646 0
M  V30 3030 C 290.323 -2.34195 -5.37931 0
M  V30 3031 C 292.675 -2.8119 -5.6667 0
M  V30 3032 C 291.339 -3.15094 -5.88449 0
M  V30 3033 H 290.609 0.040279 -0.739904 0
M  V30 3034 H 293.256 -0.601696 -1.81802 0
M  V30 3035 H 291.561 1.15554 -3.74372 0
M  V30 3036 H 293.258 0.80996 -3.92735 0
M  V30 3037 H 289.848 -0.58796 -4.24548 0
M  V30 3038 H 294.032 -1.42686 -4.75347 0
M  V30 3039 H 289.288 -2.6076 -5.53005 0
M  V30 3040 H 293.462 -3.44585 -6.05173 0
M  V30 3041 H 291.089 -4.04204 -6.43835 0
M  V30 3042 N 292.664 1.56529 -0.183458 0
M  V30 3043 C 293.941 1.88959 0.50536 0
M  V30 3044 C 294.321 1.09523 1.80466 0
M  V30 3045 O 293.669 0.19278 2.27685 0
M  V30 3046 C 293.879 3.41162 0.73547 0
M  V30 3047 C 295.227 4.11155 1.06005 0
M  V30 3048 O 296.251 3.46548 0.823594 0
M  V30 3049 O 295.11 5.25318 1.50675 0
M  V30 3050 H 292.204 0.78441 0.261973 0
M  V30 3051 H 294.75 1.68231 -0.222802 0
M  V30 3052 H 293.522 3.90874 -0.182561 0
M  V30 3053 H 293.145 3.67543 1.51651 0
M  V30 3054 N 294.142 -0.090211 1.57342 0
M  V30 3055 C 295.072 -1.10976 2.05443 0
M  V30 3056 C 296.053 -1.41482 0.944284 0
M  V30 3057 O 297.238 -1.51428 1.21586 0
M  V30 3058 C 294.368 -2.42831 2.48295 0
M  V30 3059 C 293.322 -2.26721 3.63018 0
M  V30 3060 C 292.648 -3.63796 3.91863 0
M  V30 3061 C 293.948 -1.7037 4.93732 0
M  V30 3062 H 295.642 -0.709564 2.9087 0
M  V30 3063 H 293.188 -0.339874 1.39932 0
M  V30 3064 H 295.141 -3.14431 2.80555 0
M  V30 3065 H 293.865 -2.84795 1.59873 0
M  V30 3066 H 292.524 -1.57565 3.31012 0
M  V30 3067 H 292.172 -4.03297 3.00601 0
M  V30 3068 H 291.872 -3.53861 4.69101 0
M  V30 3069 H 293.396 -4.36855 4.26603 0
M  V30 3070 H 294.81 -2.31816 5.24342 0
M  V30 3071 H 293.207 -1.71181 5.75167 0
M  V30 3072 H 294.277 -0.663542 4.80339 0
M  V30 3073 N 295.62 -1.53406 -0.361157 0
M  V30 3074 C 296.868 -1.69467 -1.10115 0
M  V30 3075 C 297.189 -0.451352 -1.89705 0
M  V30 3076 O 296.459 0.534636 -1.88463 0
M  V30 3077 H 295.039 -0.624749 -0.409508 0
M  V30 3078 H 297.701 -1.90609 -0.406699 0
M  V30 3079 H 296.797 -2.55774 -1.78847 0
M  V30 3080 N 297.098 0.621204 -1.44841 0
M  V30 3081 C 298.346 1.37783 -1.47852 0
M  V30 3082 C 298.667 1.94653 -0.116224 0
M  V30 3083 O 297.937 1.76367 0.852737 0
M  V30 3084 H 296.517 0.511453 -0.544449 0
M  V30 3085 H 299.179 0.730446 -1.80694 0
M  V30 3086 H 298.275 2.20414 -2.20961 0
M  V30 3087 N 298.576 1.31904 0.862503 0
M  V30 3088 C 299.824 1.21776 1.61292 0
M  V30 3089 C 300.145 -0.222413 1.93727 0
M  V30 3090 O 299.415 -1.1451 1.58947 0
M  V30 3091 H 297.995 0.447717 0.597962 0
M  V30 3092 H 300.657 1.65326 1.03215 0
M  V30 3093 H 299.753 1.7948 2.5533 0
M  V30 3094 N 300.054 -1.07777 1.14986 0
M  V30 3095 C 301.282 -1.84018 0.945773 0
M  V30 3096 C 301.697 -1.81897 -0.505863 0
M  V30 3097 O 301.054 -1.22726 -1.35072 0
M  V30 3098 C 301.105 -3.31287 1.44677 0
M  V30 3099 O 300.826 -3.33449 2.84154 0
M  V30 3100 C 302.327 -4.24311 1.28355 0
M  V30 3101 H 299.547 -0.580716 0.336169 0
M  V30 3102 H 302.091 -1.36077 1.52654 0
M  V30 3103 H 300.246 -3.76594 0.908625 0
M  V30 3104 H 300.66 -4.25427 3.06777 0
M  V30 3105 H 302.134 -5.2573 1.68261 0
M  V30 3106 H 302.611 -4.38612 0.227184 0
M  V30 3107 H 303.217 -3.84836 1.81056 0
M  V30 3108 N 301.532 -0.945985 -1.26051 0
M  V30 3109 C 302.779 -0.596118 -1.93527 0
M  V30 3110 C 303.107 0.865559 -1.74179 0
M  V30 3111 O 302.362 1.63524 -1.0751 0
M  V30 3112 C 302.661 -0.890475 -3.46129 0
M  V30 3113 C 302.327 -2.3368 -3.85622 0
M  V30 3114 C 300.989 -2.73216 -3.96114 0
M  V30 3115 C 303.341 -3.27648 -4.05334 0
M  V30 3116 C 300.669 -4.05806 -4.2372 0
M  V30 3117 C 303.021 -4.59841 -4.3443 0
M  V30 3118 C 301.685 -4.99185 -4.43137 0
M  V30 3119 H 300.955 -0.218135 -0.708165 0
M  V30 3120 H 303.602 -1.1934 -1.49768 0
M  V30 3121 H 301.907 -0.210711 -3.91233 0
M  V30 3122 H 303.604 -0.598478 -3.96509 0
M  V30 3123 H 300.194 -2.02015 -3.78005 0
M  V30 3124 H 304.378 -2.98298 -3.96651 0
M  V30 3125 H 299.634 -4.35945 -4.28675 0
M  V30 3126 H 303.808 -5.32641 -4.48628 0
M  V30 3127 H 301.435 -6.01952 -4.64282 0
M  V30 3128 N 303.011 1.40521 -0.713556 0
M  V30 3129 C 304.288 1.94775 -0.17943 0
M  V30 3130 C 304.668 1.65184 1.31444 0
M  V30 3131 O 304.016 0.968429 2.06963 0
M  V30 3132 C 304.226 3.45543 -0.489986 0
M  V30 3133 C 305.574 4.22442 -0.427536 0
M  V30 3134 O 306.598 3.53644 -0.425929 0
M  V30 3135 O 305.457 5.4501 -0.403292 0
M  V30 3136 H 302.551 0.826606 -0.0255192 0
M  V30 3137 H 305.097 1.5014 -0.790949 0
M  V30 3138 H 303.869 3.60432 -1.5233 0
M  V30 3139 H 303.492 3.97311 0.151598 0
M  V30 3140 N 304.489 0.459591 1.5075 0
M  V30 3141 C 305.735 -0.0994966 2.02556 0
M  V30 3142 C 306.068 -1.40399 1.3417 0
M  V30 3143 O 305.343 -1.88892 0.463683 0
M  V30 3144 C 305.626 -0.295242 3.58888 0
M  V30 3145 C 305.479 1.02947 4.37861 0
M  V30 3146 C 306.798 -1.05502 4.27267 0
M  V30 3147 H 303.917 -0.034686 0.736183 0
M  V30 3148 H 306.559 0.602938 1.8018 0
M  V30 3149 H 304.709 -0.893563 3.78084 0
M  V30 3150 H 306.381 1.66348 4.30263 0
M  V30 3151 H 304.624 1.62885 4.02058 0
M  V30 3152 H 305.295 0.846281 5.45474 0
M  V30 3153 H 307.771 -0.547993 4.12476 0
M  V30 3154 H 306.647 -1.16077 5.36486 0
M  V30 3155 H 306.908 -2.08875 3.89645 0
M  V30 3156 N 305.967 -1.56429 0.191757 0
M  V30 3157 C 307.192 -2.02309 -0.456706 0
M  V30 3158 C 307.617 -1.07103 -1.5463 0
M  V30 3159 O 306.975 -0.0539677 -1.8122 0
M  V30 3160 C 307.023 -3.46654 -0.993159 0
M  V30 3161 O 306.127 -3.54559 -2.10622 0
M  V30 3162 H 305.468 -0.655303 -0.107114 0
M  V30 3163 H 307.998 -2.02364 0.301653 0
M  V30 3164 H 308.008 -3.86377 -1.31061 0
M  V30 3165 H 306.683 -4.1544 -0.195504 0
M  V30 3166 H 305.26 -3.26708 -1.79767 0
M  V30 3167 N 307.445 0.0818655 -1.57387 0
M  V30 3168 C 308.694 0.781681 -1.85937 0
M  V30 3169 C 309.007 1.79246 -0.782957 0
M  V30 3170 O 310.213 2.54112 -0.955987 0
M  V30 3171 C 308.669 1.44109 -3.29789 0
M  V30 3172 C 308.277 0.469396 -4.45534 0
M  V30 3173 C 310.021 2.12386 -3.67549 0
M  V30 3174 C 307.928 1.13415 -5.80423 0
M  V30 3175 H 306.858 0.295682 -0.693605 0
M  V30 3176 H 309.509 0.0348051 -1.83467 0
M  V30 3177 H 307.891 2.23588 -3.2684 0
M  V30 3178 H 309.065 -0.294856 -4.59856 0
M  V30 3179 H 307.38 -0.108383 -4.16259 0
M  V30 3180 H 309.977 2.62878 -4.65617 0
M  V30 3181 H 310.32 2.91877 -2.96839 0
M  V30 3182 H 310.853 1.39751 -3.72444 0
M  V30 3183 H 307.592 0.379771 -6.54399 0
M  V30 3184 H 307.112 1.8695 -5.69921 0
M  V30 3185 H 308.791 1.65686 -6.25426 0
M  V30 3186 N 308.923 1.53595 0.353017 0
M  V30 3187 C 309.853 1.83902 1.43883 0
M  V30 3188 C 310.834 0.693421 1.55324 0
M  V30 3189 O 312.019 0.944452 1.69687 0
M  V30 3190 C 309.149 2.04016 2.8106 0
M  V30 3191 C 308.103 3.19814 2.84434 0
M  V30 3192 C 307.429 3.25244 4.24406 0
M  V30 3193 C 308.729 4.58133 2.50822 0
M  V30 3194 H 310.423 2.74835 1.1877 0
M  V30 3195 H 307.969 1.32242 0.569917 0
M  V30 3196 H 309.922 2.238 3.57059 0
M  V30 3197 H 308.646 1.09804 3.07588 0
M  V30 3198 H 307.305 2.9987 2.10887 0
M  V30 3199 H 306.953 2.28646 4.48029 0
M  V30 3200 H 306.653 4.03054 4.27576 0
M  V30 3201 H 308.177 3.47228 5.0226 0
M  V30 3202 H 309.591 4.77995 3.16534 0
M  V30 3203 H 307.988 5.38276 2.6529 0
M  V30 3204 H 309.058 4.62387 1.46034 0
M  V30 3205 N 310.401 -0.613514 1.45168 0
M  V30 3206 C 311.629 -1.39946 1.5239 0
M  V30 3207 C 312.044 -1.88167 0.154531 0
M  V30 3208 O 311.401 -1.61872 -0.842843 0
M  V30 3209 C 311.452 -2.60795 2.50337 0
M  V30 3210 O 311.173 -2.1458 3.81952 0
M  V30 3211 C 312.674 -3.53723 2.67198 0
M  V30 3212 H 309.894 -0.428593 0.516284 0
M  V30 3213 H 312.438 -0.748753 1.903 0
M  V30 3214 H 310.593 -3.21919 2.15515 0
M  V30 3215 H 311.007 -2.93055 4.34993 0
M  V30 3216 H 312.481 -4.35079 3.39721 0
M  V30 3217 H 312.958 -4.0368 1.73029 0
M  V30 3218 H 313.564 -2.98456 3.02992 0
M  V30 3219 N 311.879 -1.3236 -0.855495 0
M  V30 3220 C 313.128 -1.22226 -1.60448 0
M  V30 3221 C 313.441 0.214733 -1.94418 0
M  V30 3222 O 314.647 0.437917 -2.67945 0
M  V30 3223 C 313.103 -2.14063 -2.89318 0
M  V30 3224 C 312.711 -3.62839 -2.62777 0
M  V30 3225 C 314.455 -2.12764 -3.67331 0
M  V30 3226 C 312.362 -4.4664 -3.87643 0
M  V30 3227 H 311.292 -0.453904 -0.602069 0
M  V30 3228 H 313.943 -1.57314 -0.944698 0
M  V30 3229 H 312.325 -1.71889 -3.5675 0
M  V30 3230 H 313.499 -4.1335 -2.03662 0
M  V30 3231 H 311.814 -3.66261 -1.98096 0
M  V30 3232 H 314.411 -2.72611 -4.59987 0
M  V30 3233 H 314.754 -1.11841 -4.00995 0
M  V30 3234 H 315.287 -2.53214 -3.06802 0
M  V30 3235 H 312.026 -5.48373 -3.5912 0
M  V30 3236 H 311.546 -4.0088 -4.46156 0
M  V30 3237 H 313.225 -4.59597 -4.55389 0
M  V30 3238 N 313.357 1.07166 -1.15556 0
M  V30 3239 C 314.267 2.17947 -0.868116 0
M  V30 3240 C 315.283 1.73297 0.156297 0
M  V30 3241 O 316.459 2.01392 -0.0182327 0
M  V30 3242 C 313.524 3.44789 -0.36355 0
M  V30 3243 C 312.585 4.03996 -1.45209 0
M  V30 3244 C 311.818 5.24783 -0.971508 0
M  V30 3245 O 312.041 5.70109 0.182194 0
M  V30 3246 O 310.975 5.75715 -1.75603 0
M  V30 3247 H 314.801 2.4503 -1.79427 0
M  V30 3248 H 312.386 1.16539 -0.934824 0
M  V30 3249 H 314.268 4.21307 -0.0887113 0
M  V30 3250 H 312.943 3.19253 0.534708 0
M  V30 3251 H 311.85 3.29009 -1.78056 0
M  V30 3252 H 313.183 4.33808 -2.32533 0
M  V30 3253 N 314.835 0.952656 1.25548 0
M  V30 3254 C 316.112 0.523818 1.88456 0
M  V30 3255 C 316.492 -0.998871 1.85973 0
M  V30 3256 O 315.84 -1.86381 1.3219 0
M  V30 3257 C 316.05 1.0982 3.31271 0
M  V30 3258 C 317.398 1.17385 4.08051 0
M  V30 3259 O 318.422 1.04961 3.40384 0
M  V30 3260 O 317.281 1.36852 5.29088 0
M  V30 3261 H 314.375 0.172485 0.808813 0
M  V30 3262 H 316.921 1.04596 1.33633 0
M  V30 3263 H 315.693 2.1415 3.27499 0
M  V30 3264 H 315.316 0.559191 3.93648 0
M  V30 3265 N 316.313 -1.40141 0.720998 0
M  V30 3266 C 317.561 -2.0039 0.262323 0
M  V30 3267 C 317.882 -1.57469 -1.15015 0
M  V30 3268 O 317.152 -0.816582 -1.78069 0
M  V30 3269 H 315.732 -0.741063 0.093996 0
M  V30 3270 H 318.394 -1.71398 0.927835 0
M  V30 3271 H 317.49 -3.10658 0.299671 0
M  V30 3272 N 317.792 -0.46758 -1.50504 0
M  V30 3273 C 319.041 0.0902868 -2.01498 0
M  V30 3274 C 319.354 1.411 -1.35463 0
M  V30 3275 O 320.56 2.0536 -1.77594 0
M  V30 3276 C 319.016 0.21142 -3.59278 0
M  V30 3277 C 318.624 -1.10065 -4.34269 0
M  V30 3278 C 320.368 0.721433 -4.18325 0
M  V30 3279 C 318.275 -0.943505 -5.83825 0
M  V30 3280 H 317.205 0.037517 -0.753066 0
M  V30 3281 H 319.856 -0.601943 -1.73346 0
M  V30 3282 H 318.238 0.967352 -3.84003 0
M  V30 3283 H 319.412 -1.86726 -4.21272 0
M  V30 3284 H 317.727 -1.5415 -3.86816 0
M  V30 3285 H 320.324 0.85598 -5.27804 0
M  V30 3286 H 320.667 1.71186 -3.79475 0
M  V30 3287 H 321.2 0.0229843 -3.97793 0
M  V30 3288 H 317.939 -1.90719 -6.27141 0
M  V30 3289 H 317.459 -0.217213 -5.99407 0
M  V30 3290 H 319.138 -0.608715 -6.4413 0
M  V30 3291 N 319.27 1.56325 -0.20005 0
M  V30 3292 C 320.517 1.97719 0.437411 0
M  V30 3293 C 320.845 1.08709 1.61284 0
M  V30 3294 O 320.1 0.127261 1.95286 0
M  V30 3295 C 320.399 3.4495 0.935103 0
M  V30 3296 C 320.065 4.5072 -0.12749 0
M  V30 3297 C 318.727 4.79368 -0.419451 0
M  V30 3298 C 321.079 5.14268 -0.847231 0
M  V30 3299 C 318.407 5.68854 -1.43604 0
M  V30 3300 C 320.759 6.04852 -1.85301 0
M  V30 3301 C 319.423 6.31855 -2.15211 0
M  V30 3302 H 318.693 0.723507 0.16006 0
M  V30 3303 H 321.34 1.89166 -0.298056 0
M  V30 3304 H 319.645 3.50599 1.74894 0
M  V30 3305 H 321.342 3.74337 1.43781 0
M  V30 3306 H 317.932 4.28458 0.11023 0
M  V30 3307 H 322.116 4.92222 -0.634901 0
M  V30 3308 H 317.372 5.88047 -1.67364 0
M  V30 3309 H 321.546 6.53152 -2.41591 0
M  V30 3310 H 319.173 7.00994 -2.94129 0
M  V30 3311 N 320.748 -0.0735177 1.57428 0
M  V30 3312 C 321.658 -1.10547 2.06922 0
M  V30 3313 C 322.674 -1.42506 0.998402 0
M  V30 3314 O 323.85 -1.52717 1.31299 0
M  V30 3315 C 320.915 -2.40019 2.50184 0
M  V30 3316 C 319.976 -2.15046 3.71556 0
M  V30 3317 C 319.209 -3.38345 4.12745 0
M  V30 3318 O 319.432 -4.47399 3.53822 0
M  V30 3319 O 318.366 -3.2666 5.05546 0
M  V30 3320 H 322.192 -0.715013 2.95163 0
M  V30 3321 H 319.777 -0.287531 1.46607 0
M  V30 3322 H 321.659 -3.16218 2.78539 0
M  V30 3323 H 320.334 -2.78447 1.65072 0
M  V30 3324 H 319.241 -1.36558 3.48285 0
M  V30 3325 H 320.574 -1.81499 4.57514 0
M  V30 3326 N 322.226 -1.5378 -0.344866 0
M  V30 3327 C 323.472 -1.71216 -1.08687 0
M  V30 3328 C 323.805 -0.473281 -1.88345 0
M  V30 3329 O 323.08 0.52968 -1.87149 0
M  V30 3330 C 323.363 -2.97486 -2.02914 0
M  V30 3331 C 323.216 -4.31579 -1.26727 0
M  V30 3332 C 324.535 -3.19422 -3.0275 0
M  V30 3333 H 321.654 -0.62301 -0.393735 0
M  V30 3334 H 324.296 -1.8645 -0.365563 0
M  V30 3335 H 322.446 -2.84629 -2.64421 0
M  V30 3336 H 324.118 -4.56284 -0.67845 0
M  V30 3337 H 322.361 -4.30049 -0.569273 0
M  V30 3338 H 323.032 -5.16106 -1.95803 0
M  V30 3339 H 325.508 -3.316 -2.51357 0
M  V30 3340 H 324.384 -4.09169 -3.65885 0
M  V30 3341 H 324.645 -2.35656 -3.74057 0
M  V30 3342 N 323.704 0.605807 -1.45491 0
M  V30 3343 C 324.651 1.7164 -1.54299 0
M  V30 3344 C 325.621 1.61486 -0.388761 0
M  V30 3345 O 326.806 1.81039 -0.602445 0
M  V30 3346 C 323.946 3.09953 -1.51734 0
M  V30 3347 C 323.059 3.309 -2.77721 0
M  V30 3348 C 322.194 4.59329 -2.66816 0
M  V30 3349 C 321.233 4.7354 -3.87848 0
M  V30 3350 N 320.37 5.9327 -3.75467 0
M  V30 3351 H 325.21 1.63449 -2.49176 0
M  V30 3352 H 322.747 0.796957 -1.23641 0
M  V30 3353 H 324.705 3.89977 -1.48235 0
M  V30 3354 H 323.335 3.17098 -0.604068 0
M  V30 3355 H 322.387 2.44639 -2.913 0
M  V30 3356 H 323.699 3.37274 -3.67488 0
M  V30 3357 H 322.853 5.4755 -2.61292 0
M  V30 3358 H 321.592 4.55355 -1.74651 0
M  V30 3359 H 320.597 3.83741 -3.93729 0
M  V30 3360 H 321.822 4.79309 -4.81082 0
M  V30 3361 H 319.768 5.90338 -2.86072 0
M  V30 3362 H 319.685 6.00811 -4.5887 0
M  V30 3363 H 320.953 6.83984 -3.73879 0
M  V30 3364 N 325.182 1.32811 0.848464 0
M  V30 3365 C 326.407 1.26882 1.6406 0
M  V30 3366 C 326.832 -0.15913 1.87426 0
M  V30 3367 O 326.19 -1.11258 1.43148 0
M  V30 3368 C 326.238 2.03997 2.97351 0
M  V30 3369 O 325.342 1.39201 3.88197 0
M  V30 3370 H 324.683 0.436982 0.499943 0
M  V30 3371 H 327.213 1.75224 1.0563 0
M  V30 3372 H 327.223 2.14403 3.47124 0
M  V30 3373 H 325.898 3.0783 2.79666 0
M  V30 3374 H 324.475 1.37381 3.46671 0
M  V30 3375 N 326.66 -1.06551 1.16123 0
M  V30 3376 C 327.888 -1.83005 0.965237 0
M  V30 3377 C 328.303 -1.82423 -0.486542 0
M  V30 3378 O 327.66 -1.24152 -1.33763 0
M  V30 3379 C 327.711 -3.29733 1.48183 0
M  V30 3380 O 327.432 -3.30416 2.87674 0
M  V30 3381 C 328.933 -4.22926 1.32848 0
M  V30 3382 H 326.153 -0.577118 0.342309 0
M  V30 3383 H 328.697 -1.3445 1.54089 0
M  V30 3384 H 326.852 -3.75609 0.948517 0
M  V30 3385 H 327.266 -4.22149 3.11272 0
M  V30 3386 H 328.74 -5.23916 1.73827 0
M  V30 3387 H 329.217 -4.38346 0.273692 0
M  V30 3388 H 329.823 -3.82894 1.85127 0
M  V30 3389 N 328.138 -0.959301 -1.25041 0
M  V30 3390 C 329.101 -0.487677 -2.23952 0
M  V30 3391 C 330.101 0.41119 -1.55454 0
M  V30 3392 O 331.291 0.207825 -1.72956 0
M  V30 3393 C 328.423 0.294807 -3.39623 0
M  V30 3394 H 329.616 -1.36198 -2.67189 0
M  V30 3395 H 327.169 -0.743042 -1.37508 0
M  V30 3396 H 327.904 1.18658 -3.01813 0
M  V30 3397 H 327.689 -0.35012 -3.90534 0
M  V30 3398 H 329.179 0.614089 -4.1306 0
M  V30 3399 N 329.616 1.39756 -0.72842 0
M  V30 3400 C 330.864 2.00248 -0.272946 0
M  V30 3401 C 331.185 1.58077 1.14178 0
M  V30 3402 O 330.455 0.826014 1.77634 0
M  V30 3403 H 329.035 0.740554 -0.0979247 0
M  V30 3404 H 331.697 1.70903 -0.936912 0
M  V30 3405 H 330.793 3.10495 -0.316142 0
M  V30 3406 N 331.094 0.475555 1.50254 0
M  V30 3407 C 332.371 -0.139685 1.95101 0
M  V30 3408 C 332.751 -1.56555 1.41611 0
M  V30 3409 O 332.099 -2.19956 0.618993 0
M  V30 3410 C 332.309 -0.0784298 3.48912 0
M  V30 3411 C 333.657 -0.265095 4.23772 0
M  V30 3412 O 334.681 -0.154808 3.55863 0
M  V30 3413 O 333.54 -0.488327 5.44314 0
M  V30 3414 H 330.634 -0.109236 0.819754 0
M  V30 3415 H 333.18 0.536276 1.61004 0
M  V30 3416 H 331.952 0.916918 3.80405 0
M  V30 3417 H 331.575 -0.795655 3.89558 0
M  V30 3418 N 332.573 -1.56217 0.208337 0
M  V30 3419 C 333.801 -2.02337 -0.43215 0
M  V30 3420 C 334.216 -1.08834 -1.54275 0
M  V30 3421 O 333.573 -0.0955462 -1.8225 0
M  V30 3422 C 333.624 -3.48072 -0.976138 0
M  V30 3423 O 333.345 -4.38007 0.0901621 0
M  V30 3424 C 334.846 -4.09773 -1.69119 0
M  V30 3425 H 332.066 -0.662385 -0.10718 0
M  V30 3426 H 334.61 -2.01966 0.320923 0
M  V30 3427 H 332.765 -3.49099 -1.67954 0
M  V30 3428 H 333.179 -5.23543 -0.316701 0
M  V30 3429 H 334.653 -5.13556 -2.02397 0
M  V30 3430 H 335.13 -3.53999 -2.59964 0
M  V30 3431 H 335.736 -4.12556 -1.03332 0
M  V30 3432 N 334.051 0.0651679 -1.57465 0
M  V30 3433 C 335.001 1.0838 -2.00594 0
M  V30 3434 C 335.985 1.34106 -0.889071 0
M  V30 3435 O 337.177 1.34295 -1.15299 0
M  V30 3436 C 334.306 2.39565 -2.45894 0
M  V30 3437 C 333.392 2.17085 -3.64328 0
M  V30 3438 N 333.783 1.64553 -4.78285 0
M  V30 3439 C 332.081 2.4753 -3.71006 0
M  V30 3440 C 332.782 1.57042 -5.60101 0
M  V30 3441 N 331.758 2.03328 -5.04141 0
M  V30 3442 H 335.56 0.671062 -2.86136 0
M  V30 3443 H 333.074 0.27213 -1.60104 0
M  V30 3444 H 335.071 3.13308 -2.75034 0
M  V30 3445 H 333.731 2.81549 -1.61741 0
M  V30 3446 H 334.742 1.33323 -5.00445 0
M  V30 3447 H 331.419 2.92835 -2.9758 0
M  V30 3448 H 332.809 1.17223 -6.61595 0
M  V30 3449 N 335.529 1.53961 0.336706 0
M  V30 3450 C 336.459 1.85417 1.41925 0
M  V30 3451 C 337.44 0.709856 1.5458 0
M  V30 3452 O 338.625 0.962396 1.68676 0
M  V30 3453 C 335.755 2.06985 2.78881 0
M  V30 3454 C 334.709 3.22813 2.81026 0
M  V30 3455 C 334.035 3.29727 4.20932 0
M  V30 3456 C 335.335 4.60767 2.45949 0
M  V30 3457 H 337.029 2.76079 1.15848 0
M  V30 3458 H 334.575 1.32839 0.555859 0
M  V30 3459 H 336.528 2.27575 3.54665 0
M  V30 3460 H 335.252 1.13061 3.06406 0
M  V30 3461 H 333.911 3.0209 2.07695 0
M  V30 3462 H 333.559 2.33385 4.45579 0
M  V30 3463 H 333.259 4.07566 4.23277 0
M  V30 3464 H 334.783 3.52536 4.98549 0
M  V30 3465 H 336.197 4.81325 3.11446 0
M  V30 3466 H 334.594 5.4106 2.59566 0
M  V30 3467 H 335.664 4.6391 1.41122 0
M  V30 3468 N 337.007 -0.598083 1.45811 0
M  V30 3469 C 338.255 -1.35413 1.50026 0
M  V30 3470 C 338.576 -1.94444 0.147177 0
M  V30 3471 O 337.846 -1.77701 -0.824571 0
M  V30 3472 H 336.426 -0.502727 0.552517 0
M  V30 3473 H 339.088 -0.701606 1.81834 0
M  V30 3474 H 338.184 -2.16871 2.2444 0
M  V30 3475 N 338.485 -1.33259 -0.841409 0
M  V30 3476 C 339.733 -1.24326 -1.59334 0
M  V30 3477 C 340.054 0.191564 -1.94057 0
M  V30 3478 O 339.324 1.11967 -1.60749 0
M  V30 3479 H 337.904 -0.457174 -0.590763 0
M  V30 3480 H 340.566 -1.66947 -1.00571 0
M  V30 3481 H 339.662 -1.8352 -2.52442 0
M  V30 3482 N 339.963 1.05934 -1.16686 0
M  V30 3483 C 340.873 2.17014 -0.891183 0
M  V30 3484 C 341.889 1.73453 0.137907 0
M  V30 3485 O 343.065 2.01361 -0.039592 0
M  V30 3486 C 340.13 3.44384 -0.400099 0
M  V30 3487 C 339.191 4.02433 -1.49486 0
M  V30 3488 C 338.424 5.23723 -1.02711 0
M  V30 3489 O 338.647 5.7027 0.121716 0
M  V30 3490 O 337.581 5.7382 -1.81699 0
M  V30 3491 H 341.407 2.43113 -1.82015 0
M  V30 3492 H 338.992 1.15541 -0.947132 0
M  V30 3493 H 340.874 4.21189 -0.133392 0
M  V30 3494 H 339.549 3.19802 0.500817 0
M  V30 3495 H 338.456 3.27102 -1.81535 0
M  V30 3496 H 339.789 4.31317 -2.37121 0
M  V30 3497 N 341.441 0.965919 1.2453 0
M  V30 3498 C 342.718 0.543777 1.87889 0
M  V30 3499 C 343.098 -0.97909 1.87021 0
M  V30 3500 O 342.446 -1.84969 1.3416 0
M  V30 3501 C 342.656 1.13327 3.30088 0
M  V30 3502 C 344.004 1.21707 4.06783 0
M  V30 3503 O 345.028 1.08566 3.39252 0
M  V30 3504 O 343.887 1.42456 5.27606 0
M  V30 3505 H 340.981 0.181054 0.806938 0
M  V30 3506 H 343.527 1.06007 1.32516 0
M  V30 3507 H 342.299 2.17612 3.25209 0
M  V30 3508 H 341.922 0.600911 3.93033 0
M  V30 3509 N 342.919 -1.39368 0.735821 0
M  V30 3510 C 344.166 -2.00497 0.284123 0
M  V30 3511 C 344.494 -1.58387 -1.12889 0
M  V30 3512 O 343.749 -0.804359 -1.78406 0
M  V30 3513 C 344.048 -3.5583 0.334651 0
M  V30 3514 C 343.714 -4.17593 1.7008 0
M  V30 3515 C 342.376 -4.34176 2.07472 0
M  V30 3516 C 344.728 -4.51848 2.59775 0
M  V30 3517 C 342.056 -4.82304 3.34065 0
M  V30 3518 C 344.408 -5.01384 3.85741 0
M  V30 3519 C 343.072 -5.16175 4.23225 0
M  V30 3520 H 342.342 -0.73367 0.103968 0
M  V30 3521 H 344.989 -1.66683 0.942825 0
M  V30 3522 H 343.294 -3.89674 -0.407625 0
M  V30 3523 H 344.991 -4.00986 -0.0329927 0
M  V30 3524 H 341.581 -4.05087 1.40008 0
M  V30 3525 H 345.765 -4.38653 2.32157 0
M  V30 3526 H 341.021 -4.91941 3.63049 0
M  V30 3527 H 345.195 -5.26863 4.55399 0
M  V30 3528 H 342.822 -5.5323 5.21384 0
M  V30 3529 N 344.397 -0.483516 -1.5 0
M  V30 3530 C 345.674 0.129337 -1.95172 0
M  V30 3531 C 346.054 1.55802 -1.4244 0
M  V30 3532 O 345.402 2.19625 -0.630649 0
M  V30 3533 C 345.612 0.0599251 -3.48949 0
M  V30 3534 C 346.96 0.242617 -4.23906 0
M  V30 3535 O 347.984 0.135933 -3.55941 0
M  V30 3536 O 346.843 0.459454 -5.44565 0
M  V30 3537 H 343.937 0.104887 -0.820322 0
M  V30 3538 H 346.483 -0.544807 -1.60717 0
M  V30 3539 H 345.255 -0.937079 -3.79914 0
M  V30 3540 H 344.878 0.774984 -3.89974 0
M  V30 3541 N 345.875 1.56104 -0.216619 0
M  V30 3542 C 346.823 2.21434 0.712036 0
M  V30 3543 C 347.817 1.19218 1.20348 0
M  V30 3544 O 349.023 1.3731 1.16387 0
M  V30 3545 H 345.398 0.70992 0.248026 0
M  V30 3546 H 347.369 2.98083 0.137558 0
M  V30 3547 C 346.118 2.90434 1.91163 0
M  V30 3548 H 345.441 3.68842 1.54258 0
M  V30 3549 H 346.881 3.39552 2.5393 0
M  V30 3550 C 345.34 1.92635 2.76394 0
M  V30 3551 O 345.87 1.44017 3.74996 0
M  V30 3552 N 344.076 1.60392 2.42328 0
M  V30 3553 H 343.623 2.00122 1.622 0
M  V30 3554 H 343.581 0.952159 2.99635 0
M  V30 3555 N 347.353 -0.0568162 1.57498 0
M  V30 3556 C 348.769 -0.411933 1.54192 0
M  V30 3557 C 348.969 -1.78287 0.938942 0
M  V30 3558 O 348.025 -2.46483 0.547919 0
M  V30 3559 C 349.338 -0.339244 2.9878 0
M  V30 3560 C 350.886 -0.418348 3.10192 0
M  V30 3561 C 351.361 -0.375407 4.56459 0
M  V30 3562 N 352.852 -0.435038 4.61153 0
M  V30 3563 C 353.587 -0.424265 5.71828 0
M  V30 3564 N 353.083 -0.367418 6.91825 0
M  V30 3565 N 354.876 -0.471938 5.60115 0
M  V30 3566 H 347.027 0.840684 1.95055 0
M  V30 3567 H 349.29 0.316987 0.893433 0
M  V30 3568 H 348.996 0.601742 3.46514 0
M  V30 3569 H 348.87 -1.14371 3.59443 0
M  V30 3570 H 351.257 -1.34976 2.62422 0
M  V30 3571 H 351.338 0.414962 2.52412 0
M  V30 3572 H 350.982 0.552219 5.04889 0
M  V30 3573 H 350.912 -1.22645 5.12119 0
M  V30 3574 H 353.403 -0.482612 3.74806 0
M  V30 3575 H 353.716 -0.363535 7.71944 0
M  V30 3576 H 352.061 -0.333879 6.94198 0
M  V30 3577 H 355.252 -0.514145 4.65268 0
M  V30 3578 H 355.425 -0.460073 6.46365 0
M  V30 3579 N 348.832 -1.54138 -0.328536 0
M  V30 3580 C 349.765 -1.78014 -1.4278 0
M  V30 3581 C 350.743 -0.629889 -1.49904 0
M  V30 3582 O 351.927 -0.866763 -1.6739 0
M  V30 3583 C 349.054 -1.89225 -2.80912 0
M  V30 3584 C 348.1 -3.11483 -2.91343 0
M  V30 3585 S 348.933 -4.70201 -2.56263 0
M  V30 3586 C 350.089 -4.84312 -3.96476 0
M  V30 3587 H 350.322 -2.70974 -1.22313 0
M  V30 3588 H 347.855 -1.45197 -0.525084 0
M  V30 3589 H 349.813 -1.9637 -3.60485 0
M  V30 3590 H 348.474 -0.972518 -2.98665 0
M  V30 3591 H 347.667 -3.16046 -3.92595 0
M  V30 3592 H 347.269 -3.02642 -2.19736 0
M  V30 3593 H 349.561 -4.66643 -4.91173 0
M  V30 3594 H 350.504 -5.86411 -3.96898 0
M  V30 3595 H 350.912 -4.12652 -3.85199 0
M  V30 3596 N 350.31 0.590341 -1.46126 0
M  V30 3597 C 351.556 1.35082 -1.51264 0
M  V30 3598 C 351.889 1.93534 -0.160711 0
M  V30 3599 O 351.164 1.76045 0.826956 0
M  V30 3600 C 351.447 2.48588 -2.6053 0
M  V30 3601 C 351.3 1.95221 -4.05227 0
M  V30 3602 C 352.619 3.50662 -2.6594 0
M  V30 3603 H 349.738 0.489803 -0.550692 0
M  V30 3604 H 352.38 0.663887 -1.78024 0
M  V30 3605 H 350.53 3.07186 -2.37843 0
M  V30 3606 H 352.202 1.41139 -4.39178 0
M  V30 3607 H 350.445 1.26101 -4.15068 0
M  V30 3608 H 351.116 2.77121 -4.77397 0
M  V30 3609 H 353.592 3.01934 -2.86313 0
M  V30 3610 H 352.468 4.27551 -3.44226 0
M  V30 3611 H 352.729 4.07399 -1.71694 0
M  V30 3612 N 351.788 1.33704 0.83433 0
M  V30 3613 C 352.736 1.24323 1.96587 0
M  V30 3614 C 353.73 0.143659 1.6879 0
M  V30 3615 O 354.936 0.30791 1.77347 0
M  V30 3616 H 351.311 0.385925 0.645419 0
M  V30 3617 H 353.282 2.19978 2.01624 0
M  V30 3618 C 352.031 1.00394 3.32891 0
M  V30 3619 H 351.354 1.84231 3.54822 0
M  V30 3620 H 352.794 0.97862 4.12552 0
M  V30 3621 C 351.253 -0.293047 3.35623 0
M  V30 3622 O 351.783 -1.29823 3.80143 0
M  V30 3623 N 349.989 -0.322174 2.88809 0
M  V30 3624 H 349.536 0.496379 2.52772 0
M  V30 3625 H 349.494 -1.18977 2.91019 0
M  V30 3626 N 353.266 -1.05314 1.17247 0
M  V30 3627 C 354.216 -2.11313 0.856196 0
M  V30 3628 C 355.2 -1.60013 -0.168694 0
M  V30 3629 O 356.392 -1.76968 0.0335624 0
M  V30 3630 C 353.521 -3.41301 0.369917 0
M  V30 3631 C 352.607 -3.99401 1.42616 0
M  V30 3632 N 352.998 -4.31481 2.63928 0
M  V30 3633 C 351.296 -4.27126 1.28373 0
M  V30 3634 C 351.997 -4.77799 3.31787 0
M  V30 3635 N 350.973 -4.77843 2.59166 0
M  V30 3636 H 354.775 -2.33976 1.77856 0
M  V30 3637 H 352.289 -1.2295 1.06099 0
M  V30 3638 H 354.286 -4.16713 0.124897 0
M  V30 3639 H 352.946 -3.20072 -0.546253 0
M  V30 3640 H 353.957 -4.21519 3.00902 0
M  V30 3641 H 350.634 -4.15289 0.429111 0
M  V30 3642 H 352.024 -5.11743 4.35395 0
M  V30 3643 N 354.744 -0.972509 -1.24016 0
M  V30 3644 C 355.991 -0.637034 -1.92219 0
M  V30 3645 C 356.319 0.828418 -1.75976 0
M  V30 3646 O 355.574 1.61206 -1.10955 0
M  V30 3647 C 355.873 -0.963694 -3.44162 0
M  V30 3648 C 355.539 -2.41807 -3.80579 0
M  V30 3649 C 354.201 -2.81556 -3.9023 0
M  V30 3650 C 356.553 -3.36172 -3.98293 0
M  V30 3651 C 353.881 -4.14702 -4.15017 0
M  V30 3652 C 356.233 -4.68952 -4.24578 0
M  V30 3653 C 354.897 -5.08472 -4.32449 0
M  V30 3654 H 354.167 -0.233107 -0.703379 0
M  V30 3655 H 356.814 -1.2249 -1.47202 0
M  V30 3656 H 355.119 -0.29365 -3.90698 0
M  V30 3657 H 356.816 -0.682449 -3.9515 0
M  V30 3658 H 353.406 -2.09988 -3.73635 0
M  V30 3659 H 357.59 -3.06644 -3.90234 0
M  V30 3660 H 352.846 -4.4494 -4.19331 0
M  V30 3661 H 357.02 -5.42037 -4.37229 0
M  V30 3662 H 354.647 -6.11665 -4.51409 0
M  V30 3663 N 356.222 1.38976 -0.743202 0
M  V30 3664 C 357.471 1.99581 -0.291592 0
M  V30 3665 C 357.784 1.59656 1.13001 0
M  V30 3666 O 358.99 2.13157 1.68156 0
M  V30 3667 C 357.446 3.56813 -0.470391 0
M  V30 3668 C 357.054 4.05695 -1.90041 0
M  V30 3669 C 358.798 4.24423 -0.0809709 0
M  V30 3670 C 356.705 5.5553 -2.02832 0
M  V30 3671 H 355.635 0.746615 -0.105272 0
M  V30 3672 H 358.286 1.58872 -0.918258 0
M  V30 3673 H 356.668 3.95359 0.225299 0
M  V30 3674 H 357.842 3.78464 -2.62872 0
M  V30 3675 H 356.157 3.50775 -2.24379 0
M  V30 3676 H 358.754 5.34474 -0.155445 0
M  V30 3677 H 359.097 4.04962 0.96497 0
M  V30 3678 H 359.63 3.9108 -0.728124 0
M  V30 3679 H 356.369 5.79881 -3.05643 0
M  V30 3680 H 355.889 5.84537 -1.34448 0
M  V30 3681 H 357.568 6.21069 -1.81335 0
M  V30 3682 N 357.7 0.491464 1.49741 0
M  V30 3683 C 358.663 -0.280906 2.27472 0
M  V30 3684 C 359.663 -0.902454 1.33088 0
M  V30 3685 O 360.853 -0.768465 1.56334 0
M  V30 3686 C 357.985 -1.40209 3.10732 0
M  V30 3687 H 359.178 0.401056 2.97206 0
M  V30 3688 H 356.731 0.246131 1.5435 0
M  V30 3689 H 357.466 -2.11849 2.45541 0
M  V30 3690 H 357.251 -0.961969 3.80117 0
M  V30 3691 H 358.741 -1.9464 3.69466 0
M  V30 3692 N 359.178 -1.55987 0.224894 0
M  V30 3693 C 360.088 -2.24066 -0.69511 0
M  V30 3694 C 361.104 -1.24939 -1.21104 0
M  V30 3695 O 362.28 -1.5776 -1.25195 0
M  V30 3696 C 359.345 -2.90983 -1.88493 0
M  V30 3697 C 358.406 -4.05462 -1.41064 0
M  V30 3698 C 357.639 -4.69179 -2.54375 0
M  V30 3699 O 357.862 -4.31895 -3.72589 0
M  V30 3700 O 356.796 -5.58108 -2.25386 0
M  V30 3701 H 360.622 -3.03353 -0.145149 0
M  V30 3702 H 358.207 -1.49399 -0.00569476 0
M  V30 3703 H 360.089 -3.33209 -2.57972 0
M  V30 3704 H 358.764 -2.14653 -2.42293 0
M  V30 3705 H 357.671 -3.67798 -0.683774 0
M  V30 3706 H 359.004 -4.83545 -0.918985 0
M  V30 3707 N 360.656 0.0484629 -1.57525 0
M  V30 3708 C 361.903 0.743125 -1.88372 0
M  V30 3709 C 362.231 1.76383 -0.819715 0
M  V30 3710 O 361.486 1.94855 0.181659 0
M  V30 3711 C 361.785 1.46632 -3.25935 0
M  V30 3712 C 361.451 0.583427 -4.4711 0
M  V30 3713 C 360.113 0.340191 -4.79996 0
M  V30 3714 C 362.465 -0.0273345 -5.21193 0
M  V30 3715 C 359.793 -0.522903 -5.84365 0
M  V30 3716 C 362.145 -0.878017 -6.26477 0
M  V30 3717 C 360.809 -1.1309 -6.5785 0
M  V30 3718 H 360.079 0.271929 -0.689301 0
M  V30 3719 H 362.726 0.00336166 -1.915 0
M  V30 3720 H 361.031 2.2789 -3.18706 0
M  V30 3721 H 362.728 2.00902 -3.47044 0
M  V30 3722 H 359.318 0.783151 -4.21384 0
M  V30 3723 H 363.502 0.147654 -4.9608 0
M  V30 3724 H 358.758 -0.727335 -6.07058 0
M  V30 3725 H 362.932 -1.35789 -6.83033 0
M  V30 3726 H 360.559 -1.80144 -7.38547 0
M  V30 3727 N 362.134 1.5431 0.320358 0
M  V30 3728 C 363.081 1.83918 1.39438 0
M  V30 3729 C 364.051 0.686525 1.51248 0
M  V30 3730 O 365.236 0.933269 1.66417 0
M  V30 3731 C 362.376 2.075 2.75749 0
M  V30 3732 C 361.489 3.35177 2.72544 0
M  V30 3733 C 360.624 3.48704 4.00723 0
M  V30 3734 C 359.663 4.70244 3.91838 0
M  V30 3735 N 358.8 4.80679 5.11754 0
M  V30 3736 H 363.64 2.75544 1.13489 0
M  V30 3737 H 361.177 1.36459 0.549309 0
M  V30 3738 H 363.135 2.19166 3.54996 0
M  V30 3739 H 361.765 1.19163 3 0
M  V30 3740 H 360.817 3.32233 1.85271 0
M  V30 3741 H 362.129 4.24534 2.61863 0
M  V30 3742 H 361.283 3.59928 4.88402 0
M  V30 3743 H 360.022 2.57445 4.14214 0
M  V30 3744 H 359.027 4.59072 3.02544 0
M  V30 3745 H 360.252 5.6289 3.7991 0
M  V30 3746 H 358.198 3.92337 5.25745 0
M  V30 3747 H 358.115 5.64007 5.0342 0
M  V30 3748 H 359.383 4.96239 6.01138 0
M  V30 3749 N 363.613 -0.582584 1.46437 0
M  V30 3750 C 365.029 -0.905962 1.31394 0
M  V30 3751 C 365.229 -1.99468 0.285476 0
M  V30 3752 O 364.285 -2.50566 -0.311914 0
M  V30 3753 C 365.598 -1.3232 2.70022 0
M  V30 3754 C 367.146 -1.43604 2.78113 0
M  V30 3755 C 367.621 -1.88694 4.17323 0
M  V30 3756 N 369.112 -1.95887 4.19741 0
M  V30 3757 C 369.847 -2.32051 5.24347 0
M  V30 3758 N 369.343 -2.67006 6.39281 0
M  V30 3759 N 371.136 -2.32606 5.11713 0
M  V30 3760 H 363.287 0.1366 2.1196 0
M  V30 3761 H 365.55 -0.00155736 0.947999 0
M  V30 3762 H 365.256 -0.597242 3.46592 0
M  V30 3763 H 365.13 -2.28469 3.00136 0
M  V30 3764 H 367.517 -2.15286 2.01832 0
M  V30 3765 H 367.598 -0.457059 2.51684 0
M  V30 3766 H 367.242 -1.1759 4.941 0
M  V30 3767 H 367.172 -2.8755 4.4116 0
M  V30 3768 H 369.663 -1.71362 3.36814 0
M  V30 3769 H 369.976 -2.93554 7.14875 0
M  V30 3770 H 368.321 -2.64644 6.42642 0
M  V30 3771 H 371.512 -2.04721 4.2096 0
M  V30 3772 H 371.685 -2.60462 5.93349 0
M  V30 3773 N 365.091 -1.34144 -0.827227 0
M  V30 3774 C 366.038 -1.25364 -1.93785 0
M  V30 3775 C 367.008 -0.129774 -1.65592 0
M  V30 3776 O 368.193 -0.310024 -1.88264 0
M  V30 3777 C 365.333 -1.01064 -3.2997 0
M  V30 3778 C 364.446 -2.22185 -3.70484 0
M  V30 3779 C 363.581 -1.91203 -4.95595 0
M  V30 3780 C 362.62 -3.08491 -5.28677 0
M  V30 3781 N 361.757 -2.77421 -6.44967 0
M  V30 3782 H 366.597 -2.20347 -2.00627 0
M  V30 3783 H 364.134 -1.09558 -0.981608 0
M  V30 3784 H 366.092 -0.850139 -4.08446 0
M  V30 3785 H 364.722 -0.0975026 -3.22653 0
M  V30 3786 H 363.774 -2.4917 -2.87434 0
M  V30 3787 H 365.086 -3.0983 -3.90905 0
M  V30 3788 H 364.24 -1.71864 -5.81848 0
M  V30 3789 H 362.979 -1.00812 -4.77167 0
M  V30 3790 H 361.984 -3.28431 -4.40923 0
M  V30 3791 H 363.209 -3.99655 -5.49047 0
M  V30 3792 H 361.155 -1.89601 -6.28003 0
M  V30 3793 H 361.072 -3.58598 -6.6554 0
M  V30 3794 H 362.34 -2.61577 -7.34301 0
M  V30 3795 N 366.569 1.04691 -1.17803 0
M  V30 3796 C 367.519 2.10856 -0.867391 0
M  V30 3797 C 368.503 1.601 0.160206 0
M  V30 3798 O 369.695 1.76948 -0.042947 0
M  V30 3799 C 366.824 3.411 -0.388012 0
M  V30 3800 C 365.91 3.9864 -1.44732 0
M  V30 3801 N 366.301 4.30075 -2.66212 0
M  V30 3802 C 364.599 4.26439 -1.30637 0
M  V30 3803 C 365.3 4.76033 -3.34317 0
M  V30 3804 N 364.276 4.76462 -2.61696 0
M  V30 3805 H 368.078 2.33029 -1.79094 0
M  V30 3806 H 365.592 1.22386 -1.0675 0
M  V30 3807 H 367.589 4.16641 -0.146994 0
M  V30 3808 H 366.249 3.20357 0.529271 0
M  V30 3809 H 367.26 4.19917 -3.03134 0
M  V30 3810 H 363.937 4.15056 -0.451129 0
M  V30 3811 H 365.327 5.09427 -4.38103 0
M  V30 3812 N 368.047 0.979072 1.23499 0
M  V30 3813 C 368.994 0.517904 2.24914 0
M  V30 3814 C 369.964 -0.442525 1.60097 0
M  V30 3815 O 371.149 -0.350365 1.87556 0
M  V30 3816 C 368.289 -0.174813 3.44657 0
M  V30 3817 C 367.402 0.825721 4.24035 0
M  V30 3818 C 366.537 0.107946 5.3109 0
M  V30 3819 C 365.576 1.09778 6.02175 0
M  V30 3820 N 364.713 0.40925 7.00906 0
M  V30 3821 H 369.553 1.38751 2.63727 0
M  V30 3822 H 367.09 0.695303 1.2963 0
M  V30 3823 H 369.048 -0.593233 4.12961 0
M  V30 3824 H 367.678 -1.0083 3.06648 0
M  V30 3825 H 366.73 1.36253 3.55161 0
M  V30 3826 H 368.042 1.58005 4.73113 0
M  V30 3827 H 367.196 -0.367904 6.05583 0
M  V30 3828 H 365.935 -0.678994 4.8295 0
M  V30 3829 H 364.94 1.5844 5.26476 0
M  V30 3830 H 366.165 1.88536 6.52404 0
M  V30 3831 H 364.111 -0.358506 6.5502 0
M  V30 3832 H 364.028 1.10226 7.47921 0
M  V30 3833 H 365.296 -0.0442557 7.79487 0
M  V30 3834 N 369.525 -1.3858 0.750561 0
M  V30 3835 C 370.472 -2.30483 0.120835 0
M  V30 3836 C 371.442 -1.50022 -0.712923 0
M  V30 3837 O 372.627 -1.78662 -0.669676 0
M  V30 3838 C 369.767 -3.36431 -0.768666 0
M  V30 3839 C 368.88 -4.31927 0.0793922 0
M  V30 3840 C 368.015 -5.24944 -0.81283 0
M  V30 3841 C 367.054 -6.12088 0.0390447 0
M  V30 3842 N 366.191 -6.97412 -0.809969 0
M  V30 3843 H 371.031 -2.83761 0.91015 0
M  V30 3844 H 368.568 -1.39707 0.460463 0
M  V30 3845 H 370.526 -3.96462 -1.29898 0
M  V30 3846 H 369.156 -2.8457 -1.5238 0
M  V30 3847 H 368.208 -3.73382 0.727303 0
M  V30 3848 H 369.52 -4.93319 0.737401 0
M  V30 3849 H 368.674 -5.90078 -1.41042 0
M  V30 3850 H 367.413 -4.63911 -1.50458 0
M  V30 3851 H 366.418 -5.45952 0.649328 0
M  V30 3852 H 367.643 -6.75189 0.727809 0
M  V30 3853 H 365.589 -6.38931 -1.48672 0
M  V30 3854 H 365.506 -7.55712 -0.208789 0
M  V30 3855 H 366.774 -7.66959 -1.39263 0
M  V30 3856 N 371.003 -0.499398 -1.49478 0
M  V30 3857 C 372.28 0.108629 -1.95298 0
M  V30 3858 C 372.66 1.54282 -1.44084 0
M  V30 3859 O 372.008 2.18944 -0.653908 0
M  V30 3860 C 372.218 0.0229111 -3.48992 0
M  V30 3861 C 373.566 0.197643 -4.2414 0
M  V30 3862 O 374.59 0.0981735 -3.56065 0
M  V30 3863 O 373.449 0.401669 -5.45022 0
M  V30 3864 H 370.543 0.096181 -0.821388 0
M  V30 3865 H 373.089 -0.561822 -1.6013 0
M  V30 3866 H 371.861 -0.977321 -3.78899 0
M  V30 3867 H 371.484 0.733579 -3.90774 0
M  V30 3868 N 372.481 1.55866 -0.233164 0
M  V30 3869 C 373.73 1.97779 0.39579 0
M  V30 3870 C 374.043 1.12419 1.60066 0
M  V30 3871 O 375.249 1.44283 2.29988 0
M  V30 3872 C 373.705 3.5188 0.755556 0
M  V30 3873 C 373.313 4.45959 -0.427152 0
M  V30 3874 C 375.057 4.02479 1.34946 0
M  V30 3875 C 372.964 5.91383 -0.0443043 0
M  V30 3876 H 371.894 0.738592 0.15165 0
M  V30 3877 H 374.545 1.80486 -0.331212 0
M  V30 3878 H 372.927 3.64816 1.5403 0
M  V30 3879 H 374.101 4.44776 -1.20462 0
M  V30 3880 H 372.416 4.05765 -0.935068 0
M  V30 3881 H 375.013 5.08637 1.649 0
M  V30 3882 H 375.356 3.49014 2.26925 0
M  V30 3883 H 375.889 3.92813 0.62791 0
M  V30 3884 H 372.628 6.48857 -0.930874 0
M  V30 3885 H 372.148 5.95734 0.697238 0
M  V30 3886 H 373.827 6.45893 0.378334 0
M  V30 3887 N 373.959 -0.0401083 1.57549 0
M  V30 3888 C 375.184 -0.748931 1.93406 0
M  V30 3889 C 375.609 -1.68686 0.832274 0
M  V30 3890 O 374.967 -1.80047 -0.212818 0
M  V30 3891 C 375.015 -1.4916 3.28304 0
M  V30 3892 O 374.119 -2.6042 3.19774 0
M  V30 3893 H 373.46 -0.202212 0.63246 0
M  V30 3894 H 375.99 0.00112086 2.046 0
M  V30 3895 H 376 -1.86395 3.62934 0
M  V30 3896 H 374.675 -0.80364 4.08062 0
M  V30 3897 H 373.252 -2.25808 2.96758 0
M  V30 3898 N 375.437 -1.54477 -0.31217 0
M  V30 3899 C 376.347 -1.87695 -1.4074 0
M  V30 3900 C 377.363 -0.769975 -1.56036 0
M  V30 3901 O 378.539 -1.06537 -1.70915 0
M  V30 3902 C 375.604 -2.10755 -2.75287 0
M  V30 3903 C 374.665 -3.34514 -2.69071 0
M  V30 3904 C 373.898 -3.56465 -3.97201 0
M  V30 3905 O 374.121 -2.81637 -4.96021 0
M  V30 3906 O 373.055 -4.49964 -3.9977 0
M  V30 3907 H 376.881 -2.80849 -1.15574 0
M  V30 3908 H 374.466 -1.40526 -0.507228 0
M  V30 3909 H 376.348 -2.27188 -3.54913 0
M  V30 3910 H 375.023 -1.20788 -3.0032 0
M  V30 3911 H 373.93 -3.23456 -1.87955 0
M  V30 3912 H 375.263 -4.24575 -2.48992 0
M  V30 3913 N 376.915 0.57481 -1.46744 0
M  V30 3914 C 377.863 1.70435 -1.58286 0
M  V30 3915 C 378.857 1.63287 -0.450956 0
M  V30 3916 O 380.063 1.68685 -0.628121 0
M  V30 3917 H 376.438 0.56364 -0.497809 0
M  V30 3918 H 378.409 1.57833 -2.53242 0
M  V30 3919 C 377.158 3.08815 -1.59776 0
M  V30 3920 H 376.481 3.1499 -2.46214 0
M  V30 3921 H 377.921 3.87588 -1.71905 0
M  V30 3922 C 376.38 3.35301 -0.327812 0
M  V30 3923 O 376.91 3.97511 0.57861 0
M  V30 3924 N 375.116 2.89816 -0.213274 0
M  V30 3925 H 374.663 2.39371 -0.951798 0
M  V30 3926 H 374.621 3.0791 0.63553 0
M  V30 3927 N 378.394 1.34581 0.820102 0
M  V30 3928 C 379.341 1.2639 1.93117 0
M  V30 3929 C 380.311 0.138554 1.65521 0
M  V30 3930 O 381.496 0.320004 1.88097 0
M  V30 3931 C 378.636 1.02812 3.29429 0
M  V30 3932 C 377.749 2.24146 3.693 0
M  V30 3933 C 376.884 1.93829 4.94574 0
M  V30 3934 C 375.923 3.1129 5.27034 0
M  V30 3935 N 375.06 2.80838 6.43486 0
M  V30 3936 H 379.9 2.21408 1.99455 0
M  V30 3937 H 377.437 1.10077 0.975784 0
M  V30 3938 H 379.395 0.871788 4.0799 0
M  V30 3939 H 378.025 0.114612 3.22596 0
M  V30 3940 H 377.077 2.50691 2.86109 0
M  V30 3941 H 378.389 3.11899 3.89257 0
M  V30 3942 H 377.543 1.74948 5.80929 0
M  V30 3943 H 376.282 1.03341 4.76626 0
M  V30 3944 H 375.287 3.30764 4.39175 0
M  V30 3945 H 376.512 4.02561 5.4692 0
M  V30 3946 H 374.458 1.92929 6.26988 0
M  V30 3947 H 374.375 3.62123 6.63629 0
M  V30 3948 H 375.643 2.65467 7.32903 0
M  V30 3949 N 379.872 -1.04064 1.18357 0
M  V30 3950 C 381.288 -1.2947 0.933258 0
M  V30 3951 C 381.488 -1.97466 -0.401169 0
M  V30 3952 O 380.544 -2.25528 -1.13549 0
M  V30 3953 C 381.857 -2.15337 2.09882 0
M  V30 3954 C 383.405 -2.28683 2.13712 0
M  V30 3955 C 383.88 -3.17917 3.29686 0
M  V30 3956 N 385.371 -3.25504 3.29547 0
M  V30 3957 C 386.106 -3.94706 4.15926 0
M  V30 3958 N 385.602 -4.66239 5.12439 0
M  V30 3959 N 387.395 -3.90986 4.0384 0
M  V30 3960 H 379.546 -0.583359 2.04232 0
M  V30 3961 H 381.809 -0.319921 0.892387 0
M  V30 3962 H 381.515 -1.72682 3.06389 0
M  V30 3963 H 381.389 -3.16015 2.05947 0
M  V30 3964 H 383.776 -2.70575 1.17784 0
M  V30 3965 H 383.857 -1.27596 2.21705 0
M  V30 3966 H 383.501 -2.76736 4.25887 0
M  V30 3967 H 383.431 -4.19036 3.1893 0
M  V30 3968 H 385.922 -2.74547 2.59677 0
M  V30 3969 H 386.235 -5.16638 5.74722 0
M  V30 3970 H 384.58 -4.65143 5.16398 0
M  V30 3971 H 387.771 -3.34234 3.27727 0
M  V30 3972 H 387.944 -4.44646 4.71375 0
M  V30 3973 N 381.35 -0.985608 -1.22978 0
M  V30 3974 C 382.313 -0.535071 -2.22867 0
M  V30 3975 C 383.313 0.378123 -1.56291 0
M  V30 3976 O 384.503 0.171092 -1.73358 0
M  V30 3977 C 381.635 0.222702 -3.40172 0
M  V30 3978 H 382.828 -1.41835 -2.6424 0
M  V30 3979 H 380.381 -0.772042 -1.35901 0
M  V30 3980 H 381.116 1.12229 -3.04262 0
M  V30 3981 H 380.901 -0.43288 -3.89703 0
M  V30 3982 H 382.391 0.526335 -4.1427 0
M  V30 3983 N 382.828 1.3818 -0.7579 0
M  V30 3984 C 384.074 2.00316 -0.316453 0
M  V30 3985 C 384.407 1.60026 1.10025 0
M  V30 3986 O 383.682 0.839835 1.75434 0
M  V30 3987 C 383.965 3.57349 -0.444245 0
M  V30 3988 C 383.818 4.07591 -1.90236 0
M  V30 3989 C 385.137 4.3981 0.1598 0
M  V30 3990 H 382.256 0.727741 -0.116459 0
M  V30 3991 H 384.898 1.6406 -0.958352 0
M  V30 3992 H 383.048 3.88365 0.102233 0
M  V30 3993 H 384.72 3.87199 -2.50748 0
M  V30 3994 H 382.963 3.60297 -2.41595 0
M  V30 3995 H 383.634 5.16677 -1.94291 0
M  V30 3996 H 386.11 4.14971 -0.306314 0
M  V30 3997 H 384.986 5.48885 0.0401675 0
M  V30 3998 H 385.247 4.24102 1.24859 0
M  V30 3999 N 384.306 0.507319 1.49211 0
M  V30 4000 C 385.722 0.163682 1.58758 0
M  V30 4001 C 385.922 -1.33208 1.51188 0
M  V30 4002 O 384.978 -2.10855 1.38911 0
M  V30 4003 C 386.291 0.746095 2.91297 0
M  V30 4004 C 387.839 0.712773 3.04776 0
M  V30 4005 C 388.314 1.27336 4.39943 0
M  V30 4006 N 389.805 1.23433 4.46451 0
M  V30 4007 C 390.54 1.63821 5.495 0
M  V30 4008 N 390.036 2.11832 6.5962 0
M  V30 4009 N 391.829 1.55198 5.4025 0
M  V30 4010 H 383.98 1.47972 1.52375 0
M  V30 4011 H 386.243 0.614147 0.722168 0
M  V30 4012 H 385.949 1.79534 3.02424 0
M  V30 4013 H 385.823 0.210137 3.76614 0
M  V30 4014 H 388.21 -0.327656 2.93275 0
M  V30 4015 H 388.291 1.28595 2.21127 0
M  V30 4016 H 387.935 2.3126 4.52196 0
M  V30 4017 H 387.865 0.676066 5.22242 0
M  V30 4018 H 390.356 0.882627 3.67448 0
M  V30 4019 H 390.669 2.40703 7.34358 0
M  V30 4020 H 389.014 2.1581 6.60644 0
M  V30 4021 H 392.205 1.17505 4.53112 0
M  V30 4022 H 392.378 1.86997 6.20432 0
M  V30 4023 N 385.784 -1.5574 0.241426 0
M  V30 4024 C 387.2 -1.59196 -0.113548 0
M  V30 4025 C 387.4 -1.25852 -1.57364 0
M  V30 4026 O 386.456 -1.00322 -2.31715 0
M  V30 4027 C 387.769 -2.99814 0.230695 0
M  V30 4028 C 389.317 -3.12513 0.174547 0
M  V30 4029 C 389.792 -4.55342 0.492744 0
M  V30 4030 N 391.283 -4.61076 0.443043 0
M  V30 4031 C 392.018 -5.6956 0.662484 0
M  V30 4032 N 391.514 -6.86328 0.944761 0
M  V30 4033 N 393.307 -5.58957 0.593564 0
M  V30 4034 H 385.458 -1.75685 1.19368 0
M  V30 4035 H 387.721 -0.81756 0.479896 0
M  V30 4036 H 387.427 -3.28932 1.24485 0
M  V30 4037 H 387.301 -3.74568 -0.444833 0
M  V30 4038 H 389.688 -2.83179 -0.830277 0
M  V30 4039 H 389.769 -2.40045 0.883845 0
M  V30 4040 H 389.413 -4.85396 1.4951 0
M  V30 4041 H 389.343 -5.26062 -0.23797 0
M  V30 4042 H 391.834 -3.77179 0.233374 0
M  V30 4043 H 392.147 -7.64935 1.09977 0
M  V30 4044 H 390.492 -6.88025 0.982175 0
M  V30 4045 H 393.683 -4.66611 0.373123 0
M  V30 4046 H 393.856 -6.43433 0.767981 0
M  V30 4047 N 387.262 0.0317525 -1.57568 0
M  V30 4048 C 388.192 1.03274 -2.0942 0
M  V30 4049 C 389.173 1.3788 -0.996143 0
M  V30 4050 O 390.358 1.46811 -1.27122 0
M  V30 4051 C 387.488 2.33448 -2.57137 0
M  V30 4052 C 386.442 2.13091 -3.71182 0
M  V30 4053 C 385.768 3.49001 -4.05095 0
M  V30 4054 C 387.068 1.51928 -4.99715 0
M  V30 4055 H 388.762 0.60112 -2.93303 0
M  V30 4056 H 386.308 0.287705 -1.41097 0
M  V30 4057 H 388.261 3.03802 -2.92032 0
M  V30 4058 H 386.985 2.78665 -1.70333 0
M  V30 4059 H 385.644 1.45171 -3.36632 0
M  V30 4060 H 385.292 3.91862 -3.15362 0
M  V30 4061 H 384.992 3.36207 -4.81911 0
M  V30 4062 H 386.516 4.20721 -4.42522 0
M  V30 4063 H 387.93 2.12196 -5.32584 0
M  V30 4064 H 386.327 1.49716 -5.81124 0
M  V30 4065 H 387.397 0.484811 -4.8247 0
M  V30 4066 N 388.74 1.54641 0.303973 0
M  V30 4067 C 390.156 1.45788 0.649463 0
M  V30 4068 C 390.356 0.64666 1.90842 0
M  V30 4069 O 389.412 0.153183 2.52035 0
M  V30 4070 C 390.725 2.89718 0.805227 0
M  V30 4071 C 392.273 2.99742 0.901305 0
M  V30 4072 C 392.748 4.44863 1.08909 0
M  V30 4073 N 394.239 4.48559 1.15536 0
M  V30 4074 C 394.974 5.58026 1.3189 0
M  V30 4075 N 394.47 6.77422 1.45161 0
M  V30 4076 N 396.263 5.45708 1.34755 0
M  V30 4077 H 388.414 2.05854 -0.523237 0
M  V30 4078 H 390.677 0.932186 -0.172431 0
M  V30 4079 H 390.383 3.51666 -0.0489108 0
M  V30 4080 H 390.257 3.36964 1.69513 0
M  V30 4081 H 392.644 2.3791 1.74593 0
M  V30 4082 H 392.725 2.55797 -0.0125531 0
M  V30 4083 H 392.369 5.07288 0.249241 0
M  V30 4084 H 392.299 4.86436 2.01713 0
M  V30 4085 H 394.79 3.6254 1.06646 0
M  V30 4086 H 395.103 7.56604 1.57387 0
M  V30 4087 H 393.448 6.80292 1.42223 0
M  V30 4088 H 396.639 4.51378 1.23996 0
M  V30 4089 H 396.812 6.3107 1.47157 0
M  V30 4090 N 390.218 -0.567019 1.47046 0
M  V30 4091 C 391.446 -1.35027 1.56765 0
M  V30 4092 C 391.861 -1.8758 0.214316 0
M  V30 4093 O 391.218 -1.64471 -0.790919 0
M  V30 4094 C 391.269 -2.52698 2.58507 0
M  V30 4095 O 390.99 -2.0232 3.88585 0
M  V30 4096 C 392.491 -3.45043 2.78316 0
M  V30 4097 H 389.711 -0.41195 0.529658 0
M  V30 4098 H 392.255 -0.687832 1.92585 0
M  V30 4099 H 390.41 -3.149 2.25648 0
M  V30 4100 H 390.824 -2.79068 4.44096 0
M  V30 4101 H 392.298 -4.2405 3.53391 0
M  V30 4102 H 392.775 -3.97971 1.85784 0
M  V30 4103 H 393.381 -2.88665 3.12334 0
M  V30 4104 N 391.696 -1.35014 -0.812953 0
M  V30 4105 C 392.659 -1.27292 -1.90602 0
M  V30 4106 C 393.659 -0.185817 -1.59723 0
M  V30 4107 O 394.849 -0.439102 -1.68575 0
M  V30 4108 C 391.981 -0.967676 -3.26877 0
M  V30 4109 H 393.174 -2.24479 -1.9887 0
M  V30 4110 H 390.727 -1.19446 -1.00808 0
M  V30 4111 H 391.462 0.0005954 -3.243 0
M  V30 4112 H 391.247 -1.75412 -3.50675 0
M  V30 4113 H 392.737 -0.939085 -4.06904 0
M  V30 4114 N 393.175 1.03435 -1.18907 0
M  V30 4115 C 394.415 1.78302 -0.999391 0
M  V30 4116 C 394.779 1.86353 0.462219 0
M  V30 4117 O 395.98 2.57489 0.771543 0
M  V30 4118 C 394.251 3.17362 -1.64365 0
M  V30 4119 S 395.81 4.08488 -1.6026 0
M  V30 4120 H 392.628 0.613861 -0.358742 0
M  V30 4121 H 395.23 1.23979 -1.51161 0
M  V30 4122 H 393.934 3.09116 -2.69955 0
M  V30 4123 H 393.465 3.76762 -1.13199 0
M  V30 4124 H 395.48 4.92274 -0.622932 0
M  V30 4125 N 394.653 0.992116 1.22453 0
M  V30 4126 C 395.563 0.55065 2.28046 0
M  V30 4127 C 396.579 -0.400189 1.69335 0
M  V30 4128 O 397.755 -0.267215 1.99619 0
M  V30 4129 C 394.82 -0.128496 3.46462 0
M  V30 4130 C 393.881 0.865208 4.20491 0
M  V30 4131 C 393.114 0.218377 5.33253 0
M  V30 4132 O 393.337 -0.987894 5.6178 0
M  V30 4133 O 392.271 0.922845 5.94783 0
M  V30 4134 H 396.097 1.4291 2.67975 0
M  V30 4135 H 393.682 0.760326 1.28606 0
M  V30 4136 H 395.564 -0.508947 4.18315 0
M  V30 4137 H 394.239 -0.981526 3.0846 0
M  V30 4138 H 393.146 1.29658 3.50913 0
M  V30 4139 H 394.479 1.68741 4.62371 0
M  V30 4140 N 396.131 -1.37776 0.765217 0
M  V30 4141 C 397.547 -1.53297 0.444108 0
M  V30 4142 C 397.747 -1.72515 -1.04119 0
M  V30 4143 O 396.803 -1.74278 -1.82711 0
M  V30 4144 C 398.116 -2.73328 1.25349 0
M  V30 4145 C 399.664 -2.87185 1.24473 0
M  V30 4146 C 400.139 -4.10191 2.03733 0
M  V30 4147 N 401.63 -4.17291 2.01053 0
M  V30 4148 C 402.365 -5.11488 2.59166 0
M  V30 4149 N 401.861 -6.11285 3.26041 0
M  V30 4150 N 403.654 -5.03924 2.49032 0
M  V30 4151 H 395.805 -1.23552 1.72768 0
M  V30 4152 H 398.068 -0.601103 0.733062 0
M  V30 4153 H 397.774 -2.6557 2.30577 0
M  V30 4154 H 397.648 -3.66834 0.87823 0
M  V30 4155 H 400.035 -2.94418 0.20047 0
M  V30 4156 H 400.116 -1.94657 1.65959 0
M  V30 4157 H 399.76 -4.0372 3.08176 0
M  V30 4158 H 399.69 -5.01821 1.59633 0
M  V30 4159 H 402.181 -3.45825 1.5236 0
M  V30 4160 H 402.494 -6.79678 3.67774 0
M  V30 4161 H 400.839 -6.11583 3.30138 0
M  V30 4162 H 404.03 -4.24902 1.96407 0
M  V30 4163 H 404.203 -5.77152 2.94617 0
M  V30 4164 N 397.609 -0.515225 -1.4894 0
M  V30 4165 C 398.572 0.244681 -2.2789 0
M  V30 4166 C 399.572 0.881166 -1.34507 0
M  V30 4167 O 400.762 0.743497 -1.57537 0
M  V30 4168 C 397.894 1.35247 -3.12923 0
M  V30 4169 H 399.087 -0.448289 -2.96531 0
M  V30 4170 H 396.64 -0.270656 -1.53939 0
M  V30 4171 H 397.375 2.07916 -2.48881 0
M  V30 4172 H 397.16 0.901374 -3.81599 0
M  V30 4173 H 398.65 1.88737 -3.72516 0
M  V30 4174 N 399.087 1.5561 -0.249682 0
M  V30 4175 C 400.034 2.21496 0.648694 0
M  V30 4176 C 401.004 1.17977 1.16921 0
M  V30 4177 O 402.189 1.46434 1.22318 0
M  V30 4178 C 399.329 2.92039 1.83868 0
M  V30 4179 C 398.442 4.10219 1.35442 0
M  V30 4180 C 397.577 4.6847 2.50419 0
M  V30 4181 C 396.616 5.78893 1.98869 0
M  V30 4182 N 395.753 6.31315 3.07223 0
M  V30 4183 H 400.593 2.97892 0.0801582 0
M  V30 4184 H 398.13 1.47074 0.0278031 0
M  V30 4185 H 400.088 3.31138 2.53778 0
M  V30 4186 H 398.718 2.18111 2.37965 0
M  V30 4187 H 397.77 3.76413 0.54928 0
M  V30 4188 H 399.082 4.89927 0.936649 0
M  V30 4189 H 398.236 5.10158 3.28366 0
M  V30 4190 H 396.975 3.87984 2.95499 0
M  V30 4191 H 395.98 5.3668 1.19393 0
M  V30 4192 H 397.205 6.61232 1.54755 0
M  V30 4193 H 395.151 5.53733 3.51732 0
M  V30 4194 H 395.068 7.06224 2.69784 0
M  V30 4195 H 396.336 6.77662 3.8522 0
M  V30 4196 N 400.565 -0.0233959 1.57583 0
M  V30 4197 C 401.981 -0.379134 1.55031 0
M  V30 4198 C 402.181 -1.76255 0.976548 0
M  V30 4199 O 401.237 -2.45266 0.600078 0
M  V30 4200 C 402.55 -0.275792 2.99433 0
M  V30 4201 C 404.098 -0.352458 3.11009 0
M  V30 4202 C 404.573 -0.278501 4.57152 0
M  V30 4203 N 406.064 -0.337123 4.61972 0
M  V30 4204 C 406.799 -0.302876 5.726 0
M  V30 4205 N 406.295 -0.220589 6.92449 0
M  V30 4206 N 408.088 -0.353023 5.6099 0
M  V30 4207 H 400.239 0.881869 1.93227 0
M  V30 4208 H 402.502 0.335867 0.886509 0
M  V30 4209 H 402.208 0.675108 3.4516 0
M  V30 4210 H 402.082 -1.06721 3.61788 0
M  V30 4211 H 404.469 -1.29379 2.65226 0
M  V30 4212 H 404.55 0.468409 2.51475 0
M  V30 4213 H 404.194 0.659189 5.03604 0
M  V30 4214 H 404.124 -1.11755 5.14605 0
M  V30 4215 H 406.615 -0.403002 3.75745 0
M  V30 4216 H 406.928 -0.199713 7.72542 0
M  V30 4217 H 405.273 -0.186555 6.9475 0
M  V30 4218 H 408.464 -0.415339 4.66254 0
M  V30 4219 H 408.637 -0.322866 6.47195 0
M  V30 4220 N 402.043 -1.548 -0.295768 0
M  V30 4221 C 403.271 -1.78327 -1.04914 0
M  V30 4222 C 403.686 -0.545316 -1.80753 0
M  V30 4223 O 403.043 0.485013 -1.75937 0
M  V30 4224 C 403.094 -2.99418 -2.02561 0
M  V30 4225 O 402.815 -4.18431 -1.29798 0
M  V30 4226 C 404.316 -3.35375 -2.89895 0
M  V30 4227 H 401.536 -0.594618 -0.310918 0
M  V30 4228 H 404.08 -2.01763 -0.333454 0
M  V30 4229 H 402.235 -2.78175 -2.69624 0
M  V30 4230 H 402.649 -4.86736 -1.95419 0
M  V30 4231 H 404.123 -4.23332 -3.54251 0
M  V30 4232 H 404.6 -2.53761 -3.58472 0
M  V30 4233 H 405.206 -3.58796 -2.28355 0
M  V30 4234 N 403.521 0.559213 -1.47345 0
M  V30 4235 C 404.451 1.67622 -1.62558 0
M  V30 4236 C 405.432 1.63331 -0.475087 0
M  V30 4237 O 406.617 1.80983 -0.704182 0
M  V30 4238 C 403.747 3.0626 -1.63774 0
M  V30 4239 C 402.701 3.25397 -2.7803 0
M  V30 4240 C 402.027 4.64801 -2.64318 0
M  V30 4241 C 403.327 3.10965 -4.19641 0
M  V30 4242 H 405.021 1.55146 -2.56067 0
M  V30 4243 H 402.567 0.744961 -1.23233 0
M  V30 4244 H 404.52 3.84247 -1.73008 0
M  V30 4245 H 403.244 3.1969 -0.66825 0
M  V30 4246 H 401.903 2.49817 -2.68304 0
M  V30 4247 H 401.551 4.75028 -1.65401 0
M  V30 4248 H 401.251 4.78555 -3.40968 0
M  V30 4249 H 402.775 5.44926 -2.75478 0
M  V30 4250 H 404.189 3.78772 -4.30354 0
M  V30 4251 H 402.586 3.36229 -4.97062 0
M  V30 4252 H 403.656 2.07736 -4.38148 0
M  V30 4253 N 404.999 1.35443 0.805782 0
M  V30 4254 C 406.224 1.32037 1.59941 0
M  V30 4255 C 406.649 -0.0994215 1.87837 0
M  V30 4256 O 406.007 -1.06648 1.46615 0
M  V30 4257 C 406.055 2.13354 2.90711 0
M  V30 4258 O 405.159 1.5148 3.83572 0
M  V30 4259 H 404.5 0.452666 0.485787 0
M  V30 4260 H 407.03 1.78496 1.00002 0
M  V30 4261 H 407.04 2.25338 3.40128 0
M  V30 4262 H 405.715 3.16572 2.69732 0
M  V30 4263 H 404.292 1.4834 3.42125 0
M  V30 4264 N 406.477 -1.02803 1.19454 0
M  V30 4265 C 407.702 -1.80378 1.02364 0
M  V30 4266 C 408.127 -1.83282 -0.423007 0
M  V30 4267 O 407.485 -1.25945 -1.30413 0
M  V30 4268 C 407.533 -3.23248 1.59821 0
M  V30 4269 O 406.637 -4.04 0.828105 0
M  V30 4270 H 405.978 -0.556799 0.361761 0
M  V30 4271 H 408.508 -1.29385 1.58495 0
M  V30 4272 H 408.518 -3.73994 1.63073 0
M  V30 4273 H 407.193 -3.2045 2.65113 0
M  V30 4274 H 405.77 -3.62635 0.86891 0
M  V30 4275 N 407.956 -0.998596 -1.21925 0
M  V30 4276 C 409.181 -0.696015 -1.95372 0
M  V30 4277 C 409.606 0.733826 -1.73195 0
M  V30 4278 O 408.964 1.50242 -1.01474 0
M  V30 4279 C 409.012 -1.01466 -3.4603 0
M  V30 4280 O 408.116 -0.116415 -4.12236 0
M  V30 4281 H 407.457 -0.259938 -0.611006 0
M  V30 4282 H 409.987 -1.33711 -1.54863 0
M  V30 4283 H 409.997 -0.958855 -3.96573 0
M  V30 4284 H 408.672 -2.05653 -3.61497 0
M  V30 4285 H 407.249 -0.228193 -3.72201 0
M  V30 4286 N 409.434 1.37368 -0.772513 0
M  V30 4287 C 410.662 2.03942 -0.348588 0
M  V30 4288 C 411.077 1.58264 1.02947 0
M  V30 4289 O 410.434 0.764246 1.65727 0
M  V30 4290 C 410.485 3.5946 -0.38351 0
M  V30 4291 O 410.206 4.03468 -1.70721 0
M  V30 4292 C 411.707 4.4327 0.0519152 0
M  V30 4293 H 408.927 0.654931 -0.145966 0
M  V30 4294 H 411.471 1.75686 -1.04665 0
M  V30 4295 H 409.626 3.86486 0.265978 0
M  V30 4296 H 410.04 4.97991 -1.64636 0
M  V30 4297 H 411.514 5.51995 -0.0236733 0
M  V30 4298 H 411.991 4.2514 1.10238 0
M  V30 4299 H 412.597 4.21471 -0.569415 0
M  V30 4300 N 410.912 0.523116 1.48665 0
M  V30 4301 C 411.844 -0.280421 2.27478 0
M  V30 4302 C 412.857 -0.910694 1.34945 0
M  V30 4303 O 414.046 -0.790295 1.60052 0
M  V30 4304 C 411.146 -1.41171 3.08097 0
M  V30 4305 C 410.319 -0.884642 4.28361 0
M  V30 4306 C 409.378 -1.89622 4.90846 0
M  V30 4307 O 408.404 -1.4559 5.50265 0
M  V30 4308 N 409.606 -3.22801 4.82472 0
M  V30 4309 H 412.371 0.395481 2.97079 0
M  V30 4310 H 409.932 0.357018 1.57915 0
M  V30 4311 H 411.924 -2.08645 3.4677 0
M  V30 4312 H 410.494 -1.99139 2.40961 0
M  V30 4313 H 409.714 -0.0341177 3.94185 0
M  V30 4314 H 411.002 -0.511268 5.06225 0
M  V30 4315 H 410.4 -3.61246 4.35336 0
M  V30 4316 H 408.957 -3.85927 5.25265 0
M  V30 4317 N 412.39 -1.55475 0.257931 0
M  V30 4318 C 413.353 -2.20551 -0.623706 0
M  V30 4319 C 414.353 -1.17809 -1.09443 0
M  V30 4320 O 415.543 -1.42823 -0.997362 0
M  V30 4321 C 412.675 -2.85784 -1.8585 0
M  V30 4322 H 413.868 -2.99848 -0.0557743 0
M  V30 4323 H 411.421 -1.56298 0.0084422 0
M  V30 4324 H 412.156 -2.10453 -2.46739 0
M  V30 4325 H 411.941 -3.61057 -1.52907 0
M  V30 4326 H 413.431 -3.35553 -2.48584 0
M  V30 4327 N 413.868 0.0150385 -1.57593 0
M  V30 4328 C 415.093 0.718067 -1.94573 0
M  V30 4329 C 415.518 1.6734 -0.859005 0
M  V30 4330 O 414.876 1.80362 0.184147 0
M  V30 4331 C 414.924 1.43918 -3.30636 0
M  V30 4332 O 414.028 2.55299 -3.23876 0
M  V30 4333 H 413.369 0.192125 -0.635597 0
M  V30 4334 H 415.899 -0.0336708 -2.04572 0
M  V30 4335 H 415.909 1.80598 -3.65853 0
M  V30 4336 H 414.584 0.738619 -4.09289 0
M  V30 4337 H 413.161 2.21058 -3.00312 0
M  V30 4338 N 415.346 1.54954 0.287554 0
M  V30 4339 C 416.595 1.74081 1.01877 0
M  V30 4340 C 416.908 0.541135 1.87966 0
M  V30 4341 O 418.114 0.614491 2.64455 0
M  V30 4342 C 416.57 3.08042 1.86113 0
M  V30 4343 C 416.178 4.35531 1.04961 0
M  V30 4344 C 417.922 3.36523 2.58752 0
M  V30 4345 C 415.829 5.60538 1.88551 0
M  V30 4346 H 414.759 0.64884 0.384087 0
M  V30 4347 H 417.41 1.81426 0.275101 0
M  V30 4348 H 415.792 2.94696 2.64519 0
M  V30 4349 H 416.966 4.59751 0.31074 0
M  V30 4350 H 415.281 4.14085 0.43843 0
M  V30 4351 H 417.878 4.27122 3.21668 0
M  V30 4352 H 418.221 2.56 3.28283 0
M  V30 4353 H 418.754 3.50901 1.87386 0
M  V30 4354 H 415.493 6.43767 1.23466 0
M  V30 4355 H 415.013 5.40483 2.60074 0
M  V30 4356 H 416.692 5.98297 2.46273 0
M  V30 4357 N 416.824 -0.551391 1.4764 0
M  V30 4358 C 417.734 -1.68525 1.63207 0
M  V30 4359 C 418.75 -1.6621 0.514815 0
M  V30 4360 O 419.926 -1.85551 0.783113 0
M  V30 4361 C 416.991 -3.05025 1.64805 0
M  V30 4362 C 416.052 -3.18362 2.88 0
M  V30 4363 C 415.285 -4.4835 2.89513 0
M  V30 4364 O 415.508 -5.34163 2.00065 0
M  V30 4365 O 414.442 -4.65602 3.81443 0
M  V30 4366 H 418.268 -1.58333 2.59161 0
M  V30 4367 H 415.853 -0.722063 1.30792 0
M  V30 4368 H 417.735 -3.86245 1.68502 0
M  V30 4369 H 416.41 -3.15587 0.720197 0
M  V30 4370 H 415.317 -2.36518 2.89845 0
M  V30 4371 H 416.65 -3.12707 3.80099 0
M  V30 4372 N 418.302 -1.35869 -0.798587 0
M  V30 4373 C 419.551 -1.28921 -1.5512 0
M  V30 4374 C 419.864 0.13208 -1.95154 0
M  V30 4375 O 421.07 0.323879 -2.69561 0
M  V30 4376 C 419.526 -2.26141 -2.79979 0
M  V30 4377 C 419.134 -3.73658 -2.47151 0
M  V30 4378 C 420.878 -2.28152 -3.57976 0
M  V30 4379 C 418.785 -4.62679 -3.6835 0
M  V30 4380 H 417.715 -0.479031 -0.582276 0
M  V30 4381 H 420.366 -1.61179 -0.877125 0
M  V30 4382 H 418.748 -1.86865 -3.49138 0
M  V30 4383 H 419.922 -4.21616 -1.85947 0
M  V30 4384 H 418.237 -3.74333 -1.82383 0
M  V30 4385 H 420.834 -2.91875 -4.4801 0
M  V30 4386 H 421.177 -1.28748 -3.95891 0
M  V30 4387 H 421.71 -2.65998 -2.95787 0
M  V30 4388 H 418.449 -5.63111 -3.35538 0
M  V30 4389 H 417.969 -4.19442 -4.28752 0
M  V30 4390 H 419.648 -4.78498 -4.35487 0
M  V30 4391 N 419.78 1.02168 -1.19998 0
M  V30 4392 C 421.057 1.72816 -0.916191 0
M  V30 4393 C 421.437 2.03081 0.576325 0
M  V30 4394 O 420.785 1.69122 1.53656 0
M  V30 4395 C 420.995 2.9997 -1.78378 0
M  V30 4396 C 422.343 3.73336 -2.02251 0
M  V30 4397 O 423.367 3.09914 -1.75589 0
M  V30 4398 O 422.226 4.87371 -2.47249 0
M  V30 4399 H 419.32 0.752924 -0.342103 0
M  V30 4400 H 421.866 1.08062 -1.30846 0
M  V30 4401 H 420.638 2.73888 -2.79466 0
M  V30 4402 H 420.261 3.72464 -1.39126 0
M  V30 4403 N 421.258 1.00505 1.21394 0
M  V30 4404 C 422.483 0.706367 1.95001 0
M  V30 4405 C 422.908 -0.72463 1.73582 0
M  V30 4406 O 422.266 -1.49702 1.0227 0
M  V30 4407 C 422.314 1.03299 3.45487 0
M  V30 4408 O 421.418 0.138275 4.12168 0
M  V30 4409 H 420.759 0.263175 0.609619 0
M  V30 4410 H 423.289 1.34531 1.54151 0
M  V30 4411 H 423.299 0.979872 3.96059 0
M  V30 4412 H 421.974 2.07567 3.60401 0
M  V30 4413 H 420.551 0.247928 3.72075 0
M  V30 4414 N 422.737 -1.36956 0.779787 0
M  V30 4415 C 423.667 -2.32761 0.185651 0
M  V30 4416 C 424.648 -1.56177 -0.673989 0
M  V30 4417 O 425.833 -1.84378 -0.609797 0
M  V30 4418 C 422.963 -3.40418 -0.687964 0
M  V30 4419 C 421.917 -4.27941 0.0710102 0
M  V30 4420 C 421.243 -5.26681 -0.922573 0
M  V30 4421 C 422.543 -5.07006 1.25467 0
M  V30 4422 H 424.237 -2.82698 0.986008 0
M  V30 4423 H 421.783 -1.3592 0.475592 0
M  V30 4424 H 423.736 -4.06423 -1.11348 0
M  V30 4425 H 422.46 -2.89025 -1.52093 0
M  V30 4426 H 421.119 -3.63478 0.47739 0
M  V30 4427 H 420.767 -4.71565 -1.7503 0
M  V30 4428 H 420.467 -5.86103 -0.419237 0
M  V30 4429 H 421.991 -5.9556 -1.34686 0
M  V30 4430 H 423.405 -5.66105 0.905401 0
M  V30 4431 H 421.802 -5.75793 1.69063 0
M  V30 4432 H 422.872 -4.3921 2.05481 0
M  V30 4433 N 424.215 -0.530993 -1.48385 0
M  V30 4434 C 425.445 -0.00133928 -2.066 0
M  V30 4435 C 425.853 1.28599 -1.38777 0
M  V30 4436 O 425.196 1.77599 -0.469495 0
M  V30 4437 C 425.258 0.292137 -3.58311 0
M  V30 4438 C 424.922 -0.901864 -4.48013 0
M  V30 4439 C 425.919 -1.80053 -4.87726 0
M  V30 4440 C 423.604 -1.10915 -4.89901 0
M  V30 4441 C 425.598 -2.89038 -5.68098 0
M  V30 4442 C 423.285 -2.20213 -5.70043 0
M  V30 4443 C 424.283 -3.09107 -6.0905 0
M  V30 4444 O 423.971 -4.16514 -6.87583 0
M  V30 4445 H 423.703 -0.0308475 -0.675296 0
M  V30 4446 H 426.257 -0.736335 -1.91748 0
M  V30 4447 H 424.487 1.08112 -3.7128 0
M  V30 4448 H 426.176 0.763994 -3.98645 0
M  V30 4449 H 426.942 -1.65234 -4.55986 0
M  V30 4450 H 422.821 -0.426498 -4.59023 0
M  V30 4451 H 426.365 -3.58451 -5.98464 0
M  V30 4452 H 422.262 -2.35016 -6.01197 0
M  V30 4453 H 423.03 -4.14237 -7.05939 0
M  V30 4454 N 425.693 1.55336 -0.266172 0
M  V30 4455 C 426.603 2.2583 0.635458 0
M  V30 4456 C 427.619 1.28106 1.17749 0
M  V30 4457 O 428.795 1.61024 1.20968 0
M  V30 4458 C 425.86 2.95879 1.80712 0
M  V30 4459 C 424.921 4.09059 1.30265 0
M  V30 4460 C 424.154 4.75759 2.41846 0
M  V30 4461 O 424.377 4.41622 3.61007 0
M  V30 4462 O 423.311 5.63888 2.1051 0
M  V30 4463 H 427.137 3.03631 0.0646693 0
M  V30 4464 H 424.722 1.49361 -0.0339177 0
M  V30 4465 H 426.604 3.39932 2.49047 0
M  V30 4466 H 425.279 2.21002 2.36516 0
M  V30 4467 H 424.186 3.69482 0.586019 0
M  V30 4468 H 425.519 4.85811 0.790458 0
M  V30 4469 N 427.171 -0.0066808 1.57599 0
M  V30 4470 C 428.419 -0.691552 1.899 0
M  V30 4471 C 428.74 -1.74682 0.866672 0
M  V30 4472 O 428.01 -1.95661 -0.0968189 0
M  V30 4473 H 426.59 -0.258416 0.700878 0
M  V30 4474 H 429.252 0.0326655 1.94873 0
M  V30 4475 H 428.348 -1.16702 2.8946 0
M  V30 4476 N 428.649 -1.55105 -0.279332 0
M  V30 4477 C 429.898 -1.74618 -1.00952 0
M  V30 4478 C 430.211 -0.551096 -1.87676 0
M  V30 4479 O 431.417 -0.628507 -2.64125 0
M  V30 4480 C 429.873 -3.09025 -1.84476 0
M  V30 4481 C 429.481 -4.36081 -1.0265 0
M  V30 4482 C 431.225 -3.37891 -2.56963 0
M  V30 4483 C 429.132 -5.6153 -1.85576 0
M  V30 4484 H 428.062 -0.650868 -0.38064 0
M  V30 4485 H 430.713 -1.81569 -0.265475 0
M  V30 4486 H 429.095 -2.96095 -2.62952 0
M  V30 4487 H 430.269 -4.59909 -0.286354 0
M  V30 4488 H 428.584 -4.14312 -0.416464 0
M  V30 4489 H 431.181 -4.28822 -3.19399 0
M  V30 4490 H 431.524 -2.57737 -3.26921 0
M  V30 4491 H 432.057 -3.5189 -1.85522 0
M  V30 4492 H 428.796 -6.44413 -1.2005 0
M  V30 4493 H 428.316 -5.41854 -2.57204 0
M  V30 4494 H 429.995 -5.99594 -2.43096 0
M  V30 4495 N 430.127 0.543554 -1.4793 0
M  V30 4496 C 431.404 1.30458 -1.4574 0
M  V30 4497 C 431.784 2.1048 -0.161692 0
M  V30 4498 O 431.132 2.11831 0.856734 0
M  V30 4499 C 431.342 2.19754 -2.71126 0
M  V30 4500 C 432.69 2.80334 -3.18901 0
M  V30 4501 O 433.714 2.30049 -2.71948 0
M  V30 4502 O 432.573 3.71766 -4.00565 0
M  V30 4503 H 429.667 0.588117 -0.581418 0
M  V30 4504 H 432.213 0.561328 -1.60147 0
M  V30 4505 H 430.985 1.60316 -3.56952 0
M  V30 4506 H 430.608 3.01351 -2.59371 0
M  V30 4507 N 431.605 1.3629 0.791371 0
M  V30 4508 C 432.852 1.30412 1.54916 0
M  V30 4509 C 433.18 -0.117162 1.94147 0
M  V30 4510 O 432.435 -1.08599 1.62803 0
M  V30 4511 C 432.734 2.17068 2.8393 0
M  V30 4512 C 432.4 3.65645 2.63846 0
M  V30 4513 C 431.062 4.0614 2.58077 0
M  V30 4514 C 433.414 4.59855 2.45322 0
M  V30 4515 C 430.742 5.3899 2.31748 0
M  V30 4516 C 433.094 5.9292 2.2052 0
M  V30 4517 C 431.758 6.32542 2.13183 0
M  V30 4518 H 431.028 0.47721 0.566879 0
M  V30 4519 H 433.675 1.68325 0.913172 0
M  V30 4520 H 431.98 1.72085 3.51986 0
M  V30 4521 H 433.677 2.09846 3.4171 0
M  V30 4522 H 430.267 3.33518 2.69191 0
M  V30 4523 H 434.451 4.29443 2.48782 0
M  V30 4524 H 429.707 5.68672 2.24548 0
M  V30 4525 H 433.881 6.65487 2.05182 0
M  V30 4526 H 431.508 7.35412 1.92544 0
M  V30 4527 N 433.083 -1.0153 1.20538 0
M  V30 4528 C 434.313 -1.78487 1.04048 0
M  V30 4529 C 434.721 -1.84631 -0.413292 0
M  V30 4530 O 434.064 -1.29919 -1.29872 0
M  V30 4531 C 434.126 -3.24367 1.55003 0
M  V30 4532 C 433.79 -3.41827 3.0332 0
M  V30 4533 C 434.787 -3.30941 4.00966 0
M  V30 4534 C 432.472 -3.67602 3.42307 0
M  V30 4535 C 434.466 -3.45577 5.35589 0
M  V30 4536 C 432.153 -3.81881 4.77085 0
M  V30 4537 C 433.151 -3.70874 5.73534 0
M  V30 4538 O 432.839 -3.84714 7.05868 0
M  V30 4539 H 432.571 -0.568108 0.366373 0
M  V30 4540 H 435.125 -1.28677 1.60098 0
M  V30 4541 H 433.355 -3.75266 0.933397 0
M  V30 4542 H 435.044 -3.82963 1.34514 0
M  V30 4543 H 435.81 -3.10964 3.72191 0
M  V30 4544 H 431.689 -3.75256 2.67776 0
M  V30 4545 H 435.233 -3.36902 6.10854 0
M  V30 4546 H 431.13 -4.01359 5.0555 0
M  V30 4547 H 431.898 -4.01724 7.13134 0
M  V30 4548 N 434.561 -1.01147 -1.20859 0
M  V30 4549 C 435.789 -0.716911 -1.94082 0
M  V30 4550 C 436.204 0.721568 -1.74467 0
M  V30 4551 O 435.561 1.48889 -1.05539 0
M  V30 4552 C 435.612 -1.03662 -3.46318 0
M  V30 4553 O 435.333 -2.4186 -3.65288 0
M  V30 4554 C 436.834 -0.762386 -4.36695 0
M  V30 4555 H 434.054 -0.26367 -0.617024 0
M  V30 4556 H 436.598 -1.35127 -1.53496 0
M  V30 4557 H 434.753 -0.447757 -3.84804 0
M  V30 4558 H 435.167 -2.53224 -4.59323 0
M  V30 4559 H 436.641 -1.03621 -5.42187 0
M  V30 4560 H 437.118 0.303514 -4.3815 0
M  V30 4561 H 437.724 -1.33316 -4.03865 0
M  V30 4562 N 436.039 1.36541 -0.78704 0
M  V30 4563 C 437.264 2.0409 -0.369053 0
M  V30 4564 C 437.689 1.58957 1.00569 0
M  V30 4565 O 437.047 0.756926 1.64743 0
M  V30 4566 C 437.095 3.57924 -0.438466 0
M  V30 4567 O 436.199 4.08642 0.555479 0
M  V30 4568 H 435.54 0.645142 -0.157122 0
M  V30 4569 H 438.07 1.74545 -1.06749 0
M  V30 4570 H 438.08 4.06887 -0.301218 0
M  V30 4571 H 436.755 3.90127 -1.44132 0
M  V30 4572 H 435.332 3.70958 0.380088 0
M  V30 4573 N 437.518 0.538854 1.48102 0
M  V30 4574 C 438.767 0.0059532 2.01699 0
M  V30 4575 C 439.08 -1.34476 1.42041 0
M  V30 4576 O 440.286 -1.96653 1.87189 0
M  V30 4577 C 438.742 -0.0397627 3.59878 0
M  V30 4578 C 438.35 1.30659 4.28523 0
M  V30 4579 C 440.094 -0.521024 4.2129 0
M  V30 4580 C 438.001 1.22098 5.78659 0
M  V30 4581 H 436.931 -0.00154456 0.753998 0
M  V30 4582 H 439.582 0.683963 1.70277 0
M  V30 4583 H 437.964 -0.783037 3.88181 0
M  V30 4584 H 439.138 2.06613 4.11883 0
M  V30 4585 H 437.453 1.7243 3.79021 0
M  V30 4586 H 440.05 -0.603184 5.31287 0
M  V30 4587 H 440.393 -1.52885 3.8721 0
M  V30 4588 H 440.926 0.166834 3.9745 0
M  V30 4589 H 437.665 2.20424 6.17328 0
M  V30 4590 H 437.185 0.50295 5.97688 0
M  V30 4591 H 438.864 0.915345 6.40492 0
M  V30 4592 N 438.996 -1.55193 0.274407 0
M  V30 4593 C 440.224 -2.03987 -0.345943 0
M  V30 4594 C 440.639 -1.15279 -1.4952 0
M  V30 4595 O 439.996 -0.172759 -1.8168 0
M  V30 4596 C 440.047 -3.51898 -0.827631 0
M  V30 4597 O 439.768 -4.37231 0.275855 0
M  V30 4598 C 441.269 -4.16577 -1.51587 0
M  V30 4599 H 438.489 -0.666335 -0.0789892 0
M  V30 4600 H 441.033 -2.00423 0.406294 0
M  V30 4601 H 439.188 -3.55909 -1.52996 0
M  V30 4602 H 439.602 -5.24415 -0.0943638 0
M  V30 4603 H 441.076 -5.21678 -1.80433 0
M  V30 4604 H 441.553 -3.64707 -2.44716 0
M  V30 4605 H 442.159 -4.16568 -0.857409 0
M  V30 4606 N 440.474 -0.00167713 -1.576 0
M  V30 4607 C 441.89 0.354422 -1.55615 0
M  V30 4608 C 442.09 1.74679 -1.00447 0
M  V30 4609 O 441.146 2.4428 -0.639022 0
M  V30 4610 C 442.459 0.22812 -2.99833 0
M  V30 4611 C 444.007 0.302934 -3.11531 0
M  V30 4612 C 444.482 0.205737 -4.57538 0
M  V30 4613 N 445.973 0.263584 -4.62449 0
M  V30 4614 C 446.708 0.211742 -5.73009 0
M  V30 4615 N 446.204 0.110399 -6.92712 0
M  V30 4616 N 447.997 0.263729 -5.61481 0
M  V30 4617 H 440.148 -0.912498 -1.918 0
M  V30 4618 H 442.411 -0.349928 -0.881053 0
M  V30 4619 H 442.117 -0.729934 -3.44042 0
M  V30 4620 H 441.991 1.00951 -3.6344 0
M  V30 4621 H 444.378 1.25143 -2.67251 0
M  V30 4622 H 444.459 -0.508357 -2.50698 0
M  V30 4623 H 444.103 -0.739225 -5.02492 0
M  V30 4624 H 444.033 1.03554 -5.16318 0
M  V30 4625 H 446.524 0.343173 -3.76339 0
M  V30 4626 H 446.837 0.0767828 -7.72762 0
M  V30 4627 H 445.182 0.0760025 -6.94958 0
M  V30 4628 H 448.373 0.34111 -4.66855 0
M  V30 4629 H 448.546 0.219862 -6.47627 0
M  V30 4630 N 441.952 1.55251 0.271103 0
M  V30 4631 C 442.915 1.87484 1.31842 0
M  V30 4632 C 443.915 0.749545 1.42262 0
M  V30 4633 O 445.105 1.01771 1.4138 0
M  V30 4634 C 442.237 2.0818 2.69951 0
M  V30 4635 H 443.43 2.81108 1.0449 0
M  V30 4636 H 440.983 1.47771 0.509258 0
M  V30 4637 H 441.718 1.16944 3.02481 0
M  V30 4638 H 441.503 2.90114 2.63774 0
M  V30 4639 H 442.993 2.34385 3.4562 0
M  V30 4640 N 443.43 -0.535701 1.48216 0
M  V30 4641 C 444.846 -0.863701 1.3421 0
M  V30 4642 C 445.046 -1.98458 0.34879 0
M  V30 4643 O 444.102 -2.51432 -0.23204 0
M  V30 4644 C 445.415 -1.23662 2.74095 0
M  V30 4645 C 446.963 -1.34683 2.82541 0
M  V30 4646 C 447.438 -1.75322 4.23115 0
M  V30 4647 N 448.929 -1.82434 4.2576 0
M  V30 4648 C 449.664 -2.15252 5.31464 0
M  V30 4649 N 449.16 -2.46533 6.47452 0
M  V30 4650 N 450.953 -2.16209 5.18855 0
M  V30 4651 H 443.104 0.203965 2.11418 0
M  V30 4652 H 445.367 0.0286033 0.947568 0
M  V30 4653 H 445.073 -0.486674 3.48316 0
M  V30 4654 H 444.947 -2.18805 3.07253 0
M  V30 4655 H 447.334 -2.08756 2.08579 0
M  V30 4656 H 447.415 -0.376756 2.5301 0
M  V30 4657 H 447.059 -1.01812 4.97591 0
M  V30 4658 H 446.989 -2.7337 4.50085 0
M  V30 4659 H 449.48 -1.6056 3.42095 0
M  V30 4660 H 449.793 -2.70662 7.23852 0
M  V30 4661 H 448.138 -2.44065 6.50736 0
M  V30 4662 H 451.329 -1.91224 4.2726 0
M  V30 4663 H 451.502 -2.41453 6.01335 0
M  V30 4664 N 444.908 -1.36708 -0.784132 0
M  V30 4665 C 446.155 -1.31231 -1.54222 0
M  V30 4666 C 446.483 0.106864 -1.94206 0
M  V30 4667 O 445.738 1.07734 -1.63376 0
M  V30 4668 C 446.037 -2.18571 -2.82774 0
M  V30 4669 C 445.703 -3.67039 -2.61903 0
M  V30 4670 C 444.365 -4.07503 -2.55919 0
M  V30 4671 C 446.717 -4.61149 -2.4288 0
M  V30 4672 C 444.045 -5.40211 -2.28886 0
M  V30 4673 C 446.397 -5.94081 -2.17373 0
M  V30 4674 C 445.061 -6.33664 -2.09825 0
M  V30 4675 H 444.331 -0.48021 -0.56434 0
M  V30 4676 H 446.978 -1.68807 -0.904233 0
M  V30 4677 H 445.283 -1.73949 -3.51068 0
M  V30 4678 H 446.98 -2.11655 -3.40592 0
M  V30 4679 H 443.57 -3.34941 -2.67418 0
M  V30 4680 H 447.754 -4.30756 -2.46501 0
M  V30 4681 H 443.01 -5.69855 -2.21529 0
M  V30 4682 H 447.184 -6.66566 -2.01649 0
M  V30 4683 H 444.811 -7.36423 -1.88641 0
M  V30 4684 N 446.386 1.0089 -1.21074 0
M  V30 4685 C 447.296 2.13039 -0.982425 0
M  V30 4686 C 448.312 1.73881 0.0642161 0
M  V30 4687 O 449.488 2.01012 -0.12496 0
M  V30 4688 C 446.553 3.42377 -0.545803 0
M  V30 4689 C 445.614 3.95731 -1.6642 0
M  V30 4690 C 444.847 5.18896 -1.24832 0
M  V30 4691 O 445.07 5.70273 -0.120265 0
M  V30 4692 O 444.004 5.65597 -2.05873 0
M  V30 4693 H 447.83 2.35175 -1.92163 0
M  V30 4694 H 445.415 1.1142 -0.995285 0
M  V30 4695 H 447.297 4.20244 -0.311912 0
M  V30 4696 H 445.972 3.21639 0.364727 0
M  V30 4697 H 444.879 3.19108 -1.95246 0
M  V30 4698 H 446.212 4.20872 -2.55201 0
M  V30 4699 N 447.864 1.01787 1.20321 0
M  V30 4700 C 448.774 0.598898 2.26827 0
M  V30 4701 C 449.79 -0.36418 1.70146 0
M  V30 4702 O 450.966 -0.224812 2.00141 0
M  V30 4703 C 448.031 -0.0549769 3.46656 0
M  V30 4704 C 447.092 0.954205 4.18561 0
M  V30 4705 C 446.325 0.331439 5.3267 0
M  V30 4706 O 446.548 -0.86851 5.63749 0
M  V30 4707 O 445.482 1.0488 5.92692 0
M  V30 4708 H 449.308 1.48562 2.64883 0
M  V30 4709 H 446.893 0.787434 1.26964 0
M  V30 4710 H 448.775 -0.420102 4.19301 0
M  V30 4711 H 447.45 -0.915876 3.10473 0
M  V30 4712 H 446.357 1.37072 3.48083 0
M  V30 4713 H 447.69 1.78511 4.58688 0
M  V30 4714 N 449.342 -1.36122 0.79427 0
M  V30 4715 C 450.272 -2.32551 0.210328 0
M  V30 4716 C 451.253 -1.56884 -0.657386 0
M  V30 4717 O 452.438 -1.85014 -0.590207 0
M  V30 4718 C 449.568 -3.41128 -0.651819 0
M  V30 4719 C 448.522 -4.27842 0.116395 0
M  V30 4720 C 447.848 -5.2763 -0.86666 0
M  V30 4721 C 449.148 -5.05647 1.30837 0
M  V30 4722 H 450.842 -2.81636 1.01594 0
M  V30 4723 H 448.388 -1.35407 0.489981 0
M  V30 4724 H 450.341 -4.07581 -1.07031 0
M  V30 4725 H 449.065 -2.90622 -1.49019 0
M  V30 4726 H 447.724 -3.62952 0.515915 0
M  V30 4727 H 447.372 -4.73395 -1.70019 0
M  V30 4728 H 447.072 -5.86514 -0.35705 0
M  V30 4729 H 448.596 -5.96955 -1.28361 0
M  V30 4730 H 450.01 -5.65113 0.965393 0
M  V30 4731 H 448.407 -5.73967 1.75161 0
M  V30 4732 H 449.477 -4.37006 2.10128 0
M  V30 4733 N 450.82 -0.546701 -1.47814 0
M  V30 4734 C 451.768 0.220048 -2.31557 0
M  V30 4735 C 452.762 0.919472 -1.42275 0
M  V30 4736 O 453.968 0.841953 -1.59095 0
M  V30 4737 H 450.343 0.0898334 -0.746615 0
M  V30 4738 H 452.314 -0.505589 -2.94086 0
M  V30 4739 C 451.063 1.24353 -3.24702 0
M  V30 4740 H 450.386 0.714758 -3.93359 0
M  V30 4741 H 451.826 1.75112 -3.8615 0
M  V30 4742 C 450.285 2.28593 -2.47481 0
M  V30 4743 O 450.815 3.35334 -2.21165 0
M  V30 4744 N 449.021 2.02244 -2.08676 0
M  V30 4745 H 448.568 1.15455 -2.30278 0
M  V30 4746 H 448.526 2.72207 -1.57323 0
M  V30 4747 N 452.299 1.55045 -0.282633 0
M  V30 4748 C 453.262 2.21515 0.588539 0
M  V30 4749 C 454.262 1.19535 1.07554 0
M  V30 4750 O 455.452 1.44391 0.974514 0
M  V30 4751 C 452.584 2.88704 1.8128 0
M  V30 4752 H 453.777 2.99899 0.00806397 0
M  V30 4753 H 451.33 1.56265 -0.0333067 0
M  V30 4754 H 452.065 2.14352 2.43359 0
M  V30 4755 H 451.85 3.63443 1.47144 0
M  V30 4756 H 453.34 3.39465 2.43214 0
M  V30 4757 N 453.777 0.010035 1.57597 0
M  V30 4758 C 455.054 -0.710296 1.82248 0
M  V30 4759 C 455.434 -1.91426 0.889911 0
M  V30 4760 O 454.782 -2.28424 -0.0590292 0
M  V30 4761 C 454.992 -1.10655 3.30993 0
M  V30 4762 C 456.34 -1.50621 3.96987 0
M  V30 4763 O 457.364 -1.20007 3.35375 0
M  V30 4764 O 456.223 -2.07587 5.05539 0
M  V30 4765 H 453.317 -0.34673 0.750804 0
M  V30 4766 H 455.863 0.0362578 1.69661 0
M  V30 4767 H 454.635 -0.248826 3.90508 0
M  V30 4768 H 454.258 -1.91189 3.48615 0
M  V30 4769 N 455.255 -1.55392 -0.262866 0
M  V30 4770 C 456.185 -1.91978 -1.32917 0
M  V30 4771 C 457.166 -0.7828 -1.51017 0
M  V30 4772 O 458.351 -1.04178 -1.63892 0
M  V30 4773 C 455.481 -2.20055 -2.68687 0
M  V30 4774 C 454.435 -3.35854 -2.65304 0
M  V30 4775 C 453.761 -3.49435 -4.04721 0
M  V30 4776 C 455.061 -4.71977 -2.23685 0
M  V30 4777 H 456.755 -2.81292 -1.02544 0
M  V30 4778 H 454.301 -1.3534 -0.491846 0
M  V30 4779 H 456.254 -2.44237 -3.43404 0
M  V30 4780 H 454.978 -1.27551 -3.00663 0
M  V30 4781 H 453.637 -3.11655 -1.93045 0
M  V30 4782 H 453.285 -2.54379 -4.33936 0
M  V30 4783 H 452.985 -4.27297 -4.0335 0
M  V30 4784 H 454.509 -3.7592 -4.81161 0
M  V30 4785 H 455.923 -4.95637 -2.88127 0
M  V30 4786 H 454.32 -5.52828 -2.33456 0
M  V30 4787 H 455.39 -4.70115 -1.18827 0
M  V30 4788 N 456.733 0.527833 -1.48498 0
M  V30 4789 C 457.98 1.28354 -1.56625 0
M  V30 4790 C 458.308 1.93 -0.241096 0
M  V30 4791 O 457.563 1.79967 0.768798 0
M  V30 4792 C 457.862 2.39275 -2.65485 0
M  V30 4793 C 457.528 1.92268 -4.07853 0
M  V30 4794 C 456.19 1.79166 -4.46602 0
M  V30 4795 C 458.542 1.56771 -4.97064 0
M  V30 4796 C 455.87 1.28905 -5.72364 0
M  V30 4797 C 458.222 1.07972 -6.23318 0
M  V30 4798 C 456.886 0.934887 -6.60921 0
M  V30 4799 H 456.156 0.469682 -0.573131 0
M  V30 4800 H 458.803 0.588781 -1.82224 0
M  V30 4801 H 457.108 3.1443 -2.33754 0
M  V30 4802 H 458.805 2.974 -2.68988 0
M  V30 4803 H 455.395 2.03417 -3.77252 0
M  V30 4804 H 459.579 1.65753 -4.67803 0
M  V30 4805 H 454.835 1.16381 -6.00221 0
M  V30 4806 H 459.009 0.795775 -6.91838 0
M  V30 4807 H 456.636 0.543231 -7.58257 0
M  V30 4808 N 458.211 1.37122 0.776871 0
M  V30 4809 C 459.627 1.1781 1.07671 0
M  V30 4810 C 459.827 0.0107454 2.01497 0
M  V30 4811 O 458.883 -0.650756 2.4397 0
M  V30 4812 C 460.196 2.49451 1.67913 0
M  V30 4813 C 461.744 2.55927 1.80195 0
M  V30 4814 C 462.219 3.87686 2.43851 0
M  V30 4815 N 463.71 3.891 2.51307 0
M  V30 4816 C 464.445 4.87797 3.014 0
M  V30 4817 N 463.941 5.96888 3.51705 0
M  V30 4818 N 465.734 4.75205 3.00227 0
M  V30 4819 H 457.885 2.11843 0.153778 0
M  V30 4820 H 460.148 0.938927 0.130844 0
M  V30 4821 H 459.854 3.35207 1.06439 0
M  V30 4822 H 459.728 2.66169 2.67271 0
M  V30 4823 H 462.115 1.70582 2.40803 0
M  V30 4824 H 462.196 2.43097 0.796069 0
M  V30 4825 H 461.84 4.73444 1.83884 0
M  V30 4826 H 461.77 3.97817 3.45035 0
M  V30 4827 H 464.261 3.10293 2.157 0
M  V30 4828 H 464.574 6.68155 3.88316 0
M  V30 4829 H 462.919 6.0054 3.49824 0
M  V30 4830 H 466.11 3.89103 2.60224 0
M  V30 4831 H 466.283 5.52279 3.38957 0
M  V30 4832 N 459.689 -1.00246 1.21608 0
M  V30 4833 C 460.937 -1.73717 1.0328 0
M  V30 4834 C 461.258 -1.90102 -0.434318 0
M  V30 4835 O 460.528 -1.45376 -1.31311 0
M  V30 4836 H 459.108 -0.643613 0.379172 0
M  V30 4837 H 461.77 -1.20787 1.52959 0
M  V30 4838 H 460.866 -2.73535 1.50283 0
M  V30 4839 N 461.167 -1.02423 -1.1978 0
M  V30 4840 C 462.395 -0.737456 -1.93311 0
M  V30 4841 C 462.81 0.703023 -1.75223 0
M  V30 4842 O 462.167 1.47761 -1.07112 0
M  V30 4843 C 462.218 -1.0733 -3.45199 0
M  V30 4844 O 461.939 -2.4572 -3.62702 0
M  V30 4845 C 463.44 -0.80866 -4.35862 0
M  V30 4846 H 460.66 -0.2702 -0.614193 0
M  V30 4847 H 463.204 -1.36747 -1.52054 0
M  V30 4848 H 461.359 -0.488545 -3.84307 0
M  V30 4849 H 461.773 -2.58081 -4.56612 0
M  V30 4850 H 463.247 -1.09365 -5.41057 0
M  V30 4851 H 463.724 0.257025 -4.38447 0
M  V30 4852 H 464.33 -1.37592 -4.02428 0
M  V30 4853 N 462.645 1.35699 -0.801477 0
M  V30 4854 C 463.575 2.32436 -0.222658 0
M  V30 4855 C 464.556 1.5723 0.649057 0
M  V30 4856 O 465.741 1.85324 0.580387 0
M  V30 4857 C 462.871 3.41469 0.633719 0
M  V30 4858 C 461.825 4.27774 -0.139083 0
M  V30 4859 C 461.151 5.28082 0.838666 0
M  V30 4860 C 462.451 5.04946 -1.33517 0
M  V30 4861 H 464.145 2.81094 -1.03086 0
M  V30 4862 H 461.691 1.35146 -0.497155 0
M  V30 4863 H 463.644 4.08143 1.04868 0
M  V30 4864 H 462.368 2.91408 1.47475 0
M  V30 4865 H 461.027 3.62673 -0.535156 0
M  V30 4866 H 460.675 4.7429 1.67506 0
M  V30 4867 H 460.375 5.86695 0.32594 0
M  V30 4868 H 461.899 5.97628 1.25194 0
M  V30 4869 H 463.313 5.64593 -0.995349 0
M  V30 4870 H 461.71 5.7303 -1.78202 0
M  V30 4871 H 462.78 4.35886 -2.12442 0
M  V30 4872 N 464.123 0.554532 1.47522 0
M  V30 4873 C 465.4 -0.0360704 1.95567 0
M  V30 4874 C 465.78 -1.48828 1.49711 0
M  V30 4875 O 465.128 -2.16366 0.734717 0
M  V30 4876 C 465.338 0.106631 3.48837 0
M  V30 4877 C 466.686 -0.0400899 4.24581 0
M  V30 4878 O 467.71 0.0340453 3.56184 0
M  V30 4879 O 466.569 -0.199111 5.46137 0
M  V30 4880 H 463.663 -0.0656294 0.824392 0
M  V30 4881 H 466.209 0.620867 1.57935 0
M  V30 4882 H 464.981 1.11727 3.7501 0
M  V30 4883 H 464.604 -0.58804 3.93227 0
M  V30 4884 N 465.601 -1.54893 0.290851 0
M  V30 4885 C 467.012 -1.85584 -0.203816 0
M  V30 4886 C 467.363 -1.21285 -1.54222 0
M  V30 4887 O 466.488 -0.506841 -2.10381 0
M  V30 4888 C 467.083 -3.367 -0.376595 0
M  V30 4889 C 465.642 -3.6746 -0.815485 0
M  V30 4890 C 464.789 -2.77178 0.0821087 0
M  V30 4891 H 467.74 -1.50208 0.512175 0
M  V30 4892 H 467.761 -3.60656 -1.21275 0
M  V30 4893 H 467.273 -3.8347 0.59767 0
M  V30 4894 H 465.374 -3.26201 -1.80066 0
M  V30 4895 H 465.487 -4.7478 -0.641905 0
M  V30 4896 H 463.851 -2.50925 -0.436895 0
M  V30 4897 H 464.634 -3.26767 1.05254 0
M  V30 4898 N 467.08 -0.0183926 -1.57589 0
M  V30 4899 C 468.326 0.663543 -1.91638 0
M  V30 4900 C 468.659 1.72392 -0.894134 0
M  V30 4901 O 467.934 1.94316 0.0846449 0
M  V30 4902 C 468.217 1.28984 -3.36207 0
M  V30 4903 C 468.07 0.239761 -4.49161 0
M  V30 4904 C 469.389 2.2109 -3.80536 0
M  V30 4905 H 466.508 0.239746 -0.696915 0
M  V30 4906 H 469.15 -0.073456 -1.89858 0
M  V30 4907 H 467.3 1.91799 -3.37854 0
M  V30 4908 H 468.972 -0.390119 -4.59647 0
M  V30 4909 H 467.215 -0.435972 -4.31604 0
M  V30 4910 H 467.886 0.717383 -5.47319 0
M  V30 4911 H 470.362 1.68273 -3.80557 0
M  V30 4912 H 469.238 2.61869 -4.82406 0
M  V30 4913 H 469.499 3.09764 -3.15434 0
M  V30 4914 N 468.558 1.5553 0.254621 0
M  V30 4915 C 469.468 1.92789 1.33677 0
M  V30 4916 C 470.484 0.827356 1.53071 0
M  V30 4917 O 471.66 1.12807 1.66843 0
M  V30 4918 C 468.725 2.20827 2.67275 0
M  V30 4919 C 467.786 3.4427 2.5647 0
M  V30 4920 C 467.019 3.70961 3.83697 0
M  V30 4921 O 467.242 2.99852 4.85227 0
M  V30 4922 O 466.176 4.64491 3.82794 0
M  V30 4923 H 470.002 2.84945 1.05071 0
M  V30 4924 H 467.587 1.42312 0.454723 0
M  V30 4925 H 469.469 2.40204 3.46237 0
M  V30 4926 H 468.144 1.31851 2.9563 0
M  V30 4927 H 467.051 3.30209 1.75821 0
M  V30 4928 H 468.384 4.33524 2.33062 0
M  V30 4929 N 470.036 -0.519951 1.48776 0
M  V30 4930 C 470.983 -1.62352 1.64044 0
M  V30 4931 C 471.953 -1.58945 0.482251 0
M  V30 4932 O 473.138 -1.77219 0.706971 0
M  V30 4933 C 470.278 -3.00579 1.69547 0
M  V30 4934 C 469.391 -3.14145 2.96541 0
M  V30 4935 C 468.526 -4.42991 2.93142 0
M  V30 4936 C 467.565 -4.50122 4.14797 0
M  V30 4937 N 466.702 -5.7037 4.09418 0
M  V30 4938 H 471.542 -1.48643 2.58281 0
M  V30 4939 H 469.079 -0.723516 1.28077 0
M  V30 4940 H 471.037 -3.80671 1.70719 0
M  V30 4941 H 469.667 -3.13036 0.787918 0
M  V30 4942 H 468.719 -2.27239 3.05068 0
M  V30 4943 H 470.031 -3.15275 3.86527 0
M  V30 4944 H 469.185 -5.31385 2.92772 0
M  V30 4945 H 467.924 -4.44398 2.00902 0
M  V30 4946 H 466.929 -3.60133 4.15433 0
M  V30 4947 H 468.154 -4.50445 5.08208 0
M  V30 4948 H 466.1 -5.72655 3.20004 0
M  V30 4949 H 466.017 -5.73036 4.93119 0
M  V30 4950 H 467.285 -6.61023 4.13121 0
M  V30 4951 N 471.514 -1.37532 -0.769588 0
M  V30 4952 C 472.477 -1.33292 -1.86456 0
M  V30 4953 C 473.477 -0.236537 -1.59051 0
M  V30 4954 O 474.667 -0.492511 -1.67093 0
M  V30 4955 C 471.799 -1.07118 -3.23633 0
M  V30 4956 H 472.992 -2.30692 -1.91628 0
M  V30 4957 H 470.545 -1.22593 -0.969572 0
M  V30 4958 H 471.28 -0.102578 -3.24138 0
M  V30 4959 H 471.065 -1.86479 -3.44917 0
M  V30 4960 H 472.555 -1.06806 -4.03711 0
M  V30 4961 N 472.992 0.995999 -1.22138 0
M  V30 4962 C 473.922 2.10387 -1.01289 0
M  V30 4963 C 474.903 1.69975 0.0651454 0
M  V30 4964 O 476.088 1.9396 -0.0964628 0
M  V30 4965 C 473.218 3.42312 -0.586517 0
M  V30 4966 C 472.172 3.96558 -1.61014 0
M  V30 4967 C 471.498 5.24494 -1.0397 0
M  V30 4968 C 472.798 4.27595 -2.99933 0
M  V30 4969 H 474.492 2.28086 -1.93951 0
M  V30 4970 H 472.038 1.09607 -0.933928 0
M  V30 4971 H 473.991 4.19223 -0.427793 0
M  V30 4972 H 472.715 3.24431 0.375761 0
M  V30 4973 H 471.374 3.21776 -1.75658 0
M  V30 4974 H 471.022 5.02953 -0.0688703 0
M  V30 4975 H 470.722 5.61755 -1.72352 0
M  V30 4976 H 472.246 6.04042 -0.892494 0
M  V30 4977 H 473.66 4.95315 -2.8868 0
M  V30 4978 H 472.057 4.76021 -3.6541 0
M  V30 4979 H 473.127 3.35498 -3.50099 0
M  V30 4980 N 474.47 1.03057 1.19235 0
M  V30 4981 C 475.886 0.747947 1.40989 0
M  V30 4982 C 476.086 -0.666752 1.90149 0
M  V30 4983 O 475.142 -1.43249 2.07933 0
M  V30 4984 C 476.455 1.7855 2.41951 0
M  V30 4985 C 478.003 1.80524 2.55695 0
M  V30 4986 C 478.478 2.83243 3.59913 0
M  V30 4987 N 479.969 2.8207 3.67411 0
M  V30 4988 C 480.704 3.58204 4.47747 0
M  V30 4989 N 480.2 4.44057 5.31775 0
M  V30 4990 N 481.993 3.46738 4.42413 0
M  V30 4991 H 474.144 1.94367 0.856468 0
M  V30 4992 H 476.407 0.840412 0.438647 0
M  V30 4993 H 476.113 2.79973 2.12857 0
M  V30 4994 H 475.987 1.6092 3.41152 0
M  V30 4995 H 478.374 0.79778 2.84112 0
M  V30 4996 H 478.455 2.02229 1.56643 0
M  V30 4997 H 478.099 3.84161 3.32239 0
M  V30 4998 H 478.029 2.58795 4.5862 0
M  V30 4999 H 480.52 2.19803 3.074 0
M  V30 5000 H 480.833 4.98884 5.90199 0
M  V30 5001 H 479.178 4.48129 5.3123 0
M  V30 5002 H 482.369 2.79077 3.75811 0
M  V30 5003 H 482.542 4.06322 5.04783 0
M  V30 5004 N 475.948 -1.35272 0.808662 0
M  V30 5005 C 477.225 -1.93077 0.313181 0
M  V30 5006 C 477.605 -1.73847 -1.19752 0
M  V30 5007 O 476.953 -1.1087 -1.998 0
M  V30 5008 C 477.163 -3.41347 0.726859 0
M  V30 5009 C 478.511 -4.18493 0.717532 0
M  V30 5010 O 479.535 -3.4987 0.668535 0
M  V30 5011 O 478.394 -5.40937 0.777779 0
M  V30 5012 H 475.488 -0.822885 0.0824018 0
M  V30 5013 H 478.034 -1.44335 0.892499 0
M  V30 5014 H 476.806 -3.49082 1.76797 0
M  V30 5015 H 476.429 -3.97411 0.122461 0
M  V30 5016 N 477.426 -0.562348 -1.47226 0
M  V30 5017 C 478.389 0.172056 -2.28553 0
M  V30 5018 C 479.389 0.837928 -1.37242 0
M  V30 5019 O 480.579 0.693001 -1.59822 0
M  V30 5020 C 477.711 1.25223 -3.17068 0
M  V30 5021 H 478.904 -0.542401 -2.94954 0
M  V30 5022 H 476.457 -0.319493 -1.53 0
M  V30 5023 H 477.192 1.99892 -2.55369 0
M  V30 5024 H 476.977 0.779515 -3.84273 0
M  V30 5025 H 478.467 1.76791 -3.78332 0
M  V30 5026 N 478.904 1.54736 -0.299062 0
M  V30 5027 C 479.851 2.23448 0.577899 0
M  V30 5028 C 480.821 1.21637 1.13109 0
M  V30 5029 O 482.006 1.50252 1.17597 0
M  V30 5030 C 479.146 2.9774 1.74484 0
M  V30 5031 C 478.259 4.1432 1.22323 0
M  V30 5032 C 477.394 4.76199 2.35388 0
M  V30 5033 C 476.433 5.84927 1.80351 0
M  V30 5034 N 475.57 6.4077 2.86982 0
M  V30 5035 H 480.41 2.97996 -0.0146545 0
M  V30 5036 H 477.947 1.47088 -0.0190013 0
M  V30 5037 H 479.905 3.39045 2.43114 0
M  V30 5038 H 478.535 2.25572 2.30905 0
M  V30 5039 H 477.587 3.7797 0.429249 0
M  V30 5040 H 478.899 4.92659 0.780309 0
M  V30 5041 H 478.053 5.20346 3.11969 0
M  V30 5042 H 476.792 3.97188 2.83006 0
M  V30 5043 H 475.797 5.40207 1.02259 0
M  V30 5044 H 477.022 6.65821 1.3364 0
M  V30 5045 H 474.968 5.64643 3.33938 0
M  V30 5046 H 474.885 7.1445 2.4718 0
M  V30 5047 H 476.153 6.89574 3.63466 0
M  V30 5048 N 480.382 0.0267497 1.57577 0
M  V30 5049 C 481.312 -0.954308 2.13108 0
M  V30 5050 C 482.293 -1.34088 1.04663 0
M  V30 5051 O 483.478 -1.41992 1.32484 0
M  V30 5052 C 480.608 -2.23744 2.65624 0
M  V30 5053 C 479.562 -1.99168 3.78835 0
M  V30 5054 C 478.888 -3.33726 4.17769 0
M  V30 5055 C 480.188 -1.33277 5.0501 0
M  V30 5056 H 481.882 -0.491848 2.95332 0
M  V30 5057 H 479.428 -0.23514 1.42067 0
M  V30 5058 H 481.381 -2.92754 3.03106 0
M  V30 5059 H 480.105 -2.72151 1.80558 0
M  V30 5060 H 478.764 -1.32577 3.41788 0
M  V30 5061 H 478.412 -3.79888 3.29688 0
M  V30 5062 H 478.112 -3.18089 4.94058 0
M  V30 5063 H 479.636 -4.04008 4.57832 0
M  V30 5064 H 481.05 -1.92283 5.40093 0
M  V30 5065 H 479.447 -1.28045 5.8628 0
M  V30 5066 H 480.517 -0.305411 4.83937 0
M  V30 5067 N 481.861 -1.55662 -0.24637 0
M  V30 5068 C 483.138 -1.68272 -0.997198 0
M  V30 5069 C 483.518 -0.566785 -2.03349 0
M  V30 5070 O 482.866 0.429688 -2.24424 0
M  V30 5071 C 483.076 -3.08594 -1.63006 0
M  V30 5072 C 484.424 -3.6721 -2.13171 0
M  V30 5073 O 485.448 -3.11397 -1.72946 0
M  V30 5074 O 484.307 -4.65054 -2.87031 0
M  V30 5075 H 481.401 -0.684429 -0.464205 0
M  V30 5076 H 483.947 -1.67993 -0.240114 0
M  V30 5077 H 482.719 -3.81264 -0.880527 0
M  V30 5078 H 482.342 -3.12886 -2.45333 0
M  V30 5079 N 483.339 0.512053 -1.4905 0
M  V30 5080 C 484.286 1.6148 -1.64902 0
M  V30 5081 C 485.256 1.58687 -0.490673 0
M  V30 5082 O 486.441 1.76842 -0.71636 0
M  V30 5083 C 483.581 2.99676 -1.71139 0
M  V30 5084 C 482.694 3.12568 -2.98203 0
M  V30 5085 C 481.829 4.4143 -2.95487 0
M  V30 5086 C 480.868 4.47916 -4.17179 0
M  V30 5087 N 480.005 5.68191 -4.12437 0
M  V30 5088 H 484.845 1.47271 -2.59066 0
M  V30 5089 H 482.382 0.716713 -1.28459 0
M  V30 5090 H 484.34 3.79761 -1.72736 0
M  V30 5091 H 482.97 3.12614 -0.804508 0
M  V30 5092 H 482.022 2.25618 -3.06269 0
M  V30 5093 H 483.334 3.1322 -3.88194 0
M  V30 5094 H 482.488 5.29825 -2.95585 0
M  V30 5095 H 481.227 4.43326 -2.03256 0
M  V30 5096 H 480.232 3.57925 -4.17337 0
M  V30 5097 H 481.457 4.47744 -5.1059 0
M  V30 5098 H 479.403 5.7095 -3.23036 0
M  V30 5099 H 479.32 5.70413 -4.96151 0
M  V30 5100 H 480.588 6.58823 -4.16621 0
M  V30 5101 N 484.817 1.37938 0.762283 0
M  V30 5102 C 486.042 1.37059 1.55659 0
M  V30 5103 C 486.467 -0.0396123 1.88058 0
M  V30 5104 O 485.825 -1.01929 1.49934 0
M  V30 5105 C 485.873 2.22494 2.83776 0
M  V30 5106 O 484.977 1.63607 3.78559 0
M  V30 5107 H 484.318 0.467892 0.47114 0
M  V30 5108 H 486.848 1.81587 0.942725 0
M  V30 5109 H 486.858 2.36045 3.32786 0
M  V30 5110 H 485.533 3.24993 2.59524 0
M  V30 5111 H 484.11 1.5915 3.37233 0
M  V30 5112 N 486.295 -0.989507 1.22664 0
M  V30 5113 C 487.227 -2.0824 0.957542 0
M  V30 5114 C 488.24 -1.6267 -0.0651098 0
M  V30 5115 O 489.429 -1.77695 0.169312 0
M  V30 5116 C 486.529 -3.36298 0.419145 0
M  V30 5117 C 485.702 -4.10882 1.49982 0
M  V30 5118 C 484.761 -5.17221 0.967904 0
M  V30 5119 O 483.787 -5.44613 1.65487 0
M  V30 5120 N 484.989 -5.80124 -0.20896 0
M  V30 5121 H 487.754 -2.31904 1.89843 0
M  V30 5122 H 485.315 -1.15552 1.13399 0
M  V30 5123 H 487.307 -4.04671 0.0485451 0
M  V30 5124 H 485.877 -3.09671 -0.426937 0
M  V30 5125 H 485.097 -3.37092 2.04359 0
M  V30 5126 H 486.385 -4.57482 2.22682 0
M  V30 5127 H 485.783 -5.60244 -0.783818 0
M  V30 5128 H 484.34 -6.49715 -0.520913 0
M  V30 5129 N 487.773 -1.03688 -1.18687 0
M  V30 5130 C 489.022 -0.733235 -1.879 0
M  V30 5131 C 489.335 0.741745 -1.8099 0
M  V30 5132 O 490.541 1.15875 -2.4553 0
M  V30 5133 C 488.997 -1.26127 -3.37076 0
M  V30 5134 C 488.605 -2.76461 -3.52524 0
M  V30 5135 C 490.349 -1.03398 -4.11715 0
M  V30 5136 C 488.256 -3.22642 -4.95637 0
M  V30 5137 H 487.186 -0.270584 -0.703776 0
M  V30 5138 H 489.837 -1.25222 -1.34133 0
M  V30 5139 H 488.219 -0.670165 -3.90288 0
M  V30 5140 H 489.393 -3.41296 -3.09602 0
M  V30 5141 H 487.708 -2.97559 -2.91286 0
M  V30 5142 H 490.305 -1.3542 -5.17267 0
M  V30 5143 H 490.648 0.0289246 -4.1629 0
M  V30 5144 H 491.181 -1.5895 -3.64664 0
M  V30 5145 H 487.92 -4.28296 -4.96228 0
M  V30 5146 H 487.44 -2.62539 -5.39289 0
M  V30 5147 H 489.119 -3.16444 -5.64333 0
M  V30 5148 N 489.251 1.34841 -0.815825 0
M  V30 5149 C 490.201 2.27075 -0.205169 0
M  V30 5150 C 491.185 1.48205 0.626414 0
M  V30 5151 O 492.377 1.70306 0.482157 0
M  V30 5152 C 489.506 3.37322 0.637871 0
M  V30 5153 C 488.592 4.23609 -0.203948 0
M  V30 5154 N 488.983 4.89558 -1.27149 0
M  V30 5155 C 487.281 4.45998 0.0128971 0
M  V30 5156 C 487.982 5.53597 -1.7862 0
M  V30 5157 N 486.958 5.32535 -1.0912 0
M  V30 5158 H 490.76 2.75563 -1.02187 0
M  V30 5159 H 488.274 1.48477 -0.657912 0
M  V30 5160 H 490.271 4.02359 1.09146 0
M  V30 5161 H 488.931 2.90385 1.45281 0
M  V30 5162 H 489.942 4.9077 -1.65423 0
M  V30 5163 H 486.619 4.09837 0.79624 0
M  V30 5164 H 488.009 6.16184 -2.67892 0
M  V30 5165 N 490.729 0.570148 1.46925 0
M  V30 5166 C 492.006 -0.0153259 1.95594 0
M  V30 5167 C 492.386 -1.47232 1.51281 0
M  V30 5168 O 491.734 -2.15574 0.757624 0
M  V30 5169 C 491.944 0.143624 3.48704 0
M  V30 5170 C 493.292 0.00494484 4.246 0
M  V30 5171 O 494.316 0.0718214 3.56128 0
M  V30 5172 O 493.175 -0.141175 5.46318 0
M  V30 5173 H 490.269 -0.0568819 0.825041 0
M  V30 5174 H 492.815 0.637583 1.57267 0
M  V30 5175 H 491.587 1.15699 3.73804 0
M  V30 5176 H 491.21 -0.5463 3.93829 0
M  V30 5177 N 492.207 -1.54576 0.307264 0
M  V30 5178 C 493.456 -1.99442 -0.300976 0
M  V30 5179 C 493.769 -1.19928 -1.5452 0
M  V30 5180 O 494.975 -1.55092 -2.22842 0
M  V30 5181 C 493.431 -3.55084 -0.586809 0
M  V30 5182 C 493.039 -4.43413 0.639438 0
M  V30 5183 C 494.783 -4.0846 -1.1559 0
M  V30 5184 C 492.69 -5.90499 0.326411 0
M  V30 5185 H 491.62 -0.744986 -0.116238 0
M  V30 5186 H 494.271 -1.787 0.416947 0
M  V30 5187 H 492.653 -3.71749 -1.36449 0
M  V30 5188 H 493.827 -4.38522 1.41545 0
M  V30 5189 H 492.142 -4.00842 1.1276 0
M  V30 5190 H 494.739 -5.15926 -1.40445 0
M  V30 5191 H 495.082 -3.59443 -2.10015 0
M  V30 5192 H 495.615 -3.95362 -0.439778 0
M  V30 5193 H 492.354 -6.43676 1.23939 0
M  V30 5194 H 491.874 -5.98382 -0.412212 0
M  V30 5195 H 493.553 -6.46962 -0.0697393 0
M  V30 5196 N 493.685 -0.035106 -1.57561 0
M  V30 5197 C 494.931 0.64318 -1.92331 0
M  V30 5198 C 495.264 1.71434 -0.912368 0
M  V30 5199 O 494.539 1.94395 0.0640303 0
M  V30 5200 C 494.822 1.25411 -3.37556 0
M  V30 5201 C 494.675 0.192109 -4.4939 0
M  V30 5202 C 495.994 2.17041 -3.82859 0
M  V30 5203 H 493.113 0.232341 -0.699419 0
M  V30 5204 H 495.755 -0.0935889 -1.89769 0
M  V30 5205 H 493.905 1.88205 -3.39869 0
M  V30 5206 H 495.577 -0.438849 -4.59208 0
M  V30 5207 H 493.82 -0.481725 -4.31117 0
M  V30 5208 H 494.491 0.659292 -5.48049 0
M  V30 5209 H 496.967 1.64228 -3.8232 0
M  V30 5210 H 495.843 2.56738 -4.85157 0
M  V30 5211 H 496.104 3.06401 -3.18702 0
M  V30 5212 N 495.163 1.55791 0.238111 0
M  V30 5213 C 496.093 1.94068 1.29846 0
M  V30 5214 C 497.074 0.806726 1.49753 0
M  V30 5215 O 498.259 1.06772 1.62214 0
M  V30 5216 C 495.389 2.24302 2.65153 0
M  V30 5217 C 494.343 3.40032 2.59927 0
M  V30 5218 C 493.669 3.55829 3.99111 0
M  V30 5219 C 494.969 4.75476 2.16148 0
M  V30 5220 H 496.663 2.82887 0.980563 0
M  V30 5221 H 494.209 1.36105 0.470253 0
M  V30 5222 H 496.162 2.4967 3.39475 0
M  V30 5223 H 494.886 1.32318 2.98596 0
M  V30 5224 H 493.545 3.14687 1.88063 0
M  V30 5225 H 493.193 2.6125 4.29834 0
M  V30 5226 H 492.893 4.3366 3.96501 0
M  V30 5227 H 494.417 3.83528 4.7512 0
M  V30 5228 H 495.831 5.00158 2.80205 0
M  V30 5229 H 494.228 5.56472 2.24631 0
M  V30 5230 H 495.298 4.71946 1.11333 0
M  V30 5231 N 496.642 -0.504142 1.49319 0
M  V30 5232 C 497.888 -1.26033 1.58882 0
M  V30 5233 C 498.221 -1.92268 0.273274 0
M  V30 5234 O 497.496 -1.80567 -0.72291 0
M  V30 5235 C 497.779 -2.32976 2.7458 0
M  V30 5236 C 497.632 -1.71263 4.1592 0
M  V30 5237 C 498.951 -3.34561 2.85932 0
M  V30 5238 H 496.07 -0.456863 0.578312 0
M  V30 5239 H 498.712 -0.558965 1.81592 0
M  V30 5240 H 496.862 -2.92796 2.55348 0
M  V30 5241 H 498.534 -1.15294 4.4666 0
M  V30 5242 H 496.777 -1.01686 4.21714 0
M  V30 5243 H 497.448 -2.48816 4.92742 0
M  V30 5244 H 499.924 -2.84727 3.0343 0
M  V30 5245 H 498.8 -4.06754 3.68568 0
M  V30 5246 H 499.061 -3.96695 1.95154 0
M  V30 5247 N 498.12 -1.38341 -0.754957 0
M  V30 5248 C 499.368 -1.34208 -1.51105 0
M  V30 5249 C 499.689 0.0677634 -1.94882 0
M  V30 5250 O 498.959 1.01517 -1.67544 0
M  V30 5251 H 497.539 -0.493819 -0.560493 0
M  V30 5252 H 500.201 -1.73005 -0.897507 0
M  V30 5253 H 499.297 -1.99203 -2.4026 0
M  V30 5254 N 499.598 0.982988 -1.23187 0
M  V30 5255 C 500.846 1.72052 -1.06031 0
M  V30 5256 C 501.167 1.90769 0.404019 0
M  V30 5257 O 500.437 1.47446 1.28982 0
M  V30 5258 H 499.017 0.637499 -0.389363 0
M  V30 5259 H 501.679 1.18338 -1.54862 0
M  V30 5260 H 500.775 2.7111 -1.54615 0
M  V30 5261 N 501.076 1.04316 1.18135 0
M  V30 5262 C 502.301 0.768047 1.92655 0
M  V30 5263 C 502.726 -0.66904 1.758 0
M  V30 5264 O 502.084 -1.46372 1.06981 0
M  V30 5265 C 502.132 1.14239 3.42026 0
M  V30 5266 O 501.236 0.269333 4.1152 0
M  V30 5267 H 500.577 0.282436 0.600937 0
M  V30 5268 H 503.107 1.39367 1.49793 0
M  V30 5269 H 503.117 1.10538 3.92741 0
M  V30 5270 H 501.792 2.18928 3.53615 0
M  V30 5271 H 500.369 0.366175 3.71098 0
M  V30 5272 N 502.554 -1.34406 0.822964 0
M  V30 5273 C 503.782 -2.02508 0.424039 0
M  V30 5274 C 504.197 -1.61975 -0.970022 0
M  V30 5275 O 503.554 -0.825228 -1.62777 0
M  V30 5276 C 503.605 -3.57789 0.516657 0
M  V30 5277 O 503.326 -3.96853 1.85577 0
M  V30 5278 C 504.827 -4.43157 0.112637 0
M  V30 5279 H 502.047 -0.649063 0.170173 0
M  V30 5280 H 504.591 -1.7168 1.11113 0
M  V30 5281 H 502.746 -3.87207 -0.122353 0
M  V30 5282 H 503.16 -4.91538 1.83005 0
M  V30 5283 H 504.634 -5.51527 0.228526 0
M  V30 5284 H 505.111 -4.28939 -0.943837 0
M  V30 5285 H 505.717 -4.19067 0.725449 0
M  V30 5286 N 504.032 -0.577932 -1.46621 0
M  V30 5287 C 505.448 -0.239242 -1.57797 0
M  V30 5288 C 505.648 1.25843 -1.57371 0
M  V30 5289 O 504.704 2.03988 -1.48813 0
M  V30 5290 C 506.017 -0.884227 -2.87405 0
M  V30 5291 C 507.565 -0.857373 -3.01028 0
M  V30 5292 C 508.04 -1.48181 -4.33366 0
M  V30 5293 N 509.531 -1.44593 -4.40053 0
M  V30 5294 C 510.266 -1.89852 -5.41058 0
M  V30 5295 N 509.762 -2.43062 -6.48762 0
M  V30 5296 N 511.555 -1.80797 -5.3223 0
M  V30 5297 H 503.706 -1.55073 -1.45142 0
M  V30 5298 H 505.969 -0.647903 -0.692044 0
M  V30 5299 H 505.675 -1.93759 -2.93514 0
M  V30 5300 H 505.549 -0.389585 -3.75183 0
M  V30 5301 H 507.936 0.187357 -2.94505 0
M  V30 5302 H 508.017 -1.38999 -2.14739 0
M  V30 5303 H 507.661 -2.52572 -4.40647 0
M  V30 5304 H 507.591 -0.924464 -5.18422 0
M  V30 5305 H 510.082 -1.05694 -3.62819 0
M  V30 5306 H 510.395 -2.75466 -7.22038 0
M  V30 5307 H 508.74 -2.47085 -6.49595 0
M  V30 5308 H 511.931 -1.38989 -4.46989 0
M  V30 5309 H 512.104 -2.16385 -6.10804 0
M  V30 5310 N 505.51 1.54411 -0.315457 0
M  V30 5311 C 506.759 1.99599 0.290395 0
M  V30 5312 C 507.072 1.20746 1.53882 0
M  V30 5313 O 508.278 1.56272 2.22017 0
M  V30 5314 C 506.734 3.5539 0.56797 0
M  V30 5315 C 506.342 4.43068 -0.662945 0
M  V30 5316 C 508.086 4.09067 1.13422 0
M  V30 5317 C 505.993 5.90317 -0.357722 0
M  V30 5318 H 504.923 0.745592 0.112286 0
M  V30 5319 H 507.574 1.78477 -0.426418 0
M  V30 5320 H 505.956 3.72468 1.34476 0
M  V30 5321 H 507.13 4.37765 -1.43869 0
M  V30 5322 H 505.445 4.00238 -1.14884 0
M  V30 5323 H 508.042 5.16663 1.37707 0
M  V30 5324 H 508.385 3.60552 2.08106 0
M  V30 5325 H 508.918 3.95589 0.418805 0
M  V30 5326 H 505.657 6.4301 -1.27351 0
M  V30 5327 H 505.177 5.98592 0.380472 0
M  V30 5328 H 506.856 6.4699 0.0354284 0
M  V30 5329 N 506.988 0.0434614 1.5754 0
M  V30 5330 C 508.399 -0.493343 1.80064 0
M  V30 5331 C 508.75 -1.71388 0.955023 0
M  V30 5332 O 507.875 -2.15736 0.169434 0
M  V30 5333 C 508.47 -0.90179 3.26578 0
M  V30 5334 C 507.029 -1.38362 3.50047 0
M  V30 5335 C 506.176 -0.355129 2.75017 0
M  V30 5336 H 509.127 0.2694 1.56397 0
M  V30 5337 H 509.148 -1.76523 3.37075 0
M  V30 5338 H 508.66 -0.013271 3.88098 0
M  V30 5339 H 506.761 -2.29159 2.93798 0
M  V30 5340 H 506.874 -1.3811 4.58762 0
M  V30 5341 H 505.238 -0.826348 2.40922 0
M  V30 5342 H 506.021 0.525172 3.39259 0
M  V30 5343 N 508.466 -1.55915 -0.229846 0
M  V30 5344 C 509.413 -1.91734 -1.28478 0
M  V30 5345 C 510.383 -0.773539 -1.46988 0
M  V30 5346 O 511.568 -1.02871 -1.60693 0
M  V30 5347 C 508.708 -2.23224 -2.63182 0
M  V30 5348 C 507.821 -3.50497 -2.52539 0
M  V30 5349 C 506.956 -3.71474 -3.79711 0
M  V30 5350 C 505.995 -4.92289 -3.63755 0
M  V30 5351 N 505.132 -5.09698 -4.82858 0
M  V30 5352 H 509.972 -2.81692 -0.972308 0
M  V30 5353 H 507.509 -1.39429 -0.468815 0
M  V30 5354 H 509.467 -2.3949 -3.41614 0
M  V30 5355 H 508.097 -1.36451 -2.92542 0
M  V30 5356 H 507.149 -3.4247 -1.65585 0
M  V30 5357 H 508.461 -4.39079 -2.36666 0
M  V30 5358 H 507.615 -3.87791 -4.66586 0
M  V30 5359 H 506.354 -2.81157 -3.985 0
M  V30 5360 H 505.359 -4.7593 -2.75264 0
M  V30 5361 H 506.584 -5.84083 -3.46445 0
M  V30 5362 H 504.53 -4.22322 -5.01976 0
M  V30 5363 H 504.447 -5.92399 -4.69681 0
M  V30 5364 H 505.715 -5.30443 -5.71183 0
M  V30 5365 N 509.944 0.496216 -1.49584 0
M  V30 5366 C 511.193 1.24668 -1.58558 0
M  V30 5367 C 511.506 1.9359 -0.279703 0
M  V30 5368 O 512.712 2.70365 -0.248048 0
M  V30 5369 C 511.168 2.26388 -2.79779 0
M  V30 5370 C 510.776 1.63384 -4.17145 0
M  V30 5371 C 512.52 3.02233 -2.98086 0
M  V30 5372 C 510.427 2.63243 -5.29582 0
M  V30 5373 H 509.357 0.468995 -0.590389 0
M  V30 5374 H 512.008 0.519985 -1.75978 0
M  V30 5375 H 510.39 3.02241 -2.55863 0
M  V30 5376 H 511.564 0.93491 -4.51216 0
M  V30 5377 H 509.879 0.999121 -4.04236 0
M  V30 5378 H 512.476 3.76919 -3.79257 0
M  V30 5379 H 512.819 3.60132 -2.08831 0
M  V30 5380 H 513.352 2.33495 -3.22063 0
M  V30 5381 H 510.091 2.10119 -6.20911 0
M  V30 5382 H 509.611 3.31363 -4.99959 0
M  V30 5383 H 511.29 3.25575 -5.59115 0
M  V30 5384 N 511.423 1.38739 0.74761 0
M  V30 5385 C 512.355 1.32341 1.87132 0
M  V30 5386 C 513.368 0.234502 1.61102 0
M  V30 5387 O 514.557 0.492516 1.71571 0
M  V30 5388 C 511.657 1.02915 3.22896 0
M  V30 5389 C 510.83 2.22834 3.76383 0
M  V30 5390 C 509.889 1.90059 4.90677 0
M  V30 5391 O 508.915 2.62615 5.04997 0
M  V30 5392 N 510.117 0.859141 5.74107 0
M  V30 5393 H 512.882 2.29175 1.93129 0
M  V30 5394 H 510.443 1.32678 0.927805 0
M  V30 5395 H 512.435 0.79031 3.96908 0
M  V30 5396 H 511.005 0.148572 3.12247 0
M  V30 5397 H 510.225 2.62747 2.93867 0
M  V30 5398 H 511.513 3.02851 4.08851 0
M  V30 5399 H 510.911 0.257564 5.65113 0
M  V30 5400 H 509.468 0.680189 6.48241 0
M  V30 5401 N 512.901 -0.976442 1.23707 0
M  V30 5402 C 513.848 -2.06952 1.02174 0
M  V30 5403 C 514.818 -1.65984 -0.0621034 0
M  V30 5404 O 516.003 -1.90584 0.0907906 0
M  V30 5405 C 513.143 -3.39425 0.62327 0
M  V30 5406 C 512.256 -3.9364 1.77966 0
M  V30 5407 C 511.391 -5.14343 1.3276 0
M  V30 5408 C 510.43 -5.60733 2.45449 0
M  V30 5409 N 509.567 -6.72662 2.01172 0
M  V30 5410 H 514.407 -2.24704 1.95734 0
M  V30 5411 H 511.944 -1.10143 0.975034 0
M  V30 5412 H 513.902 -4.15526 0.37332 0
M  V30 5413 H 512.532 -3.21624 -0.275329 0
M  V30 5414 H 511.584 -3.14258 2.14351 0
M  V30 5415 H 512.896 -4.24035 2.62671 0
M  V30 5416 H 512.05 -5.97789 1.03601 0
M  V30 5417 H 510.789 -4.8561 0.450975 0
M  V30 5418 H 509.794 -4.75865 2.75378 0
M  V30 5419 H 511.019 -5.91483 3.33654 0
M  V30 5420 H 508.965 -6.45681 1.15895 0
M  V30 5421 H 508.882 -7.02462 2.79434 0
M  V30 5422 H 510.15 -7.59572 1.75129 0
M  V30 5423 N 514.379 -1.04941 -1.1758 0
M  V30 5424 C 515.309 -0.669172 -2.23706 0
M  V30 5425 C 516.29 0.331835 -1.66832 0
M  V30 5426 O 517.475 0.209988 -1.93061 0
M  V30 5427 C 514.605 -0.0404889 -3.47276 0
M  V30 5428 C 513.559 -0.965983 -4.16957 0
M  V30 5429 C 512.885 -0.201312 -5.34321 0
M  V30 5430 C 514.185 -2.28902 -4.69469 0
M  V30 5431 H 515.879 -1.55639 -2.55767 0
M  V30 5432 H 513.425 -0.749793 -1.22939 0
M  V30 5433 H 515.378 0.237298 -4.20731 0
M  V30 5434 H 514.102 0.881658 -3.14475 0
M  V30 5435 H 512.761 -1.22829 -3.45411 0
M  V30 5436 H 512.409 0.723519 -4.97769 0
M  V30 5437 H 512.109 -0.817968 -5.81879 0
M  V30 5438 H 513.633 0.0692499 -6.10561 0
M  V30 5439 H 515.047 -2.07132 -5.34574 0
M  V30 5440 H 513.444 -2.85942 -5.27596 0
M  V30 5441 H 514.514 -2.92937 -3.86414 0
M  V30 5442 N 515.857 1.33968 -0.830081 0
M  V30 5443 C 516.787 2.31911 -0.271911 0
M  V30 5444 C 517.768 1.58571 0.61556 0
M  V30 5445 O 518.953 1.86514 0.540946 0
M  V30 5446 C 516.083 3.42737 0.561146 0
M  V30 5447 C 515.037 4.27383 -0.229789 0
M  V30 5448 C 514.363 5.29742 0.726463 0
M  V30 5449 C 515.663 5.02 -1.44197 0
M  V30 5450 H 517.357 2.78844 -1.09025 0
M  V30 5451 H 514.903 1.34061 -0.52571 0
M  V30 5452 H 516.856 4.10276 0.961867 0
M  V30 5453 H 515.58 2.94471 1.41261 0
M  V30 5454 H 514.239 3.61456 -0.611964 0
M  V30 5455 H 513.887 4.77736 1.57408 0
M  V30 5456 H 513.587 5.87255 0.20142 0
M  V30 5457 H 515.111 6.00149 1.12489 0
M  V30 5458 H 516.525 5.62355 -1.11488 0
M  V30 5459 H 514.922 5.69122 -1.90317 0
M  V30 5460 H 515.992 4.31281 -2.2164 0
M  V30 5461 N 517.335 0.585699 1.46312 0
M  V30 5462 C 518.267 -0.183687 2.28463 0
M  V30 5463 C 519.28 -0.85264 1.38686 0
M  V30 5464 O 520.469 -0.721701 1.6326 0
M  V30 5465 C 517.569 -1.27977 3.13808 0
M  V30 5466 C 516.742 -0.702164 4.31727 0
M  V30 5467 C 515.801 -1.68633 4.98447 0
M  V30 5468 O 514.827 -1.22121 5.55945 0
M  V30 5469 N 516.029 -3.02047 4.95729 0
M  V30 5470 H 518.794 0.521127 2.95134 0
M  V30 5471 H 516.355 0.423673 1.56258 0
M  V30 5472 H 518.347 -1.9375 3.55307 0
M  V30 5473 H 516.917 -1.8874 2.4919 0
M  V30 5474 H 516.137 0.1331 3.93975 0
M  V30 5475 H 517.425 -0.296101 5.07938 0
M  V30 5476 H 516.823 -3.42457 4.50266 0
M  V30 5477 H 515.38 -3.63301 5.41161 0
M  V30 5478 N 518.813 -1.54241 0.323641 0
M  V30 5479 C 520.09 -1.92741 -0.333181 0
M  V30 5480 C 520.47 -1.25326 -1.69872 0
M  V30 5481 O 519.818 -0.396991 -2.25025 0
M  V30 5482 C 520.028 -3.46399 -0.425322 0
M  V30 5483 C 521.376 -4.19029 -0.68557 0
M  V30 5484 O 522.4 -3.52555 -0.50824 0
M  V30 5485 O 521.259 -5.36751 -1.02767 0
M  V30 5486 H 518.353 -0.804811 -0.190286 0
M  V30 5487 H 520.899 -1.65542 0.373361 0
M  V30 5488 H 519.671 -3.87643 0.533737 0
M  V30 5489 H 519.294 -3.79704 -1.17944 0
M  V30 5490 N 520.291 -0.0518155 -1.57515 0
M  V30 5491 C 521.538 0.621823 -1.92716 0
M  V30 5492 C 521.866 1.70813 -0.930229 0
M  V30 5493 O 521.121 1.95616 0.0573708 0
M  V30 5494 C 521.42 1.25607 -3.34601 0
M  V30 5495 C 521.086 0.297901 -4.49915 0
M  V30 5496 C 519.748 0.034243 -4.81188 0
M  V30 5497 C 522.1 -0.358738 -5.19964 0
M  V30 5498 C 519.428 -0.893479 -5.79857 0
M  V30 5499 C 521.78 -1.27466 -6.19625 0
M  V30 5500 C 520.444 -1.54698 -6.49326 0
M  V30 5501 H 519.714 0.227541 -0.705199 0
M  V30 5502 H 522.361 -0.118432 -1.91133 0
M  V30 5503 H 520.666 2.07161 -3.32553 0
M  V30 5504 H 522.363 1.78424 -3.59118 0
M  V30 5505 H 518.953 0.513581 -4.25512 0
M  V30 5506 H 523.137 -0.168133 -4.96015 0
M  V30 5507 H 518.393 -1.11193 -6.01204 0
M  V30 5508 H 522.567 -1.78953 -6.73015 0
M  V30 5509 H 520.194 -2.26748 -7.25596 0
M  V30 5510 N 521.769 1.56035 0.221574 0
M  V30 5511 C 523.016 1.79047 0.94597 0
M  V30 5512 C 523.344 0.62057 1.84334 0
M  V30 5513 O 522.599 -0.395053 1.91671 0
M  V30 5514 C 522.898 3.07813 1.8162 0
M  V30 5515 C 522.564 4.3797 1.07206 0
M  V30 5516 C 521.226 4.73334 0.866508 0
M  V30 5517 C 523.578 5.18326 0.546565 0
M  V30 5518 C 520.906 5.8657 0.123549 0
M  V30 5519 C 523.258 6.32335 -0.18305 0
M  V30 5520 C 521.922 6.66301 -0.399861 0
M  V30 5521 H 521.192 0.655178 0.346155 0
M  V30 5522 H 523.839 1.90299 0.214146 0
M  V30 5523 H 522.144 2.91682 2.61589 0
M  V30 5524 H 523.841 3.2282 2.37884 0
M  V30 5525 H 520.431 4.10202 1.24226 0
M  V30 5526 H 524.615 4.9144 0.692847 0
M  V30 5527 H 519.871 6.11376 -0.0546591 0
M  V30 5528 H 524.045 6.9383 -0.59775 0
M  V30 5529 H 521.672 7.53889 -0.977489 0
M  V30 5530 N 523.247 -0.488276 1.49845 0
M  V30 5531 C 524.195 -1.60917 1.67954 0
M  V30 5532 C 525.189 -1.6038 0.54539 0
M  V30 5533 O 526.395 -1.64736 0.7254 0
M  V30 5534 H 522.77 -0.533658 0.529824 0
M  V30 5535 H 524.741 -1.428 2.62013 0
M  V30 5536 C 523.49 -2.98975 1.77509 0
M  V30 5537 H 522.813 -3.00099 2.6416 0
M  V30 5538 H 524.253 -3.76906 1.9421 0
M  V30 5539 C 522.712 -3.3282 0.522745 0
M  V30 5540 O 523.242 -4.00208 -0.345866 0
M  V30 5541 N 521.448 -2.8808 0.381882 0
M  V30 5542 H 520.995 -2.33415 1.08974 0
M  V30 5543 H 520.953 -3.11091 -0.454929 0
M  V30 5544 N 524.725 -1.39134 -0.740242 0
M  V30 5545 C 525.973 -1.35803 -1.49673 0
M  V30 5546 C 526.294 0.0470897 -1.94943 0
M  V30 5547 O 525.564 0.997347 -1.68611 0
M  V30 5548 H 524.144 -0.499736 -0.555224 0
M  V30 5549 H 526.806 -1.73947 -0.879107 0
M  V30 5550 H 525.902 -2.0174 -2.38133 0
M  V30 5551 N 526.204 0.969867 -1.24223 0
M  V30 5552 C 527.151 2.06407 -1.0327 0
M  V30 5553 C 528.121 1.66014 0.0533 0
M  V30 5554 O 529.306 1.90533 -0.100896 0
M  V30 5555 C 526.446 3.3909 -0.641262 0
M  V30 5556 C 525.559 3.9269 -1.80051 0
M  V30 5557 C 524.694 5.13631 -1.35486 0
M  V30 5558 C 523.733 5.59423 -2.48419 0
M  V30 5559 N 522.87 6.71586 -2.04737 0
M  V30 5560 H 527.71 2.23663 -1.96923 0
M  V30 5561 H 525.247 1.09624 -0.980862 0
M  V30 5562 H 527.205 4.15323 -0.395351 0
M  V30 5563 H 525.835 3.21765 0.258269 0
M  V30 5564 H 524.887 3.13116 -2.16014 0
M  V30 5565 H 526.199 4.22636 -2.64916 0
M  V30 5566 H 525.353 5.97231 -1.0677 0
M  V30 5567 H 524.092 4.85364 -0.476722 0
M  V30 5568 H 523.097 4.74398 -2.77897 0
M  V30 5569 H 524.322 5.89705 -3.36786 0
M  V30 5570 H 522.268 6.45058 -1.19318 0
M  V30 5571 H 522.185 7.0097 -2.83156 0
M  V30 5572 H 523.453 7.58633 -1.79154 0
M  V30 5573 N 527.682 1.05563 1.17022 0
M  V30 5574 C 528.592 0.670758 2.24807 0
M  V30 5575 C 529.608 -0.309865 1.71219 0
M  V30 5576 O 530.784 -0.161025 2.00755 0
M  V30 5577 C 527.849 0.055337 3.46656 0
M  V30 5578 C 526.91 1.08688 4.15314 0
M  V30 5579 C 526.143 0.500736 5.31346 0
M  V30 5580 O 526.366 -0.688718 5.66227 0
M  V30 5581 O 525.3 1.23683 5.89055 0
M  V30 5582 H 529.126 1.56914 2.60023 0
M  V30 5583 H 526.711 0.827428 1.24395 0
M  V30 5584 H 528.593 -0.286492 4.20425 0
M  V30 5585 H 527.268 -0.816638 3.13229 0
M  V30 5586 H 526.175 1.48077 3.43546 0
M  V30 5587 H 527.508 1.93014 4.52777 0
M  V30 5588 N 529.16 -1.33526 0.837174 0
M  V30 5589 C 530.09 -2.31764 0.284206 0
M  V30 5590 C 531.071 -1.58896 -0.607142 0
M  V30 5591 O 532.256 -1.86798 -0.531047 0
M  V30 5592 C 529.386 -3.43029 -0.542962 0
M  V30 5593 C 528.34 -4.27255 0.252451 0
M  V30 5594 C 527.666 -5.3012 -0.69836 0
M  V30 5595 C 528.966 -5.01229 1.46858 0
M  V30 5596 H 530.66 -2.78262 1.10502 0
M  V30 5597 H 528.206 -1.3378 0.532812 0
M  V30 5598 H 530.159 -4.1078 -0.940096 0
M  V30 5599 H 528.883 -2.95216 -1.39697 0
M  V30 5600 H 527.542 -3.61127 0.631124 0
M  V30 5601 H 527.19 -4.78564 -1.54872 0
M  V30 5602 H 526.89 -5.87353 -0.170274 0
M  V30 5603 H 528.414 -6.00737 -1.09305 0
M  V30 5604 H 529.828 -5.61756 1.14469 0
M  V30 5605 H 528.225 -5.68104 1.93333 0
M  V30 5606 H 529.295 -4.301 2.23924 0
M  V30 5607 N 530.638 -0.59345 -1.46 0
M  V30 5608 C 531.586 0.146268 -2.3214 0
M  V30 5609 C 532.58 0.873743 -1.45128 0
M  V30 5610 O 533.786 0.790912 -1.61693 0
M  V30 5611 H 530.161 0.0660349 -0.749095 0
M  V30 5612 H 532.132 -0.598895 -2.92328 0
M  V30 5613 C 530.881 1.1396 -3.28494 0
M  V30 5614 H 530.204 0.589252 -3.95434 0
M  V30 5615 H 531.644 1.62738 -3.91526 0
M  V30 5616 C 530.103 2.20604 -2.54628 0
M  V30 5617 O 530.633 3.28128 -2.31722 0
M  V30 5618 N 528.839 1.95502 -2.15005 0
M  V30 5619 H 528.386 1.0807 -2.33834 0
M  V30 5620 H 528.344 2.67064 -1.65904 0
M  V30 5621 N 532.116 1.54067 -0.331816 0
M  V30 5622 C 533.063 2.24623 0.530372 0
M  V30 5623 C 534.033 1.24009 1.10503 0
M  V30 5624 O 535.218 1.52712 1.14384 0
M  V30 5625 C 532.358 3.01374 1.68129 0
M  V30 5626 C 531.471 4.16821 1.13507 0
M  V30 5627 C 530.606 4.81085 2.25234 0
M  V30 5628 C 529.645 5.88621 1.67903 0
M  V30 5629 N 528.782 6.46713 2.73326 0
M  V30 5630 H 533.622 2.97898 -0.0778607 0
M  V30 5631 H 531.159 1.47014 -0.0501965 0
M  V30 5632 H 533.117 3.44125 2.35868 0
M  V30 5633 H 531.747 2.30419 2.26069 0
M  V30 5634 H 530.799 3.78796 0.348979 0
M  V30 5635 H 532.111 4.94203 0.675633 0
M  V30 5636 H 531.265 5.26846 3.00862 0
M  V30 5637 H 530.004 4.03102 2.74518 0
M  V30 5638 H 529.009 5.42254 0.907773 0
M  V30 5639 H 530.234 6.68506 1.19487 0
M  V30 5640 H 528.18 5.71599 3.21886 0
M  V30 5641 H 528.097 7.19532 2.3197 0
M  V30 5642 H 529.365 6.97129 3.48758 0
M  V30 5643 N 533.594 0.0601682 1.57485 0
M  V30 5644 C 534.819 -0.624416 1.97777 0
M  V30 5645 C 535.244 -1.63051 0.937867 0
M  V30 5646 O 534.602 -1.81036 -0.0978845 0
M  V30 5647 C 534.65 -1.27979 3.37126 0
M  V30 5648 O 533.754 -2.39556 3.35688 0
M  V30 5649 H 533.095 -0.161581 0.64404 0
M  V30 5650 H 535.625 0.131237 2.04179 0
M  V30 5651 H 535.635 -1.62937 3.74053 0
M  V30 5652 H 534.31 -0.542501 4.12347 0
M  V30 5653 H 532.887 -2.06478 3.10517 0
M  V30 5654 N 535.072 -1.5615 -0.213296 0
M  V30 5655 C 536.321 -1.78743 -0.93455 0
M  V30 5656 C 536.634 -0.630199 -1.8517 0
M  V30 5657 O 537.84 -0.739966 -2.61222 0
M  V30 5658 C 536.296 -3.16571 -1.71203 0
M  V30 5659 C 535.904 -4.40043 -0.840617 0
M  V30 5660 C 537.648 -3.48485 -2.42401 0
M  V30 5661 C 535.555 -5.68895 -1.61592 0
M  V30 5662 H 534.485 -0.666426 -0.352692 0
M  V30 5663 H 537.136 -1.82532 -0.188227 0
M  V30 5664 H 535.518 -3.06981 -2.50157 0
M  V30 5665 H 536.692 -4.6071 -0.0910326 0
M  V30 5666 H 535.007 -4.15706 -0.240365 0
M  V30 5667 H 537.604 -4.41983 -3.00924 0
M  V30 5668 H 537.947 -2.71371 -3.15695 0
M  V30 5669 H 538.48 -3.59442 -1.7043 0
M  V30 5670 H 535.219 -6.48925 -0.926106 0
M  V30 5671 H 534.739 -5.52275 -2.33991 0
M  V30 5672 H 536.418 -6.09365 -2.17447 0
M  V30 5673 N 536.55 0.480323 -1.50102 0
M  V30 5674 C 537.498 1.60024 -1.68805 0
M  V30 5675 C 538.492 1.60089 -0.553888 0
M  V30 5676 O 539.698 1.64349 -0.734127 0
M  V30 5677 H 536.073 0.530841 -0.532646 0
M  V30 5678 H 538.044 1.41408 -2.62767 0
M  V30 5679 C 536.793 2.98029 -1.79092 0
M  V30 5680 H 536.116 2.98694 -2.65748 0
M  V30 5681 H 537.556 3.75871 -1.96206 0
M  V30 5682 C 536.015 3.32538 -0.540388 0
M  V30 5683 O 536.545 4.00386 0.324637 0
M  V30 5684 N 534.751 2.87873 -0.397154 0
M  V30 5685 H 534.298 2.32834 -1.1021 0
M  V30 5686 H 534.256 3.11328 0.438425 0
M  V30 5687 N 538.028 1.39524 0.732853 0
M  V30 5688 C 539.439 1.32905 1.31122 0
M  V30 5689 C 539.79 -0.00558708 1.96199 0
M  V30 5690 O 538.915 -0.907706 1.96443 0
M  V30 5691 C 539.51 2.40704 2.38426 0
M  V30 5692 C 538.069 2.37599 2.91931 0
M  V30 5693 C 537.216 2.2248 1.65523 0
M  V30 5694 H 540.167 1.49581 0.530207 0
M  V30 5695 H 540.188 2.07616 3.18867 0
M  V30 5696 H 539.7 3.37829 1.91033 0
M  V30 5697 H 537.801 1.44119 3.43599 0
M  V30 5698 H 537.914 3.32538 3.44899 0
M  V30 5699 H 536.278 1.69691 1.8994 0
M  V30 5700 H 537.061 3.21577 1.20178 0
M  V30 5701 N 539.506 -0.963266 1.24736 0
M  V30 5702 C 540.783 -1.68248 0.9976 0
M  V30 5703 C 541.163 -2.05599 -0.478776 0
M  V30 5704 O 540.511 -1.7626 -1.45412 0
M  V30 5705 C 540.721 -2.91118 1.92487 0
M  V30 5706 C 542.069 -3.63261 2.19833 0
M  V30 5707 O 543.093 -3.01184 1.90176 0
M  V30 5708 O 541.952 -4.75019 2.7022 0
M  V30 5709 H 539.046 -0.735744 0.377637 0
M  V30 5710 H 541.592 -1.01696 1.35853 0
M  V30 5711 H 540.364 -2.60242 2.92215 0
M  V30 5712 H 539.987 -3.65402 1.56738 0
M  V30 5713 N 540.985 -1.06182 -1.16461 0
M  V30 5714 C 541.895 -0.682671 -2.24448 0
M  V30 5715 C 542.911 0.30078 -1.71381 0
M  V30 5716 O 544.087 0.150376 -2.00838 0
M  V30 5717 C 541.152 -0.0737202 -3.46622 0
M  V30 5718 C 540.213 -1.10889 -4.14731 0
M  V30 5719 C 539.446 -0.528908 -5.31073 0
M  V30 5720 O 539.669 0.65868 -5.66584 0
M  V30 5721 O 538.603 -1.26805 -5.88391 0
M  V30 5722 H 542.429 -1.58291 -2.59187 0
M  V30 5723 H 540.014 -0.834013 -1.23954 0
M  V30 5724 H 541.896 0.264192 -4.20571 0
M  V30 5725 H 540.571 0.800015 -3.13658 0
M  V30 5726 H 539.478 -1.49896 -3.42756 0
M  V30 5727 H 540.811 -1.95412 -4.51747 0
M  V30 5728 N 542.463 1.3308 -0.844243 0
M  V30 5729 C 543.426 2.27403 -0.286485 0
M  V30 5730 C 544.426 1.51179 0.547872 0
M  V30 5731 O 545.616 1.70421 0.360886 0
M  V30 5732 C 542.748 3.35653 0.595813 0
M  V30 5733 H 543.941 2.78248 -1.11885 0
M  V30 5734 H 541.494 1.43574 -0.617749 0
M  V30 5735 H 542.229 2.90058 1.4504 0
M  V30 5736 H 542.014 3.921 -0.00125994 0
M  V30 5737 H 543.504 4.05958 0.979168 0
M  V30 5738 N 543.941 0.601185 1.45683 0
M  V30 5739 C 545.187 0.0940202 2.02582 0
M  V30 5740 C 545.52 -1.26972 1.46941 0
M  V30 5741 O 544.795 -1.83613 0.641612 0
M  V30 5742 C 545.078 0.0481715 3.60068 0
M  V30 5743 C 544.931 1.44212 4.26055 0
M  V30 5744 C 546.25 -0.642975 4.35378 0
M  V30 5745 H 543.369 0.0356404 0.736138 0
M  V30 5746 H 546.011 0.771929 1.73612 0
M  V30 5747 H 544.161 -0.529128 3.8488 0
M  V30 5748 H 545.833 2.06601 4.12449 0
M  V30 5749 H 544.076 2.00465 3.84703 0
M  V30 5750 H 544.747 1.36234 5.34925 0
M  V30 5751 H 547.223 -0.152351 4.15821 0
M  V30 5752 H 546.099 -0.644141 5.45107 0
M  V30 5753 H 546.36 -1.70785 4.0778 0
M  V30 5754 N 545.419 -1.53889 0.339982 0
M  V30 5755 C 546.382 -2.23547 -0.50592 0
M  V30 5756 C 547.382 -1.23445 -1.03044 0
M  V30 5757 O 548.572 -1.47909 -0.920253 0
M  V30 5758 C 545.704 -2.95234 -1.7044 0
M  V30 5759 H 546.897 -2.99722 0.103247 0
M  V30 5760 H 544.45 -1.56033 0.0912804 0
M  V30 5761 H 545.185 -2.23236 -2.35236 0
M  V30 5762 H 544.97 -3.68654 -1.33553 0
M  V30 5763 H 546.46 -3.48258 -2.30447 0
M  V30 5764 N 546.897 -0.0685191 -1.57451 0
M  V30 5765 C 548.127 0.609577 -1.97402 0
M  V30 5766 C 548.535 1.63882 -0.945489 0
M  V30 5767 O 547.878 1.8354 0.0766052 0
M  V30 5768 C 547.94 1.3385 -3.33653 0
M  V30 5769 C 547.604 0.463103 -4.54648 0
M  V30 5770 C 548.601 -0.277964 -5.19156 0
M  V30 5771 C 546.286 0.388941 -5.00792 0
M  V30 5772 C 548.28 -1.08145 -6.28159 0
M  V30 5773 C 545.967 -0.418217 -6.09667 0
M  V30 5774 C 546.965 -1.15208 -6.73213 0
M  V30 5775 O 546.653 -1.94594 -7.79993 0
M  V30 5776 H 546.385 0.170197 -0.654224 0
M  V30 5777 H 548.939 -0.13647 -2.04946 0
M  V30 5778 H 547.169 2.13055 -3.22714 0
M  V30 5779 H 548.858 1.90851 -3.58233 0
M  V30 5780 H 549.624 -0.230241 -4.84453 0
M  V30 5781 H 545.503 0.949769 -4.5111 0
M  V30 5782 H 549.047 -1.65476 -6.7769 0
M  V30 5783 H 544.944 -0.467515 -6.43805 0
M  V30 5784 H 545.712 -1.8699 -7.96854 0
M  V30 5785 N 548.375 1.56261 0.205012 0
M  V30 5786 C 549.623 1.79684 0.925096 0
M  V30 5787 C 549.944 0.63989 1.84202 0
M  V30 5788 O 549.214 -0.342345 1.92885 0
M  V30 5789 H 547.794 0.662774 0.344587 0
M  V30 5790 H 550.456 1.93734 0.212899 0
M  V30 5791 H 549.552 2.72467 1.52211 0
M  V30 5792 N 549.853 -0.472356 1.50355 0
M  V30 5793 C 550.816 -1.5529 1.68576 0
M  V30 5794 C 551.816 -1.50863 0.556511 0
M  V30 5795 O 553.006 -1.53505 0.823516 0
M  V30 5796 C 550.138 -2.94921 1.70981 0
M  V30 5797 H 551.331 -1.40451 2.64978 0
M  V30 5798 H 548.884 -0.698645 1.39816 0
M  V30 5799 H 549.619 -3.15204 0.762675 0
M  V30 5800 H 549.404 -2.99541 2.53017 0
M  V30 5801 H 550.894 -3.73372 1.87037 0
M  V30 5802 N 551.331 -1.39911 -0.725443 0
M  V30 5803 C 552.294 -1.39156 -1.82121 0
M  V30 5804 C 553.294 -0.287018 -1.58218 0
M  V30 5805 O 554.484 -0.545421 -1.65441 0
M  V30 5806 C 551.616 -1.1736 -3.20062 0
M  V30 5807 H 552.809 -2.36672 -1.84191 0
M  V30 5808 H 550.362 -1.25615 -0.930079 0
M  V30 5809 H 551.097 -0.205648 -3.23647 0
M  V30 5810 H 550.882 -1.97358 -3.3881 0
M  V30 5811 H 552.372 -1.19596 -4.00108 0
M  V30 5812 N 552.809 0.956637 -1.25245 0
M  V30 5813 C 554.055 1.70352 -1.10036 0
M  V30 5814 C 554.388 1.90869 0.358156 0
M  V30 5815 O 553.663 1.47819 1.26411 0
M  V30 5816 C 553.946 3.08766 -1.85298 0
M  V30 5817 C 553.799 2.95672 -3.38966 0
M  V30 5818 C 555.118 4.08622 -1.63451 0
M  V30 5819 H 552.237 0.618279 -0.401123 0
M  V30 5820 H 554.879 1.11212 -1.54051 0
M  V30 5821 H 553.029 3.59252 -1.47887 0
M  V30 5822 H 554.701 2.52527 -3.86041 0
M  V30 5823 H 552.944 2.31634 -3.6678 0
M  V30 5824 H 553.615 3.93776 -3.86839 0
M  V30 5825 H 556.091 3.67038 -1.96015 0
M  V30 5826 H 554.967 5.03514 -2.18551 0
M  V30 5827 H 555.228 4.3834 -0.575357 0
M  V30 5828 N 554.287 1.06798 1.15896 0
M  V30 5829 C 555.219 0.641263 2.20046 0
M  V30 5830 C 556.232 -0.303355 1.59949 0
M  V30 5831 O 557.421 -0.0935478 1.78255 0
M  V30 5832 C 554.521 -0.0794029 3.38807 0
M  V30 5833 C 553.694 0.879986 4.28457 0
M  V30 5834 C 552.753 0.197638 5.25829 0
M  V30 5835 O 551.779 0.836913 5.63014 0
M  V30 5836 N 552.981 -1.05886 5.70761 0
M  V30 5837 H 555.746 1.53718 2.57276 0
M  V30 5838 H 553.307 0.951951 1.30956 0
M  V30 5839 H 555.299 -0.546418 4.00994 0
M  V30 5840 H 553.869 -0.877193 3.0004 0
M  V30 5841 H 553.089 1.52625 3.63454 0
M  V30 5842 H 554.377 1.53065 4.8523 0
M  V30 5843 H 553.775 -1.59828 5.42652 0
M  V30 5844 H 552.332 -1.46965 6.35015 0
M  V30 5845 N 555.766 -1.3263 0.851289 0
M  V30 5846 C 556.729 -2.27247 0.298541 0
M  V30 5847 C 557.729 -1.51467 -0.539847 0
M  V30 5848 O 558.919 -1.7061 -0.351843 0
M  V30 5849 C 556.051 -3.35964 -0.578004 0
M  V30 5850 H 557.244 -2.7765 1.13359 0
M  V30 5851 H 554.797 -1.43245 0.625354 0
M  V30 5852 H 555.532 -2.90823 -1.435 0
M  V30 5853 H 555.317 -3.92094 0.0220539 0
M  V30 5854 H 556.807 -4.06472 -0.957626 0
M  V30 5855 N 557.244 -0.608902 -1.45362 0
M  V30 5856 C 558.207 0.0992563 -2.28985 0
M  V30 5857 C 559.207 0.793841 -1.39838 0
M  V30 5858 O 560.397 0.641804 -1.61946 0
M  V30 5859 C 557.529 1.15073 -3.20891 0
M  V30 5860 H 558.722 -0.635964 -2.93079 0
M  V30 5861 H 556.275 -0.368007 -1.51906 0
M  V30 5862 H 557.01 1.91667 -2.616 0
M  V30 5863 H 556.795 0.656867 -3.86559 0
M  V30 5864 H 558.285 1.64665 -3.83765 0
M  V30 5865 N 558.722 1.53707 -0.348139 0
M  V30 5866 C 559.971 2.0017 0.247992 0
M  V30 5867 C 560.284 1.23983 1.51286 0
M  V30 5868 O 561.49 1.60946 2.18652 0
M  V30 5869 C 559.946 3.56515 0.492459 0
M  V30 5870 C 559.554 4.41562 -0.756777 0
M  V30 5871 C 561.298 4.11381 1.0472 0
M  V30 5872 C 559.205 5.89426 -0.482856 0
M  V30 5873 H 558.135 0.747806 0.0964452 0
M  V30 5874 H 560.786 1.77532 -0.464179 0
M  V30 5875 H 559.168 3.75236 1.26545 0
M  V30 5876 H 560.342 4.34615 -1.53122 0
M  V30 5877 H 558.657 3.97711 -1.23348 0
M  V30 5878 H 561.254 5.19468 1.26717 0
M  V30 5879 H 561.597 3.64885 2.00411 0
M  V30 5880 H 562.13 3.96389 0.334801 0
M  V30 5881 H 558.869 6.40164 -1.40962 0
M  V30 5882 H 558.389 5.99264 0.253416 0
M  V30 5883 H 560.068 6.4692 -0.101816 0
M  V30 5884 N 560.2 0.0768682 1.57412 0
M  V30 5885 C 561.13 -0.886026 2.16037 0
M  V30 5886 C 562.111 -1.30691 1.08876 0
M  V30 5887 O 563.296 -1.37705 1.36934 0
M  V30 5888 C 560.426 -2.1518 2.72608 0
M  V30 5889 C 559.38 -1.87015 3.8498 0
M  V30 5890 C 558.706 -3.20266 4.28175 0
M  V30 5891 C 560.006 -1.17143 5.08994 0
M  V30 5892 H 561.7 -0.397642 2.96748 0
M  V30 5893 H 559.246 -0.189823 1.42743 0
M  V30 5894 H 561.199 -2.82962 3.12266 0
M  V30 5895 H 559.923 -2.66269 1.89125 0
M  V30 5896 H 558.582 -1.21636 3.45833 0
M  V30 5897 H 558.23 -3.69207 3.41607 0
M  V30 5898 H 557.93 -3.0221 5.03927 0
M  V30 5899 H 559.454 -3.89237 4.70454 0
M  V30 5900 H 560.868 -1.75003 5.45937 0
M  V30 5901 H 559.265 -1.09328 5.90057 0
M  V30 5902 H 560.335 -0.151295 4.84664 0
M  V30 5903 N 561.678 -1.56367 -0.196722 0
M  V30 5904 C 562.903 -1.84991 -0.937714 0
M  V30 5905 C 563.328 -0.660244 -1.76132 0
M  V30 5906 O 562.686 0.390967 -1.77034 0
M  V30 5907 C 562.734 -3.11828 -1.81096 0
M  V30 5908 O 561.838 -2.92266 -2.90955 0
M  V30 5909 H 561.179 -0.609193 -0.264159 0
M  V30 5910 H 563.709 -2.03595 -0.202529 0
M  V30 5911 H 563.719 -3.42579 -2.21594 0
M  V30 5912 H 562.394 -3.98037 -1.2058 0
M  V30 5913 H 560.971 -2.72809 -2.54224 0
M  V30 5914 N 563.156 0.464375 -1.50603 0
M  V30 5915 C 564.404 1.21356 -1.61608 0
M  V30 5916 C 564.725 1.92329 -0.321643 0
M  V30 5917 O 563.995 1.84403 0.661232 0
M  V30 5918 H 562.575 0.45094 -0.595535 0
M  V30 5919 H 565.237 0.535046 -1.87412 0
M  V30 5920 H 564.333 1.95783 -2.43054 0
M  V30 5921 N 564.634 1.40294 0.718013 0
M  V30 5922 C 565.911 1.2894 1.47084 0
M  V30 5923 C 566.291 -0.0933625 2.10893 0
M  V30 5924 O 565.639 -1.10598 1.99951 0
M  V30 5925 C 565.849 2.4264 2.50852 0
M  V30 5926 C 567.197 2.8276 3.16752 0
M  V30 5927 O 568.221 2.42215 2.61171 0
M  V30 5928 O 567.08 3.528 4.17366 0
M  V30 5929 H 564.174 0.506236 0.653952 0
M  V30 5930 H 566.72 1.52208 0.750394 0
M  V30 5931 H 565.492 3.35009 2.022 0
M  V30 5932 H 565.115 2.21129 3.30435 0
M  V30 5933 N 566.112 -0.949982 1.2575 0
M  V30 5934 C 567.059 -2.04738 1.06541 0
M  V30 5935 C 568.029 -1.66078 -0.0268818 0
M  V30 5936 O 569.214 -1.90348 0.131196 0
M  V30 5937 C 566.354 -3.38027 0.695127 0
M  V30 5938 C 565.467 -3.89776 1.86276 0
M  V30 5939 C 564.602 -5.11411 1.4364 0
M  V30 5940 C 563.641 -5.554 2.57287 0
M  V30 5941 N 562.778 -6.68244 2.15395 0
M  V30 5942 H 567.618 -2.20502 2.00457 0
M  V30 5943 H 565.155 -1.0805 0.998178 0
M  V30 5944 H 567.113 -4.14641 0.461375 0
M  V30 5945 H 565.743 -3.22135 -0.207046 0
M  V30 5946 H 564.795 -3.0964 2.20969 0
M  V30 5947 H 566.107 -4.18368 2.71606 0
M  V30 5948 H 565.261 -5.95457 1.16257 0
M  V30 5949 H 564 -4.84545 0.553879 0
M  V30 5950 H 563.005 -4.69916 2.85409 0
M  V30 5951 H 564.23 -5.84272 3.46125 0
M  V30 5952 H 562.176 -6.43078 1.29565 0
M  V30 5953 H 562.093 -6.96377 2.94272 0
M  V30 5954 H 563.361 -7.55687 1.91201 0
M  V30 5955 N 567.59 -1.07411 -1.15328 0
M  V30 5956 C 568.815 -0.818856 -1.90551 0
M  V30 5957 C 569.24 0.622194 -1.77512 0
M  V30 5958 O 568.598 1.43484 -1.10824 0
M  V30 5959 C 568.646 -1.23267 -3.38877 0
M  V30 5960 O 567.75 -0.378345 -4.10661 0
M  V30 5961 H 567.091 -0.29827 -0.593238 0
M  V30 5962 H 569.621 -1.43289 -1.46046 0
M  V30 5963 H 569.631 -1.20912 -3.89672 0
M  V30 5964 H 568.306 -2.28226 -3.47686 0
M  V30 5965 H 566.883 -0.464437 -3.69996 0
M  V30 5966 N 569.068 1.32177 -0.85831 0
M  V30 5967 C 569.978 2.32561 -0.308606 0
M  V30 5968 C 570.994 1.64209 0.575462 0
M  V30 5969 O 572.17 1.95719 0.474961 0
M  V30 5970 C 569.235 3.43207 0.490909 0
M  V30 5971 C 568.296 4.27243 -0.419733 0
M  V30 5972 C 567.529 5.32605 0.341719 0
M  V30 5973 O 567.752 5.48332 1.57125 0
M  V30 5974 O 566.686 6.0118 -0.294379 0
M  V30 5975 H 570.512 2.81477 -1.14037 0
M  V30 5976 H 568.097 1.35866 -0.621349 0
M  V30 5977 H 569.979 4.10677 0.944574 0
M  V30 5978 H 568.654 2.96474 1.29941 0
M  V30 5979 H 567.561 3.62569 -0.921652 0
M  V30 5980 H 568.894 4.7751 -1.19352 0
M  V30 5981 N 570.547 0.616602 1.45037 0
M  V30 5982 C 571.495 -0.109318 2.32343 0
M  V30 5983 C 572.489 -0.850543 1.465 0
M  V30 5984 O 573.695 -0.765088 1.62931 0
M  V30 5985 H 570.07 -0.0541091 0.750051 0
M  V30 5986 H 572.041 0.645326 2.91338 0
M  V30 5987 C 570.79 -1.0872 3.30266 0
M  V30 5988 H 570.113 -0.526267 3.96321 0
M  V30 5989 H 571.553 -1.56489 3.94065 0
M  V30 5990 C 570.012 -2.16525 2.58105 0
M  V30 5991 O 570.542 -3.244 2.36913 0
M  V30 5992 N 568.748 -1.92057 2.18088 0
M  V30 5993 H 568.295 -1.04337 2.35524 0
M  V30 5994 H 568.253 -2.64391 1.70131 0
M  V30 5995 N 572.025 -1.5352 0.356285 0
M  V30 5996 C 573.271 -2.01414 -0.236653 0
M  V30 5997 C 573.604 -1.24339 -1.49176 0
M  V30 5998 O 572.879 -0.334496 -1.91602 0
M  V30 5999 C 573.162 -3.56059 -0.537982 0
M  V30 6000 C 573.015 -4.43835 0.730112 0
M  V30 6001 C 574.334 -4.19127 -1.34239 0
M  V30 6002 H 571.453 -0.732135 -0.0845386 0
M  V30 6003 H 574.095 -1.83854 0.479341 0
M  V30 6004 H 572.245 -3.71153 -1.14795 0
M  V30 6005 H 573.917 -4.40555 1.36782 0
M  V30 6006 H 572.16 -4.1218 1.3524 0
M  V30 6007 H 572.831 -5.49958 0.474358 0
M  V30 6008 H 575.307 -4.07809 -0.826498 0
M  V30 6009 H 574.183 -5.27378 -1.52198 0
M  V30 6010 H 574.444 -3.74581 -2.34822 0
M  V30 6011 N 573.503 -0.0852151 -1.57369 0
M  V30 6012 C 574.435 0.907099 -2.10486 0
M  V30 6013 C 575.448 1.25259 -1.03991 0
M  V30 6014 O 576.637 1.20743 -1.31467 0
M  V30 6015 C 573.737 2.21908 -2.56145 0
M  V30 6016 C 572.91 2.05042 -3.86363 0
M  V30 6017 C 571.969 3.19664 -4.17973 0
M  V30 6018 O 570.995 2.94062 -4.87356 0
M  V30 6019 N 572.197 4.45151 -3.72587 0
M  V30 6020 H 574.962 0.453505 -2.96249 0
M  V30 6021 H 572.523 0.100157 -1.6159 0
M  V30 6022 H 574.515 2.97519 -2.74343 0
M  V30 6023 H 573.085 2.58723 -1.75446 0
M  V30 6024 H 572.305 1.13819 -3.77411 0
M  V30 6025 H 573.593 1.91039 -4.71574 0
M  V30 6026 H 572.991 4.68834 -3.16561 0
M  V30 6027 H 571.548 5.17744 -3.9596 0
M  V30 6028 N 574.981 1.5647 0.188427 0
M  V30 6029 C 576.258 1.71857 0.934058 0
M  V30 6030 C 576.638 0.641867 2.01105 0
M  V30 6031 O 575.986 -0.346098 2.25864 0
M  V30 6032 C 576.196 3.14431 1.5144 0
M  V30 6033 C 577.544 3.74869 1.99396 0
M  V30 6034 O 578.568 3.17601 1.61269 0
M  V30 6035 O 577.427 4.75387 2.69573 0
M  V30 6036 H 574.521 0.701186 0.438483 0
M  V30 6037 H 577.067 1.68768 0.177599 0
M  V30 6038 H 575.839 3.8427 0.738416 0
M  V30 6039 H 575.462 3.21775 2.33552 0
M  V30 6040 N 576.459 -0.456382 1.50847 0
M  V30 6041 C 577.389 -1.56025 1.73719 0
M  V30 6042 C 578.37 -1.5967 0.586473 0
M  V30 6043 O 579.555 -1.75702 0.827185 0
M  V30 6044 C 576.685 -2.94251 1.84483 0
M  V30 6045 C 575.639 -3.05471 2.99786 0
M  V30 6046 C 574.965 -4.45489 2.95709 0
M  V30 6047 C 576.265 -2.81318 4.40065 0
M  V30 6048 H 577.959 -1.37138 2.66146 0
M  V30 6049 H 575.505 -0.658299 1.28072 0
M  V30 6050 H 577.458 -3.71417 1.99067 0
M  V30 6051 H 576.182 -3.14328 0.886891 0
M  V30 6052 H 574.841 -2.30741 2.84876 0
M  V30 6053 H 574.489 -4.62505 1.97732 0
M  V30 6054 H 574.189 -4.53929 3.73125 0
M  V30 6055 H 575.713 -5.24655 3.12362 0
M  V30 6056 H 577.127 -3.48226 4.55425 0
M  V30 6057 H 575.524 -3.01188 5.19043 0
M  V30 6058 H 576.594 -1.7706 4.51418 0
M  V30 6059 N 577.937 -1.40673 -0.710563 0
M  V30 6060 C 578.867 -1.44095 -1.83736 0
M  V30 6061 C 579.848 -0.301286 -1.67411 0
M  V30 6062 O 581.033 -0.510618 -1.87367 0
M  V30 6063 C 578.163 -1.30773 -3.21738 0
M  V30 6064 C 577.117 -2.42395 -3.52745 0
M  V30 6065 C 576.443 -2.14147 -4.89944 0
M  V30 6066 C 577.743 -3.84738 -3.53234 0
M  V30 6067 H 579.437 -2.38396 -1.81129 0
M  V30 6068 H 576.983 -1.14746 -0.870017 0
M  V30 6069 H 578.936 -1.31783 -4.00264 0
M  V30 6070 H 577.66 -0.329507 -3.24934 0
M  V30 6071 H 576.319 -2.40643 -2.76562 0
M  V30 6072 H 575.967 -1.14703 -4.89747 0
M  V30 6073 H 575.667 -2.88934 -5.11655 0
M  V30 6074 H 577.191 -2.16848 -5.70797 0
M  V30 6075 H 578.605 -3.88286 -4.2179 0
M  V30 6076 H 577.002 -4.59085 -3.86473 0
M  V30 6077 H 578.072 -4.13962 -2.52514 0
M  V30 6078 N 579.415 0.9433 -1.26252 0
M  V30 6079 C 580.345 2.05902 -1.10122 0
M  V30 6080 C 581.326 1.70099 -0.00700552 0
M  V30 6081 O 582.511 1.93377 -0.178641 0
M  V30 6082 C 579.641 3.39516 -0.731175 0
M  V30 6083 C 578.595 3.89372 -1.77688 0
M  V30 6084 C 577.921 5.19613 -1.26122 0
M  V30 6085 C 579.221 4.14489 -3.17799 0
M  V30 6086 H 580.915 2.19655 -2.03451 0
M  V30 6087 H 578.461 1.05548 -0.979576 0
M  V30 6088 H 580.414 4.17031 -0.605215 0
M  V30 6089 H 579.138 3.25733 0.23782 0
M  V30 6090 H 577.797 3.14036 -1.89148 0
M  V30 6091 H 577.445 5.02208 -0.282128 0
M  V30 6092 H 577.145 5.53939 -1.96023 0
M  V30 6093 H 578.669 5.99713 -1.14789 0
M  V30 6094 H 580.083 4.82625 -3.09428 0
M  V30 6095 H 578.48 4.60094 -3.85271 0
M  V30 6096 H 579.55 3.20347 -3.64014 0
M  V30 6097 N 580.893 1.08022 1.14757 0
M  V30 6098 C 581.823 0.728248 2.21853 0
M  V30 6099 C 582.804 -0.287486 1.67653 0
M  V30 6100 O 583.989 -0.158727 1.9355 0
M  V30 6101 C 581.119 0.132549 3.47047 0
M  V30 6102 C 580.073 1.07619 4.14249 0
M  V30 6103 C 579.399 0.342907 5.33599 0
M  V30 6104 C 580.699 2.41268 4.63235 0
M  V30 6105 H 582.393 1.62365 2.51551 0
M  V30 6106 H 579.939 0.782125 1.20908 0
M  V30 6107 H 581.892 -0.125665 4.21213 0
M  V30 6108 H 580.616 -0.797971 3.16702 0
M  V30 6109 H 579.275 1.31944 3.42033 0
M  V30 6110 H 578.923 -0.59129 4.99513 0
M  V30 6111 H 578.623 0.971955 5.79506 0
M  V30 6112 H 580.147 0.0926538 6.1053 0
M  V30 6113 H 581.561 2.21232 5.28894 0
M  V30 6114 H 579.958 2.9983 5.19829 0
M  V30 6115 H 581.028 3.03079 3.78512 0
M  V30 6116 N 582.371 -1.3172 0.865308 0
M  V30 6117 C 583.648 -1.91574 0.394789 0
M  V30 6118 C 584.028 -1.78769 -1.12271 0
M  V30 6119 O 583.376 -1.19245 -1.94918 0
M  V30 6120 C 583.586 -3.37957 0.870982 0
M  V30 6121 C 584.934 -4.15073 0.894384 0
M  V30 6122 O 585.958 -3.4672 0.816325 0
M  V30 6123 O 584.817 -5.37151 1.00651 0
M  V30 6124 H 581.911 -0.818649 0.117229 0
M  V30 6125 H 584.457 -1.4042 0.952913 0
M  V30 6126 H 583.229 -3.41269 1.91444 0
M  V30 6127 H 582.852 -3.96534 0.290907 0
M  V30 6128 N 583.85 -0.624285 -1.44708 0
M  V30 6129 C 585.096 -0.126237 -2.02407 0
M  V30 6130 C 585.428 1.24618 -1.48943 0
M  V30 6131 O 584.704 1.82569 -0.670742 0
M  V30 6132 C 584.986 -0.105449 -3.59946 0
M  V30 6133 C 584.84 -1.50972 -4.23707 0
M  V30 6134 C 586.159 0.573629 -4.36346 0
M  V30 6135 H 583.278 -0.0473472 -0.735478 0
M  V30 6136 H 585.92 -0.799452 -1.72362 0
M  V30 6137 H 584.07 0.46783 -3.85673 0
M  V30 6138 H 585.742 -2.13136 -4.0911 0
M  V30 6139 H 583.985 -2.0656 -3.81465 0
M  V30 6140 H 584.656 -1.44727 -5.32689 0
M  V30 6141 H 587.132 0.0861787 -4.16011 0
M  V30 6142 H 586.008 0.557338 -5.46063 0
M  V30 6143 H 586.269 1.64276 -4.10446 0
M  V30 6144 N 585.328 1.53329 -0.364422 0
M  V30 6145 C 586.556 2.05657 0.226424 0
M  V30 6146 C 586.971 1.23801 1.42544 0
M  V30 6147 O 586.328 0.27839 1.80364 0
M  V30 6148 C 586.379 3.56125 0.621056 0
M  V30 6149 O 586.1 4.34879 -0.530304 0
M  V30 6150 C 587.601 4.24706 1.27041 0
M  V30 6151 H 584.821 0.669806 0.0400056 0
M  V30 6152 H 587.365 1.97714 -0.522456 0
M  V30 6153 H 585.52 3.64223 1.31985 0
M  V30 6154 H 585.934 5.24073 -0.211546 0
M  V30 6155 H 587.408 5.3131 1.49711 0
M  V30 6156 H 587.885 3.78354 2.23036 0
M  V30 6157 H 588.491 4.20858 0.613079 0
M  V30 6158 N 586.806 0.0935595 1.57322 0
M  V30 6159 C 588.217 -0.435807 1.81542 0
M  V30 6160 C 588.568 -1.68263 1.00907 0
M  V30 6161 O 587.693 -2.15087 0.237983 0
M  V30 6162 C 588.288 -0.797436 3.29282 0
M  V30 6163 C 586.847 -1.27155 3.54272 0
M  V30 6164 C 585.994 -0.267455 2.76007 0
M  V30 6165 H 588.945 0.31902 1.5546 0
M  V30 6166 H 588.966 -1.6571 3.42521 0
M  V30 6167 H 588.478 0.110206 3.87943 0
M  V30 6168 H 586.579 -2.19696 3.00939 0
M  V30 6169 H 586.692 -1.23445 4.62923 0
M  V30 6170 H 585.056 -0.749282 2.43429 0
M  V30 6171 H 585.839 0.632839 3.37417 0
M  V30 6172 N 588.284 -1.56567 -0.180126 0
M  V30 6173 C 589.214 -1.98753 -1.22553 0
M  V30 6174 C 590.195 -0.86175 -1.46656 0
M  V30 6175 O 591.38 -1.12719 -1.58139 0
M  V30 6176 C 588.51 -2.33988 -2.56645 0
M  V30 6177 C 587.464 -3.49445 -2.47128 0
M  V30 6178 C 586.79 -3.70397 -3.8563 0
M  V30 6179 C 588.09 -4.83171 -1.98352 0
M  V30 6180 H 589.784 -2.86332 -0.874896 0
M  V30 6181 H 587.33 -1.37757 -0.419414 0
M  V30 6182 H 589.283 -2.62097 -3.29974 0
M  V30 6183 H 588.007 -1.43309 -2.93479 0
M  V30 6184 H 586.666 -3.2145 -1.76254 0
M  V30 6185 H 586.314 -2.77023 -4.19842 0
M  V30 6186 H 586.014 -4.48077 -3.80132 0
M  V30 6187 H 587.538 -4.00897 -4.60558 0
M  V30 6188 H 588.952 -5.10213 -2.61449 0
M  V30 6189 H 587.349 -5.64425 -2.03823 0
M  V30 6190 H 588.419 -4.75753 -0.937402 0
M  V30 6191 N 589.762 0.448376 -1.51087 0
M  V30 6192 C 590.987 1.22605 -1.6728 0
M  V30 6193 C 591.412 1.84524 -0.365045 0
M  V30 6194 O 590.77 1.6832 0.673642 0
M  V30 6195 C 590.818 2.29393 -2.78229 0
M  V30 6196 O 589.922 3.34608 -2.41063 0
M  V30 6197 H 589.263 0.359705 -0.558129 0
M  V30 6198 H 591.793 0.530903 -1.97592 0
M  V30 6199 H 591.803 2.74352 -3.01986 0
M  V30 6200 H 590.478 1.83701 -3.73131 0
M  V30 6201 H 589.055 2.95202 -2.27838 0
M  V30 6202 N 591.24 1.41047 0.703093 0
M  V30 6203 C 592.17 1.45067 1.82969 0
M  V30 6204 C 593.151 0.31016 1.67248 0
M  V30 6205 O 594.336 0.520548 1.87093 0
M  V30 6206 C 591.466 1.32478 3.2104 0
M  V30 6207 C 590.42 2.44262 3.51454 0
M  V30 6208 C 589.746 2.16742 4.88801 0
M  V30 6209 C 591.046 3.86606 3.51189 0
M  V30 6210 H 592.74 2.39353 1.79863 0
M  V30 6211 H 590.286 1.15206 0.863919 0
M  V30 6212 H 592.239 1.33904 3.99559 0
M  V30 6213 H 590.963 0.346735 3.24754 0
M  V30 6214 H 589.622 2.42107 2.75282 0
M  V30 6215 H 589.27 1.17299 4.89132 0
M  V30 6216 H 588.97 2.91643 5.10116 0
M  V30 6217 H 590.494 2.19872 5.69639 0
M  V30 6218 H 591.908 3.90517 4.19725 0
M  V30 6219 H 590.305 4.61128 3.84033 0
M  V30 6220 H 591.375 4.15296 2.50315 0
M  V30 6221 N 592.718 -0.936591 1.26751 0
M  V30 6222 C 593.966 -1.67998 1.12343 0
M  V30 6223 C 594.287 -1.92137 -0.332938 0
M  V30 6224 O 593.557 -1.52132 -1.23421 0
M  V30 6225 H 592.137 -0.622609 0.412756 0
M  V30 6226 H 594.799 -1.12509 1.59147 0
M  V30 6227 H 593.895 -2.65185 1.64571 0
M  V30 6228 N 594.196 -1.08629 -1.14182 0
M  V30 6229 C 595.445 -0.812271 -1.84621 0
M  V30 6230 C 595.758 0.664313 -1.83973 0
M  V30 6231 O 596.964 1.05357 -2.50224 0
M  V30 6232 C 595.42 -1.4031 -3.31423 0
M  V30 6233 C 595.028 -2.91164 -3.40481 0
M  V30 6234 C 596.772 -1.20767 -4.06959 0
M  V30 6235 C 594.679 -3.43373 -4.81507 0
M  V30 6236 H 593.609 -0.30019 -0.691666 0
M  V30 6237 H 596.26 -1.30798 -1.28701 0
M  V30 6238 H 594.642 -0.835096 -3.87094 0
M  V30 6239 H 595.816 -3.5412 -2.94848 0
M  V30 6240 H 594.131 -3.09646 -2.78403 0
M  V30 6241 H 596.728 -1.57237 -5.11058 0
M  V30 6242 H 597.071 -0.147664 -4.16038 0
M  V30 6243 H 597.604 -1.74274 -3.57594 0
M  V30 6244 H 594.343 -4.48958 -4.77616 0
M  V30 6245 H 593.863 -2.85176 -5.27669 0
M  V30 6246 H 595.542 -3.40095 -5.50404 0
M  V30 6247 N 595.674 1.31259 -0.872281 0
M  V30 6248 C 596.584 2.32221 -0.333255 0
M  V30 6249 C 597.6 1.6481 0.558013 0
M  V30 6250 O 598.776 1.96212 0.454175 0
M  V30 6251 C 595.841 3.43708 0.454479 0
M  V30 6252 C 594.902 4.26774 -0.465024 0
M  V30 6253 C 594.135 5.32937 0.28521 0
M  V30 6254 O 594.358 5.49968 1.513 0
M  V30 6255 O 593.292 6.00834 -0.358126 0
M  V30 6256 H 597.118 2.80252 -1.17016 0
M  V30 6257 H 594.703 1.352 -0.635724 0
M  V30 6258 H 596.585 4.11656 0.900963 0
M  V30 6259 H 595.26 2.97836 1.26789 0
M  V30 6260 H 594.167 3.61571 -0.960055 0
M  V30 6261 H 595.5 4.76217 -1.2441 0
M  V30 6262 N 597.152 0.631951 1.44375 0
M  V30 6263 C 598.38 0.143867 2.06399 0
M  V30 6264 C 598.795 -1.18188 1.47231 0
M  V30 6265 O 598.152 -1.72511 0.595498 0
M  V30 6266 C 598.203 0.0238253 3.61492 0
M  V30 6267 O 597.924 1.29715 4.18456 0
M  V30 6268 C 599.425 -0.492856 4.40552 0
M  V30 6269 H 596.645 0.0800542 0.666207 0
M  V30 6270 H 599.189 0.866586 1.85231 0
M  V30 6271 H 597.344 -0.649338 3.81919 0
M  V30 6272 H 597.758 1.14252 5.11905 0
M  V30 6273 H 599.232 -0.525861 5.49489 0
M  V30 6274 H 599.709 -1.52006 4.12057 0
M  V30 6275 H 600.315 0.147085 4.25046 0
M  V30 6276 N 598.631 -1.53133 0.372548 0
M  V30 6277 C 599.594 -2.24569 -0.458389 0
M  V30 6278 C 600.594 -1.25603 -1.00402 0
M  V30 6279 O 601.784 -1.49827 -0.888672 0
M  V30 6280 C 598.916 -2.98783 -1.6414 0
M  V30 6281 H 600.109 -2.99436 0.166799 0
M  V30 6282 H 597.662 -1.55805 0.124357 0
M  V30 6283 H 598.397 -2.28176 -2.30448 0
M  V30 6284 H 598.182 -3.71404 -1.25704 0
M  V30 6285 H 599.672 -3.53068 -2.23008 0
M  V30 6286 N 600.109 -0.101901 -1.5727 0
M  V30 6287 C 601.357 0.559091 -1.94213 0
M  V30 6288 C 601.678 1.68297 -0.984948 0
M  V30 6289 O 600.948 1.95863 -0.0381975 0
M  V30 6290 H 599.528 0.20952 -0.717015 0
M  V30 6291 H 602.19 -0.166831 -1.94185 0
M  V30 6292 H 601.286 0.96485 -2.96811 0
M  V30 6293 N 601.587 1.56661 0.17182 0
M  V30 6294 C 602.835 1.81606 0.886774 0
M  V30 6295 C 603.156 0.678818 1.82803 0
M  V30 6296 O 602.426 -0.301354 1.93568 0
M  V30 6297 H 601.006 0.669934 0.330451 0
M  V30 6298 H 603.668 1.94142 0.171757 0
M  V30 6299 H 602.764 2.75634 1.46398 0
M  V30 6300 N 603.065 -0.440357 1.51323 0
M  V30 6301 C 604.311 -1.19181 1.64085 0
M  V30 6302 C 604.644 -1.90936 0.354575 0
M  V30 6303 O 603.919 -1.8347 -0.645675 0
M  V30 6304 C 604.202 -2.2112 2.84215 0
M  V30 6305 C 604.055 -1.53468 4.22809 0
M  V30 6306 C 605.374 -3.22133 2.99864 0
M  V30 6307 H 602.493 -0.431924 0.597169 0
M  V30 6308 H 605.135 -0.481443 1.83799 0
M  V30 6309 H 603.285 -2.81703 2.67537 0
M  V30 6310 H 604.957 -0.962455 4.51148 0
M  V30 6311 H 603.2 -0.837086 4.25647 0
M  V30 6312 H 603.871 -2.27694 5.02852 0
M  V30 6313 H 606.347 -2.71601 3.15233 0
M  V30 6314 H 605.223 -3.90756 3.85488 0
M  V30 6315 H 605.484 -3.88061 2.11804 0
M  V30 6316 N 604.543 -1.41418 -0.695603 0
M  V30 6317 C 605.476 -1.3768 -1.81988 0
M  V30 6318 C 606.454 -0.244061 -1.60758 0
M  V30 6319 O 607.638 -0.430965 -1.83507 0
M  V30 6320 C 604.765 -1.1476 -3.18666 0
M  V30 6321 C 603.811 -2.30752 -3.58686 0
M  V30 6322 S 604.644 -3.9323 -3.63498 0
M  V30 6323 C 605.8 -3.72613 -5.02902 0
M  V30 6324 H 606.033 -2.32822 -1.84882 0
M  V30 6325 H 603.566 -1.27942 -0.86431 0
M  V30 6326 H 605.524 -1.02223 -3.97569 0
M  V30 6327 H 604.185 -0.212385 -3.13381 0
M  V30 6328 H 603.378 -2.10409 -4.57978 0
M  V30 6329 H 602.98 -2.39696 -2.87092 0
M  V30 6330 H 605.272 -3.32317 -5.904 0
M  V30 6331 H 606.215 -4.71507 -5.28286 0
M  V30 6332 H 606.623 -3.0589 -4.74438 0
M  V30 6333 N 606.021 0.929856 -1.27246 0
M  V30 6334 C 607.249 1.71144 -1.16265 0
M  V30 6335 C 607.664 1.867 0.280786 0
M  V30 6336 O 607.021 1.38249 1.19136 0
M  V30 6337 C 607.072 3.11222 -1.83911 0
M  V30 6338 O 606.793 2.96398 -3.22614 0
M  V30 6339 C 608.294 4.05541 -1.79028 0
M  V30 6340 H 605.514 0.535499 -0.404328 0
M  V30 6341 H 608.058 1.16492 -1.68077 0
M  V30 6342 H 606.213 3.6274 -1.36009 0
M  V30 6343 H 606.627 3.8494 -3.56261 0
M  V30 6344 H 608.101 5.01351 -2.30978 0
M  V30 6345 H 608.578 4.32589 -0.759168 0
M  V30 6346 H 609.184 3.59947 -2.26535 0
M  V30 6347 N 607.499 1.09233 1.13605 0
M  V30 6348 C 608.745 0.828385 1.8511 0
M  V30 6349 C 609.078 -0.64437 1.83198 0
M  V30 6350 O 608.353 -1.47428 1.26867 0
M  V30 6351 C 608.636 1.36167 3.33363 0
M  V30 6352 C 608.489 2.90038 3.438 0
M  V30 6353 C 609.808 0.993819 4.28732 0
M  V30 6354 H 606.927 0.30239 0.672108 0
M  V30 6355 H 609.569 1.35339 1.33355 0
M  V30 6356 H 607.719 0.9151 3.77569 0
M  V30 6357 H 609.391 3.43128 3.08319 0
M  V30 6358 H 607.634 3.27271 2.84739 0
M  V30 6359 H 608.305 3.22428 4.48045 0
M  V30 6360 H 610.781 1.37893 3.92587 0
M  V30 6361 H 609.657 1.39403 5.30903 0
M  V30 6362 H 609.918 -0.0982206 4.41991 0
M  V30 6363 N 608.977 -1.30795 0.87923 0
M  V30 6364 C 609.907 -2.30742 0.357796 0
M  V30 6365 C 610.888 -1.60747 -0.556283 0
M  V30 6366 O 612.073 -1.88393 -0.47135 0
M  V30 6367 C 609.203 -3.44583 -0.433555 0
M  V30 6368 C 608.157 -4.26235 0.388251 0
M  V30 6369 C 607.483 -5.32073 -0.529352 0
M  V30 6370 C 608.783 -4.96303 1.62729 0
M  V30 6371 H 610.477 -2.74605 1.19299 0
M  V30 6372 H 608.023 -1.32017 0.575104 0
M  V30 6373 H 609.976 -4.13563 -0.808934 0
M  V30 6374 H 608.7 -2.99511 -1.30234 0
M  V30 6375 H 607.359 -3.58936 0.745695 0
M  V30 6376 H 607.007 -4.83249 -1.39569 0
M  V30 6377 H 606.707 -5.87598 0.0166741 0
M  V30 6378 H 608.231 -6.0391 -0.901373 0
M  V30 6379 H 609.645 -5.5783 1.32283 0
M  V30 6380 H 608.042 -5.61666 2.11309 0
M  V30 6381 H 609.112 -4.22758 2.37494 0
M  V30 6382 N 610.455 -0.639598 -1.44038 0
M  V30 6383 C 611.704 -0.144885 -2.01179 0
M  V30 6384 C 612.017 1.24372 -1.50967 0
M  V30 6385 O 613.223 1.83291 -2.00292 0
M  V30 6386 C 611.679 -0.208244 -3.59297 0
M  V30 6387 C 611.287 -1.59869 -4.18504 0
M  V30 6388 C 613.031 0.229568 -4.23879 0
M  V30 6389 C 610.938 -1.61671 -5.68873 0
M  V30 6390 H 609.868 -0.0504005 -0.752314 0
M  V30 6391 H 612.519 -0.799639 -1.65161 0
M  V30 6392 H 610.901 0.513767 -3.92653 0
M  V30 6393 H 612.075 -2.34496 -3.96671 0
M  V30 6394 H 610.39 -1.98131 -3.66242 0
M  V30 6395 H 612.987 0.235758 -5.3418 0
M  V30 6396 H 613.33 1.25848 -3.96822 0
M  V30 6397 H 613.863 -0.440233 -3.95357 0
M  V30 6398 H 610.602 -2.62427 -6.00677 0
M  V30 6399 H 610.122 -0.913489 -5.92803 0
M  V30 6400 H 611.801 -1.35439 -6.32665 0
M  V30 6401 N 611.933 1.52934 -0.380664 0
M  V30 6402 C 612.88 2.26197 0.458641 0
M  V30 6403 C 613.85 1.27462 1.06502 0
M  V30 6404 O 615.035 1.56274 1.09467 0
M  V30 6405 C 612.175 3.06571 1.58456 0
M  V30 6406 C 611.288 4.20222 1.00189 0
M  V30 6407 C 610.423 4.88007 2.09815 0
M  V30 6408 C 609.462 5.93665 1.49092 0
M  V30 6409 N 608.599 6.55081 2.52613 0
M  V30 6410 H 613.439 2.975 -0.172595 0
M  V30 6411 H 610.976 1.4678 -0.0969426 0
M  V30 6412 H 612.934 3.51455 2.24801 0
M  V30 6413 H 611.564 2.37494 2.18624 0
M  V30 6414 H 610.616 3.79714 0.228292 0
M  V30 6415 H 611.928 4.96102 0.518064 0
M  V30 6416 H 611.082 5.36151 2.83948 0
M  V30 6417 H 609.821 4.11632 2.61555 0
M  V30 6418 H 608.826 5.44868 0.7348 0
M  V30 6419 H 610.051 6.71969 0.981582 0
M  V30 6420 H 607.997 5.8155 3.03538 0
M  V30 6421 H 607.914 7.26548 2.08961 0
M  V30 6422 H 609.182 7.07871 3.26402 0
M  V30 6423 N 613.412 0.11024 1.57214 0
M  V30 6424 C 614.828 -0.24638 1.57687 0
M  V30 6425 C 615.028 -1.67344 1.12241 0
M  V30 6426 O 614.084 -2.39298 0.805783 0
M  V30 6427 C 615.397 -0.0210288 3.00693 0
M  V30 6428 C 616.945 -0.0876077 3.12877 0
M  V30 6429 C 617.42 0.10994 4.57868 0
M  V30 6430 N 618.911 0.0556135 4.63167 0
M  V30 6431 C 619.646 0.183495 5.73106 0
M  V30 6432 N 619.142 0.367058 6.91827 0
M  V30 6433 N 620.935 0.123689 5.61964 0
M  V30 6434 H 613.086 1.04246 1.85058 0
M  V30 6435 H 615.349 0.40979 0.854854 0
M  V30 6436 H 615.055 0.965203 3.38196 0
M  V30 6437 H 614.929 -0.756748 3.69531 0
M  V30 6438 H 617.316 -1.06436 2.75237 0
M  V30 6439 H 617.397 0.67985 2.466 0
M  V30 6440 H 617.041 1.08362 4.96206 0
M  V30 6441 H 616.971 -0.677397 5.22225 0
M  V30 6442 H 619.462 -0.0831062 3.77809 0
M  V30 6443 H 619.775 0.455739 7.71455 0
M  V30 6444 H 618.12 0.40292 6.93831 0
M  V30 6445 H 621.311 -0.0186928 4.68096 0
M  V30 6446 H 621.484 0.226797 6.47603 0
M  V30 6447 N 614.89 -1.56749 -0.16351 0
M  V30 6448 C 615.838 -1.97939 -1.22159 0
M  V30 6449 C 616.832 -0.869288 -1.45395 0
M  V30 6450 O 618.038 -1.05443 -1.45883 0
M  V30 6451 H 614.413 -0.629869 -0.410815 0
M  V30 6452 H 616.384 -2.86115 -0.847381 0
M  V30 6453 C 615.133 -2.36206 -2.55151 0
M  V30 6454 H 614.456 -3.2117 -2.38097 0
M  V30 6455 H 615.896 -2.68863 -3.27854 0
M  V30 6456 C 614.355 -1.20841 -3.14482 0
M  V30 6457 O 614.885 -0.500258 -3.98573 0
M  V30 6458 N 613.091 -0.976943 -2.73686 0
M  V30 6459 H 612.638 -1.55457 -2.05404 0
M  V30 6460 H 612.596 -0.206912 -3.13718 0
M  V30 6461 N 616.368 0.432326 -1.51554 0
M  V30 6462 C 617.596 1.20364 -1.68286 0
M  V30 6463 C 618.011 1.84888 -0.38233 0
M  V30 6464 O 617.368 1.70924 0.639627 0
M  V30 6465 C 617.419 2.28398 -2.80208 0
M  V30 6466 O 617.14 1.66512 -4.05223 0
M  V30 6467 C 618.641 3.18584 -3.08251 0
M  V30 6468 H 615.861 0.36259 -0.564596 0
M  V30 6469 H 618.405 0.511647 -1.97996 0
M  V30 6470 H 616.56 2.93305 -2.53083 0
M  V30 6471 H 616.974 2.37951 -4.67418 0
M  V30 6472 H 618.448 3.90511 -3.90135 0
M  V30 6473 H 618.925 3.79628 -2.2086 0
M  V30 6474 H 619.531 2.59372 -3.37055 0
M  V30 6475 N 617.846 1.41785 0.688094 0
M  V30 6476 C 619.074 1.44915 1.47673 0
M  V30 6477 C 619.489 0.0565786 1.88715 0
M  V30 6478 O 618.846 -0.92579 1.57275 0
M  V30 6479 C 618.897 2.36452 2.73446 0
M  V30 6480 O 618.618 3.7029 2.34131 0
M  V30 6481 C 620.119 2.48463 3.67125 0
M  V30 6482 H 617.339 0.493324 0.454832 0
M  V30 6483 H 619.883 1.86153 0.846594 0
M  V30 6484 H 618.038 1.98502 3.3268 0
M  V30 6485 H 618.452 4.19183 3.15255 0
M  V30 6486 H 619.926 3.16662 4.52138 0
M  V30 6487 H 620.403 1.51826 4.12123 0
M  V30 6488 H 621.009 2.8708 3.13792 0
M  V30 6489 N 619.324 -0.923095 1.27737 0
M  V30 6490 C 620.573 -1.66581 1.13727 0
M  V30 6491 C 620.886 -1.9304 -0.315433 0
M  V30 6492 O 622.092 -2.65309 -0.57651 0
M  V30 6493 C 620.548 -3.00047 1.98745 0
M  V30 6494 C 620.156 -2.8127 3.48699 0
M  V30 6495 C 621.9 -3.77887 1.93395 0
M  V30 6496 C 619.807 -4.1032 4.25901 0
M  V30 6497 H 618.737 -0.624834 0.422017 0
M  V30 6498 H 621.388 -1.02514 1.52194 0
M  V30 6499 H 619.77 -3.65197 1.53125 0
M  V30 6500 H 620.944 -2.24859 4.02213 0
M  V30 6501 H 619.259 -2.16854 3.55476 0
M  V30 6502 H 621.856 -4.73526 2.48348 0
M  V30 6503 H 622.199 -4.06264 0.908605 0
M  V30 6504 H 622.732 -3.19541 2.36935 0
M  V30 6505 H 619.471 -3.8712 5.28978 0
M  V30 6506 H 618.991 -4.66377 3.77163 0
M  V30 6507 H 620.67 -4.78648 4.35321 0
M  V30 6508 N 620.802 -1.09834 -1.13024 0
M  V30 6509 C 622.213 -0.855651 -1.65938 0
M  V30 6510 C 622.564 0.615159 -1.86307 0
M  V30 6511 O 621.689 1.47335 -1.58497 0
M  V30 6512 C 622.284 -1.5467 -3.01434 0
M  V30 6513 C 620.843 -1.35088 -3.51323 0
M  V30 6514 C 619.99 -1.6001 -2.26478 0
M  V30 6515 H 622.941 -1.25691 -0.968889 0
M  V30 6516 H 622.962 -0.982179 -3.67605 0
M  V30 6517 H 622.474 -2.61715 -2.86578 0
M  V30 6518 H 620.575 -0.30179 -3.71376 0
M  V30 6519 H 620.688 -2.0886 -4.31178 0
M  V30 6520 H 619.052 -1.02246 -2.33276 0
M  V30 6521 H 619.835 -2.68293 -2.14182 0
M  V30 6522 N 622.28 1.30327 -0.886154 0
M  V30 6523 C 623.508 2.00254 -0.520176 0
M  V30 6524 C 623.923 1.66419 0.891637 0
M  V30 6525 O 623.28 0.901951 1.58654 0
M  V30 6526 C 623.331 3.54916 -0.686775 0
M  V30 6527 O 623.052 3.87547 -2.04301 0
M  V30 6528 C 624.553 4.42115 -0.323945 0
M  V30 6529 H 621.773 0.640204 -0.200947 0
M  V30 6530 H 624.317 1.66183 -1.19178 0
M  V30 6531 H 622.472 3.8735 -0.0625273 0
M  V30 6532 H 622.886 4.82247 -2.06249 0
M  V30 6533 H 624.36 5.49808 -0.491407 0
M  V30 6534 H 624.837 4.32953 0.73811 0
M  V30 6535 H 625.443 4.15129 -0.924565 0
M  V30 6536 N 623.758 0.647228 1.43697 0
M  V30 6537 C 624.705 -0.0480092 2.3075 0
M  V30 6538 C 625.675 -0.820705 1.44408 0
M  V30 6539 O 626.86 -0.798515 1.73287 0
M  V30 6540 C 624 -1.01259 3.2991 0
M  V30 6541 C 623.113 -0.236629 4.31351 0
M  V30 6542 C 622.248 -1.19447 5.17596 0
M  V30 6543 C 621.287 -0.408595 6.10735 0
M  V30 6544 N 620.424 -1.31772 6.89623 0
M  V30 6545 H 625.264 0.700238 2.89656 0
M  V30 6546 H 622.801 0.357082 1.427 0
M  V30 6547 H 624.759 -1.58538 3.85903 0
M  V30 6548 H 623.389 -1.72778 2.72667 0
M  V30 6549 H 622.441 0.452353 3.77701 0
M  V30 6550 H 623.753 0.374731 4.9739 0
M  V30 6551 H 622.907 -1.83809 5.78186 0
M  V30 6552 H 621.646 -1.83975 4.51669 0
M  V30 6553 H 620.651 0.24841 5.49239 0
M  V30 6554 H 621.876 0.232188 6.78703 0
M  V30 6555 H 619.822 -1.94991 6.2635 0
M  V30 6556 H 619.739 -0.760779 7.52162 0
M  V30 6557 H 621.007 -1.94967 7.54724 0
M  V30 6558 N 625.236 -1.5273 0.388769 0
M  V30 6559 C 626.168 -2.24081 -0.481704 0
M  V30 6560 C 627.181 -1.26307 -1.02715 0
M  V30 6561 O 628.37 -1.52386 -0.929565 0
M  V30 6562 C 625.47 -2.94315 -1.68024 0
M  V30 6563 C 624.643 -4.18791 -1.26226 0
M  V30 6564 C 623.702 -4.72028 -2.32542 0
M  V30 6565 O 622.728 -5.35129 -1.93972 0
M  V30 6566 N 623.93 -4.51838 -3.64448 0
M  V30 6567 H 626.695 -2.9942 0.129591 0
M  V30 6568 H 624.256 -1.60465 0.2151 0
M  V30 6569 H 626.248 -3.26831 -2.38671 0
M  V30 6570 H 624.818 -2.22287 -2.19789 0
M  V30 6571 H 624.038 -3.92318 -0.384703 0
M  V30 6572 H 625.326 -4.99668 -0.959647 0
M  V30 6573 H 624.724 -4.01468 -3.98547 0
M  V30 6574 H 623.281 -4.88845 -4.31131 0
M  V30 6575 N 626.714 -0.118576 -1.57153 0
M  V30 6576 C 627.942 0.54726 -1.99531 0
M  V30 6577 C 628.357 1.60251 -0.998246 0
M  V30 6578 O 627.714 1.82498 0.00893106 0
M  V30 6579 C 627.765 1.17378 -3.41913 0
M  V30 6580 O 627.486 0.160703 -4.37805 0
M  V30 6581 C 628.987 1.92297 -3.9942 0
M  V30 6582 H 626.207 0.144919 -0.655164 0
M  V30 6583 H 628.751 -0.20479 -2.03472 0
M  V30 6584 H 626.906 1.87661 -3.38913 0
M  V30 6585 H 627.32 0.61586 -5.20872 0
M  V30 6586 H 628.794 2.31462 -5.01128 0
M  V30 6587 H 629.271 2.79801 -3.38538 0
M  V30 6588 H 629.877 1.26777 -4.05965 0
M  V30 6589 N 628.193 1.56834 0.155195 0
M  V30 6590 C 629.125 1.94235 1.21677 0
M  V30 6591 C 630.138 0.83724 1.39621 0
M  V30 6592 O 631.327 1.11567 1.39338 0
M  V30 6593 C 628.427 2.19402 2.58294 0
M  V30 6594 C 627.6 3.50671 2.61436 0
M  V30 6595 C 626.659 3.64475 3.79532 0
M  V30 6596 O 625.685 4.36945 3.64784 0
M  V30 6597 N 626.887 3.00526 4.96653 0
M  V30 6598 H 629.652 2.85901 0.898932 0
M  V30 6599 H 627.213 1.58185 0.34483 0
M  V30 6600 H 629.205 2.25886 3.35794 0
M  V30 6601 H 627.775 1.34042 2.82403 0
M  V30 6602 H 626.995 3.55702 1.69912 0
M  V30 6603 H 628.283 4.3702 2.60559 0
M  V30 6604 H 627.681 2.41549 5.11538 0
M  V30 6605 H 626.238 3.12583 5.71958 0
M  V30 6606 N 629.671 -0.424282 1.51781 0
M  V30 6607 C 630.899 -1.1947 1.68921 0
M  V30 6608 C 631.314 -1.84683 0.39213 0
M  V30 6609 O 630.671 -1.71261 -0.630554 0
M  V30 6610 C 630.722 -2.26909 2.81416 0
M  V30 6611 O 630.443 -1.64361 4.061 0
M  V30 6612 C 631.944 -3.16945 3.09937 0
M  V30 6613 H 629.164 -0.359591 0.566511 0
M  V30 6614 H 631.708 -0.501139 1.98265 0
M  V30 6615 H 629.863 -2.91959 2.54635 0
M  V30 6616 H 630.277 -2.35468 4.68674 0
M  V30 6617 H 631.751 -3.88437 3.922 0
M  V30 6618 H 632.228 -3.78451 2.22871 0
M  V30 6619 H 632.834 -2.57581 3.38426 0
M  V30 6620 N 631.149 -1.42148 -0.680565 0
M  V30 6621 C 632.396 -1.4231 -1.44063 0
M  V30 6622 C 632.724 -0.037488 -1.94464 0
M  V30 6623 O 631.979 0.953184 -1.70918 0
M  V30 6624 C 632.278 -2.38945 -2.65782 0
M  V30 6625 C 631.944 -3.85455 -2.33956 0
M  V30 6626 C 630.606 -4.25364 -2.24987 0
M  V30 6627 C 632.958 -4.77895 -2.08004 0
M  V30 6628 C 630.286 -5.55701 -1.88184 0
M  V30 6629 C 632.638 -6.08568 -1.72706 0
M  V30 6630 C 631.302 -6.47482 -1.62244 0
M  V30 6631 H 630.572 -0.520748 -0.527164 0
M  V30 6632 H 633.219 -1.7505 -0.776524 0
M  V30 6633 H 631.524 -1.99511 -3.37198 0
M  V30 6634 H 633.221 -2.36336 -3.23954 0
M  V30 6635 H 629.811 -3.53855 -2.41836 0
M  V30 6636 H 633.995 -4.47854 -2.1387 0
M  V30 6637 H 629.251 -5.84718 -1.78648 0
M  V30 6638 H 633.425 -6.79688 -1.5165 0
M  V30 6639 H 631.052 -7.48387 -1.33496 0
M  V30 6640 N 632.627 0.916307 -1.28225 0
M  V30 6641 C 633.855 1.69901 -1.18073 0
M  V30 6642 C 634.27 1.86988 0.260968 0
M  V30 6643 O 633.627 1.39505 1.17663 0
M  V30 6644 C 633.678 3.09254 -1.87201 0
M  V30 6645 O 633.399 2.92959 -3.2574 0
M  V30 6646 C 634.9 4.0362 -1.83319 0
M  V30 6647 H 632.12 0.531181 -0.409985 0
M  V30 6648 H 634.664 1.14703 -1.69303 0
M  V30 6649 H 632.819 3.61277 -1.39848 0
M  V30 6650 H 633.233 3.81139 -3.60324 0
M  V30 6651 H 634.707 4.98873 -2.36282 0
M  V30 6652 H 635.184 4.3176 -0.805007 0
M  V30 6653 H 635.79 3.57524 -2.3034 0
M  V30 6654 N 634.105 1.10431 1.1244 0
M  V30 6655 C 635.333 0.868872 1.87772 0
M  V30 6656 C 635.748 -0.580645 1.7965 0
M  V30 6657 O 635.105 -1.40031 1.17036 0
M  V30 6658 C 635.156 1.30855 3.36986 0
M  V30 6659 O 634.877 2.70123 3.44914 0
M  V30 6660 C 636.378 1.107 4.29256 0
M  V30 6661 H 633.598 0.311868 0.59412 0
M  V30 6662 H 636.142 1.46897 1.42273 0
M  V30 6663 H 634.297 0.752126 3.80029 0
M  V30 6664 H 634.711 2.88923 4.37748 0
M  V30 6665 H 636.185 1.46378 5.32238 0
M  V30 6666 H 636.662 0.0456228 4.39176 0
M  V30 6667 H 637.268 1.64988 3.91994 0
M  V30 6668 N 635.583 -1.29855 0.893053 0
M  V30 6669 C 636.813 -1.99686 0.530019 0
M  V30 6670 C 637.221 -1.67066 -0.888012 0
M  V30 6671 O 636.564 -0.908366 -1.5967 0
M  V30 6672 C 636.626 -3.53855 0.63457 0
M  V30 6673 C 636.29 -4.10013 2.01837 0
M  V30 6674 C 637.287 -4.25406 2.98874 0
M  V30 6675 C 634.972 -4.45202 2.32595 0
M  V30 6676 C 636.966 -4.7521 4.24799 0
M  V30 6677 C 634.653 -4.94704 3.58763 0
M  V30 6678 C 635.651 -5.09662 4.5468 0
M  V30 6679 O 635.339 -5.58093 5.78608 0
M  V30 6680 H 635.071 -0.644913 0.20264 0
M  V30 6681 H 637.625 -1.66518 1.20253 0
M  V30 6682 H 635.855 -3.86583 -0.0949477 0
M  V30 6683 H 637.544 -4.04922 0.281648 0
M  V30 6684 H 638.31 -3.98515 2.76425 0
M  V30 6685 H 634.189 -4.32822 1.58701 0
M  V30 6686 H 637.733 -4.86801 4.99671 0
M  V30 6687 H 633.63 -5.21032 3.81046 0
M  V30 6688 H 634.398 -5.7642 5.81104 0
M  V30 6689 N 637.061 -0.65484 -1.43351 0
M  V30 6690 C 638.286 -0.175046 -2.0666 0
M  V30 6691 C 638.711 1.15104 -1.4877 0
M  V30 6692 O 638.069 1.71144 -0.598279 0
M  V30 6693 C 638.117 -0.0991544 -3.60464 0
M  V30 6694 O 637.221 0.938169 -4.01587 0
M  V30 6695 H 636.562 -0.0956148 -0.65708 0
M  V30 6696 H 639.092 -0.898222 -1.83829 0
M  V30 6697 H 639.102 0.083632 -4.07914 0
M  V30 6698 H 637.777 -1.06719 -4.01975 0
M  V30 6699 H 636.354 0.72804 -3.65724 0
M  V30 6700 N 638.539 1.52521 -0.396863 0
M  V30 6701 C 639.816 1.94112 0.240842 0
M  V30 6702 C 640.196 1.33288 1.637 0
M  V30 6703 O 639.544 0.503901 2.22875 0
M  V30 6704 C 639.754 3.48033 0.259567 0
M  V30 6705 C 641.102 4.21822 0.484866 0
M  V30 6706 O 642.126 3.54579 0.339453 0
M  V30 6707 O 640.985 5.41042 0.770412 0
M  V30 6708 H 638.079 0.812973 0.151671 0
M  V30 6709 H 640.625 1.63572 -0.451918 0
M  V30 6710 H 639.397 3.84655 -0.718078 0
M  V30 6711 H 639.02 3.84899 0.996937 0
M  V30 6712 N 640.017 0.126909 1.57088 0
M  V30 6713 C 640.965 -0.837618 2.16995 0
M  V30 6714 C 641.959 -1.26974 1.12133 0
M  V30 6715 O 643.165 -1.24056 1.30423 0
M  V30 6716 H 639.54 -0.288256 0.694559 0
M  V30 6717 H 641.511 -0.307957 2.96807 0
M  V30 6718 C 640.26 -2.07474 2.79016 0
M  V30 6719 H 639.583 -1.75117 3.59408 0
M  V30 6720 H 641.023 -2.72949 3.24461 0
M  V30 6721 C 639.482 -2.86967 1.76498 0
M  V30 6722 O 640.012 -3.82625 1.22316 0
M  V30 6723 N 638.218 -2.51111 1.46258 0
M  V30 6724 H 637.765 -1.73389 1.90509 0
M  V30 6725 H 637.723 -3.04594 0.779085 0
M  V30 6726 N 641.495 -1.56914 -0.146875 0
M  V30 6727 C 642.427 -1.94878 -1.20645 0
M  V30 6728 C 643.44 -0.844633 -1.39175 0
M  V30 6729 O 644.629 -1.12304 -1.38744 0
M  V30 6730 C 641.729 -2.20769 -2.57127 0
M  V30 6731 C 640.902 -3.52053 -2.59572 0
M  V30 6732 C 639.961 -3.66482 -3.77594 0
M  V30 6733 O 638.987 -4.38873 -3.62462 0
M  V30 6734 N 640.189 -3.03156 -4.95052 0
M  V30 6735 H 642.954 -2.86374 -0.883757 0
M  V30 6736 H 640.515 -1.58366 -0.336436 0
M  V30 6737 H 642.507 -2.27664 -3.34591 0
M  V30 6738 H 641.077 -1.35538 -2.81688 0
M  V30 6739 H 640.297 -3.56598 -1.68023 0
M  V30 6740 H 641.585 -4.38396 -2.58238 0
M  V30 6741 H 640.983 -2.44258 -5.10249 0
M  V30 6742 H 639.54 -3.15611 -5.70292 0
M  V30 6743 N 642.974 0.416227 -1.52004 0
M  V30 6744 C 644.385 0.995319 -1.57957 0
M  V30 6745 C 644.736 1.91744 -0.415754 0
M  V30 6746 O 643.861 2.11349 0.464808 0
M  V30 6747 C 644.456 1.81191 -2.86278 0
M  V30 6748 C 643.015 2.34115 -2.94732 0
M  V30 6749 C 642.162 1.139 -2.52828 0
M  V30 6750 H 645.113 0.196716 -1.57476 0
M  V30 6751 H 645.134 2.66859 -2.71231 0
M  V30 6752 H 644.646 1.14051 -3.70963 0
M  V30 6753 H 642.747 3.04647 -2.14525 0
M  V30 6754 H 642.86 2.65466 -3.98829 0
M  V30 6755 H 641.224 1.49081 -2.06511 0
M  V30 6756 H 642.007 0.483383 -3.3988 0
M  V30 6757 N 644.452 1.42507 0.673017 0
M  V30 6758 C 645.7 1.42789 1.43023 0
M  V30 6759 C 646.021 0.0459738 1.94946 0
M  V30 6760 O 645.291 -0.915765 1.73178 0
M  V30 6761 H 643.871 0.525657 0.530748 0
M  V30 6762 H 646.533 1.77944 0.795113 0
M  V30 6763 H 645.629 2.12872 2.28237 0
M  V30 6764 N 645.93 -0.909495 1.28709 0
M  V30 6765 C 647.176 -1.66151 1.16283 0
M  V30 6766 C 647.509 -1.92067 -0.287069 0
M  V30 6767 O 646.784 -1.52409 -1.20837 0
M  V30 6768 C 647.067 -3.01676 1.9663 0
M  V30 6769 C 646.92 -2.82888 3.49707 0
M  V30 6770 C 648.239 -4.02274 1.78504 0
M  V30 6771 H 645.358 -0.602966 0.423793 0
M  V30 6772 H 648 -1.05418 1.58073 0
M  V30 6773 H 646.15 -3.53515 1.61119 0
M  V30 6774 H 647.822 -2.38026 3.95147 0
M  V30 6775 H 646.065 -2.17862 3.75125 0
M  V30 6776 H 646.736 -3.79147 4.01187 0
M  V30 6777 H 649.212 -3.59511 2.09503 0
M  V30 6778 H 648.088 -4.95056 2.37088 0
M  V30 6779 H 648.349 -4.35903 0.737647 0
M  V30 6780 N 647.408 -1.11026 -1.11852 0
M  V30 6781 C 648.338 -0.786812 -2.19844 0
M  V30 6782 C 649.319 0.242935 -1.68356 0
M  V30 6783 O 650.504 0.107355 -1.93903 0
M  V30 6784 C 647.634 -0.224516 -3.46574 0
M  V30 6785 C 646.588 -1.18564 -4.1125 0
M  V30 6786 C 645.914 -0.484261 -5.32503 0
M  V30 6787 C 647.214 -2.53465 -4.56676 0
M  V30 6788 H 648.908 -1.68978 -2.47158 0
M  V30 6789 H 646.454 -0.813906 -1.18792 0
M  V30 6790 H 648.407 0.0139435 -4.21398 0
M  V30 6791 H 647.131 0.713722 -3.18706 0
M  V30 6792 H 645.79 -1.40966 -3.38414 0
M  V30 6793 H 645.438 0.458646 -5.00905 0
M  V30 6794 H 645.138 -1.12526 -5.76725 0
M  V30 6795 H 646.662 -0.254492 -6.10069 0
M  V30 6796 H 648.076 -2.35177 -5.22843 0
M  V30 6797 H 646.473 -3.13507 -5.11697 0
M  V30 6798 H 647.543 -3.13008 -3.70343 0
M  V30 6799 N 648.886 1.2938 -0.899927 0
M  V30 6800 C 650.135 1.9483 -0.521937 0
M  V30 6801 C 650.448 1.71725 0.936473 0
M  V30 6802 O 651.654 2.31282 1.42199 0
M  V30 6803 C 650.11 3.48911 -0.88255 0
M  V30 6804 C 649.718 3.80815 -2.35974 0
M  V30 6805 C 651.462 4.20595 -0.57448 0
M  V30 6806 C 649.369 5.28142 -2.66121 0
M  V30 6807 H 648.299 0.729285 -0.191468 0
M  V30 6808 H 650.95 1.47103 -1.09695 0
M  V30 6809 H 649.332 3.95293 -0.236459 0
M  V30 6810 H 650.506 3.45291 -3.05141 0
M  V30 6811 H 648.821 3.22271 -2.63686 0
M  V30 6812 H 651.418 5.29031 -0.776556 0
M  V30 6813 H 651.761 4.13442 0.487005 0
M  V30 6814 H 652.294 3.79945 -1.17842 0
M  V30 6815 H 649.033 5.4036 -3.71068 0
M  V30 6816 H 648.553 5.64913 -2.01578 0
M  V30 6817 H 650.232 5.95738 -2.52399 0
M  V30 6818 N 650.364 0.662433 1.43002 0
M  V30 6819 C 651.296 -0.062326 2.29115 0
M  V30 6820 C 652.309 -0.777926 1.43011 0
M  V30 6821 O 653.498 -0.634146 1.66856 0
M  V30 6822 C 650.598 -1.11163 3.2015 0
M  V30 6823 C 649.771 -0.472327 4.34842 0
M  V30 6824 C 648.83 -1.41974 5.06685 0
M  V30 6825 O 647.856 -0.924795 5.61637 0
M  V30 6826 N 649.058 -2.75345 5.11043 0
M  V30 6827 H 651.823 0.676838 2.91957 0
M  V30 6828 H 649.384 0.505907 1.53793 0
M  V30 6829 H 651.376 -1.74643 3.65078 0
M  V30 6830 H 649.946 -1.75266 2.58845 0
M  V30 6831 H 649.166 0.341751 3.92716 0
M  V30 6832 H 650.454 -0.0264381 5.08793 0
M  V30 6833 H 649.852 -3.18108 4.67786 0
M  V30 6834 H 648.409 -3.34105 5.59658 0
M  V30 6835 N 651.842 -1.52309 0.404946 0
M  V30 6836 C 653.088 -2.02065 -0.172455 0
M  V30 6837 C 653.421 -1.29022 -1.45145 0
M  V30 6838 O 652.696 -0.395284 -1.90441 0
M  V30 6839 C 652.979 -3.5759 -0.424433 0
M  V30 6840 C 652.832 -4.41287 0.870945 0
M  V30 6841 C 654.151 -4.23186 -1.20837 0
M  V30 6842 H 651.27 -0.734454 -0.0612035 0
M  V30 6843 H 653.912 -1.82236 0.53759 0
M  V30 6844 H 652.062 -3.74617 -1.02929 0
M  V30 6845 H 653.734 -4.3598 1.50729 0
M  V30 6846 H 651.977 -4.07669 1.48284 0
M  V30 6847 H 652.648 -5.48171 0.649083 0
M  V30 6848 H 655.124 -4.10232 -0.696338 0
M  V30 6849 H 654 -5.31953 -1.35343 0
M  V30 6850 H 654.261 -3.81862 -2.22786 0
M  V30 6851 N 653.32 -0.135238 -1.57019 0
M  V30 6852 C 654.55 0.525303 -1.9981 0
M  V30 6853 C 654.958 1.59724 -1.01415 0
M  V30 6854 O 654.301 1.837 -0.00130938 0
M  V30 6855 C 654.363 1.19578 -3.3903 0
M  V30 6856 C 654.027 0.269855 -4.56203 0
M  V30 6857 C 655.024 -0.497905 -5.1751 0
M  V30 6858 C 652.709 0.176188 -5.01991 0
M  V30 6859 C 654.703 -1.3469 -6.23007 0
M  V30 6860 C 652.39 -0.676422 -6.07345 0
M  V30 6861 C 653.388 -1.43658 -6.67721 0
M  V30 6862 O 653.076 -2.27501 -7.71037 0
M  V30 6863 H 652.808 0.142296 -0.660854 0
M  V30 6864 H 655.362 -0.223272 -2.04183 0
M  V30 6865 H 653.592 1.99176 -3.3146 0
M  V30 6866 H 655.281 1.75486 -3.66005 0
M  V30 6867 H 656.047 -0.435507 -4.83041 0
M  V30 6868 H 651.926 0.757583 -4.54733 0
M  V30 6869 H 655.47 -1.9407 -6.70062 0
M  V30 6870 H 651.367 -0.740154 -6.41243 0
M  V30 6871 H 652.135 -2.20619 -7.88206 0
M  V30 6872 N 654.798 1.5699 0.138552 0
M  V30 6873 C 655.708 2.02174 1.19008 0
M  V30 6874 C 656.724 0.938622 1.46512 0
M  V30 6875 O 657.9 1.24872 1.58016 0
M  V30 6876 C 654.965 2.40045 2.50159 0
M  V30 6877 C 654.026 3.62346 2.30226 0
M  V30 6878 C 653.259 3.98401 3.55123 0
M  V30 6879 O 653.482 3.35019 4.61647 0
M  V30 6880 O 652.416 4.91606 3.47285 0
M  V30 6881 H 656.242 2.91954 0.836452 0
M  V30 6882 H 653.827 1.45293 0.347907 0
M  V30 6883 H 655.709 2.65225 3.27465 0
M  V30 6884 H 654.384 1.53417 2.85035 0
M  V30 6885 H 653.291 3.42341 1.50843 0
M  V30 6886 H 654.624 4.49617 2.00262 0
M  V30 6887 N 656.276 -0.40816 1.52223 0
M  V30 6888 C 657.524 -1.15274 1.66001 0
M  V30 6889 C 657.845 -1.91003 0.392803 0
M  V30 6890 O 657.115 -1.8673 -0.592336 0
M  V30 6891 H 655.695 -0.428526 0.611861 0
M  V30 6892 H 658.357 -0.46512 1.89269 0
M  V30 6893 H 657.453 -1.86628 2.50153 0
M  V30 6894 N 657.755 -1.42862 -0.66545 0
M  V30 6895 C 658.665 -1.49491 -1.80803 0
M  V30 6896 C 659.681 -0.382914 -1.69734 0
M  V30 6897 O 660.857 -0.635223 -1.9112 0
M  V30 6898 C 657.922 -1.40383 -3.17007 0
M  V30 6899 C 656.983 -2.62152 -3.39963 0
M  V30 6900 C 656.216 -2.53469 -4.69669 0
M  V30 6901 O 656.439 -1.57568 -5.48205 0
M  V30 6902 O 655.373 -3.43763 -4.94075 0
M  V30 6903 H 659.199 -2.45949 -1.78165 0
M  V30 6904 H 656.784 -1.24728 -0.822387 0
M  V30 6905 H 658.666 -1.377 -3.98267 0
M  V30 6906 H 657.341 -0.470546 -3.20262 0
M  V30 6907 H 656.248 -2.70409 -2.58515 0
M  V30 6908 H 657.581 -3.54411 -3.41546 0
M  V30 6909 N 659.233 0.902656 -1.29189 0
M  V30 6910 C 660.649 1.18296 -1.07137 0
M  V30 6911 C 660.849 2.00701 0.179223 0
M  V30 6912 O 659.905 2.3675 0.877812 0
M  V30 6913 C 661.218 1.90677 -2.32514 0
M  V30 6914 C 662.766 2.03515 -2.37804 0
M  V30 6915 C 663.241 2.79307 -3.62976 0
M  V30 6916 N 664.732 2.86862 -3.63681 0
M  V30 6917 C 665.467 3.46035 -4.57217 0
M  V30 6918 N 664.963 4.06399 -5.61081 0
M  V30 6919 N 666.756 3.43681 -4.44792 0
M  V30 6920 H 658.907 0.352765 -2.0945 0
M  V30 6921 H 661.17 0.21876 -0.922414 0
M  V30 6922 H 660.876 1.3756 -3.23682 0
M  V30 6923 H 660.75 2.91169 -2.39793 0
M  V30 6924 H 663.137 2.55809 -1.47125 0
M  V30 6925 H 663.218 1.02166 -2.34512 0
M  V30 6926 H 662.862 2.2769 -4.54004 0
M  V30 6927 H 662.792 3.80995 -3.63525 0
M  V30 6928 H 665.283 2.43987 -2.88581 0
M  V30 6929 H 665.596 4.49564 -6.2858 0
M  V30 6930 H 663.941 4.0487 -5.64894 0
M  V30 6931 H 667.132 2.9574 -3.62843 0
M  V30 6932 H 667.305 3.89503 -5.17872 0
M  V30 6933 N 660.711 1.11618 1.11262 0
M  V30 6934 C 661.674 0.779447 2.15539 0
M  V30 6935 C 662.674 -0.202081 1.59525 0
M  V30 6936 O 663.864 0.0226356 1.74185 0
M  V30 6937 C 660.996 0.15674 3.40539 0
M  V30 6938 H 662.189 1.70324 2.4684 0
M  V30 6939 H 659.742 0.918298 1.26479 0
M  V30 6940 H 660.477 -0.777186 3.1485 0
M  V30 6941 H 660.262 0.863308 3.82478 0
M  V30 6942 H 661.752 -0.062661 4.17553 0
M  V30 6943 N 662.189 -1.289 0.906776 0
M  V30 6944 C 663.122 -2.25737 0.334362 0
M  V30 6945 C 664.1 -1.52745 -0.557474 0
M  V30 6946 O 665.284 -1.81673 -0.502697 0
M  V30 6947 C 662.411 -3.34642 -0.522716 0
M  V30 6948 C 661.457 -4.25424 0.302777 0
M  V30 6949 S 662.29 -5.07629 1.70508 0
M  V30 6950 C 663.446 -6.20031 0.855118 0
M  V30 6951 H 663.679 -2.73941 1.15514 0
M  V30 6952 H 661.212 -1.37233 0.707573 0
M  V30 6953 H 663.17 -3.97845 -1.01141 0
M  V30 6954 H 661.831 -2.85119 -1.31781 0
M  V30 6955 H 661.024 -5.02767 -0.352257 0
M  V30 6956 H 660.626 -3.66908 0.724873 0
M  V30 6957 H 662.918 -6.77451 0.0816418 0
M  V30 6958 H 663.861 -6.89767 1.60087 0
M  V30 6959 H 664.269 -5.63035 0.406375 0
M  V30 6960 N 663.667 -0.670007 -1.42649 0
M  V30 6961 C 664.895 -0.19854 -2.05945 0
M  V30 6962 C 665.31 1.14243 -1.50313 0
M  V30 6963 O 664.667 1.70872 -0.641027 0
M  V30 6964 C 664.718 -0.11966 -3.61302 0
M  V30 6965 O 664.439 -1.40764 -4.1487 0
M  V30 6966 C 665.94 0.375878 -4.41704 0
M  V30 6967 H 663.16 -0.0976894 -0.663851 0
M  V30 6968 H 665.704 -0.915392 -1.82868 0
M  V30 6969 H 663.859 0.547851 -3.83507 0
M  V30 6970 H 664.273 -1.27784 -5.08696 0
M  V30 6971 H 665.747 0.379988 -5.50691 0
M  V30 6972 H 666.224 1.41028 -4.15942 0
M  V30 6973 H 666.83 -0.259727 -4.24506 0
M  V30 6974 N 665.145 1.52092 -0.413018 0
M  V30 6975 C 666.092 2.27119 0.410558 0
M  V30 6976 C 667.062 1.29692 1.03774 0
M  V30 6977 O 668.247 1.58561 1.06128 0
M  V30 6978 C 665.387 3.09863 1.51918 0
M  V30 6979 C 664.5 4.22252 0.912528 0
M  V30 6980 C 663.635 4.92348 1.99417 0
M  V30 6981 C 662.674 5.96694 1.36466 0
M  V30 6982 N 661.811 6.60292 2.38661 0
M  V30 6983 H 666.651 2.97067 -0.235661 0
M  V30 6984 H 664.188 1.46542 -0.128055 0
M  V30 6985 H 666.146 3.56144 2.17295 0
M  V30 6986 H 664.776 2.42078 2.13537 0
M  V30 6987 H 663.828 3.80113 0.147697 0
M  V30 6988 H 665.14 4.9709 0.412717 0
M  V30 6989 H 664.294 5.42054 2.72512 0
M  V30 6990 H 663.033 4.17087 2.52764 0
M  V30 6991 H 662.038 5.46304 0.61906 0
M  V30 6992 H 663.263 6.73899 0.838827 0
M  V30 6993 H 661.209 5.87858 2.91134 0
M  V30 6994 H 661.126 7.30816 1.93503 0
M  V30 6995 H 662.394 7.14635 3.11314 0
M  V30 6996 N 666.623 0.143563 1.56945 0
M  V30 6997 C 667.9 -0.553285 1.87612 0
M  V30 6998 C 668.28 -1.83195 1.04894 0
M  V30 6999 O 667.628 -2.28102 0.134773 0
M  V30 7000 C 667.838 -0.822055 3.3918 0
M  V30 7001 C 669.186 -1.16435 4.08324 0
M  V30 7002 O 670.21 -0.911522 3.4434 0
M  V30 7003 O 669.069 -1.63996 5.21313 0
M  V30 7004 H 666.163 -0.281851 0.777489 0
M  V30 7005 H 668.709 0.179916 1.68744 0
M  V30 7006 H 667.481 0.0830265 3.91212 0
M  V30 7007 H 667.104 -1.60956 3.63564 0
M  V30 7008 N 668.101 -1.57061 -0.130224 0
M  V30 7009 C 669.049 -2.00486 -1.17933 0
M  V30 7010 C 670.043 -0.899933 -1.43519 0
M  V30 7011 O 671.249 -1.08514 -1.43613 0
M  V30 7012 H 667.624 -0.638441 -0.397363 0
M  V30 7013 H 669.595 -2.87848 -0.786501 0
M  V30 7014 C 668.344 -2.41565 -2.50084 0
M  V30 7015 H 667.667 -3.26148 -2.31231 0
M  V30 7016 H 669.107 -2.75757 -3.22078 0
M  V30 7017 C 667.566 -1.27485 -3.11848 0
M  V30 7018 O 668.096 -0.584688 -3.97422 0
M  V30 7019 N 666.302 -1.03478 -2.71552 0
M  V30 7020 H 665.849 -1.59779 -2.02061 0
M  V30 7021 H 665.807 -0.27341 -3.13209 0
M  V30 7022 N 669.579 0.400081 -1.52437 0
M  V30 7023 C 670.527 1.50851 -1.7705 0
M  V30 7024 C 671.521 1.56928 -0.637969 0
M  V30 7025 O 672.727 1.60226 -0.820212 0
M  V30 7026 H 669.102 0.50186 -0.560036 0
M  V30 7027 H 671.073 1.27281 -2.69893 0
M  V30 7028 C 669.822 2.88117 -1.94638 0
M  V30 7029 H 669.145 2.84187 -2.81208 0
M  V30 7030 H 670.585 3.64942 -2.15855 0
M  V30 7031 C 669.044 3.29206 -0.715899 0
M  V30 7032 O 669.574 4.01544 0.111944 0
M  V30 7033 N 667.78 2.85363 -0.549191 0
M  V30 7034 H 667.327 2.26664 -1.22397 0
M  V30 7035 H 667.285 3.13214 0.27278 0
M  V30 7036 N 671.057 1.43213 0.657864 0
M  V30 7037 C 671.987 1.50815 1.78262 0
M  V30 7038 C 672.968 0.363211 1.66177 0
M  V30 7039 O 674.153 0.579806 1.85343 0
M  V30 7040 C 671.283 1.42625 3.16663 0
M  V30 7041 C 670.237 2.5532 3.43505 0
M  V30 7042 C 669.563 2.32184 4.81658 0
M  V30 7043 C 670.863 3.97583 3.38711 0
M  V30 7044 H 672.557 2.44954 1.72157 0
M  V30 7045 H 670.103 1.17896 0.82683 0
M  V30 7046 H 672.056 1.46548 3.95097 0
M  V30 7047 H 670.78 0.449877 3.23487 0
M  V30 7048 H 669.439 2.50742 2.6744 0
M  V30 7049 H 669.087 1.32801 4.85153 0
M  V30 7050 H 668.787 3.07724 5.00579 0
M  V30 7051 H 670.311 2.37883 5.62356 0
M  V30 7052 H 671.725 4.03673 4.07089 0
M  V30 7053 H 670.122 4.73112 3.69168 0
M  V30 7054 H 671.192 4.23049 2.36976 0
M  V30 7055 N 672.536 -0.895792 1.29666 0
M  V30 7056 C 673.466 -2.01673 1.17688 0
M  V30 7057 C 674.447 -1.69955 0.0701317 0
M  V30 7058 O 675.632 -1.9258 0.250289 0
M  V30 7059 C 672.762 -3.36568 0.856681 0
M  V30 7060 C 671.716 -3.82509 1.92017 0
M  V30 7061 C 671.042 -5.14574 1.4532 0
M  V30 7062 C 672.342 -4.02409 3.32963 0
M  V30 7063 H 674.036 -2.11953 2.11463 0
M  V30 7064 H 671.582 -1.01839 1.01807 0
M  V30 7065 H 673.535 -4.14498 0.759577 0
M  V30 7066 H 672.259 -3.26391 -0.116763 0
M  V30 7067 H 670.918 -3.068 2.00673 0
M  V30 7068 H 670.566 -5.00815 0.468325 0
M  V30 7069 H 670.266 -5.46283 2.16447 0
M  V30 7070 H 671.79 -5.9504 1.36968 0
M  V30 7071 H 673.204 -4.70808 3.27127 0
M  V30 7072 H 671.601 -4.45478 4.02082 0
M  V30 7073 H 672.671 -3.06616 3.75652 0
M  V30 7074 N 674.014 -1.12206 -1.10668 0
M  V30 7075 C 675.262 -0.874144 -1.82217 0
M  V30 7076 C 675.583 0.601736 -1.85484 0
M  V30 7077 O 674.853 1.43725 -1.33116 0
M  V30 7078 H 673.433 -0.320404 -0.674797 0
M  V30 7079 H 676.095 -1.41606 -1.33917 0
M  V30 7080 H 675.191 -1.25349 -2.85822 0
M  V30 7081 N 675.492 1.28418 -0.913599 0
M  V30 7082 C 676.439 2.27301 -0.400373 0
M  V30 7083 C 677.409 1.57582 0.52509 0
M  V30 7084 O 678.594 1.85482 0.447318 0
M  V30 7085 C 675.734 3.43284 0.35361 0
M  V30 7086 C 674.847 4.27752 -0.604341 0
M  V30 7087 C 673.982 5.30934 0.168075 0
M  V30 7088 C 673.021 6.07065 -0.783499 0
M  V30 7089 N 672.158 7.02086 -0.0446112 0
M  V30 7090 H 676.998 2.70579 -1.24865 0
M  V30 7091 H 674.535 1.33067 -0.627028 0
M  V30 7092 H 676.493 4.09322 0.806945 0
M  V30 7093 H 675.123 3.00997 1.16623 0
M  V30 7094 H 674.175 3.61759 -1.17621 0
M  V30 7095 H 675.487 4.80682 -1.33216 0
M  V30 7096 H 674.641 6.02855 0.681979 0
M  V30 7097 H 673.38 4.78771 0.928947 0
M  V30 7098 H 672.385 5.33995 -1.30878 0
M  V30 7099 H 673.61 6.61317 -1.54392 0
M  V30 7100 H 671.556 6.52273 0.698272 0
M  V30 7101 H 671.473 7.52637 -0.712258 0
M  V30 7102 H 672.741 7.78205 0.449102 0
M  V30 7103 N 676.97 0.677563 1.42291 0
M  V30 7104 C 678.217 0.200975 2.015 0
M  V30 7105 C 678.545 -1.19342 1.53583 0
M  V30 7106 O 677.8 -1.81579 0.7299 0
M  V30 7107 C 678.099 0.187229 3.56909 0
M  V30 7108 C 677.765 1.52667 4.24268 0
M  V30 7109 C 676.427 1.89341 4.42384 0
M  V30 7110 C 678.779 2.40869 4.62203 0
M  V30 7111 C 676.107 3.13836 4.95705 0
M  V30 7112 C 678.459 3.64679 5.16906 0
M  V30 7113 C 677.123 4.01519 5.33234 0
M  V30 7114 H 676.393 0.0735418 0.737342 0
M  V30 7115 H 679.04 0.873095 1.70439 0
M  V30 7116 H 677.345 -0.568407 3.87655 0
M  V30 7117 H 679.042 -0.198773 4.00507 0
M  V30 7118 H 675.632 1.23138 4.1053 0
M  V30 7119 H 679.816 2.1382 4.47878 0
M  V30 7120 H 675.072 3.42396 5.06532 0
M  V30 7121 H 679.246 4.33224 5.45243 0
M  V30 7122 H 676.873 4.98062 5.74316 0
M  V30 7123 N 678.448 -1.51871 0.421078 0
M  V30 7124 C 679.358 -2.31077 -0.405069 0
M  V30 7125 C 680.374 -1.39301 -1.04265 0
M  V30 7126 O 681.55 -1.72376 -1.04157 0
M  V30 7127 C 678.615 -3.12556 -1.50032 0
M  V30 7128 C 677.676 -4.20088 -0.884559 0
M  V30 7129 C 676.909 -4.97673 -1.92762 0
M  V30 7130 O 677.132 -4.75696 -3.14753 0
M  V30 7131 O 676.066 -5.82203 -1.52719 0
M  V30 7132 H 679.892 -3.02742 0.241086 0
M  V30 7133 H 677.477 -1.48263 0.183991 0
M  V30 7134 H 679.359 -3.6326 -2.13589 0
M  V30 7135 H 678.034 -2.43672 -2.13086 0
M  V30 7136 H 676.941 -3.73502 -0.211379 0
M  V30 7137 H 678.274 -4.91298 -0.297763 0
M  V30 7138 N 679.926 -0.151884 -1.56866 0
M  V30 7139 C 680.856 0.781943 -2.20018 0
M  V30 7140 C 681.837 1.25347 -1.14987 0
M  V30 7141 O 683.022 1.31015 -1.43348 0
M  V30 7142 C 680.152 2.01928 -2.82564 0
M  V30 7143 C 679.106 1.68434 -3.93464 0
M  V30 7144 C 678.432 2.99472 -4.42968 0
M  V30 7145 C 679.732 0.927244 -5.14003 0
M  V30 7146 H 681.426 0.255607 -2.98307 0
M  V30 7147 H 678.972 0.121502 -1.43486 0
M  V30 7148 H 680.925 2.67741 -3.25411 0
M  V30 7149 H 679.649 2.56943 -2.01614 0
M  V30 7150 H 678.308 1.04998 -3.51242 0
M  V30 7151 H 677.956 3.52488 -3.58834 0
M  V30 7152 H 677.656 2.77823 -5.17772 0
M  V30 7153 H 679.18 3.66348 -4.88489 0
M  V30 7154 H 680.594 1.48756 -5.53665 0
M  V30 7155 H 678.991 0.810513 -5.94601 0
M  V30 7156 H 680.061 -0.0801163 -4.84834 0
M  V30 7157 N 681.404 1.57128 0.121893 0
M  V30 7158 C 682.632 1.88883 0.844451 0
M  V30 7159 C 683.047 0.742824 1.73573 0
M  V30 7160 O 682.404 -0.286475 1.80238 0
M  V30 7161 C 682.455 3.20076 1.68029 0
M  V30 7162 O 682.176 4.30264 0.824898 0
M  V30 7163 C 683.677 3.65515 2.50826 0
M  V30 7164 H 680.897 0.62549 0.242907 0
M  V30 7165 H 683.441 2.04219 0.107151 0
M  V30 7166 H 681.596 3.06418 2.37038 0
M  V30 7167 H 682.01 5.05439 1.40113 0
M  V30 7168 H 683.484 4.60081 3.05008 0
M  V30 7169 H 683.961 2.92029 3.28048 0
M  V30 7170 H 684.567 3.81952 1.87064 0
M  V30 7171 N 682.882 -0.391992 1.52647 0
M  V30 7172 C 684.13 -1.13507 1.67214 0
M  V30 7173 C 684.451 -1.90575 0.41304 0
M  V30 7174 O 683.721 -1.87348 -0.572498 0
M  V30 7175 H 682.301 -0.422013 0.616372 0
M  V30 7176 H 684.963 -0.44502 1.89751 0
M  V30 7177 H 684.059 -1.83964 2.52118 0
M  V30 7178 N 684.36 -1.4356 -0.65026 0
M  V30 7179 C 685.609 -1.44619 -1.406 0
M  V30 7180 C 685.922 -0.0752645 -1.95455 0
M  V30 7181 O 687.128 0.0366832 -2.71475 0
M  V30 7182 C 685.584 -2.54511 -2.54465 0
M  V30 7183 C 685.192 -3.97723 -2.06204 0
M  V30 7184 C 686.936 -2.64768 -3.31811 0
M  V30 7185 C 684.843 -4.99075 -3.17298 0
M  V30 7186 H 683.773 -0.537983 -0.52829 0
M  V30 7187 H 686.424 -1.69559 -0.701561 0
M  V30 7188 H 684.806 -2.22777 -3.27393 0
M  V30 7189 H 685.98 -4.38932 -1.40267 0
M  V30 7190 H 684.295 -3.91538 -1.41729 0
M  V30 7191 H 686.892 -3.37664 -4.14593 0
M  V30 7192 H 687.235 -1.69936 -3.80036 0
M  V30 7193 H 687.768 -2.95817 -2.65964 0
M  V30 7194 H 684.507 -5.95469 -2.74038 0
M  V30 7195 H 684.027 -4.62476 -3.81937 0
M  V30 7196 H 685.706 -5.21913 -3.82382 0
M  V30 7197 N 685.838 0.888903 -1.30139 0
M  V30 7198 C 687.249 1.45578 -1.16893 0
M  V30 7199 C 687.6 1.94825 0.231866 0
M  V30 7200 O 686.725 1.84661 1.12824 0
M  V30 7201 C 687.32 2.646 -2.11595 0
M  V30 7202 C 685.879 3.17389 -2.02339 0
M  V30 7203 C 685.026 1.90081 -2.01902 0
M  V30 7204 H 687.977 0.69921 -1.42467 0
M  V30 7205 H 687.998 3.40687 -1.69449 0
M  V30 7206 H 687.51 2.28726 -3.13538 0
M  V30 7207 H 685.611 3.5793 -1.03523 0
M  V30 7208 H 685.724 3.80955 -2.90534 0
M  V30 7209 H 684.088 2.08246 -1.46648 0
M  V30 7210 H 684.871 1.5647 -3.05568 0
M  V30 7211 N 687.317 1.12792 1.10072 0
M  V30 7212 C 688.728 0.899346 1.63611 0
M  V30 7213 C 689.079 -0.565547 1.87872 0
M  V30 7214 O 688.204 -1.43081 1.62348 0
M  V30 7215 C 688.799 1.62608 2.97227 0
M  V30 7216 C 687.358 1.44356 3.47618 0
M  V30 7217 C 686.505 1.65958 2.22156 0
M  V30 7218 H 689.456 1.28216 0.935223 0
M  V30 7219 H 689.477 1.0793 3.64872 0
M  V30 7220 H 688.989 2.69221 2.79538 0
M  V30 7221 H 687.09 0.400148 3.70445 0
M  V30 7222 H 687.203 2.20218 4.25489 0
M  V30 7223 H 685.567 1.08395 2.30484 0
M  V30 7224 H 686.35 2.73877 2.06993 0
M  V30 7225 N 688.795 -1.27931 0.920396 0
M  V30 7226 C 689.758 -2.25345 0.41858 0
M  V30 7227 C 690.758 -1.54116 -0.458798 0
M  V30 7228 O 691.948 -1.72235 -0.260912 0
M  V30 7229 C 689.08 -3.38556 -0.399104 0
M  V30 7230 H 690.273 -2.71251 1.27918 0
M  V30 7231 H 687.826 -1.39728 0.700406 0
M  V30 7232 H 688.561 -2.98021 -1.27882 0
M  V30 7233 H 688.346 -3.91426 0.229863 0
M  V30 7234 H 689.836 -4.10976 -0.740817 0
M  V30 7235 N 690.273 -0.685099 -1.4193 0
M  V30 7236 C 691.684 -0.287699 -1.8447 0
M  V30 7237 C 692.035 1.17215 -1.57338 0
M  V30 7238 O 691.16 1.89856 -1.03845 0
M  V30 7239 C 691.755 -0.515385 -3.34857 0
M  V30 7240 C 690.314 -0.172006 -3.76007 0
M  V30 7241 C 689.461 -0.802808 -2.65425 0
M  V30 7242 H 692.412 -0.88652 -1.3163 0
M  V30 7243 H 692.433 0.229251 -3.79809 0
M  V30 7244 H 691.945 -1.57796 -3.54573 0
M  V30 7245 H 690.046 0.886716 -3.61895 0
M  V30 7246 H 690.159 -0.619717 -4.75075 0
M  V30 7247 H 688.523 -0.233267 -2.5363 0
M  V30 7248 H 689.306 -1.86904 -2.87961 0
M  V30 7249 N 691.751 1.51645 -0.429126 0
M  V30 7250 C 693.167 1.59394 -0.080994 0
M  V30 7251 C 693.367 1.44064 1.40882 0
M  V30 7252 O 692.423 1.27771 2.17786 0
M  V30 7253 C 693.736 2.94779 -0.593773 0
M  V30 7254 C 695.284 3.08067 -0.553494 0
M  V30 7255 C 695.759 4.45963 -1.04311 0
M  V30 7256 N 697.25 4.5226 -1.00076 0
M  V30 7257 C 697.985 5.57268 -1.35056 0
M  V30 7258 N 697.481 6.69734 -1.77282 0
M  V30 7259 N 699.274 5.47582 -1.26925 0
M  V30 7260 H 691.425 1.59856 -1.39857 0
M  V30 7261 H 693.688 0.753095 -0.575805 0
M  V30 7262 H 693.394 3.11342 -1.63583 0
M  V30 7263 H 693.268 3.77197 -0.0142202 0
M  V30 7264 H 695.655 2.91177 0.479556 0
M  V30 7265 H 695.736 2.27508 -1.16935 0
M  V30 7266 H 695.38 4.63598 -2.07459 0
M  V30 7267 H 695.31 5.25049 -0.403873 0
M  V30 7268 H 697.801 3.71537 -0.690564 0
M  V30 7269 H 698.114 7.4587 -2.02232 0
M  V30 7270 H 696.459 6.70963 -1.81202 0
M  V30 7271 H 699.65 4.58604 -0.93809 0
M  V30 7272 H 699.823 6.29308 -1.54516 0
M  V30 7273 N 693.229 0.160201 1.56784 0
M  V30 7274 C 694.477 -0.486625 1.96154 0
M  V30 7275 C 694.798 -1.64525 1.04673 0
M  V30 7276 O 694.068 -1.95586 0.110864 0
M  V30 7277 H 692.648 -0.182764 0.724297 0
M  V30 7278 H 695.31 0.238787 1.93432 0
M  V30 7279 H 694.406 -0.854025 3.00188 0
M  V30 7280 N 694.707 -1.5719 -0.113559 0
M  V30 7281 C 695.953 -1.85412 -0.821597 0
M  V30 7282 C 696.286 -0.746722 -1.7927 0
M  V30 7283 O 695.561 0.246971 -1.92926 0
M  V30 7284 C 695.844 -3.24233 -1.56669 0
M  V30 7285 C 695.697 -4.45578 -0.614823 0
M  V30 7286 C 697.016 -3.60697 -2.52161 0
M  V30 7287 H 694.135 -0.674406 -0.29723 0
M  V30 7288 H 696.777 -1.89807 -0.085694 0
M  V30 7289 H 694.927 -3.20617 -2.19401 0
M  V30 7290 H 696.599 -4.613 0.00407137 0
M  V30 7291 H 694.842 -4.33738 0.0732332 0
M  V30 7292 H 695.513 -5.39395 -1.17292 0
M  V30 7293 H 697.989 -3.65139 -1.99532 0
M  V30 7294 H 696.865 -4.58798 -3.01323 0
M  V30 7295 H 697.126 -2.88403 -3.35076 0
M  V30 7296 N 696.185 0.383891 -1.52853 0
M  V30 7297 C 697.596 0.961591 -1.60032 0
M  V30 7298 C 697.947 1.90819 -0.456333 0
M  V30 7299 O 697.072 2.12288 0.419873 0
M  V30 7300 C 697.667 1.75078 -2.90057 0
M  V30 7301 C 696.226 2.2781 -2.99632 0
M  V30 7302 C 695.373 1.08512 -2.55187 0
M  V30 7303 H 698.324 0.163269 -1.57858 0
M  V30 7304 H 698.345 2.61046 -2.7683 0
M  V30 7305 H 697.857 1.06157 -3.73299 0
M  V30 7306 H 695.958 3.00028 -2.20939 0
M  V30 7307 H 696.071 2.56947 -4.0437 0
M  V30 7308 H 694.435 1.44667 -2.09627 0
M  V30 7309 H 695.218 0.41118 -3.40829 0
M  V30 7310 N 697.663 1.43903 0.642637 0
M  V30 7311 C 698.595 1.45857 1.768 0
M  V30 7312 C 699.608 0.353358 1.58919 0
M  V30 7313 O 700.797 0.618426 1.67445 0
M  V30 7314 C 697.897 1.26583 3.14372 0
M  V30 7315 C 697.07 2.50139 3.58817 0
M  V30 7316 C 696.129 2.25933 4.75227 0
M  V30 7317 O 695.155 2.99351 4.84125 0
M  V30 7318 N 696.357 1.28263 5.66153 0
M  V30 7319 H 699.122 2.42869 1.75598 0
M  V30 7320 H 696.683 1.39194 0.826832 0
M  V30 7321 H 698.675 1.08255 3.89953 0
M  V30 7322 H 697.245 0.37978 3.10284 0
M  V30 7323 H 696.465 2.83821 2.73568 0
M  V30 7324 H 697.753 3.32344 3.8526 0
M  V30 7325 H 697.151 0.676041 5.61646 0
M  V30 7326 H 695.708 1.15916 6.4141 0
M  V30 7327 N 699.141 -0.881989 1.30609 0
M  V30 7328 C 700.39 -1.62878 1.18969 0
M  V30 7329 C 700.703 -1.93946 -0.253859 0
M  V30 7330 O 701.909 -2.67008 -0.491813 0
M  V30 7331 C 700.365 -2.93573 2.0819 0
M  V30 7332 C 699.973 -2.70034 3.57471 0
M  V30 7333 C 701.717 -3.71543 2.0532 0
M  V30 7334 C 699.624 -3.96563 4.38739 0
M  V30 7335 H 698.554 -0.611092 0.441682 0
M  V30 7336 H 701.205 -0.976201 1.55379 0
M  V30 7337 H 699.587 -3.6014 1.64666 0
M  V30 7338 H 700.761 -2.11949 4.09163 0
M  V30 7339 H 699.076 -2.05435 3.62195 0
M  V30 7340 H 701.673 -4.65386 2.63288 0
M  V30 7341 H 702.016 -4.03167 1.03739 0
M  V30 7342 H 702.549 -3.11842 2.46981 0
M  V30 7343 H 699.288 -3.70095 5.41027 0
M  V30 7344 H 698.808 -4.54142 3.9181 0
M  V30 7345 H 700.487 -4.64557 4.50329 0
M  V30 7346 N 700.619 -1.13374 -1.09472 0
M  V30 7347 C 701.529 -0.824029 -2.19652 0
M  V30 7348 C 702.545 0.19118 -1.72947 0
M  V30 7349 O 703.721 0.0223464 -2.01388 0
M  V30 7350 C 700.786 -0.294009 -3.45451 0
M  V30 7351 C 699.847 -1.3704 -4.0684 0
M  V30 7352 C 699.08 -0.86558 -5.26634 0
M  V30 7353 O 699.303 0.29702 -5.69626 0
M  V30 7354 O 698.237 -1.63968 -5.79136 0
M  V30 7355 H 702.063 -1.74454 -2.48595 0
M  V30 7356 H 699.648 -0.911155 -1.18399 0
M  V30 7357 H 701.53 -0.00381039 -4.214 0
M  V30 7358 H 700.205 0.598921 -3.18111 0
M  V30 7359 H 699.112 -1.71391 -3.3253 0
M  V30 7360 H 700.445 -2.23746 -4.38405 0
M  V30 7361 N 702.098 1.27442 -0.927168 0
M  V30 7362 C 703.344 1.94679 -0.568164 0
M  V30 7363 C 703.677 1.72697 0.888219 0
M  V30 7364 O 702.952 1.05573 1.63354 0
M  V30 7365 C 703.235 3.4882 -0.894253 0
M  V30 7366 C 703.088 3.80146 -2.40435 0
M  V30 7367 C 704.407 4.38281 -0.399766 0
M  V30 7368 H 701.526 0.707071 -0.207892 0
M  V30 7369 H 704.168 1.50568 -1.15885 0
M  V30 7370 H 702.318 3.86522 -0.391566 0
M  V30 7371 H 703.99 3.52238 -2.97869 0
M  V30 7372 H 702.233 3.26716 -2.85375 0
M  V30 7373 H 702.904 4.87835 -2.58304 0
M  V30 7374 H 705.38 4.07726 -0.83058 0
M  V30 7375 H 704.256 5.44955 -0.656885 0
M  V30 7376 H 704.517 4.36521 0.700153 0
M  V30 7377 N 703.576 0.692616 1.41565 0
M  V30 7378 C 704.804 0.231279 2.05603 0
M  V30 7379 C 705.219 -1.11837 1.52111 0
M  V30 7380 O 704.576 -1.6983 0.66813 0
M  V30 7381 C 704.627 0.177125 3.61066 0
M  V30 7382 O 704.348 1.47346 4.12578 0
M  V30 7383 C 705.849 -0.30556 4.42246 0
M  V30 7384 H 703.069 0.108238 0.662213 0
M  V30 7385 H 705.613 0.944369 1.81389 0
M  V30 7386 H 703.768 -0.486769 3.8433 0
M  V30 7387 H 704.182 1.35861 5.06599 0
M  V30 7388 H 705.656 -0.29233 5.51225 0
M  V30 7389 H 706.133 -1.34393 4.18133 0
M  V30 7390 H 706.739 0.327229 4.24039 0
M  V30 7391 N 705.054 -1.51416 0.437162 0
M  V30 7392 C 706.301 -2.02086 -0.129364 0
M  V30 7393 C 706.629 -1.32133 -1.42728 0
M  V30 7394 O 705.884 -0.424916 -1.91031 0
M  V30 7395 C 706.183 -3.55203 -0.39564 0
M  V30 7396 C 705.849 -4.43447 0.81644 0
M  V30 7397 C 704.511 -4.67285 1.14884 0
M  V30 7398 C 706.863 -4.95219 1.62503 0
M  V30 7399 C 704.191 -5.40141 2.29052 0
M  V30 7400 C 706.543 -5.69327 2.7577 0
M  V30 7401 C 705.207 -5.91429 3.09464 0
M  V30 7402 H 704.477 -0.739486 -0.0473375 0
M  V30 7403 H 707.124 -1.82368 0.584321 0
M  V30 7404 H 705.429 -3.73252 -1.19121 0
M  V30 7405 H 707.126 -3.91944 -0.847399 0
M  V30 7406 H 703.716 -4.2509 0.547422 0
M  V30 7407 H 707.9 -4.76686 1.38144 0
M  V30 7408 H 703.156 -5.55468 2.55471 0
M  V30 7409 H 707.33 -6.08433 3.38795 0
M  V30 7410 H 704.957 -6.47662 3.98042 0
M  V30 7411 N 706.532 -0.168513 -1.56696 0
M  V30 7412 C 707.809 0.523367 -1.88468 0
M  V30 7413 C 708.189 1.81503 -1.07796 0
M  V30 7414 O 707.537 2.27859 -0.171045 0
M  V30 7415 C 707.747 0.767991 -3.40445 0
M  V30 7416 C 709.095 1.09924 -4.10124 0
M  V30 7417 O 710.119 0.856625 -3.45746 0
M  V30 7418 O 708.978 1.55681 -5.23856 0
M  V30 7419 H 706.072 0.269447 -0.781874 0
M  V30 7420 H 708.618 -0.206739 -1.68436 0
M  V30 7421 H 707.39 -0.145254 -3.9103 0
M  V30 7422 H 707.013 1.55151 -3.66079 0
M  V30 7423 N 708.01 1.57248 0.105221 0
M  V30 7424 C 709.259 1.84756 0.809198 0
M  V30 7425 C 709.572 0.756262 1.80389 0
M  V30 7426 O 710.778 0.918158 2.55504 0
M  V30 7427 C 709.234 3.27613 1.48989 0
M  V30 7428 C 708.842 4.44788 0.535484 0
M  V30 7429 C 710.586 3.64356 2.17819 0
M  V30 7430 C 708.493 5.78676 1.22019 0
M  V30 7431 H 707.423 0.689139 0.305946 0
M  V30 7432 H 710.074 1.83395 0.0620371 0
M  V30 7433 H 708.456 3.23485 2.28415 0
M  V30 7434 H 709.63 4.60243 -0.226557 0
M  V30 7435 H 707.945 4.16374 -0.0465769 0
M  V30 7436 H 710.542 4.61663 2.69761 0
M  V30 7437 H 710.885 2.92474 2.96251 0
M  V30 7438 H 711.418 3.70328 1.45264 0
M  V30 7439 H 708.157 6.53763 0.476875 0
M  V30 7440 H 707.677 5.67083 1.9539 0
M  V30 7441 H 709.356 6.22897 1.74952 0
M  V30 7442 N 709.488 -0.375779 1.53054 0
M  V30 7443 C 710.765 -1.13453 1.59336 0
M  V30 7444 C 711.145 -2.07379 0.394614 0
M  V30 7445 O 710.493 -2.2004 -0.616 0
M  V30 7446 C 710.703 -1.8826 2.93869 0
M  V30 7447 C 712.051 -2.43155 3.48081 0
M  V30 7448 O 713.075 -1.984 2.95831 0
M  V30 7449 O 711.934 -3.24944 4.39401 0
M  V30 7450 H 709.028 -0.519856 0.643179 0
M  V30 7451 H 711.574 -0.379865 1.65394 0
M  V30 7452 H 710.346 -1.19652 3.72558 0
M  V30 7453 H 709.969 -2.70658 2.91256 0
M  V30 7454 N 710.966 -1.44241 -0.634997 0
M  V30 7455 C 711.929 -1.50457 -1.72903 0
M  V30 7456 C 712.929 -0.387058 -1.56072 0
M  V30 7457 O 714.119 -0.649531 -1.61638 0
M  V30 7458 C 711.251 -1.37477 -3.1195 0
M  V30 7459 H 712.444 -2.47907 -1.68767 0
M  V30 7460 H 709.997 -1.31276 -0.84831 0
M  V30 7461 H 710.732 -0.41106 -3.21684 0
M  V30 7462 H 710.517 -2.18506 -3.25573 0
M  V30 7463 H 712.007 -1.44799 -3.91692 0
M  V30 7464 N 712.444 0.87505 -1.31075 0
M  V30 7465 C 713.392 2.00317 -1.18219 0
M  V30 7466 C 714.386 1.69152 -0.0916872 0
M  V30 7467 O 715.592 1.7821 -0.253229 0
M  V30 7468 H 711.967 0.656981 -0.365895 0
M  V30 7469 H 713.938 2.08293 -2.13674 0
M  V30 7470 C 712.687 3.35821 -0.901095 0
M  V30 7471 H 712.01 3.6032 -1.73233 0
M  V30 7472 H 713.45 4.15366 -0.851295 0
M  V30 7473 C 711.909 3.34563 0.396114 0
M  V30 7474 O 712.439 3.75971 1.41452 0
M  V30 7475 N 710.645 2.87681 0.410832 0
M  V30 7476 H 710.192 2.54179 -0.418415 0
M  V30 7477 H 710.15 2.87223 1.27869 0
M  V30 7478 N 713.922 1.13953 1.08869 0
M  V30 7479 C 715.17 0.903023 1.80803 0
M  V30 7480 C 715.491 -0.572151 1.86417 0
M  V30 7481 O 714.761 -1.41589 1.35386 0
M  V30 7482 H 713.341 0.331099 0.669614 0
M  V30 7483 H 716.003 1.43719 1.31647 0
M  V30 7484 H 715.099 1.29881 2.83791 0
M  V30 7485 N 715.4 -1.26948 0.933913 0
M  V30 7486 C 716.649 -1.93378 0.573409 0
M  V30 7487 C 716.962 -1.74148 -0.890614 0
M  V30 7488 O 718.168 -2.34971 -1.36017 0
M  V30 7489 C 716.624 -3.46449 0.974747 0
M  V30 7490 C 716.232 -3.74425 2.45988 0
M  V30 7491 C 717.976 -4.18924 0.685791 0
M  V30 7492 C 715.883 -5.209 2.8003 0
M  V30 7493 H 714.813 -0.723952 0.210736 0
M  V30 7494 H 717.464 -1.44143 1.13557 0
M  V30 7495 H 715.846 -3.94528 0.341181 0
M  V30 7496 H 717.02 -3.37079 3.14188 0
M  V30 7497 H 715.335 -3.15167 2.72138 0
M  V30 7498 H 717.932 -5.26786 0.916546 0
M  V30 7499 H 718.275 -4.14587 -0.377217 0
M  V30 7500 H 718.808 -3.76687 1.27874 0
M  V30 7501 H 715.547 -5.30332 3.85264 0
M  V30 7502 H 715.067 -5.59369 2.16485 0
M  V30 7503 H 716.746 -5.88837 2.68105 0
M  V30 7504 N 716.879 -0.700114 -1.41195 0
M  V30 7505 C 717.809 -0.0521132 -2.33442 0
M  V30 7506 C 718.79 0.76228 -1.52063 0
M  V30 7507 O 719.975 0.714336 -1.80585 0
M  V30 7508 C 717.105 0.881693 -3.35922 0
M  V30 7509 C 716.059 0.174062 -4.27646 0
M  V30 7510 C 715.385 1.22254 -5.20536 0
M  V30 7511 C 716.685 -0.962396 -5.13357 0
M  V30 7512 H 718.379 -0.822574 -2.87879 0
M  V30 7513 H 715.925 -0.397011 -1.38419 0
M  V30 7514 H 717.878 1.34429 -3.99383 0
M  V30 7515 H 716.602 1.68387 -2.79845 0
M  V30 7516 H 715.261 -0.268551 -3.65615 0
M  V30 7517 H 714.909 2.01736 -4.60773 0
M  V30 7518 H 714.609 0.754038 -5.82742 0
M  V30 7519 H 716.133 1.68555 -5.86874 0
M  V30 7520 H 717.547 -0.579875 -5.7036 0
M  V30 7521 H 715.944 -1.35828 -5.84526 0
M  V30 7522 H 717.014 -1.80003 -4.50252 0
M  V30 7523 N 718.357 1.51182 -0.445186 0
M  V30 7524 C 719.305 2.29531 0.376597 0
M  V30 7525 C 720.299 1.35711 1.01385 0
M  V30 7526 O 721.505 1.53018 0.947922 0
M  V30 7527 H 717.88 0.738803 0.140267 0
M  V30 7528 H 719.851 2.96838 -0.304958 0
M  V30 7529 C 718.6 3.1552 1.4609 0
M  V30 7530 H 717.923 3.87605 0.979912 0
M  V30 7531 H 719.363 3.73384 2.009 0
M  V30 7532 C 717.822 2.31406 2.44852 0
M  V30 7533 O 718.352 1.97912 3.49562 0
M  V30 7534 N 716.558 1.94478 2.15932 0
M  V30 7535 H 716.105 2.21917 1.30808 0
M  V30 7536 H 716.063 1.38498 2.82251 0
M  V30 7537 N 719.835 0.176821 1.56605 0
M  V30 7538 C 721.081 -0.467406 1.9734 0
M  V30 7539 C 721.414 -1.62523 1.06301 0
M  V30 7540 O 720.689 -1.94182 0.11125 0
M  V30 7541 C 720.972 -0.945106 3.47476 0
M  V30 7542 C 720.825 0.213273 4.49294 0
M  V30 7543 C 722.144 -1.8169 4.00845 0
M  V30 7544 H 719.263 -0.168426 0.717497 0
M  V30 7545 H 721.905 0.264065 1.88156 0
M  V30 7546 H 720.055 -1.56841 3.55434 0
M  V30 7547 H 721.727 0.850508 4.53392 0
M  V30 7548 H 719.97 0.867918 4.25029 0
M  V30 7549 H 720.641 -0.163187 5.51759 0
M  V30 7550 H 723.117 -1.29139 3.95553 0
M  V30 7551 H 721.993 -2.12015 5.06301 0
M  V30 7552 H 722.254 -2.76463 3.44994 0
M  V30 7553 N 721.313 -1.57302 -0.09688 0
M  V30 7554 C 722.538 -1.9058 -0.818169 0
M  V30 7555 C 722.963 -0.770921 -1.71576 0
M  V30 7556 O 722.321 0.277588 -1.79162 0
M  V30 7557 C 722.369 -3.22714 -1.60898 0
M  V30 7558 O 721.473 -3.10178 -2.71779 0
M  V30 7559 H 720.814 -0.624759 -0.224882 0
M  V30 7560 H 723.344 -2.04471 -0.07264 0
M  V30 7561 H 723.354 -3.55978 -1.99358 0
M  V30 7562 H 722.029 -4.04899 -0.950227 0
M  V30 7563 H 720.606 -2.88424 -2.3636 0
M  V30 7564 N 722.791 0.367657 -1.53252 0
M  V30 7565 C 723.754 1.43308 -1.78873 0
M  V30 7566 C 724.754 1.46671 -0.659115 0
M  V30 7567 O 725.944 1.47468 -0.927306 0
M  V30 7568 C 723.076 2.82442 -1.90892 0
M  V30 7569 H 724.269 1.21864 -2.74024 0
M  V30 7570 H 721.822 0.600668 -1.44297 0
M  V30 7571 H 722.557 3.09202 -0.978 0
M  V30 7572 H 722.342 2.81399 -2.73051 0
M  V30 7573 H 723.832 3.59601 -2.12314 0
M  V30 7574 N 724.269 1.44576 0.627338 0
M  V30 7575 C 725.515 1.47777 1.38888 0
M  V30 7576 C 725.848 0.111406 1.9388 0
M  V30 7577 O 725.123 -0.87149 1.73883 0
M  V30 7578 C 725.406 2.54119 2.55138 0
M  V30 7579 C 725.259 4.00128 2.0547 0
M  V30 7580 C 726.578 2.56929 3.57317 0
M  V30 7581 H 723.697 0.538048 0.50366 0
M  V30 7582 H 726.339 1.76277 0.708978 0
M  V30 7583 H 724.489 2.29948 3.13139 0
M  V30 7584 H 726.161 4.35444 1.5227 0
M  V30 7585 H 724.404 4.11724 1.36623 0
M  V30 7586 H 725.075 4.7019 2.89181 0
M  V30 7587 H 727.551 2.78536 3.09122 0
M  V30 7588 H 726.427 3.33234 4.36173 0
M  V30 7589 H 726.688 1.6127 4.11636 0
M  V30 7590 N 725.747 -0.868086 1.31537 0
M  V30 7591 C 727.024 -1.60384 1.11965 0
M  V30 7592 C 727.404 -2.08584 -0.324949 0
M  V30 7593 O 726.752 -1.86561 -1.31937 0
M  V30 7594 C 726.962 -2.76038 2.13551 0
M  V30 7595 C 728.31 -3.45954 2.46173 0
M  V30 7596 O 729.334 -2.86247 2.11993 0
M  V30 7597 O 728.193 -4.53666 3.04711 0
M  V30 7598 H 725.287 -0.705705 0.431172 0
M  V30 7599 H 727.833 -0.913385 1.43022 0
M  V30 7600 H 726.605 -2.37849 3.10714 0
M  V30 7601 H 726.228 -3.52769 1.83411 0
M  V30 7602 N 727.225 -1.14528 -1.08264 0
M  V30 7603 C 728.172 -0.833556 -2.15222 0
M  V30 7604 C 729.142 0.209539 -1.64773 0
M  V30 7605 O 730.327 0.0791388 -1.90636 0
M  V30 7606 C 727.467 -0.318799 -3.43624 0
M  V30 7607 C 726.58 -1.42237 -4.07913 0
M  V30 7608 C 725.715 -0.864704 -5.24115 0
M  V30 7609 C 724.754 -1.94585 -5.80347 0
M  V30 7610 N 723.891 -1.40525 -6.87893 0
M  V30 7611 H 728.731 -1.74965 -2.41228 0
M  V30 7612 H 726.268 -0.873169 -1.18381 0
M  V30 7613 H 728.226 -0.00213088 -4.172 0
M  V30 7614 H 726.856 0.560397 -3.17898 0
M  V30 7615 H 725.908 -1.8554 -3.32083 0
M  V30 7616 H 727.22 -2.23901 -4.45724 0
M  V30 7617 H 726.374 -0.500025 -6.04636 0
M  V30 7618 H 725.113 -0.0171219 -4.87697 0
M  V30 7619 H 724.118 -2.31946 -4.98479 0
M  V30 7620 H 725.343 -2.79704 -6.18823 0
M  V30 7621 H 723.289 -0.579873 -6.53432 0
M  V30 7622 H 723.206 -2.15825 -7.24538 0
M  V30 7623 H 724.474 -1.06852 -7.72142 0
M  V30 7624 N 728.703 1.26451 -0.940633 0
M  V30 7625 C 729.928 1.98407 -0.60412 0
M  V30 7626 C 730.353 1.69584 0.81382 0
M  V30 7627 O 729.711 0.943553 1.54812 0
M  V30 7628 C 729.759 3.50387 -0.852136 0
M  V30 7629 O 728.863 4.1233 0.076013 0
M  V30 7630 H 728.204 0.622466 -0.231153 0
M  V30 7631 H 730.734 1.60932 -1.26342 0
M  V30 7632 H 730.744 4.00614 -0.772816 0
M  V30 7633 H 729.419 3.70696 -1.88566 0
M  V30 7634 H 727.996 3.7286 -0.0543187 0
M  V30 7635 N 730.181 0.707592 1.40822 0
M  V30 7636 C 731.409 0.253073 2.05346 0
M  V30 7637 C 731.824 -1.10218 1.53289 0
M  V30 7638 O 731.181 -1.69112 0.686105 0
M  V30 7639 C 731.232 0.215411 3.60858 0
M  V30 7640 O 730.953 1.51714 4.10992 0
M  V30 7641 C 732.454 -0.258636 4.42545 0
M  V30 7642 H 729.674 0.115256 0.661027 0
M  V30 7643 H 732.218 0.963555 1.80377 0
M  V30 7644 H 730.373 -0.445978 3.84824 0
M  V30 7645 H 730.787 1.41226 5.05129 0
M  V30 7646 H 732.261 -0.233849 5.51504 0
M  V30 7647 H 732.738 -1.2995 4.19535 0
M  V30 7648 H 733.344 0.372186 4.23668 0
M  V30 7649 N 731.66 -1.50943 0.453197 0
M  V30 7650 C 732.908 -2.01813 -0.107709 0
M  V30 7651 C 733.229 -1.33841 -1.41816 0
M  V30 7652 O 732.499 -0.477973 -1.8998 0
M  V30 7653 H 731.079 -0.745773 -0.0427948 0
M  V30 7654 H 733.741 -1.8545 0.599531 0
M  V30 7655 H 732.837 -3.10911 -0.27218 0
M  V30 7656 N 733.138 -0.185124 -1.56509 0
M  V30 7657 C 734.085 0.739729 -2.18624 0
M  V30 7658 C 735.055 1.217 -1.13042 0
M  V30 7659 O 736.24 1.28268 -1.41251 0
M  V30 7660 C 733.38 1.95787 -2.84186 0
M  V30 7661 C 732.493 1.52289 -4.04267 0
M  V30 7662 C 731.628 2.69576 -4.57714 0
M  V30 7663 C 730.667 2.22636 -5.70175 0
M  V30 7664 N 729.804 3.33065 -6.18071 0
M  V30 7665 H 734.644 0.203269 -2.97306 0
M  V30 7666 H 732.181 0.0885946 -1.46833 0
M  V30 7667 H 734.139 2.67253 -3.20361 0
M  V30 7668 H 732.769 2.4678 -2.08085 0
M  V30 7669 H 731.821 0.704458 -3.7382 0
M  V30 7670 H 733.133 1.13843 -4.85635 0
M  V30 7671 H 732.287 3.4918 -4.96143 0
M  V30 7672 H 731.026 3.1129 -3.75433 0
M  V30 7673 H 730.031 1.41483 -5.31284 0
M  V30 7674 H 731.256 1.81964 -6.54267 0
M  V30 7675 H 729.202 3.74328 -5.38715 0
M  V30 7676 H 729.119 2.98756 -6.94464 0
M  V30 7677 H 730.387 4.12912 -6.61153 0
M  V30 7678 N 734.616 1.57351 0.0885366 0
M  V30 7679 C 735.526 2.05858 1.12516 0
M  V30 7680 C 736.542 0.984758 1.43452 0
M  V30 7681 O 737.718 1.29836 1.53963 0
M  V30 7682 C 734.783 2.47882 2.42395 0
M  V30 7683 C 733.844 3.69487 2.18582 0
M  V30 7684 C 733.077 4.09497 3.42268 0
M  V30 7685 O 733.3 3.49536 4.50755 0
M  V30 7686 O 732.234 5.02406 3.31469 0
M  V30 7687 H 736.06 2.94467 0.743146 0
M  V30 7688 H 733.645 1.46326 0.301507 0
M  V30 7689 H 735.527 2.75509 3.18862 0
M  V30 7690 H 734.202 1.62408 2.8001 0
M  V30 7691 H 733.109 3.46967 1.39875 0
M  V30 7692 H 734.442 4.55761 1.85857 0
M  V30 7693 N 736.094 -0.359525 1.53444 0
M  V30 7694 C 737.042 -1.46104 1.80987 0
M  V30 7695 C 738.036 -1.55181 0.679351 0
M  V30 7696 O 739.242 -1.57995 0.862405 0
M  V30 7697 H 735.617 -0.486835 0.573145 0
M  V30 7698 H 737.588 -1.2008 2.73173 0
M  V30 7699 C 736.337 -2.82855 2.02208 0
M  V30 7700 H 735.66 -2.76631 2.88644 0
M  V30 7701 H 737.1 -3.59091 2.25455 0
M  V30 7702 C 735.559 -3.27192 0.802931 0
M  V30 7703 O 736.089 -4.017 -0.00544286 0
M  V30 7704 N 734.295 -2.83807 0.624657 0
M  V30 7705 H 733.842 -2.23339 1.28364 0
M  V30 7706 H 733.8 -3.13828 -0.189641 0
M  V30 7707 N 737.572 -1.44907 -0.619662 0
M  V30 7708 C 738.519 -1.52654 -1.73105 0
M  V30 7709 C 739.489 -0.373334 -1.6185 0
M  V30 7710 O 740.674 -0.585143 -1.81606 0
M  V30 7711 C 737.814 -1.48769 -3.11387 0
M  V30 7712 C 736.927 -2.74551 -3.33535 0
M  V30 7713 C 736.062 -2.62421 -4.61854 0
M  V30 7714 C 735.101 -3.83312 -4.77219 0
M  V30 7715 N 734.238 -3.69789 -5.96826 0
M  V30 7716 H 739.078 -2.47605 -1.65819 0
M  V30 7717 H 736.615 -1.22875 -0.808719 0
M  V30 7718 H 738.573 -1.44507 -3.91374 0
M  V30 7719 H 737.203 -0.573783 -3.1766 0
M  V30 7720 H 736.255 -2.88953 -2.47408 0
M  V30 7721 H 737.567 -3.64253 -3.40765 0
M  V30 7722 H 736.721 -2.56056 -5.50019 0
M  V30 7723 H 735.46 -1.70298 -4.57001 0
M  V30 7724 H 734.465 -3.90049 -3.87481 0
M  V30 7725 H 735.69 -4.76486 -4.83878 0
M  V30 7726 H 733.636 -2.80426 -5.93041 0
M  V30 7727 H 733.553 -4.53116 -6.05163 0
M  V30 7728 H 734.821 -3.67335 -6.87521 0
M  V30 7729 N 739.05 0.861098 -1.31996 0
M  V30 7730 C 740.299 1.60965 -1.21545 0
M  V30 7731 C 740.612 1.94325 0.222972 0
M  V30 7732 O 741.818 2.67757 0.449272 0
M  V30 7733 C 740.274 2.90223 -2.12834 0
M  V30 7734 C 739.882 2.64313 -3.61722 0
M  V30 7735 C 741.626 3.68229 -2.11205 0
M  V30 7736 C 739.533 3.89532 -4.44993 0
M  V30 7737 H 738.463 0.603988 -0.451348 0
M  V30 7738 H 741.114 0.951358 -1.56912 0
M  V30 7739 H 739.496 3.57475 -1.70375 0
M  V30 7740 H 740.67 2.05413 -4.12483 0
M  V30 7741 H 738.985 1.99647 -3.65418 0
M  V30 7742 H 741.582 4.61138 -2.70658 0
M  V30 7743 H 741.925 4.01466 -1.1014 0
M  V30 7744 H 742.458 3.07873 -2.51911 0
M  V30 7745 H 739.197 3.61441 -5.46846 0
M  V30 7746 H 738.717 4.47851 -3.98985 0
M  V30 7747 H 740.396 4.57334 -4.57663 0
M  V30 7748 N 740.528 1.15101 1.07655 0
M  V30 7749 C 741.756 0.947731 1.83918 0
M  V30 7750 C 742.171 -0.503927 1.81951 0
M  V30 7751 O 741.528 -1.34941 1.2287 0
M  V30 7752 C 741.579 1.4503 3.31132 0
M  V30 7753 O 741.3 2.84508 3.33146 0
M  V30 7754 C 742.801 1.28806 4.24174 0
M  V30 7755 H 740.021 0.336786 0.580358 0
M  V30 7756 H 742.565 1.52799 1.35914 0
M  V30 7757 H 740.72 0.912632 3.76497 0
M  V30 7758 H 741.134 3.0723 4.251 0
M  V30 7759 H 742.608 1.6882 5.25551 0
M  V30 7760 H 743.085 0.231851 4.38588 0
M  V30 7761 H 743.691 1.81465 3.84643 0
M  V30 7762 N 742.006 -1.2595 0.947325 0
M  V30 7763 C 743.255 -1.92759 0.593887 0
M  V30 7764 C 743.568 -1.75083 -0.872093 0
M  V30 7765 O 744.774 -2.36401 -1.33518 0
M  V30 7766 C 743.23 -3.45395 1.01144 0
M  V30 7767 C 742.838 -3.71795 2.49946 0
M  V30 7768 C 744.582 -4.18173 0.730185 0
M  V30 7769 C 742.489 -5.17901 2.85539 0
M  V30 7770 H 741.419 -0.721676 0.218403 0
M  V30 7771 H 744.07 -1.4293 1.15079 0
M  V30 7772 H 742.452 -3.94143 0.383007 0
M  V30 7773 H 743.626 -3.33728 3.17746 0
M  V30 7774 H 741.941 -3.12263 2.75465 0
M  V30 7775 H 744.538 -5.25784 0.972367 0
M  V30 7776 H 744.881 -4.14964 -0.333223 0
M  V30 7777 H 745.414 -3.75309 1.31862 0
M  V30 7778 H 742.153 -5.26216 3.90867 0
M  V30 7779 H 741.673 -5.57042 2.22406 0
M  V30 7780 H 743.352 -5.8596 2.74336 0
M  V30 7781 N 743.484 -0.715051 -1.40445 0
M  V30 7782 C 744.712 -0.263959 -2.05209 0
M  V30 7783 C 745.127 1.09403 -1.53871 0
M  V30 7784 O 744.484 1.68746 -0.695064 0
M  V30 7785 C 744.535 -0.234545 -3.60738 0
M  V30 7786 O 744.256 -1.53891 -4.10182 0
M  V30 7787 C 745.757 0.235164 -4.42676 0
M  V30 7788 H 742.977 -0.11876 -0.660407 0
M  V30 7789 H 745.521 -0.973107 -1.79864 0
M  V30 7790 H 743.676 0.425563 -3.85055 0
M  V30 7791 H 744.09 -1.43903 -5.04373 0
M  V30 7792 H 745.564 0.204598 -5.51621 0
M  V30 7793 H 746.041 1.27724 -4.20218 0
M  V30 7794 H 746.647 -0.394649 -4.23465 0
M  V30 7795 N 744.962 1.50701 -0.461195 0
M  V30 7796 C 745.91 2.29918 0.352231 0
M  V30 7797 C 746.904 1.36778 0.999403 0
M  V30 7798 O 748.11 1.54015 0.931639 0
M  V30 7799 H 744.485 0.740249 0.132423 0
M  V30 7800 H 746.456 2.96497 -0.336424 0
M  V30 7801 C 745.205 3.17052 1.42736 0
M  V30 7802 H 744.528 3.88623 0.938747 0
M  V30 7803 H 745.968 3.75493 1.96928 0
M  V30 7804 C 744.427 2.3399 2.42384 0
M  V30 7805 O 744.957 2.01608 3.47444 0
M  V30 7806 N 743.163 1.96758 2.13857 0
M  V30 7807 H 742.71 2.23292 1.28447 0
M  V30 7808 H 742.668 1.41484 2.80766 0
M  V30 7809 N 746.441 0.193421 1.56409 0
M  V30 7810 C 747.718 -0.493318 1.89277 0
M  V30 7811 C 748.098 -1.79765 1.10669 0
M  V30 7812 O 747.446 -2.27558 0.207274 0
M  V30 7813 C 747.656 -0.713732 3.41624 0
M  V30 7814 C 749.004 -1.03385 4.11821 0
M  V30 7815 O 750.028 -0.801511 3.47065 0
M  V30 7816 O 748.887 -1.47327 5.26267 0
M  V30 7817 H 745.981 -0.256973 0.786062 0
M  V30 7818 H 748.527 0.23351 1.68086 0
M  V30 7819 H 747.299 0.207446 3.9075 0
M  V30 7820 H 746.922 -1.49308 3.68501 0
M  V30 7821 N 747.919 -1.57396 -0.0801906 0
M  V30 7822 C 748.866 -2.03107 -1.09618 0
M  V30 7823 C 749.836 -0.910118 -1.38946 0
M  V30 7824 O 751.021 -1.17719 -1.50156 0
M  V30 7825 C 748.161 -2.47293 -2.40708 0
M  V30 7826 C 747.274 -3.72972 -2.17982 0
M  V30 7827 C 746.409 -4.05975 -3.42576 0
M  V30 7828 C 745.448 -5.24719 -3.15177 0
M  V30 7829 N 744.585 -5.53401 -4.32078 0
M  V30 7830 H 749.425 -2.89677 -0.69939 0
M  V30 7831 H 746.962 -1.43263 -0.333785 0
M  V30 7832 H 748.92 -2.7096 -3.17232 0
M  V30 7833 H 747.55 -1.63713 -2.78205 0
M  V30 7834 H 746.602 -3.56693 -1.32189 0
M  V30 7835 H 747.914 -4.59638 -1.93738 0
M  V30 7836 H 747.068 -4.30498 -4.275 0
M  V30 7837 H 745.807 -3.17859 -3.69887 0
M  V30 7838 H 744.812 -5 -2.28648 0
M  V30 7839 H 746.037 -6.14445 -2.89197 0
M  V30 7840 H 743.983 -4.68245 -4.59437 0
M  V30 7841 H 743.9 -6.34469 -4.11078 0
M  V30 7842 H 745.168 -5.8247 -5.18024 0
M  V30 7843 N 749.397 0.351382 -1.53633 0
M  V30 7844 C 750.645 1.09034 -1.70165 0
M  V30 7845 C 750.966 1.89413 -0.463422 0
M  V30 7846 O 750.236 1.888 0.522624 0
M  V30 7847 H 748.816 0.405522 -0.627344 0
M  V30 7848 H 751.478 0.394554 -1.90865 0
M  V30 7849 H 750.574 1.77215 -2.56907 0
M  V30 7850 N 750.875 1.45233 0.611969 0
M  V30 7851 C 752.291 1.29542 0.932251 0
M  V30 7852 C 752.491 0.24523 2.00002 0
M  V30 7853 O 751.547 -0.362333 2.49887 0
M  V30 7854 C 752.86 2.67301 1.37733 0
M  V30 7855 C 754.408 2.75163 1.49178 0
M  V30 7856 C 754.883 4.13437 1.97064 0
M  V30 7857 N 756.374 4.15709 2.04304 0
M  V30 7858 C 757.109 5.19566 2.42568 0
M  V30 7859 N 756.605 6.33771 2.79832 0
M  V30 7860 N 758.398 5.06923 2.42869 0
M  V30 7861 H 750.549 2.12192 -0.0938679 0
M  V30 7862 H 752.812 0.947775 0.0206569 0
M  V30 7863 H 752.518 3.45318 0.666951 0
M  V30 7864 H 752.392 2.95472 2.3447 0
M  V30 7865 H 754.779 1.97453 2.19309 0
M  V30 7866 H 754.86 2.50712 0.507674 0
M  V30 7867 H 754.504 4.91631 1.27521 0
M  V30 7868 H 754.434 4.35277 2.9638 0
M  V30 7869 H 756.925 3.33293 1.78113 0
M  V30 7870 H 757.238 7.08815 3.07898 0
M  V30 7871 H 755.583 6.37179 2.77538 0
M  V30 7872 H 758.774 4.1675 2.1316 0
M  V30 7873 H 758.947 5.87981 2.72364 0
M  V30 7874 N 752.353 -0.854086 1.3245 0
M  V30 7875 C 753.283 -1.97827 1.24044 0
M  V30 7876 C 754.264 -1.69646 0.124166 0
M  V30 7877 O 755.449 -1.91687 0.31143 0
M  V30 7878 C 752.579 -3.33673 0.963324 0
M  V30 7879 C 751.533 -3.76207 2.04089 0
M  V30 7880 C 750.859 -5.0969 1.61618 0
M  V30 7881 C 752.159 -3.91612 3.45597 0
M  V30 7882 H 753.853 -2.05118 2.18099 0
M  V30 7883 H 751.399 -0.985489 1.04996 0
M  V30 7884 H 753.352 -4.11871 0.891061 0
M  V30 7885 H 752.076 -3.26597 -0.0128649 0
M  V30 7886 H 750.735 -3.0026 2.10332 0
M  V30 7887 H 750.383 -4.99072 0.627418 0
M  V30 7888 H 750.083 -5.3912 2.33717 0
M  V30 7889 H 751.607 -5.90381 1.55829 0
M  V30 7890 H 753.021 -4.60163 3.4194 0
M  V30 7891 H 751.418 -4.3246 4.16051 0
M  V30 7892 H 752.488 -2.9451 3.85217 0
M  V30 7893 N 753.831 -1.1567 -1.07043 0
M  V30 7894 C 755.056 -0.957946 -1.83952 0
M  V30 7895 C 755.481 0.488807 -1.81638 0
M  V30 7896 O 754.839 1.34869 -1.21162 0
M  V30 7897 C 754.887 -1.48064 -3.288 0
M  V30 7898 O 753.991 -0.681921 -4.06723 0
M  V30 7899 H 753.332 -0.341453 -0.569479 0
M  V30 7900 H 755.862 -1.53728 -1.35015 0
M  V30 7901 H 755.872 -1.49484 -3.7963 0
M  V30 7902 H 754.547 -2.53388 -3.29799 0
M  V30 7903 H 753.124 -0.737612 -3.65532 0
M  V30 7904 N 755.309 1.25446 -0.953992 0
M  V30 7905 C 756.256 2.25912 -0.472485 0
M  V30 7906 C 757.226 1.59173 0.47469 0
M  V30 7907 O 758.411 1.86812 0.388082 0
M  V30 7908 C 755.551 3.44235 0.244218 0
M  V30 7909 C 754.664 4.25613 -0.740121 0
M  V30 7910 C 753.799 5.312 -0.000922267 0
M  V30 7911 C 752.838 6.04265 -0.976236 0
M  V30 7912 N 751.975 7.01589 -0.267952 0
M  V30 7913 H 756.815 2.66469 -1.3341 0
M  V30 7914 H 754.352 1.31005 -0.669045 0
M  V30 7915 H 756.31 4.11682 0.676314 0
M  V30 7916 H 754.94 3.04554 1.06988 0
M  V30 7917 H 753.992 3.57834 -1.2907 0
M  V30 7918 H 755.304 4.762 -1.48441 0
M  V30 7919 H 754.458 6.04719 0.48984 0
M  V30 7920 H 753.197 4.81484 0.776159 0
M  V30 7921 H 752.202 5.29561 -1.478 0
M  V30 7922 H 753.427 6.5607 -1.75354 0
M  V30 7923 H 751.373 6.54164 0.490403 0
M  V30 7924 H 751.29 7.4999 -0.951344 0
M  V30 7925 H 752.558 7.7924 0.201294 0
M  V30 7926 N 756.787 0.722489 1.40064 0
M  V30 7927 C 757.697 0.0755984 2.34478 0
M  V30 7928 C 758.713 -0.736046 1.57665 0
M  V30 7929 O 759.889 -0.667407 1.9002 0
M  V30 7930 C 756.954 -0.830075 3.36616 0
M  V30 7931 C 756.015 -0.00759884 4.29299 0
M  V30 7932 C 755.248 -0.870139 5.26559 0
M  V30 7933 O 755.471 -2.10921 5.2997 0
M  V30 7934 O 754.405 -0.305454 6.01124 0
M  V30 7935 H 758.231 0.854545 2.9143 0
M  V30 7936 H 755.816 0.483032 1.41376 0
M  V30 7937 H 757.698 -1.34864 3.99236 0
M  V30 7938 H 756.373 -1.58805 2.82069 0
M  V30 7939 H 755.28 0.556199 3.69942 0
M  V30 7940 H 756.613 0.712312 4.87018 0
M  V30 7941 N 758.265 -1.50454 0.469181 0
M  V30 7942 C 759.542 -1.9504 -0.147955 0
M  V30 7943 C 759.922 -1.40946 -1.57154 0
M  V30 7944 O 759.27 -0.609663 -2.20217 0
M  V30 7945 C 759.48 -3.48875 -0.0932198 0
M  V30 7946 C 760.828 -4.23655 -0.283056 0
M  V30 7947 O 761.852 -3.55795 -0.169892 0
M  V30 7948 O 760.711 -5.44102 -0.511396 0
M  V30 7949 H 757.805 -0.819283 -0.11271 0
M  V30 7950 H 760.351 -1.6123 0.529446 0
M  V30 7951 H 759.123 -3.80791 0.900784 0
M  V30 7952 H 758.746 -3.89217 -0.812161 0
M  V30 7953 N 759.743 -0.201713 -1.56304 0
M  V30 7954 C 760.992 0.435557 -1.96941 0
M  V30 7955 C 761.305 1.62299 -1.09172 0
M  V30 7956 O 762.511 2.32849 -1.3962 0
M  V30 7957 C 760.967 0.826298 -3.50286 0
M  V30 7958 C 760.575 -0.337216 -4.46729 0
M  V30 7959 C 762.319 1.43028 -3.99679 0
M  V30 7960 C 760.226 0.0748539 -5.91353 0
M  V30 7961 H 759.156 0.1665 -0.735387 0
M  V30 7962 H 761.807 -0.294781 -1.81117 0
M  V30 7963 H 760.189 1.61349 -3.61639 0
M  V30 7964 H 761.363 -1.11476 -4.47113 0
M  V30 7965 H 759.678 -0.853126 -4.07567 0
M  V30 7966 H 762.275 1.75115 -5.05212 0
M  V30 7967 H 762.618 2.33911 -3.44371 0
M  V30 7968 H 763.151 0.706924 -3.91468 0
M  V30 7969 H 759.89 -0.799957 -6.506 0
M  V30 7970 H 759.41 0.817122 -5.94208 0
M  V30 7971 H 761.089 0.508389 -6.45 0
M  V30 7972 N 761.222 1.57436 0.0718424 0
M  V30 7973 C 762.132 2.07039 1.10326 0
M  V30 7974 C 763.148 0.999918 1.424 0
M  V30 7975 O 764.324 1.31462 1.52577 0
M  V30 7976 C 761.389 2.50439 2.39752 0
M  V30 7977 C 760.45 3.71784 2.14651 0
M  V30 7978 C 759.683 4.13104 3.37906 0
M  V30 7979 O 759.906 3.54298 4.47023 0
M  V30 7980 O 758.84 5.05894 3.26121 0
M  V30 7981 H 762.666 2.95239 0.711872 0
M  V30 7982 H 760.251 1.46638 0.28597 0
M  V30 7983 H 762.133 2.78876 3.15921 0
M  V30 7984 H 760.808 1.65368 2.78271 0
M  V30 7985 H 759.715 3.48431 1.36187 0
M  V30 7986 H 761.048 4.57707 1.81012 0
M  V30 7987 N 762.7 -0.34323 1.53817 0
M  V30 7988 C 764.116 -0.686355 1.44088 0
M  V30 7989 C 764.316 -1.92426 0.597882 0
M  V30 7990 O 763.372 -2.52343 0.0889918 0
M  V30 7991 C 764.685 -0.878698 2.87575 0
M  V30 7992 C 766.233 -0.977296 2.97352 0
M  V30 7993 C 766.708 -1.20195 4.41947 0
M  V30 7994 N 768.199 -1.26915 4.45474 0
M  V30 7995 C 768.934 -1.46049 5.54488 0
M  V30 7996 N 768.43 -1.62354 6.73508 0
M  V30 7997 N 770.223 -1.48599 5.42102 0
M  V30 7998 H 762.374 0.470679 2.07119 0
M  V30 7999 H 764.637 0.148652 0.936273 0
M  V30 8000 H 764.343 -0.040602 3.51677 0
M  V30 8001 H 764.217 -1.78034 3.32541 0
M  V30 8002 H 766.604 -1.80591 2.3339 0
M  V30 8003 H 766.685 -0.0525498 2.55746 0
M  V30 8004 H 766.329 -0.378262 5.06489 0
M  V30 8005 H 766.259 -2.14027 4.81145 0
M  V30 8006 H 768.75 -1.15837 3.59708 0
M  V30 8007 H 769.063 -1.76591 7.52353 0
M  V30 8008 H 767.408 -1.5949 6.76453 0
M  V30 8009 H 770.599 -1.35443 4.48077 0
M  V30 8010 H 770.772 -1.6317 6.2712 0
M  V30 8011 N 764.178 -1.45556 -0.604258 0
M  V30 8012 C 765.111 -1.48975 -1.72863 0
M  V30 8013 C 766.089 -0.345803 -1.5888 0
M  V30 8014 O 767.273 -0.546796 -1.80395 0
M  V30 8015 C 764.4 -1.34794 -3.10722 0
M  V30 8016 C 763.446 -2.53096 -3.43285 0
M  V30 8017 S 764.279 -4.15551 -3.37754 0
M  V30 8018 C 765.435 -4.03842 -4.78187 0
M  V30 8019 H 765.668 -2.44108 -1.69701 0
M  V30 8020 H 763.201 -1.33179 -0.781194 0
M  V30 8021 H 765.159 -1.273 -3.90263 0
M  V30 8022 H 763.82 -0.411254 -3.11396 0
M  V30 8023 H 763.013 -2.39109 -4.4367 0
M  V30 8024 H 762.615 -2.57469 -2.71267 0
M  V30 8025 H 764.907 -3.69191 -5.6807 0
M  V30 8026 H 765.85 -5.0415 -4.97231 0
M  V30 8027 H 766.258 -3.35443 -4.54025 0
M  V30 8028 N 765.656 0.84705 -1.32902 0
M  V30 8029 C 766.902 1.60414 -1.24078 0
M  V30 8030 C 767.235 1.93217 0.195105 0
M  V30 8031 O 766.51 1.58001 1.13428 0
M  V30 8032 C 766.793 2.91951 -2.108 0
M  V30 8033 C 766.646 2.6588 -3.62805 0
M  V30 8034 C 767.965 3.93299 -1.97494 0
M  V30 8035 H 765.084 0.58206 -0.452079 0
M  V30 8036 H 767.726 0.977562 -1.62922 0
M  V30 8037 H 765.876 3.45425 -1.77802 0
M  V30 8038 H 767.548 2.18902 -4.06054 0
M  V30 8039 H 765.791 1.99716 -3.85092 0
M  V30 8040 H 766.462 3.59574 -4.1882 0
M  V30 8041 H 768.938 3.49105 -2.26417 0
M  V30 8042 H 767.814 4.8318 -2.60438 0
M  V30 8043 H 768.075 4.31887 -0.944782 0
M  V30 8044 N 767.134 1.16236 1.06428 0
M  V30 8045 C 768.066 0.825446 2.1382 0
M  V30 8046 C 769.079 -0.166707 1.61944 0
M  V30 8047 O 770.268 0.0578606 1.78406 0
M  V30 8048 C 767.368 0.208023 3.38261 0
M  V30 8049 C 766.541 1.23994 4.19457 0
M  V30 8050 C 765.6 0.642569 5.22262 0
M  V30 8051 O 764.626 1.31106 5.53895 0
M  V30 8052 N 765.828 -0.571327 5.77682 0
M  V30 8053 H 768.593 1.7497 2.43322 0
M  V30 8054 H 766.154 1.05951 1.22417 0
M  V30 8055 H 768.146 -0.204608 4.04182 0
M  V30 8056 H 766.716 -0.619752 3.06395 0
M  V30 8057 H 765.936 1.82879 3.49212 0
M  V30 8058 H 767.224 1.93638 4.70512 0
M  V30 8059 H 766.622 -1.13263 5.54245 0
M  V30 8060 H 765.179 -0.926187 6.45186 0
M  V30 8061 N 768.612 -1.24939 0.960631 0
M  V30 8062 C 769.522 -2.29374 0.492435 0
M  V30 8063 C 770.538 -1.68262 -0.443154 0
M  V30 8064 O 771.714 -1.98875 -0.31793 0
M  V30 8065 C 768.779 -3.46023 -0.216626 0
M  V30 8066 C 767.84 -4.22557 0.757915 0
M  V30 8067 C 767.073 -5.33636 0.0825969 0
M  V30 8068 O 767.296 -5.59084 -1.13054 0
M  V30 8069 O 766.23 -5.96939 0.771177 0
M  V30 8070 H 770.056 -2.71525 1.36044 0
M  V30 8071 H 767.641 -1.30499 0.72735 0
M  V30 8072 H 769.523 -4.16885 -0.615241 0
M  V30 8073 H 768.198 -3.05862 -1.05971 0
M  V30 8074 H 767.105 -3.54099 1.20685 0
M  V30 8075 H 768.438 -4.66516 1.5692 0
M  V30 8076 N 770.09 -0.729906 -1.39679 0
M  V30 8077 C 771.053 -0.0951668 -2.29002 0
M  V30 8078 C 772.053 0.672471 -1.46063 0
M  V30 8079 O 773.243 0.502245 -1.66803 0
M  V30 8080 C 770.375 0.874631 -3.29489 0
M  V30 8081 H 771.568 -0.882062 -2.86635 0
M  V30 8082 H 769.121 -0.495424 -1.4824 0
M  V30 8083 H 769.856 1.68807 -2.76902 0
M  V30 8084 H 769.641 0.326893 -3.90735 0
M  V30 8085 H 771.131 1.31548 -3.96339 0
M  V30 8086 N 771.568 1.50203 -0.477153 0
M  V30 8087 C 772.478 2.32421 0.319027 0
M  V30 8088 C 773.494 1.43075 0.990233 0
M  V30 8089 O 774.67 1.76123 0.976873 0
M  V30 8090 C 771.735 3.17909 1.38328 0
M  V30 8091 C 770.796 4.23082 0.728036 0
M  V30 8092 C 770.029 5.04484 1.74158 0
M  V30 8093 O 770.252 4.8705 2.96881 0
M  V30 8094 O 769.186 5.8747 1.31006 0
M  V30 8095 H 773.012 3.01638 -0.353281 0
M  V30 8096 H 770.597 1.47478 -0.238891 0
M  V30 8097 H 772.479 3.70937 1.9996 0
M  V30 8098 H 771.154 2.51413 2.03895 0
M  V30 8099 H 770.061 3.7403 0.07261 0
M  V30 8100 H 771.394 4.92065 0.115216 0
M  V30 8101 N 773.046 0.209999 1.56195 0
M  V30 8102 C 773.993 -0.704854 2.19774 0
M  V30 8103 C 774.963 -1.19886 1.14964 0
M  V30 8104 O 776.148 -1.26005 1.43274 0
M  V30 8105 C 773.288 -1.91241 2.87265 0
M  V30 8106 C 772.401 -1.45838 4.06639 0
M  V30 8107 C 771.536 -2.6226 4.61945 0
M  V30 8108 C 770.575 -2.13537 5.73645 0
M  V30 8109 N 769.712 -3.2319 6.23292 0
M  V30 8110 H 774.552 -0.155944 2.97592 0
M  V30 8111 H 772.089 -0.0652235 1.46955 0
M  V30 8112 H 774.047 -2.62123 3.24573 0
M  V30 8113 H 772.677 -2.43439 2.11985 0
M  V30 8114 H 771.729 -0.644897 3.74894 0
M  V30 8115 H 773.041 -1.06103 4.87384 0
M  V30 8116 H 772.195 -3.41243 5.01636 0
M  V30 8117 H 770.934 -3.05278 3.80338 0
M  V30 8118 H 769.939 -1.33013 5.33468 0
M  V30 8119 H 771.164 -1.71533 6.57079 0
M  V30 8120 H 769.11 -3.65711 5.44602 0
M  V30 8121 H 769.027 -2.8767 6.99129 0
M  V30 8122 H 770.295 -4.02342 6.67639 0
M  V30 8123 N 774.524 -1.57472 -0.0634922 0
M  V30 8124 C 775.754 -1.91608 -0.772645 0
M  V30 8125 C 776.162 -0.805019 -1.71219 0
M  V30 8126 O 775.505 0.229941 -1.82255 0
M  V30 8127 C 775.567 -3.21281 -1.61304 0
M  V30 8128 C 775.231 -4.49177 -0.841973 0
M  V30 8129 C 776.228 -5.19661 -0.157494 0
M  V30 8130 C 773.913 -4.9578 -0.80669 0
M  V30 8131 C 775.907 -6.35006 0.551948 0
M  V30 8132 C 773.594 -6.11028 -0.0934812 0
M  V30 8133 C 774.592 -6.80493 0.58463 0
M  V30 8134 O 774.28 -7.93542 1.28633 0
M  V30 8135 H 774.012 -0.637685 -0.224352 0
M  V30 8136 H 776.566 -2.05369 -0.0355279 0
M  V30 8137 H 774.796 -3.03752 -2.39315 0
M  V30 8138 H 776.485 -3.41003 -2.20162 0
M  V30 8139 H 777.251 -4.84681 -0.176006 0
M  V30 8140 H 773.13 -4.41579 -1.32397 0
M  V30 8141 H 776.674 -6.89161 1.0818 0
M  V30 8142 H 772.571 -6.45459 -0.0729258 0
M  V30 8143 H 773.339 -8.09708 1.19646 0
M  V30 8144 N 776.003 0.335068 -1.53997 0
M  V30 8145 C 776.95 1.41187 -1.82579 0
M  V30 8146 C 777.92 1.51897 -0.672061 0
M  V30 8147 O 779.105 1.673 -0.917346 0
M  V30 8148 C 776.245 2.77717 -2.0486 0
M  V30 8149 C 775.358 2.7573 -3.32561 0
M  V30 8150 C 774.493 4.04032 -3.44864 0
M  V30 8151 C 773.532 3.96308 -4.66483 0
M  V30 8152 N 772.669 5.16317 -4.75774 0
M  V30 8153 H 777.509 1.16113 -2.74448 0
M  V30 8154 H 775.046 0.562305 -1.35928 0
M  V30 8155 H 777.004 3.57071 -2.15768 0
M  V30 8156 H 775.634 3.01124 -1.16294 0
M  V30 8157 H 774.686 1.88432 -3.3045 0
M  V30 8158 H 775.998 2.65902 -4.22016 0
M  V30 8159 H 775.152 4.91814 -3.55251 0
M  V30 8160 H 773.891 4.16652 -2.53481 0
M  V30 8161 H 772.896 3.06911 -4.56164 0
M  V30 8162 H 774.121 3.85263 -5.5924 0
M  V30 8163 H 772.067 5.29464 -3.87303 0
M  V30 8164 H 771.984 5.08779 -5.59178 0
M  V30 8165 H 773.252 6.05846 -4.9048 0
M  V30 8166 N 777.481 1.45874 0.596531 0
M  V30 8167 C 778.444 1.54988 1.68853 0
M  V30 8168 C 779.444 0.428302 1.54991 0
M  V30 8169 O 780.634 0.692158 1.59859 0
M  V30 8170 C 777.766 1.457 3.08195 0
M  V30 8171 H 778.959 2.52294 1.62135 0
M  V30 8172 H 776.512 1.33479 0.813206 0
M  V30 8173 H 777.247 0.496204 3.20481 0
M  V30 8174 H 777.032 2.27061 3.19665 0
M  V30 8175 H 778.522 1.55133 3.87716 0
M  V30 8176 N 778.959 -0.83999 1.33349 0
M  V30 8177 C 779.869 -1.98182 1.25543 0
M  V30 8178 C 780.885 -1.73204 0.166208 0
M  V30 8179 O 782.061 -1.97596 0.389589 0
M  V30 8180 C 779.126 -3.32157 0.993614 0
M  V30 8181 C 778.187 -3.70258 2.17273 0
M  V30 8182 C 777.42 -4.9784 1.92331 0
M  V30 8183 O 777.643 -5.63679 0.873074 0
M  V30 8184 O 776.577 -5.33418 2.78835 0
M  V30 8185 H 780.403 -2.07708 2.21565 0
M  V30 8186 H 777.988 -0.972852 1.13384 0
M  V30 8187 H 779.87 -4.12433 0.864711 0
M  V30 8188 H 778.545 -3.23637 0.0636596 0
M  V30 8189 H 777.452 -2.90497 2.35716 0
M  V30 8190 H 778.785 -3.83442 3.08598 0
M  V30 8191 N 780.437 -1.16799 -1.0581 0
M  V30 8192 C 781.714 -0.862616 -1.75551 0
M  V30 8193 C 782.094 0.6385 -2.01212 0
M  V30 8194 O 781.442 1.58784 -1.64317 0
M  V30 8195 C 781.652 -1.6907 -3.05314 0
M  V30 8196 C 783 -1.90675 -3.79379 0
M  V30 8197 O 784.024 -1.65976 -3.15167 0
M  V30 8198 O 782.883 -2.32145 -4.94743 0
M  V30 8199 H 779.977 -0.318789 -0.763088 0
M  V30 8200 H 782.523 -1.27461 -1.12034 0
M  V30 8201 H 781.295 -2.70912 -2.82352 0
M  V30 8202 H 780.918 -1.27606 -3.76567 0
M  V30 8203 N 781.915 1.24427 -0.967243 0
M  V30 8204 C 782.825 2.29109 -0.504592 0
M  V30 8205 C 783.841 1.68495 0.434224 0
M  V30 8206 O 785.017 1.99041 0.307379 0
M  V30 8207 C 782.082 3.46133 0.198273 0
M  V30 8208 C 781.143 4.22149 -0.780313 0
M  V30 8209 C 780.376 5.33585 -0.110896 0
M  V30 8210 O 780.599 5.59676 1.10088 0
M  V30 8211 O 779.533 5.96522 -0.802823 0
M  V30 8212 H 783.359 2.708 -1.37482 0
M  V30 8213 H 780.944 1.30111 -0.73426 0
M  V30 8214 H 782.826 4.17205 0.593124 0
M  V30 8215 H 781.501 3.0642 1.04347 0
M  V30 8216 H 780.408 3.53454 -1.22561 0
M  V30 8217 H 781.741 4.65677 -1.59392 0
M  V30 8218 N 783.393 0.737304 1.3929 0
M  V30 8219 C 784.34 0.0988364 2.30588 0
M  V30 8220 C 785.31 -0.727206 1.49335 0
M  V30 8221 O 786.495 -0.686694 1.78014 0
M  V30 8222 C 783.635 -0.800734 3.35682 0
M  V30 8223 C 782.748 0.0381731 4.31983 0
M  V30 8224 C 781.883 -0.862884 5.24145 0
M  V30 8225 C 780.922 -0.0193639 6.12097 0
M  V30 8226 N 780.059 -0.87648 6.96608 0
M  V30 8227 H 784.899 0.883031 2.84617 0
M  V30 8228 H 782.436 0.447111 1.4014 0
M  V30 8229 H 784.394 -1.33676 3.95205 0
M  V30 8230 H 783.024 -1.55088 2.83103 0
M  V30 8231 H 782.076 0.691641 3.74059 0
M  V30 8232 H 783.388 0.690294 4.94 0
M  V30 8233 H 782.542 -1.46667 5.88705 0
M  V30 8234 H 781.281 -1.54878 4.62454 0
M  V30 8235 H 780.286 0.597202 5.46547 0
M  V30 8236 H 781.511 0.663348 6.75852 0
M  V30 8237 H 779.457 -1.54762 6.37483 0
M  V30 8238 H 779.374 -0.280892 7.55478 0
M  V30 8239 H 780.642 -1.46575 7.65595 0
M  V30 8240 N 784.871 -1.49948 0.485112 0
M  V30 8241 C 785.803 -2.26691 -0.338222 0
M  V30 8242 C 786.816 -1.32584 -0.944742 0
M  V30 8243 O 788.005 -1.57989 -0.830772 0
M  V30 8244 C 785.105 -3.04405 -1.48966 0
M  V30 8245 C 784.278 -4.25971 -0.993371 0
M  V30 8246 C 783.337 -4.85861 -2.02052 0
M  V30 8247 O 782.363 -5.46382 -1.59547 0
M  V30 8248 N 783.565 -4.74101 -3.34975 0
M  V30 8249 H 786.33 -2.97989 0.319748 0
M  V30 8250 H 783.891 -1.58772 0.316714 0
M  V30 8251 H 785.883 -3.41348 -2.17403 0
M  V30 8252 H 784.453 -2.35815 -2.05207 0
M  V30 8253 H 783.673 -3.93971 -0.134424 0
M  V30 8254 H 784.961 -5.0476 -0.639934 0
M  V30 8255 H 784.359 -4.26002 -3.72208 0
M  V30 8256 H 782.916 -5.15274 -3.9917 0
M  V30 8257 N 786.349 -0.21828 -1.56081 0
M  V30 8258 C 787.765 0.137168 -1.59009 0
M  V30 8259 C 787.965 1.59215 -1.23503 0
M  V30 8260 O 787.021 2.33178 -0.968716 0
M  V30 8261 C 788.334 -0.186162 -3.00123 0
M  V30 8262 C 789.882 -0.128135 -3.12738 0
M  V30 8263 C 790.357 -0.425094 -4.56023 0
M  V30 8264 N 791.848 -0.374547 -4.61683 0
M  V30 8265 C 792.583 -0.57786 -5.70481 0
M  V30 8266 N 792.079 -0.842771 -6.87655 0
M  V30 8267 N 793.872 -0.510521 -5.59777 0
M  V30 8268 H 786.023 -1.16746 -1.77437 0
M  V30 8269 H 788.286 -0.467706 -0.824594 0
M  V30 8270 H 787.992 -1.19589 -3.30744 0
M  V30 8271 H 787.866 0.500388 -3.73866 0
M  V30 8272 H 790.253 0.872224 -2.81915 0
M  V30 8273 H 790.334 -0.848112 -2.41331 0
M  V30 8274 H 789.978 -1.42288 -4.87562 0
M  V30 8275 H 789.908 0.316038 -5.25651 0
M  V30 8276 H 792.399 -0.177356 -3.77484 0
M  V30 8277 H 792.712 -0.986095 -7.66483 0
M  V30 8278 H 791.057 -0.879929 -6.89407 0
M  V30 8279 H 794.248 -0.303813 -4.67113 0
M  V30 8280 H 794.421 -0.672378 -6.44502 0
M  V30 8281 N 787.827 1.57504 0.0551401 0
M  V30 8282 C 789.104 1.79155 0.785048 0
M  V30 8283 C 789.484 0.809995 1.94942 0
M  V30 8284 O 788.832 -0.153432 2.27984 0
M  V30 8285 C 789.042 3.26134 1.24247 0
M  V30 8286 C 790.39 3.90419 1.66908 0
M  V30 8287 O 791.414 3.30126 1.33772 0
M  V30 8288 O 790.273 4.96523 2.28314 0
M  V30 8289 H 787.367 0.735825 0.377479 0
M  V30 8290 H 789.913 1.69666 0.0339285 0
M  V30 8291 H 788.685 3.89145 0.410089 0
M  V30 8292 H 788.308 3.40411 2.05441 0
M  V30 8293 N 789.305 -0.326896 1.54172 0
M  V30 8294 C 790.252 -1.40216 1.83325 0
M  V30 8295 C 791.222 -1.51538 0.680107 0
M  V30 8296 O 792.407 -1.66811 0.926206 0
M  V30 8297 C 789.547 -2.76626 2.0633 0
M  V30 8298 C 788.66 -2.73963 3.34019 0
M  V30 8299 C 787.795 -4.02198 3.47002 0
M  V30 8300 C 786.834 -3.93828 4.68578 0
M  V30 8301 N 785.971 -5.13787 4.78506 0
M  V30 8302 H 790.811 -1.14656 2.7506 0
M  V30 8303 H 788.348 -0.555089 1.36225 0
M  V30 8304 H 790.306 -3.55922 2.17659 0
M  V30 8305 H 788.936 -3.00503 1.1789 0
M  V30 8306 H 787.988 -1.86677 3.31445 0
M  V30 8307 H 789.3 -2.6366 4.2342 0
M  V30 8308 H 788.454 -4.89923 3.57855 0
M  V30 8309 H 787.193 -4.15302 2.55687 0
M  V30 8310 H 786.198 -3.04487 4.57786 0
M  V30 8311 H 787.423 -3.82292 5.61275 0
M  V30 8312 H 785.369 -5.27403 3.90105 0
M  V30 8313 H 785.286 -5.05807 5.61868 0
M  V30 8314 H 786.554 -6.03236 4.93686 0
M  V30 8315 N 790.784 -1.46188 -0.588786 0
M  V30 8316 C 792.03 -1.51407 -1.34921 0
M  V30 8317 C 792.363 -0.162771 -1.93517 0
M  V30 8318 O 791.638 0.825082 -1.76132 0
M  V30 8319 C 791.921 -2.60795 -2.48311 0
M  V30 8320 C 791.774 -4.05435 -1.94789 0
M  V30 8321 C 793.093 -2.66313 -3.50379 0
M  V30 8322 H 790.212 -0.551213 -0.489217 0
M  V30 8323 H 792.854 -1.78095 -0.661993 0
M  V30 8324 H 791.004 -2.3817 -3.06932 0
M  V30 8325 H 792.676 -4.39328 -1.40672 0
M  V30 8326 H 790.919 -4.15202 -1.25659 0
M  V30 8327 H 791.59 -4.77691 -2.76613 0
M  V30 8328 H 794.066 -2.86634 -3.01629 0
M  V30 8329 H 792.942 -3.44681 -4.27184 0
M  V30 8330 H 793.203 -1.72127 -4.07216 0
M  V30 8331 N 792.262 0.832906 -1.33792 0
M  V30 8332 C 793.487 1.62568 -1.28788 0
M  V30 8333 C 793.912 1.87599 0.137246 0
M  V30 8334 O 793.27 1.44436 1.0958 0
M  V30 8335 C 793.318 2.9495 -2.07453 0
M  V30 8336 O 792.422 3.86546 -1.43722 0
M  V30 8337 H 791.763 0.494809 -0.442787 0
M  V30 8338 H 794.293 1.03578 -1.76445 0
M  V30 8339 H 794.303 3.44599 -2.1844 0
M  V30 8340 H 792.978 2.76055 -3.11073 0
M  V30 8341 H 791.555 3.45044 -1.41417 0
M  V30 8342 N 793.74 1.17359 1.05189 0
M  V30 8343 C 794.965 0.98709 1.82404 0
M  V30 8344 C 795.39 -0.459848 1.82392 0
M  V30 8345 O 794.748 -1.32924 1.23292 0
M  V30 8346 C 794.796 1.53276 3.26403 0
M  V30 8347 O 793.9 0.746541 4.05587 0
M  V30 8348 H 793.241 0.35047 0.563974 0
M  V30 8349 H 795.771 1.55856 1.32552 0
M  V30 8350 H 795.781 1.55504 3.77203 0
M  V30 8351 H 794.456 2.58603 3.25726 0
M  V30 8352 H 793.033 0.795671 3.64312 0
M  V30 8353 N 795.218 -1.23913 0.973828 0
M  V30 8354 C 796.165 -2.25132 0.508366 0
M  V30 8355 C 797.135 -1.59908 -0.449307 0
M  V30 8356 O 798.32 -1.87405 -0.358313 0
M  V30 8357 C 795.46 -3.4458 -0.189422 0
M  V30 8358 C 794.573 -4.24381 0.807738 0
M  V30 8359 C 793.708 -5.31131 0.0854315 0
M  V30 8360 C 792.747 -6.02635 1.07225 0
M  V30 8361 N 791.884 -7.01073 0.379535 0
M  V30 8362 H 796.724 -2.64313 1.37632 0
M  V30 8363 H 794.261 -1.29924 0.689802 0
M  V30 8364 H 796.219 -4.12706 -0.610733 0
M  V30 8365 H 794.849 -3.06218 -1.02129 0
M  V30 8366 H 793.901 -3.55735 1.34747 0
M  V30 8367 H 795.213 -4.73778 1.55998 0
M  V30 8368 H 794.367 -6.05422 -0.393572 0
M  V30 8369 H 793.106 -4.82658 -0.699461 0
M  V30 8370 H 792.111 -5.27143 1.56207 0
M  V30 8371 H 793.336 -6.53197 1.85769 0
M  V30 8372 H 791.282 -6.54862 -0.386269 0
M  V30 8373 H 791.199 -7.48382 1.07054 0
M  V30 8374 H 792.467 -7.79462 -0.0772984 0
M  V30 8375 N 796.696 -0.74468 -1.38897 0
M  V30 8376 C 797.644 -0.100312 -2.32384 0
M  V30 8377 C 798.638 0.715191 -1.53562 0
M  V30 8378 O 799.844 0.615288 -1.69157 0
M  V30 8379 H 796.219 -0.0136403 -0.751876 0
M  V30 8380 H 798.19 -0.905007 -2.84345 0
M  V30 8381 C 796.939 0.785432 -3.38713 0
M  V30 8382 H 796.262 0.167308 -3.9945 0
M  V30 8383 H 797.702 1.20374 -4.06554 0
M  V30 8384 C 796.161 1.92408 -2.76552 0
M  V30 8385 O 796.691 3.01752 -2.65157 0
M  V30 8386 N 794.897 1.71642 -2.34494 0
M  V30 8387 H 794.444 0.827079 -2.43961 0
M  V30 8388 H 794.402 2.48 -1.93244 0
M  V30 8389 N 798.174 1.49689 -0.493057 0
M  V30 8390 C 799.399 2.07331 0.0535114 0
M  V30 8391 C 799.824 1.35196 1.30781 0
M  V30 8392 O 799.182 0.406246 1.7669 0
M  V30 8393 C 799.23 3.59364 0.29825 0
M  V30 8394 O 798.334 3.88819 1.37454 0
M  V30 8395 H 797.675 0.663612 -0.0227018 0
M  V30 8396 H 800.205 1.926 -0.690402 0
M  V30 8397 H 800.215 4.04515 0.532159 0
M  V30 8398 H 798.89 4.1128 -0.618207 0
M  V30 8399 H 797.467 3.55487 1.12621 0
M  V30 8400 N 799.652 0.226554 1.55963 0
M  V30 8401 C 800.582 -0.676079 2.23498 0
M  V30 8402 C 801.563 -1.19718 1.20837 0
M  V30 8403 O 802.748 -1.24027 1.49436 0
M  V30 8404 C 799.878 -1.88217 2.91876 0
M  V30 8405 C 798.832 -1.4947 4.01052 0
M  V30 8406 C 798.158 -2.77997 4.56751 0
M  V30 8407 C 799.458 -0.680951 5.17842 0
M  V30 8408 H 801.152 -0.112989 2.99187 0
M  V30 8409 H 798.698 -0.0529046 1.43903 0
M  V30 8410 H 800.651 -2.51911 3.37815 0
M  V30 8411 H 799.375 -2.47031 2.13643 0
M  V30 8412 H 798.034 -0.881199 3.55852 0
M  V30 8413 H 797.682 -3.34966 3.75243 0
M  V30 8414 H 797.382 -2.52803 5.30438 0
M  V30 8415 H 798.906 -3.42625 5.05411 0
M  V30 8416 H 800.32 -1.22171 5.60131 0
M  V30 8417 H 798.717 -0.525898 5.97791 0
M  V30 8418 H 799.787 0.311346 4.83899 0
M  V30 8419 N 801.13 -1.57531 -0.0467866 0
M  V30 8420 C 802.04 -2.08768 -1.07018 0
M  V30 8421 C 803.056 -1.02245 -1.40791 0
M  V30 8422 O 804.232 -1.33873 -1.50466 0
M  V30 8423 C 801.297 -2.54221 -2.35738 0
M  V30 8424 C 800.358 -3.75152 -2.08709 0
M  V30 8425 C 799.591 -4.18428 -3.31291 0
M  V30 8426 O 799.814 -3.61365 -4.4133 0
M  V30 8427 O 798.748 -5.11018 -3.18032 0
M  V30 8428 H 802.574 -2.96334 -0.664812 0
M  V30 8429 H 800.159 -1.47074 -0.262605 0
M  V30 8430 H 802.041 -2.83866 -3.11445 0
M  V30 8431 H 800.716 -1.69774 -2.75605 0
M  V30 8432 H 799.623 -3.50553 -1.30627 0
M  V30 8433 H 800.956 -4.60528 -1.73708 0
M  V30 8434 N 802.608 0.318715 -1.54344 0
M  V30 8435 C 803.833 1.07987 -1.77069 0
M  V30 8436 C 804.258 1.80766 -0.520117 0
M  V30 8437 O 803.616 1.73424 0.528566 0
M  V30 8438 C 803.664 2.04987 -2.96669 0
M  V30 8439 O 802.768 3.12974 -2.68554 0
M  V30 8440 H 802.109 0.311109 -0.586606 0
M  V30 8441 H 804.639 0.361533 -2.0138 0
M  V30 8442 H 804.649 2.47771 -3.2415 0
M  V30 8443 H 803.324 1.51417 -3.87357 0
M  V30 8444 H 801.901 2.74831 -2.52037 0
M  V30 8445 N 804.086 1.46499 0.581025 0
M  V30 8446 C 805.316 1.55244 1.36319 0
M  V30 8447 C 805.724 0.193059 1.88212 0
M  V30 8448 O 805.067 -0.820109 1.64377 0
M  V30 8449 C 805.129 2.498 2.58535 0
M  V30 8450 C 804.793 3.96007 2.28096 0
M  V30 8451 C 805.79 4.85171 1.8683 0
M  V30 8452 C 803.475 4.41152 2.40189 0
M  V30 8453 C 805.469 6.17493 1.58053 0
M  V30 8454 C 803.156 5.73508 2.11024 0
M  V30 8455 C 804.154 6.615 1.70021 0
M  V30 8456 O 803.842 7.914 1.41215 0
M  V30 8457 H 803.574 0.527513 0.422736 0
M  V30 8458 H 806.128 1.92623 0.713139 0
M  V30 8459 H 804.358 2.07443 3.2635 0
M  V30 8460 H 806.047 2.48934 3.20604 0
M  V30 8461 H 806.813 4.51548 1.77001 0
M  V30 8462 H 802.692 3.72886 2.71066 0
M  V30 8463 H 806.236 6.86131 1.25974 0
M  V30 8464 H 802.133 6.06679 2.20478 0
M  V30 8465 H 802.901 8.03681 1.55046 0
M  V30 8466 N 805.565 -0.825799 1.34232 0
M  V30 8467 C 806.528 -1.91808 1.25468 0
M  V30 8468 C 807.528 -1.59893 0.170567 0
M  V30 8469 O 808.718 -1.68986 0.422996 0
M  V30 8470 C 805.85 -3.27786 0.93644 0
M  V30 8471 H 807.043 -2.01003 2.22571 0
M  V30 8472 H 804.596 -1.01944 1.18479 0
M  V30 8473 H 805.331 -3.24285 -0.0315408 0
M  V30 8474 H 805.116 -3.52333 1.72057 0
M  V30 8475 H 806.606 -4.07782 0.900214 0
M  V30 8476 N 807.043 -1.17915 -1.04565 0
M  V30 8477 C 808.29 -0.971424 -1.77678 0
M  V30 8478 C 808.618 0.499401 -1.87979 0
M  V30 8479 O 807.873 1.38695 -1.38066 0
M  V30 8480 C 808.172 -1.56528 -3.213 0
M  V30 8481 C 807.838 -3.06138 -3.31044 0
M  V30 8482 C 806.5 -3.46974 -3.33411 0
M  V30 8483 C 808.852 -4.02151 -3.31548 0
M  V30 8484 C 806.18 -4.82406 -3.33918 0
M  V30 8485 C 808.532 -5.37492 -3.33595 0
M  V30 8486 C 807.196 -5.77782 -3.34251 0
M  V30 8487 H 806.466 -0.355469 -0.650171 0
M  V30 8488 H 809.113 -1.46902 -1.22849 0
M  V30 8489 H 807.418 -0.98955 -3.79098 0
M  V30 8490 H 809.115 -1.38003 -3.76505 0
M  V30 8491 H 805.705 -2.73589 -3.29919 0
M  V30 8492 H 809.889 -3.71656 -3.28916 0
M  V30 8493 H 805.145 -5.12927 -3.3274 0
M  V30 8494 H 809.319 -6.1166 -3.32934 0
M  V30 8495 H 806.946 -6.82702 -3.34397 0
M  V30 8496 N 808.521 1.23394 -0.980386 0
M  V30 8497 C 809.469 2.26872 -0.513018 0
M  V30 8498 C 810.463 1.63853 0.429948 0
M  V30 8499 O 811.669 1.77417 0.303842 0
M  V30 8500 H 808.044 0.737398 -0.147473 0
M  V30 8501 H 810.015 2.63654 -1.39746 0
M  V30 8502 C 808.764 3.47289 0.168962 0
M  V30 8503 H 808.087 3.96033 -0.547546 0
M  V30 8504 H 809.527 4.21502 0.459616 0
M  V30 8505 C 807.986 3.06425 1.40019 0
M  V30 8506 O 808.516 3.14708 2.49643 0
M  V30 8507 N 806.722 2.61339 1.27084 0
M  V30 8508 H 806.269 2.54799 0.378872 0
M  V30 8509 H 806.227 2.34364 2.09573 0
M  V30 8510 N 809.999 0.752036 1.385 0
M  V30 8511 C 810.932 0.0717411 2.28087 0
M  V30 8512 C 811.91 -0.729945 1.45295 0
M  V30 8513 O 813.094 -0.708902 1.74662 0
M  V30 8514 C 810.221 -0.905237 3.26379 0
M  V30 8515 C 809.267 -0.189973 4.26077 0
M  V30 8516 S 810.1 1.10815 5.23909 0
M  V30 8517 C 811.256 0.134202 6.25756 0
M  V30 8518 H 811.489 0.831438 2.85437 0
M  V30 8519 H 809.022 0.544552 1.44478 0
M  V30 8520 H 810.98 -1.46358 3.83523 0
M  V30 8521 H 809.641 -1.63789 2.68015 0
M  V30 8522 H 808.834 -0.92985 4.95348 0
M  V30 8523 H 808.436 0.296804 3.7282 0
M  V30 8524 H 810.728 -0.700345 6.7387 0
M  V30 8525 H 811.671 0.794532 7.03628 0
M  V30 8526 H 812.079 -0.245801 5.63965 0
M  V30 8527 N 811.477 -1.49425 0.500989 0
M  V30 8528 C 812.424 -2.29126 -0.277443 0
M  V30 8529 C 813.394 -1.35522 -0.960363 0
M  V30 8530 O 814.579 -1.64479 -0.967027 0
M  V30 8531 C 811.719 -3.18193 -1.33593 0
M  V30 8532 C 810.832 -4.26854 -0.664791 0
M  V30 8533 C 809.967 -5.03137 -1.70372 0
M  V30 8534 C 809.006 -6.03635 -1.01445 0
M  V30 8535 N 808.143 -6.73083 -1.99758 0
M  V30 8536 H 812.983 -2.95187 0.408458 0
M  V30 8537 H 810.52 -1.45546 0.213275 0
M  V30 8538 H 812.478 -3.68207 -1.96161 0
M  V30 8539 H 811.108 -2.54116 -1.9906 0
M  V30 8540 H 810.16 -3.80328 0.0741708 0
M  V30 8541 H 811.472 -4.9865 -0.122197 0
M  V30 8542 H 810.626 -5.5702 -2.40445 0
M  V30 8543 H 809.365 -4.31114 -2.28017 0
M  V30 8544 H 808.37 -5.48984 -0.299496 0
M  V30 8545 H 809.595 -6.77644 -0.444497 0
M  V30 8546 H 807.541 -6.03832 -2.56365 0
M  V30 8547 H 807.458 -7.40855 -1.50565 0
M  V30 8548 H 808.726 -7.3157 -2.69119 0
M  V30 8549 N 812.955 -0.234822 -1.55841 0
M  V30 8550 C 813.918 0.656378 -2.196 0
M  V30 8551 C 814.918 1.11179 -1.16171 0
M  V30 8552 O 816.108 1.01845 -1.41326 0
M  V30 8553 C 813.24 1.90072 -2.82993 0
M  V30 8554 H 814.433 0.100281 -2.99732 0
M  V30 8555 H 811.986 0.0147613 -1.56293 0
M  V30 8556 H 812.721 2.49836 -2.06767 0
M  V30 8557 H 812.506 1.5825 -3.58747 0
M  V30 8558 H 813.996 2.53538 -3.31826 0
M  V30 8559 N 814.433 1.57553 0.0384317 0
M  V30 8560 C 815.661 1.93093 0.743141 0
M  V30 8561 C 816.076 0.833787 1.69391 0
M  V30 8562 O 815.433 -0.190532 1.81503 0
M  V30 8563 C 815.484 3.28533 1.50826 0
M  V30 8564 O 815.205 4.34032 0.595665 0
M  V30 8565 C 816.706 3.78297 2.31098 0
M  V30 8566 H 813.926 0.637486 0.20941 0
M  V30 8567 H 816.47 2.045 -0.00125154 0
M  V30 8568 H 814.625 3.18552 2.20462 0
M  V30 8569 H 815.039 5.12155 1.13124 0
M  V30 8570 H 816.513 4.75602 2.80191 0
M  V30 8571 H 816.99 3.09008 3.12107 0
M  V30 8572 H 817.596 3.91331 1.66555 0
M  V30 8573 N 815.911 -0.310526 1.54511 0
M  V30 8574 C 817.157 -1.04846 1.73595 0
M  V30 8575 C 817.49 -1.87244 0.515118 0
M  V30 8576 O 816.765 -1.88282 -0.48786 0
M  V30 8577 C 817.048 -1.96237 3.01932 0
M  V30 8578 C 816.901 -1.17082 4.34295 0
M  V30 8579 C 818.22 -2.9556 3.26086 0
M  V30 8580 H 815.339 -0.37976 0.631626 0
M  V30 8581 H 817.981 -0.32394 1.87218 0
M  V30 8582 H 816.131 -2.58015 2.90449 0
M  V30 8583 H 817.803 -0.576643 4.57682 0
M  V30 8584 H 816.046 -0.473336 4.3121 0
M  V30 8585 H 816.717 -1.84257 5.20339 0
M  V30 8586 H 819.193 -2.43908 3.37117 0
M  V30 8587 H 818.069 -3.5668 4.17218 0
M  V30 8588 H 818.33 -3.68715 2.4393 0
M  V30 8589 N 817.389 -1.46805 -0.573248 0
M  V30 8590 C 818.299 -1.60687 -1.70929 0
M  V30 8591 C 819.315 -0.490084 -1.66956 0
M  V30 8592 O 820.491 -0.755482 -1.86693 0
M  V30 8593 C 817.556 -1.60259 -3.07438 0
M  V30 8594 C 816.617 -2.83242 -3.22603 0
M  V30 8595 C 815.85 -2.82825 -4.52599 0
M  V30 8596 O 816.073 -1.92113 -5.37074 0
M  V30 8597 O 815.007 -3.74489 -4.71213 0
M  V30 8598 H 818.833 -2.56782 -1.62163 0
M  V30 8599 H 816.418 -1.29706 -0.741399 0
M  V30 8600 H 818.3 -1.6275 -3.88704 0
M  V30 8601 H 816.975 -0.673268 -3.16621 0
M  V30 8602 H 815.882 -2.86302 -2.40794 0
M  V30 8603 H 817.215 -3.75415 -3.18315 0
M  V30 8604 N 818.867 0.818669 -1.34668 0
M  V30 8605 C 820.144 1.56118 -1.17841 0
M  V30 8606 C 820.524 2.09646 0.24731 0
M  V30 8607 O 819.872 1.91329 1.24922 0
M  V30 8608 C 820.082 2.67922 -2.23649 0
M  V30 8609 C 821.43 3.36579 -2.58843 0
M  V30 8610 O 822.454 2.78182 -2.22471 0
M  V30 8611 O 821.313 4.42045 -3.21339 0
M  V30 8612 H 818.407 0.689216 -0.457067 0
M  V30 8613 H 820.953 0.859674 -1.46314 0
M  V30 8614 H 819.725 2.26153 -3.19328 0
M  V30 8615 H 819.348 3.45719 -1.96377 0
M  V30 8616 N 820.346 1.18468 1.03938 0
M  V30 8617 C 821.256 0.927889 2.1547 0
M  V30 8618 C 822.272 -0.108447 1.73662 0
M  V30 8619 O 823.448 0.0737636 2.01265 0
M  V30 8620 C 820.513 0.458494 3.43655 0
M  V30 8621 C 819.574 1.56295 3.99838 0
M  V30 8622 C 818.807 1.11586 5.21904 0
M  V30 8623 O 819.03 -0.0249057 5.70395 0
M  V30 8624 O 817.964 1.91412 5.70653 0
M  V30 8625 H 821.79 1.86116 2.39989 0
M  V30 8626 H 819.375 0.966607 1.13917 0
M  V30 8627 H 821.257 0.204861 4.20902 0
M  V30 8628 H 819.932 -0.446464 3.20606 0
M  V30 8629 H 818.839 1.87061 3.23974 0
M  V30 8630 H 820.172 2.44408 4.2723 0
M  V30 8631 N 821.824 -1.22873 0.986916 0
M  V30 8632 C 822.771 -2.2458 0.532215 0
M  V30 8633 C 823.741 -1.60375 -0.432322 0
M  V30 8634 O 824.926 -1.87775 -0.338416 0
M  V30 8635 C 822.066 -3.44761 -0.152864 0
M  V30 8636 C 821.179 -4.23501 0.852704 0
M  V30 8637 C 820.314 -5.31011 0.14176 0
M  V30 8638 C 819.353 -6.01464 1.1361 0
M  V30 8639 N 818.49 -7.00631 0.453871 0
M  V30 8640 H 823.33 -2.62838 1.40428 0
M  V30 8641 H 820.867 -1.29185 0.703543 0
M  V30 8642 H 822.825 -4.1333 -0.566926 0
M  V30 8643 H 821.455 -3.07284 -0.988756 0
M  V30 8644 H 820.507 -3.54286 1.38512 0
M  V30 8645 H 821.819 -4.72097 1.61014 0
M  V30 8646 H 820.973 -6.05805 -0.329337 0
M  V30 8647 H 819.712 -4.83373 -0.648229 0
M  V30 8648 H 818.717 -5.25456 1.61789 0
M  V30 8649 H 819.942 -6.5119 1.92686 0
M  V30 8650 H 817.888 -6.55235 -0.316791 0
M  V30 8651 H 817.805 -7.47204 1.14986 0
M  V30 8652 H 819.073 -7.795 0.00537823 0
M  V30 8653 N 823.302 -0.75937 -1.38099 0
M  V30 8654 C 824.232 -0.151077 -2.33011 0
M  V30 8655 C 825.213 0.697099 -1.5516 0
M  V30 8656 O 826.398 0.637101 -1.83452 0
M  V30 8657 C 823.528 0.738423 -3.39359 0
M  V30 8658 C 822.482 -0.0074741 -4.27999 0
M  V30 8659 C 821.808 1.00066 -5.25253 0
M  V30 8660 C 823.108 -1.17926 -5.08813 0
M  V30 8661 H 824.802 -0.943933 -2.84131 0
M  V30 8662 H 822.348 -0.455362 -1.36611 0
M  V30 8663 H 824.301 1.17369 -4.04725 0
M  V30 8664 H 823.025 1.56366 -2.86735 0
M  V30 8665 H 821.684 -0.423379 -3.64147 0
M  V30 8666 H 821.332 1.82012 -4.68914 0
M  V30 8667 H 821.032 0.506199 -5.85416 0
M  V30 8668 H 822.556 1.43512 -5.93495 0
M  V30 8669 H 823.97 -0.821262 -5.67387 0
M  V30 8670 H 822.367 -1.60497 -5.78239 0
M  V30 8671 H 823.437 -1.98938 -4.42212 0
M  V30 8672 N 824.78 1.49157 -0.508906 0
M  V30 8673 C 825.712 2.272 0.302115 0
M  V30 8674 C 826.725 1.3407 0.923529 0
M  V30 8675 O 827.914 1.5929 0.805532 0
M  V30 8676 C 825.014 3.06736 1.44105 0
M  V30 8677 C 824.187 4.27497 0.925477 0
M  V30 8678 C 823.246 4.89014 1.94297 0
M  V30 8679 O 822.272 5.48851 1.50834 0
M  V30 8680 N 823.474 4.7937 3.2739 0
M  V30 8681 H 826.239 2.97443 -0.367115 0
M  V30 8682 H 823.8 1.58248 -0.341933 0
M  V30 8683 H 825.792 3.44763 2.11944 0
M  V30 8684 H 824.362 2.3905 2.0143 0
M  V30 8685 H 823.582 3.94135 0.0717301 0
M  V30 8686 H 824.87 5.05714 0.55955 0
M  V30 8687 H 824.268 4.31869 3.65384 0
M  V30 8688 H 822.825 5.21559 3.90922 0
M  V30 8689 N 826.258 0.243083 1.55714 0
M  V30 8690 C 827.506 -0.381964 1.98458 0
M  V30 8691 C 827.827 -1.58745 1.13247 0
M  V30 8692 O 827.097 -1.94723 0.214384 0
M  V30 8693 H 825.677 -0.144114 0.732967 0
M  V30 8694 H 828.339 0.340985 1.91894 0
M  V30 8695 H 827.435 -0.693702 3.04293 0
M  V30 8696 N 827.736 -1.57571 -0.0300757 0
M  V30 8697 C 828.683 -2.06492 -1.03101 0
M  V30 8698 C 829.653 -0.953862 -1.3598 0
M  V30 8699 O 830.838 -1.22436 -1.46335 0
M  V30 8700 C 827.978 -2.54826 -2.32718 0
M  V30 8701 C 827.091 -3.79718 -2.06006 0
M  V30 8702 C 826.226 -4.16668 -3.29487 0
M  V30 8703 C 825.265 -5.3448 -2.98324 0
M  V30 8704 N 824.402 -5.66867 -4.14254 0
M  V30 8705 H 829.242 -2.91755 -0.606877 0
M  V30 8706 H 826.779 -1.44252 -0.288038 0
M  V30 8707 H 828.737 -2.80916 -3.08451 0
M  V30 8708 H 827.367 -1.72481 -2.72856 0
M  V30 8709 H 826.419 -3.60718 -1.20774 0
M  V30 8710 H 827.731 -4.65569 -1.79017 0
M  V30 8711 H 826.885 -4.43881 -4.13588 0
M  V30 8712 H 825.624 -3.29466 -3.59588 0
M  V30 8713 H 824.629 -5.07021 -2.12625 0
M  V30 8714 H 825.854 -6.23334 -2.69502 0
M  V30 8715 H 823.8 -4.82625 -4.44308 0
M  V30 8716 H 823.717 -6.47226 -3.90685 0
M  V30 8717 H 824.985 -5.98656 -4.99231 0
M  V30 8718 N 829.214 0.302327 -1.54673 0
M  V30 8719 C 830.463 1.03533 -1.73101 0
M  V30 8720 C 830.776 1.88473 -0.523174 0
M  V30 8721 O 831.982 2.65029 -0.589229 0
M  V30 8722 C 830.438 1.89043 -3.06252 0
M  V30 8723 C 830.046 1.09112 -4.3451 0
M  V30 8724 C 831.79 2.61951 -3.34039 0
M  V30 8725 C 829.697 1.93891 -5.58713 0
M  V30 8726 H 828.627 0.390261 -0.645145 0
M  V30 8727 H 831.278 0.2924 -1.81155 0
M  V30 8728 H 829.66 2.67319 -2.92159 0
M  V30 8729 H 830.834 0.354596 -4.59434 0
M  V30 8730 H 829.149 0.477923 -4.13648 0
M  V30 8731 H 831.746 3.25729 -4.24033 0
M  V30 8732 H 832.089 3.30711 -2.52855 0
M  V30 8733 H 832.622 1.90725 -3.49097 0
M  V30 8734 H 829.361 1.29604 -6.4256 0
M  V30 8735 H 828.881 2.6522 -5.37976 0
M  V30 8736 H 830.56 2.51971 -5.95919 0
M  V30 8737 N 830.692 1.47107 0.565454 0
M  V30 8738 C 831.64 1.59368 1.69424 0
M  V30 8739 C 832.634 0.461344 1.62997 0
M  V30 8740 O 833.84 0.638849 1.68282 0
M  V30 8741 H 830.215 0.501387 0.560459 0
M  V30 8742 H 832.186 2.54242 1.56217 0
M  V30 8743 C 830.935 1.61739 3.07792 0
M  V30 8744 H 830.258 2.48215 3.13416 0
M  V30 8745 H 831.698 1.7437 3.86486 0
M  V30 8746 C 830.157 0.349156 3.35086 0
M  V30 8747 O 830.687 -0.553287 3.97871 0
M  V30 8748 N 828.893 0.231723 2.89675 0
M  V30 8749 H 828.44 0.967021 2.3876 0
M  V30 8750 H 828.398 -0.615911 3.08308 0
M  V30 8751 N 832.17 -0.811516 1.35101 0
M  V30 8752 C 833.447 -1.55491 1.18667 0
M  V30 8753 C 833.827 -2.09775 -0.236189 0
M  V30 8754 O 833.175 -1.91989 -1.23905 0
M  V30 8755 C 833.385 -2.66732 2.25067 0
M  V30 8756 C 834.733 -3.35201 2.60625 0
M  V30 8757 O 835.757 -2.76998 2.23943 0
M  V30 8758 O 834.616 -4.40334 3.23679 0
M  V30 8759 H 831.71 -0.686783 0.460716 0
M  V30 8760 H 834.256 -0.851903 1.46768 0
M  V30 8761 H 833.028 -2.24457 3.20523 0
M  V30 8762 H 832.651 -3.44673 1.98208 0
M  V30 8763 N 833.648 -1.19017 -1.03309 0
M  V30 8764 C 834.558 -0.939303 -2.14975 0
M  V30 8765 C 835.574 0.0992359 -1.73717 0
M  V30 8766 O 836.75 -0.0844362 -2.01223 0
M  V30 8767 C 833.815 -0.476712 -3.43407 0
M  V30 8768 C 832.876 -1.58413 -3.99003 0
M  V30 8769 C 832.109 -1.14352 -5.21305 0
M  V30 8770 O 832.332 -0.00534408 -5.704 0
M  V30 8771 O 831.266 -1.94436 -5.6963 0
M  V30 8772 H 835.092 -1.87386 -2.38998 0
M  V30 8773 H 832.677 -0.972635 -1.13403 0
M  V30 8774 H 834.559 -0.22718 -4.20787 0
M  V30 8775 H 833.234 0.429455 -3.20839 0
M  V30 8776 H 832.141 -1.88777 -3.22977 0
M  V30 8777 H 833.474 -2.4667 -4.25928 0
M  V30 8778 N 835.127 1.22348 -0.993418 0
M  V30 8779 C 836.404 1.86632 -0.585495 0
M  V30 8780 C 836.784 1.89156 0.937187 0
M  V30 8781 O 836.132 1.38247 1.81934 0
M  V30 8782 C 836.342 3.27481 -1.20652 0
M  V30 8783 C 837.69 4.03971 -1.30738 0
M  V30 8784 O 838.714 3.3675 -1.16096 0
M  V30 8785 O 837.573 5.24302 -1.54173 0
M  V30 8786 H 834.667 0.802704 -0.198984 0
M  V30 8787 H 837.213 1.30122 -1.08933 0
M  V30 8788 H 835.985 3.20281 -2.24802 0
M  V30 8789 H 835.608 3.91597 -0.688312 0
M  V30 8790 N 836.605 0.766683 1.37694 0
M  V30 8791 C 837.552 0.147725 2.30327 0
M  V30 8792 C 838.522 -0.695366 1.50844 0
M  V30 8793 O 839.707 -0.64878 1.79431 0
M  V30 8794 C 836.847 -0.72935 3.37305 0
M  V30 8795 C 835.96 0.129795 4.31805 0
M  V30 8796 C 835.095 -0.751511 5.25857 0
M  V30 8797 C 834.134 0.110475 6.12 0
M  V30 8798 N 833.271 -0.728522 6.9831 0
M  V30 8799 H 838.111 0.943204 2.82679 0
M  V30 8800 H 835.648 0.476736 1.3916 0
M  V30 8801 H 837.606 -1.25263 3.97951 0
M  V30 8802 H 836.236 -1.49048 2.86329 0
M  V30 8803 H 835.288 0.770829 3.72508 0
M  V30 8804 H 836.6 0.794923 4.92425 0
M  V30 8805 H 835.754 -1.34146 5.91684 0
M  V30 8806 H 834.493 -1.45034 4.65636 0
M  V30 8807 H 833.498 0.712999 5.45157 0
M  V30 8808 H 834.723 0.806557 6.74293 0
M  V30 8809 H 832.669 -1.41206 6.40622 0
M  V30 8810 H 832.586 -0.12058 7.55904 0
M  V30 8811 H 833.854 -1.30303 7.68532 0
M  V30 8812 N 838.083 -1.48885 0.516809 0
M  V30 8813 C 839.015 -2.27357 -0.290061 0
M  V30 8814 C 840.028 -1.34558 -0.916406 0
M  V30 8815 O 841.217 -1.59715 -0.797073 0
M  V30 8816 C 838.317 -3.07496 -1.42476 0
M  V30 8817 C 837.49 -4.27982 -0.902793 0
M  V30 8818 C 836.549 -4.90038 -1.91701 0
M  V30 8819 O 835.575 -5.49643 -1.47922 0
M  V30 8820 N 836.777 -4.811 -3.24843 0
M  V30 8821 H 839.542 -2.97244 0.382884 0
M  V30 8822 H 837.103 -1.58064 0.35032 0
M  V30 8823 H 839.095 -3.45882 -2.10113 0
M  V30 8824 H 837.665 -2.40115 -2.00159 0
M  V30 8825 H 836.885 -3.94167 -0.0508272 0
M  V30 8826 H 838.173 -5.06003 -0.532723 0
M  V30 8827 H 837.571 -4.33801 -3.63088 0
M  V30 8828 H 836.128 -5.23625 -3.8815 0
M  V30 8829 N 839.561 -0.251338 -1.55583 0
M  V30 8830 C 840.508 0.646337 -2.21565 0
M  V30 8831 C 841.478 1.16796 -1.18102 0
M  V30 8832 O 842.663 1.22162 -1.46564 0
M  V30 8833 C 839.803 1.83557 -2.92234 0
M  V30 8834 C 838.916 1.35006 -4.10363 0
M  V30 8835 C 838.051 2.4992 -4.68736 0
M  V30 8836 C 837.09 1.98253 -5.79105 0
M  V30 8837 N 836.227 3.06551 -6.31642 0
M  V30 8838 H 841.067 0.0769881 -2.97901 0
M  V30 8839 H 838.604 0.026238 -1.47077 0
M  V30 8840 H 840.562 2.53425 -3.31408 0
M  V30 8841 H 839.192 2.37733 -2.18364 0
M  V30 8842 H 838.244 0.545274 -3.76472 0
M  V30 8843 H 839.556 0.931435 -4.90026 0
M  V30 8844 H 838.71 3.27823 -5.10507 0
M  V30 8845 H 837.449 2.95086 -3.88298 0
M  V30 8846 H 836.454 1.18822 -5.36807 0
M  V30 8847 H 837.679 1.54051 -6.61396 0
M  V30 8848 H 835.625 3.51143 -5.54107 0
M  V30 8849 H 835.542 2.69033 -7.06511 0
M  V30 8850 H 836.81 3.84499 -6.78071 0
M  V30 8851 N 841.039 1.57585 0.0217189 0
M  V30 8852 C 842.288 1.88786 0.710125 0
M  V30 8853 C 842.601 0.850819 1.76126 0
M  V30 8854 O 843.807 1.0523 2.50277 0
M  V30 8855 C 842.263 3.3505 1.31413 0
M  V30 8856 C 841.871 4.47001 0.298959 0
M  V30 8857 C 843.615 3.7539 1.98199 0
M  V30 8858 C 841.522 5.8433 0.911727 0
M  V30 8859 H 840.452 0.704388 0.268986 0
M  V30 8860 H 843.103 1.83466 -0.0352638 0
M  V30 8861 H 841.485 3.35138 2.10947 0
M  V30 8862 H 842.659 4.58395 -0.470203 0
M  V30 8863 H 840.974 4.15542 -0.267222 0
M  V30 8864 H 843.571 4.75314 2.4491 0
M  V30 8865 H 843.914 3.07766 2.80331 0
M  V30 8866 H 844.447 3.77508 1.2543 0
M  V30 8867 H 841.186 6.55372 0.129659 0
M  V30 8868 H 840.706 5.76643 1.65056 0
M  V30 8869 H 842.385 6.31295 1.41688 0
M  V30 8870 N 842.517 -0.29412 1.54831 0
M  V30 8871 C 843.447 -1.36757 1.89261 0
M  V30 8872 C 844.428 -1.52564 0.752214 0
M  V30 8873 O 845.613 -1.65958 1.00855 0
M  V30 8874 C 842.743 -2.73066 2.14597 0
M  V30 8875 C 841.697 -2.72017 3.3044 0
M  V30 8876 C 841.023 -4.11679 3.4121 0
M  V30 8877 C 842.323 -2.33149 4.67375 0
M  V30 8878 H 844.017 -1.08191 2.79169 0
M  V30 8879 H 841.563 -0.519014 1.34321 0
M  V30 8880 H 843.516 -3.48255 2.37269 0
M  V30 8881 H 842.24 -3.03172 1.21467 0
M  V30 8882 H 840.899 -1.99285 3.07703 0
M  V30 8883 H 840.547 -4.38973 2.45584 0
M  V30 8884 H 840.247 -4.11877 4.19084 0
M  V30 8885 H 841.771 -4.88637 3.6615 0
M  V30 8886 H 843.185 -2.98054 4.89731 0
M  V30 8887 H 841.582 -2.44546 5.48012 0
M  V30 8888 H 842.652 -1.28275 4.67626 0
M  V30 8889 N 843.995 -1.47404 -0.557645 0
M  V30 8890 C 845.272 -1.44488 -1.31843 0
M  V30 8891 C 845.652 -0.1416 -2.10625 0
M  V30 8892 O 845 0.876908 -2.11004 0
M  V30 8893 C 845.21 -2.69016 -2.22331 0
M  V30 8894 C 846.558 -3.16212 -2.83364 0
M  V30 8895 O 847.582 -2.69741 -2.32634 0
M  V30 8896 O 846.441 -3.96999 -3.75571 0
M  V30 8897 H 843.535 -0.57578 -0.593639 0
M  V30 8898 H 846.081 -1.59605 -0.576584 0
M  V30 8899 H 844.853 -3.55406 -1.63715 0
M  V30 8900 H 844.476 -2.56484 -3.03812 0
M  V30 8901 N 845.473 0.80434 -1.35529 0
M  V30 8902 C 846.42 1.91629 -1.28635 0
M  V30 8903 C 847.39 1.65348 -0.157862 0
M  V30 8904 O 848.575 1.87711 -0.341934 0
M  V30 8905 C 845.715 3.28207 -1.0665 0
M  V30 8906 C 844.828 3.66659 -2.28441 0
M  V30 8907 C 843.963 4.92279 -1.99588 0
M  V30 8908 C 843.002 5.23365 -3.1742 0
M  V30 8909 N 842.139 6.40165 -2.88328 0
M  V30 8910 H 846.979 1.96858 -2.23721 0
M  V30 8911 H 844.516 0.962871 -1.11208 0
M  V30 8912 H 846.474 4.06945 -0.919343 0
M  V30 8913 H 845.104 3.22441 -0.152253 0
M  V30 8914 H 844.156 2.83164 -2.54013 0
M  V30 8915 H 845.468 3.8559 -3.1642 0
M  V30 8916 H 844.622 5.78847 -1.81715 0
M  V30 8917 H 843.361 4.75387 -1.08896 0
M  V30 8918 H 842.366 4.35285 -3.35867 0
M  V30 8919 H 843.591 5.42185 -4.08916 0
M  V30 8920 H 841.537 6.24694 -2.00233 0
M  V30 8921 H 841.454 6.59357 -3.69843 0
M  V30 8922 H 842.722 7.29755 -2.74002 0
M  V30 8923 N 846.951 1.19563 1.02676 0
M  V30 8924 C 848.191 1.01072 1.77662 0
M  V30 8925 C 848.555 -0.450344 1.86644 0
M  V30 8926 O 849.756 -0.755132 2.57975 0
M  V30 8927 C 848.027 1.66383 3.16309 0
M  V30 8928 S 849.586 1.62858 4.07459 0
M  V30 8929 H 846.404 0.362644 0.611564 0
M  V30 8930 H 849.006 1.51947 1.23014 0
M  V30 8931 H 847.71 2.71917 3.07391 0
M  V30 8932 H 847.241 1.15596 3.76033 0
M  V30 8933 H 849.256 0.654265 4.91868 0
M  V30 8934 N 848.429 -1.21819 0.999893 0
M  V30 8935 C 849.377 -2.26027 0.549047 0
M  V30 8936 C 850.371 -1.64516 -0.403826 0
M  V30 8937 O 851.577 -1.77878 -0.275578 0
M  V30 8938 H 847.952 -0.734958 0.159185 0
M  V30 8939 H 849.923 -2.61398 1.43923 0
M  V30 8940 C 848.672 -3.47514 -0.11369 0
M  V30 8941 H 847.995 -3.95112 0.610482 0
M  V30 8942 H 849.435 -4.22179 -0.3925 0
M  V30 8943 C 847.894 -3.08614 -1.35126 0
M  V30 8944 O 848.424 -3.1864 -2.44605 0
M  V30 8945 N 846.63 -2.63327 -1.22911 0
M  V30 8946 H 846.177 -2.55369 -0.338288 0
M  V30 8947 H 846.135 -2.37668 -2.05818 0
M  V30 8948 N 849.908 -0.773975 -1.37286 0
M  V30 8949 C 850.818 -0.162571 -2.34036 0
M  V30 8950 C 851.834 0.677022 -1.60289 0
M  V30 8951 O 853.01 0.596423 -1.92366 0
M  V30 8952 C 850.075 0.70457 -3.39465 0
M  V30 8953 C 849.136 -0.151738 -4.29032 0
M  V30 8954 C 848.369 0.674111 -5.29426 0
M  V30 8955 O 848.592 1.91107 -5.37433 0
M  V30 8956 O 847.526 0.0821398 -6.01844 0
M  V30 8957 H 851.352 -0.962119 -2.88057 0
M  V30 8958 H 848.937 -0.53517 -1.39486 0
M  V30 8959 H 850.819 1.19954 -4.03967 0
M  V30 8960 H 849.494 1.48227 -2.87768 0
M  V30 8961 H 848.401 -0.693118 -3.67623 0
M  V30 8962 H 849.734 -0.892575 -4.84039 0
M  V30 8963 N 851.386 1.48609 -0.524698 0
M  V30 8964 C 852.635 2.01696 0.0132937 0
M  V30 8965 C 852.948 1.40751 1.35825 0
M  V30 8966 O 854.154 1.85304 1.9843 0
M  V30 8967 C 852.61 3.59824 0.0741012 0
M  V30 8968 C 852.218 4.2975 -1.26564 0
M  V30 8969 C 853.962 4.20774 0.5612 0
M  V30 8970 C 851.869 5.79798 -1.16571 0
M  V30 8971 H 850.799 0.753949 0.00873931 0
M  V30 8972 H 853.45 1.70922 -0.667684 0
M  V30 8973 H 851.832 3.87416 0.820043 0
M  V30 8974 H 853.006 4.13836 -2.02674 0
M  V30 8975 H 851.321 3.80649 -1.68806 0
M  V30 8976 H 853.918 5.30687 0.653853 0
M  V30 8977 H 854.261 3.85734 1.56573 0
M  V30 8978 H 854.794 3.97591 -0.128901 0
M  V30 8979 H 851.533 6.19403 -2.14523 0
M  V30 8980 H 851.053 5.9814 -0.445894 0
M  V30 8981 H 852.732 6.41337 -0.854186 0
M  V30 8982 N 852.864 0.259585 1.55447 0
M  V30 8983 C 854.113 -0.362163 1.98422 0
M  V30 8984 C 854.426 -1.58135 1.1512 0
M  V30 8985 O 855.632 -2.27506 1.48166 0
M  V30 8986 C 854.088 -0.695722 3.53111 0
M  V30 8987 C 853.696 0.502784 4.4517 0
M  V30 8988 C 855.44 -1.28096 4.04712 0
M  V30 8989 C 853.347 0.144674 5.91223 0
M  V30 8990 H 852.277 -0.139092 0.74106 0
M  V30 8991 H 854.928 0.361798 1.79898 0
M  V30 8992 H 853.31 -1.47816 3.67378 0
M  V30 8993 H 854.484 1.27994 4.42667 0
M  V30 8994 H 852.799 1.0038 4.0412 0
M  V30 8995 H 855.396 -1.56243 5.11363 0
M  V30 8996 H 855.739 -2.20969 3.52815 0
M  V30 8997 H 856.272 -0.561146 3.93822 0
M  V30 8998 H 853.011 1.04087 6.47183 0
M  V30 8999 H 852.531 -0.596023 5.96831 0
M  V30 9000 H 854.21 -0.268651 6.46442 0
M  V30 9001 N 854.342 -1.57594 -0.0133615 0
M  V30 9002 C 855.29 -2.08682 -1.02736 0
M  V30 9003 C 856.284 -1.00391 -1.36448 0
M  V30 9004 O 857.49 -1.18868 -1.35168 0
M  V30 9005 H 853.865 -0.666158 -0.34891 0
M  V30 9006 H 855.836 -2.9289 -0.570815 0
M  V30 9007 C 854.585 -2.5945 -2.31476 0
M  V30 9008 H 853.908 -3.42401 -2.06401 0
M  V30 9009 H 855.348 -2.98888 -3.00735 0
M  V30 9010 C 853.807 -1.50266 -3.01533 0
M  V30 9011 O 854.337 -0.877875 -3.9199 0
M  V30 9012 N 852.543 -1.23336 -2.63129 0
M  V30 9013 H 852.09 -1.74327 -1.89652 0
M  V30 9014 H 852.048 -0.504987 -3.10318 0
M  V30 9015 N 855.82 0.285905 -1.54985 0
M  V30 9016 C 857.066 1.01669 -1.76168 0
M  V30 9017 C 857.421 1.84401 -0.549019 0
M  V30 9018 O 856.714 1.86034 0.458463 0
M  V30 9019 C 856.908 1.94193 -3.0004 0
M  V30 9020 C 856.737 1.20565 -4.33237 0
M  V30 9021 C 855.507 0.92661 -4.96731 0
M  V30 9022 C 857.705 0.602514 -5.10759 0
M  V30 9023 N 855.687 0.162185 -6.13686 0
M  V30 9024 C 857.058 -0.0283843 -6.19994 0
M  V30 9025 C 859.113 0.509067 -4.95291 0
M  V30 9026 C 857.816 -0.743706 -7.15445 0
M  V30 9027 C 859.842 -0.192633 -5.91086 0
M  V30 9028 C 859.204 -0.812321 -6.997 0
M  V30 9029 H 855.303 0.354451 -0.697057 0
M  V30 9030 H 857.887 0.293693 -1.92472 0
M  V30 9031 H 856.058 2.6373 -2.85133 0
M  V30 9032 H 857.79 2.60536 -3.09682 0
M  V30 9033 H 854.545 1.22861 -4.57386 0
M  V30 9034 H 854.969 -0.206982 -6.76684 0
M  V30 9035 H 859.611 0.973856 -4.11432 0
M  V30 9036 H 857.329 -1.22022 -7.98834 0
M  V30 9037 H 860.915 -0.265082 -5.81196 0
M  V30 9038 H 859.795 -1.34665 -7.72551 0
M  V30 9039 N 857.298 1.47698 0.54982 0
M  V30 9040 C 858.228 1.63622 1.66583 0
M  V30 9041 C 859.209 0.485477 1.63025 0
M  V30 9042 O 860.394 0.715692 1.80531 0
M  V30 9043 C 857.524 1.65721 3.05211 0
M  V30 9044 C 856.478 2.80097 3.2362 0
M  V30 9045 C 855.804 2.67272 4.63109 0
M  V30 9046 C 857.104 4.21612 3.08286 0
M  V30 9047 H 858.798 2.57049 1.53512 0
M  V30 9048 H 856.344 1.23705 0.737099 0
M  V30 9049 H 858.297 1.75451 3.83138 0
M  V30 9050 H 857.021 0.688593 3.19258 0
M  V30 9051 H 855.68 2.69889 2.48104 0
M  V30 9052 H 855.328 1.68422 4.73965 0
M  V30 9053 H 855.028 3.44008 4.76374 0
M  V30 9054 H 856.552 2.78942 5.43161 0
M  V30 9055 H 857.966 4.32758 3.76024 0
M  V30 9056 H 856.363 4.99193 3.33057 0
M  V30 9057 H 857.433 4.39462 2.04942 0
M  V30 9058 N 858.776 -0.797141 1.35954 0
M  V30 9059 C 860.053 -1.54224 1.2031 0
M  V30 9060 C 860.433 -2.10013 -0.213926 0
M  V30 9061 O 859.781 -1.93292 -1.21862 0
M  V30 9062 C 859.991 -2.6433 2.27883 0
M  V30 9063 C 861.339 -3.32418 2.64165 0
M  V30 9064 O 862.363 -2.74607 2.26868 0
M  V30 9065 O 861.222 -4.36876 3.28331 0
M  V30 9066 H 858.316 -0.681857 0.467974 0
M  V30 9067 H 860.862 -0.836288 1.47663 0
M  V30 9068 H 859.634 -2.21044 3.22885 0
M  V30 9069 H 859.257 -3.42551 2.01853 0
M  V30 9070 N 860.254 -1.20106 -1.0204 0
M  V30 9071 C 861.201 -0.946468 -2.10501 0
M  V30 9072 C 862.171 0.121902 -1.65652 0
M  V30 9073 O 863.356 -0.0220244 -1.90787 0
M  V30 9074 C 860.496 -0.500499 -3.41451 0
M  V30 9075 C 859.609 -1.63659 -3.998 0
M  V30 9076 C 858.744 -1.14131 -5.18794 0
M  V30 9077 C 857.783 -2.25074 -5.69217 0
M  V30 9078 N 856.92 -1.76791 -6.79477 0
M  V30 9079 H 861.76 -1.87506 -2.31615 0
M  V30 9080 H 859.297 -0.934693 -1.13587 0
M  V30 9081 H 861.255 -0.223276 -4.16602 0
M  V30 9082 H 859.885 0.391099 -3.20422 0
M  V30 9083 H 858.937 -2.02882 -3.21781 0
M  V30 9084 H 860.249 -2.47213 -4.33229 0
M  V30 9085 H 859.403 -0.819826 -6.01135 0
M  V30 9086 H 858.142 -0.275615 -4.86921 0
M  V30 9087 H 857.147 -2.58043 -4.85483 0
M  V30 9088 H 858.372 -3.12114 -6.03127 0
M  V30 9089 H 856.318 -0.925428 -6.4944 0
M  V30 9090 H 856.235 -2.53928 -7.12079 0
M  V30 9091 H 857.503 -1.47631 -7.65392 0
M  V30 9092 N 861.732 1.21287 -1.00634 0
M  V30 9093 C 862.68 2.25733 -0.561026 0
M  V30 9094 C 863.674 1.64728 0.395095 0
M  V30 9095 O 864.88 1.78022 0.266141 0
M  V30 9096 H 861.255 0.734104 -0.163081 0
M  V30 9097 H 863.226 2.60631 -1.45307 0
M  V30 9098 C 861.975 3.47569 0.0952587 0
M  V30 9099 H 861.298 3.94782 -0.631427 0
M  V30 9100 H 862.738 4.22382 0.370105 0
M  V30 9101 C 861.197 3.09326 1.33488 0
M  V30 9102 O 861.727 3.19933 2.42912 0
M  V30 9103 N 859.933 2.63976 1.21512 0
M  V30 9104 H 859.48 2.55545 0.324741 0
M  V30 9105 H 859.438 2.38757 2.04555 0
M  V30 9106 N 863.21 0.781244 1.36873 0
M  V30 9107 C 864.142 0.132075 2.28819 0
M  V30 9108 C 865.155 -0.653925 1.49089 0
M  V30 9109 O 866.344 -0.490453 1.7163 0
M  V30 9110 C 863.444 -0.836297 3.28419 0
M  V30 9111 C 862.617 -0.102097 4.37281 0
M  V30 9112 C 861.676 -0.985217 5.16894 0
M  V30 9113 O 860.702 -0.445478 5.67454 0
M  V30 9114 N 861.904 -2.31043 5.3254 0
M  V30 9115 H 864.669 0.921838 2.85171 0
M  V30 9116 H 862.23 0.634427 1.48952 0
M  V30 9117 H 864.222 -1.43074 3.78566 0
M  V30 9118 H 862.792 -1.52698 2.72767 0
M  V30 9119 H 862.012 0.67335 3.88407 0
M  V30 9120 H 863.3 0.404862 5.07187 0
M  V30 9121 H 862.698 -2.77318 4.93063 0
M  V30 9122 H 861.255 -2.85472 5.8596 0
M  V30 9123 N 864.689 -1.48329 0.532571 0
M  V30 9124 C 865.917 -2.069 0.00354299 0
M  V30 9125 C 866.332 -1.38876 -1.27902 0
M  V30 9126 O 865.689 -0.477119 -1.76153 0
M  V30 9127 C 865.74 -3.60821 -0.221416 0
M  V30 9128 O 865.461 -4.26291 1.01034 0
M  V30 9129 C 866.962 -4.36194 -0.790531 0
M  V30 9130 H 864.182 -0.670103 0.0346836 0
M  V30 9131 H 866.726 -1.90682 0.738955 0
M  V30 9132 H 864.881 -3.76636 -0.906884 0
M  V30 9133 H 865.295 -5.18475 0.792683 0
M  V30 9134 H 866.769 -5.44657 -0.897347 0
M  V30 9135 H 867.246 -4.00798 -1.79605 0
M  V30 9136 H 867.852 -4.25064 -0.141546 0
M  V30 9137 N 866.167 -0.267825 -1.55308 0
M  V30 9138 C 867.13 0.60965 -2.20943 0
M  V30 9139 C 868.13 1.0869 -1.18504 0
M  V30 9140 O 869.32 0.988248 -1.43455 0
M  V30 9141 C 866.452 1.84027 -2.86961 0
M  V30 9142 H 867.645 0.0366806 -2.99878 0
M  V30 9143 H 865.198 -0.0183941 -1.56289 0
M  V30 9144 H 865.933 2.45394 -2.1202 0
M  V30 9145 H 865.718 1.50605 -3.62023 0
M  V30 9146 H 867.208 2.46442 -3.37129 0
M  V30 9147 N 867.645 1.57599 0.00500368 0
M  V30 9148 C 868.555 2.11532 1.01446 0
M  V30 9149 C 869.571 1.05941 1.3803 0
M  V30 9150 O 870.747 1.37815 1.46864 0
M  V30 9151 C 867.812 2.60382 2.28915 0
M  V30 9152 C 866.873 3.80554 1.98689 0
M  V30 9153 C 866.106 4.27064 3.20081 0
M  V30 9154 O 866.329 3.72939 4.31593 0
M  V30 9155 O 865.263 5.1927 3.04371 0
M  V30 9156 H 869.089 2.97993 0.586011 0
M  V30 9157 H 866.674 1.47718 0.223519 0
M  V30 9158 H 868.556 2.92024 3.03809 0
M  V30 9159 H 867.231 1.77022 2.71007 0
M  V30 9160 H 866.138 3.53893 1.21286 0
M  V30 9161 H 867.471 4.64972 1.61437 0
M  V30 9162 N 869.123 -0.277682 1.55134 0
M  V30 9163 C 870.07 -1.34313 1.87693 0
M  V30 9164 C 871.04 -1.49298 0.727973 0
M  V30 9165 O 872.225 -1.6378 0.978807 0
M  V30 9166 C 869.365 -2.69922 2.15026 0
M  V30 9167 C 868.478 -2.63197 3.42565 0
M  V30 9168 C 867.613 -3.90955 3.59622 0
M  V30 9169 C 866.652 -3.78722 4.8087 0
M  V30 9170 N 865.789 -4.98303 4.94609 0
M  V30 9171 H 870.629 -1.05847 2.78569 0
M  V30 9172 H 868.166 -0.511469 1.37922 0
M  V30 9173 H 870.124 -3.48817 2.28872 0
M  V30 9174 H 868.754 -2.966 1.2739 0
M  V30 9175 H 867.806 -1.76038 3.37216 0
M  V30 9176 H 869.118 -2.50056 4.31594 0
M  V30 9177 H 868.272 -4.78291 3.7326 0
M  V30 9178 H 867.011 -4.06957 2.6877 0
M  V30 9179 H 866.016 -2.89769 4.67241 0
M  V30 9180 H 867.241 -3.64242 5.73153 0
M  V30 9181 H 865.187 -5.14725 4.06687 0
M  V30 9182 H 865.104 -4.87675 5.77676 0
M  V30 9183 H 866.372 -5.87225 5.12628 0
M  V30 9184 N 870.601 -1.47988 -0.541979 0
M  V30 9185 C 871.511 -1.64276 -1.67483 0
M  V30 9186 C 872.527 -0.525387 -1.65879 0
M  V30 9187 O 873.703 -0.794912 -1.85049 0
M  V30 9188 C 870.768 -1.66744 -3.03969 0
M  V30 9189 C 869.829 -2.90021 -3.16522 0
M  V30 9190 C 869.062 -2.92362 -4.46498 0
M  V30 9191 O 869.285 -2.03462 -5.32878 0
M  V30 9192 O 868.219 -3.84399 -4.63164 0
M  V30 9193 H 872.045 -2.60164 -1.5668 0
M  V30 9194 H 869.63 -1.31249 -0.71372 0
M  V30 9195 H 871.512 -1.70958 -3.85164 0
M  V30 9196 H 870.187 -0.740277 -3.15122 0
M  V30 9197 H 869.094 -2.91345 -2.34667 0
M  V30 9198 H 870.427 -3.82082 -3.10281 0
M  V30 9199 N 872.079 0.78992 -1.36375 0
M  V30 9200 C 872.989 1.93386 -1.32812 0
M  V30 9201 C 874.005 1.72468 -0.230377 0
M  V30 9202 O 875.181 1.96014 -0.462657 0
M  V30 9203 C 872.246 3.2824 -1.11621 0
M  V30 9204 C 871.307 3.61939 -2.30865 0
M  V30 9205 C 870.54 4.90359 -2.10675 0
M  V30 9206 O 870.763 5.6005 -1.08168 0
M  V30 9207 O 869.697 5.22702 -2.9844 0
M  V30 9208 H 873.523 1.99342 -2.29121 0
M  V30 9209 H 871.108 0.9301 -1.16917 0
M  V30 9210 H 872.99 4.08939 -1.01719 0
M  V30 9211 H 871.665 3.23178 -0.183732 0
M  V30 9212 H 870.572 2.81549 -2.46335 0
M  V30 9213 H 871.905 3.71725 -3.22617 0
M  V30 9214 N 873.557 1.20646 1.01402 0
M  V30 9215 C 874.804 1.01819 1.7504 0
M  V30 9216 C 875.132 -0.449386 1.89237 0
M  V30 9217 O 874.387 -1.34985 1.41695 0
M  V30 9218 C 874.686 1.64991 3.17037 0
M  V30 9219 C 874.352 3.14808 3.22811 0
M  V30 9220 C 873.014 3.55692 3.24094 0
M  V30 9221 C 875.366 4.108 3.2077 0
M  V30 9222 C 872.694 4.9109 3.2101 0
M  V30 9223 C 875.046 5.46147 3.19227 0
M  V30 9224 C 873.71 5.86441 3.18815 0
M  V30 9225 H 872.98 0.372582 0.640518 0
M  V30 9226 H 875.627 1.50108 1.18911 0
M  V30 9227 H 873.932 1.08971 3.76341 0
M  V30 9228 H 875.629 1.47937 3.72714 0
M  V30 9229 H 872.219 2.8224 3.2255 0
M  V30 9230 H 876.403 3.80246 3.18946 0
M  V30 9231 H 871.659 5.21569 3.19023 0
M  V30 9232 H 875.833 6.20272 3.166 0
M  V30 9233 H 873.46 6.91328 3.16179 0
M  V30 9234 N 875.035 -1.20752 1.01276 0
M  V30 9235 C 875.945 -2.27079 0.589277 0
M  V30 9236 C 876.961 -1.6999 -0.371389 0
M  V30 9237 O 878.137 -2.00044 -0.233294 0
M  V30 9238 C 875.202 -3.4663 -0.0696715 0
M  V30 9239 C 874.263 -4.18962 0.936454 0
M  V30 9240 C 873.496 -5.32806 0.308856 0
M  V30 9241 O 873.719 -5.63376 -0.8924 0
M  V30 9242 O 872.653 -5.93131 1.02367 0
M  V30 9243 H 876.479 -2.6551 1.47438 0
M  V30 9244 H 874.064 -1.27297 0.782045 0
M  V30 9245 H 875.946 -4.19119 -0.437873 0
M  V30 9246 H 874.621 -3.10082 -0.929029 0
M  V30 9247 H 873.528 -3.48661 1.35595 0
M  V30 9248 H 874.861 -4.59441 1.76565 0
M  V30 9249 N 876.513 -0.788492 -1.36457 0
M  V30 9250 C 877.463 -0.159377 -2.27442 0
M  V30 9251 C 878.447 0.656146 -1.46913 0
M  V30 9252 O 879.639 0.516372 -1.693 0
M  V30 9253 C 876.768 0.705703 -3.35968 0
M  V30 9254 C 875.854 -0.11856 -4.23934 0
M  V30 9255 N 876.245 -1.1726 -4.9202 0
M  V30 9256 C 874.543 0.102752 -4.45882 0
M  V30 9257 C 875.244 -1.6743 -5.57083 0
M  V30 9258 N 874.22 -0.983682 -5.34626 0
M  V30 9259 H 878.022 -0.96614 -2.77566 0
M  V30 9260 H 875.536 -0.627864 -1.49772 0
M  V30 9261 H 877.533 1.17231 -4.00078 0
M  V30 9262 H 876.193 1.51102 -2.87399 0
M  V30 9263 H 877.204 -1.55502 -4.94004 0
M  V30 9264 H 873.881 0.878651 -4.08149 0
M  V30 9265 H 875.271 -2.55423 -6.21457 0
M  V30 9266 N 877.991 1.48044 -0.54043 0
M  V30 9267 C 878.923 2.2779 0.253854 0
M  V30 9268 C 879.936 1.35999 0.894883 0
M  V30 9269 O 881.125 1.60963 0.771563 0
M  V30 9270 C 878.225 3.09724 1.37566 0
M  V30 9271 C 877.398 4.29364 0.83459 0
M  V30 9272 C 876.457 4.93026 1.83881 0
M  V30 9273 O 875.483 5.51927 1.39159 0
M  V30 9274 N 876.685 4.86207 3.17149 0
M  V30 9275 H 879.45 2.96597 -0.430125 0
M  V30 9276 H 877.011 1.57487 -0.375423 0
M  V30 9277 H 879.003 3.49181 2.04584 0
M  V30 9278 H 877.573 2.43269 1.96314 0
M  V30 9279 H 876.793 3.94198 -0.0118878 0
M  V30 9280 H 878.081 5.06787 0.452155 0
M  V30 9281 H 877.479 4.39523 3.56141 0
M  V30 9282 H 876.036 5.29733 3.79771 0
M  V30 9283 N 879.47 0.276058 1.55163 0
M  V30 9284 C 880.402 -0.644254 2.19959 0
M  V30 9285 C 881.415 -1.11675 1.18459 0
M  V30 9286 O 882.604 -1.0385 1.45181 0
M  V30 9287 C 879.704 -1.89093 2.81242 0
M  V30 9288 C 878.877 -1.56509 4.08441 0
M  V30 9289 C 877.936 -2.66433 4.53762 0
M  V30 9290 O 876.962 -2.32579 5.19515 0
M  V30 9291 N 878.164 -3.96509 4.23982 0
M  V30 9292 H 880.929 -0.0896808 2.99566 0
M  V30 9293 H 878.49 0.0971981 1.61608 0
M  V30 9294 H 880.482 -2.61929 3.08505 0
M  V30 9295 H 879.052 -2.35453 2.05622 0
M  V30 9296 H 878.272 -0.670522 3.88455 0
M  V30 9297 H 879.56 -1.32242 4.91314 0
M  V30 9298 H 878.958 -4.26834 3.71254 0
M  V30 9299 H 877.515 -4.6572 4.56014 0
M  V30 9300 N 880.948 -1.576 0.00335426 0
M  V30 9301 C 881.895 -2.08632 -0.986975 0
M  V30 9302 C 882.865 -0.982491 -1.33927 0
M  V30 9303 O 884.05 -1.25513 -1.43705 0
M  V30 9304 C 881.19 -2.59705 -2.27261 0
M  V30 9305 C 880.303 -3.84002 -1.97905 0
M  V30 9306 C 879.438 -4.23563 -3.20574 0
M  V30 9307 C 878.477 -5.40688 -2.8692 0
M  V30 9308 N 877.614 -5.75526 -4.02136 0
M  V30 9309 H 882.454 -2.92977 -0.544855 0
M  V30 9310 H 879.991 -1.44831 -0.257376 0
M  V30 9311 H 881.949 -2.87395 -3.02423 0
M  V30 9312 H 880.579 -1.7823 -2.69136 0
M  V30 9313 H 879.631 -3.63199 -1.13096 0
M  V30 9314 H 880.943 -4.69261 -1.69102 0
M  V30 9315 H 880.097 -4.52554 -4.04079 0
M  V30 9316 H 878.836 -3.37019 -3.52518 0
M  V30 9317 H 877.841 -5.11417 -2.01822 0
M  V30 9318 H 879.066 -6.2891 -2.5622 0
M  V30 9319 H 877.012 -4.9194 -4.33971 0
M  V30 9320 H 876.929 -6.55367 -3.76869 0
M  V30 9321 H 878.197 -6.0911 -4.8642 0
M  V30 9322 N 882.426 0.269451 -1.5528 0
M  V30 9323 C 883.336 1.35511 -1.91505 0
M  V30 9324 C 884.352 1.53854 -0.812712 0
M  V30 9325 O 885.528 1.67912 -1.1121 0
M  V30 9326 C 882.593 2.6937 -2.18267 0
M  V30 9327 C 881.654 2.59743 -3.41807 0
M  V30 9328 C 880.887 3.87219 -3.67283 0
M  V30 9329 O 881.11 4.88066 -2.95208 0
M  V30 9330 O 880.044 3.87209 -4.60818 0
M  V30 9331 H 883.87 1.07785 -2.8393 0
M  V30 9332 H 881.455 0.468282 -1.41871 0
M  V30 9333 H 883.337 3.48513 -2.36889 0
M  V30 9334 H 882.012 2.96874 -1.29024 0
M  V30 9335 H 880.919 1.78964 -3.28516 0
M  V30 9336 H 882.252 2.37188 -4.3128 0
M  V30 9337 N 883.904 1.48273 0.534124 0
M  V30 9338 C 884.834 1.6538 1.64839 0
M  V30 9339 C 885.815 0.502741 1.62501 0
M  V30 9340 O 887 0.734799 1.79762 0
M  V30 9341 C 884.13 1.68949 3.03436 0
M  V30 9342 C 883.084 2.83513 3.20631 0
M  V30 9343 C 882.41 2.72169 4.60248 0
M  V30 9344 C 883.71 4.24858 3.03797 0
M  V30 9345 H 885.404 2.58663 1.50777 0
M  V30 9346 H 882.95 1.24479 0.723937 0
M  V30 9347 H 884.903 1.79505 3.81256 0
M  V30 9348 H 883.627 0.722415 3.1851 0
M  V30 9349 H 882.286 2.72505 2.45227 0
M  V30 9350 H 881.934 1.7344 4.72152 0
M  V30 9351 H 881.634 3.49042 4.72698 0
M  V30 9352 H 883.158 2.84687 5.40172 0
M  V30 9353 H 884.572 4.36721 3.71413 0
M  V30 9354 H 882.969 5.02697 3.27743 0
M  V30 9355 H 884.039 4.41611 2.0027 0
M  V30 9356 N 885.382 -0.782676 1.36792 0
M  V30 9357 C 886.292 -1.92679 1.33835 0
M  V30 9358 C 887.308 -1.72344 0.23952 0
M  V30 9359 O 888.484 -1.95766 0.473045 0
M  V30 9360 C 885.549 -3.27644 1.1336 0
M  V30 9361 C 884.61 -3.6071 2.32781 0
M  V30 9362 C 883.843 -4.89234 2.13273 0
M  V30 9363 O 884.066 -5.59468 1.11136 0
M  V30 9364 O 883 -5.21112 3.01208 0
M  V30 9365 H 886.826 -1.98124 2.30175 0
M  V30 9366 H 884.411 -0.923887 1.17408 0
M  V30 9367 H 886.293 -4.08394 1.03886 0
M  V30 9368 H 884.968 -3.23076 0.200868 0
M  V30 9369 H 883.875 -2.80238 2.47825 0
M  V30 9370 H 885.208 -3.70008 3.24584 0
M  V30 9371 N 886.86 -1.21182 -1.00761 0
M  V30 9372 C 887.807 -0.968741 -2.09485 0
M  V30 9373 C 888.777 0.104325 -1.65772 0
M  V30 9374 O 889.962 -0.0422587 -1.90753 0
M  V30 9375 C 887.102 -0.536686 -3.40901 0
M  V30 9376 C 886.215 -1.6789 -3.98041 0
M  V30 9377 C 885.35 -1.19627 -5.17555 0
M  V30 9378 C 884.389 -2.31099 -5.66798 0
M  V30 9379 N 883.526 -1.83988 -6.77564 0
M  V30 9380 H 888.366 -1.89952 -2.29613 0
M  V30 9381 H 885.903 -0.946688 -1.12589 0
M  V30 9382 H 887.861 -0.26745 -4.16342 0
M  V30 9383 H 886.491 0.357092 -3.20819 0
M  V30 9384 H 885.543 -2.06284 -3.19611 0
M  V30 9385 H 886.855 -2.51794 -4.30582 0
M  V30 9386 H 886.009 -0.883539 -6.00232 0
M  V30 9387 H 884.748 -0.327244 -4.86601 0
M  V30 9388 H 883.753 -2.63178 -4.82719 0
M  V30 9389 H 884.978 -3.18493 -5.99782 0
M  V30 9390 H 882.924 -0.994257 -6.48422 0
M  V30 9391 H 882.841 -2.61466 -7.09346 0
M  V30 9392 H 884.109 -1.55741 -7.63783 0
M  V30 9393 N 888.338 1.20213 -1.01915 0
M  V30 9394 C 889.584 1.89928 -0.711007 0
M  V30 9395 C 889.917 1.7881 0.75767 0
M  V30 9396 O 889.192 1.17399 1.55073 0
M  V30 9397 C 889.475 3.41225 -1.15053 0
M  V30 9398 C 889.328 3.61264 -2.67971 0
M  V30 9399 C 890.647 4.34108 -0.72377 0
M  V30 9400 H 887.766 0.689702 -0.259768 0
M  V30 9401 H 890.408 1.41557 -1.26734 0
M  V30 9402 H 888.558 3.82552 -0.677199 0
M  V30 9403 H 890.23 3.29173 -3.23176 0
M  V30 9404 H 888.473 3.04647 -3.08824 0
M  V30 9405 H 889.144 4.67331 -2.93779 0
M  V30 9406 H 891.62 4.00442 -1.13073 0
M  V30 9407 H 890.496 5.38581 -1.05931 0
M  V30 9408 H 890.757 4.40512 0.374424 0
M  V30 9409 N 889.816 0.795718 1.36037 0
M  V30 9410 C 891.056 0.376514 2.00902 0
M  V30 9411 C 891.42 -1.03405 1.61776 0
M  V30 9412 O 892.621 -1.55468 2.19279 0
M  V30 9413 C 890.892 0.542086 3.53265 0
M  V30 9414 S 892.451 0.211694 4.38289 0
M  V30 9415 H 889.269 0.143527 0.696363 0
M  V30 9416 H 891.871 1.03559 1.65819 0
M  V30 9417 H 890.575 1.56888 3.79229 0
M  V30 9418 H 890.106 -0.132698 3.93176 0
M  V30 9419 H 892.121 -0.98452 4.86335 0
M  V30 9420 N 891.294 -1.47756 0.548274 0
M  V30 9421 C 892.242 -2.3158 -0.217584 0
M  V30 9422 C 893.236 -1.42372 -0.917957 0
M  V30 9423 O 894.442 -1.59184 -0.840259 0
M  V30 9424 H 890.817 -0.74671 -0.0890388 0
M  V30 9425 H 892.788 -2.94032 0.508719 0
M  V30 9426 C 891.537 -3.24834 -1.24008 0
M  V30 9427 H 890.86 -3.93435 -0.710572 0
M  V30 9428 H 892.3 -3.86336 -1.74701 0
M  V30 9429 C 890.759 -2.47724 -2.2833 0
M  V30 9430 O 891.289 -2.21522 -3.35098 0
M  V30 9431 N 889.495 -2.08891 -2.02022 0
M  V30 9432 H 889.042 -2.30401 -1.1521 0
M  V30 9433 H 889 -1.57613 -2.7204 0
M  V30 9434 N 892.772 -0.284283 -1.55015 0
M  V30 9435 C 894.183 0.211681 -1.85496 0
M  V30 9436 C 894.534 1.54735 -1.2063 0
M  V30 9437 O 893.659 2.10594 -0.497918 0
M  V30 9438 C 894.254 0.390864 -3.36538 0
M  V30 9439 C 892.813 0.831055 -3.67111 0
M  V30 9440 C 891.96 -0.0703581 -2.77211 0
M  V30 9441 H 894.911 -0.505803 -1.50424 0
M  V30 9442 H 894.932 1.22803 -3.60138 0
M  V30 9443 H 894.444 -0.581409 -3.8372 0
M  V30 9444 H 892.545 1.81447 -3.25434 0
M  V30 9445 H 892.658 0.662026 -4.74504 0
M  V30 9446 H 891.022 0.447528 -2.50737 0
M  V30 9447 H 891.805 -1.03868 -3.2721 0
M  V30 9448 N 894.251 1.57596 -0.0117121 0
M  V30 9449 C 895.5 1.9025 0.669921 0
M  V30 9450 C 895.813 0.887986 1.74282 0
M  V30 9451 O 897.019 1.10516 2.47989 0
M  V30 9452 C 895.475 3.37762 1.24277 0
M  V30 9453 C 895.083 4.47535 0.204076 0
M  V30 9454 C 896.827 3.79509 1.90192 0
M  V30 9455 C 894.734 5.86132 0.787577 0
M  V30 9456 H 893.664 0.709935 0.253984 0
M  V30 9457 H 896.315 1.8335 -0.0741718 0
M  V30 9458 H 894.697 3.39537 2.03791 0
M  V30 9459 H 895.871 4.57294 -0.56733 0
M  V30 9460 H 894.186 4.14881 -0.355305 0
M  V30 9461 H 896.783 4.80402 2.34773 0
M  V30 9462 H 897.126 3.13643 2.7374 0
M  V30 9463 H 897.659 3.80084 1.17394 0
M  V30 9464 H 894.398 6.55499 -0.00938418 0
M  V30 9465 H 893.918 5.80014 1.52787 0
M  V30 9466 H 895.597 6.34158 1.28265 0
M  V30 9467 N 895.729 -0.261212 1.5542 0
M  V30 9468 C 896.978 -0.989072 1.75785 0
M  V30 9469 C 897.291 -1.8702 0.572961 0
M  V30 9470 O 898.497 -2.63374 0.659289 0
M  V30 9471 C 896.953 -1.80857 3.11157 0
M  V30 9472 C 896.561 -0.975535 4.3725 0
M  V30 9473 C 898.305 -2.53003 3.40866 0
M  V30 9474 C 896.212 -1.7901 5.63657 0
M  V30 9475 H 895.142 -0.373019 0.655266 0
M  V30 9476 H 897.793 -0.244267 1.81867 0
M  V30 9477 H 896.175 -2.59479 2.99144 0
M  V30 9478 H 897.349 -0.232661 4.60212 0
M  V30 9479 H 895.664 -0.368083 4.1477 0
M  V30 9480 H 898.261 -3.14372 4.32521 0
M  V30 9481 H 898.604 -3.23891 2.61535 0
M  V30 9482 H 899.137 -1.81403 3.54031 0
M  V30 9483 H 895.876 -1.12522 6.4577 0
M  V30 9484 H 895.396 -2.50863 5.44819 0
M  V30 9485 H 897.075 -2.36082 6.0239 0
M  V30 9486 N 897.207 -1.48554 -0.526253 0
M  V30 9487 C 898.435 -1.60429 -1.30652 0
M  V30 9488 C 898.85 -0.265963 -1.86917 0
M  V30 9489 O 898.207 0.745262 -1.6659 0
M  V30 9490 C 898.258 -2.65377 -2.45473 0
M  V30 9491 O 897.979 -3.94017 -1.91527 0
M  V30 9492 C 899.48 -2.87726 -3.37237 0
M  V30 9493 H 896.7 -0.540817 -0.397187 0
M  V30 9494 H 899.244 -1.94409 -0.634461 0
M  V30 9495 H 897.399 -2.34246 -3.08557 0
M  V30 9496 H 897.813 -4.51623 -2.66715 0
M  V30 9497 H 899.287 -3.64951 -4.14144 0
M  V30 9498 H 899.764 -1.96688 -3.92696 0
M  V30 9499 H 900.37 -3.20176 -2.79942 0
M  V30 9500 N 898.685 0.775411 -1.37205 0
M  V30 9501 C 899.632 1.88857 -1.32671 0
M  V30 9502 C 900.602 1.64976 -0.192899 0
M  V30 9503 O 901.787 1.86944 -0.381673 0
M  V30 9504 C 898.927 3.25871 -1.13588 0
M  V30 9505 C 898.04 3.61731 -2.36167 0
M  V30 9506 C 897.175 4.87934 -2.09985 0
M  V30 9507 C 896.214 5.16514 -3.2845 0
M  V30 9508 N 895.351 6.33905 -3.01842 0
M  V30 9509 H 900.191 1.92068 -2.27846 0
M  V30 9510 H 897.728 0.939066 -1.13225 0
M  V30 9511 H 899.686 4.04903 -1.00546 0
M  V30 9512 H 898.316 3.22045 -0.220613 0
M  V30 9513 H 897.368 2.77712 -2.59962 0
M  V30 9514 H 898.68 3.78792 -3.24528 0
M  V30 9515 H 897.834 5.74863 -1.93953 0
M  V30 9516 H 896.573 4.7297 -1.18956 0
M  V30 9517 H 895.578 4.28063 -3.45025 0
M  V30 9518 H 896.803 5.33389 -4.20325 0
M  V30 9519 H 894.749 6.20306 -2.13439 0
M  V30 9520 H 894.666 6.51364 -3.83746 0
M  V30 9521 H 895.934 7.23779 -2.8942 0
M  V30 9522 N 900.163 1.21714 1.00117 0
M  V30 9523 C 901.093 1.00397 2.10815 0
M  V30 9524 C 902.074 -0.0723502 1.69946 0
M  V30 9525 O 903.259 0.0882398 1.93999 0
M  V30 9526 C 900.389 0.572001 3.42557 0
M  V30 9527 C 899.343 1.59331 3.97237 0
M  V30 9528 C 898.669 1.01746 5.2493 0
M  V30 9529 C 899.969 2.98117 4.28863 0
M  V30 9530 H 901.663 1.92983 2.28906 0
M  V30 9531 H 899.209 0.929273 1.10002 0
M  V30 9532 H 901.162 0.410018 4.19401 0
M  V30 9533 H 899.886 -0.38951 3.24269 0
M  V30 9534 H 898.545 1.74293 3.22518 0
M  V30 9535 H 898.193 0.0475491 5.02978 0
M  V30 9536 H 897.893 1.69969 5.62481 0
M  V30 9537 H 899.417 0.866881 6.04415 0
M  V30 9538 H 900.831 2.86578 4.96534 0
M  V30 9539 H 899.228 3.63389 4.77565 0
M  V30 9540 H 900.298 3.48674 3.36979 0
M  V30 9541 N 901.641 -1.19671 1.02551 0
M  V30 9542 C 902.871 -1.92952 0.738441 0
M  V30 9543 C 903.279 -1.75528 -0.706155 0
M  V30 9544 O 902.622 -1.0723 -1.49156 0
M  V30 9545 C 902.684 -3.45149 1.00562 0
M  V30 9546 C 902.348 -3.86341 2.44109 0
M  V30 9547 C 903.345 -3.91374 3.42231 0
M  V30 9548 C 901.03 -4.18076 2.7842 0
M  V30 9549 C 903.024 -4.27568 4.7272 0
M  V30 9550 C 900.711 -4.53943 4.0912 0
M  V30 9551 C 901.709 -4.58663 5.06081 0
M  V30 9552 O 901.397 -4.93701 6.3444 0
M  V30 9553 H 901.129 -0.619836 0.269776 0
M  V30 9554 H 903.683 -1.52852 1.37206 0
M  V30 9555 H 901.913 -3.85416 0.314849 0
M  V30 9556 H 903.602 -3.99664 0.708742 0
M  V30 9557 H 904.368 -3.67011 3.17061 0
M  V30 9558 H 900.247 -4.13589 2.03631 0
M  V30 9559 H 903.791 -4.31166 5.48399 0
M  V30 9560 H 899.688 -4.77764 4.34064 0
M  V30 9561 H 900.456 -5.11662 6.38862 0
M  V30 9562 N 903.119 -0.802921 -1.35613 0
M  V30 9563 C 904.051 -0.168461 -2.2858 0
M  V30 9564 C 905.064 0.630123 -1.50111 0
M  V30 9565 O 906.253 0.463086 -1.72388 0
M  V30 9566 C 903.353 0.783943 -3.29708 0
M  V30 9567 C 902.526 0.0325165 -4.37388 0
M  V30 9568 C 901.585 0.902859 -5.18396 0
M  V30 9569 O 900.611 0.355144 -5.68091 0
M  V30 9570 N 901.813 2.22542 -5.36149 0
M  V30 9571 H 904.578 -0.96709 -2.83668 0
M  V30 9572 H 902.139 -0.658043 -1.47924 0
M  V30 9573 H 904.131 1.37034 -3.80794 0
M  V30 9574 H 902.701 1.48339 -2.75162 0
M  V30 9575 H 901.921 -0.735057 -3.87286 0
M  V30 9576 H 903.209 -0.485499 -5.06478 0
M  V30 9577 H 902.607 2.69439 -4.97412 0
M  V30 9578 H 901.164 2.76113 -5.90428 0
M  V30 9579 N 904.597 1.47463 -0.556102 0
M  V30 9580 C 905.822 2.07371 -0.0344729 0
M  V30 9581 C 906.247 1.40621 1.2493 0
M  V30 9582 O 905.605 0.48082 1.74808 0
M  V30 9583 C 905.653 3.60306 0.145563 0
M  V30 9584 O 904.757 3.94299 1.20839 0
M  V30 9585 H 904.098 0.662052 -0.0508274 0
M  V30 9586 H 906.628 1.89498 -0.771469 0
M  V30 9587 H 906.638 4.06408 0.360112 0
M  V30 9588 H 905.313 4.08288 -0.792089 0
M  V30 9589 H 903.89 3.59944 0.97442 0
M  V30 9590 N 906.075 0.2925 1.54862 0
M  V30 9591 C 907.038 -0.574423 2.21885 0
M  V30 9592 C 908.038 -1.06791 1.20218 0
M  V30 9593 O 909.228 -0.9653 1.45009 0
M  V30 9594 C 906.36 -1.79438 2.89853 0
M  V30 9595 H 907.553 0.0110319 2.99898 0
M  V30 9596 H 905.106 0.043256 1.5624 0
M  V30 9597 H 905.841 -2.4199 2.15897 0
M  V30 9598 H 905.626 -1.44827 3.64373 0
M  V30 9599 H 907.116 -2.41048 3.41007 0
M  V30 9600 N 907.553 -1.57587 0.0200696 0
M  V30 9601 C 908.801 -1.91046 -0.65922 0
M  V30 9602 C 909.122 -0.896197 -1.73186 0
M  V30 9603 O 908.392 0.0635952 -1.95797 0
M  V30 9604 H 906.972 -0.705163 -0.246483 0
M  V30 9605 H 909.634 -1.94789 0.0657368 0
M  V30 9606 H 908.73 -2.91399 -1.11773 0
M  V30 9607 N 909.032 0.252966 -1.55557 0
M  V30 9608 C 910.28 0.979912 -1.76754 0
M  V30 9609 C 910.601 1.86083 -0.582944 0
M  V30 9610 O 909.871 1.91742 0.401497 0
M  V30 9611 H 908.451 0.364805 -0.651864 0
M  V30 9612 H 911.113 0.272372 -1.92987 0
M  V30 9613 H 910.209 1.60518 -2.67657 0
M  V30 9614 N 910.51 1.48831 0.518367 0
M  V30 9615 C 911.443 1.588 1.63884 0
M  V30 9616 C 912.421 0.437847 1.56594 0
M  V30 9617 O 913.605 0.651042 1.769 0
M  V30 9618 C 910.732 1.52681 3.02335 0
M  V30 9619 C 909.778 2.7268 3.27945 0
M  V30 9620 S 910.611 4.34536 3.12951 0
M  V30 9621 C 911.767 4.31034 4.53828 0
M  V30 9622 H 912 2.53587 1.5518 0
M  V30 9623 H 909.533 1.37507 0.702218 0
M  V30 9624 H 911.491 1.49837 3.82177 0
M  V30 9625 H 910.152 0.592107 3.08469 0
M  V30 9626 H 909.345 2.64569 4.28974 0
M  V30 9627 H 908.947 2.72847 2.55794 0
M  V30 9628 H 911.239 4.01683 5.45579 0
M  V30 9629 H 912.182 5.32282 4.66991 0
M  V30 9630 H 912.59 3.61343 4.33695 0
M  V30 9631 N 911.988 -0.768124 1.37614 0
M  V30 9632 C 913.399 -1.34462 1.29525 0
M  V30 9633 C 913.75 -1.96121 -0.0555168 0
M  V30 9634 O 912.875 -1.94069 -0.957406 0
M  V30 9635 C 913.47 -2.44475 2.34558 0
M  V30 9636 C 912.029 -2.97883 2.30093 0
M  V30 9637 C 911.176 -1.71131 2.18196 0
M  V30 9638 H 914.127 -0.568103 1.48183 0
M  V30 9639 H 914.148 -3.24047 1.99434 0
M  V30 9640 H 913.66 -1.99568 3.32858 0
M  V30 9641 H 911.761 -3.47156 1.35328 0
M  V30 9642 H 911.874 -3.53251 3.23652 0
M  V30 9643 H 910.238 -1.94197 1.64802 0
M  V30 9644 H 911.021 -1.28323 3.18415 0
M  V30 9645 N 913.466 -1.22244 -0.994698 0
M  V30 9646 C 914.714 -1.04384 -1.73056 0
M  V30 9647 C 915.035 0.422204 -1.90374 0
M  V30 9648 O 914.305 1.30383 -1.46209 0
M  V30 9649 H 912.885 -0.383263 -0.641185 0
M  V30 9650 H 915.547 -1.53725 -1.1981 0
M  V30 9651 H 914.643 -1.52021 -2.72573 0
M  V30 9652 N 914.944 1.19125 -1.03184 0
M  V30 9653 C 916.192 1.8851 -0.728587 0
M  V30 9654 C 916.513 1.80195 0.74531 0
M  V30 9655 O 915.783 1.21437 1.5372 0
M  V30 9656 H 914.363 0.69784 -0.266511 0
M  V30 9657 H 917.025 1.44607 -1.3067 0
M  V30 9658 H 916.121 2.9477 -1.02554 0
M  V30 9659 N 916.422 0.810101 1.35185 0
M  V30 9660 C 917.355 0.168416 2.27578 0
M  V30 9661 C 918.333 -0.667664 1.4826 0
M  V30 9662 O 919.517 -0.634184 1.77512 0
M  V30 9663 C 916.644 -0.765994 3.29925 0
M  V30 9664 C 915.69 -0.00908802 4.26499 0
M  V30 9665 S 916.523 1.32936 5.18737 0
M  V30 9666 C 917.679 0.399485 6.24624 0
M  V30 9667 H 917.912 0.951753 2.81654 0
M  V30 9668 H 915.445 0.60534 1.42039 0
M  V30 9669 H 917.403 -1.2996 3.89385 0
M  V30 9670 H 916.064 -1.52275 2.7472 0
M  V30 9671 H 915.257 -0.718919 4.98846 0
M  V30 9672 H 914.859 0.454663 3.71226 0
M  V30 9673 H 917.151 -0.413904 6.76234 0
M  V30 9674 H 918.094 1.09225 6.99625 0
M  V30 9675 H 918.502 -0.00638358 5.645 0
M  V30 9676 N 917.9 -1.47166 0.563914 0
M  V30 9677 C 919.311 -1.86231 0.132307 0
M  V30 9678 C 919.662 -1.46976 -1.29971 0
M  V30 9679 O 918.787 -0.875911 -1.97881 0
M  V30 9680 C 919.382 -3.37996 0.233335 0
M  V30 9681 C 917.941 -3.76127 -0.143278 0
M  V30 9682 C 917.088 -2.71212 0.577857 0
M  V30 9683 H 920.039 -1.38588 0.773249 0
M  V30 9684 H 920.06 -3.76558 -0.546309 0
M  V30 9685 H 919.572 -3.66535 1.27568 0
M  V30 9686 H 917.673 -3.53205 -1.18648 0
M  V30 9687 H 917.786 -4.78595 0.219952 0
M  V30 9688 H 916.15 -2.54692 0.020186 0
M  V30 9689 H 916.933 -3.02593 1.62149 0
M  V30 9690 N 919.378 -0.300708 -1.54705 0
M  V30 9691 C 920.626 0.308044 -1.99739 0
M  V30 9692 C 920.947 1.54433 -1.19061 0
M  V30 9693 O 920.217 1.93794 -0.286507 0
M  V30 9694 H 918.797 0.116811 -0.73781 0
M  V30 9695 H 921.459 -0.41197 -1.90496 0
M  V30 9696 H 920.555 0.580287 -3.06658 0
M  V30 9697 N 920.856 1.57574 -0.0284266 0
M  V30 9698 C 922.104 1.91393 0.649079 0
M  V30 9699 C 922.425 0.905368 1.72708 0
M  V30 9700 O 921.695 -0.0532107 1.95828 0
M  V30 9701 H 920.275 0.70646 0.24274 0
M  V30 9702 H 922.937 1.94752 -0.076066 0
M  V30 9703 H 922.033 2.91988 1.10226 0
M  V30 9704 N 922.334 -0.244713 1.55689 0
M  V30 9705 C 923.581 -0.972446 1.77622 0
M  V30 9706 C 923.909 -1.85235 0.593137 0
M  V30 9707 O 923.164 -1.91064 -0.423464 0
M  V30 9708 C 923.463 -1.8617 3.05083 0
M  V30 9709 C 923.129 -1.13696 4.3633 0
M  V30 9710 C 921.791 -0.936679 4.71996 0
M  V30 9711 C 924.143 -0.623451 5.17458 0
M  V30 9712 C 921.471 -0.210612 5.86322 0
M  V30 9713 C 923.823 0.0891587 6.32537 0
M  V30 9714 C 922.487 0.300904 6.66821 0
M  V30 9715 H 921.757 -0.355843 0.649967 0
M  V30 9716 H 924.404 -0.242372 1.8996 0
M  V30 9717 H 922.709 -2.6589 2.87767 0
M  V30 9718 H 924.406 -2.4265 3.19253 0
M  V30 9719 H 920.996 -1.30301 4.08313 0
M  V30 9720 H 925.18 -0.765725 4.90357 0
M  V30 9721 H 920.436 -0.0361062 6.11389 0
M  V30 9722 H 924.61 0.494685 6.94641 0
M  V30 9723 H 922.237 0.865466 7.55257 0
M  V30 9724 N 923.813 -1.49104 -0.510467 0
M  V30 9725 C 925.224 -1.51423 -1.09215 0
M  V30 9726 C 925.575 -0.295035 -1.93969 0
M  V30 9727 O 924.7 0.596064 -2.08029 0
M  V30 9728 C 925.295 -2.74387 -1.98739 0
M  V30 9729 C 923.854 -2.79515 -2.52088 0
M  V30 9730 C 923.001 -2.4521 -1.29488 0
M  V30 9731 H 925.952 -1.55938 -0.294807 0
M  V30 9732 H 925.973 -2.54012 -2.83298 0
M  V30 9733 H 925.485 -3.63105 -1.37026 0
M  V30 9734 H 923.586 -1.95054 -3.17466 0
M  V30 9735 H 923.699 -3.81447 -2.89887 0
M  V30 9736 H 922.063 -1.96785 -1.61703 0
M  V30 9737 H 922.846 -3.36192 -0.694978 0
M  V30 9738 N 925.291 0.760815 -1.38019 0
M  V30 9739 C 926.539 1.51673 -1.33566 0
M  V30 9740 C 926.86 1.94852 0.076024 0
M  V30 9741 O 926.13 1.67112 1.02227 0
M  V30 9742 H 924.71 0.562581 -0.491438 0
M  V30 9743 H 927.372 0.904832 -1.72623 0
M  V30 9744 H 926.468 2.41102 -1.98182 0
M  V30 9745 N 926.769 1.22769 0.988202 0
M  V30 9746 C 928.017 1.05301 1.725 0
M  V30 9747 C 928.338 -0.412103 1.90596 0
M  V30 9748 O 927.608 -1.29606 1.46898 0
M  V30 9749 H 926.188 0.386658 0.639144 0
M  V30 9750 H 928.85 1.54359 1.18993 0
M  V30 9751 H 927.946 1.53465 2.71763 0
M  V30 9752 N 928.247 -1.18576 1.03814 0
M  V30 9753 C 929.495 -1.88121 0.738574 0
M  V30 9754 C 929.816 -1.80587 -0.735744 0
M  V30 9755 O 929.086 -1.22251 -1.53074 0
M  V30 9756 H 927.666 -0.696417 0.270208 0
M  V30 9757 H 930.328 -1.43912 1.31435 0
M  V30 9758 H 929.424 -2.94222 1.04115 0
M  V30 9759 N 929.725 -0.817259 -1.34754 0
M  V30 9760 C 930.688 -0.240611 -2.27934 0
M  V30 9761 C 931.688 0.578219 -1.50044 0
M  V30 9762 O 932.878 0.395148 -1.69659 0
M  V30 9763 C 930.01 0.663318 -3.34384 0
M  V30 9764 H 931.203 -1.06257 -2.80445 0
M  V30 9765 H 928.756 -0.588697 -1.4479 0
M  V30 9766 H 929.491 1.50855 -2.87077 0
M  V30 9767 H 929.276 0.0777388 -3.92023 0
M  V30 9768 H 930.766 1.06076 -4.03903 0
M  V30 9769 N 931.203 1.46865 -0.571711 0
M  V30 9770 C 932.614 1.86158 -0.142181 0
M  V30 9771 C 932.965 1.47663 1.2919 0
M  V30 9772 O 932.09 0.886393 1.97413 0
M  V30 9773 C 932.685 3.37867 -0.251256 0
M  V30 9774 C 931.244 3.76198 0.123329 0
M  V30 9775 C 930.391 2.70902 -0.592232 0
M  V30 9776 H 933.342 1.38176 -0.780587 0
M  V30 9777 H 933.363 3.76842 0.526331 0
M  V30 9778 H 932.875 3.65853 -1.2951 0
M  V30 9779 H 930.976 3.53829 1.16773 0
M  V30 9780 H 931.089 4.78471 -0.24533 0
M  V30 9781 H 929.453 2.54678 -0.0336927 0
M  V30 9782 H 930.236 3.01729 -1.63751 0
M  V30 9783 N 932.681 0.308908 1.54543 0
M  V30 9784 C 934.092 -0.182144 1.85809 0
M  V30 9785 C 934.443 -1.52796 1.23076 0
M  V30 9786 O 933.568 -2.09775 0.531358 0
M  V30 9787 C 934.163 -0.337275 3.37117 0
M  V30 9788 C 932.722 -0.772545 3.68387 0
M  V30 9789 C 931.869 0.114451 2.77064 0
M  V30 9790 H 934.82 0.529671 1.496 0
M  V30 9791 H 934.841 -1.17058 3.62046 0
M  V30 9792 H 934.353 0.642382 3.82747 0
M  V30 9793 H 932.454 -1.76247 3.2828 0
M  V30 9794 H 932.567 -0.586453 4.75497 0
M  V30 9795 H 930.931 -0.407581 2.51418 0
M  V30 9796 H 931.714 1.09061 3.25516 0
M  V30 9797 N 934.159 -1.57557 0.0367827 0
M  V30 9798 C 935.384 -1.96828 -0.653707 0
M  V30 9799 C 935.809 -0.913559 -1.64425 0
M  V30 9800 O 935.167 0.124749 -1.8087 0
M  V30 9801 C 935.215 -3.35189 -1.32969 0
M  V30 9802 O 934.319 -3.32095 -2.44513 0
M  V30 9803 H 933.66 -0.64157 -0.171124 0
M  V30 9804 H 936.19 -2.04351 0.100912 0
M  V30 9805 H 936.2 -3.71593 -1.68472 0
M  V30 9806 H 934.875 -4.11496 -0.603654 0
M  V30 9807 H 933.452 -3.07418 -2.11065 0
M  V30 9808 N 935.637 0.236453 -1.55816 0
M  V30 9809 C 936.885 0.96111 -1.77784 0
M  V30 9810 C 937.206 1.85454 -0.602648 0
M  V30 9811 O 936.476 1.92157 0.381137 0
M  V30 9812 H 935.056 0.35787 -0.655697 0
M  V30 9813 H 937.718 0.251888 -1.93265 0
M  V30 9814 H 936.814 1.5767 -2.69345 0
M  V30 9815 N 937.115 1.49373 0.502552 0
M  V30 9816 C 938.363 1.58467 1.25429 0
M  V30 9817 C 938.684 0.272593 1.93085 0
M  V30 9818 O 937.954 -0.707947 1.82661 0
M  V30 9819 H 936.534 0.583866 0.46595 0
M  V30 9820 H 939.196 1.8599 0.582568 0
M  V30 9821 H 938.292 2.37993 2.01906 0
M  V30 9822 N 938.594 -0.753485 1.38421 0
M  V30 9823 C 939.557 -1.84888 1.35459 0
M  V30 9824 C 940.557 -1.58764 0.255083 0
M  V30 9825 O 941.747 -1.66507 0.511978 0
M  V30 9826 C 938.879 -3.22361 1.10888 0
M  V30 9827 H 940.072 -1.88922 2.32913 0
M  V30 9828 H 937.625 -0.955199 1.23716 0
M  V30 9829 H 938.36 -3.23996 0.1404 0
M  V30 9830 H 938.145 -3.42717 1.90492 0
M  V30 9831 H 939.635 -4.02437 1.1151 0
M  V30 9832 N 940.072 -1.23292 -0.981677 0
M  V30 9833 C 941.297 -1.09176 -1.76339 0
M  V30 9834 C 941.722 0.352726 -1.84763 0
M  V30 9835 O 941.08 1.25509 -1.30832 0
M  V30 9836 C 941.128 -1.72046 -3.16911 0
M  V30 9837 O 940.232 -0.98174 -4.00544 0
M  V30 9838 H 939.573 -0.382755 -0.542581 0
M  V30 9839 H 942.103 -1.63319 -1.23239 0
M  V30 9840 H 942.113 -1.77232 -3.67495 0
M  V30 9841 H 940.788 -2.77154 -3.10095 0
M  V30 9842 H 939.365 -1.00672 -3.59054 0
M  V30 9843 N 941.55 1.18024 -1.04442 0
M  V30 9844 C 942.775 1.92573 -0.770097 0
M  V30 9845 C 943.2 1.75871 0.667169 0
M  V30 9846 O 942.558 1.07136 1.46258 0
M  V30 9847 C 942.606 3.41904 -1.14602 0
M  V30 9848 O 941.71 4.11491 -0.273712 0
M  V30 9849 H 941.051 0.600636 -0.283076 0
M  V30 9850 H 943.581 1.49645 -1.39526 0
M  V30 9851 H 943.591 3.92623 -1.10956 0
M  V30 9852 H 942.266 3.53382 -2.19304 0
M  V30 9853 H 940.843 3.71059 -0.370124 0
M  V30 9854 N 943.028 0.824394 1.34319 0
M  V30 9855 C 944.276 0.41235 1.97849 0
M  V30 9856 C 944.597 -1.02841 1.65677 0
M  V30 9857 O 943.867 -1.71421 0.948245 0
M  V30 9858 H 942.447 0.149486 0.73189 0
M  V30 9859 H 945.109 1.05416 1.63931 0
M  V30 9860 H 944.205 0.532557 3.07523 0
M  V30 9861 N 944.506 -1.46559 0.579492 0
M  V30 9862 C 945.917 -1.8608 0.152052 0
M  V30 9863 C 946.268 -1.48346 -1.28405 0
M  V30 9864 O 945.393 -0.89685 -1.9694 0
M  V30 9865 C 945.988 -3.37729 0.269171 0
M  V30 9866 C 944.547 -3.76258 -0.103376 0
M  V30 9867 C 943.694 -2.70584 0.60659 0
M  V30 9868 H 946.645 -1.3776 0.787904 0
M  V30 9869 H 946.666 -3.77116 -0.506339 0
M  V30 9870 H 946.178 -3.65162 1.31448 0
M  V30 9871 H 944.279 -3.54443 -1.14895 0
M  V30 9872 H 944.392 -4.78335 0.270701 0
M  V30 9873 H 942.756 -2.54656 0.0471984 0
M  V30 9874 H 943.539 -3.00856 1.65349 0
M  V30 9875 N 945.984 -0.3171 -1.54377 0
M  V30 9876 C 947.212 0.289558 -2.04864 0
M  V30 9877 C 947.627 1.46284 -1.19359 0
M  V30 9878 O 946.984 1.81135 -0.222795 0
M  V30 9879 C 947.035 0.730273 -3.54047 0
M  V30 9880 O 946.756 -0.396325 -4.36304 0
M  V30 9881 C 948.257 1.40041 -4.20599 0
M  V30 9882 H 945.477 0.0605836 -0.668259 0
M  V30 9883 H 948.021 -0.461411 -1.99227 0
M  V30 9884 H 946.176 1.43123 -3.59992 0
M  V30 9885 H 946.59 -0.0502901 -5.24476 0
M  V30 9886 H 948.064 1.65979 -5.26455 0
M  V30 9887 H 948.541 2.34565 -3.71316 0
M  V30 9888 H 949.147 0.742206 -4.18774 0
M  V30 9889 N 947.462 1.57535 -0.0451378 0
M  V30 9890 C 948.711 1.91628 0.629415 0
M  V30 9891 C 949.024 0.924754 1.72359 0
M  V30 9892 O 950.23 1.15751 2.45589 0
M  V30 9893 C 948.686 3.40322 1.17084 0
M  V30 9894 C 948.294 4.47867 0.109101 0
M  V30 9895 C 950.038 3.83458 1.82099 0
M  V30 9896 C 947.945 5.87671 0.663072 0
M  V30 9897 H 946.875 0.715163 0.238868 0
M  V30 9898 H 949.526 1.83151 -0.113046 0
M  V30 9899 H 947.908 3.43783 1.96543 0
M  V30 9900 H 949.082 4.55988 -0.664201 0
M  V30 9901 H 947.397 4.14034 -0.443227 0
M  V30 9902 H 949.994 4.85273 2.2453 0
M  V30 9903 H 950.337 3.19379 2.67026 0
M  V30 9904 H 950.87 3.82488 1.09305 0
M  V30 9905 H 947.609 6.55332 -0.148423 0
M  V30 9906 H 947.129 5.83124 1.4045 0
M  V30 9907 H 948.808 6.36737 1.14785 0
M  V30 9908 N 948.94 -0.228186 1.55939 0
M  V30 9909 C 949.85 -1.30386 1.9503 0
M  V30 9910 C 950.866 -1.51645 0.853218 0
M  V30 9911 O 952.042 -1.64904 1.15623 0
M  V30 9912 C 949.107 -2.63489 2.25332 0
M  V30 9913 C 948.168 -2.5059 3.48573 0
M  V30 9914 C 947.401 -3.77345 3.7742 0
M  V30 9915 O 947.624 -4.80067 3.08045 0
M  V30 9916 O 946.558 -3.74855 4.70922 0
M  V30 9917 H 950.384 -1.0022 2.86687 0
M  V30 9918 H 947.969 -0.430503 1.43063 0
M  V30 9919 H 949.851 -3.4211 2.46046 0
M  V30 9920 H 948.526 -2.93349 1.3685 0
M  V30 9921 H 947.433 -1.70191 3.33145 0
M  V30 9922 H 948.766 -2.2567 4.37417 0
M  V30 9923 N 950.418 -1.49637 -0.494624 0
M  V30 9924 C 951.328 -1.69522 -1.62172 0
M  V30 9925 C 952.344 -0.577894 -1.64123 0
M  V30 9926 O 953.52 -0.853382 -1.82426 0
M  V30 9927 C 950.585 -1.7633 -2.9851 0
M  V30 9928 C 949.646 -2.99944 -3.07135 0
M  V30 9929 C 948.879 -3.06419 -4.36971 0
M  V30 9930 O 949.102 -2.20312 -5.26136 0
M  V30 9931 O 948.036 -3.9894 -4.507 0
M  V30 9932 H 951.862 -2.65017 -1.48324 0
M  V30 9933 H 949.447 -1.33454 -0.671603 0
M  V30 9934 H 951.329 -1.83125 -3.7953 0
M  V30 9935 H 950.004 -0.840155 -3.12607 0
M  V30 9936 H 948.911 -2.98664 -2.2528 0
M  V30 9937 H 950.244 -3.9176 -2.97968 0
M  V30 9938 N 951.896 0.746133 -1.38819 0
M  V30 9939 C 953.142 1.50768 -1.35635 0
M  V30 9940 C 953.475 1.94132 0.0512435 0
M  V30 9941 O 952.75 1.65979 1.01396 0
M  V30 9942 C 953.033 2.7551 -2.31875 0
M  V30 9943 C 952.886 2.38236 -3.81528 0
M  V30 9944 C 954.205 3.77566 -2.26124 0
M  V30 9945 H 951.324 0.546922 -0.494009 0
M  V30 9946 H 953.966 0.854017 -1.69725 0
M  V30 9947 H 952.116 3.31285 -2.02935 0
M  V30 9948 H 953.788 1.88178 -4.21173 0
M  V30 9949 H 952.031 1.70601 -3.98846 0
M  V30 9950 H 952.702 3.27517 -4.44339 0
M  V30 9951 H 955.178 3.31349 -2.51689 0
M  V30 9952 H 954.054 4.62531 -2.95561 0
M  V30 9953 H 954.315 4.23689 -1.26254 0
M  V30 9954 N 953.375 1.23811 0.975125 0
M  V30 9955 C 954.652 0.9815 1.69192 0
M  V30 9956 C 955.032 -0.498373 2.05133 0
M  V30 9957 O 954.38 -1.47087 1.74864 0
M  V30 9958 C 954.59 1.89701 2.92941 0
M  V30 9959 C 955.938 2.16357 3.65342 0
M  V30 9960 O 956.962 1.87293 3.02985 0
M  V30 9961 O 955.821 2.65675 4.77576 0
M  V30 9962 H 952.915 0.370599 0.739314 0
M  V30 9963 H 955.461 1.34876 1.02988 0
M  V30 9964 H 954.233 2.89719 2.63018 0
M  V30 9965 H 953.856 1.53244 3.66881 0
M  V30 9966 O 954.892 -1.10713 1.17579 0
M  V30 9967 H 955.583 -1.70774 0.914101 0
M  V30 END ATOM
M  V30 BEGIN BOND
M  V30 END BOND
M  V30 END CTAB
M  END
$$$$
