drugbank_target|P11177 Pyruvate dehydrogenase E1 component subunit beta, mitochondrial (DB00119; DB00157)
 OpenBabel12092119243D

  0  0  0     0  0            999 V3000
M  V30 BEGIN CTAB
M  V30 COUNTS 5523 5584 0 0 0
M  V30 BEGIN ATOM
M  V30 1 H -0.908 1.98254 -0.117106 0
M  V30 2 N 0 1.576 0 0
M  V30 3 C 0.933 2.03868 1.02534 0
M  V30 4 C 1.911 0.928543 1.3348 0
M  V30 5 O 3.095 1.19667 1.45644 0
M  V30 6 C 0.222 2.43627 2.35294 0
M  V30 7 C -0.732 3.65373 2.2001 0
M  V30 8 S 0.101 5.13292 1.52614 0
M  V30 9 C 1.257 5.56322 2.86805 0
M  V30 10 H 1.49 2.90518 0.631377 0
M  V30 11 H -0.977 1.52953 0.210867 0
M  V30 12 H 0.981 2.67203 3.11629 0
M  V30 13 H -0.358 1.57376 2.7183 0
M  V30 14 H -1.165 3.90944 3.18086 0
M  V30 15 H -1.563 3.418 1.51819 0
M  V30 16 H 0.729 5.58782 3.83104 0
M  V30 17 H 1.672 6.56266 2.65933 0
M  V30 18 H 2.08 4.83886 2.90714 0
M  V30 19 N 1.4781 -0.272755 1.55222 0
M  V30 20 C 2.4411 -1.32041 1.87344 0
M  V30 21 C 3.4411 -1.42342 0.74803 0
M  V30 22 O 4.6311 -1.41488 1.0162 0
M  V30 23 C 1.7631 -2.70173 2.07893 0
M  V30 24 H 2.9561 -1.04789 2.80997 0
M  V30 25 H 0.5091 -0.51083 1.47717 0
M  V30 26 H 1.2441 -3.02605 1.16622 0
M  V30 27 H 1.0291 -2.64082 2.89833 0
M  V30 28 H 2.5191 -3.45869 2.34017 0
M  V30 29 N 2.9562 -1.48159 -0.537278 0
M  V30 30 C 3.9192 -1.61665 -1.62472 0
M  V30 31 C 4.9192 -0.490395 -1.5314 0
M  V30 32 O 6.1092 -0.755998 -1.5694 0
M  V30 33 C 3.2412 -1.57997 -3.02076 0
M  V30 34 H 4.4342 -2.58621 -1.51839 0
M  V30 35 H 1.9872 -1.36647 -0.758771 0
M  V30 36 H 2.7222 -0.624913 -3.18222 0
M  V30 37 H 2.5072 -2.39755 -3.10258 0
M  V30 38 H 3.9972 -1.70627 -3.81151 0
M  V30 39 N 4.4343 0.785586 -1.36625 0
M  V30 40 C 5.6803 1.54591 -1.31261 0
M  V30 41 C 6.0133 1.93906 0.106823 0
M  V30 42 O 5.2883 1.63007 1.06108 0
M  V30 43 C 5.5713 2.82038 -2.23889 0
M  V30 44 C 5.4243 2.49066 -3.74548 0
M  V30 45 C 6.7433 3.83887 -2.15217 0
M  V30 46 H 3.8623 0.560846 -0.478143 0
M  V30 47 H 6.5043 0.902278 -1.67209 0
M  V30 48 H 4.6543 3.36961 -1.93363 0
M  V30 49 H 6.3263 2.00164 -4.15611 0
M  V30 50 H 4.5693 1.81954 -3.93796 0
M  V30 51 H 5.2403 3.40109 -4.34776 0
M  V30 52 H 7.7163 3.38421 -2.42096 0
M  V30 53 H 6.5923 4.70806 -2.82193 0
M  V30 54 H 6.8533 4.27131 -1.14068 0
M  V30 55 N 5.9124 1.20967 1.01018 0
M  V30 56 C 7.1374 1.0503 1.78839 0
M  V30 57 C 7.5624 -0.395752 1.8389 0
M  V30 58 O 6.9204 -1.28529 1.27867 0
M  V30 59 C 6.9684 1.64602 3.2084 0
M  V30 60 O 6.0724 0.887988 4.02726 0
M  V30 61 H 5.4134 0.369987 0.551367 0
M  V30 62 H 7.9434 1.60399 1.27018 0
M  V30 63 H 7.9534 1.68607 3.71532 0
M  V30 64 H 6.6284 2.69841 3.16479 0
M  V30 65 H 5.2054 0.922648 3.61305 0
M  V30 66 N 7.3905 -1.2043 1.01659 0
M  V30 67 C 8.6385 -1.89423 0.704522 0
M  V30 68 C 8.9595 -1.79231 -0.768197 0
M  V30 69 O 8.2295 -1.1947 -1.55254 0
M  V30 70 H 6.8095 -0.701178 0.257602 0
M  V30 71 H 9.4715 -1.4626 1.28818 0
M  V30 72 H 8.5675 -2.96052 0.987916 0
M  V30 73 N 8.8686 -0.792821 -1.36206 0
M  V30 74 C 9.7986 -0.207853 -2.32573 0
M  V30 75 C 10.7796 0.659055 -1.56813 0
M  V30 76 O 11.9646 0.592176 -1.84951 0
M  V30 77 C 9.0946 0.655449 -3.41059 0
M  V30 78 C 8.0486 -0.111842 -4.27854 0
M  V30 79 C 7.3746 0.872274 -5.27537 0
M  V30 80 C 8.6746 -1.30299 -5.05786 0
M  V30 81 H 10.3686 -1.01294 -2.81744 0
M  V30 82 H 7.9146 -0.48854 -1.3546 0
M  V30 83 H 9.8676 1.07464 -4.07467 0
M  V30 84 H 8.5916 1.49328 -2.90463 0
M  V30 85 H 7.2506 -0.512053 -3.63006 0
M  V30 86 H 6.8986 1.70523 -4.73214 0
M  V30 87 H 6.5986 0.363291 -5.86476 0
M  V30 88 H 8.1226 1.28996 -5.96818 0
M  V30 89 H 9.5366 -0.959379 -5.65216 0
M  V30 90 H 7.9336 -1.7455 -5.74154 0
M  V30 91 H 9.0036 -2.09663 -4.37229 0
M  V30 92 N 10.3467 1.47872 -0.545128 0
M  V30 93 C 11.5927 2.02793 -0.0166104 0
M  V30 94 C 11.9257 1.41987 1.32489 0
M  V30 95 O 11.2007 0.571045 1.85928 0
M  V30 96 C 11.4837 3.59989 0.0893294 0
M  V30 97 C 11.3367 4.3125 -1.27841 0
M  V30 98 C 12.6557 4.32606 0.808724 0
M  V30 99 H 9.7747 0.736962 -0.00751035 0
M  V30 100 H 12.4167 1.76433 -0.705085 0
M  V30 101 H 10.5667 3.82579 0.675681 0
M  V30 102 H 12.2387 4.20035 -1.90704 0
M  V30 103 H 10.4817 3.92076 -1.85632 0
M  V30 104 H 11.1527 5.39736 -1.15713 0
M  V30 105 H 13.6287 4.14936 0.310992 0
M  V30 106 H 12.5047 5.42251 0.851782 0
M  V30 107 H 12.7657 4.00963 1.86229 0
M  V30 108 N 11.8248 0.280983 1.55075 0
M  V30 109 C 13.2408 -0.0729964 1.59433 0
M  V30 110 C 13.4408 -1.5411 1.29817 0
M  V30 111 O 12.4968 -2.29086 1.06187 0
M  V30 112 C 13.8098 0.306921 2.9913 0
M  V30 113 C 15.3578 0.254023 3.11968 0
M  V30 114 C 15.8328 0.608467 4.5394 0
M  V30 115 N 17.3238 0.560241 4.59799 0
M  V30 116 C 18.0588 0.80722 5.6769 0
M  V30 117 N 17.5548 1.11912 6.83701 0
M  V30 118 N 19.3478 0.735623 5.57266 0
M  V30 119 H 11.4988 1.238 1.7259 0
M  V30 120 H 13.7618 0.500547 0.805082 0
M  V30 121 H 13.4678 1.32816 3.25657 0
M  V30 122 H 13.3418 -0.349363 3.75579 0
M  V30 123 H 15.7288 -0.75794 2.852 0
M  V30 124 H 15.8098 0.944649 2.37718 0
M  V30 125 H 15.4538 1.61814 4.81434 0
M  V30 126 H 15.3838 -0.104013 5.26497 0
M  V30 127 H 17.8748 0.329288 3.76463 0
M  V30 128 H 18.1878 1.29409 7.61888 0
M  V30 129 H 16.5328 1.15695 6.85303 0
M  V30 130 H 19.7238 0.491752 4.6551 0
M  V30 131 H 19.8968 0.931482 6.4127 0
M  V30 132 N 13.3029 -1.57598 0.00835791 0
M  V30 133 C 14.7189 -1.55764 -0.347822 0
M  V30 134 C 14.9189 -1.01186 -1.74252 0
M  V30 135 O 13.9749 -0.649371 -2.44007 0
M  V30 136 C 15.2879 -2.99927 -0.215407 0
M  V30 137 C 16.8359 -3.11656 -0.289725 0
M  V30 138 C 17.3109 -4.57621 -0.18634 0
M  V30 139 N 18.8019 -4.62557 -0.243978 0
M  V30 140 C 19.5369 -5.73094 -0.18745 0
M  V30 141 N 19.0329 -6.92753 -0.0810331 0
M  V30 142 N 20.8259 -5.61588 -0.239925 0
M  V30 143 H 12.9769 -1.91411 0.92062 0
M  V30 144 H 15.2399 -0.879562 0.353659 0
M  V30 145 H 14.9459 -3.43729 0.744512 0
M  V30 146 H 14.8199 -3.63865 -0.994097 0
M  V30 147 H 17.2069 -2.67779 -1.24009 0
M  V30 148 H 17.2879 -2.5048 0.51898 0
M  V30 149 H 16.9319 -5.02174 0.760519 0
M  V30 150 H 16.8619 -5.16752 -1.01364 0
M  V30 151 H 19.3529 -3.76481 -0.327217 0
M  V30 152 H 19.6659 -7.72787 -0.0440241 0
M  V30 153 H 18.0109 -6.94984 -0.0465419 0
M  V30 154 H 21.2019 -4.66996 -0.321317 0
M  V30 155 H 21.3749 -6.47714 -0.192407 0
M  V30 156 N 14.781 0.264519 -1.55364 0
M  V30 157 C 16.192 0.834936 -1.6699 0
M  V30 158 C 16.543 1.86718 -0.602552 0
M  V30 159 O 15.668 2.14899 0.254425 0
M  V30 160 C 16.263 1.5212 -3.02729 0
M  V30 161 C 14.822 2.03954 -3.16354 0
M  V30 162 C 13.969 0.884498 -2.62815 0
M  V30 163 H 16.92 0.0406869 -1.58648 0
M  V30 164 H 16.941 2.38853 -2.96191 0
M  V30 165 H 16.453 0.769668 -3.80392 0
M  V30 166 H 14.554 2.82041 -2.43482 0
M  V30 167 H 14.667 2.24902 -4.23032 0
M  V30 168 H 13.031 1.2802 -2.20188 0
M  V30 169 H 13.814 0.14634 -3.42988 0
M  V30 170 N 16.2591 1.48442 0.529413 0
M  V30 171 C 17.1891 1.65902 1.64313 0
M  V30 172 C 18.1701 0.507897 1.6234 0
M  V30 173 O 19.3551 0.740503 1.79528 0
M  V30 174 C 16.4851 1.69911 3.02898 0
M  V30 175 C 15.4391 2.8453 3.19729 0
M  V30 176 C 14.7651 2.73629 4.59381 0
M  V30 177 C 16.0651 4.25821 3.02447 0
M  V30 178 H 17.7591 2.5914 1.49955 0
M  V30 179 H 15.3051 1.24709 0.719982 0
M  V30 180 H 17.2581 1.80715 3.80684 0
M  V30 181 H 15.9821 0.732524 3.18279 0
M  V30 182 H 14.6411 2.73283 2.44361 0
M  V30 183 H 14.2891 1.74938 4.71599 0
M  V30 184 H 13.9891 3.50541 4.71588 0
M  V30 185 H 15.5131 2.86401 5.39265 0
M  V30 186 H 16.9271 4.37898 3.70024 0
M  V30 187 H 15.3241 5.03735 3.26146 0
M  V30 188 H 16.3941 4.42244 1.98867 0
M  V30 189 N 17.7372 -0.778329 1.37039 0
M  V30 190 C 19.1532 -1.07796 1.17695 0
M  V30 191 C 19.3532 -2.01498 0.00860115 0
M  V30 192 O 18.4092 -2.43901 -0.653352 0
M  V30 193 C 19.7222 -1.68178 2.49272 0
M  V30 194 C 21.2702 -1.80467 2.55735 0
M  V30 195 C 21.7452 -2.44263 3.87427 0
M  V30 196 N 23.2362 -2.51721 3.88833 0
M  V30 197 C 23.9712 -3.01919 4.87476 0
M  V30 198 N 23.4672 -3.5234 5.96513 0
M  V30 199 N 25.2602 -3.00733 4.74885 0
M  V30 200 H 17.4112 -0.156032 2.11826 0
M  V30 201 H 19.6742 -0.131844 0.938787 0
M  V30 202 H 19.3802 -1.06796 3.35093 0
M  V30 203 H 19.2542 -2.67554 2.65885 0
M  V30 204 H 21.6412 -2.40984 1.70325 0
M  V30 205 H 21.7222 -0.798656 2.43013 0
M  V30 206 H 21.3662 -1.84388 4.73248 0
M  V30 207 H 21.2962 -3.45458 3.9745 0
M  V30 208 H 23.7872 -2.1603 3.10063 0
M  V30 209 H 24.1002 -3.89027 6.67741 0
M  V30 210 H 22.4452 -3.50462 6.00168 0
M  V30 211 H 25.6362 -2.60638 3.88826 0
M  V30 212 H 25.8092 -3.39545 5.51918 0
M  V30 213 N 19.2153 -1.21501 -1.00376 0
M  V30 214 C 20.1253 -0.991447 -2.12621 0
M  V30 215 C 21.1413 0.0568446 -1.73907 0
M  V30 216 O 22.3173 -0.13348 -2.00957 0
M  V30 217 C 19.3823 -0.560312 -3.42142 0
M  V30 218 C 18.4433 -1.68096 -3.95022 0
M  V30 219 C 17.6763 -1.2703 -5.18362 0
M  V30 220 O 17.8993 -0.144438 -5.70217 0
M  V30 221 O 16.8333 -2.08269 -5.64719 0
M  V30 222 H 20.6593 -1.93158 -2.34358 0
M  V30 223 H 18.2443 -0.999999 -1.10997 0
M  V30 224 H 20.1263 -0.329724 -4.20108 0
M  V30 225 H 18.8013 0.351089 -3.2179 0
M  V30 226 H 17.7083 -1.96597 -3.18278 0
M  V30 227 H 19.0413 -2.56983 -4.19786 0
M  V30 228 N 20.6934 1.19889 -1.02296 0
M  V30 229 C 21.9394 1.89701 -0.717033 0
M  V30 230 C 22.2724 1.7905 0.751989 0
M  V30 231 O 21.5474 1.17891 1.547 0
M  V30 232 C 21.8304 3.40858 -1.16136 0
M  V30 233 C 21.6834 3.60411 -2.69117 0
M  V30 234 C 23.0024 4.33876 -0.737549 0
M  V30 235 H 20.1214 0.688874 -0.261957 0
M  V30 236 H 22.7634 1.41154 -1.27183 0
M  V30 237 H 20.9134 3.82335 -0.689342 0
M  V30 238 H 22.5854 3.28145 -3.2422 0
M  V30 239 H 20.8284 3.03665 -3.0979 0
M  V30 240 H 21.4994 4.66396 -2.95261 0
M  V30 241 H 23.9754 4.00081 -1.14344 0
M  V30 242 H 22.8514 5.38242 -1.0764 0
M  V30 243 H 23.1124 4.40628 0.360436 0
M  V30 244 N 22.1715 0.800033 1.35784 0
M  V30 245 C 23.3965 0.388511 2.03729 0
M  V30 246 C 23.8215 -0.990481 1.5991 0
M  V30 247 O 23.1795 -1.64013 0.772612 0
M  V30 248 C 23.2275 0.4726 3.5749 0
M  V30 249 O 22.3315 -0.51646 4.09153 0
M  V30 250 H 21.6725 0.163271 0.643614 0
M  V30 251 H 24.2025 1.0841 1.73518 0
M  V30 252 H 24.2125 0.34003 4.06581 0
M  V30 253 H 22.8875 1.47848 3.88734 0
M  V30 254 H 21.4645 -0.344673 3.71304 0
M  V30 255 N 23.6496 -1.47581 0.552962 0
M  V30 256 C 24.8976 -2.02082 0.0272703 0
M  V30 257 C 25.2186 -1.4301 -1.32563 0
M  V30 258 O 24.4886 -0.603745 -1.86365 0
M  V30 259 H 23.0686 -0.746966 0.00709182 0
M  V30 260 H 25.7306 -1.81033 0.722008 0
M  V30 261 H 24.8266 -3.12034 -0.0639951 0
M  V30 262 N 25.1277 -0.289203 -1.54924 0
M  V30 263 C 26.0577 0.58549 -2.2604 0
M  V30 264 C 27.0387 1.14753 -1.25562 0
M  V30 265 O 28.2237 1.17906 -1.54311 0
M  V30 266 C 25.3537 1.76305 -2.99222 0
M  V30 267 C 24.3077 1.33191 -4.06748 0
M  V30 268 C 23.6337 2.5937 -4.6758 0
M  V30 269 C 24.9337 0.471775 -5.20165 0
M  V30 270 H 26.6277 -0.00763532 -2.99399 0
M  V30 271 H 24.1737 -0.00511229 -1.43999 0
M  V30 272 H 26.1267 2.38097 -3.47689 0
M  V30 273 H 24.8507 2.38223 -2.23422 0
M  V30 274 H 23.5097 0.737121 -3.59113 0
M  V30 275 H 23.1577 3.19576 -3.88433 0
M  V30 276 H 22.8577 2.31228 -5.40192 0
M  V30 277 H 24.3817 3.21985 -5.18804 0
M  V30 278 H 25.7957 0.995056 -5.64599 0
M  V30 279 H 24.1927 0.284639 -5.99425 0
M  V30 280 H 25.2627 -0.506041 -4.82252 0
M  V30 281 N 26.6058 1.57591 -0.0167156 0
M  V30 282 C 27.5358 2.12496 0.967858 0
M  V30 283 C 28.5168 1.03807 1.34752 0
M  V30 284 O 29.7018 1.31577 1.42833 0
M  V30 285 C 26.8318 2.64194 2.25431 0
M  V30 286 C 25.7858 3.77559 2.01576 0
M  V30 287 C 25.1118 4.15636 3.36379 0
M  V30 288 C 26.4118 5.04151 1.36489 0
M  V30 289 H 28.1058 2.95013 0.510643 0
M  V30 290 H 25.6518 1.41915 0.244181 0
M  V30 291 H 27.6048 3.01236 2.94678 0
M  V30 292 H 26.3288 1.78821 2.73296 0
M  V30 293 H 24.9878 3.40937 1.34751 0
M  V30 294 H 24.6358 3.27263 3.81979 0
M  V30 295 H 24.3358 4.92022 3.21229 0
M  V30 296 H 25.8598 4.5525 4.06915 0
M  V30 297 H 27.2738 5.38857 1.95718 0
M  V30 298 H 25.6708 5.85453 1.31776 0
M  V30 299 H 26.7408 4.83733 0.336219 0
M  V30 300 N 28.0839 -0.256276 1.55502 0
M  V30 301 C 29.0309 -1.31714 1.89526 0
M  V30 302 C 30.0009 -1.4828 0.748479 0
M  V30 303 O 31.1859 -1.62416 1.00128 0
M  V30 304 C 28.3259 -2.66933 2.18725 0
M  V30 305 C 27.4389 -2.58452 3.4616 0
M  V30 306 C 26.5739 -3.85961 3.64976 0
M  V30 307 C 25.6129 -3.72059 4.86044 0
M  V30 308 N 24.7499 -4.9144 5.01429 0
M  V30 309 H 29.5899 -1.01998 2.80001 0
M  V30 310 H 27.1269 -0.492413 1.38613 0
M  V30 311 H 29.0849 -3.4563 2.33657 0
M  V30 312 H 27.7149 -2.94816 1.31466 0
M  V30 313 H 26.7669 -1.71374 3.3961 0
M  V30 314 H 28.0789 -2.44085 4.34999 0
M  V30 315 H 27.2329 -4.73101 3.79816 0
M  V30 316 H 25.9719 -4.03215 2.74353 0
M  V30 317 H 24.9769 -2.83302 4.7119 0
M  V30 318 H 26.2019 -3.56309 5.78118 0
M  V30 319 H 24.1479 -5.09072 4.13741 0
M  V30 320 H 24.0649 -4.79668 5.84341 0
M  V30 321 H 25.3329 -5.80104 5.20672 0
M  V30 322 N 29.562 -1.4872 -0.521534 0
M  V30 323 C 30.978 -1.35028 -0.850855 0
M  V30 324 C 31.178 -0.367712 -1.98116 0
M  V30 325 O 30.234 0.208037 -2.51642 0
M  V30 326 C 31.547 -2.75263 -1.21041 0
M  V30 327 C 33.095 -2.83813 -1.31981 0
M  V30 328 C 33.57 -4.24769 -1.71276 0
M  V30 329 N 35.061 -4.27482 -1.78363 0
M  V30 330 C 35.796 -5.33494 -2.1017 0
M  V30 331 N 35.292 -6.49775 -2.40343 0
M  V30 332 N 37.085 -5.20894 -2.11248 0
M  V30 333 H 29.236 -2.11214 0.22413 0
M  V30 334 H 31.499 -0.947252 0.0376439 0
M  V30 335 H 31.205 -3.48765 -0.453415 0
M  V30 336 H 31.079 -3.09327 -2.15863 0
M  V30 337 H 33.466 -2.10561 -2.06756 0
M  V30 338 H 33.547 -2.53358 -0.352596 0
M  V30 339 H 33.191 -4.9854 -0.970588 0
M  V30 340 H 33.121 -4.52673 -2.69062 0
M  V30 341 H 35.612 -3.43611 -1.57288 0
M  V30 342 H 35.925 -7.26402 -2.63743 0
M  V30 343 H 34.27 -6.53035 -2.37844 0
M  V30 344 H 37.461 -4.29065 -1.87139 0
M  V30 345 H 37.634 -6.03612 -2.35704 0
M  V30 346 N 31.0401 0.771051 -1.3745 0
M  V30 347 C 32.4561 1.07171 -1.18265 0
M  V30 348 C 32.6561 2.01491 -0.019287 0
M  V30 349 O 31.7121 2.44244 0.640408 0
M  V30 350 C 33.0251 1.66854 -2.50161 0
M  V30 351 C 34.5731 1.79109 -2.56689 0
M  V30 352 C 35.0481 2.42205 -3.88717 0
M  V30 353 N 36.5391 2.49655 -3.90162 0
M  V30 354 C 37.2741 2.9933 -4.8907 0
M  V30 355 N 36.7701 3.49172 -5.98374 0
M  V30 356 N 38.5631 2.9821 -4.76474 0
M  V30 357 H 30.7141 0.144796 -2.11906 0
M  V30 358 H 32.9771 0.126863 -0.939473 0
M  V30 359 H 32.6831 1.05017 -3.35655 0
M  V30 360 H 32.5571 2.6614 -2.673 0
M  V30 361 H 34.9441 2.40077 -1.71601 0
M  V30 362 H 35.0251 0.785757 -2.43433 0
M  V30 363 H 34.6691 1.81875 -4.74219 0
M  V30 364 H 34.5991 3.43345 -3.99276 0
M  V30 365 H 37.0901 2.14383 -3.11205 0
M  V30 366 H 37.4031 3.8548 -6.69795 0
M  V30 367 H 35.7481 3.47275 -6.02018 0
M  V30 368 H 38.9391 2.58572 -3.90203 0
M  V30 369 H 39.1121 3.36613 -5.53711 0
M  V30 370 N 32.5182 1.22032 0.997298 0
M  V30 371 C 33.7652 1.04222 1.73621 0
M  V30 372 C 34.0932 -0.423264 1.89839 0
M  V30 373 O 33.3482 -1.3302 1.43542 0
M  V30 374 C 33.6472 1.69345 3.14733 0
M  V30 375 C 33.3132 3.19226 3.18442 0
M  V30 376 C 31.9752 3.60124 3.19161 0
M  V30 377 C 34.3272 4.15181 3.15078 0
M  V30 378 C 31.6552 4.95467 3.14212 0
M  V30 379 C 34.0072 5.50495 3.1167 0
M  V30 380 C 32.6712 5.90779 3.10703 0
M  V30 381 H 31.9412 0.381374 0.635323 0
M  V30 382 H 34.5882 1.51732 1.16831 0
M  V30 383 H 32.8932 1.14147 3.74803 0
M  V30 384 H 34.5902 1.53059 3.7064 0
M  V30 385 H 31.1802 2.86659 3.18629 0
M  V30 386 H 35.3642 3.84605 3.13676 0
M  V30 387 H 30.6202 5.25916 3.11805 0
M  V30 388 H 34.7942 6.24576 3.08022 0
M  V30 389 H 32.4212 6.9562 3.06622 0
M  V30 390 N 33.9963 -1.19345 1.0293 0
M  V30 391 C 34.9463 -2.20472 0.58104 0
M  V30 392 C 35.9303 -1.56578 -0.370442 0
M  V30 393 O 37.1223 -1.75963 -0.191344 0
M  V30 394 C 34.2513 -3.43236 -0.066306 0
M  V30 395 C 33.3373 -4.14274 0.907642 0
M  V30 396 N 33.7283 -4.61492 2.07023 0
M  V30 397 C 32.0263 -4.39966 0.731177 0
M  V30 398 C 32.7273 -5.1605 2.68454 0
M  V30 399 N 31.7033 -5.06875 1.96414 0
M  V30 400 H 35.5053 -2.54659 1.46717 0
M  V30 401 H 33.0193 -1.35423 0.896345 0
M  V30 402 H 35.0163 -4.14927 -0.405068 0
M  V30 403 H 33.6763 -3.10549 -0.948118 0
M  V30 404 H 34.6873 -4.56304 2.44963 0
M  V30 405 H 31.3643 -4.17377 -0.101507 0
M  V30 406 H 32.7543 -5.6287 3.66915 0
M  V30 407 N 35.4744 -0.807222 -1.35358 0
M  V30 408 C 36.7204 -0.397594 -1.99476 0
M  V30 409 C 37.0754 1.02405 -1.62883 0
M  V30 410 O 36.3684 1.70077 -0.882282 0
M  V30 411 C 36.5624 -0.519036 -3.53611 0
M  V30 412 C 36.3914 -1.95094 -4.05177 0
M  V30 413 C 35.1614 -2.57945 -4.34503 0
M  V30 414 C 37.3594 -2.91558 -4.23673 0
M  V30 415 N 35.3414 -3.92539 -4.72003 0
M  V30 416 C 36.7124 -4.11024 -4.64176 0
M  V30 417 C 38.7674 -2.88381 -4.05883 0
M  V30 418 C 37.4704 -5.27745 -4.88751 0
M  V30 419 C 39.4964 -4.04306 -4.31614 0
M  V30 420 C 38.8584 -5.22519 -4.72391 0
M  V30 421 H 34.9574 -0.193274 -0.75774 0
M  V30 422 H 37.5414 -1.0486 -1.6405 0
M  V30 423 H 35.7124 0.101979 -3.88266 0
M  V30 424 H 37.4444 -0.0839321 -4.04613 0
M  V30 425 H 34.1994 -2.09295 -4.24844 0
M  V30 426 H 34.6234 -4.61836 -4.95011 0
M  V30 427 H 39.2654 -1.98137 -3.73499 0
M  V30 428 H 36.9834 -6.1856 -5.20008 0
M  V30 429 H 40.5694 -4.03229 -4.19402 0
M  V30 430 H 39.4494 -6.1073 -4.91913 0
M  V30 431 N 36.9525 1.47285 -0.560781 0
M  V30 432 C 38.1805 2.06855 -0.0430262 0
M  V30 433 C 38.5955 1.41291 1.25229 0
M  V30 434 O 37.9525 0.510648 1.7521 0
M  V30 435 C 38.0035 3.61178 0.152518 0
M  V30 436 O 37.7245 4.24285 -1.0915 0
M  V30 437 C 39.2255 4.37624 0.707145 0
M  V30 438 H 36.4455 0.669319 -0.0474652 0
M  V30 439 H 38.9895 1.89237 -0.77521 0
M  V30 440 H 37.1445 3.78298 0.834843 0
M  V30 441 H 37.5585 5.16868 -0.891482 0
M  V30 442 H 39.0325 5.46271 0.793244 0
M  V30 443 H 39.5095 4.04152 1.71923 0
M  V30 444 H 40.1155 4.25257 0.0604027 0
M  V30 445 N 38.4306 0.297415 1.54768 0
M  V30 446 C 39.3936 -0.567375 2.22066 0
M  V30 447 C 40.3936 -1.06409 1.20556 0
M  V30 448 O 41.5836 -0.960691 1.45315 0
M  V30 449 C 38.7156 -1.78517 2.90421 0
M  V30 450 H 39.9086 0.0205534 2.99893 0
M  V30 451 H 37.4616 0.0482163 1.56226 0
M  V30 452 H 38.1966 -2.41303 2.16664 0
M  V30 453 H 37.9816 -1.43669 3.64831 0
M  V30 454 H 39.4716 -2.39964 3.41771 0
M  V30 455 N 39.9087 -1.5758 0.0250728 0
M  V30 456 C 41.3197 -1.79476 -0.514323 0
M  V30 457 C 41.6707 -0.934956 -1.72491 0
M  V30 458 O 40.7957 -0.144245 -2.15919 0
M  V30 459 C 41.3907 -3.25503 -0.939842 0
M  V30 460 C 39.9497 -3.48408 -1.42438 0
M  V30 461 C 39.0967 -2.74583 -0.387201 0
M  V30 462 H 42.0477 -1.567 0.25113 0
M  V30 463 H 42.0687 -3.34992 -1.80445 0
M  V30 464 H 41.5807 -3.88056 -0.0585628 0
M  V30 465 H 39.6817 -2.91103 -2.32572 0
M  V30 466 H 39.7947 -4.57119 -1.43455 0
M  V30 467 H 38.1587 -2.39942 -0.854409 0
M  V30 468 H 38.9417 -3.39849 0.485543 0
M  V30 469 N 41.3868 0.248026 -1.55636 0
M  V30 470 C 42.3498 1.29044 -1.89421 0
M  V30 471 C 43.3498 1.41134 -0.770581 0
M  V30 472 O 44.5398 1.39854 -1.03858 0
M  V30 473 C 41.6718 2.66831 -2.12165 0
M  V30 474 H 42.8648 1.00305 -2.82629 0
M  V30 475 H 40.4178 0.487265 -1.48511 0
M  V30 476 H 41.1528 3.00711 -1.21422 0
M  V30 477 H 40.9378 2.59438 -2.93997 0
M  V30 478 H 42.4278 3.42103 -2.3949 0
M  V30 479 N 42.8649 1.48995 0.513639 0
M  V30 480 C 43.8279 1.64229 1.59879 0
M  V30 481 C 44.8279 0.514696 1.5234 0
M  V30 482 O 46.0179 0.78087 1.55718 0
M  V30 483 C 43.1499 1.62783 2.99524 0
M  V30 484 H 44.3429 2.61004 1.47705 0
M  V30 485 H 41.8959 1.37837 0.736936 0
M  V30 486 H 42.6309 0.675461 3.17188 0
M  V30 487 H 42.4159 2.4466 3.06404 0
M  V30 488 H 43.9059 1.76669 3.78388 0
M  V30 489 N 44.343 -0.763751 1.37857 0
M  V30 490 C 45.273 -1.89103 1.36975 0
M  V30 491 C 46.254 -1.68439 0.237152 0
M  V30 492 O 47.439 -1.8918 0.438713 0
M  V30 493 C 44.569 -3.26496 1.18395 0
M  V30 494 C 43.523 -3.61741 2.28751 0
M  V30 495 C 42.849 -4.97762 1.95286 0
M  V30 496 C 44.149 -3.67665 3.70972 0
M  V30 497 H 45.843 -1.90099 2.31307 0
M  V30 498 H 43.389 -0.91319 1.11341 0
M  V30 499 H 45.342 -4.05003 1.16406 0
M  V30 500 H 44.066 -3.25955 0.205215 0
M  V30 501 H 42.725 -2.85547 2.29909 0
M  V30 502 H 42.373 -4.93769 0.959221 0
M  V30 503 H 42.073 -5.22313 2.69189 0
M  V30 504 H 43.597 -5.7866 1.94898 0
M  V30 505 H 45.011 -4.36307 3.719 0
M  V30 506 H 43.408 -4.03718 4.43995 0
M  V30 507 H 44.478 -2.68134 4.0402 0
M  V30 508 N 45.8211 -1.22559 -0.990812 0
M  V30 509 C 46.7531 -0.955325 -2.08342 0
M  V30 510 C 47.7661 0.0668408 -1.62663 0
M  V30 511 O 48.9551 -0.167421 -1.77713 0
M  V30 512 C 46.0551 -0.415566 -3.36342 0
M  V30 513 C 45.2281 -1.49544 -4.11042 0
M  V30 514 C 44.2871 -0.962399 -5.17324 0
M  V30 515 O 43.3131 -1.64907 -5.44788 0
M  V30 516 N 44.5151 0.215134 -5.80101 0
M  V30 517 H 47.2801 -1.89596 -2.32106 0
M  V30 518 H 44.8411 -1.13276 -1.15673 0
M  V30 519 H 46.8331 -0.0442386 -4.04676 0
M  V30 520 H 45.4031 0.430232 -3.09625 0
M  V30 521 H 44.6231 -2.04 -3.37309 0
M  V30 522 H 45.9111 -2.22195 -4.57719 0
M  V30 523 H 45.3091 0.789779 -5.6016 0
M  V30 524 H 43.8661 0.527826 -6.49659 0
M  V30 525 N 47.2992 1.18797 -1.03562 0
M  V30 526 C 48.5452 1.8893 -0.737113 0
M  V30 527 C 48.8782 1.79837 0.732956 0
M  V30 528 O 48.1532 1.19525 1.5344 0
M  V30 529 C 48.4362 3.39607 -1.19745 0
M  V30 530 C 48.2892 3.57537 -2.72924 0
M  V30 531 C 49.6082 4.33069 -0.783526 0
M  V30 532 H 46.7272 0.686057 -0.269249 0
M  V30 533 H 49.3692 1.39797 -1.28673 0
M  V30 534 H 47.5192 3.81583 -0.729855 0
M  V30 535 H 49.1912 3.24688 -3.27682 0
M  V30 536 H 47.4342 3.00363 -3.12993 0
M  V30 537 H 48.1052 4.63238 -3.00191 0
M  V30 538 H 50.5812 3.98846 -1.18581 0
M  V30 539 H 49.4572 5.3707 -1.13343 0
M  V30 540 H 49.7182 4.40986 0.313681 0
M  V30 541 N 48.7773 0.814389 1.34928 0
M  V30 542 C 50.0053 0.411136 2.02774 0
M  V30 543 C 50.4203 -0.980316 1.61354 0
M  V30 544 O 49.7773 -1.63299 0.814847 0
M  V30 545 C 49.8283 0.493865 3.58111 0
M  V30 546 O 49.5493 1.83047 3.98027 0
M  V30 547 C 51.0503 0.0844174 4.4322 0
M  V30 548 H 48.2703 0.166037 0.650133 0
M  V30 549 H 50.8143 1.10018 1.72384 0
M  V30 550 H 48.9693 -0.147006 3.87121 0
M  V30 551 H 49.3833 1.79872 4.92693 0
M  V30 552 H 50.8573 0.193404 5.51661 0
M  V30 553 H 51.3343 -0.97113 4.28329 0
M  V30 554 H 51.9403 0.69875 4.19521 0
M  V30 555 N 50.2554 -1.46986 0.568584 0
M  V30 556 C 51.5014 -2.02741 0.0488709 0
M  V30 557 C 51.8344 -1.44077 -1.30214 0
M  V30 558 O 51.1094 -0.600552 -1.84996 0
M  V30 559 C 51.3924 -3.60086 -0.032047 0
M  V30 560 C 51.2454 -4.29162 1.34686 0
M  V30 561 C 52.5644 -4.33838 -0.739798 0
M  V30 562 H 49.6834 -0.736749 0.0192338 0
M  V30 563 H 52.3254 -1.75289 0.733065 0
M  V30 564 H 50.4754 -3.83606 -0.61473 0
M  V30 565 H 52.1474 -4.16948 1.97362 0
M  V30 566 H 50.3904 -3.89073 1.91846 0
M  V30 567 H 51.0614 -5.37826 1.24285 0
M  V30 568 H 53.5374 -4.15378 -0.244939 0
M  V30 569 H 52.4134 -5.43537 -0.765406 0
M  V30 570 H 52.6744 -4.03875 -1.79827 0
M  V30 571 N 51.7335 -0.305618 -1.54608 0
M  V30 572 C 53.1495 0.0476228 -1.59529 0
M  V30 573 C 53.3495 1.52025 -1.32252 0
M  V30 574 O 52.4055 2.27368 -1.09818 0
M  V30 575 C 53.7185 -0.354471 -2.98603 0
M  V30 576 C 55.2665 -0.303622 -3.11524 0
M  V30 577 C 55.7415 -0.680608 -4.52915 0
M  V30 578 N 57.2325 -0.63332 -4.5885 0
M  V30 579 C 57.9675 -0.897432 -5.66334 0
M  V30 580 N 57.4635 -1.22775 -6.81834 0
M  V30 581 N 59.2565 -0.824186 -5.56025 0
M  V30 582 H 51.4075 -1.2653 -1.70599 0
M  V30 583 H 53.6705 -0.513291 -0.797017 0
M  V30 584 H 53.3765 -1.3798 -3.23503 0
M  V30 585 H 53.2505 0.289568 -3.76087 0
M  V30 586 H 55.6375 0.712472 -2.8637 0
M  V30 587 H 55.7185 -0.982348 -2.36185 0
M  V30 588 H 55.3625 -1.69453 -4.78799 0
M  V30 589 H 55.2925 0.0202385 -5.26596 0
M  V30 590 H 57.7835 -0.389138 -3.75891 0
M  V30 591 H 58.0965 -1.41513 -7.59733 0
M  V30 592 H 56.4415 -1.26583 -6.83375 0
M  V30 593 H 59.6325 -0.565748 -4.64669 0
M  V30 594 H 59.8055 -1.03338 -6.39707 0
M  V30 595 N 53.2116 1.57565 -0.0334293 0
M  V30 596 C 54.4886 1.83282 0.683163 0
M  V30 597 C 54.8686 0.91823 1.90084 0
M  V30 598 O 54.2166 -0.025113 2.28486 0
M  V30 599 C 54.4266 3.32599 1.0573 0
M  V30 600 C 55.7746 3.99179 1.44711 0
M  V30 601 O 56.7986 3.3712 1.15015 0
M  V30 602 O 55.6576 5.08565 2.0006 0
M  V30 603 H 52.7516 0.755869 0.335546 0
M  V30 604 H 55.2976 1.69589 -0.0614402 0
M  V30 605 H 54.0696 3.90834 0.190828 0
M  V30 606 H 53.6926 3.51415 1.85993 0
M  V30 607 N 54.6897 -0.239769 1.55765 0
M  V30 608 C 55.6527 -1.28038 1.90103 0
M  V30 609 C 56.6527 -1.40723 0.778055 0
M  V30 610 O 57.8427 -1.39301 1.04599 0
M  V30 611 C 54.9747 -2.65702 2.13577 0
M  V30 612 H 56.1677 -0.988048 2.83157 0
M  V30 613 H 53.7207 -0.479382 1.48767 0
M  V30 614 H 54.4557 -3.00063 1.23015 0
M  V30 615 H 54.2407 -2.57875 2.95369 0
M  V30 616 H 55.7307 -3.40828 2.41301 0
M  V30 617 N 56.1678 -1.49265 -0.50573 0
M  V30 618 C 57.4168 -1.57761 -1.25675 0
M  V30 619 C 57.7298 -0.267371 -1.93764 0
M  V30 620 O 58.9358 -0.230827 -2.70517 0
M  V30 621 C 57.3918 -2.78332 -2.28165 0
M  V30 622 C 56.9998 -4.16096 -1.66037 0
M  V30 623 C 58.7438 -2.96155 -3.04125 0
M  V30 624 C 56.6508 -5.27895 -2.6661 0
M  V30 625 H 55.5808 -0.587391 -0.472745 0
M  V30 626 H 58.2318 -1.75644 -0.53118 0
M  V30 627 H 56.6138 -2.53934 -3.03865 0
M  V30 628 H 57.7878 -4.50612 -0.963622 0
M  V30 629 H 56.1028 -4.03591 -1.02484 0
M  V30 630 H 58.6998 -3.76849 -3.79327 0
M  V30 631 H 59.0428 -2.06534 -3.61455 0
M  V30 632 H 59.5758 -3.2057 -2.35541 0
M  V30 633 H 56.3148 -6.1956 -2.14068 0
M  V30 634 H 55.8348 -4.97839 -3.34539 0
M  V30 635 H 57.5138 -5.57031 -3.29129 0
M  V30 636 N 57.6459 0.756429 -1.3826 0
M  V30 637 C 58.5939 1.89149 -1.35372 0
M  V30 638 C 59.5879 1.67691 -0.24004 0
M  V30 639 O 60.7939 1.75294 -0.408919 0
M  V30 640 H 57.1689 0.622271 -0.422236 0
M  V30 641 H 59.1399 1.88701 -2.31159 0
M  V30 642 C 57.8889 3.26599 -1.19284 0
M  V30 643 H 57.2119 3.43695 -2.0424 0
M  V30 644 H 58.6519 4.06274 -1.21316 0
M  V30 645 C 57.1109 3.3675 0.100454 0
M  V30 646 O 57.6409 3.86951 1.07851 0
M  V30 647 N 55.8469 2.90179 0.15633 0
M  V30 648 H 55.3939 2.49517 -0.640253 0
M  V30 649 H 55.3519 2.97352 1.02123 0
M  V30 650 N 59.124 1.23083 0.984299 0
M  V30 651 C 60.056 0.96636 2.07832 0
M  V30 652 C 61.069 -0.0582135 1.62696 0
M  V30 653 O 62.258 0.176843 1.77622 0
M  V30 654 C 59.358 0.433397 3.36117 0
M  V30 655 C 58.531 1.51722 4.10243 0
M  V30 656 C 57.59 0.989821 5.16807 0
M  V30 657 O 56.616 1.67794 5.43906 0
M  V30 658 N 57.818 -0.184367 5.80207 0
M  V30 659 H 60.583 1.90824 2.31098 0
M  V30 660 H 58.144 1.13888 1.1507 0
M  V30 661 H 60.136 0.065699 4.04647 0
M  V30 662 H 58.706 -0.413806 3.09849 0
M  V30 663 H 57.926 2.05786 3.36223 0
M  V30 664 H 59.214 2.24619 4.56534 0
M  V30 665 H 58.612 -0.760062 5.60571 0
M  V30 666 H 57.169 -0.493366 6.4993 0
M  V30 667 N 60.6021 -1.18246 1.0419 0
M  V30 668 C 61.8501 -1.87886 0.744543 0
M  V30 669 C 62.1711 -1.8082 -0.730006 0
M  V30 670 O 61.4411 -1.22736 -1.52685 0
M  V30 671 H 60.0211 -0.695556 0.272417 0
M  V30 672 H 62.6831 -1.43494 1.31892 0
M  V30 673 H 61.7791 -2.9389 1.05049 0
M  V30 674 N 62.0802 -0.821533 -1.34494 0
M  V30 675 C 63.0132 -0.187704 -2.27427 0
M  V30 676 C 63.9912 0.65507 -1.48821 0
M  V30 677 O 65.1752 0.619111 -1.78043 0
M  V30 678 C 62.3022 0.737996 -3.30562 0
M  V30 679 C 61.3482 -0.0270713 -4.26491 0
M  V30 680 S 62.1812 -1.37329 -5.17592 0
M  V30 681 C 63.3372 -0.452427 -6.24263 0
M  V30 682 H 63.5702 -0.975598 -2.80837 0
M  V30 683 H 61.1032 -0.61736 -1.4152 0
M  V30 684 H 63.0612 1.26654 -3.90473 0
M  V30 685 H 61.7222 1.4994 -2.76001 0
M  V30 686 H 60.9152 0.6766 -4.99438 0
M  V30 687 H 60.5172 -0.48612 -3.70827 0
M  V30 688 H 62.8092 0.356557 -6.76561 0
M  V30 689 H 63.7522 -1.15153 -6.98674 0
M  V30 690 H 64.1602 -0.0414755 -5.64485 0
M  V30 691 N 63.5583 1.46682 -0.576371 0
M  V30 692 C 64.8353 1.95599 0.00703437 0
M  V30 693 C 65.2153 1.51904 1.46589 0
M  V30 694 O 64.5633 0.766755 2.15251 0
M  V30 695 C 64.7733 3.4864 -0.158404 0
M  V30 696 C 66.1213 4.24594 -0.0229439 0
M  V30 697 O 67.1453 3.56094 -0.0869173 0
M  V30 698 O 66.0043 5.46373 0.118015 0
M  V30 699 H 63.0983 0.825275 0.053384 0
M  V30 700 H 65.6443 1.56996 -0.644244 0
M  V30 701 H 64.4163 3.7331 -1.17282 0
M  V30 702 H 64.0393 3.94057 0.5296 0
M  V30 703 N 65.0364 0.313813 1.54444 0
M  V30 704 C 65.9464 -0.565714 2.27677 0
M  V30 705 C 66.9624 -1.13754 1.31666 0
M  V30 706 O 68.1384 -1.15959 1.64668 0
M  V30 707 C 65.2034 -1.71528 3.01296 0
M  V30 708 C 64.2644 -1.17624 4.12872 0
M  V30 709 C 63.4974 -2.27102 4.8297 0
M  V30 710 O 63.7204 -3.47256 4.52514 0
M  V30 711 O 62.6544 -1.9307 5.70094 0
M  V30 712 H 66.4804 0.0287296 3.03686 0
M  V30 713 H 64.0654 0.0798312 1.49187 0
M  V30 714 H 65.9474 -2.38476 3.4743 0
M  V30 715 H 64.6224 -2.29608 2.2817 0
M  V30 716 H 63.5294 -0.472124 3.71109 0
M  V30 717 H 64.8624 -0.640695 4.88012 0
M  V30 718 N 66.5145 -1.57545 0.0417849 0
M  V30 719 C 67.4245 -2.14451 -0.951213 0
M  V30 720 C 68.4405 -1.09992 -1.34825 0
M  V30 721 O 69.6165 -1.42114 -1.42708 0
M  V30 722 C 66.6815 -2.67063 -2.21084 0
M  V30 723 C 65.7425 -3.86284 -1.87304 0
M  V30 724 C 64.9755 -4.36378 -3.07261 0
M  V30 725 O 65.1985 -3.85587 -4.20332 0
M  V30 726 O 64.1325 -5.28077 -2.88822 0
M  V30 727 H 67.9585 -2.99601 -0.497287 0
M  V30 728 H 65.5435 -1.48317 -0.179567 0
M  V30 729 H 67.4255 -3.00914 -2.95006 0
M  V30 730 H 66.1005 -1.84989 -2.65633 0
M  V30 731 H 65.0075 -3.57338 -1.10727 0
M  V30 732 H 66.3405 -4.6956 -1.47562 0
M  V30 733 N 67.9926 0.231505 -1.5589 0
M  V30 734 C 68.9226 1.29022 -1.94617 0
M  V30 735 C 69.9036 1.4941 -0.813067 0
M  V30 736 O 71.0886 1.6176 -1.07459 0
M  V30 737 C 68.2186 2.64199 -2.25424 0
M  V30 738 C 67.1726 2.58484 -3.41131 0
M  V30 739 C 66.4986 3.97599 -3.57518 0
M  V30 740 C 67.7986 2.1413 -4.76388 0
M  V30 741 H 69.4926 0.968563 -2.83301 0
M  V30 742 H 67.0386 0.464479 -1.36303 0
M  V30 743 H 68.9916 3.38413 -2.51107 0
M  V30 744 H 67.7156 2.98032 -1.33583 0
M  V30 745 H 66.3746 1.86727 -3.15481 0
M  V30 746 H 66.0226 4.28723 -2.6307 0
M  V30 747 H 65.7226 3.94659 -4.35337 0
M  V30 748 H 67.2466 4.7349 -3.85538 0
M  V30 749 H 68.6606 2.78083 -5.01341 0
M  V30 750 H 67.0576 2.2227 -5.57419 0
M  V30 751 H 68.1276 1.09331 -4.72414 0
M  V30 752 N 69.4707 1.49531 0.497807 0
M  V30 753 C 70.3807 1.69176 1.62532 0
M  V30 754 C 71.3967 0.5744 1.64246 0
M  V30 755 O 72.5727 0.849497 1.82608 0
M  V30 756 C 69.6377 1.75695 2.98885 0
M  V30 757 C 68.6987 2.9929 3.07773 0
M  V30 758 C 67.9317 3.05488 4.37622 0
M  V30 759 O 68.1547 2.19192 5.26603 0
M  V30 760 O 67.0887 3.9798 4.51548 0
M  V30 761 H 70.9147 2.647 1.48887 0
M  V30 762 H 68.4997 1.3331 0.674441 0
M  V30 763 H 70.3817 1.82317 3.79919 0
M  V30 764 H 69.0567 0.8335 3.12785 0
M  V30 765 H 67.9637 2.98183 2.25915 0
M  V30 766 H 69.2967 3.91125 2.98801 0
M  V30 767 N 70.9488 -0.749086 1.3866 0
M  V30 768 C 72.3648 -1.05276 1.19955 0
M  V30 769 C 72.5648 -2.01435 0.05134 0
M  V30 770 O 71.6208 -2.45232 -0.60147 0
M  V30 771 C 72.9338 -1.62853 2.52783 0
M  V30 772 C 74.4818 -1.75002 2.59506 0
M  V30 773 C 74.9568 -2.35991 3.92521 0
M  V30 774 N 76.4478 -2.43416 3.94085 0
M  V30 775 C 77.1828 -2.91511 4.9377 0
M  V30 776 N 76.6788 -3.39608 6.03853 0
M  V30 777 N 78.4718 -2.90592 4.81157 0
M  V30 778 H 70.6228 -0.111066 2.12109 0
M  V30 779 H 72.8858 -0.111901 0.941373 0
M  V30 780 H 72.5918 -0.99664 3.37283 0
M  V30 781 H 72.4658 -2.61854 2.715 0
M  V30 782 H 74.8528 -2.37317 1.75398 0
M  V30 783 H 74.9338 -0.74693 2.44652 0
M  V30 784 H 74.5778 -1.74308 4.77053 0
M  V30 785 H 74.5078 -3.3695 4.04688 0
M  V30 786 H 76.9988 -2.09405 3.14576 0
M  V30 787 H 77.3118 -3.74775 6.75843 0
M  V30 788 H 75.6568 -3.37653 6.07466 0
M  V30 789 H 78.8478 -2.52332 3.94267 0
M  V30 790 H 79.0208 -3.27762 5.58996 0
M  V30 791 N 72.4269 -1.23603 -0.977757 0
M  V30 792 C 73.7039 -0.977897 -1.69401 0
M  V30 793 C 74.0839 0.502738 -2.05026 0
M  V30 794 O 73.4319 1.47459 -1.74551 0
M  V30 795 C 73.6419 -1.89077 -2.93345 0
M  V30 796 C 74.9899 -2.15579 -3.65802 0
M  V30 797 O 76.0139 -1.86648 -3.03383 0
M  V30 798 O 74.8729 -2.64658 -4.78141 0
M  V30 799 H 71.9669 -0.369025 -0.740101 0
M  V30 800 H 74.5129 -1.34657 -1.03274 0
M  V30 801 H 73.2849 -2.89158 -2.63634 0
M  V30 802 H 72.9079 -1.52463 -3.67207 0
M  V30 803 N 73.905 1.17692 -1.04816 0
M  V30 804 C 74.815 2.25229 -0.65643 0
M  V30 805 C 75.831 1.71018 0.320761 0
M  V30 806 O 77.007 2.00649 0.173805 0
M  V30 807 C 74.072 3.46684 -0.0332629 0
M  V30 808 C 73.133 4.15997 -1.06042 0
M  V30 809 C 72.366 5.31654 -0.466893 0
M  V30 810 O 72.589 5.65777 0.724758 0
M  V30 811 O 71.523 5.89831 -1.1993 0
M  V30 812 H 75.349 2.61016 -1.55255 0
M  V30 813 H 72.934 1.24919 -0.81949 0
M  V30 814 H 74.816 4.20234 0.313256 0
M  V30 815 H 73.491 3.12703 0.836566 0
M  V30 816 H 72.398 3.44482 -1.45886 0
M  V30 817 H 73.731 4.53996 -1.90127 0
M  V30 818 N 75.3831 0.828654 1.34056 0
M  V30 819 C 76.3301 0.252567 2.29414 0
M  V30 820 C 77.3001 -0.62588 1.53857 0
M  V30 821 O 78.4851 -0.566312 1.82202 0
M  V30 822 C 75.6251 -0.574831 3.40279 0
M  V30 823 C 74.7381 0.326499 4.30764 0
M  V30 824 C 73.8731 -0.511016 5.28736 0
M  V30 825 C 72.9121 0.389342 6.1086 0
M  V30 826 N 72.0491 -0.409439 7.00905 0
M  V30 827 H 76.8891 1.07108 2.78086 0
M  V30 828 H 74.4261 0.539677 1.36843 0
M  V30 829 H 76.3841 -1.06992 4.03248 0
M  V30 830 H 75.0141 -1.35841 2.92826 0
M  V30 831 H 74.0661 0.939837 3.68607 0
M  V30 832 H 75.3781 1.01857 4.88289 0
M  V30 833 H 74.5321 -1.07035 5.97184 0
M  V30 834 H 73.2711 -1.23657 4.71763 0
M  V30 835 H 72.2761 0.960769 5.4134 0
M  V30 836 H 73.5011 1.1131 6.69916 0
M  V30 837 H 71.4471 -1.11856 6.46393 0
M  V30 838 H 71.3641 0.224126 7.55668 0
M  V30 839 H 72.6321 -0.951336 7.73673 0
M  V30 840 N 76.8612 -1.46375 0.584142 0
M  V30 841 C 78.1072 -2.02678 0.0703716 0
M  V30 842 C 78.4402 -1.4545 -1.28678 0
M  V30 843 O 77.7152 -0.62014 -1.84349 0
M  V30 844 C 77.9982 -3.60099 0.00614674 0
M  V30 845 C 77.8512 -4.27709 1.3923 0
M  V30 846 C 79.1702 -4.34598 -0.693742 0
M  V30 847 H 76.2892 -0.736504 0.027047 0
M  V30 848 H 78.9312 -1.74501 0.751615 0
M  V30 849 H 77.0812 -3.84236 -0.574009 0
M  V30 850 H 78.7532 -4.14832 2.01773 0
M  V30 851 H 76.9962 -3.87016 1.95962 0
M  V30 852 H 77.6672 -5.36478 1.29982 0
M  V30 853 H 80.1432 -4.15615 -0.200869 0
M  V30 854 H 79.0192 -5.44318 -0.707714 0
M  V30 855 H 79.2802 -4.05759 -1.75533 0
M  V30 856 N 78.3393 -0.321999 -1.54275 0
M  V30 857 C 79.5863 0.281044 -2.0054 0
M  V30 858 C 79.9143 1.52265 -1.21019 0
M  V30 859 O 79.1693 1.93687 -0.279982 0
M  V30 860 C 79.4683 0.661769 -3.5122 0
M  V30 861 C 79.1343 -0.480482 -4.48333 0
M  V30 862 C 77.7963 -0.794005 -4.74604 0
M  V30 863 C 80.1483 -1.24783 -5.06042 0
M  V30 864 C 77.4763 -1.87763 -5.55844 0
M  V30 865 C 79.8283 -2.32153 -5.88462 0
M  V30 866 C 78.4923 -2.64089 -6.13036 0
M  V30 867 H 77.7623 0.102841 -0.733829 0
M  V30 868 H 80.4093 -0.445453 -1.86247 0
M  V30 869 H 78.7143 1.46867 -3.63232 0
M  V30 870 H 80.4113 1.13989 -3.84457 0
M  V30 871 H 77.0013 -0.226039 -4.28004 0
M  V30 872 H 81.1853 -1.01887 -4.85729 0
M  V30 873 H 76.4413 -2.12954 -5.73115 0
M  V30 874 H 80.6153 -2.92057 -6.32199 0
M  V30 875 H 78.2423 -3.48185 -6.75775 0
M  V30 876 N 79.8174 1.5752 -0.0501392 0
M  V30 877 C 80.7474 2.14502 0.922566 0
M  V30 878 C 81.7284 1.06642 1.3252 0
M  V30 879 O 82.9134 1.34577 1.4001 0
M  V30 880 C 80.0434 2.68916 2.19776 0
M  V30 881 C 78.9974 3.8175 1.93523 0
M  V30 882 C 78.3234 4.22677 3.27487 0
M  V30 883 C 79.6234 5.06932 1.25765 0
M  V30 884 H 81.3174 2.9603 0.447952 0
M  V30 885 H 78.8634 1.42401 0.214024 0
M  V30 886 H 80.8164 3.07419 2.88222 0
M  V30 887 H 79.5404 1.84578 2.69441 0
M  V30 888 H 78.1994 3.43718 1.27489 0
M  V30 889 H 77.8474 3.35291 3.74952 0
M  V30 890 H 77.5474 4.98725 3.1072 0
M  V30 891 H 79.0714 4.63779 3.97166 0
M  V30 892 H 80.4854 5.42888 1.84244 0
M  V30 893 H 78.8824 5.88116 1.19328 0
M  V30 894 H 79.9524 4.84337 0.233536 0
M  V30 895 N 81.2955 -0.223234 1.56011 0
M  V30 896 C 82.2255 -1.27988 1.95298 0
M  V30 897 C 83.2065 -1.48976 0.820979 0
M  V30 898 O 84.3915 -1.61188 1.08315 0
M  V30 899 C 81.5215 -2.63 2.26822 0
M  V30 900 C 80.4755 -2.56671 3.42497 0
M  V30 901 C 79.8015 -3.95697 3.59622 0
M  V30 902 C 81.1015 -2.11601 4.77517 0
M  V30 903 H 82.7955 -0.953525 2.8381 0
M  V30 904 H 80.3415 -0.457244 1.36548 0
M  V30 905 H 82.2945 -3.37077 2.52898 0
M  V30 906 H 81.0185 -2.9732 1.35161 0
M  V30 907 H 79.6775 -1.85051 3.16467 0
M  V30 908 H 79.3255 -4.27322 2.6534 0
M  V30 909 H 79.0255 -3.92345 4.37424 0
M  V30 910 H 80.5495 -4.71438 3.88044 0
M  V30 911 H 81.9635 -2.7542 5.02809 0
M  V30 912 H 80.3605 -2.19311 5.5859 0
M  V30 913 H 81.4305 -1.06824 4.72987 0
M  V30 914 N 82.7736 -1.49793 -0.48987 0
M  V30 915 C 84.0216 -1.59525 -1.24081 0
M  V30 916 C 84.3426 -0.288953 -1.92847 0
M  V30 917 O 83.6126 0.692436 -1.83254 0
M  V30 918 H 82.1926 -0.587796 -0.460983 0
M  V30 919 H 84.8546 -1.86477 -0.566778 0
M  V30 920 H 83.9506 -2.39696 -1.99881 0
M  V30 921 N 84.2517 0.741722 -1.39055 0
M  V30 922 C 85.1617 1.88621 -1.39496 0
M  V30 923 C 86.1777 1.71557 -0.290578 0
M  V30 924 O 87.3537 1.94275 -0.530954 0
M  V30 925 C 84.4187 3.24134 -1.23037 0
M  V30 926 C 83.4797 3.5364 -2.43387 0
M  V30 927 C 82.7127 4.82687 -2.27703 0
M  V30 928 O 82.9357 5.55922 -1.27696 0
M  V30 929 O 81.8697 5.1194 -3.16545 0
M  V30 930 H 85.6957 1.91203 -2.35956 0
M  V30 931 H 83.2807 0.888625 -1.20099 0
M  V30 932 H 85.1627 4.0513 -1.15964 0
M  V30 933 H 83.8377 3.22337 -0.296691 0
M  V30 934 H 82.7447 2.72758 -2.56035 0
M  V30 935 H 84.0777 3.60209 -3.35425 0
M  V30 936 N 85.7298 1.2412 0.971189 0
M  V30 937 C 86.6398 1.04747 2.09917 0
M  V30 938 C 87.6558 -0.0107162 1.73997 0
M  V30 939 O 88.8318 0.186714 2.00533 0
M  V30 940 C 85.8968 0.650828 3.40537 0
M  V30 941 C 84.9578 1.7851 3.90426 0
M  V30 942 C 84.1908 1.40729 5.14812 0
M  V30 943 O 84.4138 0.29557 5.69634 0
M  V30 944 O 83.3478 2.23168 5.58999 0
M  V30 945 H 87.1738 1.99304 2.29154 0
M  V30 946 H 84.7588 1.02908 1.08307 0
M  V30 947 H 86.6408 0.440992 4.19086 0
M  V30 948 H 85.3158 -0.265649 3.22608 0
M  V30 949 H 84.2228 2.04966 3.12953 0
M  V30 950 H 85.5558 2.68023 4.12825 0
M  V30 951 N 87.2079 -1.17134 1.05439 0
M  V30 952 C 88.4539 -1.87733 0.767077 0
M  V30 953 C 88.7869 -1.8098 -0.704253 0
M  V30 954 O 88.0619 -1.21951 -1.5152 0
M  V30 955 C 88.3449 -3.37659 1.25133 0
M  V30 956 C 88.1979 -3.53149 2.78578 0
M  V30 957 C 89.5169 -4.31768 0.852324 0
M  V30 958 H 86.6359 -0.681687 0.280129 0
M  V30 959 H 89.2779 -1.37732 1.30881 0
M  V30 960 H 87.4279 -3.80373 0.790469 0
M  V30 961 H 89.0999 -3.19434 3.32806 0
M  V30 962 H 87.3429 -2.95345 3.17732 0
M  V30 963 H 88.0139 -4.58403 3.07523 0
M  V30 964 H 90.4899 -3.96909 1.24911 0
M  V30 965 H 89.3659 -5.35199 1.21873 0
M  V30 966 H 89.6269 -4.41429 -0.243485 0
M  V30 967 N 88.686 -0.835752 -1.33615 0
M  V30 968 C 89.649 -0.272 -2.2758 0
M  V30 969 C 90.649 0.557487 -1.50827 0
M  V30 970 O 91.839 0.37173 -1.70188 0
M  V30 971 C 88.971 0.617173 -3.35267 0
M  V30 972 H 90.164 -1.10111 -2.78954 0
M  V30 973 H 87.717 -0.608594 -1.43965 0
M  V30 974 H 88.452 1.46884 -2.89129 0
M  V30 975 H 88.237 0.0237066 -3.92093 0
M  V30 976 H 89.727 1.005 -4.05326 0
M  V30 977 N 90.1641 1.46063 -0.591896 0
M  V30 978 C 91.0961 2.28539 0.174001 0
M  V30 979 C 92.1091 1.39047 0.846753 0
M  V30 980 O 93.2981 1.63564 0.714774 0
M  V30 981 C 90.3981 3.14347 1.26645 0
M  V30 982 C 89.5711 4.32021 0.683856 0
M  V30 983 C 88.6301 4.99157 1.66518 0
M  V30 984 O 87.6561 5.56458 1.19763 0
M  V30 985 N 88.8581 4.97005 2.99943 0
M  V30 986 H 91.6231 2.94911 -0.533633 0
M  V30 987 H 89.1841 1.56077 -0.430294 0
M  V30 988 H 91.1761 3.56125 1.92242 0
M  V30 989 H 89.7461 2.49988 1.87682 0
M  V30 990 H 88.9661 3.93915 -0.1498 0
M  V30 991 H 90.2541 5.08059 0.274567 0
M  V30 992 H 89.6521 4.51714 3.40545 0
M  V30 993 H 88.2091 5.42696 3.61004 0
M  V30 994 N 91.6422 0.330177 1.54103 0
M  V30 995 C 92.8722 -0.271784 2.04805 0
M  V30 996 C 93.2802 -1.45816 1.20559 0
M  V30 997 O 92.6232 -1.82247 0.2306 0
M  V30 998 C 92.6852 -0.763238 3.51305 0
M  V30 999 C 92.3492 0.301705 4.56003 0
M  V30 1000 C 93.3462 1.13999 5.07248 0
M  V30 1001 C 91.0312 0.451793 5.00264 0
M  V30 1002 C 93.0252 2.11402 6.01322 0
M  V30 1003 C 90.7122 1.42924 5.94151 0
M  V30 1004 C 91.7102 2.25882 6.44567 0
M  V30 1005 O 91.3982 3.21965 7.3661 0
M  V30 1006 H 91.1302 -0.058693 0.673447 0
M  V30 1007 H 93.6842 0.476395 1.99799 0
M  V30 1008 H 91.9142 -1.56244 3.5373 0
M  V30 1009 H 93.6032 -1.28427 3.85047 0
M  V30 1010 H 94.3692 1.03505 4.73827 0
M  V30 1011 H 90.2482 -0.184044 4.60632 0
M  V30 1012 H 93.7922 2.76192 6.40596 0
M  V30 1013 H 89.6892 1.53479 6.26988 0
M  V30 1014 H 90.4572 3.17281 7.54503 0
M  V30 1015 N 93.1203 -1.57491 0.0584922 0
M  V30 1016 C 94.3973 -1.84346 -0.653918 0
M  V30 1017 C 94.7773 -0.948355 -1.88599 0
M  V30 1018 O 94.1253 -0.0112403 -2.28497 0
M  V30 1019 C 94.3353 -3.34239 -1.00425 0
M  V30 1020 C 95.6833 -4.01431 -1.38342 0
M  V30 1021 O 96.7073 -3.38907 -1.09637 0
M  V30 1022 O 95.5663 -5.11683 -1.91943 0
M  V30 1023 H 92.6603 -0.761112 -0.323478 0
M  V30 1024 H 95.2063 -1.6947 0.0884125 0
M  V30 1025 H 93.9783 -3.91089 -0.128625 0
M  V30 1026 H 93.6013 -3.54329 -1.80378 0
M  V30 1027 N 94.5984 0.214957 -1.56127 0
M  V30 1028 C 95.8464 0.936518 -1.79091 0
M  V30 1029 C 96.1674 1.84606 -0.628148 0
M  V30 1030 O 95.4374 1.92664 0.35462 0
M  V30 1031 H 94.0174 0.3488 -0.660566 0
M  V30 1032 H 96.6794 0.22523 -1.93594 0
M  V30 1033 H 95.7754 1.53943 -2.71492 0
M  V30 1034 N 96.0765 1.50051 0.48192 0
M  V30 1035 C 97.0395 1.67584 1.5636 0
M  V30 1036 C 98.0395 0.546894 1.51214 0
M  V30 1037 O 99.2295 0.813725 1.54026 0
M  V30 1038 C 96.3615 1.691 2.96003 0
M  V30 1039 H 97.5545 2.64078 1.42136 0
M  V30 1040 H 95.1075 1.39369 0.707533 0
M  V30 1041 H 95.8425 0.742589 3.15684 0
M  V30 1042 H 95.6275 2.51105 3.01146 0
M  V30 1043 H 97.1175 1.84656 3.74556 0
M  V30 1044 N 97.5546 -0.734337 1.39446 0
M  V30 1045 C 98.7846 -1.52137 1.39778 0
M  V30 1046 C 99.1926 -1.89198 -0.00929312 0
M  V30 1047 O 98.5356 -1.54666 -0.991168 0
M  V30 1048 C 98.5976 -2.83762 2.20724 0
M  V30 1049 C 98.2616 -2.69131 3.69347 0
M  V30 1050 C 99.2586 -2.37635 4.62413 0
M  V30 1051 C 96.9436 -2.85982 4.1294 0
M  V30 1052 C 98.9376 -2.23172 5.97054 0
M  V30 1053 C 96.6246 -2.71137 5.47657 0
M  V30 1054 C 97.6226 -2.39777 6.39528 0
M  V30 1055 O 97.3106 -2.25026 7.71763 0
M  V30 1056 H 97.0426 -0.476717 0.479288 0
M  V30 1057 H 99.5966 -0.915012 1.83893 0
M  V30 1058 H 97.8266 -3.4666 1.71359 0
M  V30 1059 H 99.5156 -3.45383 2.13226 0
M  V30 1060 H 100.282 -2.24267 4.30034 0
M  V30 1061 H 96.1606 -3.09383 3.41765 0
M  V30 1062 H 99.7046 -1.98617 6.68728 0
M  V30 1063 H 95.6016 -2.84083 5.79626 0
M  V30 1064 H 96.3696 -2.40091 7.82495 0
M  V30 1065 N 99.0327 -1.24633 -0.964593 0
M  V30 1066 C 99.9797 -1.04144 -2.05968 0
M  V30 1067 C 100.95 0.046262 -1.66036 0
M  V30 1068 O 102.135 -0.108972 -1.90489 0
M  V30 1069 C 99.2747 -0.65563 -3.38815 0
M  V30 1070 C 98.3877 -1.81714 -3.91923 0
M  V30 1071 C 97.5227 -1.37662 -5.13052 0
M  V30 1072 C 96.5617 -2.50788 -5.58365 0
M  V30 1073 N 95.6987 -2.07582 -6.70712 0
M  V30 1074 H 100.539 -1.9787 -2.22827 0
M  V30 1075 H 98.0757 -0.9855 -1.09208 0
M  V30 1076 H 100.034 -0.412954 -4.15151 0
M  V30 1077 H 98.6637 0.244627 -3.21872 0
M  V30 1078 H 97.7157 -2.1734 -3.12198 0
M  V30 1079 H 99.0277 -2.66705 -4.21509 0
M  V30 1080 H 98.1817 -1.093 -5.96773 0
M  V30 1081 H 96.9207 -0.497293 -4.85158 0
M  V30 1082 H 95.9257 -2.79906 -4.73215 0
M  V30 1083 H 97.1507 -3.39283 -5.88272 0
M  V30 1084 H 95.0967 -1.22051 -6.44546 0
M  V30 1085 H 95.0137 -2.86125 -6.99763 0
M  V30 1086 H 96.2817 -1.82369 -7.57867 0
M  V30 1087 N 100.511 1.16574 -1.06058 0
M  V30 1088 C 101.757 1.87324 -0.777022 0
M  V30 1089 C 102.09 1.81351 0.694645 0
M  V30 1090 O 101.365 1.22753 1.50871 0
M  V30 1091 C 101.648 3.36991 -1.26922 0
M  V30 1092 C 101.501 3.51667 -2.80447 0
M  V30 1093 C 102.82 4.3131 -0.87521 0
M  V30 1094 H 99.9388 0.680191 -0.28374 0
M  V30 1095 H 102.581 1.37036 -1.3161 0
M  V30 1096 H 100.731 3.79949 -0.81063 0
M  V30 1097 H 102.403 3.17664 -3.34495 0
M  V30 1098 H 100.646 2.93656 -3.19294 0
M  V30 1099 H 101.317 4.56766 -3.0995 0
M  V30 1100 H 103.793 3.9624 -1.27014 0
M  V30 1101 H 102.669 5.34545 -1.2471 0
M  V30 1102 H 102.93 4.41552 0.220071 0
M  V30 1103 N 101.989 0.842826 1.3317 0
M  V30 1104 C 103.214 0.453129 2.02389 0
M  V30 1105 C 103.639 -0.939105 1.6298 0
M  V30 1106 O 102.997 -1.61472 0.8244 0
M  V30 1107 C 103.045 0.586094 3.55805 0
M  V30 1108 O 102.149 -0.386029 4.10589 0
M  V30 1109 H 101.49 0.183664 0.638094 0
M  V30 1110 H 104.02 1.13875 1.69981 0
M  V30 1111 H 104.03 0.469209 4.05293 0
M  V30 1112 H 102.705 1.6014 3.83833 0
M  V30 1113 H 101.282 -0.226371 3.72212 0
M  V30 1114 N 103.467 -1.45747 0.599634 0
M  V30 1115 C 104.883 -1.57424 0.26264 0
M  V30 1116 C 105.083 -1.59222 -1.23493 0
M  V30 1117 O 104.139 -1.51825 -2.01756 0
M  V30 1118 C 105.452 -2.86061 0.926795 0
M  V30 1119 C 107 -2.99722 0.901967 0
M  V30 1120 C 107.475 -4.31119 1.54598 0
M  V30 1121 N 108.966 -4.37858 1.5111 0
M  V30 1122 C 109.701 -5.3818 1.97863 0
M  V30 1123 N 109.197 -6.45083 2.52666 0
M  V30 1124 N 110.99 -5.29487 1.88679 0
M  V30 1125 H 103.141 -1.42823 1.57211 0
M  V30 1126 H 105.404 -0.68235 0.658105 0
M  V30 1127 H 105.11 -2.90605 1.98095 0
M  V30 1128 H 104.984 -3.74563 0.445238 0
M  V30 1129 H 107.371 -2.9475 -0.143617 0
M  V30 1130 H 107.452 -2.12652 1.42171 0
M  V30 1131 H 107.096 -4.36849 2.59085 0
M  V30 1132 H 107.026 -5.16992 1.00132 0
M  V30 1133 H 109.517 -3.61209 1.11068 0
M  V30 1134 H 109.83 -7.17869 2.86155 0
M  V30 1135 H 108.175 -6.45856 2.56701 0
M  V30 1136 H 111.366 -4.44877 1.4561 0
M  V30 1137 H 111.539 -6.07524 2.25429 0
M  V30 1138 N 104.945 -0.338344 -1.53925 0
M  V30 1139 C 106.193 0.259245 -2.0043 0
M  V30 1140 C 106.514 1.51484 -1.22791 0
M  V30 1141 O 105.784 1.93037 -0.33368 0
M  V30 1142 H 104.364 0.0987845 -0.740439 0
M  V30 1143 H 107.026 -0.458302 -1.89435 0
M  V30 1144 H 106.122 0.505334 -3.07982 0
M  V30 1145 N 106.423 1.57458 -0.0668435 0
M  V30 1146 C 107.353 2.15468 0.899764 0
M  V30 1147 C 108.334 1.08042 1.31381 0
M  V30 1148 O 109.519 1.36054 1.38574 0
M  V30 1149 C 106.649 2.71232 2.16911 0
M  V30 1150 C 105.603 3.83781 1.89463 0
M  V30 1151 C 104.929 4.26127 3.22986 0
M  V30 1152 C 106.229 5.08238 1.20381 0
M  V30 1153 H 107.923 2.96488 0.416529 0
M  V30 1154 H 105.469 1.4262 0.198908 0
M  V30 1155 H 107.422 3.10458 2.84945 0
M  V30 1156 H 106.146 1.87426 2.67468 0
M  V30 1157 H 104.805 3.45051 1.23836 0
M  V30 1158 H 104.453 3.39249 3.71374 0
M  V30 1159 H 104.153 5.01993 3.05413 0
M  V30 1160 H 105.677 4.67966 3.92225 0
M  V30 1161 H 107.091 5.44811 1.78475 0
M  V30 1162 H 105.488 5.89349 1.13083 0
M  V30 1163 H 106.558 4.84558 0.182153 0
M  V30 1164 N 107.901 -0.206675 1.56239 0
M  V30 1165 C 109.147 -0.925733 1.81113 0
M  V30 1166 C 109.502 -1.81368 0.642135 0
M  V30 1167 O 108.795 -1.88126 -0.363211 0
M  V30 1168 C 108.989 -1.78675 3.09532 0
M  V30 1169 C 108.818 -0.98365 4.3881 0
M  V30 1170 C 107.588 -0.672661 5.00803 0
M  V30 1171 C 109.786 -0.341847 5.13163 0
M  V30 1172 N 107.768 0.150283 6.13716 0
M  V30 1173 C 109.139 0.343815 6.19046 0
M  V30 1174 C 111.194 -0.256392 4.97239 0
M  V30 1175 C 109.897 1.10678 7.10734 0
M  V30 1176 C 111.923 0.493142 5.8934 0
M  V30 1177 C 111.285 1.16729 6.94661 0
M  V30 1178 H 107.384 -0.318524 0.714189 0
M  V30 1179 H 109.968 -0.195378 1.93717 0
M  V30 1180 H 108.139 -2.4888 2.98183 0
M  V30 1181 H 109.871 -2.44441 3.22538 0
M  V30 1182 H 106.626 -0.994294 4.63045 0
M  V30 1183 H 107.05 0.551026 6.74754 0
M  V30 1184 H 111.692 -0.763249 4.15854 0
M  V30 1185 H 109.41 1.6251 7.91591 0
M  V30 1186 H 112.996 0.560465 5.79094 0
M  V30 1187 H 111.876 1.738 7.64698 0
M  V30 1188 N 109.379 -1.50304 -0.473955 0
M  V30 1189 C 110.326 -1.68959 -1.57231 0
M  V30 1190 C 111.296 -0.530899 -1.57387 0
M  V30 1191 O 112.481 -0.761133 -1.74961 0
M  V30 1192 C 109.621 -1.7871 -2.95223 0
M  V30 1193 C 108.734 -3.06061 -3.04878 0
M  V30 1194 C 107.869 -3.06626 -4.33767 0
M  V30 1195 C 106.908 -4.28443 -4.37154 0
M  V30 1196 N 106.045 -4.26763 -5.5751 0
M  V30 1197 H 110.885 -2.6273 -1.40631 0
M  V30 1198 H 108.422 -1.30241 -0.683789 0
M  V30 1199 H 110.38 -1.82344 -3.75242 0
M  V30 1200 H 109.01 -0.883806 -3.10465 0
M  V30 1201 H 108.062 -3.11911 -2.17751 0
M  V30 1202 H 109.374 -3.96039 -3.0324 0
M  V30 1203 H 108.528 -3.08973 -5.22131 0
M  V30 1204 H 107.267 -2.14473 -4.3801 0
M  V30 1205 H 106.272 -4.2631 -3.47188 0
M  V30 1206 H 107.497 -5.2182 -4.34605 0
M  V30 1207 H 105.443 -3.37462 -5.62544 0
M  V30 1208 H 105.36 -5.10507 -5.57601 0
M  V30 1209 H 106.628 -4.33253 -6.48006 0
M  V30 1210 N 110.857 0.726932 -1.39834 0
M  V30 1211 C 111.804 1.841 -1.39197 0
M  V30 1212 C 112.774 1.642 -0.250502 0
M  V30 1213 O 113.959 1.85494 -0.446846 0
M  V30 1214 C 111.099 3.21697 -1.24919 0
M  V30 1215 C 110.212 3.53247 -2.48678 0
M  V30 1216 C 109.347 4.80289 -2.26928 0
M  V30 1217 C 108.386 5.04707 -3.4632 0
M  V30 1218 N 107.523 6.22956 -3.23836 0
M  V30 1219 H 112.363 1.83979 -2.34427 0
M  V30 1220 H 109.9 0.898876 -1.16442 0
M  V30 1221 H 111.858 4.01137 -1.1465 0
M  V30 1222 H 110.488 3.21076 -0.333153 0
M  V30 1223 H 109.54 2.68447 -2.69519 0
M  V30 1224 H 110.852 3.67205 -3.37582 0
M  V30 1225 H 110.006 5.67725 -2.13947 0
M  V30 1226 H 108.745 4.68519 -1.35431 0
M  V30 1227 H 107.75 4.1573 -3.5979 0
M  V30 1228 H 108.975 5.18357 -4.38729 0
M  V30 1229 H 106.921 6.12459 -2.35011 0
M  V30 1230 H 106.838 6.37539 -4.063 0
M  V30 1231 H 108.106 7.1321 -3.14566 0
M  V30 1232 N 112.336 1.25143 0.95797 0
M  V30 1233 C 113.566 1.12261 1.73439 0
M  V30 1234 C 113.974 -0.326715 1.86358 0
M  V30 1235 O 113.317 -1.2367 1.35836 0
M  V30 1236 C 113.379 1.69966 3.16784 0
M  V30 1237 C 113.043 3.18936 3.27305 0
M  V30 1238 C 114.04 4.15968 3.11877 0
M  V30 1239 C 111.725 3.59083 3.51234 0
M  V30 1240 C 113.719 5.51126 3.20217 0
M  V30 1241 C 111.406 4.9438 3.5921 0
M  V30 1242 C 112.404 5.90211 3.43716 0
M  V30 1243 O 112.092 7.23046 3.51368 0
M  V30 1244 H 111.824 0.392476 0.550399 0
M  V30 1245 H 114.378 1.65927 1.21068 0
M  V30 1246 H 112.608 1.10744 3.70503 0
M  V30 1247 H 114.297 1.52232 3.76272 0
M  V30 1248 H 115.063 3.86292 2.93264 0
M  V30 1249 H 110.942 2.84989 3.62356 0
M  V30 1250 H 114.486 6.25905 3.0804 0
M  V30 1251 H 110.383 5.23723 3.77339 0
M  V30 1252 H 111.151 7.31097 3.6802 0
M  V30 1253 N 113.814 -1.1601 1.06675 0
M  V30 1254 C 115.062 -1.86264 0.784229 0
M  V30 1255 C 115.383 -1.82328 -0.691488 0
M  V30 1256 O 114.653 -1.25947 -1.50047 0
M  V30 1257 H 113.233 -0.689621 0.28711 0
M  V30 1258 H 115.895 -1.40664 1.34906 0
M  V30 1259 H 114.991 -2.91595 1.11259 0
M  V30 1260 N 115.292 -0.849877 -1.32721 0
M  V30 1261 C 116.569 -0.372405 -1.92022 0
M  V30 1262 C 116.949 1.1435 -1.77447 0
M  V30 1263 O 116.297 1.96296 -1.16962 0
M  V30 1264 C 116.507 -0.831482 -3.3895 0
M  V30 1265 C 117.855 -0.845882 -4.16089 0
M  V30 1266 O 118.879 -0.775806 -3.47649 0
M  V30 1267 O 117.738 -0.943753 -5.38289 0
M  V30 1268 H 114.832 -0.107667 -0.819961 0
M  V30 1269 H 117.378 -0.93646 -1.41522 0
M  V30 1270 H 116.15 -1.87448 -3.4348 0
M  V30 1271 H 115.773 -0.24461 -3.96847 0
M  V30 1272 N 116.77 1.45427 -0.607355 0
M  V30 1273 C 117.717 2.3053 0.111625 0
M  V30 1274 C 118.687 1.4209 0.860216 0
M  V30 1275 O 119.872 1.71019 0.845998 0
M  V30 1276 C 117.012 3.26992 1.10319 0
M  V30 1277 C 116.125 4.30535 0.355493 0
M  V30 1278 C 115.26 5.14105 1.33676 0
M  V30 1279 C 114.299 6.09376 0.576862 0
M  V30 1280 N 113.436 6.85727 1.5074 0
M  V30 1281 H 118.276 2.91477 -0.620093 0
M  V30 1282 H 115.813 1.43631 -0.317594 0
M  V30 1283 H 117.771 3.81385 1.6912 0
M  V30 1284 H 116.401 2.67799 1.80232 0
M  V30 1285 H 115.453 3.78805 -0.348023 0
M  V30 1286 H 116.765 4.98235 -0.237423 0
M  V30 1287 H 115.919 5.72897 1.99684 0
M  V30 1288 H 114.658 4.46423 1.9636 0
M  V30 1289 H 113.663 5.49715 -0.0968519 0
M  V30 1290 H 114.888 6.79085 -0.0449341 0
M  V30 1291 H 112.834 6.20735 2.12189 0
M  V30 1292 H 112.751 7.49778 0.967913 0
M  V30 1293 H 114.019 7.4906 2.15706 0
M  V30 1294 N 118.248 0.346503 1.53744 0
M  V30 1295 C 119.664 -0.00530975 1.59599 0
M  V30 1296 C 119.864 -1.48465 1.36236 0
M  V30 1297 O 118.92 -2.24376 1.15808 0
M  V30 1298 C 120.233 0.433516 2.97559 0
M  V30 1299 C 121.781 0.386111 3.10609 0
M  V30 1300 C 122.256 0.800451 4.50951 0
M  V30 1301 N 123.747 0.754753 4.5701 0
M  V30 1302 C 124.482 1.04727 5.63755 0
M  V30 1303 N 123.978 1.4081 6.7834 0
M  V30 1304 N 125.771 0.971316 5.53644 0
M  V30 1305 H 117.922 1.31009 1.67184 0
M  V30 1306 H 120.185 0.534242 0.783128 0
M  V30 1307 H 119.891 1.46509 3.19731 0
M  V30 1308 H 119.765 -0.189753 3.76722 0
M  V30 1309 H 122.152 -0.636295 2.88158 0
M  V30 1310 H 122.233 1.04462 2.33498 0
M  V30 1311 H 121.877 1.82088 4.74137 0
M  V30 1312 H 121.807 0.119386 5.26465 0
M  V30 1313 H 124.298 0.488662 3.74727 0
M  V30 1314 H 124.611 1.61607 7.55714 0
M  V30 1315 H 122.956 1.44657 6.79779 0
M  V30 1316 H 126.147 0.688748 4.63005 0
M  V30 1317 H 126.32 1.20263 6.36742 0
M  V30 1318 N 119.726 -1.57421 0.075193 0
M  V30 1319 C 120.975 -1.92794 -0.592731 0
M  V30 1320 C 121.288 -0.957478 -1.70563 0
M  V30 1321 O 122.494 -1.20417 -2.43335 0
M  V30 1322 C 120.95 -3.42495 -1.10569 0
M  V30 1323 C 120.558 -4.47994 -0.0236121 0
M  V30 1324 C 122.302 -3.86864 -1.74748 0
M  V30 1325 C 120.209 -5.88829 -0.550803 0
M  V30 1326 H 119.139 -0.719591 -0.225177 0
M  V30 1327 H 121.79 -1.82902 0.147978 0
M  V30 1328 H 120.172 -3.47471 -1.89947 0
M  V30 1329 H 121.346 -4.54637 0.751099 0
M  V30 1330 H 119.661 -4.13113 0.522159 0
M  V30 1331 H 122.258 -4.8947 -2.15229 0
M  V30 1332 H 122.601 -3.24417 -2.60882 0
M  V30 1333 H 123.134 -3.84504 -1.01986 0
M  V30 1334 H 119.873 -6.54929 0.273457 0
M  V30 1335 H 119.393 -5.85698 -1.29296 0
M  V30 1336 H 121.072 -6.38811 -1.02613 0
M  V30 1337 N 121.204 0.198386 -1.56346 0
M  V30 1338 C 122.453 0.917451 -1.79627 0
M  V30 1339 C 122.766 1.8456 -0.64784 0
M  V30 1340 O 123.972 2.60504 -0.764859 0
M  V30 1341 C 122.428 1.68175 -3.18191 0
M  V30 1342 C 122.036 0.798589 -4.40825 0
M  V30 1343 C 123.78 2.39065 -3.50782 0
M  V30 1344 C 121.687 1.56157 -5.70411 0
M  V30 1345 H 120.617 0.346317 -0.669762 0
M  V30 1346 H 123.268 0.170801 -1.82703 0
M  V30 1347 H 121.65 2.47216 -3.09354 0
M  V30 1348 H 122.824 0.0470665 -4.60776 0
M  V30 1349 H 121.139 0.200686 -4.15916 0
M  V30 1350 H 123.736 2.96692 -4.44835 0
M  V30 1351 H 124.079 3.13091 -2.74371 0
M  V30 1352 H 124.612 1.66993 -3.61052 0
M  V30 1353 H 121.351 0.864142 -6.49779 0
M  V30 1354 H 120.871 2.2871 -5.54483 0
M  V30 1355 H 122.55 2.11622 -6.11412 0
M  V30 1356 N 122.682 1.50554 0.465978 0
M  V30 1357 C 123.959 1.5232 1.22712 0
M  V30 1358 C 124.339 0.270807 2.09356 0
M  V30 1359 O 123.687 -0.745541 2.15995 0
M  V30 1360 C 123.897 2.82175 2.05374 0
M  V30 1361 C 125.245 3.33033 2.6339 0
M  V30 1362 O 126.269 2.83531 2.15612 0
M  V30 1363 O 125.128 4.19336 3.50456 0
M  V30 1364 H 122.222 0.611183 0.557122 0
M  V30 1365 H 124.768 1.62847 0.477381 0
M  V30 1366 H 123.54 3.64797 1.41558 0
M  V30 1367 H 123.163 2.74675 2.87471 0
M  V30 1368 N 124.16 -0.719506 1.40217 0
M  V30 1369 C 125.388 -1.50864 1.41589 0
M  V30 1370 C 125.803 -1.88794 0.0145275 0
M  V30 1371 O 125.16 -1.55174 -0.960594 0
M  V30 1372 C 125.211 -2.78646 2.30302 0
M  V30 1373 O 124.932 -2.42321 3.64983 0
M  V30 1374 C 126.433 -3.72569 2.40224 0
M  V30 1375 H 123.653 -0.465709 0.48307 0
M  V30 1376 H 126.197 -0.88785 1.84221 0
M  V30 1377 H 124.352 -3.37019 1.91042 0
M  V30 1378 H 124.766 -3.24514 4.12057 0
M  V30 1379 H 126.24 -4.5908 3.06512 0
M  V30 1380 H 126.717 -4.15403 1.42608 0
M  V30 1381 H 127.323 -3.20109 2.80019 0
M  V30 1382 N 125.638 -1.25649 -0.95132 0
M  V30 1383 C 127.049 -1.09654 -1.51106 0
M  V30 1384 C 127.4 0.326615 -1.93462 0
M  V30 1385 O 126.525 1.21697 -1.78938 0
M  V30 1386 C 127.12 -1.98437 -2.74605 0
M  V30 1387 C 125.679 -1.86618 -3.2688 0
M  V30 1388 C 124.826 -1.9239 -1.99703 0
M  V30 1389 H 127.777 -1.38887 -0.767865 0
M  V30 1390 H 127.798 -1.5263 -3.48546 0
M  V30 1391 H 127.31 -3.02009 -2.43746 0
M  V30 1392 H 125.411 -0.859421 -3.62553 0
M  V30 1393 H 125.524 -2.71607 -3.94673 0
M  V30 1394 H 123.888 -1.36317 -2.15151 0
M  V30 1395 H 124.671 -2.97573 -1.71188 0
M  V30 1396 N 127.117 1.15442 -1.07289 0
M  V30 1397 C 128.366 1.85557 -0.790669 0
M  V30 1398 C 128.679 1.83186 0.685739 0
M  V30 1399 O 129.885 2.48977 1.0827 0
M  V30 1400 C 128.341 3.33038 -1.36433 0
M  V30 1401 C 127.949 3.43856 -2.8717 0
M  V30 1402 C 129.693 4.0834 -1.1601 0
M  V30 1403 C 127.6 4.85482 -3.3773 0
M  V30 1404 H 126.53 0.695122 -0.292098 0
M  V30 1405 H 129.181 1.30219 -1.29287 0
M  V30 1406 H 127.563 3.88043 -0.789864 0
M  V30 1407 H 128.737 2.98961 -3.50655 0
M  V30 1408 H 127.052 2.81998 -3.06376 0
M  V30 1409 H 129.649 5.12859 -1.51262 0
M  V30 1410 H 129.992 4.16182 -0.0991007 0
M  V30 1411 H 130.525 3.59603 -1.70089 0
M  V30 1412 H 127.264 4.82823 -4.43353 0
M  V30 1413 H 126.784 5.30961 -2.78999 0
M  V30 1414 H 128.463 5.54335 -3.33648 0
M  V30 1415 N 128.595 0.856903 1.32268 0
M  V30 1416 C 129.82 0.474569 2.01897 0
M  V30 1417 C 130.245 -0.921766 1.63967 0
M  V30 1418 O 129.603 -1.60589 0.84148 0
M  V30 1419 C 129.651 0.623799 3.55164 0
M  V30 1420 O 128.755 -0.342459 4.10976 0
M  V30 1421 H 128.096 0.190422 0.63611 0
M  V30 1422 H 130.626 1.15672 1.68764 0
M  V30 1423 H 130.636 0.512169 4.04773 0
M  V30 1424 H 129.311 1.64202 3.82113 0
M  V30 1425 H 127.888 -0.18688 3.72431 0
M  V30 1426 N 130.073 -1.45103 0.615059 0
M  V30 1427 C 130.983 -2.34382 -0.101034 0
M  V30 1428 C 131.999 -1.51681 -0.852585 0
M  V30 1429 O 133.175 -1.8446 -0.808484 0
M  V30 1430 C 130.24 -3.29417 -1.08099 0
M  V30 1431 C 129.301 -4.28025 -0.330577 0
M  V30 1432 C 128.534 -5.1852 -1.26385 0
M  V30 1433 O 128.757 -5.12598 -2.50198 0
M  V30 1434 O 127.691 -5.97122 -0.756866 0
M  V30 1435 H 131.517 -2.97033 0.632855 0
M  V30 1436 H 129.102 -1.4461 0.375293 0
M  V30 1437 H 130.984 -3.87958 -1.6452 0
M  V30 1438 H 129.659 -2.69321 -1.79577 0
M  V30 1439 H 128.566 -3.73078 0.276283 0
M  V30 1440 H 129.899 -4.90997 0.343866 0
M  V30 1441 N 131.551 -0.354651 -1.53558 0
M  V30 1442 C 132.484 0.540273 -2.21712 0
M  V30 1443 C 133.462 1.09161 -1.2051 0
M  V30 1444 O 134.646 1.14979 -1.49372 0
M  V30 1445 C 131.773 1.74435 -2.90328 0
M  V30 1446 C 130.819 1.32146 -4.05512 0
M  V30 1447 S 131.652 0.331924 -5.3447 0
M  V30 1448 C 132.808 1.54258 -6.06593 0
M  V30 1449 H 133.041 -0.0385776 -2.97275 0
M  V30 1450 H 130.574 -0.138736 -1.53775 0
M  V30 1451 H 132.532 2.43507 -3.30476 0
M  V30 1452 H 131.193 2.29444 -2.1451 0
M  V30 1453 H 130.386 2.21952 -4.52497 0
M  V30 1454 H 129.988 0.710091 -3.67197 0
M  V30 1455 H 132.28 2.47534 -6.30661 0
M  V30 1456 H 133.223 1.11431 -6.99277 0
M  V30 1457 H 133.631 1.74367 -5.36895 0
M  V30 1458 N 133.029 1.57378 -0.0835403 0
M  V30 1459 C 134.277 1.93547 0.581718 0
M  V30 1460 C 134.598 0.96524 1.69435 0
M  V30 1461 O 133.868 0.0153369 1.95894 0
M  V30 1462 H 132.448 0.714521 0.217874 0
M  V30 1463 H 135.11 1.94366 -0.144158 0
M  V30 1464 H 134.206 2.95665 0.999423 0
M  V30 1465 N 134.507 -0.190092 1.56449 0
M  V30 1466 C 135.754 -0.909705 1.80916 0
M  V30 1467 C 136.082 -1.83047 0.657583 0
M  V30 1468 O 135.337 -1.92428 -0.356356 0
M  V30 1469 C 135.636 -1.75382 3.1141 0
M  V30 1470 C 135.302 -0.983606 4.40041 0
M  V30 1471 C 133.964 -0.770967 4.74984 0
M  V30 1472 C 136.316 -0.442024 5.19322 0
M  V30 1473 C 133.644 -0.0053448 5.867 0
M  V30 1474 C 135.996 0.310412 6.31838 0
M  V30 1475 C 134.66 0.534023 6.6536 0
M  V30 1476 H 133.93 -0.332885 0.662019 0
M  V30 1477 H 136.577 -0.175762 1.90692 0
M  V30 1478 H 134.882 -2.55659 2.96893 0
M  V30 1479 H 136.579 -2.31331 3.27547 0
M  V30 1480 H 133.169 -1.15936 4.12622 0
M  V30 1481 H 137.353 -0.593693 4.92736 0
M  V30 1482 H 132.609 0.177825 6.11141 0
M  V30 1483 H 136.783 0.737419 6.92485 0
M  V30 1484 H 134.41 1.12918 7.51767 0
M  V30 1485 N 135.985 -1.50799 -0.457987 0
M  V30 1486 C 136.948 -1.7005 -1.53674 0
M  V30 1487 C 137.948 -0.570881 -1.50325 0
M  V30 1488 O 139.138 -0.838126 -1.52712 0
M  V30 1489 C 136.27 -1.73788 -2.93276 0
M  V30 1490 H 137.463 -2.66306 -1.37917 0
M  V30 1491 H 135.016 -1.40477 -0.685271 0
M  V30 1492 H 135.751 -0.792717 -3.14462 0
M  V30 1493 H 135.536 -2.55864 -2.97113 0
M  V30 1494 H 137.026 -1.90591 -3.71571 0
M  V30 1495 N 137.463 0.71206 -1.40597 0
M  V30 1496 C 138.711 1.46907 -1.38791 0
M  V30 1497 C 139.032 1.94998 0.00780391 0
M  V30 1498 O 138.302 1.70587 0.963174 0
M  V30 1499 H 136.882 0.545043 -0.51082 0
M  V30 1500 H 139.544 0.843882 -1.75683 0
M  V30 1501 H 138.64 2.34021 -2.06496 0
M  V30 1502 N 138.941 1.26152 0.944643 0
M  V30 1503 C 140.19 1.10883 1.68487 0
M  V30 1504 C 140.503 -0.348153 1.92477 0
M  V30 1505 O 141.709 -0.621459 2.64292 0
M  V30 1506 C 140.165 1.93624 3.03377 0
M  V30 1507 C 139.773 3.43875 2.87148 0
M  V30 1508 C 141.517 1.86954 3.81115 0
M  V30 1509 C 139.424 4.18875 4.1749 0
M  V30 1510 H 138.354 0.41135 0.631907 0
M  V30 1511 H 141.005 1.50433 1.05082 0
M  V30 1512 H 139.387 1.46904 3.67743 0
M  V30 1513 H 140.561 3.98338 2.31653 0
M  V30 1514 H 138.876 3.51744 2.22856 0
M  V30 1515 H 141.473 2.40275 4.77673 0
M  V30 1516 H 141.816 0.839518 4.07747 0
M  V30 1517 H 142.349 2.31477 3.23517 0
M  V30 1518 H 139.088 5.22332 3.96043 0
M  V30 1519 H 138.608 3.69193 4.72712 0
M  V30 1520 H 140.287 4.27134 4.85968 0
M  V30 1521 N 140.419 -1.14872 1.07899 0
M  V30 1522 C 141.382 -2.17986 0.708161 0
M  V30 1523 C 142.382 -1.58775 -0.25442 0
M  V30 1524 O 143.572 -1.74166 -0.034645 0
M  V30 1525 C 140.704 -3.40871 0.0446929 0
M  V30 1526 H 141.897 -2.52306 1.62116 0
M  V30 1527 H 139.45 -1.2943 0.876218 0
M  V30 1528 H 140.185 -3.12124 -0.880281 0
M  V30 1529 H 139.97 -3.8511 0.737091 0
M  V30 1530 H 141.46 -4.17121 -0.19991 0
M  V30 1531 N 141.898 -0.863906 -1.31812 0
M  V30 1532 C 143.144 -0.472535 -1.97218 0
M  V30 1533 C 143.477 0.971394 -1.68159 0
M  V30 1534 O 142.752 1.68309 -0.974798 0
M  V30 1535 C 143.035 -0.723054 -3.52766 0
M  V30 1536 C 142.888 -2.21608 -3.91421 0
M  V30 1537 C 144.207 -0.185522 -4.39709 0
M  V30 1538 H 141.326 -0.173158 -0.71637 0
M  V30 1539 H 143.968 -1.08403 -1.56041 0
M  V30 1540 H 142.118 -0.202577 -3.87971 0
M  V30 1541 H 143.79 -2.80334 -3.66347 0
M  V30 1542 H 142.033 -2.691 -3.40246 0
M  V30 1543 H 142.704 -2.34203 -4.99853 0
M  V30 1544 H 145.18 -0.630726 -4.11292 0
M  V30 1545 H 144.056 -0.390306 -5.47511 0
M  V30 1546 H 144.317 0.912229 -4.32586 0
M  V30 1547 N 143.376 1.44774 -0.622745 0
M  V30 1548 C 144.624 2.01721 -0.123655 0
M  V30 1549 C 144.945 1.49172 1.25589 0
M  V30 1550 O 144.215 0.691974 1.83272 0
M  V30 1551 H 142.795 0.745777 -0.0427225 0
M  V30 1552 H 145.457 1.77382 -0.807559 0
M  V30 1553 H 144.553 3.11984 -0.0849534 0
M  V30 1554 N 144.854 0.36279 1.53368 0
M  V30 1555 C 145.817 -0.472679 2.24273 0
M  V30 1556 C 146.817 -1.012 1.24961 0
M  V30 1557 O 148.007 -0.898194 1.49259 0
M  V30 1558 C 145.139 -1.66039 2.97731 0
M  V30 1559 H 146.332 0.14773 2.99536 0
M  V30 1560 H 143.885 0.114434 1.55881 0
M  V30 1561 H 144.62 -2.31896 2.26704 0
M  V30 1562 H 144.405 -1.28066 3.70596 0
M  V30 1563 H 145.895 -2.25252 3.51641 0
M  V30 1564 N 146.332 -1.57332 0.0918853 0
M  V30 1565 C 147.295 -2.12708 -0.85369 0
M  V30 1566 C 148.295 -1.05561 -1.213 0
M  V30 1567 O 149.485 -1.31461 -1.14296 0
M  V30 1568 C 146.617 -2.64503 -2.15061 0
M  V30 1569 H 147.81 -2.97573 -0.3729 0
M  V30 1570 H 145.363 -1.55509 -0.157072 0
M  V30 1571 H 146.098 -1.83149 -2.67632 0
M  V30 1572 H 145.883 -3.4284 -1.90272 0
M  V30 1573 H 147.373 -3.07351 -2.82711 0
M  V30 1574 N 147.81 0.181792 -1.56548 0
M  V30 1575 C 148.743 1.25366 -1.90679 0
M  V30 1576 C 149.721 1.43299 -0.768376 0
M  V30 1577 O 150.905 1.58475 -1.02068 0
M  V30 1578 C 148.032 2.61826 -2.1486 0
M  V30 1579 C 147.078 2.60688 -3.37556 0
M  V30 1580 S 147.911 2.10804 -4.92262 0
M  V30 1581 C 149.067 3.49062 -5.19525 0
M  V30 1582 H 149.3 0.962277 -2.81296 0
M  V30 1583 H 146.833 0.385892 -1.495 0
M  V30 1584 H 148.791 3.40371 -2.29473 0
M  V30 1585 H 147.452 2.88169 -1.24969 0
M  V30 1586 H 146.645 3.61058 -3.51643 0
M  V30 1587 H 146.247 1.90232 -3.22006 0
M  V30 1588 H 148.539 4.45003 -5.10861 0
M  V30 1589 H 149.482 3.39859 -6.2121 0
M  V30 1590 H 149.89 3.4459 -4.47122 0
M  V30 1591 N 149.288 1.51039 0.449983 0
M  V30 1592 C 150.251 1.70863 1.5277 0
M  V30 1593 C 151.251 0.578846 1.5002 0
M  V30 1594 O 152.441 0.846213 1.52266 0
M  V30 1595 C 149.573 1.75341 2.9235 0
M  V30 1596 H 150.766 2.67034 1.36502 0
M  V30 1597 H 148.319 1.40838 0.677812 0
M  V30 1598 H 149.054 0.809383 3.14037 0
M  V30 1599 H 148.839 2.57436 2.95752 0
M  V30 1600 H 150.329 1.92559 3.70555 0
M  V30 1601 N 150.766 -0.704594 1.40972 0
M  V30 1602 C 152.014 -1.46169 1.39568 0
M  V30 1603 C 152.335 -1.95 0.00253745 0
M  V30 1604 O 151.605 -1.71095 -0.954114 0
M  V30 1605 H 150.185 -0.542326 0.513704 0
M  V30 1606 H 152.847 -0.834553 1.76128 0
M  V30 1607 H 151.943 -2.32922 2.07735 0
M  V30 1608 N 152.244 -1.26651 -0.937939 0
M  V30 1609 C 153.174 -1.10993 -2.05433 0
M  V30 1610 C 154.155 -0.0142161 -1.70094 0
M  V30 1611 O 155.34 -0.186837 -1.93299 0
M  V30 1612 C 152.47 -0.745561 -3.39203 0
M  V30 1613 C 151.424 -1.79337 -3.88616 0
M  V30 1614 C 150.75 -1.28324 -5.19073 0
M  V30 1615 C 152.05 -3.19553 -4.13138 0
M  V30 1616 H 153.744 -2.0438 -2.1879 0
M  V30 1617 H 151.29 -0.984041 -1.05131 0
M  V30 1618 H 153.243 -0.622888 -4.16771 0
M  V30 1619 H 151.967 0.22401 -3.25831 0
M  V30 1620 H 150.626 -1.90477 -3.13231 0
M  V30 1621 H 150.274 -0.303414 -5.02084 0
M  V30 1622 H 149.974 -1.98369 -5.53103 0
M  V30 1623 H 151.498 -1.1733 -5.99221 0
M  V30 1624 H 152.912 -3.11471 -4.81309 0
M  V30 1625 H 151.309 -3.87218 -4.58457 0
M  V30 1626 H 152.379 -3.65368 -3.18801 0
M  V30 1627 N 153.722 1.14298 -1.08507 0
M  V30 1628 C 155.138 1.37347 -0.812901 0
M  V30 1629 C 155.338 1.93052 0.577325 0
M  V30 1630 O 154.394 2.14389 1.33393 0
M  V30 1631 C 155.707 2.33359 -1.89642 0
M  V30 1632 C 157.255 2.46996 -1.92255 0
M  V30 1633 C 157.73 3.46309 -2.99724 0
M  V30 1634 N 159.221 3.53853 -2.98902 0
M  V30 1635 C 159.956 4.3055 -3.787 0
M  V30 1636 N 159.452 5.10482 -4.6838 0
M  V30 1637 N 161.245 4.25757 -3.66998 0
M  V30 1638 H 153.396 0.764867 -1.9815 0
M  V30 1639 H 155.659 0.398966 -0.859959 0
M  V30 1640 H 155.365 1.99565 -2.89597 0
M  V30 1641 H 155.239 3.33274 -1.76659 0
M  V30 1642 H 157.626 2.80081 -0.929445 0
M  V30 1643 H 157.707 1.47039 -2.09316 0
M  V30 1644 H 157.351 3.13957 -3.99241 0
M  V30 1645 H 157.281 4.46049 -2.79907 0
M  V30 1646 H 159.772 2.96812 -2.33904 0
M  V30 1647 H 160.085 5.66284 -5.25873 0
M  V30 1648 H 158.43 5.09747 -4.72422 0
M  V30 1649 H 161.621 3.62383 -2.96304 0
M  V30 1650 H 161.794 4.85279 -4.29427 0
M  V30 1651 N 155.201 0.870884 1.31352 0
M  V30 1652 C 156.612 0.534714 1.78879 0
M  V30 1653 C 156.963 -0.948423 1.71754 0
M  V30 1654 O 156.088 -1.74055 1.28584 0
M  V30 1655 C 156.683 0.963839 3.24801 0
M  V30 1656 C 155.242 0.679311 3.70219 0
M  V30 1657 C 154.389 1.15465 2.52117 0
M  V30 1658 H 157.34 1.05651 1.18421 0
M  V30 1659 H 157.361 0.286892 3.79417 0
M  V30 1660 H 156.873 2.04332 3.29955 0
M  V30 1661 H 154.974 -0.388769 3.70566 0
M  V30 1662 H 155.087 1.25698 4.62317 0
M  V30 1663 H 153.451 0.574383 2.48139 0
M  V30 1664 H 154.234 2.24157 2.60016 0
M  V30 1665 N 156.679 -1.44442 0.630414 0
M  V30 1666 C 157.928 -2.01267 0.132073 0
M  V30 1667 C 158.241 -1.50172 -1.25331 0
M  V30 1668 O 159.447 -1.9912 -1.84562 0
M  V30 1669 C 157.903 -3.59422 0.185362 0
M  V30 1670 C 157.511 -4.19514 1.57201 0
M  V30 1671 C 159.255 -4.23724 -0.256553 0
M  V30 1672 C 157.162 -5.69891 1.58045 0
M  V30 1673 H 156.092 -0.752619 0.0456092 0
M  V30 1674 H 158.743 -1.65666 0.789106 0
M  V30 1675 H 157.125 -3.92318 -0.538759 0
M  V30 1676 H 158.299 -3.98156 2.31966 0
M  V30 1677 H 156.614 -3.67496 1.95795 0
M  V30 1678 H 159.211 -5.34019 -0.269767 0
M  V30 1679 H 159.554 -3.96013 -1.28372 0
M  V30 1680 H 160.087 -3.95629 0.41505 0
M  V30 1681 H 156.826 -6.02336 2.58597 0
M  V30 1682 H 156.346 -5.93373 0.875725 0
M  V30 1683 H 158.025 -6.33515 1.31408 0
M  V30 1684 N 158.157 -0.370918 -1.53173 0
M  V30 1685 C 159.397 0.217106 -2.03244 0
M  V30 1686 C 159.761 1.45558 -1.25207 0
M  V30 1687 O 160.962 2.11957 -1.65311 0
M  V30 1688 C 159.233 0.496664 -3.53932 0
M  V30 1689 S 160.792 1.0576 -4.25864 0
M  V30 1690 H 157.61 0.0627827 -0.708223 0
M  V30 1691 H 160.212 -0.515019 -1.88594 0
M  V30 1692 H 158.916 -0.412096 -4.08326 0
M  V30 1693 H 158.447 1.25772 -3.72753 0
M  V30 1694 H 160.462 2.34145 -4.37482 0
M  V30 1695 N 159.635 1.57281 -0.100228 0
M  V30 1696 C 160.545 2.17833 0.870965 0
M  V30 1697 C 161.561 1.14921 1.30649 0
M  V30 1698 O 162.737 1.47313 1.37335 0
M  V30 1699 C 159.802 2.75085 2.1102 0
M  V30 1700 C 158.863 3.9297 1.72838 0
M  V30 1701 C 158.096 4.47482 2.90854 0
M  V30 1702 O 158.319 4.00922 4.05731 0
M  V30 1703 O 157.253 5.38433 2.69023 0
M  V30 1704 H 161.079 3.0124 0.38575 0
M  V30 1705 H 158.664 1.48881 0.124397 0
M  V30 1706 H 160.546 3.11656 2.83634 0
M  V30 1707 H 159.221 1.94721 2.58584 0
M  V30 1708 H 158.128 3.61201 0.973883 0
M  V30 1709 H 159.461 4.74713 1.30033 0
M  V30 1710 N 161.113 -0.173488 1.56642 0
M  V30 1711 C 162.36 -0.890465 1.81871 0
M  V30 1712 C 162.688 -1.82339 0.67696 0
M  V30 1713 O 161.943 -1.92795 -0.335926 0
M  V30 1714 C 162.242 -1.72069 3.13252 0
M  V30 1715 C 161.908 -0.936878 4.41059 0
M  V30 1716 C 160.57 -0.720545 4.75775 0
M  V30 1717 C 162.922 -0.386919 5.19762 0
M  V30 1718 C 160.25 0.0568829 5.86672 0
M  V30 1719 C 162.602 0.37741 6.31473 0
M  V30 1720 C 161.266 0.604563 6.64757 0
M  V30 1721 H 160.536 -0.325844 0.665512 0
M  V30 1722 H 163.183 -0.155527 1.90867 0
M  V30 1723 H 161.488 -2.52496 2.99588 0
M  V30 1724 H 163.185 -2.27844 3.29982 0
M  V30 1725 H 159.775 -1.11553 4.13828 0
M  V30 1726 H 163.959 -0.541398 4.93338 0
M  V30 1727 H 159.215 0.242635 6.10918 0
M  V30 1728 H 163.389 0.810825 6.91664 0
M  V30 1729 H 161.016 1.20885 7.50527 0
M  V30 1730 N 162.591 -1.51276 -0.441967 0
M  V30 1731 C 163.524 -1.66933 -1.55591 0
M  V30 1732 C 164.502 -0.516958 -1.54163 0
M  V30 1733 O 165.686 -0.740209 -1.73358 0
M  V30 1734 C 162.813 -1.67866 -2.94174 0
M  V30 1735 C 161.859 -2.89013 -3.13646 0
M  V30 1736 S 162.692 -4.49897 -2.90436 0
M  V30 1737 C 163.848 -4.53568 -4.31308 0
M  V30 1738 H 164.081 -2.61155 -1.42076 0
M  V30 1739 H 161.614 -1.40902 -0.631341 0
M  V30 1740 H 163.572 -1.69089 -3.74058 0
M  V30 1741 H 162.233 -0.748296 -3.05056 0
M  V30 1742 H 161.426 -2.86054 -4.14957 0
M  V30 1743 H 161.028 -2.85509 -2.4158 0
M  V30 1744 H 163.32 -4.28924 -5.24434 0
M  V30 1745 H 164.263 -5.55355 -4.39303 0
M  V30 1746 H 164.671 -3.82943 -4.14747 0
M  V30 1747 N 164.069 0.697108 -1.41344 0
M  V30 1748 C 165.297 1.48593 -1.43972 0
M  V30 1749 C 165.712 1.88747 -0.0445612 0
M  V30 1750 O 165.069 1.56682 0.935785 0
M  V30 1751 C 165.12 2.74946 -2.34706 0
M  V30 1752 O 164.841 2.36484 -3.68791 0
M  V30 1753 C 166.342 3.687 -2.46121 0
M  V30 1754 H 163.562 0.457964 -0.490418 0
M  V30 1755 H 166.106 0.858429 -1.8561 0
M  V30 1756 H 164.261 3.33937 -1.9638 0
M  V30 1757 H 164.675 3.17918 -4.17167 0
M  V30 1758 H 166.149 4.54145 -3.13777 0
M  V30 1759 H 166.626 4.13081 -1.49199 0
M  V30 1760 H 167.232 3.15613 -2.85076 0
M  V30 1761 N 165.547 1.27147 0.931209 0
M  V30 1762 C 166.794 1.13278 1.67852 0
M  V30 1763 C 167.122 -0.32204 1.91815 0
M  V30 1764 O 166.377 -1.25224 1.50391 0
M  V30 1765 C 166.676 1.8579 3.05314 0
M  V30 1766 C 166.342 3.35657 3.01073 0
M  V30 1767 C 165.004 3.76536 2.99623 0
M  V30 1768 C 167.356 4.31299 2.92627 0
M  V30 1769 C 164.684 5.11426 2.87506 0
M  V30 1770 C 167.036 5.66242 2.82051 0
M  V30 1771 C 165.7 6.06418 2.7895 0
M  V30 1772 H 164.97 0.414515 0.614214 0
M  V30 1773 H 167.617 1.57712 1.08624 0
M  V30 1774 H 165.922 1.33854 3.68226 0
M  V30 1775 H 167.619 1.72491 3.62005 0
M  V30 1776 H 164.209 3.03146 3.02986 0
M  V30 1777 H 168.393 4.00692 2.92848 0
M  V30 1778 H 163.649 5.41705 2.83489 0
M  V30 1779 H 167.823 6.40026 2.74481 0
M  V30 1780 H 165.45 7.10895 2.69318 0
M  V30 1781 N 167.025 -1.13721 1.09112 0
M  V30 1782 C 167.973 -2.21103 0.722219 0
M  V30 1783 C 168.967 -1.67147 -0.275374 0
M  V30 1784 O 170.173 -1.79477 -0.137176 0
M  V30 1785 H 166.548 -0.720445 0.215553 0
M  V30 1786 H 168.519 -2.49483 1.63709 0
M  V30 1787 C 167.268 -3.47352 0.15543 0
M  V30 1788 H 166.591 -3.89206 0.914246 0
M  V30 1789 H 168.031 -4.2395 -0.0647967 0
M  V30 1790 C 166.49 -3.1814 -1.10852 0
M  V30 1791 O 167.02 -3.36604 -2.19227 0
M  V30 1792 N 165.226 -2.72045 -1.02176 0
M  V30 1793 H 164.773 -2.57221 -0.139764 0
M  V30 1794 H 164.731 -2.52875 -1.8682 0
M  V30 1795 N 168.503 -0.877838 -1.30888 0
M  V30 1796 C 169.75 -0.492696 -1.96415 0
M  V30 1797 C 170.078 0.956671 -1.69346 0
M  V30 1798 O 169.333 1.68993 -0.986913 0
M  V30 1799 C 169.632 -0.705748 -3.50363 0
M  V30 1800 C 169.298 -2.1291 -3.97467 0
M  V30 1801 C 167.96 -2.51834 -4.1004 0
M  V30 1802 C 170.312 -3.05702 -4.22132 0
M  V30 1803 C 167.64 -3.82775 -4.44635 0
M  V30 1804 C 169.992 -4.36166 -4.58194 0
M  V30 1805 C 168.656 -4.74993 -4.68975 0
M  V30 1806 H 167.926 -0.18029 -0.718733 0
M  V30 1807 H 170.573 -1.11233 -1.55883 0
M  V30 1808 H 168.878 -0.00303058 -3.918 0
M  V30 1809 H 170.575 -0.387456 -3.99124 0
M  V30 1810 H 167.165 -1.81694 -3.88182 0
M  V30 1811 H 171.349 -2.76853 -4.11906 0
M  V30 1812 H 166.605 -4.12609 -4.51181 0
M  V30 1813 H 170.779 -5.08111 -4.76231 0
M  V30 1814 H 168.406 -5.76495 -4.95537 0
M  V30 1815 N 169.982 1.44106 -0.638065 0
M  V30 1816 C 171.207 2.0685 -0.150916 0
M  V30 1817 C 171.632 1.47417 1.16833 0
M  V30 1818 O 170.99 0.578264 1.71831 0
M  V30 1819 C 171.038 3.60555 -0.05708 0
M  V30 1820 O 170.142 4.00465 0.984972 0
M  V30 1821 H 169.483 0.658151 -0.0879399 0
M  V30 1822 H 172.013 1.84865 -0.876707 0
M  V30 1823 H 172.023 4.07789 0.131232 0
M  V30 1824 H 170.698 4.03193 -1.02021 0
M  V30 1825 H 169.275 3.64849 0.770672 0
M  V30 1826 N 171.46 0.379036 1.52974 0
M  V30 1827 C 172.393 -0.504932 2.22544 0
M  V30 1828 C 173.371 -1.0723 1.22231 0
M  V30 1829 O 174.555 -1.12589 1.51182 0
M  V30 1830 C 171.682 -1.69794 2.93066 0
M  V30 1831 C 170.728 -1.25678 4.07563 0
M  V30 1832 S 171.561 -0.246852 5.34931 0
M  V30 1833 C 172.717 -1.44588 6.08971 0
M  V30 1834 H 172.95 0.0858666 2.97176 0
M  V30 1835 H 170.483 0.163183 1.53535 0
M  V30 1836 H 172.441 -2.38219 3.34308 0
M  V30 1837 H 171.102 -2.26002 2.18133 0
M  V30 1838 H 170.295 -2.14725 4.5597 0
M  V30 1839 H 169.897 -0.651584 3.6828 0
M  V30 1840 H 172.189 -2.37469 6.34519 0
M  V30 1841 H 173.132 -1.00292 7.00962 0
M  V30 1842 H 173.54 -1.65804 5.39601 0
M  V30 1843 N 172.938 -1.57226 0.108567 0
M  V30 1844 C 173.87 -2.11809 -0.875752 0
M  V30 1845 C 174.883 -1.05839 -1.23701 0
M  V30 1846 O 176.072 -1.33245 -1.18778 0
M  V30 1847 C 173.172 -2.59411 -2.18081 0
M  V30 1848 C 172.345 -3.89364 -1.99284 0
M  V30 1849 C 171.404 -4.22672 -3.13424 0
M  V30 1850 O 170.43 -4.91668 -2.86795 0
M  V30 1851 N 171.632 -3.79154 -4.3957 0
M  V30 1852 H 174.397 -2.9689 -0.409477 0
M  V30 1853 H 171.958 -1.61721 -0.076158 0
M  V30 1854 H 173.95 -2.7873 -2.93414 0
M  V30 1855 H 172.52 -1.79268 -2.5609 0
M  V30 1856 H 171.74 -3.79059 -1.08203 0
M  V30 1857 H 173.028 -4.74358 -1.84017 0
M  V30 1858 H 172.426 -3.23486 -4.64083 0
M  V30 1859 H 170.983 -4.03602 -5.11809 0
M  V30 1860 N 174.416 0.165178 -1.56732 0
M  V30 1861 C 175.379 1.18822 -1.95995 0
M  V30 1862 C 176.379 1.3685 -0.84431 0
M  V30 1863 O 177.569 1.34152 -1.11126 0
M  V30 1864 C 174.701 2.5521 -2.26011 0
M  V30 1865 H 175.894 0.851825 -2.87548 0
M  V30 1866 H 173.447 0.407857 -1.50885 0
M  V30 1867 H 174.182 2.93852 -1.37191 0
M  V30 1868 H 173.967 2.43489 -3.07336 0
M  V30 1869 H 175.457 3.28927 -2.57288 0
M  V30 1870 N 175.894 1.51508 0.433938 0
M  V30 1871 C 177.143 1.63578 1.18005 0
M  V30 1872 C 177.456 0.359514 1.92268 0
M  V30 1873 O 178.662 0.359632 2.69108 0
M  V30 1874 C 177.118 2.88901 2.14626 0
M  V30 1875 C 176.726 4.23544 1.45995 0
M  V30 1876 C 178.47 3.10328 2.89649 0
M  V30 1877 C 176.377 5.40014 2.4112 0
M  V30 1878 H 175.307 0.609277 0.444182 0
M  V30 1879 H 177.958 1.77978 0.446773 0
M  V30 1880 H 176.34 2.68142 2.91403 0
M  V30 1881 H 177.514 4.54696 0.747532 0
M  V30 1882 H 175.829 4.08021 0.831115 0
M  V30 1883 H 178.426 3.94518 3.60915 0
M  V30 1884 H 178.769 2.23544 3.51189 0
M  V30 1885 H 179.302 3.31443 2.19978 0
M  V30 1886 H 176.041 6.29068 1.84264 0
M  V30 1887 H 175.561 5.13233 3.10406 0
M  V30 1888 H 177.24 5.72099 3.02177 0
M  V30 1889 N 177.372 -0.689602 1.41712 0
M  V30 1890 C 178.649 -1.44457 1.31877 0
M  V30 1891 C 179.029 -2.11039 -0.0508537 0
M  V30 1892 O 178.377 -2.02138 -1.06547 0
M  V30 1893 C 178.587 -2.45913 2.47645 0
M  V30 1894 C 179.935 -3.10991 2.89084 0
M  V30 1895 O 180.959 -2.56238 2.47428 0
M  V30 1896 O 179.818 -4.10174 3.61137 0
M  V30 1897 H 176.912 -0.64362 0.519309 0
M  V30 1898 H 179.458 -0.719576 1.53689 0
M  V30 1899 H 178.23 -1.95409 3.39015 0
M  V30 1900 H 177.853 -3.25913 2.27742 0
M  V30 1901 N 178.85 -1.27639 -0.924453 0
M  V30 1902 C 179.782 -1.06442 -2.02985 0
M  V30 1903 C 180.795 -0.0194771 -1.62788 0
M  V30 1904 O 181.984 -0.261388 -1.76576 0
M  V30 1905 C 179.084 -0.59327 -3.33667 0
M  V30 1906 C 178.257 -1.71123 -4.02537 0
M  V30 1907 C 177.316 -1.23527 -5.11495 0
M  V30 1908 O 176.342 -1.93553 -5.35281 0
M  V30 1909 N 177.544 -0.0926678 -5.80426 0
M  V30 1910 H 180.309 -2.01633 -2.2173 0
M  V30 1911 H 177.87 -1.19248 -1.09505 0
M  V30 1912 H 179.862 -0.258686 -4.03872 0
M  V30 1913 H 178.432 0.265502 -3.1147 0
M  V30 1914 H 177.652 -2.21593 -3.26022 0
M  V30 1915 H 178.94 -2.46145 -4.45298 0
M  V30 1916 H 178.338 0.491741 -5.63559 0
M  V30 1917 H 176.895 0.182714 -6.51544 0
M  V30 1918 N 180.328 1.1314 -1.09713 0
M  V30 1919 C 181.574 1.84757 -0.836224 0
M  V30 1920 C 181.907 1.8347 0.636598 0
M  V30 1921 O 181.182 1.27491 1.46889 0
M  V30 1922 C 181.465 3.32782 -1.37578 0
M  V30 1923 C 181.318 3.42567 -2.91493 0
M  V30 1924 C 182.637 4.28307 -1.01198 0
M  V30 1925 H 179.756 0.67082 -0.305236 0
M  V30 1926 H 182.398 1.3278 -1.35903 0
M  V30 1927 H 180.548 3.77177 -0.931097 0
M  V30 1928 H 182.22 3.06862 -3.44432 0
M  V30 1929 H 180.463 2.83349 -3.28475 0
M  V30 1930 H 181.134 4.46674 -3.24324 0
M  V30 1931 H 183.61 3.91999 -1.39556 0
M  V30 1932 H 182.486 5.30307 -1.41653 0
M  V30 1933 H 182.747 4.42029 0.0794833 0
M  V30 1934 N 181.806 0.884767 1.30421 0
M  V30 1935 C 183.055 0.499164 1.95426 0
M  V30 1936 C 183.368 -0.95645 1.70621 0
M  V30 1937 O 184.574 -1.44889 2.29607 0
M  V30 1938 C 183.03 0.84177 3.49917 0
M  V30 1939 C 182.638 2.31514 3.83543 0
M  V30 1940 C 184.382 0.525355 4.21237 0
M  V30 1941 C 182.289 2.59939 5.31212 0
M  V30 1942 H 181.219 0.182944 0.73147 0
M  V30 1943 H 183.87 1.07971 1.48373 0
M  V30 1944 H 182.252 0.190311 3.95542 0
M  V30 1945 H 183.426 3.0109 3.48829 0
M  V30 1946 H 181.741 2.59907 3.25326 0
M  V30 1947 H 184.338 0.714762 5.29901 0
M  V30 1948 H 184.681 -0.535222 4.12845 0
M  V30 1949 H 185.214 1.134 3.81294 0
M  V30 1950 H 181.953 3.64736 5.44654 0
M  V30 1951 H 181.473 1.94972 5.67227 0
M  V30 1952 H 183.152 2.45429 5.98643 0
M  V30 1953 N 183.284 -1.43765 0.645699 0
M  V30 1954 C 184.232 -2.32516 -0.0624849 0
M  V30 1955 C 185.226 -1.48183 -0.820855 0
M  V30 1956 O 186.432 -1.64439 -0.732106 0
M  V30 1957 H 182.807 -0.750989 -0.0389864 0
M  V30 1958 H 184.778 -2.89979 0.703892 0
M  V30 1959 C 183.527 -3.32389 -1.02044 0
M  V30 1960 H 182.85 -3.97301 -0.446312 0
M  V30 1961 H 184.29 -3.97138 -1.48517 0
M  V30 1962 C 182.749 -2.62416 -2.11281 0
M  V30 1963 O 183.279 -2.434 -3.19561 0
M  V30 1964 N 181.485 -2.21913 -1.87624 0
M  V30 1965 H 181.032 -2.37578 -0.995703 0
M  V30 1966 H 180.99 -1.75424 -2.6091 0
M  V30 1967 N 184.763 -0.387143 -1.52771 0
M  V30 1968 C 185.988 0.198407 -2.06449 0
M  V30 1969 C 186.413 1.39918 -1.25716 0
M  V30 1970 O 185.771 1.79099 -0.281657 0
M  V30 1971 C 185.819 0.548893 -3.56398 0
M  V30 1972 O 184.923 1.64315 -3.78252 0
M  V30 1973 H 184.264 0.0237731 -0.663574 0
M  V30 1974 H 186.794 -0.553989 -1.96957 0
M  V30 1975 H 186.804 0.813812 -3.99801 0
M  V30 1976 H 185.479 -0.329005 -4.14597 0
M  V30 1977 H 184.056 1.37211 -3.46738 0
M  V30 1978 N 186.241 1.57166 -0.116904 0
M  V30 1979 C 187.204 2.14039 0.819742 0
M  V30 1980 C 188.204 1.07477 1.19605 0
M  V30 1981 O 189.394 1.33263 1.1219 0
M  V30 1982 C 186.526 2.67891 2.10826 0
M  V30 1983 H 187.719 2.98128 0.325511 0
M  V30 1984 H 185.272 1.55739 0.132312 0
M  V30 1985 H 186.007 1.87384 2.64685 0
M  V30 1986 H 185.792 3.45823 1.84793 0
M  V30 1987 H 187.282 3.11809 2.77785 0
M  V30 1988 N 187.719 -0.156864 1.56817 0
M  V30 1989 C 188.682 -1.17781 1.96622 0
M  V30 1990 C 189.682 -1.36401 0.851555 0
M  V30 1991 O 190.872 -1.33561 1.11836 0
M  V30 1992 C 188.004 -2.54008 2.27361 0
M  V30 1993 H 189.197 -0.836564 2.87996 0
M  V30 1994 H 186.75 -0.39985 1.51099 0
M  V30 1995 H 187.485 -2.9312 1.38748 0
M  V30 1996 H 187.27 -2.41856 3.08623 0
M  V30 1997 H 188.76 -3.27558 2.59029 0
M  V30 1998 N 189.197 -1.51736 -0.425897 0
M  V30 1999 C 190.144 -1.73875 -1.51776 0
M  V30 2000 C 191.114 -0.580702 -1.55618 0
M  V30 2001 O 192.299 -0.81641 -1.72451 0
M  V30 2002 C 189.439 -1.88012 -2.89388 0
M  V30 2003 C 188.552 -3.15606 -2.94986 0
M  V30 2004 C 187.687 -3.20271 -4.23793 0
M  V30 2005 C 186.726 -4.42134 -4.23302 0
M  V30 2006 N 185.863 -4.44284 -5.43651 0
M  V30 2007 H 190.703 -2.67071 -1.32201 0
M  V30 2008 H 188.24 -1.32351 -0.642008 0
M  V30 2009 H 190.198 -1.9419 -3.69251 0
M  V30 2010 H 188.828 -0.98213 -3.07496 0
M  V30 2011 H 187.88 -3.18681 -2.07717 0
M  V30 2012 H 189.192 -4.05486 -2.90486 0
M  V30 2013 H 188.346 -3.25428 -5.12036 0
M  V30 2014 H 187.085 -2.28299 -4.30965 0
M  V30 2015 H 186.09 -4.3714 -3.3345 0
M  V30 2016 H 187.315 -5.35382 -4.17783 0
M  V30 2017 H 185.261 -3.55188 -5.51523 0
M  V30 2018 H 185.178 -5.27988 -5.41078 0
M  V30 2019 H 186.446 -4.53649 -6.33895 0
M  V30 2020 N 190.675 0.682077 -1.42076 0
M  V30 2021 C 191.903 1.47057 -1.4554 0
M  V30 2022 C 192.318 1.8869 -0.0645779 0
M  V30 2023 O 191.675 1.57666 0.919115 0
M  V30 2024 C 191.726 2.72442 -2.37609 0
M  V30 2025 O 191.447 2.32559 -3.71279 0
M  V30 2026 C 192.948 3.66069 -2.50017 0
M  V30 2027 H 190.168 0.452737 -0.495248 0
M  V30 2028 H 192.712 0.838695 -1.8651 0
M  V30 2029 H 190.867 3.31835 -1.9991 0
M  V30 2030 H 191.281 3.13475 -4.20516 0
M  V30 2031 H 192.755 4.50792 -3.18576 0
M  V30 2032 H 193.232 4.11476 -1.53572 0
M  V30 2033 H 193.838 3.12572 -2.88407 0
M  V30 2034 N 192.153 1.28127 0.917671 0
M  V30 2035 C 193.383 1.17722 1.6978 0
M  V30 2036 C 193.791 -0.267261 1.87303 0
M  V30 2037 O 193.134 -1.19286 1.39702 0
M  V30 2038 C 193.196 1.79958 3.11216 0
M  V30 2039 C 192.86 3.29187 3.16993 0
M  V30 2040 C 193.857 4.25679 2.98485 0
M  V30 2041 C 191.542 3.70075 3.39632 0
M  V30 2042 C 193.536 5.61035 3.02521 0
M  V30 2043 C 191.223 5.05557 3.433 0
M  V30 2044 C 192.221 6.00847 3.24764 0
M  V30 2045 O 191.909 7.33859 3.28187 0
M  V30 2046 H 191.641 0.409788 0.537634 0
M  V30 2047 H 194.195 1.69694 1.15728 0
M  V30 2048 H 192.425 1.22475 3.66793 0
M  V30 2049 H 194.114 1.64125 3.71238 0
M  V30 2050 H 194.88 3.95426 2.80826 0
M  V30 2051 H 190.759 2.96373 3.53106 0
M  V30 2052 H 194.303 6.35388 2.87971 0
M  V30 2053 H 190.2 5.35462 3.60486 0
M  V30 2054 H 190.968 7.42436 3.44575 0
M  V30 2055 N 193.631 -1.12557 1.10312 0
M  V30 2056 C 194.861 -1.87592 0.865617 0
M  V30 2057 C 195.269 -1.79851 -0.587389 0
M  V30 2058 O 194.612 -1.16949 -1.41664 0
M  V30 2059 C 194.674 -3.37665 1.23381 0
M  V30 2060 C 194.338 -3.69181 2.69359 0
M  V30 2061 C 195.335 -3.67652 3.67597 0
M  V30 2062 C 193.02 -3.98555 3.05711 0
M  V30 2063 C 195.014 -3.95053 5.00212 0
M  V30 2064 C 192.701 -4.25616 4.38514 0
M  V30 2065 C 193.699 -4.23851 5.35574 0
M  V30 2066 O 193.387 -4.50242 6.65986 0
M  V30 2067 H 193.119 -0.600442 0.310557 0
M  V30 2068 H 195.673 -1.4335 1.47105 0
M  V30 2069 H 193.903 -3.82454 0.571467 0
M  V30 2070 H 195.592 -3.94041 0.973994 0
M  V30 2071 H 196.358 -3.45024 3.40857 0
M  V30 2072 H 192.237 -3.99071 2.30789 0
M  V30 2073 H 195.781 -3.93591 5.75962 0
M  V30 2074 H 191.678 -4.47718 4.64994 0
M  V30 2075 H 192.446 -4.67867 6.71597 0
M  V30 2076 N 195.109 -0.891671 -1.2995 0
M  V30 2077 C 196.042 -0.307994 -2.26112 0
M  V30 2078 C 197.02 0.575262 -1.52084 0
M  V30 2079 O 198.204 0.523864 -1.81074 0
M  V30 2080 C 195.331 0.561734 -3.34009 0
M  V30 2081 C 194.377 -0.253107 -4.25748 0
M  V30 2082 S 195.21 -1.64572 -5.09584 0
M  V30 2083 C 196.366 -0.782699 -6.20987 0
M  V30 2084 H 196.599 -1.12309 -2.75271 0
M  V30 2085 H 194.132 -0.691509 -1.38049 0
M  V30 2086 H 196.09 1.05777 -3.96638 0
M  V30 2087 H 194.751 1.35099 -2.83561 0
M  V30 2088 H 193.944 0.410908 -5.02322 0
M  V30 2089 H 193.546 -0.682004 -3.67729 0
M  V30 2090 H 195.838 -0.00257476 -6.775 0
M  V30 2091 H 196.781 -1.52026 -6.91588 0
M  V30 2092 H 197.189 -0.340638 -5.63471 0
M  V30 2093 N 196.587 1.43421 -0.653314 0
M  V30 2094 C 197.812 2.06678 -0.172846 0
M  V30 2095 C 198.237 1.48648 1.15262 0
M  V30 2096 O 197.595 0.596457 1.71208 0
M  V30 2097 C 197.643 3.60474 -0.0953184 0
M  V30 2098 O 196.747 4.01487 0.942442 0
M  V30 2099 H 196.088 0.657181 -0.0949155 0
M  V30 2100 H 198.618 1.83925 -0.896265 0
M  V30 2101 H 198.628 4.07905 0.0879728 0
M  V30 2102 H 197.303 4.02088 -1.06291 0
M  V30 2103 H 195.88 3.65646 0.731932 0
M  V30 2104 N 198.065 0.39524 1.52563 0
M  V30 2105 C 199.313 -0.184678 2.01254 0
M  V30 2106 C 199.634 -1.46822 1.28329 0
M  V30 2107 O 198.904 -1.91666 0.405094 0
M  V30 2108 H 197.484 -0.0712355 0.743596 0
M  V30 2109 H 200.146 0.528293 1.87603 0
M  V30 2110 H 199.242 -0.390681 3.09645 0
M  V30 2111 N 199.544 -1.57102 0.125237 0
M  V30 2112 C 200.792 -1.95021 -0.530198 0
M  V30 2113 C 201.113 -1.00982 -1.66816 0
M  V30 2114 O 200.383 -0.0672693 -1.95784 0
M  V30 2115 H 198.963 -0.720046 -0.198853 0
M  V30 2116 H 201.625 -1.93916 0.19564 0
M  V30 2117 H 200.721 -2.98211 -0.920681 0
M  V30 2118 N 201.022 0.148545 -1.56898 0
M  V30 2119 C 201.952 1.18524 -2.01182 0
M  V30 2120 C 202.933 1.4489 -0.891123 0
M  V30 2121 O 204.118 1.55836 -1.15882 0
M  V30 2122 C 201.248 2.51879 -2.39112 0
M  V30 2123 C 200.202 2.40038 -3.54353 0
M  V30 2124 C 199.528 3.78089 -3.78091 0
M  V30 2125 C 200.828 1.88577 -4.87069 0
M  V30 2126 H 202.522 0.817029 -2.88036 0
M  V30 2127 H 200.068 0.391575 -1.38574 0
M  V30 2128 H 202.021 3.24627 -2.68692 0
M  V30 2129 H 200.745 2.90532 -1.49193 0
M  V30 2130 H 199.404 1.69742 -3.24936 0
M  V30 2131 H 199.052 4.14175 -2.85426 0
M  V30 2132 H 198.752 3.71028 -4.55645 0
M  V30 2133 H 200.276 4.52387 -4.10095 0
M  V30 2134 H 201.69 2.51117 -5.15377 0
M  V30 2135 H 200.087 1.9241 -5.68417 0
M  V30 2136 H 201.157 0.84136 -4.77545 0
M  V30 2137 N 202.5 1.5196 0.417844 0
M  V30 2138 C 203.432 1.70895 1.52733 0
M  V30 2139 C 204.445 0.589405 1.51756 0
M  V30 2140 O 205.634 0.864312 1.56179 0
M  V30 2141 C 202.734 1.72627 2.91639 0
M  V30 2142 C 201.907 3.01479 3.16905 0
M  V30 2143 C 200.966 2.95139 4.35637 0
M  V30 2144 O 199.992 3.69059 4.3334 0
M  V30 2145 N 201.194 2.12328 5.40275 0
M  V30 2146 H 203.959 2.66612 1.36888 0
M  V30 2147 H 201.52 1.50089 0.607037 0
M  V30 2148 H 203.512 1.65928 3.6912 0
M  V30 2149 H 202.082 0.844216 3.00985 0
M  V30 2150 H 201.302 3.21895 2.27546 0
M  V30 2151 H 202.59 3.86736 3.30625 0
M  V30 2152 H 201.988 1.51685 5.44985 0
M  V30 2153 H 200.545 2.11494 6.16534 0
M  V30 2154 N 203.978 -0.674533 1.42435 0
M  V30 2155 C 205.389 -1.25514 1.38214 0
M  V30 2156 C 205.74 -1.96055 0.0755464 0
M  V30 2157 O 204.865 -2.00028 -0.8257 0
M  V30 2158 C 205.46 -2.28269 2.50357 0
M  V30 2159 C 204.019 -2.81856 2.49467 0
M  V30 2160 C 203.166 -1.56182 2.29134 0
M  V30 2161 H 206.117 -0.467902 1.51646 0
M  V30 2162 H 206.138 -3.10009 2.20624 0
M  V30 2163 H 205.65 -1.769 3.45439 0
M  V30 2164 H 203.751 -3.37346 1.58204 0
M  V30 2165 H 203.864 -3.30854 3.46515 0
M  V30 2166 H 202.228 -1.82761 1.774 0
M  V30 2167 H 203.011 -1.06778 3.26272 0
M  V30 2168 N 205.456 -1.28612 -0.910864 0
M  V30 2169 C 206.702 -1.16106 -1.66274 0
M  V30 2170 C 207.035 0.289113 -1.92036 0
M  V30 2171 O 206.31 1.21 -1.52281 0
M  V30 2172 C 206.593 -1.96309 -3.01885 0
M  V30 2173 C 206.446 -3.49405 -2.8326 0
M  V30 2174 C 207.765 -1.78076 -4.02463 0
M  V30 2175 H 204.884 -0.423152 -0.603417 0
M  V30 2176 H 207.526 -1.57961 -1.05586 0
M  V30 2177 H 205.676 -1.60742 -3.53687 0
M  V30 2178 H 207.348 -3.94894 -2.38446 0
M  V30 2179 H 205.591 -3.74893 -2.18261 0
M  V30 2180 H 206.262 -4.00784 -3.79574 0
M  V30 2181 H 208.738 -2.0912 -3.59733 0
M  V30 2182 H 207.614 -2.36561 -4.95308 0
M  V30 2183 H 207.875 -0.733008 -4.35981 0
M  V30 2184 N 206.934 1.1197 -1.10907 0
M  V30 2185 C 208.345 1.65114 -0.871446 0
M  V30 2186 C 208.696 1.86885 0.597353 0
M  V30 2187 O 207.821 1.59896 1.45816 0
M  V30 2188 C 208.416 2.99944 -1.5754 0
M  V30 2189 C 206.975 3.50018 -1.38435 0
M  V30 2190 C 206.122 2.24941 -1.62164 0
M  V30 2191 H 209.073 0.956851 -1.2661 0
M  V30 2192 H 209.094 3.66651 -1.01721 0
M  V30 2193 H 208.606 2.84067 -2.64438 0
M  V30 2194 H 206.707 3.71071 -0.337214 0
M  V30 2195 H 206.82 4.29165 -2.12965 0
M  V30 2196 H 205.184 2.3229 -1.04467 0
M  V30 2197 H 205.967 2.11612 -2.70324 0
M  V30 2198 N 208.412 0.89855 1.29475 0
M  V30 2199 C 209.661 0.519863 1.94885 0
M  V30 2200 C 209.974 -0.9383 1.71625 0
M  V30 2201 O 211.18 -1.42445 2.31131 0
M  V30 2202 C 209.636 0.878836 3.49005 0
M  V30 2203 C 209.244 2.35569 3.81066 0
M  V30 2204 C 210.988 0.570004 4.20656 0
M  V30 2205 C 208.895 2.65558 5.28425 0
M  V30 2206 H 207.825 0.190692 0.729488 0
M  V30 2207 H 210.476 1.09539 1.47219 0
M  V30 2208 H 208.858 0.232253 3.95318 0
M  V30 2209 H 210.032 3.04773 3.45616 0
M  V30 2210 H 208.347 2.63343 3.22552 0
M  V30 2211 H 210.944 0.770925 5.29113 0
M  V30 2212 H 211.287 -0.491404 4.1339 0
M  V30 2213 H 211.82 1.17438 3.8007 0
M  V30 2214 H 208.559 3.70493 5.40754 0
M  V30 2215 H 208.079 2.00977 5.65127 0
M  V30 2216 H 209.758 2.51765 5.96006 0
M  V30 2217 N 209.89 -1.43072 0.660911 0
M  V30 2218 C 211.136 -2.0202 0.177708 0
M  V30 2219 C 211.469 -1.52066 -1.20787 0
M  V30 2220 O 210.744 -0.716987 -1.80802 0
M  V30 2221 C 211.027 -3.59561 0.197019 0
M  V30 2222 C 210.88 -4.19727 1.61706 0
M  V30 2223 C 212.199 -4.37664 -0.462396 0
M  V30 2224 H 209.318 -0.734034 0.0660494 0
M  V30 2225 H 211.96 -1.70272 0.843058 0
M  V30 2226 H 210.11 -3.86739 -0.369527 0
M  V30 2227 H 211.782 -4.03553 2.23479 0
M  V30 2228 H 210.025 -3.76084 2.16201 0
M  V30 2229 H 210.696 -5.28834 1.58237 0
M  V30 2230 H 213.172 -4.16095 0.0197215 0
M  V30 2231 H 212.048 -5.47305 -0.418188 0
M  V30 2232 H 212.309 -4.14493 -1.53778 0
M  V30 2233 N 211.368 -0.403325 -1.52352 0
M  V30 2234 C 212.615 0.174347 -2.01748 0
M  V30 2235 C 212.943 1.45636 -1.2892 0
M  V30 2236 O 212.198 1.9193 -0.382258 0
M  V30 2237 C 212.497 0.474665 -3.54234 0
M  V30 2238 C 212.163 -0.717458 -4.45155 0
M  V30 2239 C 210.825 -1.04447 -4.69728 0
M  V30 2240 C 213.177 -1.51432 -4.98716 0
M  V30 2241 C 210.505 -2.16963 -5.45109 0
M  V30 2242 C 212.857 -2.6302 -5.75329 0
M  V30 2243 C 211.521 -2.96213 -5.98175 0
M  V30 2244 H 210.791 0.0637981 -0.738248 0
M  V30 2245 H 213.438 -0.543553 -1.83624 0
M  V30 2246 H 211.743 1.27406 -3.70506 0
M  V30 2247 H 213.44 0.934496 -3.89959 0
M  V30 2248 H 210.03 -0.452596 -4.26204 0
M  V30 2249 H 214.214 -1.27491 -4.79645 0
M  V30 2250 H 209.47 -2.43034 -5.61021 0
M  V30 2251 H 213.644 -3.25158 -6.15829 0
M  V30 2252 H 211.271 -3.83516 -6.56368 0
M  V30 2253 N 212.846 1.57033 -0.133567 0
M  V30 2254 C 214.262 1.58035 0.222944 0
M  V30 2255 C 214.462 1.14713 1.6566 0
M  V30 2256 O 213.518 0.841218 2.38075 0
M  V30 2257 C 214.831 3.00691 -0.0236116 0
M  V30 2258 C 216.379 3.12973 0.0411512 0
M  V30 2259 C 216.854 4.57654 -0.177899 0
M  V30 2260 N 218.345 4.63033 -0.124365 0
M  V30 2261 C 219.08 5.72771 -0.268553 0
M  V30 2262 N 218.576 6.91206 -0.46972 0
M  V30 2263 N 220.369 5.61718 -0.2071 0
M  V30 2264 H 212.52 1.8349 -1.06981 0
M  V30 2265 H 214.783 0.848677 -0.422436 0
M  V30 2266 H 214.489 3.36726 -1.0153 0
M  V30 2267 H 214.363 3.70614 0.701808 0
M  V30 2268 H 216.75 2.76787 1.02338 0
M  V30 2269 H 216.831 2.45564 -0.716383 0
M  V30 2270 H 216.475 4.94542 -1.15717 0
M  V30 2271 H 216.405 5.23173 0.599797 0
M  V30 2272 H 218.896 3.7789 0.027011 0
M  V30 2273 H 219.209 7.70693 -0.570212 0
M  V30 2274 H 217.554 6.93156 -0.505876 0
M  V30 2275 H 220.745 4.68072 -0.0507986 0
M  V30 2276 H 220.918 6.47195 -0.322909 0
M  V30 2277 N 214.325 -0.140222 1.56975 0
M  V30 2278 C 215.573 -0.850005 1.83356 0
M  V30 2279 C 215.894 -1.81399 0.71551 0
M  V30 2280 O 215.164 -1.94136 -0.262294 0
M  V30 2281 H 213.744 -0.316886 0.676456 0
M  V30 2282 H 216.406 -0.132608 1.94448 0
M  V30 2283 H 215.502 -1.40814 2.78528 0
M  V30 2284 N 215.803 -1.52179 -0.40978 0
M  V30 2285 C 217.214 -1.58377 -0.988615 0
M  V30 2286 C 217.565 -0.423879 -1.91566 0
M  V30 2287 O 216.69 0.455844 -2.11544 0
M  V30 2288 C 217.285 -2.87044 -1.79976 0
M  V30 2289 C 215.844 -2.95722 -2.32863 0
M  V30 2290 C 214.991 -2.53309 -1.12828 0
M  V30 2291 H 217.942 -1.57558 -0.190039 0
M  V30 2292 H 217.963 -2.7236 -2.65707 0
M  V30 2293 H 217.475 -3.71444 -1.12478 0
M  V30 2294 H 215.576 -2.15814 -3.03735 0
M  V30 2295 H 215.689 -3.99951 -2.63773 0
M  V30 2296 H 214.053 -2.07142 -1.48204 0
M  V30 2297 H 214.836 -3.40082 -0.46897 0
M  V30 2298 N 217.281 0.66697 -1.42791 0
M  V30 2299 C 218.229 1.80157 -1.47127 0
M  V30 2300 C 219.223 1.65825 -0.346199 0
M  V30 2301 O 220.429 1.72338 -0.519572 0
M  V30 2302 H 216.804 0.594158 -0.460956 0
M  V30 2303 H 218.775 1.73619 -2.42692 0
M  V30 2304 C 217.524 3.18351 -1.39813 0
M  V30 2305 H 216.847 3.3001 -2.25684 0
M  V30 2306 H 218.287 3.97736 -1.46908 0
M  V30 2307 C 216.746 3.36707 -0.11391 0
M  V30 2308 O 217.276 3.93027 0.830241 0
M  V30 2309 N 215.482 2.90586 -0.0285295 0
M  V30 2310 H 215.029 2.4494 -0.79764 0
M  V30 2311 H 214.987 3.03245 0.830063 0
M  V30 2312 N 218.759 1.29093 0.90403 0
M  V30 2313 C 220.007 1.16583 1.65085 0
M  V30 2314 C 220.328 -0.283933 1.92922 0
M  V30 2315 O 219.598 -1.19509 1.55224 0
M  V30 2316 H 218.178 0.428467 0.611903 0
M  V30 2317 H 220.84 1.61959 1.08422 0
M  V30 2318 H 219.936 1.71266 2.6091 0
M  V30 2319 N 220.237 -1.11381 1.11499 0
M  V30 2320 C 221.2 -2.15622 0.777153 0
M  V30 2321 C 222.2 -1.59504 -0.203779 0
M  V30 2322 O 223.39 -1.74188 0.020782 0
M  V30 2323 C 220.522 -3.40556 0.153116 0
M  V30 2324 H 221.715 -2.47021 1.70061 0
M  V30 2325 H 219.268 -1.26577 0.916952 0
M  V30 2326 H 220.003 -3.14767 -0.780536 0
M  V30 2327 H 219.788 -3.8257 0.859238 0
M  V30 2328 H 221.278 -4.17546 -0.0671044 0
M  V30 2329 N 221.715 -0.905404 -1.28997 0
M  V30 2330 C 222.94 -0.549175 -1.99997 0
M  V30 2331 C 223.365 0.860276 -1.67275 0
M  V30 2332 O 222.723 1.57355 -0.900502 0
M  V30 2333 C 222.771 -0.755185 -3.52604 0
M  V30 2334 O 221.875 0.189692 -4.11964 0
M  V30 2335 H 221.216 -0.213899 -0.628604 0
M  V30 2336 H 223.746 -1.21856 -1.64354 0
M  V30 2337 H 223.756 -0.662045 -4.02593 0
M  V30 2338 H 222.431 -1.78271 -3.75755 0
M  V30 2339 H 221.008 0.0485257 -3.72868 0
M  V30 2340 N 223.193 1.4272 -0.668489 0
M  V30 2341 C 224.156 2.292 0.00448567 0
M  V30 2342 C 225.156 1.43001 0.735339 0
M  V30 2343 O 226.346 1.64461 0.57429 0
M  V30 2344 C 223.478 3.25375 1.01705 0
M  V30 2345 H 224.671 2.90199 -0.756608 0
M  V30 2346 H 222.224 1.50254 -0.430506 0
M  V30 2347 H 222.959 2.69301 1.80686 0
M  V30 2348 H 222.744 3.88944 0.496463 0
M  V30 2349 H 224.234 3.90245 1.48655 0
M  V30 2350 N 224.671 0.411399 1.52136 0
M  V30 2351 C 225.919 -0.163322 2.01439 0
M  V30 2352 C 226.24 -1.45453 1.29879 0
M  V30 2353 O 225.51 -1.91225 0.4254 0
M  V30 2354 H 224.09 -0.0633447 0.744309 0
M  V30 2355 H 226.752 0.548161 1.87033 0
M  V30 2356 H 225.848 -0.357817 3.10042 0
M  V30 2357 N 226.149 -1.5696 0.141893 0
M  V30 2358 C 227.395 -1.9625 -0.511248 0
M  V30 2359 C 227.728 -1.02654 -1.64851 0
M  V30 2360 O 227.003 -0.0679676 -1.94381 0
M  V30 2361 C 227.286 -3.45285 -1.02227 0
M  V30 2362 C 227.139 -4.49658 0.113138 0
M  V30 2363 C 228.458 -3.96698 -1.90574 0
M  V30 2364 H 225.577 -0.713567 -0.184367 0
M  V30 2365 H 228.219 -1.88698 0.222087 0
M  V30 2366 H 226.369 -3.51852 -1.64719 0
M  V30 2367 H 228.041 -4.55174 0.749302 0
M  V30 2368 H 226.284 -4.26857 0.773026 0
M  V30 2369 H 226.955 -5.51258 -0.286053 0
M  V30 2370 H 229.431 -3.92578 -1.37918 0
M  V30 2371 H 228.307 -5.01453 -2.2324 0
M  V30 2372 H 228.568 -3.3875 -2.84079 0
M  V30 2373 N 227.627 0.131896 -1.57047 0
M  V30 2374 C 228.59 1.14638 -1.98471 0
M  V30 2375 C 229.59 1.35029 -0.873148 0
M  V30 2376 O 230.78 1.31764 -1.13946 0
M  V30 2377 C 227.912 2.50358 -2.31373 0
M  V30 2378 H 229.105 0.79064 -2.8929 0
M  V30 2379 H 226.658 0.375761 -1.51716 0
M  V30 2380 H 227.393 2.90876 -1.43393 0
M  V30 2381 H 227.178 2.36915 -3.12432 0
M  V30 2382 H 228.668 3.23395 -2.64207 0
M  V30 2383 N 229.106 1.52395 0.401703 0
M  V30 2384 C 230.069 1.75636 1.47257 0
M  V30 2385 C 231.069 0.62628 1.48103 0
M  V30 2386 O 232.259 0.894227 1.49497 0
M  V30 2387 C 229.391 1.84553 2.86624 0
M  V30 2388 H 230.584 2.71241 1.27938 0
M  V30 2389 H 228.137 1.42923 0.632662 0
M  V30 2390 H 228.872 0.908882 3.11303 0
M  V30 2391 H 228.657 2.66715 2.87412 0
M  V30 2392 H 230.147 2.04251 3.64241 0
M  V30 2393 N 230.584 -0.659388 1.43143 0
M  V30 2394 C 231.516 -1.7849 1.43784 0
M  V30 2395 C 232.529 -1.5932 0.334787 0
M  V30 2396 O 233.718 -1.68155 0.598842 0
M  V30 2397 C 230.818 -3.15828 1.22906 0
M  V30 2398 C 229.991 -3.61711 2.45934 0
M  V30 2399 C 229.05 -4.77831 2.20371 0
M  V30 2400 O 228.076 -4.87586 2.93681 0
M  V30 2401 N 229.278 -5.67611 1.21647 0
M  V30 2402 H 232.043 -1.7842 2.40803 0
M  V30 2403 H 229.604 -0.84302 1.3822 0
M  V30 2404 H 231.596 -3.91189 1.03697 0
M  V30 2405 H 230.166 -3.10707 0.343542 0
M  V30 2406 H 229.386 -2.76861 2.80609 0
M  V30 2407 H 230.674 -3.89112 3.27825 0
M  V30 2408 H 230.072 -5.62397 0.610449 0
M  V30 2409 H 228.629 -6.42719 1.08423 0
M  V30 2410 N 232.062 -1.29571 -0.897171 0
M  V30 2411 C 233.012 -1.11539 -1.98855 0
M  V30 2412 C 233.996 -0.0340716 -1.60864 0
M  V30 2413 O 235.188 -0.256062 -1.75138 0
M  V30 2414 C 232.317 -0.796603 -3.3393 0
M  V30 2415 C 231.403 -1.91758 -3.78272 0
M  V30 2416 N 231.794 -3.16143 -3.94826 0
M  V30 2417 C 230.092 -1.81119 -4.07568 0
M  V30 2418 C 230.793 -3.89293 -4.32233 0
M  V30 2419 N 229.769 -3.17255 -4.41419 0
M  V30 2420 H 233.571 -2.05894 -2.09726 0
M  V30 2421 H 231.085 -1.20732 -1.08616 0
M  V30 2422 H 233.082 -0.648459 -4.11826 0
M  V30 2423 H 231.742 0.139003 -3.24402 0
M  V30 2424 H 232.753 -3.5157 -3.80288 0
M  V30 2425 H 229.43 -0.948461 -4.06584 0
M  V30 2426 H 230.82 -4.9635 -4.52865 0
M  V30 2427 N 233.54 1.10788 -1.12088 0
M  V30 2428 C 234.765 1.87002 -0.896949 0
M  V30 2429 C 235.19 1.79933 0.548261 0
M  V30 2430 O 234.548 1.16662 1.38779 0
M  V30 2431 C 234.596 3.3349 -1.37174 0
M  V30 2432 O 233.7 4.08745 -0.547831 0
M  V30 2433 H 233.041 0.580397 -0.322545 0
M  V30 2434 H 235.571 1.39996 -1.49206 0
M  V30 2435 H 235.581 3.84339 -1.36922 0
M  V30 2436 H 234.256 3.37951 -2.42408 0
M  V30 2437 H 232.833 3.6776 -0.617034 0
M  V30 2438 N 235.018 0.912232 1.28515 0
M  V30 2439 C 235.95 0.35676 2.26406 0
M  V30 2440 C 236.963 -0.503933 1.54804 0
M  V30 2441 O 238.152 -0.319059 1.75625 0
M  V30 2442 C 235.252 -0.508825 3.35058 0
M  V30 2443 C 234.425 0.329007 4.36161 0
M  V30 2444 C 233.484 -0.471422 5.24084 0
M  V30 2445 O 232.51 0.115482 5.69083 0
M  V30 2446 N 233.712 -1.77479 5.52704 0
M  V30 2447 H 236.477 1.19818 2.74707 0
M  V30 2448 H 234.038 0.778022 1.4198 0
M  V30 2449 H 236.03 -1.051 3.90815 0
M  V30 2450 H 234.6 -1.25095 2.86478 0
M  V30 2451 H 233.82 1.05256 3.79888 0
M  V30 2452 H 235.108 0.90234 5.00735 0
M  V30 2453 H 234.506 -2.27417 5.17975 0
M  V30 2454 H 233.063 -2.26382 6.11224 0
M  V30 2455 N 236.496 -1.42363 0.676048 0
M  V30 2456 C 237.736 -2.03392 0.20273 0
M  V30 2457 C 238.1 -1.52306 -1.16906 0
M  V30 2458 O 239.301 -2.05129 -1.73711 0
M  V30 2459 C 237.572 -3.56614 0.236947 0
M  V30 2460 S 239.131 -4.38489 -0.165186 0
M  V30 2461 H 235.949 -0.70611 0.0832418 0
M  V30 2462 H 238.551 -1.74093 0.88948 0
M  V30 2463 H 237.255 -3.91293 1.23767 0
M  V30 2464 H 236.786 -3.90587 -0.469596 0
M  V30 2465 H 238.801 -4.76093 -1.39822 0
M  V30 2466 N 237.974 -0.419461 -1.51915 0
M  V30 2467 C 239.221 0.152939 -2.01922 0
M  V30 2468 C 239.549 1.4426 -1.30458 0
M  V30 2469 O 238.804 1.91514 -0.402593 0
M  V30 2470 C 239.103 0.437067 -3.54717 0
M  V30 2471 C 238.769 -0.764632 -4.44369 0
M  V30 2472 C 237.431 -1.09423 -4.68594 0
M  V30 2473 C 239.783 -1.56713 -4.97082 0
M  V30 2474 C 237.111 -2.22732 -5.42777 0
M  V30 2475 C 239.463 -2.69107 -5.72507 0
M  V30 2476 C 238.127 -3.02541 -5.95 0
M  V30 2477 H 237.397 0.0559644 -0.738884 0
M  V30 2478 H 240.044 -0.562998 -1.83037 0
M  V30 2479 H 238.349 1.23469 -3.71837 0
M  V30 2480 H 240.046 0.893083 -3.90928 0
M  V30 2481 H 236.636 -0.497775 -4.257 0
M  V30 2482 H 240.82 -1.32571 -4.78266 0
M  V30 2483 H 236.076 -2.48971 -5.58411 0
M  V30 2484 H 240.25 -3.31671 -6.12346 0
M  V30 2485 H 237.877 -3.90457 -6.52264 0
M  V30 2486 N 239.452 1.56882 -0.150215 0
M  V30 2487 C 240.415 2.1573 0.774157 0
M  V30 2488 C 241.415 1.0999 1.17298 0
M  V30 2489 O 242.605 1.35613 1.09338 0
M  V30 2490 C 239.737 2.72302 2.05096 0
M  V30 2491 H 240.93 2.98752 0.262201 0
M  V30 2492 H 238.483 1.55985 0.099248 0
M  V30 2493 H 239.218 1.92956 2.6065 0
M  V30 2494 H 239.003 3.49665 1.77416 0
M  V30 2495 H 240.493 3.17632 2.71109 0
M  V30 2496 N 240.93 -0.123565 1.57115 0
M  V30 2497 C 241.893 -1.13583 1.99076 0
M  V30 2498 C 242.893 -1.34564 0.880296 0
M  V30 2499 O 244.083 -1.31158 1.14644 0
M  V30 2500 C 241.215 -2.49128 2.32698 0
M  V30 2501 H 242.408 -0.775287 2.89706 0
M  V30 2502 H 239.961 -0.36771 1.51913 0
M  V30 2503 H 240.696 -2.90111 1.44934 0
M  V30 2504 H 240.481 -2.35255 3.13684 0
M  V30 2505 H 241.971 -3.2199 2.65918 0
M  V30 2506 N 242.408 -1.52605 -0.393616 0
M  V30 2507 C 243.654 -1.68624 -1.13743 0
M  V30 2508 C 244.009 -0.418687 -1.87789 0
M  V30 2509 O 243.302 0.58747 -1.82371 0
M  V30 2510 C 243.496 -2.85721 -2.14705 0
M  V30 2511 C 243.325 -4.23742 -1.50575 0
M  V30 2512 C 242.095 -4.89033 -1.2718 0
M  V30 2513 C 244.293 -5.05293 -0.958311 0
M  V30 2514 N 242.275 -6.11048 -0.591058 0
M  V30 2515 C 243.646 -6.18673 -0.405367 0
M  V30 2516 C 245.701 -4.90517 -0.854274 0
M  V30 2517 C 244.404 -7.18895 0.241434 0
M  V30 2518 C 246.43 -5.90986 -0.221301 0
M  V30 2519 C 245.792 -7.03669 0.320894 0
M  V30 2520 H 241.891 -0.670556 -0.402342 0
M  V30 2521 H 244.475 -1.89946 -0.427607 0
M  V30 2522 H 242.646 -2.65987 -2.83029 0
M  V30 2523 H 244.378 -2.90699 -2.8156 0
M  V30 2524 H 241.133 -4.47672 -1.54554 0
M  V30 2525 H 241.557 -6.76474 -0.266862 0
M  V30 2526 H 246.199 -4.03612 -1.25926 0
M  V30 2527 H 243.917 -8.05413 0.658448 0
M  V30 2528 H 247.503 -5.81626 -0.142111 0
M  V30 2529 H 246.383 -7.80078 0.802956 0
M  V30 2530 N 243.887 0.651787 -1.4349 0
M  V30 2531 C 245.117 1.43728 -1.48411 0
M  V30 2532 C 245.525 1.8893 -0.10103 0
M  V30 2533 O 244.868 1.60182 0.899307 0
M  V30 2534 C 244.93 2.70411 -2.36893 0
M  V30 2535 C 244.594 2.4714 -3.8441 0
M  V30 2536 C 245.591 2.10271 -4.75481 0
M  V30 2537 C 243.276 2.6142 -4.28912 0
M  V30 2538 C 245.27 1.87982 -6.0905 0
M  V30 2539 C 242.957 2.38746 -5.62533 0
M  V30 2540 C 243.955 2.02083 -6.5242 0
M  V30 2541 O 243.643 1.79647 -7.8357 0
M  V30 2542 H 243.375 0.447962 -0.506267 0
M  V30 2543 H 245.929 0.80624 -1.88915 0
M  V30 2544 H 244.159 3.36079 -1.91278 0
M  V30 2545 H 245.848 3.32364 -2.33 0
M  V30 2546 H 246.614 1.98814 -4.42378 0
M  V30 2547 H 242.493 2.88931 -3.59222 0
M  V30 2548 H 246.037 1.5929 -6.7917 0
M  V30 2549 H 241.934 2.49806 -5.95203 0
M  V30 2550 H 242.702 1.9406 -7.95162 0
M  V30 2551 N 245.365 1.30045 0.890287 0
M  V30 2552 C 246.613 1.18327 1.63839 0
M  V30 2553 C 246.934 -0.263455 1.93212 0
M  V30 2554 O 246.204 -1.17856 1.56482 0
M  V30 2555 H 244.784 0.434933 0.607324 0
M  V30 2556 H 247.446 1.631 1.06698 0
M  V30 2557 H 246.542 1.74024 2.59079 0
M  V30 2558 N 246.843 -1.10192 1.12674 0
M  V30 2559 C 247.793 -2.14754 0.765801 0
M  V30 2560 C 248.777 -1.59154 -0.236409 0
M  V30 2561 O 249.969 -1.76951 -0.0415261 0
M  V30 2562 C 247.098 -3.42563 0.224827 0
M  V30 2563 C 246.184 -4.05091 1.25548 0
M  V30 2564 N 246.575 -4.42287 2.4539 0
M  V30 2565 C 244.873 -4.32186 1.10142 0
M  V30 2566 C 245.574 -4.91441 3.11224 0
M  V30 2567 N 244.55 -4.88405 2.38666 0
M  V30 2568 H 248.352 -2.41309 1.67772 0
M  V30 2569 H 245.866 -1.27339 1.00789 0
M  V30 2570 H 247.863 -4.16868 -0.0519578 0
M  V30 2571 H 246.523 -3.17467 -0.681515 0
M  V30 2572 H 247.534 -4.33902 2.82754 0
M  V30 2573 H 244.211 -4.16735 0.252587 0
M  V30 2574 H 245.601 -5.29749 4.13298 0
M  V30 2575 N 248.321 -0.919034 -1.28029 0
M  V30 2576 C 249.561 -0.562107 -1.96519 0
M  V30 2577 C 249.925 0.878784 -1.70708 0
M  V30 2578 O 251.126 1.34355 -2.32813 0
M  V30 2579 C 249.397 -0.868953 -3.46676 0
M  V30 2580 S 250.956 -0.619237 -4.34409 0
M  V30 2581 H 247.774 -0.2078 -0.679956 0
M  V30 2582 H 250.376 -1.18562 -1.55446 0
M  V30 2583 H 249.08 -1.91547 -3.62957 0
M  V30 2584 H 248.611 -0.234301 -3.92702 0
M  V30 2585 H 250.626 0.526995 -4.93394 0
M  V30 2586 N 249.799 1.42003 -0.683588 0
M  V30 2587 C 251.21 1.84501 -0.285736 0
M  V30 2588 C 251.561 1.57213 1.17382 0
M  V30 2589 O 250.686 1.03642 1.89966 0
M  V30 2590 C 251.281 3.34912 -0.511821 0
M  V30 2591 C 249.84 3.76025 -0.168005 0
M  V30 2592 C 248.987 2.6551 -0.799983 0
M  V30 2593 H 251.938 1.31724 -0.885119 0
M  V30 2594 H 251.959 3.79784 0.233292 0
M  V30 2595 H 251.471 3.54741 -1.57418 0
M  V30 2596 H 249.572 3.61801 0.890567 0
M  V30 2597 H 249.685 4.75141 -0.614661 0
M  V30 2598 H 248.049 2.53654 -0.230568 0
M  V30 2599 H 248.832 2.8816 -1.86597 0
M  V30 2600 N 251.277 0.427512 1.51691 0
M  V30 2601 C 252.525 -0.141948 2.01601 0
M  V30 2602 C 252.846 -1.44067 1.31414 0
M  V30 2603 O 252.116 -1.90763 0.445658 0
M  V30 2604 H 250.696 -0.0554468 0.744939 0
M  V30 2605 H 253.358 0.567968 1.86441 0
M  V30 2606 H 252.454 -0.324913 3.10404 0
M  V30 2607 N 252.755 -1.56801 0.158532 0
M  V30 2608 C 253.685 -2.20347 -0.772609 0
M  V30 2609 C 254.666 -1.15518 -1.24859 0
M  V30 2610 O 255.851 -1.43902 -1.30406 0
M  V30 2611 C 252.981 -2.83417 -2.00729 0
M  V30 2612 C 251.935 -3.94174 -1.66765 0
M  V30 2613 C 251.261 -4.44233 -2.97592 0
M  V30 2614 C 252.561 -5.14392 -0.905447 0
M  V30 2615 H 254.255 -2.98413 -0.242959 0
M  V30 2616 H 251.801 -1.43537 -0.115419 0
M  V30 2617 H 253.754 -3.26543 -2.6636 0
M  V30 2618 H 252.478 -2.02701 -2.56086 0
M  V30 2619 H 251.137 -3.51684 -1.03508 0
M  V30 2620 H 250.785 -3.60325 -3.50963 0
M  V30 2621 H 250.485 -5.18945 -2.75626 0
M  V30 2622 H 252.009 -4.90037 -3.64274 0
M  V30 2623 H 253.423 -5.5429 -1.46408 0
M  V30 2624 H 251.82 -5.9494 -0.7853 0
M  V30 2625 H 252.89 -4.84795 0.100668 0
M  V30 2626 N 254.233 0.115231 -1.57178 0
M  V30 2627 C 255.18 1.14115 -2.00615 0
M  V30 2628 C 256.15 1.40939 -0.878941 0
M  V30 2629 O 257.335 1.52741 -1.14345 0
M  V30 2630 C 254.475 2.46156 -2.4187 0
M  V30 2631 C 253.588 2.26236 -3.68024 0
M  V30 2632 C 252.723 3.51534 -3.98243 0
M  V30 2633 C 251.762 3.26787 -5.17568 0
M  V30 2634 N 250.899 4.44298 -5.43639 0
M  V30 2635 H 255.739 0.763743 -2.88047 0
M  V30 2636 H 253.276 0.365615 -1.42484 0
M  V30 2637 H 255.234 3.23189 -2.63827 0
M  V30 2638 H 253.864 2.81783 -1.57475 0
M  V30 2639 H 252.916 1.40102 -3.5366 0
M  V30 2640 H 254.228 2.03929 -4.55208 0
M  V30 2641 H 253.382 4.36984 -4.20868 0
M  V30 2642 H 252.121 3.76876 -3.09541 0
M  V30 2643 H 251.126 2.39729 -4.94783 0
M  V30 2644 H 252.351 3.02812 -6.0785 0
M  V30 2645 H 250.297 4.69754 -4.57895 0
M  V30 2646 H 250.214 4.25109 -6.25154 0
M  V30 2647 H 251.482 5.3087 -5.70786 0
M  V30 2648 N 255.711 1.52812 0.385517 0
M  V30 2649 C 256.957 1.68275 1.13188 0
M  V30 2650 C 257.29 0.423179 1.89533 0
M  V30 2651 O 256.565 -0.579113 1.85679 0
M  V30 2652 C 256.848 2.92001 2.1073 0
M  V30 2653 C 256.701 4.28067 1.38125 0
M  V30 2654 C 258.02 3.11283 3.11113 0
M  V30 2655 H 255.139 0.612352 0.410115 0
M  V30 2656 H 257.781 1.85415 0.414869 0
M  V30 2657 H 255.931 2.77519 2.71874 0
M  V30 2658 H 257.603 4.54324 0.799187 0
M  V30 2659 H 255.846 4.28388 0.683092 0
M  V30 2660 H 256.517 5.10733 2.09417 0
M  V30 2661 H 258.993 3.2482 2.6006 0
M  V30 2662 H 257.869 3.99325 3.76605 0
M  V30 2663 H 258.13 2.25656 3.80173 0
M  V30 2664 N 257.189 -0.644168 1.43834 0
M  V30 2665 C 258.435 -1.40603 1.46146 0
M  V30 2666 C 258.768 -1.93997 0.0887717 0
M  V30 2667 O 258.043 -1.72854 -0.891724 0
M  V30 2668 C 258.326 -2.58086 2.51124 0
M  V30 2669 C 258.179 -2.10126 3.97702 0
M  V30 2670 C 259.498 -3.60291 2.52742 0
M  V30 2671 H 256.617 -0.509905 0.532134 0
M  V30 2672 H 259.259 -0.729502 1.75437 0
M  V30 2673 H 257.409 -3.15801 2.26278 0
M  V30 2674 H 259.081 -1.57342 4.33637 0
M  V30 2675 H 257.324 -1.41419 4.10101 0
M  V30 2676 H 257.995 -2.94649 4.66783 0
M  V30 2677 H 260.471 -3.12352 2.7491 0
M  V30 2678 H 259.347 -4.40032 3.28121 0
M  V30 2679 H 259.608 -4.1349 1.56455 0
M  V30 2680 N 258.668 -1.30515 -0.883378 0
M  V30 2681 C 259.893 -1.22487 -1.67367 0
M  V30 2682 C 260.318 0.208767 -1.86938 0
M  V30 2683 O 259.676 1.15015 -1.40148 0
M  V30 2684 C 259.724 -1.96041 -3.02655 0
M  V30 2685 O 258.828 -1.28859 -3.91751 0
M  V30 2686 H 258.169 -0.423573 -0.511353 0
M  V30 2687 H 260.699 -1.72362 -1.10239 0
M  V30 2688 H 260.709 -2.05124 -3.52687 0
M  V30 2689 H 259.384 -3.00307 -2.8773 0
M  V30 2690 H 257.961 -1.28141 -3.50192 0
M  V30 2691 N 260.146 1.09593 -1.13257 0
M  V30 2692 C 261.557 1.63229 -0.906274 0
M  V30 2693 C 261.908 1.8811 0.557578 0
M  V30 2694 O 261.033 1.62953 1.42391 0
M  V30 2695 C 261.628 2.96535 -1.63867 0
M  V30 2696 C 260.187 3.47003 -1.45828 0
M  V30 2697 C 259.334 2.2145 -1.66898 0
M  V30 2698 H 262.285 0.92978 -1.28611 0
M  V30 2699 H 262.306 3.64411 -1.09476 0
M  V30 2700 H 261.818 2.78394 -2.70404 0
M  V30 2701 H 259.919 3.70272 -0.415848 0
M  V30 2702 H 260.032 4.24551 -2.2202 0
M  V30 2703 H 258.396 2.30022 -1.09371 0
M  V30 2704 H 259.179 2.0583 -2.74752 0
M  V30 2705 N 261.624 0.925811 1.2754 0
M  V30 2706 C 262.87 0.575575 1.95086 0
M  V30 2707 C 263.225 -0.873246 1.71441 0
M  V30 2708 O 262.518 -1.61443 1.03183 0
M  V30 2709 C 262.712 0.835296 3.47502 0
M  V30 2710 C 262.541 2.30781 3.85967 0
M  V30 2711 C 261.311 2.96017 4.09514 0
M  V30 2712 C 263.509 3.28519 3.95702 0
M  V30 2713 N 261.491 4.3344 4.34744 0
M  V30 2714 C 262.862 4.51146 4.25285 0
M  V30 2715 C 264.917 3.23753 3.7827 0
M  V30 2716 C 263.62 5.69606 4.39251 0
M  V30 2717 C 265.646 4.41523 3.9346 0
M  V30 2718 C 265.008 5.62928 4.23428 0
M  V30 2719 H 261.107 0.260711 0.737261 0
M  V30 2720 H 263.691 1.19204 1.53943 0
M  V30 2721 H 261.862 0.248005 3.87607 0
M  V30 2722 H 263.594 0.447878 4.02214 0
M  V30 2723 H 260.349 2.46695 4.04275 0
M  V30 2724 H 260.773 5.04528 4.5142 0
M  V30 2725 H 265.415 2.3096 3.54143 0
M  V30 2726 H 263.133 6.62866 4.62205 0
M  V30 2727 H 266.719 4.39351 3.81394 0
M  V30 2728 H 265.599 6.52538 4.34929 0
M  V30 2729 N 263.102 -1.41638 0.69111 0
M  V30 2730 C 264.05 -2.32597 0.0115199 0
M  V30 2731 C 265.044 -1.5072 -0.773296 0
M  V30 2732 O 266.25 -1.66685 -0.67942 0
M  V30 2733 H 262.625 -0.751849 -0.0150746 0
M  V30 2734 H 264.596 -2.87593 0.795791 0
M  V30 2735 C 263.345 -3.35467 -0.914172 0
M  V30 2736 H 262.668 -3.9852 -0.319687 0
M  V30 2737 H 264.108 -4.01662 -1.35808 0
M  V30 2738 C 262.567 -2.69004 -2.02826 0
M  V30 2739 O 263.097 -2.53444 -3.11655 0
M  V30 2740 N 261.303 -2.2777 -1.80469 0
M  V30 2741 H 260.85 -2.40626 -0.919615 0
M  V30 2742 H 260.808 -1.83635 -2.55197 0
M  V30 2743 N 264.58 -0.43555 -1.51462 0
M  V30 2744 C 265.805 0.132627 -2.06976 0
M  V30 2745 C 266.23 1.35848 -1.30104 0
M  V30 2746 O 265.588 1.78112 -0.338493 0
M  V30 2747 C 265.636 0.43523 -3.57964 0
M  V30 2748 O 264.74 1.52198 -3.83288 0
M  V30 2749 H 264.081 0.00265 -0.663995 0
M  V30 2750 H 266.611 -0.616369 -1.95095 0
M  V30 2751 H 266.621 0.686206 -4.02188 0
M  V30 2752 H 265.296 -0.460739 -4.1334 0
M  V30 2753 H 263.873 1.2611 -3.50928 0
M  V30 2754 N 266.058 1.56714 -0.166846 0
M  V30 2755 C 266.968 2.21331 0.777791 0
M  V30 2756 C 267.984 1.20358 1.25658 0
M  V30 2757 O 269.16 1.53005 1.30964 0
M  V30 2758 C 266.225 2.83787 1.99163 0
M  V30 2759 C 265.286 3.99947 1.56016 0
M  V30 2760 C 264.519 4.59415 2.71613 0
M  V30 2761 O 264.742 4.17769 3.88362 0
M  V30 2762 O 263.676 5.49359 2.45945 0
M  V30 2763 H 267.502 3.02605 0.257636 0
M  V30 2764 H 265.087 1.49275 0.0611393 0
M  V30 2765 H 266.969 3.23405 2.70161 0
M  V30 2766 H 265.644 2.05513 2.50092 0
M  V30 2767 H 264.551 3.65007 0.819809 0
M  V30 2768 H 265.884 4.79801 1.09782 0
M  V30 2769 N 267.536 -0.106894 1.57237 0
M  V30 2770 C 268.813 -0.843526 1.76477 0
M  V30 2771 C 269.193 -1.97499 0.745464 0
M  V30 2772 O 268.541 -2.27357 -0.228306 0
M  V30 2773 C 268.751 -1.34903 3.21873 0
M  V30 2774 C 270.099 -1.79654 3.8472 0
M  V30 2775 O 271.123 -1.44554 3.2555 0
M  V30 2776 O 269.982 -2.44515 4.88748 0
M  V30 2777 H 267.076 -0.401468 0.723016 0
M  V30 2778 H 269.622 -0.0896927 1.69463 0
M  V30 2779 H 268.394 -0.53781 3.87586 0
M  V30 2780 H 268.017 -2.16522 3.33473 0
M  V30 2781 N 269.014 -1.53014 -0.377408 0
M  V30 2782 C 269.977 -1.77957 -1.44444 0
M  V30 2783 C 270.977 -0.649763 -1.47087 0
M  V30 2784 O 272.167 -0.917897 -1.48055 0
M  V30 2785 C 269.299 -1.89089 -2.83651 0
M  V30 2786 H 270.492 -2.73243 -1.23606 0
M  V30 2787 H 268.045 -1.43912 -0.609844 0
M  V30 2788 H 268.78 -0.958293 -3.09818 0
M  V30 2789 H 268.565 -2.71254 -2.83132 0
M  V30 2790 H 270.055 -2.1002 -3.60945 0
M  V30 2791 N 270.492 0.636531 -1.44174 0
M  V30 2792 C 271.439 1.74875 -1.50624 0
M  V30 2793 C 272.409 1.62275 -0.35442 0
M  V30 2794 O 273.594 1.82276 -0.563908 0
M  V30 2795 C 270.734 3.13102 -1.45125 0
M  V30 2796 C 269.847 3.36717 -2.7064 0
M  V30 2797 C 268.982 4.64885 -2.57013 0
M  V30 2798 C 268.021 4.8166 -3.77717 0
M  V30 2799 N 267.158 6.01101 -3.62798 0
M  V30 2800 H 271.998 1.68697 -2.45653 0
M  V30 2801 H 269.535 0.823004 -1.21922 0
M  V30 2802 H 271.493 3.93034 -1.39929 0
M  V30 2803 H 270.123 3.18308 -0.536671 0
M  V30 2804 H 269.175 2.50763 -2.86046 0
M  V30 2805 H 270.487 3.44993 -3.60252 0
M  V30 2806 H 269.641 5.52969 -2.49619 0
M  V30 2807 H 268.38 4.58957 -1.64953 0
M  V30 2808 H 267.385 3.92007 -3.85501 0
M  V30 2809 H 268.61 4.89406 -4.70807 0
M  V30 2810 H 266.556 5.96273 -2.73486 0
M  V30 2811 H 266.473 6.10409 -4.46023 0
M  V30 2812 H 267.741 6.91761 -3.59286 0
M  V30 2813 N 271.97 1.30982 0.876444 0
M  V30 2814 C 273.218 1.20058 1.62575 0
M  V30 2815 C 273.539 -0.242947 1.93481 0
M  V30 2816 O 272.809 -1.1619 1.57724 0
M  V30 2817 H 271.389 0.44135 0.602677 0
M  V30 2818 H 274.051 1.64222 1.04962 0
M  V30 2819 H 273.147 1.76762 2.57219 0
M  V30 2820 N 273.449 -1.08991 1.13837 0
M  V30 2821 C 274.379 -2.17771 0.842507 0
M  V30 2822 C 275.36 -1.6892 -0.20001 0
M  V30 2823 O 276.545 -1.94113 -0.0579731 0
M  V30 2824 C 273.675 -3.4589 0.312644 0
M  V30 2825 C 272.629 -4.08099 1.28992 0
M  V30 2826 C 271.955 -5.31098 0.619623 0
M  V30 2827 C 273.255 -4.50077 2.65005 0
M  V30 2828 H 274.949 -2.42777 1.75213 0
M  V30 2829 H 272.495 -1.16682 0.843875 0
M  V30 2830 H 274.448 -4.21297 0.0933043 0
M  V30 2831 H 273.172 -3.20419 -0.632382 0
M  V30 2832 H 271.831 -3.34717 1.49533 0
M  V30 2833 H 271.479 -5.0191 -0.33102 0
M  V30 2834 H 271.179 -5.73674 1.27167 0
M  V30 2835 H 272.703 -6.09224 0.409669 0
M  V30 2836 H 274.117 -5.16688 2.48407 0
M  V30 2837 H 272.514 -5.03553 3.26427 0
M  V30 2838 H 273.584 -3.62257 3.22332 0
M  V30 2839 N 274.927 -0.932562 -1.27047 0
M  V30 2840 C 276.176 -0.571351 -1.93439 0
M  V30 2841 C 276.489 0.892467 -1.74053 0
M  V30 2842 O 277.695 1.36267 -2.34826 0
M  V30 2843 C 276.151 -0.97106 -3.46552 0
M  V30 2844 C 275.759 -2.4559 -3.74686 0
M  V30 2845 C 277.503 -0.681333 -4.18997 0
M  V30 2846 C 275.41 -2.79475 -5.21198 0
M  V30 2847 H 274.34 -0.209966 -0.724176 0
M  V30 2848 H 276.991 -1.13403 -1.44263 0
M  V30 2849 H 275.373 -0.336983 -3.94564 0
M  V30 2850 H 276.547 -3.13829 -3.37414 0
M  V30 2851 H 274.862 -2.71802 -3.15456 0
M  V30 2852 H 277.459 -0.910939 -5.26883 0
M  V30 2853 H 277.802 0.381628 -4.14547 0
M  V30 2854 H 278.335 -1.27473 -3.76823 0
M  V30 2855 H 275.074 -3.847 -5.30741 0
M  V30 2856 H 274.594 -2.1589 -5.596 0
M  V30 2857 H 276.273 -2.67478 -5.89122 0
M  V30 2858 N 276.405 1.4127 -0.698611 0
M  V30 2859 C 277.352 2.30773 -0.0352094 0
M  V30 2860 C 278.322 1.47273 0.768111 0
M  V30 2861 O 279.507 1.76053 0.735524 0
M  V30 2862 C 276.647 3.33346 0.893 0
M  V30 2863 C 275.76 4.31924 0.0809695 0
M  V30 2864 C 274.895 5.21566 1.0071 0
M  V30 2865 C 273.934 6.11811 0.188155 0
M  V30 2866 N 273.071 6.93926 1.06825 0
M  V30 2867 H 277.911 2.86943 -0.804207 0
M  V30 2868 H 275.448 1.4132 -0.408294 0
M  V30 2869 H 277.406 3.91368 1.44523 0
M  V30 2870 H 276.036 2.78719 1.62836 0
M  V30 2871 H 275.088 3.75825 -0.588224 0
M  V30 2872 H 276.4 4.95716 -0.553801 0
M  V30 2873 H 275.554 5.84437 1.62845 0
M  V30 2874 H 274.293 4.58008 1.67572 0
M  V30 2875 H 273.298 5.47986 -0.446254 0
M  V30 2876 H 274.523 6.77425 -0.476716 0
M  V30 2877 H 272.469 6.32973 1.72283 0
M  V30 2878 H 272.386 7.54416 0.489123 0
M  V30 2879 H 273.654 7.61262 1.67632 0
M  V30 2880 N 277.883 0.443576 1.51229 0
M  V30 2881 C 279.108 -0.121648 2.07043 0
M  V30 2882 C 279.533 -1.35156 1.30823 0
M  V30 2883 O 278.891 -1.7793 0.347934 0
M  V30 2884 C 278.939 -0.41624 3.5819 0
M  V30 2885 O 278.043 -1.50163 3.8409 0
M  V30 2886 H 277.384 0.000871367 0.663999 0
M  V30 2887 H 279.914 0.626706 1.94765 0
M  V30 2888 H 279.924 -0.664867 4.02546 0
M  V30 2889 H 278.599 0.482653 4.1309 0
M  V30 2890 H 277.176 -1.24248 3.51592 0
M  V30 2891 N 279.361 -1.56624 0.175154 0
M  V30 2892 C 280.324 -2.16934 -0.739738 0
M  V30 2893 C 281.324 -1.11842 -1.15533 0
M  V30 2894 O 282.514 -1.37335 -1.07167 0
M  V30 2895 C 279.646 -2.75531 -2.00738 0
M  V30 2896 H 280.839 -2.99131 -0.214639 0
M  V30 2897 H 278.392 -1.56123 -0.0744197 0
M  V30 2898 H 279.127 -1.97078 -2.57548 0
M  V30 2899 H 278.912 -3.52444 -1.71831 0
M  V30 2900 H 280.402 -3.21904 -2.66021 0
M  V30 2901 N 280.839 0.0985539 -1.57292 0
M  V30 2902 C 282.088 0.801358 -1.85098 0
M  V30 2903 C 282.401 1.80066 -0.763902 0
M  V30 2904 O 283.607 2.55112 -0.928981 0
M  V30 2905 C 282.063 1.47599 -3.28242 0
M  V30 2906 C 281.671 0.516624 -4.45011 0
M  V30 2907 C 283.415 2.16272 -3.65276 0
M  V30 2908 C 281.322 1.19564 -5.79188 0
M  V30 2909 H 280.252 0.303022 -0.69043 0
M  V30 2910 H 282.903 0.0542623 -1.8342 0
M  V30 2911 H 281.285 2.27042 -3.2445 0
M  V30 2912 H 282.459 -0.246065 -4.60143 0
M  V30 2913 H 280.774 -0.064227 -4.1635 0
M  V30 2914 H 283.371 2.67802 -4.62803 0
M  V30 2915 H 283.714 2.95009 -2.93727 0
M  V30 2916 H 284.247 1.43693 -3.70941 0
M  V30 2917 H 280.986 0.449157 -6.53959 0
M  V30 2918 H 280.506 1.92984 -5.67906 0
M  V30 2919 H 282.185 1.7231 -6.23633 0
M  V30 2920 N 282.317 1.53212 0.369288 0
M  V30 2921 C 283.733 1.42902 0.710712 0
M  V30 2922 C 283.933 0.565135 1.93413 0
M  V30 2923 O 282.989 0.0461484 2.52458 0
M  V30 2924 C 284.302 2.86042 0.927382 0
M  V30 2925 C 285.85 2.9565 1.02762 0
M  V30 2926 C 286.325 4.39843 1.27679 0
M  V30 2927 N 287.816 4.43256 1.34457 0
M  V30 2928 C 288.551 5.51929 1.55439 0
M  V30 2929 N 288.047 6.70655 1.73762 0
M  V30 2930 N 289.84 5.39502 1.57779 0
M  V30 2931 H 281.991 2.07888 -0.435457 0
M  V30 2932 H 284.254 0.938661 -0.132739 0
M  V30 2933 H 283.96 3.51557 0.100287 0
M  V30 2934 H 283.834 3.29472 1.83653 0
M  V30 2935 H 286.221 2.30291 1.84527 0
M  V30 2936 H 286.302 2.5562 0.0959504 0
M  V30 2937 H 285.946 5.05774 0.464175 0
M  V30 2938 H 285.876 4.77443 2.22162 0
M  V30 2939 H 288.367 3.5769 1.21926 0
M  V30 2940 H 288.68 7.49248 1.89335 0
M  V30 2941 H 287.025 6.73648 1.70948 0
M  V30 2942 H 290.216 4.45713 1.43029 0
M  V30 2943 H 290.389 6.2426 1.7379 0
M  V30 2944 N 283.795 -0.628877 1.44509 0
M  V30 2945 C 285.072 -1.38733 1.37886 0
M  V30 2946 C 285.452 -2.11065 0.0387008 0
M  V30 2947 O 284.8 -2.06476 -0.97878 0
M  V30 2948 C 285.01 -2.35188 2.57852 0
M  V30 2949 C 286.358 -2.9845 3.02014 0
M  V30 2950 O 287.382 -2.45513 2.58073 0
M  V30 2951 O 286.241 -3.94487 3.78209 0
M  V30 2952 H 283.335 -0.621015 0.54614 0
M  V30 2953 H 285.881 -0.653744 1.56602 0
M  V30 2954 H 284.653 -1.80855 3.46998 0
M  V30 2955 H 284.276 -3.1596 2.4136 0
M  V30 2956 N 285.273 -1.31445 -0.869486 0
M  V30 2957 C 286.221 -1.19067 -1.99814 0
M  V30 2958 C 287.215 -0.0988569 -1.69111 0
M  V30 2959 O 288.421 -0.260781 -1.78101 0
M  V30 2960 H 284.796 -0.368677 -0.655425 0
M  V30 2961 H 286.767 -2.14555 -2.07385 0
M  V30 2962 C 285.516 -0.915323 -3.35436 0
M  V30 2963 H 284.839 -1.74759 -3.59582 0
M  V30 2964 H 286.279 -0.868895 -4.15001 0
M  V30 2965 C 284.738 0.381928 -3.34728 0
M  V30 2966 O 285.268 1.39857 -3.76567 0
M  V30 2967 N 283.474 0.398633 -2.87853 0
M  V30 2968 H 283.021 -0.429186 -2.54 0
M  V30 2969 H 282.979 1.26651 -2.87762 0
M  V30 2970 N 286.751 1.08385 -1.14413 0
M  V30 2971 C 287.699 2.17406 -0.826888 0
M  V30 2972 C 288.693 1.6827 0.195312 0
M  V30 2973 O 289.899 1.79927 0.0513892 0
M  V30 2974 H 286.274 0.70934 -0.249681 0
M  V30 2975 H 288.245 2.41388 -1.75426 0
M  V30 2976 C 286.994 3.46215 -0.320979 0
M  V30 2977 H 286.317 3.84401 -1.0989 0
M  V30 2978 H 287.757 4.23777 -0.137549 0
M  V30 2979 C 286.216 3.23067 0.955472 0
M  V30 2980 O 286.746 3.4668 2.02918 0
M  V30 2981 N 284.952 2.7661 0.890798 0
M  V30 2982 H 284.499 2.57594 0.0168815 0
M  V30 2983 H 284.457 2.61501 1.74542 0
M  V30 2984 N 288.23 0.939286 1.26551 0
M  V30 2985 C 289.641 0.628782 1.75793 0
M  V30 2986 C 289.992 -0.856046 1.7654 0
M  V30 2987 O 289.117 -1.66994 1.3763 0
M  V30 2988 C 289.712 1.13465 3.19235 0
M  V30 2989 C 288.271 0.874601 3.66098 0
M  V30 2990 C 287.418 1.28667 2.45642 0
M  V30 2991 H 290.369 1.1178 1.12654 0
M  V30 2992 H 290.39 0.487609 3.77363 0
M  V30 2993 H 289.902 2.21535 3.1866 0
M  V30 2994 H 288.003 -0.191793 3.72106 0
M  V30 2995 H 288.116 1.50028 4.55004 0
M  V30 2996 H 286.48 0.705109 2.44745 0
M  V30 2997 H 287.263 2.37625 2.47769 0
M  V30 2998 N 289.708 -1.40897 0.706093 0
M  V30 2999 C 290.954 -2.01352 0.241889 0
M  V30 3000 C 291.287 -1.55832 -1.15888 0
M  V30 3001 O 290.562 -0.774145 -1.7843 0
M  V30 3002 C 290.845 -3.58752 0.311311 0
M  V30 3003 C 290.698 -4.1437 1.74978 0
M  V30 3004 C 292.017 -4.38914 -0.322922 0
M  V30 3005 H 289.136 -0.731562 0.0893687 0
M  V30 3006 H 291.778 -1.67504 0.896802 0
M  V30 3007 H 289.928 -3.87718 -0.246302 0
M  V30 3008 H 291.6 -3.96239 2.36205 0
M  V30 3009 H 289.843 -3.69016 2.28057 0
M  V30 3010 H 290.514 -5.23532 1.74981 0
M  V30 3011 H 292.99 -4.15822 0.152089 0
M  V30 3012 H 291.866 -5.48358 -0.243855 0
M  V30 3013 H 292.127 -4.19176 -1.40513 0
M  V30 3014 N 291.186 -0.45159 -1.50991 0
M  V30 3015 C 292.432 0.110237 -2.025 0
M  V30 3016 C 292.765 1.41109 -1.33424 0
M  V30 3017 O 292.04 1.89135 -0.453659 0
M  V30 3018 C 292.323 0.314271 -3.58726 0
M  V30 3019 C 292.176 -1.00623 -4.38401 0
M  V30 3020 C 293.495 1.07767 -4.26702 0
M  V30 3021 H 290.614 0.0385897 -0.735989 0
M  V30 3022 H 293.256 -0.593374 -1.80497 0
M  V30 3023 H 291.406 0.913601 -3.77605 0
M  V30 3024 H 293.078 -1.64064 -4.31139 0
M  V30 3025 H 291.321 -1.6075 -4.02917 0
M  V30 3026 H 291.992 -0.817341 -5.45915 0
M  V30 3027 H 294.468 0.56986 -4.12179 0
M  V30 3028 H 293.344 1.18921 -5.35863 0
M  V30 3029 H 293.605 2.10939 -3.88532 0
M  V30 3030 N 292.664 1.56529 -0.183458 0
M  V30 3031 C 293.91 1.97537 0.459036 0
M  V30 3032 C 294.243 1.06989 1.62071 0
M  V30 3033 O 293.518 0.11948 1.94133 0
M  V30 3034 C 293.801 3.47874 0.930368 0
M  V30 3035 C 293.654 4.492 -0.232317 0
M  V30 3036 C 294.973 4.01612 1.79989 0
M  V30 3037 H 292.092 0.718204 0.165383 0
M  V30 3038 H 294.734 1.88042 -0.272038 0
M  V30 3039 H 292.884 3.56095 1.55333 0
M  V30 3040 H 294.556 4.53027 -0.86972 0
M  V30 3041 H 292.799 4.24657 -0.885928 0
M  V30 3042 H 293.47 5.51823 0.139796 0
M  V30 3043 H 295.946 3.96097 1.27461 0
M  V30 3044 H 294.822 5.07195 2.09867 0
M  V30 3045 H 295.083 3.46163 2.74998 0
M  V30 3046 N 294.142 -0.090211 1.57342 0
M  V30 3047 C 295.072 -1.10976 2.05443 0
M  V30 3048 C 296.053 -1.41482 0.944284 0
M  V30 3049 O 297.238 -1.51428 1.21586 0
M  V30 3050 C 294.368 -2.42831 2.48295 0
M  V30 3051 C 293.322 -2.26721 3.63018 0
M  V30 3052 C 292.648 -3.63796 3.91863 0
M  V30 3053 C 293.948 -1.7037 4.93732 0
M  V30 3054 H 295.642 -0.709564 2.9087 0
M  V30 3055 H 293.188 -0.339874 1.39932 0
M  V30 3056 H 295.141 -3.14431 2.80555 0
M  V30 3057 H 293.865 -2.84795 1.59873 0
M  V30 3058 H 292.524 -1.57565 3.31012 0
M  V30 3059 H 292.172 -4.03297 3.00601 0
M  V30 3060 H 291.872 -3.53861 4.69101 0
M  V30 3061 H 293.396 -4.36855 4.26603 0
M  V30 3062 H 294.81 -2.31816 5.24342 0
M  V30 3063 H 293.207 -1.71181 5.75167 0
M  V30 3064 H 294.277 -0.663542 4.80339 0
M  V30 3065 N 295.62 -1.53406 -0.361157 0
M  V30 3066 C 296.53 -1.83122 -1.4664 0
M  V30 3067 C 297.546 -0.719943 -1.58407 0
M  V30 3068 O 298.722 -1.01046 -1.74218 0
M  V30 3069 C 295.787 -2.01891 -2.81853 0
M  V30 3070 C 294.848 -3.25784 -2.79577 0
M  V30 3071 C 294.081 -3.43648 -4.0834 0
M  V30 3072 O 294.304 -2.65714 -5.0473 0
M  V30 3073 O 293.238 -4.37018 -4.13883 0
M  V30 3074 H 297.064 -2.7703 -1.24451 0
M  V30 3075 H 294.649 -1.38841 -0.551678 0
M  V30 3076 H 296.531 -2.15782 -3.61962 0
M  V30 3077 H 295.206 -1.11173 -3.0401 0
M  V30 3078 H 294.113 -3.17312 -1.98151 0
M  V30 3079 H 295.446 -4.16439 -2.62373 0
M  V30 3080 N 297.098 0.621204 -1.44841 0
M  V30 3081 C 298.046 1.75385 -1.52784 0
M  V30 3082 C 299.04 1.64639 -0.398779 0
M  V30 3083 O 300.246 1.70598 -0.574137 0
M  V30 3084 H 296.621 0.579193 -0.479625 0
M  V30 3085 H 298.592 1.6581 -2.48092 0
M  V30 3086 C 297.341 3.13742 -1.4987 0
M  V30 3087 H 296.664 3.22663 -2.36069 0
M  V30 3088 H 298.104 3.92861 -1.59487 0
M  V30 3089 C 296.563 3.36175 -0.220973 0
M  V30 3090 O 297.093 3.95469 0.704782 0
M  V30 3091 N 295.299 2.90348 -0.120963 0
M  V30 3092 H 294.846 2.42278 -0.875162 0
M  V30 3093 H 294.804 3.05732 0.733168 0
M  V30 3094 N 298.576 1.31904 0.862503 0
M  V30 3095 C 299.486 1.22161 2.00285 0
M  V30 3096 C 300.502 0.136785 1.73462 0
M  V30 3097 O 301.678 0.355994 1.98229 0
M  V30 3098 C 298.743 0.937093 3.33796 0
M  V30 3099 C 297.804 2.10957 3.73893 0
M  V30 3100 C 297.037 1.83853 5.01033 0
M  V30 3101 O 297.26 0.777274 5.65079 0
M  V30 3102 O 296.194 2.69741 5.38074 0
M  V30 3103 H 300.02 2.18008 2.11439 0
M  V30 3104 H 297.605 1.11716 0.991957 0
M  V30 3105 H 299.487 0.794583 4.13841 0
M  V30 3106 H 298.162 0.00871894 3.23699 0
M  V30 3107 H 297.069 2.30752 2.94456 0
M  V30 3108 H 298.402 3.02046 3.88625 0
M  V30 3109 N 300.054 -1.07777 1.14986 0
M  V30 3110 C 300.984 -2.16865 0.865557 0
M  V30 3111 C 301.965 -1.69123 -0.182083 0
M  V30 3112 O 303.15 -1.94164 -0.0373815 0
M  V30 3113 C 300.28 -3.45539 0.349313 0
M  V30 3114 C 299.234 -4.06708 1.33313 0
M  V30 3115 C 298.56 -5.30411 0.675918 0
M  V30 3116 C 299.86 -4.47241 2.69764 0
M  V30 3117 H 301.554 -2.40905 1.77778 0
M  V30 3118 H 299.1 -1.15781 0.856203 0
M  V30 3119 H 301.053 -4.21174 0.137983 0
M  V30 3120 H 299.777 -3.21072 -0.598362 0
M  V30 3121 H 298.436 -3.33112 1.53075 0
M  V30 3122 H 298.084 -5.02232 -0.277767 0
M  V30 3123 H 297.784 -5.72293 1.33244 0
M  V30 3124 H 299.308 -6.08755 0.474262 0
M  V30 3125 H 300.722 -5.14025 2.53873 0
M  V30 3126 H 299.119 -5.00062 3.3175 0
M  V30 3127 H 300.189 -3.58818 3.26156 0
M  V30 3128 N 301.532 -0.945985 -1.26051 0
M  V30 3129 C 302.465 -0.403619 -2.24602 0
M  V30 3130 C 303.443 0.510241 -1.54387 0
M  V30 3131 O 304.627 0.446593 -1.83133 0
M  V30 3132 C 301.754 0.419564 -3.36091 0
M  V30 3133 C 300.8 -0.433454 -4.24292 0
M  V30 3134 S 301.633 -1.86037 -5.02146 0
M  V30 3135 C 302.789 -1.04538 -6.17108 0
M  V30 3136 H 303.022 -1.23883 -2.7026 0
M  V30 3137 H 300.555 -0.749438 -1.34992 0
M  V30 3138 H 302.513 0.888595 -4.00767 0
M  V30 3139 H 301.174 1.22951 -2.89036 0
M  V30 3140 H 300.367 0.197486 -5.03613 0
M  V30 3141 H 299.969 -0.837357 -3.64506 0
M  V30 3142 H 302.261 -0.289923 -6.76879 0
M  V30 3143 H 303.204 -1.81222 -6.84518 0
M  V30 3144 H 303.612 -0.579319 -5.61519 0
M  V30 3145 N 303.011 1.40521 -0.713556 0
M  V30 3146 C 304.241 2.0494 -0.261395 0
M  V30 3147 C 304.649 1.53861 1.10107 0
M  V30 3148 O 303.992 0.689321 1.70276 0
M  V30 3149 C 304.054 3.59138 -0.161227 0
M  V30 3150 C 303.718 4.33096 -1.45865 0
M  V30 3151 C 304.715 4.61182 -2.40016 0
M  V30 3152 C 302.4 4.72043 -1.71701 0
M  V30 3153 C 304.394 5.27196 -3.58251 0
M  V30 3154 C 302.081 5.37789 -2.90218 0
M  V30 3155 C 303.079 5.65295 -3.83315 0
M  V30 3156 O 302.767 6.29683 -4.99754 0
M  V30 3157 H 302.499 0.666041 -0.115608 0
M  V30 3158 H 305.053 1.80954 -0.971849 0
M  V30 3159 H 303.283 3.81936 0.605153 0
M  V30 3160 H 304.972 4.05091 0.256105 0
M  V30 3161 H 305.738 4.31559 -2.21318 0
M  V30 3162 H 301.617 4.50003 -1.00092 0
M  V30 3163 H 305.161 5.48582 -4.30934 0
M  V30 3164 H 301.058 5.66831 -3.08825 0
M  V30 3165 H 301.826 6.4818 -4.99805 0
M  V30 3166 N 304.489 0.459591 1.5075 0
M  V30 3167 C 305.737 -0.0991532 2.01857 0
M  V30 3168 C 306.058 -1.41247 1.34441 0
M  V30 3169 O 305.328 -1.89775 0.486022 0
M  V30 3170 H 303.908 -0.039633 0.745948 0
M  V30 3171 H 306.57 0.607387 1.85194 0
M  V30 3172 H 305.666 -0.258998 3.11023 0
M  V30 3173 N 305.967 -1.56429 0.191757 0
M  V30 3174 C 307.213 -1.97777 -0.448554 0
M  V30 3175 C 307.546 -1.07847 -1.61501 0
M  V30 3176 O 306.821 -0.129774 -1.94067 0
M  V30 3177 C 307.104 -3.48362 -0.911906 0
M  V30 3178 C 306.957 -4.4907 0.256136 0
M  V30 3179 C 308.276 -4.02561 -1.77857 0
M  V30 3180 H 305.395 -0.719071 -0.161572 0
M  V30 3181 H 308.037 -1.87896 0.282007 0
M  V30 3182 H 306.187 -3.56914 -1.53442 0
M  V30 3183 H 307.859 -4.5256 0.893733 0
M  V30 3184 H 306.102 -4.24181 0.908436 0
M  V30 3185 H 306.773 -5.51889 -0.11053 0
M  V30 3186 H 309.249 -3.96767 -1.25359 0
M  V30 3187 H 308.125 -5.08301 -2.07174 0
M  V30 3188 H 308.386 -3.47616 -2.73158 0
M  V30 3189 N 307.445 0.0818655 -1.57387 0
M  V30 3190 C 308.856 0.634871 -1.75574 0
M  V30 3191 C 309.207 1.78435 -0.815809 0
M  V30 3192 O 308.332 2.164 0.0025366 0
M  V30 3193 C 308.927 1.15845 -3.18379 0
M  V30 3194 C 307.486 1.65741 -3.37945 0
M  V30 3195 C 306.633 0.572549 -2.71325 0
M  V30 3196 H 309.584 -0.144268 -1.58043 0
M  V30 3197 H 309.605 2.02751 -3.21982 0
M  V30 3198 H 309.117 0.321631 -3.86765 0
M  V30 3199 H 307.218 2.51781 -2.74658 0
M  V30 3200 H 307.331 1.74129 -4.46336 0
M  V30 3201 H 305.695 1.01518 -2.33594 0
M  V30 3202 H 306.478 -0.253918 -3.4236 0
M  V30 3203 N 308.923 1.53595 0.353017 0
M  V30 3204 C 310.17 1.70385 1.09431 0
M  V30 3205 C 310.498 0.462113 1.88931 0
M  V30 3206 O 309.753 -0.556074 1.87633 0
M  V30 3207 C 310.052 2.91313 2.07054 0
M  V30 3208 C 309.718 4.27308 1.43939 0
M  V30 3209 C 308.38 4.64287 1.26454 0
M  V30 3210 C 310.732 5.11829 0.983883 0
M  V30 3211 C 308.06 5.83412 0.620226 0
M  V30 3212 C 310.412 6.31611 0.353516 0
M  V30 3213 C 309.076 6.67293 0.166272 0
M  V30 3214 H 308.346 0.623484 0.400436 0
M  V30 3215 H 310.993 1.87799 0.374655 0
M  V30 3216 H 309.298 2.68463 2.85368 0
M  V30 3217 H 310.995 3.01497 2.64387 0
M  V30 3218 H 307.585 3.98198 1.58543 0
M  V30 3219 H 311.769 4.838 1.10685 0
M  V30 3220 H 307.025 6.09639 0.463681 0
M  V30 3221 H 311.199 6.964 -0.00757555 0
M  V30 3222 H 308.826 7.59461 -0.335047 0
M  V30 3223 N 310.401 -0.613514 1.45168 0
M  V30 3224 C 311.311 -1.75296 1.55912 0
M  V30 3225 C 312.327 -1.68244 0.443856 0
M  V30 3226 O 313.503 -1.88706 0.70371 0
M  V30 3227 C 310.568 -3.1174 1.5172 0
M  V30 3228 C 309.629 -3.30291 2.74238 0
M  V30 3229 C 308.862 -4.60226 2.70236 0
M  V30 3230 O 309.085 -5.42168 1.77229 0
M  V30 3231 O 308.019 -4.81361 3.61352 0
M  V30 3232 H 311.845 -1.69183 2.52212 0
M  V30 3233 H 309.43 -0.776886 1.27612 0
M  V30 3234 H 311.312 -3.93044 1.51968 0
M  V30 3235 H 309.987 -3.18357 0.585697 0
M  V30 3236 H 308.894 -2.48598 2.79553 0
M  V30 3237 H 310.227 -3.28547 3.66494 0
M  V30 3238 N 311.879 -1.3236 -0.855495 0
M  V30 3239 C 313.126 -1.22872 -1.60962 0
M  V30 3240 C 313.454 0.209658 -1.93367 0
M  V30 3241 O 312.709 1.16243 -1.57436 0
M  V30 3242 C 313.008 -2.03275 -2.93963 0
M  V30 3243 C 312.674 -3.5264 -2.80991 0
M  V30 3244 C 311.336 -3.93364 -2.7716 0
M  V30 3245 C 313.688 -4.47626 -2.66983 0
M  V30 3246 C 311.016 -5.27319 -2.572 0
M  V30 3247 C 313.368 -5.81723 -2.48558 0
M  V30 3248 C 312.032 -6.2165 -2.4312 0
M  V30 3249 H 311.302 -0.44962 -0.589001 0
M  V30 3250 H 313.949 -1.63777 -0.992442 0
M  V30 3251 H 312.254 -1.55095 -3.59795 0
M  V30 3252 H 313.951 -1.93303 -3.51333 0
M  V30 3253 H 310.541 -3.20295 -2.84797 0
M  V30 3254 H 314.725 -4.17084 -2.68988 0
M  V30 3255 H 309.981 -5.57311 -2.51424 0
M  V30 3256 H 314.155 -6.5494 -2.36699 0
M  V30 3257 H 311.782 -7.25388 -2.27412 0
M  V30 3258 N 313.357 1.07166 -1.15556 0
M  V30 3259 C 314.768 1.6127 -0.940693 0
M  V30 3260 C 315.119 1.89251 0.517551 0
M  V30 3261 O 314.244 1.65937 1.38903 0
M  V30 3262 C 314.839 2.92993 -1.7012 0
M  V30 3263 C 313.398 3.43832 -1.53156 0
M  V30 3264 C 312.545 2.1786 -1.71558 0
M  V30 3265 H 315.496 0.90229 -1.30554 0
M  V30 3266 H 315.517 3.62007 -1.17181 0
M  V30 3267 H 315.029 2.72596 -2.76248 0
M  V30 3268 H 313.13 3.69307 -0.494294 0
M  V30 3269 H 313.243 4.19747 -2.30975 0
M  V30 3270 H 311.607 2.2765 -1.14225 0
M  V30 3271 H 312.39 1.99956 -2.79056 0
M  V30 3272 N 314.835 0.952656 1.25548 0
M  V30 3273 C 316.246 0.647392 1.75116 0
M  V30 3274 C 316.597 -0.837274 1.77438 0
M  V30 3275 O 315.722 -1.65525 1.39393 0
M  V30 3276 C 316.317 1.16845 3.18014 0
M  V30 3277 C 314.876 0.913382 3.6515 0
M  V30 3278 C 314.023 1.31265 2.44264 0
M  V30 3279 H 316.974 1.12968 1.11462 0
M  V30 3280 H 316.995 0.527606 3.76824 0
M  V30 3281 H 316.507 2.24902 3.16292 0
M  V30 3282 H 314.608 -0.152316 3.72289 0
M  V30 3283 H 314.721 1.54845 4.53387 0
M  V30 3284 H 313.085 0.731028 2.43984 0
M  V30 3285 H 313.868 2.40239 2.45234 0
M  V30 3286 N 316.313 -1.40141 0.720998 0
M  V30 3287 C 317.223 -2.34486 0.0731031 0
M  V30 3288 C 318.239 -1.57587 -0.737723 0
M  V30 3289 O 319.415 -1.89949 -0.669429 0
M  V30 3290 C 316.48 -3.36528 -0.833656 0
M  V30 3291 C 315.541 -4.29298 -0.0121673 0
M  V30 3292 C 314.774 -5.26466 -0.875742 0
M  V30 3293 O 314.997 -5.29745 -2.11485 0
M  V30 3294 O 313.931 -6.01092 -0.31185 0
M  V30 3295 H 317.757 -2.9152 0.851444 0
M  V30 3296 H 315.342 -1.41427 0.481527 0
M  V30 3297 H 317.224 -3.99093 -1.35289 0
M  V30 3298 H 315.899 -2.81899 -1.59105 0
M  V30 3299 H 314.806 -3.70001 0.552262 0
M  V30 3300 H 316.139 -4.87094 0.707129 0
M  V30 3301 N 317.792 -0.46758 -1.50504 0
M  V30 3302 C 318.755 0.317059 -2.26996 0
M  V30 3303 C 319.755 0.923513 -1.31635 0
M  V30 3304 O 320.945 0.793239 -1.55091 0
M  V30 3305 C 318.077 1.45134 -3.08462 0
M  V30 3306 H 319.27 -0.353723 -2.97807 0
M  V30 3307 H 316.823 -0.221545 -1.54722 0
M  V30 3308 H 317.558 2.15728 -2.4214 0
M  V30 3309 H 317.343 1.02232 -3.78538 0
M  V30 3310 H 318.833 2.00493 -3.66323 0
M  V30 3311 N 319.27 1.56325 -0.20005 0
M  V30 3312 C 320.202 2.16555 0.750771 0
M  V30 3313 C 321.215 1.12871 1.1732 0
M  V30 3314 O 322.404 1.39943 1.10807 0
M  V30 3315 C 319.504 2.71684 2.02586 0
M  V30 3316 C 318.677 4.00321 1.76244 0
M  V30 3317 C 317.736 4.40227 2.88248 0
M  V30 3318 O 316.762 5.07552 2.57642 0
M  V30 3319 N 317.964 4.04138 4.16717 0
M  V30 3320 H 320.729 2.98772 0.235685 0
M  V30 3321 H 318.29 1.6189 -0.0182594 0
M  V30 3322 H 320.282 2.95363 2.76664 0
M  V30 3323 H 318.852 1.93893 2.45202 0
M  V30 3324 H 318.072 3.84723 0.85919 0
M  V30 3325 H 319.36 4.84279 1.56048 0
M  V30 3326 H 318.758 3.49993 4.44434 0
M  V30 3327 H 317.315 4.32756 4.87407 0
M  V30 3328 N 320.748 -0.0735177 1.57428 0
M  V30 3329 C 321.973 -0.789787 1.91774 0
M  V30 3330 C 322.398 -1.70413 0.796306 0
M  V30 3331 O 321.756 -1.79555 -0.250961 0
M  V30 3332 C 321.804 -1.5609 3.25067 0
M  V30 3333 O 320.908 -2.67144 3.14178 0
M  V30 3334 H 320.249 -0.215582 0.628029 0
M  V30 3335 H 322.779 -0.0422781 2.04556 0
M  V30 3336 H 322.789 -1.94052 3.58898 0
M  V30 3337 H 321.464 -0.890015 4.06265 0
M  V30 3338 H 320.041 -2.32052 2.91901 0
M  V30 3339 N 322.226 -1.5378 -0.344866 0
M  V30 3340 C 323.173 -1.81676 -1.42346 0
M  V30 3341 C 324.143 -0.662376 -1.52321 0
M  V30 3342 O 325.328 -0.906675 -1.67881 0
M  V30 3343 C 322.468 -2.03087 -2.79015 0
M  V30 3344 C 321.581 -3.30799 -2.77842 0
M  V30 3345 C 320.716 -3.42285 -4.0622 0
M  V30 3346 C 319.755 -4.6395 -3.9927 0
M  V30 3347 N 318.892 -4.72477 -5.19336 0
M  V30 3348 H 323.732 -2.73703 -1.17858 0
M  V30 3349 H 321.269 -1.35568 -0.570949 0
M  V30 3350 H 323.227 -2.1349 -3.58438 0
M  V30 3351 H 321.857 -1.14375 -3.01858 0
M  V30 3352 H 320.909 -3.29244 -1.90533 0
M  V30 3353 H 322.221 -4.20314 -2.68584 0
M  V30 3354 H 321.375 -3.52113 -4.94066 0
M  V30 3355 H 320.114 -2.50823 -4.18258 0
M  V30 3356 H 319.119 -4.54201 -3.09809 0
M  V30 3357 H 320.344 -5.56775 -3.88817 0
M  V30 3358 H 318.29 -3.83924 -5.3192 0
M  V30 3359 H 318.207 -5.55927 -5.12329 0
M  V30 3360 H 319.475 -4.86613 -6.08957 0
M  V30 3361 N 323.704 0.605807 -1.45491 0
M  V30 3362 C 324.981 1.36522 -1.40075 0
M  V30 3363 C 325.361 2.10976 -0.0722744 0
M  V30 3364 O 324.709 2.08007 0.945808 0
M  V30 3365 C 324.919 2.31056 -2.61561 0
M  V30 3366 C 326.267 2.93608 -3.06724 0
M  V30 3367 O 327.291 2.41376 -2.61946 0
M  V30 3368 O 326.15 3.88421 -3.84437 0
M  V30 3369 H 323.244 0.612248 -0.555951 0
M  V30 3370 H 325.79 0.628747 -1.57623 0
M  V30 3371 H 324.562 1.75311 -3.49831 0
M  V30 3372 H 324.185 3.12081 -2.46356 0
M  V30 3373 N 325.182 1.32811 0.848464 0
M  V30 3374 C 326.429 1.23724 1.60308 0
M  V30 3375 C 326.757 -0.1994 1.93475 0
M  V30 3376 O 326.012 -1.15406 1.5805 0
M  V30 3377 C 326.311 2.04831 2.92881 0
M  V30 3378 C 325.977 3.54125 2.79117 0
M  V30 3379 C 324.639 3.94829 2.7507 0
M  V30 3380 C 326.991 4.49036 2.64606 0
M  V30 3381 C 324.319 5.28675 2.544 0
M  V30 3382 C 326.671 5.83033 2.4547 0
M  V30 3383 C 325.335 6.22931 2.39819 0
M  V30 3384 H 324.605 0.452737 0.586609 0
M  V30 3385 H 327.252 1.64301 0.983743 0
M  V30 3386 H 325.557 1.57001 3.58968 0
M  V30 3387 H 327.254 1.95164 3.50303 0
M  V30 3388 H 323.844 3.21801 2.83094 0
M  V30 3389 H 328.028 4.18505 2.66772 0
M  V30 3390 H 323.284 5.58637 2.48465 0
M  V30 3391 H 327.458 6.56186 2.33222 0
M  V30 3392 H 325.085 7.26584 2.23562 0
M  V30 3393 N 326.66 -1.06551 1.16123 0
M  V30 3394 C 327.59 -2.15935 0.88851 0
M  V30 3395 C 328.571 -1.69306 -0.164135 0
M  V30 3396 O 329.756 -1.94193 -0.0167857 0
M  V30 3397 C 326.886 -3.45149 0.385942 0
M  V30 3398 C 325.84 -4.05271 1.3762 0
M  V30 3399 C 325.166 -5.29664 0.732137 0
M  V30 3400 C 326.466 -4.44355 2.74493 0
M  V30 3401 H 328.16 -2.39006 1.80323 0
M  V30 3402 H 325.706 -1.14866 0.868435 0
M  V30 3403 H 327.659 -4.21004 0.182647 0
M  V30 3404 H 326.383 -3.21689 -0.564274 0
M  V30 3405 H 325.042 -3.3147 1.56599 0
M  V30 3406 H 324.69 -5.02499 -0.224483 0
M  V30 3407 H 324.39 -5.70848 1.39307 0
M  V30 3408 H 325.914 -6.08218 0.538802 0
M  V30 3409 H 327.328 -5.11303 2.59311 0
M  V30 3410 H 325.725 -4.96515 3.37035 0
M  V30 3411 H 326.795 -3.55339 3.29943 0
M  V30 3412 N 328.138 -0.959301 -1.25041 0
M  V30 3413 C 329.387 -0.612254 -1.92183 0
M  V30 3414 C 329.7 0.855347 -1.75907 0
M  V30 3415 O 330.906 1.31256 -2.37664 0
M  V30 3416 C 329.362 -1.04435 -3.44414 0
M  V30 3417 C 328.97 -2.53482 -3.69393 0
M  V30 3418 C 330.714 -0.770055 -4.17457 0
M  V30 3419 C 328.621 -2.90468 -5.15153 0
M  V30 3420 H 327.551 -0.225279 -0.719559 0
M  V30 3421 H 330.202 -1.16438 -1.41825 0
M  V30 3422 H 328.584 -0.4206 -3.9376 0
M  V30 3423 H 329.758 -3.20916 -3.30681 0
M  V30 3424 H 328.073 -2.78432 -3.0962 0
M  V30 3425 H 330.67 -1.02249 -5.24832 0
M  V30 3426 H 331.013 0.293611 -4.15263 0
M  V30 3427 H 331.546 -1.35437 -3.74034 0
M  V30 3428 H 328.285 -3.95871 -5.22462 0
M  V30 3429 H 327.805 -2.27711 -5.54894 0
M  V30 3430 H 329.484 -2.79914 -5.83315 0
M  V30 3431 N 329.616 1.39756 -0.72842 0
M  V30 3432 C 331.027 1.83498 -0.344289 0
M  V30 3433 C 331.378 1.60868 1.12321 0
M  V30 3434 O 330.503 1.09634 1.86573 0
M  V30 3435 C 331.098 3.33114 -0.618112 0
M  V30 3436 C 329.657 3.753 -0.287549 0
M  V30 3437 C 328.804 2.62831 -0.884048 0
M  V30 3438 H 331.755 1.28842 -0.926578 0
M  V30 3439 H 331.776 3.80334 0.112349 0
M  V30 3440 H 331.288 3.49553 -1.68625 0
M  V30 3441 H 329.389 3.64451 0.775012 0
M  V30 3442 H 329.502 4.72945 -0.765512 0
M  V30 3443 H 327.866 2.52792 -0.311149 0
M  V30 3444 H 328.649 2.82078 -1.95671 0
M  V30 3445 N 331.094 0.475555 1.50254 0
M  V30 3446 C 332.343 -0.0795996 2.01543 0
M  V30 3447 C 332.656 -1.4038 1.36209 0
M  V30 3448 O 333.862 -2.04415 1.7868 0
M  V30 3449 C 332.318 -0.192363 3.59386 0
M  V30 3450 C 331.926 1.12367 4.33679 0
M  V30 3451 C 333.67 -0.699238 4.18701 0
M  V30 3452 C 331.577 0.974453 5.83317 0
M  V30 3453 H 330.507 -0.0335228 0.753254 0
M  V30 3454 H 333.158 0.611128 1.73025 0
M  V30 3455 H 331.54 -0.946974 3.84511 0
M  V30 3456 H 332.714 1.88958 4.20276 0
M  V30 3457 H 331.029 1.562 3.85993 0
M  V30 3458 H 333.626 -0.827978 5.28251 0
M  V30 3459 H 333.969 -1.69171 3.80377 0
M  V30 3460 H 334.502 -0.00188807 3.978 0
M  V30 3461 H 331.241 1.94042 6.26121 0
M  V30 3462 H 330.761 0.248998 5.99283 0
M  V30 3463 H 332.44 0.642867 6.43798 0
M  V30 3464 N 332.573 -1.56217 0.208337 0
M  V30 3465 C 333.821 -1.97558 -0.426076 0
M  V30 3466 C 334.142 -1.09683 -1.61229 0
M  V30 3467 O 333.412 -0.170956 -1.95153 0
M  V30 3468 H 331.992 -0.729575 -0.160405 0
M  V30 3469 H 334.654 -1.92606 0.298155 0
M  V30 3470 H 333.75 -3.02672 -0.761312 0
M  V30 3471 N 334.051 0.0651679 -1.57465 0
M  V30 3472 C 334.998 1.07675 -2.04144 0
M  V30 3473 C 335.968 1.38071 -0.923335 0
M  V30 3474 O 337.153 1.49026 -1.19146 0
M  V30 3475 C 334.293 2.38337 -2.49579 0
M  V30 3476 C 333.406 2.14413 -3.75035 0
M  V30 3477 C 332.541 3.38686 -4.09225 0
M  V30 3478 C 331.58 3.10156 -5.27702 0
M  V30 3479 N 330.717 4.26778 -5.57499 0
M  V30 3480 H 335.557 0.671716 -2.90331 0
M  V30 3481 H 333.094 0.3201 -1.43575 0
M  V30 3482 H 335.052 3.14632 -2.73975 0
M  V30 3483 H 333.682 2.7663 -1.6636 0
M  V30 3484 H 332.734 1.2878 -3.57939 0
M  V30 3485 H 334.046 1.89344 -4.61466 0
M  V30 3486 H 333.2 4.23373 -4.34558 0
M  V30 3487 H 331.939 3.66837 -3.21374 0
M  V30 3488 H 330.944 2.23866 -5.02159 0
M  V30 3489 H 332.169 2.8332 -6.17176 0
M  V30 3490 H 330.115 4.54948 -4.72608 0
M  V30 3491 H 330.032 4.05005 -6.38362 0
M  V30 3492 H 331.3 5.12443 -5.87386 0
M  V30 3493 N 335.529 1.53961 0.336706 0
M  V30 3494 C 336.492 1.81724 1.39675 0
M  V30 3495 C 337.492 0.688532 1.45313 0
M  V30 3496 O 338.682 0.956829 1.45569 0
M  V30 3497 C 335.814 1.96543 2.78538 0
M  V30 3498 H 337.007 2.76424 1.16318 0
M  V30 3499 H 334.56 1.45478 0.571474 0
M  V30 3500 H 335.295 1.0401 3.07168 0
M  V30 3501 H 335.08 2.78665 2.75841 0
M  V30 3502 H 336.57 2.19516 3.5525 0
M  V30 3503 N 337.007 -0.598083 1.45811 0
M  V30 3504 C 337.954 -1.7082 1.55207 0
M  V30 3505 C 338.924 -1.61278 0.39732 0
M  V30 3506 O 340.109 -1.80717 0.612038 0
M  V30 3507 C 337.249 -3.09144 1.53376 0
M  V30 3508 C 336.362 -3.29423 2.79472 0
M  V30 3509 C 335.497 -4.57907 2.69248 0
M  V30 3510 C 334.536 -4.71476 3.90354 0
M  V30 3511 N 333.673 -5.9127 3.78608 0
M  V30 3512 H 338.513 -1.62125 2.50039 0
M  V30 3513 H 336.05 -0.790389 1.24062 0
M  V30 3514 H 338.008 -3.89186 1.50301 0
M  V30 3515 H 336.638 -3.16773 0.620876 0
M  V30 3516 H 335.69 -2.43091 2.92594 0
M  V30 3517 H 337.002 -3.3532 3.69272 0
M  V30 3518 H 336.156 -5.46157 2.64192 0
M  V30 3519 H 334.895 -4.54423 1.77063 0
M  V30 3520 H 333.9 -3.81648 3.95759 0
M  V30 3521 H 335.125 -4.76751 4.83617 0
M  V30 3522 H 333.071 -5.88813 2.89199 0
M  V30 3523 H 332.988 -5.98369 4.6205 0
M  V30 3524 H 334.256 -6.81992 3.77501 0
M  V30 3525 N 338.485 -1.33259 -0.841409 0
M  V30 3526 C 339.734 -1.23921 -1.59143 0
M  V30 3527 C 340.047 0.1941 -1.94635 0
M  V30 3528 O 341.253 0.409474 -2.68394 0
M  V30 3529 C 339.709 -2.17119 -2.87032 0
M  V30 3530 C 339.317 -3.65606 -2.58914 0
M  V30 3531 C 341.061 -2.16648 -3.65053 0
M  V30 3532 C 338.968 -4.50726 -3.82884 0
M  V30 3533 H 337.898 -0.460264 -0.597221 0
M  V30 3534 H 340.549 -1.58307 -0.927959 0
M  V30 3535 H 338.931 -1.75663 -3.54906 0
M  V30 3536 H 340.105 -4.15487 -1.99267 0
M  V30 3537 H 338.42 -3.68341 -1.942 0
M  V30 3538 H 341.017 -2.77474 -4.57069 0
M  V30 3539 H 341.36 -1.16088 -3.99787 0
M  V30 3540 H 341.893 -2.56453 -3.041 0
M  V30 3541 H 338.632 -5.52151 -3.53283 0
M  V30 3542 H 338.152 -4.0559 -4.41879 0
M  V30 3543 H 339.831 -4.64401 -4.50489 0
M  V30 3544 N 339.963 1.05934 -1.16686 0
M  V30 3545 C 340.873 2.17014 -0.891183 0
M  V30 3546 C 341.889 1.73453 0.137907 0
M  V30 3547 O 343.065 2.01361 -0.039592 0
M  V30 3548 C 340.13 3.44384 -0.400099 0
M  V30 3549 C 339.191 4.02433 -1.49486 0
M  V30 3550 C 338.424 5.23723 -1.02711 0
M  V30 3551 O 338.647 5.7027 0.121716 0
M  V30 3552 O 337.581 5.7382 -1.81699 0
M  V30 3553 H 341.407 2.43113 -1.82015 0
M  V30 3554 H 338.992 1.15541 -0.947132 0
M  V30 3555 H 340.874 4.21189 -0.133392 0
M  V30 3556 H 339.549 3.19802 0.500817 0
M  V30 3557 H 338.456 3.27102 -1.81535 0
M  V30 3558 H 339.789 4.31317 -2.37121 0
M  V30 3559 N 341.441 0.965919 1.2453 0
M  V30 3560 C 342.857 0.67216 1.44756 0
M  V30 3561 C 343.057 -0.766609 1.86347 0
M  V30 3562 O 342.113 -1.5407 2.00047 0
M  V30 3563 C 343.426 1.65473 2.51076 0
M  V30 3564 C 344.974 1.66716 2.64905 0
M  V30 3565 C 345.449 2.63766 3.74421 0
M  V30 3566 N 346.94 2.62198 3.81846 0
M  V30 3567 C 347.675 3.33966 4.66106 0
M  V30 3568 N 347.171 4.15245 5.54566 0
M  V30 3569 N 348.964 3.22799 4.60171 0
M  V30 3570 H 341.115 1.89553 0.958293 0
M  V30 3571 H 343.378 0.815979 0.482579 0
M  V30 3572 H 343.084 2.68296 2.27399 0
M  V30 3573 H 342.958 1.4261 3.49202 0
M  V30 3574 H 345.345 0.646057 2.87941 0
M  V30 3575 H 345.426 1.93642 1.67142 0
M  V30 3576 H 345.07 3.6601 3.52135 0
M  V30 3577 H 345 2.34121 4.71694 0
M  V30 3578 H 347.491 2.032 3.18619 0
M  V30 3579 H 347.804 4.66898 6.15814 0
M  V30 3580 H 346.149 4.1934 5.54237 0
M  V30 3581 H 349.34 2.58764 3.90075 0
M  V30 3582 H 349.513 3.78994 5.25612 0
M  V30 3583 N 342.919 -1.39368 0.735821 0
M  V30 3584 C 343.851 -2.2913 0.0567723 0
M  V30 3585 C 344.864 -1.46859 -0.702589 0
M  V30 3586 O 346.053 -1.69925 -0.546616 0
M  V30 3587 C 343.153 -3.25492 -0.943823 0
M  V30 3588 C 342.326 -4.36709 -0.24581 0
M  V30 3589 C 341.385 -5.13376 -1.15463 0
M  V30 3590 O 340.411 -5.65683 -0.631803 0
M  V30 3591 N 341.613 -5.24656 -2.48427 0
M  V30 3592 H 344.378 -2.88047 0.827582 0
M  V30 3593 H 341.939 -1.50957 0.585112 0
M  V30 3594 H 343.931 -3.73657 -1.55443 0
M  V30 3595 H 342.501 -2.676 -1.61583 0
M  V30 3596 H 341.721 -3.9041 0.545286 0
M  V30 3597 H 343.009 -5.08244 0.237891 0
M  V30 3598 H 342.407 -4.83679 -2.93379 0
M  V30 3599 H 340.964 -5.76258 -3.04582 0
M  V30 3600 N 344.397 -0.483516 -1.5 0
M  V30 3601 C 345.645 0.067027 -2.01989 0
M  V30 3602 C 345.966 1.3909 -1.36671 0
M  V30 3603 O 345.236 1.88978 -0.516152 0
M  V30 3604 H 343.816 0.0277606 -0.746484 0
M  V30 3605 H 346.478 -0.636773 -1.84204 0
M  V30 3606 H 345.574 0.209484 -3.11396 0
M  V30 3607 N 345.875 1.56104 -0.216619 0
M  V30 3608 C 347.103 2.02563 0.421413 0
M  V30 3609 C 347.518 1.0965 1.53695 0
M  V30 3610 O 346.875 0.10521 1.82196 0
M  V30 3611 C 346.926 3.48584 0.957665 0
M  V30 3612 O 346.647 4.37953 -0.113389 0
M  V30 3613 C 348.148 4.10664 1.66943 0
M  V30 3614 H 345.368 0.662944 0.103665 0
M  V30 3615 H 347.912 2.01793 -0.331629 0
M  V30 3616 H 346.067 3.49985 1.661 0
M  V30 3617 H 346.481 5.23704 0.288932 0
M  V30 3618 H 347.955 5.14622 1.99671 0
M  V30 3619 H 348.432 3.55373 2.58083 0
M  V30 3620 H 349.038 4.13098 1.01142 0
M  V30 3621 N 347.353 -0.0568162 1.57498 0
M  V30 3622 C 348.303 -1.07315 2.01166 0
M  V30 3623 C 349.287 -1.33632 0.896171 0
M  V30 3624 O 350.479 -1.33682 1.16009 0
M  V30 3625 C 347.608 -2.38257 2.47161 0
M  V30 3626 C 346.694 -2.1515 3.65474 0
M  V30 3627 N 347.085 -1.62014 4.7915 0
M  V30 3628 C 345.383 -2.45559 3.72313 0
M  V30 3629 C 346.084 -1.54069 5.60926 0
M  V30 3630 N 345.06 -2.00652 5.05213 0
M  V30 3631 H 348.862 -0.655878 2.86488 0
M  V30 3632 H 346.376 -0.263635 1.60246 0
M  V30 3633 H 348.373 -3.11845 2.76691 0
M  V30 3634 H 347.033 -2.80687 1.63232 0
M  V30 3635 H 348.044 -1.30667 5.01145 0
M  V30 3636 H 344.721 -2.91253 2.99129 0
M  V30 3637 H 346.111 -1.13712 6.62208 0
M  V30 3638 N 348.832 -1.54138 -0.328536 0
M  V30 3639 C 350.081 -1.71318 -1.06456 0
M  V30 3640 C 350.394 -0.491109 -1.89334 0
M  V30 3641 O 351.6 -0.54416 -2.65991 0
M  V30 3642 C 350.056 -3.03 -1.94214 0
M  V30 3643 C 349.664 -4.32595 -1.16471 0
M  V30 3644 C 351.408 -3.29544 -2.67583 0
M  V30 3645 C 349.315 -5.55341 -2.03347 0
M  V30 3646 H 348.245 -0.638429 -0.401155 0
M  V30 3647 H 350.896 -1.80633 -0.323106 0
M  V30 3648 H 349.278 -2.87579 -2.72239 0
M  V30 3649 H 350.452 -4.58766 -0.432525 0
M  V30 3650 H 348.767 -4.12777 -0.548063 0
M  V30 3651 H 351.364 -4.18444 -3.3288 0
M  V30 3652 H 351.707 -2.47206 -3.34955 0
M  V30 3653 H 352.24 -3.45809 -1.96623 0
M  V30 3654 H 348.979 -6.40268 -1.40491 0
M  V30 3655 H 348.499 -5.33397 -2.74313 0
M  V30 3656 H 350.178 -5.91557 -2.62049 0
M  V30 3657 N 350.31 0.590341 -1.46126 0
M  V30 3658 C 351.538 1.37504 -1.54597 0
M  V30 3659 C 351.953 1.87897 -0.184447 0
M  V30 3660 O 351.31 1.63192 0.816984 0
M  V30 3661 C 351.361 2.56779 -2.54454 0
M  V30 3662 O 351.082 2.08476 -3.85317 0
M  V30 3663 C 352.583 3.49427 -2.72792 0
M  V30 3664 H 349.803 0.420325 -0.523037 0
M  V30 3665 H 352.347 0.718383 -1.91467 0
M  V30 3666 H 350.502 3.1845 -2.20609 0
M  V30 3667 H 350.916 2.86097 -4.396 0
M  V30 3668 H 352.39 4.29619 -3.466 0
M  V30 3669 H 352.867 4.00876 -1.79429 0
M  V30 3670 H 353.473 2.93598 -3.07702 0
M  V30 3671 N 351.788 1.33704 0.83433 0
M  V30 3672 C 353.034 1.25603 1.59222 0
M  V30 3673 C 353.367 -0.176659 1.93395 0
M  V30 3674 O 352.642 -1.11915 1.59076 0
M  V30 3675 C 352.925 2.13576 2.89926 0
M  V30 3676 C 352.778 3.65326 2.62406 0
M  V30 3677 C 354.097 2.01238 3.91397 0
M  V30 3678 H 351.216 0.457613 0.577719 0
M  V30 3679 H 353.858 1.63848 0.961972 0
M  V30 3680 H 352.008 1.8109 3.43713 0
M  V30 3681 H 353.68 4.08124 2.15017 0
M  V30 3682 H 351.923 3.8698 1.96033 0
M  V30 3683 H 352.594 4.22232 3.55562 0
M  V30 3684 H 355.07 2.29738 3.46929 0
M  V30 3685 H 353.946 2.65036 4.80673 0
M  V30 3686 H 354.207 0.985951 4.30966 0
M  V30 3687 N 353.266 -1.05314 1.17247 0
M  V30 3688 C 354.512 -1.78557 0.961513 0
M  V30 3689 C 354.845 -1.87419 -0.508697 0
M  V30 3690 O 354.12 -1.37307 -1.37757 0
M  V30 3691 C 354.403 -3.22514 1.60176 0
M  V30 3692 C 354.256 -3.21673 3.14399 0
M  V30 3693 C 355.575 -4.20318 1.30463 0
M  V30 3694 H 352.694 -0.6482 0.350723 0
M  V30 3695 H 355.336 -1.23102 1.44727 0
M  V30 3696 H 353.486 -3.69867 1.18871 0
M  V30 3697 H 355.158 -2.82405 3.64753 0
M  V30 3698 H 353.401 -2.60048 3.47214 0
M  V30 3699 H 354.072 -4.23271 3.54324 0
M  V30 3700 H 356.548 -3.81454 1.66229 0
M  V30 3701 H 355.424 -5.19289 1.77848 0
M  V30 3702 H 355.685 -4.41526 0.22521 0
M  V30 3703 N 354.744 -0.972509 -1.24016 0
M  V30 3704 C 355.969 -0.654417 -1.96805 0
M  V30 3705 C 356.394 0.770398 -1.716 0
M  V30 3706 O 355.752 1.52361 -0.982647 0
M  V30 3707 C 355.8 -0.941031 -3.48105 0
M  V30 3708 O 354.904 -0.0289472 -4.1239 0
M  V30 3709 H 354.245 -0.24692 -0.616382 0
M  V30 3710 H 356.775 -1.30396 -1.57664 0
M  V30 3711 H 356.785 -0.87452 -3.98517 0
M  V30 3712 H 355.46 -1.97939 -3.65777 0
M  V30 3713 H 354.037 -0.149192 -3.72601 0
M  V30 3714 N 356.222 1.38976 -0.743202 0
M  V30 3715 C 357.172 2.27843 -0.084513 0
M  V30 3716 C 358.156 1.44677 0.704094 0
M  V30 3717 O 359.348 1.67511 0.571755 0
M  V30 3718 C 356.477 3.33466 0.815781 0
M  V30 3719 C 355.563 4.24095 0.0208844 0
M  V30 3720 N 355.954 4.95609 -1.0102 0
M  V30 3721 C 354.252 4.45303 0.249293 0
M  V30 3722 C 354.953 5.62287 -1.49024 0
M  V30 3723 N 353.929 5.37571 -0.807377 0
M  V30 3724 H 357.731 2.80593 -0.87436 0
M  V30 3725 H 355.245 1.51755 -0.578283 0
M  V30 3726 H 357.242 3.96008 1.30321 0
M  V30 3727 H 355.902 2.82276 1.6047 0
M  V30 3728 H 356.913 4.98849 -1.39176 0
M  V30 3729 H 353.59 4.0504 1.01237 0
M  V30 3730 H 354.98 6.29519 -2.34853 0
M  V30 3731 N 357.7 0.491464 1.49741 0
M  V30 3732 C 358.925 -0.0557177 2.07325 0
M  V30 3733 C 359.35 -1.30925 1.35056 0
M  V30 3734 O 358.708 -1.76733 0.404365 0
M  V30 3735 C 358.756 -0.302074 3.59333 0
M  V30 3736 O 357.86 -1.37868 3.88672 0
M  V30 3737 H 357.201 0.0219956 0.663636 0
M  V30 3738 H 359.731 0.688352 1.92673 0
M  V30 3739 H 359.741 -0.536464 4.04458 0
M  V30 3740 H 358.416 0.61383 4.11345 0
M  V30 3741 H 356.993 -1.12999 3.55367 0
M  V30 3742 N 359.178 -1.55987 0.224894 0
M  V30 3743 C 360.594 -1.59066 -0.130426 0
M  V30 3744 C 360.794 -1.24176 -1.5869 0
M  V30 3745 O 359.85 -0.978592 -2.32766 0
M  V30 3746 C 361.163 -3.00042 0.198883 0
M  V30 3747 C 362.711 -3.1268 0.141391 0
M  V30 3748 C 363.186 -4.55839 0.444422 0
M  V30 3749 N 364.677 -4.6152 0.394115 0
M  V30 3750 C 365.412 -5.70231 0.602038 0
M  V30 3751 N 364.908 -6.87291 0.871914 0
M  V30 3752 N 366.701 -5.59555 0.534245 0
M  V30 3753 H 358.852 -1.76941 1.17497 0
M  V30 3754 H 361.115 -0.822604 0.471197 0
M  V30 3755 H 360.821 -3.30234 1.2099 0
M  V30 3756 H 360.695 -3.74075 -0.484535 0
M  V30 3757 H 363.082 -2.82283 -0.860265 0
M  V30 3758 H 363.163 -2.40969 0.858335 0
M  V30 3759 H 362.807 -4.86954 1.44353 0
M  V30 3760 H 362.737 -5.2578 -0.293752 0
M  V30 3761 H 365.228 -3.77405 0.193356 0
M  V30 3762 H 365.541 -7.66058 1.01858 0
M  V30 3763 H 363.886 -6.89028 0.909145 0
M  V30 3764 H 367.077 -4.6698 0.323612 0
M  V30 3765 H 367.25 -6.44211 0.699693 0
M  V30 3766 N 360.656 0.0484629 -1.57525 0
M  V30 3767 C 362.067 0.597486 -1.76881 0
M  V30 3768 C 362.418 1.76664 -0.853475 0
M  V30 3769 O 361.543 2.16357 -0.0433656 0
M  V30 3770 C 362.138 1.09066 -3.20765 0
M  V30 3771 C 360.697 1.58535 -3.41385 0
M  V30 3772 C 359.844 0.514868 -2.72478 0
M  V30 3773 H 362.795 -0.177758 -1.57701 0
M  V30 3774 H 362.816 1.95875 -3.2621 0
M  V30 3775 H 362.328 0.239521 -3.8736 0
M  V30 3776 H 360.429 2.45898 -2.79937 0
M  V30 3777 H 360.542 1.64622 -4.49929 0
M  V30 3778 H 358.906 0.965407 -2.35695 0
M  V30 3779 H 359.689 -0.32648 -3.41744 0
M  V30 3780 N 362.134 1.5431 0.320358 0
M  V30 3781 C 363.38 1.72924 1.05949 0
M  V30 3782 C 363.713 0.503185 1.87568 0
M  V30 3783 O 362.988 -0.499839 1.87968 0
M  V30 3784 C 363.271 3.00676 1.98156 0
M  V30 3785 C 363.124 4.3354 1.19845 0
M  V30 3786 C 364.443 3.24198 2.9763 0
M  V30 3787 H 361.562 0.629195 0.383774 0
M  V30 3788 H 364.204 1.87008 0.335854 0
M  V30 3789 H 362.354 2.888 2.59859 0
M  V30 3790 H 364.026 4.57305 0.605773 0
M  V30 3791 H 362.269 4.309 0.500784 0
M  V30 3792 H 362.94 5.19156 1.87567 0
M  V30 3793 H 365.416 3.35557 2.4605 0
M  V30 3794 H 364.292 4.14938 3.59329 0
M  V30 3795 H 364.553 2.41577 3.7026 0
M  V30 3796 N 363.613 -0.582584 1.46437 0
M  V30 3797 C 364.861 -1.33814 1.51453 0
M  V30 3798 C 365.182 -1.94277 0.167792 0
M  V30 3799 O 364.452 -1.78566 -0.805677 0
M  V30 3800 H 363.032 -0.496838 0.557818 0
M  V30 3801 H 365.694 -0.682281 1.82568 0
M  V30 3802 H 364.79 -2.14479 2.26728 0
M  V30 3803 N 365.091 -1.34144 -0.827227 0
M  V30 3804 C 366.041 -1.21923 -1.92663 0
M  V30 3805 C 367.025 -0.119294 -1.60457 0
M  V30 3806 O 368.217 -0.348539 -1.73534 0
M  V30 3807 C 365.346 -0.972492 -3.29238 0
M  V30 3808 C 364.432 -2.1154 -3.67576 0
M  V30 3809 N 364.823 -3.36627 -3.77512 0
M  V30 3810 C 363.121 -2.02468 -3.97395 0
M  V30 3811 C 363.822 -4.11658 -4.1099 0
M  V30 3812 N 362.798 -3.40207 -4.23981 0
M  V30 3813 H 366.6 -2.16721 -1.98517 0
M  V30 3814 H 364.114 -1.2632 -1.02064 0
M  V30 3815 H 366.111 -0.865847 -4.0781 0
M  V30 3816 H 364.771 -0.0331509 -3.24683 0
M  V30 3817 H 365.782 -3.71234 -3.61118 0
M  V30 3818 H 362.459 -1.16265 -4.00985 0
M  V30 3819 H 363.849 -5.19657 -4.25918 0
M  V30 3820 N 366.569 1.04691 -1.17803 0
M  V30 3821 C 367.809 1.79352 -0.980423 0
M  V30 3822 C 368.173 1.85853 0.481958 0
M  V30 3823 O 369.374 2.56656 0.798809 0
M  V30 3824 C 367.645 3.19088 -1.6099 0
M  V30 3825 S 369.204 4.10164 -1.55918 0
M  V30 3826 H 366.022 0.617631 -0.352211 0
M  V30 3827 H 368.624 1.25575 -1.49837 0
M  V30 3828 H 367.328 3.11962 -2.66661 0
M  V30 3829 H 366.859 3.77941 -1.09197 0
M  V30 3830 H 368.874 4.92907 -0.570685 0
M  V30 3831 N 368.047 0.979072 1.23499 0
M  V30 3832 C 368.977 0.537606 2.27227 0
M  V30 3833 C 369.958 -0.428539 1.64613 0
M  V30 3834 O 371.143 -0.322191 1.91509 0
M  V30 3835 C 368.273 -0.162052 3.46922 0
M  V30 3836 C 367.227 0.721242 4.21879 0
M  V30 3837 C 366.553 -0.110555 5.34586 0
M  V30 3838 C 367.853 2.01141 4.82016 0
M  V30 3839 H 369.547 1.40462 2.64406 0
M  V30 3840 H 367.093 0.67684 1.27102 0
M  V30 3841 H 369.046 -0.482192 4.18632 0
M  V30 3842 H 367.77 -1.06351 3.08799 0
M  V30 3843 H 366.429 1.02482 3.51984 0
M  V30 3844 H 366.077 -1.0125 4.92704 0
M  V30 3845 H 365.777 0.477325 5.85658 0
M  V30 3846 H 367.301 -0.425107 6.09118 0
M  V30 3847 H 368.715 1.75612 5.45741 0
M  V30 3848 H 367.112 2.54695 5.43369 0
M  V30 3849 H 368.182 2.69909 4.02836 0
M  V30 3850 N 369.525 -1.3858 0.750561 0
M  V30 3851 C 370.435 -2.34278 0.122825 0
M  V30 3852 C 371.451 -1.59116 -0.704131 0
M  V30 3853 O 372.627 -1.91326 -0.628987 0
M  V30 3854 C 369.692 -3.38221 -0.762086 0
M  V30 3855 C 368.753 -4.29227 0.078896 0
M  V30 3856 C 367.986 -5.28205 -0.763874 0
M  V30 3857 O 368.209 -5.34112 -2.00201 0
M  V30 3858 O 367.143 -6.01618 -0.18428 0
M  V30 3859 H 370.969 -2.89649 0.913088 0
M  V30 3860 H 368.554 -1.40374 0.511417 0
M  V30 3861 H 370.436 -4.01872 -1.26793 0
M  V30 3862 H 369.111 -2.85211 -1.5309 0
M  V30 3863 H 368.018 -3.68747 0.630621 0
M  V30 3864 H 369.351 -4.85484 0.810289 0
M  V30 3865 N 371.003 -0.499398 -1.49478 0
M  V30 3866 C 371.966 0.268838 -2.27618 0
M  V30 3867 C 372.966 0.895383 -1.33565 0
M  V30 3868 O 374.156 0.760164 -1.56739 0
M  V30 3869 C 371.288 1.38559 -3.11471 0
M  V30 3870 H 372.481 -0.416812 -2.96989 0
M  V30 3871 H 370.034 -0.254313 -1.54217 0
M  V30 3872 H 370.769 2.10544 -2.46661 0
M  V30 3873 H 370.554 0.941797 -3.80621 0
M  V30 3874 H 372.044 1.92678 -3.70493 0
M  V30 3875 N 372.481 1.55866 -0.233164 0
M  V30 3876 C 373.444 2.1953 0.658715 0
M  V30 3877 C 374.444 1.16053 1.11303 0
M  V30 3878 O 375.634 1.41218 1.01996 0
M  V30 3879 C 372.766 2.82791 1.90373 0
M  V30 3880 H 373.959 2.99721 0.10347 0
M  V30 3881 H 371.512 1.56291 0.0164245 0
M  V30 3882 H 372.247 2.06501 2.50056 0
M  V30 3883 H 372.032 3.58578 1.58632 0
M  V30 3884 H 373.522 3.31556 2.53891 0
M  V30 3885 N 373.959 -0.0401083 1.57549 0
M  V30 3886 C 374.922 -1.02871 2.04817 0
M  V30 3887 C 375.922 -1.29708 0.950388 0
M  V30 3888 O 377.112 -1.24897 1.21435 0
M  V30 3889 C 374.244 -2.36443 2.45576 0
M  V30 3890 H 375.437 -0.620631 2.93408 0
M  V30 3891 H 372.99 -0.286667 1.53649 0
M  V30 3892 H 373.725 -2.82021 1.60108 0
M  V30 3893 H 373.51 -2.18296 3.25713 0
M  V30 3894 H 375 -3.07441 2.82612 0
M  V30 3895 N 375.437 -1.54477 -0.31217 0
M  V30 3896 C 376.683 -1.73483 -1.0503 0
M  V30 3897 C 377.016 -0.513125 -1.87298 0
M  V30 3898 O 376.291 0.489864 -1.8823 0
M  V30 3899 C 376.574 -3.01723 -1.96558 0
M  V30 3900 C 376.427 -4.3417 -1.17545 0
M  V30 3901 C 377.746 -3.25772 -2.95907 0
M  V30 3902 H 374.865 -0.631222 -0.380432 0
M  V30 3903 H 377.507 -1.87184 -0.325932 0
M  V30 3904 H 375.657 -2.90174 -2.58324 0
M  V30 3905 H 377.329 -4.5762 -0.581513 0
M  V30 3906 H 375.572 -4.31159 -0.477925 0
M  V30 3907 H 376.243 -5.20143 -1.84811 0
M  V30 3908 H 378.719 -3.36857 -2.44267 0
M  V30 3909 H 377.595 -4.16838 -3.57123 0
M  V30 3910 H 377.856 -2.43537 -3.68974 0
M  V30 3911 N 376.915 0.57481 -1.46744 0
M  V30 3912 C 377.845 1.69337 -1.60771 0
M  V30 3913 C 378.826 1.63825 -0.457736 0
M  V30 3914 O 380.011 1.8172 -0.684947 0
M  V30 3915 C 377.141 3.0798 -1.60517 0
M  V30 3916 C 376.095 3.28327 -2.74564 0
M  V30 3917 C 375.421 4.67578 -2.59373 0
M  V30 3918 C 376.721 3.15398 -4.16319 0
M  V30 3919 H 378.415 1.57853 -2.54407 0
M  V30 3920 H 375.961 0.75799 -1.22436 0
M  V30 3921 H 377.914 3.86061 -1.68923 0
M  V30 3922 H 376.638 3.20381 -0.634305 0
M  V30 3923 H 375.297 2.52649 -2.65639 0
M  V30 3924 H 374.945 4.76755 -1.60353 0
M  V30 3925 H 374.645 4.82144 -3.35873 0
M  V30 3926 H 376.169 5.47817 -2.69682 0
M  V30 3927 H 377.583 3.83315 -4.26313 0
M  V30 3928 H 375.98 3.41482 -4.93468 0
M  V30 3929 H 377.05 2.12372 -4.3592 0
M  V30 3930 N 378.394 1.34581 0.820102 0
M  V30 3931 C 379.619 1.30333 1.61332 0
M  V30 3932 C 380.044 -0.119339 1.87721 0
M  V30 3933 O 379.402 -1.08197 1.45475 0
M  V30 3934 C 379.45 2.10258 2.92957 0
M  V30 3935 O 378.554 1.47404 3.85157 0
M  V30 3936 H 377.895 0.447488 0.490561 0
M  V30 3937 H 380.425 1.77425 1.01889 0
M  V30 3938 H 380.435 2.21718 3.42498 0
M  V30 3939 H 379.11 3.13693 2.73074 0
M  V30 3940 H 377.687 1.44703 3.43679 0
M  V30 3941 N 379.872 -1.04064 1.18357 0
M  V30 3942 C 380.819 -2.12077 0.910603 0
M  V30 3943 C 381.789 -1.65421 -0.15 0
M  V30 3944 O 382.974 -1.90797 -0.0103614 0
M  V30 3945 C 380.114 -3.42252 0.442472 0
M  V30 3946 C 379.227 -4.0252 1.5685 0
M  V30 3947 C 378.362 -5.20657 1.05309 0
M  V30 3948 C 377.401 -5.72955 2.1538 0
M  V30 3949 N 376.538 -6.8238 1.65233 0
M  V30 3950 H 381.378 -2.34764 1.83548 0
M  V30 3951 H 378.915 -1.15157 0.915279 0
M  V30 3952 H 380.873 -4.16921 0.152534 0
M  V30 3953 H 379.503 -3.19712 -0.445428 0
M  V30 3954 H 378.555 -3.25178 1.97391 0
M  V30 3955 H 379.867 -4.37362 2.39824 0
M  V30 3956 H 379.021 -6.0244 0.717677 0
M  V30 3957 H 377.76 -4.87318 0.19293 0
M  V30 3958 H 376.765 -4.89793 2.49766 0
M  V30 3959 H 377.99 -6.08337 3.01832 0
M  V30 3960 H 375.936 -6.50917 0.815064 0
M  V30 3961 H 375.853 -7.16286 2.41805 0
M  V30 3962 H 377.121 -7.67788 1.34619 0
M  V30 3963 N 381.35 -0.985608 -1.22978 0
M  V30 3964 C 382.26 -0.538548 -2.28335 0
M  V30 3965 C 383.276 0.409163 -1.69121 0
M  V30 3966 O 384.452 0.277797 -1.99475 0
M  V30 3967 C 381.517 0.146867 -3.46389 0
M  V30 3968 C 380.578 -0.842896 -4.20944 0
M  V30 3969 C 379.811 -0.190095 -5.33361 0
M  V30 3970 O 380.034 1.01767 -5.61248 0
M  V30 3971 O 378.968 -0.891289 -5.95264 0
M  V30 3972 H 382.794 -1.41487 -2.68729 0
M  V30 3973 H 380.379 -0.753495 -1.29007 0
M  V30 3974 H 382.261 0.531125 -4.1804 0
M  V30 3975 H 380.936 0.997871 -3.07935 0
M  V30 3976 H 379.843 -1.27795 -3.51595 0
M  V30 3977 H 381.176 -1.66287 -4.6326 0
M  V30 3978 N 382.828 1.3818 -0.7579 0
M  V30 3979 C 384.076 1.99624 -0.315361 0
M  V30 3980 C 384.397 1.60464 1.10799 0
M  V30 3981 O 383.667 0.863507 1.75842 0
M  V30 3982 H 382.247 0.73831 -0.113611 0
M  V30 3983 H 384.909 1.68878 -0.972952 0
M  V30 3984 H 384.005 3.09754 -0.381931 0
M  V30 3985 N 384.306 0.507319 1.49211 0
M  V30 3986 C 385.552 -0.0350047 2.0277 0
M  V30 3987 C 385.885 -1.3606 1.38569 0
M  V30 3988 O 385.16 -1.87321 0.523542 0
M  V30 3989 C 385.443 -0.180916 3.59645 0
M  V30 3990 C 385.296 1.16825 4.34364 0
M  V30 3991 C 386.615 -0.918558 4.30407 0
M  V30 3992 H 383.734 -0.0112473 0.736914 0
M  V30 3993 H 386.376 0.659956 1.7817 0
M  V30 3994 H 384.526 -0.772826 3.80736 0
M  V30 3995 H 386.198 1.79952 4.24753 0
M  V30 3996 H 384.441 1.75594 3.96673 0
M  V30 3997 H 385.112 1.01939 5.42506 0
M  V30 3998 H 387.588 -0.41649 4.1401 0
M  V30 3999 H 386.464 -0.989505 5.39907 0
M  V30 4000 H 386.725 -1.96373 3.96093 0
M  V30 4001 N 385.784 -1.5574 0.241426 0
M  V30 4002 C 386.694 -2.2479 -0.671305 0
M  V30 4003 C 387.71 -1.26217 -1.19772 0
M  V30 4004 O 388.886 -1.59079 -1.23514 0
M  V30 4005 C 385.951 -2.92966 -1.85396 0
M  V30 4006 C 385.012 -4.06935 -1.36756 0
M  V30 4007 C 384.245 -4.71851 -2.49384 0
M  V30 4008 O 384.468 -4.35823 -3.67987 0
M  V30 4009 O 383.402 -5.60467 -2.19454 0
M  V30 4010 H 387.228 -3.0349 -0.112966 0
M  V30 4011 H 384.813 -1.49397 0.0101513 0
M  V30 4012 H 386.695 -3.35927 -2.54423 0
M  V30 4013 H 385.37 -2.17211 -2.40002 0
M  V30 4014 H 384.277 -3.68503 -0.644726 0
M  V30 4015 H 385.61 -4.84492 -0.867647 0
M  V30 4016 N 387.262 0.0317525 -1.57568 0
M  V30 4017 C 388.502 0.727979 -1.90997 0
M  V30 4018 C 388.866 1.72664 -0.839708 0
M  V30 4019 O 390.067 2.47092 -1.05825 0
M  V30 4020 C 388.338 1.38239 -3.29583 0
M  V30 4021 S 389.897 2.10814 -3.84841 0
M  V30 4022 H 386.715 0.241226 -0.668828 0
M  V30 4023 H 389.317 -0.0173037 -1.95492 0
M  V30 4024 H 388.021 0.642288 -4.05343 0
M  V30 4025 H 387.552 2.16628 -3.28384 0
M  V30 4026 H 389.567 3.3792 -3.63352 0
M  V30 4027 N 388.74 1.54641 0.303973 0
M  V30 4028 C 389.65 1.88439 1.39743 0
M  V30 4029 C 390.666 0.778239 1.55626 0
M  V30 4030 O 391.842 1.07442 1.70347 0
M  V30 4031 C 388.907 2.12212 2.74166 0
M  V30 4032 C 387.968 3.35936 2.67293 0
M  V30 4033 C 387.201 3.58566 3.95305 0
M  V30 4034 O 387.424 2.84263 4.9452 0
M  V30 4035 O 386.358 4.52078 3.97378 0
M  V30 4036 H 390.184 2.81458 1.14083 0
M  V30 4037 H 387.769 1.40793 0.499768 0
M  V30 4038 H 389.651 2.29067 3.53704 0
M  V30 4039 H 388.326 1.22379 2.99675 0
M  V30 4040 H 387.233 3.24448 1.86237 0
M  V30 4041 H 388.566 4.2589 2.46736 0
M  V30 4042 N 390.218 -0.567019 1.47046 0
M  V30 4043 C 391.464 -1.32658 1.53394 0
M  V30 4044 C 391.797 -1.93254 0.19148 0
M  V30 4045 O 391.072 -1.77338 -0.798844 0
M  V30 4046 C 391.355 -2.44412 2.64452 0
M  V30 4047 C 391.208 -1.88749 4.08282 0
M  V30 4048 C 392.527 -3.46387 2.71485 0
M  V30 4049 H 389.646 -0.48098 0.558415 0
M  V30 4050 H 392.288 -0.635481 1.79058 0
M  V30 4051 H 390.438 -3.03363 2.427 0
M  V30 4052 H 392.11 -1.34134 4.41368 0
M  V30 4053 H 390.353 -1.19481 4.17021 0
M  V30 4054 H 391.024 -2.69491 4.81745 0
M  V30 4055 H 393.5 -2.9734 2.91081 0
M  V30 4056 H 392.376 -4.2202 3.50985 0
M  V30 4057 H 392.637 -4.04616 1.78153 0
M  V30 4058 N 391.696 -1.35014 -0.812953 0
M  V30 4059 C 392.945 -1.27269 -1.56479 0
M  V30 4060 C 393.258 0.152771 -1.95002 0
M  V30 4061 O 394.464 0.352451 -2.69203 0
M  V30 4062 C 392.92 -2.23159 -2.82362 0
M  V30 4063 C 392.528 -3.71016 -2.511 0
M  V30 4064 C 394.272 -2.24342 -3.60376 0
M  V30 4065 C 392.179 -4.58746 -3.73237 0
M  V30 4066 H 391.109 -0.472829 -0.587324 0
M  V30 4067 H 393.76 -1.6024 -0.894171 0
M  V30 4068 H 392.142 -1.83151 -3.51101 0
M  V30 4069 H 393.316 -4.1962 -1.90409 0
M  V30 4070 H 391.631 -3.72378 -1.86343 0
M  V30 4071 H 394.228 -2.87107 -4.51081 0
M  V30 4072 H 394.571 -1.24542 -3.97234 0
M  V30 4073 H 395.104 -2.62846 -2.98591 0
M  V30 4074 H 391.843 -5.59521 -3.41492 0
M  V30 4075 H 391.363 -4.14871 -4.33176 0
M  V30 4076 H 393.042 -4.73852 -4.40537 0
M  V30 4077 N 393.175 1.03435 -1.18907 0
M  V30 4078 C 394.123 2.13703 -0.918353 0
M  V30 4079 C 395.117 1.68947 0.123767 0
M  V30 4080 O 396.323 1.79983 -0.0249701 0
M  V30 4081 H 392.698 0.698112 -0.279542 0
M  V30 4082 H 394.669 2.33731 -1.85506 0
M  V30 4083 C 393.418 3.44542 -0.467532 0
M  V30 4084 H 392.741 3.79394 -1.26095 0
M  V30 4085 H 394.181 4.22812 -0.317164 0
M  V30 4086 C 392.64 3.26829 0.817588 0
M  V30 4087 O 393.17 3.54975 1.88031 0
M  V30 4088 N 391.376 2.80139 0.772677 0
M  V30 4089 H 390.923 2.57434 -0.0923883 0
M  V30 4090 H 390.881 2.68668 1.63294 0
M  V30 4091 N 394.653 0.992116 1.22453 0
M  V30 4092 C 395.586 0.486701 2.22949 0
M  V30 4093 C 396.564 -0.45259 1.56174 0
M  V30 4094 O 397.748 -0.378317 1.84665 0
M  V30 4095 C 394.875 -0.294537 3.37417 0
M  V30 4096 C 393.921 0.590628 4.22391 0
M  V30 4097 S 394.754 2.04546 4.94895 0
M  V30 4098 C 395.91 1.27369 6.12803 0
M  V30 4099 H 396.143 1.33828 2.65475 0
M  V30 4100 H 393.676 0.799023 1.32117 0
M  V30 4101 H 395.634 -0.739241 4.03789 0
M  V30 4102 H 394.295 -1.12139 2.934 0
M  V30 4103 H 393.488 -0.0104375 5.03999 0
M  V30 4104 H 393.09 0.972064 3.61147 0
M  V30 4105 H 395.382 0.540943 6.75337 0
M  V30 4106 H 396.325 2.06502 6.7732 0
M  V30 4107 H 396.733 0.787324 5.58983 0
M  V30 4108 N 396.131 -1.37776 0.765217 0
M  V30 4109 C 397.547 -1.53297 0.444108 0
M  V30 4110 C 397.747 -1.72515 -1.04119 0
M  V30 4111 O 396.803 -1.74278 -1.82711 0
M  V30 4112 C 398.116 -2.73328 1.25349 0
M  V30 4113 C 399.664 -2.87185 1.24473 0
M  V30 4114 C 400.139 -4.10191 2.03733 0
M  V30 4115 N 401.63 -4.17291 2.01053 0
M  V30 4116 C 402.365 -5.11488 2.59166 0
M  V30 4117 N 401.861 -6.11285 3.26041 0
M  V30 4118 N 403.654 -5.03924 2.49032 0
M  V30 4119 H 395.805 -1.23552 1.72768 0
M  V30 4120 H 398.068 -0.601103 0.733062 0
M  V30 4121 H 397.774 -2.6557 2.30577 0
M  V30 4122 H 397.648 -3.66834 0.87823 0
M  V30 4123 H 400.035 -2.94418 0.20047 0
M  V30 4124 H 400.116 -1.94657 1.65959 0
M  V30 4125 H 399.76 -4.0372 3.08176 0
M  V30 4126 H 399.69 -5.01821 1.59633 0
M  V30 4127 H 402.181 -3.45825 1.5236 0
M  V30 4128 H 402.494 -6.79678 3.67774 0
M  V30 4129 H 400.839 -6.11583 3.30138 0
M  V30 4130 H 404.03 -4.24902 1.96407 0
M  V30 4131 H 404.203 -5.77152 2.94617 0
M  V30 4132 N 397.609 -0.515225 -1.4894 0
M  V30 4133 C 398.837 0.0206034 -2.0689 0
M  V30 4134 C 399.252 1.29514 -1.37374 0
M  V30 4135 O 398.609 1.76698 -0.456529 0
M  V30 4136 C 398.66 0.26351 -3.60538 0
M  V30 4137 O 398.381 -0.960517 -4.27441 0
M  V30 4138 C 399.882 0.841383 -4.35242 0
M  V30 4139 H 397.102 -0.0268608 -0.670462 0
M  V30 4140 H 399.646 -0.716651 -1.91532 0
M  V30 4141 H 397.801 0.950777 -3.75552 0
M  V30 4142 H 398.215 -0.73212 -5.19365 0
M  V30 4143 H 399.689 0.96085 -5.43573 0
M  V30 4144 H 400.166 1.8427 -3.98674 0
M  V30 4145 H 400.772 0.191143 -4.2487 0
M  V30 4146 N 399.087 1.5561 -0.249682 0
M  V30 4147 C 400.336 1.98187 0.37479 0
M  V30 4148 C 400.649 1.14111 1.58865 0
M  V30 4149 O 401.855 1.46714 2.28445 0
M  V30 4150 C 400.311 3.52661 0.718192 0
M  V30 4151 C 399.919 4.45481 -0.474428 0
M  V30 4152 C 401.663 4.03888 1.3067 0
M  V30 4153 C 399.57 5.91303 -0.107026 0
M  V30 4154 H 398.5 0.740159 0.143808 0
M  V30 4155 H 401.151 1.80125 -0.350336 0
M  V30 4156 H 399.533 3.66429 1.50152 0
M  V30 4157 H 400.707 4.43473 -1.25172 0
M  V30 4158 H 399.022 4.04751 -0.978052 0
M  V30 4159 H 401.619 5.10358 1.59496 0
M  V30 4160 H 401.962 3.51401 2.23211 0
M  V30 4161 H 402.495 3.93457 0.586211 0
M  V30 4162 H 399.234 6.47833 -0.999642 0
M  V30 4163 H 398.754 5.9644 0.634013 0
M  V30 4164 H 400.433 6.46258 0.309807 0
M  V30 4165 N 400.565 -0.0233959 1.57583 0
M  V30 4166 C 401.981 -0.379134 1.55031 0
M  V30 4167 C 402.181 -1.76255 0.976548 0
M  V30 4168 O 401.237 -2.45266 0.600078 0
M  V30 4169 C 402.55 -0.275792 2.99433 0
M  V30 4170 C 404.098 -0.352458 3.11009 0
M  V30 4171 C 404.573 -0.278501 4.57152 0
M  V30 4172 N 406.064 -0.337123 4.61972 0
M  V30 4173 C 406.799 -0.302876 5.726 0
M  V30 4174 N 406.295 -0.220589 6.92449 0
M  V30 4175 N 408.088 -0.353023 5.6099 0
M  V30 4176 H 400.239 0.881869 1.93227 0
M  V30 4177 H 402.502 0.335867 0.886509 0
M  V30 4178 H 402.208 0.675108 3.4516 0
M  V30 4179 H 402.082 -1.06721 3.61788 0
M  V30 4180 H 404.469 -1.29379 2.65226 0
M  V30 4181 H 404.55 0.468409 2.51475 0
M  V30 4182 H 404.194 0.659189 5.03604 0
M  V30 4183 H 404.124 -1.11755 5.14605 0
M  V30 4184 H 406.615 -0.403002 3.75745 0
M  V30 4185 H 406.928 -0.199713 7.72542 0
M  V30 4186 H 405.273 -0.186555 6.9475 0
M  V30 4187 H 408.464 -0.415339 4.66254 0
M  V30 4188 H 408.637 -0.322866 6.47195 0
M  V30 4189 N 402.043 -1.548 -0.295768 0
M  V30 4190 C 403.454 -1.65274 -0.868411 0
M  V30 4191 C 403.805 -0.56481 -1.87894 0
M  V30 4192 O 402.93 0.29767 -2.14343 0
M  V30 4193 C 403.525 -2.99603 -1.58188 0
M  V30 4194 C 402.084 -3.12181 -2.10286 0
M  V30 4195 C 401.231 -2.6098 -0.93727 0
M  V30 4196 H 404.182 -1.58534 -0.0726422 0
M  V30 4197 H 404.203 -2.91319 -2.44772 0
M  V30 4198 H 403.715 -3.78764 -0.846151 0
M  V30 4199 H 401.816 -2.3775 -2.8689 0
M  V30 4200 H 401.929 -4.18415 -2.33379 0
M  V30 4201 H 400.293 -2.17564 -1.32431 0
M  V30 4202 H 401.076 -3.42623 -0.215414 0
M  V30 4203 N 403.521 0.559213 -1.47345 0
M  V30 4204 C 404.454 1.68201 -1.5422 0
M  V30 4205 C 405.432 1.57742 -0.394497 0
M  V30 4206 O 406.616 1.78628 -0.60201 0
M  V30 4207 C 403.743 3.0643 -1.44285 0
M  V30 4208 C 402.789 3.3534 -2.63532 0
M  V30 4209 S 403.622 3.24816 -4.25741 0
M  V30 4210 C 404.778 4.65542 -4.18355 0
M  V30 4211 H 405.011 1.62114 -2.49211 0
M  V30 4212 H 402.544 0.739871 -1.35519 0
M  V30 4213 H 404.502 3.86164 -1.3924 0
M  V30 4214 H 403.163 3.09984 -0.506816 0
M  V30 4215 H 402.356 4.36107 -2.52639 0
M  V30 4216 H 401.958 2.63221 -2.65689 0
M  V30 4217 H 404.25 5.56449 -3.86485 0
M  V30 4218 H 405.193 4.81493 -5.19202 0
M  V30 4219 H 405.601 4.43495 -3.49246 0
M  V30 4220 N 404.999 1.35443 0.805782 0
M  V30 4221 C 406.276 1.19325 1.54987 0
M  V30 4222 C 406.656 -0.227294 2.09873 0
M  V30 4223 O 406.004 -1.2309 1.92512 0
M  V30 4224 C 406.214 2.26196 2.65775 0
M  V30 4225 C 407.562 2.62043 3.34094 0
M  V30 4226 O 408.586 2.25115 2.76046 0
M  V30 4227 O 407.445 3.25542 4.38958 0
M  V30 4228 H 404.539 0.463623 0.684823 0
M  V30 4229 H 407.085 1.47127 0.845674 0
M  V30 4230 H 405.857 3.21471 2.23096 0
M  V30 4231 H 405.48 1.99667 3.43829 0
M  V30 4232 N 406.477 -1.02803 1.19454 0
M  V30 4233 C 407.41 -2.107 0.876396 0
M  V30 4234 C 408.388 -1.61741 -0.166897 0
M  V30 4235 O 409.572 -1.88451 -0.0430195 0
M  V30 4236 C 406.699 -3.37262 0.311758 0
M  V30 4237 C 405.745 -4.05093 1.33424 0
M  V30 4238 S 406.578 -4.50498 2.89503 0
M  V30 4239 C 407.734 -5.80277 2.34584 0
M  V30 4240 H 407.967 -2.37362 1.79016 0
M  V30 4241 H 405.5 -1.15755 1.02177 0
M  V30 4242 H 407.458 -4.10499 -0.00748752 0
M  V30 4243 H 406.119 -3.08693 -0.58032 0
M  V30 4244 H 405.312 -4.9611 0.888302 0
M  V30 4245 H 404.914 -3.3803 1.60037 0
M  V30 4246 H 407.206 -6.54873 1.73633 0
M  V30 4247 H 408.149 -6.29651 3.23952 0
M  V30 4248 H 408.557 -5.3599 1.77131 0
M  V30 4249 N 407.956 -0.998596 -1.21925 0
M  V30 4250 C 408.866 -0.562736 -2.27751 0
M  V30 4251 C 409.882 0.391203 -1.69545 0
M  V30 4252 O 411.058 0.256625 -1.99758 0
M  V30 4253 C 408.123 0.11012 -3.46525 0
M  V30 4254 C 407.184 -0.887495 -4.20026 0
M  V30 4255 C 406.417 -0.246654 -5.3313 0
M  V30 4256 O 406.64 0.958088 -5.62296 0
M  V30 4257 O 405.574 -0.954374 -5.94286 0
M  V30 4258 H 409.4 -1.44329 -2.67213 0
M  V30 4259 H 406.985 -0.767135 -1.28201 0
M  V30 4260 H 408.867 0.486756 -4.18579 0
M  V30 4261 H 407.542 0.965154 -3.08976 0
M  V30 4262 H 406.449 -1.31517 -3.5022 0
M  V30 4263 H 407.782 -1.71191 -4.6147 0
M  V30 4264 N 409.434 1.37368 -0.772513 0
M  V30 4265 C 410.662 2.03942 -0.348588 0
M  V30 4266 C 411.077 1.58264 1.02947 0
M  V30 4267 O 410.434 0.764246 1.65727 0
M  V30 4268 C 410.485 3.5946 -0.38351 0
M  V30 4269 O 410.206 4.03468 -1.70721 0
M  V30 4270 C 411.707 4.4327 0.0519152 0
M  V30 4271 H 408.927 0.654931 -0.145966 0
M  V30 4272 H 411.471 1.75686 -1.04665 0
M  V30 4273 H 409.626 3.86486 0.265978 0
M  V30 4274 H 410.04 4.97991 -1.64636 0
M  V30 4275 H 411.514 5.51995 -0.0236733 0
M  V30 4276 H 411.991 4.2514 1.10238 0
M  V30 4277 H 412.597 4.21471 -0.569415 0
M  V30 4278 N 410.912 0.523116 1.48665 0
M  V30 4279 C 412.161 -0.01544 2.01694 0
M  V30 4280 C 412.474 -1.35975 1.40606 0
M  V30 4281 O 413.68 -1.98627 1.85093 0
M  V30 4282 C 412.136 -0.0779303 3.59816 0
M  V30 4283 C 411.744 1.26107 4.29885 0
M  V30 4284 C 413.488 -0.565678 4.20714 0
M  V30 4285 C 411.395 1.15954 5.79921 0
M  V30 4286 H 410.325 -0.00954163 0.75394 0
M  V30 4287 H 412.976 0.665865 1.70993 0
M  V30 4288 H 411.358 -0.824165 3.87329 0
M  V30 4289 H 412.532 2.02233 4.14051 0
M  V30 4290 H 410.847 1.68401 3.80828 0
M  V30 4291 H 413.444 -0.6595 5.30617 0
M  V30 4292 H 413.787 -1.56984 3.85567 0
M  V30 4293 H 414.32 0.12467 3.97605 0
M  V30 4294 H 411.059 2.13864 6.19631 0
M  V30 4295 H 410.579 0.439529 5.98187 0
M  V30 4296 H 412.258 0.847361 6.41427 0
M  V30 4297 N 412.39 -1.55475 0.257931 0
M  V30 4298 C 413.3 -2.2549 -0.647425 0
M  V30 4299 C 414.316 -1.2748 -1.18427 0
M  V30 4300 O 415.492 -1.6038 -1.2182 0
M  V30 4301 C 412.557 -2.94916 -1.82278 0
M  V30 4302 C 411.618 -4.08363 -1.32432 0
M  V30 4303 C 410.851 -4.74469 -2.44366 0
M  V30 4304 O 411.074 -4.39701 -3.63344 0
M  V30 4305 O 410.008 -5.62763 -2.13497 0
M  V30 4306 H 413.834 -3.03593 -0.0807707 0
M  V30 4307 H 411.419 -1.49377 0.0259962 0
M  V30 4308 H 413.301 -3.38606 -2.50846 0
M  V30 4309 H 411.976 -2.19744 -2.37685 0
M  V30 4310 H 410.883 -3.69166 -0.605605 0
M  V30 4311 H 412.216 -4.85385 -0.816211 0
M  V30 4312 N 413.868 0.0150385 -1.57593 0
M  V30 4313 C 414.831 0.995996 -2.06428 0
M  V30 4314 C 415.831 1.2818 -0.970903 0
M  V30 4315 O 417.021 1.22949 -1.23406 0
M  V30 4316 C 414.153 2.32506 -2.49307 0
M  V30 4317 H 415.346 0.573873 -2.94358 0
M  V30 4318 H 412.899 0.262186 -1.54085 0
M  V30 4319 H 413.634 2.79438 -1.64575 0
M  V30 4320 H 413.419 2.13087 -3.29145 0
M  V30 4321 H 414.909 3.02906 -2.87468 0
M  V30 4322 N 415.346 1.54954 0.287554 0
M  V30 4323 C 416.571 1.79209 1.04397 0
M  V30 4324 C 416.996 0.556431 1.79682 0
M  V30 4325 O 416.354 -0.493518 1.74454 0
M  V30 4326 C 416.402 3.00739 1.98969 0
M  V30 4327 O 415.506 2.74805 3.075 0
M  V30 4328 H 414.847 0.592755 0.299227 0
M  V30 4329 H 417.377 2.02068 0.320886 0
M  V30 4330 H 417.387 3.29077 2.4119 0
M  V30 4331 H 416.062 3.90329 1.43582 0
M  V30 4332 H 414.639 2.57523 2.69697 0
M  V30 4333 N 416.824 -0.551391 1.4764 0
M  V30 4334 C 418.07 -1.31024 1.54792 0
M  V30 4335 C 418.403 -1.9304 0.211967 0
M  V30 4336 O 417.678 -1.78175 -0.77999 0
M  V30 4337 C 417.961 -2.41593 2.67029 0
M  V30 4338 C 417.814 -1.84408 4.10261 0
M  V30 4339 C 419.133 -3.43488 2.75143 0
M  V30 4340 H 416.252 -0.475031 0.563485 0
M  V30 4341 H 418.894 -0.616454 1.79722 0
M  V30 4342 H 417.044 -3.00772 2.45904 0
M  V30 4343 H 418.716 -1.29445 4.42766 0
M  V30 4344 H 416.959 -1.15051 4.18265 0
M  V30 4345 H 417.63 -2.64367 4.84576 0
M  V30 4346 H 420.106 -2.94236 2.94218 0
M  V30 4347 H 418.982 -4.18274 3.55441 0
M  V30 4348 H 419.243 -4.02703 1.82435 0
M  V30 4349 N 418.302 -1.35869 -0.798587 0
M  V30 4350 C 419.235 -1.23801 -1.91699 0
M  V30 4351 C 420.213 -0.124143 -1.62125 0
M  V30 4352 O 421.397 -0.293656 -1.86199 0
M  V30 4353 C 418.524 -0.908063 -3.263 0
M  V30 4354 C 417.57 -2.0351 -3.74815 0
M  V30 4355 S 418.403 -3.65183 -3.91665 0
M  V30 4356 C 419.559 -3.34283 -5.29156 0
M  V30 4357 H 419.792 -2.18466 -2.01643 0
M  V30 4358 H 417.325 -1.21178 -0.956833 0
M  V30 4359 H 419.283 -0.724506 -4.04056 0
M  V30 4360 H 417.944 0.0206584 -3.14093 0
M  V30 4361 H 417.137 -1.75858 -4.72324 0
M  V30 4362 H 416.739 -2.1774 -3.04081 0
M  V30 4363 H 419.031 -2.87607 -6.13424 0
M  V30 4364 H 419.974 -4.31022 -5.61806 0
M  V30 4365 H 420.382 -2.69854 -4.95822 0
M  V30 4366 N 419.78 1.02168 -1.19998 0
M  V30 4367 C 420.727 2.10601 -0.944228 0
M  V30 4368 C 421.697 1.65639 0.123664 0
M  V30 4369 O 422.882 1.9079 -0.0199941 0
M  V30 4370 C 420.022 3.41504 -0.496865 0
M  V30 4371 C 419.135 3.99973 -1.63234 0
M  V30 4372 C 418.27 5.18915 -1.13579 0
M  V30 4373 C 417.309 5.69456 -2.24468 0
M  V30 4374 N 416.446 6.79665 -1.76068 0
M  V30 4375 H 421.286 2.31814 -1.8726 0
M  V30 4376 H 418.823 1.13686 -0.933483 0
M  V30 4377 H 420.781 4.16626 -0.218843 0
M  V30 4378 H 419.411 3.2038 0.394508 0
M  V30 4379 H 418.463 3.21997 -2.0254 0
M  V30 4380 H 419.775 4.33492 -2.46752 0
M  V30 4381 H 418.929 6.01222 -0.813429 0
M  V30 4382 H 417.668 4.8695 -0.270434 0
M  V30 4383 H 416.673 4.85757 -2.57526 0
M  V30 4384 H 417.898 6.03459 -3.11472 0
M  V30 4385 H 415.844 6.49538 -0.918516 0
M  V30 4386 H 415.761 7.12349 -2.5317 0
M  V30 4387 H 417.029 7.65549 -1.46817 0
M  V30 4388 N 421.258 1.00505 1.21394 0
M  V30 4389 C 422.486 0.706609 1.9446 0
M  V30 4390 C 422.901 -0.73081 1.74082 0
M  V30 4391 O 422.258 -1.49446 1.04747 0
M  V30 4392 C 422.309 1.01824 3.46863 0
M  V30 4393 O 422.03 2.39919 3.66566 0
M  V30 4394 C 423.531 0.739216 4.37093 0
M  V30 4395 H 420.751 0.260394 0.618414 0
M  V30 4396 H 423.295 1.34311 1.54211 0
M  V30 4397 H 421.45 0.427343 3.85036 0
M  V30 4398 H 421.864 2.50784 4.6066 0
M  V30 4399 H 423.338 1.00744 5.42729 0
M  V30 4400 H 423.815 -0.326746 4.37983 0
M  V30 4401 H 424.421 1.31173 4.04566 0
M  V30 4402 N 422.737 -1.36956 0.779787 0
M  V30 4403 C 423.685 -2.32053 0.15942 0
M  V30 4404 C 424.679 -1.55333 -0.675878 0
M  V30 4405 O 425.885 -1.70668 -0.57204 0
M  V30 4406 H 422.26 -0.751286 0.0327707 0
M  V30 4407 H 424.231 -2.8195 0.977078 0
M  V30 4408 C 422.98 -3.40602 -0.698977 0
M  V30 4409 H 422.303 -3.99746 -0.0655966 0
M  V30 4410 H 423.743 -4.09486 -1.09989 0
M  V30 4411 C 422.202 -2.81359 -1.85307 0
M  V30 4412 O 422.732 -2.72751 -2.94906 0
M  V30 4413 N 420.938 -2.38786 -1.65619 0
M  V30 4414 H 420.485 -2.45987 -0.764725 0
M  V30 4415 H 420.443 -1.99493 -2.43002 0
M  V30 4416 N 424.215 -0.530993 -1.48385 0
M  V30 4417 C 425.165 0.251092 -2.26613 0
M  V30 4418 C 426.149 0.908977 -1.32765 0
M  V30 4419 O 427.341 0.811616 -1.57295 0
M  V30 4420 C 424.47 1.29677 -3.17866 0
M  V30 4421 C 423.556 0.643627 -4.19188 0
M  V30 4422 N 423.947 -0.271223 -5.05072 0
M  V30 4423 C 422.245 0.900711 -4.3681 0
M  V30 4424 C 422.946 -0.648109 -5.78078 0
M  V30 4425 N 421.922 -0.00895987 -5.43599 0
M  V30 4426 H 425.724 -0.452702 -2.90393 0
M  V30 4427 H 423.238 -0.349091 -1.58604 0
M  V30 4428 H 425.235 1.87079 -3.72568 0
M  V30 4429 H 423.895 2.00193 -2.55642 0
M  V30 4430 H 424.906 -0.643883 -5.13882 0
M  V30 4431 H 421.583 1.59636 -3.85775 0
M  V30 4432 H 422.973 -1.39833 -6.57188 0
M  V30 4433 N 425.693 1.55336 -0.266172 0
M  V30 4434 C 426.623 2.25146 0.618981 0
M  V30 4435 C 427.604 1.23845 1.16604 0
M  V30 4436 O 428.789 1.52544 1.20183 0
M  V30 4437 C 425.919 2.96572 1.80728 0
M  V30 4438 C 424.873 4.04726 1.39215 0
M  V30 4439 C 424.199 4.63678 2.66283 0
M  V30 4440 C 425.499 5.19407 0.548942 0
M  V30 4441 H 427.193 2.99377 0.0368116 0
M  V30 4442 H 424.739 1.43991 0.0162651 0
M  V30 4443 H 426.692 3.44116 2.43232 0
M  V30 4444 H 425.416 2.19861 2.41514 0
M  V30 4445 H 424.075 3.57979 0.790351 0
M  V30 4446 H 423.723 3.83646 3.25308 0
M  V30 4447 H 423.423 5.367 2.39222 0
M  V30 4448 H 424.947 5.13967 3.29651 0
M  V30 4449 H 426.361 5.63059 1.07876 0
M  V30 4450 H 424.758 5.98936 0.373593 0
M  V30 4451 H 425.828 4.8295 -0.434394 0
M  V30 4452 N 427.171 -0.0066808 1.57599 0
M  V30 4453 C 428.417 -0.693947 1.90558 0
M  V30 4454 C 428.75 -1.73792 0.866594 0
M  V30 4455 O 428.025 -1.94156 -0.115548 0
M  V30 4456 C 428.308 -1.34317 3.34112 0
M  V30 4457 C 428.161 -0.311189 4.48722 0
M  V30 4458 C 429.48 -2.27116 3.7697 0
M  V30 4459 H 426.599 -0.250803 0.693013 0
M  V30 4460 H 429.241 0.043242 1.89951 0
M  V30 4461 H 427.391 -1.9715 3.3476 0
M  V30 4462 H 429.063 0.316944 4.6021 0
M  V30 4463 H 427.306 0.367253 4.32243 0
M  V30 4464 H 427.977 -0.804366 5.46108 0
M  V30 4465 H 430.453 -1.74306 3.77831 0
M  V30 4466 H 429.329 -2.69511 4.78179 0
M  V30 4467 H 429.59 -3.14743 3.10466 0
M  V30 4468 N 428.649 -1.55105 -0.279332 0
M  V30 4469 C 429.877 -1.7943 -1.03017 0
M  V30 4470 C 430.292 -0.564456 -1.80165 0
M  V30 4471 O 429.649 0.466326 -1.76442 0
M  V30 4472 C 429.7 -3.0155 -1.99374 0
M  V30 4473 O 429.421 -4.19784 -1.25352 0
M  V30 4474 C 430.922 -3.3843 -2.86321 0
M  V30 4475 H 428.142 -0.597882 -0.304594 0
M  V30 4476 H 430.686 -2.02105 -0.312035 0
M  V30 4477 H 428.841 -2.81019 -2.66659 0
M  V30 4478 H 429.255 -4.88781 -1.90246 0
M  V30 4479 H 430.729 -4.27066 -3.49741 0
M  V30 4480 H 431.206 -2.57549 -3.5576 0
M  V30 4481 H 431.812 -3.61197 -2.24536 0
M  V30 4482 N 430.127 0.543554 -1.4793 0
M  V30 4483 C 431.373 1.30201 -1.55485 0
M  V30 4484 C 431.706 1.92925 -0.222201 0
M  V30 4485 O 430.981 1.78586 0.77053 0
M  V30 4486 C 431.264 2.40174 -2.68307 0
M  V30 4487 C 431.117 1.8223 -4.11233 0
M  V30 4488 C 432.436 3.42024 -2.76961 0
M  V30 4489 H 429.555 0.472036 -0.565996 0
M  V30 4490 H 432.197 0.606914 -1.80046 0
M  V30 4491 H 430.347 2.99463 -2.47495 0
M  V30 4492 H 432.019 1.27096 -4.43446 0
M  V30 4493 H 430.262 1.12832 -4.18869 0
M  V30 4494 H 430.933 2.61793 -4.85972 0
M  V30 4495 H 433.409 2.92672 -2.95774 0
M  V30 4496 H 432.285 4.16383 -3.57654 0
M  V30 4497 H 432.546 4.0173 -1.84568 0
M  V30 4498 N 431.605 1.3629 0.791371 0
M  V30 4499 C 432.515 1.32606 1.93527 0
M  V30 4500 C 433.531 0.228541 1.72493 0
M  V30 4501 O 434.707 0.460571 1.96063 0
M  V30 4502 C 431.772 1.11271 3.28359 0
M  V30 4503 C 430.833 2.3048 3.62185 0
M  V30 4504 C 430.066 2.10154 4.90583 0
M  V30 4505 O 430.289 1.07572 5.60165 0
M  V30 4506 O 429.223 2.97884 5.23019 0
M  V30 4507 H 433.049 2.28909 1.99585 0
M  V30 4508 H 430.634 1.16818 0.931344 0
M  V30 4509 H 432.516 1.01283 4.09047 0
M  V30 4510 H 431.191 0.180292 3.23198 0
M  V30 4511 H 430.098 2.46036 2.81811 0
M  V30 4512 H 431.431 3.22221 3.72068 0
M  V30 4513 N 433.083 -1.0153 1.20538 0
M  V30 4514 C 434.331 -1.74803 1.01432 0
M  V30 4515 C 434.652 -1.8963 -0.454456 0
M  V30 4516 O 433.922 -1.43975 -1.32846 0
M  V30 4517 H 432.502 -0.647598 0.372324 0
M  V30 4518 H 435.164 -1.22402 1.5167 0
M  V30 4519 H 434.26 -2.75114 1.47373 0
M  V30 4520 N 434.561 -1.01147 -1.20859 0
M  V30 4521 C 435.809 -0.696486 -1.89719 0
M  V30 4522 C 436.13 0.775788 -1.78904 0
M  V30 4523 O 435.4 1.55759 -1.18811 0
M  V30 4524 H 433.98 -0.254628 -0.702263 0
M  V30 4525 H 436.642 -1.28197 -1.46804 0
M  V30 4526 H 435.738 -0.975357 -2.96468 0
M  V30 4527 N 436.039 1.36541 -0.78704 0
M  V30 4528 C 437.285 2.00044 -0.367938 0
M  V30 4529 C 437.64 1.61345 1.04812 0
M  V30 4530 O 436.933 0.856936 1.71368 0
M  V30 4531 C 437.127 3.54343 -0.466485 0
M  V30 4532 C 436.956 4.08029 -1.89058 0
M  V30 4533 C 435.726 4.38284 -2.51466 0
M  V30 4534 C 437.924 4.27954 -2.85236 0
M  V30 4535 N 435.906 4.77778 -3.85488 0
M  V30 4536 C 437.277 4.70227 -4.04088 0
M  V30 4537 C 439.332 4.10119 -2.82324 0
M  V30 4538 C 438.035 4.96532 -5.20432 0
M  V30 4539 C 440.061 4.37569 -3.97854 0
M  V30 4540 C 439.423 4.80095 -5.15449 0
M  V30 4541 H 435.522 0.760525 -0.182004 0
M  V30 4542 H 438.106 1.65589 -1.02413 0
M  V30 4543 H 436.277 3.88072 0.159606 0
M  V30 4544 H 438.009 4.04693 -0.0238577 0
M  V30 4545 H 434.764 4.27905 -2.02965 0
M  V30 4546 H 435.188 5.01813 -4.54437 0
M  V30 4547 H 439.83 3.76399 -1.92571 0
M  V30 4548 H 437.548 5.29134 -6.10773 0
M  V30 4549 H 441.134 4.25341 -3.96958 0
M  V30 4550 H 440.014 5.00925 -6.0336 0
M  V30 4551 N 437.518 0.538854 1.48102 0
M  V30 4552 C 438.929 0.100679 1.86428 0
M  V30 4553 C 439.28 -1.32447 1.44749 0
M  V30 4554 O 438.405 -1.99339 0.842199 0
M  V30 4555 C 439 0.175933 3.38343 0
M  V30 4556 C 437.559 -0.207098 3.7583 0
M  V30 4557 C 436.706 0.531741 2.72154 0
M  V30 4558 H 439.657 0.749614 1.3988 0
M  V30 4559 H 439.678 -0.610144 3.75576 0
M  V30 4560 H 439.19 1.21328 3.68648 0
M  V30 4561 H 437.291 -1.24626 3.5114 0
M  V30 4562 H 437.404 0.138687 4.78899 0
M  V30 4563 H 435.768 -0.0230462 2.5469 0
M  V30 4564 H 436.551 1.56989 3.05302 0
M  V30 4565 N 438.996 -1.55193 0.274407 0
M  V30 4566 C 439.928 -2.1989 -0.646595 0
M  V30 4567 C 440.941 -1.1834 -1.11801 0
M  V30 4568 O 442.13 -1.4507 -1.04004 0
M  V30 4569 C 439.23 -2.8104 -1.89393 0
M  V30 4570 C 438.403 -4.08274 -1.56943 0
M  V30 4571 C 437.462 -4.53478 -2.66916 0
M  V30 4572 O 436.488 -5.19267 -2.33132 0
M  V30 4573 N 437.69 -4.2356 -3.9696 0
M  V30 4574 H 440.455 -2.99556 -0.0928686 0
M  V30 4575 H 438.016 -1.61618 0.0954783 0
M  V30 4576 H 440.008 -3.08226 -2.62257 0
M  V30 4577 H 438.578 -2.05372 -2.35672 0
M  V30 4578 H 437.798 -3.88384 -0.674655 0
M  V30 4579 H 439.086 -4.91173 -1.32764 0
M  V30 4580 H 438.484 -3.70799 -4.27229 0
M  V30 4581 H 437.041 -4.55518 -4.66205 0
M  V30 4582 N 440.474 -0.00167713 -1.576 0
M  V30 4583 C 441.721 0.68282 -1.90641 0
M  V30 4584 C 442.049 1.73686 -0.875415 0
M  V30 4585 O 441.304 1.95334 0.119575 0
M  V30 4586 C 441.603 1.36189 -3.30435 0
M  V30 4587 C 441.269 0.440887 -4.48739 0
M  V30 4588 C 439.931 0.187312 -4.80835 0
M  V30 4589 C 442.283 -0.193134 -5.20842 0
M  V30 4590 C 439.611 -0.70855 -5.82406 0
M  V30 4591 C 441.963 -1.07688 -6.23367 0
M  V30 4592 C 440.627 -1.33962 -6.53919 0
M  V30 4593 H 439.897 0.249862 -0.697603 0
M  V30 4594 H 442.544 -0.0575642 -1.91413 0
M  V30 4595 H 440.849 2.17636 -3.25794 0
M  V30 4596 H 442.546 1.89759 -3.5326 0
M  V30 4597 H 439.136 0.648694 -4.23663 0
M  V30 4598 H 443.32 -0.0102445 -4.96299 0
M  V30 4599 H 438.576 -0.920097 -6.04437 0
M  V30 4600 H 442.75 -1.57451 -6.78367 0
M  V30 4601 H 440.377 -2.03549 -7.32442 0
M  V30 4602 N 441.952 1.55251 0.271103 0
M  V30 4603 C 443.2 1.75599 1.00047 0
M  V30 4604 C 443.521 0.561188 1.8675 0
M  V30 4605 O 442.791 -0.423846 1.9126 0
M  V30 4606 H 441.371 0.647562 0.372387 0
M  V30 4607 H 444.033 1.92656 0.294876 0
M  V30 4608 H 443.129 2.65766 1.6363 0
M  V30 4609 N 443.43 -0.535701 1.48216 0
M  V30 4610 C 444.676 -1.29375 1.56173 0
M  V30 4611 C 445.009 -1.92804 0.232429 0
M  V30 4612 O 444.284 -1.78992 -0.761048 0
M  V30 4613 C 444.567 -2.38747 2.69577 0
M  V30 4614 C 444.42 -1.80046 4.12193 0
M  V30 4615 C 445.739 -3.40551 2.78771 0
M  V30 4616 H 442.858 -0.469027 0.568491 0
M  V30 4617 H 445.5 -0.597358 1.80365 0
M  V30 4618 H 443.65 -2.98147 2.4908 0
M  V30 4619 H 445.322 -1.24742 4.44114 0
M  V30 4620 H 443.565 -1.10609 4.19462 0
M  V30 4621 H 444.236 -2.59212 4.87353 0
M  V30 4622 H 446.712 -2.91099 2.97322 0
M  V30 4623 H 445.588 -4.1448 3.59857 0
M  V30 4624 H 445.849 -4.00746 1.86696 0
M  V30 4625 N 444.908 -1.36708 -0.784132 0
M  V30 4626 C 446.156 -1.30972 -1.53918 0
M  V30 4627 C 446.477 0.109086 -1.94695 0
M  V30 4628 O 445.747 1.05048 -1.65353 0
M  V30 4629 H 444.327 -0.481819 -0.570841 0
M  V30 4630 H 446.989 -1.71063 -0.934002 0
M  V30 4631 H 446.085 -1.94061 -2.44431 0
M  V30 4632 N 446.386 1.0089 -1.21074 0
M  V30 4633 C 447.349 2.0775 -0.968129 0
M  V30 4634 C 448.349 1.6069 0.0593445 0
M  V30 4635 O 449.539 1.73293 -0.177525 0
M  V30 4636 C 446.671 3.37794 -0.459108 0
M  V30 4637 H 447.864 2.30707 -1.9161 0
M  V30 4638 H 445.417 1.17807 -1.02719 0
M  V30 4639 H 446.152 3.20516 0.49397 0
M  V30 4640 H 445.937 3.7328 -1.20019 0
M  V30 4641 H 447.427 4.16454 -0.309099 0
M  V30 4642 N 447.864 1.01787 1.20321 0
M  V30 4643 C 448.774 0.598898 2.26827 0
M  V30 4644 C 449.79 -0.36418 1.70146 0
M  V30 4645 O 450.966 -0.224812 2.00141 0
M  V30 4646 C 448.031 -0.0549769 3.46656 0
M  V30 4647 C 447.092 0.954205 4.18561 0
M  V30 4648 C 446.325 0.331439 5.3267 0
M  V30 4649 O 446.548 -0.86851 5.63749 0
M  V30 4650 O 445.482 1.0488 5.92692 0
M  V30 4651 H 449.308 1.48562 2.64883 0
M  V30 4652 H 446.893 0.787434 1.26964 0
M  V30 4653 H 448.775 -0.420102 4.19301 0
M  V30 4654 H 447.45 -0.915876 3.10473 0
M  V30 4655 H 446.357 1.37072 3.48083 0
M  V30 4656 H 447.69 1.78511 4.58688 0
M  V30 4657 N 449.342 -1.36122 0.79427 0
M  V30 4658 C 450.591 -1.98361 0.365464 0
M  V30 4659 C 450.904 -1.6374 -1.06997 0
M  V30 4660 O 452.11 -2.19251 -1.60129 0
M  V30 4661 C 450.566 -3.54821 0.602496 0
M  V30 4662 C 450.174 -3.98362 2.04967 0
M  V30 4663 C 451.918 -4.2383 0.238437 0
M  V30 4664 C 449.825 -5.47619 2.2331 0
M  V30 4665 H 448.755 -0.742193 0.13291 0
M  V30 4666 H 451.406 -1.55354 0.976589 0
M  V30 4667 H 449.788 -3.95922 -0.078409 0
M  V30 4668 H 450.962 -3.68447 2.76737 0
M  V30 4669 H 449.277 -3.42206 2.37243 0
M  V30 4670 H 451.874 -5.33529 0.353705 0
M  V30 4671 H 452.217 -4.08264 -0.814006 0
M  V30 4672 H 452.75 -3.88108 0.872769 0
M  V30 4673 H 449.489 -5.68138 3.26955 0
M  V30 4674 H 449.009 -5.79145 1.5605 0
M  V30 4675 H 450.688 -6.13911 2.0426 0
M  V30 4676 N 450.82 -0.546701 -1.47814 0
M  V30 4677 C 452.06 -0.0209604 -2.04389 0
M  V30 4678 C 452.424 1.29993 -1.413 0
M  V30 4679 O 453.625 1.91273 -1.8886 0
M  V30 4680 C 451.896 0.0812844 -3.57308 0
M  V30 4681 S 453.455 0.55467 -4.3528 0
M  V30 4682 H 450.273 -0.0200865 -0.710716 0
M  V30 4683 H 452.875 -0.731055 -1.81317 0
M  V30 4684 H 451.579 -0.884616 -4.00753 0
M  V30 4685 H 451.11 0.815253 -3.8486 0
M  V30 4686 H 453.125 1.81627 -4.61764 0
M  V30 4687 N 452.299 1.55045 -0.282633 0
M  V30 4688 C 453.262 2.21515 0.588539 0
M  V30 4689 C 454.262 1.19535 1.07554 0
M  V30 4690 O 455.452 1.44391 0.974514 0
M  V30 4691 C 452.584 2.88704 1.8128 0
M  V30 4692 H 453.777 2.99899 0.00806397 0
M  V30 4693 H 451.33 1.56265 -0.0333067 0
M  V30 4694 H 452.065 2.14352 2.43359 0
M  V30 4695 H 451.85 3.63443 1.47144 0
M  V30 4696 H 453.34 3.39465 2.43214 0
M  V30 4697 N 453.777 0.010035 1.57597 0
M  V30 4698 C 455.193 -0.346164 1.55801 0
M  V30 4699 C 455.393 -1.74144 1.01371 0
M  V30 4700 O 454.449 -2.43938 0.651968 0
M  V30 4701 C 455.762 -0.212216 2.9995 0
M  V30 4702 C 457.31 -0.286409 3.11687 0
M  V30 4703 C 457.785 -0.18147 4.5764 0
M  V30 4704 N 459.276 -0.239056 4.62583 0
M  V30 4705 C 460.011 -0.181351 5.73113 0
M  V30 4706 N 459.507 -0.073661 6.92761 0
M  V30 4707 N 461.3 -0.233949 5.61613 0
M  V30 4708 H 453.451 0.922657 1.91313 0
M  V30 4709 H 455.714 0.354595 0.879185 0
M  V30 4710 H 455.42 0.748169 3.4365 0
M  V30 4711 H 455.294 -0.990224 3.6397 0
M  V30 4712 H 457.681 -1.23724 2.67911 0
M  V30 4713 H 457.762 0.521645 2.50425 0
M  V30 4714 H 457.406 0.765863 5.02093 0
M  V30 4715 H 457.336 -1.00814 5.1686 0
M  V30 4716 H 459.827 -0.32321 3.76515 0
M  V30 4717 H 460.14 -0.0358003 7.72792 0
M  V30 4718 H 458.485 -0.0391461 6.94989 0
M  V30 4719 H 461.676 -0.316347 4.6703 0
M  V30 4720 H 461.849 -0.185514 6.47734 0
M  V30 4721 N 455.255 -1.55392 -0.262866 0
M  V30 4722 C 456.504 -1.75679 -0.990943 0
M  V30 4723 C 456.817 -0.57097 -1.87081 0
M  V30 4724 O 458.023 -0.656486 -2.63444 0
M  V30 4725 C 456.479 -3.10964 -1.81188 0
M  V30 4726 C 456.087 -4.37146 -0.980188 0
M  V30 4727 C 457.831 -3.40597 -2.53365 0
M  V30 4728 C 455.738 -5.63466 -1.7961 0
M  V30 4729 H 454.668 -0.654868 -0.373716 0
M  V30 4730 H 457.319 -1.81841 -0.246203 0
M  V30 4731 H 455.701 -2.98867 -2.59797 0
M  V30 4732 H 456.875 -4.60187 -0.237558 0
M  V30 4733 H 455.19 -4.14731 -0.372497 0
M  V30 4734 H 457.787 -4.32186 -3.14833 0
M  V30 4735 H 458.13 -2.6119 -3.24169 0
M  V30 4736 H 458.663 -3.53838 -1.81779 0
M  V30 4737 H 455.402 -6.4565 -1.13209 0
M  V30 4738 H 454.922 -5.44552 -2.51443 0
M  V30 4739 H 456.601 -6.02139 -2.36723 0
M  V30 4740 N 456.733 0.527833 -1.48498 0
M  V30 4741 C 457.666 1.64892 -1.57753 0
M  V30 4742 C 458.644 1.5687 -0.427867 0
M  V30 4743 O 459.828 1.77311 -0.639764 0
M  V30 4744 C 456.955 3.03301 -1.50752 0
M  V30 4745 C 456.001 3.29675 -2.70586 0
M  V30 4746 S 456.834 3.15712 -4.32535 0
M  V30 4747 C 457.99 4.56564 -4.28136 0
M  V30 4748 H 458.223 1.56792 -2.52594 0
M  V30 4749 H 455.756 0.710959 -1.37057 0
M  V30 4750 H 457.714 3.83123 -1.474 0
M  V30 4751 H 456.375 3.08839 -0.572454 0
M  V30 4752 H 455.568 4.3065 -2.61833 0
M  V30 4753 H 455.17 2.57526 -2.71212 0
M  V30 4754 H 457.462 5.48126 -3.98201 0
M  V30 4755 H 458.405 4.70371 -5.29298 0
M  V30 4756 H 458.813 4.35987 -3.58574 0
M  V30 4757 N 458.211 1.37122 0.776871 0
M  V30 4758 C 459.121 1.34651 1.9211 0
M  V30 4759 C 460.137 0.246824 1.7224 0
M  V30 4760 O 461.313 0.48134 1.95563 0
M  V30 4761 C 458.378 1.14748 3.2716 0
M  V30 4762 C 457.439 2.34308 3.5972 0
M  V30 4763 C 456.672 2.15345 4.88326 0
M  V30 4764 O 456.895 1.13507 5.58992 0
M  V30 4765 O 455.829 3.03414 5.1983 0
M  V30 4766 H 459.655 2.31013 1.97146 0
M  V30 4767 H 457.24 1.17799 0.918901 0
M  V30 4768 H 459.122 1.05616 4.0795 0
M  V30 4769 H 457.797 0.214562 3.22988 0
M  V30 4770 H 456.704 2.49011 2.79185 0
M  V30 4771 H 458.037 3.26149 3.68629 0
M  V30 4772 N 459.689 -1.00246 1.21608 0
M  V30 4773 C 460.937 -1.73717 1.0328 0
M  V30 4774 C 461.258 -1.90102 -0.434318 0
M  V30 4775 O 460.528 -1.45376 -1.31311 0
M  V30 4776 H 459.108 -0.643613 0.379172 0
M  V30 4777 H 461.77 -1.20787 1.52959 0
M  V30 4778 H 460.866 -2.73535 1.50283 0
M  V30 4779 N 461.167 -1.02423 -1.1978 0
M  V30 4780 C 462.578 -0.748389 -1.71044 0
M  V30 4781 C 462.929 0.732398 -1.82017 0
M  V30 4782 O 462.054 1.57116 -1.48807 0
M  V30 4783 C 462.649 -1.35187 -3.1066 0
M  V30 4784 C 461.208 -1.12472 -3.59203 0
M  V30 4785 C 460.355 -1.45283 -2.36195 0
M  V30 4786 H 463.306 -1.19275 -1.04686 0
M  V30 4787 H 463.327 -0.746408 -3.73107 0
M  V30 4788 H 462.839 -2.4296 -3.02642 0
M  V30 4789 H 460.94 -0.0649983 -3.72543 0
M  V30 4790 H 461.053 -1.81016 -4.43588 0
M  V30 4791 H 459.417 -0.872034 -2.39307 0
M  V30 4792 H 460.2 -2.54129 -2.30811 0
M  V30 4793 N 462.645 1.35699 -0.801477 0
M  V30 4794 C 463.608 2.28199 -0.213994 0
M  V30 4795 C 464.608 1.49359 0.595691 0
M  V30 4796 O 465.798 1.69186 0.414921 0
M  V30 4797 C 462.93 3.33587 0.702297 0
M  V30 4798 H 464.123 2.81666 -1.02976 0
M  V30 4799 H 461.676 1.45467 -0.571759 0
M  V30 4800 H 462.411 2.85297 1.54195 0
M  V30 4801 H 462.196 3.91906 0.123484 0
M  V30 4802 H 463.686 4.02638 1.10783 0
M  V30 4803 N 464.123 0.554532 1.47522 0
M  V30 4804 C 465.37 0.029479 2.02479 0
M  V30 4805 C 465.698 -1.31929 1.42916 0
M  V30 4806 O 464.953 -1.87112 0.573385 0
M  V30 4807 C 465.252 -0.115927 3.57212 0
M  V30 4808 C 464.918 1.16161 4.3568 0
M  V30 4809 C 463.58 1.51168 4.56839 0
M  V30 4810 C 465.932 2.0083 4.80954 0
M  V30 4811 C 463.26 2.70696 5.2052 0
M  V30 4812 C 465.612 3.19559 5.45953 0
M  V30 4813 C 464.276 3.54882 5.65345 0
M  V30 4814 H 463.546 0.0107871 0.740921 0
M  V30 4815 H 466.193 0.725506 1.77225 0
M  V30 4816 H 464.498 -0.894902 3.81443 0
M  V30 4817 H 466.195 -0.53749 3.97381 0
M  V30 4818 H 462.785 0.879026 4.19489 0
M  V30 4819 H 466.969 1.75093 4.64388 0
M  V30 4820 H 462.225 2.98236 5.33728 0
M  V30 4821 H 466.399 3.85456 5.79997 0
M  V30 4822 H 464.026 4.47596 6.1446 0
M  V30 4823 N 465.601 -1.54893 0.290851 0
M  V30 4824 C 466.549 -2.24579 -0.605576 0
M  V30 4825 C 467.543 -1.24824 -1.14522 0
M  V30 4826 O 468.749 -1.42706 -1.09704 0
M  V30 4827 H 465.124 -0.720946 -0.213872 0
M  V30 4828 H 467.095 -2.984 0.0048173 0
M  V30 4829 C 465.844 -2.99224 -1.77088 0
M  V30 4830 H 465.167 -3.75782 -1.36484 0
M  V30 4831 H 466.607 -3.51281 -2.3744 0
M  V30 4832 C 465.066 -2.05602 -2.66888 0
M  V30 4833 O 465.596 -1.61745 -3.67698 0
M  V30 4834 N 463.802 -1.71771 -2.34399 0
M  V30 4835 H 463.349 -2.07633 -1.52468 0
M  V30 4836 H 463.307 -1.09403 -2.94751 0
M  V30 4837 N 467.08 -0.0183926 -1.57589 0
M  V30 4838 C 468.327 0.662562 -1.91354 0
M  V30 4839 C 468.655 1.72747 -0.893788 0
M  V30 4840 O 467.91 1.9545 0.0988509 0
M  V30 4841 C 468.209 1.32676 -3.31861 0
M  V30 4842 C 467.875 0.393267 -4.49182 0
M  V30 4843 C 466.537 0.136302 -4.81007 0
M  V30 4844 C 468.889 -0.248366 -5.20608 0
M  V30 4845 C 466.217 -0.770282 -5.81621 0
M  V30 4846 C 468.569 -1.14294 -6.22189 0
M  V30 4847 C 467.233 -1.4089 -6.52462 0
M  V30 4848 H 466.503 0.242448 -0.700214 0
M  V30 4849 H 469.15 -0.0778629 -1.91342 0
M  V30 4850 H 467.455 2.14168 -3.28084 0
M  V30 4851 H 469.152 1.86001 -3.55253 0
M  V30 4852 H 465.742 0.603723 -4.24327 0
M  V30 4853 H 469.926 -0.062883 -4.9626 0
M  V30 4854 H 465.182 -0.984154 -6.03427 0
M  V30 4855 H 469.356 -1.64637 -6.76659 0
M  V30 4856 H 466.983 -2.11306 -7.30242 0
M  V30 4857 N 468.558 1.5553 0.254621 0
M  V30 4858 C 469.488 1.9268 1.31897 0
M  V30 4859 C 470.469 0.790797 1.506 0
M  V30 4860 O 471.654 1.05045 1.63337 0
M  V30 4861 C 468.784 2.21477 2.67517 0
M  V30 4862 C 467.738 3.37256 2.63519 0
M  V30 4863 C 467.064 3.51576 4.02862 0
M  V30 4864 C 468.364 4.73157 2.21179 0
M  V30 4865 H 470.058 2.81832 1.01051 0
M  V30 4866 H 467.604 1.35599 0.484662 0
M  V30 4867 H 469.557 2.46055 3.42104 0
M  V30 4868 H 468.281 1.29144 2.99982 0
M  V30 4869 H 466.94 3.12675 1.9139 0
M  V30 4870 H 466.588 2.56676 4.32581 0
M  V30 4871 H 466.288 4.2943 4.01078 0
M  V30 4872 H 467.812 3.78467 4.79161 0
M  V30 4873 H 469.226 4.97158 2.85494 0
M  V30 4874 H 467.623 5.54058 2.30521 0
M  V30 4875 H 468.693 4.70739 1.16332 0
M  V30 4876 N 470.036 -0.519951 1.48776 0
M  V30 4877 C 471.313 -1.28123 1.47797 0
M  V30 4878 C 471.693 -2.10196 0.195157 0
M  V30 4879 O 471.041 -2.13167 -0.822925 0
M  V30 4880 C 471.251 -2.15413 2.74587 0
M  V30 4881 C 472.599 -2.75225 3.23321 0
M  V30 4882 O 473.623 -2.25694 2.75574 0
M  V30 4883 O 472.482 -3.65346 4.06429 0
M  V30 4884 H 469.576 -0.578793 0.590701 0
M  V30 4885 H 472.122 -0.535779 1.6102 0
M  V30 4886 H 470.894 -1.54617 3.59457 0
M  V30 4887 H 470.517 -2.97186 2.64132 0
M  V30 4888 N 471.514 -1.37532 -0.769588 0
M  V30 4889 C 472.477 -1.33292 -1.86456 0
M  V30 4890 C 473.477 -0.236537 -1.59051 0
M  V30 4891 O 474.667 -0.492511 -1.67093 0
M  V30 4892 C 471.799 -1.07118 -3.23633 0
M  V30 4893 H 472.992 -2.30692 -1.91628 0
M  V30 4894 H 470.545 -1.22593 -0.969572 0
M  V30 4895 H 471.28 -0.102578 -3.24138 0
M  V30 4896 H 471.065 -1.86479 -3.44917 0
M  V30 4897 H 472.555 -1.06806 -4.03711 0
M  V30 4898 N 472.992 0.995999 -1.22138 0
M  V30 4899 C 474.403 1.54961 -1.04135 0
M  V30 4900 C 474.754 1.92159 0.396147 0
M  V30 4901 O 473.879 1.74435 1.28069 0
M  V30 4902 C 474.474 2.81581 -1.88408 0
M  V30 4903 C 473.033 3.33396 -1.74712 0
M  V30 4904 C 472.18 2.06509 -1.85066 0
M  V30 4905 H 475.131 0.817436 -1.36028 0
M  V30 4906 H 475.152 3.53822 -1.39966 0
M  V30 4907 H 474.664 2.54476 -2.93025 0
M  V30 4908 H 472.765 3.65416 -0.728159 0
M  V30 4909 H 472.878 4.04208 -2.57202 0
M  V30 4910 H 471.242 2.19925 -1.28472 0
M  V30 4911 H 472.025 1.81804 -2.91208 0
M  V30 4912 N 474.47 1.03057 1.19235 0
M  V30 4913 C 475.433 0.617418 2.20727 0
M  V30 4914 C 476.433 -0.319856 1.57587 0
M  V30 4915 O 477.623 -0.106633 1.73873 0
M  V30 4916 C 474.755 -0.096296 3.40764 0
M  V30 4917 H 475.948 1.51544 2.58794 0
M  V30 4918 H 473.501 0.821949 1.32942 0
M  V30 4919 H 474.236 -1.00859 3.08217 0
M  V30 4920 H 474.021 0.577217 3.87828 0
M  V30 4921 H 475.511 -0.372219 4.15938 0
M  V30 4922 N 475.948 -1.35272 0.808662 0
M  V30 4923 C 477.194 -1.99003 0.390581 0
M  V30 4924 C 477.527 -1.63999 -1.0401 0
M  V30 4925 O 476.802 -0.904368 -1.72196 0
M  V30 4926 C 477.085 -3.55454 0.576566 0
M  V30 4927 C 476.938 -4.00249 2.05233 0
M  V30 4928 C 478.257 -4.401 0.00354277 0
M  V30 4929 H 475.376 -0.722917 0.143388 0
M  V30 4930 H 478.018 -1.6039 1.01858 0
M  V30 4931 H 476.168 -3.88477 0.0419766 0
M  V30 4932 H 477.84 -3.77626 2.64946 0
M  V30 4933 H 476.083 -3.51082 2.54801 0
M  V30 4934 H 476.754 -5.0911 2.13333 0
M  V30 4935 H 479.23 -4.13548 0.460117 0
M  V30 4936 H 478.106 -5.48656 0.163575 0
M  V30 4937 H 478.367 -4.28444 -1.09032 0
M  V30 4938 N 477.426 -0.562348 -1.47226 0
M  V30 4939 C 478.842 -0.222492 -1.58042 0
M  V30 4940 C 479.042 1.27505 -1.56028 0
M  V30 4941 O 478.098 2.05555 -1.46641 0
M  V30 4942 C 479.411 -0.853694 -2.88327 0
M  V30 4943 C 480.959 -0.825397 -3.01921 0
M  V30 4944 C 481.434 -1.43576 -4.34914 0
M  V30 4945 N 482.925 -1.39918 -4.41562 0
M  V30 4946 C 483.66 -1.84103 -5.43041 0
M  V30 4947 N 483.156 -2.36167 -6.51304 0
M  V30 4948 N 484.949 -1.75142 -5.34118 0
M  V30 4949 H 477.1 -1.53525 -1.46778 0
M  V30 4950 H 479.363 -0.640527 -0.698877 0
M  V30 4951 H 479.069 -1.90635 -2.95552 0
M  V30 4952 H 478.943 -0.34977 -3.75575 0
M  V30 4953 H 481.33 0.218583 -2.94289 0
M  V30 4954 H 481.411 -1.36713 -2.16202 0
M  V30 4955 H 481.055 -2.47884 -4.43301 0
M  V30 4956 H 480.985 -0.869427 -5.19373 0
M  V30 4957 H 483.476 -1.0184 -3.63919 0
M  V30 4958 H 483.789 -2.67793 -7.24919 0
M  V30 4959 H 482.134 -2.40181 -6.52179 0
M  V30 4960 H 485.325 -1.34241 -4.48439 0
M  V30 4961 H 485.498 -2.09895 -6.13065 0
M  V30 4962 N 478.904 1.54736 -0.299062 0
M  V30 4963 C 480.15 2.00397 0.311244 0
M  V30 4964 C 480.483 1.18716 1.53688 0
M  V30 4965 O 479.758 0.263154 1.92712 0
M  V30 4966 C 480.041 3.53817 0.669761 0
M  V30 4967 C 479.894 4.46239 -0.564882 0
M  V30 4968 C 481.213 4.13856 1.49702 0
M  V30 4969 H 478.332 0.728493 0.111653 0
M  V30 4970 H 480.974 1.85506 -0.410774 0
M  V30 4971 H 479.124 3.66637 1.28491 0
M  V30 4972 H 480.796 4.45328 -1.20337 0
M  V30 4973 H 479.039 4.16916 -1.19849 0
M  V30 4974 H 479.71 5.5134 -0.269918 0
M  V30 4975 H 482.186 4.04461 0.977284 0
M  V30 4976 H 481.062 5.21365 1.71666 0
M  V30 4977 H 481.323 3.65608 2.48563 0
M  V30 4978 N 480.382 0.0267497 1.57577 0
M  V30 4979 C 481.61 -0.662661 1.96001 0
M  V30 4980 C 482.025 -1.65799 0.903117 0
M  V30 4981 O 481.382 -1.82135 -0.115317 0
M  V30 4982 C 481.433 -1.37112 3.34488 0
M  V30 4983 O 481.154 -0.415683 4.36123 0
M  V30 4984 C 482.655 -2.15257 3.8753 0
M  V30 4985 H 479.875 -0.18287 0.6456 0
M  V30 4986 H 482.419 0.0858116 2.0432 0
M  V30 4987 H 480.574 -2.07101 3.27395 0
M  V30 4988 H 480.988 -0.918496 5.16395 0
M  V30 4989 H 482.462 -2.60285 4.86781 0
M  V30 4990 H 482.939 -2.99063 3.21649 0
M  V30 4991 H 483.545 -1.50231 3.97883 0
M  V30 4992 N 481.861 -1.55662 -0.24637 0
M  V30 4993 C 483.109 -1.77168 -0.972411 0
M  V30 4994 C 483.43 -0.590827 -1.85834 0
M  V30 4995 O 482.7 0.393365 -1.9191 0
M  V30 4996 H 481.28 -0.653405 -0.362038 0
M  V30 4997 H 483.942 -1.93101 -0.264189 0
M  V30 4998 H 483.038 -2.68335 -1.59382 0
M  V30 4999 N 483.339 0.512053 -1.4905 0
M  V30 5000 C 484.302 1.59704 -1.64399 0
M  V30 5001 C 485.302 1.52285 -0.516317 0
M  V30 5002 O 486.492 1.55635 -0.782527 0
M  V30 5003 C 483.624 2.9935 -1.63102 0
M  V30 5004 H 484.817 1.47428 -2.61161 0
M  V30 5005 H 482.37 0.735469 -1.37915 0
M  V30 5006 H 483.105 3.17116 -0.678836 0
M  V30 5007 H 482.89 3.06144 -2.44986 0
M  V30 5008 H 484.38 3.782 -1.77072 0
M  V30 5009 N 484.817 1.37938 0.762283 0
M  V30 5010 C 486.094 1.24196 1.51112 0
M  V30 5011 C 486.474 -0.160409 2.1049 0
M  V30 5012 O 485.822 -1.16904 1.96331 0
M  V30 5013 C 486.032 2.34537 2.58445 0
M  V30 5014 C 487.38 2.7254 3.25588 0
M  V30 5015 O 488.404 2.33783 2.68745 0
M  V30 5016 O 487.263 3.39343 4.28379 0
M  V30 5017 H 484.357 0.485175 0.669727 0
M  V30 5018 H 486.903 1.49743 0.798438 0
M  V30 5019 H 485.675 3.28406 2.12756 0
M  V30 5020 H 485.298 2.10505 3.37303 0
M  V30 5021 N 486.295 -0.989507 1.22664 0
M  V30 5022 C 487.541 -1.7321 1.05481 0
M  V30 5023 C 487.874 -1.89852 -0.408635 0
M  V30 5024 O 487.149 -1.44416 -1.30285 0
M  V30 5025 C 487.432 -3.1357 1.77047 0
M  V30 5026 C 487.285 -3.04555 3.31008 0
M  V30 5027 C 488.604 -4.12812 1.5256 0
M  V30 5028 H 485.723 -0.628697 0.384589 0
M  V30 5029 H 488.365 -1.15258 1.51049 0
M  V30 5030 H 486.515 -3.63046 1.3831 0
M  V30 5031 H 488.187 -2.62674 3.7921 0
M  V30 5032 H 486.43 -2.41278 3.6051 0
M  V30 5033 H 487.101 -4.03894 3.76263 0
M  V30 5034 H 489.577 -3.72106 1.86215 0
M  V30 5035 H 488.453 -5.09132 2.05124 0
M  V30 5036 H 488.714 -4.39711 0.458936 0
M  V30 5037 N 487.773 -1.03688 -1.18687 0
M  V30 5038 C 489.184 -0.766488 -1.70241 0
M  V30 5039 C 489.535 0.713052 -1.82784 0
M  V30 5040 O 488.66 1.55529 -1.50465 0
M  V30 5041 C 489.255 -1.38475 -3.09209 0
M  V30 5042 C 487.814 -1.16276 -3.5799 0
M  V30 5043 C 486.961 -1.4778 -2.34641 0
M  V30 5044 H 489.912 -1.20378 -1.03415 0
M  V30 5045 H 489.933 -0.785939 -3.72295 0
M  V30 5046 H 489.445 -2.46157 -3.00048 0
M  V30 5047 H 487.546 -0.104508 -3.72453 0
M  V30 5048 H 487.659 -1.8571 -4.41643 0
M  V30 5049 H 486.023 -0.897366 -2.38368 0
M  V30 5050 H 486.806 -2.56562 -2.28102 0
M  V30 5051 N 489.251 1.34841 -0.815825 0
M  V30 5052 C 490.184 2.27504 -0.178062 0
M  V30 5053 C 491.162 1.48542 0.661373 0
M  V30 5054 O 492.346 1.77779 0.626653 0
M  V30 5055 C 489.473 3.30246 0.752002 0
M  V30 5056 C 488.519 4.26499 -0.00899172 0
M  V30 5057 S 489.352 5.18169 -1.35134 0
M  V30 5058 C 490.508 6.24449 -0.42596 0
M  V30 5059 H 490.741 2.81248 -0.963684 0
M  V30 5060 H 488.274 1.41781 -0.611355 0
M  V30 5061 H 490.232 3.89933 1.28308 0
M  V30 5062 H 488.893 2.75363 1.51109 0
M  V30 5063 H 488.086 4.99146 0.697766 0
M  V30 5064 H 487.688 3.7103 -0.470396 0
M  V30 5065 H 489.98 6.76404 0.385234 0
M  V30 5066 H 490.923 6.99156 -1.1219 0
M  V30 5067 H 491.331 5.64497 -0.0175461 0
M  V30 5068 N 490.729 0.570148 1.46925 0
M  V30 5069 C 492.14 0.1402 1.86173 0
M  V30 5070 C 492.491 -1.29347 1.47526 0
M  V30 5071 O 491.616 -1.97508 0.884292 0
M  V30 5072 C 492.211 0.247661 3.37894 0
M  V30 5073 C 490.77 -0.127332 3.76185 0
M  V30 5074 C 489.917 0.589349 2.70965 0
M  V30 5075 H 492.868 0.779117 1.38259 0
M  V30 5076 H 492.889 -0.530341 3.76786 0
M  V30 5077 H 492.401 1.29121 3.65991 0
M  V30 5078 H 490.502 -1.17149 3.53704 0
M  V30 5079 H 490.615 0.240238 4.78497 0
M  V30 5080 H 488.979 0.0309824 2.54681 0
M  V30 5081 H 489.762 1.6343 3.01903 0
M  V30 5082 N 492.207 -1.54576 0.307264 0
M  V30 5083 C 493.437 -2.04378 -0.302158 0
M  V30 5084 C 493.845 -1.18381 -1.47589 0
M  V30 5085 O 493.188 -0.20352 -1.82569 0
M  V30 5086 C 493.25 -3.50133 -0.815305 0
M  V30 5087 C 492.914 -4.56401 0.233977 0
M  V30 5088 C 493.911 -5.08884 1.06456 0
M  V30 5089 C 491.596 -5.0088 0.377478 0
M  V30 5090 C 493.59 -6.04394 2.02452 0
M  V30 5091 C 491.277 -5.96208 1.34088 0
M  V30 5092 C 492.275 -6.47849 2.16288 0
M  V30 5093 O 491.963 -7.41308 3.10994 0
M  V30 5094 H 491.695 -0.672502 -0.0686839 0
M  V30 5095 H 494.249 -2.00484 0.446682 0
M  V30 5096 H 492.479 -3.51371 -1.61478 0
M  V30 5097 H 494.168 -3.83098 -1.34129 0
M  V30 5098 H 494.934 -4.75311 0.964596 0
M  V30 5099 H 490.813 -4.60309 -0.252405 0
M  V30 5100 H 494.357 -6.44626 2.66652 0
M  V30 5101 H 490.254 -6.29198 1.44154 0
M  V30 5102 H 491.022 -7.5913 3.06045 0
M  V30 5103 N 493.685 -0.035106 -1.57561 0
M  V30 5104 C 494.648 0.929819 -2.09492 0
M  V30 5105 C 495.648 1.25026 -1.01119 0
M  V30 5106 O 496.838 1.18961 -1.27255 0
M  V30 5107 C 493.97 2.24457 -2.56577 0
M  V30 5108 H 495.163 0.479935 -2.96035 0
M  V30 5109 H 492.716 0.213033 -1.54841 0
M  V30 5110 H 493.451 2.74061 -1.73382 0
M  V30 5111 H 493.236 2.02508 -3.35757 0
M  V30 5112 H 494.726 2.93607 -2.96959 0
M  V30 5113 N 495.163 1.55791 0.238111 0
M  V30 5114 C 496.11 1.9105 1.29493 0
M  V30 5115 C 497.08 0.765733 1.47397 0
M  V30 5116 O 498.265 1.02017 1.61236 0
M  V30 5117 C 495.405 2.21826 2.64362 0
M  V30 5118 C 494.518 3.49153 2.54394 0
M  V30 5119 C 493.653 3.69455 3.81676 0
M  V30 5120 C 492.692 4.90353 3.66361 0
M  V30 5121 N 491.829 5.07131 4.85554 0
M  V30 5122 H 496.669 2.81172 0.987233 0
M  V30 5123 H 494.206 1.39179 0.476203 0
M  V30 5124 H 496.164 2.37675 3.4288 0
M  V30 5125 H 494.794 1.34897 2.93262 0
M  V30 5126 H 493.846 3.41587 1.67399 0
M  V30 5127 H 495.158 4.37818 2.38991 0
M  V30 5128 H 494.312 3.85311 4.68636 0
M  V30 5129 H 493.051 2.7904 3.99985 0
M  V30 5130 H 492.056 4.74464 2.77784 0
M  V30 5131 H 493.281 5.82237 3.49538 0
M  V30 5132 H 491.227 4.19654 5.04209 0
M  V30 5133 H 491.144 5.89899 4.72816 0
M  V30 5134 H 492.412 5.27407 5.73988 0
M  V30 5135 N 496.642 -0.504142 1.49319 0
M  V30 5136 C 497.891 -1.25507 1.57895 0
M  V30 5137 C 498.204 -1.93735 0.269433 0
M  V30 5138 O 499.41 -2.70492 0.233706 0
M  V30 5139 C 497.866 -2.27869 2.78574 0
M  V30 5140 C 497.474 -1.65594 4.16272 0
M  V30 5141 C 499.218 -3.0381 2.96479 0
M  V30 5142 C 497.125 -2.66048 5.28178 0
M  V30 5143 H 496.055 -0.47212 0.587894 0
M  V30 5144 H 498.706 -0.52931 1.757 0
M  V30 5145 H 497.088 -3.03594 2.54257 0
M  V30 5146 H 498.262 -0.958826 4.50714 0
M  V30 5147 H 496.577 -1.02055 4.037 0
M  V30 5148 H 499.174 -3.78925 3.77253 0
M  V30 5149 H 499.517 -3.61235 2.06918 0
M  V30 5150 H 500.05 -2.352 3.20821 0
M  V30 5151 H 496.789 -2.13408 6.19788 0
M  V30 5152 H 496.309 -3.34009 4.98195 0
M  V30 5153 H 497.988 -3.28536 5.57381 0
M  V30 5154 N 498.12 -1.38341 -0.754957 0
M  V30 5155 C 499.05 -1.38176 -1.88227 0
M  V30 5156 C 500.031 -0.247873 -1.68284 0
M  V30 5157 O 501.216 -0.45075 -1.88896 0
M  V30 5158 C 498.346 -1.20471 -3.25736 0
M  V30 5159 C 497.3 -2.3105 -3.60278 0
M  V30 5160 C 496.626 -1.98452 -4.96509 0
M  V30 5161 C 497.926 -3.73305 -3.65295 0
M  V30 5162 H 499.62 -2.32512 -1.88622 0
M  V30 5163 H 497.166 -1.1192 -0.906082 0
M  V30 5164 H 499.119 -1.18982 -4.04254 0
M  V30 5165 H 497.843 -0.225965 -3.25817 0
M  V30 5166 H 496.502 -2.31723 -2.84078 0
M  V30 5167 H 496.15 -0.990641 -4.93148 0
M  V30 5168 H 495.85 -2.7251 -5.20588 0
M  V30 5169 H 497.374 -1.98578 -5.77407 0
M  V30 5170 H 498.788 -3.7467 -4.3393 0
M  V30 5171 H 497.185 -4.46557 -4.00883 0
M  V30 5172 H 498.255 -4.05719 -2.65556 0
M  V30 5173 N 499.598 0.982988 -1.23187 0
M  V30 5174 C 500.508 2.10907 -1.02739 0
M  V30 5175 C 501.524 1.73979 0.0273188 0
M  V30 5176 O 502.7 2.00702 -0.16757 0
M  V30 5177 C 499.765 3.41142 -0.618304 0
M  V30 5178 C 498.826 3.92112 -1.74777 0
M  V30 5179 C 498.059 5.16131 -1.3581 0
M  V30 5180 O 498.282 5.6989 -0.241201 0
M  V30 5181 O 497.216 5.61103 -2.17824 0
M  V30 5182 H 501.042 2.31046 -1.97108 0
M  V30 5183 H 498.627 1.09284 -1.01869 0
M  V30 5184 H 500.509 4.19488 -0.400982 0
M  V30 5185 H 499.184 3.2234 0.296421 0
M  V30 5186 H 498.091 3.14895 -2.0197 0
M  V30 5187 H 499.424 4.15364 -2.64071 0
M  V30 5188 N 501.076 1.04316 1.18135 0
M  V30 5189 C 502.353 0.662166 1.84051 0
M  V30 5190 C 502.733 -0.858169 1.9287 0
M  V30 5191 O 502.081 -1.76062 1.45652 0
M  V30 5192 C 502.291 1.3409 3.22212 0
M  V30 5193 C 503.639 1.4733 3.9822 0
M  V30 5194 O 504.663 1.29921 3.31661 0
M  V30 5195 O 503.522 1.75722 5.17479 0
M  V30 5196 H 500.616 0.232005 0.79379 0
M  V30 5197 H 503.162 1.1422 1.25506 0
M  V30 5198 H 501.934 2.37853 3.10711 0
M  V30 5199 H 501.557 0.849649 3.88416 0
M  V30 5200 N 502.554 -1.34406 0.822964 0
M  V30 5201 C 503.502 -2.31428 0.233165 0
M  V30 5202 C 504.496 -1.57404 -0.626118 0
M  V30 5203 O 505.702 -1.72402 -0.517453 0
M  V30 5204 H 502.077 -0.749863 0.0566557 0
M  V30 5205 H 504.048 -2.78699 1.06628 0
M  V30 5206 C 502.797 -3.42653 -0.590264 0
M  V30 5207 H 502.12 -3.99753 0.0616129 0
M  V30 5208 H 503.56 -4.12778 -0.969054 0
M  V30 5209 C 502.019 -2.87112 -1.76262 0
M  V30 5210 O 502.549 -2.81995 -2.8608 0
M  V30 5211 N 500.755 -2.43934 -1.57938 0
M  V30 5212 H 500.302 -2.48296 -0.686078 0
M  V30 5213 H 500.26 -2.07123 -2.36532 0
M  V30 5214 N 504.032 -0.577932 -1.46621 0
M  V30 5215 C 505.257 -0.0652536 -2.07297 0
M  V30 5216 C 505.682 1.22828 -1.4246 0
M  V30 5217 O 505.04 1.74075 -0.506718 0
M  V30 5218 C 505.088 0.0920589 -3.60482 0
M  V30 5219 O 504.192 1.14972 -3.96049 0
M  V30 5220 H 503.533 -0.06065 -0.661224 0
M  V30 5221 H 506.063 -0.799515 -1.88332 0
M  V30 5222 H 506.073 0.299741 -4.06897 0
M  V30 5223 H 504.748 -0.852612 -4.07067 0
M  V30 5224 H 503.325 0.920879 -3.61351 0
M  V30 5225 N 505.51 1.54411 -0.315457 0
M  V30 5226 C 506.759 1.99599 0.290395 0
M  V30 5227 C 507.072 1.20746 1.53882 0
M  V30 5228 O 508.278 1.56272 2.22017 0
M  V30 5229 C 506.734 3.5539 0.56797 0
M  V30 5230 C 506.342 4.43068 -0.662945 0
M  V30 5231 C 508.086 4.09067 1.13422 0
M  V30 5232 C 505.993 5.90317 -0.357722 0
M  V30 5233 H 504.923 0.745592 0.112286 0
M  V30 5234 H 507.574 1.78477 -0.426418 0
M  V30 5235 H 505.956 3.72468 1.34476 0
M  V30 5236 H 507.13 4.37765 -1.43869 0
M  V30 5237 H 505.445 4.00238 -1.14884 0
M  V30 5238 H 508.042 5.16663 1.37707 0
M  V30 5239 H 508.385 3.60552 2.08106 0
M  V30 5240 H 508.918 3.95589 0.418805 0
M  V30 5241 H 505.657 6.4301 -1.27351 0
M  V30 5242 H 505.177 5.98592 0.380472 0
M  V30 5243 H 506.856 6.4699 0.0354284 0
M  V30 5244 N 506.988 0.0434614 1.5754 0
M  V30 5245 C 508.399 -0.493343 1.80064 0
M  V30 5246 C 508.75 -1.71388 0.955023 0
M  V30 5247 O 507.875 -2.15736 0.169434 0
M  V30 5248 C 508.47 -0.90179 3.26578 0
M  V30 5249 C 507.029 -1.38362 3.50047 0
M  V30 5250 C 506.176 -0.355129 2.75017 0
M  V30 5251 H 509.127 0.2694 1.56397 0
M  V30 5252 H 509.148 -1.76523 3.37075 0
M  V30 5253 H 508.66 -0.013271 3.88098 0
M  V30 5254 H 506.761 -2.29159 2.93798 0
M  V30 5255 H 506.874 -1.3811 4.58762 0
M  V30 5256 H 505.238 -0.826348 2.40922 0
M  V30 5257 H 506.021 0.525172 3.39259 0
M  V30 5258 N 508.466 -1.55915 -0.229846 0
M  V30 5259 C 509.398 -1.88209 -1.30805 0
M  V30 5260 C 510.411 -0.769672 -1.43457 0
M  V30 5261 O 511.6 -1.04792 -1.44502 0
M  V30 5262 C 508.7 -2.06829 -2.68468 0
M  V30 5263 C 507.873 -3.37798 -2.77869 0
M  V30 5264 C 506.932 -3.45952 -3.96489 0
M  V30 5265 O 505.958 -4.19043 -3.85216 0
M  V30 5266 N 507.16 -2.76488 -5.10426 0
M  V30 5267 H 509.925 -2.81286 -1.03431 0
M  V30 5268 H 507.486 -1.5636 -0.41991 0
M  V30 5269 H 509.478 -2.09608 -3.46189 0
M  V30 5270 H 508.048 -1.20416 -2.88477 0
M  V30 5271 H 507.268 -3.4719 -1.86689 0
M  V30 5272 H 508.556 -4.24091 -2.81113 0
M  V30 5273 H 507.954 -2.16868 -5.2248 0
M  V30 5274 H 506.511 -2.84938 -5.8622 0
M  V30 5275 N 509.944 0.496216 -1.49584 0
M  V30 5276 C 511.19 1.25189 -1.59548 0
M  V30 5277 C 511.523 1.9212 -0.283466 0
M  V30 5278 O 510.798 1.80947 0.713324 0
M  V30 5279 C 511.081 2.31516 -2.75812 0
M  V30 5280 C 510.934 1.69054 -4.16822 0
M  V30 5281 C 512.253 3.3304 -2.87702 0
M  V30 5282 H 509.372 0.45379 -0.580727 0
M  V30 5283 H 512.014 0.549327 -1.81886 0
M  V30 5284 H 510.164 2.91438 -2.56897 0
M  V30 5285 H 511.836 1.12923 -4.47265 0
M  V30 5286 H 510.079 0.994485 -4.22247 0
M  V30 5287 H 510.75 2.462 -4.94054 0
M  V30 5288 H 513.226 2.83114 -3.04936 0
M  V30 5289 H 512.102 4.04794 -3.7072 0
M  V30 5290 H 512.363 3.95655 -1.97255 0
M  V30 5291 N 511.423 1.38739 0.74761 0
M  V30 5292 C 512.37 1.36449 1.86146 0
M  V30 5293 C 513.34 0.226098 1.64554 0
M  V30 5294 O 514.525 0.41926 1.86137 0
M  V30 5295 C 511.665 1.2013 3.23516 0
M  V30 5296 C 510.778 2.43407 3.56899 0
M  V30 5297 C 509.913 2.19773 4.83605 0
M  V30 5298 C 508.952 3.3879 5.09792 0
M  V30 5299 N 508.089 3.14553 6.27695 0
M  V30 5300 H 512.929 2.3167 1.87438 0
M  V30 5301 H 510.466 1.15094 0.916063 0
M  V30 5302 H 512.424 1.08683 4.02795 0
M  V30 5303 H 511.054 0.285453 3.21535 0
M  V30 5304 H 510.106 2.65504 2.72418 0
M  V30 5305 H 511.418 3.32094 3.72176 0
M  V30 5306 H 510.572 2.05496 5.70838 0
M  V30 5307 H 509.311 1.28461 4.70478 0
M  V30 5308 H 508.316 3.53579 4.21025 0
M  V30 5309 H 509.541 4.30986 5.24812 0
M  V30 5310 H 507.487 2.25893 6.1588 0
M  V30 5311 H 507.404 3.96791 6.435 0
M  V30 5312 H 508.672 3.03943 7.17801 0
M  V30 5313 N 512.901 -0.976442 1.23707 0
M  V30 5314 C 514.178 -1.69296 0.979699 0
M  V30 5315 C 514.558 -2.0508 -0.500555 0
M  V30 5316 O 513.906 -1.74708 -1.47273 0
M  V30 5317 C 514.116 -2.93143 1.89389 0
M  V30 5318 C 515.464 -3.65572 2.15968 0
M  V30 5319 O 516.488 -3.03184 1.86971 0
M  V30 5320 O 515.347 -4.77859 2.65167 0
M  V30 5321 H 512.441 -0.739708 0.369812 0
M  V30 5322 H 514.987 -1.03131 1.34767 0
M  V30 5323 H 513.759 -2.63327 2.89439 0
M  V30 5324 H 513.382 -3.67044 1.52854 0
M  V30 5325 N 514.379 -1.04941 -1.1758 0
M  V30 5326 C 515.628 -0.753124 -1.87112 0
M  V30 5327 C 515.941 0.722507 -1.81767 0
M  V30 5328 O 517.147 1.13265 -2.46746 0
M  V30 5329 C 515.603 -1.29695 -3.35719 0
M  V30 5330 C 515.211 -2.80184 -3.49572 0
M  V30 5331 C 516.955 -1.07759 -4.10595 0
M  V30 5332 C 514.862 -3.2788 -4.92187 0
M  V30 5333 H 513.792 -0.278034 -0.700866 0
M  V30 5334 H 516.443 -1.26637 -1.32798 0
M  V30 5335 H 514.825 -0.711522 -3.89555 0
M  V30 5336 H 515.999 -3.44561 -3.05965 0
M  V30 5337 H 514.314 -3.00632 -2.88113 0
M  V30 5338 H 516.911 -1.40899 -5.15802 0
M  V30 5339 H 517.254 -0.0152302 -4.16297 0
M  V30 5340 H 517.787 -1.62809 -3.62957 0
M  V30 5341 H 514.526 -4.33535 -4.91658 0
M  V30 5342 H 514.046 -2.68245 -5.36475 0
M  V30 5343 H 515.725 -3.22412 -5.60945 0
M  V30 5344 N 515.857 1.33968 -0.830081 0
M  V30 5345 C 517.106 1.97323 -0.417928 0
M  V30 5346 C 517.419 1.6652 1.02618 0
M  V30 5347 O 518.625 2.2342 1.54259 0
M  V30 5348 C 517.081 3.53099 -0.696359 0
M  V30 5349 C 516.689 3.92788 -2.15457 0
M  V30 5350 C 518.433 4.23049 -0.350724 0
M  V30 5351 C 516.34 5.41506 -2.37751 0
M  V30 5352 H 515.27 0.738409 -0.152541 0
M  V30 5353 H 517.921 1.52711 -1.01744 0
M  V30 5354 H 516.303 3.95991 -0.0265904 0
M  V30 5355 H 517.477 3.6098 -2.86408 0
M  V30 5356 H 515.792 3.35795 -2.46232 0
M  V30 5357 H 518.389 5.32403 -0.495036 0
M  V30 5358 H 518.732 4.10279 0.705476 0
M  V30 5359 H 519.265 3.85657 -0.975362 0
M  V30 5360 H 516.004 5.5927 -3.41903 0
M  V30 5361 H 515.524 5.74804 -1.7135 0
M  V30 5362 H 517.203 6.0828 -2.20465 0
M  V30 5363 N 517.335 0.585699 1.46312 0
M  V30 5364 C 518.582 0.0724211 2.0237 0
M  V30 5365 C 518.91 -1.28868 1.45683 0
M  V30 5366 O 518.165 -1.85853 0.612945 0
M  V30 5367 C 518.464 -0.0401312 3.57377 0
M  V30 5368 C 518.13 1.25376 4.33119 0
M  V30 5369 C 516.792 1.60824 4.5353 0
M  V30 5370 C 519.144 2.10987 4.76586 0
M  V30 5371 C 516.472 2.81676 5.14661 0
M  V30 5372 C 518.824 3.31068 5.39052 0
M  V30 5373 C 517.488 3.66794 5.5769 0
M  V30 5374 H 516.758 0.0265007 0.740526 0
M  V30 5375 H 519.405 0.762935 1.75646 0
M  V30 5376 H 517.71 -0.813791 3.83255 0
M  V30 5377 H 519.407 -0.453078 3.98432 0
M  V30 5378 H 515.997 0.967808 4.1753 0
M  V30 5379 H 520.181 1.84904 4.60569 0
M  V30 5380 H 515.437 3.0949 5.27282 0
M  V30 5381 H 519.611 3.97672 5.71691 0
M  V30 5382 H 517.238 4.60529 6.04828 0
M  V30 5383 N 518.813 -1.54241 0.323641 0
M  V30 5384 C 519.776 -2.22997 -0.529602 0
M  V30 5385 C 520.776 -1.22345 -1.04347 0
M  V30 5386 O 521.966 -1.46924 -0.935889 0
M  V30 5387 C 519.098 -2.93409 -1.73562 0
M  V30 5388 H 520.291 -2.99815 0.0714518 0
M  V30 5389 H 517.844 -1.56121 0.0747258 0
M  V30 5390 H 518.579 -2.20729 -2.37591 0
M  V30 5391 H 518.364 -3.67217 -1.37456 0
M  V30 5392 H 519.854 -3.45794 -2.34128 0
M  V30 5393 N 520.291 -0.0518155 -1.57515 0
M  V30 5394 C 521.54 0.621286 -1.91893 0
M  V30 5395 C 521.853 1.71966 -0.932052 0
M  V30 5396 O 523.059 2.45096 -1.16791 0
M  V30 5397 C 521.515 1.15641 -3.40816 0
M  V30 5398 C 521.123 0.0901146 -4.47909 0
M  V30 5399 C 522.867 1.80472 -3.84227 0
M  V30 5400 C 520.774 0.638154 -5.87947 0
M  V30 5401 H 519.704 0.235835 -0.716169 0
M  V30 5402 H 522.355 -0.120809 -1.83102 0
M  V30 5403 H 520.737 1.95084 -3.44613 0
M  V30 5404 H 521.911 -0.683525 -4.55702 0
M  V30 5405 H 520.226 -0.460774 -4.13843 0
M  V30 5406 H 522.823 2.22471 -4.86221 0
M  V30 5407 H 523.166 2.65669 -3.20508 0
M  V30 5408 H 523.699 1.07683 -3.82948 0
M  V30 5409 H 520.438 -0.176202 -6.55263 0
M  V30 5410 H 519.958 1.37976 -5.83714 0
M  V30 5411 H 521.637 1.12085 -6.37217 0
M  V30 5412 N 521.769 1.56035 0.221574 0
M  V30 5413 C 522.716 1.92413 1.27459 0
M  V30 5414 C 523.686 0.781323 1.46576 0
M  V30 5415 O 524.871 1.03721 1.60145 0
M  V30 5416 C 522.011 2.24617 2.61995 0
M  V30 5417 C 521.124 3.51831 2.50677 0
M  V30 5418 C 520.259 3.73482 3.77736 0
M  V30 5419 C 519.298 4.94211 3.6114 0
M  V30 5420 N 518.435 5.12252 4.80148 0
M  V30 5421 H 523.275 2.82203 0.957355 0
M  V30 5422 H 520.812 1.39676 0.461415 0
M  V30 5423 H 522.77 2.41298 3.40339 0
M  V30 5424 H 521.4 1.38 2.91815 0
M  V30 5425 H 520.452 3.43343 1.63767 0
M  V30 5426 H 521.764 4.40328 2.34334 0
M  V30 5427 H 520.918 3.9026 4.64523 0
M  V30 5428 H 519.657 2.83266 3.97003 0
M  V30 5429 H 518.662 4.77384 2.72736 0
M  V30 5430 H 519.887 5.85912 3.43343 0
M  V30 5431 H 517.833 4.24978 4.99729 0
M  V30 5432 H 517.75 5.94881 4.66532 0
M  V30 5433 H 519.018 5.33465 5.68362 0
M  V30 5434 N 523.247 -0.488276 1.49845 0
M  V30 5435 C 524.194 -1.58836 1.67451 0
M  V30 5436 C 525.164 -1.57886 0.515857 0
M  V30 5437 O 526.349 -1.75679 0.744403 0
M  V30 5438 C 523.489 -2.96915 1.75885 0
M  V30 5439 C 522.602 -3.07784 3.03138 0
M  V30 5440 C 521.737 -4.36673 3.02473 0
M  V30 5441 C 520.776 -4.41222 4.24252 0
M  V30 5442 N 519.913 -5.61557 4.21424 0
M  V30 5443 H 524.753 -1.43131 2.61376 0
M  V30 5444 H 522.29 -0.696186 1.29583 0
M  V30 5445 H 524.248 -3.76965 1.78755 0
M  V30 5446 H 522.878 -3.11295 0.85414 0
M  V30 5447 H 521.93 -2.20717 3.09819 0
M  V30 5448 H 523.242 -3.07005 3.93128 0
M  V30 5449 H 522.396 -5.25055 3.03977 0
M  V30 5450 H 521.135 -4.40037 2.10283 0
M  V30 5451 H 520.14 -3.5124 4.22978 0
M  V30 5452 H 521.365 -4.39564 5.17649 0
M  V30 5453 H 519.311 -5.65738 3.32078 0
M  V30 5454 H 519.228 -5.62447 5.05163 0
M  V30 5455 H 520.496 -6.52111 4.2705 0
M  V30 5456 N 524.725 -1.39134 -0.740242 0
M  V30 5457 C 525.953 -1.39334 -1.5295 0
M  V30 5458 C 526.368 0.0135008 -1.88795 0
M  V30 5459 O 525.725 0.983524 -1.5373 0
M  V30 5460 C 525.776 -2.2614 -2.82034 0
M  V30 5461 O 525.497 -3.61345 -2.47712 0
M  V30 5462 C 526.998 -2.34666 -3.76094 0
M  V30 5463 H 524.218 -0.476103 -0.472828 0
M  V30 5464 H 526.762 -1.82883 -0.9151 0
M  V30 5465 H 524.917 -1.86018 -3.39818 0
M  V30 5466 H 525.331 -4.07194 -3.30595 0
M  V30 5467 H 526.805 -2.99663 -4.63579 0
M  V30 5468 H 527.282 -1.36426 -4.17474 0
M  V30 5469 H 527.888 -2.75236 -3.2423 0
M  V30 5470 N 526.204 0.969867 -1.24223 0
M  V30 5471 C 527.134 2.08191 -1.05729 0
M  V30 5472 C 528.115 1.70075 0.0290765 0
M  V30 5473 O 529.3 1.93712 -0.137583 0
M  V30 5474 C 526.43 3.40991 -0.658995 0
M  V30 5475 C 525.384 3.93054 -1.69389 0
M  V30 5476 C 524.71 5.22171 -1.15072 0
M  V30 5477 C 526.01 4.21137 -3.08935 0
M  V30 5478 H 527.704 2.23921 -1.98746 0
M  V30 5479 H 525.25 1.07602 -0.956967 0
M  V30 5480 H 527.203 4.18221 -0.51662 0
M  V30 5481 H 525.927 3.25155 0.30686 0
M  V30 5482 H 524.586 3.17977 -1.82444 0
M  V30 5483 H 524.234 5.02694 -0.175539 0
M  V30 5484 H 523.934 5.57973 -1.84229 0
M  V30 5485 H 525.458 6.02013 -1.02042 0
M  V30 5486 H 526.872 4.8908 -2.99121 0
M  V30 5487 H 525.269 4.68163 -3.75425 0
M  V30 5488 H 526.339 3.27996 -3.57137 0
M  V30 5489 N 527.682 1.05563 1.17022 0
M  V30 5490 C 528.63 0.653887 2.2322 0
M  V30 5491 C 529.624 -0.326642 1.66221 0
M  V30 5492 O 530.83 -0.192301 1.7897 0
M  V30 5493 H 527.205 0.193297 0.726733 0
M  V30 5494 H 529.176 1.5596 2.54399 0
M  V30 5495 C 527.925 0.0485434 3.47666 0
M  V30 5496 H 527.248 0.79413 3.91834 0
M  V30 5497 H 528.688 -0.195133 4.23551 0
M  V30 5498 C 527.147 -1.20583 3.14581 0
M  V30 5499 O 527.677 -2.29475 3.29703 0
M  V30 5500 N 525.883 -1.10493 2.68774 0
M  V30 5501 H 525.43 -0.218795 2.56669 0
M  V30 5502 H 525.388 -1.94507 2.47011 0
M  V30 5503 N 529.16 -1.33526 0.837174 0
M  V30 5504 C 530.409 -1.97098 0.428387 0
M  V30 5505 C 530.722 -1.67062 -1.01734 0
M  V30 5506 O 531.928 -2.24235 -1.53072 0
M  V30 5507 C 530.384 -3.52725 0.715075 0
M  V30 5508 C 529.992 -3.9164 2.17537 0
M  V30 5509 C 531.736 -4.22857 0.373154 0
M  V30 5510 C 529.643 -5.40237 2.40619 0
M  V30 5511 H 528.573 -0.737589 0.156455 0
M  V30 5512 H 531.224 -1.52169 1.02552 0
M  V30 5513 H 529.606 -3.95971 0.0475904 0
M  V30 5514 H 530.78 -3.59456 2.88319 0
M  V30 5515 H 529.095 -3.34485 2.4801 0
M  V30 5516 H 531.692 -5.32133 0.523264 0
M  V30 5517 H 532.035 -4.10647 -0.683708 0
M  V30 5518 H 532.568 -3.85135 0.995801 0
M  V30 5519 H 529.307 -5.57449 3.44864 0
M  V30 5520 H 528.827 -5.73887 1.74396 0
M  V30 5521 H 530.506 -6.07102 2.23688 0
M  V30 5522 O 530.677 -0.734023 -1.43855 0
M  V30 5523 H 531.368 -0.285275 -1.91588 0
M  V30 END ATOM
M  V30 BEGIN BOND
M  V30 END BOND
M  V30 END CTAB
M  END
$$$$
