drugbank_target|P11166 Solute carrier family 2, facilitated glucose transporter member 1 (DB02709; DB11059)
 OpenBabel12092119473D

  0  0  0     0  0            999 V3000
M  V30 BEGIN CTAB
M  V30 COUNTS 7734 7824 0 0 0
M  V30 BEGIN ATOM
M  V30 1 H -0.908 1.98254 -0.117106 0
M  V30 2 N 0 1.576 0 0
M  V30 3 C 0.933 2.03868 1.02534 0
M  V30 4 C 1.911 0.928543 1.3348 0
M  V30 5 O 3.095 1.19667 1.45644 0
M  V30 6 C 0.222 2.43627 2.35294 0
M  V30 7 C -0.732 3.65373 2.2001 0
M  V30 8 S 0.101 5.13292 1.52614 0
M  V30 9 C 1.257 5.56322 2.86805 0
M  V30 10 H 1.49 2.90518 0.631377 0
M  V30 11 H -0.977 1.52953 0.210867 0
M  V30 12 H 0.981 2.67203 3.11629 0
M  V30 13 H -0.358 1.57376 2.7183 0
M  V30 14 H -1.165 3.90944 3.18086 0
M  V30 15 H -1.563 3.418 1.51819 0
M  V30 16 H 0.729 5.58782 3.83104 0
M  V30 17 H 1.672 6.56266 2.65933 0
M  V30 18 H 2.08 4.83886 2.90714 0
M  V30 19 N 1.4781 -0.272755 1.55222 0
M  V30 20 C 2.3881 -1.35918 1.91216 0
M  V30 21 C 3.4041 -1.54026 0.809436 0
M  V30 22 O 4.5801 -1.68148 1.10852 0
M  V30 23 C 1.6451 -2.69834 2.17693 0
M  V30 24 C 0.7061 -2.6047 3.41253 0
M  V30 25 C -0.0609 -3.88 3.66458 0
M  V30 26 O 0.1621 -4.88693 2.94169 0
M  V30 27 O -0.9039 -3.88189 4.59992 0
M  V30 28 H 2.9221 -1.0839 2.83699 0
M  V30 29 H 0.5071 -0.471301 1.41771 0
M  V30 30 H 2.3891 -3.49017 2.36147 0
M  V30 31 H 1.0641 -2.97148 1.28392 0
M  V30 32 H -0.0289 -1.79663 3.28134 0
M  V30 33 H 1.3041 -2.38106 4.30774 0
M  V30 34 N 2.9562 -1.48159 -0.537278 0
M  V30 35 C 4.3672 -1.49429 -1.11928 0
M  V30 36 C 4.7182 -0.26 -1.9447 0
M  V30 37 O 3.8432 0.633489 -2.0692 0
M  V30 38 C 4.4382 -2.70758 -2.03656 0
M  V30 39 C 2.9972 -2.74923 -2.57088 0
M  V30 40 C 2.1442 -2.42835 -1.3389 0
M  V30 41 H 5.0952 -1.55381 -0.322886 0
M  V30 42 H 5.1162 -2.48861 -2.87834 0
M  V30 43 H 4.6282 -3.60575 -1.43553 0
M  V30 44 H 2.7292 -1.89296 -3.20933 0
M  V30 45 H 2.8422 -3.76157 -2.9672 0
M  V30 46 H 1.2062 -1.93836 -1.65226 0
M  V30 47 H 1.9892 -3.34884 -0.755504 0
M  V30 48 N 4.4343 0.785586 -1.36625 0
M  V30 49 C 5.6593 1.57963 -1.34397 0
M  V30 50 C 6.0843 1.87964 0.071526 0
M  V30 51 O 5.4423 1.48182 1.0446 0
M  V30 52 C 5.4903 2.87511 -2.17646 0
M  V30 53 O 4.5943 3.81281 -1.57158 0
M  V30 54 H 3.9353 0.479014 -0.459828 0
M  V30 55 H 6.4653 0.973411 -1.79961 0
M  V30 56 H 6.4753 3.36745 -2.30362 0
M  V30 57 H 5.1503 2.65002 -3.20541 0
M  V30 58 H 3.7273 3.39885 -1.53403 0
M  V30 59 N 5.9124 1.20967 1.01018 0
M  V30 60 C 7.1374 1.0503 1.78839 0
M  V30 61 C 7.5624 -0.395752 1.8389 0
M  V30 62 O 6.9204 -1.28529 1.27867 0
M  V30 63 C 6.9684 1.64602 3.2084 0
M  V30 64 O 6.0724 0.887988 4.02726 0
M  V30 65 H 5.4134 0.369987 0.551367 0
M  V30 66 H 7.9434 1.60399 1.27018 0
M  V30 67 H 7.9534 1.68607 3.71532 0
M  V30 68 H 6.6284 2.69841 3.16479 0
M  V30 69 H 5.2054 0.922648 3.61305 0
M  V30 70 N 7.3905 -1.2043 1.01659 0
M  V30 71 C 8.3375 -2.23215 0.586822 0
M  V30 72 C 9.3075 -1.61382 -0.393085 0
M  V30 73 O 10.4925 -1.88544 -0.292525 0
M  V30 74 C 7.6325 -3.45032 -0.0687464 0
M  V30 75 C 6.7455 -4.21296 0.955724 0
M  V30 76 C 5.8805 -5.30507 0.271208 0
M  V30 77 C 4.9195 -5.98515 1.28244 0
M  V30 78 N 4.0565 -6.99316 0.62459 0
M  V30 79 H 8.8965 -2.59336 1.46796 0
M  V30 80 H 6.4335 -1.27431 0.734836 0
M  V30 81 H 8.3915 -4.1459 -0.465965 0
M  V30 82 H 7.0215 -3.09604 -0.913529 0
M  V30 83 H 6.0735 -3.50803 1.4711 0
M  V30 84 H 7.3855 -4.6803 1.72479 0
M  V30 85 H 6.5395 -6.06428 -0.18151 0
M  V30 86 H 5.2785 -4.8481 -0.530163 0
M  V30 87 H 4.2835 -5.21355 1.74554 0
M  V30 88 H 5.5085 -6.46298 2.08509 0
M  V30 89 H 3.4545 -6.55812 -0.156914 0
M  V30 90 H 3.3715 -7.44178 1.33172 0
M  V30 91 H 4.6395 -7.79255 0.195462 0
M  V30 92 N 8.8686 -0.792821 -1.36206 0
M  V30 93 C 9.8156 -0.191653 -2.30003 0
M  V30 94 C 10.7856 0.666453 -1.52143 0
M  V30 95 O 11.9706 0.61442 -1.80636 0
M  V30 96 C 9.1106 0.664848 -3.38635 0
M  V30 97 C 8.2236 -0.212175 -4.31479 0
M  V30 98 C 7.3586 0.651022 -5.27196 0
M  V30 99 C 6.3976 -0.227247 -6.11678 0
M  V30 100 N 5.5346 0.595127 -6.99573 0
M  V30 101 H 10.3746 -0.996978 -2.80828 0
M  V30 102 H 7.9116 -0.503206 -1.38225 0
M  V30 103 H 9.8696 1.17645 -4.00269 0
M  V30 104 H 8.4996 1.43557 -2.89122 0
M  V30 105 H 7.5516 -0.841777 -3.70969 0
M  V30 106 H 8.8636 -0.888751 -4.90818 0
M  V30 107 H 8.0176 1.2283 -5.94136 0
M  V30 108 H 6.7566 1.36121 -4.68319 0
M  V30 109 H 5.7616 -0.816904 -5.43697 0
M  V30 110 H 6.9866 -0.93509 -6.72631 0
M  V30 111 H 4.9326 1.28955 -6.432 0
M  V30 112 H 4.8496 -0.0236952 -7.55996 0
M  V30 113 H 6.1176 1.15613 -7.70879 0
M  V30 114 N 10.3467 1.47872 -0.545128 0
M  V30 115 C 11.2767 2.32661 0.197793 0
M  V30 116 C 12.2577 1.43041 0.920504 0
M  V30 117 O 13.4427 1.71912 0.90333 0
M  V30 118 C 10.5727 3.24569 1.23582 0
M  V30 119 C 9.5267 4.23333 0.630323 0
M  V30 120 C 8.8527 5.0448 1.77211 0
M  V30 121 C 10.1527 5.20704 -0.407974 0
M  V30 122 H 11.8467 2.95024 -0.510045 0
M  V30 123 H 9.3927 1.4187 -0.246731 0
M  V30 124 H 11.3457 3.8272 1.76362 0
M  V30 125 H 10.0697 2.60236 1.97344 0
M  V30 126 H 8.7287 3.6639 0.123922 0
M  V30 127 H 8.3767 4.36561 2.49847 0
M  V30 128 H 8.0767 5.71339 1.37281 0
M  V30 129 H 9.6007 5.65487 2.3034 0
M  V30 130 H 11.0147 5.7329 0.033305 0
M  V30 131 H 9.4117 5.95699 -0.725486 0
M  V30 132 H 10.4817 4.66917 -1.30828 0
M  V30 133 N 11.8248 0.280983 1.55075 0
M  V30 134 C 13.0528 -0.337293 2.04132 0
M  V30 135 C 13.4678 -1.4903 1.15912 0
M  V30 136 O 12.8248 -1.81606 0.180459 0
M  V30 137 C 12.8758 -0.812706 3.52246 0
M  V30 138 O 12.5968 0.294387 4.3711 0
M  V30 139 C 14.0978 -1.4982 4.17216 0
M  V30 140 H 11.3178 -0.0761638 0.666663 0
M  V30 141 H 13.8618 0.414787 2.00249 0
M  V30 142 H 12.0168 -1.51486 3.56554 0
M  V30 143 H 12.4308 -0.0721325 5.2445 0
M  V30 144 H 13.9048 -1.7822 5.22438 0
M  V30 145 H 14.3818 -2.43168 3.65741 0
M  V30 146 H 14.9878 -0.839742 4.16927 0
M  V30 147 N 13.3029 -1.57598 0.00835791 0
M  V30 148 C 14.5509 -1.90551 -0.6734 0
M  V30 149 C 14.8719 -0.883301 -1.73847 0
M  V30 150 O 14.1419 0.0781442 -1.95744 0
M  V30 151 H 12.7219 -0.703312 -0.251717 0
M  V30 152 H 15.3839 -1.94833 0.0512592 0
M  V30 153 H 14.4799 -2.9056 -1.13935 0
M  V30 154 N 14.781 0.264519 -1.55364 0
M  V30 155 C 16.197 0.61215 -1.47394 0
M  V30 156 C 16.397 1.89134 -0.695018 0
M  V30 157 O 15.453 2.51563 -0.217275 0
M  V30 158 C 16.766 0.731235 -2.91674 0
M  V30 159 C 18.314 0.82473 -3.01939 0
M  V30 160 C 18.789 0.975522 -4.4749 0
M  V30 161 N 20.28 1.04083 -4.51354 0
M  V30 162 C 21.015 1.17646 -5.61201 0
M  V30 163 N 20.511 1.27874 -6.80896 0
M  V30 164 N 22.304 1.20823 -5.48961 0
M  V30 165 H 14.455 -0.575456 -2.04456 0
M  V30 166 H 16.718 -0.196099 -0.927496 0
M  V30 167 H 16.424 -0.138392 -3.51428 0
M  V30 168 H 16.298 1.60883 -3.41169 0
M  V30 169 H 18.685 1.68482 -2.42276 0
M  V30 170 H 18.766 -0.0776479 -2.55682 0
M  V30 171 H 18.41 0.120058 -5.07758 0
M  V30 172 H 18.34 1.89268 -4.91412 0
M  V30 173 H 20.831 0.973846 -3.65136 0
M  V30 174 H 21.144 1.38081 -7.60364 0
M  V30 175 H 19.489 1.24863 -6.83692 0
M  V30 176 H 22.68 1.12469 -4.54388 0
M  V30 177 H 22.853 1.31049 -6.3461 0
M  V30 178 N 16.2591 1.48442 0.529413 0
M  V30 179 C 17.1891 1.65902 1.64313 0
M  V30 180 C 18.1701 0.507897 1.6234 0
M  V30 181 O 19.3551 0.740503 1.79528 0
M  V30 182 C 16.4851 1.69911 3.02898 0
M  V30 183 C 15.4391 2.8453 3.19729 0
M  V30 184 C 14.7651 2.73629 4.59381 0
M  V30 185 C 16.0651 4.25821 3.02447 0
M  V30 186 H 17.7591 2.5914 1.49955 0
M  V30 187 H 15.3051 1.24709 0.719982 0
M  V30 188 H 17.2581 1.80715 3.80684 0
M  V30 189 H 15.9821 0.732524 3.18279 0
M  V30 190 H 14.6411 2.73283 2.44361 0
M  V30 191 H 14.2891 1.74938 4.71599 0
M  V30 192 H 13.9891 3.50541 4.71588 0
M  V30 193 H 15.5131 2.86401 5.39265 0
M  V30 194 H 16.9271 4.37898 3.70024 0
M  V30 195 H 15.3241 5.03735 3.26146 0
M  V30 196 H 16.3941 4.42244 1.98867 0
M  V30 197 N 17.7372 -0.778329 1.37039 0
M  V30 198 C 18.6702 -1.8984 1.26633 0
M  V30 199 C 19.6482 -1.61923 0.148197 0
M  V30 200 O 20.8322 -1.85742 0.321265 0
M  V30 201 C 17.9592 -3.24916 0.956403 0
M  V30 202 C 17.0052 -3.71752 2.09051 0
M  V30 203 S 17.8382 -3.86201 3.70957 0
M  V30 204 C 18.9942 -5.24135 3.42101 0
M  V30 205 H 19.2272 -1.98377 2.21436 0
M  V30 206 H 16.7602 -0.938738 1.22585 0
M  V30 207 H 18.7182 -4.02936 0.784409 0
M  V30 208 H 17.3792 -3.14089 0.0259713 0
M  V30 209 H 16.5722 -4.69661 1.8285 0
M  V30 210 H 16.1742 -3.00815 2.2223 0
M  V30 211 H 18.4662 -6.09086 2.96682 0
M  V30 212 H 19.4092 -5.55346 4.39314 0
M  V30 213 H 19.8172 -4.91761 2.77185 0
M  V30 214 N 19.2153 -1.21501 -1.00376 0
M  V30 215 C 20.1453 -0.999478 -2.11028 0
M  V30 216 C 21.1263 0.0759671 -1.6993 0
M  V30 217 O 22.3113 -0.0841106 -1.94018 0
M  V30 218 C 19.4413 -0.564709 -3.42678 0
M  V30 219 C 18.3953 -1.58486 -3.97576 0
M  V30 220 C 17.7213 -1.00628 -5.25146 0
M  V30 221 C 19.0213 -2.97204 -4.29496 0
M  V30 222 H 20.7153 -1.92495 -2.29317 0
M  V30 223 H 18.2613 -0.92693 -1.102 0
M  V30 224 H 20.2143 -0.401091 -4.19487 0
M  V30 225 H 18.9383 0.396411 -3.24185 0
M  V30 226 H 17.5973 -1.73606 -3.22888 0
M  V30 227 H 17.2453 -0.0368439 -5.02987 0
M  V30 228 H 16.9453 -1.68771 -5.62841 0
M  V30 229 H 18.4693 -0.854015 -6.04598 0
M  V30 230 H 19.8833 -2.8552 -4.97143 0
M  V30 231 H 18.2803 -3.62372 -4.78338 0
M  V30 232 H 19.3503 -3.47956 -3.3772 0
M  V30 233 N 20.6934 1.19889 -1.02296 0
M  V30 234 C 21.6564 2.21116 -0.603351 0
M  V30 235 C 22.6564 1.5738 0.329884 0
M  V30 236 O 23.8464 1.73802 0.117702 0
M  V30 237 C 20.9784 3.40696 0.117992 0
M  V30 238 H 22.1714 2.59754 -1.49893 0
M  V30 239 H 19.7244 1.33463 -0.813468 0
M  V30 240 H 20.4594 3.07569 1.0282 0
M  V30 241 H 20.2444 3.88188 -0.552511 0
M  V30 242 H 21.7344 4.15692 0.398696 0
M  V30 243 N 22.1715 0.800033 1.35784 0
M  V30 244 C 23.4175 0.377901 1.99248 0
M  V30 245 C 23.7505 -1.05052 1.63333 0
M  V30 246 O 23.0255 -1.72768 0.893385 0
M  V30 247 C 23.3085 0.553922 3.55814 0
M  V30 248 C 23.1615 2.0268 4.01548 0
M  V30 249 C 24.4805 -0.0244802 4.40093 0
M  V30 250 H 21.5995 0.138782 0.723815 0
M  V30 251 H 24.2415 1.00835 1.61035 0
M  V30 252 H 22.3915 0.0172398 3.88496 0
M  V30 253 H 24.0635 2.62536 3.79305 0
M  V30 254 H 22.3065 2.5256 3.52698 0
M  V30 255 H 22.9775 2.10087 5.10458 0
M  V30 256 H 25.4535 0.433775 4.13833 0
M  V30 257 H 24.3295 0.128637 5.48749 0
M  V30 258 H 24.5905 -1.11758 4.27741 0
M  V30 259 N 23.6496 -1.47581 0.552962 0
M  V30 260 C 24.8976 -2.02082 0.0272703 0
M  V30 261 C 25.2186 -1.4301 -1.32563 0
M  V30 262 O 24.4886 -0.603745 -1.86365 0
M  V30 263 H 23.0686 -0.746966 0.00709182 0
M  V30 264 H 25.7306 -1.81033 0.722008 0
M  V30 265 H 24.8266 -3.12034 -0.0639951 0
M  V30 266 N 25.1277 -0.289203 -1.54924 0
M  V30 267 C 26.3757 0.322879 -1.99504 0
M  V30 268 C 26.6967 1.55313 -1.1791 0
M  V30 269 O 25.9667 1.94001 -0.272097 0
M  V30 270 H 24.5467 0.122291 -0.736922 0
M  V30 271 H 27.2087 -0.397802 -1.90797 0
M  V30 272 H 26.3047 0.603061 -3.06218 0
M  V30 273 N 26.6058 1.57591 -0.0167156 0
M  V30 274 C 27.5688 2.08393 0.954204 0
M  V30 275 C 28.5688 0.996531 1.26198 0
M  V30 276 O 29.7588 1.25858 1.20438 0
M  V30 277 C 26.8908 2.5394 2.27436 0
M  V30 278 H 28.0838 2.95455 0.514451 0
M  V30 279 H 25.6368 1.54582 0.231089 0
M  V30 280 H 26.3718 1.70171 2.76066 0
M  V30 281 H 26.1568 3.33371 2.06412 0
M  V30 282 H 27.6468 2.93512 2.97053 0
M  V30 283 N 28.0839 -0.256276 1.55502 0
M  V30 284 C 29.3299 -0.987079 1.77157 0
M  V30 285 C 29.6629 -1.85327 0.580315 0
M  V30 286 O 28.9379 -1.89874 -0.421686 0
M  V30 287 C 29.2209 -1.85553 3.08613 0
M  V30 288 C 29.0739 -1.01816 4.38125 0
M  V30 289 C 30.3929 -2.8397 3.36228 0
M  V30 290 H 27.5119 -0.357428 0.644526 0
M  V30 291 H 30.1539 -0.258239 1.88237 0
M  V30 292 H 28.3039 -2.47695 2.99298 0
M  V30 293 H 29.9759 -0.416159 4.59419 0
M  V30 294 H 28.2189 -0.322178 4.32602 0
M  V30 295 H 28.8899 -1.65939 5.26468 0
M  V30 296 H 31.3659 -2.31964 3.45445 0
M  V30 297 H 30.2419 -3.41864 4.29442 0
M  V30 298 H 30.5029 -3.59955 2.56681 0
M  V30 299 N 29.562 -1.4872 -0.521534 0
M  V30 300 C 30.492 -1.66771 -1.63431 0
M  V30 301 C 31.473 -0.516499 -1.62069 0
M  V30 302 O 32.658 -0.750013 -1.79132 0
M  V30 303 C 29.788 -1.71515 -3.01993 0
M  V30 304 C 28.742 -2.86222 -3.18216 0
M  V30 305 C 28.068 -2.76061 -4.57924 0
M  V30 306 C 29.368 -4.27419 -3.00184 0
M  V30 307 H 31.062 -2.59932 -1.48579 0
M  V30 308 H 28.608 -1.25089 -0.713358 0
M  V30 309 H 30.561 -1.82731 -3.7972 0
M  V30 310 H 29.285 -0.749393 -3.17886 0
M  V30 311 H 27.944 -2.74575 -2.42908 0
M  V30 312 H 27.592 -1.77437 -4.70665 0
M  V30 313 H 27.292 -3.53037 -4.69722 0
M  V30 314 H 28.816 -2.89256 -5.37739 0
M  V30 315 H 30.23 -4.39855 -3.67697 0
M  V30 316 H 28.627 -5.05458 -3.2347 0
M  V30 317 H 29.697 -4.43293 -1.96518 0
M  V30 318 N 31.0401 0.771051 -1.3745 0
M  V30 319 C 32.2881 1.52661 -1.32435 0
M  V30 320 C 32.6091 1.9479 0.0905024 0
M  V30 321 O 31.8791 1.66348 1.03466 0
M  V30 322 H 30.4591 0.566218 -0.487244 0
M  V30 323 H 33.1211 0.917636 -1.71946 0
M  V30 324 H 32.2171 2.42568 -1.96385 0
M  V30 325 N 32.5182 1.22032 0.997298 0
M  V30 326 C 33.7432 1.06921 1.77715 0
M  V30 327 C 34.1682 -0.376226 1.84299 0
M  V30 328 O 33.5262 -1.27165 1.29223 0
M  V30 329 C 33.5742 1.67996 3.19076 0
M  V30 330 O 32.6782 0.930653 4.01762 0
M  V30 331 H 32.0192 0.375814 0.547412 0
M  V30 332 H 34.5492 1.61737 1.25309 0
M  V30 333 H 34.5592 1.72538 3.69723 0
M  V30 334 H 33.2342 2.73182 3.13599 0
M  V30 335 H 31.8112 0.960917 3.60307 0
M  V30 336 N 33.9963 -1.19345 1.0293 0
M  V30 337 C 34.9263 -2.2481 0.631105 0
M  V30 338 C 35.9073 -1.66245 -0.360104 0
M  V30 339 O 37.0923 -1.92677 -0.242726 0
M  V30 340 C 34.2223 -3.47295 -0.0184607 0
M  V30 341 C 33.1763 -4.18536 0.895073 0
M  V30 342 C 32.5023 -5.34586 0.110592 0
M  V30 343 C 33.8023 -4.73287 2.209 0
M  V30 344 H 35.4963 -2.58372 1.51275 0
M  V30 345 H 33.0423 -1.24194 0.728818 0
M  V30 346 H 34.9953 -4.20268 -0.308675 0
M  V30 347 H 33.7193 -3.12933 -0.934907 0
M  V30 348 H 32.3783 -3.47446 1.16949 0
M  V30 349 H 32.0263 -4.96469 -0.807902 0
M  V30 350 H 31.7263 -5.83183 0.719087 0
M  V30 351 H 33.2503 -6.10355 -0.172871 0
M  V30 352 H 34.6643 -5.38013 1.98028 0
M  V30 353 H 33.0613 -5.32373 2.76946 0
M  V30 354 H 34.1313 -3.91331 2.86336 0
M  V30 355 N 35.4744 -0.807222 -1.35358 0
M  V30 356 C 36.4064 -0.175717 -2.28525 0
M  V30 357 C 37.4194 0.625354 -1.5031 0
M  V30 358 O 38.6084 0.457611 -1.72535 0
M  V30 359 C 35.7084 0.773471 -3.29956 0
M  V30 360 C 34.8814 0.0186296 -4.37396 0
M  V30 361 C 33.9404 0.886395 -5.18681 0
M  V30 362 O 32.9664 0.337106 -5.68201 0
M  V30 363 N 34.1684 2.20839 -5.36852 0
M  V30 364 H 36.9334 -0.976091 -2.83359 0
M  V30 365 H 34.4944 -0.662737 -1.47714 0
M  V30 366 H 36.4864 1.35824 -3.81227 0
M  V30 367 H 35.0564 1.47465 -2.75632 0
M  V30 368 H 34.2764 -0.747349 -3.87051 0
M  V30 369 H 35.5644 -0.501577 -5.06322 0
M  V30 370 H 34.9624 2.67858 -4.98265 0
M  V30 371 H 33.5194 2.74237 -5.91301 0
M  V30 372 N 36.9525 1.47285 -0.560781 0
M  V30 373 C 38.1995 2.02464 -0.038062 0
M  V30 374 C 38.5275 1.43474 1.31322 0
M  V30 375 O 37.7825 0.581311 1.86867 0
M  V30 376 C 38.0815 3.57258 0.100784 0
M  V30 377 C 37.7475 4.35184 -1.18007 0
M  V30 378 C 36.4095 4.56194 -1.53103 0
M  V30 379 C 38.7615 4.80098 -2.02867 0
M  V30 380 C 36.0895 5.19367 -2.729 0
M  V30 381 C 38.4415 5.44593 -3.21871 0
M  V30 382 C 37.1055 5.63835 -3.57276 0
M  V30 383 H 36.3755 0.740869 -0.0139279 0
M  V30 384 H 39.0225 1.76916 -0.733012 0
M  V30 385 H 37.3275 3.81819 0.878724 0
M  V30 386 H 39.0245 3.97606 0.520639 0
M  V30 387 H 35.6145 4.19113 -0.8968 0
M  V30 388 H 39.7985 4.63642 -1.7706 0
M  V30 389 H 35.0545 5.32459 -3.00496 0
M  V30 390 H 39.2285 5.78358 -3.87911 0
M  V30 391 H 36.8555 6.12557 -4.50197 0
M  V30 392 N 38.4306 0.297415 1.54768 0
M  V30 393 C 39.6786 -0.312295 1.99673 0
M  V30 394 C 39.9996 -1.54686 1.18732 0
M  V30 395 O 39.2696 -1.93854 0.282382 0
M  V30 396 H 37.8496 -0.118381 0.73756 0
M  V30 397 H 40.5116 0.407915 1.90583 0
M  V30 398 H 39.6076 -0.586813 3.06534 0
M  V30 399 N 39.9087 -1.5758 0.0250728 0
M  V30 400 C 41.1387 -1.95646 -0.663783 0
M  V30 401 C 41.5467 -0.899935 -1.66427 0
M  V30 402 O 40.8897 0.127191 -1.83259 0
M  V30 403 C 40.9517 -3.29835 -1.43 0
M  V30 404 C 40.6157 -4.53197 -0.588305 0
M  V30 405 C 41.6127 -5.19726 0.13469 0
M  V30 406 C 39.2977 -4.99529 -0.526897 0
M  V30 407 C 41.2917 -6.30902 0.90781 0
M  V30 408 C 38.9787 -6.10589 0.24993 0
M  V30 409 C 39.9767 -6.76134 0.965994 0
M  V30 410 O 39.6647 -7.85062 1.7301 0
M  V30 411 H 39.3967 -0.649282 -0.188174 0
M  V30 412 H 41.9507 -2.05245 0.0799006 0
M  V30 413 H 40.1807 -3.16716 -2.21873 0
M  V30 414 H 41.8697 -3.52833 -2.00658 0
M  V30 415 H 42.6357 -4.84904 0.0965562 0
M  V30 416 H 38.5147 -4.48319 -1.07381 0
M  V30 417 H 42.0587 -6.81995 1.46724 0
M  V30 418 H 37.9557 -6.44849 0.289795 0
M  V30 419 H 38.7237 -8.01708 1.64944 0
M  V30 420 N 41.3868 0.248026 -1.55636 0
M  V30 421 C 42.3348 1.32683 -1.91045 0
M  V30 422 C 43.3288 1.49883 -0.789401 0
M  V30 423 O 44.5348 1.51371 -0.974007 0
M  V30 424 H 40.9098 0.444272 -0.606734 0
M  V30 425 H 42.8808 1.00085 -2.81115 0
M  V30 426 C 41.6298 2.6755 -2.22064 0
M  V30 427 H 40.9528 2.55114 -3.07826 0
M  V30 428 H 42.3928 3.41912 -2.50743 0
M  V30 429 C 40.8518 3.20556 -1.0366 0
M  V30 430 O 41.3818 4.00695 -0.284016 0
M  V30 431 N 39.5878 2.78568 -0.82753 0
M  V30 432 H 39.1348 2.1351 -1.44123 0
M  V30 433 H 39.0928 3.14378 -0.0369803 0
M  V30 434 N 42.8649 1.48995 0.513639 0
M  V30 435 C 44.0929 1.61531 1.29288 0
M  V30 436 C 44.5079 0.281801 1.86685 0
M  V30 437 O 43.8649 -0.731111 1.67215 0
M  V30 438 C 43.9159 2.67449 2.43215 0
M  V30 439 O 43.6369 3.95626 1.88179 0
M  V30 440 C 45.1379 2.90575 3.34785 0
M  V30 441 H 42.3579 0.544165 0.392588 0
M  V30 442 H 44.9019 1.9494 0.617956 0
M  V30 443 H 43.0569 2.36853 3.0656 0
M  V30 444 H 43.4709 4.53868 2.62876 0
M  V30 445 H 44.9449 3.68449 4.11035 0
M  V30 446 H 45.4219 2.00011 3.91015 0
M  V30 447 H 46.0279 3.22538 2.77218 0
M  V30 448 N 44.343 -0.763751 1.37857 0
M  V30 449 C 45.591 -1.51957 1.33243 0
M  V30 450 C 45.912 -1.94835 -0.0801709 0
M  V30 451 O 45.182 -1.66894 -1.02582 0
M  V30 452 H 43.762 -0.563626 0.49024 0
M  V30 453 H 46.424 -0.908504 1.7243 0
M  V30 454 H 45.52 -2.41523 1.97669 0
M  V30 455 N 45.8211 -1.22559 -0.990812 0
M  V30 456 C 47.0671 -1.05297 -1.73322 0
M  V30 457 C 47.4001 0.410655 -1.89808 0
M  V30 458 O 46.6751 1.30439 -1.44277 0
M  V30 459 C 46.9581 -1.76713 -3.13759 0
M  V30 460 C 46.8111 -3.30684 -3.04907 0
M  V30 461 C 48.1301 -1.52121 -4.12974 0
M  V30 462 H 45.2491 -0.38392 -0.629106 0
M  V30 463 H 47.8911 -1.50926 -1.15418 0
M  V30 464 H 46.0411 -1.37924 -3.63193 0
M  V30 465 H 47.7131 -3.7893 -2.63077 0
M  V30 466 H 45.9561 -3.60253 -2.41661 0
M  V30 467 H 46.6271 -3.75833 -4.04294 0
M  V30 468 H 49.1031 -1.85819 -3.72304 0
M  V30 469 H 47.9791 -2.04582 -5.0935 0
M  V30 470 H 48.2401 -0.454257 -4.3976 0
M  V30 471 N 47.2992 1.18797 -1.03562 0
M  V30 472 C 48.5482 1.87978 -0.731235 0
M  V30 473 C 48.8612 1.80911 0.743671 0
M  V30 474 O 50.0672 2.45407 1.16137 0
M  V30 475 C 48.5232 3.3721 -1.25768 0
M  V30 476 C 48.1312 3.52818 -2.76085 0
M  V30 477 C 49.8752 4.11825 -1.0296 0
M  V30 478 C 47.7822 4.9598 -3.22114 0
M  V30 479 H 46.7122 0.704063 -0.269835 0
M  V30 480 H 49.3632 1.34266 -1.25079 0
M  V30 481 H 47.7452 3.90359 -0.666011 0
M  V30 482 H 48.9192 3.09965 -3.40966 0
M  V30 483 H 47.2342 2.91602 -2.97249 0
M  V30 484 H 49.8312 5.17411 -1.34869 0
M  V30 485 H 50.1742 4.16287 0.0333546 0
M  V30 486 H 50.7072 3.64833 -1.58562 0
M  V30 487 H 47.4462 4.96684 -4.27768 0
M  V30 488 H 46.9662 5.39569 -2.61965 0
M  V30 489 H 48.6452 5.6467 -3.15844 0
M  V30 490 N 48.7773 0.814389 1.34928 0
M  V30 491 C 49.7253 0.218424 2.31572 0
M  V30 492 C 50.7193 -0.636128 1.57002 0
M  V30 493 O 51.9253 -0.52842 1.72069 0
M  V30 494 H 48.3003 0.0518799 0.750208 0
M  V30 495 H 50.2713 1.04852 2.79372 0
M  V30 496 C 49.0203 -0.61207 3.4227 0
M  V30 497 H 48.3433 0.0361578 3.99784 0
M  V30 498 H 49.7833 -0.995317 4.12152 0
M  V30 499 C 48.2423 -1.78087 2.85984 0
M  V30 500 O 48.7723 -2.8787 2.80168 0
M  V30 501 N 46.9783 -1.59488 2.42924 0
M  V30 502 H 46.5253 -0.701874 2.47854 0
M  V30 503 H 46.4833 -2.37846 2.05613 0
M  V30 504 N 50.2554 -1.46986 0.568584 0
M  V30 505 C 51.2184 -2.28624 -0.162366 0
M  V30 506 C 52.2184 -1.37596 -0.832103 0
M  V30 507 O 53.4084 -1.60115 -0.68622 0
M  V30 508 C 50.5404 -3.17596 -1.23878 0
M  V30 509 H 51.7334 -2.94722 0.554899 0
M  V30 510 H 49.2864 -1.52863 0.325976 0
M  V30 511 H 50.0214 -2.56214 -1.98808 0
M  V30 512 H 49.8064 -3.846 -0.763219 0
M  V30 513 H 51.2964 -3.79078 -1.75185 0
M  V30 514 N 51.7335 -0.305618 -1.54608 0
M  V30 515 C 53.1445 0.186098 -1.8577 0
M  V30 516 C 53.4955 1.53058 -1.22751 0
M  V30 517 O 52.6205 2.09888 -0.526893 0
M  V30 518 C 53.2155 0.344449 -3.37044 0
M  V30 519 C 51.7745 0.780384 -3.68221 0
M  V30 520 C 50.9215 -0.108554 -2.77087 0
M  V30 521 H 53.8725 -0.526485 -1.49712 0
M  V30 522 H 53.8935 1.17828 -3.61796 0
M  V30 523 H 53.4055 -0.634235 -3.82883 0
M  V30 524 H 51.5065 1.76945 -3.27904 0
M  V30 525 H 51.6195 0.596572 -4.75371 0
M  V30 526 H 49.9835 0.412931 -2.5133 0
M  V30 527 H 50.7665 -1.08368 -3.25747 0
M  V30 528 N 53.2116 1.57565 -0.0334293 0
M  V30 529 C 54.1436 2.0739 0.975811 0
M  V30 530 C 55.1566 0.998166 1.2861 0
M  V30 531 O 56.3456 1.27426 1.25 0
M  V30 532 C 53.4456 2.4871 2.30209 0
M  V30 533 C 52.6186 3.79413 2.17634 0
M  V30 534 C 51.6776 4.07237 3.33233 0
M  V30 535 O 50.7036 4.77425 3.09927 0
M  V30 536 N 51.9056 3.5775 4.5716 0
M  V30 537 H 54.6706 2.94598 0.55066 0
M  V30 538 H 52.2316 1.61173 0.15323 0
M  V30 539 H 54.2236 2.64413 3.06378 0
M  V30 540 H 52.7936 1.66845 2.64351 0
M  V30 541 H 52.0136 3.73465 1.26165 0
M  V30 542 H 53.3016 4.65038 2.0644 0
M  V30 543 H 52.6996 3.00976 4.78989 0
M  V30 544 H 51.2566 3.78724 5.30482 0
M  V30 545 N 54.6897 -0.239769 1.55765 0
M  V30 546 C 55.6367 -1.29696 1.90913 0
M  V30 547 C 56.6067 -1.47478 0.764164 0
M  V30 548 O 57.7917 -1.61345 1.01845 0
M  V30 549 C 54.9317 -2.64598 2.21544 0
M  V30 550 C 54.0447 -2.54765 3.48882 0
M  V30 551 C 53.1797 -3.82069 3.69049 0
M  V30 552 C 52.2187 -3.66883 4.89963 0
M  V30 553 N 51.3557 -4.86094 5.06614 0
M  V30 554 H 56.1957 -0.990224 2.81067 0
M  V30 555 H 53.7327 -0.477684 1.39128 0
M  V30 556 H 55.6907 -3.43132 2.3731 0
M  V30 557 H 54.3207 -2.93405 1.34585 0
M  V30 558 H 53.3727 -1.67763 3.41409 0
M  V30 559 H 54.6847 -2.39457 4.37563 0
M  V30 560 H 53.8387 -4.69046 3.84812 0
M  V30 561 H 52.5777 -4.00282 2.78614 0
M  V30 562 H 51.5827 -2.78289 4.74168 0
M  V30 563 H 52.8077 -3.50157 5.81865 0
M  V30 564 H 50.7537 -5.04655 4.19117 0
M  V30 565 H 50.6707 -4.73443 5.89396 0
M  V30 566 H 51.9387 -5.74549 5.26795 0
M  V30 567 N 56.1678 -1.49265 -0.50573 0
M  V30 568 C 57.4138 -1.58748 -1.26202 0
M  V30 569 C 57.7468 -0.271227 -1.92297 0
M  V30 570 O 57.0218 0.724831 -1.80489 0
M  V30 571 C 57.3048 -2.74332 -2.33268 0
M  V30 572 C 57.1578 -4.15737 -1.71705 0
M  V30 573 C 58.4768 -2.85576 -3.34865 0
M  V30 574 H 55.5958 -0.577826 -0.457478 0
M  V30 575 H 58.2378 -1.81532 -0.560897 0
M  V30 576 H 56.3878 -2.55036 -2.93068 0
M  V30 577 H 58.0598 -4.46537 -1.15769 0
M  V30 578 H 56.3028 -4.21605 -1.02135 0
M  V30 579 H 56.9738 -4.92477 -2.49341 0
M  V30 580 H 59.4498 -3.03127 -2.8505 0
M  V30 581 H 58.3258 -3.68135 -4.07146 0
M  V30 582 H 58.5868 -1.94732 -3.96903 0
M  V30 583 N 57.6459 0.756429 -1.3826 0
M  V30 584 C 58.8949 1.51082 -1.3363 0
M  V30 585 C 59.2079 1.95467 0.0720068 0
M  V30 586 O 60.4139 2.7043 0.240834 0
M  V30 587 C 58.8699 2.72893 -2.34644 0
M  V30 588 C 58.4779 2.35544 -3.81081 0
M  V30 589 C 60.2219 3.50791 -2.39052 0
M  V30 590 C 58.1289 3.53948 -4.73787 0
M  V30 591 H 57.0589 0.56727 -0.49671 0
M  V30 592 H 59.7099 0.827147 -1.638 0
M  V30 593 H 58.0919 3.43227 -1.97513 0
M  V30 594 H 59.2659 1.72894 -4.27135 0
M  V30 595 H 57.5809 1.70786 -3.79764 0
M  V30 596 H 60.1779 4.38823 -3.05513 0
M  V30 597 H 60.5209 3.91745 -1.40861 0
M  V30 598 H 61.0539 2.87467 -2.74968 0
M  V30 599 H 57.7929 3.18064 -5.73163 0
M  V30 600 H 57.3129 4.15651 -4.32428 0
M  V30 601 H 58.9919 4.20566 -4.91663 0
M  V30 602 N 59.124 1.23083 0.984299 0
M  V30 603 C 60.034 1.02515 2.11016 0
M  V30 604 C 61.05 -0.0291702 1.73976 0
M  V30 605 O 62.226 0.165434 2.00719 0
M  V30 606 C 59.291 0.614673 3.41208 0
M  V30 607 C 58.352 1.74359 3.92297 0
M  V30 608 C 57.585 1.35261 5.16275 0
M  V30 609 O 57.808 0.235136 5.69915 0
M  V30 610 O 56.742 2.17227 5.61334 0
M  V30 611 H 60.568 1.96862 2.31255 0
M  V30 612 H 58.153 1.01753 1.09392 0
M  V30 613 H 60.035 0.396518 4.1953 0
M  V30 614 H 58.71 -0.299851 3.22308 0
M  V30 615 H 57.617 2.01635 3.1511 0
M  V30 616 H 58.95 2.63629 4.15645 0
M  V30 617 N 60.6021 -1.18246 1.0419 0
M  V30 618 C 61.5121 -2.25574 0.644476 0
M  V30 619 C 62.5281 -1.70845 -0.329826 0
M  V30 620 O 63.7041 -2.00554 -0.184443 0
M  V30 621 C 60.7691 -3.46697 0.014877 0
M  V30 622 C 59.8301 -4.16554 1.03834 0
M  V30 623 C 59.0631 -5.31894 0.438692 0
M  V30 624 O 59.2861 -5.65385 -0.754752 0
M  V30 625 O 58.2201 -5.90459 1.168 0
M  V30 626 H 62.0461 -2.61836 1.53869 0
M  V30 627 H 59.6311 -1.25352 0.812854 0
M  V30 628 H 61.5131 -4.20062 -0.335538 0
M  V30 629 H 60.1881 -3.12255 -0.853138 0
M  V30 630 H 59.0951 -3.45251 1.44057 0
M  V30 631 H 60.4281 -4.54998 1.87716 0
M  V30 632 N 62.0802 -0.821533 -1.34494 0
M  V30 633 C 63.3272 -0.408946 -1.98328 0
M  V30 634 C 63.6552 1.02764 -1.65136 0
M  V30 635 O 62.9102 1.73026 -0.914349 0
M  V30 636 C 63.2092 -0.556512 -3.53041 0
M  V30 637 C 62.8752 -1.95861 -4.0614 0
M  V30 638 C 61.5372 -2.34217 -4.20352 0
M  V30 639 C 63.8892 -2.87523 -4.34718 0
M  V30 640 C 61.2172 -3.63572 -4.6047 0
M  V30 641 C 63.5692 -4.1634 -4.76281 0
M  V30 642 C 62.2332 -4.54675 -4.88699 0
M  V30 643 H 61.5032 -0.149644 -0.725732 0
M  V30 644 H 64.1502 -1.04521 -1.6046 0
M  V30 645 H 62.4552 0.163148 -3.9146 0
M  V30 646 H 64.1522 -0.217826 -4.00408 0
M  V30 647 H 60.7422 -1.65066 -3.95539 0
M  V30 648 H 64.9262 -2.59133 -4.23277 0
M  V30 649 H 60.1822 -3.93101 -4.68275 0
M  V30 650 H 64.3562 -4.87455 -4.97354 0
M  V30 651 H 61.9832 -5.54959 -5.19542 0
M  V30 652 N 63.5583 1.46682 -0.576371 0
M  V30 653 C 64.7883 2.06498 -0.0648694 0
M  V30 654 C 65.1963 1.42665 1.24271 0
M  V30 655 O 64.5393 0.523886 1.76071 0
M  V30 656 C 64.6013 3.5904 0.181816 0
M  V30 657 C 64.2653 4.45028 -1.0392 0
M  V30 658 C 65.2623 4.81959 -1.94966 0
M  V30 659 C 62.9473 4.86259 -1.25927 0
M  V30 660 C 64.9413 5.58942 -3.06371 0
M  V30 661 C 62.6283 5.63002 -2.37638 0
M  V30 662 C 63.6263 5.99257 -3.2769 0
M  V30 663 O 63.3143 6.7445 -4.37461 0
M  V30 664 H 63.0463 0.674028 -0.0515987 0
M  V30 665 H 65.6003 1.89393 -0.794951 0
M  V30 666 H 63.8303 3.74429 0.966436 0
M  V30 667 H 65.5193 4.00806 0.641047 0
M  V30 668 H 66.2853 4.50689 -1.79177 0
M  V30 669 H 62.1643 4.57494 -0.567448 0
M  V30 670 H 65.7083 5.87158 -3.76684 0
M  V30 671 H 61.6053 5.93686 -2.53392 0
M  V30 672 H 62.3733 6.92867 -4.35749 0
M  V30 673 N 65.0364 0.313813 1.54444 0
M  V30 674 C 65.9844 -0.572171 2.25453 0
M  V30 675 C 66.9784 -1.12657 1.2651 0
M  V30 676 O 68.1844 -1.07573 1.44319 0
M  V30 677 H 64.5594 -0.203146 0.724041 0
M  V30 678 H 66.5304 0.0491145 2.9836 0
M  V30 679 C 65.2794 -1.72626 3.0182 0
M  V30 680 H 64.6024 -1.30891 3.77767 0
M  V30 681 H 66.0424 -2.32199 3.54767 0
M  V30 682 C 64.5014 -2.63806 2.09542 0
M  V30 683 O 65.0314 -3.65256 1.67185 0
M  V30 684 N 63.2374 -2.31824 1.75232 0
M  V30 685 H 62.7844 -1.49368 2.09873 0
M  V30 686 H 62.7424 -2.93095 1.13767 0
M  V30 687 N 66.5145 -1.57545 0.0417849 0
M  V30 688 C 67.4465 -2.07904 -0.964799 0
M  V30 689 C 68.4595 -1.00497 -1.28079 0
M  V30 690 O 69.6485 -1.28087 -1.24322 0
M  V30 691 C 66.7485 -2.49928 -2.28887 0
M  V30 692 C 65.9215 -3.80562 -2.15619 0
M  V30 693 C 64.9805 -4.08999 -3.31069 0
M  V30 694 O 64.0065 -4.79061 -3.0739 0
M  V30 695 N 65.2085 -3.6017 -4.55256 0
M  V30 696 H 67.9735 -2.94886 -0.535029 0
M  V30 697 H 65.5345 -1.61252 -0.144681 0
M  V30 698 H 67.5265 -2.66034 -3.04972 0
M  V30 699 H 66.0965 -1.68245 -2.63463 0
M  V30 700 H 65.3165 -3.74129 -1.24183 0
M  V30 701 H 66.6045 -4.66126 -2.03971 0
M  V30 702 H 66.0025 -3.03512 -4.77386 0
M  V30 703 H 64.5595 -3.81532 -5.28466 0
M  V30 704 N 67.9926 0.231505 -1.5589 0
M  V30 705 C 69.2206 0.974505 -1.82513 0
M  V30 706 C 69.6356 1.78344 -0.619591 0
M  V30 707 O 68.9926 1.77792 0.411848 0
M  V30 708 C 69.0436 1.90007 -3.07538 0
M  V30 709 O 68.7646 1.12385 -4.2344 0
M  V30 710 C 70.2656 2.75779 -3.47075 0
M  V30 711 H 67.4856 0.286065 -0.606966 0
M  V30 712 H 70.0296 0.249739 -2.02969 0
M  V30 713 H 68.1846 2.57891 -2.89086 0
M  V30 714 H 68.5986 1.75125 -4.944 0
M  V30 715 H 70.0726 3.36443 -4.37619 0
M  V30 716 H 70.5496 3.47672 -2.68367 0
M  V30 717 H 71.1556 2.13323 -3.67931 0
M  V30 718 N 69.4707 1.49531 0.497807 0
M  V30 719 C 70.7167 1.60388 1.25089 0
M  V30 720 C 71.0717 0.288328 1.90227 0
M  V30 721 O 70.3647 -0.711706 1.77891 0
M  V30 722 C 70.5587 2.70252 2.33878 0
M  V30 723 C 70.3877 4.12363 1.79408 0
M  V30 724 C 69.1577 4.7911 1.60566 0
M  V30 725 C 71.3557 4.97491 1.30412 0
M  V30 726 N 69.3377 6.05525 1.01059 0
M  V30 727 C 70.7087 6.14411 0.830595 0
M  V30 728 C 72.7637 4.83466 1.19015 0
M  V30 729 C 71.4667 7.1885 0.254371 0
M  V30 730 C 73.4927 5.88057 0.627892 0
M  V30 731 C 72.8547 7.04208 0.16461 0
M  V30 732 H 68.9537 0.641246 0.447579 0
M  V30 733 H 71.5377 1.86549 0.557441 0
M  V30 734 H 69.7087 2.45858 3.0068 0
M  V30 735 H 71.4407 2.70613 3.00917 0
M  V30 736 H 68.1957 4.35961 1.85026 0
M  V30 737 H 68.6197 6.73028 0.732236 0
M  V30 738 H 73.2617 3.93978 1.53431 0
M  V30 739 H 70.9797 8.08036 -0.102052 0
M  V30 740 H 74.5657 5.79266 0.542444 0
M  V30 741 H 73.4457 7.83757 -0.263669 0
M  V30 742 N 70.9488 -0.749086 1.3866 0
M  V30 743 C 72.1948 -1.51056 1.35314 0
M  V30 744 C 72.5278 -1.94121 -0.0553751 0
M  V30 745 O 71.8028 -1.65763 -1.01749 0
M  V30 746 C 72.0858 -2.76003 2.31288 0
M  V30 747 C 71.9388 -2.39047 3.8102 0
M  V30 748 C 73.2578 -3.78046 2.2532 0
M  V30 749 H 70.3768 -0.547972 0.492844 0
M  V30 750 H 73.0188 -0.857628 1.69543 0
M  V30 751 H 71.1688 -3.31716 2.02229 0
M  V30 752 H 72.8408 -1.89074 4.20771 0
M  V30 753 H 71.0838 -1.71449 3.98482 0
M  V30 754 H 71.7548 -3.28462 4.4364 0
M  V30 755 H 74.2308 -3.31884 2.50983 0
M  V30 756 H 73.1068 -4.63159 2.94576 0
M  V30 757 H 73.3678 -4.23957 1.25352 0
M  V30 758 N 72.4269 -1.23603 -0.977757 0
M  V30 759 C 73.3769 -0.986664 -2.05545 0
M  V30 760 C 74.3609 0.0683009 -1.60755 0
M  V30 761 O 75.5529 -0.144162 -1.76412 0
M  V30 762 C 72.6819 -0.582623 -3.3832 0
M  V30 763 C 71.7679 -1.67313 -3.89701 0
M  V30 764 N 72.1589 -2.90394 -4.14132 0
M  V30 765 C 70.4569 -1.54832 -4.18262 0
M  V30 766 C 71.1579 -3.61017 -4.56116 0
M  V30 767 N 70.1339 -2.8854 -4.60701 0
M  V30 768 H 73.9359 -1.92139 -2.22396 0
M  V30 769 H 71.4499 -1.1358 -1.16074 0
M  V30 770 H 73.4469 -0.38524 -4.15116 0
M  V30 771 H 72.1069 0.34503 -3.22862 0
M  V30 772 H 73.1179 -3.26673 -4.01877 0
M  V30 773 H 69.7949 -0.687969 -4.11793 0
M  V30 774 H 71.1849 -4.66544 -4.83514 0
M  V30 775 N 73.905 1.17692 -1.04816 0
M  V30 776 C 75.321 1.39863 -0.768794 0
M  V30 777 C 75.521 1.91118 0.638451 0
M  V30 778 O 74.577 2.10036 1.40146 0
M  V30 779 C 75.89 2.39274 -1.82122 0
M  V30 780 C 77.438 2.52987 -1.843 0
M  V30 781 C 77.913 3.55669 -2.88555 0
M  V30 782 N 79.404 3.63183 -2.87493 0
M  V30 783 C 80.139 4.42381 -3.64811 0
M  V30 784 N 79.635 5.25125 -4.51903 0
M  V30 785 N 81.428 4.37217 -3.53267 0
M  V30 786 H 73.579 0.82752 -1.95617 0
M  V30 787 H 75.842 0.426123 -0.846831 0
M  V30 788 H 75.548 2.08678 -2.83102 0
M  V30 789 H 75.422 3.38725 -1.65967 0
M  V30 790 H 77.809 2.82896 -0.839869 0
M  V30 791 H 77.89 1.53623 -2.04532 0
M  V30 792 H 77.534 3.26499 -3.89051 0
M  V30 793 H 77.464 4.54728 -2.65575 0
M  V30 794 H 79.955 3.04103 -2.24343 0
M  V30 795 H 80.268 5.82728 -5.07591 0
M  V30 796 H 78.613 5.24519 -4.55966 0
M  V30 797 H 81.804 3.71626 -2.84625 0
M  V30 798 H 81.977 4.98696 -4.13771 0
M  V30 799 N 75.3831 0.828654 1.34056 0
M  V30 800 C 76.6131 0.431993 2.02033 0
M  V30 801 C 77.0211 -0.96844 1.62536 0
M  V30 802 O 76.3641 -1.6391 0.829408 0
M  V30 803 C 76.4261 0.461224 3.56529 0
M  V30 804 C 76.0901 1.81599 4.1937 0
M  V30 805 C 77.0871 2.7777 4.39477 0
M  V30 806 C 74.7721 2.10604 4.56017 0
M  V30 807 C 76.7661 4.01115 4.95364 0
M  V30 808 C 74.4531 3.34207 5.11614 0
M  V30 809 C 75.4511 4.2928 5.31232 0
M  V30 810 O 75.1391 5.50699 5.8565 0
M  V30 811 H 74.8711 0.170943 0.654029 0
M  V30 812 H 77.4251 1.11988 1.72185 0
M  V30 813 H 75.6551 -0.283388 3.8566 0
M  V30 814 H 77.3441 0.0838149 4.05813 0
M  V30 815 H 78.1101 2.56659 4.11523 0
M  V30 816 H 73.9891 1.37402 4.40047 0
M  V30 817 H 77.5331 4.75333 5.10592 0
M  V30 818 H 73.4301 3.55179 5.38997 0
M  V30 819 H 74.1981 5.52298 6.04077 0
M  V30 820 N 76.8612 -1.46375 0.584142 0
M  V30 821 C 78.1092 -2.01978 0.0701287 0
M  V30 822 C 78.4302 -1.4579 -1.295 0
M  V30 823 O 77.7002 -0.64314 -1.85042 0
M  V30 824 H 76.2802 -0.746648 0.0229345 0
M  V30 825 H 78.9422 -1.79461 0.760245 0
M  V30 826 H 78.0382 -3.121 0.0022064 0
M  V30 827 N 78.3393 -0.321999 -1.54275 0
M  V30 828 C 79.2493 0.553631 -2.27974 0
M  V30 829 C 80.2653 1.13054 -1.32268 0
M  V30 830 O 81.4413 1.15084 -1.6528 0
M  V30 831 C 78.5063 1.69927 -3.02201 0
M  V30 832 C 77.5673 1.15433 -4.1349 0
M  V30 833 C 76.8003 2.24537 -4.84168 0
M  V30 834 O 77.0233 3.44852 -4.5435 0
M  V30 835 O 75.9573 1.90044 -5.7111 0
M  V30 836 H 79.7833 -0.0448345 -3.03667 0
M  V30 837 H 77.3683 -0.0877418 -1.49142 0
M  V30 838 H 79.2503 2.3663 -3.48689 0
M  V30 839 H 77.9253 2.28395 -2.29385 0
M  V30 840 H 76.8323 0.452436 -3.71354 0
M  V30 841 H 78.1653 0.614805 -4.88345 0
M  V30 842 N 79.8174 1.5752 -0.0501392 0
M  V30 843 C 81.0424 1.97376 0.636997 0
M  V30 844 C 81.4674 0.927466 1.63645 0
M  V30 845 O 80.8254 -0.10941 1.8097 0
M  V30 846 C 80.8734 3.36304 1.30123 0
M  V30 847 O 79.9774 3.34156 2.41689 0
M  V30 848 H 79.3184 0.642998 0.165679 0
M  V30 849 H 81.8484 2.04258 -0.118233 0
M  V30 850 H 81.8584 3.73008 1.65315 0
M  V30 851 H 80.5334 4.11993 0.568746 0
M  V30 852 H 79.1104 3.09196 2.08451 0
M  V30 853 N 81.2955 -0.223234 1.56011 0
M  V30 854 C 82.5445 -0.945912 1.78144 0
M  V30 855 C 82.8575 -1.85567 0.618396 0
M  V30 856 O 84.0635 -2.61688 0.723318 0
M  V30 857 C 82.5195 -1.73216 3.15475 0
M  V30 858 C 82.1275 -0.868619 4.39499 0
M  V30 859 C 83.8715 -2.44615 3.46935 0
M  V30 860 C 81.7785 -1.65212 5.67855 0
M  V30 861 H 80.7085 -0.356929 0.664167 0
M  V30 862 H 83.3595 -0.199845 1.82409 0
M  V30 863 H 81.7415 -2.52107 3.05382 0
M  V30 864 H 82.9155 -0.120366 4.60643 0
M  V30 865 H 81.2305 -0.26683 4.15544 0
M  V30 866 H 83.8275 -3.03732 4.40058 0
M  V30 867 H 84.1705 -3.17417 2.69355 0
M  V30 868 H 84.7035 -1.72715 3.58349 0
M  V30 869 H 81.4425 -0.967407 6.48322 0
M  V30 870 H 80.9625 -2.37503 5.50774 0
M  V30 871 H 82.6415 -2.21322 6.07968 0
M  V30 872 N 82.7736 -1.49793 -0.48987 0
M  V30 873 C 83.7036 -1.70201 -1.59856 0
M  V30 874 C 84.6846 -0.55076 -1.60937 0
M  V30 875 O 85.8696 -0.787841 -1.77501 0
M  V30 876 C 82.9996 -1.77882 -2.98287 0
M  V30 877 C 81.9536 -2.92907 -3.12073 0
M  V30 878 C 81.2796 -2.85712 -4.51965 0
M  V30 879 C 82.5796 -4.3369 -2.91051 0
M  V30 880 H 84.2736 -2.63025 -1.43032 0
M  V30 881 H 81.8196 -1.26574 -0.686664 0
M  V30 882 H 83.7726 -1.90744 -3.75759 0
M  V30 883 H 82.4966 -0.816653 -3.16225 0
M  V30 884 H 81.1556 -2.79665 -2.37029 0
M  V30 885 H 80.8036 -1.8738 -4.66795 0
M  V30 886 H 80.5036 -3.62921 -4.62128 0
M  V30 887 H 82.0276 -3.00598 -5.31482 0
M  V30 888 H 83.4416 -4.47555 -3.58284 0
M  V30 889 H 81.8386 -5.12205 -3.12675 0
M  V30 890 H 82.9086 -4.47362 -1.87071 0
M  V30 891 N 84.2517 0.741722 -1.39055 0
M  V30 892 C 85.6627 1.31966 -1.32068 0
M  V30 893 C 86.0137 1.96192 0.0180797 0
M  V30 894 O 85.1387 1.95861 0.920196 0
M  V30 895 C 85.7337 2.39954 -2.39181 0
M  V30 896 C 84.2927 2.93438 -2.35735 0
M  V30 897 C 83.4397 1.66936 -2.21422 0
M  V30 898 H 86.3907 0.539721 -1.4924 0
M  V30 899 H 86.4117 3.20182 -2.05581 0
M  V30 900 H 85.9237 1.9318 -3.36605 0
M  V30 901 H 84.0247 3.4451 -1.41929 0
M  V30 902 H 84.1377 3.4701 -3.30335 0
M  V30 903 H 82.5017 1.91016 -1.68478 0
M  V30 904 H 83.2847 1.22224 -3.20806 0
M  V30 905 N 85.7298 1.2412 0.971189 0
M  V30 906 C 86.9578 1.10575 1.74874 0
M  V30 907 C 87.3728 -0.342017 1.85676 0
M  V30 908 O 86.7298 -1.23617 1.34258 0
M  V30 909 C 86.7808 1.73579 3.171 0
M  V30 910 O 86.5018 3.12695 3.06844 0
M  V30 911 C 88.0028 1.65598 4.11208 0
M  V30 912 H 85.2228 0.386504 0.548503 0
M  V30 913 H 87.7668 1.64156 1.21955 0
M  V30 914 H 85.9218 1.24009 3.67016 0
M  V30 915 H 86.3358 3.43412 3.96445 0
M  V30 916 H 87.8098 2.1437 5.08674 0
M  V30 917 H 88.2868 0.616532 4.34851 0
M  V30 918 H 88.8928 2.14578 3.67201 0
M  V30 919 N 87.2079 -1.17134 1.05439 0
M  V30 920 C 88.4359 -1.91372 0.786414 0
M  V30 921 C 88.8509 -1.76955 -0.658202 0
M  V30 922 O 88.2079 -1.10838 -1.44987 0
M  V30 923 C 88.2589 -3.42356 1.1608 0
M  V30 924 O 87.9799 -3.56332 2.54871 0
M  V30 925 C 89.4809 -4.33663 0.919322 0
M  V30 926 H 86.7009 -0.607118 0.285743 0
M  V30 927 H 89.2449 -1.48525 1.40572 0
M  V30 928 H 87.3999 -3.82939 0.586191 0
M  V30 929 H 87.8139 -4.49896 2.69618 0
M  V30 930 H 89.2879 -5.38099 1.231 0
M  V30 931 H 89.7649 -4.38959 -0.145359 0
M  V30 932 H 90.3709 -3.98796 1.47789 0
M  V30 933 N 88.686 -0.835752 -1.33615 0
M  V30 934 C 89.616 -0.281739 -2.31794 0
M  V30 935 C 90.597 0.608833 -1.58831 0
M  V30 936 O 91.782 0.533035 -1.86741 0
M  V30 937 C 88.912 0.546612 -3.42971 0
M  V30 938 C 87.866 -0.247904 -4.27281 0
M  V30 939 C 87.192 0.704001 -5.30045 0
M  V30 940 C 88.492 -1.46324 -5.01385 0
M  V30 941 H 90.186 -1.10206 -2.78379 0
M  V30 942 H 87.732 -0.531388 -1.33837 0
M  V30 943 H 89.685 0.944467 -4.1068 0
M  V30 944 H 88.409 1.40011 -2.95067 0
M  V30 945 H 87.068 -0.627281 -3.61194 0
M  V30 946 H 86.716 1.55381 -4.78399 0
M  V30 947 H 86.416 0.176524 -5.87335 0
M  V30 948 H 87.94 1.09944 -6.0062 0
M  V30 949 H 89.354 -1.13871 -5.61877 0
M  V30 950 H 87.751 -1.92728 -5.6831 0
M  V30 951 H 88.821 -2.23467 -4.30338 0
M  V30 952 N 90.1641 1.46063 -0.591896 0
M  V30 953 C 91.3921 2.06717 -0.0868936 0
M  V30 954 C 91.8071 1.43916 1.22203 0
M  V30 955 O 91.1641 0.547698 1.74088 0
M  V30 956 C 91.2151 3.6142 0.0758725 0
M  V30 957 O 90.9361 4.21874 -1.18126 0
M  V30 958 C 92.4371 4.39025 0.61416 0
M  V30 959 H 89.6571 0.668162 -0.0616518 0
M  V30 960 H 92.2011 1.8755 -0.815175 0
M  V30 961 H 90.3561 3.79983 0.754413 0
M  V30 962 H 90.7701 5.14861 -1.00092 0
M  V30 963 H 92.2441 5.4783 0.677193 0
M  V30 964 H 92.7211 4.07708 1.63312 0
M  V30 965 H 93.3271 4.2529 -0.0298142 0
M  V30 966 N 91.6422 0.330177 1.54103 0
M  V30 967 C 92.8702 -0.272179 2.05102 0
M  V30 968 C 93.2852 -1.45267 1.20595 0
M  V30 969 O 92.6422 -1.8094 0.238144 0
M  V30 970 C 92.6932 -0.70023 3.54653 0
M  V30 971 O 92.4142 0.433301 4.35952 0
M  V30 972 C 93.9152 -1.3647 4.21771 0
M  V30 973 H 91.1352 -0.0549159 0.668749 0
M  V30 974 H 93.6792 0.478285 1.98828 0
M  V30 975 H 91.8342 -1.40066 3.61193 0
M  V30 976 H 92.2482 0.0947539 5.24414 0
M  V30 977 H 93.7222 -1.61509 5.27843 0
M  V30 978 H 94.1992 -2.31409 3.73292 0
M  V30 979 H 94.8052 -0.706675 4.19388 0
M  V30 980 N 93.1203 -1.57491 0.0584922 0
M  V30 981 C 94.0503 -2.14988 -0.911178 0
M  V30 982 C 95.0313 -1.07343 -1.31952 0
M  V30 983 O 96.2163 -1.35318 -1.39294 0
M  V30 984 C 93.3463 -2.70078 -2.18347 0
M  V30 985 C 92.3003 -3.82771 -1.91495 0
M  V30 986 C 91.6263 -4.24408 -3.25241 0
M  V30 987 C 92.9263 -5.07592 -1.23075 0
M  V30 988 H 94.6203 -2.96263 -0.432246 0
M  V30 989 H 92.1663 -1.42512 -0.206469 0
M  V30 990 H 94.1193 -3.08943 -2.86587 0
M  V30 991 H 92.8433 -1.86005 -2.68458 0
M  V30 992 H 91.5023 -3.44389 -1.25664 0
M  V30 993 H 91.1503 -3.37275 -3.73168 0
M  V30 994 H 90.8503 -5.00366 -3.08071 0
M  V30 995 H 92.3743 -4.65879 -3.94701 0
M  V30 996 H 93.7883 -5.43857 -1.81362 0
M  V30 997 H 92.1853 -5.88741 -1.16207 0
M  V30 998 H 93.2553 -4.84454 -0.207847 0
M  V30 999 N 94.5984 0.214957 -1.56127 0
M  V30 1000 C 95.8444 0.935325 -1.80619 0
M  V30 1001 C 96.1994 1.81706 -0.632507 0
M  V30 1002 O 95.4924 1.87931 0.373182 0
M  V30 1003 C 95.6864 1.80314 -3.0858 0
M  V30 1004 C 95.5154 1.00691 -4.38282 0
M  V30 1005 C 94.2854 0.699211 -5.00439 0
M  V30 1006 C 96.4834 0.369057 -5.12974 0
M  V30 1007 N 94.4654 -0.117734 -6.13787 0
M  V30 1008 C 95.8364 -0.310981 -6.1922 0
M  V30 1009 C 97.8914 0.282759 -4.97096 0
M  V30 1010 C 96.5944 -1.06907 -7.11311 0
M  V30 1011 C 98.6204 -0.461881 -5.89594 0
M  V30 1012 C 97.9824 -1.13044 -6.9527 0
M  V30 1013 H 94.0814 0.322307 -0.71249 0
M  V30 1014 H 96.6654 0.205649 -1.93611 0
M  V30 1015 H 94.8364 2.50458 -2.96859 0
M  V30 1016 H 96.5684 2.46148 -3.21237 0
M  V30 1017 H 93.3234 1.01884 -4.62511 0
M  V30 1018 H 93.7474 -0.515235 -6.75037 0
M  V30 1019 H 98.3894 0.785292 -4.15443 0
M  V30 1020 H 96.1074 -1.5831 -7.92442 0
M  V30 1021 H 99.6934 -0.529746 -5.79383 0
M  V30 1022 H 98.5734 -1.69742 -7.65609 0
M  V30 1023 N 96.0765 1.50051 0.48192 0
M  V30 1024 C 97.3015 1.64508 1.26301 0
M  V30 1025 C 97.7265 0.323851 1.85291 0
M  V30 1026 O 97.0845 -0.710969 1.66778 0
M  V30 1027 C 97.1325 2.7305 2.35533 0
M  V30 1028 O 96.2365 2.3355 3.39895 0
M  V30 1029 H 95.5775 0.549978 0.372048 0
M  V30 1030 H 98.1075 1.9636 0.574786 0
M  V30 1031 H 98.1175 2.95799 2.8101 0
M  V30 1032 H 96.7925 3.68946 1.91967 0
M  V30 1033 H 95.3695 2.21205 3.00204 0
M  V30 1034 N 97.5546 -0.734337 1.39446 0
M  V30 1035 C 98.4846 -1.86155 1.40955 0
M  V30 1036 C 99.4656 -1.67898 0.272827 0
M  V30 1037 O 100.651 -1.88207 0.478743 0
M  V30 1038 C 97.7806 -3.23912 1.25294 0
M  V30 1039 C 96.7346 -3.56808 2.36373 0
M  V30 1040 C 96.0606 -4.93508 2.058 0
M  V30 1041 C 97.3606 -3.59713 3.78687 0
M  V30 1042 H 99.0546 -1.8515 2.35287 0
M  V30 1043 H 96.6006 -0.889367 1.13253 0
M  V30 1044 H 98.5536 -4.02443 1.2497 0
M  V30 1045 H 97.2776 -3.25446 0.274308 0
M  V30 1046 H 95.9366 -2.80606 2.35914 0
M  V30 1047 H 95.5846 -4.91623 1.06374 0
M  V30 1048 H 95.2846 -5.16486 2.80208 0
M  V30 1049 H 96.8086 -5.74396 2.07128 0
M  V30 1050 H 98.2226 -4.2832 3.81071 0
M  V30 1051 H 96.6196 -3.94209 4.52459 0
M  V30 1052 H 97.6896 -2.59504 4.09617 0
M  V30 1053 N 99.0327 -1.24633 -0.964593 0
M  V30 1054 C 100.258 -1.11596 -1.74818 0
M  V30 1055 C 100.683 0.32723 -1.85232 0
M  V30 1056 O 100.041 1.23695 -1.32549 0
M  V30 1057 C 100.089 -1.76397 -3.1451 0
M  V30 1058 O 99.1927 -1.03685 -3.99153 0
M  V30 1059 H 98.5337 -0.390196 -0.537255 0
M  V30 1060 H 101.064 -1.65002 -1.20977 0
M  V30 1061 H 101.074 -1.8228 -3.65018 0
M  V30 1062 H 99.7487 -2.81401 -3.06246 0
M  V30 1063 H 98.3257 -1.05611 -3.57632 0
M  V30 1064 N 100.511 1.16574 -1.06058 0
M  V30 1065 C 101.757 1.87324 -0.777022 0
M  V30 1066 C 102.09 1.81351 0.694645 0
M  V30 1067 O 101.365 1.22753 1.50871 0
M  V30 1068 C 101.648 3.36991 -1.26922 0
M  V30 1069 C 101.501 3.51667 -2.80447 0
M  V30 1070 C 102.82 4.3131 -0.87521 0
M  V30 1071 H 99.9388 0.680191 -0.28374 0
M  V30 1072 H 102.581 1.37036 -1.3161 0
M  V30 1073 H 100.731 3.79949 -0.81063 0
M  V30 1074 H 102.403 3.17664 -3.34495 0
M  V30 1075 H 100.646 2.93656 -3.19294 0
M  V30 1076 H 101.317 4.56766 -3.0995 0
M  V30 1077 H 103.793 3.9624 -1.27014 0
M  V30 1078 H 102.669 5.34545 -1.2471 0
M  V30 1079 H 102.93 4.41552 0.220071 0
M  V30 1080 N 101.989 0.842826 1.3317 0
M  V30 1081 C 102.952 0.284065 2.27433 0
M  V30 1082 C 103.952 -0.54948 1.5112 0
M  V30 1083 O 105.142 -0.362699 1.70382 0
M  V30 1084 C 102.274 -0.599384 3.35589 0
M  V30 1085 H 103.467 1.11589 2.78366 0
M  V30 1086 H 101.02 0.616221 1.4364 0
M  V30 1087 H 101.755 -1.45349 2.89904 0
M  V30 1088 H 101.54 -0.00291266 3.921 0
M  V30 1089 H 103.03 -0.983488 4.05854 0
M  V30 1090 N 103.467 -1.45747 0.599634 0
M  V30 1091 C 104.716 -2.01502 0.0893511 0
M  V30 1092 C 105.029 -1.4748 -1.28488 0
M  V30 1093 O 106.235 -1.95161 -1.88745 0
M  V30 1094 C 104.691 -3.59735 0.109082 0
M  V30 1095 C 104.299 -4.22754 1.48267 0
M  V30 1096 C 106.043 -4.23085 -0.346374 0
M  V30 1097 C 103.95 -5.73115 1.45921 0
M  V30 1098 H 102.88 -0.753417 0.0296347 0
M  V30 1099 H 105.531 -1.67303 0.753788 0
M  V30 1100 H 103.913 -3.91087 -0.621854 0
M  V30 1101 H 105.087 -4.02987 2.23468 0
M  V30 1102 H 103.402 -3.71567 1.87955 0
M  V30 1103 H 105.999 -5.33327 -0.38298 0
M  V30 1104 H 106.342 -3.93201 -1.36743 0
M  V30 1105 H 106.875 -3.9642 0.331038 0
M  V30 1106 H 103.614 -6.07685 2.45762 0
M  V30 1107 H 103.134 -5.95097 0.749665 0
M  V30 1108 H 104.813 -6.3616 1.17941 0
M  V30 1109 N 104.945 -0.338344 -1.53925 0
M  V30 1110 C 106.192 0.259758 -2.00827 0
M  V30 1111 C 106.52 1.50973 -1.22628 0
M  V30 1112 O 105.775 1.93379 -0.300509 0
M  V30 1113 C 106.074 0.62448 -3.51902 0
M  V30 1114 C 105.74 -0.528006 -4.47798 0
M  V30 1115 C 104.402 -0.844298 -4.73735 0
M  V30 1116 C 106.754 -1.30143 -5.0469 0
M  V30 1117 C 104.082 -1.93648 -5.53821 0
M  V30 1118 C 106.434 -2.38382 -5.85967 0
M  V30 1119 C 105.098 -2.70576 -6.10201 0
M  V30 1120 H 104.368 0.0950523 -0.734878 0
M  V30 1121 H 107.015 -0.465182 -1.85764 0
M  V30 1122 H 105.32 1.43006 -3.64769 0
M  V30 1123 H 107.017 1.09905 -3.85645 0
M  V30 1124 H 103.607 -0.271421 -4.2774 0
M  V30 1125 H 107.791 -1.07033 -4.84621 0
M  V30 1126 H 103.047 -2.19021 -5.70824 0
M  V30 1127 H 107.221 -2.98746 -6.29066 0
M  V30 1128 H 104.848 -3.55333 -6.72044 0
M  V30 1129 N 106.423 1.57458 -0.0668435 0
M  V30 1130 C 107.648 1.9804 0.616027 0
M  V30 1131 C 108.073 0.944771 1.62652 0
M  V30 1132 O 107.431 -0.0902094 1.81075 0
M  V30 1133 C 107.479 3.37665 1.26549 0
M  V30 1134 O 106.583 3.36701 2.38131 0
M  V30 1135 H 105.924 0.644719 0.158849 0
M  V30 1136 H 108.454 2.04121 -0.139891 0
M  V30 1137 H 108.464 3.7474 1.6135 0
M  V30 1138 H 107.139 4.12573 0.525016 0
M  V30 1139 H 105.716 3.1139 2.0516 0
M  V30 1140 N 107.901 -0.206675 1.56239 0
M  V30 1141 C 109.147 -0.930218 1.80208 0
M  V30 1142 C 109.48 -1.83387 0.638981 0
M  V30 1143 O 108.755 -1.91119 -0.361066 0
M  V30 1144 C 109.038 -1.75641 3.1436 0
M  V30 1145 C 108.891 -0.878257 4.41142 0
M  V30 1146 C 110.21 -2.73129 3.45092 0
M  V30 1147 H 107.329 -0.336742 0.655571 0
M  V30 1148 H 109.971 -0.198222 1.88963 0
M  V30 1149 H 108.121 -2.38048 3.07027 0
M  V30 1150 H 109.793 -0.269787 4.6051 0
M  V30 1151 H 108.036 -0.184385 4.33408 0
M  V30 1152 H 108.707 -1.49106 5.3148 0
M  V30 1153 H 111.183 -2.20856 3.52649 0
M  V30 1154 H 110.059 -3.28028 4.40101 0
M  V30 1155 H 110.32 -3.51606 2.68003 0
M  V30 1156 N 109.379 -1.50304 -0.473955 0
M  V30 1157 C 110.627 -1.60832 -1.22382 0
M  V30 1158 C 110.948 -0.30939 -1.9253 0
M  V30 1159 O 110.218 0.67296 -1.83978 0
M  V30 1160 H 108.798 -0.592652 -0.454723 0
M  V30 1161 H 111.46 -1.87068 -0.546968 0
M  V30 1162 H 110.556 -2.41803 -1.97327 0
M  V30 1163 N 110.857 0.726932 -1.39834 0
M  V30 1164 C 112.105 1.4837 -1.37225 0
M  V30 1165 C 112.426 1.94979 0.0284857 0
M  V30 1166 O 111.696 1.69555 0.981213 0
M  V30 1167 H 110.276 0.55043 -0.505011 0
M  V30 1168 H 112.938 0.862468 -1.74778 0
M  V30 1169 H 112.034 2.36198 -2.04003 0
M  V30 1170 N 112.336 1.25143 0.95797 0
M  V30 1171 C 113.269 0.995565 2.05338 0
M  V30 1172 C 114.247 -0.0740423 1.62431 0
M  V30 1173 O 115.431 0.0649212 1.88388 0
M  V30 1174 C 112.558 0.504298 3.34925 0
M  V30 1175 C 111.604 1.56393 3.96792 0
M  V30 1176 S 112.437 3.14815 4.33188 0
M  V30 1177 C 113.593 2.67415 5.65898 0
M  V30 1178 H 113.826 1.92309 2.26726 0
M  V30 1179 H 111.359 1.08635 1.09716 0
M  V30 1180 H 113.317 0.227497 4.09869 0
M  V30 1181 H 111.978 -0.402671 3.11508 0
M  V30 1182 H 111.171 1.17082 4.90212 0
M  V30 1183 H 110.773 1.79124 3.28315 0
M  V30 1184 H 113.065 2.10833 6.4386 0
M  V30 1185 H 114.008 3.59463 6.10076 0
M  V30 1186 H 114.416 2.07521 5.24972 0
M  V30 1187 N 113.814 -1.1601 1.06675 0
M  V30 1188 C 115.063 -1.85973 0.780818 0
M  V30 1189 C 115.376 -1.82819 -0.695444 0
M  V30 1190 O 116.582 -2.484 -1.09589 0
M  V30 1191 C 115.038 -3.33757 1.34665 0
M  V30 1192 C 114.646 -3.45374 2.85343 0
M  V30 1193 C 116.39 -4.0895 1.13843 0
M  V30 1194 C 114.297 -4.87266 3.35151 0
M  V30 1195 H 113.227 -0.696661 0.288407 0
M  V30 1196 H 115.878 -1.30903 1.28595 0
M  V30 1197 H 114.26 -3.88456 0.769274 0
M  V30 1198 H 115.434 -3.00816 3.49065 0
M  V30 1199 H 113.749 -2.83619 3.04876 0
M  V30 1200 H 116.346 -5.13654 1.4854 0
M  V30 1201 H 116.689 -4.16229 0.0770282 0
M  V30 1202 H 117.222 -3.605 1.68179 0
M  V30 1203 H 113.961 -4.85168 4.40786 0
M  V30 1204 H 113.481 -5.32433 2.76179 0
M  V30 1205 H 115.16 -5.56097 3.30704 0
M  V30 1206 N 115.292 -0.849877 -1.32721 0
M  V30 1207 C 116.54 -0.450032 -1.97026 0
M  V30 1208 C 116.861 0.996604 -1.67609 0
M  V30 1209 O 116.131 1.6958 -0.980786 0
M  V30 1210 H 114.711 -0.163426 -0.728904 0
M  V30 1211 H 117.373 -1.08526 -1.6189 0
M  V30 1212 H 116.469 -0.591146 -3.0645 0
M  V30 1213 N 116.77 1.45427 -0.607355 0
M  V30 1214 C 117.995 2.07124 -0.107006 0
M  V30 1215 C 118.42 1.44906 1.19933 0
M  V30 1216 O 117.778 0.541687 1.73019 0
M  V30 1217 C 117.826 3.60595 0.0194119 0
M  V30 1218 O 116.93 3.98285 1.0697 0
M  V30 1219 H 116.271 0.659868 -0.0739597 0
M  V30 1220 H 118.801 1.86683 -0.837297 0
M  V30 1221 H 118.811 4.07419 0.2177 0
M  V30 1222 H 117.486 4.05266 -0.934453 0
M  V30 1223 H 116.063 3.63133 0.847889 0
M  V30 1224 N 118.248 0.346503 1.53744 0
M  V30 1225 C 119.495 -0.249104 2.00962 0
M  V30 1226 C 119.823 -1.5032 1.23426 0
M  V30 1227 O 119.078 -1.93217 0.310761 0
M  V30 1228 C 119.377 -0.605809 3.52228 0
M  V30 1229 C 119.043 0.551747 4.47512 0
M  V30 1230 C 117.705 0.86941 4.73281 0
M  V30 1231 C 120.057 1.32818 5.03993 0
M  V30 1232 C 117.385 1.96582 5.52786 0
M  V30 1233 C 119.737 2.41486 5.84694 0
M  V30 1234 C 118.401 2.73808 6.08757 0
M  V30 1235 H 117.671 -0.0911538 0.735372 0
M  V30 1236 H 120.318 0.475027 1.85515 0
M  V30 1237 H 118.623 -1.4107 3.65522 0
M  V30 1238 H 120.32 -1.07858 3.86222 0
M  V30 1239 H 116.91 0.294102 4.2759 0
M  V30 1240 H 121.094 1.09602 4.84047 0
M  V30 1241 H 116.35 2.22045 5.69654 0
M  V30 1242 H 120.524 3.02078 6.27473 0
M  V30 1243 H 118.151 3.58892 6.7015 0
M  V30 1244 N 119.726 -1.57421 0.075193 0
M  V30 1245 C 120.951 -1.98364 -0.605515 0
M  V30 1246 C 121.376 -0.953383 -1.62149 0
M  V30 1247 O 120.734 0.0806053 -1.81121 0
M  V30 1248 C 120.782 -3.38332 -1.24756 0
M  V30 1249 O 119.886 -3.37959 -2.36342 0
M  V30 1250 H 119.227 -0.645553 -0.155428 0
M  V30 1251 H 121.757 -2.04044 0.150714 0
M  V30 1252 H 121.767 -3.75591 -1.5936 0
M  V30 1253 H 120.442 -4.12846 -0.503129 0
M  V30 1254 H 119.019 -3.12474 -2.03506 0
M  V30 1255 N 121.204 0.198386 -1.56346 0
M  V30 1256 C 122.45 0.920648 -1.80698 0
M  V30 1257 C 122.783 1.83045 -0.648697 0
M  V30 1258 O 122.058 1.91308 0.350925 0
M  V30 1259 C 122.341 1.73971 -3.15287 0
M  V30 1260 C 122.194 0.85485 -4.41602 0
M  V30 1261 C 123.513 2.71296 -3.46535 0
M  V30 1262 H 120.632 0.333261 -0.657348 0
M  V30 1263 H 123.274 0.188198 -1.89066 0
M  V30 1264 H 121.424 2.36416 -3.08285 0
M  V30 1265 H 123.096 0.245362 -4.60647 0
M  V30 1266 H 121.339 0.161398 -4.335 0
M  V30 1267 H 122.01 1.46286 -5.32264 0
M  V30 1268 H 124.486 2.18983 -3.53816 0
M  V30 1269 H 123.362 3.2569 -4.41834 0
M  V30 1270 H 123.623 3.5018 -2.69864 0
M  V30 1271 N 122.682 1.50554 0.465978 0
M  V30 1272 C 123.93 1.61479 1.21528 0
M  V30 1273 C 124.251 0.319596 1.92363 0
M  V30 1274 O 123.521 -0.663194 1.84333 0
M  V30 1275 H 122.101 0.595055 0.451573 0
M  V30 1276 H 124.763 1.87355 0.53704 0
M  V30 1277 H 123.859 2.42846 1.96042 0
M  V30 1278 N 124.16 -0.719506 1.40217 0
M  V30 1279 C 125.09 -1.8465 1.42922 0
M  V30 1280 C 126.071 -1.67599 0.29062 0
M  V30 1281 O 127.256 -1.87688 0.498677 0
M  V30 1282 C 124.386 -3.22565 1.28722 0
M  V30 1283 C 123.34 -3.54281 2.40144 0
M  V30 1284 C 122.666 -4.91298 2.11023 0
M  V30 1285 C 123.966 -3.55676 3.82481 0
M  V30 1286 H 125.66 -1.82644 2.37237 0
M  V30 1287 H 123.206 -0.877305 1.1419 0
M  V30 1288 H 125.159 -4.01095 1.29232 0
M  V30 1289 H 123.883 -3.25137 0.308811 0
M  V30 1290 H 122.542 -2.78088 2.38877 0
M  V30 1291 H 122.19 -4.90468 1.11582 0
M  V30 1292 H 121.89 -5.13485 2.8567 0
M  V30 1293 H 123.414 -5.72166 2.13209 0
M  V30 1294 H 124.828 -4.24254 3.85592 0
M  V30 1295 H 123.225 -3.89388 4.56614 0
M  V30 1296 H 124.295 -2.55144 4.12346 0
M  V30 1297 N 125.638 -1.25649 -0.95132 0
M  V30 1298 C 126.885 -1.10594 -1.69633 0
M  V30 1299 C 127.213 0.352515 -1.91279 0
M  V30 1300 O 126.468 1.27601 -1.4838 0
M  V30 1301 C 126.767 -1.80909 -3.08231 0
M  V30 1302 C 126.433 -3.30825 -3.06375 0
M  V30 1303 C 125.095 -3.71722 -3.05576 0
M  V30 1304 C 127.447 -4.26589 -2.99452 0
M  V30 1305 C 124.775 -5.06788 -2.95606 0
M  V30 1306 C 127.127 -5.61683 -2.91024 0
M  V30 1307 C 125.791 -6.01904 -2.88562 0
M  V30 1308 H 125.061 -0.404691 -0.620731 0
M  V30 1309 H 127.708 -1.55964 -1.11119 0
M  V30 1310 H 126.013 -1.27979 -3.70309 0
M  V30 1311 H 127.71 -1.6671 -3.64704 0
M  V30 1312 H 124.3 -2.98287 -3.07771 0
M  V30 1313 H 128.484 -3.95982 -2.99185 0
M  V30 1314 H 123.74 -5.37126 -2.92071 0
M  V30 1315 H 127.914 -6.35578 -2.84629 0
M  V30 1316 H 125.541 -7.06521 -2.80593 0
M  V30 1317 N 127.117 1.15442 -1.07289 0
M  V30 1318 C 128.363 1.86489 -0.796846 0
M  V30 1319 C 128.696 1.82078 0.675371 0
M  V30 1320 O 127.971 1.24346 1.4956 0
M  V30 1321 C 128.254 3.35626 -1.30489 0
M  V30 1322 C 128.107 3.48673 -2.84161 0
M  V30 1323 C 129.426 4.30357 -0.920907 0
M  V30 1324 H 126.545 0.677144 -0.290939 0
M  V30 1325 H 129.187 1.35633 -1.33056 0
M  V30 1326 H 127.337 3.79068 -0.850883 0
M  V30 1327 H 129.009 3.14099 -3.37846 0
M  V30 1328 H 127.252 2.90253 -3.22391 0
M  V30 1329 H 127.923 4.53453 -3.14777 0
M  V30 1330 H 130.399 3.94871 -1.3121 0
M  V30 1331 H 129.275 5.33193 -1.30372 0
M  V30 1332 H 129.536 4.4176 0.173226 0
M  V30 1333 N 128.595 0.856903 1.32268 0
M  V30 1334 C 129.543 0.291987 2.3076 0
M  V30 1335 C 130.537 -0.585857 1.58947 0
M  V30 1336 O 131.743 -0.47341 1.73663 0
M  V30 1337 H 128.118 0.075721 0.748178 0
M  V30 1338 H 130.089 1.13687 2.75895 0
M  V30 1339 C 128.838 -0.502869 3.44044 0
M  V30 1340 H 128.161 0.163328 3.99466 0
M  V30 1341 H 129.601 -0.863691 4.1511 0
M  V30 1342 C 128.06 -1.68898 2.91505 0
M  V30 1343 O 128.59 -2.78811 2.89184 0
M  V30 1344 N 126.796 -1.51679 2.47875 0
M  V30 1345 H 126.343 -0.622666 2.49961 0
M  V30 1346 H 126.301 -2.31184 2.13076 0
M  V30 1347 N 130.073 -1.45103 0.615059 0
M  V30 1348 C 131.489 -1.57137 0.279322 0
M  V30 1349 C 131.689 -1.60523 -1.21797 0
M  V30 1350 O 130.745 -1.53956 -2.00134 0
M  V30 1351 C 132.058 -2.85062 0.957083 0
M  V30 1352 C 133.606 -2.98749 0.933706 0
M  V30 1353 C 134.081 -4.29455 1.59162 0
M  V30 1354 N 135.572 -4.36231 1.55746 0
M  V30 1355 C 136.307 -5.36051 2.0356 0
M  V30 1356 N 135.803 -6.42367 2.59494 0
M  V30 1357 N 137.596 -5.27456 1.94284 0
M  V30 1358 H 129.747 -1.41148 1.58717 0
M  V30 1359 H 132.01 -0.675331 0.665306 0
M  V30 1360 H 131.716 -2.88488 2.01166 0
M  V30 1361 H 131.59 -3.7407 0.48494 0
M  V30 1362 H 133.977 -2.94886 -0.112347 0
M  V30 1363 H 134.058 -2.11132 1.44419 0
M  V30 1364 H 133.702 -4.34077 2.63704 0
M  V30 1365 H 133.632 -5.15901 1.0561 0
M  V30 1366 H 136.123 -3.60011 1.14893 0
M  V30 1367 H 136.436 -7.14793 2.93752 0
M  V30 1368 H 134.781 -6.43097 2.63537 0
M  V30 1369 H 137.972 -4.43308 1.5032 0
M  V30 1370 H 138.145 -6.05099 2.3186 0
M  V30 1371 N 131.551 -0.354651 -1.53558 0
M  V30 1372 C 132.798 0.238443 -2.01091 0
M  V30 1373 C 133.126 1.49663 -1.24222 0
M  V30 1374 O 132.381 1.93049 -0.321003 0
M  V30 1375 C 132.68 0.587121 -3.52545 0
M  V30 1376 C 132.346 -0.575472 -4.47213 0
M  V30 1377 C 131.008 -0.894497 -4.72813 0
M  V30 1378 C 133.36 -1.35489 -5.03281 0
M  V30 1379 C 130.688 -1.99511 -5.51736 0
M  V30 1380 C 133.04 -2.44583 -5.83405 0
M  V30 1381 C 131.704 -2.77033 -6.07296 0
M  V30 1382 H 130.974 0.0872526 -0.735845 0
M  V30 1383 H 133.621 -0.484859 -1.8526 0
M  V30 1384 H 131.926 1.39129 -3.66265 0
M  V30 1385 H 133.623 1.05809 -3.86789 0
M  V30 1386 H 130.213 -0.316774 -4.27428 0
M  V30 1387 H 134.397 -1.12167 -4.83459 0
M  V30 1388 H 129.653 -2.25063 -5.68469 0
M  V30 1389 H 133.827 -3.05401 -6.25862 0
M  V30 1390 H 131.454 -3.6244 -6.68237 0
M  V30 1391 N 133.029 1.57378 -0.0835403 0
M  V30 1392 C 134.277 1.93547 0.581718 0
M  V30 1393 C 134.598 0.96524 1.69435 0
M  V30 1394 O 133.868 0.0153369 1.95894 0
M  V30 1395 H 132.448 0.714521 0.217874 0
M  V30 1396 H 135.11 1.94366 -0.144158 0
M  V30 1397 H 134.206 2.95665 0.999423 0
M  V30 1398 N 134.507 -0.190092 1.56449 0
M  V30 1399 C 135.923 -0.54113 1.50146 0
M  V30 1400 C 136.123 -1.85603 0.784465 0
M  V30 1401 O 135.179 -2.5024 0.337051 0
M  V30 1402 C 136.492 -0.591241 2.9483 0
M  V30 1403 C 138.04 -0.679732 3.0553 0
M  V30 1404 C 138.515 -0.760908 4.51635 0
M  V30 1405 N 140.006 -0.824302 4.55806 0
M  V30 1406 C 140.741 -0.907365 5.66175 0
M  V30 1407 N 140.237 -0.952422 6.86222 0
M  V30 1408 N 142.03 -0.94494 5.541 0
M  V30 1409 H 134.181 0.67235 2.01478 0
M  V30 1410 H 136.444 0.240127 0.917084 0
M  V30 1411 H 136.15 0.305905 3.50367 0
M  V30 1412 H 136.024 -1.44422 3.48457 0
M  V30 1413 H 138.411 -1.56731 2.50039 0
M  V30 1414 H 138.492 0.199549 2.5502 0
M  V30 1415 H 138.136 0.122336 5.07753 0
M  V30 1416 H 138.066 -1.65606 4.99882 0
M  V30 1417 H 140.557 -0.798526 3.69367 0
M  V30 1418 H 140.87 -1.01645 7.66086 0
M  V30 1419 H 139.215 -0.921014 6.8887 0
M  V30 1420 H 142.406 -0.906612 4.59236 0
M  V30 1421 H 142.579 -1.00622 6.4014 0
M  V30 1422 N 135.985 -1.50799 -0.457987 0
M  V30 1423 C 137.401 -1.38515 -0.792819 0
M  V30 1424 C 137.601 -0.451409 -1.96379 0
M  V30 1425 O 136.657 0.10112 -2.52297 0
M  V30 1426 C 137.97 -2.80149 -1.09258 0
M  V30 1427 C 139.518 -2.89156 -1.19825 0
M  V30 1428 C 139.993 -4.31651 -1.53106 0
M  V30 1429 N 141.484 -4.34662 -1.60072 0
M  V30 1430 C 142.219 -5.41928 -1.87354 0
M  V30 1431 N 141.715 -6.59384 -2.12568 0
M  V30 1432 N 143.508 -5.29385 -1.88965 0
M  V30 1433 H 135.659 -2.10073 0.313511 0
M  V30 1434 H 137.922 -0.944803 0.0777862 0
M  V30 1435 H 137.628 -3.50374 -0.305084 0
M  V30 1436 H 137.502 -3.18204 -2.02549 0
M  V30 1437 H 139.889 -2.19141 -1.97639 0
M  V30 1438 H 139.97 -2.54626 -0.244821 0
M  V30 1439 H 139.614 -5.02208 -0.758266 0
M  V30 1440 H 139.544 -4.63678 -2.49621 0
M  V30 1441 H 142.035 -3.49973 -1.42573 0
M  V30 1442 H 142.348 -7.36934 -2.32696 0
M  V30 1443 H 140.693 -6.62535 -2.09933 0
M  V30 1444 H 143.884 -4.36616 -1.68772 0
M  V30 1445 H 144.057 -6.13066 -2.09891 0
M  V30 1446 N 137.463 0.71206 -1.40597 0
M  V30 1447 C 138.411 1.84746 -1.41321 0
M  V30 1448 C 139.405 1.66842 -0.293268 0
M  V30 1449 O 140.611 1.73904 -0.464481 0
M  V30 1450 H 136.986 0.608522 -0.441819 0
M  V30 1451 H 138.957 1.81252 -2.37045 0
M  V30 1452 C 137.706 3.22638 -1.29614 0
M  V30 1453 H 137.029 3.37023 -2.15071 0
M  V30 1454 H 138.469 4.02209 -1.3418 0
M  V30 1455 C 136.928 3.36899 -0.00673121 0
M  V30 1456 O 137.458 3.90186 0.954859 0
M  V30 1457 N 135.664 2.9053 0.0639327 0
M  V30 1458 H 135.211 2.47353 -0.719311 0
M  V30 1459 H 135.169 3.0045 0.926118 0
M  V30 1460 N 138.941 1.26152 0.944643 0
M  V30 1461 C 140.166 1.14363 1.7302 0
M  V30 1462 C 140.591 -0.29772 1.85729 0
M  V30 1463 O 139.949 -1.2157 1.34501 0
M  V30 1464 C 139.997 1.81378 3.11664 0
M  V30 1465 O 139.101 1.10022 3.97453 0
M  V30 1466 H 138.442 0.398694 0.53098 0
M  V30 1467 H 140.972 1.66906 1.18337 0
M  V30 1468 H 140.982 1.88064 3.62072 0
M  V30 1469 H 139.657 2.86237 3.0173 0
M  V30 1470 H 138.234 1.11287 3.55907 0
M  V30 1471 N 140.419 -1.14872 1.07899 0
M  V30 1472 C 141.352 -2.18794 0.64841 0
M  V30 1473 C 142.33 -1.59065 -0.337189 0
M  V30 1474 O 143.514 -1.86936 -0.242284 0
M  V30 1475 C 140.641 -3.38667 -0.0470417 0
M  V30 1476 C 139.687 -4.16942 0.897884 0
M  V30 1477 S 140.52 -4.78615 2.40183 0
M  V30 1478 C 141.676 -6.0185 1.71834 0
M  V30 1479 H 141.909 -2.5498 1.52881 0
M  V30 1480 H 139.442 -1.25922 0.893484 0
M  V30 1481 H 141.4 -4.08113 -0.442027 0
M  V30 1482 H 140.061 -3.00814 -0.903861 0
M  V30 1483 H 139.254 -5.02726 0.358096 0
M  V30 1484 H 138.856 -3.53073 1.23352 0
M  V30 1485 H 141.148 -6.69574 1.03328 0
M  V30 1486 H 142.091 -6.60408 2.55473 0
M  V30 1487 H 142.499 -5.5173 1.19392 0
M  V30 1488 N 141.898 -0.863906 -1.31812 0
M  V30 1489 C 142.828 -0.330843 -2.31144 0
M  V30 1490 C 143.809 0.575005 -1.60087 0
M  V30 1491 O 144.994 0.493304 -1.8783 0
M  V30 1492 C 142.124 0.47374 -3.44054 0
M  V30 1493 C 141.078 -0.338481 -4.26659 0
M  V30 1494 C 140.404 0.591412 -5.31419 0
M  V30 1495 C 141.704 -1.56926 -4.98168 0
M  V30 1496 H 143.398 -1.16086 -2.75979 0
M  V30 1497 H 140.944 -0.559657 -1.32679 0
M  V30 1498 H 142.897 0.857143 -4.12591 0
M  V30 1499 H 141.621 1.33721 -2.9797 0
M  V30 1500 H 140.28 -0.703754 -3.59782 0
M  V30 1501 H 139.928 1.45199 -4.81587 0
M  V30 1502 H 139.628 0.0519022 -5.87577 0
M  V30 1503 H 141.152 0.97179 -6.02817 0
M  V30 1504 H 142.566 -1.25764 -5.59336 0
M  V30 1505 H 140.963 -2.04739 -5.64094 0
M  V30 1506 H 142.033 -2.32544 -4.25501 0
M  V30 1507 N 143.376 1.44774 -0.622745 0
M  V30 1508 C 144.309 2.27792 0.136329 0
M  V30 1509 C 145.287 1.38041 0.859264 0
M  V30 1510 O 146.471 1.67478 0.86506 0
M  V30 1511 C 143.598 3.16776 1.19878 0
M  V30 1512 C 142.644 4.22575 0.57731 0
M  V30 1513 S 143.477 5.31825 -0.626294 0
M  V30 1514 C 144.633 6.24377 0.436378 0
M  V30 1515 H 144.866 2.91824 -0.567967 0
M  V30 1516 H 142.399 1.48838 -0.410677 0
M  V30 1517 H 144.357 3.68596 1.80686 0
M  V30 1518 H 143.018 2.5198 1.87523 0
M  V30 1519 H 142.211 4.84818 1.37721 0
M  V30 1520 H 141.813 3.73974 0.0440439 0
M  V30 1521 H 144.105 6.64689 1.31128 0
M  V30 1522 H 145.048 7.07941 -0.150271 0
M  V30 1523 H 145.456 5.59381 0.758513 0
M  V30 1524 N 144.854 0.36279 1.53368 0
M  V30 1525 C 145.787 -0.528507 2.21996 0
M  V30 1526 C 146.765 -1.0852 1.21087 0
M  V30 1527 O 147.949 -1.14186 1.4998 0
M  V30 1528 C 145.076 -1.72893 2.91249 0
M  V30 1529 C 144.122 -1.29994 4.06207 0
M  V30 1530 S 144.955 -0.303575 5.34639 0
M  V30 1531 C 146.111 -1.51039 6.07403 0
M  V30 1532 H 146.344 0.0543423 2.9725 0
M  V30 1533 H 143.877 0.146889 1.537 0
M  V30 1534 H 145.835 -2.41751 3.31763 0
M  V30 1535 H 144.496 -2.28303 2.15724 0
M  V30 1536 H 143.689 -2.19549 4.53667 0
M  V30 1537 H 143.291 -0.690608 3.67569 0
M  V30 1538 H 145.583 -2.44186 6.31965 0
M  V30 1539 H 146.526 -1.07721 6.99858 0
M  V30 1540 H 146.934 -1.71518 5.37812 0
M  V30 1541 N 146.332 -1.57332 0.0918853 0
M  V30 1542 C 147.28 -2.15075 -0.885747 0
M  V30 1543 C 148.274 -1.09277 -1.29441 0
M  V30 1544 O 149.48 -1.27627 -1.26931 0
M  V30 1545 H 145.855 -0.687966 -0.303656 0
M  V30 1546 H 147.826 -2.96047 -0.373995 0
M  V30 1547 C 146.575 -2.74325 -2.13638 0
M  V30 1548 H 145.898 -3.55418 -1.8308 0
M  V30 1549 H 147.338 -3.183 -2.80109 0
M  V30 1550 C 145.797 -1.70062 -2.90827 0
M  V30 1551 O 146.327 -1.13763 -3.85254 0
M  V30 1552 N 144.533 -1.40628 -2.54307 0
M  V30 1553 H 144.08 -1.866 -1.7759 0
M  V30 1554 H 144.038 -0.711043 -3.06254 0
M  V30 1555 N 147.81 0.181792 -1.56548 0
M  V30 1556 C 148.74 1.22765 -1.98623 0
M  V30 1557 C 149.721 1.46747 -0.860189 0
M  V30 1558 O 150.906 1.58259 -1.12551 0
M  V30 1559 C 148.036 2.56894 -2.33715 0
M  V30 1560 C 146.99 2.475 -3.49182 0
M  V30 1561 C 146.316 3.86023 -3.69986 0
M  V30 1562 C 147.616 1.98866 -4.82959 0
M  V30 1563 H 149.31 0.877942 -2.86239 0
M  V30 1564 H 146.856 0.42088 -1.37712 0
M  V30 1565 H 148.809 3.30253 -2.61746 0
M  V30 1566 H 147.533 2.93632 -1.42997 0
M  V30 1567 H 146.192 1.76596 -3.21262 0
M  V30 1568 H 145.84 4.20136 -2.76576 0
M  V30 1569 H 145.54 3.80609 -4.47672 0
M  V30 1570 H 147.064 4.60984 -4.00407 0
M  V30 1571 H 148.478 2.61992 -5.09934 0
M  V30 1572 H 146.875 2.04424 -5.64208 0
M  V30 1573 H 147.945 0.942465 -4.75653 0
M  V30 1574 N 149.288 1.51039 0.449983 0
M  V30 1575 C 150.218 1.74379 1.55288 0
M  V30 1576 C 151.199 0.593236 1.5942 0
M  V30 1577 O 152.384 0.834625 1.7535 0
M  V30 1578 C 149.514 1.85728 2.93466 0
M  V30 1579 C 148.468 3.01078 3.04197 0
M  V30 1580 C 147.794 2.97595 4.44231 0
M  V30 1581 C 149.094 4.41254 2.7945 0
M  V30 1582 H 150.788 2.66725 1.36008 0
M  V30 1583 H 148.334 1.2835 0.652864 0
M  V30 1584 H 150.287 2.0064 3.70569 0
M  V30 1585 H 149.011 0.900207 3.13949 0
M  V30 1586 H 147.67 2.85851 2.29531 0
M  V30 1587 H 147.318 1.99691 4.61663 0
M  V30 1588 H 147.018 3.75046 4.52343 0
M  V30 1589 H 148.542 3.14583 5.23326 0
M  V30 1590 H 149.956 4.56897 3.46292 0
M  V30 1591 H 148.353 5.20315 2.98985 0
M  V30 1592 H 149.423 4.52164 1.75144 0
M  V30 1593 N 150.766 -0.704594 1.40972 0
M  V30 1594 C 151.729 -1.80035 1.41845 0
M  V30 1595 C 152.729 -1.57774 0.310474 0
M  V30 1596 O 153.919 -1.64613 0.56992 0
M  V30 1597 C 151.051 -3.18284 1.22098 0
M  V30 1598 H 152.244 -1.80658 2.3938 0
M  V30 1599 H 149.797 -0.911329 1.26982 0
M  V30 1600 H 150.532 -3.23306 0.253672 0
M  V30 1601 H 150.317 -3.35843 2.02366 0
M  V30 1602 H 151.807 -3.98289 1.25522 0
M  V30 1603 N 152.244 -1.26651 -0.937939 0
M  V30 1604 C 153.491 -1.12387 -1.6845 0
M  V30 1605 C 153.819 0.332208 -1.91642 0
M  V30 1606 O 153.074 1.2602 -1.49725 0
M  V30 1607 C 153.373 -1.84168 -3.06295 0
M  V30 1608 C 153.039 -3.34056 -3.02849 0
M  V30 1609 C 151.701 -3.74942 -3.01616 0
M  V30 1610 C 154.053 -4.29741 -2.9491 0
M  V30 1611 C 151.381 -5.09894 -2.90215 0
M  V30 1612 C 153.733 -5.64738 -2.8505 0
M  V30 1613 C 152.397 -6.0493 -2.82162 0
M  V30 1614 H 151.667 -0.411252 -0.616403 0
M  V30 1615 H 154.314 -1.57134 -1.09459 0
M  V30 1616 H 152.619 -1.319 -3.6893 0
M  V30 1617 H 154.316 -1.70569 -3.62915 0
M  V30 1618 H 150.906 -3.01534 -3.0459 0
M  V30 1619 H 155.09 -3.99133 -2.94969 0
M  V30 1620 H 150.346 -5.40194 -2.86358 0
M  V30 1621 H 154.52 -6.38561 -2.77872 0
M  V30 1622 H 152.147 -7.09457 -2.73084 0
M  V30 1623 N 153.722 1.14298 -1.08507 0
M  V30 1624 C 154.968 1.85633 -0.816581 0
M  V30 1625 C 155.301 1.82784 0.656021 0
M  V30 1626 O 154.576 1.25926 1.48233 0
M  V30 1627 C 154.859 3.34223 -1.34041 0
M  V30 1628 C 154.712 3.45639 -2.87843 0
M  V30 1629 C 156.031 4.29356 -0.9665 0
M  V30 1630 H 153.15 0.67402 -0.298104 0
M  V30 1631 H 155.792 1.34214 -1.34487 0
M  V30 1632 H 153.942 3.78144 -0.89104 0
M  V30 1633 H 155.614 3.10498 -3.41158 0
M  V30 1634 H 153.857 2.86817 -3.25451 0
M  V30 1635 H 154.528 4.50089 -3.19569 0
M  V30 1636 H 157.004 3.93457 -1.35391 0
M  V30 1637 H 155.88 5.3178 -1.3602 0
M  V30 1638 H 156.141 4.41919 0.126362 0
M  V30 1639 N 155.201 0.870884 1.31352 0
M  V30 1640 C 156.426 0.495957 2.01383 0
M  V30 1641 C 156.851 -0.904324 1.64935 0
M  V30 1642 O 156.209 -1.59687 0.858466 0
M  V30 1643 C 156.257 0.661433 3.54482 0
M  V30 1644 O 155.361 -0.298851 4.11316 0
M  V30 1645 H 154.702 0.197158 0.634054 0
M  V30 1646 H 157.232 1.17455 1.67527 0
M  V30 1647 H 157.242 0.555072 4.04207 0
M  V30 1648 H 155.917 1.68246 3.8035 0
M  V30 1649 H 154.494 -0.147368 3.72609 0
M  V30 1650 N 156.679 -1.44442 0.630414 0
M  V30 1651 C 157.642 -2.29107 -0.0652523 0
M  V30 1652 C 158.642 -1.41002 -0.772995 0
M  V30 1653 O 159.832 -1.62881 -0.617692 0
M  V30 1654 C 156.964 -3.22564 -1.10296 0
M  V30 1655 H 158.157 -2.92103 0.679401 0
M  V30 1656 H 155.71 -1.51343 0.390517 0
M  V30 1657 H 156.445 -2.64416 -1.87762 0
M  V30 1658 H 156.23 -3.87491 -0.59941 0
M  V30 1659 H 157.72 -3.86167 -1.5895 0
M  V30 1660 N 158.157 -0.370918 -1.53173 0
M  V30 1661 C 159.403 0.217423 -2.01631 0
M  V30 1662 C 159.736 1.47983 -1.25756 0
M  V30 1663 O 159.011 1.91274 -0.352764 0
M  V30 1664 C 159.294 0.503982 -3.56556 0
M  V30 1665 C 159.147 -0.77243 -4.43118 0
M  V30 1666 C 160.466 1.30234 -4.20389 0
M  V30 1667 H 157.585 0.0775486 -0.732909 0
M  V30 1668 H 160.227 -0.496863 -1.83388 0
M  V30 1669 H 158.377 1.11248 -3.72231 0
M  V30 1670 H 160.049 -1.4098 -4.39229 0
M  V30 1671 H 158.292 -1.39167 -4.10871 0
M  V30 1672 H 158.963 -0.526815 -5.4948 0
M  V30 1673 H 161.439 0.787546 -4.08579 0
M  V30 1674 H 160.315 1.47158 -5.28806 0
M  V30 1675 H 160.576 2.31237 -3.76805 0
M  V30 1676 N 159.635 1.57281 -0.100228 0
M  V30 1677 C 160.565 2.17328 0.853857 0
M  V30 1678 C 161.546 1.10804 1.2906 0
M  V30 1679 O 162.731 1.38963 1.35657 0
M  V30 1680 C 159.861 2.75772 2.11109 0
M  V30 1681 C 158.815 3.87713 1.81279 0
M  V30 1682 C 158.141 4.32882 3.13874 0
M  V30 1683 C 159.441 5.10677 1.09574 0
M  V30 1684 H 161.135 2.97305 0.353545 0
M  V30 1685 H 158.681 1.43009 0.168612 0
M  V30 1686 H 160.634 3.16433 2.78296 0
M  V30 1687 H 159.358 1.93057 2.63432 0
M  V30 1688 H 158.017 3.476 1.16489 0
M  V30 1689 H 157.665 3.47051 3.64095 0
M  V30 1690 H 157.365 5.08358 2.94696 0
M  V30 1691 H 158.889 4.7618 3.82211 0
M  V30 1692 H 160.303 5.48474 1.66879 0
M  V30 1693 H 158.7 5.91615 1.00557 0
M  V30 1694 H 159.77 4.84835 0.0793299 0
M  V30 1695 N 161.113 -0.173488 1.56642 0
M  V30 1696 C 162.046 -1.24353 1.91342 0
M  V30 1697 C 163.024 -1.4289 0.775965 0
M  V30 1698 O 164.208 -1.57932 1.02907 0
M  V30 1699 C 161.335 -2.60683 2.16245 0
M  V30 1700 C 160.381 -2.58894 3.38934 0
M  V30 1701 S 161.214 -2.0819 4.93373 0
M  V30 1702 C 162.37 -3.46302 5.21369 0
M  V30 1703 H 162.603 -0.947345 2.81803 0
M  V30 1704 H 160.136 -0.377958 1.49703 0
M  V30 1705 H 162.094 -3.39149 2.31275 0
M  V30 1706 H 160.755 -2.87502 1.26496 0
M  V30 1707 H 159.948 -3.59188 3.53553 0
M  V30 1708 H 159.55 -1.88522 3.2301 0
M  V30 1709 H 161.842 -4.42287 5.13214 0
M  V30 1710 H 162.785 -3.3656 6.23003 0
M  V30 1711 H 163.193 -3.42214 4.48943 0
M  V30 1712 N 162.591 -1.51276 -0.441967 0
M  V30 1713 C 163.839 -1.63392 -1.18943 0
M  V30 1714 C 164.16 -0.350159 -1.9183 0
M  V30 1715 O 163.43 0.633784 -1.85364 0
M  V30 1716 H 162.01 -0.602164 -0.442049 0
M  V30 1717 H 164.672 -1.88186 -0.507165 0
M  V30 1718 H 163.768 -2.45934 -1.92154 0
M  V30 1719 N 164.069 0.697108 -1.41344 0
M  V30 1720 C 165.316 1.45714 -1.40619 0
M  V30 1721 C 165.644 1.94494 -0.0147907 0
M  V30 1722 O 164.899 1.69794 0.973066 0
M  V30 1723 C 165.198 2.68553 -2.35826 0
M  V30 1724 C 164.864 2.38438 -3.82698 0
M  V30 1725 C 163.526 2.29936 -4.22709 0
M  V30 1726 C 165.878 2.13567 -4.75435 0
M  V30 1727 C 163.206 1.94656 -5.53467 0
M  V30 1728 C 165.558 1.79797 -6.06511 0
M  V30 1729 C 164.222 1.69789 -6.45545 0
M  V30 1730 H 163.492 0.533206 -0.51456 0
M  V30 1731 H 166.139 0.796901 -1.74131 0
M  V30 1732 H 164.444 3.39503 -1.95563 0
M  V30 1733 H 166.141 3.2669 -2.32539 0
M  V30 1734 H 162.731 2.4595 -3.51008 0
M  V30 1735 H 166.915 2.19082 -4.45328 0
M  V30 1736 H 162.171 1.8546 -5.82593 0
M  V30 1737 H 166.345 1.59572 -6.77872 0
M  V30 1738 H 163.972 1.4222 -7.46778 0
M  V30 1739 N 165.547 1.27147 0.931209 0
M  V30 1740 C 166.772 1.16191 1.71797 0
M  V30 1741 C 167.197 -0.278004 1.86034 0
M  V30 1742 O 166.555 -1.20137 1.35782 0
M  V30 1743 C 166.603 1.84673 3.09723 0
M  V30 1744 O 165.707 1.14231 3.96264 0
M  V30 1745 H 165.048 0.404303 0.526721 0
M  V30 1746 H 167.578 1.68152 1.1656 0
M  V30 1747 H 167.588 1.91893 3.60057 0
M  V30 1748 H 166.263 2.89421 2.98677 0
M  V30 1749 H 164.84 1.15056 3.54706 0
M  V30 1750 N 167.025 -1.13721 1.09112 0
M  V30 1751 C 167.972 -2.19031 0.727591 0
M  V30 1752 C 168.942 -1.63555 -0.289656 0
M  V30 1753 O 170.127 -1.90023 -0.172026 0
M  V30 1754 C 167.267 -3.4477 0.15082 0
M  V30 1755 C 166.38 -4.14365 1.22172 0
M  V30 1756 C 165.515 -5.27709 0.608042 0
M  V30 1757 C 164.554 -5.89147 1.66047 0
M  V30 1758 N 163.691 -6.93929 1.06806 0
M  V30 1759 H 168.531 -2.49475 1.62991 0
M  V30 1760 H 166.068 -1.22499 0.81439 0
M  V30 1761 H 168.026 -4.16714 -0.201358 0
M  V30 1762 H 166.656 -3.14787 -0.714783 0
M  V30 1763 H 165.708 -3.40737 1.69122 0
M  V30 1764 H 167.02 -4.56114 2.01895 0
M  V30 1765 H 166.174 -6.06355 0.204523 0
M  V30 1766 H 164.913 -4.872 -0.220769 0
M  V30 1767 H 163.918 -5.09198 2.07357 0
M  V30 1768 H 165.143 -6.31729 2.49189 0
M  V30 1769 H 163.089 -6.55483 0.260476 0
M  V30 1770 H 163.006 -7.34202 1.8023 0
M  V30 1771 H 164.274 -7.76434 0.690644 0
M  V30 1772 N 168.503 -0.877838 -1.30888 0
M  V30 1773 C 169.433 -0.35534 -2.3078 0
M  V30 1774 C 170.414 0.557994 -1.60687 0
M  V30 1775 O 171.599 0.473355 -1.88343 0
M  V30 1776 C 168.729 0.437221 -3.44537 0
M  V30 1777 C 167.683 -0.383715 -4.26276 0
M  V30 1778 C 167.009 0.535014 -5.32017 0
M  V30 1779 C 168.309 -1.62201 -4.96476 0
M  V30 1780 H 170.003 -1.19007 -2.74732 0
M  V30 1781 H 167.549 -0.573698 -1.32078 0
M  V30 1782 H 169.502 0.813334 -4.13477 0
M  V30 1783 H 168.226 1.30553 -2.99372 0
M  V30 1784 H 166.885 -0.741874 -3.59015 0
M  V30 1785 H 166.533 1.40083 -4.831 0
M  V30 1786 H 166.233 -0.0104211 -5.87599 0
M  V30 1787 H 167.757 0.907799 -6.03814 0
M  V30 1788 H 169.171 -1.31689 -5.5797 0
M  V30 1789 H 167.568 -2.10711 -5.61891 0
M  V30 1790 H 168.638 -2.37044 -4.23011 0
M  V30 1791 N 169.982 1.44106 -0.638065 0
M  V30 1792 C 171.23 2.01579 -0.145043 0
M  V30 1793 C 171.551 1.50496 1.24 0
M  V30 1794 O 170.821 0.711374 1.82527 0
M  V30 1795 H 169.401 0.745282 -0.05063 0
M  V30 1796 H 172.063 1.76516 -0.826327 0
M  V30 1797 H 171.159 3.11877 -0.118039 0
M  V30 1798 N 171.46 0.379036 1.52974 0
M  V30 1799 C 172.407 -0.461048 2.26148 0
M  V30 1800 C 173.377 -1.06637 1.27349 0
M  V30 1801 O 174.562 -1.09633 1.56157 0
M  V30 1802 C 171.702 -1.58782 3.06402 0
M  V30 1803 C 170.815 -1.00636 4.20115 0
M  V30 1804 C 169.95 -2.10334 4.87784 0
M  V30 1805 C 168.989 -1.49724 5.93506 0
M  V30 1806 N 168.126 -2.5331 6.54812 0
M  V30 1807 H 172.966 0.169429 2.97518 0
M  V30 1808 H 170.503 0.0953806 1.4679 0
M  V30 1809 H 172.461 -2.25174 3.51215 0
M  V30 1810 H 171.091 -2.18876 2.37261 0
M  V30 1811 H 170.143 -0.232332 3.7969 0
M  V30 1812 H 171.455 -0.523343 4.96047 0
M  V30 1813 H 170.609 -2.84519 5.35849 0
M  V30 1814 H 169.348 -2.61992 4.11353 0
M  V30 1815 H 168.353 -0.740598 5.44789 0
M  V30 1816 H 169.578 -0.988732 6.71864 0
M  V30 1817 H 167.524 -3.04156 5.81227 0
M  V30 1818 H 167.441 -2.09734 7.26325 0
M  V30 1819 H 168.709 -3.27155 7.07524 0
M  V30 1820 N 172.938 -1.57226 0.108567 0
M  V30 1821 C 174.163 -1.99604 -0.563303 0
M  V30 1822 C 174.588 -0.987563 -1.6009 0
M  V30 1823 O 173.946 0.0421687 -1.81251 0
M  V30 1824 C 173.994 -3.40902 -1.17552 0
M  V30 1825 O 173.098 -3.42896 -2.2912 0
M  V30 1826 H 172.439 -0.648704 -0.1417 0
M  V30 1827 H 174.969 -2.03679 0.193961 0
M  V30 1828 H 174.979 -3.78886 -1.51357 0
M  V30 1829 H 173.654 -4.1382 -0.415445 0
M  V30 1830 H 172.231 -3.1672 -1.96832 0
M  V30 1831 N 174.416 0.165178 -1.56732 0
M  V30 1832 C 175.663 0.880807 -1.8234 0
M  V30 1833 C 175.991 1.81977 -0.686621 0
M  V30 1834 O 175.246 1.92971 0.325697 0
M  V30 1835 C 175.545 1.70405 -3.1416 0
M  V30 1836 C 175.211 0.913475 -4.4155 0
M  V30 1837 C 173.873 0.695303 -4.7615 0
M  V30 1838 C 176.225 0.359349 -5.1996 0
M  V30 1839 C 173.553 -0.0879947 -5.86634 0
M  V30 1840 C 175.905 -0.410893 -6.31264 0
M  V30 1841 C 174.569 -0.639808 -6.64427 0
M  V30 1842 H 173.839 0.32231 -0.667231 0
M  V30 1843 H 176.486 0.145402 -1.90947 0
M  V30 1844 H 174.791 2.50903 -3.00923 0
M  V30 1845 H 176.488 2.26091 -3.31186 0
M  V30 1846 H 173.078 1.09357 -4.14414 0
M  V30 1847 H 177.262 0.515228 -4.93618 0
M  V30 1848 H 172.518 -0.27503 -6.10781 0
M  V30 1849 H 176.692 -0.847494 -6.91224 0
M  V30 1850 H 174.319 -1.24864 -7.49875 0
M  V30 1851 N 175.894 1.51508 0.433938 0
M  V30 1852 C 176.804 1.75917 1.5521 0
M  V30 1853 C 177.82 0.643545 1.61662 0
M  V30 1854 O 178.996 0.926183 1.7884 0
M  V30 1855 C 176.061 1.88213 2.91164 0
M  V30 1856 C 175.122 3.12074 2.94802 0
M  V30 1857 C 174.355 3.23774 4.24271 0
M  V30 1858 O 174.578 2.4133 5.16833 0
M  V30 1859 O 173.512 4.16774 4.34262 0
M  V30 1860 H 177.338 2.70777 1.37527 0
M  V30 1861 H 174.923 1.36051 0.617293 0
M  V30 1862 H 176.805 1.98267 3.71845 0
M  V30 1863 H 175.48 0.965413 3.08968 0
M  V30 1864 H 174.387 3.07497 2.13065 0
M  V30 1865 H 175.72 4.03446 2.81943 0
M  V30 1866 N 177.372 -0.689602 1.41712 0
M  V30 1867 C 178.305 -1.81403 1.3845 0
M  V30 1868 C 179.283 -1.60653 0.250874 0
M  V30 1869 O 180.467 -1.83323 0.43874 0
M  V30 1870 C 177.594 -3.18176 1.1611 0
M  V30 1871 C 176.64 -3.57705 2.3227 0
M  V30 1872 S 177.473 -3.61827 3.94767 0
M  V30 1873 C 178.629 -5.01318 3.74742 0
M  V30 1874 H 178.862 -1.83893 2.33603 0
M  V30 1875 H 176.395 -0.858878 1.28307 0
M  V30 1876 H 178.353 -3.97132 1.03907 0
M  V30 1877 H 177.014 -3.13288 0.225668 0
M  V30 1878 H 176.207 -4.57082 2.12349 0
M  V30 1879 H 175.809 -2.86073 2.40911 0
M  V30 1880 H 178.101 -5.88986 3.34817 0
M  V30 1881 H 179.044 -5.26283 4.73743 0
M  V30 1882 H 179.452 -4.73138 3.07898 0
M  V30 1883 N 178.85 -1.27639 -0.924453 0
M  V30 1884 C 179.78 -1.13166 -2.04244 0
M  V30 1885 C 180.761 -0.032256 -1.70069 0
M  V30 1886 O 181.946 -0.207328 -1.9309 0
M  V30 1887 C 179.076 -0.781496 -3.38393 0
M  V30 1888 C 178.03 -1.83449 -3.86692 0
M  V30 1889 C 177.356 -1.33822 -5.17683 0
M  V30 1890 C 178.656 -3.23917 -4.09726 0
M  V30 1891 H 180.35 -2.06689 -2.1661 0
M  V30 1892 H 177.896 -0.995136 -1.04082 0
M  V30 1893 H 179.849 -0.667057 -4.16087 0
M  V30 1894 H 178.573 0.189439 -3.2605 0
M  V30 1895 H 177.232 -1.93789 -3.11193 0
M  V30 1896 H 176.88 -0.35665 -5.01734 0
M  V30 1897 H 176.58 -2.04224 -5.50968 0
M  V30 1898 H 178.104 -1.23679 -5.97943 0
M  V30 1899 H 179.518 -3.16559 -4.77978 0
M  V30 1900 H 177.915 -3.92059 -4.54324 0
M  V30 1901 H 178.985 -3.68729 -3.14908 0
M  V30 1902 N 180.328 1.1314 -1.09713 0
M  V30 1903 C 181.577 1.83838 -0.829851 0
M  V30 1904 C 181.89 1.84599 0.646728 0
M  V30 1905 O 183.096 2.51218 1.02965 0
M  V30 1906 C 181.552 3.30069 -1.43466 0
M  V30 1907 C 181.16 3.37688 -2.94399 0
M  V30 1908 C 182.904 4.05788 -1.24645 0
M  V30 1909 C 180.811 4.78209 -3.47952 0
M  V30 1910 H 179.741 0.68877 -0.306777 0
M  V30 1911 H 182.392 1.27448 -1.3202 0
M  V30 1912 H 180.774 3.8628 -0.871996 0
M  V30 1913 H 181.948 2.91456 -3.56918 0
M  V30 1914 H 180.263 2.75436 -3.12289 0
M  V30 1915 H 182.86 5.09535 -1.62107 0
M  V30 1916 H 183.203 4.15878 -0.187357 0
M  V30 1917 H 183.736 3.55915 -1.77678 0
M  V30 1918 H 180.475 4.73311 -4.53495 0
M  V30 1919 H 179.995 5.24924 -2.90198 0
M  V30 1920 H 181.674 5.47133 -3.45332 0
M  V30 1921 N 181.806 0.884767 1.30421 0
M  V30 1922 C 182.736 0.367574 2.30589 0
M  V30 1923 C 183.717 -0.549464 1.60981 0
M  V30 1924 O 184.902 -0.46336 1.88591 0
M  V30 1925 C 182.032 -0.418944 3.44764 0
M  V30 1926 C 180.986 0.406316 4.26067 0
M  V30 1927 C 180.312 -0.506793 5.32293 0
M  V30 1928 C 181.612 1.64832 4.95608 0
M  V30 1929 H 183.306 1.20462 2.74097 0
M  V30 1930 H 180.852 0.580695 1.31772 0
M  V30 1931 H 182.805 -0.791395 4.13902 0
M  V30 1932 H 181.529 -1.28964 3.0006 0
M  V30 1933 H 180.188 0.760903 3.58617 0
M  V30 1934 H 179.836 -1.37519 4.83836 0
M  V30 1935 H 179.536 0.0415828 5.87585 0
M  V30 1936 H 181.06 -0.875764 6.04287 0
M  V30 1937 H 182.474 1.34646 5.57264 0
M  V30 1938 H 180.871 2.13688 5.60765 0
M  V30 1939 H 181.941 2.39284 4.21748 0
M  V30 1940 N 183.284 -1.43765 0.645699 0
M  V30 1941 C 184.532 -2.01499 0.155731 0
M  V30 1942 C 184.853 -1.51151 -1.232 0
M  V30 1943 O 184.123 -0.721044 -1.82148 0
M  V30 1944 H 182.703 -0.745003 0.0545817 0
M  V30 1945 H 185.365 -1.76075 0.835677 0
M  V30 1946 H 184.461 -3.1181 0.134577 0
M  V30 1947 N 184.763 -0.387143 -1.52771 0
M  V30 1948 C 186.179 -0.037007 -1.59557 0
M  V30 1949 C 186.379 1.44801 -1.40124 0
M  V30 1950 O 185.435 2.21227 -1.21716 0
M  V30 1951 C 186.748 -0.512256 -2.96305 0
M  V30 1952 C 188.296 -0.468328 -3.09476 0
M  V30 1953 C 188.771 -0.919731 -4.4867 0
M  V30 1954 N 190.262 -0.875656 -4.54848 0
M  V30 1955 C 190.997 -1.19637 -5.6078 0
M  V30 1956 N 190.493 -1.58745 -6.74368 0
M  V30 1957 N 192.286 -1.11776 -5.50874 0
M  V30 1958 H 184.437 -1.35395 -1.63652 0
M  V30 1959 H 186.7 -0.554818 -0.768688 0
M  V30 1960 H 186.406 -1.54935 -3.15734 0
M  V30 1961 H 186.28 0.089805 -3.77093 0
M  V30 1962 H 188.667 0.559671 -2.89744 0
M  V30 1963 H 188.748 -1.10616 -2.30646 0
M  V30 1964 H 188.392 -1.94595 -4.69143 0
M  V30 1965 H 188.322 -0.258927 -5.25963 0
M  V30 1966 H 190.813 -0.587843 -3.733 0
M  V30 1967 H 191.126 -1.81586 -7.51163 0
M  V30 1968 H 189.471 -1.6263 -6.75705 0
M  V30 1969 H 192.662 -0.811264 -4.61016 0
M  V30 1970 H 192.835 -1.37103 -6.3333 0
M  V30 1971 N 186.241 1.57166 -0.116904 0
M  V30 1972 C 187.488 1.95123 0.541603 0
M  V30 1973 C 187.816 1.00006 1.6682 0
M  V30 1974 O 187.071 0.0235658 1.95686 0
M  V30 1975 C 187.37 3.39508 1.11664 0
M  V30 1976 C 187.036 4.50762 0.111606 0
M  V30 1977 C 185.698 4.80918 -0.164758 0
M  V30 1978 C 188.05 5.18036 -0.573438 0
M  V30 1979 C 185.378 5.75666 -1.13249 0
M  V30 1980 C 187.73 6.13824 -1.52978 0
M  V30 1981 C 186.394 6.42374 -1.81415 0
M  V30 1982 H 185.664 0.714005 0.198187 0
M  V30 1983 H 188.311 1.9048 -0.197365 0
M  V30 1984 H 186.616 3.40835 1.93232 0
M  V30 1985 H 188.313 3.66189 1.63422 0
M  V30 1986 H 184.903 4.27272 0.337192 0
M  V30 1987 H 189.087 4.94896 -0.373092 0
M  V30 1988 H 184.343 5.96092 -1.35958 0
M  V30 1989 H 188.517 6.65039 -2.06629 0
M  V30 1990 H 186.144 7.15599 -2.56557 0
M  V30 1991 N 187.719 -0.156864 1.56817 0
M  V30 1992 C 188.968 -0.869504 1.81996 0
M  V30 1993 C 189.281 -1.82777 0.696545 0
M  V30 1994 O 190.487 -2.58384 0.833658 0
M  V30 1995 C 188.943 -1.59679 3.22538 0
M  V30 1996 C 188.551 -0.681431 4.42787 0
M  V30 1997 C 190.295 -2.2968 3.56997 0
M  V30 1998 C 188.202 -1.40978 5.74351 0
M  V30 1999 H 187.132 -0.328438 0.678708 0
M  V30 2000 H 189.783 -0.1223 1.83092 0
M  V30 2001 H 188.165 -2.38927 3.158 0
M  V30 2002 H 189.339 0.0751166 4.60739 0
M  V30 2003 H 187.654 -0.0903431 4.16302 0
M  V30 2004 H 190.251 -2.84794 4.52544 0
M  V30 2005 H 190.594 -3.05707 2.82576 0
M  V30 2006 H 191.127 -1.57361 3.65352 0
M  V30 2007 H 187.866 -0.691561 6.51842 0
M  V30 2008 H 187.386 -2.13929 5.60352 0
M  V30 2009 H 189.065 -1.95337 6.16808 0
M  V30 2010 N 189.197 -1.51736 -0.425897 0
M  V30 2011 C 190.446 -1.64201 -1.17136 0
M  V30 2012 C 190.759 -0.369705 -1.92074 0
M  V30 2013 O 191.965 -0.373898 -2.68913 0
M  V30 2014 C 190.421 -2.90035 -2.13091 0
M  V30 2015 C 190.029 -4.24312 -1.43747 0
M  V30 2016 C 191.773 -3.1186 -2.87999 0
M  V30 2017 C 189.68 -5.41285 -2.38253 0
M  V30 2018 H 188.61 -0.611624 -0.440944 0
M  V30 2019 H 191.261 -1.78212 -0.437328 0
M  V30 2020 H 189.643 -2.69684 -2.89977 0
M  V30 2021 H 190.817 -4.55086 -0.723408 0
M  V30 2022 H 189.132 -4.08456 -0.809465 0
M  V30 2023 H 191.729 -3.96427 -3.58817 0
M  V30 2024 H 192.072 -2.25403 -3.49999 0
M  V30 2025 H 192.605 -3.32605 -2.18217 0
M  V30 2026 H 189.344 -6.30037 -1.80925 0
M  V30 2027 H 188.864 -5.14872 -3.0768 0
M  V30 2028 H 190.543 -5.73694 -2.99139 0
M  V30 2029 N 190.675 0.682077 -1.42076 0
M  V30 2030 C 191.923 1.4393 -1.41876 0
M  V30 2031 C 192.244 1.94971 -0.0335599 0
M  V30 2032 O 191.514 1.72591 0.926773 0
M  V30 2033 H 190.094 0.534085 -0.522267 0
M  V30 2034 H 192.756 0.806427 -1.77434 0
M  V30 2035 H 191.852 2.29588 -2.11414 0
M  V30 2036 N 192.153 1.28127 0.917671 0
M  V30 2037 C 193.399 1.15223 1.66888 0
M  V30 2038 C 193.732 -0.299293 1.9188 0
M  V30 2039 O 193.007 -1.21805 1.51637 0
M  V30 2040 C 193.29 1.94706 3.02922 0
M  V30 2041 C 193.143 3.47898 2.85109 0
M  V30 2042 C 194.462 1.75939 4.03402 0
M  V30 2043 H 191.581 0.419946 0.605652 0
M  V30 2044 H 194.223 1.57398 1.06423 0
M  V30 2045 H 192.373 1.58864 3.54534 0
M  V30 2046 H 194.045 3.93624 2.40537 0
M  V30 2047 H 192.288 3.7373 2.20246 0
M  V30 2048 H 192.959 3.98765 3.81694 0
M  V30 2049 H 195.435 2.07209 3.60837 0
M  V30 2050 H 194.311 2.33931 4.96556 0
M  V30 2051 H 194.572 0.709877 4.36364 0
M  V30 2052 N 193.631 -1.12557 1.10312 0
M  V30 2053 C 194.861 -1.87592 0.865617 0
M  V30 2054 C 195.269 -1.79851 -0.587389 0
M  V30 2055 O 194.612 -1.16949 -1.41664 0
M  V30 2056 C 194.674 -3.37665 1.23381 0
M  V30 2057 C 194.338 -3.69181 2.69359 0
M  V30 2058 C 195.335 -3.67652 3.67597 0
M  V30 2059 C 193.02 -3.98555 3.05711 0
M  V30 2060 C 195.014 -3.95053 5.00212 0
M  V30 2061 C 192.701 -4.25616 4.38514 0
M  V30 2062 C 193.699 -4.23851 5.35574 0
M  V30 2063 O 193.387 -4.50242 6.65986 0
M  V30 2064 H 193.119 -0.600442 0.310557 0
M  V30 2065 H 195.673 -1.4335 1.47105 0
M  V30 2066 H 193.903 -3.82454 0.571467 0
M  V30 2067 H 195.592 -3.94041 0.973994 0
M  V30 2068 H 196.358 -3.45024 3.40857 0
M  V30 2069 H 192.237 -3.99071 2.30789 0
M  V30 2070 H 195.781 -3.93591 5.75962 0
M  V30 2071 H 191.678 -4.47718 4.64994 0
M  V30 2072 H 192.446 -4.67867 6.71597 0
M  V30 2073 N 195.109 -0.891671 -1.2995 0
M  V30 2074 C 196.349 -0.520296 -1.97667 0
M  V30 2075 C 196.713 0.914797 -1.68806 0
M  V30 2076 O 197.914 1.39263 -2.29911 0
M  V30 2077 C 196.185 -0.795222 -3.48441 0
M  V30 2078 S 197.744 -0.526953 -4.35624 0
M  V30 2079 H 194.562 -0.19333 -0.684211 0
M  V30 2080 H 197.164 -1.15238 -1.57926 0
M  V30 2081 H 195.868 -1.83805 -3.66938 0
M  V30 2082 H 195.399 -0.15095 -3.9311 0
M  V30 2083 H 197.414 0.631533 -4.92165 0
M  V30 2084 N 196.587 1.43421 -0.653314 0
M  V30 2085 C 197.835 2.01414 -0.166415 0
M  V30 2086 C 198.156 1.51803 1.22397 0
M  V30 2087 O 197.426 0.730693 1.81763 0
M  V30 2088 H 196.006 0.744703 -0.0585319 0
M  V30 2089 H 198.668 1.75629 -0.845003 0
M  V30 2090 H 197.764 3.11734 -0.151111 0
M  V30 2091 N 198.065 0.39524 1.52563 0
M  V30 2092 C 198.995 -0.428384 2.29537 0
M  V30 2093 C 199.976 -1.05831 1.33169 0
M  V30 2094 O 201.161 -1.06995 1.62067 0
M  V30 2095 C 198.291 -1.55274 3.10656 0
M  V30 2096 C 197.245 -1.04855 4.14957 0
M  V30 2097 C 196.571 -2.26543 4.84337 0
M  V30 2098 C 197.871 -0.112324 5.22179 0
M  V30 2099 H 199.565 0.213867 2.98635 0
M  V30 2100 H 197.111 0.104298 1.43622 0
M  V30 2101 H 199.064 -2.1358 3.63265 0
M  V30 2102 H 197.788 -2.22266 2.39302 0
M  V30 2103 H 196.447 -0.487985 3.63338 0
M  V30 2104 H 196.095 -2.92059 4.09525 0
M  V30 2105 H 195.795 -1.93466 5.54837 0
M  V30 2106 H 197.319 -2.85481 5.39753 0
M  V30 2107 H 198.733 -0.603752 5.70112 0
M  V30 2108 H 197.13 0.128968 5.99961 0
M  V30 2109 H 198.2 0.837052 4.77621 0
M  V30 2110 N 199.544 -1.57102 0.125237 0
M  V30 2111 C 200.772 -1.99761 -0.538797 0
M  V30 2112 C 201.187 -1.00503 -1.59827 0
M  V30 2113 O 200.544 0.00119474 -1.825 0
M  V30 2114 C 200.595 -3.42408 -1.15927 0
M  V30 2115 O 200.316 -4.37869 -0.142143 0
M  V30 2116 C 201.817 -4.00232 -1.90602 0
M  V30 2117 H 199.037 -0.655772 -0.14214 0
M  V30 2118 H 201.581 -2.03383 0.213413 0
M  V30 2119 H 199.736 -3.39706 -1.86223 0
M  V30 2120 H 200.15 -5.21128 -0.593775 0
M  V30 2121 H 201.624 -5.02105 -2.29335 0
M  V30 2122 H 202.101 -3.39721 -2.78363 0
M  V30 2123 H 202.707 -4.06499 -1.25055 0
M  V30 2124 N 201.022 0.148545 -1.56898 0
M  V30 2125 C 202.25 0.876389 -1.87422 0
M  V30 2126 C 202.665 1.74809 -0.713256 0
M  V30 2127 O 202.022 1.79725 0.317025 0
M  V30 2128 C 202.073 1.73438 -3.17178 0
M  V30 2129 O 201.794 0.897809 -4.28802 0
M  V30 2130 C 203.295 2.56993 -3.61205 0
M  V30 2131 H 200.515 0.253489 -0.621277 0
M  V30 2132 H 203.059 0.141798 -2.04008 0
M  V30 2133 H 201.214 2.42205 -3.0235 0
M  V30 2134 H 201.628 1.48672 -5.02988 0
M  V30 2135 H 203.102 3.12773 -4.54838 0
M  V30 2136 H 203.579 3.32958 -2.86419 0
M  V30 2137 H 204.185 1.9352 -3.78722 0
M  V30 2138 N 202.5 1.5196 0.417844 0
M  V30 2139 C 203.748 1.65263 1.16329 0
M  V30 2140 C 204.069 0.380634 1.91249 0
M  V30 2141 O 203.339 -0.604214 1.86349 0
M  V30 2142 H 201.919 0.60912 0.432414 0
M  V30 2143 H 204.581 1.88969 0.477162 0
M  V30 2144 H 203.677 2.4896 1.88217 0
M  V30 2145 N 203.978 -0.674533 1.42435 0
M  V30 2146 C 205.225 -1.43459 1.42919 0
M  V30 2147 C 205.553 -1.94446 0.0457312 0
M  V30 2148 O 204.808 -1.7132 -0.94593 0
M  V30 2149 C 205.107 -2.64767 2.40069 0
M  V30 2150 C 204.773 -2.3232 3.86443 0
M  V30 2151 C 203.435 -2.23182 4.26314 0
M  V30 2152 C 205.787 -2.05977 4.78773 0
M  V30 2153 C 203.115 -1.85827 5.56494 0
M  V30 2154 C 205.467 -1.70125 6.09295 0
M  V30 2155 C 204.131 -1.59498 6.48164 0
M  V30 2156 H 203.401 -0.524952 0.522978 0
M  V30 2157 H 206.048 -0.769097 1.75377 0
M  V30 2158 H 204.353 -3.36349 2.00939 0
M  V30 2159 H 206.05 -3.22949 2.37707 0
M  V30 2160 H 202.64 -2.40334 3.54877 0
M  V30 2161 H 206.824 -2.11969 4.48757 0
M  V30 2162 H 202.08 -1.76168 5.8547 0
M  V30 2163 H 206.254 -1.48767 6.80324 0
M  V30 2164 H 203.881 -1.30322 7.48946 0
M  V30 2165 N 205.456 -1.28612 -0.910864 0
M  V30 2166 C 206.702 -1.16106 -1.66274 0
M  V30 2167 C 207.035 0.289113 -1.92036 0
M  V30 2168 O 206.31 1.21 -1.52281 0
M  V30 2169 C 206.593 -1.96309 -3.01885 0
M  V30 2170 C 206.446 -3.49405 -2.8326 0
M  V30 2171 C 207.765 -1.78076 -4.02463 0
M  V30 2172 H 204.884 -0.423152 -0.603417 0
M  V30 2173 H 207.526 -1.57961 -1.05586 0
M  V30 2174 H 205.676 -1.60742 -3.53687 0
M  V30 2175 H 207.348 -3.94894 -2.38446 0
M  V30 2176 H 205.591 -3.74893 -2.18261 0
M  V30 2177 H 206.262 -4.00784 -3.79574 0
M  V30 2178 H 208.738 -2.0912 -3.59733 0
M  V30 2179 H 207.614 -2.36561 -4.95308 0
M  V30 2180 H 207.875 -0.733008 -4.35981 0
M  V30 2181 N 206.934 1.1197 -1.10907 0
M  V30 2182 C 208.345 1.65114 -0.871446 0
M  V30 2183 C 208.696 1.86885 0.597353 0
M  V30 2184 O 207.821 1.59896 1.45816 0
M  V30 2185 C 208.416 2.99944 -1.5754 0
M  V30 2186 C 206.975 3.50018 -1.38435 0
M  V30 2187 C 206.122 2.24941 -1.62164 0
M  V30 2188 H 209.073 0.956851 -1.2661 0
M  V30 2189 H 209.094 3.66651 -1.01721 0
M  V30 2190 H 208.606 2.84067 -2.64438 0
M  V30 2191 H 206.707 3.71071 -0.337214 0
M  V30 2192 H 206.82 4.29165 -2.12965 0
M  V30 2193 H 205.184 2.3229 -1.04467 0
M  V30 2194 H 205.967 2.11612 -2.70324 0
M  V30 2195 N 208.412 0.89855 1.29475 0
M  V30 2196 C 209.345 0.319981 2.25945 0
M  V30 2197 C 210.323 -0.567189 1.52387 0
M  V30 2198 O 211.507 -0.514254 1.8135 0
M  V30 2199 C 208.634 -0.544013 3.34303 0
M  V30 2200 C 207.68 0.275682 4.25608 0
M  V30 2201 S 208.513 1.67272 5.08704 0
M  V30 2202 C 209.669 0.815621 6.20563 0
M  V30 2203 H 209.902 1.13767 2.74671 0
M  V30 2204 H 207.435 0.69882 1.3768 0
M  V30 2205 H 209.393 -1.03673 3.97193 0
M  V30 2206 H 208.054 -1.33593 2.84274 0
M  V30 2207 H 207.247 -0.384263 5.02533 0
M  V30 2208 H 206.849 0.701496 3.67362 0
M  V30 2209 H 209.141 0.0385042 6.77489 0
M  V30 2210 H 210.084 1.55691 6.90772 0
M  V30 2211 H 210.492 0.370516 5.63283 0
M  V30 2212 N 209.89 -1.43072 0.660911 0
M  V30 2213 C 211.12 -2.05769 0.185153 0
M  V30 2214 C 211.528 -1.49668 -1.15742 0
M  V30 2215 O 210.871 -0.625649 -1.72717 0
M  V30 2216 C 210.933 -3.59489 0.0278237 0
M  V30 2217 C 210.597 -4.38212 1.2969 0
M  V30 2218 C 211.594 -4.69772 2.22734 0
M  V30 2219 C 209.279 -4.7809 1.54063 0
M  V30 2220 C 211.273 -5.40129 3.38437 0
M  V30 2221 C 208.96 -5.4819 2.70058 0
M  V30 2222 C 209.958 -5.79132 3.62071 0
M  V30 2223 O 209.646 -6.47798 4.76039 0
M  V30 2224 H 209.378 -0.669873 0.0908086 0
M  V30 2225 H 211.932 -1.84436 0.90402 0
M  V30 2226 H 210.162 -3.79426 -0.746489 0
M  V30 2227 H 211.851 -4.03862 -0.406275 0
M  V30 2228 H 212.617 -4.39476 2.05149 0
M  V30 2229 H 208.496 -4.53408 0.833215 0
M  V30 2230 H 212.04 -5.64198 4.10277 0
M  V30 2231 H 207.937 -5.77902 2.87574 0
M  V30 2232 H 208.705 -6.66283 4.75404 0
M  V30 2233 N 211.368 -0.403325 -1.52352 0
M  V30 2234 C 212.614 0.174605 -2.02047 0
M  V30 2235 C 212.947 1.45282 -1.28867 0
M  V30 2236 O 212.222 1.90483 -0.393257 0
M  V30 2237 C 212.505 0.428238 -3.57545 0
M  V30 2238 C 212.358 -0.866248 -4.4138 0
M  V30 2239 C 213.677 1.21287 -4.23057 0
M  V30 2240 H 210.796 0.0619851 -0.734389 0
M  V30 2241 H 213.438 -0.53565 -1.82293 0
M  V30 2242 H 211.588 1.03327 -3.74507 0
M  V30 2243 H 213.26 -1.50265 -4.3614 0
M  V30 2244 H 211.503 -1.47851 -4.07827 0
M  V30 2245 H 212.174 -0.643249 -5.48239 0
M  V30 2246 H 214.65 0.700703 -4.10158 0
M  V30 2247 H 213.526 1.35909 -5.31808 0
M  V30 2248 H 213.787 2.23193 -3.81625 0
M  V30 2249 N 212.846 1.57033 -0.133567 0
M  V30 2250 C 214.094 1.953 0.519848 0
M  V30 2251 C 214.415 1.01866 1.66278 0
M  V30 2252 O 213.685 0.0776513 1.95746 0
M  V30 2253 H 212.265 0.721091 0.195032 0
M  V30 2254 H 214.927 1.93809 -0.205921 0
M  V30 2255 H 214.023 2.98695 0.904854 0
M  V30 2256 N 214.325 -0.140222 1.56975 0
M  V30 2257 C 215.235 -1.19223 2.02047 0
M  V30 2258 C 216.251 -1.46612 0.937062 0
M  V30 2259 O 217.427 -1.58148 1.24704 0
M  V30 2260 C 214.492 -2.50414 2.39778 0
M  V30 2261 C 213.553 -2.30612 3.621 0
M  V30 2262 C 212.786 -3.55547 3.98023 0
M  V30 2263 O 213.009 -4.62004 3.34528 0
M  V30 2264 O 211.943 -3.47808 4.91237 0
M  V30 2265 H 215.769 -0.839559 2.91865 0
M  V30 2266 H 213.354 -0.349453 1.45256 0
M  V30 2267 H 215.236 -3.27747 2.64877 0
M  V30 2268 H 213.911 -2.85198 1.53114 0
M  V30 2269 H 212.818 -1.51207 3.4218 0
M  V30 2270 H 214.151 -2.00741 4.49404 0
M  V30 2271 N 215.803 -1.52179 -0.40978 0
M  V30 2272 C 217.049 -1.66453 -1.15851 0
M  V30 2273 C 217.382 -0.392972 -1.90182 0
M  V30 2274 O 216.657 0.608579 -1.84734 0
M  V30 2275 C 216.94 -2.88612 -2.15349 0
M  V30 2276 C 216.793 -4.25815 -1.44918 0
M  V30 2277 C 218.112 -3.06294 -3.16026 0
M  V30 2278 H 215.231 -0.60575 -0.419805 0
M  V30 2279 H 217.873 -1.84732 -0.444314 0
M  V30 2280 H 216.023 -2.73158 -2.76255 0
M  V30 2281 H 217.695 -4.52995 -0.871365 0
M  V30 2282 H 215.938 -4.27247 -0.751159 0
M  V30 2283 H 216.609 -5.07337 -2.17516 0
M  V30 2284 H 219.085 -3.20641 -2.65195 0
M  V30 2285 H 217.961 -3.93283 -3.8291 0
M  V30 2286 H 218.222 -2.19579 -3.83715 0
M  V30 2287 N 217.281 0.66697 -1.42791 0
M  V30 2288 C 218.506 1.46004 -1.47301 0
M  V30 2289 C 218.931 1.87894 -0.0880317 0
M  V30 2290 O 218.289 1.56502 0.915253 0
M  V30 2291 C 218.337 2.68031 -2.41229 0
M  V30 2292 O 217.441 3.6659 -1.88906 0
M  V30 2293 H 216.782 0.43832 -0.49877 0
M  V30 2294 H 219.312 0.817391 -1.87563 0
M  V30 2295 H 219.322 3.1601 -2.58073 0
M  V30 2296 H 217.997 2.36883 -3.41847 0
M  V30 2297 H 216.574 3.25661 -1.81656 0
M  V30 2298 N 218.759 1.29093 0.90403 0
M  V30 2299 C 220.17 1.15186 1.46932 0
M  V30 2300 C 220.521 -0.254587 1.94541 0
M  V30 2301 O 219.646 -1.14972 1.83332 0
M  V30 2302 C 220.241 2.08492 2.67051 0
M  V30 2303 C 218.8 1.98621 3.19729 0
M  V30 2304 C 217.947 1.9967 1.92425 0
M  V30 2305 H 220.898 1.41641 0.715789 0
M  V30 2306 H 220.919 1.65461 3.42641 0
M  V30 2307 H 220.431 3.10847 2.3237 0
M  V30 2308 H 218.532 0.993389 3.59114 0
M  V30 2309 H 218.645 2.86068 3.8432 0
M  V30 2310 H 217.009 1.44208 2.09943 0
M  V30 2311 H 217.792 3.03721 1.60026 0
M  V30 2312 N 220.237 -1.11381 1.11499 0
M  V30 2313 C 221.465 -1.86934 0.88675 0
M  V30 2314 C 221.88 -1.80195 -0.563476 0
M  V30 2315 O 221.237 -1.18367 -1.38908 0
M  V30 2316 C 221.288 -3.35722 1.34064 0
M  V30 2317 O 221.009 -3.4232 2.73401 0
M  V30 2318 C 222.51 -4.2818 1.14791 0
M  V30 2319 H 219.73 -0.591117 0.317523 0
M  V30 2320 H 222.274 -1.40865 1.48248 0
M  V30 2321 H 220.429 -3.79294 0.788355 0
M  V30 2322 H 220.843 -4.34971 2.93087 0
M  V30 2323 H 222.317 -5.30817 1.5145 0
M  V30 2324 H 222.794 -4.39113 0.0875279 0
M  V30 2325 H 223.4 -3.90402 1.68721 0
M  V30 2326 N 221.715 -0.905404 -1.28997 0
M  V30 2327 C 222.678 -0.392253 -2.25819 0
M  V30 2328 C 223.678 0.476753 -1.5357 0
M  V30 2329 O 224.868 0.280994 -1.71919 0
M  V30 2330 C 222 0.438588 -3.38067 0
M  V30 2331 H 223.193 -1.24743 -2.72725 0
M  V30 2332 H 220.746 -0.684051 -1.40536 0
M  V30 2333 H 221.481 1.31352 -2.96508 0
M  V30 2334 H 221.266 -0.184167 -3.91667 0
M  V30 2335 H 222.756 0.78873 -4.10084 0
M  V30 2336 N 223.193 1.4272 -0.668489 0
M  V30 2337 C 224.123 2.335 -0.000100175 0
M  V30 2338 C 225.104 1.50328 0.795964 0
M  V30 2339 O 226.289 1.78949 0.754385 0
M  V30 2340 C 223.419 3.33874 0.956302 0
M  V30 2341 C 222.373 4.27152 0.269278 0
M  V30 2342 C 221.699 5.17684 1.33818 0
M  V30 2343 C 222.999 5.15373 -0.847805 0
M  V30 2344 H 224.693 2.89639 -0.758244 0
M  V30 2345 H 222.239 1.39269 -0.366079 0
M  V30 2346 H 224.192 3.9629 1.43292 0
M  V30 2347 H 222.916 2.76025 1.74579 0
M  V30 2348 H 221.575 3.66123 -0.187042 0
M  V30 2349 H 221.223 4.56165 2.1195 0
M  V30 2350 H 220.923 5.80918 0.883659 0
M  V30 2351 H 222.447 5.82974 1.81586 0
M  V30 2352 H 223.861 5.7151 -0.452681 0
M  V30 2353 H 222.258 5.87407 -1.22773 0
M  V30 2354 H 223.328 4.5415 -1.69929 0
M  V30 2355 N 224.671 0.411399 1.52136 0
M  V30 2356 C 226.087 0.0623865 1.59478 0
M  V30 2357 C 226.287 -1.42554 1.4241 0
M  V30 2358 O 225.343 -2.19263 1.2522 0
M  V30 2359 C 226.656 0.559331 2.95452 0
M  V30 2360 C 228.204 0.517503 3.08692 0
M  V30 2361 C 228.679 0.990994 4.4715 0
M  V30 2362 N 230.17 0.947908 4.53397 0
M  V30 2363 C 230.905 1.28544 5.58806 0
M  V30 2364 N 230.401 1.69454 6.71757 0
M  V30 2365 N 232.194 1.20526 5.49026 0
M  V30 2366 H 224.345 1.37982 1.61477 0
M  V30 2367 H 226.608 0.566977 0.759764 0
M  V30 2368 H 226.314 1.59938 3.1323 0
M  V30 2369 H 226.188 -0.0298014 3.77188 0
M  V30 2370 H 228.575 -0.513505 2.90598 0
M  V30 2371 H 228.656 1.14272 2.28857 0
M  V30 2372 H 228.3 2.02034 4.65988 0
M  V30 2373 H 228.23 0.34257 5.25485 0
M  V30 2374 H 230.721 0.647157 3.72317 0
M  V30 2375 H 231.034 1.93513 7.48179 0
M  V30 2376 H 229.379 1.73359 6.73032 0
M  V30 2377 H 232.57 0.884505 4.59667 0
M  V30 2378 H 232.743 1.47161 6.31069 0
M  V30 2379 N 226.149 -1.5696 0.141893 0
M  V30 2380 C 227.397 -1.95573 -0.509484 0
M  V30 2381 C 227.718 -1.02746 -1.65736 0
M  V30 2382 O 226.988 -0.0880311 -1.95702 0
M  V30 2383 H 225.568 -0.722115 -0.191205 0
M  V30 2384 H 228.23 -1.93697 0.216196 0
M  V30 2385 H 227.326 -2.99171 -0.889 0
M  V30 2386 N 227.627 0.131896 -1.57047 0
M  V30 2387 C 228.59 1.14638 -1.98471 0
M  V30 2388 C 229.59 1.35029 -0.873148 0
M  V30 2389 O 230.78 1.31764 -1.13946 0
M  V30 2390 C 227.912 2.50358 -2.31373 0
M  V30 2391 H 229.105 0.79064 -2.8929 0
M  V30 2392 H 226.658 0.375761 -1.51716 0
M  V30 2393 H 227.393 2.90876 -1.43393 0
M  V30 2394 H 227.178 2.36915 -3.12432 0
M  V30 2395 H 228.668 3.23395 -2.64207 0
M  V30 2396 N 229.106 1.52395 0.401703 0
M  V30 2397 C 230.036 1.79231 1.49661 0
M  V30 2398 C 231.017 0.643654 1.57452 0
M  V30 2399 O 232.202 0.889989 1.72606 0
M  V30 2400 C 229.332 1.94971 2.87409 0
M  V30 2401 C 228.286 3.10604 2.94465 0
M  V30 2402 C 227.612 3.11577 4.34538 0
M  V30 2403 C 228.912 4.49921 2.6527 0
M  V30 2404 H 230.606 2.70917 1.27454 0
M  V30 2405 H 228.152 1.30362 0.6117 0
M  V30 2406 H 230.105 2.12328 3.63999 0
M  V30 2407 H 228.829 0.999632 3.10926 0
M  V30 2408 H 227.488 2.93009 2.20321 0
M  V30 2409 H 227.136 2.14277 4.55076 0
M  V30 2410 H 226.836 3.89247 4.40183 0
M  V30 2411 H 228.36 3.31073 5.13053 0
M  V30 2412 H 229.774 4.67683 3.31581 0
M  V30 2413 H 228.171 5.29564 2.82281 0
M  V30 2414 H 229.241 4.57507 1.60671 0
M  V30 2415 N 230.584 -0.659388 1.43143 0
M  V30 2416 C 231.832 -1.41654 1.44147 0
M  V30 2417 C 232.153 -1.94893 0.0645739 0
M  V30 2418 O 231.423 -1.74044 -0.899198 0
M  V30 2419 H 230.003 -0.525708 0.530697 0
M  V30 2420 H 232.665 -0.778097 1.78694 0
M  V30 2421 H 231.761 -2.26195 2.1504 0
M  V30 2422 N 232.062 -1.29571 -0.897171 0
M  V30 2423 C 233.29 -1.20583 -1.68129 0
M  V30 2424 C 233.705 0.233181 -1.87354 0
M  V30 2425 O 233.062 1.15579 -1.41236 0
M  V30 2426 C 233.113 -1.91772 -3.06441 0
M  V30 2427 O 232.834 -3.30053 -2.88091 0
M  V30 2428 C 234.335 -1.89291 -4.00854 0
M  V30 2429 H 231.555 -0.417826 -0.525036 0
M  V30 2430 H 234.099 -1.70987 -1.12177 0
M  V30 2431 H 232.254 -1.45196 -3.59161 0
M  V30 2432 H 232.668 -3.65942 -3.75748 0
M  V30 2433 H 234.142 -2.43662 -4.95311 0
M  V30 2434 H 234.619 -0.869014 -4.30517 0
M  V30 2435 H 235.225 -2.35622 -3.54066 0
M  V30 2436 N 233.54 1.10788 -1.12088 0
M  V30 2437 C 234.47 2.19083 -0.807755 0
M  V30 2438 C 235.451 1.6858 0.226859 0
M  V30 2439 O 236.636 1.93997 0.0888475 0
M  V30 2440 C 233.766 3.46344 -0.257576 0
M  V30 2441 C 232.72 4.101 -1.22483 0
M  V30 2442 C 232.046 5.32016 -0.535052 0
M  V30 2443 C 233.346 4.54236 -2.57811 0
M  V30 2444 H 235.04 2.45534 -1.71328 0
M  V30 2445 H 232.586 1.1801 -0.825205 0
M  V30 2446 H 234.539 4.21392 -0.0262679 0
M  V30 2447 H 233.263 3.19373 0.683278 0
M  V30 2448 H 231.922 3.37054 -1.44189 0
M  V30 2449 H 231.57 5.01319 0.410827 0
M  V30 2450 H 231.27 5.75625 -1.18024 0
M  V30 2451 H 232.794 6.09799 -0.312695 0
M  V30 2452 H 234.208 5.20575 -2.40155 0
M  V30 2453 H 232.605 5.08682 -3.18375 0
M  V30 2454 H 233.675 3.6734 -3.16528 0
M  V30 2455 N 235.018 0.912232 1.28515 0
M  V30 2456 C 235.968 0.370649 2.24967 0
M  V30 2457 C 236.952 -0.516375 1.52389 0
M  V30 2458 O 238.144 -0.356345 1.73376 0
M  V30 2459 C 235.273 -0.389526 3.41083 0
M  V30 2460 C 234.359 0.51313 4.20984 0
M  V30 2461 N 234.75 1.62604 4.78951 0
M  V30 2462 C 233.048 0.313235 4.44899 0
M  V30 2463 C 233.749 2.18619 5.39055 0
M  V30 2464 N 232.725 1.47765 5.23132 0
M  V30 2465 H 236.527 1.22061 2.67354 0
M  V30 2466 H 234.041 0.764712 1.43269 0
M  V30 2467 H 236.038 -0.794353 4.09262 0
M  V30 2468 H 234.698 -1.2366 3.0023 0
M  V30 2469 H 235.709 2.00864 4.77362 0
M  V30 2470 H 232.386 -0.494452 4.14562 0
M  V30 2471 H 233.776 3.12228 5.94948 0
M  V30 2472 N 236.496 -1.42363 0.676048 0
M  V30 2473 C 237.428 -2.29164 -0.0404605 0
M  V30 2474 C 238.441 -1.43747 -0.764245 0
M  V30 2475 O 239.63 -1.67453 -0.618195 0
M  V30 2476 C 236.73 -3.21196 -1.08103 0
M  V30 2477 C 235.903 -4.35273 -0.430812 0
M  V30 2478 C 234.962 -5.08017 -1.37133 0
M  V30 2479 O 233.988 -5.62494 -0.87116 0
M  V30 2480 N 235.19 -5.13647 -2.70456 0
M  V30 2481 H 237.955 -2.91298 0.704667 0
M  V30 2482 H 235.516 -1.53303 0.520559 0
M  V30 2483 H 237.508 -3.66728 -1.71152 0
M  V30 2484 H 236.078 -2.60505 -1.72788 0
M  V30 2485 H 235.298 -3.92372 0.379209 0
M  V30 2486 H 236.586 -5.08795 0.0221132 0
M  V30 2487 H 235.984 -4.708 -3.1363 0
M  V30 2488 H 234.541 -5.62821 -3.28749 0
M  V30 2489 N 237.974 -0.419461 -1.51915 0
M  V30 2490 C 238.904 0.391813 -2.30189 0
M  V30 2491 C 239.885 1.03699 -1.34836 0
M  V30 2492 O 241.07 1.04403 -1.63748 0
M  V30 2493 C 238.2 1.50312 -3.13087 0
M  V30 2494 C 237.154 0.9824 -4.16573 0
M  V30 2495 C 236.48 2.18809 -4.8788 0
M  V30 2496 C 237.78 0.0292356 -5.22292 0
M  V30 2497 H 239.474 -0.26135 -2.98257 0
M  V30 2498 H 237.02 -0.127134 -1.43438 0
M  V30 2499 H 238.973 2.07773 -3.66617 0
M  V30 2500 H 237.697 2.18431 -2.42807 0
M  V30 2501 H 236.356 0.430119 -3.64068 0
M  V30 2502 H 236.004 2.85507 -4.14119 0
M  V30 2503 H 235.704 1.84615 -5.57845 0
M  V30 2504 H 237.228 2.76858 -5.44226 0
M  V30 2505 H 238.642 0.512976 -5.71 0
M  V30 2506 H 237.039 -0.2244 -5.9968 0
M  V30 2507 H 238.109 -0.912931 -4.76228 0
M  V30 2508 N 239.452 1.56882 -0.150215 0
M  V30 2509 C 240.7 1.9584 0.499105 0
M  V30 2510 C 241.021 1.03623 1.65188 0
M  V30 2511 O 240.291 0.0984084 1.95653 0
M  V30 2512 H 238.871 0.723119 0.187373 0
M  V30 2513 H 241.533 1.9358 -0.226466 0
M  V30 2514 H 240.629 2.99638 0.873122 0
M  V30 2515 N 240.93 -0.123565 1.57115 0
M  V30 2516 C 242.179 -0.830704 1.83799 0
M  V30 2517 C 242.492 -1.81259 0.735158 0
M  V30 2518 O 243.698 -2.56558 0.888278 0
M  V30 2519 C 242.154 -1.52802 3.25852 0
M  V30 2520 C 241.762 -0.587356 4.44133 0
M  V30 2521 C 243.506 -2.22056 3.61789 0
M  V30 2522 C 241.413 -1.28764 5.77212 0
M  V30 2523 H 240.343 -0.313967 0.685522 0
M  V30 2524 H 242.994 -0.0834359 1.8331 0
M  V30 2525 H 241.376 -2.32175 3.20797 0
M  V30 2526 H 242.55 0.172829 4.60476 0
M  V30 2527 H 240.865 -0.00201892 4.164 0
M  V30 2528 H 243.462 -2.75131 4.58483 0
M  V30 2529 H 243.805 -2.99644 2.88997 0
M  V30 2530 H 244.338 -1.49576 3.68608 0
M  V30 2531 H 241.077 -0.55314 6.53162 0
M  V30 2532 H 240.597 -2.01995 5.64764 0
M  V30 2533 H 242.276 -1.8221 6.20813 0
M  V30 2534 N 242.408 -1.52605 -0.393616 0
M  V30 2535 C 243.654 -1.67672 -1.14079 0
M  V30 2536 C 243.987 -0.413121 -1.89755 0
M  V30 2537 O 243.262 0.588952 -1.85369 0
M  V30 2538 C 243.545 -2.9088 -2.12276 0
M  V30 2539 C 243.398 -4.27329 -1.40394 0
M  V30 2540 C 244.717 -3.09628 -3.12759 0
M  V30 2541 H 241.836 -0.610168 -0.413356 0
M  V30 2542 H 244.478 -1.85193 -0.424696 0
M  V30 2543 H 242.628 -2.76073 -2.73342 0
M  V30 2544 H 244.3 -4.53894 -0.82327 0
M  V30 2545 H 242.543 -4.2802 -0.705801 0
M  V30 2546 H 243.214 -5.09615 -2.12123 0
M  V30 2547 H 245.69 -3.23436 -2.61779 0
M  V30 2548 H 244.566 -3.97322 -3.78717 0
M  V30 2549 H 244.827 -2.23637 -3.81365 0
M  V30 2550 N 243.887 0.651787 -1.4349 0
M  V30 2551 C 245.133 1.41376 -1.45398 0
M  V30 2552 C 245.466 1.94041 -0.0784823 0
M  V30 2553 O 244.741 1.72379 0.900878 0
M  V30 2554 C 245.024 2.59414 -2.49752 0
M  V30 2555 C 244.877 2.12232 -3.96582 0
M  V30 2556 C 246.196 3.61626 -2.50827 0
M  V30 2557 H 243.315 0.512719 -0.529422 0
M  V30 2558 H 245.957 0.738796 -1.75048 0
M  V30 2559 H 244.107 3.16997 -2.246 0
M  V30 2560 H 245.779 1.59639 -4.32797 0
M  V30 2561 H 244.022 1.43592 -4.09346 0
M  V30 2562 H 244.693 2.9712 -4.65214 0
M  V30 2563 H 247.169 3.13805 -2.7325 0
M  V30 2564 H 246.045 4.41766 -3.25783 0
M  V30 2565 H 246.306 4.14314 -1.5426 0
M  V30 2566 N 245.365 1.30045 0.890287 0
M  V30 2567 C 246.613 1.18327 1.63839 0
M  V30 2568 C 246.934 -0.263455 1.93212 0
M  V30 2569 O 246.204 -1.17856 1.56482 0
M  V30 2570 H 244.784 0.434933 0.607324 0
M  V30 2571 H 247.446 1.631 1.06698 0
M  V30 2572 H 246.542 1.74024 2.59079 0
M  V30 2573 N 246.843 -1.10192 1.12674 0
M  V30 2574 C 248.092 -1.81573 0.8783 0
M  V30 2575 C 248.405 -1.86249 -0.597557 0
M  V30 2576 O 249.611 -2.5386 -0.962681 0
M  V30 2577 C 248.067 -3.26149 1.52167 0
M  V30 2578 C 247.675 -3.29763 3.03249 0
M  V30 2579 C 249.419 -4.0234 1.3536 0
M  V30 2580 C 247.326 -4.68815 3.60508 0
M  V30 2581 H 246.256 -0.680394 0.324931 0
M  V30 2582 H 248.907 -1.23902 1.35353 0
M  V30 2583 H 247.289 -3.83832 0.974104 0
M  V30 2584 H 248.463 -2.8189 3.6452 0
M  V30 2585 H 246.778 -2.67059 3.19481 0
M  V30 2586 H 249.375 -5.05058 1.75559 0
M  V30 2587 H 249.718 -4.15235 0.297554 0
M  V30 2588 H 250.251 -3.51079 1.87052 0
M  V30 2589 H 246.99 -4.61121 4.65884 0
M  V30 2590 H 246.51 -5.17045 3.04014 0
M  V30 2591 H 248.189 -5.37785 3.59717 0
M  V30 2592 N 248.321 -0.919034 -1.28029 0
M  V30 2593 C 249.251 -0.428581 -2.29533 0
M  V30 2594 C 250.232 0.50659 -1.62381 0
M  V30 2595 O 251.417 0.413195 -1.89753 0
M  V30 2596 C 248.547 0.327388 -3.45753 0
M  V30 2597 C 247.501 -0.519137 -4.2484 0
M  V30 2598 C 246.827 0.365486 -5.33449 0
M  V30 2599 C 248.127 -1.77914 -4.91064 0
M  V30 2600 H 249.821 -1.27687 -2.70807 0
M  V30 2601 H 247.367 -0.615428 -1.30186 0
M  V30 2602 H 249.32 0.681378 -4.15855 0
M  V30 2603 H 248.044 1.20963 -3.03374 0
M  V30 2604 H 246.703 -0.855717 -3.56473 0
M  V30 2605 H 246.351 1.24642 -4.87312 0
M  V30 2606 H 246.051 -0.197356 -5.87268 0
M  V30 2607 H 247.575 0.715241 -6.06396 0
M  V30 2608 H 248.989 -1.49374 -5.53498 0
M  V30 2609 H 247.386 -2.2848 -5.54903 0
M  V30 2610 H 248.456 -2.50382 -4.15255 0
M  V30 2611 N 249.799 1.42003 -0.683588 0
M  V30 2612 C 251.048 2.00638 -0.206681 0
M  V30 2613 C 251.361 1.5472 1.19671 0
M  V30 2614 O 252.567 2.05833 1.77045 0
M  V30 2615 C 251.023 3.58487 -0.318632 0
M  V30 2616 C 250.631 4.1339 -1.72663 0
M  V30 2617 C 252.375 4.24384 0.0991141 0
M  V30 2618 C 250.282 5.63633 -1.79087 0
M  V30 2619 H 249.212 0.750408 -0.0735107 0
M  V30 2620 H 251.863 1.62624 -0.850048 0
M  V30 2621 H 250.245 3.94047 0.392781 0
M  V30 2622 H 251.419 3.89273 -2.46583 0
M  V30 2623 H 249.734 3.59976 -2.09299 0
M  V30 2624 H 252.331 5.34652 0.0713833 0
M  V30 2625 H 252.674 4.00505 1.13586 0
M  V30 2626 H 253.207 3.93816 -0.561599 0
M  V30 2627 H 249.946 5.92323 -2.80774 0
M  V30 2628 H 249.466 5.89714 -1.09535 0
M  V30 2629 H 251.145 6.28201 -1.5483 0
M  V30 2630 N 251.277 0.427512 1.51691 0
M  V30 2631 C 252.24 -0.377132 2.26076 0
M  V30 2632 C 253.24 -0.958089 1.29141 0
M  V30 2633 O 254.43 -0.83408 1.52934 0
M  V30 2634 C 251.562 -1.53262 3.04506 0
M  V30 2635 H 252.755 0.27464 2.9864 0
M  V30 2636 H 250.308 0.180445 1.55255 0
M  V30 2637 H 251.043 -2.22072 2.36335 0
M  V30 2638 H 250.828 -1.12232 3.75694 0
M  V30 2639 H 252.318 -2.10135 3.60878 0
M  V30 2640 N 252.755 -1.56801 0.158532 0
M  V30 2641 C 253.687 -2.14488 -0.807923 0
M  V30 2642 C 254.7 -1.09721 -1.20271 0
M  V30 2643 O 255.889 -1.36956 -1.14478 0
M  V30 2644 C 252.989 -2.66217 -2.09718 0
M  V30 2645 C 252.162 -3.95507 -1.86796 0
M  V30 2646 C 251.221 -4.3243 -2.99818 0
M  V30 2647 O 250.247 -5.00543 -2.71008 0
M  V30 2648 N 251.449 -3.92947 -4.27285 0
M  V30 2649 H 254.214 -2.98042 -0.314816 0
M  V30 2650 H 251.775 -1.61881 -0.0246692 0
M  V30 2651 H 253.767 -2.87924 -2.84398 0
M  V30 2652 H 252.337 -1.87324 -2.50257 0
M  V30 2653 H 251.557 -3.82309 -0.96089 0
M  V30 2654 H 252.845 -4.79972 -1.68833 0
M  V30 2655 H 252.243 -3.38087 -4.53557 0
M  V30 2656 H 250.8 -4.19681 -4.9871 0
M  V30 2657 N 254.233 0.115231 -1.57178 0
M  V30 2658 C 255.479 0.82357 -1.85325 0
M  V30 2659 C 255.812 1.79349 -0.744814 0
M  V30 2660 O 255.087 1.92899 0.249024 0
M  V30 2661 C 255.37 1.57014 -3.24066 0
M  V30 2662 C 255.223 0.619565 -4.45513 0
M  V30 2663 C 256.542 2.52545 -3.60429 0
M  V30 2664 H 253.661 0.297948 -0.674089 0
M  V30 2665 H 256.303 0.0877138 -1.89797 0
M  V30 2666 H 254.453 2.19742 -3.20383 0
M  V30 2667 H 256.125 0.000837639 -4.613 0
M  V30 2668 H 254.368 -0.0686174 -4.33746 0
M  V30 2669 H 255.039 1.17866 -5.3927 0
M  V30 2670 H 257.515 1.9992 -3.64926 0
M  V30 2671 H 256.391 3.01811 -4.58477 0
M  V30 2672 H 256.652 3.35383 -2.88047 0
M  V30 2673 N 255.711 1.52812 0.385517 0
M  V30 2674 C 256.958 1.68026 1.1302 0
M  V30 2675 C 257.286 0.421934 1.89868 0
M  V30 2676 O 256.541 -0.595749 1.86412 0
M  V30 2677 C 256.84 2.86856 2.13187 0
M  V30 2678 C 256.506 4.24159 1.5297 0
M  V30 2679 C 255.168 4.61501 1.36274 0
M  V30 2680 C 257.52 5.09627 1.09223 0
M  V30 2681 C 254.848 5.81966 0.743837 0
M  V30 2682 C 257.2 6.30719 0.487411 0
M  V30 2683 C 255.864 6.6679 0.307777 0
M  V30 2684 H 255.134 0.614849 0.413571 0
M  V30 2685 H 257.781 1.86962 0.414405 0
M  V30 2686 H 256.086 2.6235 2.90998 0
M  V30 2687 H 257.783 2.95821 2.70722 0
M  V30 2688 H 254.373 3.94746 1.66954 0
M  V30 2689 H 258.557 4.81343 1.20922 0
M  V30 2690 H 253.813 6.08519 0.592891 0
M  V30 2691 H 257.987 6.96259 0.140143 0
M  V30 2692 H 255.614 7.60001 -0.173879 0
M  V30 2693 N 257.189 -0.644168 1.43834 0
M  V30 2694 C 258.437 -1.40117 1.45642 0
M  V30 2695 C 258.758 -1.94814 0.0852413 0
M  V30 2696 O 258.028 -1.74988 -0.880688 0
M  V30 2697 H 256.608 -0.52005 0.536243 0
M  V30 2698 H 259.27 -0.7591 1.7951 0
M  V30 2699 H 258.366 -2.23902 2.17427 0
M  V30 2700 N 258.668 -1.30515 -0.883378 0
M  V30 2701 C 259.598 -1.19607 -2.00541 0
M  V30 2702 C 260.579 -0.086346 -1.69881 0
M  V30 2703 O 261.764 -0.268654 -1.92333 0
M  V30 2704 C 258.894 -0.888758 -3.35736 0
M  V30 2705 C 257.848 -1.95659 -3.8066 0
M  V30 2706 C 257.174 -1.50224 -5.13164 0
M  V30 2707 C 258.474 -3.36788 -3.99213 0
M  V30 2708 H 260.168 -2.13476 -2.09925 0
M  V30 2709 H 257.714 -1.02775 -1.00863 0
M  V30 2710 H 259.667 -0.799094 -4.13754 0
M  V30 2711 H 258.391 0.0856125 -3.26488 0
M  V30 2712 H 257.05 -2.03591 -3.04871 0
M  V30 2713 H 256.698 -0.516092 -5.00345 0
M  V30 2714 H 256.398 -2.2165 -5.44192 0
M  V30 2715 H 257.922 -1.42639 -5.93706 0
M  V30 2716 H 259.336 -3.31605 -4.67665 0
M  V30 2717 H 257.733 -4.06314 -4.41621 0
M  V30 2718 H 258.803 -3.78561 -3.03017 0
M  V30 2719 N 260.146 1.09593 -1.13257 0
M  V30 2720 C 261.423 1.78293 -0.804432 0
M  V30 2721 C 261.803 1.99004 0.70431 0
M  V30 2722 O 261.151 1.59007 1.641 0
M  V30 2723 C 261.361 3.10707 -1.5894 0
M  V30 2724 C 262.709 3.85443 -1.78099 0
M  V30 2725 O 263.733 3.20454 -1.55525 0
M  V30 2726 O 262.592 5.02108 -2.15753 0
M  V30 2727 H 259.686 0.773156 -0.293528 0
M  V30 2728 H 262.232 1.16164 -1.23709 0
M  V30 2729 H 261.004 2.91106 -2.61482 0
M  V30 2730 H 260.627 3.80558 -1.15157 0
M  V30 2731 N 261.624 0.925811 1.2754 0
M  V30 2732 C 262.849 0.580924 1.99098 0
M  V30 2733 C 263.274 -0.833555 1.68622 0
M  V30 2734 O 262.632 -1.55903 0.925422 0
M  V30 2735 C 262.68 0.811186 3.51358 0
M  V30 2736 O 261.784 -0.124129 4.12213 0
M  V30 2737 H 261.125 0.223873 0.625122 0
M  V30 2738 H 263.655 1.24455 1.62395 0
M  V30 2739 H 263.665 0.72601 4.01489 0
M  V30 2740 H 262.34 1.84227 3.72872 0
M  V30 2741 H 260.917 0.0108006 3.72898 0
M  V30 2742 N 263.102 -1.41638 0.69111 0
M  V30 2743 C 264.351 -2.00526 0.217318 0
M  V30 2744 C 264.664 -1.55353 -1.18848 0
M  V30 2745 O 265.87 -2.06769 -1.75951 0
M  V30 2746 C 264.326 -3.58313 0.337639 0
M  V30 2747 C 263.934 -4.12469 1.74852 0
M  V30 2748 C 265.678 -4.24431 -0.0766066 0
M  V30 2749 C 263.585 -5.62675 1.82074 0
M  V30 2750 H 262.515 -0.750008 0.0774893 0
M  V30 2751 H 265.166 -1.6217 0.858661 0
M  V30 2752 H 263.548 -3.9425 -0.371879 0
M  V30 2753 H 264.722 -3.8796 2.48644 0
M  V30 2754 H 263.037 -3.58861 2.11205 0
M  V30 2755 H 265.634 -5.34683 -0.0430284 0
M  V30 2756 H 265.977 -4.01101 -1.1146 0
M  V30 2757 H 266.51 -3.93512 0.582476 0
M  V30 2758 H 263.249 -5.90826 2.83911 0
M  V30 2759 H 262.769 -5.89124 1.12661 0
M  V30 2760 H 264.448 -6.27371 1.58159 0
M  V30 2761 N 264.58 -0.43555 -1.51462 0
M  V30 2762 C 265.513 0.421989 -2.24264 0
M  V30 2763 C 266.491 1.02619 -1.26127 0
M  V30 2764 O 267.675 1.069 -1.55257 0
M  V30 2765 C 264.802 1.588 -2.99166 0
M  V30 2766 C 263.848 1.10465 -4.11946 0
M  V30 2767 S 264.681 0.048146 -5.35478 0
M  V30 2768 C 265.837 1.21887 -6.13917 0
M  V30 2769 H 266.07 -0.196102 -2.96653 0
M  V30 2770 H 263.603 -0.220054 -1.52824 0
M  V30 2771 H 265.561 2.25647 -3.42919 0
M  V30 2772 H 264.222 2.1775 -2.26371 0
M  V30 2773 H 263.415 1.97654 -4.63626 0
M  V30 2774 H 263.017 0.51445 -3.70445 0
M  V30 2775 H 265.309 2.13756 -6.42895 0
M  V30 2776 H 266.252 0.742076 -7.04201 0
M  V30 2777 H 266.66 1.45663 -5.45383 0
M  V30 2778 N 266.058 1.56714 -0.166846 0
M  V30 2779 C 267.306 1.96358 0.478305 0
M  V30 2780 C 267.627 1.0537 1.6408 0
M  V30 2781 O 266.897 0.119154 1.95537 0
M  V30 2782 H 265.477 0.725065 0.179692 0
M  V30 2783 H 268.139 1.93329 -0.246985 0
M  V30 2784 H 267.235 3.00547 0.841292 0
M  V30 2785 N 267.536 -0.106894 1.57237 0
M  V30 2786 C 268.484 -1.14944 2.02215 0
M  V30 2787 C 269.478 -1.42167 0.92114 0
M  V30 2788 O 270.684 -1.41987 1.10634 0
M  V30 2789 H 267.059 -0.387841 0.64427 0
M  V30 2790 H 269.03 -0.743683 2.88984 0
M  V30 2791 C 267.779 -2.4647 2.4525 0
M  V30 2792 H 267.102 -2.26363 3.29545 0
M  V30 2793 H 268.542 -3.17948 2.80508 0
M  V30 2794 C 267.001 -3.09921 1.321 0
M  V30 2795 O 267.531 -3.9651 0.643622 0
M  V30 2796 N 265.737 -2.69986 1.07497 0
M  V30 2797 H 265.284 -1.99667 1.62761 0
M  V30 2798 H 265.242 -3.12769 0.319876 0
M  V30 2799 N 269.014 -1.53014 -0.377408 0
M  V30 2800 C 269.961 -1.78616 -1.46168 0
M  V30 2801 C 270.931 -0.629917 -1.53692 0
M  V30 2802 O 272.116 -0.870861 -1.69766 0
M  V30 2803 C 269.256 -1.97123 -2.8326 0
M  V30 2804 C 268.369 -3.24831 -2.84796 0
M  V30 2805 C 267.504 -3.33591 -4.13389 0
M  V30 2806 C 266.543 -4.55377 -4.09021 0
M  V30 2807 N 265.68 -4.61355 -5.29241 0
M  V30 2808 H 270.52 -2.71142 -1.23637 0
M  V30 2809 H 268.057 -1.34326 -0.599577 0
M  V30 2810 H 270.015 -2.05839 -3.62886 0
M  V30 2811 H 268.645 -1.07946 -3.04216 0
M  V30 2812 H 267.697 -3.25128 -1.97474 0
M  V30 2813 H 269.009 -4.14523 -2.77439 0
M  V30 2814 H 268.163 -3.41554 -5.01424 0
M  V30 2815 H 266.902 -2.41894 -4.23484 0
M  V30 2816 H 265.907 -4.47527 -3.19373 0
M  V30 2817 H 267.132 -5.48402 -4.00539 0
M  V30 2818 H 265.078 -3.72554 -5.39944 0
M  V30 2819 H 264.995 -5.44935 -5.24006 0
M  V30 2820 H 266.263 -4.73586 -6.19141 0
M  V30 2821 N 270.492 0.636531 -1.44174 0
M  V30 2822 C 271.769 1.39463 -1.37148 0
M  V30 2823 C 272.149 2.11082 -0.027507 0
M  V30 2824 O 271.497 2.05954 0.989716 0
M  V30 2825 C 271.707 2.36552 -2.56601 0
M  V30 2826 C 273.055 3.00048 -3.00427 0
M  V30 2827 O 274.079 2.46878 -2.56767 0
M  V30 2828 O 272.938 3.96488 -3.76111 0
M  V30 2829 H 270.032 0.623903 -0.542839 0
M  V30 2830 H 272.578 0.662039 -1.56253 0
M  V30 2831 H 271.35 1.82692 -3.46034 0
M  V30 2832 H 270.973 3.17236 -2.39681 0
M  V30 2833 N 271.97 1.30982 0.876444 0
M  V30 2834 C 272.9 1.20668 1.99903 0
M  V30 2835 C 273.881 0.095354 1.69833 0
M  V30 2836 O 275.066 0.27885 1.92188 0
M  V30 2837 C 272.196 0.90655 3.3526 0
M  V30 2838 C 271.15 1.97675 3.79617 0
M  V30 2839 C 270.476 1.52943 5.1236 0
M  V30 2840 C 271.776 3.389 3.97422 0
M  V30 2841 H 273.47 2.14586 2.0879 0
M  V30 2842 H 271.016 1.03308 1.00317 0
M  V30 2843 H 272.969 0.821025 4.13324 0
M  V30 2844 H 271.693 -0.0682969 3.26529 0
M  V30 2845 H 270.352 2.05205 3.03787 0
M  V30 2846 H 270 0.54262 5.00065 0
M  V30 2847 H 269.7 2.24532 5.43009 0
M  V30 2848 H 271.224 1.45786 5.92941 0
M  V30 2849 H 272.638 3.34081 4.659 0
M  V30 2850 H 271.035 4.0865 4.3946 0
M  V30 2851 H 272.105 3.80163 3.01006 0
M  V30 2852 N 273.449 -1.08991 1.13837 0
M  V30 2853 C 274.695 -1.81699 0.91417 0
M  V30 2854 C 275.05 -1.84264 -0.553594 0
M  V30 2855 O 274.343 -1.30313 -1.4046 0
M  V30 2856 C 274.537 -3.27042 1.44147 0
M  V30 2857 C 274.366 -3.38637 2.95897 0
M  V30 2858 C 273.136 -3.50177 3.64286 0
M  V30 2859 C 275.334 -3.30791 3.93804 0
M  V30 2860 N 273.316 -3.50501 5.04006 0
M  V30 2861 C 274.687 -3.38037 5.19741 0
M  V30 2862 C 276.742 -3.14488 3.86007 0
M  V30 2863 C 275.445 -3.30659 6.38793 0
M  V30 2864 C 277.471 -3.08438 5.04599 0
M  V30 2865 C 276.833 -3.1628 6.29402 0
M  V30 2866 H 272.932 -0.678967 0.387979 0
M  V30 2867 H 275.516 -1.30224 1.4474 0
M  V30 2868 H 273.687 -3.76976 0.935091 0
M  V30 2869 H 275.419 -3.87785 1.1578 0
M  V30 2870 H 272.174 -3.53815 3.1482 0
M  V30 2871 H 272.598 -3.54236 5.76928 0
M  V30 2872 H 277.24 -3.07291 2.90399 0
M  V30 2873 H 274.958 -3.36618 7.34652 0
M  V30 2874 H 278.544 -2.96952 5.0031 0
M  V30 2875 H 277.424 -3.1162 7.19627 0
M  V30 2876 N 274.927 -0.932562 -1.27047 0
M  V30 2877 C 276.338 -0.619451 -1.76124 0
M  V30 2878 C 276.689 0.865397 -1.76083 0
M  V30 2879 O 275.814 1.67722 -1.36742 0
M  V30 2880 C 276.409 -1.11771 -3.19832 0
M  V30 2881 C 274.968 -0.855174 -3.66557 0
M  V30 2882 C 274.115 -1.27362 -2.46321 0
M  V30 2883 H 277.066 -1.11181 -1.13245 0
M  V30 2884 H 277.087 -0.46759 -3.77616 0
M  V30 2885 H 276.599 -2.19842 -3.1983 0
M  V30 2886 H 274.7 0.211524 -3.71999 0
M  V30 2887 H 274.813 -1.47613 -4.55793 0
M  V30 2888 H 273.177 -0.692119 -2.45116 0
M  V30 2889 H 273.96 -2.36307 -2.49025 0
M  V30 2890 N 276.405 1.4127 -0.698611 0
M  V30 2891 C 277.335 2.33447 -0.049629 0
M  V30 2892 C 278.316 1.51982 0.763898 0
M  V30 2893 O 279.501 1.80509 0.716257 0
M  V30 2894 C 276.631 3.35828 0.885267 0
M  V30 2895 C 275.585 4.27627 0.178613 0
M  V30 2896 C 274.911 5.20406 1.22807 0
M  V30 2897 C 276.211 5.13459 -0.956933 0
M  V30 2898 H 277.905 2.87966 -0.81951 0
M  V30 2899 H 275.451 1.38461 -0.395538 0
M  V30 2900 H 277.404 3.9924 1.34854 0
M  V30 2901 H 276.128 2.79666 1.68685 0
M  V30 2902 H 274.787 3.65643 -0.26466 0
M  V30 2903 H 274.435 4.60558 2.02226 0
M  V30 2904 H 274.135 5.82661 0.760239 0
M  V30 2905 H 275.659 5.86695 1.69179 0
M  V30 2906 H 277.073 5.70421 -0.573805 0
M  V30 2907 H 275.47 5.8467 -1.35205 0
M  V30 2908 H 276.54 4.50443 -1.79524 0
M  V30 2909 N 277.883 0.443576 1.51229 0
M  V30 2910 C 278.813 -0.355142 2.30783 0
M  V30 2911 C 279.794 -1.0154 1.36468 0
M  V30 2912 O 280.979 -1.01785 1.65389 0
M  V30 2913 C 278.109 -1.45312 3.15439 0
M  V30 2914 C 277.063 -0.916002 4.18083 0
M  V30 2915 C 276.389 -2.1102 4.91299 0
M  V30 2916 C 277.689 0.0538602 5.22272 0
M  V30 2917 H 279.383 0.308767 2.97804 0
M  V30 2918 H 276.929 0.149937 1.43217 0
M  V30 2919 H 278.882 -2.01914 3.69876 0
M  V30 2920 H 277.606 -2.14541 2.46252 0
M  V30 2921 H 276.265 -0.372145 3.64706 0
M  V30 2922 H 275.913 -2.78882 4.18609 0
M  V30 2923 H 275.613 -1.75717 5.60712 0
M  V30 2924 H 277.137 -2.68164 5.48562 0
M  V30 2925 H 278.551 -0.422069 5.71744 0
M  V30 2926 H 276.948 0.319776 5.99247 0
M  V30 2927 H 278.018 0.98858 4.74716 0
M  V30 2928 N 279.361 -1.56624 0.175154 0
M  V30 2929 C 280.291 -2.21155 -0.749195 0
M  V30 2930 C 281.272 -1.16836 -1.23626 0
M  V30 2931 O 282.457 -1.45277 -1.28873 0
M  V30 2932 C 279.587 -2.8553 -1.97711 0
M  V30 2933 C 278.541 -3.95921 -1.62575 0
M  V30 2934 C 277.867 -4.47365 -2.92864 0
M  V30 2935 C 279.167 -5.15323 -0.850838 0
M  V30 2936 H 280.861 -2.98653 -0.211295 0
M  V30 2937 H 278.407 -1.43651 -0.100188 0
M  V30 2938 H 280.36 -3.2935 -2.62881 0
M  V30 2939 H 279.084 -2.05406 -2.53921 0
M  V30 2940 H 277.743 -3.52762 -0.997719 0
M  V30 2941 H 277.391 -3.64027 -3.47122 0
M  V30 2942 H 277.091 -5.21839 -2.70106 0
M  V30 2943 H 278.615 -4.93873 -3.59056 0
M  V30 2944 H 280.029 -5.55812 -1.40521 0
M  V30 2945 H 278.426 -5.95739 -0.722154 0
M  V30 2946 H 279.496 -4.84661 0.152082 0
M  V30 2947 N 280.839 0.0985539 -1.57292 0
M  V30 2948 C 282.064 0.820196 -1.90493 0
M  V30 2949 C 282.489 1.71658 -0.769094 0
M  V30 2950 O 281.847 1.79133 0.279495 0
M  V30 2951 C 281.895 1.61242 -3.22542 0
M  V30 2952 O 280.999 2.72108 -3.09888 0
M  V30 2953 H 280.34 0.225547 -0.62452 0
M  V30 2954 H 282.87 0.0748159 -2.04463 0
M  V30 2955 H 282.88 1.99737 -3.55766 0
M  V30 2956 H 281.555 0.954535 -4.04798 0
M  V30 2957 H 280.132 2.36667 -2.88172 0
M  V30 2958 N 282.317 1.53212 0.369288 0
M  V30 2959 C 283.566 1.68436 1.10961 0
M  V30 2960 C 283.879 0.440738 1.9057 0
M  V30 2961 O 285.085 0.473446 2.6734 0
M  V30 2962 C 283.541 2.97744 2.0218 0
M  V30 2963 C 283.149 4.29355 1.279 0
M  V30 2964 C 284.893 3.22334 2.76226 0
M  V30 2965 C 282.8 5.49755 2.17999 0
M  V30 2966 H 281.73 0.627568 0.41794 0
M  V30 2967 H 284.381 1.79713 0.370884 0
M  V30 2968 H 282.763 2.8026 2.79768 0
M  V30 2969 H 283.937 4.57458 0.554007 0
M  V30 2970 H 282.252 4.11179 0.657311 0
M  V30 2971 H 284.849 4.09471 3.43857 0
M  V30 2972 H 285.192 2.38238 3.41392 0
M  V30 2973 H 285.725 3.40475 2.05723 0
M  V30 2974 H 282.464 6.36318 1.57417 0
M  V30 2975 H 281.984 5.25937 2.88359 0
M  V30 2976 H 283.663 5.84401 2.77641 0
M  V30 2977 N 283.795 -0.628877 1.44509 0
M  V30 2978 C 285.044 -1.38437 1.4669 0
M  V30 2979 C 285.357 -1.95322 0.104272 0
M  V30 2980 O 286.563 -2.715 0.00362163 0
M  V30 2981 C 285.019 -2.50659 2.5826 0
M  V30 2982 C 284.627 -2.00277 4.0074 0
M  V30 2983 C 286.371 -3.27844 2.69664 0
M  V30 2984 C 284.278 -3.09854 5.0373 0
M  V30 2985 H 283.208 -0.520245 0.545766 0
M  V30 2986 H 285.859 -0.676313 1.70582 0
M  V30 2987 H 284.241 -3.2405 2.27612 0
M  V30 2988 H 285.415 -1.33736 4.40966 0
M  V30 2989 H 283.73 -1.35901 3.93599 0
M  V30 2990 H 286.327 -4.09534 3.43781 0
M  V30 2991 H 286.67 -3.77471 1.75559 0
M  V30 2992 H 287.203 -2.61543 2.99733 0
M  V30 2993 H 283.942 -2.65168 5.99472 0
M  V30 2994 H 283.462 -3.7503 4.68095 0
M  V30 2995 H 285.141 -3.74592 5.27532 0
M  V30 2996 N 285.273 -1.31445 -0.869486 0
M  V30 2997 C 286.52 -1.21158 -1.62256 0
M  V30 2998 C 286.848 0.230155 -1.93133 0
M  V30 2999 O 286.103 1.17906 -1.56194 0
M  V30 3000 C 286.402 -2.00145 -2.96102 0
M  V30 3001 C 286.068 -3.4964 -2.84715 0
M  V30 3002 C 284.73 -3.90403 -2.81317 0
M  V30 3003 C 287.082 -4.44769 -2.71716 0
M  V30 3004 C 284.41 -5.24561 -2.62778 0
M  V30 3005 C 286.762 -5.79054 -2.54714 0
M  V30 3006 C 285.426 -6.19037 -2.49699 0
M  V30 3007 H 284.696 -0.443348 -0.593737 0
M  V30 3008 H 287.343 -1.62715 -1.00976 0
M  V30 3009 H 285.648 -1.5127 -3.6142 0
M  V30 3010 H 287.345 -1.89566 -3.53363 0
M  V30 3011 H 283.935 -3.17256 -2.88178 0
M  V30 3012 H 288.119 -4.14208 -2.73397 0
M  V30 3013 H 283.375 -5.54613 -2.57321 0
M  V30 3014 H 287.549 -6.52393 -2.43632 0
M  V30 3015 H 285.176 -7.22935 -2.35093 0
M  V30 3016 N 286.751 1.08385 -1.14413 0
M  V30 3017 C 288 1.80153 -0.907076 0
M  V30 3018 C 288.313 1.87176 0.567851 0
M  V30 3019 O 289.519 2.55359 0.922172 0
M  V30 3020 C 287.975 3.23687 -1.57336 0
M  V30 3021 C 287.583 3.24897 -3.08457 0
M  V30 3022 C 289.327 4.00136 -1.41744 0
M  V30 3023 C 287.234 4.6302 -3.67921 0
M  V30 3024 H 286.164 0.675139 -0.335714 0
M  V30 3025 H 288.815 1.21733 -1.37307 0
M  V30 3026 H 287.197 3.82234 -1.03505 0
M  V30 3027 H 288.371 2.76055 -3.68958 0
M  V30 3028 H 286.686 2.61943 -3.2369 0
M  V30 3029 H 289.283 5.02201 -1.83572 0
M  V30 3030 H 289.626 4.14709 -0.363576 0
M  V30 3031 H 290.159 3.48058 -1.92614 0
M  V30 3032 H 286.898 4.5365 -4.73161 0
M  V30 3033 H 286.418 5.12143 -3.12201 0
M  V30 3034 H 288.097 5.31994 -3.68227 0
M  V30 3035 N 288.23 0.939286 1.26551 0
M  V30 3036 C 289.641 0.628782 1.75793 0
M  V30 3037 C 289.992 -0.856046 1.7654 0
M  V30 3038 O 289.117 -1.66994 1.3763 0
M  V30 3039 C 289.712 1.13465 3.19235 0
M  V30 3040 C 288.271 0.874601 3.66098 0
M  V30 3041 C 287.418 1.28667 2.45642 0
M  V30 3042 H 290.369 1.1178 1.12654 0
M  V30 3043 H 290.39 0.487609 3.77363 0
M  V30 3044 H 289.902 2.21535 3.1866 0
M  V30 3045 H 288.003 -0.191793 3.72106 0
M  V30 3046 H 288.116 1.50028 4.55004 0
M  V30 3047 H 286.48 0.705109 2.44745 0
M  V30 3048 H 287.263 2.37625 2.47769 0
M  V30 3049 N 289.708 -1.40897 0.706093 0
M  V30 3050 C 290.671 -2.29131 0.0562841 0
M  V30 3051 C 291.671 -1.44901 -0.697166 0
M  V30 3052 O 292.861 -1.65926 -0.530484 0
M  V30 3053 C 289.993 -3.27957 -0.93043 0
M  V30 3054 H 291.186 -2.88091 0.833284 0
M  V30 3055 H 288.739 -1.4906 0.470192 0
M  V30 3056 H 289.474 -2.73997 -1.73482 0
M  V30 3057 H 289.259 -3.90124 -0.393166 0
M  V30 3058 H 290.749 -3.94049 -1.38256 0
M  V30 3059 N 291.186 -0.45159 -1.50991 0
M  V30 3060 C 292.116 0.342898 -2.30969 0
M  V30 3061 C 293.097 1.00815 -1.37005 0
M  V30 3062 O 294.282 1.00907 -1.65926 0
M  V30 3063 C 291.412 1.43637 -3.16205 0
M  V30 3064 C 290.366 0.893818 -4.18563 0
M  V30 3065 C 289.692 2.08411 -4.92411 0
M  V30 3066 C 290.992 -0.0815568 -5.22236 0
M  V30 3067 H 292.686 -0.324556 -2.97636 0
M  V30 3068 H 290.232 -0.157531 -1.43136 0
M  V30 3069 H 292.185 1.9995 -3.70942 0
M  V30 3070 H 290.909 2.13232 -2.47386 0
M  V30 3071 H 289.568 0.352798 -3.64898 0
M  V30 3072 H 289.216 2.76658 -4.20082 0
M  V30 3073 H 288.916 1.72741 -5.61636 0
M  V30 3074 H 290.44 2.65251 -5.49976 0
M  V30 3075 H 291.854 0.391742 -5.7196 0
M  V30 3076 H 290.251 -0.351551 -5.99069 0
M  V30 3077 H 291.321 -1.01374 -4.74185 0
M  V30 3078 N 292.664 1.56529 -0.183458 0
M  V30 3079 C 293.594 2.21549 0.737456 0
M  V30 3080 C 294.575 1.17489 1.23005 0
M  V30 3081 O 295.76 1.45959 1.281 0
M  V30 3082 C 292.89 2.86575 1.96194 0
M  V30 3083 C 291.844 3.96778 1.60473 0
M  V30 3084 C 291.17 4.48911 2.90487 0
M  V30 3085 C 292.47 5.15767 0.823497 0
M  V30 3086 H 294.164 2.98761 0.195453 0
M  V30 3087 H 291.71 1.43702 0.0925686 0
M  V30 3088 H 293.663 3.30739 2.61131 0
M  V30 3089 H 292.387 2.06749 2.52828 0
M  V30 3090 H 291.046 3.53286 0.978997 0
M  V30 3091 H 290.694 3.65862 3.45186 0
M  V30 3092 H 290.394 5.23265 2.67335 0
M  V30 3093 H 291.918 4.95771 3.56432 0
M  V30 3094 H 293.332 5.56549 1.37571 0
M  V30 3095 H 291.729 5.96114 0.690551 0
M  V30 3096 H 292.799 4.84574 -0.177782 0
M  V30 3097 N 294.142 -0.090211 1.57342 0
M  V30 3098 C 295.074 -1.13541 1.99101 0
M  V30 3099 C 296.087 -1.3604 0.894258 0
M  V30 3100 O 297.276 -1.34606 1.17233 0
M  V30 3101 C 294.376 -2.49001 2.29895 0
M  V30 3102 C 293.549 -2.46712 3.61182 0
M  V30 3103 C 292.608 -3.64136 3.79857 0
M  V30 3104 O 291.634 -3.46405 4.51655 0
M  V30 3105 N 292.836 -4.83802 3.20806 0
M  V30 3106 H 295.601 -0.779942 2.89373 0
M  V30 3107 H 293.162 -0.279125 1.59476 0
M  V30 3108 H 295.154 -3.26166 2.39578 0
M  V30 3109 H 293.724 -2.76619 1.45605 0
M  V30 3110 H 292.944 -1.55058 3.62423 0
M  V30 3111 H 294.232 -2.42265 4.4742 0
M  V30 3112 H 293.63 -5.01112 2.62494 0
M  V30 3113 H 292.187 -5.58543 3.35966 0
M  V30 3114 N 295.62 -1.53406 -0.361157 0
M  V30 3115 C 296.86 -1.71507 -1.11197 0
M  V30 3116 C 297.224 -0.459337 -1.86425 0
M  V30 3117 O 298.425 -0.517102 -2.63779 0
M  V30 3118 C 296.696 -2.93307 -2.0422 0
M  V30 3119 S 298.255 -3.32135 -2.86761 0
M  V30 3120 H 295.073 -0.603448 -0.375995 0
M  V30 3121 H 297.675 -1.91516 -0.392642 0
M  V30 3122 H 296.379 -3.82891 -1.47724 0
M  V30 3123 H 295.91 -2.75712 -2.80618 0
M  V30 3124 H 297.925 -2.84493 -4.06544 0
M  V30 3125 N 297.098 0.621204 -1.44841 0
M  V30 3126 C 298.347 1.37658 -1.47422 0
M  V30 3127 C 298.66 1.95264 -0.114629 0
M  V30 3128 O 299.866 2.71494 -0.0180199 0
M  V30 3129 C 298.322 2.49285 -2.59586 0
M  V30 3130 C 297.93 1.98149 -4.01797 0
M  V30 3131 C 299.674 3.26409 -2.71399 0
M  V30 3132 C 297.581 3.07178 -5.05367 0
M  V30 3133 H 296.511 0.517344 -0.548517 0
M  V30 3134 H 299.162 0.667257 -1.70938 0
M  V30 3135 H 297.544 3.22839 -2.29328 0
M  V30 3136 H 298.718 1.31395 -4.41669 0
M  V30 3137 H 297.033 1.33812 -3.94314 0
M  V30 3138 H 299.63 4.07706 -3.45948 0
M  V30 3139 H 299.973 3.76535 -1.77559 0
M  V30 3140 H 300.506 2.5995 -3.01116 0
M  V30 3141 H 297.245 2.61985 -6.00869 0
M  V30 3142 H 296.765 3.72542 -4.70077 0
M  V30 3143 H 298.444 3.71789 -5.29511 0
M  V30 3144 N 298.576 1.31904 0.862503 0
M  V30 3145 C 299.822 1.22197 1.61851 0
M  V30 3146 C 300.155 -0.217641 1.92977 0
M  V30 3147 O 299.43 -1.15264 1.56666 0
M  V30 3148 C 299.713 2.07378 2.94391 0
M  V30 3149 C 299.566 3.59678 2.70096 0
M  V30 3150 C 300.885 1.92891 3.95577 0
M  V30 3151 H 298.004 0.445255 0.587296 0
M  V30 3152 H 300.646 1.6177 0.99651 0
M  V30 3153 H 298.796 1.73758 3.47477 0
M  V30 3154 H 300.468 4.03472 2.23625 0
M  V30 3155 H 298.711 3.82735 2.04197 0
M  V30 3156 H 299.382 4.14595 3.64438 0
M  V30 3157 H 301.858 2.22327 3.51724 0
M  V30 3158 H 300.734 2.54781 4.86187 0
M  V30 3159 H 300.995 0.894315 4.3296 0
M  V30 3160 N 300.054 -1.07777 1.14986 0
M  V30 3161 C 300.984 -2.16865 0.865557 0
M  V30 3162 C 301.965 -1.69123 -0.182083 0
M  V30 3163 O 303.15 -1.94164 -0.0373815 0
M  V30 3164 C 300.28 -3.45539 0.349313 0
M  V30 3165 C 299.234 -4.06708 1.33313 0
M  V30 3166 C 298.56 -5.30411 0.675918 0
M  V30 3167 C 299.86 -4.47241 2.69764 0
M  V30 3168 H 301.554 -2.40905 1.77778 0
M  V30 3169 H 299.1 -1.15781 0.856203 0
M  V30 3170 H 301.053 -4.21174 0.137983 0
M  V30 3171 H 299.777 -3.21072 -0.598362 0
M  V30 3172 H 298.436 -3.33112 1.53075 0
M  V30 3173 H 298.084 -5.02232 -0.277767 0
M  V30 3174 H 297.784 -5.72293 1.33244 0
M  V30 3175 H 299.308 -6.08755 0.474262 0
M  V30 3176 H 300.722 -5.14025 2.53873 0
M  V30 3177 H 299.119 -5.00062 3.3175 0
M  V30 3178 H 300.189 -3.58818 3.26156 0
M  V30 3179 N 301.532 -0.945985 -1.26051 0
M  V30 3180 C 302.943 -0.638096 -1.75457 0
M  V30 3181 C 303.294 0.846672 -1.76991 0
M  V30 3182 O 302.419 1.66262 -1.38513 0
M  V30 3183 C 303.014 -1.15157 -3.18629 0
M  V30 3184 C 301.573 -0.894004 -3.65629 0
M  V30 3185 C 300.72 -1.29967 -2.44957 0
M  V30 3186 H 303.671 -1.12376 -1.1206 0
M  V30 3187 H 303.692 -0.507615 -3.77099 0
M  V30 3188 H 303.204 -2.23222 -3.1748 0
M  V30 3189 H 301.305 0.172057 -3.72203 0
M  V30 3190 H 301.418 -1.52439 -4.54202 0
M  V30 3191 H 299.782 -0.718078 -2.44368 0
M  V30 3192 H 300.565 -2.38935 -2.46505 0
M  V30 3193 N 303.011 1.40521 -0.713556 0
M  V30 3194 C 304.258 2.00923 -0.25219 0
M  V30 3195 C 304.586 1.56571 1.15395 0
M  V30 3196 O 303.841 0.775874 1.79663 0
M  V30 3197 C 304.14 3.56317 -0.278 0
M  V30 3198 C 303.806 4.20246 -1.63415 0
M  V30 3199 C 302.468 4.37422 -2.00538 0
M  V30 3200 C 304.82 4.55923 -2.52554 0
M  V30 3201 C 302.148 4.87558 -3.2635 0
M  V30 3202 C 304.5 5.07458 -3.77716 0
M  V30 3203 C 303.164 5.22843 -4.14959 0
M  V30 3204 H 302.434 0.735231 -0.0922829 0
M  V30 3205 H 305.081 1.68161 -0.916188 0
M  V30 3206 H 303.386 3.88976 0.469567 0
M  V30 3207 H 305.083 4.00883 0.0967819 0
M  V30 3208 H 301.673 4.07263 -1.33546 0
M  V30 3209 H 305.857 4.42291 -2.25149 0
M  V30 3210 H 301.113 4.97654 -3.55176 0
M  V30 3211 H 305.287 5.34041 -4.4696 0
M  V30 3212 H 302.914 5.61454 -5.12516 0
M  V30 3213 N 304.489 0.459591 1.5075 0
M  V30 3214 C 305.729 -0.09824 2.04164 0
M  V30 3215 C 306.093 -1.3801 1.33481 0
M  V30 3216 O 307.294 -2.01959 1.77387 0
M  V30 3217 C 305.565 -0.289467 3.56226 0
M  V30 3218 S 307.124 -0.807507 4.31306 0
M  V30 3219 H 303.942 -0.0213845 0.710678 0
M  V30 3220 H 306.544 0.624098 1.85271 0
M  V30 3221 H 305.248 0.649461 4.05229 0
M  V30 3222 H 304.779 -1.03825 3.79452 0
M  V30 3223 H 306.794 -2.0824 4.50389 0
M  V30 3224 N 305.967 -1.56429 0.191757 0
M  V30 3225 C 307.378 -1.83912 -0.321428 0
M  V30 3226 C 307.729 -1.11231 -1.61623 0
M  V30 3227 O 306.854 -0.37202 -2.13178 0
M  V30 3228 C 307.449 -3.33624 -0.589961 0
M  V30 3229 C 306.008 -3.6153 -1.04753 0
M  V30 3230 C 305.155 -2.7714 -0.0943327 0
M  V30 3231 H 308.106 -1.53161 0.415612 0
M  V30 3232 H 308.127 -3.52213 -1.43966 0
M  V30 3233 H 307.639 -3.86495 0.352588 0
M  V30 3234 H 305.74 -3.14089 -2.00447 0
M  V30 3235 H 305.853 -4.69737 -0.942549 0
M  V30 3236 H 304.217 -2.47638 -0.595589 0
M  V30 3237 H 305 -3.32799 0.842601 0
M  V30 3238 N 307.445 0.0818655 -1.57387 0
M  V30 3239 C 308.355 1.11642 -2.06333 0
M  V30 3240 C 309.371 1.43033 -0.99083 0
M  V30 3241 O 310.547 1.53411 -1.30488 0
M  V30 3242 C 307.612 2.41342 -2.48907 0
M  V30 3243 C 306.673 2.17014 -3.7041 0
M  V30 3244 C 305.906 3.4053 -4.10944 0
M  V30 3245 O 306.129 4.4927 -3.51444 0
M  V30 3246 O 305.063 3.29336 -5.03807 0
M  V30 3247 H 308.889 0.730657 -2.9478 0
M  V30 3248 H 306.474 0.295301 -1.46452 0
M  V30 3249 H 308.356 3.17691 -2.76858 0
M  V30 3250 H 307.031 2.79319 -1.63593 0
M  V30 3251 H 305.938 1.38403 -3.47556 0
M  V30 3252 H 307.271 1.83923 -4.56545 0
M  V30 3253 N 308.923 1.53595 0.353017 0
M  V30 3254 C 310.148 1.7462 1.11904 0
M  V30 3255 C 310.573 0.479721 1.8188 0
M  V30 3256 O 309.931 -0.567066 1.72204 0
M  V30 3257 C 309.979 2.92029 2.11545 0
M  V30 3258 O 309.083 2.61516 3.18878 0
M  V30 3259 H 308.424 0.579531 0.324099 0
M  V30 3260 H 310.954 2.00525 0.406301 0
M  V30 3261 H 310.964 3.18551 2.5493 0
M  V30 3262 H 309.639 3.83888 1.60008 0
M  V30 3263 H 308.216 2.45852 2.80377 0
M  V30 3264 N 310.401 -0.613514 1.45168 0
M  V30 3265 C 311.812 -1.19539 1.43413 0
M  V30 3266 C 312.163 -1.95558 0.158632 0
M  V30 3267 O 311.288 -2.0335 -0.740119 0
M  V30 3268 C 311.883 -2.17445 2.59813 0
M  V30 3269 C 310.442 -2.71022 2.61197 0
M  V30 3270 C 309.589 -1.46323 2.35552 0
M  V30 3271 H 312.54 -0.403163 1.53494 0
M  V30 3272 H 312.561 -3.00373 2.33574 0
M  V30 3273 H 312.073 -1.62089 3.52631 0
M  V30 3274 H 310.174 -3.30332 1.7237 0
M  V30 3275 H 310.287 -3.15859 3.60236 0
M  V30 3276 H 308.651 -1.75072 1.84992 0
M  V30 3277 H 309.434 -0.92844 3.30507 0
M  V30 3278 N 311.879 -1.3236 -0.855495 0
M  V30 3279 C 313.295 -1.11332 -1.14356 0
M  V30 3280 C 313.495 0.106751 -2.01217 0
M  V30 3281 O 312.551 0.791891 -2.39761 0
M  V30 3282 C 313.864 -2.39237 -1.82171 0
M  V30 3283 C 315.412 -2.44986 -1.9481 0
M  V30 3284 C 315.887 -3.7281 -2.66039 0
M  V30 3285 N 317.378 -3.73787 -2.73565 0
M  V30 3286 C 318.113 -4.69394 -3.29327 0
M  V30 3287 N 317.609 -5.75367 -3.85907 0
M  V30 3288 N 319.402 -4.56893 -3.27423 0
M  V30 3289 H 311.553 -2.10586 -0.277027 0
M  V30 3290 H 313.816 -0.929701 -0.185364 0
M  V30 3291 H 313.522 -3.28431 -1.25802 0
M  V30 3292 H 313.396 -2.50134 -2.82335 0
M  V30 3293 H 315.783 -1.56252 -2.50338 0
M  V30 3294 H 315.864 -2.38043 -0.936448 0
M  V30 3295 H 315.508 -4.61918 -2.11174 0
M  V30 3296 H 315.438 -3.77024 -3.67642 0
M  V30 3297 H 317.929 -2.97189 -2.33424 0
M  V30 3298 H 318.242 -6.44378 -4.26611 0
M  V30 3299 H 316.587 -5.79123 -3.84242 0
M  V30 3300 H 319.778 -3.73269 -2.82467 0
M  V30 3301 H 319.951 -5.31577 -3.7058 0
M  V30 3302 N 313.357 1.07166 -1.15556 0
M  V30 3303 C 314.604 1.79798 -0.931604 0
M  V30 3304 C 314.932 1.8682 0.54115 0
M  V30 3305 O 314.187 1.34942 1.41736 0
M  V30 3306 C 314.486 3.24707 -1.49332 0
M  V30 3307 C 314.152 3.37781 -2.98688 0
M  V30 3308 C 312.814 3.41057 -3.39461 0
M  V30 3309 C 315.166 3.40424 -3.94665 0
M  V30 3310 C 312.494 3.4458 -4.74849 0
M  V30 3311 C 314.846 3.45485 -5.29927 0
M  V30 3312 C 313.51 3.47039 -5.70193 0
M  V30 3313 H 312.78 0.657928 -0.340898 0
M  V30 3314 H 315.427 1.26091 -1.44129 0
M  V30 3315 H 313.732 3.81208 -0.904859 0
M  V30 3316 H 315.429 3.79486 -1.29582 0
M  V30 3317 H 312.019 3.35932 -2.66172 0
M  V30 3318 H 316.203 3.37113 -3.64237 0
M  V30 3319 H 311.459 3.44083 -5.05388 0
M  V30 3320 H 315.633 3.46476 -6.04092 0
M  V30 3321 H 313.26 3.49522 -6.75084 0
M  V30 3322 N 314.835 0.952656 1.25548 0
M  V30 3323 C 315.765 0.489287 2.28316 0
M  V30 3324 C 316.746 -0.463359 1.63667 0
M  V30 3325 O 317.931 -0.36274 1.90782 0
M  V30 3326 C 315.061 -0.235603 3.465 0
M  V30 3327 C 314.015 0.631593 4.23314 0
M  V30 3328 C 313.341 -0.223923 5.34231 0
M  V30 3329 C 314.641 1.90871 4.86174 0
M  V30 3330 H 316.335 1.34822 2.67326 0
M  V30 3331 H 313.881 0.649728 1.28509 0
M  V30 3332 H 315.834 -0.570882 4.17515 0
M  V30 3333 H 314.558 -1.12877 3.06474 0
M  V30 3334 H 313.217 0.949929 3.54079 0
M  V30 3335 H 312.865 -1.11678 4.90446 0
M  V30 3336 H 312.565 0.35299 5.86539 0
M  V30 3337 H 314.089 -0.554214 6.0808 0
M  V30 3338 H 315.503 1.63997 5.49343 0
M  V30 3339 H 313.9 2.43112 5.4865 0
M  V30 3340 H 314.97 2.61304 4.08471 0
M  V30 3341 N 316.313 -1.40141 0.720998 0
M  V30 3342 C 317.243 -2.33339 0.0867621 0
M  V30 3343 C 318.224 -1.53178 -0.739622 0
M  V30 3344 O 319.409 -1.81625 -0.687449 0
M  V30 3345 C 316.539 -3.37194 -0.831728 0
M  V30 3346 C 315.493 -4.27857 -0.110558 0
M  V30 3347 C 314.819 -5.22294 -1.14513 0
M  V30 3348 C 316.119 -5.11872 1.0385 0
M  V30 3349 H 317.813 -2.86626 0.865219 0
M  V30 3350 H 315.359 -1.37814 0.417516 0
M  V30 3351 H 317.312 -4.01335 -1.28485 0
M  V30 3352 H 316.036 -2.82314 -1.64214 0
M  V30 3353 H 314.695 -3.65176 0.322797 0
M  V30 3354 H 314.343 -4.63717 -1.94874 0
M  V30 3355 H 314.043 -5.83797 -0.667446 0
M  V30 3356 H 315.567 -5.89312 -1.59824 0
M  V30 3357 H 316.981 -5.69436 0.664482 0
M  V30 3358 H 315.378 -5.82445 1.4449 0
M  V30 3359 H 316.448 -4.4753 1.86668 0
M  V30 3360 N 317.792 -0.46758 -1.50504 0
M  V30 3361 C 319.041 0.0902868 -2.01498 0
M  V30 3362 C 319.354 1.411 -1.35463 0
M  V30 3363 O 320.56 2.0536 -1.77594 0
M  V30 3364 C 319.016 0.21142 -3.59278 0
M  V30 3365 C 318.624 -1.10065 -4.34269 0
M  V30 3366 C 320.368 0.721433 -4.18325 0
M  V30 3367 C 318.275 -0.943505 -5.83825 0
M  V30 3368 H 317.205 0.037517 -0.753066 0
M  V30 3369 H 319.856 -0.601943 -1.73346 0
M  V30 3370 H 318.238 0.967352 -3.84003 0
M  V30 3371 H 319.412 -1.86726 -4.21272 0
M  V30 3372 H 317.727 -1.5415 -3.86816 0
M  V30 3373 H 320.324 0.85598 -5.27804 0
M  V30 3374 H 320.667 1.71186 -3.79475 0
M  V30 3375 H 321.2 0.0229843 -3.97793 0
M  V30 3376 H 317.939 -1.90719 -6.27141 0
M  V30 3377 H 317.459 -0.217213 -5.99407 0
M  V30 3378 H 319.138 -0.608715 -6.4413 0
M  V30 3379 N 319.27 1.56325 -0.20005 0
M  V30 3380 C 320.218 2.20666 0.735482 0
M  V30 3381 C 321.212 1.17934 1.21605 0
M  V30 3382 O 322.418 1.36068 1.17837 0
M  V30 3383 H 318.793 0.70725 0.255542 0
M  V30 3384 H 320.764 2.9792 0.169166 0
M  V30 3385 C 319.513 2.88391 1.94232 0
M  V30 3386 H 318.836 3.67185 1.58161 0
M  V30 3387 H 320.276 3.3684 2.57517 0
M  V30 3388 C 318.735 1.89692 2.78421 0
M  V30 3389 O 319.265 1.40032 3.76502 0
M  V30 3390 N 317.471 1.57813 2.44015 0
M  V30 3391 H 317.018 1.9839 1.64314 0
M  V30 3392 H 316.976 0.920325 3.00628 0
M  V30 3393 N 320.748 -0.0735177 1.57428 0
M  V30 3394 C 322.164 -0.428264 1.53747 0
M  V30 3395 C 322.364 -1.79272 0.91998 0
M  V30 3396 O 321.42 -2.47051 0.521745 0
M  V30 3397 C 322.733 -0.370914 2.98404 0
M  V30 3398 C 324.281 -0.451224 3.0973 0
M  V30 3399 C 324.756 -0.4238 4.56035 0
M  V30 3400 N 326.247 -0.483925 4.60665 0
M  V30 3401 C 326.982 -0.484891 5.71346 0
M  V30 3402 N 326.478 -0.440775 6.91396 0
M  V30 3403 N 328.271 -0.531319 5.59583 0
M  V30 3404 H 320.422 0.819949 1.95935 0
M  V30 3405 H 322.685 0.307493 0.896745 0
M  V30 3406 H 322.391 0.564956 3.47133 0
M  V30 3407 H 322.265 -1.18176 3.5821 0
M  V30 3408 H 324.652 -1.37752 2.60976 0
M  V30 3409 H 324.733 0.388167 2.52838 0
M  V30 3410 H 324.377 0.498638 5.05446 0
M  V30 3411 H 324.307 -1.2807 5.10789 0
M  V30 3412 H 326.798 -0.522338 3.74273 0
M  V30 3413 H 327.111 -0.44539 7.71515 0
M  V30 3414 H 325.456 -0.40749 6.93804 0
M  V30 3415 H 328.647 -0.563464 4.64696 0
M  V30 3416 H 328.82 -0.528603 6.4584 0
M  V30 3417 N 322.226 -1.5378 -0.344866 0
M  V30 3418 C 323.174 -1.82373 -1.4437 0
M  V30 3419 C 324.168 -0.694128 -1.54526 0
M  V30 3420 O 325.374 -0.877442 -1.57165 0
M  V30 3421 H 321.749 -0.577765 -0.481344 0
M  V30 3422 H 323.72 -2.74306 -1.17468 0
M  V30 3423 C 322.469 -2.04898 -2.80913 0
M  V30 3424 H 321.792 -2.9127 -2.73865 0
M  V30 3425 H 323.232 -2.28871 -3.56923 0
M  V30 3426 C 321.691 -0.834116 -3.26411 0
M  V30 3427 O 322.221 -0.0328885 -4.01687 0
M  V30 3428 N 320.427 -0.65171 -2.83198 0
M  V30 3429 H 319.974 -1.30489 -2.22104 0
M  V30 3430 H 319.932 0.159686 -3.13994 0
M  V30 3431 N 323.704 0.605807 -1.45491 0
M  V30 3432 C 324.614 1.74466 -1.56839 0
M  V30 3433 C 325.63 1.68006 -0.452772 0
M  V30 3434 O 326.806 1.8833 -0.713708 0
M  V30 3435 C 323.871 3.10931 -1.53371 0
M  V30 3436 C 322.932 3.28832 -2.75986 0
M  V30 3437 C 322.165 4.58787 -2.72673 0
M  V30 3438 O 322.388 5.4122 -1.80102 0
M  V30 3439 O 321.322 4.79438 -3.63899 0
M  V30 3440 H 325.148 1.67843 -2.53106 0
M  V30 3441 H 322.733 0.770108 -1.28022 0
M  V30 3442 H 324.615 3.92233 -1.54051 0
M  V30 3443 H 323.29 3.18042 -0.602572 0
M  V30 3444 H 322.197 2.47112 -2.80867 0
M  V30 3445 H 323.53 3.26599 -3.68231 0
M  V30 3446 N 325.182 1.32811 0.848464 0
M  V30 3447 C 326.092 1.24278 1.98978 0
M  V30 3448 C 327.108 0.155176 1.73307 0
M  V30 3449 O 328.284 0.376999 1.9784 0
M  V30 3450 C 325.349 0.972444 3.32783 0
M  V30 3451 C 324.41 2.14911 3.71634 0
M  V30 3452 C 323.643 1.89157 4.99054 0
M  V30 3453 O 323.866 0.837165 5.64223 0
M  V30 3454 O 322.8 2.75433 5.35183 0
M  V30 3455 H 326.626 2.20238 2.09115 0
M  V30 3456 H 324.211 1.12762 0.980052 0
M  V30 3457 H 326.093 0.838432 4.12975 0
M  V30 3458 H 324.768 0.043051 3.23671 0
M  V30 3459 H 323.675 2.33862 2.91992 0
M  V30 3460 H 325.008 3.06151 3.85399 0
M  V30 3461 N 326.66 -1.06551 1.16123 0
M  V30 3462 C 327.608 -2.16063 0.861371 0
M  V30 3463 C 328.602 -1.6856 -0.168517 0
M  V30 3464 O 329.808 -1.79986 -0.0227579 0
M  V30 3465 H 326.183 -0.705278 0.260934 0
M  V30 3466 H 328.154 -2.38567 1.79244 0
M  V30 3467 C 326.903 -3.45661 0.376018 0
M  V30 3468 H 326.226 -3.82604 1.15992 0
M  V30 3469 H 327.666 -4.23504 0.204951 0
M  V30 3470 C 326.125 -3.24546 -0.903954 0
M  V30 3471 O 326.655 -3.49865 -1.97377 0
M  V30 3472 N 324.861 -2.77992 -0.846679 0
M  V30 3473 H 324.408 -2.57589 0.0241017 0
M  V30 3474 H 324.366 -2.64244 -1.70359 0
M  V30 3475 N 328.138 -0.959301 -1.25041 0
M  V30 3476 C 329.554 -0.664474 -1.4511 0
M  V30 3477 C 329.754 0.776481 -1.85938 0
M  V30 3478 O 328.81 1.55128 -1.99227 0
M  V30 3479 C 330.123 -1.64139 -2.5195 0
M  V30 3480 C 331.671 -1.65309 -2.65786 0
M  V30 3481 C 332.146 -2.61777 -3.75815 0
M  V30 3482 N 333.637 -2.60169 -3.83231 0
M  V30 3483 C 334.372 -3.31489 -4.6787 0
M  V30 3484 N 333.868 -4.12298 -5.56761 0
M  V30 3485 N 335.661 -3.20354 -4.61876 0
M  V30 3486 H 327.812 -1.89043 -0.968332 0
M  V30 3487 H 330.075 -0.813408 -0.4869 0
M  V30 3488 H 329.781 -2.67086 -2.28819 0
M  V30 3489 H 329.655 -1.40756 -3.49954 0
M  V30 3490 H 332.042 -0.630778 -2.8828 0
M  V30 3491 H 332.123 -1.92753 -1.68167 0
M  V30 3492 H 331.767 -3.64137 -3.54071 0
M  V30 3493 H 331.697 -2.31616 -4.72929 0
M  V30 3494 H 334.188 -2.01507 -3.19692 0
M  V30 3495 H 334.501 -4.63625 -6.18281 0
M  V30 3496 H 332.846 -4.16395 -5.56454 0
M  V30 3497 H 336.037 -2.56692 -3.91442 0
M  V30 3498 H 336.21 -3.76201 -5.27614 0
M  V30 3499 N 329.616 1.39756 -0.72842 0
M  V30 3500 C 330.579 2.29012 -0.0927297 0
M  V30 3501 C 331.579 1.45992 0.674025 0
M  V30 3502 O 332.769 1.66749 0.50402 0
M  V30 3503 C 329.901 3.29396 0.878137 0
M  V30 3504 H 331.094 2.86729 -0.879011 0
M  V30 3505 H 328.647 1.48293 -0.493847 0
M  V30 3506 H 329.382 2.76722 1.69101 0
M  V30 3507 H 329.167 3.907 0.331051 0
M  V30 3508 H 330.657 3.96199 1.3197 0
M  V30 3509 N 331.094 0.475555 1.50254 0
M  V30 3510 C 332.041 -0.316293 2.28622 0
M  V30 3511 C 333.011 -0.983227 1.33873 0
M  V30 3512 O 334.196 -0.994805 1.62814 0
M  V30 3513 C 331.336 -1.38975 3.1588 0
M  V30 3514 C 330.449 -0.737146 4.25664 0
M  V30 3515 C 329.584 -1.78887 5.00173 0
M  V30 3516 C 328.623 -1.11676 6.01826 0
M  V30 3517 N 327.76 -2.11154 6.69596 0
M  V30 3518 H 332.6 0.358297 2.95838 0
M  V30 3519 H 330.137 0.188541 1.45887 0
M  V30 3520 H 332.095 -2.02383 3.64825 0
M  V30 3521 H 330.725 -2.03344 2.50701 0
M  V30 3522 H 329.777 0.0096065 3.80399 0
M  V30 3523 H 331.089 -0.206816 4.98371 0
M  V30 3524 H 330.243 -2.49865 5.52859 0
M  V30 3525 H 328.982 -2.35302 4.27182 0
M  V30 3526 H 327.987 -0.392633 5.48396 0
M  V30 3527 H 329.212 -0.55945 6.76792 0
M  V30 3528 H 327.158 -2.66577 5.99394 0
M  V30 3529 H 327.075 -1.63118 7.38193 0
M  V30 3530 H 328.343 -2.81497 7.26897 0
M  V30 3531 N 332.573 -1.56217 0.208337 0
M  V30 3532 C 333.798 -2.02782 -0.435222 0
M  V30 3533 C 334.223 -1.08738 -1.53485 0
M  V30 3534 O 333.581 -0.0731855 -1.81152 0
M  V30 3535 C 333.629 -3.47687 -0.956335 0
M  V30 3536 O 332.733 -3.56773 -2.06849 0
M  V30 3537 H 332.074 -0.656403 -0.100158 0
M  V30 3538 H 334.604 -2.02033 0.3231 0
M  V30 3539 H 334.614 -3.87745 -1.26955 0
M  V30 3540 H 333.289 -4.15624 -0.15143 0
M  V30 3541 H 331.866 -3.28597 -1.76292 0
M  V30 3542 N 334.051 0.0651679 -1.57465 0
M  V30 3543 C 335.297 0.764193 -1.87851 0
M  V30 3544 C 335.63 1.76889 -0.801495 0
M  V30 3545 O 334.905 1.93594 0.187528 0
M  V30 3546 C 335.188 1.46625 -3.28897 0
M  V30 3547 C 335.041 0.477515 -4.47258 0
M  V30 3548 C 336.36 2.4095 -3.68281 0
M  V30 3549 H 333.479 0.276351 -0.683227 0
M  V30 3550 H 336.121 0.0272868 -1.8998 0
M  V30 3551 H 334.271 2.09438 -3.27212 0
M  V30 3552 H 335.943 -0.145922 -4.61069 0
M  V30 3553 H 334.186 -0.206576 -4.33308 0
M  V30 3554 H 334.857 1.0065 -5.42746 0
M  V30 3555 H 337.333 1.88209 -3.71102 0
M  V30 3556 H 336.209 2.87072 -4.67847 0
M  V30 3557 H 336.47 3.26049 -2.98571 0
M  V30 3558 N 335.529 1.53961 0.336706 0
M  V30 3559 C 336.459 1.85417 1.41925 0
M  V30 3560 C 337.44 0.709856 1.5458 0
M  V30 3561 O 338.625 0.962396 1.68676 0
M  V30 3562 C 335.755 2.06985 2.78881 0
M  V30 3563 C 334.709 3.22813 2.81026 0
M  V30 3564 C 334.035 3.29727 4.20932 0
M  V30 3565 C 335.335 4.60767 2.45949 0
M  V30 3566 H 337.029 2.76079 1.15848 0
M  V30 3567 H 334.575 1.32839 0.555859 0
M  V30 3568 H 336.528 2.27575 3.54665 0
M  V30 3569 H 335.252 1.13061 3.06406 0
M  V30 3570 H 333.911 3.0209 2.07695 0
M  V30 3571 H 333.559 2.33385 4.45579 0
M  V30 3572 H 333.259 4.07566 4.23277 0
M  V30 3573 H 334.783 3.52536 4.98549 0
M  V30 3574 H 336.197 4.81325 3.11446 0
M  V30 3575 H 334.594 5.4106 2.59566 0
M  V30 3576 H 335.664 4.6391 1.41122 0
M  V30 3577 N 337.007 -0.598083 1.45811 0
M  V30 3578 C 337.954 -1.7082 1.55207 0
M  V30 3579 C 338.924 -1.61278 0.39732 0
M  V30 3580 O 340.109 -1.80717 0.612038 0
M  V30 3581 C 337.249 -3.09144 1.53376 0
M  V30 3582 C 336.362 -3.29423 2.79472 0
M  V30 3583 C 335.497 -4.57907 2.69248 0
M  V30 3584 C 334.536 -4.71476 3.90354 0
M  V30 3585 N 333.673 -5.9127 3.78608 0
M  V30 3586 H 338.513 -1.62125 2.50039 0
M  V30 3587 H 336.05 -0.790389 1.24062 0
M  V30 3588 H 338.008 -3.89186 1.50301 0
M  V30 3589 H 336.638 -3.16773 0.620876 0
M  V30 3590 H 335.69 -2.43091 2.92594 0
M  V30 3591 H 337.002 -3.3532 3.69272 0
M  V30 3592 H 336.156 -5.46157 2.64192 0
M  V30 3593 H 334.895 -4.54423 1.77063 0
M  V30 3594 H 333.9 -3.81648 3.95759 0
M  V30 3595 H 335.125 -4.76751 4.83617 0
M  V30 3596 H 333.071 -5.88813 2.89199 0
M  V30 3597 H 332.988 -5.98369 4.6205 0
M  V30 3598 H 334.256 -6.81992 3.77501 0
M  V30 3599 N 338.485 -1.33259 -0.841409 0
M  V30 3600 C 339.432 -1.23302 -1.95103 0
M  V30 3601 C 340.402 -0.112204 -1.65721 0
M  V30 3602 O 341.587 -0.290038 -1.88583 0
M  V30 3603 C 338.727 -0.975583 -3.31023 0
M  V30 3604 C 337.84 -2.18243 -3.72819 0
M  V30 3605 C 336.975 -1.85936 -4.97595 0
M  V30 3606 C 336.014 -3.02866 -5.3192 0
M  V30 3607 N 335.151 -2.70565 -6.47873 0
M  V30 3608 H 339.991 -2.18207 -2.02952 0
M  V30 3609 H 337.528 -1.0851 -0.993173 0
M  V30 3610 H 339.486 -0.80677 -4.09325 0
M  V30 3611 H 338.116 -0.0632755 -3.22738 0
M  V30 3612 H 337.168 -2.46107 -2.90061 0
M  V30 3613 H 338.48 -3.05666 -3.94169 0
M  V30 3614 H 337.634 -1.65684 -5.83638 0
M  V30 3615 H 336.373 -0.957452 -4.78209 0
M  V30 3616 H 335.378 -3.23736 -4.44382 0
M  V30 3617 H 336.603 -3.93809 -5.53255 0
M  V30 3618 H 334.549 -1.8293 -6.29978 0
M  V30 3619 H 334.466 -3.51519 -6.69306 0
M  V30 3620 H 335.734 -2.53774 -7.37034 0
M  V30 3621 N 339.963 1.05934 -1.16686 0
M  V30 3622 C 340.893 2.1546 -0.899949 0
M  V30 3623 C 341.874 1.69391 0.155154 0
M  V30 3624 O 343.059 1.94199 0.00648693 0
M  V30 3625 C 340.189 3.44939 -0.404241 0
M  V30 3626 C 339.143 4.04536 -1.39767 0
M  V30 3627 C 338.469 5.29268 -0.760216 0
M  V30 3628 C 339.769 4.42893 -2.76845 0
M  V30 3629 H 341.463 2.38046 -1.81588 0
M  V30 3630 H 339.009 1.14404 -0.874514 0
M  V30 3631 H 340.962 4.20901 -0.204971 0
M  V30 3632 H 339.686 3.21983 0.547206 0
M  V30 3633 H 338.345 3.30635 -1.58355 0
M  V30 3634 H 337.993 5.02611 0.197831 0
M  V30 3635 H 337.693 5.70101 -1.42332 0
M  V30 3636 H 339.217 6.07924 -0.57105 0
M  V30 3637 H 340.631 5.09921 -2.62019 0
M  V30 3638 H 339.028 4.94721 -3.39663 0
M  V30 3639 H 340.098 3.53584 -3.31823 0
M  V30 3640 N 341.441 0.965919 1.2453 0
M  V30 3641 C 342.857 0.67216 1.44756 0
M  V30 3642 C 343.057 -0.766609 1.86347 0
M  V30 3643 O 342.113 -1.5407 2.00047 0
M  V30 3644 C 343.426 1.65473 2.51076 0
M  V30 3645 C 344.974 1.66716 2.64905 0
M  V30 3646 C 345.449 2.63766 3.74421 0
M  V30 3647 N 346.94 2.62198 3.81846 0
M  V30 3648 C 347.675 3.33966 4.66106 0
M  V30 3649 N 347.171 4.15245 5.54566 0
M  V30 3650 N 348.964 3.22799 4.60171 0
M  V30 3651 H 341.115 1.89553 0.958293 0
M  V30 3652 H 343.378 0.815979 0.482579 0
M  V30 3653 H 343.084 2.68296 2.27399 0
M  V30 3654 H 342.958 1.4261 3.49202 0
M  V30 3655 H 345.345 0.646057 2.87941 0
M  V30 3656 H 345.426 1.93642 1.67142 0
M  V30 3657 H 345.07 3.6601 3.52135 0
M  V30 3658 H 345 2.34121 4.71694 0
M  V30 3659 H 347.491 2.032 3.18619 0
M  V30 3660 H 347.804 4.66898 6.15814 0
M  V30 3661 H 346.149 4.1934 5.54237 0
M  V30 3662 H 349.34 2.58764 3.90075 0
M  V30 3663 H 349.513 3.78994 5.25612 0
M  V30 3664 N 342.919 -1.39368 0.735821 0
M  V30 3665 C 344.167 -2.00101 0.283562 0
M  V30 3666 C 344.488 -1.5868 -1.13338 0
M  V30 3667 O 343.758 -0.835423 -1.77193 0
M  V30 3668 H 342.338 -0.740024 0.101851 0
M  V30 3669 H 345 -1.70404 0.945962 0
M  V30 3670 H 344.096 -3.10323 0.332604 0
M  V30 3671 N 344.397 -0.483516 -1.5 0
M  V30 3672 C 345.625 0.0644831 -2.06799 0
M  V30 3673 C 346.04 1.32399 -1.34596 0
M  V30 3674 O 345.397 1.77626 -0.418946 0
M  V30 3675 C 345.448 0.339927 -3.59898 0
M  V30 3676 O 345.169 -0.869635 -4.29382 0
M  V30 3677 C 346.67 0.933515 -4.33359 0
M  V30 3678 H 343.89 -0.0126333 -0.670881 0
M  V30 3679 H 346.434 -0.675864 -1.93009 0
M  V30 3680 H 344.589 1.03022 -3.7345 0
M  V30 3681 H 345.003 -0.62179 -5.20801 0
M  V30 3682 H 346.477 1.07593 -5.41413 0
M  V30 3683 H 346.954 1.92685 -3.94676 0
M  V30 3684 H 347.56 0.281221 -4.24369 0
M  V30 3685 N 345.875 1.56104 -0.216619 0
M  V30 3686 C 346.838 2.18819 0.681962 0
M  V30 3687 C 347.838 1.14866 1.12528 0
M  V30 3688 O 349.028 1.40128 1.03488 0
M  V30 3689 C 346.16 2.80756 1.93362 0
M  V30 3690 H 347.353 2.99595 0.135254 0
M  V30 3691 H 344.906 1.56265 0.0330003 0
M  V30 3692 H 345.641 2.03837 2.52232 0
M  V30 3693 H 345.426 3.56876 1.62426 0
M  V30 3694 H 346.916 3.28844 2.57393 0
M  V30 3695 N 347.353 -0.0568162 1.57498 0
M  V30 3696 C 348.63 -0.786954 1.79071 0
M  V30 3697 C 349.01 -1.95028 0.80792 0
M  V30 3698 O 348.358 -2.27968 -0.155858 0
M  V30 3699 C 348.568 -1.24594 3.26002 0
M  V30 3700 C 349.916 -1.67323 3.90241 0
M  V30 3701 O 350.94 -1.34124 3.29984 0
M  V30 3702 O 349.799 -2.28842 4.9628 0
M  V30 3703 H 346.893 -0.378262 0.735423 0
M  V30 3704 H 349.439 -0.035734 1.69662 0
M  V30 3705 H 348.211 -0.41423 3.89101 0
M  V30 3706 H 347.834 -2.05803 3.40192 0
M  V30 3707 N 348.832 -1.54138 -0.328536 0
M  V30 3708 C 350.078 -1.7236 -1.06865 0
M  V30 3709 C 350.411 -0.493231 -1.87832 0
M  V30 3710 O 349.686 0.5098 -1.877 0
M  V30 3711 C 349.969 -2.99621 -1.99747 0
M  V30 3712 C 349.822 -4.32899 -1.22143 0
M  V30 3713 C 351.141 -3.22615 -2.99345 0
M  V30 3714 H 348.26 -0.627151 -0.387105 0
M  V30 3715 H 350.902 -1.86827 -0.345767 0
M  V30 3716 H 349.052 -2.87418 -2.61387 0
M  V30 3717 H 350.724 -4.56978 -0.630017 0
M  V30 3718 H 348.967 -4.30628 -0.523628 0
M  V30 3719 H 349.638 -5.18154 -1.90318 0
M  V30 3720 H 352.114 -3.34248 -2.47826 0
M  V30 3721 H 350.99 -4.13027 -3.61524 0
M  V30 3722 H 351.251 -2.3961 -3.71536 0
M  V30 3723 N 350.31 0.590341 -1.46126 0
M  V30 3724 C 351.538 1.37504 -1.54597 0
M  V30 3725 C 351.953 1.87897 -0.184447 0
M  V30 3726 O 351.31 1.63192 0.816984 0
M  V30 3727 C 351.361 2.56779 -2.54454 0
M  V30 3728 O 351.082 2.08476 -3.85317 0
M  V30 3729 C 352.583 3.49427 -2.72792 0
M  V30 3730 H 349.803 0.420325 -0.523037 0
M  V30 3731 H 352.347 0.718383 -1.91467 0
M  V30 3732 H 350.502 3.1845 -2.20609 0
M  V30 3733 H 350.916 2.86097 -4.396 0
M  V30 3734 H 352.39 4.29619 -3.466 0
M  V30 3735 H 352.867 4.00876 -1.79429 0
M  V30 3736 H 353.473 2.93598 -3.07702 0
M  V30 3737 N 351.788 1.33704 0.83433 0
M  V30 3738 C 352.738 1.20899 1.93306 0
M  V30 3739 C 353.722 0.110783 1.60518 0
M  V30 3740 O 354.914 0.339331 1.73717 0
M  V30 3741 C 352.043 0.955018 3.29749 0
M  V30 3742 C 351.129 2.09587 3.68692 0
M  V30 3743 N 351.52 3.34621 3.79292 0
M  V30 3744 C 349.818 2.00358 3.98463 0
M  V30 3745 C 350.519 4.09472 4.13167 0
M  V30 3746 N 349.495 3.37954 4.25779 0
M  V30 3747 H 353.297 2.15665 1.99664 0
M  V30 3748 H 350.811 1.25777 1.02732 0
M  V30 3749 H 352.808 0.844208 4.08263 0
M  V30 3750 H 351.468 0.0159317 3.24696 0
M  V30 3751 H 352.479 3.69313 3.63082 0
M  V30 3752 H 349.156 1.14137 4.01596 0
M  V30 3753 H 350.546 5.17391 4.28668 0
M  V30 3754 N 353.266 -1.05314 1.17247 0
M  V30 3755 C 354.543 -1.75184 0.87005 0
M  V30 3756 C 354.923 -2.01481 -0.629965 0
M  V30 3757 O 354.271 -1.64988 -1.58086 0
M  V30 3758 C 354.481 -3.04594 1.70363 0
M  V30 3759 C 355.829 -3.78567 1.92281 0
M  V30 3760 O 356.853 -3.14461 1.67311 0
M  V30 3761 O 355.712 -4.93755 2.3424 0
M  V30 3762 H 352.806 -0.761729 0.322021 0
M  V30 3763 H 355.352 -1.11493 1.27935 0
M  V30 3764 H 354.124 -2.81201 2.72106 0
M  V30 3765 H 353.747 -3.76022 1.29202 0
M  V30 3766 N 354.744 -0.972509 -1.24016 0
M  V30 3767 C 355.674 -0.525548 -2.27509 0
M  V30 3768 C 356.655 0.437262 -1.64384 0
M  V30 3769 O 357.84 0.332343 -1.91335 0
M  V30 3770 C 354.97 0.180448 -3.46831 0
M  V30 3771 C 353.924 -0.698859 -4.22256 0
M  V30 3772 C 353.25 0.138903 -5.3452 0
M  V30 3773 C 354.55 -1.98582 -4.83076 0
M  V30 3774 H 356.244 -1.39058 -2.65148 0
M  V30 3775 H 353.79 -0.67009 -1.27459 0
M  V30 3776 H 355.743 0.504387 -4.18371 0
M  V30 3777 H 354.467 1.07987 -3.08231 0
M  V30 3778 H 353.126 -1.00614 -3.52523 0
M  V30 3779 H 352.774 1.03862 -4.9216 0
M  V30 3780 H 352.474 -0.446259 -5.85903 0
M  V30 3781 H 353.998 0.457404 -6.08884 0
M  V30 3782 H 355.412 -1.72715 -5.46665 0
M  V30 3783 H 353.809 -2.5181 -5.44713 0
M  V30 3784 H 354.879 -2.67769 -4.04262 0
M  V30 3785 N 356.222 1.38976 -0.743202 0
M  V30 3786 C 357.154 2.29096 -0.0689228 0
M  V30 3787 C 358.167 1.47229 0.694791 0
M  V30 3788 O 359.356 1.70212 0.537597 0
M  V30 3789 C 356.456 3.25988 0.926548 0
M  V30 3790 C 355.629 4.36833 0.222647 0
M  V30 3791 C 354.688 5.13981 1.12739 0
M  V30 3792 O 353.714 5.6601 0.601795 0
M  V30 3793 N 354.916 5.25966 2.45641 0
M  V30 3794 H 357.681 2.87604 -0.842846 0
M  V30 3795 H 355.242 1.50645 -0.593109 0
M  V30 3796 H 357.234 3.74476 1.5346 0
M  V30 3797 H 355.804 2.68453 1.60162 0
M  V30 3798 H 355.024 3.90116 -0.565983 0
M  V30 3799 H 356.312 5.0811 -0.264841 0
M  V30 3800 H 355.71 4.85228 2.9081 0
M  V30 3801 H 354.267 5.77865 3.01522 0
M  V30 3802 N 357.7 0.491464 1.49741 0
M  V30 3803 C 358.61 -0.296835 2.32715 0
M  V30 3804 C 359.626 -0.976536 1.44013 0
M  V30 3805 O 360.802 -0.960023 1.77047 0
M  V30 3806 C 357.867 -1.35288 3.19215 0
M  V30 3807 C 356.928 -0.687632 4.23757 0
M  V30 3808 C 356.161 -1.69336 5.06123 0
M  V30 3809 O 356.384 -2.92219 4.89861 0
M  V30 3810 O 355.318 -1.25394 5.88693 0
M  V30 3811 H 359.144 0.382048 3.01287 0
M  V30 3812 H 356.729 0.252953 1.47243 0
M  V30 3813 H 358.611 -1.96411 3.72828 0
M  V30 3814 H 357.286 -2.01487 2.53347 0
M  V30 3815 H 356.193 -0.0369159 3.74082 0
M  V30 3816 H 357.526 -0.0682566 4.92153 0
M  V30 3817 N 359.178 -1.55987 0.224894 0
M  V30 3818 C 360.111 -2.16413 -0.723929 0
M  V30 3819 C 361.089 -1.10952 -1.18863 0
M  V30 3820 O 362.273 -1.39225 -1.27077 0
M  V30 3821 C 359.4 -2.74711 -1.98121 0
M  V30 3822 C 358.446 -3.9303 -1.6562 0
M  V30 3823 S 359.279 -5.29817 -0.778058 0
M  V30 3824 C 360.435 -5.91555 -2.04483 0
M  V30 3825 H 360.668 -2.96555 -0.210347 0
M  V30 3826 H 358.201 -1.54397 0.00955457 0
M  V30 3827 H 360.159 -3.08938 -2.70311 0
M  V30 3828 H 358.82 -1.94555 -2.46591 0
M  V30 3829 H 358.013 -4.32334 -2.59043 0
M  V30 3830 H 357.615 -3.59966 -1.01491 0
M  V30 3831 H 359.907 -6.07732 -2.99446 0
M  V30 3832 H 360.85 -6.87498 -1.69563 0
M  V30 3833 H 361.258 -5.20419 -2.18688 0
M  V30 3834 N 360.656 0.0484629 -1.57525 0
M  V30 3835 C 361.603 1.05504 -2.05275 0
M  V30 3836 C 362.573 1.37084 -0.937927 0
M  V30 3837 O 363.758 1.47754 -1.2072 0
M  V30 3838 C 360.898 2.35676 -2.52093 0
M  V30 3839 C 360.011 2.10423 -3.77288 0
M  V30 3840 C 359.146 3.34327 -4.12794 0
M  V30 3841 C 358.185 3.04542 -5.30962 0
M  V30 3842 N 357.322 4.20841 -5.61994 0
M  V30 3843 H 362.162 0.640885 -2.91027 0
M  V30 3844 H 359.699 0.304854 -1.43906 0
M  V30 3845 H 361.657 3.11709 -2.77297 0
M  V30 3846 H 360.287 2.7485 -1.69285 0
M  V30 3847 H 359.339 1.24976 -3.59284 0
M  V30 3848 H 360.651 1.84438 -4.63448 0
M  V30 3849 H 359.805 4.1874 -4.39024 0
M  V30 3850 H 358.544 3.63408 -3.25247 0
M  V30 3851 H 357.549 2.18528 -5.04505 0
M  V30 3852 H 358.774 2.76758 -6.20146 0
M  V30 3853 H 356.72 4.4991 -4.77406 0
M  V30 3854 H 356.637 3.98212 -6.42622 0
M  V30 3855 H 357.905 5.06184 -5.92789 0
M  V30 3856 N 362.134 1.5431 0.320358 0
M  V30 3857 C 363.044 1.86946 1.41734 0
M  V30 3858 C 364.06 0.761689 1.56443 0
M  V30 3859 O 365.236 1.05629 1.71477 0
M  V30 3860 C 362.301 2.09293 2.76401 0
M  V30 3861 C 361.362 3.33082 2.70841 0
M  V30 3862 C 360.595 3.54353 3.99086 0
M  V30 3863 O 360.818 2.79002 4.97508 0
M  V30 3864 O 359.752 4.47838 4.0215 0
M  V30 3865 H 363.578 2.80232 1.17062 0
M  V30 3866 H 361.163 1.40255 0.514673 0
M  V30 3867 H 363.045 2.25303 3.56113 0
M  V30 3868 H 361.72 1.19194 3.00956 0
M  V30 3869 H 360.627 3.22454 1.89668 0
M  V30 3870 H 361.96 4.23249 2.5124 0
M  V30 3871 N 363.613 -0.582584 1.46437 0
M  V30 3872 C 364.523 -1.71949 1.59595 0
M  V30 3873 C 365.539 -1.67264 0.479443 0
M  V30 3874 O 366.715 -1.87171 0.743579 0
M  V30 3875 C 363.78 -3.08452 1.58298 0
M  V30 3876 C 362.841 -3.244 2.81182 0
M  V30 3877 C 362.074 -4.54391 2.79937 0
M  V30 3878 O 362.297 -5.38287 1.8869 0
M  V30 3879 O 361.231 -4.73588 3.71481 0
M  V30 3880 H 365.057 -1.63795 2.55744 0
M  V30 3881 H 362.642 -0.749643 1.29231 0
M  V30 3882 H 364.524 -3.89732 1.60271 0
M  V30 3883 H 363.199 -3.17043 0.653094 0
M  V30 3884 H 362.106 -2.42613 2.84763 0
M  V30 3885 H 363.439 -3.20699 3.7338 0
M  V30 3886 N 365.091 -1.34144 -0.827227 0
M  V30 3887 C 366.316 -1.29476 -1.62021 0
M  V30 3888 C 366.741 0.129292 -1.87655 0
M  V30 3889 O 366.099 1.08967 -1.449 0
M  V30 3890 C 366.147 -2.08702 -2.94068 0
M  V30 3891 O 365.251 -1.45359 -3.85933 0
M  V30 3892 H 364.592 -0.444881 -0.492927 0
M  V30 3893 H 367.122 -1.76882 -1.02829 0
M  V30 3894 H 367.132 -2.19898 -3.43669 0
M  V30 3895 H 365.807 -3.12241 -2.74734 0
M  V30 3896 H 364.384 -1.42879 -3.44442 0
M  V30 3897 N 366.569 1.04691 -1.17803 0
M  V30 3898 C 367.985 1.29963 -0.926379 0
M  V30 3899 C 368.185 1.97251 0.411635 0
M  V30 3900 O 367.241 2.24922 1.14744 0
M  V30 3901 C 368.554 2.16447 -2.08737 0
M  V30 3902 C 370.102 2.29814 -2.12496 0
M  V30 3903 C 370.577 3.19661 -3.27995 0
M  V30 3904 N 372.068 3.27247 -3.27816 0
M  V30 3905 C 372.803 3.96906 -4.13827 0
M  V30 3906 N 372.299 4.6895 -5.09959 0
M  V30 3907 N 374.092 3.93122 -4.01761 0
M  V30 3908 H 366.243 0.594182 -2.0392 0
M  V30 3909 H 368.506 0.324649 -0.890678 0
M  V30 3910 H 368.212 1.74304 -3.05469 0
M  V30 3911 H 368.086 3.17103 -2.04268 0
M  V30 3912 H 370.473 2.71196 -1.16347 0
M  V30 3913 H 370.554 1.2877 -2.21025 0
M  V30 3914 H 370.198 2.78991 -4.24413 0
M  V30 3915 H 370.128 4.20722 -3.16703 0
M  V30 3916 H 372.619 2.75921 -2.58217 0
M  V30 3917 H 372.932 5.19679 -5.71974 0
M  V30 3918 H 371.277 4.67875 -5.13924 0
M  V30 3919 H 374.468 3.35967 -3.2595 0
M  V30 3920 H 374.641 4.47139 -4.6901 0
M  V30 3921 N 368.047 0.979072 1.23499 0
M  V30 3922 C 368.979 0.476271 2.24197 0
M  V30 3923 C 369.992 -0.421166 1.57258 0
M  V30 3924 O 371.181 -0.225515 1.7707 0
M  V30 3925 C 368.281 -0.330503 3.37285 0
M  V30 3926 C 367.454 0.559744 4.33804 0
M  V30 3927 C 366.513 -0.192954 5.25846 0
M  V30 3928 O 365.539 0.416978 5.67671 0
M  V30 3929 N 366.741 -1.47932 5.61334 0
M  V30 3930 H 369.506 1.34211 2.67969 0
M  V30 3931 H 367.067 0.852189 1.37657 0
M  V30 3932 H 369.059 -0.842361 3.95836 0
M  V30 3933 H 367.629 -1.09734 2.92707 0
M  V30 3934 H 366.849 1.25245 3.73775 0
M  V30 3935 H 368.137 1.1665 4.95248 0
M  V30 3936 H 367.535 -1.9964 5.29302 0
M  V30 3937 H 366.092 -1.93664 6.22364 0
M  V30 3938 N 369.525 -1.3858 0.750561 0
M  V30 3939 C 370.458 -2.28095 0.0693139 0
M  V30 3940 C 371.436 -1.45217 -0.731491 0
M  V30 3941 O 372.62 -1.74587 -0.71076 0
M  V30 3942 C 369.747 -3.26282 -0.90871 0
M  V30 3943 C 368.793 -4.26056 -0.194507 0
M  V30 3944 S 369.626 -5.24026 1.10257 0
M  V30 3945 C 370.782 -6.2577 0.127542 0
M  V30 3946 H 371.015 -2.85526 0.8284 0
M  V30 3947 H 368.548 -1.44536 0.543014 0
M  V30 3948 H 370.506 -3.83367 -1.46766 0
M  V30 3949 H 369.167 -2.6784 -1.64075 0
M  V30 3950 H 368.36 -4.95249 -0.93512 0
M  V30 3951 H 367.962 -3.72852 0.292837 0
M  V30 3952 H 370.254 -6.73796 -0.707516 0
M  V30 3953 H 371.197 -7.03712 0.787044 0
M  V30 3954 H 371.605 -5.63938 -0.251803 0
M  V30 3955 N 371.003 -0.499398 -1.49478 0
M  V30 3956 C 371.936 0.326491 -2.25852 0
M  V30 3957 C 372.914 0.971776 -1.30366 0
M  V30 3958 O 374.098 1.00219 -1.59651 0
M  V30 3959 C 371.225 1.45969 -3.05632 0
M  V30 3960 C 370.271 0.928938 -4.16261 0
M  V30 3961 S 371.104 -0.179012 -5.35201 0
M  V30 3962 C 372.26 0.957389 -6.18534 0
M  V30 3963 H 372.493 -0.321746 -2.95554 0
M  V30 3964 H 370.026 -0.284674 -1.51753 0
M  V30 3965 H 371.984 2.109 -3.52181 0
M  V30 3966 H 370.645 2.07953 -2.35402 0
M  V30 3967 H 369.838 1.77813 -4.71592 0
M  V30 3968 H 369.44 0.356869 -3.72293 0
M  V30 3969 H 371.732 1.86296 -6.51383 0
M  V30 3970 H 372.675 0.442733 -7.06715 0
M  V30 3971 H 373.083 1.224 -5.5107 0
M  V30 3972 N 372.481 1.55866 -0.233164 0
M  V30 3973 C 373.897 1.59133 0.121988 0
M  V30 3974 C 374.097 1.25016 1.58029 0
M  V30 3975 O 373.153 0.990922 2.32243 0
M  V30 3976 C 374.466 2.99932 -0.214792 0
M  V30 3977 C 376.014 3.12601 -0.157971 0
M  V30 3978 C 376.489 4.55597 -0.46859 0
M  V30 3979 N 377.98 4.61305 -0.418585 0
M  V30 3980 C 378.715 5.69903 -0.63227 0
M  V30 3981 N 378.211 6.86819 -0.90835 0
M  V30 3982 N 380.004 5.59264 -0.563913 0
M  V30 3983 H 372.155 1.76315 -1.18434 0
M  V30 3984 H 374.418 0.820093 -0.475553 0
M  V30 3985 H 374.124 3.29588 -1.22739 0
M  V30 3986 H 373.998 3.74327 0.464691 0
M  V30 3987 H 376.385 2.82735 0.845283 0
M  V30 3988 H 376.466 2.40511 -0.871102 0
M  V30 3989 H 376.11 4.86182 -1.46934 0
M  V30 3990 H 376.04 5.25928 0.265865 0
M  V30 3991 H 378.531 3.77297 -0.213368 0
M  V30 3992 H 378.844 7.65507 -1.05919 0
M  V30 3993 H 377.189 6.88536 -0.945673 0
M  V30 3994 H 380.38 4.66802 -0.348372 0
M  V30 3995 H 380.553 6.43831 -0.733847 0
M  V30 3996 N 373.959 -0.0401083 1.57549 0
M  V30 3997 C 374.869 -1.06133 2.0922 0
M  V30 3998 C 375.885 -1.40356 1.0284 0
M  V30 3999 O 377.061 -1.49897 1.34509 0
M  V30 4000 C 374.126 -2.34658 2.55218 0
M  V30 4001 C 373.187 -2.07117 3.76033 0
M  V30 4002 C 372.42 -3.29514 4.19829 0
M  V30 4003 O 372.643 -4.39794 3.63232 0
M  V30 4004 O 371.577 -3.15863 5.12362 0
M  V30 4005 H 375.403 -0.652244 2.96613 0
M  V30 4006 H 372.988 -0.256368 1.47184 0
M  V30 4007 H 374.87 -3.10239 2.85184 0
M  V30 4008 H 373.545 -2.74883 1.70941 0
M  V30 4009 H 372.452 -1.29139 3.51104 0
M  V30 4010 H 373.785 -1.71754 4.61261 0
M  V30 4011 N 375.437 -1.54477 -0.31217 0
M  V30 4012 C 376.384 -1.84655 -1.38461 0
M  V30 4013 C 377.354 -0.694536 -1.50882 0
M  V30 4014 O 378.539 -0.942081 -1.6592 0
M  V30 4015 C 375.679 -2.0896 -2.74645 0
M  V30 4016 C 374.792 -3.36618 -2.70763 0
M  V30 4017 C 373.927 -3.50824 -3.98868 0
M  V30 4018 C 372.966 -4.72315 -3.89339 0
M  V30 4019 N 372.103 -4.83387 -5.09197 0
M  V30 4020 H 376.943 -2.76142 -1.12026 0
M  V30 4021 H 374.48 -1.36748 -0.542065 0
M  V30 4022 H 376.438 -2.21045 -3.53829 0
M  V30 4023 H 375.068 -1.20752 -2.99364 0
M  V30 4024 H 374.12 -3.33211 -1.83506 0
M  V30 4025 H 375.432 -4.25917 -2.59608 0
M  V30 4026 H 374.586 -3.62513 -4.86486 0
M  V30 4027 H 373.325 -2.59638 -4.12843 0
M  V30 4028 H 372.33 -4.6067 -3.00105 0
M  V30 4029 H 373.555 -5.64897 -3.76919 0
M  V30 4030 H 371.501 -3.9512 -5.23657 0
M  V30 4031 H 371.418 -5.66669 -5.00422 0
M  V30 4032 H 372.686 -4.9942 -5.98498 0
M  V30 4033 N 376.915 0.57481 -1.46744 0
M  V30 4034 C 377.862 1.68329 -1.57905 0
M  V30 4035 C 378.832 1.60625 -0.422927 0
M  V30 4036 O 380.017 1.79721 -0.640711 0
M  V30 4037 C 377.157 3.06665 -1.58274 0
M  V30 4038 C 376.27 3.24935 -2.84678 0
M  V30 4039 C 375.405 4.53566 -2.76499 0
M  V30 4040 C 374.444 4.65207 -3.97806 0
M  V30 4041 N 373.581 5.85172 -3.87967 0
M  V30 4042 H 378.421 1.58127 -2.52587 0
M  V30 4043 H 375.958 0.770552 -1.25303 0
M  V30 4044 H 377.916 3.86745 -1.56473 0
M  V30 4045 H 376.546 3.15745 -0.671194 0
M  V30 4046 H 375.598 2.38405 -2.96424 0
M  V30 4047 H 376.91 3.29403 -3.7456 0
M  V30 4048 H 376.064 5.41885 -2.72848 0
M  V30 4049 H 374.803 4.51548 -1.8427 0
M  V30 4050 H 373.808 3.75304 -4.0178 0
M  V30 4051 H 375.033 4.68997 -4.9114 0
M  V30 4052 H 372.979 5.84137 -2.98529 0
M  V30 4053 H 372.896 5.90943 -4.71511 0
M  V30 4054 H 374.164 6.759 -3.88303 0
M  V30 4055 N 378.394 1.34581 0.820102 0
M  V30 4056 C 379.64 1.27285 1.57881 0
M  V30 4057 C 379.973 -0.156137 1.93571 0
M  V30 4058 O 379.248 -1.10222 1.60254 0
M  V30 4059 C 379.531 2.16639 2.87645 0
M  V30 4060 C 379.384 3.68088 2.58517 0
M  V30 4061 C 380.703 2.05378 3.8924 0
M  V30 4062 H 377.822 0.463714 0.572833 0
M  V30 4063 H 380.464 1.64859 0.944539 0
M  V30 4064 H 378.614 1.84725 3.41773 0
M  V30 4065 H 380.286 4.10382 2.10676 0
M  V30 4066 H 378.529 3.89038 1.91917 0
M  V30 4067 H 379.2 4.2598 3.51063 0
M  V30 4068 H 381.676 2.33404 3.44473 0
M  V30 4069 H 380.552 2.7012 4.77835 0
M  V30 4070 H 380.813 1.0316 4.29896 0
M  V30 4071 N 379.872 -1.04064 1.18357 0
M  V30 4072 C 381.1 -1.80916 1.00384 0
M  V30 4073 C 381.515 -1.83414 -0.447738 0
M  V30 4074 O 380.872 -1.26962 -1.31099 0
M  V30 4075 C 380.923 -3.26516 1.55144 0
M  V30 4076 O 380.644 -3.2424 2.94618 0
M  V30 4077 C 382.145 -4.20013 1.41789 0
M  V30 4078 H 379.365 -0.569728 0.354474 0
M  V30 4079 H 381.909 -1.31151 1.56906 0
M  V30 4080 H 380.064 -3.73512 1.02798 0
M  V30 4081 H 380.478 -4.15452 3.20156 0
M  V30 4082 H 381.952 -5.20111 1.84901 0
M  V30 4083 H 382.429 -4.37667 0.36661 0
M  V30 4084 H 383.035 -3.78881 1.93207 0
M  V30 4085 N 381.35 -0.985608 -1.22978 0
M  V30 4086 C 382.599 -0.652881 -1.90841 0
M  V30 4087 C 382.912 0.817842 -1.77681 0
M  V30 4088 O 384.118 1.26185 -2.40395 0
M  V30 4089 C 382.574 -1.11717 -3.42122 0
M  V30 4090 C 382.182 -2.6126 -3.63933 0
M  V30 4091 C 383.926 -0.85843 -4.1573 0
M  V30 4092 C 381.833 -3.0133 -5.08876 0
M  V30 4093 H 380.763 -0.240491 -0.714619 0
M  V30 4094 H 383.414 -1.1942 -1.39324 0
M  V30 4095 H 381.796 -0.504027 -3.92779 0
M  V30 4096 H 382.97 -3.27858 -3.23799 0
M  V30 4097 H 381.285 -2.84937 -3.03644 0
M  V30 4098 H 383.882 -1.13359 -5.22546 0
M  V30 4099 H 384.225 0.205461 -4.15793 0
M  V30 4100 H 384.758 -1.43341 -3.71077 0
M  V30 4101 H 381.497 -4.06864 -5.13947 0
M  V30 4102 H 381.017 -2.3943 -5.49939 0
M  V30 4103 H 382.696 -2.92224 -5.77247 0
M  V30 4104 N 382.828 1.3818 -0.7579 0
M  V30 4105 C 383.758 2.33027 -0.148597 0
M  V30 4106 C 384.739 1.55085 0.69875 0
M  V30 4107 O 385.924 1.83384 0.639053 0
M  V30 4108 C 383.054 3.3928 0.742034 0
M  V30 4109 C 382.008 4.28 -0.00291946 0
M  V30 4110 C 381.334 5.25146 1.00625 0
M  V30 4111 C 382.634 5.08938 -1.17385 0
M  V30 4112 H 384.328 2.84231 -0.940909 0
M  V30 4113 H 381.874 1.36659 -0.453908 0
M  V30 4114 H 383.827 4.046 1.17799 0
M  V30 4115 H 382.551 2.86569 1.56671 0
M  V30 4116 H 381.21 3.64192 -0.419504 0
M  V30 4117 H 380.858 4.68721 1.8251 0
M  V30 4118 H 380.558 5.85361 0.512428 0
M  V30 4119 H 382.082 5.93342 1.44143 0
M  V30 4120 H 383.496 5.67474 -0.815224 0
M  V30 4121 H 381.893 5.7841 -1.59882 0
M  V30 4122 H 382.963 4.42424 -1.98468 0
M  V30 4123 N 384.306 0.507319 1.49211 0
M  V30 4124 C 385.216 -0.272136 2.33016 0
M  V30 4125 C 386.232 -0.961206 1.45041 0
M  V30 4126 O 387.408 -0.941191 1.78055 0
M  V30 4127 C 384.473 -1.31895 3.20631 0
M  V30 4128 C 383.534 -0.642648 4.24463 0
M  V30 4129 C 382.767 -1.63959 5.07891 0
M  V30 4130 O 382.99 -2.87007 4.92933 0
M  V30 4131 O 381.924 -1.19143 5.8999 0
M  V30 4132 H 385.75 0.413982 3.00865 0
M  V30 4133 H 383.335 0.268556 1.46966 0
M  V30 4134 H 385.217 -1.92446 3.7489 0
M  V30 4135 H 383.892 -1.98788 2.5547 0
M  V30 4136 H 382.799 0.00276252 3.741 0
M  V30 4137 H 384.132 -0.0160534 4.92197 0
M  V30 4138 N 385.784 -1.5574 0.241426 0
M  V30 4139 C 386.714 -2.24133 -0.654722 0
M  V30 4140 C 387.695 -1.21974 -1.1856 0
M  V30 4141 O 388.88 -1.50612 -1.22595 0
M  V30 4142 C 386.01 -2.93659 -1.85423 0
M  V30 4143 C 384.964 -4.0246 -1.45636 0
M  V30 4144 C 384.29 -4.59383 -2.73626 0
M  V30 4145 C 385.59 -5.18468 -0.631506 0
M  V30 4146 H 387.284 -2.99281 -0.0844353 0
M  V30 4147 H 384.83 -1.43947 -0.0391707 0
M  V30 4148 H 386.783 -3.40203 -2.48676 0
M  V30 4149 H 385.507 -2.15991 -2.44981 0
M  V30 4150 H 384.166 -3.56676 -0.847202 0
M  V30 4151 H 383.814 -3.78422 -3.3137 0
M  V30 4152 H 383.514 -5.32826 -2.4773 0
M  V30 4153 H 385.038 -5.08658 -3.37786 0
M  V30 4154 H 386.452 -5.61272 -1.1682 0
M  V30 4155 H 384.849 -5.98266 -0.468831 0
M  V30 4156 H 385.919 -4.8358 0.357506 0
M  V30 4157 N 387.262 0.0317525 -1.57568 0
M  V30 4158 C 388.509 0.723104 -1.89149 0
M  V30 4159 C 388.837 1.75504 -0.838377 0
M  V30 4160 O 388.092 1.95037 0.160982 0
M  V30 4161 C 388.391 1.43167 -3.27472 0
M  V30 4162 C 388.057 0.535972 -4.47703 0
M  V30 4163 C 386.719 0.289262 -4.8033 0
M  V30 4164 C 389.071 -0.0826125 -5.21135 0
M  V30 4165 C 386.399 -0.584853 -5.83778 0
M  V30 4166 C 388.751 -0.944414 -6.25511 0
M  V30 4167 C 387.415 -1.20061 -6.56614 0
M  V30 4168 H 386.685 0.264602 -0.692146 0
M  V30 4169 H 389.332 -0.0169496 -1.91492 0
M  V30 4170 H 387.637 2.24497 -3.21105 0
M  V30 4171 H 389.334 1.97209 -3.49155 0
M  V30 4172 H 385.924 0.738414 -4.22191 0
M  V30 4173 H 390.108 0.0950302 -4.96209 0
M  V30 4174 H 385.364 -0.79168 -6.06253 0
M  V30 4175 H 389.538 -1.43026 -6.81554 0
M  V30 4176 H 387.165 -1.87967 -7.36595 0
M  V30 4177 N 388.74 1.54641 0.303973 0
M  V30 4178 C 390.156 1.45788 0.649463 0
M  V30 4179 C 390.356 0.64666 1.90842 0
M  V30 4180 O 389.412 0.153183 2.52035 0
M  V30 4181 C 390.725 2.89718 0.805227 0
M  V30 4182 C 392.273 2.99742 0.901305 0
M  V30 4183 C 392.748 4.44863 1.08909 0
M  V30 4184 N 394.239 4.48559 1.15536 0
M  V30 4185 C 394.974 5.58026 1.3189 0
M  V30 4186 N 394.47 6.77422 1.45161 0
M  V30 4187 N 396.263 5.45708 1.34755 0
M  V30 4188 H 388.414 2.05854 -0.523237 0
M  V30 4189 H 390.677 0.932186 -0.172431 0
M  V30 4190 H 390.383 3.51666 -0.0489108 0
M  V30 4191 H 390.257 3.36964 1.69513 0
M  V30 4192 H 392.644 2.3791 1.74593 0
M  V30 4193 H 392.725 2.55797 -0.0125531 0
M  V30 4194 H 392.369 5.07288 0.249241 0
M  V30 4195 H 392.299 4.86436 2.01713 0
M  V30 4196 H 394.79 3.6254 1.06646 0
M  V30 4197 H 395.103 7.56604 1.57387 0
M  V30 4198 H 393.448 6.80292 1.42223 0
M  V30 4199 H 396.639 4.51378 1.23996 0
M  V30 4200 H 396.812 6.3107 1.47157 0
M  V30 4201 N 390.218 -0.567019 1.47046 0
M  V30 4202 C 391.443 -1.3551 1.57009 0
M  V30 4203 C 391.868 -1.86841 0.217259 0
M  V30 4204 O 391.226 -1.62435 -0.805268 0
M  V30 4205 C 391.274 -2.50777 2.5912 0
M  V30 4206 O 390.378 -3.52706 2.13711 0
M  V30 4207 H 389.719 -0.402919 0.52778 0
M  V30 4208 H 392.249 -0.686241 1.92748 0
M  V30 4209 H 392.259 -2.97481 2.79229 0
M  V30 4210 H 390.934 -2.12771 3.57353 0
M  V30 4211 H 389.511 -3.12374 2.03659 0
M  V30 4212 N 391.696 -1.35014 -0.812953 0
M  V30 4213 C 393.107 -1.25035 -1.38648 0
M  V30 4214 C 393.458 0.119967 -1.95833 0
M  V30 4215 O 392.583 1.02069 -1.90816 0
M  V30 4216 C 393.178 -2.26394 -2.52054 0
M  V30 4217 C 391.737 -2.20175 -3.05287 0
M  V30 4218 C 390.884 -2.12451 -1.78213 0
M  V30 4219 H 393.835 -1.46235 -0.616516 0
M  V30 4220 H 393.856 -1.88672 -3.30429 0
M  V30 4221 H 393.368 -3.26116 -2.10404 0
M  V30 4222 H 391.469 -1.23841 -3.51417 0
M  V30 4223 H 391.582 -3.11863 -3.63701 0
M  V30 4224 H 389.946 -1.58328 -1.9951 0
M  V30 4225 H 390.729 -3.14024 -1.38723 0
M  V30 4226 N 393.175 1.03435 -1.18907 0
M  V30 4227 C 394.138 2.09756 -0.923844 0
M  V30 4228 C 395.138 1.60528 0.093416 0
M  V30 4229 O 396.328 1.73631 -0.140727 0
M  V30 4230 C 393.46 3.38692 -0.387354 0
M  V30 4231 H 394.653 2.34719 -1.86674 0
M  V30 4232 H 392.206 1.19959 -1.00197 0
M  V30 4233 H 392.941 3.19396 0.561845 0
M  V30 4234 H 392.726 3.75742 -1.12074 0
M  V30 4235 H 394.216 4.17016 -0.220694 0
M  V30 4236 N 394.653 0.992116 1.22453 0
M  V30 4237 C 395.883 0.684949 1.94915 0
M  V30 4238 C 396.291 -0.754292 1.73514 0
M  V30 4239 O 395.634 -1.52056 1.03076 0
M  V30 4240 C 395.696 0.910054 3.47791 0
M  V30 4241 C 395.36 2.33363 3.92926 0
M  V30 4242 C 396.357 3.31308 4.00663 0
M  V30 4243 C 394.042 2.66785 4.25595 0
M  V30 4244 C 396.036 4.6075 4.40441 0
M  V30 4245 C 393.723 3.96446 4.65053 0
M  V30 4246 C 394.721 4.9324 4.72444 0
M  V30 4247 O 394.409 6.20584 5.1101 0
M  V30 4248 H 394.141 0.25258 0.62704 0
M  V30 4249 H 396.695 1.32939 1.56577 0
M  V30 4250 H 394.925 0.208443 3.86138 0
M  V30 4251 H 396.614 0.598257 4.01467 0
M  V30 4252 H 397.38 3.0682 3.75615 0
M  V30 4253 H 393.259 1.92148 4.19047 0
M  V30 4254 H 396.803 5.363 4.46126 0
M  V30 4255 H 392.7 4.20724 4.89552 0
M  V30 4256 H 393.468 6.24509 5.29085 0
M  V30 4257 N 396.131 -1.37776 0.765217 0
M  V30 4258 C 397.547 -1.53297 0.444108 0
M  V30 4259 C 397.747 -1.72515 -1.04119 0
M  V30 4260 O 396.803 -1.74278 -1.82711 0
M  V30 4261 C 398.116 -2.73328 1.25349 0
M  V30 4262 C 399.664 -2.87185 1.24473 0
M  V30 4263 C 400.139 -4.10191 2.03733 0
M  V30 4264 N 401.63 -4.17291 2.01053 0
M  V30 4265 C 402.365 -5.11488 2.59166 0
M  V30 4266 N 401.861 -6.11285 3.26041 0
M  V30 4267 N 403.654 -5.03924 2.49032 0
M  V30 4268 H 395.805 -1.23552 1.72768 0
M  V30 4269 H 398.068 -0.601103 0.733062 0
M  V30 4270 H 397.774 -2.6557 2.30577 0
M  V30 4271 H 397.648 -3.66834 0.87823 0
M  V30 4272 H 400.035 -2.94418 0.20047 0
M  V30 4273 H 400.116 -1.94657 1.65959 0
M  V30 4274 H 399.76 -4.0372 3.08176 0
M  V30 4275 H 399.69 -5.01821 1.59633 0
M  V30 4276 H 402.181 -3.45825 1.5236 0
M  V30 4277 H 402.494 -6.79678 3.67774 0
M  V30 4278 H 400.839 -6.11583 3.30138 0
M  V30 4279 H 404.03 -4.24902 1.96407 0
M  V30 4280 H 404.203 -5.77152 2.94617 0
M  V30 4281 N 397.609 -0.515225 -1.4894 0
M  V30 4282 C 398.541 0.292481 -2.27326 0
M  V30 4283 C 399.554 0.917838 -1.3446 0
M  V30 4284 O 400.743 0.798772 -1.5963 0
M  V30 4285 C 397.843 1.42803 -3.07344 0
M  V30 4286 C 397.016 0.907347 -4.27885 0
M  V30 4287 C 396.075 1.92222 -4.89834 0
M  V30 4288 O 395.101 1.48506 -5.49486 0
M  V30 4289 N 396.303 3.25355 -4.80754 0
M  V30 4290 H 399.068 -0.379721 -2.97285 0
M  V30 4291 H 396.629 -0.348638 -1.58102 0
M  V30 4292 H 398.621 2.10481 -3.45658 0
M  V30 4293 H 397.191 2.00414 -2.39902 0
M  V30 4294 H 396.411 0.0550218 -3.94162 0
M  V30 4295 H 397.699 0.538108 -5.05946 0
M  V30 4296 H 397.097 3.6355 -4.33414 0
M  V30 4297 H 395.654 3.88707 -5.23211 0
M  V30 4298 N 399.087 1.5561 -0.249682 0
M  V30 4299 C 400.498 1.84979 0.252949 0
M  V30 4300 C 400.849 1.17153 1.57384 0
M  V30 4301 O 399.974 0.450884 2.11651 0
M  V30 4302 C 400.569 3.35584 0.465732 0
M  V30 4303 C 399.128 3.65169 0.912624 0
M  V30 4304 C 398.275 2.77299 -0.00859085 0
M  V30 4305 H 401.226 1.51513 -0.47217 0
M  V30 4306 H 401.247 3.57313 1.30795 0
M  V30 4307 H 400.759 3.8492 -0.49579 0
M  V30 4308 H 398.86 3.21312 1.88652 0
M  V30 4309 H 398.973 4.72912 0.767559 0
M  V30 4310 H 397.337 2.49678 0.50327 0
M  V30 4311 H 398.12 3.29442 -0.965537 0
M  V30 4312 N 400.565 -0.0233959 1.57583 0
M  V30 4313 C 401.814 -0.712133 1.8871 0
M  V30 4314 C 402.127 -1.76217 0.848944 0
M  V30 4315 O 403.333 -2.50389 1.04964 0
M  V30 4316 C 401.789 -1.3177 3.3491 0
M  V30 4317 C 401.397 -0.303715 4.46969 0
M  V30 4318 C 403.141 -1.98598 3.75179 0
M  V30 4319 C 401.048 -0.917945 5.84233 0
M  V30 4320 H 399.978 -0.269735 0.704101 0
M  V30 4321 H 402.629 0.0333114 1.8347 0
M  V30 4322 H 401.011 -2.11304 3.34913 0
M  V30 4323 H 402.185 0.465325 4.58445 0
M  V30 4324 H 400.5 0.2628 4.1557 0
M  V30 4325 H 403.097 -2.45416 4.75053 0
M  V30 4326 H 403.44 -2.80659 3.07468 0
M  V30 4327 H 403.973 -1.25831 3.77374 0
M  V30 4328 H 400.712 -0.136633 6.55358 0
M  V30 4329 H 400.232 -1.65669 5.76467 0
M  V30 4330 H 401.911 -1.4236 6.31144 0
M  V30 4331 N 402.043 -1.548 -0.295768 0
M  V30 4332 C 402.973 -1.89115 -1.36959 0
M  V30 4333 C 403.954 -0.75059 -1.52644 0
M  V30 4334 O 405.139 -1.00678 -1.66065 0
M  V30 4335 C 402.269 -2.14307 -2.73295 0
M  V30 4336 C 401.223 -3.30151 -2.72368 0
M  V30 4337 C 400.549 -3.40772 -4.12042 0
M  V30 4338 C 401.849 -4.67126 -2.33646 0
M  V30 4339 H 403.543 -2.79053 -1.08488 0
M  V30 4340 H 401.089 -1.34266 -0.520443 0
M  V30 4341 H 403.042 -2.36898 -3.48507 0
M  V30 4342 H 401.766 -1.21145 -3.03301 0
M  V30 4343 H 400.425 -3.0749 -1.99613 0
M  V30 4344 H 400.073 -2.45117 -4.39234 0
M  V30 4345 H 399.773 -4.18645 -4.12322 0
M  V30 4346 H 401.297 -3.6563 -4.89027 0
M  V30 4347 H 402.711 -4.89414 -2.98575 0
M  V30 4348 H 401.108 -5.47751 -2.45129 0
M  V30 4349 H 402.178 -4.67489 -1.28772 0
M  V30 4350 N 403.521 0.559213 -1.47345 0
M  V30 4351 C 404.77 1.31281 -1.53128 0
M  V30 4352 C 405.083 1.94602 -0.197344 0
M  V30 4353 O 406.289 2.71173 -0.133154 0
M  V30 4354 C 404.745 2.38051 -2.69925 0
M  V30 4355 C 404.353 1.8093 -4.0984 0
M  V30 4356 C 406.097 3.14604 -2.84999 0
M  V30 4357 C 404.004 2.85468 -5.1794 0
M  V30 4358 H 402.934 0.493614 -0.569966 0
M  V30 4359 H 405.585 0.594155 -1.73615 0
M  V30 4360 H 403.967 3.12822 -2.42814 0
M  V30 4361 H 405.141 1.12544 -4.46845 0
M  V30 4362 H 403.456 1.16967 -3.99634 0
M  V30 4363 H 406.053 3.92666 -3.62929 0
M  V30 4364 H 406.396 3.68665 -1.93369 0
M  V30 4365 H 406.929 2.46945 -3.1187 0
M  V30 4366 H 403.668 2.36264 -6.1144 0
M  V30 4367 H 403.188 3.52269 -4.85455 0
M  V30 4368 H 404.867 3.48996 -5.44803 0
M  V30 4369 N 404.999 1.35443 0.805782 0
M  V30 4370 C 405.962 1.28301 1.89925 0
M  V30 4371 C 406.962 0.194285 1.59622 0
M  V30 4372 O 408.152 0.448036 1.6834 0
M  V30 4373 C 405.284 0.984997 3.2636 0
M  V30 4374 H 406.477 2.2553 1.97677 0
M  V30 4375 H 404.03 1.19979 1.00173 0
M  V30 4376 H 404.765 0.016603 3.24296 0
M  V30 4377 H 404.55 1.77269 3.4974 0
M  V30 4378 H 406.04 0.960651 4.064 0
M  V30 4379 N 406.477 -1.02803 1.19454 0
M  V30 4380 C 407.723 -1.76478 0.999171 0
M  V30 4381 C 408.056 -1.88456 -0.468828 0
M  V30 4382 O 407.331 -1.40198 -1.34814 0
M  V30 4383 C 407.614 -3.19044 1.66981 0
M  V30 4384 C 407.467 -3.14932 3.21151 0
M  V30 4385 C 408.786 -4.17456 1.39349 0
M  V30 4386 H 405.905 -0.640614 0.364393 0
M  V30 4387 H 408.547 -1.20005 1.47305 0
M  V30 4388 H 406.697 -3.67263 1.2669 0
M  V30 4389 H 408.369 -2.74605 3.70661 0
M  V30 4390 H 406.612 -2.52625 3.52652 0
M  V30 4391 H 407.283 -4.1566 3.63223 0
M  V30 4392 H 409.759 -3.77842 1.74283 0
M  V30 4393 H 408.635 -5.154 1.88823 0
M  V30 4394 H 408.896 -4.40949 0.318813 0
M  V30 4395 N 407.956 -0.998596 -1.21925 0
M  V30 4396 C 409.202 -0.678667 -1.91107 0
M  V30 4397 C 409.535 0.78791 -1.77498 0
M  V30 4398 O 408.81 1.57043 -1.1475 0
M  V30 4399 C 409.093 -1.09245 -3.43129 0
M  V30 4400 C 408.946 -2.61801 -3.6576 0
M  V30 4401 C 410.265 -0.649984 -4.35274 0
M  V30 4402 H 407.384 -0.248025 -0.694012 0
M  V30 4403 H 410.026 -1.24314 -1.43688 0
M  V30 4404 H 408.176 -0.612171 -3.83647 0
M  V30 4405 H 409.848 -3.17543 -3.34611 0
M  V30 4406 H 408.091 -3.03609 -3.09845 0
M  V30 4407 H 408.762 -2.85804 -4.7225 0
M  V30 4408 H 411.238 -1.0626 -4.02303 0
M  V30 4409 H 410.114 -0.967743 -5.40302 0
M  V30 4410 H 410.375 0.449139 -4.39813 0
M  V30 4411 N 409.434 1.37368 -0.772513 0
M  V30 4412 C 410.364 2.32856 -0.173304 0
M  V30 4413 C 411.345 1.55818 0.682262 0
M  V30 4414 O 412.53 1.84052 0.619566 0
M  V30 4415 C 409.66 3.40048 0.706007 0
M  V30 4416 C 408.614 4.27973 -0.0483144 0
M  V30 4417 C 407.94 5.26184 0.950491 0
M  V30 4418 C 409.24 5.07665 -1.22776 0
M  V30 4419 H 410.934 2.83217 -0.971002 0
M  V30 4420 H 408.48 1.3617 -0.468377 0
M  V30 4421 H 410.433 4.05827 1.13501 0
M  V30 4422 H 409.157 2.88214 1.53623 0
M  V30 4423 H 407.816 3.63726 -0.458107 0
M  V30 4424 H 407.464 4.7063 1.77529 0
M  V30 4425 H 407.164 5.85872 0.450314 0
M  V30 4426 H 408.688 5.94838 1.37842 0
M  V30 4427 H 410.102 5.66578 -0.875366 0
M  V30 4428 H 408.499 5.76681 -1.66007 0
M  V30 4429 H 409.569 4.40294 -2.03149 0
M  V30 4430 N 410.912 0.523116 1.48665 0
M  V30 4431 C 411.844 -0.280421 2.27478 0
M  V30 4432 C 412.857 -0.910694 1.34945 0
M  V30 4433 O 414.046 -0.790295 1.60052 0
M  V30 4434 C 411.146 -1.41171 3.08097 0
M  V30 4435 C 410.319 -0.884642 4.28361 0
M  V30 4436 C 409.378 -1.89622 4.90846 0
M  V30 4437 O 408.404 -1.4559 5.50265 0
M  V30 4438 N 409.606 -3.22801 4.82472 0
M  V30 4439 H 412.371 0.395481 2.97079 0
M  V30 4440 H 409.932 0.357018 1.57915 0
M  V30 4441 H 411.924 -2.08645 3.4677 0
M  V30 4442 H 410.494 -1.99139 2.40961 0
M  V30 4443 H 409.714 -0.0341177 3.94185 0
M  V30 4444 H 411.002 -0.511268 5.06225 0
M  V30 4445 H 410.4 -3.61246 4.35336 0
M  V30 4446 H 408.957 -3.85927 5.25265 0
M  V30 4447 N 412.39 -1.55475 0.257931 0
M  V30 4448 C 413.32 -2.24815 -0.630912 0
M  V30 4449 C 414.301 -1.23224 -1.17259 0
M  V30 4450 O 415.486 -1.51904 -1.20991 0
M  V30 4451 C 412.616 -2.95609 -1.82298 0
M  V30 4452 C 411.57 -4.03982 -1.41359 0
M  V30 4453 C 410.896 -4.6226 -2.68738 0
M  V30 4454 C 412.196 -5.19109 -0.57648 0
M  V30 4455 H 413.89 -2.99354 -0.0526878 0
M  V30 4456 H 411.436 -1.4398 -0.023901 0
M  V30 4457 H 413.389 -3.42822 -2.45054 0
M  V30 4458 H 412.113 -2.18577 -2.42676 0
M  V30 4459 H 410.772 -3.57555 -0.809324 0
M  V30 4460 H 410.42 -3.81915 -3.27338 0
M  V30 4461 H 410.12 -5.35424 -2.42065 0
M  V30 4462 H 411.644 -5.12212 -3.32372 0
M  V30 4463 H 413.058 -5.62479 -1.10861 0
M  V30 4464 H 411.455 -5.98729 -0.405351 0
M  V30 4465 H 412.525 -4.83174 0.408776 0
M  V30 4466 N 413.868 0.0150385 -1.57593 0
M  V30 4467 C 415.093 0.718067 -1.94573 0
M  V30 4468 C 415.518 1.6734 -0.859005 0
M  V30 4469 O 414.876 1.80362 0.184147 0
M  V30 4470 C 414.924 1.43918 -3.30636 0
M  V30 4471 O 414.028 2.55299 -3.23876 0
M  V30 4472 H 413.369 0.192125 -0.635597 0
M  V30 4473 H 415.899 -0.0336708 -2.04572 0
M  V30 4474 H 415.909 1.80598 -3.65853 0
M  V30 4475 H 414.584 0.738619 -4.09289 0
M  V30 4476 H 413.161 2.21058 -3.00312 0
M  V30 4477 N 415.346 1.54954 0.287554 0
M  V30 4478 C 416.278 1.83224 1.37701 0
M  V30 4479 C 417.291 0.715898 1.46215 0
M  V30 4480 O 418.48 0.993565 1.48292 0
M  V30 4481 C 415.58 1.96723 2.75959 0
M  V30 4482 C 414.753 3.27253 2.90215 0
M  V30 4483 C 413.812 3.30998 4.09056 0
M  V30 4484 O 412.838 4.04457 4.00503 0
M  V30 4485 N 414.04 2.57353 5.20336 0
M  V30 4486 H 416.805 2.77254 1.138 0
M  V30 4487 H 414.366 1.54694 0.477652 0
M  V30 4488 H 416.358 1.96615 3.5373 0
M  V30 4489 H 414.928 1.09626 2.92747 0
M  V30 4490 H 414.148 3.40022 1.99447 0
M  V30 4491 H 415.436 4.13365 2.96659 0
M  V30 4492 H 414.834 1.97327 5.30169 0
M  V30 4493 H 413.391 2.62984 5.96391 0
M  V30 4494 N 416.824 -0.551391 1.4764 0
M  V30 4495 C 417.756 -1.67333 1.56628 0
M  V30 4496 C 418.769 -1.56398 0.452045 0
M  V30 4497 O 419.958 -1.6325 0.721926 0
M  V30 4498 C 417.058 -3.05841 1.45994 0
M  V30 4499 C 416.231 -3.42472 2.72088 0
M  V30 4500 C 415.29 -4.60168 2.55209 0
M  V30 4501 O 414.316 -4.64458 3.2904 0
M  V30 4502 N 415.518 -5.57024 1.63416 0
M  V30 4503 H 418.283 -1.60066 2.53375 0
M  V30 4504 H 415.844 -0.738169 1.44093 0
M  V30 4505 H 417.836 -3.8242 1.32428 0
M  V30 4506 H 416.406 -3.07302 0.573071 0
M  V30 4507 H 415.626 -2.55284 3.00373 0
M  V30 4508 H 416.914 -3.63723 3.55785 0
M  V30 4509 H 416.312 -5.56319 1.02594 0
M  V30 4510 H 414.869 -6.32906 1.558 0
M  V30 4511 N 418.302 -1.35869 -0.798587 0
M  V30 4512 C 419.232 -1.32118 -1.92528 0
M  V30 4513 C 420.213 -0.194209 -1.68988 0
M  V30 4514 O 421.398 -0.390426 -1.90235 0
M  V30 4515 C 418.528 -1.10047 -3.29404 0
M  V30 4516 C 417.482 -2.19471 -3.67446 0
M  V30 4517 C 416.808 -1.82555 -5.02571 0
M  V30 4518 C 418.108 -3.61495 -3.76987 0
M  V30 4519 H 419.802 -2.26394 -1.95924 0
M  V30 4520 H 417.348 -1.08981 -0.94123 0
M  V30 4521 H 419.301 -1.06061 -4.07835 0
M  V30 4522 H 418.025 -0.122195 -3.26371 0
M  V30 4523 H 416.684 -2.22568 -2.91306 0
M  V30 4524 H 416.332 -0.833249 -4.9605 0
M  V30 4525 H 416.032 -2.5581 -5.28995 0
M  V30 4526 H 417.556 -1.80108 -5.83432 0
M  V30 4527 H 418.97 -3.60676 -4.4563 0
M  V30 4528 H 417.367 -4.33577 -4.14887 0
M  V30 4529 H 418.437 -3.97065 -2.78329 0
M  V30 4530 N 419.78 1.02168 -1.19998 0
M  V30 4531 C 421.005 1.79833 -1.03319 0
M  V30 4532 C 421.43 1.83504 0.413281 0
M  V30 4533 O 420.788 1.26635 1.29743 0
M  V30 4534 C 420.836 3.22396 -1.61533 0
M  V30 4535 O 419.94 4.03555 -0.849519 0
M  V30 4536 H 419.281 0.554872 -0.364709 0
M  V30 4537 H 421.811 1.28542 -1.59179 0
M  V30 4538 H 421.821 3.73124 -1.65054 0
M  V30 4539 H 420.496 3.19039 -2.66809 0
M  V30 4540 H 419.073 3.62169 -0.888129 0
M  V30 4541 N 421.258 1.00505 1.21394 0
M  V30 4542 C 422.506 0.686415 1.90086 0
M  V30 4543 C 422.827 -0.785264 1.7849 0
M  V30 4544 O 422.097 -1.56387 1.17983 0
M  V30 4545 H 420.677 0.2509 0.703604 0
M  V30 4546 H 423.339 1.27417 1.47482 0
M  V30 4547 H 422.435 0.959621 2.96981 0
M  V30 4548 N 422.737 -1.36956 0.779787 0
M  V30 4549 C 423.986 -1.98738 0.344405 0
M  V30 4550 C 424.299 -1.62596 -1.08728 0
M  V30 4551 O 425.505 -2.1754 -1.62445 0
M  V30 4552 C 423.961 -3.5544 0.564829 0
M  V30 4553 C 423.569 -4.00514 2.0073 0
M  V30 4554 C 425.313 -4.24059 0.193471 0
M  V30 4555 C 423.22 -5.49957 2.17489 0
M  V30 4556 H 422.15 -0.743561 0.12503 0
M  V30 4557 H 424.801 -1.56381 0.960057 0
M  V30 4558 H 423.183 -3.95817 -0.120397 0
M  V30 4559 H 424.357 -3.71362 2.72814 0
M  V30 4560 H 422.672 -3.44703 2.336 0
M  V30 4561 H 425.269 -5.33874 0.297097 0
M  V30 4562 H 425.612 -4.07378 -0.857263 0
M  V30 4563 H 426.145 -3.89012 0.831556 0
M  V30 4564 H 422.884 -5.71574 3.2091 0
M  V30 4565 H 422.404 -5.80767 1.49899 0
M  V30 4566 H 424.083 -6.16043 1.97738 0
M  V30 4567 N 424.215 -0.530993 -1.48385 0
M  V30 4568 C 425.163 0.244595 -2.3131 0
M  V30 4569 C 426.157 0.93451 -1.41291 0
M  V30 4570 O 427.363 0.85878 -1.58193 0
M  V30 4571 H 423.738 0.0977472 -0.74562 0
M  V30 4572 H 425.709 -0.474369 -2.94605 0
M  V30 4573 C 424.458 1.2779 -3.23365 0
M  V30 4574 H 423.781 0.756439 -3.92579 0
M  V30 4575 H 425.221 1.79198 -3.84271 0
M  V30 4576 C 423.68 2.31205 -2.45042 0
M  V30 4577 O 424.21 3.37661 -2.17596 0
M  V30 4578 N 422.416 2.04446 -2.0652 0
M  V30 4579 H 421.963 1.17891 -2.2904 0
M  V30 4580 H 421.921 2.73861 -1.54427 0
M  V30 4581 N 425.693 1.55336 -0.266172 0
M  V30 4582 C 426.656 2.20878 0.612001 0
M  V30 4583 C 427.656 1.18388 1.08816 0
M  V30 4584 O 428.846 1.4335 0.989774 0
M  V30 4585 C 425.978 2.86765 1.84332 0
M  V30 4586 H 427.171 2.99873 0.0398718 0
M  V30 4587 H 424.724 1.56291 -0.0167309 0
M  V30 4588 H 425.459 2.11759 2.45619 0
M  V30 4589 H 425.244 3.61862 1.5099 0
M  V30 4590 H 426.734 3.36867 2.46801 0
M  V30 4591 N 427.171 -0.0066808 1.57599 0
M  V30 4592 C 428.417 -0.693947 1.90558 0
M  V30 4593 C 428.75 -1.73792 0.866594 0
M  V30 4594 O 428.025 -1.94156 -0.115548 0
M  V30 4595 C 428.308 -1.34317 3.34112 0
M  V30 4596 C 428.161 -0.311189 4.48722 0
M  V30 4597 C 429.48 -2.27116 3.7697 0
M  V30 4598 H 426.599 -0.250803 0.693013 0
M  V30 4599 H 429.241 0.043242 1.89951 0
M  V30 4600 H 427.391 -1.9715 3.3476 0
M  V30 4601 H 429.063 0.316944 4.6021 0
M  V30 4602 H 427.306 0.367253 4.32243 0
M  V30 4603 H 427.977 -0.804366 5.46108 0
M  V30 4604 H 430.453 -1.74306 3.77831 0
M  V30 4605 H 429.329 -2.69511 4.78179 0
M  V30 4606 H 429.59 -3.14743 3.10466 0
M  V30 4607 N 428.649 -1.55105 -0.279332 0
M  V30 4608 C 429.896 -1.75412 -1.01177 0
M  V30 4609 C 430.224 -0.551728 -1.86511 0
M  V30 4610 O 429.479 0.465919 -1.90073 0
M  V30 4611 C 429.778 -3.0086 -1.92919 0
M  V30 4612 C 429.444 -4.33689 -1.23387 0
M  V30 4613 C 428.106 -4.69792 -1.04159 0
M  V30 4614 C 430.458 -5.15941 -0.738562 0
M  V30 4615 C 427.786 -5.85707 -0.341166 0
M  V30 4616 C 430.138 -6.32579 -0.0517636 0
M  V30 4617 C 428.802 -6.67326 0.152292 0
M  V30 4618 H 428.072 -0.641879 -0.370233 0
M  V30 4619 H 430.719 -1.89373 -0.284627 0
M  V30 4620 H 429.024 -2.81773 -2.72234 0
M  V30 4621 H 430.721 -3.13768 -2.49701 0
M  V30 4622 H 427.311 -4.05309 -1.39364 0
M  V30 4623 H 431.495 -4.8853 -0.874764 0
M  V30 4624 H 426.751 -6.11157 -0.172287 0
M  V30 4625 H 430.925 -6.9557 0.339828 0
M  V30 4626 H 428.552 -7.56998 0.697014 0
M  V30 4627 N 430.127 0.543554 -1.4793 0
M  V30 4628 C 431.357 1.32324 -1.58663 0
M  V30 4629 C 431.765 1.8766 -0.240896 0
M  V30 4630 O 431.108 1.66411 0.778011 0
M  V30 4631 C 431.17 2.52094 -2.56299 0
M  V30 4632 C 430.834 2.17944 -4.01683 0
M  V30 4633 C 431.831 1.74422 -4.89768 0
M  V30 4634 C 429.516 2.28884 -4.47121 0
M  V30 4635 C 431.51 1.42287 -6.21316 0
M  V30 4636 C 429.197 1.96361 -5.78693 0
M  V30 4637 C 430.195 1.53132 -6.65612 0
M  V30 4638 O 429.883 1.21029 -7.94737 0
M  V30 4639 H 429.615 0.409174 -0.538101 0
M  V30 4640 H 432.169 0.663887 -1.94375 0
M  V30 4641 H 430.399 3.20965 -2.15681 0
M  V30 4642 H 432.088 3.14165 -2.57012 0
M  V30 4643 H 432.854 1.65452 -4.55907 0
M  V30 4644 H 428.733 2.61488 -3.79664 0
M  V30 4645 H 432.277 1.08472 -6.89115 0
M  V30 4646 H 428.174 2.04967 -6.12094 0
M  V30 4647 H 428.942 1.34543 -8.07366 0
M  V30 4648 N 431.605 1.3629 0.791371 0
M  V30 4649 C 432.835 1.33368 1.57786 0
M  V30 4650 C 433.243 -0.0875188 1.88997 0
M  V30 4651 O 432.586 -1.05427 1.50435 0
M  V30 4652 C 432.648 2.08802 2.92646 0
M  V30 4653 C 432.312 3.57903 2.84174 0
M  V30 4654 C 433.309 4.52191 2.56553 0
M  V30 4655 C 430.994 4.00762 3.02812 0
M  V30 4656 C 432.988 5.87315 2.47669 0
M  V30 4657 C 430.675 5.35977 2.93551 0
M  V30 4658 C 431.673 6.29066 2.66017 0
M  V30 4659 O 431.361 7.61798 2.56746 0
M  V30 4660 H 431.093 0.459166 0.496128 0
M  V30 4661 H 433.647 1.79952 0.990269 0
M  V30 4662 H 431.877 1.56878 3.53449 0
M  V30 4663 H 433.566 1.98762 3.53904 0
M  V30 4664 H 434.332 4.20393 2.41858 0
M  V30 4665 H 430.211 3.2868 3.2325 0
M  V30 4666 H 433.755 6.59943 2.26099 0
M  V30 4667 H 429.652 5.67384 3.07808 0
M  V30 4668 H 430.42 7.71898 2.72242 0
M  V30 4669 N 433.083 -1.0153 1.20538 0
M  V30 4670 C 434.308 -1.79283 1.04271 0
M  V30 4671 C 434.733 -1.8372 -0.403544 0
M  V30 4672 O 434.091 -1.27321 -1.2907 0
M  V30 4673 C 434.139 -3.21535 1.63241 0
M  V30 4674 O 433.243 -4.03099 0.870908 0
M  V30 4675 H 432.584 -0.55293 0.367647 0
M  V30 4676 H 435.114 -1.27696 1.59859 0
M  V30 4677 H 435.124 -3.72243 1.6703 0
M  V30 4678 H 433.799 -3.1762 2.68497 0
M  V30 4679 H 432.376 -3.61693 0.907323 0
M  V30 4680 N 434.561 -1.01147 -1.20859 0
M  V30 4681 C 435.789 -0.716911 -1.94082 0
M  V30 4682 C 436.204 0.721568 -1.74467 0
M  V30 4683 O 435.561 1.48889 -1.05539 0
M  V30 4684 C 435.612 -1.03662 -3.46318 0
M  V30 4685 O 435.333 -2.4186 -3.65288 0
M  V30 4686 C 436.834 -0.762386 -4.36695 0
M  V30 4687 H 434.054 -0.26367 -0.617024 0
M  V30 4688 H 436.598 -1.35127 -1.53496 0
M  V30 4689 H 434.753 -0.447757 -3.84804 0
M  V30 4690 H 435.167 -2.53224 -4.59323 0
M  V30 4691 H 436.641 -1.03621 -5.42187 0
M  V30 4692 H 437.118 0.303514 -4.3815 0
M  V30 4693 H 437.724 -1.33316 -4.03865 0
M  V30 4694 N 436.039 1.36541 -0.78704 0
M  V30 4695 C 437.264 2.0409 -0.369053 0
M  V30 4696 C 437.689 1.58957 1.00569 0
M  V30 4697 O 437.047 0.756926 1.64743 0
M  V30 4698 C 437.095 3.57924 -0.438466 0
M  V30 4699 O 436.199 4.08642 0.555479 0
M  V30 4700 H 435.54 0.645142 -0.157122 0
M  V30 4701 H 438.07 1.74545 -1.06749 0
M  V30 4702 H 438.08 4.06887 -0.301218 0
M  V30 4703 H 436.755 3.90127 -1.44132 0
M  V30 4704 H 435.332 3.70958 0.380088 0
M  V30 4705 N 437.518 0.538854 1.48102 0
M  V30 4706 C 438.767 0.0059532 2.01699 0
M  V30 4707 C 439.08 -1.34476 1.42041 0
M  V30 4708 O 440.286 -1.96653 1.87189 0
M  V30 4709 C 438.742 -0.0397627 3.59878 0
M  V30 4710 C 438.35 1.30659 4.28523 0
M  V30 4711 C 440.094 -0.521024 4.2129 0
M  V30 4712 C 438.001 1.22098 5.78659 0
M  V30 4713 H 436.931 -0.00154456 0.753998 0
M  V30 4714 H 439.582 0.683963 1.70277 0
M  V30 4715 H 437.964 -0.783037 3.88181 0
M  V30 4716 H 439.138 2.06613 4.11883 0
M  V30 4717 H 437.453 1.7243 3.79021 0
M  V30 4718 H 440.05 -0.603184 5.31287 0
M  V30 4719 H 440.393 -1.52885 3.8721 0
M  V30 4720 H 440.926 0.166834 3.9745 0
M  V30 4721 H 437.665 2.20424 6.17328 0
M  V30 4722 H 437.185 0.50295 5.97688 0
M  V30 4723 H 438.864 0.915345 6.40492 0
M  V30 4724 N 438.996 -1.55193 0.274407 0
M  V30 4725 C 440.243 -1.99581 -0.342579 0
M  V30 4726 C 440.571 -1.1628 -1.55914 0
M  V30 4727 O 439.826 -0.22029 -1.94456 0
M  V30 4728 C 440.125 -3.49019 -0.769458 0
M  V30 4729 C 439.791 -4.49598 0.342389 0
M  V30 4730 C 438.453 -4.76821 0.647686 0
M  V30 4731 C 440.805 -5.0964 1.09163 0
M  V30 4732 C 438.133 -5.61354 1.70581 0
M  V30 4733 C 440.485 -5.95323 2.13948 0
M  V30 4734 C 439.149 -6.20867 2.45113 0
M  V30 4735 H 438.419 -0.730319 -0.125358 0
M  V30 4736 H 441.066 -1.87529 0.387971 0
M  V30 4737 H 439.371 -3.58544 -1.57967 0
M  V30 4738 H 441.068 -3.8077 -1.25757 0
M  V30 4739 H 437.658 -4.28496 0.094318 0
M  V30 4740 H 441.842 -4.88632 0.869024 0
M  V30 4741 H 437.098 -5.79392 1.9523 0
M  V30 4742 H 441.272 -6.40881 2.72478 0
M  V30 4743 H 438.899 -6.86162 3.27239 0
M  V30 4744 N 440.474 -0.00167713 -1.576 0
M  V30 4745 C 441.384 1.00548 -2.1196 0
M  V30 4746 C 442.4 1.3758 -1.06526 0
M  V30 4747 O 443.576 1.46278 -1.38436 0
M  V30 4748 C 440.641 2.27809 -2.6135 0
M  V30 4749 C 439.702 1.97074 -3.81393 0
M  V30 4750 C 438.935 3.18267 -4.28417 0
M  V30 4751 O 439.158 4.30009 -3.74765 0
M  V30 4752 O 438.092 3.02167 -5.20556 0
M  V30 4753 H 441.918 0.573373 -2.98238 0
M  V30 4754 H 439.503 0.217255 -1.47812 0
M  V30 4755 H 441.385 3.02568 -2.93309 0
M  V30 4756 H 440.06 2.70254 -1.78169 0
M  V30 4757 H 438.967 1.19785 -3.54404 0
M  V30 4758 H 440.3 1.59464 -4.65652 0
M  V30 4759 N 441.952 1.55251 0.271103 0
M  V30 4760 C 442.899 1.88261 1.33516 0
M  V30 4761 C 443.869 0.734296 1.48988 0
M  V30 4762 O 445.054 0.985741 1.63364 0
M  V30 4763 C 442.194 2.16168 2.69008 0
M  V30 4764 C 441.307 3.43678 2.61743 0
M  V30 4765 C 440.442 3.61276 3.89427 0
M  V30 4766 C 439.481 4.82472 3.7668 0
M  V30 4767 N 438.618 4.96717 4.96202 0
M  V30 4768 H 443.458 2.79015 1.04665 0
M  V30 4769 H 440.995 1.38137 0.505618 0
M  V30 4770 H 442.953 2.30349 3.47844 0
M  V30 4771 H 441.583 1.28646 2.96057 0
M  V30 4772 H 440.635 3.37959 1.74607 0
M  V30 4773 H 441.947 4.3265 2.48224 0
M  V30 4774 H 441.101 3.75284 4.76704 0
M  V30 4775 H 439.84 2.70492 4.05814 0
M  V30 4776 H 438.845 4.68465 2.87786 0
M  V30 4777 H 440.07 5.74692 3.61809 0
M  V30 4778 H 438.016 4.08865 5.12997 0
M  V30 4779 H 437.933 5.79738 4.85222 0
M  V30 4780 H 439.201 5.15113 5.85046 0
M  V30 4781 N 443.43 -0.535701 1.48216 0
M  V30 4782 C 444.393 -1.623 1.61838 0
M  V30 4783 C 445.393 -1.53087 0.492024 0
M  V30 4784 O 446.583 -1.5686 0.757668 0
M  V30 4785 C 443.715 -3.01907 1.58319 0
M  V30 4786 H 444.908 -1.51564 2.58783 0
M  V30 4787 H 442.461 -0.757317 1.36727 0
M  V30 4788 H 443.196 -3.18155 0.628299 0
M  V30 4789 H 442.981 -3.10003 2.40085 0
M  V30 4790 H 444.471 -3.80969 1.71033 0
M  V30 4791 N 444.908 -1.36708 -0.784132 0
M  V30 4792 C 446.156 -1.30972 -1.53918 0
M  V30 4793 C 446.477 0.109086 -1.94695 0
M  V30 4794 O 445.747 1.05048 -1.65353 0
M  V30 4795 H 444.327 -0.481819 -0.570841 0
M  V30 4796 H 446.989 -1.71063 -0.934002 0
M  V30 4797 H 446.085 -1.94061 -2.44431 0
M  V30 4798 N 446.386 1.0089 -1.21074 0
M  V30 4799 C 447.632 1.74866 -1.02712 0
M  V30 4800 C 447.965 1.89178 0.438787 0
M  V30 4801 O 447.24 1.42325 1.32567 0
M  V30 4802 C 447.523 3.16347 -1.72036 0
M  V30 4803 C 447.376 3.09782 -3.26121 0
M  V30 4804 C 448.695 4.15187 -1.45973 0
M  V30 4805 H 445.814 0.634736 -0.374539 0
M  V30 4806 H 448.456 1.17646 -1.49196 0
M  V30 4807 H 446.606 3.65201 -1.32517 0
M  V30 4808 H 448.278 2.68673 -3.74983 0
M  V30 4809 H 446.521 2.46982 -3.56626 0
M  V30 4810 H 447.192 4.09829 -3.6979 0
M  V30 4811 H 449.668 3.75022 -1.80272 0
M  V30 4812 H 448.544 5.12331 -1.96999 0
M  V30 4813 H 448.805 4.40386 -0.388924 0
M  V30 4814 N 447.864 1.01787 1.20321 0
M  V30 4815 C 448.796 0.547357 2.22568 0
M  V30 4816 C 449.809 -0.370922 1.58518 0
M  V30 4817 O 450.998 -0.169067 1.77698 0
M  V30 4818 C 448.098 -0.223031 3.38165 0
M  V30 4819 C 447.271 0.697472 4.31803 0
M  V30 4820 C 446.33 -0.025562 5.26194 0
M  V30 4821 O 445.356 0.597367 5.66057 0
M  V30 4822 N 446.558 -1.29999 5.65757 0
M  V30 4823 H 449.323 1.42668 2.63564 0
M  V30 4824 H 446.884 0.895552 1.34876 0
M  V30 4825 H 448.876 -0.716002 3.98316 0
M  V30 4826 H 447.446 -1.00366 2.9605 0
M  V30 4827 H 446.666 1.37073 3.69601 0
M  V30 4828 H 447.954 1.32347 4.91286 0
M  V30 4829 H 447.352 -1.827 5.35385 0
M  V30 4830 H 445.909 -1.73766 6.28211 0
M  V30 4831 N 449.342 -1.36122 0.79427 0
M  V30 4832 C 450.274 -2.28683 0.153903 0
M  V30 4833 C 451.287 -1.49707 -0.639669 0
M  V30 4834 O 452.476 -1.7209 -0.474054 0
M  V30 4835 C 449.576 -3.29202 -0.804921 0
M  V30 4836 C 448.749 -4.37358 -0.060366 0
M  V30 4837 C 447.808 -5.17811 -0.935849 0
M  V30 4838 O 446.834 -5.67853 -0.391309 0
M  V30 4839 N 448.036 -5.34721 -2.25951 0
M  V30 4840 H 450.801 -2.84278 0.949008 0
M  V30 4841 H 448.362 -1.4834 0.648611 0
M  V30 4842 H 450.354 -3.79914 -1.39455 0
M  V30 4843 H 448.924 -2.74212 -1.50088 0
M  V30 4844 H 448.144 -3.87746 0.710382 0
M  V30 4845 H 449.432 -5.06777 0.45324 0
M  V30 4846 H 448.83 -4.95687 -2.72601 0
M  V30 4847 H 447.387 -5.88657 -2.79867 0
M  V30 4848 N 450.82 -0.546701 -1.47814 0
M  V30 4849 C 452.231 -0.110564 -1.86372 0
M  V30 4850 C 452.582 1.31678 -1.45449 0
M  V30 4851 O 451.707 1.98889 -0.852758 0
M  V30 4852 C 452.302 -0.193873 -3.38245 0
M  V30 4853 C 450.861 0.187164 -3.75934 0
M  V30 4854 C 450.008 -0.546166 -2.71868 0
M  V30 4855 H 452.959 -0.757022 -1.39481 0
M  V30 4856 H 452.98 0.590218 -3.75895 0
M  V30 4857 H 452.492 -1.23282 -3.67999 0
M  V30 4858 H 450.593 1.22762 -3.51796 0
M  V30 4859 H 450.706 -0.164083 -4.78819 0
M  V30 4860 H 449.07 0.00953904 -2.54698 0
M  V30 4861 H 449.853 -1.58606 -3.04465 0
M  V30 4862 N 452.299 1.55045 -0.282633 0
M  V30 4863 C 453.545 2.00056 0.332481 0
M  V30 4864 C 453.878 1.1708 1.54939 0
M  V30 4865 O 453.153 0.2427 1.9298 0
M  V30 4866 C 453.436 3.53086 0.70725 0
M  V30 4867 C 453.289 4.46813 -0.517521 0
M  V30 4868 C 454.608 4.12245 1.54084 0
M  V30 4869 H 451.727 0.727268 0.119373 0
M  V30 4870 H 454.369 1.85932 -0.391076 0
M  V30 4871 H 452.519 3.65253 1.32372 0
M  V30 4872 H 454.191 4.46579 -1.15607 0
M  V30 4873 H 452.434 4.18163 -1.1542 0
M  V30 4874 H 453.105 5.51595 -0.211426 0
M  V30 4875 H 455.581 4.03401 1.02013 0
M  V30 4876 H 454.457 5.19515 1.77186 0
M  V30 4877 H 454.718 3.62951 2.52427 0
M  V30 4878 N 453.777 0.010035 1.57597 0
M  V30 4879 C 455.007 -0.682422 1.95004 0
M  V30 4880 C 455.415 -1.67278 0.884014 0
M  V30 4881 O 454.758 -1.83129 -0.144672 0
M  V30 4882 C 454.82 -1.46141 3.28456 0
M  V30 4883 C 454.484 -0.631523 4.52615 0
M  V30 4884 C 455.481 0.0850905 5.1983 0
M  V30 4885 C 453.166 -0.574539 4.99003 0
M  V30 4886 C 455.16 0.847566 6.3174 0
M  V30 4887 C 452.847 0.191655 6.10799 0
M  V30 4888 C 453.845 0.901432 6.77025 0
M  V30 4889 O 453.533 1.65511 7.86677 0
M  V30 4890 H 453.265 -0.194361 0.647456 0
M  V30 4891 H 455.819 0.060312 2.05311 0
M  V30 4892 H 454.049 -2.24885 3.14585 0
M  V30 4893 H 455.738 -2.04016 3.50902 0
M  V30 4894 H 456.504 0.0502812 4.84974 0
M  V30 4895 H 452.383 -1.11654 4.47274 0
M  V30 4896 H 455.927 1.4021 6.83364 0
M  V30 4897 H 451.824 0.228249 6.45096 0
M  V30 4898 H 452.592 1.57287 8.03245 0
M  V30 4899 N 455.255 -1.55392 -0.262866 0
M  V30 4900 C 456.218 -1.88181 -1.30846 0
M  V30 4901 C 457.218 -0.757079 -1.41862 0
M  V30 4902 O 458.408 -1.02519 -1.40838 0
M  V30 4903 C 455.54 -2.09609 -2.68844 0
M  V30 4904 H 456.733 -2.81659 -1.02997 0
M  V30 4905 H 454.286 -1.48039 -0.501414 0
M  V30 4906 H 455.021 -1.18547 -3.01856 0
M  V30 4907 H 454.806 -2.91508 -2.62231 0
M  V30 4908 H 456.296 -2.36215 -3.44372 0
M  V30 4909 N 456.733 0.527833 -1.48498 0
M  V30 4910 C 457.961 1.30823 -1.6029 0
M  V30 4911 C 458.376 1.86945 -0.263974 0
M  V30 4912 O 457.733 1.6651 0.747034 0
M  V30 4913 C 457.784 2.45756 -2.65116 0
M  V30 4914 O 457.505 1.91946 -3.93813 0
M  V30 4915 C 459.006 3.37543 -2.87367 0
M  V30 4916 H 456.226 0.397763 -0.540394 0
M  V30 4917 H 458.77 0.636529 -1.94341 0
M  V30 4918 H 456.925 3.08806 -2.33917 0
M  V30 4919 H 457.339 2.67195 -4.51339 0
M  V30 4920 H 458.813 4.14532 -3.6451 0
M  V30 4921 H 459.29 3.92905 -1.9627 0
M  V30 4922 H 459.896 2.80283 -3.19878 0
M  V30 4923 N 458.211 1.37122 0.776871 0
M  V30 4924 C 459.46 1.31373 1.53049 0
M  V30 4925 C 459.773 -0.101016 1.95339 0
M  V30 4926 O 460.979 -0.280953 2.70042 0
M  V30 4927 C 459.435 2.30567 2.76346 0
M  V30 4928 C 459.043 3.77543 2.41175 0
M  V30 4929 C 460.787 2.33818 3.54301 0
M  V30 4930 C 458.694 4.68481 3.60943 0
M  V30 4931 H 457.624 0.488234 0.574581 0
M  V30 4932 H 460.275 1.62554 0.851372 0
M  V30 4933 H 458.657 1.92396 3.46121 0
M  V30 4934 H 459.831 4.24521 1.79216 0
M  V30 4935 H 458.146 3.77187 1.76405 0
M  V30 4936 H 460.743 2.98965 4.4331 0
M  V30 4937 H 461.086 1.3503 3.93793 0
M  V30 4938 H 461.619 2.7067 2.91518 0
M  V30 4939 H 458.358 5.68378 3.26537 0
M  V30 4940 H 457.878 4.2621 4.22025 0
M  V30 4941 H 459.557 4.85366 4.27819 0
M  V30 4942 N 459.689 -1.00246 1.21608 0
M  V30 4943 C 460.937 -1.73717 1.0328 0
M  V30 4944 C 461.258 -1.90102 -0.434318 0
M  V30 4945 O 460.528 -1.45376 -1.31311 0
M  V30 4946 H 459.108 -0.643613 0.379172 0
M  V30 4947 H 461.77 -1.20787 1.52959 0
M  V30 4948 H 460.866 -2.73535 1.50283 0
M  V30 4949 N 461.167 -1.02423 -1.1978 0
M  V30 4950 C 462.392 -0.7373 -1.93852 0
M  V30 4951 C 462.817 0.696923 -1.74713 0
M  V30 4952 O 462.175 1.48056 -1.04638 0
M  V30 4953 C 462.223 -1.08783 -3.438 0
M  V30 4954 O 461.327 -0.20383 -4.11896 0
M  V30 4955 H 460.668 -0.27284 -0.605355 0
M  V30 4956 H 463.198 -1.36966 -1.51992 0
M  V30 4957 H 463.208 -1.04276 -3.9445 0
M  V30 4958 H 461.883 -2.13274 -3.57053 0
M  V30 4959 H 460.46 -0.307091 -3.71633 0
M  V30 4960 N 462.645 1.35699 -0.801477 0
M  V30 4961 C 463.893 1.9852 -0.37871 0
M  V30 4962 C 464.214 1.63907 1.05638 0
M  V30 4963 O 463.484 0.919013 1.73006 0
M  V30 4964 H 462.064 0.734322 -0.137042 0
M  V30 4965 H 464.726 1.65697 -1.02619 0
M  V30 4966 H 463.822 3.08382 -0.480284 0
M  V30 4967 N 464.123 0.554532 1.47522 0
M  V30 4968 C 465.372 0.0273458 2.01681 0
M  V30 4969 C 465.685 -1.32962 1.43459 0
M  V30 4970 O 466.891 -1.94657 1.89265 0
M  V30 4971 C 465.347 -0.00159057 3.599 0
M  V30 4972 C 464.955 1.35197 4.27113 0
M  V30 4973 C 466.699 -0.476311 4.21819 0
M  V30 4974 C 464.606 1.28229 5.77331 0
M  V30 4975 H 463.536 0.00645269 0.753972 0
M  V30 4976 H 466.187 0.701985 1.69542 0
M  V30 4977 H 464.569 -0.741821 3.8899 0
M  V30 4978 H 465.743 2.1097 4.09668 0
M  V30 4979 H 464.058 1.76441 3.77171 0
M  V30 4980 H 466.655 -0.5468 5.31897 0
M  V30 4981 H 466.998 -1.4877 3.8881 0
M  V30 4982 H 467.531 0.20898 3.97251 0
M  V30 4983 H 464.27 2.26959 6.14955 0
M  V30 4984 H 463.79 0.566314 5.97121 0
M  V30 4985 H 465.469 0.983226 6.39485 0
M  V30 4986 N 465.601 -1.54893 0.290851 0
M  V30 4987 C 466.847 -2.0023 -0.321867 0
M  V30 4988 C 467.18 -1.179 -1.54316 0
M  V30 4989 O 466.455 -0.25293 -1.92848 0
M  V30 4990 C 466.738 -3.53456 -0.688515 0
M  V30 4991 C 466.591 -4.46532 0.541209 0
M  V30 4992 C 467.91 -4.13057 -1.51895 0
M  V30 4993 H 465.029 -0.727891 -0.115515 0
M  V30 4994 H 467.671 -1.85722 0.400931 0
M  V30 4995 H 465.821 -3.6595 -1.30433 0
M  V30 4996 H 467.493 -4.4596 1.17973 0
M  V30 4997 H 465.736 -4.17545 1.17636 0
M  V30 4998 H 466.407 -5.51475 0.240675 0
M  V30 4999 H 468.883 -4.03937 -0.99872 0
M  V30 5000 H 467.759 -5.20448 -1.74429 0
M  V30 5001 H 468.02 -3.64284 -2.50498 0
M  V30 5002 N 467.08 -0.0183926 -1.57589 0
M  V30 5003 C 468.028 0.985111 -2.10709 0
M  V30 5004 C 469.022 1.34397 -1.0312 0
M  V30 5005 O 470.228 1.32746 -1.21567 0
M  V30 5006 H 466.603 0.335418 -0.673052 0
M  V30 5007 H 468.574 0.511689 -2.9398 0
M  V30 5008 C 467.323 2.26202 -2.64061 0
M  V30 5009 H 466.646 1.9946 -3.4649 0
M  V30 5010 H 468.086 2.94652 -3.04887 0
M  V30 5011 C 466.545 2.98444 -1.5631 0
M  V30 5012 O 467.075 3.90142 -0.956674 0
M  V30 5013 N 465.281 2.6059 -1.28612 0
M  V30 5014 H 464.828 1.86101 -1.78112 0
M  V30 5015 H 464.786 3.09238 -0.567406 0
M  V30 5016 N 468.558 1.5553 0.254621 0
M  V30 5017 C 469.786 1.81046 1.00149 0
M  V30 5018 C 470.201 0.593047 1.79244 0
M  V30 5019 O 469.558 -0.438196 1.77161 0
M  V30 5020 C 469.609 3.04684 1.94551 0
M  V30 5021 O 469.33 4.21725 1.18658 0
M  V30 5022 C 470.831 3.42943 2.80901 0
M  V30 5023 H 468.051 0.602653 0.295044 0
M  V30 5024 H 470.595 2.02576 0.279842 0
M  V30 5025 H 468.75 2.85226 2.62154 0
M  V30 5026 H 469.164 4.91746 1.82445 0
M  V30 5027 H 470.638 4.32576 3.42902 0
M  V30 5028 H 471.115 2.63176 3.51617 0
M  V30 5029 H 471.721 3.64724 2.18762 0
M  V30 5030 N 470.036 -0.519951 1.48776 0
M  V30 5031 C 470.999 -1.60574 1.6355 0
M  V30 5032 C 471.999 -1.52557 0.508234 0
M  V30 5033 O 473.189 -1.56047 0.774262 0
M  V30 5034 C 470.321 -3.00211 1.61512 0
M  V30 5035 H 471.514 -1.4881 2.60376 0
M  V30 5036 H 469.067 -0.742772 1.37523 0
M  V30 5037 H 469.802 -3.17471 0.662009 0
M  V30 5038 H 469.587 -3.07439 2.43359 0
M  V30 5039 H 471.077 -3.79134 1.75064 0
M  V30 5040 N 471.514 -1.37532 -0.769588 0
M  V30 5041 C 472.761 -1.3286 -1.52822 0
M  V30 5042 C 473.089 0.0862597 -1.94309 0
M  V30 5043 O 472.344 1.05995 -1.6451 0
M  V30 5044 C 472.643 -2.21558 -2.8044 0
M  V30 5045 C 472.309 -3.69796 -2.57996 0
M  V30 5046 C 470.971 -4.10194 -2.51583 0
M  V30 5047 C 473.323 -4.63699 -2.37976 0
M  V30 5048 C 470.651 -5.42608 -2.23144 0
M  V30 5049 C 473.003 -5.96353 -2.1106 0
M  V30 5050 C 471.667 -6.35853 -2.03093 0
M  V30 5051 H 470.937 -0.486168 -0.559215 0
M  V30 5052 H 473.584 -1.69757 -0.886277 0
M  V30 5053 H 471.889 -1.77663 -3.49204 0
M  V30 5054 H 473.586 -2.15256 -3.38328 0
M  V30 5055 H 470.176 -3.37759 -2.63851 0
M  V30 5056 H 474.36 -4.33346 -2.41919 0
M  V30 5057 H 469.616 -5.72173 -2.15472 0
M  V30 5058 H 473.79 -6.68667 -1.94568 0
M  V30 5059 H 471.417 -7.38382 -1.8082 0
M  V30 5060 N 472.992 0.995999 -1.22138 0
M  V30 5061 C 474.22 1.77066 -1.07029 0
M  V30 5062 C 474.635 1.8495 0.379357 0
M  V30 5063 O 473.992 1.3174 1.26297 0
M  V30 5064 C 474.043 3.20533 -1.67155 0
M  V30 5065 O 473.764 3.13082 -3.06449 0
M  V30 5066 C 475.265 4.14461 -1.5728 0
M  V30 5067 H 472.485 0.556179 -0.375374 0
M  V30 5068 H 475.029 1.25238 -1.61666 0
M  V30 5069 H 473.184 3.6944 -1.16589 0
M  V30 5070 H 473.598 4.03283 -3.35355 0
M  V30 5071 H 475.072 5.1289 -2.04078 0
M  V30 5072 H 475.549 4.36005 -0.528795 0
M  V30 5073 H 476.155 3.71449 -2.07136 0
M  V30 5074 N 474.47 1.03057 1.19235 0
M  V30 5075 C 475.716 0.729098 1.89241 0
M  V30 5076 C 476.049 -0.740573 1.79525 0
M  V30 5077 O 475.324 -1.53946 1.18874 0
M  V30 5078 C 475.607 1.18304 3.40112 0
M  V30 5079 C 475.46 2.71406 3.5869 0
M  V30 5080 C 476.779 0.765161 4.33397 0
M  V30 5081 H 473.898 0.266338 0.687192 0
M  V30 5082 H 476.54 1.28079 1.40341 0
M  V30 5083 H 474.69 0.713672 3.81889 0
M  V30 5084 H 476.362 3.26303 3.26074 0
M  V30 5085 H 474.605 3.11717 3.01687 0
M  V30 5086 H 475.276 2.98225 4.64506 0
M  V30 5087 H 477.752 1.16889 3.99345 0
M  V30 5088 H 476.628 1.11065 5.37546 0
M  V30 5089 H 476.889 -0.332372 4.40849 0
M  V30 5090 N 475.948 -1.35272 0.808662 0
M  V30 5091 C 477.194 -1.99003 0.390581 0
M  V30 5092 C 477.527 -1.63999 -1.0401 0
M  V30 5093 O 476.802 -0.904368 -1.72196 0
M  V30 5094 C 477.085 -3.55454 0.576566 0
M  V30 5095 C 476.938 -4.00249 2.05233 0
M  V30 5096 C 478.257 -4.401 0.00354277 0
M  V30 5097 H 475.376 -0.722917 0.143388 0
M  V30 5098 H 478.018 -1.6039 1.01858 0
M  V30 5099 H 476.168 -3.88477 0.0419766 0
M  V30 5100 H 477.84 -3.77626 2.64946 0
M  V30 5101 H 476.083 -3.51082 2.54801 0
M  V30 5102 H 476.754 -5.0911 2.13333 0
M  V30 5103 H 479.23 -4.13548 0.460117 0
M  V30 5104 H 478.106 -5.48656 0.163575 0
M  V30 5105 H 478.367 -4.28444 -1.09032 0
M  V30 5106 N 477.426 -0.562348 -1.47226 0
M  V30 5107 C 478.651 -0.0432632 -2.07355 0
M  V30 5108 C 479.076 1.24332 -1.41149 0
M  V30 5109 O 478.434 1.74603 -0.488226 0
M  V30 5110 C 478.482 0.130288 -3.60365 0
M  V30 5111 O 477.586 1.19166 -3.94808 0
M  V30 5112 H 476.927 -0.0536334 -0.66183 0
M  V30 5113 H 479.457 -0.779495 -1.89169 0
M  V30 5114 H 479.467 0.342881 -4.06557 0
M  V30 5115 H 478.142 -0.809389 -4.07948 0
M  V30 5116 H 476.719 0.959153 -3.60354 0
M  V30 5117 N 478.904 1.54736 -0.299062 0
M  V30 5118 C 479.834 2.26409 0.571085 0
M  V30 5119 C 480.815 1.2629 1.13951 0
M  V30 5120 O 482 1.55059 1.16921 0
M  V30 5121 C 479.13 3.00338 1.74396 0
M  V30 5122 C 478.084 4.07588 1.30599 0
M  V30 5123 C 477.41 4.69222 2.56387 0
M  V30 5124 C 478.71 5.20455 0.438645 0
M  V30 5125 H 480.404 2.99388 -0.0266991 0
M  V30 5126 H 477.95 1.43993 -0.0142812 0
M  V30 5127 H 479.903 3.49198 2.35878 0
M  V30 5128 H 478.627 2.24934 2.36796 0
M  V30 5129 H 477.286 3.59575 0.71424 0
M  V30 5130 H 476.934 3.9046 3.17097 0
M  V30 5131 H 476.634 5.41653 2.27784 0
M  V30 5132 H 478.158 5.20844 3.18675 0
M  V30 5133 H 479.572 5.65221 0.959085 0
M  V30 5134 H 477.969 5.99594 0.246466 0
M  V30 5135 H 479.039 4.8192 -0.536738 0
M  V30 5136 N 480.382 0.0267497 1.57577 0
M  V30 5137 C 481.629 -0.652404 1.91703 0
M  V30 5138 C 481.957 -1.72271 0.902936 0
M  V30 5139 O 481.212 -1.955 -0.0884843 0
M  V30 5140 C 481.511 -1.30914 3.3256 0
M  V30 5141 C 481.177 -0.369441 4.49384 0
M  V30 5142 C 479.839 -0.110791 4.81072 0
M  V30 5143 C 482.191 0.275971 5.20469 0
M  V30 5144 C 479.519 0.801116 5.81205 0
M  V30 5145 C 481.871 1.17592 6.21575 0
M  V30 5146 C 480.535 1.44348 6.51705 0
M  V30 5147 H 479.805 -0.238732 0.70149 0
M  V30 5148 H 482.452 0.0880091 1.91298 0
M  V30 5149 H 480.757 -2.12425 3.29216 0
M  V30 5150 H 482.454 -1.84115 3.56234 0
M  V30 5151 H 479.044 -0.581211 4.24641 0
M  V30 5152 H 483.228 0.0892 4.9622 0
M  V30 5153 H 478.484 1.01614 6.02897 0
M  V30 5154 H 482.658 1.68223 6.75777 0
M  V30 5155 H 480.285 2.15176 7.29111 0
M  V30 5156 N 481.861 -1.55662 -0.24637 0
M  V30 5157 C 483.107 -1.77782 -0.975779 0
M  V30 5158 C 483.44 -0.592103 -1.84953 0
M  V30 5159 O 482.715 0.409588 -1.90138 0
M  V30 5160 C 482.998 -3.09788 -1.83584 0
M  V30 5161 C 482.851 -4.38764 -0.990241 0
M  V30 5162 C 484.17 -3.38029 -2.81823 0
M  V30 5163 H 481.289 -0.646789 -0.353317 0
M  V30 5164 H 483.931 -1.88398 -0.246248 0
M  V30 5165 H 482.081 -3.00869 -2.45784 0
M  V30 5166 H 483.753 -4.59675 -0.386897 0
M  V30 5167 H 481.996 -4.32798 -0.294626 0
M  V30 5168 H 482.667 -5.27514 -1.62584 0
M  V30 5169 H 485.143 -3.46915 -2.2976 0
M  V30 5170 H 484.019 -4.3161 -3.39122 0
M  V30 5171 H 484.28 -2.58968 -3.58313 0
M  V30 5172 N 483.339 0.512053 -1.4905 0
M  V30 5173 C 484.585 1.26874 -1.58212 0
M  V30 5174 C 484.918 1.9241 -0.263073 0
M  V30 5175 O 484.193 1.80181 0.732476 0
M  V30 5176 C 484.476 2.34428 -2.73341 0
M  V30 5177 C 484.329 1.73466 -4.15006 0
M  V30 5178 C 485.648 3.36073 -2.84154 0
M  V30 5179 H 482.767 0.459924 -0.575881 0
M  V30 5180 H 485.409 0.568587 -1.81293 0
M  V30 5181 H 483.559 2.94146 -2.53792 0
M  V30 5182 H 485.231 1.17661 -4.46042 0
M  V30 5183 H 483.474 1.03921 -4.21168 0
M  V30 5184 H 484.145 2.51426 -4.91415 0
M  V30 5185 H 486.621 2.86332 -3.01916 0
M  V30 5186 H 485.497 4.08703 -3.66406 0
M  V30 5187 H 485.758 3.97725 -1.93048 0
M  V30 5188 N 484.817 1.37938 0.762283 0
M  V30 5189 C 485.727 1.36681 1.90671 0
M  V30 5190 C 486.743 0.265078 1.71969 0
M  V30 5191 O 487.919 0.502055 1.95042 0
M  V30 5192 C 484.984 1.18211 3.25925 0
M  V30 5193 C 484.045 2.3811 3.57214 0
M  V30 5194 C 483.278 2.20512 4.86014 0
M  V30 5195 O 483.501 1.19429 5.57757 0
M  V30 5196 O 482.435 3.08911 5.16583 0
M  V30 5197 H 486.261 2.33091 1.94685 0
M  V30 5198 H 483.846 1.18767 0.906356 0
M  V30 5199 H 485.728 1.09937 4.06807 0
M  V30 5200 H 484.403 0.248807 3.22742 0
M  V30 5201 H 483.31 2.51958 2.76529 0
M  V30 5202 H 484.643 3.30041 3.65149 0
M  V30 5203 N 486.295 -0.989507 1.22664 0
M  V30 5204 C 487.711 -1.25395 0.987331 0
M  V30 5205 C 487.911 -1.9899 -0.317056 0
M  V30 5206 O 486.967 -2.30141 -1.03882 0
M  V30 5207 C 488.28 -2.06242 2.18826 0
M  V30 5208 C 489.828 -2.19413 2.23219 0
M  V30 5209 C 490.303 -3.03648 3.42873 0
M  V30 5210 N 491.794 -3.11234 3.43056 0
M  V30 5211 C 492.529 -3.7671 4.32293 0
M  V30 5212 N 492.025 -4.44085 5.31752 0
M  V30 5213 N 493.818 -3.73505 4.2006 0
M  V30 5214 H 485.969 -0.496212 2.06522 0
M  V30 5215 H 488.232 -0.281784 0.905153 0
M  V30 5216 H 487.938 -1.59531 3.13437 0
M  V30 5217 H 487.812 -3.06996 2.19165 0
M  V30 5218 H 490.199 -2.65336 1.29154 0
M  V30 5219 H 490.28 -1.18078 2.26917 0
M  V30 5220 H 489.924 -2.58424 4.37241 0
M  V30 5221 H 489.854 -4.05132 3.36416 0
M  V30 5222 H 492.345 -2.63287 2.71088 0
M  V30 5223 H 492.658 -4.91797 5.96117 0
M  V30 5224 H 491.003 -4.42822 5.35662 0
M  V30 5225 H 494.194 -3.20033 3.41609 0
M  V30 5226 H 494.367 -4.24253 4.8981 0
M  V30 5227 N 487.773 -1.03688 -1.18687 0
M  V30 5228 C 488.736 -0.629115 -2.20397 0
M  V30 5229 C 489.736 0.311495 -1.57754 0
M  V30 5230 O 490.926 0.0974107 -1.73927 0
M  V30 5231 C 488.058 0.0782231 -3.4081 0
M  V30 5232 H 489.251 -1.52915 -2.57987 0
M  V30 5233 H 486.804 -0.828988 -1.32505 0
M  V30 5234 H 487.539 0.992233 -3.08748 0
M  V30 5235 H 487.324 -0.597776 -3.87517 0
M  V30 5236 H 488.814 0.350156 -4.16129 0
M  V30 5237 N 489.251 1.34841 -0.815825 0
M  V30 5238 C 490.499 1.98107 -0.399744 0
M  V30 5239 C 490.82 1.65019 1.03894 0
M  V30 5240 O 490.09 0.937311 1.72021 0
M  V30 5241 H 488.67 0.732827 -0.144823 0
M  V30 5242 H 491.332 1.64599 -1.0437 0
M  V30 5243 H 490.428 3.07856 -0.512965 0
M  V30 5244 N 490.729 0.570148 1.46925 0
M  V30 5245 C 492.145 0.23087 1.57921 0
M  V30 5246 C 492.345 -1.26676 1.56702 0
M  V30 5247 O 491.401 -2.04774 1.47729 0
M  V30 5248 C 492.714 0.868973 2.8787 0
M  V30 5249 C 494.262 0.841397 3.01479 0
M  V30 5250 C 494.737 1.45881 4.34146 0
M  V30 5251 N 496.228 1.42258 4.40814 0
M  V30 5252 C 496.963 1.8698 5.42057 0
M  V30 5253 N 496.459 2.39618 6.50042 0
M  V30 5254 N 498.252 1.77972 5.33181 0
M  V30 5255 H 490.403 1.54301 1.45962 0
M  V30 5256 H 492.666 0.644224 0.69547 0
M  V30 5257 H 492.372 1.922 2.94537 0
M  V30 5258 H 492.246 0.369682 3.75384 0
M  V30 5259 H 494.633 -0.202973 2.94401 0
M  V30 5260 H 494.714 1.37858 2.15474 0
M  V30 5261 H 494.358 2.50231 4.4198 0
M  V30 5262 H 494.288 0.896958 5.18905 0
M  V30 5263 H 496.779 1.03768 3.63374 0
M  V30 5264 H 497.092 2.71633 7.23488 0
M  V30 5265 H 495.437 2.43636 6.50897 0
M  V30 5266 H 498.628 1.36617 4.4772 0
M  V30 5267 H 498.801 2.13143 6.11943 0
M  V30 5268 N 492.207 -1.54576 0.307264 0
M  V30 5269 C 493.623 -1.59534 -0.0459251 0
M  V30 5270 C 493.823 -1.32414 -1.51884 0
M  V30 5271 O 492.879 -1.1006 -2.27251 0
M  V30 5272 C 494.192 -2.98566 0.357649 0
M  V30 5273 C 495.74 -3.11491 0.306937 0
M  V30 5274 C 496.215 -4.52842 0.685427 0
M  V30 5275 N 497.706 -4.58782 0.638203 0
M  V30 5276 C 498.441 -5.66238 0.903458 0
M  V30 5277 N 497.937 -6.81703 1.23501 0
M  V30 5278 N 499.73 -5.55937 0.830102 0
M  V30 5279 H 491.881 -1.70464 1.26712 0
M  V30 5280 H 494.144 -0.79647 0.514139 0
M  V30 5281 H 493.85 -3.23356 1.38325 0
M  V30 5282 H 493.724 -3.76117 -0.285565 0
M  V30 5283 H 496.111 -2.86446 -0.709424 0
M  V30 5284 H 496.192 -2.36081 0.984861 0
M  V30 5285 H 495.836 -4.78618 1.69963 0
M  V30 5286 H 495.766 -5.26598 -0.0146346 0
M  V30 5287 H 498.257 -3.75849 0.393138 0
M  V30 5288 H 498.57 -7.59582 1.42322 0
M  V30 5289 H 496.915 -6.8324 1.27311 0
M  V30 5290 H 500.106 -4.64608 0.570693 0
M  V30 5291 H 500.279 -6.39597 1.04019 0
M  V30 5292 N 493.685 -0.035106 -1.57561 0
M  V30 5293 C 494.913 0.652258 -1.9635 0
M  V30 5294 C 495.328 1.65317 -0.911897 0
M  V30 5295 O 494.685 1.82194 0.105657 0
M  V30 5296 C 494.736 1.35337 -3.35211 0
M  V30 5297 O 494.457 0.392548 -4.36338 0
M  V30 5298 C 495.958 2.13199 -3.88666 0
M  V30 5299 H 493.178 0.179444 -0.646561 0
M  V30 5300 H 495.722 -0.0966459 -2.04271 0
M  V30 5301 H 493.877 2.05362 -3.28489 0
M  V30 5302 H 494.291 0.891097 -5.16875 0
M  V30 5303 H 495.765 2.577 -4.88154 0
M  V30 5304 H 496.242 2.97353 -3.23231 0
M  V30 5305 H 496.848 1.48118 -3.98674 0
M  V30 5306 N 495.163 1.55791 0.238111 0
M  V30 5307 C 496.093 1.94068 1.29846 0
M  V30 5308 C 497.074 0.806726 1.49753 0
M  V30 5309 O 498.259 1.06772 1.62214 0
M  V30 5310 C 495.389 2.24302 2.65153 0
M  V30 5311 C 494.343 3.40032 2.59927 0
M  V30 5312 C 493.669 3.55829 3.99111 0
M  V30 5313 C 494.969 4.75476 2.16148 0
M  V30 5314 H 496.663 2.82887 0.980563 0
M  V30 5315 H 494.209 1.36105 0.470253 0
M  V30 5316 H 496.162 2.4967 3.39475 0
M  V30 5317 H 494.886 1.32318 2.98596 0
M  V30 5318 H 493.545 3.14687 1.88063 0
M  V30 5319 H 493.193 2.6125 4.29834 0
M  V30 5320 H 492.893 4.3366 3.96501 0
M  V30 5321 H 494.417 3.83528 4.7512 0
M  V30 5322 H 495.831 5.00158 2.80205 0
M  V30 5323 H 494.228 5.56472 2.24631 0
M  V30 5324 H 495.298 4.71946 1.11333 0
M  V30 5325 N 496.642 -0.504142 1.49319 0
M  V30 5326 C 497.592 -1.60284 1.62151 0
M  V30 5327 C 498.576 -1.53657 0.477315 0
M  V30 5328 O 499.768 -1.6124 0.730108 0
M  V30 5329 C 496.897 -2.98909 1.68844 0
M  V30 5330 C 495.983 -3.10544 2.8883 0
M  V30 5331 N 496.374 -2.92078 4.12946 0
M  V30 5332 C 494.672 -3.4164 2.86702 0
M  V30 5333 C 495.373 -3.07812 4.93585 0
M  V30 5334 N 494.349 -3.36549 4.26891 0
M  V30 5335 H 498.151 -1.44656 2.55835 0
M  V30 5336 H 495.665 -0.710198 1.46048 0
M  V30 5337 H 497.662 -3.77865 1.76134 0
M  V30 5338 H 496.322 -3.15609 0.762943 0
M  V30 5339 H 497.333 -2.68316 4.42975 0
M  V30 5340 H 494.01 -3.64537 2.03517 0
M  V30 5341 H 495.4 -2.98054 6.02174 0
M  V30 5342 N 498.12 -1.38341 -0.754957 0
M  V30 5343 C 499.05 -1.38176 -1.88227 0
M  V30 5344 C 500.031 -0.247873 -1.68284 0
M  V30 5345 O 501.216 -0.45075 -1.88896 0
M  V30 5346 C 498.346 -1.20471 -3.25736 0
M  V30 5347 C 497.3 -2.3105 -3.60278 0
M  V30 5348 C 496.626 -1.98452 -4.96509 0
M  V30 5349 C 497.926 -3.73305 -3.65295 0
M  V30 5350 H 499.62 -2.32512 -1.88622 0
M  V30 5351 H 497.166 -1.1192 -0.906082 0
M  V30 5352 H 499.119 -1.18982 -4.04254 0
M  V30 5353 H 497.843 -0.225965 -3.25817 0
M  V30 5354 H 496.502 -2.31723 -2.84078 0
M  V30 5355 H 496.15 -0.990641 -4.93148 0
M  V30 5356 H 495.85 -2.7251 -5.20588 0
M  V30 5357 H 497.374 -1.98578 -5.77407 0
M  V30 5358 H 498.788 -3.7467 -4.3393 0
M  V30 5359 H 497.185 -4.46557 -4.00883 0
M  V30 5360 H 498.255 -4.05719 -2.65556 0
M  V30 5361 N 499.598 0.982988 -1.23187 0
M  V30 5362 C 500.847 1.71817 -1.05649 0
M  V30 5363 C 501.16 1.91315 0.407176 0
M  V30 5364 O 502.366 2.62256 0.702436 0
M  V30 5365 C 500.822 3.09188 -1.84203 0
M  V30 5366 C 500.43 2.97586 -3.34882 0
M  V30 5367 C 502.174 3.86684 -1.75146 0
M  V30 5368 C 500.081 4.30173 -4.05839 0
M  V30 5369 H 499.011 0.644258 -0.391724 0
M  V30 5370 H 501.662 1.09659 -1.4713 0
M  V30 5371 H 500.044 3.72087 -1.35527 0
M  V30 5372 H 501.218 2.43793 -3.91026 0
M  V30 5373 H 499.533 2.33567 -3.44725 0
M  V30 5374 H 502.13 4.84836 -2.25473 0
M  V30 5375 H 502.473 4.10136 -0.713737 0
M  V30 5376 H 503.006 3.30482 -2.21419 0
M  V30 5377 H 499.745 4.11918 -5.09906 0
M  V30 5378 H 499.265 4.83841 -3.54482 0
M  V30 5379 H 500.944 4.98873 -4.11989 0
M  V30 5380 N 501.076 1.04316 1.18135 0
M  V30 5381 C 502.324 0.746542 1.87806 0
M  V30 5382 C 502.645 -0.728082 1.80898 0
M  V30 5383 O 501.915 -1.52554 1.22899 0
M  V30 5384 H 500.495 0.273157 0.695265 0
M  V30 5385 H 503.157 1.32044 1.43354 0
M  V30 5386 H 502.253 1.05362 2.93778 0
M  V30 5387 N 502.554 -1.34406 0.822964 0
M  V30 5388 C 503.484 -2.32052 0.259608 0
M  V30 5389 C 504.465 -1.58243 -0.623961 0
M  V30 5390 O 505.65 -1.86224 -0.55083 0
M  V30 5391 C 502.78 -3.42434 -0.579314 0
M  V30 5392 C 501.734 -4.27499 0.20712 0
M  V30 5393 C 501.06 -5.29349 -0.754547 0
M  V30 5394 C 502.36 -5.02758 1.41533 0
M  V30 5395 H 504.054 -2.79418 1.07545 0
M  V30 5396 H 501.6 -1.34338 0.518593 0
M  V30 5397 H 503.553 -4.0976 -0.983612 0
M  V30 5398 H 502.277 -2.93717 -1.4282 0
M  V30 5399 H 500.936 -3.61776 0.592787 0
M  V30 5400 H 500.584 -4.76895 -1.59939 0
M  V30 5401 H 500.284 -5.8714 -0.232561 0
M  V30 5402 H 501.808 -5.99544 -1.1567 0
M  V30 5403 H 503.222 -5.62938 1.08504 0
M  V30 5404 H 501.619 -5.70123 1.87296 0
M  V30 5405 H 502.689 -4.32451 2.1935 0
M  V30 5406 N 504.032 -0.577932 -1.46621 0
M  V30 5407 C 504.995 0.147805 -2.28723 0
M  V30 5408 C 505.995 0.823325 -1.38123 0
M  V30 5409 O 507.185 0.676011 -1.60548 0
M  V30 5410 C 504.317 1.21853 -3.18378 0
M  V30 5411 H 505.51 -0.573654 -2.94362 0
M  V30 5412 H 503.063 -0.335703 -1.52652 0
M  V30 5413 H 503.798 1.97173 -2.57475 0
M  V30 5414 H 503.583 0.738714 -3.85078 0
M  V30 5415 H 505.073 1.72768 -3.80186 0
M  V30 5416 N 505.51 1.54411 -0.315457 0
M  V30 5417 C 506.758 2.00023 0.288971 0
M  V30 5418 C 507.079 1.20529 1.5329 0
M  V30 5419 O 506.349 0.304986 1.93511 0
M  V30 5420 H 504.929 0.738891 0.109766 0
M  V30 5421 H 507.591 1.90094 -0.430129 0
M  V30 5422 H 506.687 3.07198 0.550999 0
M  V30 5423 N 506.988 0.0434614 1.5754 0
M  V30 5424 C 507.921 -0.968729 2.06618 0
M  V30 5425 C 508.899 -1.30868 0.965 0
M  V30 5426 O 510.083 -1.42288 1.23638 0
M  V30 5427 C 507.21 -2.28486 2.50023 0
M  V30 5428 C 506.256 -2.09851 3.71302 0
M  V30 5429 S 507.089 -1.38401 5.17306 0
M  V30 5430 C 508.245 -2.71354 5.64019 0
M  V30 5431 H 508.478 -0.551021 2.92149 0
M  V30 5432 H 506.011 -0.168607 1.53477 0
M  V30 5433 H 507.969 -3.04142 2.75695 0
M  V30 5434 H 506.63 -2.67387 1.64812 0
M  V30 5435 H 505.823 -3.07184 3.99567 0
M  V30 5436 H 505.425 -1.42336 3.45856 0
M  V30 5437 H 507.717 -3.67549 5.69134 0
M  V30 5438 H 508.66 -2.47734 6.6335 0
M  V30 5439 H 509.068 -2.77259 4.91719 0
M  V30 5440 N 508.466 -1.55915 -0.229846 0
M  V30 5441 C 509.429 -1.90914 -1.26824 0
M  V30 5442 C 510.429 -0.786999 -1.40225 0
M  V30 5443 O 511.619 -1.05484 -1.38632 0
M  V30 5444 C 508.751 -2.15264 -2.64337 0
M  V30 5445 H 509.944 -2.8378 -0.969998 0
M  V30 5446 H 507.497 -1.49069 -0.4699 0
M  V30 5447 H 508.232 -1.24923 -2.99274 0
M  V30 5448 H 508.017 -2.97005 -2.55989 0
M  V30 5449 H 509.507 -2.43467 -3.39284 0
M  V30 5450 N 509.944 0.496216 -1.49584 0
M  V30 5451 C 511.192 1.24756 -1.58998 0
M  V30 5452 C 511.513 1.92968 -0.280775 0
M  V30 5453 O 510.783 1.82959 0.700198 0
M  V30 5454 H 509.363 0.463471 -0.585836 0
M  V30 5455 H 512.025 0.574678 -1.86235 0
M  V30 5456 H 511.121 2.00895 -2.38847 0
M  V30 5457 N 511.423 1.38739 0.74761 0
M  V30 5458 C 512.663 1.36695 1.51966 0
M  V30 5459 C 513.027 -0.0411889 1.91956 0
M  V30 5460 O 514.228 -0.186543 2.68152 0
M  V30 5461 C 512.499 2.30119 2.73459 0
M  V30 5462 S 514.058 2.4615 3.63257 0
M  V30 5463 H 510.876 0.484929 0.519966 0
M  V30 5464 H 513.478 1.7472 0.877104 0
M  V30 5465 H 512.182 3.31312 2.422 0
M  V30 5466 H 511.713 1.93265 3.42655 0
M  V30 5467 H 513.728 1.69001 4.66533 0
M  V30 5468 N 512.901 -0.976442 1.23707 0
M  V30 5469 C 513.864 -2.0511 1.02287 0
M  V30 5470 C 514.864 -1.60791 -0.0167195 0
M  V30 5471 O 516.054 -1.72761 0.223408 0
M  V30 5472 C 513.186 -3.36458 0.548507 0
M  V30 5473 H 514.379 -2.25545 1.9766 0
M  V30 5474 H 511.932 -1.15042 1.05806 0
M  V30 5475 H 512.667 -3.21713 -0.408818 0
M  V30 5476 H 512.452 -3.69967 1.29874 0
M  V30 5477 H 513.942 -4.15489 0.419406 0
M  V30 5478 N 514.379 -1.04941 -1.1758 0
M  V30 5479 C 515.628 -0.753124 -1.87112 0
M  V30 5480 C 515.941 0.722507 -1.81767 0
M  V30 5481 O 517.147 1.13265 -2.46746 0
M  V30 5482 C 515.603 -1.29695 -3.35719 0
M  V30 5483 C 515.211 -2.80184 -3.49572 0
M  V30 5484 C 516.955 -1.07759 -4.10595 0
M  V30 5485 C 514.862 -3.2788 -4.92187 0
M  V30 5486 H 513.792 -0.278034 -0.700866 0
M  V30 5487 H 516.443 -1.26637 -1.32798 0
M  V30 5488 H 514.825 -0.711522 -3.89555 0
M  V30 5489 H 515.999 -3.44561 -3.05965 0
M  V30 5490 H 514.314 -3.00632 -2.88113 0
M  V30 5491 H 516.911 -1.40899 -5.15802 0
M  V30 5492 H 517.254 -0.0152302 -4.16297 0
M  V30 5493 H 517.787 -1.62809 -3.62957 0
M  V30 5494 H 514.526 -4.33535 -4.91658 0
M  V30 5495 H 514.046 -2.68245 -5.36475 0
M  V30 5496 H 515.725 -3.22412 -5.60945 0
M  V30 5497 N 515.857 1.33968 -0.830081 0
M  V30 5498 C 516.787 2.31911 -0.271911 0
M  V30 5499 C 517.768 1.58571 0.61556 0
M  V30 5500 O 518.953 1.86514 0.540946 0
M  V30 5501 C 516.083 3.42737 0.561146 0
M  V30 5502 C 515.037 4.27383 -0.229789 0
M  V30 5503 C 514.363 5.29742 0.726463 0
M  V30 5504 C 515.663 5.02 -1.44197 0
M  V30 5505 H 517.357 2.78844 -1.09025 0
M  V30 5506 H 514.903 1.34061 -0.52571 0
M  V30 5507 H 516.856 4.10276 0.961867 0
M  V30 5508 H 515.58 2.94471 1.41261 0
M  V30 5509 H 514.239 3.61456 -0.611964 0
M  V30 5510 H 513.887 4.77736 1.57408 0
M  V30 5511 H 513.587 5.87255 0.20142 0
M  V30 5512 H 515.111 6.00149 1.12489 0
M  V30 5513 H 516.525 5.62355 -1.11488 0
M  V30 5514 H 514.922 5.69122 -1.90317 0
M  V30 5515 H 515.992 4.31281 -2.2164 0
M  V30 5516 N 517.335 0.585699 1.46312 0
M  V30 5517 C 518.268 -0.194257 2.27372 0
M  V30 5518 C 519.246 -0.894116 1.3581 0
M  V30 5519 O 520.43 -0.907402 1.65222 0
M  V30 5520 C 517.557 -1.27901 3.13622 0
M  V30 5521 C 516.603 -0.684666 4.20969 0
M  V30 5522 S 517.436 0.490745 5.33247 0
M  V30 5523 C 518.592 -0.595137 6.23064 0
M  V30 5524 H 518.825 0.493515 2.93175 0
M  V30 5525 H 516.358 0.372666 1.49835 0
M  V30 5526 H 518.316 -1.90008 3.63878 0
M  V30 5527 H 516.977 -1.93875 2.47126 0
M  V30 5528 H 516.17 -1.50015 4.81156 0
M  V30 5529 H 515.772 -0.139204 3.73741 0
M  V30 5530 H 518.064 -1.48002 6.61137 0
M  V30 5531 H 519.007 -0.0299446 7.08094 0
M  V30 5532 H 519.415 -0.900627 5.57269 0
M  V30 5533 N 518.813 -1.54241 0.323641 0
M  V30 5534 C 520.041 -2.04985 -0.280871 0
M  V30 5535 C 520.456 -1.19978 -1.45777 0
M  V30 5536 O 519.813 -0.230471 -1.81039 0
M  V30 5537 C 519.864 -3.54353 -0.715258 0
M  V30 5538 O 519.585 -4.36132 0.414817 0
M  V30 5539 C 521.086 -4.21189 -1.38257 0
M  V30 5540 H 518.306 -0.66851 -0.0577502 0
M  V30 5541 H 520.85 -1.99029 0.469852 0
M  V30 5542 H 519.005 -3.60596 -1.41596 0
M  V30 5543 H 519.419 -5.2445 0.0725227 0
M  V30 5544 H 520.893 -5.27154 -1.63745 0
M  V30 5545 H 521.37 -3.72307 -2.32989 0
M  V30 5546 H 521.976 -4.19085 -0.724447 0
M  V30 5547 N 520.291 -0.0518155 -1.57515 0
M  V30 5548 C 521.54 0.621286 -1.91893 0
M  V30 5549 C 521.853 1.71966 -0.932052 0
M  V30 5550 O 523.059 2.45096 -1.16791 0
M  V30 5551 C 521.515 1.15641 -3.40816 0
M  V30 5552 C 521.123 0.0901146 -4.47909 0
M  V30 5553 C 522.867 1.80472 -3.84227 0
M  V30 5554 C 520.774 0.638154 -5.87947 0
M  V30 5555 H 519.704 0.235835 -0.716169 0
M  V30 5556 H 522.355 -0.120809 -1.83102 0
M  V30 5557 H 520.737 1.95084 -3.44613 0
M  V30 5558 H 521.911 -0.683525 -4.55702 0
M  V30 5559 H 520.226 -0.460774 -4.13843 0
M  V30 5560 H 522.823 2.22471 -4.86221 0
M  V30 5561 H 523.166 2.65669 -3.20508 0
M  V30 5562 H 523.699 1.07683 -3.82948 0
M  V30 5563 H 520.438 -0.176202 -6.55263 0
M  V30 5564 H 519.958 1.37976 -5.83714 0
M  V30 5565 H 521.637 1.12085 -6.37217 0
M  V30 5566 N 521.769 1.56035 0.221574 0
M  V30 5567 C 522.732 1.91584 1.2581 0
M  V30 5568 C 523.732 0.794425 1.39805 0
M  V30 5569 O 524.922 1.06217 1.38071 0
M  V30 5570 C 522.054 2.16663 2.63192 0
M  V30 5571 H 523.247 2.8429 0.954935 0
M  V30 5572 H 520.8 1.49316 0.461988 0
M  V30 5573 H 521.535 1.26508 2.98607 0
M  V30 5574 H 521.32 2.98358 2.5441 0
M  V30 5575 H 522.81 2.45262 3.37988 0
M  V30 5576 N 523.247 -0.488276 1.49845 0
M  V30 5577 C 524.177 -1.59675 1.70371 0
M  V30 5578 C 525.158 -1.60878 0.552473 0
M  V30 5579 O 526.343 -1.77417 0.78973 0
M  V30 5580 C 523.473 -2.98098 1.782 0
M  V30 5581 C 522.427 -3.11761 2.93239 0
M  V30 5582 C 521.753 -4.51661 2.86193 0
M  V30 5583 C 523.053 -2.90589 4.33999 0
M  V30 5584 H 524.747 -1.42752 2.63177 0
M  V30 5585 H 522.293 -0.685317 1.26647 0
M  V30 5586 H 524.246 -3.75555 1.91144 0
M  V30 5587 H 522.97 -3.16138 0.820018 0
M  V30 5588 H 521.629 -2.36732 2.79917 0
M  V30 5589 H 521.277 -4.66595 1.87877 0
M  V30 5590 H 520.977 -4.61742 3.63412 0
M  V30 5591 H 522.501 -5.31162 3.01163 0
M  V30 5592 H 523.915 -3.57807 4.47936 0
M  V30 5593 H 522.312 -3.1213 5.12538 0
M  V30 5594 H 523.382 -1.86595 4.4756 0
M  V30 5595 N 524.725 -1.39134 -0.740242 0
M  V30 5596 C 525.688 -1.37217 -1.83587 0
M  V30 5597 C 526.688 -0.270221 -1.58513 0
M  V30 5598 O 527.878 -0.527843 -1.6601 0
M  V30 5599 C 525.01 -1.13959 -3.21288 0
M  V30 5600 H 526.203 -2.34705 -1.86691 0
M  V30 5601 H 523.756 -1.24622 -0.94335 0
M  V30 5602 H 524.491 -0.17131 -3.23847 0
M  V30 5603 H 524.276 -1.93754 -3.40884 0
M  V30 5604 H 525.766 -1.15346 -4.01354 0
M  V30 5605 N 526.204 0.969867 -1.24223 0
M  V30 5606 C 527.134 2.08191 -1.05729 0
M  V30 5607 C 528.115 1.70075 0.0290765 0
M  V30 5608 O 529.3 1.93712 -0.137583 0
M  V30 5609 C 526.43 3.40991 -0.658995 0
M  V30 5610 C 525.384 3.93054 -1.69389 0
M  V30 5611 C 524.71 5.22171 -1.15072 0
M  V30 5612 C 526.01 4.21137 -3.08935 0
M  V30 5613 H 527.704 2.23921 -1.98746 0
M  V30 5614 H 525.25 1.07602 -0.956967 0
M  V30 5615 H 527.203 4.18221 -0.51662 0
M  V30 5616 H 525.927 3.25155 0.30686 0
M  V30 5617 H 524.586 3.17977 -1.82444 0
M  V30 5618 H 524.234 5.02694 -0.175539 0
M  V30 5619 H 523.934 5.57973 -1.84229 0
M  V30 5620 H 525.458 6.02013 -1.02042 0
M  V30 5621 H 526.872 4.8908 -2.99121 0
M  V30 5622 H 525.269 4.68163 -3.75425 0
M  V30 5623 H 526.339 3.27996 -3.57137 0
M  V30 5624 N 527.682 1.05563 1.17022 0
M  V30 5625 C 528.612 0.681026 2.23348 0
M  V30 5626 C 529.593 -0.322983 1.67005 0
M  V30 5627 O 530.778 -0.199746 1.9317 0
M  V30 5628 C 527.908 0.0589053 3.4725 0
M  V30 5629 C 526.862 0.988082 4.16438 0
M  V30 5630 C 526.188 0.229646 5.34207 0
M  V30 5631 C 527.488 2.31388 4.68249 0
M  V30 5632 H 529.182 1.56993 2.54938 0
M  V30 5633 H 526.728 0.756302 1.2254 0
M  V30 5634 H 528.681 -0.214982 4.20851 0
M  V30 5635 H 527.405 -0.864968 3.14938 0
M  V30 5636 H 526.064 1.24659 3.44754 0
M  V30 5637 H 525.712 -0.697111 4.98146 0
M  V30 5638 H 525.412 0.848815 5.81437 0
M  V30 5639 H 526.936 -0.0368694 6.10589 0
M  V30 5640 H 528.35 2.09964 5.33468 0
M  V30 5641 H 526.747 2.88736 5.26072 0
M  V30 5642 H 527.817 2.94982 3.84855 0
M  V30 5643 N 529.16 -1.33526 0.837174 0
M  V30 5644 C 530.07 -2.33023 0.271568 0
M  V30 5645 C 531.086 -1.63272 -0.601514 0
M  V30 5646 O 532.262 -1.94939 -0.506038 0
M  V30 5647 C 529.327 -3.42382 -0.545448 0
M  V30 5648 C 528.388 -4.27857 0.351709 0
M  V30 5649 C 527.621 -5.31994 -0.426409 0
M  V30 5650 O 527.844 -5.45763 -1.65828 0
M  V30 5651 O 526.778 -6.01572 0.1987 0
M  V30 5652 H 530.604 -2.83256 1.09545 0
M  V30 5653 H 528.189 -1.36837 0.599655 0
M  V30 5654 H 530.071 -4.09122 -1.00979 0
M  V30 5655 H 528.746 -2.94369 -1.34641 0
M  V30 5656 H 527.653 -3.6399 0.863853 0
M  V30 5657 H 528.986 -4.79349 1.1174 0
M  V30 5658 N 530.638 -0.59345 -1.46 0
M  V30 5659 C 531.57 0.171569 -2.28557 0
M  V30 5660 C 532.583 0.845273 -1.39137 0
M  V30 5661 O 533.772 0.713033 -1.6364 0
M  V30 5662 C 530.872 1.26311 -3.14482 0
M  V30 5663 C 530.045 0.679258 -4.32094 0
M  V30 5664 C 529.104 1.65987 -4.99334 0
M  V30 5665 O 528.13 1.19171 -5.56585 0
M  V30 5666 N 529.332 2.99414 -4.97324 0
M  V30 5667 H 532.097 -0.536771 -2.94854 0
M  V30 5668 H 529.658 -0.431954 -1.56031 0
M  V30 5669 H 531.65 1.91863 -3.5633 0
M  V30 5670 H 530.22 1.87416 -2.50188 0
M  V30 5671 H 529.44 -0.153992 -3.93899 0
M  V30 5672 H 530.728 0.26916 -5.08088 0
M  V30 5673 H 530.126 3.40064 -4.52076 0
M  V30 5674 H 528.683 3.60426 -5.4308 0
M  V30 5675 N 532.116 1.54067 -0.331816 0
M  V30 5676 C 533.046 2.27569 0.522932 0
M  V30 5677 C 534.027 1.28679 1.11247 0
M  V30 5678 O 535.212 1.57504 1.13605 0
M  V30 5679 C 532.342 3.0397 1.67987 0
M  V30 5680 C 531.296 4.10267 1.21924 0
M  V30 5681 C 530.622 4.74555 2.46377 0
M  V30 5682 C 531.922 5.21268 0.32815 0
M  V30 5683 H 533.616 2.99264 -0.0901977 0
M  V30 5684 H 531.162 1.4393 -0.044821 0
M  V30 5685 H 533.115 3.54123 2.28418 0
M  V30 5686 H 531.839 2.29906 2.31971 0
M  V30 5687 H 530.498 3.61009 0.637809 0
M  V30 5688 H 530.146 3.97098 3.08743 0
M  V30 5689 H 529.846 5.46363 2.16243 0
M  V30 5690 H 531.37 5.27487 3.07555 0
M  V30 5691 H 532.784 5.67128 0.838978 0
M  V30 5692 H 531.181 5.99982 0.119228 0
M  V30 5693 H 532.251 4.80673 -0.638839 0
M  V30 5694 N 533.594 0.0601682 1.57485 0
M  V30 5695 C 535.005 -0.474217 1.80577 0
M  V30 5696 C 535.356 -1.70365 0.973147 0
M  V30 5697 O 534.481 -2.15544 0.192306 0
M  V30 5698 C 535.076 -0.867102 3.27516 0
M  V30 5699 C 533.635 -1.34642 3.51495 0
M  V30 5700 C 532.782 -0.32594 2.75378 0
M  V30 5701 H 535.733 0.285973 1.56102 0
M  V30 5702 H 535.754 -1.72938 3.38929 0
M  V30 5703 H 535.266 0.0278927 3.8809 0
M  V30 5704 H 533.367 -2.2603 2.96212 0
M  V30 5705 H 533.48 -1.33237 4.60201 0
M  V30 5706 H 531.844 -0.800749 2.41785 0
M  V30 5707 H 532.627 0.561125 3.38683 0
M  V30 5708 N 535.072 -1.5615 -0.213296 0
M  V30 5709 C 536.318 -1.80718 -0.933402 0
M  V30 5710 C 536.673 -0.634441 -1.81639 0
M  V30 5711 O 535.966 0.371182 -1.8797 0
M  V30 5712 C 536.16 -3.08772 -1.79985 0
M  V30 5713 C 535.989 -4.38389 -1.00224 0
M  V30 5714 C 534.759 -5.00513 -0.693885 0
M  V30 5715 C 536.957 -5.13013 -0.363598 0
M  V30 5716 N 534.939 -6.13774 0.124266 0
M  V30 5717 C 536.31 -6.19186 0.31757 0
M  V30 5718 C 538.365 -4.97126 -0.277468 0
M  V30 5719 C 537.068 -7.11197 1.07664 0
M  V30 5720 C 539.094 -5.89544 0.468155 0
M  V30 5721 C 538.456 -6.95149 1.13784 0
M  V30 5722 H 534.555 -0.712833 -0.321549 0
M  V30 5723 H 537.139 -1.93633 -0.203588 0
M  V30 5724 H 535.31 -2.97126 -2.50142 0
M  V30 5725 H 537.042 -3.21499 -2.45806 0
M  V30 5726 H 533.797 -4.62619 -1.01391 0
M  V30 5727 H 534.221 -6.74981 0.522418 0
M  V30 5728 H 538.863 -4.15526 -0.78087 0
M  V30 5729 H 536.581 -7.92273 1.59153 0
M  V30 5730 H 540.167 -5.79327 0.535911 0
M  V30 5731 H 539.047 -7.65428 1.70557 0
M  V30 5732 N 536.55 0.480323 -1.50102 0
M  V30 5733 C 537.483 1.59789 -1.62919 0
M  V30 5734 C 538.461 1.55429 -0.477557 0
M  V30 5735 O 539.645 1.75186 -0.695851 0
M  V30 5736 C 536.772 2.98351 -1.60325 0
M  V30 5737 C 535.818 3.20899 -2.80938 0
M  V30 5738 S 536.651 3.01791 -4.4236 0
M  V30 5739 C 537.807 4.42712 -4.42444 0
M  V30 5740 H 538.04 1.48676 -2.57454 0
M  V30 5741 H 535.573 0.666996 -1.3925 0
M  V30 5742 H 537.531 3.7824 -1.59514 0
M  V30 5743 H 536.192 3.06862 -0.670419 0
M  V30 5744 H 535.385 4.22102 -2.75401 0
M  V30 5745 H 534.987 2.48768 -2.79268 0
M  V30 5746 H 537.279 5.3518 -4.15438 0
M  V30 5747 H 538.222 4.53294 -5.43995 0
M  V30 5748 H 538.63 4.24359 -3.72263 0
M  V30 5749 N 538.028 1.39524 0.732853 0
M  V30 5750 C 539.253 1.40329 1.52717 0
M  V30 5751 C 539.678 0.000286574 1.881 0
M  V30 5752 O 539.036 -0.987262 1.52062 0
M  V30 5753 C 539.084 2.28464 2.78992 0
M  V30 5754 O 538.188 1.716 3.75003 0
M  V30 5755 H 537.529 0.47778 0.461109 0
M  V30 5756 H 540.059 1.83546 0.903996 0
M  V30 5757 H 540.069 2.43051 3.27705 0
M  V30 5758 H 538.744 3.30425 2.52572 0
M  V30 5759 H 537.321 1.66267 3.33781 0
M  V30 5760 N 539.506 -0.963266 1.24736 0
M  V30 5761 C 540.736 -1.73913 1.11524 0
M  V30 5762 C 541.144 -1.86218 -0.334612 0
M  V30 5763 O 540.487 -1.3531 -1.24245 0
M  V30 5764 C 540.549 -3.17501 1.68622 0
M  V30 5765 C 540.213 -3.28655 3.17546 0
M  V30 5766 C 541.21 -3.13637 4.14642 0
M  V30 5767 C 538.895 -3.52753 3.5759 0
M  V30 5768 C 540.889 -3.2255 5.49764 0
M  V30 5769 C 538.576 -3.61303 4.92852 0
M  V30 5770 C 539.574 -3.46214 5.88748 0
M  V30 5771 O 539.262 -3.5443 7.2155 0
M  V30 5772 H 538.994 -0.552057 0.390139 0
M  V30 5773 H 541.548 -1.2177 1.65412 0
M  V30 5774 H 539.778 -3.70969 1.09172 0
M  V30 5775 H 541.467 -3.76914 1.50635 0
M  V30 5776 H 542.233 -2.94899 3.85045 0
M  V30 5777 H 538.112 -3.63561 2.83451 0
M  V30 5778 H 541.656 -3.1069 6.24594 0
M  V30 5779 H 537.553 -3.79556 5.22118 0
M  V30 5780 H 538.321 -3.71116 7.29531 0
M  V30 5781 N 540.985 -1.06182 -1.16461 0
M  V30 5782 C 541.915 -0.692861 -2.22984 0
M  V30 5783 C 542.896 0.314122 -1.67174 0
M  V30 5784 O 544.081 0.189499 -1.93273 0
M  V30 5785 C 541.211 -0.07732 -3.47214 0
M  V30 5786 C 540.165 -1.01015 -4.15909 0
M  V30 5787 C 539.491 -0.257973 -5.34077 0
M  V30 5788 C 540.791 -2.33868 -4.67015 0
M  V30 5789 H 542.485 -1.58343 -2.54102 0
M  V30 5790 H 540.031 -0.76279 -1.22137 0
M  V30 5791 H 541.984 0.19266 -4.20959 0
M  V30 5792 H 540.708 0.848254 -3.15392 0
M  V30 5793 H 539.367 -1.26486 -3.44088 0
M  V30 5794 H 539.015 0.670684 -4.98509 0
M  V30 5795 H 538.715 -0.879638 -5.80979 0
M  V30 5796 H 540.239 0.00448788 -6.106 0
M  V30 5797 H 541.653 -2.1279 -5.32347 0
M  V30 5798 H 540.05 -2.91522 -5.24533 0
M  V30 5799 H 541.12 -2.97019 -3.83286 0
M  V30 5800 N 542.463 1.3308 -0.844243 0
M  V30 5801 C 543.688 2.02341 -0.455282 0
M  V30 5802 C 544.113 1.6308 0.93737 0
M  V30 5803 O 543.471 0.826118 1.61385 0
M  V30 5804 C 543.519 3.55743 -0.58988 0
M  V30 5805 O 542.623 4.1063 0.38166 0
M  V30 5806 H 541.964 0.637898 -0.184343 0
M  V30 5807 H 544.494 1.6986 -1.14056 0
M  V30 5808 H 544.504 4.05243 -0.473522 0
M  V30 5809 H 543.179 3.83662 -1.60549 0
M  V30 5810 H 541.756 3.72236 0.22241 0
M  V30 5811 N 543.941 0.601185 1.45683 0
M  V30 5812 C 545.19 0.0914953 2.01492 0
M  V30 5813 C 545.503 -1.28331 1.47616 0
M  V30 5814 O 546.709 -1.88537 1.95362 0
M  V30 5815 C 545.165 0.11291 3.59723 0
M  V30 5816 C 544.773 1.48717 4.22596 0
M  V30 5817 C 546.517 -0.341871 4.23121 0
M  V30 5818 C 544.424 1.46531 5.7296 0
M  V30 5819 H 543.354 0.0304365 0.753385 0
M  V30 5820 H 546.005 0.755568 1.67223 0
M  V30 5821 H 544.387 -0.617692 3.91153 0
M  V30 5822 H 545.561 2.23897 4.02749 0
M  V30 5823 H 543.876 1.88351 3.71366 0
M  V30 5824 H 546.473 -0.377304 5.33367 0
M  V30 5825 H 546.816 -1.36325 3.93346 0
M  V30 5826 H 547.349 0.335256 3.96385 0
M  V30 5827 H 544.088 2.46408 6.07423 0
M  V30 5828 H 543.608 0.755997 5.95017 0
M  V30 5829 H 545.287 1.18618 6.36034 0
M  V30 5830 N 545.419 -1.53889 0.339982 0
M  V30 5831 C 546.665 -2.01152 -0.258003 0
M  V30 5832 C 546.998 -1.22749 -1.50487 0
M  V30 5833 O 546.273 -0.314156 -1.91946 0
M  V30 5834 C 546.556 -3.55468 -0.575717 0
M  V30 5835 C 546.409 -4.44584 0.682996 0
M  V30 5836 C 547.728 -4.1768 -1.38677 0
M  V30 5837 H 544.847 -0.731198 -0.0922992 0
M  V30 5838 H 547.489 -1.84352 0.459814 0
M  V30 5839 H 545.639 -3.69914 -1.18725 0
M  V30 5840 H 547.311 -4.41981 1.32102 0
M  V30 5841 H 545.554 -4.13592 1.3086 0
M  V30 5842 H 546.225 -5.5043 0.416001 0
M  V30 5843 H 548.701 -4.0691 -0.869705 0
M  V30 5844 H 547.577 -5.25734 -1.57783 0
M  V30 5845 H 547.838 -3.72069 -2.38782 0
M  V30 5846 N 546.897 -0.0685191 -1.57451 0
M  V30 5847 C 547.86 0.885173 -2.11417 0
M  V30 5848 C 548.86 1.22853 -1.03748 0
M  V30 5849 O 550.05 1.16235 -1.2975 0
M  V30 5850 C 547.182 2.18964 -2.61281 0
M  V30 5851 H 548.375 0.417034 -2.96986 0
M  V30 5852 H 545.928 0.18014 -1.55258 0
M  V30 5853 H 546.663 2.70321 -1.79156 0
M  V30 5854 H 546.448 1.9534 -3.39977 0
M  V30 5855 H 547.938 2.87242 -3.0312 0
M  V30 5856 N 548.375 1.56261 0.205012 0
M  V30 5857 C 549.624 1.79236 0.925058 0
M  V30 5858 C 549.937 0.640011 1.84833 0
M  V30 5859 O 551.143 0.753809 2.60826 0
M  V30 5860 C 549.599 3.17475 1.69522 0
M  V30 5861 C 549.207 4.40482 0.817269 0
M  V30 5862 C 550.951 3.49766 2.4055 0
M  V30 5863 C 548.858 5.69744 1.58573 0
M  V30 5864 H 547.788 0.668287 0.349153 0
M  V30 5865 H 550.439 1.82629 0.178544 0
M  V30 5866 H 548.821 3.08304 2.48526 0
M  V30 5867 H 549.995 4.60752 0.0665988 0
M  V30 5868 H 548.31 4.15827 0.218316 0
M  V30 5869 H 550.907 4.43573 2.98575 0
M  V30 5870 H 551.25 2.73041 3.14252 0
M  V30 5871 H 551.783 3.60341 1.68522 0
M  V30 5872 H 548.522 6.49407 0.891679 0
M  V30 5873 H 548.042 5.53509 2.31059 0
M  V30 5874 H 549.721 6.1051 2.14212 0
M  V30 5875 N 549.853 -0.472356 1.50355 0
M  V30 5876 C 551.1 -1.22453 1.61281 0
M  V30 5877 C 551.428 -1.91972 0.31256 0
M  V30 5878 O 550.683 -1.82696 -0.701475 0
M  V30 5879 C 550.982 -2.29257 2.74182 0
M  V30 5880 C 550.648 -1.76999 4.14708 0
M  V30 5881 C 549.31 -1.62467 4.52944 0
M  V30 5882 C 551.662 -1.38215 5.0254 0
M  V30 5883 C 548.99 -1.07574 5.76754 0
M  V30 5884 C 551.342 -0.847638 6.26895 0
M  V30 5885 C 550.006 -0.688946 6.63935 0
M  V30 5886 H 549.276 -0.448087 0.590168 0
M  V30 5887 H 551.923 -0.520744 1.84284 0
M  V30 5888 H 550.228 -3.05538 2.45263 0
M  V30 5889 H 551.925 -2.87212 2.7984 0
M  V30 5890 H 548.515 -1.89276 3.84542 0
M  V30 5891 H 552.699 -1.48276 4.73633 0
M  V30 5892 H 547.955 -0.940237 6.04127 0
M  V30 5893 H 552.129 -0.538455 6.94315 0
M  V30 5894 H 549.756 -0.261435 7.5975 0
M  V30 5895 N 551.331 -1.39911 -0.725443 0
M  V30 5896 C 552.579 -1.37382 -1.48224 0
M  V30 5897 C 552.9 0.0264107 -1.94982 0
M  V30 5898 O 552.17 0.979408 -1.6966 0
M  V30 5899 H 550.75 -0.505596 -0.549892 0
M  V30 5900 H 553.412 -1.7487 -0.860608 0
M  V30 5901 H 552.508 -2.04254 -2.3598 0
M  V30 5902 N 552.809 0.956637 -1.25245 0
M  V30 5903 C 554.056 1.701 -1.09874 0
M  V30 5904 C 554.384 1.91128 0.36062 0
M  V30 5905 O 553.639 1.47837 1.28229 0
M  V30 5906 C 553.938 3.08996 -1.79601 0
M  V30 5907 C 553.604 3.07774 -3.29523 0
M  V30 5908 C 552.266 3.07149 -3.70423 0
M  V30 5909 C 554.618 3.01257 -4.25316 0
M  V30 5910 C 551.946 2.97752 -5.0553 0
M  V30 5911 C 554.298 2.93403 -5.60444 0
M  V30 5912 C 552.962 2.91111 -6.00675 0
M  V30 5913 H 552.232 0.62244 -0.402056 0
M  V30 5914 H 554.879 1.1178 -1.55491 0
M  V30 5915 H 553.184 3.70848 -1.26408 0
M  V30 5916 H 554.881 3.65407 -1.65162 0
M  V30 5917 H 551.471 3.09032 -2.9698 0
M  V30 5918 H 555.655 3.00861 -3.9471 0
M  V30 5919 H 550.911 2.94346 -5.35883 0
M  V30 5920 H 555.085 2.87321 -6.34366 0
M  V30 5921 H 552.712 2.83586 -7.05325 0
M  V30 5922 N 554.287 1.06798 1.15896 0
M  V30 5923 C 555.533 0.788934 1.86825 0
M  V30 5924 C 555.866 -0.683084 1.8179 0
M  V30 5925 O 555.141 -1.50086 1.23711 0
M  V30 5926 C 555.424 1.29065 3.36176 0
M  V30 5927 C 555.277 2.8268 3.49874 0
M  V30 5928 C 556.596 0.902655 4.30744 0
M  V30 5929 H 553.715 0.288066 0.678371 0
M  V30 5930 H 556.357 1.32479 1.36195 0
M  V30 5931 H 554.507 0.834806 3.79425 0
M  V30 5932 H 556.179 3.36511 3.15528 0
M  V30 5933 H 554.422 3.21157 2.91617 0
M  V30 5934 H 555.093 3.12852 4.54783 0
M  V30 5935 H 557.569 1.29535 3.95424 0
M  V30 5936 H 556.445 1.28111 5.3374 0
M  V30 5937 H 556.706 -0.191951 4.41683 0
M  V30 5938 N 555.766 -1.3263 0.851289 0
M  V30 5939 C 556.729 -2.27247 0.298541 0
M  V30 5940 C 557.729 -1.51467 -0.539847 0
M  V30 5941 O 558.919 -1.7061 -0.351843 0
M  V30 5942 C 556.051 -3.35964 -0.578004 0
M  V30 5943 H 557.244 -2.7765 1.13359 0
M  V30 5944 H 554.797 -1.43245 0.625354 0
M  V30 5945 H 555.532 -2.90823 -1.435 0
M  V30 5946 H 555.317 -3.92094 0.0220539 0
M  V30 5947 H 556.807 -4.06472 -0.957626 0
M  V30 5948 N 557.244 -0.608902 -1.45362 0
M  V30 5949 C 558.491 -0.104607 -2.0223 0
M  V30 5950 C 558.819 1.26534 -1.47714 0
M  V30 5951 O 558.074 1.84855 -0.642435 0
M  V30 5952 C 558.373 -0.0167296 -3.57396 0
M  V30 5953 C 558.039 -1.32251 -4.31069 0
M  V30 5954 C 556.701 -1.68019 -4.50914 0
M  V30 5955 C 559.053 -2.18542 -4.73169 0
M  V30 5956 C 556.381 -2.89828 -5.10114 0
M  V30 5957 C 558.733 -3.39602 -5.33717 0
M  V30 5958 C 557.397 -3.7562 -5.51784 0
M  V30 5959 H 556.667 -0.0382785 -0.740011 0
M  V30 5960 H 559.314 -0.790782 -1.7441 0
M  V30 5961 H 557.619 0.752715 -3.84502 0
M  V30 5962 H 559.316 0.389634 -3.99103 0
M  V30 5963 H 555.906 -1.03411 -4.15938 0
M  V30 5964 H 560.09 -1.92208 -4.5757 0
M  V30 5965 H 555.346 -3.17839 -5.22291 0
M  V30 5966 H 559.52 -4.06716 -5.65292 0
M  V30 5967 H 557.147 -4.70093 -5.97425 0
M  V30 5968 N 558.722 1.53707 -0.348139 0
M  V30 5969 C 559.969 2.00988 0.246966 0
M  V30 5970 C 560.297 1.23586 1.50189 0
M  V30 5971 O 559.552 0.312817 1.93184 0
M  V30 5972 C 559.851 3.52292 0.602061 0
M  V30 5973 C 559.517 4.47453 -0.556509 0
M  V30 5974 C 558.179 4.73188 -0.874446 0
M  V30 5975 C 560.531 5.03851 -1.33354 0
M  V30 5976 C 557.859 5.52577 -1.9717 0
M  V30 5977 C 560.211 5.84437 -2.42108 0
M  V30 5978 C 558.875 6.08465 -2.74456 0
M  V30 5979 H 558.145 0.735469 0.0903712 0
M  V30 5980 H 560.792 1.85464 -0.477001 0
M  V30 5981 H 559.097 3.65672 1.40681 0
M  V30 5982 H 560.794 3.86337 1.07447 0
M  V30 5983 H 557.384 4.27558 -0.298652 0
M  V30 5984 H 561.568 4.8393 -1.10117 0
M  V30 5985 H 556.824 5.69418 -2.22651 0
M  V30 5986 H 560.998 6.27151 -3.02745 0
M  V30 5987 H 558.625 6.69768 -3.59604 0
M  V30 5988 N 560.2 0.0768682 1.57412 0
M  V30 5989 C 561.11 -0.903207 2.16516 0
M  V30 5990 C 562.126 -1.32341 1.12968 0
M  V30 5991 O 563.302 -1.39507 1.45258 0
M  V30 5992 C 560.367 -2.1508 2.71922 0
M  V30 5993 C 559.428 -1.78653 3.90361 0
M  V30 5994 C 558.661 -2.97465 4.43114 0
M  V30 5995 O 558.884 -4.11638 3.94854 0
M  V30 5996 O 557.818 -2.76987 5.3438 0
M  V30 5997 H 561.644 -0.430427 3.00634 0
M  V30 5998 H 559.229 -0.146485 1.4868 0
M  V30 5999 H 561.111 -2.8823 3.07411 0
M  V30 6000 H 559.786 -2.61446 1.9086 0
M  V30 6001 H 558.693 -1.0274 3.59716 0
M  V30 6002 H 560.026 -1.37066 4.7273 0
M  V30 6003 N 561.678 -1.56367 -0.196722 0
M  V30 6004 C 562.924 -1.80796 -0.918725 0
M  V30 6005 C 563.257 -0.650645 -1.82976 0
M  V30 6006 O 562.532 0.348889 -1.91345 0
M  V30 6007 C 562.815 -3.15472 -1.73636 0
M  V30 6008 C 562.668 -4.41693 -0.85015 0
M  V30 6009 C 563.987 -3.46824 -2.70927 0
M  V30 6010 H 561.106 -0.657702 -0.332561 0
M  V30 6011 H 563.748 -1.89086 -0.186186 0
M  V30 6012 H 561.898 -3.08536 -2.36088 0
M  V30 6013 H 563.57 -4.60673 -0.240459 0
M  V30 6014 H 561.813 -4.33517 -0.156785 0
M  V30 6015 H 562.484 -5.32419 -1.45719 0
M  V30 6016 H 564.96 -3.54049 -2.18607 0
M  V30 6017 H 563.836 -4.4218 -3.25219 0
M  V30 6018 H 564.097 -2.70236 -3.49893 0
M  V30 6019 N 563.156 0.464375 -1.50603 0
M  V30 6020 C 564.404 1.21356 -1.61608 0
M  V30 6021 C 564.725 1.92329 -0.321643 0
M  V30 6022 O 563.995 1.84403 0.661232 0
M  V30 6023 H 562.575 0.45094 -0.595535 0
M  V30 6024 H 565.237 0.535046 -1.87412 0
M  V30 6025 H 564.333 1.95783 -2.43054 0
M  V30 6026 N 564.634 1.40294 0.718013 0
M  V30 6027 C 566.045 1.34289 1.29705 0
M  V30 6028 C 566.396 0.0152228 1.96194 0
M  V30 6029 O 565.521 -0.88682 1.97394 0
M  V30 6030 C 566.116 2.43219 2.3586 0
M  V30 6031 C 564.675 2.40682 2.89394 0
M  V30 6032 C 563.822 2.24223 1.63154 0
M  V30 6033 H 566.773 1.50135 0.514312 0
M  V30 6034 H 566.794 2.10986 3.16647 0
M  V30 6035 H 566.306 3.39836 1.87439 0
M  V30 6036 H 564.407 1.47756 3.42051 0
M  V30 6037 H 564.52 3.36177 3.41353 0
M  V30 6038 H 562.884 1.71696 1.88129 0
M  V30 6039 H 563.667 3.22834 1.16761 0
M  V30 6040 N 566.112 -0.949982 1.2575 0
M  V30 6041 C 567.36 -1.6918 1.10555 0
M  V30 6042 C 567.681 -1.91773 -0.353298 0
M  V30 6043 O 566.951 -1.50814 -1.25027 0
M  V30 6044 H 565.531 -0.626952 0.406129 0
M  V30 6045 H 568.193 -1.1419 1.57945 0
M  V30 6046 H 567.289 -2.66915 1.61749 0
M  V30 6047 N 567.59 -1.07411 -1.15328 0
M  V30 6048 C 569.001 -0.820261 -1.67716 0
M  V30 6049 C 569.352 0.654539 -1.8496 0
M  V30 6050 O 568.477 1.50664 -1.55337 0
M  V30 6051 C 569.072 -1.48242 -3.04647 0
M  V30 6052 C 567.631 -1.27606 -3.5411 0
M  V30 6053 C 566.778 -1.5517 -2.29821 0
M  V30 6054 H 569.729 -1.23608 -0.995332 0
M  V30 6055 H 569.75 -0.903984 -3.69606 0
M  V30 6056 H 569.262 -2.55578 -2.92064 0
M  V30 6057 H 567.363 -0.222948 -3.71932 0
M  V30 6058 H 567.476 -1.99667 -4.35511 0
M  V30 6059 H 565.84 -0.972747 -2.35393 0
M  V30 6060 H 566.623 -2.63689 -2.19824 0
M  V30 6061 N 569.068 1.32177 -0.85831 0
M  V30 6062 C 570.317 1.96392 -0.459689 0
M  V30 6063 C 570.63 1.68659 0.990632 0
M  V30 6064 O 571.836 2.26641 1.49485 0
M  V30 6065 C 570.292 3.51542 -0.7711 0
M  V30 6066 C 569.9 3.8813 -2.2374 0
M  V30 6067 C 571.644 4.2221 -0.44038 0
M  V30 6068 C 569.551 5.36341 -2.49183 0
M  V30 6069 H 568.481 0.735007 -0.168169 0
M  V30 6070 H 571.132 1.50518 -1.0496 0
M  V30 6071 H 569.514 3.95846 -0.11058 0
M  V30 6072 H 570.688 3.54824 -2.94001 0
M  V30 6073 H 569.003 3.30497 -2.533 0
M  V30 6074 H 571.6 5.31234 -0.607855 0
M  V30 6075 H 571.943 4.11683 0.618291 0
M  V30 6076 H 572.476 3.83502 -1.05695 0
M  V30 6077 H 569.215 5.51892 -3.53689 0
M  V30 6078 H 568.735 5.7104 -1.83504 0
M  V30 6079 H 570.414 6.03466 -2.33318 0
M  V30 6080 N 570.547 0.616602 1.45037 0
M  V30 6081 C 571.958 0.199359 1.85633 0
M  V30 6082 C 572.309 -1.24588 1.51566 0
M  V30 6083 O 571.434 -1.94594 0.94668 0
M  V30 6084 C 572.029 0.355033 3.36935 0
M  V30 6085 C 570.588 -0.00758748 3.76399 0
M  V30 6086 C 569.735 0.675256 2.68953 0
M  V30 6087 H 572.686 0.822708 1.3571 0
M  V30 6088 H 572.707 -0.410201 3.78282 0
M  V30 6089 H 572.219 1.40699 3.61698 0
M  V30 6090 H 570.32 -1.05837 3.57252 0
M  V30 6091 H 570.433 0.392346 4.77491 0
M  V30 6092 H 568.797 0.111992 2.54454 0
M  V30 6093 H 569.58 1.72952 2.96551 0
M  V30 6094 N 572.025 -1.5352 0.356285 0
M  V30 6095 C 573.271 -2.02104 -0.229271 0
M  V30 6096 C 573.626 -1.23923 -1.47176 0
M  V30 6097 O 572.919 -0.321957 -1.88876 0
M  V30 6098 C 573.113 -3.52607 -0.583369 0
M  V30 6099 C 572.942 -4.4536 0.623253 0
M  V30 6100 C 571.712 -4.92446 1.13248 0
M  V30 6101 C 573.91 -4.92375 1.48563 0
M  V30 6102 N 571.892 -5.69183 2.3001 0
M  V30 6103 C 573.263 -5.67362 2.50001 0
M  V30 6104 C 575.318 -4.74464 1.50959 0
M  V30 6105 C 574.021 -6.26341 3.5368 0
M  V30 6106 C 576.047 -5.34302 2.53526 0
M  V30 6107 C 575.409 -6.09166 3.53688 0
M  V30 6108 H 571.508 -0.780595 -0.0468602 0
M  V30 6109 H 574.092 -1.88204 0.49873 0
M  V30 6110 H 572.263 -3.66686 -1.28046 0
M  V30 6111 H 573.995 -3.87922 -1.15321 0
M  V30 6112 H 570.75 -4.6842 0.698562 0
M  V30 6113 H 571.174 -6.12216 2.88998 0
M  V30 6114 H 575.816 -4.16117 0.748785 0
M  V30 6115 H 573.534 -6.8379 4.30648 0
M  V30 6116 H 577.12 -5.22342 2.56223 0
M  V30 6117 H 576 -6.54644 4.31753 0
M  V30 6118 N 573.503 -0.0852151 -1.57369 0
M  V30 6119 C 574.75 0.580806 -1.93992 0
M  V30 6120 C 575.078 1.68801 -0.966252 0
M  V30 6121 O 574.333 1.95694 0.0158649 0
M  V30 6122 C 574.632 1.18482 -3.3719 0
M  V30 6123 C 574.298 0.2024 -4.50446 0
M  V30 6124 C 572.96 -0.0678318 -4.81152 0
M  V30 6125 C 575.312 -0.46895 -5.19086 0
M  V30 6126 C 572.64 -1.01627 -5.77831 0
M  V30 6127 C 574.992 -1.4058 -6.16782 0
M  V30 6128 C 573.656 -1.68436 -6.45899 0
M  V30 6129 H 572.926 0.212532 -0.709867 0
M  V30 6130 H 575.573 -0.158947 -1.90839 0
M  V30 6131 H 573.878 2.0006 -3.36873 0
M  V30 6132 H 575.575 1.70767 -3.62822 0
M  V30 6133 H 572.165 0.423208 -4.26505 0
M  V30 6134 H 576.349 -0.273307 -4.95547 0
M  V30 6135 H 571.605 -1.2392 -5.9871 0
M  V30 6136 H 575.779 -1.93188 -6.69068 0
M  V30 6137 H 573.406 -2.42088 -7.20623 0
M  V30 6138 N 574.981 1.5647 0.188427 0
M  V30 6139 C 576.23 1.80207 0.905995 0
M  V30 6140 C 576.543 0.659579 1.84144 0
M  V30 6141 O 577.749 0.781431 2.60011 0
M  V30 6142 C 576.205 3.19255 1.66145 0
M  V30 6143 C 575.813 4.41324 0.770504 0
M  V30 6144 C 577.557 3.52298 2.36826 0
M  V30 6145 C 575.464 5.71394 1.52521 0
M  V30 6146 H 574.394 0.671953 0.342045 0
M  V30 6147 H 577.045 1.82808 0.159164 0
M  V30 6148 H 575.427 3.10922 2.45242 0
M  V30 6149 H 576.601 4.60797 0.0177261 0
M  V30 6150 H 574.916 4.16035 0.174199 0
M  V30 6151 H 577.513 4.46715 2.93854 0
M  V30 6152 H 577.856 2.76359 3.11338 0
M  V30 6153 H 578.389 3.62108 1.6469 0
M  V30 6154 H 575.128 6.50316 0.82275 0
M  V30 6155 H 574.648 5.55928 2.25175 0
M  V30 6156 H 576.327 6.12747 2.07725 0
M  V30 6157 N 576.459 -0.456382 1.50847 0
M  V30 6158 C 577.705 -1.20914 1.62811 0
M  V30 6159 C 578.038 -1.91301 0.334304 0
M  V30 6160 O 577.313 -1.82775 -0.665098 0
M  V30 6161 C 577.596 -2.24122 2.81853 0
M  V30 6162 C 577.449 -1.57944 4.21158 0
M  V30 6163 C 578.768 -3.25295 2.96431 0
M  V30 6164 H 575.887 -0.438233 0.592554 0
M  V30 6165 H 578.529 -0.50091 1.83278 0
M  V30 6166 H 576.679 -2.84524 2.64534 0
M  V30 6167 H 578.351 -1.01025 4.50102 0
M  V30 6168 H 576.594 -0.882185 4.24735 0
M  V30 6169 H 577.265 -2.33014 5.00408 0
M  V30 6170 H 579.741 -2.7493 3.12335 0
M  V30 6171 H 578.617 -3.94822 3.81322 0
M  V30 6172 H 578.878 -3.90286 2.07676 0
M  V30 6173 N 577.937 -1.40673 -0.710563 0
M  V30 6174 C 578.9 -1.4108 -1.80635 0
M  V30 6175 C 579.9 -0.303783 -1.57904 0
M  V30 6176 O 581.09 -0.562937 -1.64853 0
M  V30 6177 C 578.222 -1.20748 -3.18799 0
M  V30 6178 H 579.415 -2.38612 -1.81671 0
M  V30 6179 H 576.968 -1.26595 -0.916704 0
M  V30 6180 H 577.703 -0.239964 -3.23411 0
M  V30 6181 H 577.488 -2.00941 -3.36698 0
M  V30 6182 H 578.978 -1.23833 -3.98817 0
M  V30 6183 N 579.415 0.9433 -1.26252 0
M  V30 6184 C 580.325 2.07532 -1.09397 0
M  V30 6185 C 581.341 1.73977 -0.0280449 0
M  V30 6186 O 582.517 2.00067 -0.231337 0
M  V30 6187 C 579.582 3.39002 -0.726523 0
M  V30 6188 C 578.643 3.86353 -1.87163 0
M  V30 6189 C 577.876 5.11549 -1.52162 0
M  V30 6190 O 578.099 5.68834 -0.422385 0
M  V30 6191 O 577.033 5.53889 -2.35565 0
M  V30 6192 H 580.859 2.24658 -2.04359 0
M  V30 6193 H 578.444 1.05988 -1.05295 0
M  V30 6194 H 580.326 4.18 -0.534236 0
M  V30 6195 H 579.001 3.2312 0.193721 0
M  V30 6196 H 577.908 3.0831 -2.11886 0
M  V30 6197 H 579.241 4.06752 -2.77152 0
M  V30 6198 N 580.893 1.08022 1.14757 0
M  V30 6199 C 581.823 0.728248 2.21853 0
M  V30 6200 C 582.804 -0.287486 1.67653 0
M  V30 6201 O 583.989 -0.158727 1.9355 0
M  V30 6202 C 581.119 0.132549 3.47047 0
M  V30 6203 C 580.073 1.07619 4.14249 0
M  V30 6204 C 579.399 0.342907 5.33599 0
M  V30 6205 C 580.699 2.41268 4.63235 0
M  V30 6206 H 582.393 1.62365 2.51551 0
M  V30 6207 H 579.939 0.782125 1.20908 0
M  V30 6208 H 581.892 -0.125665 4.21213 0
M  V30 6209 H 580.616 -0.797971 3.16702 0
M  V30 6210 H 579.275 1.31944 3.42033 0
M  V30 6211 H 578.923 -0.59129 4.99513 0
M  V30 6212 H 578.623 0.971955 5.79506 0
M  V30 6213 H 580.147 0.0926538 6.1053 0
M  V30 6214 H 581.561 2.21232 5.28894 0
M  V30 6215 H 579.958 2.9983 5.19829 0
M  V30 6216 H 581.028 3.03079 3.78512 0
M  V30 6217 N 582.371 -1.3172 0.865308 0
M  V30 6218 C 583.618 -1.96876 0.473931 0
M  V30 6219 C 583.946 -1.68425 -0.972786 0
M  V30 6220 O 583.201 -0.970742 -1.69927 0
M  V30 6221 C 583.5 -3.5102 0.672283 0
M  V30 6222 C 583.166 -3.9948 2.09108 0
M  V30 6223 C 581.828 -4.12425 2.4791 0
M  V30 6224 C 584.18 -4.2503 3.0166 0
M  V30 6225 C 581.508 -4.48267 3.78515 0
M  V30 6226 C 583.86 -4.62335 4.31774 0
M  V30 6227 C 582.524 -4.73486 4.70497 0
M  V30 6228 H 581.794 -0.72042 0.173424 0
M  V30 6229 H 584.441 -1.56937 1.0974 0
M  V30 6230 H 582.746 -3.91785 -0.034356 0
M  V30 6231 H 584.443 -3.99475 0.349353 0
M  V30 6232 H 581.033 -3.89898 1.77981 0
M  V30 6233 H 585.217 -4.14529 2.7291 0
M  V30 6234 H 580.473 -4.55097 4.08285 0
M  V30 6235 H 584.647 -4.81058 5.03543 0
M  V30 6236 H 582.274 -5.01016 5.71741 0
M  V30 6237 N 583.85 -0.624285 -1.44708 0
M  V30 6238 C 585.075 -0.131171 -2.06985 0
M  V30 6239 C 585.5 1.18234 -1.46295 0
M  V30 6240 O 584.858 1.72375 -0.561842 0
M  V30 6241 C 584.906 -0.0226724 -3.60593 0
M  V30 6242 O 584.01 1.02314 -3.99507 0
M  V30 6243 H 583.351 -0.0816556 -0.65896 0
M  V30 6244 H 585.88 -0.859027 -1.85693 0
M  V30 6245 H 585.891 0.170138 -4.07645 0
M  V30 6246 H 584.566 -0.981685 -4.04148 0
M  V30 6247 H 583.143 0.805452 -3.64097 0
M  V30 6248 N 585.328 1.53329 -0.364422 0
M  V30 6249 C 586.26 2.23286 0.517293 0
M  V30 6250 C 587.273 1.24657 1.04711 0
M  V30 6251 O 588.462 1.50887 0.95369 0
M  V30 6252 C 585.562 2.91604 1.72685 0
M  V30 6253 C 584.735 4.1673 1.32873 0
M  V30 6254 C 583.794 4.68269 2.40022 0
M  V30 6255 O 582.82 5.31976 2.02461 0
M  V30 6256 N 584.022 4.45983 3.7159 0
M  V30 6257 H 586.787 2.99588 -0.0819391 0
M  V30 6258 H 584.348 1.60787 -0.189544 0
M  V30 6259 H 586.34 3.22992 2.4384 0
M  V30 6260 H 584.91 2.18763 2.23297 0
M  V30 6261 H 584.13 3.91657 0.447069 0
M  V30 6262 H 585.418 4.98078 1.03902 0
M  V30 6263 H 584.816 3.95077 4.04883 0
M  V30 6264 H 583.373 4.81924 4.38854 0
M  V30 6265 N 586.806 0.0935595 1.57322 0
M  V30 6266 C 588.054 -0.569383 1.93913 0
M  V30 6267 C 588.375 -1.68817 0.976009 0
M  V30 6268 O 587.645 -1.9588 0.0278099 0
M  V30 6269 H 586.225 -0.21332 0.715894 0
M  V30 6270 H 588.887 0.156531 1.9427 0
M  V30 6271 H 587.983 -0.980577 2.96296 0
M  V30 6272 N 588.284 -1.56567 -0.180126 0
M  V30 6273 C 589.695 -1.7126 -0.743422 0
M  V30 6274 C 590.046 -0.70263 -1.83187 0
M  V30 6275 O 589.171 0.137856 -2.1596 0
M  V30 6276 C 589.766 -3.10512 -1.35528 0
M  V30 6277 C 588.325 -3.26919 -1.8655 0
M  V30 6278 C 587.472 -2.67213 -0.741099 0
M  V30 6279 H 590.423 -1.58636 0.0451543 0
M  V30 6280 H 590.444 -3.08673 -2.22489 0
M  V30 6281 H 589.956 -3.83997 -0.562862 0
M  V30 6282 H 588.057 -2.58376 -2.68464 0
M  V30 6283 H 588.17 -4.34574 -2.01699 0
M  V30 6284 H 586.534 -2.26788 -1.15927 0
M  V30 6285 H 587.317 -3.43277 0.0393291 0
M  V30 6286 N 589.762 0.448376 -1.51087 0
M  V30 6287 C 591.178 0.783984 -1.39017 0
M  V30 6288 C 591.378 1.96087 -0.463904 0
M  V30 6289 O 590.434 2.52357 0.0850534 0
M  V30 6290 C 591.747 1.07471 -2.80839 0
M  V30 6291 C 593.295 1.17981 -2.89913 0
M  V30 6292 C 593.77 1.50354 -4.32617 0
M  V30 6293 N 595.261 1.57301 -4.35673 0
M  V30 6294 C 595.996 1.839 -5.4311 0
M  V30 6295 N 595.492 2.08365 -6.60724 0
M  V30 6296 N 597.285 1.8559 -5.30578 0
M  V30 6297 H 589.436 -0.326881 -2.0987 0
M  V30 6298 H 591.699 -0.0838006 -0.944289 0
M  V30 6299 H 591.405 0.282768 -3.50561 0
M  V30 6300 H 591.279 2.00519 -3.19487 0
M  V30 6301 H 593.666 1.9624 -2.20395 0
M  V30 6302 H 593.747 0.228603 -2.54776 0
M  V30 6303 H 593.391 0.726273 -5.0268 0
M  V30 6304 H 593.321 2.46663 -4.65258 0
M  V30 6305 H 595.812 1.40342 -3.50874 0
M  V30 6306 H 596.125 2.27999 -7.38401 0
M  V30 6307 H 594.47 2.0571 -6.63859 0
M  V30 6308 H 597.661 1.65989 -4.37682 0
M  V30 6309 H 597.834 2.05983 -6.1439 0
M  V30 6310 N 591.24 1.41047 0.703093 0
M  V30 6311 C 592.651 1.35657 1.28274 0
M  V30 6312 C 593.002 0.0360309 1.96167 0
M  V30 6313 O 592.127 -0.865833 1.98324 0
M  V30 6314 C 592.722 2.45707 2.33267 0
M  V30 6315 C 591.281 2.43738 2.86825 0
M  V30 6316 C 590.428 2.25941 1.60767 0
M  V30 6317 H 593.379 1.50672 0.49836 0
M  V30 6318 H 593.4 2.14333 3.14391 0
M  V30 6319 H 592.912 3.41805 1.83824 0
M  V30 6320 H 591.013 1.51375 3.40465 0
M  V30 6321 H 591.126 3.39779 3.37768 0
M  V30 6322 H 589.49 1.73681 1.86298 0
M  V30 6323 H 590.273 3.24054 1.1333 0
M  V30 6324 N 592.718 -0.936591 1.26751 0
M  V30 6325 C 593.681 -2.01752 1.08761 0
M  V30 6326 C 594.681 -1.60763 0.0344435 0
M  V30 6327 O 595.871 -1.71963 0.278258 0
M  V30 6328 C 593.003 -3.34543 0.655271 0
M  V30 6329 H 594.196 -2.19143 2.04735 0
M  V30 6330 H 591.749 -1.11618 1.09413 0
M  V30 6331 H 592.484 -3.22851 -0.30626 0
M  V30 6332 H 592.269 -3.65647 1.41578 0
M  V30 6333 H 593.759 -4.13944 0.551378 0
M  V30 6334 N 594.196 -1.08629 -1.14182 0
M  V30 6335 C 595.159 -0.722027 -2.1753 0
M  V30 6336 C 596.159 0.244305 -1.58933 0
M  V30 6337 O 597.349 0.0235545 -1.74184 0
M  V30 6338 C 594.481 -0.0663966 -3.40835 0
M  V30 6339 H 595.674 -1.63719 -2.51269 0
M  V30 6340 H 593.227 -0.884442 -1.28869 0
M  V30 6341 H 593.962 0.860389 -3.12678 0
M  V30 6342 H 593.747 -0.761598 -3.84632 0
M  V30 6343 H 595.237 0.173346 -4.1724 0
M  V30 6344 N 595.674 1.31259 -0.872281 0
M  V30 6345 C 596.923 1.95893 -0.480493 0
M  V30 6346 C 597.236 1.697 0.972688 0
M  V30 6347 O 598.442 2.28214 1.47073 0
M  V30 6348 C 596.898 3.50705 -0.808342 0
M  V30 6349 C 596.506 3.85735 -2.27844 0
M  V30 6350 C 598.25 4.21719 -0.485136 0
M  V30 6351 C 596.157 5.33668 -2.54858 0
M  V30 6352 H 595.087 0.733182 -0.175955 0
M  V30 6353 H 597.738 1.49396 -1.0655 0
M  V30 6354 H 596.12 3.95706 -0.152558 0
M  V30 6355 H 597.294 3.51686 -2.97748 0
M  V30 6356 H 595.609 3.27792 -2.56791 0
M  V30 6357 H 598.206 5.30559 -0.664166 0
M  V30 6358 H 598.549 4.12316 0.574592 0
M  V30 6359 H 599.082 3.82359 -1.09756 0
M  V30 6360 H 595.821 5.48109 -3.59523 0
M  V30 6361 H 595.341 5.69061 -1.8955 0
M  V30 6362 H 597.02 6.00958 -2.39706 0
M  V30 6363 N 597.152 0.631951 1.44375 0
M  V30 6364 C 598.115 -0.0628142 2.29114 0
M  V30 6365 C 599.115 -0.771494 1.41084 0
M  V30 6366 O 600.305 -0.615959 1.62947 0
M  V30 6367 C 597.437 -1.09953 3.22681 0
M  V30 6368 H 598.63 0.682509 2.92031 0
M  V30 6369 H 596.183 0.392128 1.51301 0
M  V30 6370 H 596.918 -1.87481 2.64616 0
M  V30 6371 H 596.703 -0.595286 3.87555 0
M  V30 6372 H 598.193 -1.58538 3.86336 0
M  V30 6373 N 598.631 -1.53133 0.372548 0
M  V30 6374 C 599.877 -2.01654 -0.215277 0
M  V30 6375 C 600.21 -1.25914 -1.47849 0
M  V30 6376 O 599.485 -0.3548 -1.91237 0
M  V30 6377 C 599.768 -3.56609 -0.500187 0
M  V30 6378 C 599.621 -4.43036 0.777145 0
M  V30 6379 C 600.94 -4.20528 -1.29786 0
M  V30 6380 H 598.059 -0.732991 -0.0767686 0
M  V30 6381 H 600.701 -1.83335 0.498814 0
M  V30 6382 H 598.851 -3.7235 -1.10852 0
M  V30 6383 H 600.523 -4.39079 1.41447 0
M  V30 6384 H 598.766 -4.10723 1.39604 0
M  V30 6385 H 599.437 -5.49424 0.532662 0
M  V30 6386 H 601.913 -4.08663 -0.783198 0
M  V30 6387 H 600.789 -5.28962 -1.46596 0
M  V30 6388 H 601.05 -3.77051 -2.30836 0
M  V30 6389 N 600.109 -0.101901 -1.5727 0
M  V30 6390 C 601.072 0.840129 -2.13247 0
M  V30 6391 C 602.072 1.20625 -1.06331 0
M  V30 6392 O 603.262 1.13456 -1.32186 0
M  V30 6393 C 600.394 2.13372 -2.65867 0
M  V30 6394 H 601.587 0.353945 -2.97804 0
M  V30 6395 H 599.14 0.147167 -1.55606 0
M  V30 6396 H 599.875 2.66461 -1.84849 0
M  V30 6397 H 599.66 1.88085 -3.44044 0
M  V30 6398 H 601.15 2.80748 -3.09145 0
M  V30 6399 N 601.587 1.56661 0.17182 0
M  V30 6400 C 602.835 1.81606 0.886774 0
M  V30 6401 C 603.156 0.678818 1.82803 0
M  V30 6402 O 602.426 -0.301354 1.93568 0
M  V30 6403 H 601.006 0.669934 0.330451 0
M  V30 6404 H 603.668 1.94142 0.171757 0
M  V30 6405 H 602.764 2.75634 1.46398 0
M  V30 6406 N 603.065 -0.440357 1.51323 0
M  V30 6407 C 604.312 -1.19004 1.63842 0
M  V30 6408 C 604.64 -1.91266 0.35321 0
M  V30 6409 O 603.895 -1.84143 -0.662565 0
M  V30 6410 C 604.194 -2.2339 2.78984 0
M  V30 6411 C 603.86 -1.68162 4.18369 0
M  V30 6412 C 602.522 -1.52823 4.56288 0
M  V30 6413 C 604.874 -1.27524 5.05358 0
M  V30 6414 C 602.202 -0.953157 5.78906 0
M  V30 6415 C 604.554 -0.714474 6.28552 0
M  V30 6416 C 603.218 -0.547961 6.65247 0
M  V30 6417 H 602.488 -0.435468 0.59954 0
M  V30 6418 H 605.135 -0.481538 1.85347 0
M  V30 6419 H 603.44 -3.00267 2.51688 0
M  V30 6420 H 605.137 -2.81211 2.85869 0
M  V30 6421 H 601.727 -1.81077 3.8847 0
M  V30 6422 H 605.911 -1.38197 4.76671 0
M  V30 6423 H 601.167 -0.811882 6.05986 0
M  V30 6424 H 605.341 -0.391059 6.95301 0
M  V30 6425 H 602.968 -0.100222 7.60134 0
M  V30 6426 N 604.543 -1.41418 -0.695603 0
M  V30 6427 C 605.768 -1.44329 -1.48942 0
M  V30 6428 C 606.193 -0.0501579 -1.88033 0
M  V30 6429 O 605.551 0.946598 -1.54626 0
M  V30 6430 C 605.599 -2.3578 -2.72837 0
M  V30 6431 O 604.703 -1.81482 -3.70322 0
M  V30 6432 H 604.044 -0.489838 -0.44828 0
M  V30 6433 H 606.574 -1.85878 -0.855014 0
M  V30 6434 H 606.584 -2.51654 -3.21145 0
M  V30 6435 H 605.259 -3.37005 -2.43722 0
M  V30 6436 H 603.836 -1.75058 -3.29255 0
M  V30 6437 N 606.021 0.929856 -1.27246 0
M  V30 6438 C 606.969 2.05151 -1.09616 0
M  V30 6439 C 607.963 1.69388 -0.0198617 0
M  V30 6440 O 609.169 1.79124 -0.177417 0
M  V30 6441 H 605.544 0.671909 -0.337701 0
M  V30 6442 H 607.515 2.17168 -2.04648 0
M  V30 6443 C 606.264 3.3934 -0.757851 0
M  V30 6444 H 605.587 3.67343 -1.57795 0
M  V30 6445 H 607.027 4.18603 -0.674358 0
M  V30 6446 C 605.486 3.32582 0.537658 0
M  V30 6447 O 606.016 3.69633 1.57271 0
M  V30 6448 N 604.222 2.8568 0.532478 0
M  V30 6449 H 603.769 2.55725 -0.310233 0
M  V30 6450 H 603.727 2.81541 1.39936 0
M  V30 6451 N 607.499 1.09233 1.13605 0
M  V30 6452 C 608.745 0.838255 1.85324 0
M  V30 6453 C 609.1 -0.629314 1.81817 0
M  V30 6454 O 608.393 -1.45729 1.24393 0
M  V30 6455 C 608.587 1.305 3.32723 0
M  V30 6456 C 608.416 2.81641 3.50583 0
M  V30 6457 C 607.186 3.49494 3.64941 0
M  V30 6458 C 609.384 3.79789 3.46792 0
M  V30 6459 N 607.366 4.89082 3.71042 0
M  V30 6460 C 608.737 5.05319 3.59239 0
M  V30 6461 C 610.792 3.72673 3.30181 0
M  V30 6462 C 609.495 6.24574 3.56791 0
M  V30 6463 C 611.521 4.91413 3.29039 0
M  V30 6464 C 610.883 6.15785 3.42035 0
M  V30 6465 H 606.982 0.359572 0.69443 0
M  V30 6466 H 609.566 1.39232 1.36098 0
M  V30 6467 H 607.737 0.778411 3.8052 0
M  V30 6468 H 609.469 0.996465 3.92241 0
M  V30 6469 H 606.224 2.9992 3.66531 0
M  V30 6470 H 606.648 5.61787 3.77789 0
M  V30 6471 H 611.29 2.77444 3.19037 0
M  V30 6472 H 609.008 7.20105 3.66708 0
M  V30 6473 H 612.594 4.87604 3.17386 0
M  V30 6474 H 611.474 7.06126 3.41111 0
M  V30 6475 N 608.977 -1.30795 0.87923 0
M  V30 6476 C 610.205 -2.00527 0.509548 0
M  V30 6477 C 610.62 -1.65944 -0.90045 0
M  V30 6478 O 609.977 -0.893525 -1.5913 0
M  V30 6479 C 610.028 -3.55276 0.667943 0
M  V30 6480 O 609.749 -3.88625 2.02242 0
M  V30 6481 C 611.25 -4.4228 0.300494 0
M  V30 6482 H 608.47 -0.641261 0.197549 0
M  V30 6483 H 611.014 -1.66813 1.18295 0
M  V30 6484 H 609.169 -3.87377 0.0419843 0
M  V30 6485 H 609.583 -4.83334 2.03688 0
M  V30 6486 H 611.057 -5.50061 0.462242 0
M  V30 6487 H 611.534 -4.32556 -0.76106 0
M  V30 6488 H 612.14 -4.15613 0.902536 0
M  V30 6489 N 610.455 -0.639598 -1.44038 0
M  V30 6490 C 611.68 -0.153117 -2.06834 0
M  V30 6491 C 612.105 1.16676 -1.47541 0
M  V30 6492 O 611.463 1.71769 -0.580093 0
M  V30 6493 C 611.511 -0.0609169 -3.60549 0
M  V30 6494 O 610.615 0.98071 -4.00569 0
M  V30 6495 H 609.956 -0.0886402 -0.658057 0
M  V30 6496 H 612.486 -0.878674 -1.84771 0
M  V30 6497 H 612.496 0.126892 -4.07803 0
M  V30 6498 H 611.171 -1.0245 -4.03084 0
M  V30 6499 H 609.748 0.766789 -3.64931 0
M  V30 6500 N 611.933 1.52934 -0.380664 0
M  V30 6501 C 612.881 2.27727 0.47361 0
M  V30 6502 C 613.875 1.31288 1.0705 0
M  V30 6503 O 615.081 1.4886 1.01197 0
M  V30 6504 H 611.456 0.732189 0.171475 0
M  V30 6505 H 613.427 2.97864 -0.178785 0
M  V30 6506 C 612.176 3.0904 1.59341 0
M  V30 6507 H 611.499 3.831 1.14343 0
M  V30 6508 H 612.939 3.64527 2.16555 0
M  V30 6509 C 611.398 2.20813 2.54447 0
M  V30 6510 O 611.928 1.82907 3.57642 0
M  V30 6511 N 610.134 1.85145 2.23986 0
M  V30 6512 H 609.681 2.16169 1.40103 0
M  V30 6513 H 609.639 1.26402 2.87871 0
M  V30 6514 N 613.412 0.11024 1.57214 0
M  V30 6515 C 614.659 -0.54987 1.94891 0
M  V30 6516 C 614.987 -1.67243 0.992984 0
M  V30 6517 O 614.242 -1.95694 0.0152703 0
M  V30 6518 C 614.541 -1.13102 3.39032 0
M  V30 6519 C 614.207 -0.130713 4.5071 0
M  V30 6520 C 612.869 0.14437 4.80983 0
M  V30 6521 C 615.221 0.551472 5.18274 0
M  V30 6522 C 612.549 1.10807 5.76141 0
M  V30 6523 C 614.901 1.50375 6.14467 0
M  V30 6524 C 613.565 1.78691 6.43138 0
M  V30 6525 H 612.835 -0.201212 0.713158 0
M  V30 6526 H 615.482 0.189288 1.90562 0
M  V30 6527 H 613.787 -1.94675 3.40013 0
M  V30 6528 H 615.484 -1.64973 3.65493 0
M  V30 6529 H 612.074 -0.355301 4.27125 0
M  V30 6530 H 616.258 0.35211 4.95049 0
M  V30 6531 H 611.514 1.3343 5.96663 0
M  V30 6532 H 615.688 2.03808 6.65909 0
M  V30 6533 H 613.315 2.53522 7.1668 0
M  V30 6534 N 614.89 -1.56749 -0.16351 0
M  V30 6535 C 616.139 -1.81626 -0.877211 0
M  V30 6536 C 616.452 -0.688791 -1.83071 0
M  V30 6537 O 617.658 -0.822697 -2.58735 0
M  V30 6538 C 616.114 -3.21858 -1.61045 0
M  V30 6539 C 615.722 -4.42494 -0.700195 0
M  V30 6540 C 617.466 -3.56021 -2.31192 0
M  V30 6541 C 615.373 -5.73748 -1.43412 0
M  V30 6542 H 614.303 -0.67731 -0.331312 0
M  V30 6543 H 616.954 -1.83039 -0.13006 0
M  V30 6544 H 615.336 -3.14784 -2.40264 0
M  V30 6545 H 616.51 -4.60766 0.0555849 0
M  V30 6546 H 614.825 -4.1626 -0.10799 0
M  V30 6547 H 617.422 -4.51333 -2.8671 0
M  V30 6548 H 617.765 -2.81277 -3.06902 0
M  V30 6549 H 618.298 -3.64682 -1.58909 0
M  V30 6550 H 615.037 -6.51543 -0.719186 0
M  V30 6551 H 614.557 -5.5944 -2.16302 0
M  V30 6552 H 616.236 -6.15975 -1.9795 0
M  V30 6553 N 616.368 0.432326 -1.51554 0
M  V30 6554 C 617.614 1.18309 -1.64714 0
M  V30 6555 C 617.947 1.90745 -0.364696 0
M  V30 6556 O 617.222 1.8381 0.635936 0
M  V30 6557 C 617.505 2.1961 -2.85383 0
M  V30 6558 C 617.358 1.51223 -4.23617 0
M  V30 6559 C 618.677 3.20538 -3.01569 0
M  V30 6560 H 615.796 0.428751 -0.599451 0
M  V30 6561 H 618.438 0.471689 -1.84052 0
M  V30 6562 H 616.588 2.8028 -2.69027 0
M  V30 6563 H 618.26 0.938516 -4.51652 0
M  V30 6564 H 616.503 0.814501 -4.26085 0
M  V30 6565 H 617.174 2.25024 -5.04052 0
M  V30 6566 H 619.65 2.69926 -3.16669 0
M  V30 6567 H 618.526 3.88706 -3.87555 0
M  V30 6568 H 618.787 3.86933 -2.13859 0
M  V30 6569 N 617.846 1.41785 0.688094 0
M  V30 6570 C 619.094 1.41264 1.4453 0
M  V30 6571 C 619.415 0.0252946 1.94984 0
M  V30 6572 O 618.685 -0.934081 1.72197 0
M  V30 6573 H 617.265 0.519998 0.536294 0
M  V30 6574 H 619.927 1.7709 0.813941 0
M  V30 6575 H 619.023 2.10439 2.30482 0
M  V30 6576 N 619.324 -0.923095 1.27737 0
M  V30 6577 C 620.257 -2.02515 1.05181 0
M  V30 6578 C 621.235 -1.62574 -0.0292204 0
M  V30 6579 O 622.419 -1.88137 0.116848 0
M  V30 6580 C 619.546 -3.33407 0.596468 0
M  V30 6581 C 618.592 -3.92328 1.67276 0
M  V30 6582 S 619.425 -4.24342 3.26641 0
M  V30 6583 C 620.581 -5.58308 2.82919 0
M  V30 6584 H 620.814 -2.21336 1.98488 0
M  V30 6585 H 618.347 -1.06679 1.1162 0
M  V30 6586 H 620.305 -4.09086 0.34044 0
M  V30 6587 H 618.966 -3.125 -0.316614 0
M  V30 6588 H 618.159 -4.86797 1.30556 0
M  V30 6589 H 617.761 -3.2325 1.8811 0
M  V30 6590 H 620.053 -6.37801 2.28509 0
M  V30 6591 H 620.996 -5.99931 3.7615 0
M  V30 6592 H 621.404 -5.19049 2.21919 0
M  V30 6593 N 620.802 -1.09834 -1.13024 0
M  V30 6594 C 622.042 -0.846664 -1.8604 0
M  V30 6595 C 622.406 0.616557 -1.81831 0
M  V30 6596 O 623.607 0.984329 -2.50129 0
M  V30 6597 C 621.878 -1.37228 -3.30005 0
M  V30 6598 S 623.437 -1.25511 -4.20467 0
M  V30 6599 H 620.255 -0.30611 -0.64173 0
M  V30 6600 H 622.857 -1.40255 -1.36194 0
M  V30 6601 H 621.561 -2.43138 -3.30624 0
M  V30 6602 H 621.092 -0.81271 -3.84914 0
M  V30 6603 H 623.107 -0.208762 -4.95761 0
M  V30 6604 N 622.28 1.30327 -0.886154 0
M  V30 6605 C 623.527 1.96097 -0.505192 0
M  V30 6606 C 623.855 1.69952 0.945868 0
M  V30 6607 O 623.11 0.997653 1.68361 0
M  V30 6608 C 623.409 3.49906 -0.728042 0
M  V30 6609 C 623.075 3.96103 -2.15437 0
M  V30 6610 C 621.737 4.08428 -2.5444 0
M  V30 6611 C 624.089 4.20177 -3.08384 0
M  V30 6612 C 621.417 4.42189 -3.85598 0
M  V30 6613 C 623.769 4.55407 -4.39075 0
M  V30 6614 C 622.433 4.65941 -4.7797 0
M  V30 6615 H 621.703 0.71757 -0.184863 0
M  V30 6616 H 624.35 1.55171 -1.12223 0
M  V30 6617 H 622.655 3.9179 -0.027978 0
M  V30 6618 H 624.352 3.98869 -0.412862 0
M  V30 6619 H 620.942 3.87017 -1.84162 0
M  V30 6620 H 625.126 4.10134 -2.7947 0
M  V30 6621 H 620.382 4.48544 -4.15473 0
M  V30 6622 H 624.556 4.72986 -5.11133 0
M  V30 6623 H 622.183 4.91856 -5.79639 0
M  V30 6624 N 623.758 0.647228 1.43697 0
M  V30 6625 C 624.69 -0.0866232 2.29036 0
M  V30 6626 C 625.703 -0.793051 1.42178 0
M  V30 6627 O 626.892 -0.651807 1.66174 0
M  V30 6628 C 623.992 -1.14552 3.18953 0
M  V30 6629 C 623.165 -0.518422 4.34317 0
M  V30 6630 C 622.224 -1.4734 5.05151 0
M  V30 6631 O 621.25 -0.984312 5.60625 0
M  V30 6632 N 622.452 -2.8075 5.08094 0
M  V30 6633 H 625.217 0.645834 2.92659 0
M  V30 6634 H 622.778 0.489567 1.54321 0
M  V30 6635 H 624.77 -1.78505 3.63205 0
M  V30 6636 H 623.34 -1.78001 2.56971 0
M  V30 6637 H 622.56 0.300079 3.93056 0
M  V30 6638 H 623.848 -0.080401 5.08736 0
M  V30 6639 H 623.246 -3.23052 4.64386 0
M  V30 6640 H 621.803 -3.40022 5.56083 0
M  V30 6641 N 625.236 -1.5273 0.388769 0
M  V30 6642 C 626.466 -2.05693 -0.193397 0
M  V30 6643 C 626.874 -1.26038 -1.41107 0
M  V30 6644 O 626.217 -0.30001 -1.81234 0
M  V30 6645 C 626.279 -3.53962 -0.628561 0
M  V30 6646 C 625.943 -4.54519 0.475576 0
M  V30 6647 C 626.94 -5.02526 1.33281 0
M  V30 6648 C 624.625 -4.98174 0.642453 0
M  V30 6649 C 626.619 -5.92812 2.34205 0
M  V30 6650 C 624.306 -5.88262 1.65503 0
M  V30 6651 C 625.304 -6.35473 2.50325 0
M  V30 6652 O 624.992 -7.23781 3.49852 0
M  V30 6653 H 624.724 -0.675197 -0.0329395 0
M  V30 6654 H 627.278 -1.97835 0.552326 0
M  V30 6655 H 625.508 -3.59437 -1.42625 0
M  V30 6656 H 627.197 -3.89669 -1.13633 0
M  V30 6657 H 627.963 -4.6953 1.21519 0
M  V30 6658 H 623.842 -4.60999 -0.00805093 0
M  V30 6659 H 627.386 -6.29585 3.00447 0
M  V30 6660 H 623.283 -6.20672 1.77304 0
M  V30 6661 H 624.051 -7.4184 3.45855 0
M  V30 6662 N 626.714 -0.118576 -1.57153 0
M  V30 6663 C 627.96 0.540326 -1.95469 0
M  V30 6664 C 628.293 1.66356 -1.00196 0
M  V30 6665 O 627.568 1.94461 -0.039104 0
M  V30 6666 C 627.851 1.07342 -3.43729 0
M  V30 6667 C 627.704 -0.0463732 -4.49776 0
M  V30 6668 C 629.023 1.96442 -3.93826 0
M  V30 6669 H 626.142 0.19494 -0.710751 0
M  V30 6670 H 628.784 -0.19405 -1.89006 0
M  V30 6671 H 626.934 1.69925 -3.49368 0
M  V30 6672 H 628.606 -0.681648 -4.56236 0
M  V30 6673 H 626.849 -0.709574 -4.27957 0
M  V30 6674 H 627.52 0.367856 -5.50773 0
M  V30 6675 H 629.996 1.43731 -3.90488 0
M  V30 6676 H 628.872 2.3066 -4.98084 0
M  V30 6677 H 629.133 2.89077 -3.34495 0
M  V30 6678 N 628.193 1.56834 0.155195 0
M  V30 6679 C 629.103 2.009 1.21146 0
M  V30 6680 C 630.119 0.923029 1.475 0
M  V30 6681 O 631.295 1.23189 1.59331 0
M  V30 6682 C 628.36 2.37378 2.52691 0
M  V30 6683 C 627.421 3.59883 2.34057 0
M  V30 6684 C 626.654 3.94612 3.59329 0
M  V30 6685 O 626.877 3.30104 4.65175 0
M  V30 6686 O 625.811 4.87895 3.52479 0
M  V30 6687 H 629.637 2.9105 0.867371 0
M  V30 6688 H 627.222 1.44916 0.363298 0
M  V30 6689 H 629.104 2.61737 3.3026 0
M  V30 6690 H 627.779 1.50385 2.86646 0
M  V30 6691 H 626.686 3.40722 1.54465 0
M  V30 6692 H 628.019 4.47468 2.0502 0
M  V30 6693 N 629.671 -0.424282 1.51781 0
M  V30 6694 C 630.603 -1.53457 1.70246 0
M  V30 6695 C 631.616 -1.52004 0.582967 0
M  V30 6696 O 632.805 -1.56544 0.857683 0
M  V30 6697 C 629.905 -2.92368 1.71389 0
M  V30 6698 C 629.078 -3.1818 3.00133 0
M  V30 6699 C 628.137 -4.36884 2.9329 0
M  V30 6700 O 627.163 -4.34901 3.67219 0
M  V30 6701 N 628.365 -5.4117 2.10036 0
M  V30 6702 H 631.13 -1.38017 2.66029 0
M  V30 6703 H 628.691 -0.613394 1.4983 0
M  V30 6704 H 630.683 -3.6982 1.64362 0
M  V30 6705 H 629.253 -3.0134 0.831449 0
M  V30 6706 H 628.473 -2.28908 3.20928 0
M  V30 6707 H 629.761 -3.32261 3.85331 0
M  V30 6708 H 629.159 -5.45623 1.49373 0
M  V30 6709 H 627.716 -6.17425 2.08878 0
M  V30 6710 N 631.149 -1.42148 -0.680565 0
M  V30 6711 C 632.079 -1.4796 -1.80638 0
M  V30 6712 C 633.06 -0.336728 -1.66734 0
M  V30 6713 O 634.245 -0.550247 -1.86242 0
M  V30 6714 C 631.375 -1.37569 -3.18892 0
M  V30 6715 C 630.329 -2.49823 -3.47524 0
M  V30 6716 C 629.655 -2.24491 -4.85291 0
M  V30 6717 C 630.955 -3.92144 -3.44994 0
M  V30 6718 H 632.649 -2.42184 -1.76032 0
M  V30 6719 H 630.195 -1.16566 -0.845481 0
M  V30 6720 H 632.148 -1.40243 -3.97379 0
M  V30 6721 H 630.872 -0.398357 -3.24162 0
M  V30 6722 H 629.531 -2.46455 -2.71395 0
M  V30 6723 H 629.179 -1.25066 -4.87204 0
M  V30 6724 H 628.879 -2.99722 -5.05411 0
M  V30 6725 H 630.403 -2.28906 -5.66069 0
M  V30 6726 H 631.817 -3.97145 -4.13459 0
M  V30 6727 H 630.214 -4.67179 -3.76648 0
M  V30 6728 H 631.284 -4.19225 -2.43676 0
M  V30 6729 N 632.627 0.916307 -1.28225 0
M  V30 6730 C 633.867 1.67964 -1.16479 0
M  V30 6731 C 634.231 1.8991 0.282494 0
M  V30 6732 O 635.432 2.63671 0.522607 0
M  V30 6733 C 633.703 3.00251 -1.93866 0
M  V30 6734 S 635.262 3.91353 -1.98465 0
M  V30 6735 H 632.08 0.576873 -0.415619 0
M  V30 6736 H 634.682 1.09006 -1.62289 0
M  V30 6737 H 633.386 2.81978 -2.98189 0
M  V30 6738 H 632.917 3.64257 -1.48595 0
M  V30 6739 H 634.932 4.84096 -1.0893 0
M  V30 6740 N 634.105 1.10431 1.1244 0
M  V30 6741 C 635.353 0.845045 1.83585 0
M  V30 6742 C 635.674 -0.631168 1.84503 0
M  V30 6743 O 634.944 -1.45825 1.30813 0
M  V30 6744 H 633.524 0.309628 0.679809 0
M  V30 6745 H 636.186 1.39458 1.36153 0
M  V30 6746 H 635.282 1.20786 2.8778 0
M  V30 6747 N 635.583 -1.29855 0.893053 0
M  V30 6748 C 636.994 -1.77946 0.564998 0
M  V30 6749 C 637.345 -1.73339 -0.919134 0
M  V30 6750 O 636.47 -1.3152 -1.71847 0
M  V30 6751 C 637.065 -3.23118 1.01883 0
M  V30 6752 C 635.624 -3.69013 0.742051 0
M  V30 6753 C 634.771 -2.50121 1.19727 0
M  V30 6754 H 637.722 -1.16611 1.07646 0
M  V30 6755 H 637.743 -3.78875 0.351249 0
M  V30 6756 H 637.255 -3.26439 2.09903 0
M  V30 6757 H 635.356 -3.71173 -0.325816 0
M  V30 6758 H 635.469 -4.60117 1.33527 0
M  V30 6759 H 633.833 -2.47128 0.616418 0
M  V30 6760 H 634.616 -2.56174 2.28538 0
M  V30 6761 N 637.061 -0.65484 -1.43351 0
M  V30 6762 C 638.291 -0.176429 -2.05845 0
M  V30 6763 C 638.699 1.16375 -1.49176 0
M  V30 6764 O 638.042 1.72981 -0.618322 0
M  V30 6765 C 638.104 -0.0125844 -3.59498 0
M  V30 6766 C 637.768 -1.27831 -4.38758 0
M  V30 6767 C 638.765 -2.2074 -4.70712 0
M  V30 6768 C 636.45 -1.52035 -4.78739 0
M  V30 6769 C 638.444 -3.36145 -5.41558 0
M  V30 6770 C 636.131 -2.67732 -5.49329 0
M  V30 6771 C 637.129 -3.59612 -5.80662 0
M  V30 6772 O 636.817 -4.73289 -6.4981 0
M  V30 6773 H 636.549 -0.0879682 -0.670252 0
M  V30 6774 H 639.103 -0.896193 -1.84818 0
M  V30 6775 H 637.333 0.762567 -3.79107 0
M  V30 6776 H 639.022 0.423392 -4.03686 0
M  V30 6777 H 639.788 -2.03284 -4.40341 0
M  V30 6778 H 635.667 -0.813987 -4.53757 0
M  V30 6779 H 639.211 -4.07881 -5.65932 0
M  V30 6780 H 635.108 -2.85122 -5.79116 0
M  V30 6781 H 635.876 -4.72575 -6.68293 0
M  V30 6782 N 638.539 1.52521 -0.396863 0
M  V30 6783 C 639.785 2.01971 0.183169 0
M  V30 6784 C 640.118 1.2825 1.45827 0
M  V30 6785 O 639.393 0.385179 1.90648 0
M  V30 6786 C 639.676 3.5736 0.443391 0
M  V30 6787 C 639.529 4.41743 -0.84753 0
M  V30 6788 C 640.848 4.22539 1.2308 0
M  V30 6789 H 637.967 0.734119 0.0650976 0
M  V30 6790 H 640.609 1.82519 -0.527918 0
M  V30 6791 H 638.759 3.74066 1.04914 0
M  V30 6792 H 640.431 4.36773 -1.48414 0
M  V30 6793 H 638.674 4.0845 -1.4612 0
M  V30 6794 H 639.345 5.48507 -0.620003 0
M  V30 6795 H 641.821 4.09857 0.718084 0
M  V30 6796 H 640.697 5.31227 1.38162 0
M  V30 6797 H 640.958 3.80675 2.24808 0
M  V30 6798 N 640.017 0.126909 1.57088 0
M  V30 6799 C 641.264 -0.529168 1.95464 0
M  V30 6800 C 641.592 -1.6618 1.01067 0
M  V30 6801 O 640.847 -1.95667 0.0360254 0
M  V30 6802 C 641.146 -1.095 3.40212 0
M  V30 6803 C 640.812 -0.0829015 4.50824 0
M  V30 6804 C 639.474 0.195377 4.80803 0
M  V30 6805 C 641.826 0.606411 5.1766 0
M  V30 6806 C 639.154 1.16912 5.74933 0
M  V30 6807 C 641.506 1.56884 6.12838 0
M  V30 6808 C 640.17 1.85502 6.41206 0
M  V30 6809 H 639.44 -0.193636 0.715252 0
M  V30 6810 H 642.087 0.209489 1.90351 0
M  V30 6811 H 640.392 -1.91058 3.42059 0
M  V30 6812 H 642.089 -1.61087 3.67222 0
M  V30 6813 H 638.679 -0.309979 4.27478 0
M  V30 6814 H 642.863 0.404597 4.94648 0
M  V30 6815 H 638.119 1.3975 5.95214 0
M  V30 6816 H 642.293 2.10859 6.6371 0
M  V30 6817 H 639.92 2.61109 7.13951 0
M  V30 6818 N 641.495 -1.56914 -0.146875 0
M  V30 6819 C 642.744 -1.82546 -0.857898 0
M  V30 6820 C 643.057 -0.708169 -1.8233 0
M  V30 6821 O 644.263 -0.850093 -2.57848 0
M  V30 6822 C 642.719 -3.23548 -1.57623 0
M  V30 6823 C 642.327 -4.43212 -0.653224 0
M  V30 6824 C 644.071 -3.58453 -2.27402 0
M  V30 6825 C 641.978 -5.75237 -1.37318 0
M  V30 6826 H 640.908 -0.680786 -0.32411 0
M  V30 6827 H 643.559 -1.83166 -0.110639 0
M  V30 6828 H 641.941 -3.17315 -2.36912 0
M  V30 6829 H 643.115 -4.60682 0.104452 0
M  V30 6830 H 641.43 -4.16351 -0.0638336 0
M  V30 6831 H 644.027 -4.54349 -2.81907 0
M  V30 6832 H 644.37 -2.84516 -3.03901 0
M  V30 6833 H 644.903 -3.66347 -1.55032 0
M  V30 6834 H 641.642 -6.52269 -0.650041 0
M  V30 6835 H 641.162 -5.61703 -2.10357 0
M  V30 6836 H 642.841 -6.18039 -1.91406 0
M  V30 6837 N 642.974 0.416227 -1.52004 0
M  V30 6838 C 644.223 1.16088 -1.64944 0
M  V30 6839 C 644.536 1.91835 -0.381928 0
M  V30 6840 O 645.742 2.6867 -0.391013 0
M  V30 6841 C 644.198 2.1124 -2.91386 0
M  V30 6842 C 643.806 1.41042 -4.25219 0
M  V30 6843 C 645.55 2.86008 -3.13688 0
M  V30 6844 C 643.457 2.34801 -5.42791 0
M  V30 6845 H 642.387 0.437041 -0.61442 0
M  V30 6846 H 645.038 0.425971 -1.78487 0
M  V30 6847 H 643.42 2.88254 -2.71525 0
M  V30 6848 H 644.594 0.694416 -4.55538 0
M  V30 6849 H 642.909 0.78344 -4.08964 0
M  V30 6850 H 645.506 3.56286 -3.98703 0
M  V30 6851 H 645.849 3.48556 -2.27628 0
M  V30 6852 H 646.382 2.16095 -3.33988 0
M  V30 6853 H 643.121 1.7691 -6.31176 0
M  V30 6854 H 642.641 3.04395 -5.16821 0
M  V30 6855 H 644.32 2.9548 -5.75587 0
M  V30 6856 N 644.452 1.42507 0.673017 0
M  V30 6857 C 645.699 1.43072 1.43306 0
M  V30 6858 C 646.027 0.0478004 1.94441 0
M  V30 6859 O 645.282 -0.944106 1.71421 0
M  V30 6860 C 645.581 2.40351 2.64511 0
M  V30 6861 C 645.247 3.8669 2.31908 0
M  V30 6862 C 643.909 4.26551 2.22728 0
M  V30 6863 C 646.261 4.78991 2.05467 0
M  V30 6864 C 643.589 5.56691 1.85234 0
M  V30 6865 C 645.941 6.09476 1.69477 0
M  V30 6866 C 644.605 6.48334 1.58808 0
M  V30 6867 H 643.875 0.523536 0.524395 0
M  V30 6868 H 646.522 1.75459 0.76723 0
M  V30 6869 H 644.827 2.01297 3.36135 0
M  V30 6870 H 646.524 2.38051 3.22696 0
M  V30 6871 H 643.114 3.55132 2.39956 0
M  V30 6872 H 647.298 4.48982 2.11492 0
M  V30 6873 H 642.554 5.85657 1.75545 0
M  V30 6874 H 646.728 6.80482 1.48043 0
M  V30 6875 H 644.355 7.49084 1.29525 0
M  V30 6876 N 645.93 -0.909495 1.28709 0
M  V30 6877 C 647.158 -1.69272 1.18973 0
M  V30 6878 C 647.573 -1.87123 -0.251048 0
M  V30 6879 O 646.93 -1.40127 -1.16922 0
M  V30 6880 C 646.981 -3.08257 1.88839 0
M  V30 6881 O 646.702 -2.91228 3.27289 0
M  V30 6882 C 648.203 -4.02642 1.85457 0
M  V30 6883 H 645.423 -0.528999 0.412797 0
M  V30 6884 H 647.967 -1.13803 1.69909 0
M  V30 6885 H 646.122 -3.6053 1.41762 0
M  V30 6886 H 646.536 -3.79223 3.6234 0
M  V30 6887 H 648.01 -4.97613 2.38925 0
M  V30 6888 H 648.487 -4.31327 0.827893 0
M  V30 6889 H 649.093 -3.56298 2.32233 0
M  V30 6890 N 647.408 -1.11026 -1.11852 0
M  V30 6891 C 648.654 -0.857729 -1.83768 0
M  V30 6892 C 648.987 0.615143 -1.842 0
M  V30 6893 O 648.262 1.45391 -1.29196 0
M  V30 6894 C 648.545 -1.41453 -3.31154 0
M  V30 6895 C 648.398 -2.95471 -3.39142 0
M  V30 6896 C 649.717 -1.0619 -4.27097 0
M  V30 6897 H 646.836 -0.313044 -0.667212 0
M  V30 6898 H 649.478 -1.37443 -1.31185 0
M  V30 6899 H 647.628 -0.975052 -3.76065 0
M  V30 6900 H 649.3 -3.4799 -3.02821 0
M  V30 6901 H 647.543 -3.31759 -2.79497 0
M  V30 6902 H 648.214 -3.29515 -4.42859 0
M  V30 6903 H 650.69 -1.44122 -3.90344 0
M  V30 6904 H 649.566 -1.47832 -5.28618 0
M  V30 6905 H 649.827 0.0278912 -4.42091 0
M  V30 6906 N 648.886 1.2938 -0.899927 0
M  V30 6907 C 649.816 2.30144 -0.39446 0
M  V30 6908 C 650.797 1.61611 0.530639 0
M  V30 6909 O 651.982 1.89119 0.441319 0
M  V30 6910 C 649.112 3.45229 0.37868 0
M  V30 6911 C 648.066 4.25564 -0.456012 0
M  V30 6912 C 647.392 5.32848 0.444637 0
M  V30 6913 C 648.692 4.93651 -1.70605 0
M  V30 6914 H 650.386 2.72673 -1.23653 0
M  V30 6915 H 647.932 1.31086 -0.596034 0
M  V30 6916 H 649.885 4.14797 0.743037 0
M  V30 6917 H 648.609 3.01545 1.25453 0
M  V30 6918 H 647.268 3.57704 -0.802704 0
M  V30 6919 H 646.916 4.85408 1.31863 0
M  V30 6920 H 646.616 5.87497 -0.110154 0
M  V30 6921 H 648.14 6.05268 0.805182 0
M  V30 6922 H 649.554 5.55655 -1.41141 0
M  V30 6923 H 647.951 5.58233 -2.20217 0
M  V30 6924 H 649.021 4.18926 -2.4419 0
M  V30 6925 N 650.364 0.662433 1.43002 0
M  V30 6926 C 651.294 -0.00979809 2.33498 0
M  V30 6927 C 652.275 -0.802329 1.49989 0
M  V30 6928 O 653.46 -0.761964 1.78627 0
M  V30 6929 C 650.59 -0.970446 3.33466 0
M  V30 6930 C 649.544 -0.287383 4.27034 0
M  V30 6931 C 648.87 -1.36012 5.17112 0
M  V30 6932 C 650.17 0.82595 5.15728 0
M  V30 6933 H 651.864 0.745959 2.89958 0
M  V30 6934 H 649.41 0.360172 1.39423 0
M  V30 6935 H 651.363 -1.44971 3.95679 0
M  V30 6936 H 650.087 -1.75748 2.75282 0
M  V30 6937 H 648.746 0.17152 3.66199 0
M  V30 6938 H 648.394 -2.13882 4.55262 0
M  V30 6939 H 648.094 -0.908276 5.80538 0
M  V30 6940 H 649.618 -1.84056 5.82199 0
M  V30 6941 H 651.032 0.42845 5.71697 0
M  V30 6942 H 649.429 1.20282 5.87922 0
M  V30 6943 H 650.499 1.68003 4.54866 0
M  V30 6944 N 651.842 -1.52309 0.404946 0
M  V30 6945 C 653.088 -2.02065 -0.172455 0
M  V30 6946 C 653.421 -1.29022 -1.45145 0
M  V30 6947 O 652.696 -0.395284 -1.90441 0
M  V30 6948 C 652.979 -3.5759 -0.424433 0
M  V30 6949 C 652.832 -4.41287 0.870945 0
M  V30 6950 C 654.151 -4.23186 -1.20837 0
M  V30 6951 H 651.27 -0.734454 -0.0612035 0
M  V30 6952 H 653.912 -1.82236 0.53759 0
M  V30 6953 H 652.062 -3.74617 -1.02929 0
M  V30 6954 H 653.734 -4.3598 1.50729 0
M  V30 6955 H 651.977 -4.07669 1.48284 0
M  V30 6956 H 652.648 -5.48171 0.649083 0
M  V30 6957 H 655.124 -4.10232 -0.696338 0
M  V30 6958 H 654 -5.31953 -1.35343 0
M  V30 6959 H 654.261 -3.81862 -2.22786 0
M  V30 6960 N 653.32 -0.135238 -1.57019 0
M  V30 6961 C 654.25 0.805235 -2.19176 0
M  V30 6962 C 655.231 1.2656 -1.13651 0
M  V30 6963 O 656.416 1.32528 -1.4195 0
M  V30 6964 C 653.546 2.04914 -2.80406 0
M  V30 6965 C 652.5 1.72598 -3.91655 0
M  V30 6966 C 651.826 3.04154 -4.39766 0
M  V30 6967 C 653.126 0.981709 -5.12991 0
M  V30 6968 H 654.82 0.287232 -2.98019 0
M  V30 6969 H 652.366 0.136714 -1.4335 0
M  V30 6970 H 654.319 2.71178 -3.22553 0
M  V30 6971 H 653.043 2.59067 -1.98877 0
M  V30 6972 H 651.702 1.08717 -3.50109 0
M  V30 6973 H 651.35 3.56274 -3.55075 0
M  V30 6974 H 651.05 2.83299 -5.14796 0
M  V30 6975 H 652.574 3.71509 -4.84576 0
M  V30 6976 H 653.988 1.5462 -5.52056 0
M  V30 6977 H 652.385 0.873533 -5.93708 0
M  V30 6978 H 653.455 -0.0286887 -4.84892 0
M  V30 6979 N 654.798 1.5699 0.138552 0
M  V30 6980 C 656.045 1.83809 0.849732 0
M  V30 6981 C 656.373 0.717409 1.80786 0
M  V30 6982 O 655.628 -0.292897 1.93496 0
M  V30 6983 C 655.927 3.17007 1.65049 0
M  V30 6984 C 655.593 4.43037 0.838398 0
M  V30 6985 C 654.255 4.77262 0.614385 0
M  V30 6986 C 656.607 5.20495 0.271044 0
M  V30 6987 C 653.935 5.864 -0.187552 0
M  V30 6988 C 656.287 6.30476 -0.517979 0
M  V30 6989 C 654.951 6.63245 -0.75249 0
M  V30 6990 H 654.221 0.672605 0.310939 0
M  V30 6991 H 656.868 1.91166 0.112971 0
M  V30 6992 H 655.173 3.05138 2.4576 0
M  V30 6993 H 656.87 3.34975 2.20437 0
M  V30 6994 H 653.46 4.16211 1.02307 0
M  V30 6995 H 657.644 4.94422 0.431371 0
M  V30 6996 H 652.9 6.10226 -0.378659 0
M  V30 6997 H 657.074 6.89686 -0.964694 0
M  V30 6998 H 654.701 7.47648 -1.37573 0
M  V30 6999 N 656.276 -0.40816 1.52223 0
M  V30 7000 C 657.523 -1.15502 1.66329 0
M  V30 7001 C 657.851 -1.90474 0.393701 0
M  V30 7002 O 657.106 -1.85507 -0.623356 0
M  V30 7003 C 657.405 -2.17422 2.83659 0
M  V30 7004 C 657.071 -1.5925 4.21841 0
M  V30 7005 C 655.733 -1.4311 4.59427 0
M  V30 7006 C 658.085 -1.16776 5.0795 0
M  V30 7007 C 655.413 -0.830148 5.80797 0
M  V30 7008 C 657.765 -0.580988 6.29926 0
M  V30 7009 C 656.429 -0.406729 6.6626 0
M  V30 7010 H 655.699 -0.422653 0.608642 0
M  V30 7011 H 658.346 -0.442114 1.86327 0
M  V30 7012 H 656.651 -2.94861 2.58001 0
M  V30 7013 H 658.348 -2.75084 2.9177 0
M  V30 7014 H 654.938 -1.72796 3.92224 0
M  V30 7015 H 659.122 -1.28055 4.79495 0
M  V30 7016 H 654.378 -0.68316 6.07571 0
M  V30 7017 H 658.552 -0.243488 6.95974 0
M  V30 7018 H 656.179 0.0610366 7.60175 0
M  V30 7019 N 657.755 -1.42862 -0.66545 0
M  V30 7020 C 659.004 -1.43119 -1.42126 0
M  V30 7021 C 659.317 -0.0545297 -1.95524 0
M  V30 7022 O 660.523 0.0654747 -2.71421 0
M  V30 7023 C 658.979 -2.51797 -2.5715 0
M  V30 7024 C 658.587 -3.95514 -2.10411 0
M  V30 7025 C 660.331 -2.61233 -3.346 0
M  V30 7026 C 658.238 -4.95682 -3.22573 0
M  V30 7027 H 657.168 -0.532349 -0.533966 0
M  V30 7028 H 659.819 -1.68806 -0.719506 0
M  V30 7029 H 658.201 -2.19292 -3.29738 0
M  V30 7030 H 659.375 -4.3742 -1.44915 0
M  V30 7031 H 657.69 -3.90012 -1.45874 0
M  V30 7032 H 660.287 -3.33248 -4.18151 0
M  V30 7033 H 660.63 -1.65896 -3.81817 0
M  V30 7034 H 661.163 -2.9298 -2.69087 0
M  V30 7035 H 657.902 -5.92529 -2.80338 0
M  V30 7036 H 657.422 -4.58399 -3.86821 0
M  V30 7037 H 659.101 -5.17828 -3.87896 0
M  V30 7038 N 659.233 0.902656 -1.29189 0
M  V30 7039 C 660.48 1.65287 -1.16989 0
M  V30 7040 C 660.808 1.92485 0.279232 0
M  V30 7041 O 660.063 1.53143 1.21843 0
M  V30 7042 C 660.362 3.011 -1.92545 0
M  V30 7043 C 660.028 2.93521 -3.42281 0
M  V30 7044 C 658.69 2.91161 -3.83117 0
M  V30 7045 C 661.042 2.82947 -4.3771 0
M  V30 7046 C 658.37 2.76043 -5.17704 0
M  V30 7047 C 660.722 2.69368 -5.72384 0
M  V30 7048 C 659.386 2.65373 -6.12482 0
M  V30 7049 H 658.656 0.604828 -0.428094 0
M  V30 7050 H 661.303 1.05084 -1.60092 0
M  V30 7051 H 659.608 3.65153 -1.42024 0
M  V30 7052 H 661.305 3.58073 -1.80512 0
M  V30 7053 H 657.895 2.96158 -3.09819 0
M  V30 7054 H 662.079 2.83849 -4.07116 0
M  V30 7055 H 657.335 2.71352 -5.47885 0
M  V30 7056 H 661.509 2.60156 -6.45981 0
M  V30 7057 H 659.136 2.53415 -7.16718 0
M  V30 7058 N 660.711 1.11618 1.11262 0
M  V30 7059 C 661.939 0.888739 1.8684 0
M  V30 7060 C 662.354 -0.561558 1.80255 0
M  V30 7061 O 661.711 -1.38782 1.18515 0
M  V30 7062 C 661.762 1.34422 3.35579 0
M  V30 7063 O 661.483 2.73766 3.42029 0
M  V30 7064 C 662.984 1.15246 4.28058 0
M  V30 7065 H 660.204 0.318152 0.590779 0
M  V30 7066 H 662.748 1.48398 1.40707 0
M  V30 7067 H 660.903 0.79239 3.7921 0
M  V30 7068 H 661.317 2.9355 4.34659 0
M  V30 7069 H 662.791 1.52015 5.30656 0
M  V30 7070 H 663.268 0.0922007 4.39103 0
M  V30 7071 H 663.874 1.69136 3.90222 0
M  V30 7072 N 662.189 -1.289 0.906776 0
M  V30 7073 C 663.419 -1.99112 0.551168 0
M  V30 7074 C 663.827 -1.67998 -0.870243 0
M  V30 7075 O 663.17 -0.92525 -1.58697 0
M  V30 7076 C 663.232 -3.53162 0.672065 0
M  V30 7077 C 662.896 -4.07849 2.06174 0
M  V30 7078 C 663.893 -4.22212 3.0337 0
M  V30 7079 C 661.578 -4.4271 2.37304 0
M  V30 7080 C 663.572 -4.70678 4.29815 0
M  V30 7081 C 661.259 -4.90871 3.6399 0
M  V30 7082 C 662.257 -5.04811 4.6006 0
M  V30 7083 O 661.945 -5.51925 5.84495 0
M  V30 7084 H 661.677 -0.642728 0.209469 0
M  V30 7085 H 664.231 -1.65234 1.22012 0
M  V30 7086 H 662.461 -3.86662 -0.05394 0
M  V30 7087 H 664.15 -4.046 0.324579 0
M  V30 7088 H 664.916 -3.9556 2.80637 0
M  V30 7089 H 660.795 -4.31114 1.63283 0
M  V30 7090 H 664.339 -4.81474 5.04806 0
M  V30 7091 H 660.236 -5.16961 3.86551 0
M  V30 7092 H 661.004 -5.70225 5.87185 0
M  V30 7093 N 663.667 -0.670007 -1.42649 0
M  V30 7094 C 664.914 -0.190286 -2.01604 0
M  V30 7095 C 665.242 1.20155 -1.52948 0
M  V30 7096 O 664.497 1.81964 -0.72026 0
M  V30 7097 C 664.796 -0.168298 -3.57004 0
M  V30 7098 C 664.462 -1.50415 -4.25072 0
M  V30 7099 C 663.124 -1.86992 -4.43382 0
M  V30 7100 C 665.476 -2.38414 -4.63474 0
M  V30 7101 C 662.804 -3.11203 -4.97363 0
M  V30 7102 C 665.156 -3.61933 -5.18833 0
M  V30 7103 C 663.82 -3.98685 -5.35356 0
M  V30 7104 H 663.09 -0.0696305 -0.737721 0
M  V30 7105 H 665.737 -0.864044 -1.70899 0
M  V30 7106 H 664.042 0.588958 -3.87348 0
M  V30 7107 H 665.739 0.22001 -4.00396 0
M  V30 7108 H 662.329 -1.20959 -4.11177 0
M  V30 7109 H 666.513 -2.11442 -4.49006 0
M  V30 7110 H 661.769 -3.39705 -5.08341 0
M  V30 7111 H 665.943 -4.30326 -5.47533 0
M  V30 7112 H 663.57 -4.95009 -5.76949 0
M  V30 7113 N 665.145 1.52092 -0.413018 0
M  V30 7114 C 666.092 2.27119 0.410558 0
M  V30 7115 C 667.062 1.29692 1.03774 0
M  V30 7116 O 668.247 1.58561 1.06128 0
M  V30 7117 C 665.387 3.09863 1.51918 0
M  V30 7118 C 664.5 4.22252 0.912528 0
M  V30 7119 C 663.635 4.92348 1.99417 0
M  V30 7120 C 662.674 5.96694 1.36466 0
M  V30 7121 N 661.811 6.60292 2.38661 0
M  V30 7122 H 666.651 2.97067 -0.235661 0
M  V30 7123 H 664.188 1.46542 -0.128055 0
M  V30 7124 H 666.146 3.56144 2.17295 0
M  V30 7125 H 664.776 2.42078 2.13537 0
M  V30 7126 H 663.828 3.80113 0.147697 0
M  V30 7127 H 665.14 4.9709 0.412717 0
M  V30 7128 H 664.294 5.42054 2.72512 0
M  V30 7129 H 663.033 4.17087 2.52764 0
M  V30 7130 H 662.038 5.46304 0.61906 0
M  V30 7131 H 663.263 6.73899 0.838827 0
M  V30 7132 H 661.209 5.87858 2.91134 0
M  V30 7133 H 661.126 7.30816 1.93503 0
M  V30 7134 H 662.394 7.14635 3.11314 0
M  V30 7135 N 666.623 0.143563 1.56945 0
M  V30 7136 C 667.869 -0.50916 1.96304 0
M  V30 7137 C 668.202 -1.64741 1.0283 0
M  V30 7138 O 667.477 -1.94374 0.0700361 0
M  V30 7139 C 667.76 -1.0186 3.45393 0
M  V30 7140 C 667.613 0.117923 4.49645 0
M  V30 7141 C 668.932 -1.90151 3.96901 0
M  V30 7142 H 666.051 -0.183608 0.713763 0
M  V30 7143 H 668.693 0.224095 1.88674 0
M  V30 7144 H 666.843 -1.64345 3.52027 0
M  V30 7145 H 668.515 0.754145 4.55094 0
M  V30 7146 H 666.758 0.777568 4.26774 0
M  V30 7147 H 667.429 -0.280187 5.51288 0
M  V30 7148 H 669.905 -1.375 3.92725 0
M  V30 7149 H 668.781 -2.22707 5.0169 0
M  V30 7150 H 669.042 -2.83718 3.39052 0
M  V30 7151 N 668.101 -1.57061 -0.130224 0
M  V30 7152 C 669.512 -1.73539 -0.68856 0
M  V30 7153 C 669.863 -0.760554 -1.80859 0
M  V30 7154 O 668.988 0.0690796 -2.1629 0
M  V30 7155 C 669.583 -3.14666 -1.25581 0
M  V30 7156 C 668.142 -3.32689 -1.76055 0
M  V30 7157 C 667.289 -2.69436 -0.655712 0
M  V30 7158 H 670.24 -1.58412 0.0956002 0
M  V30 7159 H 670.261 -3.15595 -2.12556 0
M  V30 7160 H 669.773 -3.85593 -0.440412 0
M  V30 7161 H 667.874 -2.66786 -2.60108 0
M  V30 7162 H 667.987 -4.4077 -1.87772 0
M  V30 7163 H 666.351 -2.30362 -1.08654 0
M  V30 7164 H 667.134 -3.42979 0.14852 0
M  V30 7165 N 669.579 0.400081 -1.52437 0
M  V30 7166 C 670.489 1.51253 -1.79331 0
M  V30 7167 C 671.505 1.60188 -0.679396 0
M  V30 7168 O 672.681 1.76733 -0.965791 0
M  V30 7169 C 669.746 2.869 -1.94652 0
M  V30 7170 C 668.807 2.87777 -3.18564 0
M  V30 7171 C 668.04 4.16954 -3.33145 0
M  V30 7172 O 668.263 5.11329 -2.52783 0
M  V30 7173 O 667.197 4.2487 -4.26343 0
M  V30 7174 H 671.023 1.31461 -2.73773 0
M  V30 7175 H 668.608 0.586834 -1.37392 0
M  V30 7176 H 670.49 3.67336 -2.065 0
M  V30 7177 H 669.165 3.06741 -1.034 0
M  V30 7178 H 668.072 2.06162 -3.12167 0
M  V30 7179 H 669.405 2.72886 -4.09627 0
M  V30 7180 N 671.057 1.43213 0.657864 0
M  V30 7181 C 672.285 1.48015 1.44566 0
M  V30 7182 C 672.7 0.0965951 1.88553 0
M  V30 7183 O 672.057 -0.892221 1.59203 0
M  V30 7184 C 672.108 2.42199 2.68369 0
M  V30 7185 O 671.829 3.75173 2.26223 0
M  V30 7186 C 673.33 2.56195 3.61772 0
M  V30 7187 H 670.55 0.502861 0.444266 0
M  V30 7188 H 673.094 1.87907 0.806917 0
M  V30 7189 H 671.249 2.05514 3.28394 0
M  V30 7190 H 671.663 4.25776 3.06293 0
M  V30 7191 H 673.137 3.26182 4.4532 0
M  V30 7192 H 673.614 1.60534 4.0881 0
M  V30 7193 H 674.22 2.93671 3.07632 0
M  V30 7194 N 672.536 -0.895792 1.29666 0
M  V30 7195 C 673.483 -2.00035 1.15129 0
M  V30 7196 C 674.453 -1.66043 0.0435819 0
M  V30 7197 O 675.638 -1.89621 0.211811 0
M  V30 7198 C 672.778 -3.34774 0.83787 0
M  V30 7199 C 671.891 -3.81525 2.0264 0
M  V30 7200 C 671.026 -5.04858 1.65201 0
M  V30 7201 C 670.065 -5.43988 2.80612 0
M  V30 7202 N 669.202 -6.58507 2.43544 0
M  V30 7203 H 674.042 -2.11802 2.09628 0
M  V30 7204 H 671.579 -1.03719 1.04311 0
M  V30 7205 H 673.537 -4.12311 0.636824 0
M  V30 7206 H 672.167 -3.22724 -0.0702314 0
M  V30 7207 H 671.219 -2.9999 2.33903 0
M  V30 7208 H 672.531 -4.06472 2.89106 0
M  V30 7209 H 671.685 -5.8999 1.41408 0
M  V30 7210 H 670.424 -4.81759 0.758893 0
M  V30 7211 H 669.429 -4.57388 3.05083 0
M  V30 7212 H 670.654 -5.69066 3.70595 0
M  V30 7213 H 668.6 -6.37004 1.56724 0
M  V30 7214 H 668.517 -6.83269 3.23542 0
M  V30 7215 H 669.785 -7.46897 2.2308 0
M  V30 7216 N 674.014 -1.12206 -1.10668 0
M  V30 7217 C 675.262 -0.874144 -1.82217 0
M  V30 7218 C 675.583 0.601736 -1.85484 0
M  V30 7219 O 674.853 1.43725 -1.33116 0
M  V30 7220 H 673.433 -0.320404 -0.674797 0
M  V30 7221 H 676.095 -1.41606 -1.33917 0
M  V30 7222 H 675.191 -1.25349 -2.85822 0
M  V30 7223 N 675.492 1.28418 -0.913599 0
M  V30 7224 C 676.908 1.47411 -0.611728 0
M  V30 7225 C 677.108 1.83018 0.843008 0
M  V30 7226 O 676.164 1.93505 1.6221 0
M  V30 7227 C 677.477 2.57703 -1.5495 0
M  V30 7228 C 679.025 2.71572 -1.5562 0
M  V30 7229 C 679.5 3.85008 -2.48058 0
M  V30 7230 N 680.991 3.92361 -2.46184 0
M  V30 7231 C 681.726 4.79516 -3.14407 0
M  V30 7232 N 681.222 5.71262 -3.91958 0
M  V30 7233 N 683.015 4.73125 -3.03495 0
M  V30 7234 H 675.166 1.03585 -1.85429 0
M  V30 7235 H 677.429 0.515907 -0.795326 0
M  V30 7236 H 677.135 2.38298 -2.58663 0
M  V30 7237 H 677.009 3.54801 -1.28048 0
M  V30 7238 H 679.396 2.90366 -0.526441 0
M  V30 7239 H 679.477 1.75006 -1.86565 0
M  V30 7240 H 679.121 3.66969 -3.51136 0
M  V30 7241 H 679.051 4.80971 -2.14416 0
M  V30 7242 H 681.542 3.26749 -1.89851 0
M  V30 7243 H 681.855 6.34593 -4.41034 0
M  V30 7244 H 680.2 5.71103 -3.96063 0
M  V30 7245 H 683.391 4.00442 -2.42413 0
M  V30 7246 H 683.564 5.40834 -3.56935 0
M  V30 7247 N 676.97 0.677563 1.42291 0
M  V30 7248 C 678.198 0.209459 2.05837 0
M  V30 7249 C 678.613 -1.13444 1.50917 0
M  V30 7250 O 677.97 -1.70529 0.65008 0
M  V30 7251 C 678.021 0.138819 3.61233 0
M  V30 7252 O 677.742 1.42962 4.14118 0
M  V30 7253 C 679.243 -0.352449 4.41897 0
M  V30 7254 H 676.463 0.101209 0.663323 0
M  V30 7255 H 679.007 0.925077 1.8238 0
M  V30 7256 H 677.162 -0.527505 3.83792 0
M  V30 7257 H 677.576 1.3048 5.08011 0
M  V30 7258 H 679.05 -0.350778 5.50884 0
M  V30 7259 H 679.527 -1.3882 4.16684 0
M  V30 7260 H 680.133 0.282236 4.24362 0
M  V30 7261 N 678.448 -1.51871 0.421078 0
M  V30 7262 C 679.695 -2.01938 -0.15079 0
M  V30 7263 C 680.023 -1.30611 -1.44121 0
M  V30 7264 O 679.278 -0.404631 -1.91471 0
M  V30 7265 C 679.577 -3.54764 -0.433292 0
M  V30 7266 C 679.243 -4.44288 0.76936 0
M  V30 7267 C 677.905 -4.68477 1.09921 0
M  V30 7268 C 680.257 -4.96915 1.57242 0
M  V30 7269 C 677.585 -5.4254 2.2331 0
M  V30 7270 C 679.937 -5.7222 2.69716 0
M  V30 7271 C 678.601 -5.94678 3.03174 0
M  V30 7272 H 677.871 -0.738943 -0.0551781 0
M  V30 7273 H 680.518 -1.82977 0.564945 0
M  V30 7274 H 678.823 -3.71968 -1.23074 0
M  V30 7275 H 680.52 -3.91023 -0.888922 0
M  V30 7276 H 677.11 -4.25646 0.502305 0
M  V30 7277 H 681.294 -4.78125 1.3308 0
M  V30 7278 H 676.55 -5.58146 2.49565 0
M  V30 7279 H 680.724 -6.11992 3.32323 0
M  V30 7280 H 678.351 -6.51848 3.9115 0
M  V30 7281 N 679.926 -0.151884 -1.56866 0
M  V30 7282 C 681.203 0.543328 -1.87902 0
M  V30 7283 C 681.583 1.82636 -1.05864 0
M  V30 7284 O 680.931 2.28028 -0.146868 0
M  V30 7285 C 681.141 0.804056 -3.39611 0
M  V30 7286 C 682.489 1.14267 -4.08935 0
M  V30 7287 O 683.513 0.893248 -3.44818 0
M  V30 7288 O 682.372 1.61229 -5.22176 0
M  V30 7289 H 679.466 0.277724 -0.778973 0
M  V30 7290 H 682.012 -0.188862 -1.68646 0
M  V30 7291 H 680.784 -0.103772 -3.91162 0
M  V30 7292 H 680.407 1.59025 -3.64413 0
M  V30 7293 N 681.404 1.57128 0.121893 0
M  V30 7294 C 682.314 2.03425 1.16857 0
M  V30 7295 C 683.33 0.954108 1.45509 0
M  V30 7296 O 684.506 1.26541 1.56682 0
M  V30 7297 C 681.571 2.42685 2.47599 0
M  V30 7298 C 680.632 3.64767 2.2637 0
M  V30 7299 C 679.865 4.02145 3.50878 0
M  V30 7300 O 680.088 3.39897 4.58068 0
M  V30 7301 O 679.022 4.95262 3.42051 0
M  V30 7302 H 682.848 2.92825 0.80544 0
M  V30 7303 H 680.433 1.45654 0.332477 0
M  V30 7304 H 682.315 2.68684 3.24634 0
M  V30 7305 H 680.99 1.56432 2.83392 0
M  V30 7306 H 679.897 3.43922 1.47203 0
M  V30 7307 H 681.23 4.51716 1.95482 0
M  V30 7308 N 682.882 -0.391992 1.52647 0
M  V30 7309 C 684.131 -1.13449 1.6677 0
M  V30 7310 C 684.444 -1.91203 0.412399 0
M  V30 7311 O 685.65 -2.68013 0.433707 0
M  V30 7312 C 684.106 -2.06577 2.9471 0
M  V30 7313 C 683.714 -1.3426 4.27409 0
M  V30 7314 C 685.458 -2.80981 3.18198 0
M  V30 7315 C 683.365 -2.26136 5.46458 0
M  V30 7316 H 682.295 -0.427211 0.621295 0
M  V30 7317 H 684.946 -0.397522 1.79142 0
M  V30 7318 H 683.328 -2.83898 2.76076 0
M  V30 7319 H 684.502 -0.621856 4.56585 0
M  V30 7320 H 682.817 -0.718279 4.10158 0
M  V30 7321 H 685.414 -3.49898 4.04321 0
M  V30 7322 H 685.757 -3.44891 2.33144 0
M  V30 7323 H 686.29 -2.10754 3.37383 0
M  V30 7324 H 683.029 -1.66846 6.33911 0
M  V30 7325 H 682.549 -2.96134 5.21598 0
M  V30 7326 H 684.228 -2.86286 5.80215 0
M  V30 7327 N 684.36 -1.4356 -0.65026 0
M  V30 7328 C 685.323 -1.48615 -1.74489 0
M  V30 7329 C 686.323 -0.370483 -1.56474 0
M  V30 7330 O 687.513 -0.632351 -1.62317 0
M  V30 7331 C 684.645 -1.34161 -3.13391 0
M  V30 7332 H 685.838 -2.46103 -1.71387 0
M  V30 7333 H 683.391 -1.30369 -0.862186 0
M  V30 7334 H 684.126 -0.376918 -3.22102 0
M  V30 7335 H 683.911 -2.1504 -3.27872 0
M  V30 7336 H 685.401 -1.40637 -3.93206 0
M  V30 7337 N 685.838 0.888903 -1.30139 0
M  V30 7338 C 687.063 1.67884 -1.21777 0
M  V30 7339 C 687.488 1.86848 0.216689 0
M  V30 7340 O 686.846 1.39659 1.15608 0
M  V30 7341 C 686.894 3.03483 -1.94757 0
M  V30 7342 O 685.998 3.92294 -1.27198 0
M  V30 7343 H 685.339 0.513144 -0.421402 0
M  V30 7344 H 687.869 1.10968 -1.71893 0
M  V30 7345 H 687.879 3.53553 -2.03627 0
M  V30 7346 H 686.554 2.89 -2.99085 0
M  V30 7347 H 685.131 3.50732 -1.26655 0
M  V30 7348 N 687.317 1.12792 1.10072 0
M  V30 7349 C 688.565 0.883796 1.81751 0
M  V30 7350 C 688.886 -0.591891 1.858 0
M  V30 7351 O 688.156 -1.43017 1.33876 0
M  V30 7352 H 686.736 0.323978 0.673088 0
M  V30 7353 H 689.398 1.42314 1.33164 0
M  V30 7354 H 688.494 1.26863 2.85153 0
M  V30 7355 N 688.795 -1.27931 0.920396 0
M  V30 7356 C 690.042 -1.94689 0.557007 0
M  V30 7357 C 690.37 -1.724 -0.900476 0
M  V30 7358 O 689.625 -1.04194 -1.65657 0
M  V30 7359 C 689.924 -3.47853 0.820558 0
M  V30 7360 C 689.59 -3.90252 2.25863 0
M  V30 7361 C 688.252 -4.01539 2.65179 0
M  V30 7362 C 690.604 -4.11853 3.19415 0
M  V30 7363 C 687.932 -4.3181 3.97187 0
M  V30 7364 C 690.284 -4.43606 4.50995 0
M  V30 7365 C 688.948 -4.53105 4.90155 0
M  V30 7366 H 688.218 -0.712416 0.203823 0
M  V30 7367 H 690.865 -1.52142 1.16298 0
M  V30 7368 H 689.17 -3.91578 0.131844 0
M  V30 7369 H 690.867 -3.97634 0.51847 0
M  V30 7370 H 687.457 -3.81999 1.94358 0
M  V30 7371 H 691.641 -4.0258 2.90246 0
M  V30 7372 H 686.897 -4.37371 4.2722 0
M  V30 7373 H 691.071 -4.59268 5.23494 0
M  V30 7374 H 688.698 -4.76315 5.92476 0
M  V30 7375 N 690.273 -0.685099 -1.4193 0
M  V30 7376 C 691.689 -0.355632 -1.55587 0
M  V30 7377 C 691.889 1.13823 -1.66273 0
M  V30 7378 O 690.945 1.92387 -1.63534 0
M  V30 7379 C 692.258 -1.09498 -2.80055 0
M  V30 7380 C 693.806 -1.07831 -2.93839 0
M  V30 7381 C 694.281 -1.79919 -4.21181 0
M  V30 7382 N 695.772 -1.76837 -4.28115 0
M  V30 7383 C 696.507 -2.29463 -5.25485 0
M  V30 7384 N 696.003 -2.90516 -6.28945 0
M  V30 7385 N 697.796 -2.19779 -5.17353 0
M  V30 7386 H 689.947 -1.65412 -1.33239 0
M  V30 7387 H 692.21 -0.697453 -0.642078 0
M  V30 7388 H 691.916 -2.14997 -2.78333 0
M  V30 7389 H 691.79 -0.666813 -3.71259 0
M  V30 7390 H 694.177 -0.0316152 -2.95083 0
M  V30 7391 H 694.258 -1.54545 -2.03837 0
M  V30 7392 H 693.902 -2.84562 -4.20698 0
M  V30 7393 H 693.832 -1.30647 -5.10136 0
M  V30 7394 H 696.323 -1.32315 -3.53979 0
M  V30 7395 H 696.636 -3.28266 -6.99615 0
M  V30 7396 H 694.981 -2.94589 -6.29478 0
M  V30 7397 H 698.172 -1.71763 -4.35448 0
M  V30 7398 H 698.345 -2.61097 -5.9307 0
M  V30 7399 N 691.751 1.51645 -0.429126 0
M  V30 7400 C 692.683 2.25279 0.422124 0
M  V30 7401 C 693.696 1.28986 0.993299 0
M  V30 7402 O 694.885 1.54797 0.888836 0
M  V30 7403 C 691.985 2.98666 1.60162 0
M  V30 7404 C 691.158 4.2199 1.15078 0
M  V30 7405 C 690.217 4.78028 2.19946 0
M  V30 7406 O 689.243 5.40084 1.79716 0
M  V30 7407 N 690.445 4.61342 3.5234 0
M  V30 7408 H 693.21 2.98971 -0.208931 0
M  V30 7409 H 690.771 1.59838 -0.257568 0
M  V30 7410 H 692.763 3.33044 2.29922 0
M  V30 7411 H 691.333 2.28036 2.13818 0
M  V30 7412 H 690.553 3.932 0.280552 0
M  V30 7413 H 691.841 5.02037 0.826831 0
M  V30 7414 H 691.239 4.11894 3.87763 0
M  V30 7415 H 689.796 5.00104 4.18019 0
M  V30 7416 N 693.229 0.160201 1.56784 0
M  V30 7417 C 694.477 -0.486625 1.96154 0
M  V30 7418 C 694.798 -1.64525 1.04673 0
M  V30 7419 O 694.068 -1.95586 0.110864 0
M  V30 7420 H 692.648 -0.182764 0.724297 0
M  V30 7421 H 695.31 0.238787 1.93432 0
M  V30 7422 H 694.406 -0.854025 3.00188 0
M  V30 7423 N 694.707 -1.5719 -0.113559 0
M  V30 7424 C 695.955 -1.84772 -0.818761 0
M  V30 7425 C 696.276 -0.746196 -1.80158 0
M  V30 7426 O 695.546 0.229305 -1.94553 0
M  V30 7427 H 694.126 -0.681737 -0.305359 0
M  V30 7428 H 696.788 -1.94645 -0.0995845 0
M  V30 7429 H 695.884 -2.80878 -1.36067 0
M  V30 7430 N 696.185 0.383891 -1.52853 0
M  V30 7431 C 697.148 1.45197 -1.77343 0
M  V30 7432 C 698.148 1.47362 -0.643522 0
M  V30 7433 O 699.338 1.48443 -0.911613 0
M  V30 7434 C 696.47 2.8445 -1.87885 0
M  V30 7435 H 697.663 1.24764 -2.72716 0
M  V30 7436 H 695.216 0.615939 -1.43652 0
M  V30 7437 H 695.951 3.10222 -0.94515 0
M  V30 7438 H 695.736 2.8428 -2.70051 0
M  V30 7439 H 697.226 3.61832 -2.08488 0
M  V30 7440 N 697.663 1.43903 0.642637 0
M  V30 7441 C 698.888 1.49758 1.43483 0
M  V30 7442 C 699.313 0.119911 1.87717 0
M  V30 7443 O 698.671 -0.888558 1.58033 0
M  V30 7444 C 698.719 2.45744 2.63898 0
M  V30 7445 O 697.823 1.95101 3.63331 0
M  V30 7446 H 697.164 0.506138 0.429791 0
M  V30 7447 H 699.694 1.88923 0.785438 0
M  V30 7448 H 699.704 2.63399 3.11584 0
M  V30 7449 H 698.379 3.45818 2.31046 0
M  V30 7450 H 696.956 1.87158 3.22531 0
M  V30 7451 N 699.141 -0.881989 1.30609 0
M  V30 7452 C 700.073 -1.99375 1.13058 0
M  V30 7453 C 701.086 -1.62636 0.0729879 0
M  V30 7454 O 702.275 -1.75621 0.319301 0
M  V30 7455 C 699.375 -3.31536 0.702651 0
M  V30 7456 C 698.548 -3.96693 1.84265 0
M  V30 7457 C 697.607 -5.07158 1.40277 0
M  V30 7458 O 696.633 -5.28628 2.11048 0
M  V30 7459 N 697.835 -5.79808 0.283449 0
M  V30 7460 H 700.6 -2.14981 2.08814 0
M  V30 7461 H 698.161 -1.05526 1.22784 0
M  V30 7462 H 700.153 -4.02804 0.391331 0
M  V30 7463 H 698.723 -3.12175 -0.162954 0
M  V30 7464 H 697.943 -3.1856 2.32192 0
M  V30 7465 H 699.231 -4.36964 2.60653 0
M  V30 7466 H 698.629 -5.64871 -0.306189 0
M  V30 7467 H 697.186 -6.51792 0.0315985 0
M  V30 7468 N 700.619 -1.13374 -1.09472 0
M  V30 7469 C 701.844 -0.918711 -1.85942 0
M  V30 7470 C 702.269 0.527225 -1.8056 0
M  V30 7471 O 701.627 1.37408 -1.18274 0
M  V30 7472 C 701.675 -1.41056 -3.31867 0
M  V30 7473 O 700.779 -0.595496 -4.08078 0
M  V30 7474 H 700.12 -0.329297 -0.576593 0
M  V30 7475 H 702.65 -1.50829 -1.38245 0
M  V30 7476 H 702.66 -1.41398 -3.82715 0
M  V30 7477 H 701.335 -2.46335 -3.35099 0
M  V30 7478 H 699.912 -0.659911 -3.67014 0
M  V30 7479 N 702.098 1.27442 -0.927168 0
M  V30 7480 C 703.375 1.89473 -0.485742 0
M  V30 7481 C 703.755 1.83922 1.03614 0
M  V30 7482 O 703.103 1.28409 1.89007 0
M  V30 7483 C 703.313 3.33417 -1.03123 0
M  V30 7484 C 704.661 4.10333 -1.0914 0
M  V30 7485 O 705.685 3.4243 -0.98082 0
M  V30 7486 O 704.544 5.31737 -1.26165 0
M  V30 7487 H 701.638 0.812124 -0.156154 0
M  V30 7488 H 704.184 1.35713 -1.01882 0
M  V30 7489 H 702.956 3.31747 -2.07508 0
M  V30 7490 H 702.579 3.94695 -0.479767 0
M  V30 7491 N 703.576 0.692616 1.41565 0
M  V30 7492 C 704.523 0.0254264 2.30786 0
M  V30 7493 C 705.493 -0.774347 1.46946 0
M  V30 7494 O 706.678 -0.742981 1.7574 0
M  V30 7495 C 703.818 -0.907123 3.32964 0
M  V30 7496 C 702.931 -0.0992784 4.31886 0
M  V30 7497 C 702.066 -1.0292 5.21134 0
M  V30 7498 C 701.105 -0.214088 6.11725 0
M  V30 7499 N 700.242 -1.09766 6.93467 0
M  V30 7500 H 705.082 0.792036 2.87282 0
M  V30 7501 H 702.619 0.4023 1.41492 0
M  V30 7502 H 704.577 -1.46181 3.90752 0
M  V30 7503 H 703.207 -1.64016 2.78026 0
M  V30 7504 H 702.259 0.572287 3.76071 0
M  V30 7505 H 703.571 0.532782 4.95946 0
M  V30 7506 H 702.725 -1.65321 5.83741 0
M  V30 7507 H 701.464 -1.69512 4.57293 0
M  V30 7508 H 700.469 0.42302 5.4817 0
M  V30 7509 H 701.694 0.447995 6.77621 0
M  V30 7510 H 699.64 -1.74965 6.32237 0
M  V30 7511 H 699.557 -0.521099 7.54202 0
M  V30 7512 H 700.825 -1.70858 7.60544 0
M  V30 7513 N 705.054 -1.51416 0.437162 0
M  V30 7514 C 706.282 -2.06503 -0.128045 0
M  V30 7515 C 706.697 -1.30461 -1.36475 0
M  V30 7516 O 706.054 -0.364127 -1.78831 0
M  V30 7517 C 706.105 -3.58683 -0.450437 0
M  V30 7518 O 705.826 -4.31853 0.737186 0
M  V30 7519 C 707.327 -4.30284 -1.06633 0
M  V30 7520 H 704.547 -0.670952 -0.00800269 0
M  V30 7521 H 707.091 -1.94996 0.616193 0
M  V30 7522 H 705.246 -3.70106 -1.14457 0
M  V30 7523 H 705.66 -5.22467 0.461347 0
M  V30 7524 H 707.134 -5.37848 -1.24191 0
M  V30 7525 H 707.611 -3.88564 -2.0473 0
M  V30 7526 H 708.217 -4.23304 -0.411585 0
M  V30 7527 N 706.532 -0.168513 -1.56696 0
M  V30 7528 C 707.943 0.348694 -1.83415 0
M  V30 7529 C 708.294 1.63257 -1.0882 0
M  V30 7530 O 707.419 2.13707 -0.340333 0
M  V30 7531 C 708.014 0.639423 -3.32711 0
M  V30 7532 C 706.573 1.10108 -3.59935 0
M  V30 7533 C 705.72 0.135464 -2.76969 0
M  V30 7534 H 708.671 -0.392829 -1.53761 0
M  V30 7535 H 708.692 1.49179 -3.50037 0
M  V30 7536 H 708.204 -0.295173 -3.86976 0
M  V30 7537 H 706.305 2.05088 -3.11079 0
M  V30 7538 H 706.418 1.01218 -4.68286 0
M  V30 7539 H 704.782 0.632286 -2.46727 0
M  V30 7540 H 705.565 -0.793104 -3.34013 0
M  V30 7541 N 708.01 1.57248 0.105221 0
M  V30 7542 C 708.92 2.04653 1.14693 0
M  V30 7543 C 709.936 0.969488 1.44489 0
M  V30 7544 O 711.112 1.28196 1.55331 0
M  V30 7545 C 708.177 2.45297 2.45011 0
M  V30 7546 C 707.238 3.67148 2.22489 0
M  V30 7547 C 706.471 4.05844 3.46592 0
M  V30 7548 O 706.694 3.44736 4.54437 0
M  V30 7549 O 705.628 4.98862 3.36779 0
M  V30 7550 H 709.454 2.93663 0.774336 0
M  V30 7551 H 707.039 1.45998 0.31701 0
M  V30 7552 H 708.921 2.72112 3.21766 0
M  V30 7553 H 707.596 1.59429 2.81717 0
M  V30 7554 H 706.503 3.45463 1.43547 0
M  V30 7555 H 707.836 4.53764 1.9068 0
M  V30 7556 N 709.488 -0.375779 1.53054 0
M  V30 7557 C 710.398 -1.48381 1.81715 0
M  V30 7558 C 711.414 -1.59087 0.704795 0
M  V30 7559 O 712.59 -1.75174 0.993785 0
M  V30 7560 C 709.655 -2.83767 1.99192 0
M  V30 7561 C 708.716 -2.82673 3.23102 0
M  V30 7562 C 707.949 -4.11601 3.39736 0
M  V30 7563 O 708.172 -5.07243 2.60885 0
M  V30 7564 O 707.106 -4.18034 4.33049 0
M  V30 7565 H 710.932 -1.27089 2.7583 0
M  V30 7566 H 708.517 -0.564902 1.38308 0
M  V30 7567 H 710.399 -3.64004 2.12318 0
M  V30 7568 H 709.074 -3.05057 1.08267 0
M  V30 7569 H 707.981 -2.0117 3.15407 0
M  V30 7570 H 709.314 -2.66335 4.13916 0
M  V30 7571 N 710.966 -1.44241 -0.634997 0
M  V30 7572 C 711.896 -1.53632 -1.7584 0
M  V30 7573 C 712.877 -0.389603 -1.65578 0
M  V30 7574 O 714.062 -0.609219 -1.84397 0
M  V30 7575 C 711.192 -1.47644 -3.14354 0
M  V30 7576 C 710.146 -2.60752 -3.394 0
M  V30 7577 C 709.472 -2.39817 -4.77904 0
M  V30 7578 C 710.772 -4.02921 -3.32343 0
M  V30 7579 H 712.466 -2.47662 -1.68238 0
M  V30 7580 H 710.012 -1.19197 -0.807969 0
M  V30 7581 H 711.965 -1.52815 -3.92716 0
M  V30 7582 H 710.689 -0.501284 -3.2273 0
M  V30 7583 H 709.348 -2.54965 -2.63417 0
M  V30 7584 H 708.996 -1.40502 -4.82978 0
M  V30 7585 H 708.696 -3.15649 -4.9562 0
M  V30 7586 H 710.22 -2.46799 -5.585 0
M  V30 7587 H 711.634 -4.10098 -4.00615 0
M  V30 7588 H 710.031 -4.78925 -3.61595 0
M  V30 7589 H 711.101 -4.26766 -2.30215 0
M  V30 7590 N 712.444 0.87505 -1.31075 0
M  V30 7591 C 713.691 1.62768 -1.20469 0
M  V30 7592 C 714.019 1.93034 0.23834 0
M  V30 7593 O 713.274 1.55693 1.18567 0
M  V30 7594 C 713.573 2.96948 -1.98888 0
M  V30 7595 C 713.239 2.86195 -3.4843 0
M  V30 7596 C 711.901 2.82969 -3.89207 0
M  V30 7597 C 714.253 2.73599 -4.43614 0
M  V30 7598 C 711.581 2.64999 -5.23443 0
M  V30 7599 C 713.933 2.57166 -5.77969 0
M  V30 7600 C 712.597 2.52321 -6.17973 0
M  V30 7601 H 711.867 0.595611 -0.440827 0
M  V30 7602 H 714.514 1.01665 -1.62285 0
M  V30 7603 H 712.819 3.62058 -1.49737 0
M  V30 7604 H 714.516 3.54164 -1.88067 0
M  V30 7605 H 711.106 2.8952 -3.16032 0
M  V30 7606 H 715.29 2.7515 -4.13045 0
M  V30 7607 H 710.546 2.5967 -5.53517 0
M  V30 7608 H 714.72 2.46396 -6.51354 0
M  V30 7609 H 712.347 2.38156 -7.21932 0
M  V30 7610 N 713.922 1.13953 1.08869 0
M  V30 7611 C 714.872 0.790812 2.13846 0
M  V30 7612 C 715.856 -0.217819 1.59419 0
M  V30 7613 O 717.048 -0.0208723 1.76988 0
M  V30 7614 C 714.177 0.26479 3.42277 0
M  V30 7615 C 713.263 1.30267 4.03598 0
M  V30 7616 N 713.654 2.50535 4.39393 0
M  V30 7617 C 711.952 1.15178 4.30871 0
M  V30 7618 C 712.653 3.16938 4.87776 0
M  V30 7619 N 711.629 2.44349 4.85587 0
M  V30 7620 H 715.431 1.70577 2.39334 0
M  V30 7621 H 712.945 1.02268 1.26154 0
M  V30 7622 H 714.942 -0.00330398 4.169 0
M  V30 7623 H 713.602 -0.644419 3.18241 0
M  V30 7624 H 714.613 2.87798 4.30572 0
M  V30 7625 H 711.29 0.301204 4.16412 0
M  V30 7626 H 712.68 4.19453 5.2489 0
M  V30 7627 N 715.4 -1.26948 0.933913 0
M  V30 7628 C 716.811 -1.76058 0.621324 0
M  V30 7629 C 717.162 -1.76175 -0.863522 0
M  V30 7630 O 716.287 -1.36921 -1.67576 0
M  V30 7631 C 716.882 -3.19713 1.12111 0
M  V30 7632 C 715.441 -3.66465 0.859074 0
M  V30 7633 C 714.588 -2.46186 1.27624 0
M  V30 7634 H 717.539 -1.13127 1.11301 0
M  V30 7635 H 717.56 -3.77566 0.471608 0
M  V30 7636 H 717.072 -3.19596 2.20182 0
M  V30 7637 H 715.173 -3.72021 -0.207566 0
M  V30 7638 H 715.286 -4.55636 1.48098 0
M  V30 7639 H 713.65 -2.45042 0.694727 0
M  V30 7640 H 714.433 -2.48774 2.36572 0
M  V30 7641 N 716.879 -0.700114 -1.41195 0
M  V30 7642 C 717.809 -0.0521132 -2.33442 0
M  V30 7643 C 718.79 0.76228 -1.52063 0
M  V30 7644 O 719.975 0.714336 -1.80585 0
M  V30 7645 C 717.105 0.881693 -3.35922 0
M  V30 7646 C 716.059 0.174062 -4.27646 0
M  V30 7647 C 715.385 1.22254 -5.20536 0
M  V30 7648 C 716.685 -0.962396 -5.13357 0
M  V30 7649 H 718.379 -0.822574 -2.87879 0
M  V30 7650 H 715.925 -0.397011 -1.38419 0
M  V30 7651 H 717.878 1.34429 -3.99383 0
M  V30 7652 H 716.602 1.68387 -2.79845 0
M  V30 7653 H 715.261 -0.268551 -3.65615 0
M  V30 7654 H 714.909 2.01736 -4.60773 0
M  V30 7655 H 714.609 0.754038 -5.82742 0
M  V30 7656 H 716.133 1.68555 -5.86874 0
M  V30 7657 H 717.547 -0.579875 -5.7036 0
M  V30 7658 H 715.944 -1.35828 -5.84526 0
M  V30 7659 H 717.014 -1.80003 -4.50252 0
M  V30 7660 N 718.357 1.51182 -0.445186 0
M  V30 7661 C 719.605 2.01753 0.11841 0
M  V30 7662 C 719.926 1.33087 1.42523 0
M  V30 7663 O 719.196 0.467891 1.9023 0
M  V30 7664 H 717.776 0.745536 0.0467492 0
M  V30 7665 H 720.438 1.85765 -0.589688 0
M  V30 7666 H 719.534 3.10762 0.288665 0
M  V30 7667 N 719.835 0.176821 1.56605 0
M  V30 7668 C 720.798 -0.737429 2.17013 0
M  V30 7669 C 721.798 -1.15414 1.11965 0
M  V30 7670 O 722.988 -1.0702 1.37449 0
M  V30 7671 C 720.12 -2.00445 2.75744 0
M  V30 7672 H 721.313 -0.211455 2.99154 0
M  V30 7673 H 718.866 -0.0727582 1.56131 0
M  V30 7674 H 719.601 -2.57338 1.97352 0
M  V30 7675 H 719.386 -1.71456 3.52626 0
M  V30 7676 H 720.876 -2.65679 3.22187 0
M  V30 7677 N 721.313 -1.57302 -0.09688 0
M  V30 7678 C 722.59 -1.7701 -0.832272 0
M  V30 7679 C 722.97 -0.758025 -1.97021 0
M  V30 7680 O 722.318 0.213824 -2.27497 0
M  V30 7681 C 722.528 -3.22725 -1.32851 0
M  V30 7682 C 723.876 -3.85856 -1.772 0
M  V30 7683 O 724.9 -3.26464 -1.42478 0
M  V30 7684 O 723.759 -4.90295 -2.41398 0
M  V30 7685 H 720.853 -0.725558 -0.396856 0
M  V30 7686 H 723.399 -1.69516 -0.0789005 0
M  V30 7687 H 722.171 -3.87921 -0.51312 0
M  V30 7688 H 721.794 -3.34845 -2.14394 0
M  V30 7689 N 722.791 0.367657 -1.53252 0
M  V30 7690 C 724.016 1.13566 -1.73544 0
M  V30 7691 C 724.441 1.82329 -0.462344 0
M  V30 7692 O 723.799 1.71655 0.583472 0
M  V30 7693 C 723.847 2.14322 -2.89997 0
M  V30 7694 O 722.951 3.21359 -2.58461 0
M  V30 7695 H 722.292 0.329614 -0.576412 0
M  V30 7696 H 724.822 0.425417 -2.00128 0
M  V30 7697 H 724.832 2.57958 -3.16104 0
M  V30 7698 H 723.507 1.63664 -3.82344 0
M  V30 7699 H 722.084 2.8271 -2.43165 0
M  V30 7700 N 724.269 1.44576 0.627338 0
M  V30 7701 C 725.201 1.47724 1.75243 0
M  V30 7702 C 726.214 0.370193 1.58535 0
M  V30 7703 O 727.403 0.636151 1.66779 0
M  V30 7704 C 724.503 1.2991 3.13012 0
M  V30 7705 C 723.676 2.5393 3.56143 0
M  V30 7706 C 722.735 2.30961 4.72804 0
M  V30 7707 O 721.761 3.04469 4.80923 0
M  V30 7708 N 722.963 1.34261 5.6476 0
M  V30 7709 H 725.728 2.44718 1.73012 0
M  V30 7710 H 723.289 1.40064 0.812022 0
M  V30 7711 H 725.281 1.12385 3.88782 0
M  V30 7712 H 723.851 0.412668 3.09864 0
M  V30 7713 H 723.071 2.86707 2.70542 0
M  V30 7714 H 724.359 3.36411 3.81713 0
M  V30 7715 H 723.757 0.735573 5.60897 0
M  V30 7716 H 722.314 1.22713 6.40144 0
M  V30 7717 N 725.747 -0.868086 1.31537 0
M  V30 7718 C 726.993 -1.62367 1.2151 0
M  V30 7719 C 727.326 -1.92883 -0.225819 0
M  V30 7720 O 726.601 -1.56176 -1.15927 0
M  V30 7721 C 726.884 -2.95268 2.06129 0
M  V30 7722 C 726.737 -2.71619 3.58529 0
M  V30 7723 C 728.056 -3.96391 1.91212 0
M  V30 7724 H 725.175 -0.589178 0.442762 0
M  V30 7725 H 727.817 -1.00336 1.61347 0
M  V30 7726 H 725.967 -3.4821 1.72284 0
M  V30 7727 H 727.639 -2.25334 4.0252 0
M  V30 7728 H 725.882 -2.05817 3.81866 0
M  V30 7729 H 726.553 -3.66192 4.13047 0
M  V30 7730 H 729.029 -3.52663 2.20834 0
M  V30 7731 H 727.905 -4.87263 2.52718 0
M  V30 7732 H 728.166 -4.33335 0.875953 0
M  V30 7733 O 727.264 -1.26432 -1.00485 0
M  V30 7734 H 727.955 -1.05382 -1.62525 0
M  V30 END ATOM
M  V30 BEGIN BOND
M  V30 END BOND
M  V30 END CTAB
M  END
$$$$
