drugbank_target|P11233 Ras-related protein Ral-A (DB04315)
 OpenBabel12092120553D

  0  0  0     0  0            999 V3000
M  V30 BEGIN CTAB
M  V30 COUNTS 3309 3330 0 0 0
M  V30 BEGIN ATOM
M  V30 1 H -0.908 1.98254 -0.117106 0
M  V30 2 N 0 1.576 0 0
M  V30 3 C 0.933 2.03868 1.02534 0
M  V30 4 C 1.911 0.928543 1.3348 0
M  V30 5 O 3.095 1.19667 1.45644 0
M  V30 6 C 0.222 2.43627 2.35294 0
M  V30 7 C -0.732 3.65373 2.2001 0
M  V30 8 S 0.101 5.13292 1.52614 0
M  V30 9 C 1.257 5.56322 2.86805 0
M  V30 10 H 1.49 2.90518 0.631377 0
M  V30 11 H -0.977 1.52953 0.210867 0
M  V30 12 H 0.981 2.67203 3.11629 0
M  V30 13 H -0.358 1.57376 2.7183 0
M  V30 14 H -1.165 3.90944 3.18086 0
M  V30 15 H -1.563 3.418 1.51819 0
M  V30 16 H 0.729 5.58782 3.83104 0
M  V30 17 H 1.672 6.56266 2.65933 0
M  V30 18 H 2.08 4.83886 2.90714 0
M  V30 19 N 1.4781 -0.272755 1.55222 0
M  V30 20 C 2.4411 -1.32041 1.87344 0
M  V30 21 C 3.4411 -1.42342 0.74803 0
M  V30 22 O 4.6311 -1.41488 1.0162 0
M  V30 23 C 1.7631 -2.70173 2.07893 0
M  V30 24 H 2.9561 -1.04789 2.80997 0
M  V30 25 H 0.5091 -0.51083 1.47717 0
M  V30 26 H 1.2441 -3.02605 1.16622 0
M  V30 27 H 1.0291 -2.64082 2.89833 0
M  V30 28 H 2.5191 -3.45869 2.34017 0
M  V30 29 N 2.9562 -1.48159 -0.537278 0
M  V30 30 C 3.9192 -1.61665 -1.62472 0
M  V30 31 C 4.9192 -0.490395 -1.5314 0
M  V30 32 O 6.1092 -0.755998 -1.5694 0
M  V30 33 C 3.2412 -1.57997 -3.02076 0
M  V30 34 H 4.4342 -2.58621 -1.51839 0
M  V30 35 H 1.9872 -1.36647 -0.758771 0
M  V30 36 H 2.7222 -0.624913 -3.18222 0
M  V30 37 H 2.5072 -2.39755 -3.10258 0
M  V30 38 H 3.9972 -1.70627 -3.81151 0
M  V30 39 N 4.4343 0.785586 -1.36625 0
M  V30 40 C 5.3823 1.91978 -1.31329 0
M  V30 41 C 6.3763 1.68162 -0.204416 0
M  V30 42 O 7.5823 1.76122 -0.371645 0
M  V30 43 H 3.9573 0.631087 -0.408942 0
M  V30 44 H 5.9283 1.93562 -2.27104 0
M  V30 45 C 4.6773 3.29055 -1.12329 0
M  V30 46 H 4.0003 3.4795 -1.96903 0
M  V30 47 H 5.4403 4.08756 -1.12671 0
M  V30 48 C 3.8993 3.36461 0.171861 0
M  V30 49 O 4.4293 3.84576 1.16035 0
M  V30 50 N 2.6353 2.89782 0.217846 0
M  V30 51 H 2.1823 2.50819 -0.587183 0
M  V30 52 H 2.1403 2.95119 1.08408 0
M  V30 53 N 5.9124 1.20967 1.01018 0
M  V30 54 C 6.8594 0.964281 2.09691 0
M  V30 55 C 7.8294 -0.107853 1.65749 0
M  V30 56 O 9.0144 0.0381987 1.90762 0
M  V30 57 C 6.1544 0.52943 3.41015 0
M  V30 58 C 5.2674 1.67043 3.98398 0
M  V30 59 C 4.4024 1.18525 5.17808 0
M  V30 60 C 3.4414 2.29892 5.67288 0
M  V30 61 N 2.5784 1.82546 6.77954 0
M  V30 62 H 7.4184 1.89463 2.30017 0
M  V30 63 H 4.9554 0.944289 1.1279 0
M  V30 64 H 6.9134 0.258588 4.16398 0
M  V30 65 H 5.5434 -0.363919 3.20742 0
M  V30 66 H 4.5954 2.05603 3.20049 0
M  V30 67 H 5.9074 2.50877 4.31117 0
M  V30 68 H 5.0614 0.870762 6.00419 0
M  V30 69 H 3.8004 0.316887 4.86669 0
M  V30 70 H 2.8054 2.6215 4.83278 0
M  V30 71 H 4.0304 3.17216 6.00459 0
M  V30 72 H 1.9764 0.980454 6.48632 0
M  V30 73 H 1.8934 2.59956 7.09901 0
M  V30 74 H 3.1614 1.54115 7.64113 0
M  V30 75 N 7.3905 -1.2043 1.01659 0
M  V30 76 C 8.8015 -1.71517 0.737482 0
M  V30 77 C 9.1525 -1.81547 -0.743973 0
M  V30 78 O 8.2775 -1.47803 -1.58061 0
M  V30 79 C 8.8725 -3.11515 1.33206 0
M  V30 80 C 7.4315 -3.59912 1.10183 0
M  V30 81 C 6.5785 -2.37116 1.43776 0
M  V30 82 H 9.5295 -1.05444 1.18606 0
M  V30 83 H 9.5505 -3.73575 0.722636 0
M  V30 84 H 9.0625 -3.04182 2.41028 0
M  V30 85 H 7.1635 -3.72577 0.0412756 0
M  V30 86 H 7.2765 -4.44731 1.78188 0
M  V30 87 H 5.6405 -2.39857 0.856778 0
M  V30 88 H 6.4235 -2.32424 2.52654 0
M  V30 89 N 8.8686 -0.792821 -1.36206 0
M  V30 90 C 9.8156 -0.191653 -2.30003 0
M  V30 91 C 10.7856 0.666453 -1.52143 0
M  V30 92 O 11.9706 0.61442 -1.80636 0
M  V30 93 C 9.1106 0.664848 -3.38635 0
M  V30 94 C 8.2236 -0.212175 -4.31479 0
M  V30 95 C 7.3586 0.651022 -5.27196 0
M  V30 96 C 6.3976 -0.227247 -6.11678 0
M  V30 97 N 5.5346 0.595127 -6.99573 0
M  V30 98 H 10.3746 -0.996978 -2.80828 0
M  V30 99 H 7.9116 -0.503206 -1.38225 0
M  V30 100 H 9.8696 1.17645 -4.00269 0
M  V30 101 H 8.4996 1.43557 -2.89122 0
M  V30 102 H 7.5516 -0.841777 -3.70969 0
M  V30 103 H 8.8636 -0.888751 -4.90818 0
M  V30 104 H 8.0176 1.2283 -5.94136 0
M  V30 105 H 6.7566 1.36121 -4.68319 0
M  V30 106 H 5.7616 -0.816904 -5.43697 0
M  V30 107 H 6.9866 -0.93509 -6.72631 0
M  V30 108 H 4.9326 1.28955 -6.432 0
M  V30 109 H 4.8496 -0.0236952 -7.55996 0
M  V30 110 H 6.1176 1.15613 -7.70879 0
M  V30 111 N 10.3467 1.47872 -0.545128 0
M  V30 112 C 11.5947 2.02093 -0.016553 0
M  V30 113 C 11.9157 1.42305 1.3332 0
M  V30 114 O 11.1857 0.593853 1.86682 0
M  V30 115 H 9.7657 0.746993 -0.00313038 0
M  V30 116 H 12.4277 1.81414 -0.712397 0
M  V30 117 H 11.5237 3.11996 0.0805422 0
M  V30 118 N 11.8248 0.280983 1.55075 0
M  V30 119 C 12.7568 -0.637268 2.20163 0
M  V30 120 C 13.7698 -1.11298 1.18813 0
M  V30 121 O 14.9588 -1.03388 1.4551 0
M  V30 122 C 12.0588 -1.88199 2.81841 0
M  V30 123 C 11.2318 -1.55211 4.08936 0
M  V30 124 C 10.2908 -2.64991 4.54606 0
M  V30 125 O 9.3168 -2.30929 5.2025 0
M  V30 126 N 10.5188 -3.95161 4.25238 0
M  V30 127 H 13.2838 -0.0801694 2.99593 0
M  V30 128 H 10.8448 0.102329 1.61576 0
M  V30 129 H 12.8368 -2.60948 3.09335 0
M  V30 130 H 11.4068 -2.34799 2.06369 0
M  V30 131 H 10.6268 -0.658185 3.88666 0
M  V30 132 H 11.9148 -1.30681 4.91732 0
M  V30 133 H 11.3128 -4.25653 3.72607 0
M  V30 134 H 9.8698 -4.6427 4.5749 0
M  V30 135 N 13.3029 -1.57598 0.00835791 0
M  V30 136 C 14.2509 -2.10078 -0.998508 0
M  V30 137 C 15.2449 -1.02262 -1.35051 0
M  V30 138 O 16.4509 -1.20719 -1.33518 0
M  V30 139 H 12.8259 -0.670903 -0.339696 0
M  V30 140 H 14.7969 -2.93648 -0.530398 0
M  V30 141 C 13.5459 -2.62615 -2.27879 0
M  V30 142 H 12.8689 -3.45213 -2.01662 0
M  V30 143 H 14.3089 -3.03004 -2.96588 0
M  V30 144 C 12.7679 -1.54407 -2.99433 0
M  V30 145 O 13.2979 -0.931812 -3.90743 0
M  V30 146 N 11.5039 -1.2695 -2.61404 0
M  V30 147 H 11.0509 -1.76924 -1.87232 0
M  V30 148 H 11.0089 -0.547704 -3.09593 0
M  V30 149 N 14.781 0.264519 -1.55364 0
M  V30 150 C 16.006 1.01726 -1.80739 0
M  V30 151 C 16.431 1.78836 -0.583044 0
M  V30 152 O 15.789 1.75167 0.467566 0
M  V30 153 C 15.837 1.94482 -3.03659 0
M  V30 154 O 14.941 3.03386 -2.7934 0
M  V30 155 H 14.282 0.290395 -0.597132 0
M  V30 156 H 16.812 0.290854 -2.02522 0
M  V30 157 H 16.822 2.36278 -3.32621 0
M  V30 158 H 15.497 1.37772 -3.92418 0
M  V30 159 H 14.074 2.65844 -2.61498 0
M  V30 160 N 16.2591 1.48442 0.529413 0
M  V30 161 C 17.1891 1.65902 1.64313 0
M  V30 162 C 18.1701 0.507897 1.6234 0
M  V30 163 O 19.3551 0.740503 1.79528 0
M  V30 164 C 16.4851 1.69911 3.02898 0
M  V30 165 C 15.4391 2.8453 3.19729 0
M  V30 166 C 14.7651 2.73629 4.59381 0
M  V30 167 C 16.0651 4.25821 3.02447 0
M  V30 168 H 17.7591 2.5914 1.49955 0
M  V30 169 H 15.3051 1.24709 0.719982 0
M  V30 170 H 17.2581 1.80715 3.80684 0
M  V30 171 H 15.9821 0.732524 3.18279 0
M  V30 172 H 14.6411 2.73283 2.44361 0
M  V30 173 H 14.2891 1.74938 4.71599 0
M  V30 174 H 13.9891 3.50541 4.71588 0
M  V30 175 H 15.5131 2.86401 5.39265 0
M  V30 176 H 16.9271 4.37898 3.70024 0
M  V30 177 H 15.3241 5.03735 3.26146 0
M  V30 178 H 16.3941 4.42244 1.98867 0
M  V30 179 N 17.7372 -0.778329 1.37039 0
M  V30 180 C 18.7002 -1.87301 1.32102 0
M  V30 181 C 19.7002 -1.59198 0.226405 0
M  V30 182 O 20.8902 -1.67403 0.481861 0
M  V30 183 C 18.0222 -3.24309 1.05055 0
M  V30 184 H 19.2152 -1.93093 2.29467 0
M  V30 185 H 16.7682 -0.977358 1.21973 0
M  V30 186 H 17.5032 -3.24196 0.0819373 0
M  V30 187 H 17.2882 -3.46098 1.84279 0
M  V30 188 H 18.7782 -4.04382 1.04234 0
M  V30 189 N 19.2153 -1.21501 -1.00376 0
M  V30 190 C 20.1453 -0.999478 -2.11028 0
M  V30 191 C 21.1263 0.0759671 -1.6993 0
M  V30 192 O 22.3113 -0.0841106 -1.94018 0
M  V30 193 C 19.4413 -0.564709 -3.42678 0
M  V30 194 C 18.3953 -1.58486 -3.97576 0
M  V30 195 C 17.7213 -1.00628 -5.25146 0
M  V30 196 C 19.0213 -2.97204 -4.29496 0
M  V30 197 H 20.7153 -1.92495 -2.29317 0
M  V30 198 H 18.2613 -0.92693 -1.102 0
M  V30 199 H 20.2143 -0.401091 -4.19487 0
M  V30 200 H 18.9383 0.396411 -3.24185 0
M  V30 201 H 17.5973 -1.73606 -3.22888 0
M  V30 202 H 17.2453 -0.0368439 -5.02987 0
M  V30 203 H 16.9453 -1.68771 -5.62841 0
M  V30 204 H 18.4693 -0.854015 -6.04598 0
M  V30 205 H 19.8833 -2.8552 -4.97143 0
M  V30 206 H 18.2803 -3.62372 -4.78338 0
M  V30 207 H 19.3503 -3.47956 -3.3772 0
M  V30 208 N 20.6934 1.19889 -1.02296 0
M  V30 209 C 21.6434 2.20777 -0.56934 0
M  V30 210 C 22.6274 1.56379 0.378741 0
M  V30 211 O 23.8194 1.75859 0.200673 0
M  V30 212 C 20.9484 3.43196 0.0845077 0
M  V30 213 C 20.0344 4.14749 -0.88566 0
M  V30 214 N 20.4254 4.62584 -2.04573 0
M  V30 215 C 18.7234 4.40347 -0.707835 0
M  V30 216 C 19.4244 5.17466 -2.65714 0
M  V30 217 N 18.4004 5.0791 -1.93723 0
M  V30 218 H 22.2024 2.55434 -1.45365 0
M  V30 219 H 19.7164 1.35897 -0.88915 0
M  V30 220 H 21.7134 4.14707 0.427067 0
M  V30 221 H 20.3734 3.10042 0.964574 0
M  V30 222 H 21.3844 4.57597 -2.4254 0
M  V30 223 H 18.0614 4.17317 0.12364 0
M  V30 224 H 19.4514 5.64808 -3.63925 0
M  V30 225 N 22.1715 0.800033 1.35784 0
M  V30 226 C 23.1185 0.203848 2.29898 0
M  V30 227 C 24.0885 -0.658375 1.52495 0
M  V30 228 O 25.2735 -0.604832 1.8096 0
M  V30 229 C 22.4135 -0.64688 3.38983 0
M  V30 230 C 21.5265 0.235054 4.3136 0
M  V30 231 C 20.6615 -0.623054 5.27533 0
M  V30 232 C 19.7005 0.259682 6.11549 0
M  V30 233 N 18.8375 -0.558019 6.99879 0
M  V30 234 H 23.6775 1.01186 2.80295 0
M  V30 235 H 21.2145 0.51053 1.37957 0
M  V30 236 H 23.1725 -1.15521 4.00887 0
M  V30 237 H 21.8025 -1.42021 2.89879 0
M  V30 238 H 20.8545 0.861438 3.70518 0
M  V30 239 H 22.1665 0.914768 4.9034 0
M  V30 240 H 21.3205 -1.19678 5.94779 0
M  V30 241 H 20.0595 -1.33636 4.69034 0
M  V30 242 H 19.0645 0.845726 5.43256 0
M  V30 243 H 20.2895 0.970748 6.72126 0
M  V30 244 H 18.2355 -1.25542 6.43875 0
M  V30 245 H 18.1525 0.0637872 7.55973 0
M  V30 246 H 19.4205 -1.11523 7.71481 0
M  V30 247 N 23.6496 -1.47581 0.552962 0
M  V30 248 C 24.8956 -2.02782 0.0273648 0
M  V30 249 C 25.2286 -1.42687 -1.31734 0
M  V30 250 O 24.5036 -0.580897 -1.85623 0
M  V30 251 C 24.7866 -3.60031 -0.0702371 0
M  V30 252 C 24.6396 -4.30566 1.30126 0
M  V30 253 C 25.9586 -4.33028 -0.785771 0
M  V30 254 H 23.0776 -0.736912 0.0114185 0
M  V30 255 H 25.7196 -1.76056 0.714432 0
M  V30 256 H 23.8696 -3.82932 -0.655382 0
M  V30 257 H 25.5416 -4.19018 1.92929 0
M  V30 258 H 23.7846 -3.91086 1.87709 0
M  V30 259 H 24.4556 -5.39114 1.18573 0
M  V30 260 H 26.9316 -4.15095 -0.288982 0
M  V30 261 H 25.8076 -5.42695 -0.823013 0
M  V30 262 H 26.0686 -4.01945 -1.841 0
M  V30 263 N 25.1277 -0.289203 -1.54924 0
M  V30 264 C 26.3767 0.324231 -1.99077 0
M  V30 265 C 26.6897 1.5591 -1.18117 0
M  V30 266 O 27.8957 2.24637 -1.52481 0
M  V30 267 C 26.3517 0.628209 -3.54375 0
M  V30 268 C 25.9597 -0.587647 -4.44129 0
M  V30 269 C 27.7037 1.20349 -4.07083 0
M  V30 270 C 25.6107 -0.257475 -5.90839 0
M  V30 271 H 24.5407 0.124924 -0.743579 0
M  V30 272 H 27.1917 -0.396063 -1.79175 0
M  V30 273 H 25.5737 1.40778 -3.70132 0
M  V30 274 H 26.7477 -1.36418 -4.40144 0
M  V30 275 H 25.0627 -1.08074 -4.0213 0
M  V30 276 H 27.6597 1.46456 -5.14252 0
M  V30 277 H 28.0027 2.14195 -3.56968 0
M  V30 278 H 28.5357 0.485889 -3.94821 0
M  V30 279 H 25.2747 -1.16419 -6.45079 0
M  V30 280 H 24.7947 0.482018 -5.9786 0
M  V30 281 H 26.4737 0.145238 -6.46837 0
M  V30 282 N 26.6058 1.57591 -0.0167156 0
M  V30 283 C 27.5388 2.04944 1.00366 0
M  V30 284 C 28.5168 0.942648 1.32487 0
M  V30 285 O 29.7008 1.21205 1.44367 0
M  V30 286 C 26.8278 2.46109 2.32697 0
M  V30 287 C 25.8738 3.67686 2.16123 0
M  V30 288 S 26.7068 5.14882 1.47161 0
M  V30 289 C 27.8628 5.59332 2.80888 0
M  V30 290 H 28.0958 2.91172 0.600528 0
M  V30 291 H 25.6288 1.53168 0.194632 0
M  V30 292 H 27.5868 2.70493 3.08778 0
M  V30 293 H 26.2478 1.6025 2.70146 0
M  V30 294 H 25.4408 3.94296 3.13922 0
M  V30 295 H 25.0428 3.43391 1.48185 0
M  V30 296 H 27.3348 5.62814 3.77156 0
M  V30 297 H 28.2778 6.5905 2.58958 0
M  V30 298 H 28.6858 4.86942 2.85565 0
M  V30 299 N 28.0839 -0.256276 1.55502 0
M  V30 300 C 29.3299 -0.987079 1.77157 0
M  V30 301 C 29.6629 -1.85327 0.580315 0
M  V30 302 O 28.9379 -1.89874 -0.421686 0
M  V30 303 C 29.2209 -1.85553 3.08613 0
M  V30 304 C 29.0739 -1.01816 4.38125 0
M  V30 305 C 30.3929 -2.8397 3.36228 0
M  V30 306 H 27.5119 -0.357428 0.644526 0
M  V30 307 H 30.1539 -0.258239 1.88237 0
M  V30 308 H 28.3039 -2.47695 2.99298 0
M  V30 309 H 29.9759 -0.416159 4.59419 0
M  V30 310 H 28.2189 -0.322178 4.32602 0
M  V30 311 H 28.8899 -1.65939 5.26468 0
M  V30 312 H 31.3659 -2.31964 3.45445 0
M  V30 313 H 30.2419 -3.41864 4.29442 0
M  V30 314 H 30.5029 -3.59955 2.56681 0
M  V30 315 N 29.562 -1.4872 -0.521534 0
M  V30 316 C 30.81 -1.56857 -1.27437 0
M  V30 317 C 31.131 -0.247982 -1.93417 0
M  V30 318 O 30.401 0.731151 -1.81744 0
M  V30 319 H 28.981 -0.577885 -0.473347 0
M  V30 320 H 31.643 -1.85233 -0.606205 0
M  V30 321 H 30.739 -2.35402 -2.0492 0
M  V30 322 N 31.0401 0.771051 -1.3745 0
M  V30 323 C 32.2651 1.56529 -1.36065 0
M  V30 324 C 32.6901 1.88029 0.0515859 0
M  V30 325 O 32.0481 1.49282 1.02882 0
M  V30 326 C 32.0961 2.85187 -2.20683 0
M  V30 327 O 31.2001 3.79593 -1.61193 0
M  V30 328 H 30.5411 0.47411 -0.464883 0
M  V30 329 H 33.0711 0.954269 -1.80983 0
M  V30 330 H 33.0811 3.34283 -2.33921 0
M  V30 331 H 31.7561 2.61588 -3.23334 0
M  V30 332 H 30.3331 3.38239 -1.56999 0
M  V30 333 N 32.5182 1.22032 0.997298 0
M  V30 334 C 33.7662 1.04016 1.73278 0
M  V30 335 C 34.0872 -0.426255 1.90284 0
M  V30 336 O 33.3572 -1.30694 1.45931 0
M  V30 337 H 31.9372 0.381897 0.642 0
M  V30 338 H 34.5992 1.5347 1.20137 0
M  V30 339 H 33.6952 1.51441 2.72896 0
M  V30 340 N 33.9963 -1.19345 1.0293 0
M  V30 341 C 35.2443 -1.88665 0.724574 0
M  V30 342 C 35.5653 -1.80036 -0.749144 0
M  V30 343 O 34.8353 -1.2111 -1.53978 0
M  V30 344 H 33.4153 -0.698406 0.265025 0
M  V30 345 H 36.0773 -1.44885 1.30362 0
M  V30 346 H 35.1733 -2.94987 1.01926 0
M  V30 347 N 35.4744 -0.807222 -1.35358 0
M  V30 348 C 36.7204 -0.388463 -1.99045 0
M  V30 349 C 37.0534 1.04184 -1.63888 0
M  V30 350 O 36.3284 1.72292 -0.902535 0
M  V30 351 C 36.6114 -0.572783 -3.55515 0
M  V30 352 C 36.4644 -2.04807 -4.00468 0
M  V30 353 C 37.7834 0.00114064 -4.401 0
M  V30 354 H 34.9024 -0.142619 -0.723069 0
M  V30 355 H 37.5444 -1.01687 -1.60498 0
M  V30 356 H 35.6944 -0.0378425 -3.88482 0
M  V30 357 H 37.3664 -2.64544 -3.77908 0
M  V30 358 H 35.6094 -2.54427 -3.51353 0
M  V30 359 H 36.2804 -2.12792 -5.09337 0
M  V30 360 H 38.7564 -0.455716 -4.13597 0
M  V30 361 H 37.6324 -0.157737 -5.48673 0
M  V30 362 H 37.8934 1.09488 -4.28328 0
M  V30 363 N 36.9525 1.47285 -0.560781 0
M  V30 364 C 38.2005 2.02064 -0.0379868 0
M  V30 365 C 38.5215 1.43711 1.31803 0
M  V30 366 O 37.7915 0.61362 1.86042 0
M  V30 367 H 36.3715 0.746918 -0.0110531 0
M  V30 368 H 39.0335 1.80648 -0.731598 0
M  V30 369 H 38.1295 3.12064 0.0474463 0
M  V30 370 N 38.4306 0.297415 1.54768 0
M  V30 371 C 39.3776 -0.580276 2.23386 0
M  V30 372 C 40.3476 -1.13238 1.21517 0
M  V30 373 O 41.5326 -1.17757 1.50126 0
M  V30 374 C 38.6726 -1.74801 2.97555 0
M  V30 375 C 37.7856 -1.22764 4.1419 0
M  V30 376 C 36.9206 -2.35895 4.75949 0
M  V30 377 C 35.9596 -1.80974 5.84735 0
M  V30 378 N 35.0966 -2.87664 6.40464 0
M  V30 379 H 39.9366 0.0114833 2.97998 0
M  V30 380 H 37.4736 0.0174361 1.4709 0
M  V30 381 H 39.4316 -2.43475 3.38786 0
M  V30 382 H 38.0616 -2.31145 2.25326 0
M  V30 383 H 37.1136 -0.433271 3.77924 0
M  V30 384 H 38.4256 -0.785551 4.92575 0
M  V30 385 H 37.5796 -3.12523 5.20014 0
M  V30 386 H 36.3186 -2.83429 3.96887 0
M  V30 387 H 35.3236 -1.02834 5.40097 0
M  V30 388 H 36.5486 -1.34348 6.65678 0
M  V30 389 H 34.4946 -3.34538 5.64287 0
M  V30 390 H 34.4116 -2.4794 7.14186 0
M  V30 391 H 35.6796 -3.642 6.89187 0
M  V30 392 N 39.9087 -1.5758 0.0250728 0
M  V30 393 C 41.1337 -1.96337 -0.668317 0
M  V30 394 C 41.5587 -0.901314 -1.651 0
M  V30 395 O 40.9167 0.138187 -1.80773 0
M  V30 396 C 40.9647 -3.34191 -1.35457 0
M  V30 397 O 40.0687 -3.30269 -2.46974 0
M  V30 398 H 39.4097 -0.640281 -0.175887 0
M  V30 399 H 41.9397 -2.0442 0.0857224 0
M  V30 400 H 41.9497 -3.70331 -1.71228 0
M  V30 401 H 40.6247 -4.11036 -0.634218 0
M  V30 402 H 39.2017 -3.05841 -2.13344 0
M  V30 403 N 41.3868 0.248026 -1.55636 0
M  V30 404 C 42.3498 1.29044 -1.89421 0
M  V30 405 C 43.3498 1.41134 -0.770581 0
M  V30 406 O 44.5398 1.39854 -1.03858 0
M  V30 407 C 41.6718 2.66831 -2.12165 0
M  V30 408 H 42.8648 1.00305 -2.82629 0
M  V30 409 H 40.4178 0.487265 -1.48511 0
M  V30 410 H 41.1528 3.00711 -1.21422 0
M  V30 411 H 40.9378 2.59438 -2.93997 0
M  V30 412 H 42.4278 3.42103 -2.3949 0
M  V30 413 N 42.8649 1.48995 0.513639 0
M  V30 414 C 43.7949 1.67636 1.62544 0
M  V30 415 C 44.7759 0.525087 1.61793 0
M  V30 416 O 45.9609 0.759502 1.78732 0
M  V30 417 C 43.0909 1.73114 3.01079 0
M  V30 418 C 42.0449 2.87905 3.16693 0
M  V30 419 C 41.3709 2.78486 4.56453 0
M  V30 420 C 42.6709 4.29005 2.97913 0
M  V30 421 H 44.3649 2.60716 1.47198 0
M  V30 422 H 41.9109 1.25465 0.706714 0
M  V30 423 H 43.8639 1.84742 3.78746 0
M  V30 424 H 42.5879 0.766241 3.17484 0
M  V30 425 H 41.2469 2.75859 2.41448 0
M  V30 426 H 40.8949 1.7993 4.69717 0
M  V30 427 H 40.5949 3.55523 4.67843 0
M  V30 428 H 42.1189 2.92104 5.36197 0
M  V30 429 H 43.5329 4.41798 3.65359 0
M  V30 430 H 41.9299 5.07166 3.20785 0
M  V30 431 H 42.9999 4.44329 1.94165 0
M  V30 432 N 44.343 -0.763751 1.37857 0
M  V30 433 C 45.571 -1.55293 1.36718 0
M  V30 434 C 45.986 -1.88745 -0.0455434 0
M  V30 435 O 45.343 -1.52039 -1.00947 0
M  V30 436 C 45.394 -2.85831 2.2132 0
M  V30 437 O 45.115 -2.5381 3.57089 0
M  V30 438 C 46.616 -3.80023 2.28249 0
M  V30 439 H 43.836 -0.480841 0.468009 0
M  V30 440 H 46.38 -0.946009 1.81303 0
M  V30 441 H 44.535 -3.42926 1.80223 0
M  V30 442 H 44.949 -3.37459 4.01524 0
M  V30 443 H 46.423 -4.68599 2.91752 0
M  V30 444 H 46.9 -4.1973 1.2932 0
M  V30 445 H 47.506 -3.28855 2.69693 0
M  V30 446 N 45.8211 -1.22559 -0.990812 0
M  V30 447 C 46.7511 -1.0218 -2.09956 0
M  V30 448 C 47.7321 0.0579394 -1.70001 0
M  V30 449 O 48.9171 -0.104684 -1.93918 0
M  V30 450 C 46.0471 -0.601023 -3.4206 0
M  V30 451 C 45.0011 -1.62694 -3.95872 0
M  V30 452 C 44.3271 -1.06193 -5.24049 0
M  V30 453 C 45.6271 -3.01743 -4.2632 0
M  V30 454 H 47.3211 -1.94916 -2.27262 0
M  V30 455 H 44.8671 -0.938566 -1.09211 0
M  V30 456 H 46.8201 -0.445561 -4.19038 0
M  V30 457 H 45.5441 0.362005 -3.24588 0
M  V30 458 H 44.2031 -1.77021 -3.21028 0
M  V30 459 H 43.8511 -0.0901903 -5.02919 0
M  V30 460 H 43.5511 -1.74732 -5.61019 0
M  V30 461 H 45.0751 -0.918092 -6.03658 0
M  V30 462 H 46.4891 -2.90777 -4.94087 0
M  V30 463 H 44.8861 -3.67425 -4.74467 0
M  V30 464 H 45.9561 -3.51518 -3.34011 0
M  V30 465 N 47.2992 1.18797 -1.03562 0
M  V30 466 C 48.2312 2.21731 -0.580337 0
M  V30 467 C 49.2442 1.59051 0.347349 0
M  V30 468 O 50.4332 1.77929 0.142669 0
M  V30 469 C 47.5332 3.38459 0.172805 0
M  V30 470 C 46.7062 4.3072 -0.761496 0
M  V30 471 C 45.7652 5.26174 -0.0525547 0
M  V30 472 O 44.7912 5.65108 -0.681333 0
M  V30 473 N 45.9932 5.67624 1.21586 0
M  V30 474 H 48.7582 2.61417 -1.46565 0
M  V30 475 H 46.3192 1.33531 -0.915476 0
M  V30 476 H 48.3112 3.99335 0.656793 0
M  V30 477 H 46.8812 2.97507 0.959602 0
M  V30 478 H 46.1012 3.67525 -1.42544 0
M  V30 479 H 47.3892 4.89267 -1.39626 0
M  V30 480 H 46.7872 5.38038 1.74732 0
M  V30 481 H 45.3442 6.30721 1.64421 0
M  V30 482 N 48.7773 0.814389 1.34928 0
M  V30 483 C 50.0243 0.398423 1.98542 0
M  V30 484 C 50.3523 -1.03638 1.64589 0
M  V30 485 O 49.6073 -1.73509 0.90516 0
M  V30 486 C 49.9063 0.537781 3.53331 0
M  V30 487 C 49.5723 1.93704 4.07172 0
M  V30 488 C 48.2343 2.31984 4.21589 0
M  V30 489 C 50.5863 2.85213 4.36237 0
M  V30 490 C 47.9143 3.61125 4.62391 0
M  V30 491 C 50.2663 4.13809 4.78482 0
M  V30 492 C 48.9303 4.52077 4.91104 0
M  V30 493 H 48.2003 0.145793 0.726516 0
M  V30 494 H 50.8473 1.03669 1.61012 0
M  V30 495 H 49.1523 -0.183906 3.91368 0
M  V30 496 H 50.8493 0.196588 4.00518 0
M  V30 497 H 47.4393 1.62966 3.96409 0
M  V30 498 H 51.6233 2.56885 4.24645 0
M  V30 499 H 46.8793 3.90612 4.70353 0
M  V30 500 H 51.0533 4.84811 4.99932 0
M  V30 501 H 48.6803 5.52196 5.22478 0
M  V30 502 N 50.2554 -1.46986 0.568584 0
M  V30 503 C 51.1884 -2.27129 -0.220779 0
M  V30 504 C 52.1664 -1.34757 -0.909905 0
M  V30 505 O 53.3504 -1.64152 -0.926622 0
M  V30 506 C 50.4774 -3.12108 -1.31553 0
M  V30 507 C 49.5234 -4.20141 -0.733748 0
M  V30 508 S 50.3564 -5.33783 0.428479 0
M  V30 509 C 51.5124 -6.22327 -0.667811 0
M  V30 510 H 51.7454 -2.93731 0.459267 0
M  V30 511 H 49.2784 -1.5026 0.355154 0
M  V30 512 H 51.2364 -3.61636 -1.94241 0
M  V30 513 H 49.8974 -2.44847 -1.96746 0
M  V30 514 H 49.0904 -4.79373 -1.5562 0
M  V30 515 H 48.6924 -3.73553 -0.182812 0
M  V30 516 H 50.9844 -6.59364 -1.55708 0
M  V30 517 H 51.9274 -7.0801 -0.11258 0
M  V30 518 H 52.3354 -5.5618 -0.965601 0
M  V30 519 N 51.7335 -0.305618 -1.54608 0
M  V30 520 C 52.9635 0.304333 -2.04346 0
M  V30 521 C 53.3715 1.47715 -1.18224 0
M  V30 522 O 52.7145 1.82591 -0.201577 0
M  V30 523 C 52.7765 0.819031 -3.50046 0
M  V30 524 C 52.4405 -0.22912 -4.56425 0
M  V30 525 C 53.4375 -1.05914 -5.08997 0
M  V30 526 C 51.1225 -0.372148 -5.0092 0
M  V30 527 C 53.1165 -2.01809 -6.04609 0
M  V30 528 C 50.8035 -1.33454 -5.9635 0
M  V30 529 C 51.8015 -2.15599 -6.48079 0
M  V30 530 O 51.4895 -3.10205 -7.41639 0
M  V30 531 H 51.2215 0.0693996 -0.672428 0
M  V30 532 H 53.7755 -0.444548 -2.00532 0
M  V30 533 H 52.0055 1.61852 -3.51199 0
M  V30 534 H 53.6945 1.34537 -3.82955 0
M  V30 535 H 54.4605 -0.959538 -4.75413 0
M  V30 536 H 50.3395 0.257304 -4.60281 0
M  V30 537 H 53.8835 -2.65966 -6.44909 0
M  V30 538 H 49.7805 -1.43485 -6.29351 0
M  V30 539 H 50.5485 -3.05237 -7.59455 0
M  V30 540 N 53.2116 1.57565 -0.0334293 0
M  V30 541 C 54.4886 1.83282 0.683163 0
M  V30 542 C 54.8686 0.91823 1.90084 0
M  V30 543 O 54.2166 -0.025113 2.28486 0
M  V30 544 C 54.4266 3.32599 1.0573 0
M  V30 545 C 55.7746 3.99179 1.44711 0
M  V30 546 O 56.7986 3.3712 1.15015 0
M  V30 547 O 55.6576 5.08565 2.0006 0
M  V30 548 H 52.7516 0.755869 0.335546 0
M  V30 549 H 55.2976 1.69589 -0.0614402 0
M  V30 550 H 54.0696 3.90834 0.190828 0
M  V30 551 H 53.6926 3.51415 1.85993 0
M  V30 552 N 54.6897 -0.239769 1.55765 0
M  V30 553 C 55.5997 -1.31831 1.94056 0
M  V30 554 C 56.6157 -1.52275 0.841925 0
M  V30 555 O 57.7917 -1.65759 1.14394 0
M  V30 556 C 54.8567 -2.65156 2.23368 0
M  V30 557 C 53.9177 -2.53173 3.46701 0
M  V30 558 C 53.1507 -3.8014 3.74606 0
M  V30 559 O 53.3737 -4.82343 3.04469 0
M  V30 560 O 52.3077 -3.78344 4.68123 0
M  V30 561 H 56.1337 -1.02347 2.85935 0
M  V30 562 H 53.7187 -0.441123 1.42739 0
M  V30 563 H 55.6007 -3.43929 2.43497 0
M  V30 564 H 54.2757 -2.94358 1.34666 0
M  V30 565 H 53.1827 -1.72662 3.31871 0
M  V30 566 H 54.5157 -2.28915 4.35728 0
M  V30 567 N 56.1678 -1.49265 -0.50573 0
M  V30 568 C 57.4148 -1.58513 -1.26015 0
M  V30 569 C 57.7428 -0.26972 -1.92621 0
M  V30 570 O 56.9978 0.741997 -1.81088 0
M  V30 571 C 57.2968 -2.69008 -2.35308 0
M  V30 572 C 56.9628 -4.10662 -1.86192 0
M  V30 573 C 55.6248 -4.49212 -1.72516 0
M  V30 574 C 57.9768 -4.99336 -1.49375 0
M  V30 575 C 55.3048 -5.74214 -1.20394 0
M  V30 576 C 57.6568 -6.24852 -0.987072 0
M  V30 577 C 56.3208 -6.62236 -0.836669 0
M  V30 578 H 55.5908 -0.580041 -0.461122 0
M  V30 579 H 58.2378 -1.83078 -0.561665 0
M  V30 580 H 56.5428 -2.38396 -3.10926 0
M  V30 581 H 58.2398 -2.73373 -2.93374 0
M  V30 582 H 54.8298 -3.8023 -1.97795 0
M  V30 583 H 59.0138 -4.70212 -1.5879 0
M  V30 584 H 54.2698 -6.01883 -1.07458 0
M  V30 585 H 58.4438 -6.92944 -0.692983 0
M  V30 586 H 56.0708 -7.58979 -0.430607 0
M  V30 587 N 57.6459 0.756429 -1.3826 0
M  V30 588 C 58.8919 1.51772 -1.34511 0
M  V30 589 C 59.2249 1.94089 0.0656691 0
M  V30 590 O 58.4999 1.65221 1.02626 0
M  V30 591 C 58.7829 2.77226 -2.29821 0
M  V30 592 C 58.6359 2.41065 -3.79747 0
M  V30 593 C 59.9549 3.79236 -2.23312 0
M  V30 594 H 57.0739 0.550578 -0.489931 0
M  V30 595 H 59.7159 0.866607 -1.69086 0
M  V30 596 H 57.8659 3.32784 -2.00467 0
M  V30 597 H 59.5379 1.91303 -4.19763 0
M  V30 598 H 57.7809 1.7356 -3.97567 0
M  V30 599 H 58.4519 3.3081 -4.41892 0
M  V30 600 H 60.9279 3.3321 -2.49219 0
M  V30 601 H 59.8039 4.64714 -2.92116 0
M  V30 602 H 60.0649 4.24615 -1.23102 0
M  V30 603 N 59.124 1.23083 0.984299 0
M  V30 604 C 60.034 1.02515 2.11016 0
M  V30 605 C 61.05 -0.0291702 1.73976 0
M  V30 606 O 62.226 0.165434 2.00719 0
M  V30 607 C 59.291 0.614673 3.41208 0
M  V30 608 C 58.352 1.74359 3.92297 0
M  V30 609 C 57.585 1.35261 5.16275 0
M  V30 610 O 57.808 0.235136 5.69915 0
M  V30 611 O 56.742 2.17227 5.61334 0
M  V30 612 H 60.568 1.96862 2.31255 0
M  V30 613 H 58.153 1.01753 1.09392 0
M  V30 614 H 60.035 0.396518 4.1953 0
M  V30 615 H 58.71 -0.299851 3.22308 0
M  V30 616 H 57.617 2.01635 3.1511 0
M  V30 617 H 58.95 2.63629 4.15645 0
M  V30 618 N 60.6021 -1.18246 1.0419 0
M  V30 619 C 61.8791 -1.84121 0.660208 0
M  V30 620 C 62.2591 -1.92778 -0.860221 0
M  V30 621 O 61.6071 -1.45464 -1.76217 0
M  V30 622 C 61.8171 -3.22355 1.33747 0
M  V30 623 C 63.1651 -3.98376 1.46906 0
M  V30 624 O 64.1891 -3.31799 1.29568 0
M  V30 625 O 63.0481 -5.17665 1.75171 0
M  V30 626 H 60.1421 -0.794036 0.231161 0
M  V30 627 H 62.6881 -1.25628 1.14087 0
M  V30 628 H 61.4601 -3.10964 2.37522 0
M  V30 629 H 61.0831 -3.88506 0.845515 0
M  V30 630 N 62.0802 -0.821533 -1.34494 0
M  V30 631 C 63.3102 -0.421272 -2.02259 0
M  V30 632 C 63.7182 0.977047 -1.6202 0
M  V30 633 O 63.0612 1.64348 -0.820703 0
M  V30 634 C 63.1232 -0.44231 -3.56769 0
M  V30 635 C 62.7872 -1.79372 -4.20327 0
M  V30 636 C 63.7842 -2.75435 -4.40944 0
M  V30 637 C 61.4692 -2.08182 -4.57127 0
M  V30 638 C 63.4632 -3.98482 -4.97484 0
M  V30 639 C 61.1502 -3.31489 -5.13379 0
M  V30 640 C 62.1482 -4.26457 -5.33501 0
M  V30 641 O 61.8362 -5.47585 -5.88562 0
M  V30 642 H 61.5682 -0.167473 -0.654927 0
M  V30 643 H 64.1222 -1.11073 -1.72777 0
M  V30 644 H 62.3522 0.303836 -3.85505 0
M  V30 645 H 64.0412 -0.0622925 -4.05852 0
M  V30 646 H 64.8072 -2.54473 -4.12878 0
M  V30 647 H 60.6862 -1.35066 -4.4077 0
M  V30 648 H 64.2302 -4.72618 -5.13106 0
M  V30 649 H 60.1272 -3.52316 -5.40873 0
M  V30 650 H 60.8952 -5.49086 -6.06998 0
M  V30 651 N 63.5583 1.46682 -0.576371 0
M  V30 652 C 64.4683 2.34032 0.163141 0
M  V30 653 C 65.4843 1.49367 0.892501 0
M  V30 654 O 66.6603 1.82252 0.857106 0
M  V30 655 C 63.7253 3.26435 1.16795 0
M  V30 656 C 62.7863 4.26998 0.443944 0
M  V30 657 C 62.0193 5.14986 1.40088 0
M  V30 658 O 62.2423 5.05785 2.637 0
M  V30 659 O 61.1763 5.94906 0.914917 0
M  V30 660 H 65.0023 2.98607 -0.55388 0
M  V30 661 H 62.5873 1.45554 -0.336821 0
M  V30 662 H 64.4693 3.83459 1.74748 0
M  V30 663 H 63.1443 2.64465 1.86655 0
M  V30 664 H 62.0513 3.7368 -0.177271 0
M  V30 665 H 63.3843 4.91736 -0.213566 0
M  V30 666 N 65.0364 0.313813 1.54444 0
M  V30 667 C 66.4474 -0.176243 1.85866 0
M  V30 668 C 66.7984 -1.52405 1.23561 0
M  V30 669 O 65.9234 -2.09605 0.538016 0
M  V30 670 C 66.5184 -0.32657 3.37222 0
M  V30 671 C 65.0774 -0.760846 3.6863 0
M  V30 672 C 64.2244 0.123247 2.77026 0
M  V30 673 H 67.1754 0.534418 1.49431 0
M  V30 674 H 67.1964 -1.15908 3.62416 0
M  V30 675 H 66.7084 0.654531 3.82541 0
M  V30 676 H 64.8094 -1.75204 3.28838 0
M  V30 677 H 64.9224 -0.571353 4.75681 0
M  V30 678 H 63.2864 -0.399597 2.51546 0
M  V30 679 H 64.0694 1.10094 3.25168 0
M  V30 680 N 66.5145 -1.57545 0.0417849 0
M  V30 681 C 67.7425 -1.96624 -0.643928 0
M  V30 682 C 68.1575 -0.918897 -1.64929 0
M  V30 683 O 67.5145 0.0979323 -1.82237 0
M  V30 684 C 67.5655 -3.35781 -1.33914 0
M  V30 685 O 67.2865 -4.365 -0.374048 0
M  V30 686 C 68.7875 -3.89566 -2.1155 0
M  V30 687 H 66.0075 -0.647316 -0.176702 0
M  V30 688 H 68.5515 -2.04229 0.105304 0
M  V30 689 H 66.7065 -3.29357 -2.03968 0
M  V30 690 H 67.1205 -5.17248 -0.869179 0
M  V30 691 H 68.5945 -4.89242 -2.55628 0
M  V30 692 H 69.0715 -3.24488 -2.9598 0
M  V30 693 H 69.6775 -3.99298 -1.46427 0
M  V30 694 N 67.9926 0.231505 -1.5589 0
M  V30 695 C 68.9396 1.28682 -1.91598 0
M  V30 696 C 69.9096 1.47071 -0.771974 0
M  V30 697 O 71.0946 1.60802 -1.027 0
M  V30 698 C 68.2346 2.6342 -2.22944 0
M  V30 699 C 67.3476 2.52912 -3.50228 0
M  V30 700 C 66.4826 3.80106 -3.7107 0
M  V30 701 C 65.5216 3.64279 -4.91902 0
M  V30 702 N 64.6586 4.834 -5.09184 0
M  V30 703 H 69.4986 0.975305 -2.81588 0
M  V30 704 H 67.0356 0.470299 -1.39379 0
M  V30 705 H 68.9936 3.41869 -2.39126 0
M  V30 706 H 67.6236 2.92687 -1.36139 0
M  V30 707 H 66.6756 1.6595 -3.42294 0
M  V30 708 H 67.9876 2.37133 -4.38827 0
M  V30 709 H 67.1416 4.66999 -3.87295 0
M  V30 710 H 65.8806 3.98799 -2.80733 0
M  V30 711 H 64.8856 2.7577 -4.75637 0
M  V30 712 H 66.1106 3.47067 -5.83714 0
M  V30 713 H 64.0566 5.02425 -4.21788 0
M  V30 714 H 63.9736 4.70311 -5.91898 0
M  V30 715 H 65.2416 5.71747 -5.29835 0
M  V30 716 N 69.4707 1.49531 0.497807 0
M  V30 717 C 70.4337 1.65916 1.58128 0
M  V30 718 C 71.4337 0.530825 1.51786 0
M  V30 719 O 72.6237 0.797342 1.54881 0
M  V30 720 C 69.7557 1.65951 2.9778 0
M  V30 721 H 70.9487 2.62556 1.44929 0
M  V30 722 H 68.5017 1.38611 0.722275 0
M  V30 723 H 69.2367 0.709065 3.16453 0
M  V30 724 H 69.0217 2.47897 3.03792 0
M  V30 725 H 70.5117 1.80673 3.76493 0
M  V30 726 N 70.9488 -0.749086 1.3866 0
M  V30 727 C 72.2258 -1.4992 1.25632 0
M  V30 728 C 72.6058 -2.10633 -0.140317 0
M  V30 729 O 71.9538 -1.97437 -1.15025 0
M  V30 730 C 72.1638 -2.56195 2.36992 0
M  V30 731 C 73.5118 -3.22972 2.75634 0
M  V30 732 O 74.5358 -2.66502 2.36337 0
M  V30 733 O 73.3948 -4.25122 3.43415 0
M  V30 734 H 70.4888 -0.665067 0.491544 0
M  V30 735 H 73.0348 -0.784113 1.50498 0
M  V30 736 H 71.8068 -2.09612 3.30422 0
M  V30 737 H 71.4298 -3.35279 2.13714 0
M  V30 738 N 72.4269 -1.23603 -0.977757 0
M  V30 739 C 73.6519 -1.09735 -1.75991 0
M  V30 740 C 74.0769 0.346858 -1.84874 0
M  V30 741 O 73.4349 1.25093 -1.3123 0
M  V30 742 C 73.4829 -1.73051 -3.16363 0
M  V30 743 O 72.5869 -0.994452 -4.0023 0
M  V30 744 H 71.9279 -0.384476 -0.541364 0
M  V30 745 H 74.4579 -1.6371 -1.2272 0
M  V30 746 H 74.4679 -1.78398 -3.66931 0
M  V30 747 H 73.1429 -2.78137 -3.09213 0
M  V30 748 H 71.7199 -1.01812 -3.58732 0
M  V30 749 N 73.905 1.17692 -1.04816 0
M  V30 750 C 75.135 1.91508 -0.775128 0
M  V30 751 C 75.543 1.76844 0.67253 0
M  V30 752 O 74.886 1.10057 1.47082 0
M  V30 753 C 74.948 3.43167 -1.0713 0
M  V30 754 C 74.612 3.81612 -2.51438 0
M  V30 755 C 75.609 3.84772 -3.49638 0
M  V30 756 C 73.294 4.12687 -2.86348 0
M  V30 757 C 75.288 4.18469 -4.80794 0
M  V30 758 C 72.975 4.46053 -4.17708 0
M  V30 759 C 73.973 4.48921 -5.14741 0
M  V30 760 O 73.661 4.81504 -6.43746 0
M  V30 761 H 73.393 0.614575 -0.281555 0
M  V30 762 H 75.947 1.50206 -1.40098 0
M  V30 763 H 74.177 3.84745 -0.388342 0
M  V30 764 H 75.866 3.98239 -0.784883 0
M  V30 765 H 76.632 3.60893 -3.24008 0
M  V30 766 H 72.511 4.09627 -2.11486 0
M  V30 767 H 76.055 4.20623 -5.56527 0
M  V30 768 H 71.952 4.69393 -4.43103 0
M  V30 769 H 72.72 4.99377 -6.4851 0
M  V30 770 N 75.3831 0.828654 1.34056 0
M  V30 771 C 76.7991 0.515135 1.51058 0
M  V30 772 C 76.9991 -0.959581 1.77184 0
M  V30 773 O 76.0551 -1.74382 1.82612 0
M  V30 774 C 77.3681 1.37963 2.67183 0
M  V30 775 C 78.9161 1.37735 2.81066 0
M  V30 776 C 79.3911 2.22645 4.00241 0
M  V30 777 N 80.8821 2.203 4.07458 0
M  V30 778 C 81.6171 2.82744 4.98842 0
M  V30 779 N 81.1131 3.54201 5.9541 0
M  V30 780 N 82.9061 2.72268 4.91759 0
M  V30 781 H 75.0571 1.78343 1.15358 0
M  V30 782 H 77.3201 0.760304 0.566252 0
M  V30 783 H 77.0261 2.42714 2.54525 0
M  V30 784 H 76.9001 1.0484 3.62338 0
M  V30 785 H 79.2871 0.337593 2.93163 0
M  V30 786 H 79.3681 1.74859 1.86703 0
M  V30 787 H 79.0121 3.26674 3.88905 0
M  V30 788 H 78.9421 1.82869 4.93829 0
M  V30 789 H 81.4331 1.68327 3.38341 0
M  V30 790 H 81.7461 3.9908 6.61782 0
M  V30 791 H 80.0911 3.58308 5.95517 0
M  V30 792 H 83.2821 2.16014 4.15278 0
M  V30 793 H 83.4551 3.21219 5.62781 0
M  V30 794 N 76.8612 -1.46375 0.584142 0
M  V30 795 C 77.8082 -2.30323 -0.148286 0
M  V30 796 C 78.7782 -1.40703 -0.882713 0
M  V30 797 O 79.9632 -1.69651 -0.873099 0
M  V30 798 C 77.1032 -3.25196 -1.15507 0
M  V30 799 C 76.2162 -4.29915 -0.423943 0
M  V30 800 C 75.3512 -5.11914 -1.41838 0
M  V30 801 C 74.3902 -6.08381 -0.673736 0
M  V30 802 N 73.5272 -6.83242 -1.6163 0
M  V30 803 H 78.3672 -2.92427 0.573644 0
M  V30 804 H 75.9042 -1.44118 0.294703 0
M  V30 805 H 77.8622 -3.78646 -1.75166 0
M  V30 806 H 76.4922 -2.64898 -1.8447 0
M  V30 807 H 75.5442 -3.7931 0.287714 0
M  V30 808 H 76.8562 -4.98549 0.158128 0
M  V30 809 H 76.0102 -5.69648 -2.08773 0
M  V30 810 H 74.7492 -4.43243 -2.03438 0
M  V30 811 H 73.7542 -5.49799 0.00938483 0
M  V30 812 H 74.9792 -6.79071 -0.0631082 0
M  V30 813 H 72.9252 -6.1728 -2.22038 0
M  V30 814 H 72.8422 -7.48144 -1.08707 0
M  V30 815 H 74.1102 -7.45534 -2.27596 0
M  V30 816 N 78.3393 -0.321999 -1.54275 0
M  V30 817 C 79.2863 0.544664 -2.24281 0
M  V30 818 C 80.2563 1.1129 -1.23303 0
M  V30 819 O 81.4413 1.15354 -1.51981 0
M  V30 820 C 78.5813 1.70045 -3.00298 0
M  V30 821 C 77.6943 1.16159 -4.1609 0
M  V30 822 C 76.8293 2.28293 -4.79641 0
M  V30 823 C 75.8683 1.71648 -5.8754 0
M  V30 824 N 75.0053 2.77438 -6.44959 0
M  V30 825 H 79.8453 -0.0588907 -2.97942 0
M  V30 826 H 77.3823 -0.0408345 -1.47043 0
M  V30 827 H 79.3403 2.38054 -3.42616 0
M  V30 828 H 77.9703 2.27531 -2.28975 0
M  V30 829 H 77.0223 0.373092 -3.78566 0
M  V30 830 H 78.3343 0.707087 -4.93763 0
M  V30 831 H 77.4883 3.0421 -5.2492 0
M  V30 832 H 76.2273 2.77079 -4.01346 0
M  V30 833 H 75.2323 0.942282 -5.41665 0
M  V30 834 H 76.4573 1.23741 -6.67731 0
M  V30 835 H 74.4033 3.25519 -5.69538 0
M  V30 836 H 74.3203 2.36547 -7.1804 0
M  V30 837 H 75.5883 3.53189 -6.94894 0
M  V30 838 N 79.8174 1.5752 -0.0501392 0
M  V30 839 C 81.0634 1.92936 0.624798 0
M  V30 840 C 81.3964 0.928685 1.70555 0
M  V30 841 O 80.6714 -0.0454779 1.94447 0
M  V30 842 C 80.9544 3.38737 1.22185 0
M  V30 843 C 80.8074 4.49552 0.149218 0
M  V30 844 C 82.1264 3.84913 2.13378 0
M  V30 845 H 79.2454 0.701604 0.225657 0
M  V30 846 H 81.8874 1.89671 -0.111693 0
M  V30 847 H 80.0374 3.4165 1.84953 0
M  V30 848 H 81.7094 4.58768 -0.482648 0
M  V30 849 H 79.9524 4.30638 -0.522841 0
M  V30 850 H 80.6234 5.48653 0.606966 0
M  V30 851 H 83.0994 3.8387 1.60572 0
M  V30 852 H 81.9754 4.87584 2.52097 0
M  V30 853 H 82.2364 3.21611 3.03346 0
M  V30 854 N 81.2955 -0.223234 1.56011 0
M  V30 855 C 82.5415 -0.949279 1.79211 0
M  V30 856 C 82.8745 -1.84054 0.619494 0
M  V30 857 O 82.1495 -1.90726 -0.381317 0
M  V30 858 C 82.4325 -1.78965 3.12479 0
M  V30 859 C 82.2855 -0.924997 4.40186 0
M  V30 860 C 83.6045 -2.76774 3.42175 0
M  V30 861 H 80.7235 -0.343676 0.651963 0
M  V30 862 H 83.3655 -0.218253 1.88742 0
M  V30 863 H 81.5155 -2.41291 3.04485 0
M  V30 864 H 83.1875 -0.318615 4.60198 0
M  V30 865 H 81.4305 -0.230344 4.33188 0
M  V30 866 H 82.1015 -1.54735 5.29869 0
M  V30 867 H 84.5775 -2.24584 3.50287 0
M  V30 868 H 83.4535 -3.32678 4.36597 0
M  V30 869 H 83.7145 -3.54429 2.64258 0
M  V30 870 N 82.7736 -1.49793 -0.48987 0
M  V30 871 C 83.7036 -1.70201 -1.59856 0
M  V30 872 C 84.6846 -0.55076 -1.60937 0
M  V30 873 O 85.8696 -0.787841 -1.77501 0
M  V30 874 C 82.9996 -1.77882 -2.98287 0
M  V30 875 C 81.9536 -2.92907 -3.12073 0
M  V30 876 C 81.2796 -2.85712 -4.51965 0
M  V30 877 C 82.5796 -4.3369 -2.91051 0
M  V30 878 H 84.2736 -2.63025 -1.43032 0
M  V30 879 H 81.8196 -1.26574 -0.686664 0
M  V30 880 H 83.7726 -1.90744 -3.75759 0
M  V30 881 H 82.4966 -0.816653 -3.16225 0
M  V30 882 H 81.1556 -2.79665 -2.37029 0
M  V30 883 H 80.8036 -1.8738 -4.66795 0
M  V30 884 H 80.5036 -3.62921 -4.62128 0
M  V30 885 H 82.0276 -3.00598 -5.31482 0
M  V30 886 H 83.4416 -4.47555 -3.58284 0
M  V30 887 H 81.8386 -5.12205 -3.12675 0
M  V30 888 H 82.9086 -4.47362 -1.87071 0
M  V30 889 N 84.2517 0.741722 -1.39055 0
M  V30 890 C 85.5287 1.49252 -1.26425 0
M  V30 891 C 85.9087 2.10705 0.129144 0
M  V30 892 O 85.2567 1.98045 1.13976 0
M  V30 893 C 85.4667 2.54934 -2.38347 0
M  V30 894 C 86.8147 3.21506 -2.77343 0
M  V30 895 O 87.8387 2.65245 -2.37747 0
M  V30 896 O 86.6977 4.23294 -3.45665 0
M  V30 897 H 83.7917 0.662451 -0.495064 0
M  V30 898 H 86.3377 0.776121 -1.50912 0
M  V30 899 H 85.1097 2.07857 -3.31529 0
M  V30 900 H 84.7327 3.34141 -2.15489 0
M  V30 901 N 85.7298 1.2412 0.971189 0
M  V30 902 C 86.9778 1.07668 1.71032 0
M  V30 903 C 87.2988 -0.385797 1.91146 0
M  V30 904 O 86.5688 -1.27569 1.4867 0
M  V30 905 H 85.1488 0.395429 0.633755 0
M  V30 906 H 87.8108 1.55984 1.16855 0
M  V30 907 H 86.9068 1.57195 2.69622 0
M  V30 908 N 87.2079 -1.17134 1.05439 0
M  V30 909 C 88.1179 -2.24878 0.668365 0
M  V30 910 C 89.1339 -1.71186 -0.311687 0
M  V30 911 O 90.3099 -2.00738 -0.163161 0
M  V30 912 C 87.3749 -3.46662 0.051648 0
M  V30 913 C 86.4359 -4.15429 1.08246 0
M  V30 914 C 85.6689 -5.31399 0.495082 0
M  V30 915 O 85.8919 -5.66153 -0.694743 0
M  V30 916 O 84.8259 -5.89187 1.23056 0
M  V30 917 H 88.6519 -2.60189 1.56637 0
M  V30 918 H 86.2369 -1.24482 0.826104 0
M  V30 919 H 88.1189 -4.20394 -0.290966 0
M  V30 920 H 86.7939 -3.13142 -0.819971 0
M  V30 921 H 85.7009 -3.43704 1.47711 0
M  V30 922 H 87.0339 -4.52982 1.92532 0
M  V30 923 N 88.686 -0.835752 -1.33615 0
M  V30 924 C 89.596 -0.269088 -2.33052 0
M  V30 925 C 90.612 0.603251 -1.63208 0
M  V30 926 O 91.788 0.508112 -1.94885 0
M  V30 927 C 88.853 0.549091 -3.42324 0
M  V30 928 C 87.914 -0.347156 -4.27894 0
M  V30 929 C 87.147 0.43207 -5.31948 0
M  V30 930 O 87.37 1.66409 -5.45586 0
M  V30 931 O 86.304 -0.192298 -6.01593 0
M  V30 932 H 90.13 -1.09243 -2.83372 0
M  V30 933 H 87.715 -0.598198 -1.36901 0
M  V30 934 H 89.597 1.01414 -4.09015 0
M  V30 935 H 88.272 1.34955 -2.94226 0
M  V30 936 H 87.179 -0.859979 -3.64081 0
M  V30 937 H 88.512 -1.1123 -4.79467 0
M  V30 938 N 90.1641 1.46063 -0.591896 0
M  V30 939 C 91.4101 2.02638 -0.0811191 0
M  V30 940 C 91.7431 1.4613 1.27905 0
M  V30 941 O 91.0181 0.629908 1.84017 0
M  V30 942 C 91.3011 3.60091 -0.0252436 0
M  V30 943 C 91.1541 4.26965 -1.41496 0
M  V30 944 C 92.4731 4.3496 0.670685 0
M  V30 945 H 89.5921 0.73635 -0.0309524 0
M  V30 946 H 92.2341 1.741 -0.760859 0
M  V30 947 H 90.3841 3.84535 0.553624 0
M  V30 948 H 92.0561 4.13756 -2.0397 0
M  V30 949 H 90.2991 3.85971 -1.98011 0
M  V30 950 H 90.9701 5.35781 -1.32825 0
M  V30 951 H 93.4461 4.15716 0.178825 0
M  V30 952 H 92.3221 5.44686 0.678837 0
M  V30 953 H 92.5831 4.06685 1.73379 0
M  V30 954 N 91.6422 0.330177 1.54103 0
M  V30 955 C 92.5742 -0.566902 2.22079 0
M  V30 956 C 93.5872 -1.07462 1.22294 0
M  V30 957 O 94.7762 -0.987065 1.48726 0
M  V30 958 C 91.8762 -1.79138 2.87685 0
M  V30 959 C 91.0492 -1.42123 4.13666 0
M  V30 960 C 90.1082 -2.50394 4.62806 0
M  V30 961 O 89.1342 -2.14261 5.27334 0
M  V30 962 N 90.3362 -3.81433 4.37595 0
M  V30 963 H 93.1012 0.0151844 2.99696 0
M  V30 964 H 90.6622 0.153681 1.61169 0
M  V30 965 H 92.6542 -2.50975 3.1748 0
M  V30 966 H 91.2242 -2.28115 2.13734 0
M  V30 967 H 90.4442 -0.534201 3.90564 0
M  V30 968 H 91.7322 -1.14971 4.9564 0
M  V30 969 H 91.1302 -4.13584 3.8596 0
M  V30 970 H 89.6872 -4.4948 4.72029 0
M  V30 971 N 93.1203 -1.57491 0.0584922 0
M  V30 972 C 94.3693 -1.92155 -0.613146 0
M  V30 973 C 94.6823 -0.939334 -1.71569 0
M  V30 974 O 95.8883 -1.17829 -2.44599 0
M  V30 975 C 94.3443 -3.41303 -1.14195 0
M  V30 976 C 93.9523 -4.47944 -0.0711265 0
M  V30 977 C 95.6963 -3.84988 -1.78841 0
M  V30 978 C 93.6033 -5.88212 -0.613225 0
M  V30 979 H 92.5333 -0.717162 -0.232796 0
M  V30 980 H 95.1843 -1.83049 0.12857 0
M  V30 981 H 93.5663 -3.45437 -1.93621 0
M  V30 982 H 94.7403 -4.55408 0.702836 0
M  V30 983 H 93.0553 -4.13644 0.478313 0
M  V30 984 H 95.6523 -4.87159 -2.20408 0
M  V30 985 H 95.9953 -3.21632 -2.64308 0
M  V30 986 H 96.5283 -3.83401 -1.06059 0
M  V30 987 H 93.2673 -6.55183 0.203978 0
M  V30 988 H 92.7873 -5.84294 -1.35501 0
M  V30 989 H 94.4663 -6.37687 -1.09383 0
M  V30 990 N 94.5984 0.214957 -1.56127 0
M  V30 991 C 95.8754 0.963093 -1.70247 0
M  V30 992 C 96.2554 2.02166 -0.60764 0
M  V30 993 O 95.6034 2.25244 0.384385 0
M  V30 994 C 95.8134 1.56756 -3.11815 0
M  V30 995 C 97.1614 2.0573 -3.7143 0
M  V30 996 O 98.1854 1.66637 -3.14818 0
M  V30 997 O 97.0444 2.77603 -4.70743 0
M  V30 998 H 94.1384 0.450321 -0.693643 0
M  V30 999 H 96.6844 0.206219 -1.68442 0
M  V30 1000 H 95.4564 0.803533 -3.82961 0
M  V30 1001 H 95.0794 2.3898 -3.17765 0
M  V30 1002 N 96.0765 1.50051 0.48192 0
M  V30 1003 C 97.3255 1.59741 1.23149 0
M  V30 1004 C 97.6385 0.298163 1.93314 0
M  V30 1005 O 98.8445 0.273835 2.70116 0
M  V30 1006 C 97.3005 2.81926 2.23708 0
M  V30 1007 C 96.9085 4.18685 1.59396 0
M  V30 1008 C 98.6525 3.00956 2.99375 0
M  V30 1009 C 96.5595 5.3207 2.58178 0
M  V30 1010 H 95.4895 0.594838 0.46334 0
M  V30 1011 H 98.1405 1.76467 0.503169 0
M  V30 1012 H 96.5225 2.58736 2.99786 0
M  V30 1013 H 97.6965 4.52088 0.891811 0
M  V30 1014 H 96.0115 4.05171 0.960503 0
M  V30 1015 H 98.6085 3.82836 3.73283 0
M  V30 1016 H 98.9515 2.12258 3.58123 0
M  V30 1017 H 99.4845 3.24277 2.30411 0
M  V30 1018 H 96.2235 6.22888 2.04184 0
M  V30 1019 H 95.7435 5.03098 3.26577 0
M  V30 1020 H 97.4225 5.62196 3.20225 0
M  V30 1021 N 97.5546 -0.734337 1.39446 0
M  V30 1022 C 98.4846 -1.86155 1.40955 0
M  V30 1023 C 99.4656 -1.67898 0.272827 0
M  V30 1024 O 100.651 -1.88207 0.478743 0
M  V30 1025 C 97.7806 -3.23912 1.25294 0
M  V30 1026 C 96.7346 -3.56808 2.36373 0
M  V30 1027 C 96.0606 -4.93508 2.058 0
M  V30 1028 C 97.3606 -3.59713 3.78687 0
M  V30 1029 H 99.0546 -1.8515 2.35287 0
M  V30 1030 H 96.6006 -0.889367 1.13253 0
M  V30 1031 H 98.5536 -4.02443 1.2497 0
M  V30 1032 H 97.2776 -3.25446 0.274308 0
M  V30 1033 H 95.9366 -2.80606 2.35914 0
M  V30 1034 H 95.5846 -4.91623 1.06374 0
M  V30 1035 H 95.2846 -5.16486 2.80208 0
M  V30 1036 H 96.8086 -5.74396 2.07128 0
M  V30 1037 H 98.2226 -4.2832 3.81071 0
M  V30 1038 H 96.6196 -3.94209 4.52459 0
M  V30 1039 H 97.6896 -2.59504 4.09617 0
M  V30 1040 N 99.0327 -1.24633 -0.964593 0
M  V30 1041 C 100.31 -0.995809 -1.68354 0
M  V30 1042 C 100.69 0.480964 -2.05548 0
M  V30 1043 O 100.038 1.45599 -1.76105 0
M  V30 1044 C 100.248 -1.92177 -2.91323 0
M  V30 1045 C 101.596 -2.19446 -3.63495 0
M  V30 1046 O 102.62 -1.89855 -3.01386 0
M  V30 1047 O 101.479 -2.69714 -4.75307 0
M  V30 1048 H 98.5727 -0.376854 -0.736146 0
M  V30 1049 H 101.119 -1.35745 -1.0184 0
M  V30 1050 H 99.8907 -2.91938 -2.60553 0
M  V30 1051 H 99.5137 -1.56349 -3.65569 0
M  V30 1052 N 100.511 1.16574 -1.06058 0
M  V30 1053 C 101.739 1.90952 -0.796552 0
M  V30 1054 C 102.154 1.77302 0.648808 0
M  V30 1055 O 101.511 1.11605 1.44397 0
M  V30 1056 C 101.562 3.41736 -1.17894 0
M  V30 1057 O 101.283 3.54975 -2.56758 0
M  V30 1058 C 102.784 4.33169 -0.942308 0
M  V30 1059 H 100.004 0.605594 -0.288959 0
M  V30 1060 H 102.548 1.47777 -1.41358 0
M  V30 1061 H 100.703 3.82623 -0.606491 0
M  V30 1062 H 101.117 4.4846 -2.72 0
M  V30 1063 H 102.591 5.37439 -1.25952 0
M  V30 1064 H 103.068 4.3903 0.122078 0
M  V30 1065 H 103.674 3.98007 -1.49902 0
M  V30 1066 N 101.989 0.842826 1.3317 0
M  V30 1067 C 102.952 0.284065 2.27433 0
M  V30 1068 C 103.952 -0.54948 1.5112 0
M  V30 1069 O 105.142 -0.362699 1.70382 0
M  V30 1070 C 102.274 -0.599384 3.35589 0
M  V30 1071 H 103.467 1.11589 2.78366 0
M  V30 1072 H 101.02 0.616221 1.4364 0
M  V30 1073 H 101.755 -1.45349 2.89904 0
M  V30 1074 H 101.54 -0.00291266 3.921 0
M  V30 1075 H 103.03 -0.983488 4.05854 0
M  V30 1076 N 103.467 -1.45747 0.599634 0
M  V30 1077 C 104.715 -2.01893 0.0915472 0
M  V30 1078 C 105.036 -1.47155 -1.27946 0
M  V30 1079 O 104.306 -0.66273 -1.84349 0
M  V30 1080 H 102.886 -0.746363 0.0308524 0
M  V30 1081 H 105.548 -1.78645 0.779237 0
M  V30 1082 H 104.644 -3.1208 0.0353086 0
M  V30 1083 N 104.945 -0.338344 -1.53925 0
M  V30 1084 C 105.877 0.555117 -2.22376 0
M  V30 1085 C 106.89 1.06812 -1.22862 0
M  V30 1086 O 108.079 0.979163 -1.49247 0
M  V30 1087 C 105.179 1.77609 -2.88631 0
M  V30 1088 C 104.352 1.39927 -4.14414 0
M  V30 1089 C 103.411 2.47936 -4.64127 0
M  V30 1090 O 102.437 2.11461 -5.28463 0
M  V30 1091 N 103.639 3.79107 -4.39612 0
M  V30 1092 H 106.404 -0.0310778 -2.99684 0
M  V30 1093 H 103.965 -0.162226 -1.61085 0
M  V30 1094 H 105.957 2.49287 -3.18807 0
M  V30 1095 H 104.527 2.26978 -2.14941 0
M  V30 1096 H 103.747 0.513481 -3.90841 0
M  V30 1097 H 105.035 1.12341 -4.96243 0
M  V30 1098 H 104.433 4.11531 -3.88148 0
M  V30 1099 H 102.99 4.4697 -4.74406 0
M  V30 1100 N 106.423 1.57458 -0.0668435 0
M  V30 1101 C 107.333 2.15937 0.916975 0
M  V30 1102 C 108.349 1.12123 1.33058 0
M  V30 1103 O 109.525 1.44366 1.40429 0
M  V30 1104 C 106.59 2.70547 2.16807 0
M  V30 1105 C 105.651 3.89215 1.81135 0
M  V30 1106 C 104.884 4.41211 3.0028 0
M  V30 1107 O 105.107 3.92225 4.14144 0
M  V30 1108 O 104.041 5.32605 2.80384 0
M  V30 1109 H 107.867 3.00354 0.449561 0
M  V30 1110 H 105.452 1.48584 0.155949 0
M  V30 1111 H 107.334 3.0557 2.90181 0
M  V30 1112 H 106.009 1.89192 2.62656 0
M  V30 1113 H 104.916 3.59054 1.05028 0
M  V30 1114 H 106.249 4.71848 1.40073 0
M  V30 1115 N 107.901 -0.206675 1.56239 0
M  V30 1116 C 109.178 -0.954051 1.70755 0
M  V30 1117 C 109.558 -2.01841 0.618353 0
M  V30 1118 O 108.906 -2.25444 -0.372434 0
M  V30 1119 C 109.116 -1.551 3.12642 0
M  V30 1120 C 110.464 -2.03757 3.72516 0
M  V30 1121 O 111.488 -1.64965 3.15698 0
M  V30 1122 O 110.347 -2.75103 4.72208 0
M  V30 1123 H 107.441 -0.446636 0.696021 0
M  V30 1124 H 109.987 -0.197283 1.68549 0
M  V30 1125 H 108.759 -0.783212 3.83382 0
M  V30 1126 H 108.382 -2.37291 3.19028 0
M  V30 1127 N 109.379 -1.50304 -0.473955 0
M  V30 1128 C 110.609 -1.64663 -1.24778 0
M  V30 1129 C 111.017 -0.328174 -1.86332 0
M  V30 1130 O 110.36 0.699536 -1.69859 0
M  V30 1131 C 110.422 -2.6778 -2.39863 0
M  V30 1132 C 110.086 -4.11413 -1.98969 0
M  V30 1133 C 111.083 -4.97372 -1.51385 0
M  V30 1134 C 108.768 -4.57312 -2.07777 0
M  V30 1135 C 110.762 -6.27277 -1.13148 0
M  V30 1136 C 108.449 -5.87223 -1.69152 0
M  V30 1137 C 109.447 -6.72031 -1.21915 0
M  V30 1138 O 109.135 -7.99518 -0.838237 0
M  V30 1139 H 108.867 -0.556602 -0.383627 0
M  V30 1140 H 111.421 -1.9726 -0.572491 0
M  V30 1141 H 109.651 -2.30419 -3.10554 0
M  V30 1142 H 111.34 -2.71388 -3.01833 0
M  V30 1143 H 112.106 -4.63128 -1.44004 0
M  V30 1144 H 107.985 -3.91449 -2.43493 0
M  V30 1145 H 111.529 -6.93425 -0.762077 0
M  V30 1146 H 107.426 -6.20989 -1.76191 0
M  V30 1147 H 108.194 -8.12764 -0.967339 0
M  V30 1148 N 110.857 0.726932 -1.39834 0
M  V30 1149 C 111.82 1.82269 -1.38962 0
M  V30 1150 C 112.82 1.58248 -0.285334 0
M  V30 1151 O 114.01 1.65499 -0.54366 0
M  V30 1152 C 111.142 3.20186 -1.17019 0
M  V30 1153 H 112.335 1.84443 -2.36476 0
M  V30 1154 H 109.888 0.931416 -1.25516 0
M  V30 1155 H 110.623 3.23669 -0.202204 0
M  V30 1156 H 110.408 3.3902 -1.96998 0
M  V30 1157 H 111.898 4.00235 -1.1917 0
M  V30 1158 N 112.336 1.25143 0.95797 0
M  V30 1159 C 113.299 1.05321 2.03569 0
M  V30 1160 C 114.299 0.007152 1.60798 0
M  V30 1161 O 115.489 0.24903 1.72411 0
M  V30 1162 C 112.621 0.598394 3.35607 0
M  V30 1163 H 113.814 2.00986 2.22586 0
M  V30 1164 H 111.367 1.07502 1.13459 0
M  V30 1165 H 112.102 -0.361014 3.22284 0
M  V30 1166 H 111.887 1.35351 3.67998 0
M  V30 1167 H 113.377 0.48104 4.1482 0
M  V30 1168 N 113.814 -1.1601 1.06675 0
M  V30 1169 C 115.063 -1.85973 0.780818 0
M  V30 1170 C 115.376 -1.82819 -0.695444 0
M  V30 1171 O 116.582 -2.484 -1.09589 0
M  V30 1172 C 115.038 -3.33757 1.34665 0
M  V30 1173 C 114.646 -3.45374 2.85343 0
M  V30 1174 C 116.39 -4.0895 1.13843 0
M  V30 1175 C 114.297 -4.87266 3.35151 0
M  V30 1176 H 113.227 -0.696661 0.288407 0
M  V30 1177 H 115.878 -1.30903 1.28595 0
M  V30 1178 H 114.26 -3.88456 0.769274 0
M  V30 1179 H 115.434 -3.00816 3.49065 0
M  V30 1180 H 113.749 -2.83619 3.04876 0
M  V30 1181 H 116.346 -5.13654 1.4854 0
M  V30 1182 H 116.689 -4.16229 0.0770282 0
M  V30 1183 H 117.222 -3.605 1.68179 0
M  V30 1184 H 113.961 -4.85168 4.40786 0
M  V30 1185 H 113.481 -5.32433 2.76179 0
M  V30 1186 H 115.16 -5.56097 3.30704 0
M  V30 1187 N 115.292 -0.849877 -1.32721 0
M  V30 1188 C 116.708 -0.539102 -1.50219 0
M  V30 1189 C 116.908 0.931271 -1.78689 0
M  V30 1190 O 115.964 1.71455 -1.85363 0
M  V30 1191 C 117.277 -1.42196 -2.64954 0
M  V30 1192 C 118.825 -1.42189 -2.78839 0
M  V30 1193 C 119.3 -2.28985 -3.96648 0
M  V30 1194 N 120.791 -2.26754 -4.03902 0
M  V30 1195 C 121.526 -2.90644 -4.94281 0
M  V30 1196 N 121.022 -3.63629 -5.897 0
M  V30 1197 N 122.815 -2.80057 -4.87365 0
M  V30 1198 H 114.966 -1.80156 -1.12506 0
M  V30 1199 H 117.229 -0.769217 -0.554085 0
M  V30 1200 H 116.935 -2.46733 -2.50631 0
M  V30 1201 H 116.809 -1.10591 -3.60624 0
M  V30 1202 H 119.196 -0.38419 -2.92588 0
M  V30 1203 H 119.277 -1.77807 -1.83898 0
M  V30 1204 H 118.921 -3.32819 -3.83658 0
M  V30 1205 H 118.851 -1.90702 -4.90857 0
M  V30 1206 H 121.342 -1.73688 -3.3562 0
M  V30 1207 H 121.655 -4.09558 -6.55349 0
M  V30 1208 H 120 -3.67737 -5.89741 0
M  V30 1209 H 123.191 -2.22593 -4.11789 0
M  V30 1210 H 123.364 -3.30132 -5.57599 0
M  V30 1211 N 116.77 1.45427 -0.607355 0
M  V30 1212 C 118.047 1.9557 -0.0344566 0
M  V30 1213 C 118.427 1.54979 1.43334 0
M  V30 1214 O 117.775 0.812241 2.13576 0
M  V30 1215 C 117.985 3.48226 -0.232321 0
M  V30 1216 C 119.333 4.2445 -0.113001 0
M  V30 1217 O 120.357 3.55829 -0.162431 0
M  V30 1218 O 119.216 5.465 0.00209442 0
M  V30 1219 H 116.31 0.826222 0.0358667 0
M  V30 1220 H 118.856 1.55594 -0.6774 0
M  V30 1221 H 117.628 3.70739 -1.25174 0
M  V30 1222 H 117.251 3.95092 0.445896 0
M  V30 1223 N 118.248 0.346503 1.53744 0
M  V30 1224 C 119.196 -0.52422 2.26616 0
M  V30 1225 C 120.19 -1.09948 1.28871 0
M  V30 1226 O 121.396 -1.04488 1.46568 0
M  V30 1227 H 117.771 -0.187743 0.728187 0
M  V30 1228 H 119.742 0.11239 2.98188 0
M  V30 1229 C 118.491 -1.66186 3.05414 0
M  V30 1230 H 117.814 -1.22848 3.80458 0
M  V30 1231 H 119.254 -2.24622 3.59612 0
M  V30 1232 C 117.713 -2.59302 2.1509 0
M  V30 1233 O 118.243 -3.61628 1.74895 0
M  V30 1234 N 116.449 -2.28055 1.8011 0
M  V30 1235 H 115.996 -1.44883 2.12994 0
M  V30 1236 H 115.954 -2.90615 1.19958 0
M  V30 1237 N 119.726 -1.57421 0.075193 0
M  V30 1238 C 120.956 -1.97659 -0.601203 0
M  V30 1239 C 121.364 -0.952427 -1.63479 0
M  V30 1240 O 120.707 0.0688241 -1.83571 0
M  V30 1241 C 120.769 -3.34218 -1.32434 0
M  V30 1242 C 120.433 -4.5484 -0.443826 0
M  V30 1243 C 121.43 -5.19034 0.299969 0
M  V30 1244 C 119.115 -5.00952 -0.367709 0
M  V30 1245 C 121.109 -6.27695 1.10807 0
M  V30 1246 C 118.796 -6.09484 0.444058 0
M  V30 1247 C 119.794 -6.72719 1.18061 0
M  V30 1248 O 119.482 -7.79161 1.97898 0
M  V30 1249 H 119.214 -0.65494 -0.167422 0
M  V30 1250 H 121.768 -2.04886 0.145157 0
M  V30 1251 H 119.998 -3.23615 -2.11685 0
M  V30 1252 H 121.687 -3.59038 -1.89331 0
M  V30 1253 H 122.453 -4.84351 0.250776 0
M  V30 1254 H 118.332 -4.51509 -0.930638 0
M  V30 1255 H 121.876 -6.76982 1.68347 0
M  V30 1256 H 117.773 -6.43601 0.494803 0
M  V30 1257 H 118.541 -7.96055 1.90367 0
M  V30 1258 N 121.204 0.198386 -1.56346 0
M  V30 1259 C 122.451 0.919286 -1.80431 0
M  V30 1260 C 122.779 1.83393 -0.647866 0
M  V30 1261 O 122.034 1.92236 0.366556 0
M  V30 1262 C 122.333 1.77031 -3.10475 0
M  V30 1263 C 121.999 1.00693 -4.39513 0
M  V30 1264 C 120.661 0.796145 -4.74568 0
M  V30 1265 C 123.013 0.469559 -5.19081 0
M  V30 1266 C 120.341 0.0364588 -5.86689 0
M  V30 1267 C 122.693 -0.2769 -6.31994 0
M  V30 1268 C 121.357 -0.49873 -6.65634 0
M  V30 1269 H 120.627 0.336391 -0.660244 0
M  V30 1270 H 123.274 0.185872 -1.90596 0
M  V30 1271 H 121.579 2.5723 -2.95533 0
M  V30 1272 H 123.276 2.33065 -3.26315 0
M  V30 1273 H 119.866 1.18122 -4.12001 0
M  V30 1274 H 124.05 0.619816 -4.92414 0
M  V30 1275 H 119.306 -0.145412 -6.11227 0
M  V30 1276 H 123.48 -0.700684 -6.92866 0
M  V30 1277 H 121.107 -1.0893 -7.52355 0
M  V30 1278 N 122.682 1.50554 0.465978 0
M  V30 1279 C 124.098 1.38093 0.800154 0
M  V30 1280 C 124.298 0.440988 1.96615 0
M  V30 1281 O 123.354 -0.114499 2.5224 0
M  V30 1282 C 124.667 2.79565 1.10742 0
M  V30 1283 C 126.215 2.88516 1.21357 0
M  V30 1284 C 126.69 4.30833 1.55393 0
M  V30 1285 N 128.181 4.33807 1.62375 0
M  V30 1286 C 128.916 5.40927 1.90225 0
M  V30 1287 N 128.412 6.58247 2.16062 0
M  V30 1288 N 130.205 5.28376 1.9177 0
M  V30 1289 H 122.356 2.10237 -0.302366 0
M  V30 1290 H 124.619 0.945203 -0.0727746 0
M  V30 1291 H 124.325 3.50208 0.323661 0
M  V30 1292 H 124.199 3.17125 2.04234 0
M  V30 1293 H 126.586 2.1809 1.98799 0
M  V30 1294 H 126.667 2.54492 0.258321 0
M  V30 1295 H 126.311 5.01799 0.784889 0
M  V30 1296 H 126.241 4.62347 2.52076 0
M  V30 1297 H 128.732 3.49212 1.44427 0
M  V30 1298 H 129.045 7.3569 2.36601 0
M  V30 1299 H 127.39 6.61413 2.13444 0
M  V30 1300 H 130.581 4.35715 1.71085 0
M  V30 1301 H 130.754 6.11944 2.13139 0
M  V30 1302 N 124.16 -0.719506 1.40217 0
M  V30 1303 C 125.385 -1.51371 1.4178 0
M  V30 1304 C 125.81 -1.88091 0.0182355 0
M  V30 1305 O 125.168 -1.52997 -0.972707 0
M  V30 1306 C 125.216 -2.768 2.31115 0
M  V30 1307 O 124.32 -3.73349 1.7517 0
M  V30 1308 H 123.661 -0.456529 0.482159 0
M  V30 1309 H 126.191 -0.88644 1.844 0
M  V30 1310 H 126.201 -3.25371 2.46167 0
M  V30 1311 H 124.876 -2.49407 3.3282 0
M  V30 1312 H 123.453 -3.32179 1.69444 0
M  V30 1313 N 125.638 -1.25649 -0.95132 0
M  V30 1314 C 126.886 -1.10375 -1.69298 0
M  V30 1315 C 127.207 0.355339 -1.91735 0
M  V30 1316 O 126.477 1.25188 -1.50681 0
M  V30 1317 H 125.057 -0.405461 -0.627384 0
M  V30 1318 H 127.719 -1.57823 -1.14358 0
M  V30 1319 H 126.815 -1.61465 -2.67087 0
M  V30 1320 N 127.117 1.15442 -1.07289 0
M  V30 1321 C 128.027 2.23786 -0.704057 0
M  V30 1322 C 129.043 1.7166 0.284413 0
M  V30 1323 O 130.219 2.00972 0.131205 0
M  V30 1324 C 127.284 3.46535 -0.106792 0
M  V30 1325 C 126.345 4.13654 -1.14842 0
M  V30 1326 C 125.578 5.30544 -0.57956 0
M  V30 1327 O 125.801 5.67187 0.604585 0
M  V30 1328 O 124.735 5.87154 -1.32414 0
M  V30 1329 H 128.561 2.57664 -1.60757 0
M  V30 1330 H 126.146 1.23152 -0.845803 0
M  V30 1331 H 128.028 4.20804 0.224048 0
M  V30 1332 H 126.703 3.14407 0.770049 0
M  V30 1333 H 125.61 3.4131 -1.5316 0
M  V30 1334 H 126.943 4.49861 -1.99714 0
M  V30 1335 N 128.595 0.856903 1.32268 0
M  V30 1336 C 129.843 0.460474 1.96784 0
M  V30 1337 C 130.164 -0.987701 1.68135 0
M  V30 1338 O 129.434 -1.69058 0.989765 0
M  V30 1339 H 128.014 0.167289 0.728027 0
M  V30 1340 H 130.676 1.09383 1.61312 0
M  V30 1341 H 129.772 0.60739 3.06133 0
M  V30 1342 N 130.073 -1.45103 0.615059 0
M  V30 1343 C 131.32 -2.02183 0.113179 0
M  V30 1344 C 131.648 -1.48249 -1.25906 0
M  V30 1345 O 130.903 -0.650265 -1.84581 0
M  V30 1346 C 131.202 -3.57386 0.0318797 0
M  V30 1347 C 130.868 -4.30505 1.34077 0
M  V30 1348 C 129.53 -4.50197 1.69929 0
M  V30 1349 C 131.882 -4.72238 2.20546 0
M  V30 1350 C 129.21 -5.08881 2.91988 0
M  V30 1351 C 131.562 -5.32272 3.41861 0
M  V30 1352 C 130.226 -5.50187 3.77956 0
M  V30 1353 H 129.496 -0.739842 0.0414151 0
M  V30 1354 H 132.143 -1.74073 0.798168 0
M  V30 1355 H 130.448 -3.84817 -0.736409 0
M  V30 1356 H 132.145 -3.99264 -0.372712 0
M  V30 1357 H 128.735 -4.15496 1.05173 0
M  V30 1358 H 132.919 -4.56751 1.94146 0
M  V30 1359 H 128.175 -5.20939 3.2005 0
M  V30 1360 H 132.349 -5.63563 4.09109 0
M  V30 1361 H 129.976 -5.95427 4.72622 0
M  V30 1362 N 131.551 -0.354651 -1.53558 0
M  V30 1363 C 132.481 0.489091 -2.2832 0
M  V30 1364 C 133.462 1.09324 -1.30316 0
M  V30 1365 O 134.647 1.11255 -1.59173 0
M  V30 1366 C 131.777 1.63456 -3.0643 0
M  V30 1367 C 130.731 1.1582 -4.12031 0
M  V30 1368 C 130.057 2.39305 -4.7816 0
M  V30 1369 C 131.357 0.250731 -5.21698 0
M  V30 1370 H 133.051 -0.134614 -2.99097 0
M  V30 1371 H 130.597 -0.0661826 -1.43848 0
M  V30 1372 H 132.55 2.23136 -3.57475 0
M  V30 1373 H 131.274 2.28533 -2.33325 0
M  V30 1374 H 129.933 0.584146 -3.61916 0
M  V30 1375 H 129.581 3.02814 -4.01637 0
M  V30 1376 H 129.281 2.08109 -5.49513 0
M  V30 1377 H 130.805 2.99691 -5.31994 0
M  V30 1378 H 132.219 0.754695 -5.68311 0
M  V30 1379 H 130.616 0.0301468 -6.00092 0
M  V30 1380 H 131.686 -0.710125 -4.79672 0
M  V30 1381 N 133.029 1.57378 -0.0835403 0
M  V30 1382 C 134.269 1.95808 0.586381 0
M  V30 1383 C 134.633 0.963706 1.66062 0
M  V30 1384 O 135.834 1.23608 2.38693 0
M  V30 1385 C 134.105 3.38808 1.13771 0
M  V30 1386 S 135.664 3.99225 1.82112 0
M  V30 1387 H 132.482 0.684675 0.191679 0
M  V30 1388 H 135.084 1.94843 -0.160194 0
M  V30 1389 H 133.788 4.08954 0.344197 0
M  V30 1390 H 133.319 3.43344 1.92038 0
M  V30 1391 H 135.334 3.87087 3.10449 0
M  V30 1392 N 134.507 -0.190092 1.56449 0
M  V30 1393 C 135.753 -0.911052 1.81184 0
M  V30 1394 C 136.086 -1.82699 0.658396 0
M  V30 1395 O 135.361 -1.91491 -0.340775 0
M  V30 1396 C 135.644 -1.72297 3.16205 0
M  V30 1397 C 135.497 -0.831419 4.42049 0
M  V30 1398 C 136.816 -2.69454 3.47969 0
M  V30 1399 H 133.935 -0.32977 0.659106 0
M  V30 1400 H 136.577 -0.178169 1.89163 0
M  V30 1401 H 134.727 -2.34778 3.09534 0
M  V30 1402 H 136.399 -0.220929 4.60771 0
M  V30 1403 H 134.642 -0.138406 4.33579 0
M  V30 1404 H 135.313 -1.43461 5.33032 0
M  V30 1405 H 137.789 -2.17104 3.54972 0
M  V30 1406 H 136.665 -3.23342 4.43555 0
M  V30 1407 H 136.926 -3.48744 2.71717 0
M  V30 1408 N 135.985 -1.50799 -0.457987 0
M  V30 1409 C 137.232 -1.62442 -1.20908 0
M  V30 1410 C 137.56 -0.330865 -1.91665 0
M  V30 1411 O 136.815 0.68401 -1.83357 0
M  V30 1412 C 137.114 -2.76358 -2.2663 0
M  V30 1413 C 136.78 -4.16378 -1.73033 0
M  V30 1414 C 135.442 -4.54473 -1.58138 0
M  V30 1415 C 137.794 -5.03836 -1.33413 0
M  V30 1416 C 135.122 -5.77754 -1.02065 0
M  V30 1417 C 137.474 -6.27676 -0.78778 0
M  V30 1418 C 136.138 -6.64562 -0.625561 0
M  V30 1419 H 135.408 -0.594417 -0.442435 0
M  V30 1420 H 138.055 -1.84772 -0.503136 0
M  V30 1421 H 136.36 -2.48167 -3.03184 0
M  V30 1422 H 138.057 -2.82568 -2.84528 0
M  V30 1423 H 134.647 -3.86331 -1.85598 0
M  V30 1424 H 138.831 -4.75026 -1.4375 0
M  V30 1425 H 134.087 -6.04997 -0.882547 0
M  V30 1426 H 138.261 -6.94797 -0.472177 0
M  V30 1427 H 135.888 -7.59965 -0.188926 0
M  V30 1428 N 137.463 0.71206 -1.40597 0
M  V30 1429 C 138.688 1.50617 -1.42581 0
M  V30 1430 C 139.113 1.88079 -0.0282102 0
M  V30 1431 O 138.471 1.53511 0.964579 0
M  V30 1432 C 138.519 2.7557 -2.3258 0
M  V30 1433 O 137.623 3.72414 -1.77148 0
M  V30 1434 H 136.964 0.453966 -0.484573 0
M  V30 1435 H 139.494 0.876649 -1.84868 0
M  V30 1436 H 139.504 3.2406 -2.47889 0
M  V30 1437 H 138.179 2.47639 -3.34138 0
M  V30 1438 H 136.756 3.31276 -1.71204 0
M  V30 1439 N 138.941 1.26152 0.944643 0
M  V30 1440 C 140.19 1.10883 1.68487 0
M  V30 1441 C 140.503 -0.348153 1.92477 0
M  V30 1442 O 141.709 -0.621459 2.64292 0
M  V30 1443 C 140.165 1.93624 3.03377 0
M  V30 1444 C 139.773 3.43875 2.87148 0
M  V30 1445 C 141.517 1.86954 3.81115 0
M  V30 1446 C 139.424 4.18875 4.1749 0
M  V30 1447 H 138.354 0.41135 0.631907 0
M  V30 1448 H 141.005 1.50433 1.05082 0
M  V30 1449 H 139.387 1.46904 3.67743 0
M  V30 1450 H 140.561 3.98338 2.31653 0
M  V30 1451 H 138.876 3.51744 2.22856 0
M  V30 1452 H 141.473 2.40275 4.77673 0
M  V30 1453 H 141.816 0.839518 4.07747 0
M  V30 1454 H 142.349 2.31477 3.23517 0
M  V30 1455 H 139.088 5.22332 3.96043 0
M  V30 1456 H 138.608 3.69193 4.72712 0
M  V30 1457 H 140.287 4.27134 4.85968 0
M  V30 1458 N 140.419 -1.14872 1.07899 0
M  V30 1459 C 141.647 -1.89661 0.82683 0
M  V30 1460 C 142.062 -1.78312 -0.620519 0
M  V30 1461 O 141.419 -1.13888 -1.42604 0
M  V30 1462 C 141.47 -3.39817 1.23316 0
M  V30 1463 O 141.191 -3.50845 2.62372 0
M  V30 1464 C 142.692 -4.31615 1.0111 0
M  V30 1465 H 139.912 -0.60092 0.298557 0
M  V30 1466 H 142.456 -1.4551 1.43691 0
M  V30 1467 H 140.611 -3.8161 0.667286 0
M  V30 1468 H 141.025 -4.44076 2.79101 0
M  V30 1469 H 142.499 -5.35367 1.34486 0
M  V30 1470 H 142.976 -4.39169 -0.0522168 0
M  V30 1471 H 143.582 -3.95572 1.56215 0
M  V30 1472 N 141.898 -0.863906 -1.31812 0
M  V30 1473 C 142.808 -0.318461 -2.32428 0
M  V30 1474 C 143.824 0.568496 -1.64451 0
M  V30 1475 O 145 0.46666 -1.95919 0
M  V30 1476 C 142.065 0.476355 -3.43412 0
M  V30 1477 C 141.126 -0.43784 -4.27061 0
M  V30 1478 C 140.359 0.319138 -5.32745 0
M  V30 1479 O 140.582 1.54799 -5.48993 0
M  V30 1480 O 139.516 -0.319861 -6.01049 0
M  V30 1481 H 143.342 -1.15229 -2.80991 0
M  V30 1482 H 140.927 -0.627103 -1.35602 0
M  V30 1483 H 142.809 0.927156 -4.11074 0
M  V30 1484 H 141.484 1.28683 -2.97022 0
M  V30 1485 H 140.391 -0.937013 -3.62175 0
M  V30 1486 H 141.724 -1.21375 -4.77 0
M  V30 1487 N 143.376 1.44774 -0.622745 0
M  V30 1488 C 144.309 2.27792 0.136329 0
M  V30 1489 C 145.287 1.38041 0.859264 0
M  V30 1490 O 146.471 1.67478 0.86506 0
M  V30 1491 C 143.598 3.16776 1.19878 0
M  V30 1492 C 142.644 4.22575 0.57731 0
M  V30 1493 S 143.477 5.31825 -0.626294 0
M  V30 1494 C 144.633 6.24377 0.436378 0
M  V30 1495 H 144.866 2.91824 -0.567967 0
M  V30 1496 H 142.399 1.48838 -0.410677 0
M  V30 1497 H 144.357 3.68596 1.80686 0
M  V30 1498 H 143.018 2.5198 1.87523 0
M  V30 1499 H 142.211 4.84818 1.37721 0
M  V30 1500 H 141.813 3.73974 0.0440439 0
M  V30 1501 H 144.105 6.64689 1.31128 0
M  V30 1502 H 145.048 7.07941 -0.150271 0
M  V30 1503 H 145.456 5.59381 0.758513 0
M  V30 1504 N 144.854 0.36279 1.53368 0
M  V30 1505 C 145.764 -0.492994 2.29362 0
M  V30 1506 C 146.78 -1.09507 1.35219 0
M  V30 1507 O 147.956 -1.10662 1.68273 0
M  V30 1508 C 145.021 -1.61855 3.066 0
M  V30 1509 C 144.082 -1.04429 4.16405 0
M  V30 1510 C 143.315 -2.11621 4.89951 0
M  V30 1511 O 143.538 -3.32684 4.63333 0
M  V30 1512 O 142.472 -1.74835 5.75948 0
M  V30 1513 H 146.298 0.125331 3.03441 0
M  V30 1514 H 143.883 0.127253 1.48857 0
M  V30 1515 H 145.765 -2.27302 3.54841 0
M  V30 1516 H 144.44 -2.22233 2.3536 0
M  V30 1517 H 143.347 -0.353819 3.72423 0
M  V30 1518 H 144.68 -0.485113 4.89804 0
M  V30 1519 N 146.332 -1.57332 0.0918853 0
M  V30 1520 C 147.557 -1.98995 -0.584442 0
M  V30 1521 C 147.982 -0.970528 -1.61128 0
M  V30 1522 O 147.34 0.0613904 -1.81196 0
M  V30 1523 C 147.388 -3.39636 -1.21161 0
M  V30 1524 O 146.492 -3.40447 -2.32744 0
M  V30 1525 H 145.833 -0.647165 -0.148572 0
M  V30 1526 H 148.363 -2.03873 0.172347 0
M  V30 1527 H 148.373 -3.7726 -1.55367 0
M  V30 1528 H 147.048 -4.13356 -0.459313 0
M  V30 1529 H 145.625 -3.14614 -2.0018 0
M  V30 1530 N 147.81 0.181792 -1.56548 0
M  V30 1531 C 149.057 0.900097 -1.81396 0
M  V30 1532 C 149.385 1.82695 -0.667281 0
M  V30 1533 O 148.64 1.92614 0.346146 0
M  V30 1534 C 148.939 1.73728 -3.12335 0
M  V30 1535 C 148.605 0.960255 -4.40556 0
M  V30 1536 C 147.267 0.745766 -4.75386 0
M  V30 1537 C 149.619 0.414477 -5.19549 0
M  V30 1538 C 146.947 -0.0257694 -5.86694 0
M  V30 1539 C 149.299 -0.343916 -6.31664 0
M  V30 1540 C 147.963 -0.569301 -6.65068 0
M  V30 1541 H 147.233 0.329369 -0.663775 0
M  V30 1542 H 149.88 0.165647 -1.90782 0
M  V30 1543 H 148.185 2.54081 -2.98245 0
M  V30 1544 H 149.882 2.29591 -3.28769 0
M  V30 1545 H 146.472 1.13746 -4.13231 0
M  V30 1546 H 150.656 0.567554 -4.93044 0
M  V30 1547 H 145.912 -0.210233 -6.11038 0
M  V30 1548 H 150.086 -0.774133 -6.92084 0
M  V30 1549 H 147.713 -1.16903 -7.51158 0
M  V30 1550 N 149.288 1.51039 0.449983 0
M  V30 1551 C 150.251 1.70863 1.5277 0
M  V30 1552 C 151.251 0.578846 1.5002 0
M  V30 1553 O 152.441 0.846213 1.52266 0
M  V30 1554 C 149.573 1.75341 2.9235 0
M  V30 1555 H 150.766 2.67034 1.36502 0
M  V30 1556 H 148.319 1.40838 0.677812 0
M  V30 1557 H 149.054 0.809383 3.14037 0
M  V30 1558 H 148.839 2.57436 2.95752 0
M  V30 1559 H 150.329 1.92559 3.70555 0
M  V30 1560 N 150.766 -0.704594 1.40972 0
M  V30 1561 C 151.729 -1.80035 1.41845 0
M  V30 1562 C 152.729 -1.57774 0.310474 0
M  V30 1563 O 153.919 -1.64613 0.56992 0
M  V30 1564 C 151.051 -3.18284 1.22098 0
M  V30 1565 H 152.244 -1.80658 2.3938 0
M  V30 1566 H 149.797 -0.911329 1.26982 0
M  V30 1567 H 150.532 -3.23306 0.253672 0
M  V30 1568 H 150.317 -3.35843 2.02366 0
M  V30 1569 H 151.807 -3.98289 1.25522 0
M  V30 1570 N 152.244 -1.26651 -0.937939 0
M  V30 1571 C 153.472 -1.15173 -1.7188 0
M  V30 1572 C 153.887 0.292668 -1.86518 0
M  V30 1573 O 153.244 1.20014 -1.37488 0
M  V30 1574 C 153.295 -1.81925 -3.12387 0
M  V30 1575 O 153.016 -3.2072 -2.98446 0
M  V30 1576 C 154.517 -1.76442 -4.06673 0
M  V30 1577 H 151.737 -0.400911 -0.538063 0
M  V30 1578 H 154.281 -1.67332 -1.1756 0
M  V30 1579 H 152.436 -1.33696 -3.63599 0
M  V30 1580 H 152.85 -3.53802 -3.872 0
M  V30 1581 H 154.324 -2.27781 -5.02812 0
M  V30 1582 H 154.801 -0.731608 -4.33064 0
M  V30 1583 H 155.407 -2.24238 -3.61382 0
M  V30 1584 N 153.722 1.14298 -1.08507 0
M  V30 1585 C 154.685 2.17607 -0.719711 0
M  V30 1586 C 155.685 1.58907 0.245997 0
M  V30 1587 O 156.875 1.74181 0.0254081 0
M  V30 1588 C 154.007 3.40842 -0.0627695 0
M  V30 1589 H 155.2 2.51443 -1.63452 0
M  V30 1590 H 152.753 1.28963 -0.88307 0
M  V30 1591 H 153.488 3.12587 0.863716 0
M  V30 1592 H 153.273 3.84713 -0.757504 0
M  V30 1593 H 154.763 4.17221 0.177786 0
M  V30 1594 N 155.201 0.870884 1.31352 0
M  V30 1595 C 156.478 0.402907 1.91405 0
M  V30 1596 C 156.858 -1.11512 1.79244 0
M  V30 1597 O 156.206 -1.94411 1.2007 0
M  V30 1598 C 156.416 0.885301 3.37585 0
M  V30 1599 C 157.764 0.911971 4.14691 0
M  V30 1600 O 158.788 0.831016 3.46371 0
M  V30 1601 O 157.647 1.02927 5.3672 0
M  V30 1602 H 154.741 0.120698 0.818145 0
M  V30 1603 H 157.287 0.958857 1.40014 0
M  V30 1604 H 156.059 1.92889 3.40455 0
M  V30 1605 H 155.682 0.307714 3.96407 0
M  V30 1606 N 156.679 -1.44442 0.630414 0
M  V30 1607 C 157.926 -2.02052 0.134617 0
M  V30 1608 C 158.254 -1.49576 -1.24327 0
M  V30 1609 O 157.509 -0.669806 -1.83881 0
M  V30 1610 C 157.808 -3.57332 0.0697835 0
M  V30 1611 C 157.474 -4.29058 1.38635 0
M  V30 1612 C 156.136 -4.4837 1.74694 0
M  V30 1613 C 158.488 -4.69872 2.25543 0
M  V30 1614 C 155.816 -5.05756 2.97369 0
M  V30 1615 C 158.168 -5.28616 3.47487 0
M  V30 1616 C 156.832 -5.46147 3.8377 0
M  V30 1617 H 156.102 -0.739361 0.0492598 0
M  V30 1618 H 158.749 -1.73217 0.816586 0
M  V30 1619 H 157.054 -3.85577 -0.695553 0
M  V30 1620 H 158.751 -3.99637 -0.330344 0
M  V30 1621 H 155.341 -4.14357 1.09574 0
M  V30 1622 H 159.525 -4.54666 1.98979 0
M  V30 1623 H 154.781 -5.17515 3.25558 0
M  V30 1624 H 158.955 -5.59192 4.15063 0
M  V30 1625 H 156.582 -5.9038 4.7891 0
M  V30 1626 N 158.157 -0.370918 -1.53173 0
M  V30 1627 C 159.573 -0.0200818 -1.59587 0
M  V30 1628 C 159.773 1.46279 -1.38581 0
M  V30 1629 O 158.829 2.22506 -1.19363 0
M  V30 1630 C 160.142 -0.4808 -2.96831 0
M  V30 1631 C 161.69 -0.435477 -3.09956 0
M  V30 1632 C 162.165 -0.872092 -4.4962 0
M  V30 1633 N 163.656 -0.827364 -4.55751 0
M  V30 1634 C 164.391 -1.13683 -5.62018 0
M  V30 1635 N 163.887 -1.51584 -6.76014 0
M  V30 1636 N 165.68 -1.05927 -5.52029 0
M  V30 1637 H 157.831 -1.33652 -1.65079 0
M  V30 1638 H 160.094 -0.546634 -0.774529 0
M  V30 1639 H 159.8 -1.51577 -3.1736 0
M  V30 1640 H 159.674 0.129796 -3.76977 0
M  V30 1641 H 162.061 0.590371 -2.89134 0
M  V30 1642 H 162.142 -1.08164 -2.31806 0
M  V30 1643 H 161.786 -1.89608 -4.71181 0
M  V30 1644 H 161.716 -0.203127 -5.26208 0
M  V30 1645 H 164.207 -0.548216 -3.73902 0
M  V30 1646 H 164.52 -1.73609 -7.53047 0
M  V30 1647 H 162.865 -1.55454 -6.77391 0
M  V30 1648 H 166.056 -0.762321 -4.61851 0
M  V30 1649 H 166.229 -1.30378 -6.34749 0
M  V30 1650 N 159.635 1.57281 -0.100228 0
M  V30 1651 C 160.545 2.17833 0.870965 0
M  V30 1652 C 161.561 1.14921 1.30649 0
M  V30 1653 O 162.737 1.47313 1.37335 0
M  V30 1654 C 159.802 2.75085 2.1102 0
M  V30 1655 C 158.863 3.9297 1.72838 0
M  V30 1656 C 158.096 4.47482 2.90854 0
M  V30 1657 O 158.319 4.00922 4.05731 0
M  V30 1658 O 157.253 5.38433 2.69023 0
M  V30 1659 H 161.079 3.0124 0.38575 0
M  V30 1660 H 158.664 1.48881 0.124397 0
M  V30 1661 H 160.546 3.11656 2.83634 0
M  V30 1662 H 159.221 1.94721 2.58584 0
M  V30 1663 H 158.128 3.61201 0.973883 0
M  V30 1664 H 159.461 4.74713 1.30033 0
M  V30 1665 N 161.113 -0.173488 1.56642 0
M  V30 1666 C 162.045 -1.23935 1.92802 0
M  V30 1667 C 163.058 -1.40589 0.820889 0
M  V30 1668 O 164.247 -1.40631 1.09933 0
M  V30 1669 C 161.347 -2.60837 2.16373 0
M  V30 1670 C 160.52 -2.6551 3.47596 0
M  V30 1671 C 159.579 -3.8376 3.60021 0
M  V30 1672 O 158.605 -3.69859 4.32658 0
M  V30 1673 N 159.807 -5.00127 2.94709 0
M  V30 1674 H 162.572 -0.932236 2.84832 0
M  V30 1675 H 160.133 -0.363268 1.57772 0
M  V30 1676 H 162.125 -3.38407 2.21952 0
M  V30 1677 H 160.695 -2.83948 1.30738 0
M  V30 1678 H 159.915 -1.74052 3.53694 0
M  V30 1679 H 161.203 -2.65641 4.33949 0
M  V30 1680 H 160.601 -5.14322 2.35563 0
M  V30 1681 H 159.158 -5.75567 3.05886 0
M  V30 1682 N 162.591 -1.51276 -0.441967 0
M  V30 1683 C 163.84 -1.6295 -1.18871 0
M  V30 1684 C 164.153 -0.349312 -1.92456 0
M  V30 1685 O 165.359 -0.345355 -2.69295 0
M  V30 1686 C 163.815 -2.87759 -2.16155 0
M  V30 1687 C 163.423 -4.22764 -1.48239 0
M  V30 1688 C 165.167 -3.08788 -2.91291 0
M  V30 1689 C 163.074 -5.38728 -2.4398 0
M  V30 1690 H 162.004 -0.606913 -0.447406 0
M  V30 1691 H 164.655 -1.77739 -0.456205 0
M  V30 1692 H 163.037 -2.66593 -2.92821 0
M  V30 1693 H 164.211 -4.54293 -0.771635 0
M  V30 1694 H 162.526 -4.07575 -0.852741 0
M  V30 1695 H 165.123 -3.92599 -3.63002 0
M  V30 1696 H 165.466 -2.21679 -3.5237 0
M  V30 1697 H 165.999 -3.30272 -2.21733 0
M  V30 1698 H 162.738 -6.28082 -1.87598 0
M  V30 1699 H 162.258 -5.1158 -3.13123 0
M  V30 1700 H 163.937 -5.70489 -3.05207 0
M  V30 1701 N 164.069 0.697108 -1.41344 0
M  V30 1702 C 164.999 1.82353 -1.45841 0
M  V30 1703 C 165.98 1.67115 -0.317247 0
M  V30 1704 O 167.165 1.86871 -0.528474 0
M  V30 1705 C 164.295 3.20476 -1.33838 0
M  V30 1706 C 163.249 3.50415 -2.4575 0
M  V30 1707 C 162.575 4.87878 -2.18813 0
M  V30 1708 C 163.875 3.49546 -3.88091 0
M  V30 1709 H 165.569 1.78846 -2.40113 0
M  V30 1710 H 163.115 0.859028 -1.15571 0
M  V30 1711 H 165.068 3.98988 -1.35596 0
M  V30 1712 H 163.792 3.24604 -0.360498 0
M  V30 1713 H 162.451 2.74253 -2.43271 0
M  V30 1714 H 162.099 4.8863 -1.19371 0
M  V30 1715 H 161.799 5.08875 -2.93803 0
M  V30 1716 H 163.323 5.68702 -2.22284 0
M  V30 1717 H 164.737 4.18066 -3.92293 0
M  V30 1718 H 163.134 3.82075 -4.62751 0
M  V30 1719 H 164.204 2.48552 -4.16353 0
M  V30 1720 N 165.547 1.27147 0.931209 0
M  V30 1721 C 166.963 1.04475 1.20653 0
M  V30 1722 C 167.163 -0.223885 2.00252 0
M  V30 1723 O 166.219 -0.930332 2.34736 0
M  V30 1724 C 167.532 2.28209 1.95809 0
M  V30 1725 C 169.08 2.33211 2.08762 0
M  V30 1726 C 169.555 3.56665 2.87323 0
M  V30 1727 N 171.046 3.57201 2.94892 0
M  V30 1728 C 171.781 4.49395 3.56134 0
M  V30 1729 N 171.277 5.51889 4.18796 0
M  V30 1730 N 173.07 4.37026 3.53504 0
M  V30 1731 H 165.221 2.08612 0.399333 0
M  V30 1732 H 167.484 0.917312 0.239253 0
M  V30 1733 H 167.19 3.20538 1.44736 0
M  V30 1734 H 167.064 2.33247 2.96438 0
M  V30 1735 H 169.451 1.41391 2.59023 0
M  V30 1736 H 169.532 2.32178 1.07364 0
M  V30 1737 H 169.176 4.4882 2.37746 0
M  V30 1738 H 169.106 3.54948 3.88998 0
M  V30 1739 H 171.597 2.83074 2.50354 0
M  V30 1740 H 171.91 6.18409 4.63454 0
M  V30 1741 H 170.255 5.55735 4.17353 0
M  V30 1742 H 173.446 3.56166 3.03749 0
M  V30 1743 H 173.619 5.09067 4.00942 0
M  V30 1744 N 167.025 -1.13721 1.09112 0
M  V30 1745 C 168.271 -1.85198 0.826414 0
M  V30 1746 C 168.604 -1.83129 -0.646319 0
M  V30 1747 O 167.879 -1.2671 -1.47563 0
M  V30 1748 C 168.162 -3.33507 1.35812 0
M  V30 1749 C 168.015 -3.44108 2.89672 0
M  V30 1750 C 169.334 -4.28838 0.989256 0
M  V30 1751 H 166.453 -0.67243 0.301675 0
M  V30 1752 H 169.095 -1.33499 1.35197 0
M  V30 1753 H 167.245 -3.77666 0.911082 0
M  V30 1754 H 168.917 -3.08684 3.428 0
M  V30 1755 H 167.16 -2.85087 3.26967 0
M  V30 1756 H 167.831 -4.48388 3.21951 0
M  V30 1757 H 170.307 -3.92734 1.37475 0
M  V30 1758 H 169.183 -5.31051 1.38838 0
M  V30 1759 H 169.444 -4.4198 -0.102924 0
M  V30 1760 N 168.503 -0.877838 -1.30888 0
M  V30 1761 C 169.45 -0.337538 -2.28318 0
M  V30 1762 C 170.42 0.568346 -1.56074 0
M  V30 1763 O 171.605 0.498298 -1.84178 0
M  V30 1764 C 168.745 0.448142 -3.42178 0
M  V30 1765 C 167.858 -0.48615 -4.29256 0
M  V30 1766 C 166.993 0.314427 -5.30269 0
M  V30 1767 C 166.032 -0.615791 -6.08995 0
M  V30 1768 N 165.169 0.14902 -7.01942 0
M  V30 1769 H 170.009 -1.17356 -2.73919 0
M  V30 1770 H 167.546 -0.590094 -1.34745 0
M  V30 1771 H 169.504 0.919517 -4.06941 0
M  V30 1772 H 168.134 1.24879 -2.97666 0
M  V30 1773 H 167.186 -1.076 -3.64865 0
M  V30 1774 H 168.498 -1.19909 -4.84173 0
M  V30 1775 H 167.652 0.847969 -6.00745 0
M  V30 1776 H 166.391 1.06062 -4.76027 0
M  V30 1777 H 165.396 -1.16102 -5.37401 0
M  V30 1778 H 166.621 -1.36097 -6.65323 0
M  V30 1779 H 164.567 0.877884 -6.50099 0
M  V30 1780 H 164.484 -0.504433 -7.54315 0
M  V30 1781 H 165.752 0.663537 -7.76671 0
M  V30 1782 N 169.982 1.44106 -0.638065 0
M  V30 1783 C 170.892 2.34513 0.0637334 0
M  V30 1784 C 171.908 1.53018 0.828346 0
M  V30 1785 O 173.084 1.85723 0.779036 0
M  V30 1786 C 170.149 3.31095 1.02844 0
M  V30 1787 C 169.21 4.28497 0.26244 0
M  V30 1788 C 168.443 5.20465 1.1812 0
M  V30 1789 O 168.666 5.16514 2.42011 0
M  V30 1790 O 167.6 5.98251 0.661774 0
M  V30 1791 H 171.426 2.95989 -0.68003 0
M  V30 1792 H 169.011 1.43994 -0.398252 0
M  V30 1793 H 170.893 3.90526 1.58327 0
M  V30 1794 H 169.568 2.72144 1.7527 0
M  V30 1795 H 168.475 3.72592 -0.335602 0
M  V30 1796 H 169.808 4.90388 -0.421936 0
M  V30 1797 N 171.46 0.379036 1.52974 0
M  V30 1798 C 172.737 -0.263479 1.93817 0
M  V30 1799 C 173.117 -1.65244 1.31368 0
M  V30 1800 O 172.465 -2.23448 0.477856 0
M  V30 1801 C 172.675 -0.300166 3.47707 0
M  V30 1802 C 174.023 -0.534061 4.21228 0
M  V30 1803 O 175.047 -0.38081 3.54159 0
M  V30 1804 O 173.906 -0.833501 5.40106 0
M  V30 1805 H 171 -0.161149 0.811147 0
M  V30 1806 H 173.546 0.432798 1.64088 0
M  V30 1807 H 172.318 0.673138 3.85467 0
M  V30 1808 H 171.941 -1.04179 3.83709 0
M  V30 1809 N 172.938 -1.57226 0.108567 0
M  V30 1810 C 173.848 -2.18292 -0.859401 0
M  V30 1811 C 174.864 -1.15612 -1.30038 0
M  V30 1812 O 176.04 -1.48039 -1.36552 0
M  V30 1813 C 173.105 -2.762 -2.09558 0
M  V30 1814 C 172.166 -3.93881 -1.70752 0
M  V30 1815 C 171.399 -4.49018 -2.88477 0
M  V30 1816 O 171.622 -4.03068 -4.036 0
M  V30 1817 O 170.556 -5.39852 -2.66164 0
M  V30 1818 H 174.382 -3.01441 -0.369769 0
M  V30 1819 H 171.967 -1.48945 -0.1165 0
M  V30 1820 H 173.849 -3.13156 -2.81978 0
M  V30 1821 H 172.524 -1.96089 -2.57548 0
M  V30 1822 H 171.431 -3.61713 -0.954714 0
M  V30 1823 H 172.764 -4.75396 -1.27513 0
M  V30 1824 N 174.416 0.165178 -1.56732 0
M  V30 1825 C 175.364 1.22369 -1.97809 0
M  V30 1826 C 176.358 1.45488 -0.867741 0
M  V30 1827 O 177.564 1.45995 -1.05288 0
M  V30 1828 H 173.939 0.411486 -0.629431 0
M  V30 1829 H 175.91 0.850425 -2.86025 0
M  V30 1830 C 174.659 2.55403 -2.35934 0
M  V30 1831 H 173.982 2.38438 -3.20916 0
M  V30 1832 H 175.422 3.2814 -2.68514 0
M  V30 1833 C 173.881 3.14611 -1.20506 0
M  V30 1834 O 174.411 3.98626 -0.496016 0
M  V30 1835 N 172.617 2.7379 -0.97403 0
M  V30 1836 H 172.164 2.0557 -1.55238 0
M  V30 1837 H 172.122 3.1374 -0.203573 0
M  V30 1838 N 175.894 1.51508 0.433938 0
M  V30 1839 C 177.14 1.64588 1.18484 0
M  V30 1840 C 177.473 0.362666 1.90784 0
M  V30 1841 O 176.748 -0.637892 1.83742 0
M  V30 1842 C 177.031 2.85149 2.19913 0
M  V30 1843 C 176.884 4.23456 1.51674 0
M  V30 1844 C 178.203 3.01227 3.20858 0
M  V30 1845 H 175.322 0.598994 0.429389 0
M  V30 1846 H 177.964 1.84002 0.473647 0
M  V30 1847 H 176.114 2.68729 2.80566 0
M  V30 1848 H 177.786 4.51552 0.943322 0
M  V30 1849 H 176.029 4.25998 0.819035 0
M  V30 1850 H 176.7 5.03812 2.2556 0
M  V30 1851 H 179.176 3.16382 2.70263 0
M  V30 1852 H 178.052 3.87141 3.89118 0
M  V30 1853 H 178.313 2.13447 3.8716 0
M  V30 1854 N 177.372 -0.689602 1.41712 0
M  V30 1855 C 178.783 -1.26973 1.36875 0
M  V30 1856 C 179.134 -1.96124 0.054748 0
M  V30 1857 O 178.259 -1.99141 -0.84687 0
M  V30 1858 C 178.854 -2.30912 2.47922 0
M  V30 1859 C 177.413 -2.84486 2.46464 0
M  V30 1860 C 176.56 -1.58603 2.27465 0
M  V30 1861 H 179.511 -0.48396 1.51141 0
M  V30 1862 H 179.532 -3.12331 2.17323 0
M  V30 1863 H 179.044 -1.80554 3.43543 0
M  V30 1864 H 177.145 -3.39005 1.54617 0
M  V30 1865 H 177.258 -3.34511 3.42986 0
M  V30 1866 H 175.622 -1.84632 1.75451 0
M  V30 1867 H 176.405 -1.10233 3.25121 0
M  V30 1868 N 178.85 -1.27639 -0.924453 0
M  V30 1869 C 180.097 -1.14167 -1.67249 0
M  V30 1870 C 180.425 0.311863 -1.91984 0
M  V30 1871 O 179.68 1.24425 -1.51053 0
M  V30 1872 C 179.979 -1.87407 -3.04325 0
M  V30 1873 C 179.645 -3.37249 -2.99289 0
M  V30 1874 C 178.307 -3.7812 -2.97622 0
M  V30 1875 C 180.659 -4.32845 -2.90336 0
M  V30 1876 C 177.987 -5.12944 -2.8479 0
M  V30 1877 C 180.339 -5.6773 -2.79045 0
M  V30 1878 C 179.003 -6.07889 -2.7573 0
M  V30 1879 H 178.273 -0.417766 -0.612007 0
M  V30 1880 H 180.92 -1.58286 -1.07786 0
M  V30 1881 H 179.225 -1.35805 -3.67511 0
M  V30 1882 H 180.922 -1.74408 -3.61086 0
M  V30 1883 H 177.512 -3.04748 -3.01374 0
M  V30 1884 H 181.696 -4.02239 -2.90719 0
M  V30 1885 H 176.952 -5.432 -2.80612 0
M  V30 1886 H 181.126 -6.41472 -2.71083 0
M  V30 1887 H 178.753 -7.12314 -2.65544 0
M  V30 1888 N 180.328 1.1314 -1.09713 0
M  V30 1889 C 181.258 2.20748 -0.761102 0
M  V30 1890 C 182.239 1.68061 0.262566 0
M  V30 1891 O 183.424 1.93765 0.129977 0
M  V30 1892 C 180.554 3.46812 -0.184054 0
M  V30 1893 C 179.508 4.12606 -1.13757 0
M  V30 1894 C 178.834 5.33031 -0.422083 0
M  V30 1895 C 180.134 4.59603 -2.48118 0
M  V30 1896 H 181.828 2.49113 -1.66082 0
M  V30 1897 H 179.374 1.19734 -0.799987 0
M  V30 1898 H 181.327 4.21353 0.0631215 0
M  V30 1899 H 180.051 3.17851 0.750868 0
M  V30 1900 H 178.71 3.40036 -1.37007 0
M  V30 1901 H 178.358 5.00335 0.517072 0
M  V30 1902 H 178.058 5.77999 -1.05788 0
M  V30 1903 H 179.582 6.10325 -0.183277 0
M  V30 1904 H 180.996 5.25552 -2.29059 0
M  V30 1905 H 179.393 5.15321 -3.07514 0
M  V30 1906 H 180.463 3.73971 -3.08665 0
M  V30 1907 N 181.806 0.884767 1.30421 0
M  V30 1908 C 182.736 0.367574 2.30589 0
M  V30 1909 C 183.717 -0.549464 1.60981 0
M  V30 1910 O 184.902 -0.46336 1.88591 0
M  V30 1911 C 182.032 -0.418944 3.44764 0
M  V30 1912 C 180.986 0.406316 4.26067 0
M  V30 1913 C 180.312 -0.506793 5.32293 0
M  V30 1914 C 181.612 1.64832 4.95608 0
M  V30 1915 H 183.306 1.20462 2.74097 0
M  V30 1916 H 180.852 0.580695 1.31772 0
M  V30 1917 H 182.805 -0.791395 4.13902 0
M  V30 1918 H 181.529 -1.28964 3.0006 0
M  V30 1919 H 180.188 0.760903 3.58617 0
M  V30 1920 H 179.836 -1.37519 4.83836 0
M  V30 1921 H 179.536 0.0415828 5.87585 0
M  V30 1922 H 181.06 -0.875764 6.04287 0
M  V30 1923 H 182.474 1.34646 5.57264 0
M  V30 1924 H 180.871 2.13688 5.60765 0
M  V30 1925 H 181.941 2.39284 4.21748 0
M  V30 1926 N 183.284 -1.43765 0.645699 0
M  V30 1927 C 184.53 -2.02197 0.156271 0
M  V30 1928 C 184.863 -1.50776 -1.22393 0
M  V30 1929 O 184.138 -0.697771 -1.81553 0
M  V30 1930 C 184.421 -3.59749 0.158872 0
M  V30 1931 C 184.274 -4.21419 1.57245 0
M  V30 1932 C 185.593 -4.37149 -0.50879 0
M  V30 1933 H 182.712 -0.734694 0.0582602 0
M  V30 1934 H 185.354 -1.71157 0.824951 0
M  V30 1935 H 183.504 -3.86325 -0.410525 0
M  V30 1936 H 185.176 -4.059 2.19186 0
M  V30 1937 H 183.419 -3.78356 2.122 0
M  V30 1938 H 184.09 -5.30482 1.52619 0
M  V30 1939 H 186.566 -4.16093 -0.024412 0
M  V30 1940 H 185.442 -5.4683 -0.476213 0
M  V30 1941 H 185.703 -4.12839 -1.58165 0
M  V30 1942 N 184.763 -0.387143 -1.52771 0
M  V30 1943 C 186.011 0.195349 -2.01154 0
M  V30 1944 C 186.332 1.475 -1.27549 0
M  V30 1945 O 185.602 1.91878 -0.394924 0
M  V30 1946 H 184.182 0.075178 -0.743207 0
M  V30 1947 H 186.844 -0.518337 -1.87881 0
M  V30 1948 H 185.94 0.407096 -3.09434 0
M  V30 1949 N 186.241 1.57166 -0.116904 0
M  V30 1950 C 187.189 2.16457 0.851418 0
M  V30 1951 C 188.183 1.11323 1.27686 0
M  V30 1952 O 189.389 1.2963 1.24884 0
M  V30 1953 H 185.764 0.69271 0.292672 0
M  V30 1954 H 187.735 2.96605 0.32685 0
M  V30 1955 C 186.484 2.77689 2.09246 0
M  V30 1956 H 185.807 3.58285 1.77402 0
M  V30 1957 H 187.247 3.22716 2.7501 0
M  V30 1958 C 185.706 1.74667 2.88085 0
M  V30 1959 O 186.236 1.19877 3.83396 0
M  V30 1960 N 184.442 1.44656 2.52038 0
M  V30 1961 H 183.989 1.89402 1.74599 0
M  V30 1962 H 183.947 0.759675 3.05084 0
M  V30 1963 N 187.719 -0.156864 1.56817 0
M  V30 1964 C 188.666 -1.19394 1.97519 0
M  V30 1965 C 189.636 -1.4322 0.841265 0
M  V30 1966 O 190.821 -1.55719 1.10255 0
M  V30 1967 C 187.961 -2.52483 2.35258 0
M  V30 1968 C 187.074 -2.35914 3.61896 0
M  V30 1969 C 186.209 -3.61969 3.88782 0
M  V30 1970 C 185.248 -3.40395 5.08722 0
M  V30 1971 N 184.385 -4.58556 5.31668 0
M  V30 1972 H 189.225 -0.839845 2.85921 0
M  V30 1973 H 186.762 -0.403264 1.41464 0
M  V30 1974 H 188.72 -3.30071 2.55165 0
M  V30 1975 H 187.35 -2.85859 1.49949 0
M  V30 1976 H 186.402 -1.49429 3.49821 0
M  V30 1977 H 187.714 -2.15926 4.49641 0
M  V30 1978 H 186.868 -4.47989 4.09135 0
M  V30 1979 H 185.607 -3.84951 2.9944 0
M  V30 1980 H 184.612 -2.52763 4.88253 0
M  V30 1981 H 185.837 -3.18822 5.99608 0
M  V30 1982 H 183.783 -4.81729 4.45279 0
M  V30 1983 H 183.7 -4.41535 6.13664 0
M  V30 1984 H 184.968 -5.45817 5.5651 0
M  V30 1985 N 189.197 -1.51736 -0.425897 0
M  V30 1986 C 190.422 -1.69082 -1.20108 0
M  V30 1987 C 190.847 -0.392398 -1.83962 0
M  V30 1988 O 190.205 0.64858 -1.69302 0
M  V30 1989 C 190.253 -2.81604 -2.25237 0
M  V30 1990 O 189.357 -2.46004 -3.30992 0
M  V30 1991 H 188.698 -0.563408 -0.35138 0
M  V30 1992 H 191.228 -1.98358 -0.501512 0
M  V30 1993 H 191.238 -3.06025 -2.69838 0
M  V30 1994 H 189.913 -3.75817 -1.78142 0
M  V30 1995 H 188.49 -2.32195 -2.91787 0
M  V30 1996 N 190.675 0.682077 -1.42076 0
M  V30 1997 C 191.952 1.43755 -1.32642 0
M  V30 1998 C 192.332 2.11063 0.0396611 0
M  V30 1999 O 191.68 2.02701 1.05474 0
M  V30 2000 C 191.89 2.44596 -2.48946 0
M  V30 2001 C 193.238 3.09454 -2.9073 0
M  V30 2002 O 194.262 2.54922 -2.48783 0
M  V30 2003 O 193.121 4.08253 -3.63307 0
M  V30 2004 H 190.215 0.640857 -0.522715 0
M  V30 2005 H 192.761 0.711415 -1.54068 0
M  V30 2006 H 191.533 1.93609 -3.40046 0
M  V30 2007 H 191.156 3.24701 -2.29467 0
M  V30 2008 N 192.153 1.28127 0.917671 0
M  V30 2009 C 193.083 1.14248 2.03641 0
M  V30 2010 C 194.064 0.0412748 1.7005 0
M  V30 2011 O 195.249 0.217566 1.92977 0
M  V30 2012 C 192.379 0.799431 3.37974 0
M  V30 2013 C 191.333 1.85497 3.85713 0
M  V30 2014 C 190.659 1.36565 5.16966 0
M  V30 2015 C 191.959 3.26085 4.08002 0
M  V30 2016 H 193.653 2.07835 2.15511 0
M  V30 2017 H 191.199 1.00064 1.03553 0
M  V30 2018 H 193.152 0.689114 4.15727 0
M  V30 2019 H 191.876 -0.172145 3.26146 0
M  V30 2020 H 190.535 1.95437 3.10161 0
M  V30 2021 H 190.183 0.383253 5.01538 0
M  V30 2022 H 189.883 2.07143 5.49878 0
M  V30 2023 H 191.407 1.26848 5.97279 0
M  V30 2024 H 192.821 3.19089 4.76293 0
M  V30 2025 H 191.218 3.94462 4.52238 0
M  V30 2026 H 192.288 3.70394 3.12948 0
M  V30 2027 N 193.631 -1.12557 1.10312 0
M  V30 2028 C 194.541 -2.21841 0.763142 0
M  V30 2029 C 195.557 -1.72354 -0.238801 0
M  V30 2030 O 196.733 -2.01249 -0.0778746 0
M  V30 2031 C 193.798 -3.46131 0.198632 0
M  V30 2032 C 192.859 -4.10464 1.25769 0
M  V30 2033 C 192.092 -5.28821 0.72002 0
M  V30 2034 O 192.315 -5.6859 -0.453993 0
M  V30 2035 O 191.249 -5.83437 1.47935 0
M  V30 2036 H 195.075 -2.53312 1.67532 0
M  V30 2037 H 192.66 -1.20867 0.878157 0
M  V30 2038 H 194.542 -4.2125 -0.112401 0
M  V30 2039 H 193.217 -3.16338 -0.686419 0
M  V30 2040 H 192.124 -3.3713 1.62156 0
M  V30 2041 H 193.457 -4.44408 2.11571 0
M  V30 2042 N 195.109 -0.891671 -1.2995 0
M  V30 2043 C 196.386 -0.433307 -1.9074 0
M  V30 2044 C 196.766 1.08646 -1.80995 0
M  V30 2045 O 196.114 1.92476 -1.23147 0
M  V30 2046 C 196.324 -0.938895 -3.36134 0
M  V30 2047 C 197.672 -0.977829 -4.13187 0
M  V30 2048 O 198.696 -0.886015 -3.45005 0
M  V30 2049 O 197.555 -1.11453 -5.35015 0
M  V30 2050 H 194.649 -0.133699 -0.816121 0
M  V30 2051 H 197.195 -0.981011 -1.38471 0
M  V30 2052 H 195.967 -1.98281 -3.37343 0
M  V30 2053 H 195.59 -0.37074 -3.95868 0
M  V30 2054 N 196.587 1.43421 -0.653314 0
M  V30 2055 C 197.534 2.30768 0.0382271 0
M  V30 2056 C 198.504 1.44755 0.814576 0
M  V30 2057 O 199.689 1.73624 0.791162 0
M  V30 2058 C 196.829 3.30336 0.998599 0
M  V30 2059 C 195.942 4.31448 0.218342 0
M  V30 2060 C 195.077 5.18098 1.17252 0
M  V30 2061 C 194.116 6.10902 0.382702 0
M  V30 2062 N 193.253 6.90176 1.28848 0
M  V30 2063 H 198.093 2.89357 -0.712511 0
M  V30 2064 H 195.63 1.42548 -0.363128 0
M  V30 2065 H 197.588 3.86572 1.56901 0
M  V30 2066 H 196.218 2.73397 1.71621 0
M  V30 2067 H 195.27 3.77506 -0.46836 0
M  V30 2068 H 196.582 4.97227 -0.395812 0
M  V30 2069 H 195.736 5.7896 1.81356 0
M  V30 2070 H 194.475 4.52444 1.82058 0
M  V30 2071 H 193.48 5.49128 -0.27169 0
M  V30 2072 H 194.705 6.78598 -0.260957 0
M  V30 2073 H 192.651 6.27171 1.92334 0
M  V30 2074 H 192.568 7.52478 0.728887 0
M  V30 2075 H 193.836 7.55543 1.91766 0
M  V30 2076 N 198.065 0.39524 1.52563 0
M  V30 2077 C 199.481 0.0454682 1.59535 0
M  V30 2078 C 199.681 -1.44056 1.4089 0
M  V30 2079 O 198.737 -2.20579 1.22888 0
M  V30 2080 C 200.05 0.527963 2.96029 0
M  V30 2081 C 201.598 0.484733 3.09224 0
M  V30 2082 C 202.073 0.943512 4.48176 0
M  V30 2083 N 203.564 0.899765 4.54377 0
M  V30 2084 C 204.299 1.22609 5.60138 0
M  V30 2085 N 203.795 1.62319 6.73516 0
M  V30 2086 N 205.588 1.14696 5.50274 0
M  V30 2087 H 197.739 1.36261 1.62931 0
M  V30 2088 H 200.002 0.558887 0.765735 0
M  V30 2089 H 199.708 1.56607 3.14908 0
M  V30 2090 H 199.582 -0.0698056 3.77135 0
M  V30 2091 H 201.969 -0.544298 2.90037 0
M  V30 2092 H 202.05 1.11838 2.30056 0
M  V30 2093 H 201.694 1.9708 4.68104 0
M  V30 2094 H 201.624 0.286817 5.25818 0
M  V30 2095 H 204.115 0.607632 3.72983 0
M  V30 2096 H 204.428 1.85567 7.5019 0
M  V30 2097 H 202.773 1.66211 6.74833 0
M  V30 2098 H 205.964 0.835701 4.6058 0
M  V30 2099 H 206.137 1.40459 6.32594 0
M  V30 2100 N 199.544 -1.57102 0.125237 0
M  V30 2101 C 200.476 -2.12726 -0.853237 0
M  V30 2102 C 201.489 -1.07145 -1.22571 0
M  V30 2103 O 202.678 -1.34497 -1.17358 0
M  V30 2104 C 199.778 -2.61709 -2.15317 0
M  V30 2105 C 198.951 -3.91456 -1.95143 0
M  V30 2106 C 198.01 -4.25973 -3.08923 0
M  V30 2107 O 197.036 -4.94682 -2.81564 0
M  V30 2108 N 198.238 -3.83795 -4.35524 0
M  V30 2109 H 201.003 -2.97307 -0.377964 0
M  V30 2110 H 198.564 -1.61792 -0.0590011 0
M  V30 2111 H 200.556 -2.81826 -2.90441 0
M  V30 2112 H 199.126 -1.81974 -2.54174 0
M  V30 2113 H 198.346 -3.80185 -1.04177 0
M  V30 2114 H 199.634 -4.76283 -1.78976 0
M  V30 2115 H 199.032 -3.2839 -4.60626 0
M  V30 2116 H 197.589 -4.09008 -5.07499 0
M  V30 2117 N 201.022 0.148545 -1.56898 0
M  V30 2118 C 202.268 0.862694 -1.83536 0
M  V30 2119 C 202.601 1.80889 -0.706604 0
M  V30 2120 O 201.876 1.92328 0.289885 0
M  V30 2121 C 202.159 1.63853 -3.20662 0
M  V30 2122 C 202.012 0.713925 -4.44098 0
M  V30 2123 C 203.331 2.60133 -3.54991 0
M  V30 2124 H 200.45 0.312179 -0.667618 0
M  V30 2125 H 203.092 0.127953 -1.89569 0
M  V30 2126 H 201.242 2.26489 -3.1565 0
M  V30 2127 H 202.914 0.098686 -4.61194 0
M  V30 2128 H 201.157 0.0234019 -4.33794 0
M  V30 2129 H 201.828 1.29278 -5.36648 0
M  V30 2130 H 204.304 2.07616 -3.60603 0
M  V30 2131 H 203.18 3.11468 -4.51972 0
M  V30 2132 H 203.441 3.41417 -2.80868 0
M  V30 2133 N 202.5 1.5196 0.417844 0
M  V30 2134 C 203.725 1.69717 1.1921 0
M  V30 2135 C 204.15 0.402148 1.83751 0
M  V30 2136 O 203.508 -0.639593 1.69643 0
M  V30 2137 C 203.556 2.82794 2.2374 0
M  V30 2138 O 202.66 2.47756 3.29683 0
M  V30 2139 H 202.001 0.565263 0.348387 0
M  V30 2140 H 204.531 1.98621 0.490985 0
M  V30 2141 H 204.541 3.07452 2.68212 0
M  V30 2142 H 203.216 3.76756 1.76146 0
M  V30 2143 H 201.793 2.33739 2.90552 0
M  V30 2144 N 203.978 -0.674533 1.42435 0
M  V30 2145 C 205.224 -1.43671 1.43131 0
M  V30 2146 C 205.557 -1.94142 0.0476021 0
M  V30 2147 O 204.832 -1.70924 -0.928188 0
M  V30 2148 C 205.115 -2.63355 2.45594 0
M  V30 2149 C 204.968 -2.18514 3.93156 0
M  V30 2150 C 206.287 -3.65571 2.45043 0
M  V30 2151 H 203.406 -0.521077 0.521198 0
M  V30 2152 H 206.048 -0.766551 1.7385 0
M  V30 2153 H 204.198 -3.2053 2.19528 0
M  V30 2154 H 205.87 -1.66504 4.30202 0
M  V30 2155 H 204.113 -1.50086 4.07009 0
M  V30 2156 H 204.784 -3.04484 4.60428 0
M  V30 2157 H 207.26 -3.18113 2.68223 0
M  V30 2158 H 206.136 -4.46893 3.18713 0
M  V30 2159 H 206.397 -4.16716 1.47649 0
M  V30 2160 N 205.456 -1.28612 -0.910864 0
M  V30 2161 C 206.366 -1.14643 -2.0468 0
M  V30 2162 C 207.382 -0.0723121 -1.7385 0
M  V30 2163 O 208.558 -0.282178 -1.99413 0
M  V30 2164 C 205.623 -0.812561 -3.37044 0
M  V30 2165 C 204.684 -1.96935 -3.81465 0
M  V30 2166 C 203.917 -1.65131 -5.07511 0
M  V30 2167 O 204.14 -0.567013 -5.67575 0
M  V30 2168 O 203.074 -2.49585 -5.47714 0
M  V30 2169 H 206.9 -2.1001 -2.19384 0
M  V30 2170 H 204.485 -1.07958 -1.03274 0
M  V30 2171 H 206.367 -0.640441 -4.16505 0
M  V30 2172 H 205.042 0.111426 -3.23508 0
M  V30 2173 H 203.949 -2.19664 -3.02818 0
M  V30 2174 H 205.282 -2.87414 -3.99567 0
M  V30 2175 N 206.934 1.1197 -1.10907 0
M  V30 2176 C 207.844 2.21433 -0.774896 0
M  V30 2177 C 208.86 1.72478 0.229657 0
M  V30 2178 O 210.036 2.01288 0.0672008 0
M  V30 2179 C 207.101 3.4602 -0.216986 0
M  V30 2180 C 206.162 4.09791 -1.27944 0
M  V30 2181 C 205.395 5.28431 -0.748055 0
M  V30 2182 O 205.618 5.68823 0.423833 0
M  V30 2183 O 204.552 5.82644 -1.51027 0
M  V30 2184 H 208.378 2.5242 -1.68873 0
M  V30 2185 H 205.963 1.20399 -0.884555 0
M  V30 2186 H 207.845 4.21304 0.090059 0
M  V30 2187 H 206.52 3.16698 0.669633 0
M  V30 2188 H 205.427 3.36265 -1.63941 0
M  V30 2189 H 206.76 4.4328 -2.13925 0
M  V30 2190 N 208.412 0.89855 1.29475 0
M  V30 2191 C 209.375 0.380272 2.26023 0
M  V30 2192 C 210.375 -0.484891 1.53315 0
M  V30 2193 O 211.565 -0.290108 1.71767 0
M  V30 2194 C 208.697 -0.45651 3.3783 0
M  V30 2195 H 209.89 1.23295 2.73383 0
M  V30 2196 H 207.443 0.676589 1.40897 0
M  V30 2197 H 208.178 -1.32922 2.95808 0
M  V30 2198 H 207.963 0.163393 3.91759 0
M  V30 2199 H 209.453 -0.810466 4.0966 0
M  V30 2200 N 209.89 -1.43072 0.660911 0
M  V30 2201 C 210.837 -2.30785 -0.0259884 0
M  V30 2202 C 211.807 -1.45184 -0.806888 0
M  V30 2203 O 212.992 -1.74041 -0.781943 0
M  V30 2204 C 210.132 -3.30861 -0.981067 0
M  V30 2205 C 209.245 -4.31558 -0.195458 0
M  V30 2206 C 208.38 -5.18712 -1.14503 0
M  V30 2207 C 207.419 -6.11097 -0.350299 0
M  V30 2208 N 206.556 -6.90849 -1.25186 0
M  V30 2209 H 211.396 -2.88975 0.727846 0
M  V30 2210 H 208.933 -1.42353 0.370682 0
M  V30 2211 H 210.891 -3.87399 -1.54849 0
M  V30 2212 H 209.521 -2.74304 -1.70169 0
M  V30 2213 H 208.573 -3.77252 0.488374 0
M  V30 2214 H 209.885 -4.9701 0.422176 0
M  V30 2215 H 209.039 -5.79914 -1.78284 0
M  V30 2216 H 207.778 -4.53404 -1.79656 0
M  V30 2217 H 206.783 -5.48976 0.300808 0
M  V30 2218 H 208.008 -6.7845 0.296941 0
M  V30 2219 H 205.954 -6.28182 -1.89005 0
M  V30 2220 H 205.871 -7.52854 -0.688971 0
M  V30 2221 H 207.139 -7.5655 -1.87757 0
M  V30 2222 N 211.368 -0.403325 -1.52352 0
M  V30 2223 C 212.316 0.439752 -2.28405 0
M  V30 2224 C 213.31 1.05089 -1.32863 0
M  V30 2225 O 214.516 0.989759 -1.50345 0
M  V30 2226 H 210.891 0.160587 -0.734653 0
M  V30 2227 H 212.862 -0.222983 -2.97566 0
M  V30 2228 C 211.611 1.54736 -3.11371 0
M  V30 2229 H 210.934 1.08643 -3.84755 0
M  V30 2230 H 212.374 2.1112 -3.67701 0
M  V30 2231 C 210.833 2.51141 -2.24566 0
M  V30 2232 O 211.363 3.54887 -1.88196 0
M  V30 2233 N 209.569 2.21213 -1.8845 0
M  V30 2234 H 209.116 1.36878 -2.18225 0
M  V30 2235 H 209.074 2.85963 -1.30662 0
M  V30 2236 N 212.846 1.57033 -0.133567 0
M  V30 2237 C 214.262 1.58035 0.222944 0
M  V30 2238 C 214.462 1.14713 1.6566 0
M  V30 2239 O 213.518 0.841218 2.38075 0
M  V30 2240 C 214.831 3.00691 -0.0236116 0
M  V30 2241 C 216.379 3.12973 0.0411512 0
M  V30 2242 C 216.854 4.57654 -0.177899 0
M  V30 2243 N 218.345 4.63033 -0.124365 0
M  V30 2244 C 219.08 5.72771 -0.268553 0
M  V30 2245 N 218.576 6.91206 -0.46972 0
M  V30 2246 N 220.369 5.61718 -0.2071 0
M  V30 2247 H 212.52 1.8349 -1.06981 0
M  V30 2248 H 214.783 0.848677 -0.422436 0
M  V30 2249 H 214.489 3.36726 -1.0153 0
M  V30 2250 H 214.363 3.70614 0.701808 0
M  V30 2251 H 216.75 2.76787 1.02338 0
M  V30 2252 H 216.831 2.45564 -0.716383 0
M  V30 2253 H 216.475 4.94542 -1.15717 0
M  V30 2254 H 216.405 5.23173 0.599797 0
M  V30 2255 H 218.896 3.7789 0.027011 0
M  V30 2256 H 219.209 7.70693 -0.570212 0
M  V30 2257 H 217.554 6.93156 -0.505876 0
M  V30 2258 H 220.745 4.68072 -0.0507986 0
M  V30 2259 H 220.918 6.47195 -0.322909 0
M  V30 2260 N 214.325 -0.140222 1.56975 0
M  V30 2261 C 215.288 -1.15689 1.97861 0
M  V30 2262 C 216.288 -1.3549 0.865974 0
M  V30 2263 O 217.478 -1.32367 1.13246 0
M  V30 2264 C 214.61 -2.51582 2.30042 0
M  V30 2265 H 215.803 -0.805971 2.88867 0
M  V30 2266 H 213.356 -0.383801 1.51515 0
M  V30 2267 H 214.091 -2.91632 1.41849 0
M  V30 2268 H 213.876 -2.38569 3.11171 0
M  V30 2269 H 215.366 -3.24792 2.62488 0
M  V30 2270 N 215.803 -1.52179 -0.40978 0
M  V30 2271 C 216.713 -1.78364 -1.52392 0
M  V30 2272 C 217.729 -0.669183 -1.60617 0
M  V30 2273 O 218.905 -0.954518 -1.77344 0
M  V30 2274 C 215.97 -1.92822 -2.88133 0
M  V30 2275 C 215.031 -3.16725 -2.898 0
M  V30 2276 C 214.264 -3.30483 -4.19067 0
M  V30 2277 O 214.487 -2.49522 -5.12928 0
M  V30 2278 O 213.421 -4.2363 -4.27576 0
M  V30 2279 H 217.247 -2.72931 -1.33201 0
M  V30 2280 H 214.832 -1.37016 -0.59557 0
M  V30 2281 H 216.714 -2.04157 -3.68643 0
M  V30 2282 H 215.389 -1.01444 -3.07393 0
M  V30 2283 H 214.296 -3.10848 -2.08146 0
M  V30 2284 H 215.629 -4.07881 -2.75489 0
M  V30 2285 N 217.281 0.66697 -1.42791 0
M  V30 2286 C 218.213 1.7925 -1.42836 0
M  V30 2287 C 219.226 1.59496 -0.326333 0
M  V30 2288 O 220.415 1.6847 -0.589916 0
M  V30 2289 C 217.515 3.16476 -1.21229 0
M  V30 2290 C 216.688 3.63011 -2.44013 0
M  V30 2291 C 215.747 4.78993 -2.17834 0
M  V30 2292 O 214.773 4.89137 -2.91091 0
M  V30 2293 N 215.975 5.68248 -1.18635 0
M  V30 2294 H 218.74 1.79695 -2.39854 0
M  V30 2295 H 216.301 0.850338 -1.37771 0
M  V30 2296 H 218.293 3.91734 -1.01621 0
M  V30 2297 H 216.863 3.10884 -0.32706 0
M  V30 2298 H 216.083 2.78346 -2.79137 0
M  V30 2299 H 217.371 3.90845 -3.25757 0
M  V30 2300 H 216.769 5.62712 -0.580615 0
M  V30 2301 H 215.326 6.43285 -1.05013 0
M  V30 2302 N 218.759 1.29093 0.90403 0
M  V30 2303 C 220.005 1.17996 1.65676 0
M  V30 2304 C 220.36 -0.266816 1.90541 0
M  V30 2305 O 219.653 -1.19 1.50165 0
M  V30 2306 C 219.847 1.92224 3.01305 0
M  V30 2307 C 219.676 3.43972 2.89678 0
M  V30 2308 C 218.446 4.1332 2.90679 0
M  V30 2309 C 220.644 4.39546 2.67028 0
M  V30 2310 N 218.626 5.51463 2.69743 0
M  V30 2311 C 219.997 5.65119 2.5503 0
M  V30 2312 C 222.052 4.29359 2.52101 0
M  V30 2313 C 220.755 6.81663 2.29626 0
M  V30 2314 C 222.781 5.4565 2.28079 0
M  V30 2315 C 222.143 6.70193 2.16843 0
M  V30 2316 H 218.242 0.486759 0.612037 0
M  V30 2317 H 220.826 1.62868 1.06688 0
M  V30 2318 H 218.997 1.49773 3.58361 0
M  V30 2319 H 220.729 1.73429 3.65656 0
M  V30 2320 H 217.484 3.64984 3.01801 0
M  V30 2321 H 217.908 6.24105 2.6234 0
M  V30 2322 H 222.55 3.33769 2.59534 0
M  V30 2323 H 220.268 7.77313 2.20932 0
M  V30 2324 H 223.854 5.39664 2.1738 0
M  V30 2325 H 222.734 7.58659 1.98511 0
M  V30 2326 N 220.237 -1.11381 1.11499 0
M  V30 2327 C 221.185 -2.19522 0.768956 0
M  V30 2328 C 222.179 -1.67693 -0.239857 0
M  V30 2329 O 223.385 -1.79727 -0.0990755 0
M  V30 2330 H 219.76 -0.715711 0.230786 0
M  V30 2331 H 221.731 -2.45954 1.68964 0
M  V30 2332 C 220.48 -3.46945 0.229073 0
M  V30 2333 H 219.803 -3.8718 0.996596 0
M  V30 2334 H 221.243 -4.23993 0.0251441 0
M  V30 2335 C 219.702 -3.2042 -1.04079 0
M  V30 2336 O 220.232 -3.41178 -2.12038 0
M  V30 2337 N 218.438 -2.74151 -0.963823 0
M  V30 2338 H 217.985 -2.57459 -0.0851722 0
M  V30 2339 H 217.943 -2.56781 -1.81414 0
M  V30 2340 N 221.715 -0.905404 -1.28997 0
M  V30 2341 C 222.961 -0.535039 -1.95615 0
M  V30 2342 C 223.294 0.917404 -1.71165 0
M  V30 2343 O 222.569 1.65123 -1.02785 0
M  V30 2344 C 222.852 -0.834918 -3.50287 0
M  V30 2345 C 222.705 -2.33948 -3.84172 0
M  V30 2346 C 224.024 -0.325318 -4.38896 0
M  V30 2347 H 221.143 -0.195861 -0.710498 0
M  V30 2348 H 223.785 -1.13313 -1.52513 0
M  V30 2349 H 221.935 -0.325904 -3.87131 0
M  V30 2350 H 223.607 -2.91847 -3.57243 0
M  V30 2351 H 221.85 -2.79789 -3.31513 0
M  V30 2352 H 222.521 -2.49987 -4.92149 0
M  V30 2353 H 224.997 -0.761256 -4.09077 0
M  V30 2354 H 223.873 -0.564295 -5.45992 0
M  V30 2355 H 224.134 0.774144 -4.35269 0
M  V30 2356 N 223.193 1.4272 -0.668489 0
M  V30 2357 C 224.141 2.32586 0.0254857 0
M  V30 2358 C 225.135 1.49471 0.797176 0
M  V30 2359 O 226.341 1.65583 0.705853 0
M  V30 2360 H 222.716 0.751514 0.0270339 0
M  V30 2361 H 224.687 2.88823 -0.749936 0
M  V30 2362 C 223.436 3.3397 0.967427 0
M  V30 2363 H 222.759 3.97961 0.383048 0
M  V30 2364 H 224.199 3.9945 1.42181 0
M  V30 2365 C 222.658 2.65744 2.0708 0
M  V30 2366 O 223.188 2.48454 3.15648 0
M  V30 2367 N 221.394 2.2487 1.8407 0
M  V30 2368 H 220.941 2.39132 0.95778 0
M  V30 2369 H 220.899 1.79552 2.58086 0
M  V30 2370 N 224.671 0.411399 1.52136 0
M  V30 2371 C 225.901 -0.16284 2.05957 0
M  V30 2372 C 226.309 -1.3922 1.28119 0
M  V30 2373 O 225.652 -1.80768 0.326881 0
M  V30 2374 C 225.714 -0.575946 3.54856 0
M  V30 2375 C 225.378 0.542998 4.53763 0
M  V30 2376 C 226.375 1.40726 5.00492 0
M  V30 2377 C 224.06 0.716337 4.97166 0
M  V30 2378 C 226.054 2.4298 5.8927 0
M  V30 2379 C 223.741 1.74218 5.8574 0
M  V30 2380 C 224.739 2.59731 6.31687 0
M  V30 2381 O 224.427 3.60558 7.18507 0
M  V30 2382 H 224.159 -0.0229125 0.675612 0
M  V30 2383 H 226.713 0.581634 1.96993 0
M  V30 2384 H 224.943 -1.37274 3.61515 0
M  V30 2385 H 226.632 -1.07836 3.91313 0
M  V30 2386 H 227.398 1.28476 4.67674 0
M  V30 2387 H 223.277 0.0603857 4.6096 0
M  V30 2388 H 226.821 3.0976 6.25055 0
M  V30 2389 H 222.718 1.86498 6.17971 0
M  V30 2390 H 223.486 3.56829 7.36624 0
M  V30 2391 N 226.149 -1.5696 0.141893 0
M  V30 2392 C 227.395 -1.9625 -0.511248 0
M  V30 2393 C 227.728 -1.02654 -1.64851 0
M  V30 2394 O 227.003 -0.0679676 -1.94381 0
M  V30 2395 C 227.286 -3.45285 -1.02227 0
M  V30 2396 C 227.139 -4.49658 0.113138 0
M  V30 2397 C 228.458 -3.96698 -1.90574 0
M  V30 2398 H 225.577 -0.713567 -0.184367 0
M  V30 2399 H 228.219 -1.88698 0.222087 0
M  V30 2400 H 226.369 -3.51852 -1.64719 0
M  V30 2401 H 228.041 -4.55174 0.749302 0
M  V30 2402 H 226.284 -4.26857 0.773026 0
M  V30 2403 H 226.955 -5.51258 -0.286053 0
M  V30 2404 H 229.431 -3.92578 -1.37918 0
M  V30 2405 H 228.307 -5.01453 -2.2324 0
M  V30 2406 H 228.568 -3.3875 -2.84079 0
M  V30 2407 N 227.627 0.131896 -1.57047 0
M  V30 2408 C 228.537 1.1815 -2.02676 0
M  V30 2409 C 229.553 1.46113 -0.944824 0
M  V30 2410 O 230.729 1.57485 -1.25541 0
M  V30 2411 C 227.794 2.49139 -2.41103 0
M  V30 2412 C 226.855 2.28688 -3.63318 0
M  V30 2413 C 226.088 3.53431 -3.99903 0
M  V30 2414 O 226.311 4.60223 -3.36973 0
M  V30 2415 O 225.245 3.45198 -4.93074 0
M  V30 2416 H 229.071 0.824069 -2.92306 0
M  V30 2417 H 226.656 0.341745 -1.45439 0
M  V30 2418 H 228.538 3.26338 -2.66611 0
M  V30 2419 H 227.213 2.84382 -1.54624 0
M  V30 2420 H 226.12 1.4939 -3.42977 0
M  V30 2421 H 227.453 1.98355 -4.50462 0
M  V30 2422 N 229.106 1.52395 0.401703 0
M  V30 2423 C 230.334 1.70676 1.16949 0
M  V30 2424 C 230.749 0.419503 1.8408 0
M  V30 2425 O 230.106 -0.605061 1.72178 0
M  V30 2426 C 230.157 2.84753 2.22706 0
M  V30 2427 O 229.878 4.08495 1.58314 0
M  V30 2428 C 231.379 3.14608 3.12309 0
M  V30 2429 H 228.599 0.571787 0.351142 0
M  V30 2430 H 231.143 1.98987 0.471652 0
M  V30 2431 H 229.298 2.58941 2.88147 0
M  V30 2432 H 229.712 4.72117 2.28485 0
M  V30 2433 H 231.186 3.97923 3.82572 0
M  V30 2434 H 231.663 2.28464 3.75101 0
M  V30 2435 H 232.269 3.42212 2.52529 0
M  V30 2436 N 230.584 -0.659388 1.43143 0
M  V30 2437 C 231.809 -1.45221 1.48073 0
M  V30 2438 C 232.234 -1.87845 0.097995 0
M  V30 2439 O 231.592 -1.56985 -0.90694 0
M  V30 2440 C 231.64 -2.66748 2.42647 0
M  V30 2441 O 230.744 -3.65583 1.90848 0
M  V30 2442 H 230.085 -0.435669 0.501088 0
M  V30 2443 H 232.615 -0.807432 1.87994 0
M  V30 2444 H 232.625 -3.14637 2.59745 0
M  V30 2445 H 231.3 -2.35067 3.43098 0
M  V30 2446 H 229.877 -3.24693 1.83381 0
M  V30 2447 N 232.062 -1.29571 -0.897171 0
M  V30 2448 C 233.025 -1.14913 -1.98312 0
M  V30 2449 C 234.025 -0.0838629 -1.60581 0
M  V30 2450 O 235.215 -0.331006 -1.71026 0
M  V30 2451 C 232.347 -0.757835 -3.3237 0
M  V30 2452 H 233.54 -2.11377 -2.12743 0
M  V30 2453 H 231.093 -1.12793 -1.08201 0
M  V30 2454 H 231.828 0.206837 -3.2364 0
M  V30 2455 H 231.613 -1.52755 -3.61121 0
M  V30 2456 H 233.103 -0.678408 -4.12053 0
M  V30 2457 N 233.54 1.10788 -1.12088 0
M  V30 2458 C 234.487 2.17025 -0.785407 0
M  V30 2459 C 235.457 1.64265 0.246191 0
M  V30 2460 O 236.642 1.90412 0.121584 0
M  V30 2461 C 233.782 3.44249 -0.242177 0
M  V30 2462 C 232.895 4.1098 -1.33115 0
M  V30 2463 C 232.03 5.25911 -0.747741 0
M  V30 2464 C 231.069 5.84538 -1.81609 0
M  V30 2465 N 230.206 6.90853 -1.25167 0
M  V30 2466 H 235.046 2.45066 -1.69548 0
M  V30 2467 H 232.583 1.20297 -0.846582 0
M  V30 2468 H 234.541 4.17101 0.0908026 0
M  V30 2469 H 233.171 3.16571 0.631072 0
M  V30 2470 H 232.223 3.36133 -1.78097 0
M  V30 2471 H 233.535 4.50601 -2.13917 0
M  V30 2472 H 232.689 6.056 -0.365216 0
M  V30 2473 H 231.428 4.87614 0.0915188 0
M  V30 2474 H 230.433 5.03522 -2.20785 0
M  V30 2475 H 231.658 6.249 -2.6585 0
M  V30 2476 H 229.604 6.54562 -0.434174 0
M  V30 2477 H 229.521 7.29166 -1.99633 0
M  V30 2478 H 230.789 7.7433 -0.896259 0
M  V30 2479 N 235.018 0.912232 1.28515 0
M  V30 2480 C 236.246 0.560416 1.99166 0
M  V30 2481 C 236.661 -0.857927 1.68182 0
M  V30 2482 O 236.018 -1.56805 0.933733 0
M  V30 2483 C 236.069 0.758142 3.53461 0
M  V30 2484 O 235.79 2.12067 3.83352 0
M  V30 2485 C 237.291 0.412954 4.41372 0
M  V30 2486 H 234.511 0.213805 0.636026 0
M  V30 2487 H 237.055 1.22502 1.63749 0
M  V30 2488 H 235.21 0.140556 3.87145 0
M  V30 2489 H 235.624 2.15923 4.77993 0
M  V30 2490 H 237.098 0.60208 5.48707 0
M  V30 2491 H 237.575 -0.65073 4.34353 0
M  V30 2492 H 238.181 1.00802 4.13182 0
M  V30 2493 N 236.496 -1.42363 0.676048 0
M  V30 2494 C 237.912 -1.55811 0.345718 0
M  V30 2495 C 238.112 -1.65544 -1.14879 0
M  V30 2496 O 237.168 -1.62306 -1.93424 0
M  V30 2497 C 238.481 -2.80746 1.07713 0
M  V30 2498 C 240.029 -2.9452 1.05958 0
M  V30 2499 C 240.504 -4.22318 1.77233 0
M  V30 2500 N 241.995 -4.29233 1.74108 0
M  V30 2501 C 242.73 -5.26935 2.26113 0
M  V30 2502 N 242.226 -6.30783 2.86505 0
M  V30 2503 N 244.019 -5.18741 2.1648 0
M  V30 2504 H 236.17 -1.34289 1.6456 0
M  V30 2505 H 238.433 -0.646506 0.69335 0
M  V30 2506 H 238.139 -2.79696 2.13221 0
M  V30 2507 H 238.013 -3.71676 0.64316 0
M  V30 2508 H 240.4 -2.95097 0.0128255 0
M  V30 2509 H 240.481 -2.04817 1.53244 0
M  V30 2510 H 240.125 -4.22502 2.81877 0
M  V30 2511 H 240.055 -5.10958 1.27396 0
M  V30 2512 H 242.546 -3.54814 1.30059 0
M  V30 2513 H 242.859 -7.01691 3.23805 0
M  V30 2514 H 241.204 -6.31341 2.90575 0
M  V30 2515 H 244.395 -4.36533 1.68987 0
M  V30 2516 H 244.568 -5.94721 2.57316 0
M  V30 2517 N 237.974 -0.419461 -1.51915 0
M  V30 2518 C 238.937 0.389116 -2.25873 0
M  V30 2519 C 239.937 0.964924 -1.28631 0
M  V30 2520 O 241.127 0.842179 -1.52489 0
M  V30 2521 C 238.259 1.54874 -3.03689 0
M  V30 2522 H 239.452 -0.258799 -2.98781 0
M  V30 2523 H 237.005 -0.172209 -1.55348 0
M  V30 2524 H 237.74 2.23323 -2.35154 0
M  V30 2525 H 237.525 1.14223 -3.75094 0
M  V30 2526 H 239.015 2.12046 -3.59759 0
M  V30 2527 N 239.452 1.56882 -0.150215 0
M  V30 2528 C 240.4 2.18214 0.805313 0
M  V30 2529 C 241.394 1.14006 1.25296 0
M  V30 2530 O 242.6 1.3225 1.22107 0
M  V30 2531 H 238.975 0.698762 0.277913 0
M  V30 2532 H 240.946 2.97231 0.263862 0
M  V30 2533 C 239.695 2.82065 2.03309 0
M  V30 2534 H 239.018 3.61968 1.69763 0
M  V30 2535 H 240.458 3.28477 2.68103 0
M  V30 2536 C 238.917 1.80739 2.84315 0
M  V30 2537 O 239.447 1.27983 3.80767 0
M  V30 2538 N 237.653 1.4997 2.48913 0
M  V30 2539 H 237.2 1.93062 1.70542 0
M  V30 2540 H 237.158 0.824217 3.03404 0
M  V30 2541 N 240.93 -0.123565 1.57115 0
M  V30 2542 C 242.176 -0.833386 1.84885 0
M  V30 2543 C 242.509 -1.79742 0.735292 0
M  V30 2544 O 241.784 -1.92764 -0.25925 0
M  V30 2545 C 242.067 -1.5873 3.23228 0
M  V30 2546 C 241.92 -0.643183 4.45178 0
M  V30 2547 C 243.239 -2.54453 3.59085 0
M  V30 2548 H 240.358 -0.301518 0.6725 0
M  V30 2549 H 243 -0.097778 1.89748 0
M  V30 2550 H 241.15 -2.21438 3.19214 0
M  V30 2551 H 242.822 -0.0253015 4.61293 0
M  V30 2552 H 241.065 0.0456139 4.33776 0
M  V30 2553 H 241.736 -1.20724 5.38637 0
M  V30 2554 H 244.212 -2.01853 3.63861 0
M  V30 2555 H 243.088 -3.04238 4.5687 0
M  V30 2556 H 243.349 -3.36906 2.86264 0
M  V30 2557 N 242.408 -1.52605 -0.393616 0
M  V30 2558 C 243.685 -1.58001 -1.15304 0
M  V30 2559 C 244.065 -0.370385 -2.07825 0
M  V30 2560 O 243.413 0.641638 -2.19306 0
M  V30 2561 C 243.623 -2.91652 -1.91677 0
M  V30 2562 C 244.971 -3.4522 -2.47201 0
M  V30 2563 O 245.995 -2.93495 -2.01839 0
M  V30 2564 O 244.854 -4.35579 -3.3005 0
M  V30 2565 H 241.948 -0.637068 -0.527327 0
M  V30 2566 H 244.494 -1.64939 -0.399141 0
M  V30 2567 H 243.266 -3.71136 -1.23992 0
M  V30 2568 H 242.889 -2.88077 -2.74039 0
M  V30 2569 N 243.887 0.651787 -1.4349 0
M  V30 2570 C 244.834 1.76462 -1.4876 0
M  V30 2571 C 245.804 1.62641 -0.337189 0
M  V30 2572 O 246.989 1.82864 -0.544544 0
M  V30 2573 C 244.129 3.14623 -1.41796 0
M  V30 2574 C 243.242 3.39568 -2.67053 0
M  V30 2575 C 242.377 4.67585 -2.52068 0
M  V30 2576 C 241.416 4.85639 -3.72587 0
M  V30 2577 N 240.553 6.04915 -3.56402 0
M  V30 2578 H 245.393 1.71293 -2.43849 0
M  V30 2579 H 242.93 0.835889 -1.21043 0
M  V30 2580 H 244.888 3.94496 -1.35753 0
M  V30 2581 H 243.518 3.18859 -0.50288 0
M  V30 2582 H 242.57 2.53783 -2.8337 0
M  V30 2583 H 243.882 3.48795 -3.56572 0
M  V30 2584 H 243.036 5.55586 -2.4374 0
M  V30 2585 H 241.775 4.60681 -1.60075 0
M  V30 2586 H 240.78 3.96073 -3.81321 0
M  V30 2587 H 242.005 4.94372 -4.65589 0
M  V30 2588 H 239.951 5.9914 -2.67146 0
M  V30 2589 H 239.868 6.15106 -4.39524 0
M  V30 2590 H 241.136 6.95533 -3.51929 0
M  V30 2591 N 245.365 1.30045 0.890287 0
M  V30 2592 C 246.611 1.18737 1.64406 0
M  V30 2593 C 246.944 -0.258525 1.92472 0
M  V30 2594 O 246.219 -1.18562 1.54186 0
M  V30 2595 C 246.502 2.01087 2.98724 0
M  V30 2596 C 246.355 3.53867 2.77665 0
M  V30 2597 C 247.674 1.84457 3.9958 0
M  V30 2598 H 244.793 0.432698 0.596608 0
M  V30 2599 H 247.435 1.5962 1.0306 0
M  V30 2600 H 245.585 1.66349 3.51084 0
M  V30 2601 H 247.257 3.98637 2.32133 0
M  V30 2602 H 245.5 3.78318 2.12269 0
M  V30 2603 H 246.171 4.06772 3.7315 0
M  V30 2604 H 248.647 2.14817 3.56361 0
M  V30 2605 H 247.523 2.44411 4.91482 0
M  V30 2606 H 247.784 0.802276 4.3476 0
M  V30 2607 N 246.843 -1.10192 1.12674 0
M  V30 2608 C 248.09 -1.82205 0.883606 0
M  V30 2609 C 248.418 -1.8532 -0.590492 0
M  V30 2610 O 247.673 -1.31137 -1.45264 0
M  V30 2611 C 247.972 -3.28552 1.4067 0
M  V30 2612 C 247.638 -3.45582 2.89627 0
M  V30 2613 C 246.3 -3.49937 3.30299 0
M  V30 2614 C 248.652 -3.50768 3.85501 0
M  V30 2615 C 245.98 -3.57049 4.65546 0
M  V30 2616 C 248.332 -3.59414 5.20581 0
M  V30 2617 C 246.996 -3.62034 5.60792 0
M  V30 2618 H 246.266 -0.666735 0.323334 0
M  V30 2619 H 248.913 -1.29868 1.40736 0
M  V30 2620 H 247.218 -3.83473 0.80347 0
M  V30 2621 H 248.915 -3.82788 1.19475 0
M  V30 2622 H 245.505 -3.42871 2.57172 0
M  V30 2623 H 249.689 -3.46651 3.55171 0
M  V30 2624 H 244.945 -3.57361 4.96088 0
M  V30 2625 H 249.119 -3.62371 5.94693 0
M  V30 2626 H 246.746 -3.67298 6.6558 0
M  V30 2627 N 248.321 -0.919034 -1.28029 0
M  V30 2628 C 249.568 -0.554934 -1.94748 0
M  V30 2629 C 249.896 0.90231 -1.72304 0
M  V30 2630 O 249.151 1.65767 -1.04018 0
M  V30 2631 C 249.45 -0.816855 -3.4794 0
M  V30 2632 C 249.116 -2.25448 -3.90492 0
M  V30 2633 C 247.778 -2.64752 -4.01821 0
M  V30 2634 C 250.13 -3.18977 -4.12193 0
M  V30 2635 C 247.458 -3.96727 -4.32232 0
M  V30 2636 C 249.81 -4.50523 -4.44086 0
M  V30 2637 C 248.474 -4.89673 -4.53626 0
M  V30 2638 H 247.744 -0.203065 -0.712633 0
M  V30 2639 H 250.391 -1.16136 -1.52265 0
M  V30 2640 H 248.696 -0.127677 -3.91592 0
M  V30 2641 H 250.393 -0.514238 -3.97689 0
M  V30 2642 H 246.983 -1.93952 -3.82205 0
M  V30 2643 H 251.167 -2.89817 -4.02889 0
M  V30 2644 H 246.423 -4.26754 -4.37825 0
M  V30 2645 H 250.597 -5.23005 -4.59825 0
M  V30 2646 H 248.224 -5.91969 -4.76946 0
M  V30 2647 N 249.799 1.42003 -0.683588 0
M  V30 2648 C 251.076 1.95112 -0.138075 0
M  V30 2649 C 251.456 1.62359 1.34918 0
M  V30 2650 O 250.804 0.924311 2.08971 0
M  V30 2651 C 251.014 3.46505 -0.416581 0
M  V30 2652 C 252.362 4.23254 -0.337834 0
M  V30 2653 O 253.386 3.54468 -0.35082 0
M  V30 2654 O 252.245 5.45743 -0.287596 0
M  V30 2655 H 249.339 0.826961 -0.00797996 0
M  V30 2656 H 251.885 1.51784 -0.758924 0
M  V30 2657 H 250.657 3.63582 -1.4465 0
M  V30 2658 H 250.28 3.969 0.235839 0
M  V30 2659 N 251.277 0.427512 1.51691 0
M  V30 2660 C 252.207 -0.3796 2.30394 0
M  V30 2661 C 253.188 -1.02982 1.35384 0
M  V30 2662 O 254.373 -1.03534 1.643 0
M  V30 2663 C 251.503 -1.48649 3.1388 0
M  V30 2664 C 250.457 -0.960294 4.17088 0
M  V30 2665 C 249.783 -2.16219 4.89033 0
M  V30 2666 C 251.083 -0.00153679 5.223 0
M  V30 2667 H 252.777 0.277164 2.98114 0
M  V30 2668 H 250.323 0.134739 1.43368 0
M  V30 2669 H 252.276 -2.05826 3.67714 0
M  V30 2670 H 251 -2.1714 2.43962 0
M  V30 2671 H 249.659 -0.410806 3.64291 0
M  V30 2672 H 249.307 -2.83307 4.15628 0
M  V30 2673 H 249.007 -1.81654 5.58816 0
M  V30 2674 H 250.531 -2.73968 5.45687 0
M  V30 2675 H 251.945 -0.482687 5.71264 0
M  V30 2676 H 250.342 0.256199 5.99553 0
M  V30 2677 H 251.412 0.938174 4.75738 0
M  V30 2678 N 252.755 -1.56801 0.158532 0
M  V30 2679 C 253.688 -2.13148 -0.815065 0
M  V30 2680 C 254.666 -1.0581 -1.23462 0
M  V30 2681 O 255.85 -1.3371 -1.32868 0
M  V30 2682 C 252.977 -2.6606 -2.09594 0
M  V30 2683 C 252.023 -3.85651 -1.82141 0
M  V30 2684 S 252.856 -5.26041 -1.00207 0
M  V30 2685 C 254.012 -5.8235 -2.29389 0
M  V30 2686 H 254.245 -2.95396 -0.335937 0
M  V30 2687 H 251.778 -1.54299 -0.0559391 0
M  V30 2688 H 253.736 -2.97195 -2.8317 0
M  V30 2689 H 252.397 -1.83921 -2.54621 0
M  V30 2690 H 251.59 -4.20958 -2.77147 0
M  V30 2691 H 251.192 -3.55338 -1.16667 0
M  V30 2692 H 253.484 -5.94485 -3.24952 0
M  V30 2693 H 254.427 -6.79688 -1.9857 0
M  V30 2694 H 254.835 -5.10675 -2.40564 0
M  V30 2695 N 254.233 0.115231 -1.57178 0
M  V30 2696 C 255.649 0.468877 -1.52557 0
M  V30 2697 C 255.849 1.81649 -0.872125 0
M  V30 2698 O 254.905 2.48347 -0.45606 0
M  V30 2699 C 256.218 0.4499 -2.97315 0
M  V30 2700 C 257.766 0.533185 -3.08425 0
M  V30 2701 C 258.241 0.54456 -4.54751 0
M  V30 2702 N 259.732 0.605892 -4.5922 0
M  V30 2703 C 260.467 0.636203 -5.6986 0
M  V30 2704 N 259.963 0.623931 -6.89985 0
M  V30 2705 N 261.756 0.679496 -5.57978 0
M  V30 2706 H 253.907 -0.767712 -1.9804 0
M  V30 2707 H 256.17 -0.283609 -0.904583 0
M  V30 2708 H 255.876 -0.472721 -3.48509 0
M  V30 2709 H 255.75 1.27632 -3.5495 0
M  V30 2710 H 258.137 1.44623 -2.57232 0
M  V30 2711 H 258.218 -0.320995 -2.53778 0
M  V30 2712 H 257.862 -0.364452 -5.06591 0
M  V30 2713 H 257.792 1.41568 -5.07214 0
M  V30 2714 H 260.283 0.621386 -3.72756 0
M  V30 2715 H 260.596 0.649787 -7.70063 0
M  V30 2716 H 258.941 0.591296 -6.9248 0
M  V30 2717 H 262.132 0.686472 -4.63039 0
M  V30 2718 H 262.305 0.69965 -6.44212 0
M  V30 2719 N 255.711 1.52812 0.385517 0
M  V30 2720 C 256.621 1.80766 1.49535 0
M  V30 2721 C 257.637 0.694651 1.59532 0
M  V30 2722 O 258.813 0.982611 1.75803 0
M  V30 2723 C 255.878 1.97381 2.85029 0
M  V30 2724 C 254.939 3.21295 2.84724 0
M  V30 2725 C 254.172 3.37108 4.13756 0
M  V30 2726 O 254.395 2.5765 5.08893 0
M  V30 2727 O 253.329 4.30378 4.20783 0
M  V30 2728 H 257.155 2.75015 1.28842 0
M  V30 2729 H 254.74 1.37946 0.573697 0
M  V30 2730 H 256.622 2.09996 3.65349 0
M  V30 2731 H 255.297 1.06322 3.05741 0
M  V30 2732 H 254.204 3.1412 2.03174 0
M  V30 2733 H 255.537 4.12212 2.68965 0
M  V30 2734 N 257.189 -0.644168 1.43834 0
M  V30 2735 C 258.438 -1.39985 1.45214 0
M  V30 2736 C 258.751 -1.95421 0.0835494 0
M  V30 2737 O 259.957 -2.71488 -0.0251748 0
M  V30 2738 C 258.413 -2.53384 2.55587 0
M  V30 2739 C 258.021 -2.04517 3.98594 0
M  V30 2740 C 259.765 -3.30685 2.66172 0
M  V30 2741 C 257.672 -3.1518 5.00416 0
M  V30 2742 H 256.602 -0.526005 0.540218 0
M  V30 2743 H 259.253 -0.694367 1.69855 0
M  V30 2744 H 257.635 -3.26446 2.24163 0
M  V30 2745 H 258.809 -1.38405 4.39523 0
M  V30 2746 H 257.124 -1.40068 3.92135 0
M  V30 2747 H 259.721 -4.13158 3.39418 0
M  V30 2748 H 260.064 -3.79312 1.71546 0
M  V30 2749 H 260.597 -2.64708 2.96942 0
M  V30 2750 H 257.336 -2.71511 5.96625 0
M  V30 2751 H 256.856 -3.79974 4.64091 0
M  V30 2752 H 258.535 -3.80166 5.23529 0
M  V30 2753 N 258.668 -1.30515 -0.883378 0
M  V30 2754 C 260.084 -1.08881 -1.16692 0
M  V30 2755 C 260.284 0.149409 -2.00945 0
M  V30 2756 O 259.34 0.84257 -2.38027 0
M  V30 2757 C 260.653 -2.35319 -1.87204 0
M  V30 2758 C 262.201 -2.40799 -1.99962 0
M  V30 2759 C 262.676 -3.67083 -2.73887 0
M  V30 2760 N 264.167 -3.679 -2.81432 0
M  V30 2761 C 264.902 -4.62303 -3.3921 0
M  V30 2762 N 264.398 -5.67052 -3.98025 0
M  V30 2763 N 266.191 -4.49845 -3.3704 0
M  V30 2764 H 258.342 -2.09951 -0.321633 0
M  V30 2765 H 260.605 -0.92556 -0.205043 0
M  V30 2766 H 260.311 -3.25689 -1.3274 0
M  V30 2767 H 260.185 -2.44089 -2.87577 0
M  V30 2768 H 262.572 -1.50907 -2.53597 0
M  V30 2769 H 262.653 -2.36003 -0.98673 0
M  V30 2770 H 262.297 -4.57334 -2.20925 0
M  V30 2771 H 262.227 -3.69141 -3.75556 0
M  V30 2772 H 264.718 -2.92171 -2.39676 0
M  V30 2773 H 265.031 -6.35184 -4.40183 0
M  V30 2774 H 263.376 -5.70842 -3.96439 0
M  V30 2775 H 266.567 -3.67194 -2.90321 0
M  V30 2776 H 266.74 -5.23597 -3.81772 0
M  V30 2777 N 260.146 1.09593 -1.13257 0
M  V30 2778 C 261.109 2.14359 -0.811358 0
M  V30 2779 C 262.109 1.59808 0.178377 0
M  V30 2780 O 263.299 1.74132 -0.0484911 0
M  V30 2781 C 260.431 3.40269 -0.207276 0
M  V30 2782 H 261.624 2.44284 -1.73969 0
M  V30 2783 H 259.177 1.25102 -0.936973 0
M  V30 2784 H 259.912 3.15969 0.73036 0
M  V30 2785 H 259.697 3.81154 -0.919992 0
M  V30 2786 H 261.187 4.176 0.000667944 0
M  V30 2787 N 261.624 0.925811 1.2754 0
M  V30 2788 C 263.04 0.625767 1.46821 0
M  V30 2789 C 263.24 -0.825506 1.83814 0
M  V30 2790 O 262.296 -1.60356 1.95044 0
M  V30 2791 C 263.609 1.57402 2.56213 0
M  V30 2792 C 265.157 1.58204 2.70075 0
M  V30 2793 C 265.632 2.51721 3.82623 0
M  V30 2794 N 267.123 2.49917 3.89994 0
M  V30 2795 C 267.858 3.18968 4.76494 0
M  V30 2796 N 267.354 3.97391 5.67496 0
M  V30 2797 N 269.147 3.07996 4.70208 0
M  V30 2798 H 261.298 1.86409 1.01811 0
M  V30 2799 H 263.561 0.800213 0.508295 0
M  V30 2800 H 263.267 2.60925 2.35819 0
M  V30 2801 H 263.141 1.31428 3.53563 0
M  V30 2802 H 265.528 0.554124 2.89851 0
M  V30 2803 H 265.609 1.88226 1.73218 0
M  V30 2804 H 265.253 3.54622 3.63601 0
M  V30 2805 H 265.183 2.18996 4.78903 0
M  V30 2806 H 267.674 1.9296 3.24923 0
M  V30 2807 H 267.987 4.4707 6.30356 0
M  V30 2808 H 266.332 4.01495 5.67298 0
M  V30 2809 H 269.523 2.46223 3.9811 0
M  V30 2810 H 269.696 3.6208 5.37403 0
M  V30 2811 N 263.102 -1.41638 0.69111 0
M  V30 2812 C 264.049 -2.30789 0.0229705 0
M  V30 2813 C 265.019 -1.46863 -0.775911 0
M  V30 2814 O 266.204 -1.75661 -0.74485 0
M  V30 2815 C 263.344 -3.32868 -0.910666 0
M  V30 2816 C 262.457 -4.31875 -0.103874 0
M  V30 2817 C 261.592 -5.21024 -1.03475 0
M  V30 2818 C 260.631 -6.11702 -0.220598 0
M  V30 2819 N 259.768 -6.93349 -1.10504 0
M  V30 2820 H 264.608 -2.87366 0.788978 0
M  V30 2821 H 262.145 -1.41535 0.400794 0
M  V30 2822 H 264.103 -3.90596 -1.46597 0
M  V30 2823 H 262.733 -2.77851 -1.64312 0
M  V30 2824 H 261.785 -3.76131 0.568285 0
M  V30 2825 H 263.097 -4.96003 0.527504 0
M  V30 2826 H 262.251 -5.83565 -1.65943 0
M  V30 2827 H 260.99 -4.57112 -1.69999 0
M  V30 2828 H 259.995 -5.48215 0.417187 0
M  V30 2829 H 261.22 -6.77668 0.440784 0
M  V30 2830 H 259.166 -6.3205 -1.75638 0
M  V30 2831 H 259.083 -7.54146 -0.529125 0
M  V30 2832 H 260.351 -7.60362 -1.71667 0
M  V30 2833 N 264.58 -0.43555 -1.51462 0
M  V30 2834 C 265.513 0.421989 -2.24264 0
M  V30 2835 C 266.491 1.02619 -1.26127 0
M  V30 2836 O 267.675 1.069 -1.55257 0
M  V30 2837 C 264.802 1.588 -2.99166 0
M  V30 2838 C 263.848 1.10465 -4.11946 0
M  V30 2839 S 264.681 0.048146 -5.35478 0
M  V30 2840 C 265.837 1.21887 -6.13917 0
M  V30 2841 H 266.07 -0.196102 -2.96653 0
M  V30 2842 H 263.603 -0.220054 -1.52824 0
M  V30 2843 H 265.561 2.25647 -3.42919 0
M  V30 2844 H 264.222 2.1775 -2.26371 0
M  V30 2845 H 263.415 1.97654 -4.63626 0
M  V30 2846 H 263.017 0.51445 -3.70445 0
M  V30 2847 H 265.309 2.13756 -6.42895 0
M  V30 2848 H 266.252 0.742076 -7.04201 0
M  V30 2849 H 266.66 1.45663 -5.45383 0
M  V30 2850 N 266.058 1.56714 -0.166846 0
M  V30 2851 C 266.968 2.21331 0.777791 0
M  V30 2852 C 267.984 1.20358 1.25658 0
M  V30 2853 O 269.16 1.53005 1.30964 0
M  V30 2854 C 266.225 2.83787 1.99163 0
M  V30 2855 C 265.286 3.99947 1.56016 0
M  V30 2856 C 264.519 4.59415 2.71613 0
M  V30 2857 O 264.742 4.17769 3.88362 0
M  V30 2858 O 263.676 5.49359 2.45945 0
M  V30 2859 H 267.502 3.02605 0.257636 0
M  V30 2860 H 265.087 1.49275 0.0611393 0
M  V30 2861 H 266.969 3.23405 2.70161 0
M  V30 2862 H 265.644 2.05513 2.50092 0
M  V30 2863 H 264.551 3.65007 0.819809 0
M  V30 2864 H 265.884 4.79801 1.09782 0
M  V30 2865 N 267.536 -0.106894 1.57237 0
M  V30 2866 C 268.813 -0.843526 1.76477 0
M  V30 2867 C 269.193 -1.97499 0.745464 0
M  V30 2868 O 268.541 -2.27357 -0.228306 0
M  V30 2869 C 268.751 -1.34903 3.21873 0
M  V30 2870 C 270.099 -1.79654 3.8472 0
M  V30 2871 O 271.123 -1.44554 3.2555 0
M  V30 2872 O 269.982 -2.44515 4.88748 0
M  V30 2873 H 267.076 -0.401468 0.723016 0
M  V30 2874 H 269.622 -0.0896927 1.69463 0
M  V30 2875 H 268.394 -0.53781 3.87586 0
M  V30 2876 H 268.017 -2.16522 3.33473 0
M  V30 2877 N 269.014 -1.53014 -0.377408 0
M  V30 2878 C 270.239 -1.72818 -1.14668 0
M  V30 2879 C 270.664 -0.450725 -1.8262 0
M  V30 2880 O 270.022 0.59439 -1.7128 0
M  V30 2881 C 270.07 -2.88627 -2.16164 0
M  V30 2882 O 269.174 -2.56409 -3.22998 0
M  V30 2883 H 268.515 -0.574301 -0.333278 0
M  V30 2884 H 271.045 -1.99853 -0.438152 0
M  V30 2885 H 271.055 -3.14455 -2.59966 0
M  V30 2886 H 269.73 -3.81294 -1.66095 0
M  V30 2887 H 268.307 -2.4136 -2.84253 0
M  V30 2888 N 270.492 0.636531 -1.44174 0
M  V30 2889 C 271.439 1.74875 -1.50624 0
M  V30 2890 C 272.409 1.62275 -0.35442 0
M  V30 2891 O 273.594 1.82276 -0.563908 0
M  V30 2892 C 270.734 3.13102 -1.45125 0
M  V30 2893 C 269.847 3.36717 -2.7064 0
M  V30 2894 C 268.982 4.64885 -2.57013 0
M  V30 2895 C 268.021 4.8166 -3.77717 0
M  V30 2896 N 267.158 6.01101 -3.62798 0
M  V30 2897 H 271.998 1.68697 -2.45653 0
M  V30 2898 H 269.535 0.823004 -1.21922 0
M  V30 2899 H 271.493 3.93034 -1.39929 0
M  V30 2900 H 270.123 3.18308 -0.536671 0
M  V30 2901 H 269.175 2.50763 -2.86046 0
M  V30 2902 H 270.487 3.44993 -3.60252 0
M  V30 2903 H 269.641 5.52969 -2.49619 0
M  V30 2904 H 268.38 4.58957 -1.64953 0
M  V30 2905 H 267.385 3.92007 -3.85501 0
M  V30 2906 H 268.61 4.89406 -4.70807 0
M  V30 2907 H 266.556 5.96273 -2.73486 0
M  V30 2908 H 266.473 6.10409 -4.46023 0
M  V30 2909 H 267.741 6.91761 -3.59286 0
M  V30 2910 N 271.97 1.30982 0.876444 0
M  V30 2911 C 272.88 1.2003 2.01569 0
M  V30 2912 C 273.896 0.11838 1.73597 0
M  V30 2913 O 275.072 0.33495 1.98595 0
M  V30 2914 C 272.137 0.901637 3.34771 0
M  V30 2915 C 271.198 2.06979 3.76109 0
M  V30 2916 C 270.431 1.78529 5.02954 0
M  V30 2917 O 270.654 0.717296 5.65872 0
M  V30 2918 O 269.588 2.64019 5.40905 0
M  V30 2919 H 273.414 2.15753 2.13739 0
M  V30 2920 H 270.999 1.10658 1.00375 0
M  V30 2921 H 272.881 0.750645 4.1466 0
M  V30 2922 H 271.556 -0.0256141 3.2369 0
M  V30 2923 H 270.463 2.27616 2.96887 0
M  V30 2924 H 271.796 2.97907 3.91807 0
M  V30 2925 N 273.449 -1.08991 1.13837 0
M  V30 2926 C 274.396 -2.15748 0.819835 0
M  V30 2927 C 275.366 -1.64636 -0.220026 0
M  V30 2928 O 276.551 -1.90582 -0.0912757 0
M  V30 2929 C 273.691 -3.4382 0.296913 0
M  V30 2930 C 272.804 -4.0881 1.39636 0
M  V30 2931 C 271.939 -5.24655 0.831314 0
M  V30 2932 C 270.978 -5.81575 1.90886 0
M  V30 2933 N 270.115 -6.88774 1.36142 0
M  V30 2934 H 274.955 -2.42338 1.73426 0
M  V30 2935 H 272.492 -1.18935 0.865613 0
M  V30 2936 H 274.45 -4.17193 -0.0244339 0
M  V30 2937 H 273.08 -3.17535 -0.580628 0
M  V30 2938 H 272.132 -3.33258 1.83422 0
M  V30 2939 H 273.444 -4.47141 2.21058 0
M  V30 2940 H 272.598 -6.04942 0.461515 0
M  V30 2941 H 271.337 -4.87698 -0.013932 0
M  V30 2942 H 270.342 -4.99946 2.28767 0
M  V30 2943 H 271.567 -6.20592 2.75758 0
M  V30 2944 H 269.513 -6.53788 0.538254 0
M  V30 2945 H 269.43 -7.25898 2.11208 0
M  V30 2946 H 270.698 -7.72806 1.01933 0
M  V30 2947 N 274.927 -0.932562 -1.27047 0
M  V30 2948 C 275.875 -0.42603 -2.28665 0
M  V30 2949 C 276.869 0.49219 -1.62092 0
M  V30 2950 O 278.075 0.371355 -1.76128 0
M  V30 2951 H 274.45 -0.119213 -0.742491 0
M  V30 2952 H 276.421 -1.29579 -2.68797 0
M  V30 2953 C 275.17 0.301426 -3.46391 0
M  V30 2954 H 274.493 -0.39595 -3.97834 0
M  V30 2955 H 275.933 0.6202 -4.1944 0
M  V30 2956 C 274.392 1.51616 -3.00856 0
M  V30 2957 O 274.922 2.61476 -3.04948 0
M  V30 2958 N 273.128 1.36969 -2.56296 0
M  V30 2959 H 272.675 0.475873 -2.53166 0
M  V30 2960 H 272.633 2.18368 -2.26192 0
M  V30 2961 N 276.405 1.4127 -0.698611 0
M  V30 2962 C 277.653 2.00782 -0.230409 0
M  V30 2963 C 277.974 1.5562 1.17505 0
M  V30 2964 O 277.244 0.78815 1.79346 0
M  V30 2965 H 275.824 0.742464 -0.0821944 0
M  V30 2966 H 278.486 1.72852 -0.90045 0
M  V30 2967 H 277.582 3.11095 -0.25021 0
M  V30 2968 N 277.883 0.443576 1.51229 0
M  V30 2969 C 278.83 -0.364716 2.279 0
M  V30 2970 C 279.8 -1.0114 1.31757 0
M  V30 2971 O 280.985 -1.02912 1.60667 0
M  V30 2972 C 278.125 -1.45644 3.12861 0
M  V30 2973 C 277.238 -0.827269 4.24005 0
M  V30 2974 C 276.373 -1.89456 4.96266 0
M  V30 2975 C 275.412 -1.24416 5.99322 0
M  V30 2976 N 274.549 -2.25309 6.64966 0
M  V30 2977 H 279.389 0.295464 2.96532 0
M  V30 2978 H 276.926 0.157554 1.46254 0
M  V30 2979 H 278.884 -2.10076 3.6045 0
M  V30 2980 H 277.514 -2.08616 2.46331 0
M  V30 2981 H 276.566 -0.0710839 3.80334 0
M  V30 2982 H 277.878 -0.312481 4.9782 0
M  V30 2983 H 277.032 -2.61535 5.47434 0
M  V30 2984 H 275.771 -2.4431 4.22095 0
M  V30 2985 H 274.776 -0.508868 5.4744 0
M  V30 2986 H 276.001 -0.702882 6.75453 0
M  V30 2987 H 273.947 -2.79231 5.93604 0
M  V30 2988 H 273.864 -1.78739 7.34567 0
M  V30 2989 H 275.132 -2.96853 7.20763 0
M  V30 2990 N 279.361 -1.56624 0.175154 0
M  V30 2991 C 280.308 -2.18149 -0.753634 0
M  V30 2992 C 281.278 -1.12265 -1.22417 0
M  V30 2993 O 282.463 -1.40432 -1.29165 0
M  V30 2994 C 279.603 -2.82933 -1.97592 0
M  V30 2995 C 278.716 -4.03289 -1.5486 0
M  V30 2996 C 277.851 -4.55988 -2.72485 0
M  V30 2997 C 276.89 -5.68746 -2.26262 0
M  V30 2998 N 276.027 -6.15938 -3.36994 0
M  V30 2999 H 280.867 -2.9717 -0.222195 0
M  V30 3000 H 278.404 -1.46774 -0.0979422 0
M  V30 3001 H 280.362 -3.18653 -2.69288 0
M  V30 3002 H 278.992 -2.06509 -2.481 0
M  V30 3003 H 278.044 -3.73364 -0.728246 0
M  V30 3004 H 279.356 -4.849 -1.16933 0
M  V30 3005 H 278.51 -4.9391 -3.52332 0
M  V30 3006 H 277.249 -3.73443 -3.13674 0
M  V30 3007 H 276.254 -5.30372 -1.44863 0
M  V30 3008 H 277.479 -6.53095 -1.86127 0
M  V30 3009 H 275.425 -5.36321 -3.77751 0
M  V30 3010 H 275.342 -6.92548 -3.03172 0
M  V30 3011 H 276.61 -6.58511 -4.17114 0
M  V30 3012 N 280.839 0.0985539 -1.57292 0
M  V30 3013 C 281.786 1.11981 -2.01814 0
M  V30 3014 C 282.756 1.39999 -0.89384 0
M  V30 3015 O 283.941 1.5152 -1.15958 0
M  V30 3016 C 281.081 2.43577 -2.44467 0
M  V30 3017 C 280.194 2.2232 -3.70402 0
M  V30 3018 C 279.329 3.4729 -4.01949 0
M  V30 3019 C 278.368 3.2128 -5.21005 0
M  V30 3020 N 277.505 4.38507 -5.48321 0
M  V30 3021 H 282.345 0.733149 -2.88841 0
M  V30 3022 H 279.882 0.350482 -1.42864 0
M  V30 3023 H 281.84 3.20373 -2.6724 0
M  V30 3024 H 280.47 2.80097 -1.60455 0
M  V30 3025 H 279.522 1.36343 -3.55126 0
M  V30 3026 H 280.834 1.99089 -4.57345 0
M  V30 3027 H 279.988 4.32495 -4.25479 0
M  V30 3028 H 278.727 3.73572 -3.13521 0
M  V30 3029 H 277.732 2.34468 -4.97298 0
M  V30 3030 H 278.957 2.96348 -6.11028 0
M  V30 3031 H 276.903 4.64871 -4.62851 0
M  V30 3032 H 276.82 4.18455 -6.29628 0
M  V30 3033 H 278.088 5.24787 -5.76385 0
M  V30 3034 N 282.317 1.53212 0.369288 0
M  V30 3035 C 283.733 1.42902 0.710712 0
M  V30 3036 C 283.933 0.565135 1.93413 0
M  V30 3037 O 282.989 0.0461484 2.52458 0
M  V30 3038 C 284.302 2.86042 0.927382 0
M  V30 3039 C 285.85 2.9565 1.02762 0
M  V30 3040 C 286.325 4.39843 1.27679 0
M  V30 3041 N 287.816 4.43256 1.34457 0
M  V30 3042 C 288.551 5.51929 1.55439 0
M  V30 3043 N 288.047 6.70655 1.73762 0
M  V30 3044 N 289.84 5.39502 1.57779 0
M  V30 3045 H 281.991 2.07888 -0.435457 0
M  V30 3046 H 284.254 0.938661 -0.132739 0
M  V30 3047 H 283.96 3.51557 0.100287 0
M  V30 3048 H 283.834 3.29472 1.83653 0
M  V30 3049 H 286.221 2.30291 1.84527 0
M  V30 3050 H 286.302 2.5562 0.0959504 0
M  V30 3051 H 285.946 5.05774 0.464175 0
M  V30 3052 H 285.876 4.77443 2.22162 0
M  V30 3053 H 288.367 3.5769 1.21926 0
M  V30 3054 H 288.68 7.49248 1.89335 0
M  V30 3055 H 287.025 6.73648 1.70948 0
M  V30 3056 H 290.216 4.45713 1.43029 0
M  V30 3057 H 290.389 6.2426 1.7379 0
M  V30 3058 N 283.795 -0.628877 1.44509 0
M  V30 3059 C 284.742 -1.74074 1.51549 0
M  V30 3060 C 285.712 -1.62084 0.363021 0
M  V30 3061 O 286.897 -1.81975 0.573567 0
M  V30 3062 C 284.037 -3.12328 1.46784 0
M  V30 3063 C 283.15 -3.35277 2.72422 0
M  V30 3064 C 282.285 -4.63515 2.59475 0
M  V30 3065 C 281.324 -4.7965 3.80266 0
M  V30 3066 N 280.461 -5.99168 3.65981 0
M  V30 3067 H 285.301 -1.67392 2.46544 0
M  V30 3068 H 282.838 -0.816527 1.22357 0
M  V30 3069 H 284.796 -3.92286 1.42012 0
M  V30 3070 H 283.426 -3.18018 0.553544 0
M  V30 3071 H 282.478 -2.49242 2.87372 0
M  V30 3072 H 283.79 -3.43078 3.62076 0
M  V30 3073 H 282.944 -5.51638 2.52548 0
M  V30 3074 H 281.683 -4.58076 1.67384 0
M  V30 3075 H 280.688 -3.89957 3.87574 0
M  V30 3076 H 281.913 -4.86902 4.73395 0
M  V30 3077 H 279.859 -5.94814 2.76644 0
M  V30 3078 H 279.776 -6.08035 4.49254 0
M  V30 3079 H 281.044 -6.89846 3.6295 0
M  V30 3080 N 285.273 -1.31445 -0.869486 0
M  V30 3081 C 286.498 -1.24256 -1.66058 0
M  V30 3082 C 286.923 0.188928 -1.87149 0
M  V30 3083 O 286.281 1.13522 -1.4136 0
M  V30 3084 C 286.329 -1.9924 -3.00559 0
M  V30 3085 O 285.433 -1.33007 -3.90362 0
M  V30 3086 H 284.774 -0.428973 -0.506831 0
M  V30 3087 H 287.304 -1.73521 -1.08404 0
M  V30 3088 H 287.314 -2.08854 -3.50491 0
M  V30 3089 H 285.989 -3.03342 -2.84528 0
M  V30 3090 H 284.566 -1.31848 -3.48813 0
M  V30 3091 N 286.751 1.08385 -1.14413 0
M  V30 3092 C 287.681 2.17321 -0.854044 0
M  V30 3093 C 288.662 1.69024 0.191049 0
M  V30 3094 O 289.847 1.94141 0.0476779 0
M  V30 3095 C 286.977 3.45719 -0.330983 0
M  V30 3096 C 285.931 4.07409 -1.31155 0
M  V30 3097 C 285.257 5.30762 -0.64778 0
M  V30 3098 C 286.557 4.48665 -2.67388 0
M  V30 3099 H 288.251 2.41845 -1.76498 0
M  V30 3100 H 285.797 1.16233 -0.850051 0
M  V30 3101 H 287.75 4.21241 -0.115645 0
M  V30 3102 H 286.474 3.2075 0.615381 0
M  V30 3103 H 285.133 3.33919 -1.51306 0
M  V30 3104 H 284.781 5.02078 0.304398 0
M  V30 3105 H 284.481 5.72992 -1.30207 0
M  V30 3106 H 286.005 6.08998 -0.441972 0
M  V30 3107 H 287.419 5.15364 -2.51143 0
M  V30 3108 H 285.816 5.01814 -3.29093 0
M  V30 3109 H 286.886 3.60543 -3.24248 0
M  V30 3110 N 288.23 0.939286 1.26551 0
M  V30 3111 C 289.193 0.451987 2.24699 0
M  V30 3112 C 290.193 -0.435869 1.5478 0
M  V30 3113 O 291.383 -0.235314 1.72603 0
M  V30 3114 C 288.515 -0.348801 3.39111 0
M  V30 3115 H 289.708 1.3193 2.69322 0
M  V30 3116 H 287.261 0.721072 1.38673 0
M  V30 3117 H 287.996 -1.23444 2.99887 0
M  V30 3118 H 287.781 0.287945 3.91041 0
M  V30 3119 H 289.271 -0.679726 4.12031 0
M  V30 3120 N 289.708 -1.40897 0.706093 0
M  V30 3121 C 290.655 -2.30751 0.0474474 0
M  V30 3122 C 291.625 -1.47678 -0.76029 0
M  V30 3123 O 292.81 -1.76441 -0.726177 0
M  V30 3124 C 289.95 -3.33815 -0.875309 0
M  V30 3125 C 289.063 -4.31961 -0.0580623 0
M  V30 3126 C 288.198 -5.22093 -0.979425 0
M  V30 3127 C 287.237 -6.11902 -0.155706 0
M  V30 3128 N 286.374 -6.94482 -1.03144 0
M  V30 3129 H 291.214 -2.86513 0.819413 0
M  V30 3130 H 288.751 -1.41102 0.415783 0
M  V30 3131 H 290.709 -3.92129 -1.42446 0
M  V30 3132 H 289.339 -2.79579 -1.61356 0
M  V30 3133 H 288.391 -3.75507 0.608147 0
M  V30 3134 H 289.703 -4.95415 0.580082 0
M  V30 3135 H 288.857 -5.85292 -1.59744 0
M  V30 3136 H 287.596 -4.5889 -1.65141 0
M  V30 3137 H 286.601 -5.47742 0.475309 0
M  V30 3138 H 287.826 -6.77162 0.512635 0
M  V30 3139 H 285.772 -6.33877 -1.68924 0
M  V30 3140 H 285.689 -7.54665 -0.449108 0
M  V30 3141 H 286.957 -7.6214 -1.63593 0
M  V30 3142 N 291.186 -0.45159 -1.50991 0
M  V30 3143 C 292.602 -0.104647 -1.59257 0
M  V30 3144 C 292.802 1.38728 -1.4614 0
M  V30 3145 O 291.858 2.15866 -1.30989 0
M  V30 3146 C 293.171 -0.637468 -2.93865 0
M  V30 3147 C 294.719 -0.599166 -3.07212 0
M  V30 3148 C 295.194 -1.1092 -4.44366 0
M  V30 3149 N 296.685 -1.06778 -4.50725 0
M  V30 3150 C 297.42 -1.43314 -5.55201 0
M  V30 3151 N 296.916 -1.87204 -6.67028 0
M  V30 3152 N 298.709 -1.3504 -5.45638 0
M  V30 3153 H 290.86 -1.42214 -1.57762 0
M  V30 3154 H 293.123 -0.586921 -0.744465 0
M  V30 3155 H 292.829 -1.68187 -3.08879 0
M  V30 3156 H 292.703 -0.0702139 -3.77135 0
M  V30 3157 H 295.09 0.436277 -2.91857 0
M  V30 3158 H 295.171 -1.20299 -2.25747 0
M  V30 3159 H 294.815 -2.14318 -4.60467 0
M  V30 3160 H 294.745 -0.481773 -5.24392 0
M  V30 3161 H 297.236 -0.745643 -3.70471 0
M  V30 3162 H 297.549 -2.13282 -7.42786 0
M  V30 3163 H 295.894 -1.91142 -6.68199 0
M  V30 3164 H 299.085 -1.00607 -4.57161 0
M  V30 3165 H 299.258 -1.63841 -6.26945 0
M  V30 3166 N 292.664 1.56529 -0.183458 0
M  V30 3167 C 293.913 1.96419 0.458511 0
M  V30 3168 C 294.226 1.0727 1.63562 0
M  V30 3169 O 295.432 1.36893 2.34462 0
M  V30 3170 C 293.888 3.49298 0.867122 0
M  V30 3171 C 293.496 4.47092 -0.285057 0
M  V30 3172 C 295.24 3.97983 1.47683 0
M  V30 3173 C 293.147 5.91225 0.143862 0
M  V30 3174 H 292.077 0.733394 0.175071 0
M  V30 3175 H 294.728 1.81448 -0.273624 0
M  V30 3176 H 293.11 3.59731 1.65559 0
M  V30 3177 H 294.284 4.48383 -1.0625 0
M  V30 3178 H 292.599 4.08535 -0.805503 0
M  V30 3179 H 295.196 5.03134 1.80999 0
M  V30 3180 H 295.539 3.41618 2.37914 0
M  V30 3181 H 296.072 3.90617 0.752562 0
M  V30 3182 H 292.811 6.5149 -0.723974 0
M  V30 3183 H 292.331 5.93214 0.886413 0
M  V30 3184 H 294.01 6.44362 0.583628 0
M  V30 3185 N 294.142 -0.090211 1.57342 0
M  V30 3186 C 295.558 -0.444547 1.53284 0
M  V30 3187 C 295.758 -1.80238 0.900914 0
M  V30 3188 O 294.814 -2.4759 0.495513 0
M  V30 3189 C 296.127 -0.402543 2.97993 0
M  V30 3190 C 297.675 -0.48405 3.09234 0
M  V30 3191 C 298.15 -0.472144 4.5556 0
M  V30 3192 N 299.641 -0.532757 4.60126 0
M  V30 3193 C 300.376 -0.545462 5.708 0
M  V30 3194 N 299.872 -0.514082 6.9089 0
M  V30 3195 N 301.665 -0.59064 5.58988 0
M  V30 3196 H 293.816 0.799121 1.96794 0
M  V30 3197 H 296.079 0.297965 0.899956 0
M  V30 3198 H 295.785 0.528106 3.47712 0
M  V30 3199 H 295.659 -1.21969 3.56936 0
M  V30 3200 H 298.046 -1.40512 2.595 0
M  V30 3201 H 298.127 0.361328 2.53235 0
M  V30 3202 H 297.771 0.445 5.05947 0
M  V30 3203 H 297.701 -1.3348 5.09402 0
M  V30 3204 H 300.192 -0.562006 3.73698 0
M  V30 3205 H 300.505 -0.527195 7.71 0
M  V30 3206 H 298.85 -0.481054 6.93333 0
M  V30 3207 H 302.041 -0.61272 4.64073 0
M  V30 3208 H 302.214 -0.597073 6.45243 0
M  V30 3209 N 295.62 -1.53406 -0.361157 0
M  V30 3210 C 296.53 -1.83122 -1.4664 0
M  V30 3211 C 297.546 -0.719943 -1.58407 0
M  V30 3212 O 298.722 -1.01046 -1.74218 0
M  V30 3213 C 295.787 -2.01891 -2.81853 0
M  V30 3214 C 294.848 -3.25784 -2.79577 0
M  V30 3215 C 294.081 -3.43648 -4.0834 0
M  V30 3216 O 294.304 -2.65714 -5.0473 0
M  V30 3217 O 293.238 -4.37018 -4.13883 0
M  V30 3218 H 297.064 -2.7703 -1.24451 0
M  V30 3219 H 294.649 -1.38841 -0.551678 0
M  V30 3220 H 296.531 -2.15782 -3.61962 0
M  V30 3221 H 295.206 -1.11173 -3.0401 0
M  V30 3222 H 294.113 -3.17312 -1.98151 0
M  V30 3223 H 295.446 -4.16439 -2.62373 0
M  V30 3224 N 297.098 0.621204 -1.44841 0
M  V30 3225 C 298.514 0.94048 -1.28946 0
M  V30 3226 C 298.714 2.00154 -0.23249 0
M  V30 3227 O 297.77 2.49651 0.378237 0
M  V30 3228 C 299.083 1.39433 -2.66419 0
M  V30 3229 C 300.631 1.50927 -2.74208 0
M  V30 3230 C 301.106 1.99692 -4.12174 0
M  V30 3231 N 302.597 2.06947 -4.144 0
M  V30 3232 C 303.332 2.45871 -5.1801 0
M  V30 3233 N 302.828 2.83862 -6.31977 0
M  V30 3234 N 304.621 2.46092 -5.05366 0
M  V30 3235 H 296.772 -0.0803548 -2.12248 0
M  V30 3236 H 299.035 0.0266913 -0.947624 0
M  V30 3237 H 298.741 0.688925 -3.44887 0
M  V30 3238 H 298.615 2.36347 -2.93973 0
M  V30 3239 H 301.002 2.20561 -1.96053 0
M  V30 3240 H 301.083 0.523627 -2.50383 0
M  V30 3241 H 300.727 1.30649 -4.90809 0
M  V30 3242 H 300.657 2.99146 -4.33381 0
M  V30 3243 H 303.148 1.80232 -3.32152 0
M  V30 3244 H 303.461 3.12405 -7.0684 0
M  V30 3245 H 301.806 2.8159 -6.35399 0
M  V30 3246 H 304.997 2.1581 -4.15384 0
M  V30 3247 H 305.17 2.76102 -5.86235 0
M  V30 3248 N 298.576 1.31904 0.862503 0
M  V30 3249 C 299.816 1.23324 1.63004 0
M  V30 3250 C 300.18 -0.203724 1.90916 0
M  V30 3251 O 301.381 -0.413132 2.65606 0
M  V30 3252 C 299.652 2.06116 2.91978 0
M  V30 3253 S 301.211 2.14478 3.82812 0
M  V30 3254 H 298.029 0.439117 0.559193 0
M  V30 3255 H 300.631 1.66658 1.02202 0
M  V30 3256 H 299.335 3.09593 2.69407 0
M  V30 3257 H 298.866 1.6353 3.57801 0
M  V30 3258 H 300.881 1.28855 4.79177 0
M  V30 3259 N 300.054 -1.07777 1.14986 0
M  V30 3260 C 301.294 -1.81888 0.932527 0
M  V30 3261 C 301.658 -1.84509 -0.531064 0
M  V30 3262 O 302.859 -2.54448 -0.866577 0
M  V30 3263 C 301.13 -3.23244 1.52473 0
M  V30 3264 S 302.689 -4.14154 1.44989 0
M  V30 3265 H 299.507 -0.626752 0.335712 0
M  V30 3266 H 302.109 -1.29503 1.46455 0
M  V30 3267 H 300.813 -3.18922 2.58296 0
M  V30 3268 H 300.344 -3.80704 0.991381 0
M  V30 3269 H 302.359 -4.94247 0.439799 0
M  V30 3270 N 301.532 -0.945985 -1.26051 0
M  V30 3271 C 302.781 -0.591836 -1.92822 0
M  V30 3272 C 303.094 0.873956 -1.7499 0
M  V30 3273 O 304.3 1.33769 -2.36259 0
M  V30 3274 C 302.756 -1.00776 -3.45503 0
M  V30 3275 C 302.364 -2.4955 -3.7206 0
M  V30 3276 C 304.108 -0.725735 -4.1825 0
M  V30 3277 C 302.015 -2.84988 -5.18205 0
M  V30 3278 H 300.945 -0.217635 -0.721908 0
M  V30 3279 H 303.596 -1.14927 -1.43052 0
M  V30 3280 H 301.978 -0.378812 -3.94184 0
M  V30 3281 H 303.152 -3.1739 -3.34066 0
M  V30 3282 H 301.467 -2.75133 -3.12555 0
M  V30 3283 H 304.064 -0.966771 -5.25887 0
M  V30 3284 H 304.407 0.337639 -4.14929 0
M  V30 3285 H 304.94 -1.31463 -3.7545 0
M  V30 3286 H 301.679 -3.90307 -5.26631 0
M  V30 3287 H 301.199 -2.21813 -5.57278 0
M  V30 3288 H 302.878 -2.73712 -5.86252 0
M  V30 3289 N 303.011 1.40521 -0.713556 0
M  V30 3290 C 303.941 2.33381 -0.0743864 0
M  V30 3291 C 304.922 1.52784 0.747735 0
M  V30 3292 O 306.107 1.81258 0.697071 0
M  V30 3293 C 303.237 3.36748 0.849598 0
M  V30 3294 C 302.191 4.27793 0.133247 0
M  V30 3295 C 301.517 5.21679 1.17281 0
M  V30 3296 C 302.817 5.12415 -1.01134 0
M  V30 3297 H 304.511 2.87081 -0.850007 0
M  V30 3298 H 302.057 1.38034 -0.410201 0
M  V30 3299 H 304.01 4.00648 1.30612 0
M  V30 3300 H 302.734 2.81439 1.65709 0
M  V30 3301 H 301.393 3.65342 -0.303426 0
M  V30 3302 H 301.041 4.62677 1.9733 0
M  V30 3303 H 300.741 5.83435 0.698397 0
M  V30 3304 H 302.265 5.88456 1.62947 0
M  V30 3305 H 303.679 5.69781 -0.634274 0
M  V30 3306 H 302.076 5.83203 -1.41399 0
M  V30 3307 H 303.146 4.48514 -1.84292 0
M  V30 3308 O 304.528 0.601524 1.4988 0
M  V30 3309 H 305.219 0.111623 1.93378 0
M  V30 END ATOM
M  V30 BEGIN BOND
M  V30 END BOND
M  V30 END CTAB
M  END
$$$$
