drugbank_target|P11213 Large structural protein (DB11603)
 OpenBabel12092121203D

  0  0  0     0  0            999 V3000
M  V30 BEGIN CTAB
M  V30 COUNTS 34493 34898 0 0 0
M  V30 BEGIN ATOM
M  V30 1 H -0.908 1.98254 -0.117106 0
M  V30 2 N 0 1.576 0 0
M  V30 3 C 0.933 2.03868 1.02534 0
M  V30 4 C 1.911 0.928543 1.3348 0
M  V30 5 O 3.095 1.19667 1.45644 0
M  V30 6 C 0.222 2.43627 2.35294 0
M  V30 7 C -0.732 3.65373 2.2001 0
M  V30 8 S 0.101 5.13292 1.52614 0
M  V30 9 C 1.257 5.56322 2.86805 0
M  V30 10 H 1.49 2.90518 0.631377 0
M  V30 11 H -0.977 1.52953 0.210867 0
M  V30 12 H 0.981 2.67203 3.11629 0
M  V30 13 H -0.358 1.57376 2.7183 0
M  V30 14 H -1.165 3.90944 3.18086 0
M  V30 15 H -1.563 3.418 1.51819 0
M  V30 16 H 0.729 5.58782 3.83104 0
M  V30 17 H 1.672 6.56266 2.65933 0
M  V30 18 H 2.08 4.83886 2.90714 0
M  V30 19 N 1.4781 -0.272755 1.55222 0
M  V30 20 C 2.4081 -1.34136 1.91127 0
M  V30 21 C 3.3891 -1.51513 0.773168 0
M  V30 22 O 4.5741 -1.64552 1.03132 0
M  V30 23 C 1.7041 -2.70083 2.1834 0
M  V30 24 C 0.6581 -2.67437 3.34158 0
M  V30 25 C -0.0159 -4.06938 3.46851 0
M  V30 26 C 1.2841 -2.26686 4.70543 0
M  V30 27 H 2.9781 -1.04333 2.80633 0
M  V30 28 H 0.5241 -0.500454 1.35024 0
M  V30 29 H 2.4771 -3.44952 2.42046 0
M  V30 30 H 1.2011 -3.01469 1.25634 0
M  V30 31 H -0.1399 -1.95026 3.1042 0
M  V30 32 H -0.4919 -4.35547 2.51611 0
M  V30 33 H -0.7919 -4.06062 4.2472 0
M  V30 34 H 0.7321 -4.83545 3.72849 0
M  V30 35 H 2.1461 -2.91277 4.93792 0
M  V30 36 H 0.5431 -2.36971 5.5133 0
M  V30 37 H 1.6131 -1.21818 4.69349 0
M  V30 38 N 2.9562 -1.48159 -0.537278 0
M  V30 39 C 4.2332 -1.46291 -1.29839 0
M  V30 40 C 4.6132 -0.170613 -2.10409 0
M  V30 41 O 3.9612 0.847746 -2.12192 0
M  V30 42 C 4.1712 -2.72055 -2.18603 0
M  V30 43 C 5.5192 -3.20087 -2.7898 0
M  V30 44 O 6.5432 -2.72921 -2.28894 0
M  V30 45 O 5.4022 -4.02138 -3.70064 0
M  V30 46 H 2.4962 -0.583906 -0.585647 0
M  V30 47 H 5.0422 -1.60384 -0.554534 0
M  V30 48 H 3.8142 -3.57628 -1.58801 0
M  V30 49 H 3.4372 -2.60646 -3.00249 0
M  V30 50 N 4.4343 0.785586 -1.36625 0
M  V30 51 C 5.8453 1.36101 -1.27803 0
M  V30 52 C 6.1963 1.96035 0.0804875 0
M  V30 53 O 5.3213 1.92834 0.982042 0
M  V30 54 C 5.9163 2.47442 -2.31426 0
M  V30 55 C 4.4753 3.00789 -2.26281 0
M  V30 56 C 3.6223 1.73896 -2.15999 0
M  V30 57 H 6.5733 0.586928 -1.47448 0
M  V30 58 H 6.5943 3.2656 -1.95291 0
M  V30 59 H 6.1063 2.03791 -3.30289 0
M  V30 60 H 4.2073 3.48851 -1.30896 0
M  V30 61 H 4.3203 3.57343 -3.19128 0
M  V30 62 H 2.6843 1.9628 -1.62316 0
M  V30 63 H 3.4673 1.32368 -3.16755 0
M  V30 64 N 5.9124 1.20967 1.01018 0
M  V30 65 C 7.1604 1.02172 1.74371 0
M  V30 66 C 7.4814 -0.446414 1.89821 0
M  V30 67 O 6.7514 -1.32234 1.44537 0
M  V30 68 H 5.3314 0.375066 0.646014 0
M  V30 69 H 7.9934 1.52187 1.21758 0
M  V30 70 H 7.0894 1.48538 2.74487 0
M  V30 71 N 7.3905 -1.2043 1.01659 0
M  V30 72 C 8.3005 -2.2689 0.596484 0
M  V30 73 C 9.3165 -1.70107 -0.36599 0
M  V30 74 O 10.4925 -2.00117 -0.226942 0
M  V30 75 C 7.5575 -3.4665 -0.0586659 0
M  V30 76 C 6.6185 -4.18662 0.949751 0
M  V30 77 C 5.8515 -5.32705 0.32577 0
M  V30 78 O 6.0745 -5.63656 -0.874509 0
M  V30 79 O 5.0085 -5.92803 1.04249 0
M  V30 80 H 8.8345 -2.65041 1.4828 0
M  V30 81 H 6.4195 -1.27048 0.786082 0
M  V30 82 H 8.3015 -4.19256 -0.424564 0
M  V30 83 H 6.9765 -3.10375 -0.91918 0
M  V30 84 H 5.8835 -3.48229 1.36702 0
M  V30 85 H 7.2165 -4.58878 1.78023 0
M  V30 86 N 8.8686 -0.792821 -1.36206 0
M  V30 87 C 10.1146 -0.36733 -1.99446 0
M  V30 88 C 10.4476 1.05917 -1.62774 0
M  V30 89 O 9.7226 1.7324 -0.88421 0
M  V30 90 C 10.0056 -0.535044 -3.56103 0
M  V30 91 C 9.8586 -2.00548 -4.02617 0
M  V30 92 C 11.1776 0.0478191 -4.40074 0
M  V30 93 H 8.2966 -0.134941 -0.724541 0
M  V30 94 H 10.9386 -0.999794 -1.61568 0
M  V30 95 H 9.0886 0.00336329 -3.885 0
M  V30 96 H 10.7606 -2.60521 -3.80692 0
M  V30 97 H 9.0036 -2.50686 -3.54032 0
M  V30 98 H 9.6746 -2.07377 -5.11565 0
M  V30 99 H 12.1506 -0.411822 -4.14057 0
M  V30 100 H 11.0266 -0.0995336 -5.4881 0
M  V30 101 H 11.2876 1.14025 -4.27142 0
M  V30 102 N 10.3467 1.47872 -0.545128 0
M  V30 103 C 11.5767 2.06589 -0.0210534 0
M  V30 104 C 11.9847 1.39997 1.27269 0
M  V30 105 O 11.3277 0.486421 1.77143 0
M  V30 106 C 11.3897 3.58574 0.257933 0
M  V30 107 C 11.0537 4.47132 -0.944573 0
M  V30 108 C 12.0507 4.85986 -1.84699 0
M  V30 109 C 9.7357 4.88821 -1.15584 0
M  V30 110 C 11.7297 5.65314 -2.94446 0
M  V30 111 C 9.4167 5.67916 -2.25642 0
M  V30 112 C 10.4147 6.06073 -3.14905 0
M  V30 113 O 10.1027 6.83578 -4.23057 0
M  V30 114 H 9.8347 0.674971 -0.0372899 0
M  V30 115 H 12.3887 1.91037 -0.754599 0
M  V30 116 H 10.6187 3.72295 1.04564 0
M  V30 117 H 12.3077 3.99356 0.72592 0
M  V30 118 H 13.0737 4.54388 -1.69577 0
M  V30 119 H 8.9527 4.58595 -0.470279 0
M  V30 120 H 12.4967 5.95016 -3.64145 0
M  V30 121 H 8.3937 5.98927 -2.40742 0
M  V30 122 H 9.1617 7.01954 -4.20954 0
M  V30 123 N 11.8248 0.280983 1.55075 0
M  V30 124 C 13.1018 -0.386207 1.91749 0
M  V30 125 C 13.4818 -1.73264 1.20594 0
M  V30 126 O 12.8298 -2.26034 0.334784 0
M  V30 127 C 13.0398 -0.520687 3.45094 0
M  V30 128 C 14.3878 -0.800865 4.16979 0
M  V30 129 O 15.4118 -0.605271 3.5102 0
M  V30 130 O 14.2708 -1.1753 5.33712 0
M  V30 131 H 11.3648 -0.212408 0.799257 0
M  V30 132 H 13.9108 0.327568 1.66509 0
M  V30 133 H 12.6828 0.426633 3.88967 0
M  V30 134 H 12.3058 -1.2837 3.76307 0
M  V30 135 N 13.3029 -1.57598 0.00835791 0
M  V30 136 C 14.5799 -1.82172 -0.712235 0
M  V30 137 C 14.9599 -0.887873 -1.9152 0
M  V30 138 O 14.3079 0.06146 -2.28417 0
M  V30 139 C 14.5179 -3.30875 -1.11008 0
M  V30 140 C 15.8659 -3.96826 -1.51044 0
M  V30 141 O 16.8899 -3.35248 -1.20364 0
M  V30 142 O 15.7489 -5.05318 -2.08125 0
M  V30 143 H 12.8429 -0.750435 -0.347529 0
M  V30 144 H 15.3889 -1.69665 0.0344523 0
M  V30 145 H 14.1609 -3.90481 -0.252982 0
M  V30 146 H 13.7839 -3.48412 -1.9156 0
M  V30 147 N 14.781 0.264519 -1.55364 0
M  V30 148 C 16.192 0.834936 -1.6699 0
M  V30 149 C 16.543 1.86718 -0.602552 0
M  V30 150 O 15.668 2.14899 0.254425 0
M  V30 151 C 16.263 1.5212 -3.02729 0
M  V30 152 C 14.822 2.03954 -3.16354 0
M  V30 153 C 13.969 0.884498 -2.62815 0
M  V30 154 H 16.92 0.0406869 -1.58648 0
M  V30 155 H 16.941 2.38853 -2.96191 0
M  V30 156 H 16.453 0.769668 -3.80392 0
M  V30 157 H 14.554 2.82041 -2.43482 0
M  V30 158 H 14.667 2.24902 -4.23032 0
M  V30 159 H 13.031 1.2802 -2.20188 0
M  V30 160 H 13.814 0.14634 -3.42988 0
M  V30 161 N 16.2591 1.48442 0.529413 0
M  V30 162 C 17.5081 1.55742 1.28169 0
M  V30 163 C 17.8211 0.236511 1.94165 0
M  V30 164 O 19.0271 0.187761 2.7085 0
M  V30 165 C 17.4831 2.74667 2.32564 0
M  V30 166 C 17.0911 4.13402 1.72636 0
M  V30 167 C 18.8351 2.9128 3.08798 0
M  V30 168 C 16.7421 5.23587 2.74975 0
M  V30 169 H 15.6721 0.579796 0.48203 0
M  V30 170 H 18.3231 1.74776 0.559056 0
M  V30 171 H 16.7051 2.49067 3.07866 0
M  V30 172 H 17.8791 4.49022 1.03519 0
M  V30 173 H 16.1941 4.0191 1.08892 0
M  V30 174 H 18.7911 3.70767 3.85274 0
M  V30 175 H 19.1341 2.00757 3.64695 0
M  V30 176 H 19.6671 3.16782 2.40611 0
M  V30 177 H 16.4061 6.16076 2.23897 0
M  V30 178 H 15.9261 4.92454 3.42417 0
M  V30 179 H 17.6051 5.51724 3.37949 0
M  V30 180 N 17.7372 -0.778329 1.37039 0
M  V30 181 C 19.0142 -1.52551 1.22424 0
M  V30 182 C 19.3942 -2.10288 -0.184964 0
M  V30 183 O 18.7422 -1.94953 -1.19187 0
M  V30 184 C 18.9522 -2.61164 2.31504 0
M  V30 185 C 20.3002 -3.28746 2.68721 0
M  V30 186 O 21.3242 -2.71455 2.30631 0
M  V30 187 O 20.1832 -4.3231 3.3432 0
M  V30 188 H 17.2772 -0.675343 0.477326 0
M  V30 189 H 19.8232 -0.815859 1.48801 0
M  V30 190 H 18.5952 -2.16574 3.25901 0
M  V30 191 H 18.2182 -3.39737 2.06554 0
M  V30 192 N 19.2153 -1.21501 -1.00376 0
M  V30 193 C 20.6263 -1.03146 -1.55621 0
M  V30 194 C 20.9773 0.408375 -1.91903 0
M  V30 195 O 20.1023 1.29177 -1.73616 0
M  V30 196 C 20.6973 -1.86612 -2.82775 0
M  V30 197 C 19.2563 -1.72586 -3.34501 0
M  V30 198 C 18.4033 -1.83747 -2.07683 0
M  V30 199 H 21.3543 -1.35505 -0.826081 0
M  V30 200 H 21.3753 -1.3771 -3.54706 0
M  V30 201 H 20.8873 -2.91399 -2.56336 0
M  V30 202 H 18.9883 -0.704877 -3.65872 0
M  V30 203 H 19.1013 -2.54623 -4.05837 0
M  V30 204 H 17.4653 -1.27069 -2.20739 0
M  V30 205 H 18.2483 -2.90044 -1.83655 0
M  V30 206 N 20.6934 1.19889 -1.02296 0
M  V30 207 C 21.9424 1.88743 -0.711257 0
M  V30 208 C 22.2554 1.80112 0.762817 0
M  V30 209 O 23.4614 2.44161 1.18733 0
M  V30 210 C 21.9174 3.38525 -1.22185 0
M  V30 211 C 21.5254 3.55727 -2.72328 0
M  V30 212 C 23.2694 4.12893 -0.985864 0
M  V30 213 C 21.1764 4.99369 -3.16835 0
M  V30 214 H 20.1064 0.706885 -0.262353 0
M  V30 215 H 22.7574 1.35586 -1.23648 0
M  V30 216 H 21.1394 3.91044 -0.624571 0
M  V30 217 H 22.3134 3.13564 -3.3766 0
M  V30 218 H 20.6284 2.94739 -2.9414 0
M  V30 219 H 23.2254 5.18813 -1.29374 0
M  V30 220 H 23.5684 4.16228 0.0775055 0
M  V30 221 H 24.1014 3.66494 -1.54684 0
M  V30 222 H 20.8404 5.01193 -4.22476 0
M  V30 223 H 20.3604 5.42317 -2.56228 0
M  V30 224 H 22.0394 5.67988 -3.09837 0
M  V30 225 N 22.1715 0.800033 1.35784 0
M  V30 226 C 23.0815 0.207204 2.33683 0
M  V30 227 C 24.0975 -0.64631 1.61551 0
M  V30 228 O 25.2735 -0.559604 1.93469 0
M  V30 229 C 22.3385 -0.639659 3.40748 0
M  V30 230 C 21.3995 0.233585 4.28664 0
M  V30 231 C 20.6325 -0.572954 5.30616 0
M  V30 232 O 20.8555 -1.80816 5.40982 0
M  V30 233 O 19.7895 0.0327285 6.01891 0
M  V30 234 H 23.6155 1.01692 2.86169 0
M  V30 235 H 21.2005 0.561691 1.38439 0
M  V30 236 H 23.0825 -1.12223 4.06182 0
M  V30 237 H 21.7575 -1.42708 2.90544 0
M  V30 238 H 20.6645 0.763147 3.66233 0
M  V30 239 H 21.9975 0.984784 4.82248 0
M  V30 240 N 23.6496 -1.47581 0.552962 0
M  V30 241 C 24.5796 -2.32762 -0.185451 0
M  V30 242 C 25.5606 -1.43527 -0.912905 0
M  V30 243 O 26.7456 -1.72388 -0.894201 0
M  V30 244 C 23.8756 -3.25219 -1.21859 0
M  V30 245 C 22.8296 -4.23661 -0.607864 0
M  V30 246 C 22.1556 -5.05413 -1.74533 0
M  V30 247 C 23.4556 -5.20481 0.435582 0
M  V30 248 H 25.1496 -2.94749 0.525684 0
M  V30 249 H 22.6956 -1.41738 0.254251 0
M  V30 250 H 24.6486 -3.8365 -1.7433 0
M  V30 251 H 23.3726 -2.61279 -1.95961 0
M  V30 252 H 22.0316 -3.66451 -0.104489 0
M  V30 253 H 21.6796 -4.3788 -2.47529 0
M  V30 254 H 21.3796 -5.72059 -1.34249 0
M  V30 255 H 22.9036 -5.66701 -2.27338 0
M  V30 256 H 24.3176 -5.733 -0.00290157 0
M  V30 257 H 22.7146 -5.95305 0.757067 0
M  V30 258 H 23.7846 -4.66217 1.33303 0
M  V30 259 N 25.1277 -0.289203 -1.54924 0
M  V30 260 C 26.0377 0.601863 -2.26748 0
M  V30 261 C 27.0537 1.15834 -1.2984 0
M  V30 262 O 28.2297 1.18564 -1.62802 0
M  V30 263 C 25.2947 1.76299 -2.98529 0
M  V30 264 C 24.3557 1.24178 -4.10948 0
M  V30 265 C 23.5887 2.34757 -4.79296 0
M  V30 266 O 23.8117 3.54411 -4.46933 0
M  V30 267 O 22.7457 2.02115 -5.66951 0
M  V30 268 H 26.5717 0.0195879 -3.03694 0
M  V30 269 H 24.1567 -0.0560868 -1.49295 0
M  V30 270 H 26.0387 2.43973 -3.43592 0
M  V30 271 H 24.7137 2.33209 -2.24488 0
M  V30 272 H 23.6207 0.531104 -3.70311 0
M  V30 273 H 24.9537 0.718252 -4.86931 0
M  V30 274 N 26.6058 1.57591 -0.0167156 0
M  V30 275 C 27.5688 2.08393 0.954204 0
M  V30 276 C 28.5688 0.996531 1.26198 0
M  V30 277 O 29.7588 1.25858 1.20438 0
M  V30 278 C 26.8908 2.5394 2.27436 0
M  V30 279 H 28.0838 2.95455 0.514451 0
M  V30 280 H 25.6368 1.54582 0.231089 0
M  V30 281 H 26.3718 1.70171 2.76066 0
M  V30 282 H 26.1568 3.33371 2.06412 0
M  V30 283 H 27.6468 2.93512 2.97053 0
M  V30 284 N 28.0839 -0.256276 1.55502 0
M  V30 285 C 28.9939 -1.33882 1.92647 0
M  V30 286 C 30.0099 -1.53159 0.825727 0
M  V30 287 O 31.1859 -1.66963 1.12629 0
M  V30 288 C 28.2509 -2.6751 2.20543 0
M  V30 289 C 27.3119 -2.56836 3.43997 0
M  V30 290 C 26.5449 -3.84092 3.70553 0
M  V30 291 O 26.7679 -4.85545 2.99336 0
M  V30 292 O 25.7019 -3.83288 4.64084 0
M  V30 293 H 29.5279 -1.05374 2.84833 0
M  V30 294 H 27.1129 -0.456237 1.42263 0
M  V30 295 H 28.9949 -3.46492 2.39835 0
M  V30 296 H 27.6699 -2.9577 1.31536 0
M  V30 297 H 26.5769 -1.76172 3.30021 0
M  V30 298 H 27.9099 -2.33523 4.33275 0
M  V30 299 N 29.562 -1.4872 -0.521534 0
M  V30 300 C 30.973 -1.50607 -1.10337 0
M  V30 301 C 31.324 -0.280612 -1.94183 0
M  V30 302 O 30.449 0.611507 -2.0758 0
M  V30 303 C 31.044 -2.72903 -2.00772 0
M  V30 304 C 29.603 -2.77634 -2.54158 0
M  V30 305 C 28.75 -2.44241 -1.31307 0
M  V30 306 H 31.701 -1.55714 -0.306388 0
M  V30 307 H 31.722 -2.519 -2.85178 0
M  V30 308 H 31.234 -3.62077 -1.39721 0
M  V30 309 H 29.335 -1.92689 -3.18907 0
M  V30 310 H 29.448 -3.79283 -2.92714 0
M  V30 311 H 27.812 -1.95577 -1.63161 0
M  V30 312 H 28.595 -3.35666 -0.719943 0
M  V30 313 N 31.0401 0.771051 -1.3745 0
M  V30 314 C 32.4561 1.07171 -1.18265 0
M  V30 315 C 32.6561 2.01491 -0.019287 0
M  V30 316 O 31.7121 2.44244 0.640408 0
M  V30 317 C 33.0251 1.66854 -2.50161 0
M  V30 318 C 34.5731 1.79109 -2.56689 0
M  V30 319 C 35.0481 2.42205 -3.88717 0
M  V30 320 N 36.5391 2.49655 -3.90162 0
M  V30 321 C 37.2741 2.9933 -4.8907 0
M  V30 322 N 36.7701 3.49172 -5.98374 0
M  V30 323 N 38.5631 2.9821 -4.76474 0
M  V30 324 H 30.7141 0.144796 -2.11906 0
M  V30 325 H 32.9771 0.126863 -0.939473 0
M  V30 326 H 32.6831 1.05017 -3.35655 0
M  V30 327 H 32.5571 2.6614 -2.673 0
M  V30 328 H 34.9441 2.40077 -1.71601 0
M  V30 329 H 35.0251 0.785757 -2.43433 0
M  V30 330 H 34.6691 1.81875 -4.74219 0
M  V30 331 H 34.5991 3.43345 -3.99276 0
M  V30 332 H 37.0901 2.14383 -3.11205 0
M  V30 333 H 37.4031 3.8548 -6.69795 0
M  V30 334 H 35.7481 3.47275 -6.02018 0
M  V30 335 H 38.9391 2.58572 -3.90203 0
M  V30 336 H 39.1121 3.36613 -5.53711 0
M  V30 337 N 32.5182 1.22032 0.997298 0
M  V30 338 C 33.7662 1.04016 1.73278 0
M  V30 339 C 34.0872 -0.426255 1.90284 0
M  V30 340 O 33.3572 -1.30694 1.45931 0
M  V30 341 H 31.9372 0.381897 0.642 0
M  V30 342 H 34.5992 1.5347 1.20137 0
M  V30 343 H 33.6952 1.51441 2.72896 0
M  V30 344 N 33.9963 -1.19345 1.0293 0
M  V30 345 C 35.2243 -1.92997 0.745644 0
M  V30 346 C 35.6393 -1.75519 -0.695589 0
M  V30 347 O 34.9963 -1.07737 -1.47306 0
M  V30 348 C 35.0473 -3.44741 1.08792 0
M  V30 349 O 34.7683 -3.61658 2.47256 0
M  V30 350 C 36.2693 -4.35515 0.827129 0
M  V30 351 H 33.4893 -0.613042 0.272801 0
M  V30 352 H 36.0333 -1.51473 1.3739 0
M  V30 353 H 34.1883 -3.84097 0.504832 0
M  V30 354 H 34.6023 -4.55514 2.60015 0
M  V30 355 H 36.0763 -5.40589 1.11658 0
M  V30 356 H 36.5533 -4.38552 -0.238436 0
M  V30 357 H 37.1593 -4.01841 1.39297 0
M  V30 358 N 35.4744 -0.807222 -1.35358 0
M  V30 359 C 36.8854 -0.44876 -1.81226 0
M  V30 360 C 37.2364 1.02929 -1.67033 0
M  V30 361 O 36.3614 1.79991 -1.20133 0
M  V30 362 C 36.9564 -0.807774 -3.2903 0
M  V30 363 C 35.5154 -0.501901 -3.73039 0
M  V30 364 C 34.6624 -1.03304 -2.57339 0
M  V30 365 H 37.6134 -0.998808 -1.23327 0
M  V30 366 H 37.6344 -0.10554 -3.80354 0
M  V30 367 H 37.1464 -1.88357 -3.39328 0
M  V30 368 H 35.2474 0.565128 -3.68289 0
M  V30 369 H 35.3604 -1.03497 -4.67787 0
M  V30 370 H 33.7244 -0.455339 -2.50597 0
M  V30 371 H 34.5074 -2.11496 -2.70415 0
M  V30 372 N 36.9525 1.47285 -0.560781 0
M  V30 373 C 38.1805 2.06855 -0.0430262 0
M  V30 374 C 38.5955 1.41291 1.25229 0
M  V30 375 O 37.9525 0.510648 1.7521 0
M  V30 376 C 38.0035 3.61178 0.152518 0
M  V30 377 O 37.7245 4.24285 -1.0915 0
M  V30 378 C 39.2255 4.37624 0.707145 0
M  V30 379 H 36.4455 0.669319 -0.0474652 0
M  V30 380 H 38.9895 1.89237 -0.77521 0
M  V30 381 H 37.1445 3.78298 0.834843 0
M  V30 382 H 37.5585 5.16868 -0.891482 0
M  V30 383 H 39.0325 5.46271 0.793244 0
M  V30 384 H 39.5095 4.04152 1.71923 0
M  V30 385 H 40.1155 4.25257 0.0604027 0
M  V30 386 N 38.4306 0.297415 1.54768 0
M  V30 387 C 39.6766 -0.313376 2.00364 0
M  V30 388 C 40.0096 -1.53815 1.18553 0
M  V30 389 O 39.2846 -1.92739 0.261103 0
M  V30 390 C 39.5676 -0.673525 3.53745 0
M  V30 391 C 39.4206 0.560133 4.46299 0
M  V30 392 C 40.7396 -1.50143 4.13697 0
M  V30 393 H 37.8586 -0.112428 0.728374 0
M  V30 394 H 40.5006 0.4088 1.8555 0
M  V30 395 H 38.6506 -1.28881 3.665 0
M  V30 396 H 40.3226 1.19863 4.45455 0
M  V30 397 H 38.5656 1.19405 4.17043 0
M  V30 398 H 39.2366 0.26405 5.51368 0
M  V30 399 H 41.7126 -0.981588 4.04356 0
M  V30 400 H 40.5886 -1.72221 5.21182 0
M  V30 401 H 40.8496 -2.48952 3.65343 0
M  V30 402 N 39.9087 -1.5758 0.0250728 0
M  V30 403 C 41.3197 -1.79476 -0.514323 0
M  V30 404 C 41.6707 -0.934956 -1.72491 0
M  V30 405 O 40.7957 -0.144245 -2.15919 0
M  V30 406 C 41.3907 -3.25503 -0.939842 0
M  V30 407 C 39.9497 -3.48408 -1.42438 0
M  V30 408 C 39.0967 -2.74583 -0.387201 0
M  V30 409 H 42.0477 -1.567 0.25113 0
M  V30 410 H 42.0687 -3.34992 -1.80445 0
M  V30 411 H 41.5807 -3.88056 -0.0585628 0
M  V30 412 H 39.6817 -2.91103 -2.32572 0
M  V30 413 H 39.7947 -4.57119 -1.43455 0
M  V30 414 H 38.1587 -2.39942 -0.854409 0
M  V30 415 H 38.9417 -3.39849 0.485543 0
M  V30 416 N 41.3868 0.248026 -1.55636 0
M  V30 417 C 42.3348 1.32683 -1.91045 0
M  V30 418 C 43.3288 1.49883 -0.789401 0
M  V30 419 O 44.5348 1.51371 -0.974007 0
M  V30 420 H 40.9098 0.444272 -0.606734 0
M  V30 421 H 42.8808 1.00085 -2.81115 0
M  V30 422 C 41.6298 2.6755 -2.22064 0
M  V30 423 H 40.9528 2.55114 -3.07826 0
M  V30 424 H 42.3928 3.41912 -2.50743 0
M  V30 425 C 40.8518 3.20556 -1.0366 0
M  V30 426 O 41.3818 4.00695 -0.284016 0
M  V30 427 N 39.5878 2.78568 -0.82753 0
M  V30 428 H 39.1348 2.1351 -1.44123 0
M  V30 429 H 39.0928 3.14378 -0.0369803 0
M  V30 430 N 42.8649 1.48995 0.513639 0
M  V30 431 C 44.1139 1.57093 1.2651 0
M  V30 432 C 44.4269 0.257091 1.93903 0
M  V30 433 O 45.6329 0.216478 2.70636 0
M  V30 434 C 44.0889 2.77118 2.29638 0
M  V30 435 C 43.6969 4.15209 1.68241 0
M  V30 436 C 45.4409 2.94538 3.05692 0
M  V30 437 C 43.3479 5.26474 2.69406 0
M  V30 438 H 42.2779 0.584876 0.475854 0
M  V30 439 H 44.9289 1.7536 0.540487 0
M  V30 440 H 43.3109 2.52319 3.05207 0
M  V30 441 H 44.4849 4.50094 0.987505 0
M  V30 442 H 42.7999 4.03042 1.04623 0
M  V30 443 H 45.3969 3.74832 3.8132 0
M  V30 444 H 45.7399 2.04614 3.62545 0
M  V30 445 H 46.2729 3.19316 2.37238 0
M  V30 446 H 43.0119 6.18417 2.17351 0
M  V30 447 H 42.5319 4.96058 3.37175 0
M  V30 448 H 44.2109 5.55277 3.32078 0
M  V30 449 N 44.343 -0.763751 1.37857 0
M  V30 450 C 45.273 -1.89103 1.36975 0
M  V30 451 C 46.254 -1.68439 0.237152 0
M  V30 452 O 47.439 -1.8918 0.438713 0
M  V30 453 C 44.569 -3.26496 1.18395 0
M  V30 454 C 43.523 -3.61741 2.28751 0
M  V30 455 C 42.849 -4.97762 1.95286 0
M  V30 456 C 44.149 -3.67665 3.70972 0
M  V30 457 H 45.843 -1.90099 2.31307 0
M  V30 458 H 43.389 -0.91319 1.11341 0
M  V30 459 H 45.342 -4.05003 1.16406 0
M  V30 460 H 44.066 -3.25955 0.205215 0
M  V30 461 H 42.725 -2.85547 2.29909 0
M  V30 462 H 42.373 -4.93769 0.959221 0
M  V30 463 H 42.073 -5.22313 2.69189 0
M  V30 464 H 43.597 -5.7866 1.94898 0
M  V30 465 H 45.011 -4.36307 3.719 0
M  V30 466 H 43.408 -4.03718 4.43995 0
M  V30 467 H 44.478 -2.68134 4.0402 0
M  V30 468 N 45.8211 -1.22559 -0.990812 0
M  V30 469 C 47.2371 -0.985996 -1.255 0
M  V30 470 C 47.4371 0.319173 -1.98956 0
M  V30 471 O 46.4931 1.04127 -2.3003 0
M  V30 472 C 47.8061 -2.18607 -2.06474 0
M  V30 473 C 49.3541 -2.22985 -2.19651 0
M  V30 474 C 49.8291 -3.4255 -3.04012 0
M  V30 475 N 51.3201 -3.42725 -3.11599 0
M  V30 476 C 52.0551 -4.31892 -3.7717 0
M  V30 477 N 51.5511 -5.31279 -4.44651 0
M  V30 478 N 53.3441 -4.19662 -3.73952 0
M  V30 479 H 45.4951 -2.06469 -0.49841 0
M  V30 480 H 47.7581 -0.904853 -0.282747 0
M  V30 481 H 47.4641 -3.13267 -1.59865 0
M  V30 482 H 47.3381 -2.18838 -3.07229 0
M  V30 483 H 49.7251 -1.28871 -2.65474 0
M  V30 484 H 49.8061 -2.26791 -1.18319 0
M  V30 485 H 49.4501 -4.36965 -2.58889 0
M  V30 486 H 49.3801 -3.35984 -4.0549 0
M  V30 487 H 51.8711 -2.70807 -2.63575 0
M  V30 488 H 52.1841 -5.95593 -4.92431 0
M  V30 489 H 50.5291 -5.3519 -4.43392 0
M  V30 490 H 53.7201 -3.41268 -3.20396 0
M  V30 491 H 53.8931 -4.89358 -4.24774 0
M  V30 492 N 47.2992 1.18797 -1.03562 0
M  V30 493 C 48.2472 2.24297 -0.615905 0
M  V30 494 C 49.2412 1.65643 0.354808 0
M  V30 495 O 50.4472 1.78618 0.22265 0
M  V30 496 H 46.8222 0.729909 -0.180934 0
M  V30 497 H 48.7932 2.5701 -1.5162 0
M  V30 498 C 47.5422 3.47698 0.0104735 0
M  V30 499 H 46.8652 3.93125 -0.727509 0
M  V30 500 H 48.3052 4.23159 0.266995 0
M  V30 501 C 46.7642 3.12489 1.25905 0
M  V30 502 O 47.2942 3.25761 2.35038 0
M  V30 503 N 45.5002 2.6686 1.15039 0
M  V30 504 H 45.0472 2.56261 0.262328 0
M  V30 505 H 45.0052 2.43674 1.98672 0
M  V30 506 N 48.7773 0.814389 1.34928 0
M  V30 507 C 50.0023 0.410097 2.03305 0
M  V30 508 C 50.4273 -0.973464 1.60951 0
M  V30 509 O 49.7853 -1.63185 0.789964 0
M  V30 510 C 49.8333 0.51049 3.56968 0
M  V30 511 O 48.9373 -0.473035 4.09678 0
M  V30 512 H 48.2783 0.170088 0.641846 0
M  V30 513 H 50.8083 1.10244 1.72358 0
M  V30 514 H 50.8183 0.383135 4.06197 0
M  V30 515 H 49.4933 1.51963 3.87144 0
M  V30 516 H 48.0703 -0.305272 3.71648 0
M  V30 517 N 50.2554 -1.46986 0.568584 0
M  V30 518 C 51.5324 -1.95592 -0.0174074 0
M  V30 519 C 51.9124 -1.51124 -1.47393 0
M  V30 520 O 51.2604 -0.755329 -2.15655 0
M  V30 521 C 51.4704 -3.48719 0.139913 0
M  V30 522 C 52.8184 -4.246 0.000426376 0
M  V30 523 O 53.8424 -3.56135 0.0680316 0
M  V30 524 O 52.7014 -5.46302 -0.146988 0
M  V30 525 H 49.7954 -0.82498 -0.0577599 0
M  V30 526 H 52.3414 -1.57335 0.635909 0
M  V30 527 H 51.1134 -3.73927 1.15301 0
M  V30 528 H 50.7364 -3.93771 -0.550491 0
M  V30 529 N 51.7335 -0.305618 -1.54608 0
M  V30 530 C 52.9635 0.304333 -2.04346 0
M  V30 531 C 53.3715 1.47715 -1.18224 0
M  V30 532 O 52.7145 1.82591 -0.201577 0
M  V30 533 C 52.7765 0.819031 -3.50046 0
M  V30 534 C 52.4405 -0.22912 -4.56425 0
M  V30 535 C 53.4375 -1.05914 -5.08997 0
M  V30 536 C 51.1225 -0.372148 -5.0092 0
M  V30 537 C 53.1165 -2.01809 -6.04609 0
M  V30 538 C 50.8035 -1.33454 -5.9635 0
M  V30 539 C 51.8015 -2.15599 -6.48079 0
M  V30 540 O 51.4895 -3.10205 -7.41639 0
M  V30 541 H 51.2215 0.0693996 -0.672428 0
M  V30 542 H 53.7755 -0.444548 -2.00532 0
M  V30 543 H 52.0055 1.61852 -3.51199 0
M  V30 544 H 53.6945 1.34537 -3.82955 0
M  V30 545 H 54.4605 -0.959538 -4.75413 0
M  V30 546 H 50.3395 0.257304 -4.60281 0
M  V30 547 H 53.8835 -2.65966 -6.44909 0
M  V30 548 H 49.7805 -1.43485 -6.29351 0
M  V30 549 H 50.5485 -3.05237 -7.59455 0
M  V30 550 N 53.2116 1.57565 -0.0334293 0
M  V30 551 C 54.1596 2.1164 0.96496 0
M  V30 552 C 55.1536 1.04398 1.33407 0
M  V30 553 O 56.3596 1.22828 1.3158 0
M  V30 554 H 52.7346 0.676222 0.32898 0
M  V30 555 H 54.7056 2.94455 0.483614 0
M  V30 556 C 53.4546 2.66207 2.23672 0
M  V30 557 H 52.7776 3.48378 1.96145 0
M  V30 558 H 54.2176 3.07685 2.9173 0
M  V30 559 C 52.6766 1.59151 2.96939 0
M  V30 560 O 53.2066 0.993858 3.89211 0
M  V30 561 N 51.4126 1.31093 2.59351 0
M  V30 562 H 50.9596 1.7988 1.84393 0
M  V30 563 H 50.9176 0.596889 3.08682 0
M  V30 564 N 54.6897 -0.239769 1.55765 0
M  V30 565 C 55.6197 -1.30052 1.9393 0
M  V30 566 C 56.6007 -1.49839 0.805132 0
M  V30 567 O 57.7857 -1.62328 1.06599 0
M  V30 568 C 54.9157 -2.65391 2.2402 0
M  V30 569 C 53.8697 -2.60289 3.39755 0
M  V30 570 C 53.1957 -3.99489 3.55405 0
M  V30 571 C 54.4957 -2.16654 4.75246 0
M  V30 572 H 56.1897 -0.983573 2.82783 0
M  V30 573 H 53.7357 -0.471701 1.36055 0
M  V30 574 H 55.6887 -3.3974 2.49308 0
M  V30 575 H 54.4127 -2.98736 1.32 0
M  V30 576 H 53.0717 -1.88398 3.14487 0
M  V30 577 H 52.7197 -4.30112 2.60793 0
M  V30 578 H 52.4197 -3.96962 4.33238 0
M  V30 579 H 53.9437 -4.75528 3.83022 0
M  V30 580 H 55.3577 -2.80737 4.99859 0
M  V30 581 H 53.7547 -2.25223 5.56232 0
M  V30 582 H 54.8247 -1.11835 4.71827 0
M  V30 583 N 56.1678 -1.49265 -0.50573 0
M  V30 584 C 57.1158 -1.66065 -1.62866 0
M  V30 585 C 58.1098 -0.526636 -1.61006 0
M  V30 586 O 59.3158 -0.706126 -1.65571 0
M  V30 587 H 55.6908 -0.52356 -0.539805 0
M  V30 588 H 57.6618 -2.60329 -1.45848 0
M  V30 589 C 56.4108 -1.74008 -3.01026 0
M  V30 590 H 55.7338 -2.6064 -3.03161 0
M  V30 591 H 57.1738 -1.89798 -3.79147 0
M  V30 592 C 55.6328 -0.483868 -3.33407 0
M  V30 593 O 56.1628 0.392548 -3.99777 0
M  V30 594 N 54.3688 -0.348236 -2.88506 0
M  V30 595 H 53.9158 -1.06242 -2.34671 0
M  V30 596 H 53.8738 0.491204 -3.10539 0
M  V30 597 N 57.6459 0.756429 -1.3826 0
M  V30 598 C 58.8709 1.55077 -1.37717 0
M  V30 599 C 59.2959 1.88073 0.03164 0
M  V30 600 O 58.6539 1.50364 1.01293 0
M  V30 601 C 58.7019 2.8283 -2.23695 0
M  V30 602 O 57.8059 3.77862 -1.6521 0
M  V30 603 H 57.1469 0.469152 -0.469885 0
M  V30 604 H 59.6769 0.935019 -1.81985 0
M  V30 605 H 59.6869 3.31783 -2.37453 0
M  V30 606 H 58.3619 2.58144 -3.2609 0
M  V30 607 H 56.9389 3.36555 -1.60578 0
M  V30 608 N 59.124 1.23083 0.984299 0
M  V30 609 C 60.535 1.05609 1.5396 0
M  V30 610 C 60.886 -0.377793 1.92528 0
M  V30 611 O 60.011 -1.26398 1.75649 0
M  V30 612 C 60.606 1.91087 2.7977 0
M  V30 613 C 59.165 1.77885 3.31713 0
M  V30 614 C 58.312 1.87028 2.04733 0
M  V30 615 H 61.263 1.36802 0.804419 0
M  V30 616 H 61.284 1.43336 3.5247 0
M  V30 617 H 60.796 2.9544 2.51668 0
M  V30 618 H 58.897 0.762995 3.64704 0
M  V30 619 H 59.01 2.61047 4.01735 0
M  V30 620 H 57.374 1.30565 2.18689 0
M  V30 621 H 58.157 2.92929 1.79017 0
M  V30 622 N 60.6021 -1.18246 1.0419 0
M  V30 623 C 61.5321 -2.24127 0.654914 0
M  V30 624 C 62.5131 -1.66617 -0.342451 0
M  V30 625 O 63.6981 -1.92924 -0.222277 0
M  V30 626 C 60.8281 -3.47295 0.0183757 0
M  V30 627 C 59.7821 -4.17563 0.939414 0
M  V30 628 C 59.1081 -5.34438 0.167286 0
M  V30 629 C 60.4081 -4.70917 2.25908 0
M  V30 630 H 62.1021 -2.56753 1.54007 0
M  V30 631 H 59.6481 -1.23414 0.74195 0
M  V30 632 H 61.6011 -4.20572 -0.264082 0
M  V30 633 H 60.3251 -3.13907 -0.901664 0
M  V30 634 H 58.9841 -3.46186 1.20628 0
M  V30 635 H 58.6321 -4.97298 -0.7552 0
M  V30 636 H 58.3321 -5.82388 0.780901 0
M  V30 637 H 59.8561 -6.10504 -0.108125 0
M  V30 638 H 61.2701 -5.35882 2.03724 0
M  V30 639 H 59.6671 -5.29406 2.82577 0
M  V30 640 H 60.7371 -3.88272 2.9047 0
M  V30 641 N 62.0802 -0.821533 -1.34494 0
M  V30 642 C 63.3292 -0.405355 -1.97585 0
M  V30 643 C 63.6422 1.03677 -1.65863 0
M  V30 644 O 64.8482 1.55679 -2.22433 0
M  V30 645 C 63.3042 -0.673861 -3.53535 0
M  V30 646 C 62.9122 -2.12951 -3.94152 0
M  V30 647 C 64.6562 -0.32378 -4.23263 0
M  V30 648 C 62.5632 -2.34298 -5.43009 0
M  V30 649 H 61.4932 -0.147836 -0.739365 0
M  V30 650 H 64.1442 -1.00769 -1.53355 0
M  V30 651 H 62.5262 -0.00137554 -3.96 0
M  V30 652 H 63.7002 -2.84104 -3.62797 0
M  V30 653 H 62.0152 -2.44089 -3.37356 0
M  V30 654 H 64.6122 -0.461126 -5.32708 0
M  V30 655 H 64.9552 0.731586 -4.09821 0
M  V30 656 H 65.4882 -0.950786 -3.8627 0
M  V30 657 H 62.2272 -3.38335 -5.61435 0
M  V30 658 H 61.7472 -1.67687 -5.75883 0
M  V30 659 H 63.4262 -2.16588 -6.09671 0
M  V30 660 N 63.5583 1.46682 -0.576371 0
M  V30 661 C 64.4683 2.34032 0.163141 0
M  V30 662 C 65.4843 1.49367 0.892501 0
M  V30 663 O 66.6603 1.82252 0.857106 0
M  V30 664 C 63.7253 3.26435 1.16795 0
M  V30 665 C 62.7863 4.26998 0.443944 0
M  V30 666 C 62.0193 5.14986 1.40088 0
M  V30 667 O 62.2423 5.05785 2.637 0
M  V30 668 O 61.1763 5.94906 0.914917 0
M  V30 669 H 65.0023 2.98607 -0.55388 0
M  V30 670 H 62.5873 1.45554 -0.336821 0
M  V30 671 H 64.4693 3.83459 1.74748 0
M  V30 672 H 63.1443 2.64465 1.86655 0
M  V30 673 H 62.0513 3.7368 -0.177271 0
M  V30 674 H 63.3843 4.91736 -0.213566 0
M  V30 675 N 65.0364 0.313813 1.54444 0
M  V30 676 C 66.3134 -0.345447 1.92525 0
M  V30 677 C 66.6934 -1.70667 1.24242 0
M  V30 678 O 66.0414 -2.25273 0.382654 0
M  V30 679 C 66.2514 -0.44737 3.46121 0
M  V30 680 C 67.5994 -0.712238 4.18584 0
M  V30 681 O 68.6234 -0.530678 3.52225 0
M  V30 682 O 67.4824 -1.06183 5.36085 0
M  V30 683 H 64.5764 -0.195407 0.803583 0
M  V30 684 H 67.1224 0.362813 1.65776 0
M  V30 685 H 65.8944 0.509043 3.87975 0
M  V30 686 H 65.5174 -1.20359 3.78945 0
M  V30 687 N 66.5145 -1.57545 0.0417849 0
M  V30 688 C 67.9255 -1.80011 -0.495259 0
M  V30 689 C 68.2765 -0.953199 -1.71489 0
M  V30 690 O 67.4015 -0.167138 -2.15754 0
M  V30 691 C 67.9965 -3.26482 -0.905265 0
M  V30 692 C 66.5555 -3.499 -1.38734 0
M  V30 693 C 65.7025 -2.74979 -0.358056 0
M  V30 694 H 68.6535 -1.56425 0.267736 0
M  V30 695 H 68.6745 -3.36887 -1.76882 0
M  V30 696 H 68.1865 -3.88096 -0.017401 0
M  V30 697 H 66.2875 -2.93553 -2.29471 0
M  V30 698 H 66.4005 -4.58615 -1.38598 0
M  V30 699 H 64.7645 -2.40834 -0.828912 0
M  V30 700 H 65.5475 -3.39315 0.521561 0
M  V30 701 N 67.9926 0.231505 -1.5589 0
M  V30 702 C 68.9556 1.27028 -1.90779 0
M  V30 703 C 69.9556 1.40308 -0.785507 0
M  V30 704 O 71.1456 1.38744 -1.05336 0
M  V30 705 C 68.2776 2.64566 -2.14983 0
M  V30 706 H 69.4706 0.973017 -2.83677 0
M  V30 707 H 67.0236 0.471486 -1.49019 0
M  V30 708 H 67.7586 2.99406 -1.24604 0
M  V30 709 H 67.5436 2.56305 -2.96732 0
M  V30 710 H 69.0336 3.39543 -2.43105 0
M  V30 711 N 69.4707 1.49531 0.497807 0
M  V30 712 C 70.8867 1.36365 0.829266 0
M  V30 713 C 71.0867 0.399184 1.97506 0
M  V30 714 O 70.1427 -0.167977 2.51941 0
M  V30 715 C 71.4557 2.77153 1.16647 0
M  V30 716 C 73.0037 2.85877 1.27449 0
M  V30 717 C 73.4787 4.2744 1.64497 0
M  V30 718 N 74.9697 4.30265 1.7154 0
M  V30 719 C 75.7047 5.3677 2.01656 0
M  V30 720 N 75.2007 6.53516 2.29976 0
M  V30 721 N 76.9937 5.24189 2.02934 0
M  V30 722 H 69.1447 2.10831 -0.257703 0
M  V30 723 H 71.4077 0.946534 -0.0527091 0
M  V30 724 H 71.1137 3.49442 0.397872 0
M  V30 725 H 70.9877 3.12722 2.10915 0
M  V30 726 H 73.3747 2.13824 2.0338 0
M  V30 727 H 73.4557 2.53887 0.312244 0
M  V30 728 H 73.0997 5.00021 0.891151 0
M  V30 729 H 73.0297 4.56896 2.61827 0
M  V30 730 H 75.5207 3.4607 1.51802 0
M  V30 731 H 75.8337 7.30506 2.52153 0
M  V30 732 H 74.1787 6.56737 2.27425 0
M  V30 733 H 77.3697 4.31988 1.80289 0
M  V30 734 H 77.5427 6.07286 2.26071 0
M  V30 735 N 70.9488 -0.749086 1.3866 0
M  V30 736 C 71.8788 -1.8764 1.38973 0
M  V30 737 C 72.8598 -1.68178 0.255004 0
M  V30 738 O 74.0448 -1.88704 0.458754 0
M  V30 739 C 71.1748 -3.25222 1.21851 0
M  V30 740 C 70.1288 -3.59295 2.32575 0
M  V30 741 C 69.4548 -4.95663 2.00555 0
M  V30 742 C 70.7548 -3.63709 3.7485 0
M  V30 743 H 72.4488 -1.87635 2.3331 0
M  V30 744 H 69.9948 -0.901329 1.12303 0
M  V30 745 H 71.9478 -4.03746 1.20695 0
M  V30 746 H 70.6718 -3.25719 0.239775 0
M  V30 747 H 69.3308 -2.83093 2.32925 0
M  V30 748 H 68.9788 -4.92724 1.01154 0
M  V30 749 H 68.6788 -5.19429 2.74714 0
M  V30 750 H 70.2028 -5.7656 2.01024 0
M  V30 751 H 71.6168 -4.32338 3.76506 0
M  V30 752 H 70.0138 -3.98986 4.48252 0
M  V30 753 H 71.0838 -2.63834 4.06841 0
M  V30 754 N 72.4269 -1.23603 -0.977757 0
M  V30 755 C 73.3599 -0.962772 -2.06896 0
M  V30 756 C 74.3379 0.0998743 -1.62293 0
M  V30 757 O 75.5219 -0.0349421 -1.88468 0
M  V30 758 C 72.6489 -0.45095 -3.35685 0
M  V30 759 C 71.6949 -1.50061 -3.99229 0
M  V30 760 S 72.5279 -3.07884 -4.38142 0
M  V30 761 C 73.6839 -2.58378 -5.7008 0
M  V30 762 H 73.9169 -1.88677 -2.29757 0
M  V30 763 H 71.4499 -1.06876 -1.11431 0
M  V30 764 H 73.4079 -0.162261 -4.10179 0
M  V30 765 H 72.0689 0.452179 -3.10828 0
M  V30 766 H 71.2619 -1.09269 -4.92013 0
M  V30 767 H 70.8639 -1.73878 -3.31123 0
M  V30 768 H 73.1559 -2.00563 -6.47133 0
M  V30 769 H 74.0989 -3.49711 -6.15717 0
M  V30 770 H 74.5069 -1.99143 -5.28207 0
M  V30 771 N 73.905 1.17692 -1.04816 0
M  V30 772 C 74.835 2.23777 -0.666791 0
M  V30 773 C 75.816 1.66796 0.33361 0
M  V30 774 O 77.001 1.93039 0.212042 0
M  V30 775 C 74.131 3.47281 -0.0367933 0
M  V30 776 C 73.085 4.17059 -0.961546 0
M  V30 777 C 72.411 5.34342 -0.195626 0
M  V30 778 C 73.711 4.69713 -2.28402 0
M  V30 779 H 75.405 2.55933 -1.55367 0
M  V30 780 H 72.951 1.23019 -0.748484 0
M  V30 781 H 74.904 4.20706 0.241775 0
M  V30 782 H 73.628 3.14381 0.885004 0
M  V30 783 H 72.287 3.45541 -1.22462 0
M  V30 784 H 71.935 4.97692 0.728816 0
M  V30 785 H 71.635 5.81966 -0.811775 0
M  V30 786 H 73.159 6.10553 0.0757473 0
M  V30 787 H 74.573 5.34794 -2.06563 0
M  V30 788 H 72.97 5.279 -2.8538 0
M  V30 789 H 74.04 3.86726 -2.92525 0
M  V30 790 N 75.3831 0.828654 1.34056 0
M  V30 791 C 76.2931 0.256725 2.33191 0
M  V30 792 C 77.3091 -0.611898 1.62886 0
M  V30 793 O 78.4851 -0.51844 1.94613 0
M  V30 794 C 75.5501 -0.567238 3.42028 0
M  V30 795 C 74.6111 0.324458 4.28072 0
M  V30 796 C 73.8441 -0.460274 5.31712 0
M  V30 797 O 74.0671 -1.693 5.44696 0
M  V30 798 O 73.0011 0.160391 6.01686 0
M  V30 799 H 76.8271 1.07739 2.83947 0
M  V30 800 H 74.4121 0.59093 1.37217 0
M  V30 801 H 76.2941 -1.03582 4.08471 0
M  V30 802 H 74.9691 -1.36513 2.93506 0
M  V30 803 H 73.8761 0.840659 3.64532 0
M  V30 804 H 75.2091 1.08685 4.8005 0
M  V30 805 N 76.8612 -1.46375 0.584142 0
M  V30 806 C 78.1072 -2.03248 0.0787103 0
M  V30 807 C 78.4622 -1.44737 -1.26763 0
M  V30 808 O 77.7552 -0.603625 -1.81843 0
M  V30 809 C 77.9492 -3.57373 -0.0439342 0
M  V30 810 C 77.7782 -4.30831 1.28897 0
M  V30 811 C 76.5482 -4.69683 1.8635 0
M  V30 812 C 78.7462 -4.64278 2.21248 0
M  V30 813 N 76.7282 -5.27898 3.13365 0
M  V30 814 C 78.0992 -5.23078 3.32851 0
M  V30 815 C 80.1542 -4.46209 2.20911 0
M  V30 816 C 78.8572 -5.65715 4.44251 0
M  V30 817 C 80.8832 -4.89864 3.31341 0
M  V30 818 C 80.2452 -5.48736 4.41665 0
M  V30 819 H 76.3442 -0.778714 0.0716144 0
M  V30 820 H 78.9282 -1.78509 0.777355 0
M  V30 821 H 77.0992 -3.81823 -0.711749 0
M  V30 822 H 78.8312 -4.00892 -0.553881 0
M  V30 823 H 75.5862 -4.52488 1.39826 0
M  V30 824 H 76.0102 -5.61525 3.78178 0
M  V30 825 H 80.6522 -4.00027 1.36888 0
M  V30 826 H 78.3702 -6.10875 5.29015 0
M  V30 827 H 81.9562 -4.77634 3.322 0
M  V30 828 H 80.8362 -5.81898 5.25704 0
M  V30 829 N 78.3393 -0.321999 -1.54275 0
M  V30 830 C 79.2693 0.537411 -2.27231 0
M  V30 831 C 80.2503 1.12064 -1.27968 0
M  V30 832 O 81.4353 1.14606 -1.56777 0
M  V30 833 C 78.5653 1.69919 -3.02894 0
M  V30 834 C 77.5193 1.24534 -4.09482 0
M  V30 835 C 76.8453 2.49394 -4.72977 0
M  V30 836 C 78.1453 0.361335 -5.21049 0
M  V30 837 H 79.8393 -0.0711406 -2.99315 0
M  V30 838 H 77.3853 -0.0356555 -1.43956 0
M  V30 839 H 79.3383 2.30668 -3.52662 0
M  V30 840 H 78.0623 2.33431 -2.28424 0
M  V30 841 H 76.7213 0.660782 -3.60596 0
M  V30 842 H 76.3693 3.11265 -3.95124 0
M  V30 843 H 76.0693 2.19718 -5.44975 0
M  V30 844 H 77.5933 3.10908 -5.25517 0
M  V30 845 H 79.0073 0.875072 -5.66582 0
M  V30 846 H 77.4043 0.157428 -5.99893 0
M  V30 847 H 78.4743 -0.60822 -4.8107 0
M  V30 848 N 79.8174 1.5752 -0.0501392 0
M  V30 849 C 80.7644 2.1147 0.924603 0
M  V30 850 C 81.7344 1.02182 1.30951 0
M  V30 851 O 82.9194 1.29723 1.39916 0
M  V30 852 C 80.0594 2.66337 2.19451 0
M  V30 853 C 79.1724 3.89708 1.86418 0
M  V30 854 C 78.3074 4.32893 3.07859 0
M  V30 855 C 77.3464 5.48967 2.70742 0
M  V30 856 N 76.4834 5.87211 3.84874 0
M  V30 857 H 81.3234 2.94465 0.457639 0
M  V30 858 H 78.8604 1.45531 0.214266 0
M  V30 859 H 80.8184 2.96247 2.93758 0
M  V30 860 H 79.4484 1.86141 2.63726 0
M  V30 861 H 78.5004 3.66396 1.02264 0
M  V30 862 H 79.8124 4.74074 1.55096 0
M  V30 863 H 78.9664 4.6435 3.90466 0
M  V30 864 H 77.7054 3.47336 3.42358 0
M  V30 865 H 76.7104 5.17183 1.86551 0
M  V30 866 H 77.9354 6.3624 2.37436 0
M  V30 867 H 75.8814 5.04607 4.19175 0
M  V30 868 H 75.7984 6.66266 3.57247 0
M  V30 869 H 77.0664 6.23282 4.68123 0
M  V30 870 N 81.2955 -0.223234 1.56011 0
M  V30 871 C 82.5235 -0.964812 1.83027 0
M  V30 872 C 82.9385 -1.78013 0.62904 0
M  V30 873 O 82.2955 -1.78008 -0.402414 0
M  V30 874 C 82.3465 -1.88373 3.08542 0
M  V30 875 O 82.0675 -1.10137 4.2403 0
M  V30 876 C 83.5685 -2.73934 3.48533 0
M  V30 877 H 80.7885 -0.282842 0.608475 0
M  V30 878 H 83.3325 -0.238971 2.03099 0
M  V30 879 H 81.4875 -2.56354 2.9045 0
M  V30 880 H 81.9015 -1.72501 4.95322 0
M  V30 881 H 83.3755 -3.34117 4.39397 0
M  V30 882 H 83.8525 -3.46244 2.70207 0
M  V30 883 H 84.4585 -2.11369 3.69057 0
M  V30 884 N 82.7736 -1.49793 -0.48987 0
M  V30 885 C 84.0216 -1.59525 -1.24081 0
M  V30 886 C 84.3426 -0.288953 -1.92847 0
M  V30 887 O 83.6126 0.692436 -1.83254 0
M  V30 888 H 82.1926 -0.587796 -0.460983 0
M  V30 889 H 84.8546 -1.86477 -0.566778 0
M  V30 890 H 83.9506 -2.39696 -1.99881 0
M  V30 891 N 84.2517 0.741722 -1.39055 0
M  V30 892 C 85.1997 1.87702 -1.3737 0
M  V30 893 C 86.1937 1.67427 -0.257812 0
M  V30 894 O 87.3997 1.7485 -0.427489 0
M  V30 895 H 83.7747 0.617757 -0.428812 0
M  V30 896 H 85.7457 1.86239 -2.33147 0
M  V30 897 C 84.4947 3.25315 -1.22741 0
M  V30 898 H 83.8177 3.41509 -2.07873 0
M  V30 899 H 85.2577 4.04964 -1.25618 0
M  V30 900 C 83.7167 3.36838 0.0647316 0
M  V30 901 O 84.2467 3.88073 1.03741 0
M  V30 902 N 82.4527 2.90329 0.125544 0
M  V30 903 H 81.9997 2.48823 -0.666682 0
M  V30 904 H 81.9577 2.98418 0.989639 0
M  V30 905 N 85.7298 1.2412 0.971189 0
M  V30 906 C 87.1458 1.00584 1.23916 0
M  V30 907 C 87.3458 -0.287481 1.99439 0
M  V30 908 O 86.4018 -1.00454 2.31658 0
M  V30 909 C 87.7148 2.21864 2.0297 0
M  V30 910 C 89.2628 2.26452 2.16076 0
M  V30 911 C 89.7378 3.47343 2.98524 0
M  V30 912 N 91.2288 3.47639 3.06107 0
M  V30 913 C 91.9638 4.37837 3.70251 0
M  V30 914 N 91.4598 5.38286 4.36142 0
M  V30 915 N 93.2528 4.25558 3.67228 0
M  V30 916 H 85.4038 2.07236 0.465499 0
M  V30 917 H 87.6668 0.909236 0.268315 0
M  V30 918 H 87.3728 3.15771 1.54861 0
M  V30 919 H 87.2468 2.23698 3.03709 0
M  V30 920 H 89.6338 1.33078 2.6339 0
M  V30 921 H 89.7148 2.28645 1.14696 0
M  V30 922 H 89.3588 4.41029 2.51905 0
M  V30 923 H 89.2888 3.42393 4.00093 0
M  V30 924 H 91.7798 2.74966 2.59233 0
M  V30 925 H 92.0928 6.03352 4.82894 0
M  V30 926 H 90.4378 5.42176 4.34822 0
M  V30 927 H 93.6288 3.46322 3.14927 0
M  V30 928 H 93.8018 4.96054 4.16935 0
M  V30 929 N 87.2079 -1.17134 1.05439 0
M  V30 930 C 88.6189 -1.69084 0.791676 0
M  V30 931 C 88.9699 -1.83822 -0.685839 0
M  V30 932 O 88.0949 -1.52757 -1.53278 0
M  V30 933 C 88.6899 -3.07119 1.4305 0
M  V30 934 C 87.2489 -3.56225 1.21577 0
M  V30 935 C 86.3959 -2.32421 1.51247 0
M  V30 936 H 89.3469 -1.01617 1.219 0
M  V30 937 H 89.3679 -3.71087 0.84112 0
M  V30 938 H 88.8799 -2.9636 2.50584 0
M  V30 939 H 86.9809 -3.72257 0.159787 0
M  V30 940 H 87.0939 -4.38837 1.92246 0
M  V30 941 H 85.4579 -2.3701 0.932653 0
M  V30 942 H 86.2409 -2.24268 2.5992 0
M  V30 943 N 88.686 -0.835752 -1.33615 0
M  V30 944 C 89.916 -0.442701 -2.01801 0
M  V30 945 C 90.324 0.959807 -1.63047 0
M  V30 946 O 89.667 1.63468 -0.838088 0
M  V30 947 C 89.729 -0.480125 -3.56279 0
M  V30 948 C 89.393 -1.8382 -4.18401 0
M  V30 949 C 90.39 -2.80097 -4.37998 0
M  V30 950 C 88.075 -2.13019 -4.54894 0
M  V30 951 C 90.069 -4.03736 -4.9323 0
M  V30 952 C 87.756 -3.36916 -5.09834 0
M  V30 953 C 88.754 -4.32091 -5.28948 0
M  V30 954 O 88.442 -5.53797 -5.82721 0
M  V30 955 H 88.174 -0.17441 -0.653114 0
M  V30 956 H 90.728 -1.129 -1.71589 0
M  V30 957 H 88.958 0.262931 -3.85805 0
M  V30 958 H 90.647 -0.105335 -4.05763 0
M  V30 959 H 91.413 -2.58838 -4.10156 0
M  V30 960 H 87.292 -1.39733 -4.39313 0
M  V30 961 H 90.836 -4.78034 -5.08064 0
M  V30 962 H 86.733 -3.58033 -5.37106 0
M  V30 963 H 87.501 -5.55494 -6.0114 0
M  V30 964 N 90.1641 1.46063 -0.591896 0
M  V30 965 C 91.5801 1.57561 -0.254288 0
M  V30 966 C 91.7801 1.58565 1.24336 0
M  V30 967 O 90.8361 1.50753 2.02558 0
M  V30 968 C 92.1491 2.86549 -0.911611 0
M  V30 969 C 93.6971 3.00197 -0.886059 0
M  V30 970 C 94.1721 4.31933 -1.5231 0
M  V30 971 N 95.6631 4.38654 -1.48786 0
M  V30 972 C 96.3981 5.39222 -1.95006 0
M  V30 973 N 95.8941 6.46414 -2.49241 0
M  V30 974 N 97.6871 5.3048 -1.85868 0
M  V30 975 H 89.8381 1.43655 -1.56451 0
M  V30 976 H 92.1011 0.68583 -0.654478 0
M  V30 977 H 91.8071 2.91651 -1.96551 0
M  V30 978 H 91.6811 3.74794 -0.425368 0
M  V30 979 H 94.0681 2.9467 0.159246 0
M  V30 980 H 94.1491 2.13403 -1.41041 0
M  V30 981 H 93.7931 4.38217 -2.56765 0
M  V30 982 H 93.7231 5.17516 -0.973891 0
M  V30 983 H 96.2141 3.61793 -1.09151 0
M  V30 984 H 96.5271 7.19376 -2.82344 0
M  V30 985 H 94.8721 6.47208 -2.53272 0
M  V30 986 H 98.0631 4.45643 -1.43248 0
M  V30 987 H 98.2361 6.08711 -2.22204 0
M  V30 988 N 91.6422 0.330177 1.54103 0
M  V30 989 C 92.5752 -0.575477 2.20825 0
M  V30 990 C 93.5532 -1.11064 1.18758 0
M  V30 991 O 94.7372 -1.17341 1.47524 0
M  V30 992 C 91.8642 -1.79032 2.87516 0
M  V30 993 C 90.9102 -1.38581 4.03358 0
M  V30 994 S 91.7432 -0.416911 5.33875 0
M  V30 995 C 92.8992 -1.63889 6.04062 0
M  V30 996 H 93.1322 -0.00872114 2.97299 0
M  V30 997 H 90.6652 0.114254 1.53977 0
M  V30 998 H 92.6232 -2.48734 3.2656 0
M  V30 999 H 91.2842 -2.32827 2.10832 0
M  V30 1000 H 90.4772 -2.29123 4.48908 0
M  V30 1001 H 90.0792 -0.768419 3.66021 0
M  V30 1002 H 92.3712 -2.57536 6.26643 0
M  V30 1003 H 93.3142 -1.22542 6.97416 0
M  V30 1004 H 93.7222 -1.82887 5.34053 0
M  V30 1005 N 93.1203 -1.57491 0.0584922 0
M  V30 1006 C 94.3483 -1.97296 -0.623037 0
M  V30 1007 C 94.7633 -0.936338 -1.63946 0
M  V30 1008 O 94.1203 0.0785981 -1.82331 0
M  V30 1009 C 94.1713 -3.37183 -1.30345 0
M  V30 1010 O 93.8923 -4.36872 -0.32773 0
M  V30 1011 C 95.3933 -3.91788 -2.07406 0
M  V30 1012 H 92.6133 -0.649153 -0.169826 0
M  V30 1013 H 95.1573 -2.04106 0.12696 0
M  V30 1014 H 93.3123 -3.31502 -2.00463 0
M  V30 1015 H 93.7263 -5.18141 -0.814269 0
M  V30 1016 H 95.2003 -4.91926 -2.50425 0
M  V30 1017 H 95.6773 -3.27609 -2.92521 0
M  V30 1018 H 96.2833 -4.00829 -1.42184 0
M  V30 1019 N 94.5984 0.214957 -1.56127 0
M  V30 1020 C 95.5284 1.2695 -1.95974 0
M  V30 1021 C 96.5094 1.48539 -0.828868 0
M  V30 1022 O 97.6944 1.60611 -1.09168 0
M  V30 1023 C 94.8244 2.61794 -2.28214 0
M  V30 1024 C 93.7784 2.54851 -3.43853 0
M  V30 1025 C 93.1044 3.93785 -3.61715 0
M  V30 1026 C 94.4044 2.09065 -4.78632 0
M  V30 1027 H 96.0984 0.93846 -2.84312 0
M  V30 1028 H 93.6444 0.449996 -1.36788 0
M  V30 1029 H 95.5974 3.35731 -2.54682 0
M  V30 1030 H 94.3214 2.96599 -1.36736 0
M  V30 1031 H 92.9804 1.8337 -3.17444 0
M  V30 1032 H 92.6284 4.25908 -2.67602 0
M  V30 1033 H 92.3284 3.90019 -4.39498 0
M  V30 1034 H 93.8524 4.69374 -3.90539 0
M  V30 1035 H 95.2664 2.7275 -5.04262 0
M  V30 1036 H 93.6634 2.16346 -5.59745 0
M  V30 1037 H 94.7334 1.04315 -4.73547 0
M  V30 1038 N 96.0765 1.50051 0.48192 0
M  V30 1039 C 97.3045 1.64237 1.25832 0
M  V30 1040 C 97.7195 0.321336 1.86045 0
M  V30 1041 O 97.0765 -0.695478 1.68729 0
M  V30 1042 C 97.1275 2.72548 2.37487 0
M  V30 1043 O 96.8485 3.99529 1.79745 0
M  V30 1044 C 98.3495 2.9761 3.28547 0
M  V30 1045 H 95.5695 0.55237 0.380957 0
M  V30 1046 H 98.1135 1.96207 0.576467 0
M  V30 1047 H 96.2685 2.43303 3.01467 0
M  V30 1048 H 96.6825 4.59342 2.5319 0
M  V30 1049 H 98.1565 3.77084 4.03127 0
M  V30 1050 H 98.6335 2.0826 3.86684 0
M  V30 1051 H 99.2395 3.28345 2.70314 0
M  V30 1052 N 97.5546 -0.734337 1.39446 0
M  V30 1053 C 98.8316 -1.48579 1.27215 0
M  V30 1054 C 99.2116 -2.1077 -0.117968 0
M  V30 1055 O 98.5596 -1.98646 -1.12924 0
M  V30 1056 C 98.7696 -2.53667 2.39696 0
M  V30 1057 C 100.118 -3.20031 2.79044 0
M  V30 1058 O 101.142 -2.6398 2.39151 0
M  V30 1059 O 100.001 -4.21455 3.47905 0
M  V30 1060 H 97.0946 -0.659816 0.49857 0
M  V30 1061 H 99.6406 -0.768106 1.51322 0
M  V30 1062 H 98.4126 -2.06096 3.32626 0
M  V30 1063 H 98.0356 -3.32994 2.17258 0
M  V30 1064 N 99.0327 -1.24633 -0.964593 0
M  V30 1065 C 99.9807 -1.03917 -2.08096 0
M  V30 1066 C 100.975 0.0268581 -1.69379 0
M  V30 1067 O 102.181 -0.127952 -1.79545 0
M  V30 1068 H 98.5557 -0.319044 -0.680966 0
M  V30 1069 H 100.527 -1.98581 -2.22729 0
M  V30 1070 C 99.2757 -0.663983 -3.41301 0
M  V30 1071 H 98.5987 -1.47605 -3.71555 0
M  V30 1072 H 100.039 -0.558663 -4.20303 0
M  V30 1073 C 98.4977 0.629169 -3.30973 0
M  V30 1074 O 99.0277 1.67404 -3.65156 0
M  V30 1075 N 97.2337 0.611057 -2.84103 0
M  V30 1076 H 96.7807 -0.239593 -2.56483 0
M  V30 1077 H 96.7387 1.47647 -2.77575 0
M  V30 1078 N 100.511 1.16574 -1.06058 0
M  V30 1079 C 101.751 1.88723 -0.78504 0
M  V30 1080 C 102.115 1.79706 0.676006 0
M  V30 1081 O 103.316 2.46757 1.06603 0
M  V30 1082 C 101.587 3.34338 -1.26304 0
M  V30 1083 S 103.146 4.24366 -1.1162 0
M  V30 1084 H 99.9638 0.651448 -0.284846 0
M  V30 1085 H 102.566 1.40732 -1.35701 0
M  V30 1086 H 101.27 3.38439 -2.32136 0
M  V30 1087 H 100.801 3.87378 -0.685719 0
M  V30 1088 H 102.816 4.96179 -0.0456539 0
M  V30 1089 N 101.989 0.842826 1.3317 0
M  V30 1090 C 103.214 0.453129 2.02389 0
M  V30 1091 C 103.639 -0.939105 1.6298 0
M  V30 1092 O 102.997 -1.61472 0.8244 0
M  V30 1093 C 103.045 0.586094 3.55805 0
M  V30 1094 O 102.149 -0.386029 4.10589 0
M  V30 1095 H 101.49 0.183664 0.638094 0
M  V30 1096 H 104.02 1.13875 1.69981 0
M  V30 1097 H 104.03 0.469209 4.05293 0
M  V30 1098 H 102.705 1.6014 3.83833 0
M  V30 1099 H 101.282 -0.226371 3.72212 0
M  V30 1100 N 103.467 -1.45747 0.599634 0
M  V30 1101 C 104.883 -1.57424 0.26264 0
M  V30 1102 C 105.083 -1.59222 -1.23493 0
M  V30 1103 O 104.139 -1.51825 -2.01756 0
M  V30 1104 C 105.452 -2.86061 0.926795 0
M  V30 1105 C 107 -2.99722 0.901967 0
M  V30 1106 C 107.475 -4.31119 1.54598 0
M  V30 1107 N 108.966 -4.37858 1.5111 0
M  V30 1108 C 109.701 -5.3818 1.97863 0
M  V30 1109 N 109.197 -6.45083 2.52666 0
M  V30 1110 N 110.99 -5.29487 1.88679 0
M  V30 1111 H 103.141 -1.42823 1.57211 0
M  V30 1112 H 105.404 -0.68235 0.658105 0
M  V30 1113 H 105.11 -2.90605 1.98095 0
M  V30 1114 H 104.984 -3.74563 0.445238 0
M  V30 1115 H 107.371 -2.9475 -0.143617 0
M  V30 1116 H 107.452 -2.12652 1.42171 0
M  V30 1117 H 107.096 -4.36849 2.59085 0
M  V30 1118 H 107.026 -5.16992 1.00132 0
M  V30 1119 H 109.517 -3.61209 1.11068 0
M  V30 1120 H 109.83 -7.17869 2.86155 0
M  V30 1121 H 108.175 -6.45856 2.56701 0
M  V30 1122 H 111.366 -4.44877 1.4561 0
M  V30 1123 H 111.539 -6.07524 2.25429 0
M  V30 1124 N 104.945 -0.338344 -1.53925 0
M  V30 1125 C 106.17 0.263987 -2.05713 0
M  V30 1126 C 106.595 1.43847 -1.21201 0
M  V30 1127 O 105.953 1.79904 -0.224535 0
M  V30 1128 C 106.001 0.662 -3.54471 0
M  V30 1129 O 105.105 1.76265 -3.72833 0
M  V30 1130 H 104.446 0.0448722 -0.662482 0
M  V30 1131 H 106.976 -0.491048 -1.9862 0
M  V30 1132 H 106.986 0.940594 -3.9701 0
M  V30 1133 H 105.661 -0.196937 -4.15433 0
M  V30 1134 H 104.238 1.48173 -3.42198 0
M  V30 1135 N 106.423 1.57458 -0.0668435 0
M  V30 1136 C 107.67 1.93301 0.603406 0
M  V30 1137 C 107.998 0.946486 1.69917 0
M  V30 1138 O 107.253 -0.0387021 1.95662 0
M  V30 1139 C 107.552 3.35784 1.22409 0
M  V30 1140 C 107.218 4.50179 0.254955 0
M  V30 1141 C 105.88 4.81199 -0.0116746 0
M  V30 1142 C 108.232 5.19598 -0.408338 0
M  V30 1143 C 105.56 5.78978 -0.94877 0
M  V30 1144 C 107.912 6.18381 -1.33372 0
M  V30 1145 C 106.576 6.47821 -1.60887 0
M  V30 1146 H 105.846 0.707338 0.220802 0
M  V30 1147 H 108.493 1.91012 -0.136665 0
M  V30 1148 H 106.798 3.34515 2.03978 0
M  V30 1149 H 108.495 3.60804 1.74989 0
M  V30 1150 H 105.085 4.25983 0.472954 0
M  V30 1151 H 109.269 4.95832 -0.215456 0
M  V30 1152 H 104.525 6.00115 -1.16925 0
M  V30 1153 H 108.699 6.71277 -1.85367 0
M  V30 1154 H 106.326 7.23399 -2.33661 0
M  V30 1155 N 107.901 -0.206675 1.56239 0
M  V30 1156 C 109.317 -0.557025 1.49564 0
M  V30 1157 C 109.517 -1.86424 0.764735 0
M  V30 1158 O 108.573 -2.50584 0.310491 0
M  V30 1159 C 109.886 -0.622478 2.94186 0
M  V30 1160 C 111.434 -0.712099 3.04792 0
M  V30 1161 C 111.909 -0.808767 4.50803 0
M  V30 1162 N 113.4 -0.8726 4.54907 0
M  V30 1163 C 114.135 -0.967365 5.65181 0
M  V30 1164 N 113.631 -1.02515 6.85173 0
M  V30 1165 N 115.424 -1.00366 5.53067 0
M  V30 1166 H 107.575 0.650943 2.02179 0
M  V30 1167 H 109.838 0.230387 0.919579 0
M  V30 1168 H 109.544 0.268727 3.50672 0
M  V30 1169 H 109.418 -1.4811 3.46905 0
M  V30 1170 H 111.805 -1.59374 2.48363 0
M  V30 1171 H 111.886 0.172489 2.55218 0
M  V30 1172 H 111.53 0.0684754 5.07854 0
M  V30 1173 H 111.46 -1.70899 4.98098 0
M  V30 1174 H 113.951 -0.837657 3.68499 0
M  V30 1175 H 114.264 -1.09765 7.64965 0
M  V30 1176 H 112.609 -0.994026 6.87855 0
M  V30 1177 H 115.8 -0.95527 4.58249 0
M  V30 1178 H 115.973 -1.07405 6.39037 0
M  V30 1179 N 109.379 -1.50304 -0.473955 0
M  V30 1180 C 110.625 -1.61389 -1.22806 0
M  V30 1181 C 110.958 -0.311955 -1.91678 0
M  V30 1182 O 110.233 0.686384 -1.81986 0
M  V30 1183 C 110.516 -2.79219 -2.27396 0
M  V30 1184 C 110.369 -4.19286 -1.62848 0
M  V30 1185 C 111.688 -2.92614 -3.28732 0
M  V30 1186 H 108.807 -0.587399 -0.445119 0
M  V30 1187 H 111.449 -1.82681 -0.522265 0
M  V30 1188 H 109.599 -2.61195 -2.87592 0
M  V30 1189 H 111.271 -4.48892 -1.06271 0
M  V30 1190 H 109.514 -4.23677 -0.931693 0
M  V30 1191 H 110.185 -4.97655 -2.38838 0
M  V30 1192 H 112.661 -3.09105 -2.78556 0
M  V30 1193 H 111.537 -3.76688 -3.99246 0
M  V30 1194 H 111.798 -2.03107 -3.92683 0
M  V30 1195 N 110.857 0.726932 -1.39834 0
M  V30 1196 C 111.787 1.85405 -1.41941 0
M  V30 1197 C 112.768 1.67751 -0.281728 0
M  V30 1198 O 113.953 1.8795 -0.488717 0
M  V30 1199 C 111.083 3.23243 -1.2701 0
M  V30 1200 C 110.037 3.55549 -2.38262 0
M  V30 1201 C 109.363 4.9241 -2.08415 0
M  V30 1202 C 110.663 3.577 -3.80589 0
M  V30 1203 H 112.357 1.83899 -2.36266 0
M  V30 1204 H 109.903 0.883349 -1.13723 0
M  V30 1205 H 111.856 4.01775 -1.27103 0
M  V30 1206 H 110.58 3.25296 -0.291564 0
M  V30 1207 H 109.239 2.79351 -2.37399 0
M  V30 1208 H 108.887 4.91052 -1.0898 0
M  V30 1209 H 108.587 5.14992 -2.82943 0
M  V30 1210 H 110.111 5.73289 -2.10171 0
M  V30 1211 H 111.525 4.26293 -3.83337 0
M  V30 1212 H 109.922 3.91804 -4.54543 0
M  V30 1213 H 110.992 2.57328 -4.10987 0
M  V30 1214 N 112.336 1.25143 0.95797 0
M  V30 1215 C 113.283 1.05235 2.05412 0
M  V30 1216 C 114.253 -0.0374561 1.66058 0
M  V30 1217 O 115.438 0.119073 1.90428 0
M  V30 1218 C 112.578 0.673589 3.38462 0
M  V30 1219 C 111.691 1.8379 3.90954 0
M  V30 1220 C 110.826 1.40381 5.12315 0
M  V30 1221 C 109.865 2.53746 5.57027 0
M  V30 1222 N 109.002 2.11136 6.69601 0
M  V30 1223 H 113.842 1.99048 2.21774 0
M  V30 1224 H 111.379 0.991277 1.08683 0
M  V30 1225 H 113.337 0.434964 4.14926 0
M  V30 1226 H 111.967 -0.227554 3.21997 0
M  V30 1227 H 111.019 2.18992 3.11041 0
M  V30 1228 H 112.331 2.68937 4.20089 0
M  V30 1229 H 111.485 1.12464 5.96185 0
M  V30 1230 H 110.224 0.523015 4.84887 0
M  V30 1231 H 109.229 2.82412 4.71724 0
M  V30 1232 H 110.454 3.42398 5.86464 0
M  V30 1233 H 108.4 1.25468 6.4389 0
M  V30 1234 H 108.317 2.89832 6.98236 0
M  V30 1235 H 109.585 1.86385 7.56889 0
M  V30 1236 N 113.814 -1.1601 1.06675 0
M  V30 1237 C 115.091 -1.82679 0.699114 0
M  V30 1238 C 115.471 -1.94559 -0.819137 0
M  V30 1239 O 114.819 -1.49169 -1.73092 0
M  V30 1240 C 115.029 -3.19445 1.40555 0
M  V30 1241 C 116.377 -3.95171 1.55323 0
M  V30 1242 O 117.401 -3.28976 1.36577 0
M  V30 1243 O 116.26 -5.13833 1.86112 0
M  V30 1244 H 113.354 -0.788954 0.247951 0
M  V30 1245 H 115.9 -1.23179 1.16726 0
M  V30 1246 H 114.672 -3.05856 2.44065 0
M  V30 1247 H 114.295 -3.86625 0.927733 0
M  V30 1248 N 115.292 -0.849877 -1.32721 0
M  V30 1249 C 116.522 -0.46408 -2.0132 0
M  V30 1250 C 116.93 0.94246 -1.64056 0
M  V30 1251 O 116.273 1.6257 -0.855379 0
M  V30 1252 C 116.335 -0.517887 -3.5575 0
M  V30 1253 C 115.999 -1.88248 -4.16427 0
M  V30 1254 C 116.996 -2.84726 -4.35002 0
M  V30 1255 C 114.681 -2.17832 -4.52609 0
M  V30 1256 C 116.675 -4.08945 -4.8892 0
M  V30 1257 C 114.362 -3.42304 -5.06232 0
M  V30 1258 C 115.36 -4.37677 -5.24335 0
M  V30 1259 O 115.048 -5.59946 -5.76815 0
M  V30 1260 H 114.78 -0.181327 -0.651227 0
M  V30 1261 H 117.334 -1.14713 -1.70382 0
M  V30 1262 H 115.564 0.221997 -3.86062 0
M  V30 1263 H 117.253 -0.148366 -4.05629 0
M  V30 1264 H 118.019 -2.63174 -4.07388 0
M  V30 1265 H 113.898 -1.44385 -4.37806 0
M  V30 1266 H 117.442 -4.83396 -5.02966 0
M  V30 1267 H 113.339 -3.63709 -5.33278 0
M  V30 1268 H 114.107 -5.61838 -5.95214 0
M  V30 1269 N 116.77 1.45427 -0.607355 0
M  V30 1270 C 118.017 2.02241 -0.102455 0
M  V30 1271 C 118.345 1.4758 1.26691 0
M  V30 1272 O 117.6 0.640468 1.84923 0
M  V30 1273 C 117.899 3.57398 -0.0129263 0
M  V30 1274 C 117.565 4.3121 -1.31792 0
M  V30 1275 C 116.227 4.51092 -1.67539 0
M  V30 1276 C 118.579 4.73401 -2.18039 0
M  V30 1277 C 115.907 5.10422 -2.89285 0
M  V30 1278 C 118.259 5.34078 -3.39034 0
M  V30 1279 C 116.923 5.52184 -3.75033 0
M  V30 1280 H 116.193 0.740051 -0.037491 0
M  V30 1281 H 118.84 1.74494 -0.788926 0
M  V30 1282 H 117.145 3.84421 0.756806 0
M  V30 1283 H 118.842 3.99061 0.393881 0
M  V30 1284 H 115.432 4.16047 -1.02968 0
M  V30 1285 H 119.616 4.57774 -1.91721 0
M  V30 1286 H 114.872 5.22629 -3.17283 0
M  V30 1287 H 119.046 5.65724 -4.06115 0
M  V30 1288 H 116.673 5.97925 -4.69457 0
M  V30 1289 N 118.248 0.346503 1.53744 0
M  V30 1290 C 119.195 -0.508914 2.25119 0
M  V30 1291 C 120.165 -1.09315 1.25058 0
M  V30 1292 O 121.35 -1.12921 1.53797 0
M  V30 1293 C 118.49 -1.65246 3.02965 0
M  V30 1294 C 117.603 -1.09525 4.17886 0
M  V30 1295 C 116.738 -2.20634 4.83212 0
M  V30 1296 C 115.777 -1.62279 5.90196 0
M  V30 1297 N 114.914 -2.67143 6.49291 0
M  V30 1298 H 119.754 0.106283 2.9781 0
M  V30 1299 H 117.291 0.0642227 1.4696 0
M  V30 1300 H 119.249 -2.32574 3.4636 0
M  V30 1301 H 117.879 -2.2386 2.32565 0
M  V30 1302 H 116.931 -0.312818 3.79112 0
M  V30 1303 H 118.243 -0.628444 4.94825 0
M  V30 1304 H 117.397 -2.95821 5.29693 0
M  V30 1305 H 116.136 -2.70659 4.05703 0
M  V30 1306 H 115.141 -0.855989 5.43096 0
M  V30 1307 H 116.366 -1.13102 6.69615 0
M  V30 1308 H 114.312 -3.16417 5.74645 0
M  V30 1309 H 114.229 -2.25093 7.21713 0
M  V30 1310 H 115.497 -3.4209 7.00425 0
M  V30 1311 N 119.726 -1.57421 0.075193 0
M  V30 1312 C 120.673 -2.12915 -0.890843 0
M  V30 1313 C 121.643 -1.04252 -1.29309 0
M  V30 1314 O 122.828 -1.31933 -1.37834 0
M  V30 1315 C 119.968 -2.69795 -2.15186 0
M  V30 1316 C 119.081 -3.92624 -1.80194 0
M  V30 1317 C 118.216 -4.37736 -3.00933 0
M  V30 1318 C 117.255 -5.53205 -2.61974 0
M  V30 1319 N 116.392 -5.9326 -3.75483 0
M  V30 1320 H 121.232 -2.95156 -0.410735 0
M  V30 1321 H 118.769 -1.45854 -0.191086 0
M  V30 1322 H 120.727 -3.00883 -2.89008 0
M  V30 1323 H 119.357 -1.90313 -2.60731 0
M  V30 1324 H 118.409 -3.67977 -0.964218 0
M  V30 1325 H 119.721 -4.76482 -1.47534 0
M  V30 1326 H 118.875 -4.70503 -3.8303 0
M  V30 1327 H 117.614 -3.52739 -3.36789 0
M  V30 1328 H 116.619 -5.20086 -1.783 0
M  V30 1329 H 117.844 -6.39936 -2.27284 0
M  V30 1330 H 115.79 -5.11212 -4.11094 0
M  V30 1331 H 115.707 -6.71865 -3.46602 0
M  V30 1332 H 116.975 -6.30651 -4.58148 0
M  V30 1333 N 121.204 0.198386 -1.56346 0
M  V30 1334 C 122.45 0.920648 -1.80698 0
M  V30 1335 C 122.783 1.83045 -0.648697 0
M  V30 1336 O 122.058 1.91308 0.350925 0
M  V30 1337 C 122.341 1.73971 -3.15287 0
M  V30 1338 C 122.194 0.85485 -4.41602 0
M  V30 1339 C 123.513 2.71296 -3.46535 0
M  V30 1340 H 120.632 0.333261 -0.657348 0
M  V30 1341 H 123.274 0.188198 -1.89066 0
M  V30 1342 H 121.424 2.36416 -3.08285 0
M  V30 1343 H 123.096 0.245362 -4.60647 0
M  V30 1344 H 121.339 0.161398 -4.335 0
M  V30 1345 H 122.01 1.46286 -5.32264 0
M  V30 1346 H 124.486 2.18983 -3.53816 0
M  V30 1347 H 123.362 3.2569 -4.41834 0
M  V30 1348 H 123.623 3.5018 -2.69864 0
M  V30 1349 N 122.682 1.50554 0.465978 0
M  V30 1350 C 123.959 1.5232 1.22712 0
M  V30 1351 C 124.339 0.270807 2.09356 0
M  V30 1352 O 123.687 -0.745541 2.15995 0
M  V30 1353 C 123.897 2.82175 2.05374 0
M  V30 1354 C 125.245 3.33033 2.6339 0
M  V30 1355 O 126.269 2.83531 2.15612 0
M  V30 1356 O 125.128 4.19336 3.50456 0
M  V30 1357 H 122.222 0.611183 0.557122 0
M  V30 1358 H 124.768 1.62847 0.477381 0
M  V30 1359 H 123.54 3.64797 1.41558 0
M  V30 1360 H 123.163 2.74675 2.87471 0
M  V30 1361 N 124.16 -0.719506 1.40217 0
M  V30 1362 C 125.09 -1.8465 1.42922 0
M  V30 1363 C 126.071 -1.67599 0.29062 0
M  V30 1364 O 127.256 -1.87688 0.498677 0
M  V30 1365 C 124.386 -3.22565 1.28722 0
M  V30 1366 C 123.34 -3.54281 2.40144 0
M  V30 1367 C 122.666 -4.91298 2.11023 0
M  V30 1368 C 123.966 -3.55676 3.82481 0
M  V30 1369 H 125.66 -1.82644 2.37237 0
M  V30 1370 H 123.206 -0.877305 1.1419 0
M  V30 1371 H 125.159 -4.01095 1.29232 0
M  V30 1372 H 123.883 -3.25137 0.308811 0
M  V30 1373 H 122.542 -2.78088 2.38877 0
M  V30 1374 H 122.19 -4.90468 1.11582 0
M  V30 1375 H 121.89 -5.13485 2.8567 0
M  V30 1376 H 123.414 -5.72166 2.13209 0
M  V30 1377 H 124.828 -4.24254 3.85592 0
M  V30 1378 H 123.225 -3.89388 4.56614 0
M  V30 1379 H 124.295 -2.55144 4.12346 0
M  V30 1380 N 125.638 -1.25649 -0.95132 0
M  V30 1381 C 126.886 -1.10375 -1.69298 0
M  V30 1382 C 127.207 0.355339 -1.91735 0
M  V30 1383 O 126.477 1.25188 -1.50681 0
M  V30 1384 H 125.057 -0.405461 -0.627384 0
M  V30 1385 H 127.719 -1.57823 -1.14358 0
M  V30 1386 H 126.815 -1.61465 -2.67087 0
M  V30 1387 N 127.117 1.15442 -1.07289 0
M  V30 1388 C 128.342 1.90638 -0.816828 0
M  V30 1389 C 128.767 1.77445 0.624083 0
M  V30 1390 O 128.125 1.10671 1.43602 0
M  V30 1391 C 128.173 3.39008 -1.22906 0
M  V30 1392 O 127.277 4.10701 -0.373975 0
M  V30 1393 H 126.618 0.593555 -0.297638 0
M  V30 1394 H 129.148 1.46198 -1.43134 0
M  V30 1395 H 129.158 3.89801 -1.20497 0
M  V30 1396 H 127.833 3.47929 -2.27856 0
M  V30 1397 H 126.41 3.70046 -0.460499 0
M  V30 1398 N 128.595 0.856903 1.32268 0
M  V30 1399 C 129.525 0.31858 2.31316 0
M  V30 1400 C 130.506 -0.583487 1.59779 0
M  V30 1401 O 131.691 -0.503259 1.87566 0
M  V30 1402 C 128.821 -0.491979 3.43798 0
M  V30 1403 C 127.775 0.315849 4.26833 0
M  V30 1404 C 127.101 -0.619586 5.31098 0
M  V30 1405 C 128.401 1.54282 4.98993 0
M  V30 1406 H 130.095 1.14621 2.76591 0
M  V30 1407 H 127.641 0.552613 1.32974 0
M  V30 1408 H 129.594 -0.879012 4.1213 0
M  V30 1409 H 128.318 -1.35299 2.97257 0
M  V30 1410 H 126.977 0.684664 3.6015 0
M  V30 1411 H 126.625 -1.47751 4.8081 0
M  V30 1412 H 126.325 -0.0830621 5.87541 0
M  V30 1413 H 127.849 -1.00375 6.02293 0
M  V30 1414 H 129.263 1.22796 5.59995 0
M  V30 1415 H 127.66 2.01745 5.65172 0
M  V30 1416 H 128.73 2.30285 4.26728 0
M  V30 1417 N 130.073 -1.45103 0.615059 0
M  V30 1418 C 131.02 -2.30586 -0.0993978 0
M  V30 1419 C 131.99 -1.42544 -0.852669 0
M  V30 1420 O 133.175 -1.71465 -0.836917 0
M  V30 1421 C 130.315 -3.27572 -1.08583 0
M  V30 1422 C 129.428 -4.30717 -0.332656 0
M  V30 1423 C 128.563 -5.14807 -1.30947 0
M  V30 1424 C 127.602 -6.09673 -0.544538 0
M  V30 1425 N 126.739 -6.86517 -1.47101 0
M  V30 1426 H 131.579 -2.91144 0.635542 0
M  V30 1427 H 129.116 -1.4346 0.325206 0
M  V30 1428 H 131.074 -3.82276 -1.67095 0
M  V30 1429 H 129.704 -2.68751 -1.78809 0
M  V30 1430 H 128.756 -3.78615 0.368107 0
M  V30 1431 H 130.068 -4.98102 0.263842 0
M  V30 1432 H 129.222 -5.73948 -1.96643 0
M  V30 1433 H 127.961 -4.47458 -1.9399 0
M  V30 1434 H 126.966 -5.49656 0.126003 0
M  V30 1435 H 128.191 -6.79052 0.080947 0
M  V30 1436 H 126.137 -6.21851 -2.08895 0
M  V30 1437 H 126.054 -7.50281 -0.928137 0
M  V30 1438 H 127.322 -7.50194 -2.11731 0
M  V30 1439 N 131.551 -0.354651 -1.53558 0
M  V30 1440 C 132.797 0.238797 -2.01389 0
M  V30 1441 C 133.13 1.49309 -1.2418 0
M  V30 1442 O 132.405 1.91638 -0.332457 0
M  V30 1443 C 132.688 0.541771 -3.56001 0
M  V30 1444 C 132.541 -0.725388 -4.43912 0
M  V30 1445 C 133.86 1.34685 -4.18984 0
M  V30 1446 H 130.979 0.0853177 -0.732045 0
M  V30 1447 H 133.621 -0.477384 -1.83905 0
M  V30 1448 H 131.771 1.15189 -3.71031 0
M  V30 1449 H 133.443 -1.36313 -4.407 0
M  V30 1450 H 131.686 -1.34801 -4.12324 0
M  V30 1451 H 132.357 -0.468505 -5.50008 0
M  V30 1452 H 134.833 0.830837 -4.07721 0
M  V30 1453 H 133.709 1.52759 -5.27215 0
M  V30 1454 H 133.97 2.35221 -3.74331 0
M  V30 1455 N 133.029 1.57378 -0.0835403 0
M  V30 1456 C 134.277 1.93547 0.581718 0
M  V30 1457 C 134.598 0.96524 1.69435 0
M  V30 1458 O 133.868 0.0153369 1.95894 0
M  V30 1459 H 132.448 0.714521 0.217874 0
M  V30 1460 H 135.11 1.94366 -0.144158 0
M  V30 1461 H 134.206 2.95665 0.999423 0
M  V30 1462 N 134.507 -0.190092 1.56449 0
M  V30 1463 C 135.755 -0.907908 1.80559 0
M  V30 1464 C 136.076 -1.83583 0.657438 0
M  V30 1465 O 135.346 -1.93203 -0.323924 0
M  V30 1466 H 133.926 -0.338247 0.666032 0
M  V30 1467 H 136.588 -0.194403 1.93928 0
M  V30 1468 H 135.684 -1.49604 2.73907 0
M  V30 1469 N 135.985 -1.50799 -0.457987 0
M  V30 1470 C 136.918 -1.65273 -1.57353 0
M  V30 1471 C 137.896 -0.500578 -1.54703 0
M  V30 1472 O 139.08 -0.721781 -1.74134 0
M  V30 1473 C 136.207 -1.64737 -2.95938 0
M  V30 1474 C 135.253 -2.8567 -3.16693 0
M  V30 1475 S 136.086 -4.46791 -2.95191 0
M  V30 1476 C 137.242 -4.48968 -4.36095 0
M  V30 1477 H 137.475 -2.59633 -1.44838 0
M  V30 1478 H 135.008 -1.40225 -0.64625 0
M  V30 1479 H 136.966 -1.65112 -3.7583 0
M  V30 1480 H 135.627 -0.715899 -3.05833 0
M  V30 1481 H 134.82 -2.81637 -4.17967 0
M  V30 1482 H 134.422 -2.8293 -2.44594 0
M  V30 1483 H 136.714 -4.23337 -5.28954 0
M  V30 1484 H 137.657 -5.50664 -4.45168 0
M  V30 1485 H 138.065 -3.78522 -4.18786 0
M  V30 1486 N 137.463 0.71206 -1.40597 0
M  V30 1487 C 138.426 1.80785 -1.40888 0
M  V30 1488 C 139.426 1.57937 -0.302103 0
M  V30 1489 O 140.616 1.64913 -0.561182 0
M  V30 1490 C 137.748 3.18927 -1.20409 0
M  V30 1491 H 138.941 1.81924 -2.38419 0
M  V30 1492 H 136.494 0.91805 -1.26497 0
M  V30 1493 H 137.229 3.23436 -0.236522 0
M  V30 1494 H 137.014 3.36911 -2.00582 0
M  V30 1495 H 138.504 3.98949 -1.23408 0
M  V30 1496 N 138.941 1.26152 0.944643 0
M  V30 1497 C 139.904 1.07474 2.0244 0
M  V30 1498 C 140.904 0.0242064 1.60782 0
M  V30 1499 O 142.094 0.267302 1.72137 0
M  V30 1500 C 139.226 0.633956 3.34953 0
M  V30 1501 H 140.419 2.03336 2.20442 0
M  V30 1502 H 137.972 1.087 1.12312 0
M  V30 1503 H 138.707 -0.326811 3.22649 0
M  V30 1504 H 138.492 1.39247 3.66542 0
M  V30 1505 H 139.982 0.52501 4.14287 0
M  V30 1506 N 140.419 -1.14872 1.07899 0
M  V30 1507 C 141.351 -2.19425 0.662231 0
M  V30 1508 C 142.364 -1.60231 -0.288079 0
M  V30 1509 O 143.553 -1.78336 -0.076534 0
M  V30 1510 C 140.653 -3.38867 -0.0470695 0
M  V30 1511 C 139.826 -4.27597 0.920831 0
M  V30 1512 C 138.885 -5.25616 0.247805 0
M  V30 1513 O 137.911 -5.62189 0.890599 0
M  V30 1514 N 139.113 -5.71746 -1.00435 0
M  V30 1515 H 141.878 -2.55797 1.56166 0
M  V30 1516 H 139.439 -1.30042 0.964404 0
M  V30 1517 H 141.431 -4.01497 -0.50813 0
M  V30 1518 H 140.001 -3.00864 -0.848523 0
M  V30 1519 H 139.221 -3.61982 1.56087 0
M  V30 1520 H 140.509 -4.83748 1.57688 0
M  V30 1521 H 139.907 -5.44153 -1.54642 0
M  V30 1522 H 138.464 -6.36389 -1.40899 0
M  V30 1523 N 141.898 -0.863906 -1.31812 0
M  V30 1524 C 143.123 -0.48527 -2.01643 0
M  V30 1525 C 143.548 0.913058 -1.64453 0
M  V30 1526 O 142.906 1.6014 -0.849985 0
M  V30 1527 C 142.954 -0.642625 -3.54828 0
M  V30 1528 O 142.058 0.320659 -4.11151 0
M  V30 1529 H 141.399 -0.193793 -0.635091 0
M  V30 1530 H 143.929 -1.16565 -1.68148 0
M  V30 1531 H 143.939 -0.533628 -4.04495 0
M  V30 1532 H 142.614 -1.66227 -3.81237 0
M  V30 1533 H 141.191 0.167126 -3.72525 0
M  V30 1534 N 143.376 1.44774 -0.622745 0
M  V30 1535 C 144.309 2.27792 0.136329 0
M  V30 1536 C 145.287 1.38041 0.859264 0
M  V30 1537 O 146.471 1.67478 0.86506 0
M  V30 1538 C 143.598 3.16776 1.19878 0
M  V30 1539 C 142.644 4.22575 0.57731 0
M  V30 1540 S 143.477 5.31825 -0.626294 0
M  V30 1541 C 144.633 6.24377 0.436378 0
M  V30 1542 H 144.866 2.91824 -0.567967 0
M  V30 1543 H 142.399 1.48838 -0.410677 0
M  V30 1544 H 144.357 3.68596 1.80686 0
M  V30 1545 H 143.018 2.5198 1.87523 0
M  V30 1546 H 142.211 4.84818 1.37721 0
M  V30 1547 H 141.813 3.73974 0.0440439 0
M  V30 1548 H 144.105 6.64689 1.31128 0
M  V30 1549 H 145.048 7.07941 -0.150271 0
M  V30 1550 H 145.456 5.59381 0.758513 0
M  V30 1551 N 144.854 0.36279 1.53368 0
M  V30 1552 C 146.103 -0.22888 2.00397 0
M  V30 1553 C 146.416 -1.50096 1.25421 0
M  V30 1554 O 147.622 -2.17106 1.63025 0
M  V30 1555 C 146.078 -0.458417 3.56969 0
M  V30 1556 C 145.686 0.798877 4.4082 0
M  V30 1557 C 147.43 -1.00789 4.12361 0
M  V30 1558 C 145.337 0.539078 5.88938 0
M  V30 1559 H 144.267 -0.089305 0.748693 0
M  V30 1560 H 146.918 0.481099 1.77081 0
M  V30 1561 H 145.3 -1.22959 3.76427 0
M  V30 1562 H 146.474 1.57262 4.33134 0
M  V30 1563 H 144.789 1.27137 3.96516 0
M  V30 1564 H 147.386 -1.21754 5.20653 0
M  V30 1565 H 147.729 -1.9692 3.66781 0
M  V30 1566 H 148.262 -0.296961 3.9669 0
M  V30 1567 H 145.001 1.47064 6.3879 0
M  V30 1568 H 144.521 -0.196222 5.99479 0
M  V30 1569 H 146.2 0.163542 6.46793 0
M  V30 1570 N 146.332 -1.57332 0.0918853 0
M  V30 1571 C 147.557 -1.98995 -0.584442 0
M  V30 1572 C 147.982 -0.970528 -1.61128 0
M  V30 1573 O 147.34 0.0613904 -1.81196 0
M  V30 1574 C 147.388 -3.39636 -1.21161 0
M  V30 1575 O 146.492 -3.40447 -2.32744 0
M  V30 1576 H 145.833 -0.647165 -0.148572 0
M  V30 1577 H 148.363 -2.03873 0.172347 0
M  V30 1578 H 148.373 -3.7726 -1.55367 0
M  V30 1579 H 147.048 -4.13356 -0.459313 0
M  V30 1580 H 145.625 -3.14614 -2.0018 0
M  V30 1581 N 147.81 0.181792 -1.56548 0
M  V30 1582 C 148.74 1.22765 -1.98623 0
M  V30 1583 C 149.721 1.46747 -0.860189 0
M  V30 1584 O 150.906 1.58259 -1.12551 0
M  V30 1585 C 148.036 2.56894 -2.33715 0
M  V30 1586 C 146.99 2.475 -3.49182 0
M  V30 1587 C 146.316 3.86023 -3.69986 0
M  V30 1588 C 147.616 1.98866 -4.82959 0
M  V30 1589 H 149.31 0.877942 -2.86239 0
M  V30 1590 H 146.856 0.42088 -1.37712 0
M  V30 1591 H 148.809 3.30253 -2.61746 0
M  V30 1592 H 147.533 2.93632 -1.42997 0
M  V30 1593 H 146.192 1.76596 -3.21262 0
M  V30 1594 H 145.84 4.20136 -2.76576 0
M  V30 1595 H 145.54 3.80609 -4.47672 0
M  V30 1596 H 147.064 4.60984 -4.00407 0
M  V30 1597 H 148.478 2.61992 -5.09934 0
M  V30 1598 H 146.875 2.04424 -5.64208 0
M  V30 1599 H 147.945 0.942465 -4.75653 0
M  V30 1600 N 149.288 1.51039 0.449983 0
M  V30 1601 C 150.534 1.64287 1.19923 0
M  V30 1602 C 150.889 0.348701 1.89214 0
M  V30 1603 O 150.182 -0.654751 1.80065 0
M  V30 1604 C 150.376 2.77556 2.25161 0
M  V30 1605 C 150.205 4.17862 1.66198 0
M  V30 1606 C 148.975 4.83976 1.45243 0
M  V30 1607 C 151.173 5.01388 1.14519 0
M  V30 1608 N 149.155 6.08433 0.817437 0
M  V30 1609 C 150.526 6.16743 0.634705 0
M  V30 1610 C 152.581 4.87008 1.03574 0
M  V30 1611 C 151.284 7.19295 0.0255452 0
M  V30 1612 C 153.31 5.89757 0.440489 0
M  V30 1613 C 152.672 7.04375 -0.0595112 0
M  V30 1614 H 148.771 0.655161 0.426952 0
M  V30 1615 H 151.355 1.88228 0.49781 0
M  V30 1616 H 149.526 2.553 2.92706 0
M  V30 1617 H 151.258 2.80049 2.92155 0
M  V30 1618 H 148.013 4.41627 1.71063 0
M  V30 1619 H 148.437 6.75017 0.517747 0
M  V30 1620 H 153.079 3.9866 1.4082 0
M  V30 1621 H 150.797 8.07302 -0.359071 0
M  V30 1622 H 154.383 5.80698 0.35788 0
M  V30 1623 H 153.263 7.82521 -0.512882 0
M  V30 1624 N 150.766 -0.704594 1.40972 0
M  V30 1625 C 151.696 -1.83124 1.44872 0
M  V30 1626 C 152.677 -1.67281 0.30838 0
M  V30 1627 O 153.862 -1.87149 0.518556 0
M  V30 1628 C 150.992 -3.21181 1.32136 0
M  V30 1629 C 149.946 -3.51714 2.43888 0
M  V30 1630 C 149.272 -4.89032 2.16222 0
M  V30 1631 C 150.572 -3.516 3.86232 0
M  V30 1632 H 152.266 -1.80117 2.39161 0
M  V30 1633 H 149.812 -0.865145 1.15114 0
M  V30 1634 H 151.765 -3.99702 1.33479 0
M  V30 1635 H 150.489 -3.24791 0.343279 0
M  V30 1636 H 149.148 -2.75539 2.41813 0
M  V30 1637 H 148.796 -4.89256 1.16778 0
M  V30 1638 H 148.496 -5.10426 2.911 0
M  V30 1639 H 150.02 -5.69873 2.19265 0
M  V30 1640 H 151.434 -4.2014 3.9007 0
M  V30 1641 H 149.831 -3.84523 4.60719 0
M  V30 1642 H 150.901 -2.50757 4.15029 0
M  V30 1643 N 152.244 -1.26651 -0.937939 0
M  V30 1644 C 153.474 -1.15006 -1.71631 0
M  V30 1645 C 153.882 0.297026 -1.86854 0
M  V30 1646 O 153.225 1.21493 -1.37786 0
M  V30 1647 C 153.287 -1.74984 -3.14039 0
M  V30 1648 C 152.951 -3.24103 -3.2219 0
M  V30 1649 C 153.948 -4.20877 -3.05219 0
M  V30 1650 C 151.633 -3.64625 -3.45476 0
M  V30 1651 C 153.627 -5.56151 -3.11408 0
M  V30 1652 C 151.314 -5.00032 -3.513 0
M  V30 1653 C 152.312 -5.95604 -3.34282 0
M  V30 1654 O 152 -7.28545 -3.3982 0
M  V30 1655 H 151.732 -0.401183 -0.544085 0
M  V30 1656 H 154.286 -1.67832 -1.18413 0
M  V30 1657 H 152.516 -1.16624 -3.68695 0
M  V30 1658 H 154.205 -1.58199 -3.73802 0
M  V30 1659 H 154.971 -3.90908 -2.87081 0
M  V30 1660 H 150.85 -2.90718 -3.57777 0
M  V30 1661 H 154.394 -6.30727 -2.98043 0
M  V30 1662 H 150.291 -5.29659 -3.68959 0
M  V30 1663 H 151.059 -7.3686 -3.56343 0
M  V30 1664 N 153.722 1.14298 -1.08507 0
M  V30 1665 C 154.97 1.84993 -0.813763 0
M  V30 1666 C 155.291 1.83405 0.662393 0
M  V30 1667 O 154.561 1.28319 1.48024 0
M  V30 1668 H 153.141 0.684966 -0.298045 0
M  V30 1669 H 155.803 1.385 -1.37126 0
M  V30 1670 H 154.899 2.89788 -1.15884 0
M  V30 1671 N 155.201 0.870884 1.31352 0
M  V30 1672 C 156.164 0.332243 2.26779 0
M  V30 1673 C 157.164 -0.517302 1.52252 0
M  V30 1674 O 158.354 -0.326477 1.71113 0
M  V30 1675 C 155.486 -0.528066 3.36785 0
M  V30 1676 H 156.679 1.17469 2.75937 0
M  V30 1677 H 154.232 0.64655 1.423 0
M  V30 1678 H 154.967 -1.39167 2.92922 0
M  V30 1679 H 154.752 0.0802582 3.92018 0
M  V30 1680 H 156.242 -0.897179 4.07849 0
M  V30 1681 N 156.679 -1.44442 0.630414 0
M  V30 1682 C 157.629 -2.27794 -0.0968103 0
M  V30 1683 C 158.613 -1.38624 -0.816834 0
M  V30 1684 O 159.805 -1.62438 -0.70306 0
M  V30 1685 C 156.934 -3.25929 -1.07819 0
M  V30 1686 C 156.02 -4.22588 -0.357826 0
M  V30 1687 N 156.411 -5.0207 0.613169 0
M  V30 1688 C 154.709 -4.41914 -0.602365 0
M  V30 1689 C 155.41 -5.72351 1.03871 0
M  V30 1690 N 154.386 -5.42287 0.377642 0
M  V30 1691 H 158.188 -2.86653 0.648621 0
M  V30 1692 H 155.702 -1.55871 0.455862 0
M  V30 1693 H 157.699 -3.84399 -1.61378 0
M  V30 1694 H 156.359 -2.68631 -1.82393 0
M  V30 1695 H 157.37 -5.08331 0.990947 0
M  V30 1696 H 154.047 -3.95714 -1.33103 0
M  V30 1697 H 155.437 -6.4619 1.84086 0
M  V30 1698 N 158.157 -0.370918 -1.53173 0
M  V30 1699 C 159.382 0.220293 -2.06227 0
M  V30 1700 C 159.807 1.41243 -1.24225 0
M  V30 1701 O 159.165 1.79387 -0.262645 0
M  V30 1702 C 159.213 0.586663 -3.55796 0
M  V30 1703 O 158.317 1.68317 -3.76488 0
M  V30 1704 H 157.658 0.0308099 -0.663285 0
M  V30 1705 H 160.188 -0.533068 -1.97534 0
M  V30 1706 H 160.198 0.85617 -3.98916 0
M  V30 1707 H 158.873 -0.285013 -4.14922 0
M  V30 1708 H 157.45 1.40881 -3.45264 0
M  V30 1709 N 159.635 1.57281 -0.100228 0
M  V30 1710 C 160.545 2.17833 0.870965 0
M  V30 1711 C 161.561 1.14921 1.30649 0
M  V30 1712 O 162.737 1.47313 1.37335 0
M  V30 1713 C 159.802 2.75085 2.1102 0
M  V30 1714 C 158.863 3.9297 1.72838 0
M  V30 1715 C 158.096 4.47482 2.90854 0
M  V30 1716 O 158.319 4.00922 4.05731 0
M  V30 1717 O 157.253 5.38433 2.69023 0
M  V30 1718 H 161.079 3.0124 0.38575 0
M  V30 1719 H 158.664 1.48881 0.124397 0
M  V30 1720 H 160.546 3.11656 2.83634 0
M  V30 1721 H 159.221 1.94721 2.58584 0
M  V30 1722 H 158.128 3.61201 0.973883 0
M  V30 1723 H 159.461 4.74713 1.30033 0
M  V30 1724 N 161.113 -0.173488 1.56642 0
M  V30 1725 C 162.338 -0.910149 1.86363 0
M  V30 1726 C 162.763 -1.75132 0.686318 0
M  V30 1727 O 162.121 -1.77595 -0.364643 0
M  V30 1728 C 162.169 -1.76447 3.14482 0
M  V30 1729 O 161.273 -2.86584 2.96553 0
M  V30 1730 H 160.614 -0.255086 0.613047 0
M  V30 1731 H 163.144 -0.172283 2.03873 0
M  V30 1732 H 163.154 -2.16483 3.45831 0
M  V30 1733 H 161.829 -1.14658 3.99783 0
M  V30 1734 H 160.406 -2.50146 2.76553 0
M  V30 1735 N 162.591 -1.51276 -0.441967 0
M  V30 1736 C 163.539 -1.72823 -1.55676 0
M  V30 1737 C 164.533 -0.59445 -1.58627 0
M  V30 1738 O 165.739 -0.775715 -1.62427 0
M  V30 1739 H 162.114 -0.545983 -0.517113 0
M  V30 1740 H 164.085 -2.6628 -1.34675 0
M  V30 1741 C 162.834 -1.86619 -2.93375 0
M  V30 1742 H 162.157 -2.73264 -2.91834 0
M  V30 1743 H 163.597 -2.05709 -3.70756 0
M  V30 1744 C 162.056 -0.624842 -3.31055 0
M  V30 1745 O 162.586 0.222636 -4.01083 0
M  V30 1746 N 160.792 -0.470288 -2.86769 0
M  V30 1747 H 160.339 -1.161 -2.29953 0
M  V30 1748 H 160.297 0.359051 -3.12343 0
M  V30 1749 N 164.069 0.697108 -1.41344 0
M  V30 1750 C 165.485 1.00751 -1.2378 0
M  V30 1751 C 165.685 2.01105 -0.126066 0
M  V30 1752 O 164.741 2.47295 0.51004 0
M  V30 1753 C 166.054 1.53359 -2.58653 0
M  V30 1754 C 167.602 1.6525 -2.65822 0
M  V30 1755 C 168.077 2.2126 -4.01009 0
M  V30 1756 N 169.568 2.28622 -4.02847 0
M  V30 1757 C 170.303 2.72984 -5.04249 0
M  V30 1758 N 169.799 3.16962 -6.16041 0
M  V30 1759 N 171.592 2.72534 -4.91611 0
M  V30 1760 H 163.743 0.0322662 -2.12375 0
M  V30 1761 H 166.006 0.0768853 -0.944877 0
M  V30 1762 H 165.712 0.870773 -3.4075 0
M  V30 1763 H 165.586 2.51597 -2.81032 0
M  V30 1764 H 167.973 2.30644 -1.84086 0
M  V30 1765 H 168.054 0.655614 -2.47256 0
M  V30 1766 H 167.698 1.56482 -4.83193 0
M  V30 1767 H 167.628 3.21698 -4.16915 0
M  V30 1768 H 170.119 1.97585 -3.22131 0
M  V30 1769 H 170.432 3.49434 -6.89287 0
M  V30 1770 H 168.777 3.14875 -6.1958 0
M  V30 1771 H 171.968 2.37525 -4.0336 0
M  V30 1772 H 172.141 3.06789 -5.70775 0
M  V30 1773 N 165.547 1.27147 0.931209 0
M  V30 1774 C 166.772 1.16191 1.71797 0
M  V30 1775 C 167.197 -0.278004 1.86034 0
M  V30 1776 O 166.555 -1.20137 1.35782 0
M  V30 1777 C 166.603 1.84673 3.09723 0
M  V30 1778 O 165.707 1.14231 3.96264 0
M  V30 1779 H 165.048 0.404303 0.526721 0
M  V30 1780 H 167.578 1.68152 1.1656 0
M  V30 1781 H 167.588 1.91893 3.60057 0
M  V30 1782 H 166.263 2.89421 2.98677 0
M  V30 1783 H 164.84 1.15056 3.54706 0
M  V30 1784 N 167.025 -1.13721 1.09112 0
M  V30 1785 C 168.441 -1.36914 0.820174 0
M  V30 1786 C 168.641 -1.93356 -0.567079 0
M  V30 1787 O 167.697 -2.15093 -1.32255 0
M  V30 1788 C 169.01 -2.3235 1.90877 0
M  V30 1789 C 170.558 -2.45973 1.93562 0
M  V30 1790 C 171.033 -3.44714 3.01556 0
M  V30 1791 N 172.524 -3.52263 3.00775 0
M  V30 1792 C 173.259 -4.28536 3.80978 0
M  V30 1793 N 172.755 -5.07991 4.71081 0
M  V30 1794 N 174.548 -4.23804 3.69251 0
M  V30 1795 H 166.699 -0.754348 1.98553 0
M  V30 1796 H 168.962 -0.3944 0.862063 0
M  V30 1797 H 168.668 -1.98027 2.90651 0
M  V30 1798 H 168.542 -3.32332 1.78424 0
M  V30 1799 H 170.929 -2.79584 0.944286 0
M  V30 1800 H 171.01 -1.45926 2.10093 0
M  V30 1801 H 170.654 -3.11835 4.00901 0
M  V30 1802 H 170.584 -4.44558 2.82269 0
M  V30 1803 H 173.075 -2.95567 2.35475 0
M  V30 1804 H 173.388 -5.63487 5.28869 0
M  V30 1805 H 171.733 -5.07235 4.75119 0
M  V30 1806 H 174.924 -3.60806 2.98222 0
M  V30 1807 H 175.097 -4.82995 4.31995 0
M  V30 1808 N 168.503 -0.877838 -1.30888 0
M  V30 1809 C 169.919 -0.570844 -1.49042 0
M  V30 1810 C 170.119 0.893159 -1.80624 0
M  V30 1811 O 169.175 1.67485 -1.88958 0
M  V30 1812 C 170.488 -1.47784 -2.61878 0
M  V30 1813 C 172.036 -1.48071 -2.75761 0
M  V30 1814 C 172.511 -2.37347 -3.91702 0
M  V30 1815 N 174.002 -2.35271 -3.99001 0
M  V30 1816 C 174.737 -3.01063 -4.88004 0
M  V30 1817 N 174.233 -3.76055 -5.81854 0
M  V30 1818 N 176.026 -2.90332 -4.81315 0
M  V30 1819 H 168.177 -1.82502 -1.0866 0
M  V30 1820 H 170.44 -0.780797 -0.537644 0
M  V30 1821 H 170.146 -2.51993 -2.45341 0
M  V30 1822 H 170.02 -1.18215 -3.58197 0
M  V30 1823 H 172.407 -0.446166 -2.91708 0
M  V30 1824 H 172.488 -1.81668 -1.80085 0
M  V30 1825 H 172.132 -3.40883 -3.76512 0
M  V30 1826 H 172.062 -2.01071 -4.86701 0
M  V30 1827 H 174.553 -1.80768 -3.3186 0
M  V30 1828 H 174.866 -4.23366 -6.46514 0
M  V30 1829 H 173.211 -3.80163 -5.81808 0
M  V30 1830 H 176.402 -2.31278 -4.06974 0
M  V30 1831 H 176.575 -3.41885 -5.50471 0
M  V30 1832 N 169.982 1.44106 -0.638065 0
M  V30 1833 C 171.222 2.03858 -0.148733 0
M  V30 1834 C 171.586 1.49153 1.20903 0
M  V30 1835 O 172.787 2.00452 1.79088 0
M  V30 1836 C 171.058 3.57117 -0.142314 0
M  V30 1837 S 172.617 4.37897 0.281385 0
M  V30 1838 H 169.435 0.708069 -0.0644912 0
M  V30 1839 H 172.037 1.7639 -0.843009 0
M  V30 1840 H 170.741 3.94436 -1.13349 0
M  V30 1841 H 170.272 3.89205 0.572988 0
M  V30 1842 H 172.287 4.72218 1.52395 0
M  V30 1843 N 171.46 0.379036 1.52974 0
M  V30 1844 C 172.709 -0.207612 2.00629 0
M  V30 1845 C 173.022 -1.48758 1.27006 0
M  V30 1846 O 174.228 -2.15365 1.65318 0
M  V30 1847 C 172.684 -0.42053 3.57435 0
M  V30 1848 C 172.292 0.845587 4.39948 0
M  V30 1849 C 174.036 -0.964102 4.13407 0
M  V30 1850 C 171.943 0.601513 5.88333 0
M  V30 1851 H 170.873 -0.0813591 0.749598 0
M  V30 1852 H 173.524 0.499853 1.76561 0
M  V30 1853 H 171.906 -1.18959 3.7771 0
M  V30 1854 H 173.08 1.61848 4.31442 0
M  V30 1855 H 171.395 1.31336 3.95145 0
M  V30 1856 H 173.992 -1.16225 5.21916 0
M  V30 1857 H 174.335 -1.93019 3.68849 0
M  V30 1858 H 174.868 -0.25487 3.96983 0
M  V30 1859 H 171.607 1.53831 6.37194 0
M  V30 1860 H 171.127 -0.132628 5.99653 0
M  V30 1861 H 172.806 0.232134 6.46583 0
M  V30 1862 N 172.938 -1.57226 0.108567 0
M  V30 1863 C 174.166 -1.99179 -0.559954 0
M  V30 1864 C 174.581 -0.988022 -1.60884 0
M  V30 1865 O 173.938 0.0205512 -1.82488 0
M  V30 1866 C 173.989 -3.41159 -1.19552 0
M  V30 1867 O 173.71 -4.37694 -0.188577 0
M  V30 1868 C 175.211 -3.98188 -1.94837 0
M  V30 1869 H 172.431 -0.654228 -0.149088 0
M  V30 1870 H 174.975 -2.03598 0.19183 0
M  V30 1871 H 173.13 -3.37711 -1.89815 0
M  V30 1872 H 173.544 -5.20469 -0.649014 0
M  V30 1873 H 175.018 -4.99644 -2.34648 0
M  V30 1874 H 175.495 -3.3675 -2.81951 0
M  V30 1875 H 176.101 -4.0515 -1.2936 0
M  V30 1876 N 174.416 0.165178 -1.56732 0
M  V30 1877 C 175.693 0.908443 -1.73224 0
M  V30 1878 C 176.073 2.0013 -0.67165 0
M  V30 1879 O 175.421 2.26353 0.31253 0
M  V30 1880 C 175.631 1.46756 -3.16644 0
M  V30 1881 C 176.979 1.93809 -3.77787 0
M  V30 1882 O 178.003 1.56537 -3.1996 0
M  V30 1883 O 176.862 2.62486 -4.79336 0
M  V30 1884 H 173.956 0.428025 -0.707618 0
M  V30 1885 H 176.502 0.152526 -1.69013 0
M  V30 1886 H 175.274 0.68129 -3.85323 0
M  V30 1887 H 174.897 2.28749 -3.25207 0
M  V30 1888 N 175.894 1.51508 0.433938 0
M  V30 1889 C 176.824 1.76016 1.53429 0
M  V30 1890 C 177.805 0.610112 1.58782 0
M  V30 1891 O 178.99 0.853177 1.74455 0
M  V30 1892 C 176.12 1.88831 2.9148 0
M  V30 1893 C 175.074 3.04288 3.00987 0
M  V30 1894 C 174.4 3.0229 4.4105 0
M  V30 1895 C 175.7 4.44193 2.74754 0
M  V30 1896 H 177.394 2.68152 1.33171 0
M  V30 1897 H 174.94 1.29035 0.639214 0
M  V30 1898 H 176.893 2.04559 3.6842 0
M  V30 1899 H 175.617 0.933455 3.12976 0
M  V30 1900 H 174.276 2.8827 2.26486 0
M  V30 1901 H 173.924 2.04576 4.59519 0
M  V30 1902 H 173.624 3.79822 4.4834 0
M  V30 1903 H 175.148 3.20116 5.1996 0
M  V30 1904 H 176.562 4.60544 3.41426 0
M  V30 1905 H 174.959 5.23457 2.9345 0
M  V30 1906 H 176.029 4.53996 1.70339 0
M  V30 1907 N 177.372 -0.689602 1.41712 0
M  V30 1908 C 178.335 -1.78521 1.43746 0
M  V30 1909 C 179.335 -1.57436 0.327191 0
M  V30 1910 O 180.525 -1.64 0.587348 0
M  V30 1911 C 177.657 -3.16971 1.25467 0
M  V30 1912 H 178.85 -1.78108 2.41283 0
M  V30 1913 H 176.403 -0.89781 1.27942 0
M  V30 1914 H 177.138 -3.23019 0.287948 0
M  V30 1915 H 176.923 -3.33678 2.05917 0
M  V30 1916 H 178.413 -3.96935 1.2974 0
M  V30 1917 N 178.85 -1.27639 -0.924453 0
M  V30 1918 C 179.8 -1.07295 -2.01176 0
M  V30 1919 C 180.784 5.77352e-05 -1.609 0
M  V30 1920 O 181.976 -0.218855 -1.75642 0
M  V30 1921 C 179.105 -0.725592 -3.35544 0
M  V30 1922 C 178.191 -1.83691 -3.82254 0
M  V30 1923 N 178.582 -3.07697 -4.01443 0
M  V30 1924 C 176.88 -1.72433 -4.11319 0
M  V30 1925 C 177.581 -3.80037 -4.40394 0
M  V30 1926 N 176.557 -3.0782 -4.48049 0
M  V30 1927 H 180.359 -2.01399 -2.14046 0
M  V30 1928 H 177.873 -1.18401 -1.11153 0
M  V30 1929 H 179.87 -0.560959 -4.13109 0
M  V30 1930 H 178.53 0.207782 -3.24034 0
M  V30 1931 H 179.541 -3.43424 -3.8766 0
M  V30 1932 H 176.218 -0.862005 -4.08504 0
M  V30 1933 H 177.608 -4.86632 -4.63291 0
M  V30 1934 N 180.328 1.1314 -1.09713 0
M  V30 1935 C 181.575 1.84484 -0.834987 0
M  V30 1936 C 181.903 1.83689 0.639418 0
M  V30 1937 O 181.158 1.2724 1.4869 0
M  V30 1938 C 181.457 3.32167 -1.3191 0
M  V30 1939 C 181.123 3.53139 -2.80363 0
M  V30 1940 C 179.785 3.58571 -3.20905 0
M  V30 1941 C 182.137 3.60866 -3.76065 0
M  V30 1942 C 179.465 3.69267 -4.55916 0
M  V30 1943 C 181.817 3.73089 -5.10869 0
M  V30 1944 C 180.481 3.76775 -5.50996 0
M  V30 1945 H 179.751 0.675073 -0.305544 0
M  V30 1946 H 182.398 1.33554 -1.37243 0
M  V30 1947 H 180.703 3.85469 -0.701517 0
M  V30 1948 H 182.4 3.85821 -1.09284 0
M  V30 1949 H 178.99 3.49569 -2.47991 0
M  V30 1950 H 183.174 3.55946 -3.45855 0
M  V30 1951 H 178.43 3.70388 -4.86438 0
M  V30 1952 H 182.604 3.78011 -5.84877 0
M  V30 1953 H 180.231 3.84815 -6.55608 0
M  V30 1954 N 181.806 0.884767 1.30421 0
M  V30 1955 C 183.036 0.517293 2.00019 0
M  V30 1956 C 183.444 -0.898632 1.66497 0
M  V30 1957 O 182.787 -1.60245 0.898181 0
M  V30 1958 C 182.849 0.612025 3.54252 0
M  V30 1959 C 182.513 1.99222 4.1129 0
M  V30 1960 C 183.51 2.9616 4.273 0
M  V30 1961 C 181.195 2.29755 4.46674 0
M  V30 1962 C 183.189 4.21764 4.77906 0
M  V30 1963 C 180.876 3.55606 4.96979 0
M  V30 1964 C 181.874 4.51425 5.12547 0
M  V30 1965 O 181.562 5.75043 5.61766 0
M  V30 1966 H 181.294 0.198529 0.64619 0
M  V30 1967 H 183.848 1.1919 1.67281 0
M  V30 1968 H 182.078 -0.119561 3.86515 0
M  V30 1969 H 183.767 0.255859 4.05093 0
M  V30 1970 H 184.533 2.73882 4.00267 0
M  V30 1971 H 180.412 1.55942 4.33824 0
M  V30 1972 H 183.956 4.96561 4.89972 0
M  V30 1973 H 179.853 3.7772 5.23448 0
M  V30 1974 H 180.621 5.77422 5.80109 0
M  V30 1975 N 183.284 -1.43765 0.645699 0
M  V30 1976 C 184.509 -2.06767 0.161883 0
M  V30 1977 C 184.934 -1.48034 -1.16049 0
M  V30 1978 O 184.292 -0.587369 -1.71522 0
M  V30 1979 C 184.34 -3.60519 0.0762003 0
M  V30 1980 O 183.444 -4.00982 -0.963721 0
M  V30 1981 H 182.785 -0.657675 0.091429 0
M  V30 1982 H 185.315 -1.84397 0.886499 0
M  V30 1983 H 185.325 -4.07853 -0.109604 0
M  V30 1984 H 184 -4.02646 1.04157 0
M  V30 1985 H 182.577 -3.65253 -0.751312 0
M  V30 1986 N 184.763 -0.387143 -1.52771 0
M  V30 1987 C 185.71 0.449048 -2.26389 0
M  V30 1988 C 186.68 1.05961 -1.27912 0
M  V30 1989 O 187.865 1.08804 -1.56737 0
M  V30 1990 C 185.005 1.57155 -3.0724 0
M  V30 1991 C 184.118 0.984066 -4.20643 0
M  V30 1992 C 183.253 2.07745 -4.88892 0
M  V30 1993 C 182.292 1.46574 -5.94292 0
M  V30 1994 N 181.429 2.49834 -6.56146 0
M  V30 1995 H 186.269 -0.185205 -2.97424 0
M  V30 1996 H 183.806 -0.103164 -1.46738 0
M  V30 1997 H 185.764 2.23309 -3.52405 0
M  V30 1998 H 184.394 2.17615 -2.38419 0
M  V30 1999 H 183.446 0.212193 -3.79808 0
M  V30 2000 H 184.758 0.497029 -4.96318 0
M  V30 2001 H 183.912 2.81673 -5.3735 0
M  V30 2002 H 182.651 2.59807 -4.12737 0
M  V30 2003 H 181.656 0.711696 -5.45174 0
M  V30 2004 H 182.881 0.953088 -6.72379 0
M  V30 2005 H 180.827 3.0107 -5.82832 0
M  V30 2006 H 180.744 2.05879 -7.27427 0
M  V30 2007 H 182.012 3.23399 -7.09249 0
M  V30 2008 N 186.241 1.57166 -0.116904 0
M  V30 2009 C 187.466 1.999 0.55271 0
M  V30 2010 C 187.891 0.996039 1.59564 0
M  V30 2011 O 187.249 -0.032556 1.81271 0
M  V30 2012 C 187.297 3.4152 1.15742 0
M  V30 2013 O 186.401 3.44106 2.27299 0
M  V30 2014 H 185.742 0.649447 0.138258 0
M  V30 2015 H 188.272 2.03573 -0.204759 0
M  V30 2016 H 188.282 3.79684 1.49346 0
M  V30 2017 H 186.957 4.14034 0.393493 0
M  V30 2018 H 185.534 3.17759 1.9515 0
M  V30 2019 N 187.719 -0.156864 1.56817 0
M  V30 2020 C 188.944 -0.890331 1.87318 0
M  V30 2021 C 189.369 -1.74394 0.704855 0
M  V30 2022 O 188.727 -1.77972 -0.345786 0
M  V30 2023 C 188.775 -1.73102 3.16336 0
M  V30 2024 O 187.879 -2.83422 2.99576 0
M  V30 2025 H 187.22 -0.24857 0.615718 0
M  V30 2026 H 189.75 -0.150649 2.04045 0
M  V30 2027 H 189.76 -2.12803 3.48107 0
M  V30 2028 H 188.435 -1.10412 4.00976 0
M  V30 2029 H 187.012 -2.47199 2.7919 0
M  V30 2030 N 189.197 -1.51736 -0.425897 0
M  V30 2031 C 190.608 -1.5732 -1.00536 0
M  V30 2032 C 190.959 -0.403537 -1.92005 0
M  V30 2033 O 190.084 0.478256 -2.11049 0
M  V30 2034 C 190.679 -2.85119 -1.8301 0
M  V30 2035 C 189.238 -2.93236 -2.35987 0
M  V30 2036 C 188.385 -2.52098 -1.15508 0
M  V30 2037 H 191.336 -1.57348 -0.206739 0
M  V30 2038 H 191.357 -2.69526 -2.68581 0
M  V30 2039 H 190.869 -3.7023 -1.16411 0
M  V30 2040 H 188.97 -2.12581 -3.06007 0
M  V30 2041 H 189.083 -3.9713 -2.68001 0
M  V30 2042 H 187.447 -2.05558 -1.50393 0
M  V30 2043 H 188.23 -3.39565 -0.505014 0
M  V30 2044 N 190.675 0.682077 -1.42076 0
M  V30 2045 C 191.924 1.43786 -1.41451 0
M  V30 2046 C 192.237 1.95574 -0.0317074 0
M  V30 2047 O 193.443 2.71326 0.0971462 0
M  V30 2048 C 191.899 2.60071 -2.48779 0
M  V30 2049 C 191.507 2.15013 -3.93031 0
M  V30 2050 C 193.251 3.37626 -2.57311 0
M  V30 2051 C 191.158 3.28336 -4.91883 0
M  V30 2052 H 190.088 0.540143 -0.526082 0
M  V30 2053 H 192.739 0.739157 -1.67955 0
M  V30 2054 H 191.121 3.32275 -2.15429 0
M  V30 2055 H 192.295 1.5001 -4.35699 0
M  V30 2056 H 190.61 1.50416 -3.88284 0
M  V30 2057 H 193.207 4.22012 -3.28345 0
M  V30 2058 H 193.55 3.83727 -1.61429 0
M  V30 2059 H 194.083 2.72488 -2.89819 0
M  V30 2060 H 190.822 2.87234 -5.89217 0
M  V30 2061 H 190.342 3.92145 -4.53853 0
M  V30 2062 H 192.021 3.93913 -5.13265 0
M  V30 2063 N 192.153 1.28127 0.917671 0
M  V30 2064 C 193.063 1.13556 2.05286 0
M  V30 2065 C 194.079 0.0630914 1.73886 0
M  V30 2066 O 195.255 0.271598 1.9956 0
M  V30 2067 C 192.32 0.794676 3.3747 0
M  V30 2068 C 191.381 1.94909 3.82504 0
M  V30 2069 C 190.614 1.62437 5.0838 0
M  V30 2070 O 190.837 0.536905 5.67867 0
M  V30 2071 O 189.771 2.46677 5.4903 0
M  V30 2072 H 193.597 2.08844 2.20495 0
M  V30 2073 H 191.182 1.07409 1.03845 0
M  V30 2074 H 193.064 0.618344 4.16839 0
M  V30 2075 H 191.739 -0.128581 3.23445 0
M  V30 2076 H 190.646 2.18055 3.03978 0
M  V30 2077 H 191.979 2.85291 4.01086 0
M  V30 2078 N 193.631 -1.12557 1.10312 0
M  V30 2079 C 194.578 -2.18247 0.750781 0
M  V30 2080 C 195.548 -1.63853 -0.272293 0
M  V30 2081 O 196.733 -1.90195 -0.151862 0
M  V30 2082 C 193.873 -3.44591 0.187379 0
M  V30 2083 C 192.986 -4.13046 1.2656 0
M  V30 2084 C 192.121 -5.27034 0.663978 0
M  V30 2085 C 191.16 -5.87353 1.72287 0
M  V30 2086 N 190.297 -6.92757 1.1416 0
M  V30 2087 H 195.137 -2.47732 1.65628 0
M  V30 2088 H 192.674 -1.21629 0.827337 0
M  V30 2089 H 194.632 -4.16904 -0.157148 0
M  V30 2090 H 193.262 -3.15527 -0.681355 0
M  V30 2091 H 192.314 -3.38924 1.72727 0
M  V30 2092 H 193.626 -4.53947 2.06721 0
M  V30 2093 H 192.78 -6.06104 0.268824 0
M  V30 2094 H 191.519 -4.87407 -0.169082 0
M  V30 2095 H 190.524 -5.06971 2.12746 0
M  V30 2096 H 191.749 -6.29051 2.55875 0
M  V30 2097 H 189.695 -6.5517 0.329984 0
M  V30 2098 H 189.612 -7.3225 1.88007 0
M  V30 2099 H 190.88 -7.75658 0.772956 0
M  V30 2100 N 195.109 -0.891671 -1.2995 0
M  V30 2101 C 196.039 -0.379797 -2.30391 0
M  V30 2102 C 197.02 0.540919 -1.6127 0
M  V30 2103 O 198.205 0.453352 -1.88834 0
M  V30 2104 C 195.335 0.400654 -3.44981 0
M  V30 2105 C 194.289 -0.428905 -4.25846 0
M  V30 2106 C 193.615 0.478557 -5.32554 0
M  V30 2107 C 194.915 -1.67458 -4.94727 0
M  V30 2108 H 196.609 -1.21914 -2.73454 0
M  V30 2109 H 194.155 -0.587675 -1.31462 0
M  V30 2110 H 196.108 0.769434 -4.14316 0
M  V30 2111 H 194.832 1.27371 -3.0074 0
M  V30 2112 H 193.491 -0.779911 -3.58208 0
M  V30 2113 H 193.139 1.34951 -4.84559 0
M  V30 2114 H 192.839 -0.0727433 -5.87555 0
M  V30 2115 H 194.363 0.843705 -6.04743 0
M  V30 2116 H 195.777 -1.376 -5.56542 0
M  V30 2117 H 194.174 -2.16659 -5.59624 0
M  V30 2118 H 195.244 -2.41518 -4.20473 0
M  V30 2119 N 196.587 1.43421 -0.653314 0
M  V30 2120 C 197.517 2.33487 0.0246656 0
M  V30 2121 C 198.498 1.49475 0.811863 0
M  V30 2122 O 199.683 1.78139 0.773322 0
M  V30 2123 C 196.813 3.32841 0.99166 0
M  V30 2124 C 195.767 4.26842 0.314568 0
M  V30 2125 C 195.093 5.16236 1.39302 0
M  V30 2126 C 196.393 5.16243 -0.793095 0
M  V30 2127 H 198.087 2.90427 -0.727481 0
M  V30 2128 H 195.633 1.39649 -0.351287 0
M  V30 2129 H 197.586 3.94747 1.47487 0
M  V30 2130 H 196.31 2.74158 1.77497 0
M  V30 2131 H 194.969 3.663 -0.148199 0
M  V30 2132 H 194.617 4.53891 2.16776 0
M  V30 2133 H 194.317 5.79948 0.945223 0
M  V30 2134 H 195.841 5.81015 1.87759 0
M  V30 2135 H 197.255 5.71958 -0.392039 0
M  V30 2136 H 195.652 5.88676 -1.16536 0
M  V30 2137 H 196.722 4.55927 -1.65103 0
M  V30 2138 N 198.065 0.39524 1.52563 0
M  V30 2139 C 199.013 -0.451859 2.28169 0
M  V30 2140 C 200.007 -1.05792 1.32304 0
M  V30 2141 O 201.213 -0.997718 1.49818 0
M  V30 2142 H 197.588 -0.164481 0.733792 0
M  V30 2143 H 199.559 0.207199 2.9768 0
M  V30 2144 C 198.308 -1.56385 3.10546 0
M  V30 2145 H 197.631 -1.10682 3.84174 0
M  V30 2146 H 199.071 -2.13067 3.66577 0
M  V30 2147 C 197.53 -2.52328 2.23231 0
M  V30 2148 O 198.06 -3.5588 1.86312 0
M  V30 2149 N 196.266 -2.22209 1.87274 0
M  V30 2150 H 195.813 -1.38033 2.17496 0
M  V30 2151 H 195.771 -2.86652 1.29143 0
M  V30 2152 N 199.544 -1.57102 0.125237 0
M  V30 2153 C 200.474 -2.18659 -0.819174 0
M  V30 2154 C 201.455 -1.12843 -1.27281 0
M  V30 2155 O 202.64 -1.41104 -1.33429 0
M  V30 2156 C 199.77 -2.79096 -2.06695 0
M  V30 2157 C 198.724 -3.90548 -1.75088 0
M  V30 2158 C 198.05 -4.37821 -3.06948 0
M  V30 2159 C 199.35 -5.12356 -1.01435 0
M  V30 2160 H 201.044 -2.9783 -0.306202 0
M  V30 2161 H 198.59 -1.4326 -0.145839 0
M  V30 2162 H 200.543 -3.2082 -2.73226 0
M  V30 2163 H 199.267 -1.97223 -2.60328 0
M  V30 2164 H 197.926 -3.49409 -1.10944 0
M  V30 2165 H 197.574 -3.52799 -3.58527 0
M  V30 2166 H 197.274 -5.12982 -2.86571 0
M  V30 2167 H 198.798 -4.822 -3.74587 0
M  V30 2168 H 200.212 -5.5106 -1.58132 0
M  V30 2169 H 198.609 -5.9314 -0.911319 0
M  V30 2170 H 199.679 -4.849 -0.00218681 0
M  V30 2171 N 201.022 0.148545 -1.56898 0
M  V30 2172 C 202.25 0.876389 -1.87422 0
M  V30 2173 C 202.665 1.74809 -0.713256 0
M  V30 2174 O 202.022 1.79725 0.317025 0
M  V30 2175 C 202.073 1.73438 -3.17178 0
M  V30 2176 O 201.794 0.897809 -4.28802 0
M  V30 2177 C 203.295 2.56993 -3.61205 0
M  V30 2178 H 200.515 0.253489 -0.621277 0
M  V30 2179 H 203.059 0.141798 -2.04008 0
M  V30 2180 H 201.214 2.42205 -3.0235 0
M  V30 2181 H 201.628 1.48672 -5.02988 0
M  V30 2182 H 203.102 3.12773 -4.54838 0
M  V30 2183 H 203.579 3.32958 -2.86419 0
M  V30 2184 H 204.185 1.9352 -3.78722 0
M  V30 2185 N 202.5 1.5196 0.417844 0
M  V30 2186 C 203.43 1.77634 1.51554 0
M  V30 2187 C 204.411 0.626918 1.58126 0
M  V30 2188 O 205.596 0.871632 1.7354 0
M  V30 2189 C 202.726 1.91911 2.8946 0
M  V30 2190 C 201.68 3.07463 2.97743 0
M  V30 2191 C 201.006 3.06951 4.37819 0
M  V30 2192 C 202.306 4.47082 2.70027 0
M  V30 2193 H 204 2.6955 1.3032 0
M  V30 2194 H 201.546 1.29706 0.625492 0
M  V30 2195 H 203.499 2.08455 3.6623 0
M  V30 2196 H 202.223 0.966598 3.11969 0
M  V30 2197 H 200.882 2.90656 2.23416 0
M  V30 2198 H 200.53 2.09438 4.57323 0
M  V30 2199 H 200.23 3.84556 4.44286 0
M  V30 2200 H 201.754 3.25613 5.16535 0
M  V30 2201 H 203.168 4.6414 3.36522 0
M  V30 2202 H 201.565 5.2654 2.87881 0
M  V30 2203 H 202.635 4.55777 1.65514 0
M  V30 2204 N 203.978 -0.674533 1.42435 0
M  V30 2205 C 205.226 -1.43175 1.42637 0
M  V30 2206 C 205.547 -1.94951 0.0438992 0
M  V30 2207 O 204.817 -1.7308 -0.917607 0
M  V30 2208 H 203.397 -0.531307 0.525092 0
M  V30 2209 H 206.059 -0.797006 1.77859 0
M  V30 2210 H 205.155 -2.28463 2.12629 0
M  V30 2211 N 205.456 -1.28612 -0.910864 0
M  V30 2212 C 206.404 -1.1265 -2.03501 0
M  V30 2213 C 207.398 -0.0450054 -1.6934 0
M  V30 2214 O 208.604 -0.203988 -1.7884 0
M  V30 2215 H 204.979 -0.347639 -0.666822 0
M  V30 2216 H 206.95 -2.07849 -2.14106 0
M  V30 2217 C 205.699 -0.808143 -3.38178 0
M  V30 2218 H 205.022 -1.63231 -3.6496 0
M  V30 2219 H 206.462 -0.736426 -4.17556 0
M  V30 2220 C 204.921 0.488226 -3.33344 0
M  V30 2221 O 205.451 1.51766 -3.71927 0
M  V30 2222 N 203.657 0.490009 -2.86439 0
M  V30 2223 H 203.204 -0.348161 -2.55236 0
M  V30 2224 H 203.162 1.35741 -2.83587 0
M  V30 2225 N 206.934 1.1197 -1.10907 0
M  V30 2226 C 208.35 1.35591 -0.841852 0
M  V30 2227 C 208.55 1.94233 0.536246 0
M  V30 2228 O 207.606 2.1717 1.28816 0
M  V30 2229 C 208.919 2.29284 -1.94549 0
M  V30 2230 C 210.467 2.42862 -1.97451 0
M  V30 2231 C 210.942 3.39873 -3.07002 0
M  V30 2232 N 212.433 3.47433 -3.06341 0
M  V30 2233 C 213.168 4.22421 -3.87748 0
M  V30 2234 N 212.664 5.00432 -4.79103 0
M  V30 2235 N 214.457 4.17876 -3.75946 0
M  V30 2236 H 206.608 0.722664 -1.99728 0
M  V30 2237 H 208.871 0.380635 -0.868229 0
M  V30 2238 H 208.577 1.93378 -2.93765 0
M  V30 2239 H 208.451 3.29452 -1.83688 0
M  V30 2240 H 210.838 2.78046 -0.988645 0
M  V30 2241 H 210.919 1.42566 -2.12388 0
M  V30 2242 H 210.563 3.05417 -4.05811 0
M  V30 2243 H 210.493 4.40011 -2.89306 0
M  V30 2244 H 212.984 2.91784 -2.40147 0
M  V30 2245 H 213.297 5.55002 -5.37766 0
M  V30 2246 H 211.642 4.99612 -4.83128 0
M  V30 2247 H 214.833 3.56016 -3.03924 0
M  V30 2248 H 215.006 4.76061 -4.39624 0
M  V30 2249 N 208.412 0.89855 1.29475 0
M  V30 2250 C 209.66 0.522847 1.9522 0
M  V30 2251 C 209.981 -0.93371 1.71192 0
M  V30 2252 O 209.251 -1.65823 1.04305 0
M  V30 2253 H 207.831 0.190366 0.722336 0
M  V30 2254 H 210.493 1.14459 1.5775 0
M  V30 2255 H 209.589 0.704476 3.04045 0
M  V30 2256 N 209.89 -1.43072 0.660911 0
M  V30 2257 C 210.82 -2.33497 -0.0122829 0
M  V30 2258 C 211.801 -1.49903 -0.803925 0
M  V30 2259 O 212.986 -1.78546 -0.763864 0
M  V30 2260 C 210.116 -3.33363 -0.973994 0
M  V30 2261 C 209.07 -4.27003 -0.291928 0
M  V30 2262 C 208.396 -5.16967 -1.36562 0
M  V30 2263 C 209.696 -5.15816 0.820462 0
M  V30 2264 H 211.39 -2.90038 0.742873 0
M  V30 2265 H 208.936 -1.39461 0.358688 0
M  V30 2266 H 210.889 -3.95524 -1.45392 0
M  V30 2267 H 209.613 -2.75095 -1.7604 0
M  V30 2268 H 208.272 -3.66217 0.167623 0
M  V30 2269 H 207.92 -4.55034 -2.14366 0
M  V30 2270 H 207.62 -5.80441 -0.914454 0
M  V30 2271 H 209.144 -5.82003 -1.84675 0
M  V30 2272 H 210.558 -5.71742 0.422366 0
M  V30 2273 H 208.955 -5.8805 1.19656 0
M  V30 2274 H 210.025 -4.55045 1.67518 0
M  V30 2275 N 211.368 -0.403325 -1.52352 0
M  V30 2276 C 212.784 -0.0539281 -1.59509 0
M  V30 2277 C 212.984 1.43307 -1.41652 0
M  V30 2278 O 212.04 2.19924 -1.24056 0
M  V30 2279 C 213.353 -0.543654 -2.95745 0
M  V30 2280 C 214.901 -0.501125 -3.08962 0
M  V30 2281 C 215.376 -0.967267 -4.47669 0
M  V30 2282 N 216.867 -0.923849 -4.53893 0
M  V30 2283 C 217.602 -1.25578 -5.5948 0
M  V30 2284 N 217.098 -1.65889 -6.72646 0
M  V30 2285 N 218.891 -1.17613 -5.49658 0
M  V30 2286 H 211.042 -1.37123 -1.62206 0
M  V30 2287 H 213.305 -0.56294 -0.76276 0
M  V30 2288 H 213.011 -1.58275 -3.14073 0
M  V30 2289 H 212.885 0.0498042 -3.77167 0
M  V30 2290 H 215.272 0.528909 -2.90321 0
M  V30 2291 H 215.353 -1.13056 -2.2946 0
M  V30 2292 H 214.997 -1.9956 -4.67053 0
M  V30 2293 H 214.927 -0.314698 -5.25659 0
M  V30 2294 H 217.418 -0.627403 -3.72655 0
M  V30 2295 H 217.731 -1.89543 -7.49195 0
M  V30 2296 H 216.076 -1.69787 -6.73942 0
M  V30 2297 H 219.267 -0.860115 -4.6013 0
M  V30 2298 H 219.44 -1.43812 -6.3184 0
M  V30 2299 N 212.846 1.57033 -0.133567 0
M  V30 2300 C 214.095 1.94861 0.520768 0
M  V30 2301 C 214.408 1.02012 1.66892 0
M  V30 2302 O 215.614 1.29365 2.38699 0
M  V30 2303 C 214.07 3.46362 0.977809 0
M  V30 2304 C 213.678 4.47773 -0.142674 0
M  V30 2305 C 215.422 3.93083 1.60269 0
M  V30 2306 C 213.329 5.90468 0.331883 0
M  V30 2307 H 212.259 0.727453 0.198315 0
M  V30 2308 H 214.91 1.82227 -0.215759 0
M  V30 2309 H 213.292 3.54282 1.7692 0
M  V30 2310 H 214.466 4.51536 -0.919317 0
M  V30 2311 H 212.781 4.10891 -0.675124 0
M  V30 2312 H 215.378 4.97121 1.96914 0
M  V30 2313 H 215.721 3.33876 2.48662 0
M  V30 2314 H 216.254 3.88025 0.876453 0
M  V30 2315 H 212.993 6.53463 -0.516341 0
M  V30 2316 H 212.513 5.90094 1.07469 0
M  V30 2317 H 214.192 6.42179 0.788332 0
M  V30 2318 N 214.325 -0.140222 1.56975 0
M  V30 2319 C 215.736 -0.699596 1.73097 0
M  V30 2320 C 216.087 -1.8134 0.749022 0
M  V30 2321 O 215.212 -2.16241 -0.0828503 0
M  V30 2322 C 215.807 -1.27582 3.1386 0
M  V30 2323 C 214.366 -1.78169 3.31561 0
M  V30 2324 C 213.513 -0.672855 2.69013 0
M  V30 2325 H 216.464 0.0855115 1.58469 0
M  V30 2326 H 216.485 -2.14561 3.14235 0
M  V30 2327 H 215.997 -0.464955 3.85305 0
M  V30 2328 H 214.098 -2.61801 2.65124 0
M  V30 2329 H 214.211 -1.90574 4.39566 0
M  V30 2330 H 212.575 -1.10118 2.29665 0
M  V30 2331 H 213.358 0.126679 3.43066 0
M  V30 2332 N 215.803 -1.52179 -0.40978 0
M  V30 2333 C 217.214 -1.58377 -0.988615 0
M  V30 2334 C 217.565 -0.423879 -1.91566 0
M  V30 2335 O 216.69 0.455844 -2.11544 0
M  V30 2336 C 217.285 -2.87044 -1.79976 0
M  V30 2337 C 215.844 -2.95722 -2.32863 0
M  V30 2338 C 214.991 -2.53309 -1.12828 0
M  V30 2339 H 217.942 -1.57558 -0.190039 0
M  V30 2340 H 217.963 -2.7236 -2.65707 0
M  V30 2341 H 217.475 -3.71444 -1.12478 0
M  V30 2342 H 215.576 -2.15814 -3.03735 0
M  V30 2343 H 215.689 -3.99951 -2.63773 0
M  V30 2344 H 214.053 -2.07142 -1.48204 0
M  V30 2345 H 214.836 -3.40082 -0.46897 0
M  V30 2346 N 217.281 0.66697 -1.42791 0
M  V30 2347 C 218.191 1.80962 -1.49299 0
M  V30 2348 C 219.207 1.69775 -0.381108 0
M  V30 2349 O 220.383 1.91188 -0.633188 0
M  V30 2350 C 217.448 3.17156 -1.40045 0
M  V30 2351 C 216.509 3.40242 -2.6179 0
M  V30 2352 C 215.742 4.69939 -2.52969 0
M  V30 2353 O 215.965 5.48372 -1.56985 0
M  V30 2354 O 214.899 4.94441 -3.43237 0
M  V30 2355 H 218.725 1.78427 -2.45759 0
M  V30 2356 H 216.31 0.823713 -1.24641 0
M  V30 2357 H 218.192 3.98413 -1.37276 0
M  V30 2358 H 216.867 3.20312 -0.467138 0
M  V30 2359 H 215.774 2.58802 -2.70134 0
M  V30 2360 H 217.107 3.41923 -3.54047 0
M  V30 2361 N 218.759 1.29093 0.90403 0
M  V30 2362 C 220.007 1.16583 1.65085 0
M  V30 2363 C 220.328 -0.283933 1.92922 0
M  V30 2364 O 219.598 -1.19509 1.55224 0
M  V30 2365 H 218.178 0.428467 0.611903 0
M  V30 2366 H 220.84 1.61959 1.08422 0
M  V30 2367 H 219.936 1.71266 2.6091 0
M  V30 2368 N 220.237 -1.11381 1.11499 0
M  V30 2369 C 221.483 -1.83403 0.865512 0
M  V30 2370 C 221.816 -1.84459 -0.607329 0
M  V30 2371 O 221.091 -1.29811 -1.44842 0
M  V30 2372 C 221.374 -3.30552 1.42855 0
M  V30 2373 C 221.227 -3.37886 2.96906 0
M  V30 2374 C 222.546 -4.26643 1.08 0
M  V30 2375 H 219.665 -0.665879 0.31587 0
M  V30 2376 H 222.307 -1.30601 1.37998 0
M  V30 2377 H 220.457 -3.75648 0.990985 0
M  V30 2378 H 222.129 -3.01343 3.49271 0
M  V30 2379 H 220.372 -2.78088 3.32941 0
M  V30 2380 H 221.043 -4.41458 3.31389 0
M  V30 2381 H 223.519 -3.89729 1.45775 0
M  V30 2382 H 222.395 -5.27986 1.50072 0
M  V30 2383 H 222.656 -4.42099 -0.00915037 0
M  V30 2384 N 221.715 -0.905404 -1.28997 0
M  V30 2385 C 222.645 -0.404212 -2.29975 0
M  V30 2386 C 223.626 0.523784 -1.61835 0
M  V30 2387 O 224.811 0.433298 -1.89304 0
M  V30 2388 C 221.941 0.364042 -3.45387 0
M  V30 2389 C 220.895 -0.474048 -4.25367 0
M  V30 2390 C 220.221 0.422045 -5.33032 0
M  V30 2391 C 221.521 -1.72696 -4.92923 0
M  V30 2392 H 223.215 -1.24807 -2.72146 0
M  V30 2393 H 220.761 -0.601585 -1.30832 0
M  V30 2394 H 222.714 0.725447 -4.15109 0
M  V30 2395 H 221.438 1.24174 -3.02074 0
M  V30 2396 H 220.097 -0.81786 -3.57361 0
M  V30 2397 H 219.745 1.29804 -4.85963 0
M  V30 2398 H 219.445 -0.135057 -5.87445 0
M  V30 2399 H 220.969 0.779517 -6.05604 0
M  V30 2400 H 222.383 -1.43495 -5.55051 0
M  V30 2401 H 220.78 -2.22582 -5.57295 0
M  V30 2402 H 221.85 -2.45964 -4.17887 0
M  V30 2403 N 223.193 1.4272 -0.668489 0
M  V30 2404 C 224.418 2.06484 -0.194758 0
M  V30 2405 C 224.843 1.49862 1.13679 0
M  V30 2406 O 224.201 0.614582 1.70565 0
M  V30 2407 C 224.249 3.60353 -0.133546 0
M  V30 2408 O 223.353 4.02464 0.899806 0
M  V30 2409 H 222.694 0.656137 -0.10188 0
M  V30 2410 H 225.224 1.82964 -0.915722 0
M  V30 2411 H 225.234 4.07976 0.0447041 0
M  V30 2412 H 223.909 4.00938 -1.1055 0
M  V30 2413 H 222.486 3.66402 0.693109 0
M  V30 2414 N 224.671 0.411399 1.52136 0
M  V30 2415 C 225.911 -0.163143 2.03748 0
M  V30 2416 C 226.275 -1.42187 1.29022 0
M  V30 2417 O 227.476 -2.075 1.70872 0
M  V30 2418 C 225.747 -0.402651 3.55125 0
M  V30 2419 S 227.306 -0.944315 4.28519 0
M  V30 2420 H 224.124 -0.0439833 0.709638 0
M  V30 2421 H 226.726 0.56484 1.87163 0
M  V30 2422 H 225.43 0.520212 4.0709 0
M  V30 2423 H 224.961 -1.15844 3.75957 0
M  V30 2424 H 226.976 -2.22463 4.43536 0
M  V30 2425 N 226.149 -1.5696 0.141893 0
M  V30 2426 C 227.079 -2.19516 -0.795936 0
M  V30 2427 C 228.06 -1.14187 -1.26077 0
M  V30 2428 O 229.245 -1.42511 -1.31925 0
M  V30 2429 C 226.375 -2.81272 -2.03723 0
M  V30 2430 C 225.329 -3.92384 -1.70936 0
M  V30 2431 C 224.655 -4.41052 -3.02287 0
M  V30 2432 C 225.955 -5.13403 -0.959954 0
M  V30 2433 H 227.649 -2.98138 -0.274596 0
M  V30 2434 H 225.195 -1.43406 -0.130636 0
M  V30 2435 H 227.148 -3.237 -2.69808 0
M  V30 2436 H 225.872 -1.99973 -2.58221 0
M  V30 2437 H 224.531 -3.50566 -1.07232 0
M  V30 2438 H 224.179 -3.56582 -3.54765 0
M  V30 2439 H 223.879 -5.15993 -2.81114 0
M  V30 2440 H 225.403 -4.86146 -3.69451 0
M  V30 2441 H 226.817 -5.52706 -1.52279 0
M  V30 2442 H 225.214 -5.94073 -0.848357 0
M  V30 2443 H 226.284 -4.84875 0.0492434 0
M  V30 2444 N 227.627 0.131896 -1.57047 0
M  V30 2445 C 228.537 1.1815 -2.02676 0
M  V30 2446 C 229.553 1.46113 -0.944824 0
M  V30 2447 O 230.729 1.57485 -1.25541 0
M  V30 2448 C 227.794 2.49139 -2.41103 0
M  V30 2449 C 226.855 2.28688 -3.63318 0
M  V30 2450 C 226.088 3.53431 -3.99903 0
M  V30 2451 O 226.311 4.60223 -3.36973 0
M  V30 2452 O 225.245 3.45198 -4.93074 0
M  V30 2453 H 229.071 0.824069 -2.92306 0
M  V30 2454 H 226.656 0.341745 -1.45439 0
M  V30 2455 H 228.538 3.26338 -2.66611 0
M  V30 2456 H 227.213 2.84382 -1.54624 0
M  V30 2457 H 226.12 1.4939 -3.42977 0
M  V30 2458 H 227.453 1.98355 -4.50462 0
M  V30 2459 N 229.106 1.52395 0.401703 0
M  V30 2460 C 230.522 1.41363 0.740864 0
M  V30 2461 C 230.722 0.523982 1.94568 0
M  V30 2462 O 229.778 -0.00741204 2.52499 0
M  V30 2463 C 231.091 2.84011 0.987847 0
M  V30 2464 C 232.639 2.93404 1.09011 0
M  V30 2465 C 233.114 4.37036 1.3698 0
M  V30 2466 N 234.605 4.40304 1.43829 0
M  V30 2467 C 235.34 5.48508 1.67112 0
M  V30 2468 N 234.836 6.66819 1.87949 0
M  V30 2469 N 236.629 5.36034 1.69187 0
M  V30 2470 H 228.78 2.08765 -0.391262 0
M  V30 2471 H 231.043 0.941265 -0.112798 0
M  V30 2472 H 230.749 3.51265 0.174835 0
M  V30 2473 H 230.623 3.25502 1.906 0
M  V30 2474 H 233.01 2.26325 1.8937 0
M  V30 2475 H 233.091 2.55359 0.15015 0
M  V30 2476 H 232.735 5.04676 0.571353 0
M  V30 2477 H 232.665 4.72623 2.3224 0
M  V30 2478 H 235.156 3.55024 1.29486 0
M  V30 2479 H 235.469 7.45063 2.05185 0
M  V30 2480 H 233.814 6.6987 1.85199 0
M  V30 2481 H 237.005 4.42579 1.52451 0
M  V30 2482 H 237.178 6.20434 1.86993 0
M  V30 2483 N 230.584 -0.659388 1.43143 0
M  V30 2484 C 231.83 -1.42145 1.44647 0
M  V30 2485 C 232.163 -1.9408 0.0681907 0
M  V30 2486 O 231.438 -1.71899 -0.910007 0
M  V30 2487 C 231.721 -2.60735 2.48373 0
M  V30 2488 C 231.574 -2.14332 3.95451 0
M  V30 2489 C 232.893 -3.62951 2.48906 0
M  V30 2490 H 230.012 -0.51552 0.526696 0
M  V30 2491 H 232.654 -0.748069 1.74654 0
M  V30 2492 H 230.804 -3.18184 2.22916 0
M  V30 2493 H 232.476 -1.61932 4.31944 0
M  V30 2494 H 230.719 -1.4576 4.08578 0
M  V30 2495 H 231.39 -2.99583 4.63631 0
M  V30 2496 H 233.866 -3.1525 2.71582 0
M  V30 2497 H 232.742 -4.43487 3.23435 0
M  V30 2498 H 233.003 -4.15126 1.52061 0
M  V30 2499 N 232.062 -1.29571 -0.897171 0
M  V30 2500 C 233.339 -1.08365 -1.62839 0
M  V30 2501 C 233.719 0.371331 -2.07808 0
M  V30 2502 O 233.067 1.3606 -1.83576 0
M  V30 2503 C 233.277 -2.0735 -2.80726 0
M  V30 2504 C 234.625 -2.38406 -3.51351 0
M  V30 2505 O 235.649 -2.05564 -2.90898 0
M  V30 2506 O 234.508 -2.9453 -4.60341 0
M  V30 2507 H 231.602 -0.415345 -0.715134 0
M  V30 2508 H 234.148 -1.40952 -0.945018 0
M  V30 2509 H 232.92 -3.05339 -2.44711 0
M  V30 2510 H 232.543 -1.75507 -3.56767 0
M  V30 2511 N 233.54 1.10788 -1.12088 0
M  V30 2512 C 234.77 1.86191 -0.895351 0
M  V30 2513 C 235.178 1.80763 0.558702 0
M  V30 2514 O 234.521 1.19188 1.39785 0
M  V30 2515 C 234.583 3.35659 -1.28737 0
M  V30 2516 C 234.247 3.64849 -2.75198 0
M  V30 2517 C 235.244 3.61757 -3.734 0
M  V30 2518 C 232.929 3.93641 -3.12013 0
M  V30 2519 C 234.923 3.87045 -5.06434 0
M  V30 2520 C 232.61 4.18585 -4.4523 0
M  V30 2521 C 233.608 4.15277 -5.42249 0
M  V30 2522 O 233.296 4.3959 -6.73065 0
M  V30 2523 H 233.028 0.595425 -0.32007 0
M  V30 2524 H 235.582 1.40992 -1.49367 0
M  V30 2525 H 233.812 3.81497 -0.63224 0
M  V30 2526 H 235.501 3.92441 -1.03656 0
M  V30 2527 H 236.267 3.39557 -3.46303 0
M  V30 2528 H 232.146 3.95348 -2.37109 0
M  V30 2529 H 235.69 3.84378 -5.82151 0
M  V30 2530 H 231.587 4.40264 -4.72057 0
M  V30 2531 H 232.355 4.57123 -6.78956 0
M  V30 2532 N 235.018 0.912232 1.28515 0
M  V30 2533 C 236.295 0.463597 1.90027 0
M  V30 2534 C 236.675 -1.05753 1.82701 0
M  V30 2535 O 236.023 -1.90492 1.26194 0
M  V30 2536 C 236.233 0.992253 3.34597 0
M  V30 2537 C 237.581 1.04344 4.11579 0
M  V30 2538 O 238.605 0.94079 3.43551 0
M  V30 2539 O 237.464 1.1995 5.33174 0
M  V30 2540 H 234.558 0.146666 0.813891 0
M  V30 2541 H 237.104 1.00292 1.36893 0
M  V30 2542 H 235.876 2.03623 3.34146 0
M  V30 2543 H 235.499 0.433672 3.95228 0
M  V30 2544 N 236.496 -1.42363 0.676048 0
M  V30 2545 C 237.444 -2.32596 -0.0131507 0
M  V30 2546 C 238.438 -1.49891 -0.789238 0
M  V30 2547 O 239.644 -1.65955 -0.697061 0
M  V30 2548 H 236.019 -0.751647 -0.0230481 0
M  V30 2549 H 237.99 -2.88421 0.765243 0
M  V30 2550 C 236.739 -3.34479 -0.949702 0
M  V30 2551 H 236.062 -3.98158 -0.361938 0
M  V30 2552 H 237.502 -4.00199 -1.4006 0
M  V30 2553 C 235.961 -2.66838 -2.05667 0
M  V30 2554 O 236.491 -2.50124 -3.14326 0
M  V30 2555 N 234.697 -2.25843 -1.82875 0
M  V30 2556 H 234.244 -2.39637 -0.945085 0
M  V30 2557 H 234.202 -1.80918 -2.5713 0
M  V30 2558 N 237.974 -0.419461 -1.51915 0
M  V30 2559 C 238.937 0.389116 -2.25873 0
M  V30 2560 C 239.937 0.964924 -1.28631 0
M  V30 2561 O 241.127 0.842179 -1.52489 0
M  V30 2562 C 238.259 1.54874 -3.03689 0
M  V30 2563 H 239.452 -0.258799 -2.98781 0
M  V30 2564 H 237.005 -0.172209 -1.55348 0
M  V30 2565 H 237.74 2.23323 -2.35154 0
M  V30 2566 H 237.525 1.14223 -3.75094 0
M  V30 2567 H 239.015 2.12046 -3.59759 0
M  V30 2568 N 239.452 1.56882 -0.150215 0
M  V30 2569 C 240.699 1.96228 0.500093 0
M  V30 2570 C 241.027 1.03522 1.64661 0
M  V30 2571 O 240.282 0.0650683 1.95592 0
M  V30 2572 C 240.581 3.41801 1.04437 0
M  V30 2573 C 240.247 4.50897 0.0159671 0
M  V30 2574 C 238.909 4.8046 -0.266731 0
M  V30 2575 C 241.261 5.16703 -0.683192 0
M  V30 2576 C 238.589 5.73135 -1.25434 0
M  V30 2577 C 240.941 6.10441 -1.65964 0
M  V30 2578 C 239.605 6.38382 -1.95 0
M  V30 2579 H 238.875 0.718048 0.182997 0
M  V30 2580 H 241.522 1.90019 -0.237724 0
M  V30 2581 H 239.827 3.44857 1.85959 0
M  V30 2582 H 241.524 3.69573 1.55618 0
M  V30 2583 H 238.114 4.27891 0.246485 0
M  V30 2584 H 242.298 4.93993 -0.477983 0
M  V30 2585 H 237.554 5.93074 -1.48571 0
M  V30 2586 H 241.728 6.60507 -2.20689 0
M  V30 2587 H 239.355 7.09996 -2.71679 0
M  V30 2588 N 240.93 -0.123565 1.57115 0
M  V30 2589 C 242.178 -0.83051 1.84247 0
M  V30 2590 C 242.499 -1.80629 0.73471 0
M  V30 2591 O 241.769 -1.94403 -0.241688 0
M  V30 2592 H 240.349 -0.309694 0.679778 0
M  V30 2593 H 243.011 -0.111976 1.94578 0
M  V30 2594 H 242.107 -1.37852 2.80006 0
M  V30 2595 N 242.408 -1.52605 -0.393616 0
M  V30 2596 C 243.824 -1.41753 -0.733357 0
M  V30 2597 C 244.024 -0.534293 -1.94287 0
M  V30 2598 O 243.08 -0.0059787 -2.52499 0
M  V30 2599 C 244.393 -2.84531 -0.972772 0
M  V30 2600 C 245.941 -2.93978 -1.07453 0
M  V30 2601 C 246.416 -4.37756 -1.3466 0
M  V30 2602 N 247.907 -4.4106 -1.41492 0
M  V30 2603 C 248.642 -5.49387 -1.642 0
M  V30 2604 N 248.138 -6.67806 -1.8441 0
M  V30 2605 N 249.931 -5.36923 -1.66342 0
M  V30 2606 H 242.082 -2.08555 0.402328 0
M  V30 2607 H 244.345 -0.940654 0.117789 0
M  V30 2608 H 244.051 -3.51353 -0.156204 0
M  V30 2609 H 243.925 -3.26508 -1.88871 0
M  V30 2610 H 246.312 -2.27326 -1.88167 0
M  V30 2611 H 246.393 -2.55435 -0.136605 0
M  V30 2612 H 246.037 -5.04972 -0.544581 0
M  V30 2613 H 245.967 -4.73848 -2.2973 0
M  V30 2614 H 248.458 -3.55705 -1.27601 0
M  V30 2615 H 248.771 -7.46141 -2.01231 0
M  V30 2616 H 247.116 -6.70843 -1.81644 0
M  V30 2617 H 250.307 -4.43381 -1.50102 0
M  V30 2618 H 250.48 -6.21416 -1.837 0
M  V30 2619 N 243.887 0.651787 -1.4349 0
M  V30 2620 C 245.117 1.43728 -1.48411 0
M  V30 2621 C 245.525 1.8893 -0.10103 0
M  V30 2622 O 244.868 1.60182 0.899307 0
M  V30 2623 C 244.93 2.70411 -2.36893 0
M  V30 2624 C 244.594 2.4714 -3.8441 0
M  V30 2625 C 245.591 2.10271 -4.75481 0
M  V30 2626 C 243.276 2.6142 -4.28912 0
M  V30 2627 C 245.27 1.87982 -6.0905 0
M  V30 2628 C 242.957 2.38746 -5.62533 0
M  V30 2629 C 243.955 2.02083 -6.5242 0
M  V30 2630 O 243.643 1.79647 -7.8357 0
M  V30 2631 H 243.375 0.447962 -0.506267 0
M  V30 2632 H 245.929 0.80624 -1.88915 0
M  V30 2633 H 244.159 3.36079 -1.91278 0
M  V30 2634 H 245.848 3.32364 -2.33 0
M  V30 2635 H 246.614 1.98814 -4.42378 0
M  V30 2636 H 242.493 2.88931 -3.59222 0
M  V30 2637 H 246.037 1.5929 -6.7917 0
M  V30 2638 H 241.934 2.49806 -5.95203 0
M  V30 2639 H 242.702 1.9406 -7.95162 0
M  V30 2640 N 245.365 1.30045 0.890287 0
M  V30 2641 C 246.295 1.18541 2.01172 0
M  V30 2642 C 247.276 0.0773356 1.69924 0
M  V30 2643 O 248.461 0.25845 1.92473 0
M  V30 2644 C 245.591 0.870941 3.36202 0
M  V30 2645 C 244.545 1.93637 3.81692 0
M  V30 2646 C 243.871 1.475 5.13953 0
M  V30 2647 C 245.171 3.34666 4.00994 0
M  V30 2648 H 246.865 2.12359 2.11054 0
M  V30 2649 H 244.411 1.02238 1.01407 0
M  V30 2650 H 246.364 0.777141 4.14172 0
M  V30 2651 H 245.088 -0.102926 3.26438 0
M  V30 2652 H 243.747 2.01972 3.05946 0
M  V30 2653 H 243.395 0.489551 5.00612 0
M  V30 2654 H 243.095 2.1876 5.4536 0
M  V30 2655 H 244.619 1.39489 5.94454 0
M  V30 2656 H 246.033 3.2912 4.69417 0
M  V30 2657 H 244.43 4.03966 4.43769 0
M  V30 2658 H 245.5 3.76949 3.05021 0
M  V30 2659 N 246.843 -1.10192 1.12674 0
M  V30 2660 C 247.806 -2.14786 0.799979 0
M  V30 2661 C 248.806 -1.59711 -0.18685 0
M  V30 2662 O 249.996 -1.74156 0.0392558 0
M  V30 2663 C 247.128 -3.40374 0.189228 0
M  V30 2664 H 248.321 -2.45203 1.72671 0
M  V30 2665 H 245.874 -1.25597 0.930326 0
M  V30 2666 H 246.609 -3.15577 -0.747107 0
M  V30 2667 H 246.394 -3.81637 0.899766 0
M  V30 2668 H 247.884 -4.17594 -0.0228143 0
M  V30 2669 N 248.321 -0.919034 -1.28029 0
M  V30 2670 C 249.269 -0.401753 -2.29104 0
M  V30 2671 C 250.263 0.509354 -1.61561 0
M  V30 2672 O 251.469 0.390014 -1.75724 0
M  V30 2673 H 247.844 -0.111331 -0.743713 0
M  V30 2674 H 249.815 -1.2672 -2.70156 0
M  V30 2675 C 248.564 0.338148 -3.46052 0
M  V30 2676 H 247.887 -0.353732 -3.98232 0
M  V30 2677 H 249.327 0.664653 -4.18758 0
M  V30 2678 C 247.786 1.54798 -2.99231 0
M  V30 2679 O 248.316 2.64696 -3.02157 0
M  V30 2680 N 246.522 1.3968 -2.54829 0
M  V30 2681 H 246.069 0.502698 -2.52647 0
M  V30 2682 H 246.027 2.20755 -2.23863 0
M  V30 2683 N 249.799 1.42003 -0.683588 0
M  V30 2684 C 251.027 2.05746 -0.218182 0
M  V30 2685 C 251.442 1.51396 1.12804 0
M  V30 2686 O 250.799 0.657303 1.70252 0
M  V30 2687 C 250.85 3.61171 -0.154131 0
M  V30 2688 O 250.571 4.13508 -1.44716 0
M  V30 2689 C 252.072 4.42042 0.333713 0
M  V30 2690 H 249.292 0.662888 -0.10402 0
M  V30 2691 H 251.836 1.81987 -0.9328 0
M  V30 2692 H 249.991 3.84012 0.511231 0
M  V30 2693 H 250.405 5.07453 -1.32632 0
M  V30 2694 H 251.879 5.51028 0.327423 0
M  V30 2695 H 252.356 4.17269 1.37053 0
M  V30 2696 H 252.962 4.24239 -0.300222 0
M  V30 2697 N 251.277 0.427512 1.51691 0
M  V30 2698 C 252.507 -0.140986 2.06118 0
M  V30 2699 C 252.915 -1.37854 1.29588 0
M  V30 2700 O 252.258 -1.80411 0.346036 0
M  V30 2701 C 252.32 -0.538276 3.55447 0
M  V30 2702 C 251.984 0.591095 4.53161 0
M  V30 2703 C 252.981 1.46027 4.98971 0
M  V30 2704 C 250.666 0.769028 4.96378 0
M  V30 2705 C 252.66 2.49216 5.8666 0
M  V30 2706 C 250.347 1.80421 5.83859 0
M  V30 2707 C 251.345 2.66417 6.28897 0
M  V30 2708 O 251.033 3.68159 7.14643 0
M  V30 2709 H 250.765 -0.0157455 0.675817 0
M  V30 2710 H 253.319 0.602495 1.96365 0
M  V30 2711 H 251.549 -1.33432 3.6295 0
M  V30 2712 H 253.238 -1.0368 3.92435 0
M  V30 2713 H 254.004 1.33429 4.66285 0
M  V30 2714 H 249.883 0.109273 4.6087 0
M  V30 2715 H 253.427 3.16372 6.21735 0
M  V30 2716 H 249.324 1.93042 6.15959 0
M  V30 2717 H 250.092 3.64622 7.32798 0
M  V30 2718 N 252.755 -1.56801 0.158532 0
M  V30 2719 C 253.98 -2.01295 -0.499516 0
M  V30 2720 C 254.405 -1.03799 -1.56867 0
M  V30 2721 O 253.763 -0.0155162 -1.81293 0
M  V30 2722 C 253.811 -3.44469 -1.06647 0
M  V30 2723 O 252.915 -3.50012 -2.18095 0
M  V30 2724 H 252.256 -0.652884 -0.12099 0
M  V30 2725 H 254.786 -2.02958 0.258661 0
M  V30 2726 H 254.796 -3.8351 -1.39227 0
M  V30 2727 H 253.471 -4.14932 -0.283581 0
M  V30 2728 H 252.048 -3.22822 -1.86656 0
M  V30 2729 N 254.233 0.115231 -1.57178 0
M  V30 2730 C 255.458 0.840354 -1.89612 0
M  V30 2731 C 255.883 1.72464 -0.750845 0
M  V30 2732 O 255.241 1.78826 0.298478 0
M  V30 2733 C 255.289 1.64654 -3.20814 0
M  V30 2734 O 254.393 2.7538 -3.06985 0
M  V30 2735 H 253.734 0.232158 -0.622092 0
M  V30 2736 H 256.264 0.0964977 -2.04372 0
M  V30 2737 H 256.274 2.03499 -3.53627 0
M  V30 2738 H 254.949 0.997416 -4.03763 0
M  V30 2739 H 253.526 2.3971 -2.85646 0
M  V30 2740 N 255.711 1.52812 0.385517 0
M  V30 2741 C 256.941 1.71658 1.14966 0
M  V30 2742 C 257.349 0.436253 1.84102 0
M  V30 2743 O 256.692 -0.599313 1.73649 0
M  V30 2744 C 256.754 2.81309 2.23843 0
M  V30 2745 C 256.418 4.22313 1.74644 0
M  V30 2746 C 257.415 5.05352 1.22129 0
M  V30 2747 C 255.1 4.68648 1.80761 0
M  V30 2748 C 257.094 6.32807 0.763838 0
M  V30 2749 C 254.781 5.96086 1.34627 0
M  V30 2750 C 255.779 6.77996 0.825264 0
M  V30 2751 O 255.467 8.03045 0.370669 0
M  V30 2752 H 255.199 0.578022 0.350523 0
M  V30 2753 H 257.753 2.00263 0.456509 0
M  V30 2754 H 255.983 2.48133 2.96592 0
M  V30 2755 H 257.672 2.88524 2.85497 0
M  V30 2756 H 258.438 4.70736 1.16758 0
M  V30 2757 H 254.317 4.04979 2.20256 0
M  V30 2758 H 257.861 6.96689 0.356494 0
M  V30 2759 H 253.758 6.30205 1.39686 0
M  V30 2760 H 254.526 8.17021 0.491829 0
M  V30 2761 N 257.189 -0.644168 1.43834 0
M  V30 2762 C 258.119 -1.76814 1.52509 0
M  V30 2763 C 259.1 -1.65823 0.379052 0
M  V30 2764 O 260.285 -1.84781 0.597466 0
M  V30 2765 C 257.415 -3.15288 1.4564 0
M  V30 2766 C 256.369 -3.41053 2.58586 0
M  V30 2767 C 255.695 -4.79421 2.36769 0
M  V30 2768 C 256.995 -3.34902 4.00797 0
M  V30 2769 H 258.689 -1.69812 2.46586 0
M  V30 2770 H 256.235 -0.815542 1.1868 0
M  V30 2771 H 258.188 -3.93681 1.50311 0
M  V30 2772 H 256.912 -3.23043 0.480725 0
M  V30 2773 H 255.571 -2.65035 2.53282 0
M  V30 2774 H 255.219 -4.83863 1.37424 0
M  V30 2775 H 254.919 -4.9762 3.12487 0
M  V30 2776 H 256.443 -5.6006 2.43238 0
M  V30 2777 H 257.857 -4.03218 4.07539 0
M  V30 2778 H 256.254 -3.64637 4.76613 0
M  V30 2779 H 257.324 -2.32928 4.25291 0
M  V30 2780 N 258.668 -1.30515 -0.883378 0
M  V30 2781 C 259.915 -1.1943 -1.63532 0
M  V30 2782 C 260.243 0.250627 -1.92878 0
M  V30 2783 O 259.498 1.19556 -1.54935 0
M  V30 2784 C 259.797 -1.96994 -2.98209 0
M  V30 2785 C 259.463 -3.466 -2.88408 0
M  V30 2786 C 258.125 -3.87397 -2.85442 0
M  V30 2787 C 260.477 -4.41863 -2.76418 0
M  V30 2788 C 257.805 -5.21745 -2.68327 0
M  V30 2789 C 260.157 -5.7632 -2.60841 0
M  V30 2790 C 258.821 -6.16354 -2.56251 0
M  V30 2791 H 258.091 -0.437025 -0.598406 0
M  V30 2792 H 260.738 -1.61635 -1.02696 0
M  V30 2793 H 259.043 -1.47429 -3.63004 0
M  V30 2794 H 260.74 -1.85808 -3.55354 0
M  V30 2795 H 257.33 -3.14182 -2.91527 0
M  V30 2796 H 261.514 -4.11285 -2.77775 0
M  V30 2797 H 256.77 -5.51853 -2.63189 0
M  V30 2798 H 260.944 -6.49772 -2.50538 0
M  V30 2799 H 258.571 -7.20401 -2.42748 0
M  V30 2800 N 260.146 1.09593 -1.13257 0
M  V30 2801 C 261.393 1.81734 -0.893257 0
M  V30 2802 C 261.721 1.8563 0.580656 0
M  V30 2803 O 260.976 1.31906 1.44566 0
M  V30 2804 C 261.275 3.27802 -1.42411 0
M  V30 2805 C 260.941 3.44041 -2.91456 0
M  V30 2806 C 259.603 3.48181 -3.3215 0
M  V30 2807 C 261.955 3.48719 -3.87356 0
M  V30 2808 C 259.283 3.54575 -4.67433 0
M  V30 2809 C 261.635 3.56648 -5.2248 0
M  V30 2810 C 260.299 3.59055 -5.62704 0
M  V30 2811 H 259.569 0.665011 -0.326866 0
M  V30 2812 H 262.216 1.2912 -1.41422 0
M  V30 2813 H 260.521 3.83042 -0.823795 0
M  V30 2814 H 262.218 3.82149 -1.21503 0
M  V30 2815 H 258.808 3.41502 -2.58987 0
M  V30 2816 H 262.992 3.44763 -3.57004 0
M  V30 2817 H 258.248 3.54725 -4.97976 0
M  V30 2818 H 262.422 3.59212 -5.96607 0
M  V30 2819 H 260.049 3.63763 -6.67518 0
M  V30 2820 N 261.624 0.925811 1.2754 0
M  V30 2821 C 262.574 0.394488 2.24561 0
M  V30 2822 C 263.558 -0.500183 1.52928 0
M  V30 2823 O 264.75 -0.337936 1.73744 0
M  V30 2824 C 261.879 -0.353328 3.41477 0
M  V30 2825 C 260.965 0.557752 4.20416 0
M  V30 2826 N 261.356 1.67674 4.77199 0
M  V30 2827 C 259.654 0.360404 4.44541 0
M  V30 2828 C 260.355 2.24324 5.36706 0
M  V30 2829 N 259.331 1.53305 5.21535 0
M  V30 2830 H 263.133 1.2489 2.66045 0
M  V30 2831 H 260.647 0.779864 1.4245 0
M  V30 2832 H 262.644 -0.7509 4.10082 0
M  V30 2833 H 261.304 -1.20469 3.01525 0
M  V30 2834 H 262.315 2.05915 4.75204 0
M  V30 2835 H 258.992 -0.450454 4.15063 0
M  V30 2836 H 260.382 3.18521 5.91603 0
M  V30 2837 N 263.102 -1.41638 0.69111 0
M  V30 2838 C 264.348 -2.01598 0.220519 0
M  V30 2839 C 264.681 -1.54594 -1.17535 0
M  V30 2840 O 263.956 -0.755177 -1.79241 0
M  V30 2841 C 264.239 -3.59062 0.273243 0
M  V30 2842 C 264.092 -4.16203 1.70573 0
M  V30 2843 C 265.411 -4.38546 -0.369457 0
M  V30 2844 H 262.53 -0.732468 0.0816045 0
M  V30 2845 H 265.172 -1.68445 0.878986 0
M  V30 2846 H 263.322 -3.87435 -0.287411 0
M  V30 2847 H 264.994 -3.98722 2.31989 0
M  V30 2848 H 263.237 -3.71414 2.2413 0
M  V30 2849 H 263.908 -5.25358 1.69419 0
M  V30 2850 H 266.384 -4.1596 0.107977 0
M  V30 2851 H 265.26 -5.48069 -0.302002 0
M  V30 2852 H 265.521 -4.17662 -1.44951 0
M  V30 2853 N 264.58 -0.43555 -1.51462 0
M  V30 2854 C 265.829 0.133007 -2.01261 0
M  V30 2855 C 266.142 1.43942 -1.32439 0
M  V30 2856 O 267.348 2.09081 -1.73198 0
M  V30 2857 C 265.804 0.287581 -3.58749 0
M  V30 2858 C 265.412 -1.00829 -4.36506 0
M  V30 2859 C 267.156 0.810004 -4.167 0
M  V30 2860 C 265.063 -0.819454 -5.85695 0
M  V30 2861 H 263.993 0.0534822 -0.752101 0
M  V30 2862 H 266.644 -0.565038 -1.74584 0
M  V30 2863 H 265.026 1.04859 -3.81865 0
M  V30 2864 H 266.2 -1.77749 -4.25138 0
M  V30 2865 H 264.515 -1.45911 -3.89999 0
M  V30 2866 H 267.112 0.967743 -5.2587 0
M  V30 2867 H 267.455 1.79196 -3.75758 0
M  V30 2868 H 267.988 0.107357 -3.97655 0
M  V30 2869 H 264.727 -1.77374 -6.31046 0
M  V30 2870 H 264.247 -0.0900208 -5.99732 0
M  V30 2871 H 265.926 -0.471949 -6.45276 0
M  V30 2872 N 266.058 1.56714 -0.166846 0
M  V30 2873 C 267.286 2.0112 0.485644 0
M  V30 2874 C 267.701 1.04705 1.57106 0
M  V30 2875 O 267.058 0.0471923 1.82439 0
M  V30 2876 C 267.109 3.45361 1.06808 0
M  V30 2877 O 266.83 4.38092 0.0259995 0
M  V30 2878 C 268.331 4.05145 1.79924 0
M  V30 2879 H 265.551 0.65931 0.124704 0
M  V30 2880 H 268.095 2.02746 -0.267262 0
M  V30 2881 H 266.25 3.44524 1.7715 0
M  V30 2882 H 266.664 5.22519 0.455398 0
M  V30 2883 H 268.138 5.08009 2.15942 0
M  V30 2884 H 268.615 3.46982 2.69258 0
M  V30 2885 H 269.221 4.09672 1.14234 0
M  V30 2886 N 267.536 -0.106894 1.57237 0
M  V30 2887 C 268.466 -1.13148 2.04254 0
M  V30 2888 C 269.447 -1.42476 0.929224 0
M  V30 2889 O 270.632 -1.52709 1.19973 0
M  V30 2890 C 267.762 -2.4545 2.45706 0
M  V30 2891 C 266.716 -2.30558 3.60592 0
M  V30 2892 C 266.042 -3.67931 3.87983 0
M  V30 2893 C 267.342 -1.75597 4.91897 0
M  V30 2894 H 269.036 -0.740374 2.90101 0
M  V30 2895 H 266.582 -0.354696 1.39563 0
M  V30 2896 H 268.535 -3.17389 2.77205 0
M  V30 2897 H 267.259 -2.86475 1.56843 0
M  V30 2898 H 265.918 -1.61067 3.29322 0
M  V30 2899 H 265.566 -4.06462 2.96306 0
M  V30 2900 H 265.266 -3.58817 4.65322 0
M  V30 2901 H 266.79 -4.41356 4.21945 0
M  V30 2902 H 268.204 -2.37364 5.21854 0
M  V30 2903 H 266.601 -1.77272 5.73319 0
M  V30 2904 H 267.671 -0.714451 4.79608 0
M  V30 2905 N 269.014 -1.53014 -0.377408 0
M  V30 2906 C 270.244 -1.72265 -1.14054 0
M  V30 2907 C 270.652 -0.44601 -1.83868 0
M  V30 2908 O 269.995 0.590095 -1.73964 0
M  V30 2909 C 270.057 -2.82492 -2.22348 0
M  V30 2910 C 269.721 -4.23233 -1.72402 0
M  V30 2911 C 270.718 -5.05992 -1.19448 0
M  V30 2912 C 268.403 -4.696 -1.78273 0
M  V30 2913 C 270.397 -6.33203 -0.730268 0
M  V30 2914 C 268.084 -5.96792 -1.31464 0
M  V30 2915 C 269.082 -6.78424 -0.789297 0
M  V30 2916 O 268.77 -8.0323 -0.328077 0
M  V30 2917 H 268.502 -0.579873 -0.347453 0
M  V30 2918 H 271.056 -2.00502 -0.445882 0
M  V30 2919 H 269.286 -2.49702 -2.95272 0
M  V30 2920 H 270.975 -2.90034 -2.83963 0
M  V30 2921 H 271.741 -4.71349 -1.14259 0
M  V30 2922 H 267.62 -4.06142 -2.18106 0
M  V30 2923 H 271.164 -6.96868 -0.319542 0
M  V30 2924 H 267.061 -6.30937 -1.36342 0
M  V30 2925 H 267.829 -8.1727 -0.448493 0
M  V30 2926 N 270.492 0.636531 -1.44174 0
M  V30 2927 C 271.425 1.76139 -1.45087 0
M  V30 2928 C 272.403 1.59611 -0.310326 0
M  V30 2929 O 273.587 1.81568 -0.506477 0
M  V30 2930 C 270.714 3.13648 -1.27839 0
M  V30 2931 C 269.76 3.48838 -2.45386 0
M  V30 2932 S 270.593 3.46927 -4.07924 0
M  V30 2933 C 271.749 4.87064 -3.9309 0
M  V30 2934 H 271.982 1.75096 -2.40268 0
M  V30 2935 H 269.515 0.810666 -1.31406 0
M  V30 2936 H 271.473 3.93002 -1.18575 0
M  V30 2937 H 270.134 3.12235 -0.341787 0
M  V30 2938 H 269.327 4.48886 -2.29167 0
M  V30 2939 H 268.929 2.76935 -2.51362 0
M  V30 2940 H 271.221 5.76153 -3.56446 0
M  V30 2941 H 272.164 5.08337 -4.92949 0
M  V30 2942 H 272.572 4.61384 -3.25246 0
M  V30 2943 N 271.97 1.30982 0.876444 0
M  V30 2944 C 272.918 1.18006 2.00443 0
M  V30 2945 C 273.912 0.0898871 1.69161 0
M  V30 2946 O 275.118 0.251333 1.78237 0
M  V30 2947 H 271.493 0.365196 0.65737 0
M  V30 2948 H 273.464 2.13453 2.0852 0
M  V30 2949 C 272.213 0.897521 3.35916 0
M  V30 2950 H 271.536 1.7285 3.60504 0
M  V30 2951 H 272.976 0.846874 4.15456 0
M  V30 2952 C 271.435 -0.399674 3.34521 0
M  V30 2953 O 271.965 -1.41852 3.7582 0
M  V30 2954 N 270.171 -0.413893 2.87637 0
M  V30 2955 H 269.718 0.41571 2.54224 0
M  V30 2956 H 269.676 -1.28175 2.87086 0
M  V30 2957 N 273.449 -1.08991 1.13837 0
M  V30 2958 C 274.412 -2.13925 0.822715 0
M  V30 2959 C 275.412 -1.599 -0.1699 0
M  V30 2960 O 276.602 -1.74104 0.0577251 0
M  V30 2961 C 273.734 -3.40155 0.225318 0
M  V30 2962 H 274.927 -2.43358 1.75262 0
M  V30 2963 H 272.48 -1.24603 0.943594 0
M  V30 2964 H 273.215 -3.16352 -0.713594 0
M  V30 2965 H 273 -3.80661 0.940193 0
M  V30 2966 H 274.49 -4.17594 0.0214784 0
M  V30 2967 N 274.927 -0.932562 -1.27047 0
M  V30 2968 C 275.857 -0.452902 -2.29066 0
M  V30 2969 C 276.838 0.489338 -1.62909 0
M  V30 2970 O 278.023 0.393046 -1.90181 0
M  V30 2971 C 275.153 0.290698 -3.46081 0
M  V30 2972 C 274.107 -0.564168 -4.24265 0
M  V30 2973 C 273.433 0.308886 -5.33807 0
M  V30 2974 C 274.733 -1.83112 -4.89149 0
M  V30 2975 H 276.427 -1.30552 -2.69437 0
M  V30 2976 H 273.973 -0.629201 -1.29526 0
M  V30 2977 H 275.926 0.637233 -4.16554 0
M  V30 2978 H 274.65 1.17738 -3.0464 0
M  V30 2979 H 273.309 -0.893477 -3.55545 0
M  V30 2980 H 272.957 1.19467 -4.88607 0
M  V30 2981 H 272.657 -0.259633 -5.87026 0
M  V30 2982 H 274.181 0.650884 -6.07121 0
M  V30 2983 H 275.595 -1.55236 -5.51883 0
M  V30 2984 H 273.992 -2.34353 -5.52448 0
M  V30 2985 H 275.062 -2.54772 -4.12576 0
M  V30 2986 N 276.405 1.4127 -0.698611 0
M  V30 2987 C 277.682 1.94955 -0.158762 0
M  V30 2988 C 278.062 1.63781 1.33188 0
M  V30 2989 O 277.41 0.946423 2.07979 0
M  V30 2990 C 277.62 3.46044 -0.453309 0
M  V30 2991 C 278.968 4.22872 -0.382707 0
M  V30 2992 O 279.992 3.54076 -0.388396 0
M  V30 2993 O 278.851 5.45407 -0.345463 0
M  V30 2994 H 275.945 0.82683 -0.0167505 0
M  V30 2995 H 278.491 1.50971 -0.77498 0
M  V30 2996 H 277.263 3.62028 -1.48498 0
M  V30 2997 H 276.886 3.97128 0.19373 0
M  V30 2998 N 277.883 0.443576 1.51229 0
M  V30 2999 C 279.129 -0.11321 2.03085 0
M  V30 3000 C 279.484 -1.39841 1.32145 0
M  V30 3001 O 278.777 -1.86723 0.429542 0
M  V30 3002 C 278.971 -0.380579 3.55368 0
M  V30 3003 C 278.8 0.877157 4.41062 0
M  V30 3004 C 277.57 1.4125 4.85156 0
M  V30 3005 C 279.768 1.76503 4.83064 0
M  V30 3006 N 277.75 2.62213 5.55083 0
M  V30 3007 C 279.121 2.82067 5.52122 0
M  V30 3008 C 281.176 1.7787 4.65045 0
M  V30 3009 C 279.879 3.88952 6.05069 0
M  V30 3010 C 281.905 2.83694 5.18914 0
M  V30 3011 C 281.267 3.87978 5.87922 0
M  V30 3012 H 277.366 -0.00210178 0.781997 0
M  V30 3013 H 279.95 0.605641 1.85041 0
M  V30 3014 H 278.121 -1.06847 3.73414 0
M  V30 3015 H 279.853 -0.929274 3.93887 0
M  V30 3016 H 276.608 0.965542 4.63653 0
M  V30 3017 H 277.032 3.23568 5.9467 0
M  V30 3018 H 281.674 0.985744 4.11148 0
M  V30 3019 H 279.392 4.69082 6.58018 0
M  V30 3020 H 282.978 2.85702 5.06819 0
M  V30 3021 H 281.858 4.68517 6.28857 0
M  V30 3022 N 279.361 -1.56624 0.175154 0
M  V30 3023 C 280.638 -1.88688 -0.515373 0
M  V30 3024 C 281.018 -1.08564 -1.81044 0
M  V30 3025 O 280.366 -0.180703 -2.27784 0
M  V30 3026 C 280.576 -3.40768 -0.753552 0
M  V30 3027 C 281.924 -4.10587 -1.08184 0
M  V30 3028 O 282.948 -3.46106 -0.841961 0
M  V30 3029 O 281.807 -5.24512 -1.53459 0
M  V30 3030 H 278.901 -0.78301 -0.26613 0
M  V30 3031 H 281.447 -1.68347 0.213877 0
M  V30 3032 H 280.219 -3.90965 0.161829 0
M  V30 3033 H 279.842 -3.66733 -1.53598 0
M  V30 3034 N 280.839 0.0985539 -1.57292 0
M  V30 3035 C 281.749 1.13824 -2.05137 0
M  V30 3036 C 282.765 1.44076 -0.975604 0
M  V30 3037 O 283.941 1.54786 -1.28853 0
M  V30 3038 C 281.006 2.43969 -2.46333 0
M  V30 3039 C 280.067 2.2093 -3.68087 0
M  V30 3040 C 279.3 3.44869 -4.0731 0
M  V30 3041 O 279.523 4.52972 -3.46659 0
M  V30 3042 O 278.457 3.34661 -5.00285 0
M  V30 3043 H 282.283 0.761881 -2.93988 0
M  V30 3044 H 279.868 0.310818 -1.46131 0
M  V30 3045 H 281.75 3.20609 -2.73473 0
M  V30 3046 H 280.425 2.81038 -1.60621 0
M  V30 3047 H 279.332 1.42081 -3.46069 0
M  V30 3048 H 280.665 1.88755 -4.54568 0
M  V30 3049 N 282.317 1.53212 0.369288 0
M  V30 3050 C 283.227 1.82342 1.47609 0
M  V30 3051 C 284.243 0.711532 1.58787 0
M  V30 3052 O 285.419 1.0012 1.74751 0
M  V30 3053 C 282.484 2.00393 2.8292 0
M  V30 3054 C 281.545 3.24297 2.81301 0
M  V30 3055 C 280.778 3.41478 4.10157 0
M  V30 3056 O 281.001 2.63033 5.06132 0
M  V30 3057 O 279.935 4.34817 4.16194 0
M  V30 3058 H 283.761 2.76366 1.25918 0
M  V30 3059 H 281.346 1.38547 0.559034 0
M  V30 3060 H 283.228 2.13859 3.63101 0
M  V30 3061 H 281.903 1.09559 3.04596 0
M  V30 3062 H 280.81 3.16257 1.99831 0
M  V30 3063 H 282.143 4.15041 2.64578 0
M  V30 3064 N 283.795 -0.628877 1.44509 0
M  V30 3065 C 284.742 -1.74074 1.51549 0
M  V30 3066 C 285.712 -1.62084 0.363021 0
M  V30 3067 O 286.897 -1.81975 0.573567 0
M  V30 3068 C 284.037 -3.12328 1.46784 0
M  V30 3069 C 283.15 -3.35277 2.72422 0
M  V30 3070 C 282.285 -4.63515 2.59475 0
M  V30 3071 C 281.324 -4.7965 3.80266 0
M  V30 3072 N 280.461 -5.99168 3.65981 0
M  V30 3073 H 285.301 -1.67392 2.46544 0
M  V30 3074 H 282.838 -0.816527 1.22357 0
M  V30 3075 H 284.796 -3.92286 1.42012 0
M  V30 3076 H 283.426 -3.18018 0.553544 0
M  V30 3077 H 282.478 -2.49242 2.87372 0
M  V30 3078 H 283.79 -3.43078 3.62076 0
M  V30 3079 H 282.944 -5.51638 2.52548 0
M  V30 3080 H 281.683 -4.58076 1.67384 0
M  V30 3081 H 280.688 -3.89957 3.87574 0
M  V30 3082 H 281.913 -4.86902 4.73395 0
M  V30 3083 H 279.859 -5.94814 2.76644 0
M  V30 3084 H 279.776 -6.08035 4.49254 0
M  V30 3085 H 281.044 -6.89846 3.6295 0
M  V30 3086 N 285.273 -1.31445 -0.869486 0
M  V30 3087 C 286.501 -1.24122 -1.65534 0
M  V30 3088 C 286.916 0.193387 -1.87807 0
M  V30 3089 O 286.273 1.12557 -1.43656 0
M  V30 3090 C 286.324 -1.98229 -3.02304 0
M  V30 3091 O 286.045 -3.3609 -2.81026 0
M  V30 3092 C 287.546 -1.97751 -3.96749 0
M  V30 3093 H 284.766 -0.428868 -0.516055 0
M  V30 3094 H 287.31 -1.73328 -1.08525 0
M  V30 3095 H 285.465 -1.52782 -3.56001 0
M  V30 3096 H 285.879 -3.7383 -3.67902 0
M  V30 3097 H 287.353 -2.54114 -4.90031 0
M  V30 3098 H 287.83 -0.960137 -4.28577 0
M  V30 3099 H 288.436 -2.43079 -3.48988 0
M  V30 3100 N 286.751 1.08385 -1.14413 0
M  V30 3101 C 288 1.80153 -0.907076 0
M  V30 3102 C 288.313 1.87176 0.567851 0
M  V30 3103 O 289.519 2.55359 0.922172 0
M  V30 3104 C 287.975 3.23687 -1.57336 0
M  V30 3105 C 287.583 3.24897 -3.08457 0
M  V30 3106 C 289.327 4.00136 -1.41744 0
M  V30 3107 C 287.234 4.6302 -3.67921 0
M  V30 3108 H 286.164 0.675139 -0.335714 0
M  V30 3109 H 288.815 1.21733 -1.37307 0
M  V30 3110 H 287.197 3.82234 -1.03505 0
M  V30 3111 H 288.371 2.76055 -3.68958 0
M  V30 3112 H 286.686 2.61943 -3.2369 0
M  V30 3113 H 289.283 5.02201 -1.83572 0
M  V30 3114 H 289.626 4.14709 -0.363576 0
M  V30 3115 H 290.159 3.48058 -1.92614 0
M  V30 3116 H 286.898 4.5365 -4.73161 0
M  V30 3117 H 286.418 5.12143 -3.12201 0
M  V30 3118 H 288.097 5.31994 -3.68227 0
M  V30 3119 N 288.23 0.939286 1.26551 0
M  V30 3120 C 289.16 0.465044 2.28822 0
M  V30 3121 C 290.141 -0.480692 1.63167 0
M  V30 3122 O 291.326 -0.382955 1.90387 0
M  V30 3123 C 288.456 -0.27234 3.46231 0
M  V30 3124 C 287.41 0.58666 4.2396 0
M  V30 3125 C 286.736 -0.280573 5.33963 0
M  V30 3126 C 288.036 1.85704 4.88171 0
M  V30 3127 H 289.73 1.31979 2.68741 0
M  V30 3128 H 287.276 0.636061 1.29191 0
M  V30 3129 H 289.229 -0.615133 4.16886 0
M  V30 3130 H 287.953 -1.16121 3.0526 0
M  V30 3131 H 286.612 0.91232 3.55067 0
M  V30 3132 H 286.26 -1.16874 4.89234 0
M  V30 3133 H 285.96 0.29076 5.8688 0
M  V30 3134 H 287.484 -0.618678 6.07458 0
M  V30 3135 H 288.898 1.58161 5.51052 0
M  V30 3136 H 287.295 2.37279 5.51197 0
M  V30 3137 H 288.365 2.56957 4.11219 0
M  V30 3138 N 289.708 -1.40897 0.706093 0
M  V30 3139 C 290.671 -2.29131 0.0562841 0
M  V30 3140 C 291.671 -1.44901 -0.697166 0
M  V30 3141 O 292.861 -1.65926 -0.530484 0
M  V30 3142 C 289.993 -3.27957 -0.93043 0
M  V30 3143 H 291.186 -2.88091 0.833284 0
M  V30 3144 H 288.739 -1.4906 0.470192 0
M  V30 3145 H 289.474 -2.73997 -1.73482 0
M  V30 3146 H 289.259 -3.90124 -0.393166 0
M  V30 3147 H 290.749 -3.94049 -1.38256 0
M  V30 3148 N 291.186 -0.45159 -1.50991 0
M  V30 3149 C 292.116 0.342898 -2.30969 0
M  V30 3150 C 293.097 1.00815 -1.37005 0
M  V30 3151 O 294.282 1.00907 -1.65926 0
M  V30 3152 C 291.412 1.43637 -3.16205 0
M  V30 3153 C 290.366 0.893818 -4.18563 0
M  V30 3154 C 289.692 2.08411 -4.92411 0
M  V30 3155 C 290.992 -0.0815568 -5.22236 0
M  V30 3156 H 292.686 -0.324556 -2.97636 0
M  V30 3157 H 290.232 -0.157531 -1.43136 0
M  V30 3158 H 292.185 1.9995 -3.70942 0
M  V30 3159 H 290.909 2.13232 -2.47386 0
M  V30 3160 H 289.568 0.352798 -3.64898 0
M  V30 3161 H 289.216 2.76658 -4.20082 0
M  V30 3162 H 288.916 1.72741 -5.61636 0
M  V30 3163 H 290.44 2.65251 -5.49976 0
M  V30 3164 H 291.854 0.391742 -5.7196 0
M  V30 3165 H 290.251 -0.351551 -5.99069 0
M  V30 3166 H 291.321 -1.01374 -4.74185 0
M  V30 3167 N 292.664 1.56529 -0.183458 0
M  V30 3168 C 293.91 1.98304 0.452466 0
M  V30 3169 C 294.265 1.06799 1.60037 0
M  V30 3170 O 293.558 0.110049 1.91284 0
M  V30 3171 C 293.752 3.43939 0.971637 0
M  V30 3172 C 293.581 4.49528 -0.124425 0
M  V30 3173 C 292.351 5.01981 -0.578168 0
M  V30 3174 C 294.549 5.05836 -0.929207 0
M  V30 3175 N 292.531 5.91219 -1.65327 0
M  V30 3176 C 293.902 5.91632 -1.85396 0
M  V30 3177 C 295.957 4.88302 -0.972929 0
M  V30 3178 C 294.66 6.61768 -2.81878 0
M  V30 3179 C 296.686 5.59168 -1.92574 0
M  V30 3180 C 296.048 6.44701 -2.83795 0
M  V30 3181 H 292.147 0.770551 0.133324 0
M  V30 3182 H 294.731 1.92581 -0.286473 0
M  V30 3183 H 292.902 3.50184 1.68006 0
M  V30 3184 H 294.634 3.72702 1.5772 0
M  V30 3185 H 291.389 4.73282 -0.173639 0
M  V30 3186 H 291.813 6.40543 -2.19167 0
M  V30 3187 H 296.455 4.21861 -0.28168 0
M  V30 3188 H 294.173 7.27415 -3.51984 0
M  V30 3189 H 297.759 5.47582 -1.96583 0
M  V30 3190 H 296.639 6.98573 -3.56322 0
M  V30 3191 N 294.142 -0.090211 1.57342 0
M  V30 3192 C 295.089 -1.10909 2.02405 0
M  V30 3193 C 296.059 -1.39523 0.901252 0
M  V30 3194 O 297.244 -1.50903 1.1676 0
M  V30 3195 C 294.384 -2.42277 2.45755 0
M  V30 3196 C 293.497 -2.20352 3.71576 0
M  V30 3197 C 292.632 -3.45154 4.03785 0
M  V30 3198 C 291.671 -3.18512 5.22701 0
M  V30 3199 N 290.808 -4.35593 5.50639 0
M  V30 3200 H 295.648 -0.71782 2.89225 0
M  V30 3201 H 293.185 -0.342901 1.43048 0
M  V30 3202 H 295.143 -3.18951 2.68935 0
M  V30 3203 H 293.773 -2.79242 1.61938 0
M  V30 3204 H 292.825 -1.34458 3.55844 0
M  V30 3205 H 294.137 -1.96661 4.58395 0
M  V30 3206 H 293.291 -4.30233 4.27767 0
M  V30 3207 H 292.03 -3.71904 3.15498 0
M  V30 3208 H 291.035 -2.31827 4.98534 0
M  V30 3209 H 292.26 -2.93103 6.12591 0
M  V30 3210 H 290.206 -4.6241 4.6531 0
M  V30 3211 H 290.123 -4.1511 6.31838 0
M  V30 3212 H 291.391 -5.21723 5.7916 0
M  V30 3213 N 295.62 -1.53406 -0.361157 0
M  V30 3214 C 296.897 -1.60411 -1.11927 0
M  V30 3215 C 297.277 -0.414385 -2.06993 0
M  V30 3216 O 296.625 0.594976 -2.20618 0
M  V30 3217 C 296.835 -2.95652 -1.85448 0
M  V30 3218 C 298.183 -3.50386 -2.39823 0
M  V30 3219 O 299.207 -2.97711 -1.95568 0
M  V30 3220 O 298.066 -4.42482 -3.20737 0
M  V30 3221 H 295.16 -0.64811 -0.513695 0
M  V30 3222 H 297.706 -1.65749 -0.364065 0
M  V30 3223 H 296.478 -3.73682 -1.16091 0
M  V30 3224 H 296.101 -2.93825 -2.67866 0
M  V30 3225 N 297.098 0.621204 -1.44841 0
M  V30 3226 C 298.028 1.74366 -1.55303 0
M  V30 3227 C 299.009 1.65199 -0.405385 0
M  V30 3228 O 300.194 1.83807 -0.626787 0
M  V30 3229 C 297.324 3.12931 -1.50637 0
M  V30 3230 C 296.278 3.36896 -2.63979 0
M  V30 3231 C 295.604 4.75594 -2.44366 0
M  V30 3232 C 296.904 3.28483 -4.06074 0
M  V30 3233 H 298.598 1.65867 -2.49256 0
M  V30 3234 H 296.144 0.796558 -1.19962 0
M  V30 3235 H 298.097 3.9124 -1.56555 0
M  V30 3236 H 296.821 3.22237 -0.532057 0
M  V30 3237 H 295.48 2.60972 -2.57467 0
M  V30 3238 H 295.128 4.81616 -1.45105 0
M  V30 3239 H 294.828 4.92586 -3.20364 0
M  V30 3240 H 296.352 5.5612 -2.52117 0
M  V30 3241 H 297.766 3.96684 -4.13902 0
M  V30 3242 H 296.163 3.57008 -4.82354 0
M  V30 3243 H 297.233 2.26133 -4.28943 0
M  V30 3244 N 298.576 1.31904 0.862503 0
M  V30 3245 C 299.804 1.24998 1.64873 0
M  V30 3246 C 300.219 -0.183425 1.87907 0
M  V30 3247 O 299.576 -1.11794 1.44251 0
M  V30 3248 C 299.627 1.99829 3.01248 0
M  V30 3249 O 299.348 3.37575 2.79239 0
M  V30 3250 C 300.849 1.99852 3.95694 0
M  V30 3251 H 298.069 0.431599 0.513773 0
M  V30 3252 H 300.613 1.73901 1.07604 0
M  V30 3253 H 298.768 1.54668 3.55185 0
M  V30 3254 H 299.182 3.75776 3.65914 0
M  V30 3255 H 300.656 2.56709 4.88676 0
M  V30 3256 H 301.133 0.982852 4.28062 0
M  V30 3257 H 301.739 2.44926 3.47694 0
M  V30 3258 N 300.054 -1.07777 1.14986 0
M  V30 3259 C 301.279 -1.84558 0.946213 0
M  V30 3260 C 301.704 -1.81323 -0.500362 0
M  V30 3261 O 301.062 -1.20301 -1.35637 0
M  V30 3262 C 301.11 -3.29736 1.45968 0
M  V30 3263 O 300.214 -4.07149 0.65601 0
M  V30 3264 H 299.555 -0.571641 0.33782 0
M  V30 3265 H 302.085 -1.35991 1.52865 0
M  V30 3266 H 302.095 -3.80574 1.47063 0
M  V30 3267 H 300.77 -3.31406 2.51283 0
M  V30 3268 H 299.347 -3.65994 0.714322 0
M  V30 3269 N 301.532 -0.945985 -1.26051 0
M  V30 3270 C 302.778 -0.597002 -1.93814 0
M  V30 3271 C 303.111 0.862484 -1.73997 0
M  V30 3272 O 302.386 1.61769 -1.07986 0
M  V30 3273 C 302.669 -0.945937 -3.47454 0
M  V30 3274 C 302.522 -2.46052 -3.76535 0
M  V30 3275 C 303.841 -0.464785 -4.37639 0
M  V30 3276 H 300.96 -0.218366 -0.703907 0
M  V30 3277 H 303.602 -1.18107 -1.48831 0
M  V30 3278 H 301.752 -0.448902 -3.85898 0
M  V30 3279 H 303.424 -3.03065 -3.47778 0
M  V30 3280 H 301.667 -2.90194 -3.22444 0
M  V30 3281 H 302.338 -2.65517 -4.83947 0
M  V30 3282 H 304.814 -0.891016 -4.06448 0
M  V30 3283 H 303.69 -0.737712 -5.4392 0
M  V30 3284 H 303.951 0.635274 -4.37512 0
M  V30 3285 N 303.011 1.40521 -0.713556 0
M  V30 3286 C 304.288 1.94775 -0.17943 0
M  V30 3287 C 304.668 1.65184 1.31444 0
M  V30 3288 O 304.016 0.968429 2.06963 0
M  V30 3289 C 304.226 3.45543 -0.489986 0
M  V30 3290 C 305.574 4.22442 -0.427536 0
M  V30 3291 O 306.598 3.53644 -0.425929 0
M  V30 3292 O 305.457 5.4501 -0.403292 0
M  V30 3293 H 302.551 0.826606 -0.0255192 0
M  V30 3294 H 305.097 1.5014 -0.790949 0
M  V30 3295 H 303.869 3.60432 -1.5233 0
M  V30 3296 H 303.492 3.97311 0.151598 0
M  V30 3297 N 304.489 0.459591 1.5075 0
M  V30 3298 C 305.738 -0.100971 2.01447 0
M  V30 3299 C 306.051 -1.41816 1.34713 0
M  V30 3300 O 307.257 -2.06299 1.76502 0
M  V30 3301 C 305.713 -0.23047 3.59161 0
M  V30 3302 C 305.321 1.0776 4.34847 0
M  V30 3303 C 307.065 -0.743608 4.17936 0
M  V30 3304 C 304.972 0.91253 5.84317 0
M  V30 3305 H 303.902 -0.0415102 0.752856 0
M  V30 3306 H 306.553 0.592742 1.73663 0
M  V30 3307 H 304.935 -0.987703 3.83485 0
M  V30 3308 H 306.109 1.8449 4.22256 0
M  V30 3309 H 304.424 1.52097 3.87628 0
M  V30 3310 H 307.021 -0.883959 5.27343 0
M  V30 3311 H 307.364 -1.73196 3.78562 0
M  V30 3312 H 307.897 -0.04408 3.97776 0
M  V30 3313 H 304.636 1.87391 6.28144 0
M  V30 3314 H 304.156 0.185422 5.99513 0
M  V30 3315 H 305.835 0.574547 6.44444 0
M  V30 3316 N 305.967 -1.56429 0.191757 0
M  V30 3317 C 307.215 -1.97095 -0.447006 0
M  V30 3318 C 307.536 -1.07967 -1.62383 0
M  V30 3319 O 306.806 -0.150248 -1.95323 0
M  V30 3320 H 305.386 -0.727832 -0.168135 0
M  V30 3321 H 308.048 -1.92911 0.27771 0
M  V30 3322 H 307.144 -3.01848 -0.793371 0
M  V30 3323 N 307.445 0.0818655 -1.57387 0
M  V30 3324 C 308.392 1.09834 -2.0299 0
M  V30 3325 C 309.362 1.39043 -0.908639 0
M  V30 3326 O 310.547 1.50282 -1.17559 0
M  V30 3327 C 307.687 2.40971 -2.47037 0
M  V30 3328 C 306.8 2.18379 -3.7274 0
M  V30 3329 C 305.935 3.43008 -4.0561 0
M  V30 3330 C 304.974 3.15736 -5.24383 0
M  V30 3331 N 304.111 4.32667 -5.52941 0
M  V30 3332 H 308.951 0.702472 -2.89602 0
M  V30 3333 H 306.488 0.33531 -1.43227 0
M  V30 3334 H 308.446 3.1752 -2.70623 0
M  V30 3335 H 307.076 2.78379 -1.63417 0
M  V30 3336 H 306.128 1.32569 -3.56552 0
M  V30 3337 H 307.44 1.94227 -4.59431 0
M  V30 3338 H 306.594 4.27958 -4.30043 0
M  V30 3339 H 305.333 3.70225 -3.17466 0
M  V30 3340 H 304.338 2.2918 -4.99757 0
M  V30 3341 H 305.563 2.8985 -6.14136 0
M  V30 3342 H 303.509 4.59935 -4.67756 0
M  V30 3343 H 303.426 4.11753 -6.34031 0
M  V30 3344 H 304.694 5.18644 -5.81918 0
M  V30 3345 N 308.923 1.53595 0.353017 0
M  V30 3346 C 310.2 1.61002 1.11075 0
M  V30 3347 C 310.58 0.425356 2.0677 0
M  V30 3348 O 309.928 -0.583267 2.2093 0
M  V30 3349 C 310.138 2.96631 1.83877 0
M  V30 3350 C 311.486 3.51653 2.37961 0
M  V30 3351 O 312.51 2.98743 1.93987 0
M  V30 3352 O 311.369 4.44177 3.18386 0
M  V30 3353 H 308.463 0.650825 0.510251 0
M  V30 3354 H 311.009 1.6594 0.35527 0
M  V30 3355 H 309.781 3.74293 1.14108 0
M  V30 3356 H 309.404 2.95242 2.66304 0
M  V30 3357 N 310.401 -0.613514 1.45168 0
M  V30 3358 C 311.331 -1.7354 1.56225 0
M  V30 3359 C 312.312 -1.64981 0.41414 0
M  V30 3360 O 313.497 -1.83472 0.636526 0
M  V30 3361 C 310.627 -3.12128 1.52295 0
M  V30 3362 C 309.581 -3.35491 2.65762 0
M  V30 3363 C 308.907 -4.74291 2.46885 0
M  V30 3364 C 310.207 -3.26325 4.0781 0
M  V30 3365 H 311.901 -1.64543 2.50132 0
M  V30 3366 H 309.447 -0.790185 1.20383 0
M  V30 3367 H 311.4 -3.90404 1.58628 0
M  V30 3368 H 310.124 -3.2195 0.549139 0
M  V30 3369 H 308.783 -2.59603 2.58847 0
M  V30 3370 H 308.431 -4.80839 1.47657 0
M  V30 3371 H 308.131 -4.9088 3.22972 0
M  V30 3372 H 309.655 -5.54775 2.55063 0
M  V30 3373 H 311.069 -3.94483 4.16 0
M  V30 3374 H 309.466 -3.54445 4.8424 0
M  V30 3375 H 310.536 -2.23855 4.30136 0
M  V30 3376 N 311.879 -1.3236 -0.855495 0
M  V30 3377 C 313.125 -1.23054 -1.612 0
M  V30 3378 C 313.458 0.207404 -1.93089 0
M  V30 3379 O 312.733 1.14432 -1.57275 0
M  V30 3380 C 313.016 -2.08937 -2.93287 0
M  V30 3381 C 312.869 -3.61105 -2.68185 0
M  V30 3382 C 314.188 -1.94986 -3.94549 0
M  V30 3383 H 311.307 -0.448364 -0.584926 0
M  V30 3384 H 313.949 -1.62297 -0.987917 0
M  V30 3385 H 312.099 -1.75599 -3.46551 0
M  V30 3386 H 313.771 -4.04652 -2.21483 0
M  V30 3387 H 312.014 -3.83813 -2.02164 0
M  V30 3388 H 312.685 -4.16522 -3.62234 0
M  V30 3389 H 315.161 -2.24189 -3.5054 0
M  V30 3390 H 314.037 -2.57356 -4.84829 0
M  V30 3391 H 314.298 -0.917263 -4.3248 0
M  V30 3392 N 313.357 1.07166 -1.15556 0
M  V30 3393 C 314.304 2.14417 -0.854055 0
M  V30 3394 C 315.274 1.64965 0.193806 0
M  V30 3395 O 316.459 1.90703 0.0609443 0
M  V30 3396 C 313.599 3.43304 -0.351574 0
M  V30 3397 C 312.712 4.06537 -1.46123 0
M  V30 3398 C 311.847 5.23266 -0.914677 0
M  V30 3399 C 310.886 5.78464 -2.00114 0
M  V30 3400 N 310.023 6.86521 -1.47083 0
M  V30 3401 H 314.863 2.39548 -1.77259 0
M  V30 3402 H 312.4 1.17543 -0.884425 0
M  V30 3403 H 314.358 4.17179 -0.0419409 0
M  V30 3404 H 312.988 3.18419 0.530037 0
M  V30 3405 H 312.04 3.30297 -1.88701 0
M  V30 3406 H 313.352 4.43567 -2.28144 0
M  V30 3407 H 312.506 6.04131 -0.557698 0
M  V30 3408 H 311.245 4.87658 -0.0636583 0
M  V30 3409 H 310.25 4.96243 -2.36692 0
M  V30 3410 H 311.475 6.16126 -2.85597 0
M  V30 3411 H 309.421 6.52849 -0.642198 0
M  V30 3412 H 309.338 7.22446 -2.22729 0
M  V30 3413 H 310.606 7.71087 -1.14215 0
M  V30 3414 N 314.835 0.952656 1.25548 0
M  V30 3415 C 316.082 0.606373 1.93208 0
M  V30 3416 C 316.41 -0.85631 1.74636 0
M  V30 3417 O 315.665 -1.62951 1.08376 0
M  V30 3418 C 315.964 0.908818 3.45652 0
M  V30 3419 C 315.63 2.35722 3.84378 0
M  V30 3420 C 314.292 2.75312 3.9466 0
M  V30 3421 C 316.644 3.29793 4.03591 0
M  V30 3422 C 313.972 4.08047 4.21562 0
M  V30 3423 C 316.324 4.62138 4.31985 0
M  V30 3424 C 314.988 5.01528 4.40484 0
M  V30 3425 H 314.258 0.221888 0.706998 0
M  V30 3426 H 316.905 1.20132 1.49133 0
M  V30 3427 H 315.21 0.231456 3.91116 0
M  V30 3428 H 316.907 0.619498 3.96186 0
M  V30 3429 H 313.497 2.04017 3.76928 0
M  V30 3430 H 317.681 3.00397 3.95064 0
M  V30 3431 H 312.937 4.38212 4.26357 0
M  V30 3432 H 317.111 5.35012 4.45797 0
M  V30 3433 H 314.738 6.04406 4.61083 0
M  V30 3434 N 316.313 -1.40141 0.720998 0
M  V30 3435 C 317.26 -2.30688 0.071919 0
M  V30 3436 C 318.23 -1.48476 -0.744584 0
M  V30 3437 O 319.415 -1.77201 -0.707423 0
M  V30 3438 C 316.555 -3.34724 -0.839855 0
M  V30 3439 C 315.668 -4.31998 -0.0122438 0
M  V30 3440 C 314.803 -5.23102 -0.923995 0
M  V30 3441 C 313.842 -6.12033 -0.0907969 0
M  V30 3442 N 312.979 -6.95537 -0.957718 0
M  V30 3443 H 317.819 -2.85628 0.849755 0
M  V30 3444 H 315.356 -1.40653 0.430726 0
M  V30 3445 H 317.314 -3.93618 -1.38279 0
M  V30 3446 H 315.944 -2.81274 -1.58381 0
M  V30 3447 H 314.996 -3.74841 0.64794 0
M  V30 3448 H 316.308 -4.94772 0.632595 0
M  V30 3449 H 315.462 -5.86953 -1.53527 0
M  V30 3450 H 314.201 -4.60615 -1.60264 0
M  V30 3451 H 313.206 -5.47207 0.533377 0
M  V30 3452 H 314.431 -6.76581 0.584428 0
M  V30 3453 H 312.377 -6.35633 -1.62192 0
M  V30 3454 H 312.294 -7.55099 -0.36904 0
M  V30 3455 H 313.562 -7.63832 -1.555 0
M  V30 3456 N 317.792 -0.46758 -1.50504 0
M  V30 3457 C 319.069 0.15003 -1.95024 0
M  V30 3458 C 319.449 1.57304 -1.40779 0
M  V30 3459 O 318.797 2.20281 -0.607319 0
M  V30 3460 C 319.007 0.0969324 -3.48865 0
M  V30 3461 C 320.355 0.287565 -4.23625 0
M  V30 3462 O 321.379 0.173678 -3.55776 0
M  V30 3463 O 320.238 0.517186 -5.44047 0
M  V30 3464 H 317.332 0.113582 -0.819163 0
M  V30 3465 H 319.878 -0.52773 -1.61286 0
M  V30 3466 H 318.65 -0.896732 -3.80886 0
M  V30 3467 H 318.273 0.816303 -3.8913 0
M  V30 3468 N 319.27 1.56325 -0.20005 0
M  V30 3469 C 320.202 2.16555 0.750771 0
M  V30 3470 C 321.215 1.12871 1.1732 0
M  V30 3471 O 322.404 1.39943 1.10807 0
M  V30 3472 C 319.504 2.71684 2.02586 0
M  V30 3473 C 318.677 4.00321 1.76244 0
M  V30 3474 C 317.736 4.40227 2.88248 0
M  V30 3475 O 316.762 5.07552 2.57642 0
M  V30 3476 N 317.964 4.04138 4.16717 0
M  V30 3477 H 320.729 2.98772 0.235685 0
M  V30 3478 H 318.29 1.6189 -0.0182594 0
M  V30 3479 H 320.282 2.95363 2.76664 0
M  V30 3480 H 318.852 1.93893 2.45202 0
M  V30 3481 H 318.072 3.84723 0.85919 0
M  V30 3482 H 319.36 4.84279 1.56048 0
M  V30 3483 H 318.758 3.49993 4.44434 0
M  V30 3484 H 317.315 4.32756 4.87407 0
M  V30 3485 N 320.748 -0.0735177 1.57428 0
M  V30 3486 C 321.997 -0.771809 1.86349 0
M  V30 3487 C 322.31 -1.78828 0.792452 0
M  V30 3488 O 323.516 -2.53602 0.96945 0
M  V30 3489 C 321.972 -1.42358 3.30548 0
M  V30 3490 C 321.58 -0.445761 4.45777 0
M  V30 3491 C 323.324 -2.10434 3.6867 0
M  V30 3492 C 321.231 -1.10335 5.81016 0
M  V30 3493 H 320.161 -0.291999 0.695164 0
M  V30 3494 H 322.812 -0.0250749 1.83483 0
M  V30 3495 H 321.194 -2.21852 3.28021 0
M  V30 3496 H 322.368 0.319239 4.59693 0
M  V30 3497 H 320.683 0.130457 4.16196 0
M  V30 3498 H 323.28 -2.60405 4.67004 0
M  V30 3499 H 323.623 -2.90298 2.98383 0
M  V30 3500 H 324.156 -1.37773 3.7318 0
M  V30 3501 H 320.895 -0.345061 6.54591 0
M  V30 3502 H 320.415 -1.83925 5.70904 0
M  V30 3503 H 322.094 -1.62367 6.26295 0
M  V30 3504 N 322.226 -1.5378 -0.344866 0
M  V30 3505 C 323.472 -1.72158 -1.0832 0
M  V30 3506 C 323.827 -0.478218 -1.86362 0
M  V30 3507 O 323.12 0.529152 -1.84148 0
M  V30 3508 C 323.314 -2.92407 -2.05506 0
M  V30 3509 C 323.143 -4.28318 -1.37017 0
M  V30 3510 C 321.913 -4.92832 -1.11558 0
M  V30 3511 C 324.111 -5.08086 -0.797071 0
M  V30 3512 N 322.093 -6.12619 -0.396358 0
M  V30 3513 C 323.464 -6.1965 -0.208336 0
M  V30 3514 C 325.519 -4.92986 -0.697787 0
M  V30 3515 C 324.222 -7.17763 0.470023 0
M  V30 3516 C 326.248 -5.91391 -0.033171 0
M  V30 3517 C 325.61 -7.02292 0.544599 0
M  V30 3518 H 321.709 -0.683017 -0.380805 0
M  V30 3519 H 324.293 -1.91211 -0.366961 0
M  V30 3520 H 322.464 -2.74857 -2.74423 0
M  V30 3521 H 324.196 -2.9951 -2.72169 0
M  V30 3522 H 320.951 -4.52362 -1.40234 0
M  V30 3523 H 321.375 -6.7698 -0.0515119 0
M  V30 3524 H 326.017 -4.07414 -1.13022 0
M  V30 3525 H 323.735 -8.0291 0.914351 0
M  V30 3526 H 327.321 -5.81784 0.0430009 0
M  V30 3527 H 326.201 -7.77129 1.05073 0
M  V30 3528 N 323.704 0.605807 -1.45491 0
M  V30 3529 C 324.952 1.36207 -1.49305 0
M  V30 3530 C 325.273 1.94519 -0.136863 0
M  V30 3531 O 324.543 1.77261 0.833983 0
M  V30 3532 H 323.123 0.50565 -0.549843 0
M  V30 3533 H 325.785 0.711239 -1.81459 0
M  V30 3534 H 324.881 2.18058 -2.23287 0
M  V30 3535 N 325.182 1.32811 0.848464 0
M  V30 3536 C 326.112 1.24882 1.97299 0
M  V30 3537 C 327.093 0.131357 1.69592 0
M  V30 3538 O 328.278 0.319553 1.91553 0
M  V30 3539 C 325.408 0.97746 3.33261 0
M  V30 3540 C 324.362 2.05682 3.75338 0
M  V30 3541 C 323.688 1.63777 5.09 0
M  V30 3542 C 324.988 3.47254 3.90144 0
M  V30 3543 H 326.682 2.18966 2.04191 0
M  V30 3544 H 324.228 1.05413 0.981029 0
M  V30 3545 H 326.181 0.908513 4.1149 0
M  V30 3546 H 324.905 0.000980011 3.266 0
M  V30 3547 H 323.564 2.11603 2.99366 0
M  V30 3548 H 323.212 0.648569 4.98801 0
M  V30 3549 H 322.912 2.36 5.38124 0
M  V30 3550 H 324.436 1.5833 5.89715 0
M  V30 3551 H 325.85 3.43888 4.58709 0
M  V30 3552 H 324.247 4.1788 4.30693 0
M  V30 3553 H 325.317 3.86462 2.92874 0
M  V30 3554 N 326.66 -1.06551 1.16123 0
M  V30 3555 C 327.59 -2.15935 0.88851 0
M  V30 3556 C 328.571 -1.69306 -0.164135 0
M  V30 3557 O 329.756 -1.94193 -0.0167857 0
M  V30 3558 C 326.886 -3.45149 0.385942 0
M  V30 3559 C 325.84 -4.05271 1.3762 0
M  V30 3560 C 325.166 -5.29664 0.732137 0
M  V30 3561 C 326.466 -4.44355 2.74493 0
M  V30 3562 H 328.16 -2.39006 1.80323 0
M  V30 3563 H 325.706 -1.14866 0.868435 0
M  V30 3564 H 327.659 -4.21004 0.182647 0
M  V30 3565 H 326.383 -3.21689 -0.564274 0
M  V30 3566 H 325.042 -3.3147 1.56599 0
M  V30 3567 H 324.69 -5.02499 -0.224483 0
M  V30 3568 H 324.39 -5.70848 1.39307 0
M  V30 3569 H 325.914 -6.08218 0.538802 0
M  V30 3570 H 327.328 -5.11303 2.59311 0
M  V30 3571 H 325.725 -4.96515 3.37035 0
M  V30 3572 H 326.795 -3.55339 3.29943 0
M  V30 3573 N 328.138 -0.959301 -1.25041 0
M  V30 3574 C 329.387 -0.612254 -1.92183 0
M  V30 3575 C 329.7 0.855347 -1.75907 0
M  V30 3576 O 330.906 1.31256 -2.37664 0
M  V30 3577 C 329.362 -1.04435 -3.44414 0
M  V30 3578 C 328.97 -2.53482 -3.69393 0
M  V30 3579 C 330.714 -0.770055 -4.17457 0
M  V30 3580 C 328.621 -2.90468 -5.15153 0
M  V30 3581 H 327.551 -0.225279 -0.719559 0
M  V30 3582 H 330.202 -1.16438 -1.41825 0
M  V30 3583 H 328.584 -0.4206 -3.9376 0
M  V30 3584 H 329.758 -3.20916 -3.30681 0
M  V30 3585 H 328.073 -2.78432 -3.0962 0
M  V30 3586 H 330.67 -1.02249 -5.24832 0
M  V30 3587 H 331.013 0.293611 -4.15263 0
M  V30 3588 H 331.546 -1.35437 -3.74034 0
M  V30 3589 H 328.285 -3.95871 -5.22462 0
M  V30 3590 H 327.805 -2.27711 -5.54894 0
M  V30 3591 H 329.484 -2.79914 -5.83315 0
M  V30 3592 N 329.616 1.39756 -0.72842 0
M  V30 3593 C 330.862 2.00942 -0.273892 0
M  V30 3594 C 331.195 1.57656 1.13394 0
M  V30 3595 O 330.47 0.802434 1.77176 0
M  V30 3596 C 330.753 3.58211 -0.368346 0
M  V30 3597 C 330.606 4.11534 -1.81548 0
M  V30 3598 C 331.925 4.39372 0.253054 0
M  V30 3599 H 329.044 0.730047 -0.100996 0
M  V30 3600 H 331.686 1.66056 -0.923337 0
M  V30 3601 H 329.836 3.88061 0.184588 0
M  V30 3602 H 331.508 3.92431 -2.42478 0
M  V30 3603 H 329.751 3.65341 -2.33898 0
M  V30 3604 H 330.422 5.20682 -1.83288 0
M  V30 3605 H 332.898 4.15527 -0.218224 0
M  V30 3606 H 331.774 5.48677 0.156585 0
M  V30 3607 H 332.035 4.21358 1.33826 0
M  V30 3608 N 331.094 0.475555 1.50254 0
M  V30 3609 C 332.322 -0.0754493 2.06762 0
M  V30 3610 C 332.737 -1.33111 1.33891 0
M  V30 3611 O 332.094 -1.77846 0.40952 0
M  V30 3612 C 332.145 -0.359008 3.59713 0
M  V30 3613 O 331.866 0.846851 4.29837 0
M  V30 3614 C 333.367 -0.956484 4.32858 0
M  V30 3615 H 330.587 0.00907525 0.670939 0
M  V30 3616 H 333.131 0.665618 1.93364 0
M  V30 3617 H 331.286 -1.05001 3.72899 0
M  V30 3618 H 331.7 0.594162 5.21124 0
M  V30 3619 H 333.174 -1.10463 5.40834 0
M  V30 3620 H 333.651 -1.94775 3.93649 0
M  V30 3621 H 334.257 -0.303723 4.24214 0
M  V30 3622 N 332.573 -1.56217 0.208337 0
M  V30 3623 C 333.52 -2.19699 -0.707192 0
M  V30 3624 C 334.49 -1.14836 -1.20008 0
M  V30 3625 O 335.675 -1.4314 -1.26157 0
M  V30 3626 C 332.815 -2.87061 -1.91546 0
M  V30 3627 C 331.928 -4.06483 -1.46271 0
M  V30 3628 C 331.063 -4.61665 -2.62752 0
M  V30 3629 C 330.102 -5.73417 -2.14147 0
M  V30 3630 N 329.239 -6.22948 -3.23853 0
M  V30 3631 H 334.079 -2.97575 -0.159111 0
M  V30 3632 H 331.616 -1.46948 -0.0667874 0
M  V30 3633 H 333.574 -3.24294 -2.62468 0
M  V30 3634 H 332.204 -2.11725 -2.43664 0
M  V30 3635 H 331.256 -3.74825 -0.648886 0
M  V30 3636 H 332.568 -4.87271 -1.06622 0
M  V30 3637 H 331.722 -5.01272 -3.41776 0
M  V30 3638 H 330.461 -3.80013 -3.05682 0
M  V30 3639 H 329.466 -5.33326 -1.33581 0
M  V30 3640 H 330.691 -6.56897 -1.72232 0
M  V30 3641 H 328.637 -5.44213 -3.6629 0
M  V30 3642 H 328.554 -6.98823 -2.88414 0
M  V30 3643 H 329.822 -6.6721 -4.03052 0
M  V30 3644 N 334.051 0.0651679 -1.57465 0
M  V30 3645 C 335.328 0.79644 -1.78651 0
M  V30 3646 C 335.708 1.95454 -0.797566 0
M  V30 3647 O 335.056 2.27882 0.167946 0
M  V30 3648 C 335.266 1.26322 -3.25337 0
M  V30 3649 C 336.614 1.6939 -3.89348 0
M  V30 3650 O 337.638 1.35872 -3.29268 0
M  V30 3651 O 336.497 2.31471 -4.95059 0
M  V30 3652 H 333.591 0.382157 -0.733407 0
M  V30 3653 H 336.137 0.0447311 -1.69641 0
M  V30 3654 H 334.909 0.434859 -3.88876 0
M  V30 3655 H 334.532 2.07604 -3.39096 0
M  V30 3656 N 335.529 1.53961 0.336706 0
M  V30 3657 C 336.776 1.71536 1.07618 0
M  V30 3658 C 337.104 0.482125 1.8843 0
M  V30 3659 O 336.359 -0.536142 1.88213 0
M  V30 3660 C 336.658 2.93493 2.03953 0
M  V30 3661 C 336.324 4.28811 1.39399 0
M  V30 3662 C 334.986 4.65602 1.21523 0
M  V30 3663 C 337.338 5.12844 0.929541 0
M  V30 3664 C 334.666 5.84037 0.558312 0
M  V30 3665 C 337.018 6.31951 0.286505 0
M  V30 3666 C 335.682 6.67432 0.0954869 0
M  V30 3667 H 334.952 0.627696 0.393801 0
M  V30 3668 H 337.599 1.88186 0.354715 0
M  V30 3669 H 335.904 2.71475 2.82504 0
M  V30 3670 H 337.601 3.04285 2.61174 0
M  V30 3671 H 334.191 3.99858 1.54311 0
M  V30 3672 H 338.375 4.84947 1.05548 0
M  V30 3673 H 333.631 6.10097 0.398995 0
M  V30 3674 H 337.805 6.96352 -0.0814376 0
M  V30 3675 H 335.432 7.59063 -0.415579 0
M  V30 3676 N 337.007 -0.598083 1.45811 0
M  V30 3677 C 338.253 -1.35882 1.50545 0
M  V30 3678 C 338.586 -1.93616 0.150445 0
M  V30 3679 O 337.861 -1.75604 -0.83628 0
M  V30 3680 C 338.144 -2.49966 2.59208 0
M  V30 3681 C 337.997 -1.97367 4.04186 0
M  V30 3682 C 339.316 -3.52068 2.64076 0
M  V30 3683 H 336.435 -0.492717 0.548087 0
M  V30 3684 H 339.077 -0.673319 1.77669 0
M  V30 3685 H 337.227 -3.08443 2.3621 0
M  V30 3686 H 338.899 -1.43466 4.38423 0
M  V30 3687 H 337.142 -1.283 4.14393 0
M  V30 3688 H 337.813 -2.79649 4.75921 0
M  V30 3689 H 340.289 -3.03448 2.84708 0
M  V30 3690 H 339.165 -4.2937 3.41954 0
M  V30 3691 H 339.426 -4.08304 1.69531 0
M  V30 3692 N 338.485 -1.33259 -0.841409 0
M  V30 3693 C 339.715 -1.2742 -1.62628 0
M  V30 3694 C 340.123 0.157604 -1.88542 0
M  V30 3695 O 339.466 1.10938 -1.46419 0
M  V30 3696 C 339.528 -1.97797 -3.00194 0
M  V30 3697 C 339.192 -3.47109 -2.97261 0
M  V30 3698 C 340.189 -4.42358 -2.73159 0
M  V30 3699 C 337.874 -3.89247 -3.17478 0
M  V30 3700 C 339.868 -5.77718 -2.69296 0
M  V30 3701 C 337.555 -5.24713 -3.13241 0
M  V30 3702 C 338.553 -6.1876 -2.89181 0
M  V30 3703 O 338.241 -7.51745 -2.84843 0
M  V30 3704 H 337.973 -0.440436 -0.512827 0
M  V30 3705 H 340.527 -1.76153 -1.05638 0
M  V30 3706 H 338.757 -1.43652 -3.59028 0
M  V30 3707 H 340.446 -1.8549 -3.61038 0
M  V30 3708 H 341.212 -4.11127 -2.57294 0
M  V30 3709 H 337.091 -3.16456 -3.35226 0
M  V30 3710 H 340.635 -6.51097 -2.50436 0
M  V30 3711 H 336.532 -5.55569 -3.28654 0
M  V30 3712 H 337.3 -7.61262 -3.00702 0
M  V30 3713 N 339.963 1.05934 -1.16686 0
M  V30 3714 C 341.188 1.83029 -0.975455 0
M  V30 3715 C 341.613 1.82096 0.471452 0
M  V30 3716 O 340.971 1.22443 1.33706 0
M  V30 3717 C 341.019 3.27372 -1.51195 0
M  V30 3718 O 340.123 4.06054 -0.720701 0
M  V30 3719 H 339.464 0.566194 -0.346872 0
M  V30 3720 H 341.994 1.33541 -1.55009 0
M  V30 3721 H 342.004 3.78186 -1.53099 0
M  V30 3722 H 340.679 3.27366 -2.56523 0
M  V30 3723 H 339.256 3.64812 -0.772458 0
M  V30 3724 N 341.441 0.965919 1.2453 0
M  V30 3725 C 342.373 0.452465 2.2469 0
M  V30 3726 C 343.386 -0.437821 1.56802 0
M  V30 3727 O 344.575 -0.244283 1.76821 0
M  V30 3728 C 341.675 -0.366258 3.36915 0
M  V30 3729 C 340.848 0.513701 4.34373 0
M  V30 3730 C 339.907 -0.248716 5.25612 0
M  V30 3731 O 338.933 0.356745 5.68081 0
M  V30 3732 N 340.135 -1.53877 5.59734 0
M  V30 3733 H 342.9 1.31361 2.69378 0
M  V30 3734 H 340.461 0.837541 1.38553 0
M  V30 3735 H 342.453 -0.884297 3.94921 0
M  V30 3736 H 341.023 -1.12832 2.91526 0
M  V30 3737 H 340.243 1.21273 3.75082 0
M  V30 3738 H 341.531 1.11391 4.96457 0
M  V30 3739 H 340.929 -2.05243 5.27154 0
M  V30 3740 H 339.486 -2.00254 6.20275 0
M  V30 3741 N 342.919 -1.39368 0.735821 0
M  V30 3742 C 344.144 -2.05319 0.293052 0
M  V30 3743 C 344.569 -1.55115 -1.064 0
M  V30 3744 O 343.927 -0.695261 -1.67439 0
M  V30 3745 C 343.975 -3.59305 0.305323 0
M  V30 3746 O 343.079 -4.06299 -0.706761 0
M  V30 3747 H 342.42 -0.650529 0.13307 0
M  V30 3748 H 344.95 -1.78386 1.00197 0
M  V30 3749 H 344.96 -4.07724 0.149997 0
M  V30 3750 H 343.635 -3.95207 1.29553 0
M  V30 3751 H 342.212 -3.69292 -0.517504 0
M  V30 3752 N 344.397 -0.483516 -1.5 0
M  V30 3753 C 345.622 0.0667119 -2.07293 0
M  V30 3754 C 346.047 1.3164 -1.3436 0
M  V30 3755 O 345.405 1.76945 -0.394987 0
M  V30 3756 C 345.453 0.321126 -3.59167 0
M  V30 3757 O 344.557 1.39927 -3.87936 0
M  V30 3758 H 343.898 -0.0184758 -0.663743 0
M  V30 3759 H 346.428 -0.678125 -1.93035 0
M  V30 3760 H 346.438 0.557906 -4.04168 0
M  V30 3761 H 345.113 -0.592007 -4.11665 0
M  V30 3762 H 343.69 1.14882 -3.54763 0
M  V30 3763 N 345.875 1.56104 -0.216619 0
M  V30 3764 C 346.823 2.21434 0.712036 0
M  V30 3765 C 347.817 1.19218 1.20348 0
M  V30 3766 O 349.023 1.3731 1.16387 0
M  V30 3767 H 345.398 0.70992 0.248026 0
M  V30 3768 H 347.369 2.98083 0.137558 0
M  V30 3769 C 346.118 2.90434 1.91163 0
M  V30 3770 H 345.441 3.68842 1.54258 0
M  V30 3771 H 346.881 3.39552 2.5393 0
M  V30 3772 C 345.34 1.92635 2.76394 0
M  V30 3773 O 345.87 1.44017 3.74996 0
M  V30 3774 N 344.076 1.60392 2.42328 0
M  V30 3775 H 343.623 2.00122 1.622 0
M  V30 3776 H 343.581 0.952159 2.99635 0
M  V30 3777 N 347.353 -0.0568162 1.57498 0
M  V30 3778 C 348.593 -0.758273 1.89815 0
M  V30 3779 C 348.957 -1.73978 0.812132 0
M  V30 3780 O 350.158 -2.48744 1.01881 0
M  V30 3781 C 348.429 -1.43465 3.27342 0
M  V30 3782 S 349.988 -2.1691 3.81439 0
M  V30 3783 H 346.806 -0.251836 0.664906 0
M  V30 3784 H 349.408 -0.0137997 1.95495 0
M  V30 3785 H 348.112 -0.706693 4.0427 0
M  V30 3786 H 347.643 -2.21825 3.24896 0
M  V30 3787 H 349.658 -3.43658 3.5793 0
M  V30 3788 N 348.832 -1.54138 -0.328536 0
M  V30 3789 C 349.762 -1.86167 -1.40939 0
M  V30 3790 C 350.743 -0.718044 -1.54202 0
M  V30 3791 O 351.928 -0.971328 -1.68163 0
M  V30 3792 C 349.058 -2.08461 -2.77779 0
M  V30 3793 C 348.012 -3.24299 -2.7931 0
M  V30 3794 C 347.338 -3.31955 -4.19178 0
M  V30 3795 C 348.638 -4.62065 -2.43502 0
M  V30 3796 H 350.332 -2.76689 -1.14383 0
M  V30 3797 H 347.878 -1.33132 -0.548806 0
M  V30 3798 H 349.831 -2.29453 -3.53454 0
M  V30 3799 H 348.555 -1.14684 -3.05802 0
M  V30 3800 H 347.214 -3.03187 -2.0609 0
M  V30 3801 H 346.862 -2.35745 -4.44335 0
M  V30 3802 H 346.562 -4.09805 -4.2111 0
M  V30 3803 H 348.086 -3.55175 -4.96672 0
M  V30 3804 H 349.5 -4.8297 -3.08889 0
M  V30 3805 H 347.897 -5.42429 -2.56693 0
M  V30 3806 H 348.967 -4.64652 -1.38659 0
M  V30 3807 N 350.31 0.590341 -1.46126 0
M  V30 3808 C 351.557 1.34882 -1.5104 0
M  V30 3809 C 351.885 1.93849 -0.159021 0
M  V30 3810 O 351.14 1.76544 0.844436 0
M  V30 3811 C 351.439 2.5032 -2.55097 0
M  V30 3812 C 351.105 2.09394 -3.99331 0
M  V30 3813 C 349.767 1.97947 -4.38601 0
M  V30 3814 C 352.119 1.77712 -4.89967 0
M  V30 3815 C 349.447 1.53065 -5.66381 0
M  V30 3816 C 351.799 1.34312 -6.18177 0
M  V30 3817 C 350.463 1.21436 -6.56361 0
M  V30 3818 H 349.733 0.493568 -0.552695 0
M  V30 3819 H 352.38 0.665539 -1.79563 0
M  V30 3820 H 350.685 3.24062 -2.20207 0
M  V30 3821 H 352.382 3.08541 -2.56132 0
M  V30 3822 H 348.972 2.19235 -3.68285 0
M  V30 3823 H 353.156 1.85445 -4.60352 0
M  V30 3824 H 348.412 1.41733 -5.94745 0
M  V30 3825 H 352.586 1.08849 -6.87841 0
M  V30 3826 H 350.213 0.864345 -7.5527 0
M  V30 3827 N 351.788 1.33704 0.83433 0
M  V30 3828 C 353.065 1.16011 1.57483 0
M  V30 3829 C 353.445 -0.27176 2.09343 0
M  V30 3830 O 352.793 -1.27146 1.89858 0
M  V30 3831 C 353.003 2.20507 2.70514 0
M  V30 3832 C 354.351 2.54898 3.39577 0
M  V30 3833 O 355.375 2.19209 2.80759 0
M  V30 3834 O 354.234 3.16158 4.45765 0
M  V30 3835 H 351.328 0.448992 0.694503 0
M  V30 3836 H 353.874 1.453 0.876691 0
M  V30 3837 H 352.646 3.16667 2.29865 0
M  V30 3838 H 352.269 1.92329 3.47987 0
M  V30 3839 N 353.266 -1.05314 1.17247 0
M  V30 3840 C 354.682 -1.30452 0.919473 0
M  V30 3841 C 354.882 -1.9703 -0.42209 0
M  V30 3842 O 353.938 -2.24311 -1.15935 0
M  V30 3843 C 355.251 -2.17551 2.07586 0
M  V30 3844 C 356.799 -2.30937 2.11275 0
M  V30 3845 C 357.274 -3.21396 3.26296 0
M  V30 3846 N 358.765 -3.28981 3.26076 0
M  V30 3847 C 359.5 -3.99095 4.11716 0
M  V30 3848 N 358.996 -4.71648 5.07465 0
M  V30 3849 N 360.789 -3.95247 3.9967 0
M  V30 3850 H 352.94 -0.604988 2.03602 0
M  V30 3851 H 355.203 -0.329368 0.888944 0
M  V30 3852 H 354.909 -1.75921 3.0454 0
M  V30 3853 H 354.783 -3.18182 2.02584 0
M  V30 3854 H 357.17 -2.71809 1.14907 0
M  V30 3855 H 357.251 -1.2994 2.20339 0
M  V30 3856 H 356.895 -2.81238 4.22927 0
M  V30 3857 H 356.825 -4.22395 3.14467 0
M  V30 3858 H 359.316 -2.77286 2.5675 0
M  V30 3859 H 359.629 -5.22705 5.6921 0
M  V30 3860 H 357.974 -4.70594 5.11435 0
M  V30 3861 H 361.165 -3.37691 3.24164 0
M  V30 3862 H 361.338 -4.4962 4.66632 0
M  V30 3863 N 354.744 -0.972509 -1.24016 0
M  V30 3864 C 355.692 -0.498562 -2.27194 0
M  V30 3865 C 356.686 0.440372 -1.63576 0
M  V30 3866 O 357.892 0.315133 -1.7722 0
M  V30 3867 H 354.267 -0.142775 -0.738322 0
M  V30 3868 H 356.238 -1.38065 -2.64539 0
M  V30 3869 C 354.987 0.191072 -3.47175 0
M  V30 3870 H 354.31 -0.522318 -3.96373 0
M  V30 3871 H 355.75 0.486445 -4.212 0
M  V30 3872 C 354.209 1.41967 -3.05527 0
M  V30 3873 O 354.739 2.51642 -3.13112 0
M  V30 3874 N 352.945 1.28746 -2.60524 0
M  V30 3875 H 352.492 0.395089 -2.54552 0
M  V30 3876 H 352.45 2.11061 -2.33025 0
M  V30 3877 N 356.222 1.38976 -0.743202 0
M  V30 3878 C 357.452 2.04339 -0.304807 0
M  V30 3879 C 357.86 1.56162 1.06819 0
M  V30 3880 O 357.203 0.725284 1.68776 0
M  V30 3881 C 357.265 3.58716 -0.237369 0
M  V30 3882 C 356.929 4.29905 -1.55018 0
M  V30 3883 C 357.926 4.55987 -2.49744 0
M  V30 3884 C 355.611 4.68294 -1.81675 0
M  V30 3885 C 357.605 5.19478 -3.69353 0
M  V30 3886 C 355.292 5.31512 -3.0156 0
M  V30 3887 C 356.29 5.57037 -3.9522 0
M  V30 3888 O 355.978 6.18941 -5.12998 0
M  V30 3889 H 355.71 0.663439 -0.12971 0
M  V30 3890 H 358.264 1.78852 -1.01001 0
M  V30 3891 H 356.494 3.83133 0.524003 0
M  V30 3892 H 358.183 4.05543 0.170121 0
M  V30 3893 H 358.949 4.26767 -2.30423 0
M  V30 3894 H 354.828 4.47779 -1.09615 0
M  V30 3895 H 358.372 5.39318 -4.42473 0
M  V30 3896 H 354.269 5.60153 -3.20778 0
M  V30 3897 H 355.037 6.37433 -5.13441 0
M  V30 3898 N 357.7 0.491464 1.49741 0
M  V30 3899 C 358.928 -0.0535151 2.06831 0
M  V30 3900 C 359.343 -1.31683 1.35296 0
M  V30 3901 O 358.7 -1.77402 0.42836 0
M  V30 3902 C 358.751 -0.320835 3.60073 0
M  V30 3903 O 358.472 0.892394 4.28915 0
M  V30 3904 C 359.973 -0.910519 4.33848 0
M  V30 3905 H 357.193 0.0161909 0.670805 0
M  V30 3906 H 359.737 0.68609 1.92647 0
M  V30 3907 H 357.892 -1.0104 3.73991 0
M  V30 3908 H 358.306 0.649401 5.20464 0
M  V30 3909 H 359.78 -1.04721 5.41976 0
M  V30 3910 H 360.257 -1.90589 3.95692 0
M  V30 3911 H 360.863 -0.258712 4.24512 0
M  V30 3912 N 359.178 -1.55987 0.224894 0
M  V30 3913 C 360.108 -2.23426 -0.678457 0
M  V30 3914 C 361.089 -1.20709 -1.19847 0
M  V30 3915 O 362.274 -1.49304 -1.24186 0
M  V30 3916 C 359.404 -2.91676 -1.88527 0
M  V30 3917 C 358.358 -4.00893 -1.49896 0
M  V30 3918 C 357.684 -4.56455 -2.78483 0
M  V30 3919 C 358.984 -5.17769 -0.686461 0
M  V30 3920 H 360.678 -2.99175 -0.116173 0
M  V30 3921 H 358.224 -1.43897 -0.054436 0
M  V30 3922 H 360.177 -3.37547 -2.5227 0
M  V30 3923 H 358.901 -2.1338 -2.47258 0
M  V30 3924 H 357.56 -3.55758 -0.884985 0
M  V30 3925 H 357.208 -3.74886 -3.35365 0
M  V30 3926 H 356.908 -5.30169 -2.53368 0
M  V30 3927 H 358.432 -5.05047 -3.43162 0
M  V30 3928 H 359.846 -5.60001 -1.22767 0
M  V30 3929 H 358.243 -5.97735 -0.532259 0
M  V30 3930 H 359.313 -4.83932 0.306196 0
M  V30 3931 N 360.656 0.0484629 -1.57525 0
M  V30 3932 C 361.589 1.08755 -2.00618 0
M  V30 3933 C 362.567 1.36272 -0.887058 0
M  V30 3934 O 363.751 1.49255 -1.15131 0
M  V30 3935 C 360.878 2.42675 -2.36277 0
M  V30 3936 C 359.924 2.31142 -3.58435 0
M  V30 3937 S 360.757 1.68326 -5.08357 0
M  V30 3938 C 361.913 3.03776 -5.47239 0
M  V30 3939 H 362.146 0.720415 -2.88439 0
M  V30 3940 H 359.679 0.257801 -1.52233 0
M  V30 3941 H 361.637 3.19699 -2.57494 0
M  V30 3942 H 360.298 2.76541 -1.48942 0
M  V30 3943 H 359.491 3.29957 -3.80978 0
M  V30 3944 H 359.093 1.62258 -3.36969 0
M  V30 3945 H 361.385 4.00106 -5.46737 0
M  V30 3946 H 362.328 2.85988 -6.47778 0
M  V30 3947 H 362.736 3.05456 -4.74718 0
M  V30 3948 N 362.134 1.5431 0.320358 0
M  V30 3949 C 363.064 1.86912 1.3995 0
M  V30 3950 C 364.045 0.726211 1.53819 0
M  V30 3951 O 365.23 0.980233 1.67646 0
M  V30 3952 C 362.36 2.09932 2.7667 0
M  V30 3953 C 361.314 3.25776 2.77586 0
M  V30 3954 C 360.64 3.34173 4.17412 0
M  V30 3955 C 361.94 4.6335 2.41048 0
M  V30 3956 H 363.634 2.77292 1.12914 0
M  V30 3957 H 361.18 1.33421 0.541738 0
M  V30 3958 H 363.133 2.31324 3.52232 0
M  V30 3959 H 361.857 1.16304 3.0519 0
M  V30 3960 H 360.516 3.04276 2.04479 0
M  V30 3961 H 360.164 2.38098 4.43078 0
M  V30 3962 H 359.864 4.12033 4.18931 0
M  V30 3963 H 361.388 3.57803 4.94782 0
M  V30 3964 H 362.802 4.84602 3.06324 0
M  V30 3965 H 361.199 5.43782 2.53813 0
M  V30 3966 H 362.269 4.65381 1.36193 0
M  V30 3967 N 363.613 -0.582584 1.46437 0
M  V30 3968 C 364.56 -1.69164 1.5701 0
M  V30 3969 C 365.53 -1.60847 0.414403 0
M  V30 3970 O 366.715 -1.80058 0.631171 0
M  V30 3971 C 363.855 -3.075 1.56646 0
M  V30 3972 C 362.968 -3.2644 2.82951 0
M  V30 3973 C 362.103 -4.55026 2.7409 0
M  V30 3974 C 361.142 -4.6731 3.95333 0
M  V30 3975 N 360.279 -5.87221 3.84858 0
M  V30 3976 H 365.119 -1.59464 2.51744 0
M  V30 3977 H 362.656 -0.777186 1.24893 0
M  V30 3978 H 364.614 -3.8757 1.5442 0
M  V30 3979 H 363.244 -3.16096 0.654439 0
M  V30 3980 H 362.296 -2.39974 2.95155 0
M  V30 3981 H 363.608 -3.31385 3.72808 0
M  V30 3982 H 362.762 -5.43324 2.6997 0
M  V30 3983 H 361.501 -4.52519 1.81873 0
M  V30 3984 H 360.506 -3.77429 3.99784 0
M  V30 3985 H 361.731 -4.71595 4.88646 0
M  V30 3986 H 359.677 -5.85712 2.95427 0
M  V30 3987 H 359.594 -5.93435 4.6837 0
M  V30 3988 H 360.862 -6.7795 3.84713 0
M  V30 3989 N 365.091 -1.34144 -0.827227 0
M  V30 3990 C 366.368 -1.16844 -1.56865 0
M  V30 3991 C 366.748 0.260654 -2.09485 0
M  V30 3992 O 366.096 1.26138 -1.9053 0
M  V30 3993 C 366.306 -2.21939 -2.6934 0
M  V30 3994 C 367.654 -2.56695 -3.3822 0
M  V30 3995 O 368.678 -2.20695 -2.79593 0
M  V30 3996 O 367.537 -3.18518 -4.44082 0
M  V30 3997 H 364.631 -0.452669 -0.692112 0
M  V30 3998 H 367.177 -1.45763 -0.868973 0
M  V30 3999 H 365.949 -3.17882 -2.28182 0
M  V30 4000 H 365.572 -1.94172 -3.46962 0
M  V30 4001 N 366.569 1.04691 -1.17803 0
M  V30 4002 C 367.499 2.14494 -0.92275 0
M  V30 4003 C 368.48 1.69546 0.137179 0
M  V30 4004 O 369.665 1.94195 -0.0141108 0
M  V30 4005 C 366.795 3.44491 -0.440803 0
M  V30 4006 C 365.749 4.03031 -1.4405 0
M  V30 4007 C 365.075 5.28432 -0.81631 0
M  V30 4008 C 366.375 4.39932 -2.81527 0
M  V30 4009 H 368.069 2.36107 -1.84103 0
M  V30 4010 H 365.615 1.1347 -0.886599 0
M  V30 4011 H 367.568 4.2066 -0.249602 0
M  V30 4012 H 366.292 3.22546 0.513025 0
M  V30 4013 H 364.951 3.28937 -1.61853 0
M  V30 4014 H 364.599 5.02792 0.144511 0
M  V30 4015 H 364.299 5.68559 -1.48371 0
M  V30 4016 H 365.823 6.07284 -0.635496 0
M  V30 4017 H 367.237 5.07113 -2.67412 0
M  V30 4018 H 365.634 4.9109 -3.44892 0
M  V30 4019 H 366.704 3.50045 -3.35554 0
M  V30 4020 N 368.047 0.979072 1.23499 0
M  V30 4021 C 369.294 0.647219 1.91878 0
M  V30 4022 C 369.622 -0.819074 1.76413 0
M  V30 4023 O 368.877 -1.60616 1.11808 0
M  V30 4024 C 369.176 0.981932 3.43646 0
M  V30 4025 C 368.842 2.43822 3.79291 0
M  V30 4026 C 367.504 2.83622 3.88731 0
M  V30 4027 C 369.856 3.3828 3.96505 0
M  V30 4028 C 367.184 4.16897 4.12812 0
M  V30 4029 C 369.536 4.71197 4.22085 0
M  V30 4030 C 368.2 5.10758 4.29747 0
M  V30 4031 H 367.47 0.236834 0.702133 0
M  V30 4032 H 370.117 1.23268 1.46551 0
M  V30 4033 H 368.422 0.314365 3.90537 0
M  V30 4034 H 370.119 0.703395 3.94783 0
M  V30 4035 H 366.709 2.11966 3.72516 0
M  V30 4036 H 370.893 3.0871 3.88603 0
M  V30 4037 H 366.149 4.47157 4.16966 0
M  V30 4038 H 370.323 5.44348 4.34348 0
M  V30 4039 H 367.95 6.1405 4.48159 0
M  V30 4040 N 369.525 -1.3858 0.750561 0
M  V30 4041 C 370.455 -2.33102 0.136237 0
M  V30 4042 C 371.436 -1.54713 -0.706965 0
M  V30 4043 O 372.621 -1.83043 -0.648769 0
M  V30 4044 C 369.751 -3.38882 -0.760017 0
M  V30 4045 C 368.705 -4.27995 -0.0197785 0
M  V30 4046 C 368.031 -5.24605 -1.03408 0
M  V30 4047 C 369.331 -5.09554 1.14684 0
M  V30 4048 H 371.025 -2.84726 0.925822 0
M  V30 4049 H 368.571 -1.36898 0.446654 0
M  V30 4050 H 370.524 -4.0397 -1.19943 0
M  V30 4051 H 369.248 -2.85734 -1.58189 0
M  V30 4052 H 367.907 -3.64409 0.400184 0
M  V30 4053 H 367.555 -4.67746 -1.84994 0
M  V30 4054 H 367.255 -5.85081 -0.543464 0
M  V30 4055 H 368.779 -5.9257 -1.47288 0
M  V30 4056 H 370.193 -5.67899 0.785118 0
M  V30 4057 H 368.59 -5.7925 1.56812 0
M  V30 4058 H 369.66 -4.4347 1.96118 0
M  V30 4059 N 371.003 -0.499398 -1.49478 0
M  V30 4060 C 372.228 0.044722 -2.07352 0
M  V30 4061 C 372.653 1.30207 -1.35749 0
M  V30 4062 O 372.011 1.76516 -0.413732 0
M  V30 4063 C 372.059 0.283013 -3.59488 0
M  V30 4064 O 371.163 1.35804 -3.89398 0
M  V30 4065 H 370.504 -0.0255147 -0.66351 0
M  V30 4066 H 373.034 -0.698561 -1.92305 0
M  V30 4067 H 373.044 0.515007 -4.04737 0
M  V30 4068 H 371.719 -0.635636 -4.11014 0
M  V30 4069 H 370.296 1.11113 -3.55961 0
M  V30 4070 N 372.481 1.55866 -0.233164 0
M  V30 4071 C 373.897 1.59133 0.121988 0
M  V30 4072 C 374.097 1.25016 1.58029 0
M  V30 4073 O 373.153 0.990922 2.32243 0
M  V30 4074 C 374.466 2.99932 -0.214792 0
M  V30 4075 C 376.014 3.12601 -0.157971 0
M  V30 4076 C 376.489 4.55597 -0.46859 0
M  V30 4077 N 377.98 4.61305 -0.418585 0
M  V30 4078 C 378.715 5.69903 -0.63227 0
M  V30 4079 N 378.211 6.86819 -0.90835 0
M  V30 4080 N 380.004 5.59264 -0.563913 0
M  V30 4081 H 372.155 1.76315 -1.18434 0
M  V30 4082 H 374.418 0.820093 -0.475553 0
M  V30 4083 H 374.124 3.29588 -1.22739 0
M  V30 4084 H 373.998 3.74327 0.464691 0
M  V30 4085 H 376.385 2.82735 0.845283 0
M  V30 4086 H 376.466 2.40511 -0.871102 0
M  V30 4087 H 376.11 4.86182 -1.46934 0
M  V30 4088 H 376.04 5.25928 0.265865 0
M  V30 4089 H 378.531 3.77297 -0.213368 0
M  V30 4090 H 378.844 7.65507 -1.05919 0
M  V30 4091 H 377.189 6.88536 -0.945673 0
M  V30 4092 H 380.38 4.66802 -0.348372 0
M  V30 4093 H 380.553 6.43831 -0.733847 0
M  V30 4094 N 373.959 -0.0401083 1.57549 0
M  V30 4095 C 375.206 -0.733125 1.88763 0
M  V30 4096 C 375.534 -1.75946 0.829058 0
M  V30 4097 O 374.789 -1.94949 -0.171323 0
M  V30 4098 C 375.088 -1.44902 3.26708 0
M  V30 4099 C 374.754 -0.559707 4.47413 0
M  V30 4100 C 373.416 -0.314731 4.8017 0
M  V30 4101 C 375.768 0.0549743 5.21171 0
M  V30 4102 C 373.096 0.553886 5.8408 0
M  V30 4103 C 375.448 0.911229 6.26003 0
M  V30 4104 C 374.112 1.16577 6.57241 0
M  V30 4105 H 373.382 -0.268269 0.690733 0
M  V30 4106 H 376.029 0.00679408 1.91499 0
M  V30 4107 H 374.334 -2.26197 3.1991 0
M  V30 4108 H 376.031 -1.99058 3.48105 0
M  V30 4109 H 372.621 -0.760793 4.21794 0
M  V30 4110 H 376.805 -0.121344 4.96152 0
M  V30 4111 H 372.061 0.759518 6.06664 0
M  V30 4112 H 376.235 1.3941 6.82303 0
M  V30 4113 H 373.862 1.84058 7.37582 0
M  V30 4114 N 375.437 -1.54477 -0.31217 0
M  V30 4115 C 376.385 -1.85395 -1.40469 0
M  V30 4116 C 377.379 -0.726749 -1.53019 0
M  V30 4117 O 378.585 -0.910582 -1.55269 0
M  V30 4118 H 374.96 -0.587845 -0.46898 0
M  V30 4119 H 376.931 -2.76736 -1.11623 0
M  V30 4120 C 375.68 -2.10811 -2.76503 0
M  V30 4121 H 375.003 -2.97014 -2.67625 0
M  V30 4122 H 376.443 -2.3639 -3.51988 0
M  V30 4123 C 374.902 -0.903165 -3.24568 0
M  V30 4124 O 375.432 -0.118085 -4.01526 0
M  V30 4125 N 373.638 -0.711634 -2.81752 0
M  V30 4126 H 373.185 -1.35171 -2.19286 0
M  V30 4127 H 373.143 0.0930473 -3.14262 0
M  V30 4128 N 376.915 0.57481 -1.46744 0
M  V30 4129 C 378.14 1.36341 -1.56288 0
M  V30 4130 C 378.565 1.86954 -0.207347 0
M  V30 4131 O 377.923 1.62006 0.813871 0
M  V30 4132 C 377.971 2.52147 -2.57787 0
M  V30 4133 O 377.075 3.53834 -2.11838 0
M  V30 4134 H 376.416 0.405713 -0.525636 0
M  V30 4135 H 378.946 0.696453 -1.92382 0
M  V30 4136 H 378.956 2.98958 -2.77648 0
M  V30 4137 H 377.631 2.14663 -3.5622 0
M  V30 4138 H 376.208 3.1345 -2.01999 0
M  V30 4139 N 378.394 1.34581 0.820102 0
M  V30 4140 C 379.324 1.29038 1.94606 0
M  V30 4141 C 380.305 0.1673 1.69275 0
M  V30 4142 O 381.49 0.360112 1.90832 0
M  V30 4143 C 378.62 1.04793 3.31113 0
M  V30 4144 C 377.574 2.13597 3.70891 0
M  V30 4145 C 376.9 1.74537 5.05412 0
M  V30 4146 C 378.2 3.55451 3.8269 0
M  V30 4147 H 379.894 2.23248 1.99501 0
M  V30 4148 H 377.44 1.0747 0.958449 0
M  V30 4149 H 379.393 0.995592 4.0947 0
M  V30 4150 H 378.117 0.0702565 3.26524 0
M  V30 4151 H 376.776 2.17905 2.9481 0
M  V30 4152 H 376.424 0.754226 4.97313 0
M  V30 4153 H 376.124 2.47361 5.32997 0
M  V30 4154 H 377.648 1.70803 5.86224 0
M  V30 4155 H 379.062 3.5354 4.51312 0
M  V30 4156 H 377.459 4.26922 4.21732 0
M  V30 4157 H 378.529 3.92587 2.84611 0
M  V30 4158 N 379.872 -1.04064 1.18357 0
M  V30 4159 C 380.805 -2.11618 0.854 0
M  V30 4160 C 381.783 -1.61555 -0.184043 0
M  V30 4161 O 382.967 -1.88395 -0.0630048 0
M  V30 4162 C 380.094 -3.37574 0.27597 0
M  V30 4163 C 379.14 -4.06485 1.2912 0
M  V30 4164 S 379.973 -4.53543 2.84709 0
M  V30 4165 C 381.129 -5.82732 2.28417 0
M  V30 4166 H 381.362 -2.39247 1.76488 0
M  V30 4167 H 378.895 -1.16832 1.00944 0
M  V30 4168 H 380.853 -4.10468 -0.051026 0
M  V30 4169 H 379.514 -3.0806 -0.613028 0
M  V30 4170 H 378.707 -4.97024 0.835633 0
M  V30 4171 H 378.309 -3.39708 1.56443 0
M  V30 4172 H 380.601 -6.56677 1.66677 0
M  V30 4173 H 381.544 -6.33052 3.17256 0
M  V30 4174 H 381.952 -5.37838 1.71436 0
M  V30 4175 N 381.35 -0.985608 -1.22978 0
M  V30 4176 C 382.596 -0.65836 -1.91816 0
M  V30 4177 C 382.929 0.806692 -1.76653 0
M  V30 4178 O 382.204 1.58252 -1.13078 0
M  V30 4179 C 382.487 -1.056 -3.44268 0
M  V30 4180 C 382.34 -2.57906 -3.68516 0
M  V30 4181 C 383.659 -0.603781 -4.35939 0
M  V30 4182 H 380.778 -0.24065 -0.696604 0
M  V30 4183 H 383.42 -1.22783 -1.44998 0
M  V30 4184 H 381.57 -0.571445 -3.84274 0
M  V30 4185 H 383.242 -3.13976 -3.3796 0
M  V30 4186 H 381.485 -3.00305 -3.13048 0
M  V30 4187 H 382.156 -2.80779 -4.75255 0
M  V30 4188 H 384.632 -1.01987 -4.03408 0
M  V30 4189 H 383.508 -0.910383 -5.41298 0
M  V30 4190 H 383.769 0.495761 -4.39312 0
M  V30 4191 N 382.828 1.3818 -0.7579 0
M  V30 4192 C 383.758 2.33027 -0.148597 0
M  V30 4193 C 384.739 1.55085 0.69875 0
M  V30 4194 O 385.924 1.83384 0.639053 0
M  V30 4195 C 383.054 3.3928 0.742034 0
M  V30 4196 C 382.008 4.28 -0.00291946 0
M  V30 4197 C 381.334 5.25146 1.00625 0
M  V30 4198 C 382.634 5.08938 -1.17385 0
M  V30 4199 H 384.328 2.84231 -0.940909 0
M  V30 4200 H 381.874 1.36659 -0.453908 0
M  V30 4201 H 383.827 4.046 1.17799 0
M  V30 4202 H 382.551 2.86569 1.56671 0
M  V30 4203 H 381.21 3.64192 -0.419504 0
M  V30 4204 H 380.858 4.68721 1.8251 0
M  V30 4205 H 380.558 5.85361 0.512428 0
M  V30 4206 H 382.082 5.93342 1.44143 0
M  V30 4207 H 383.496 5.67474 -0.815224 0
M  V30 4208 H 381.893 5.7841 -1.59882 0
M  V30 4209 H 382.963 4.42424 -1.98468 0
M  V30 4210 N 384.306 0.507319 1.49211 0
M  V30 4211 C 385.236 -0.256939 2.32082 0
M  V30 4212 C 386.217 -0.956609 1.40652 0
M  V30 4213 O 387.402 -0.946788 1.69557 0
M  V30 4214 C 384.532 -1.31802 3.21318 0
M  V30 4215 C 383.486 -0.737855 4.21592 0
M  V30 4216 C 382.812 -1.89992 4.99807 0
M  V30 4217 C 384.112 0.275325 5.21574 0
M  V30 4218 H 385.806 0.434798 2.96226 0
M  V30 4219 H 383.352 0.210546 1.42452 0
M  V30 4220 H 385.305 -1.86045 3.78107 0
M  V30 4221 H 384.029 -2.03903 2.5513 0
M  V30 4222 H 382.688 -0.217126 3.65956 0
M  V30 4223 H 382.336 -2.60877 4.30061 0
M  V30 4224 H 382.036 -1.51777 5.6766 0
M  V30 4225 H 383.56 -2.44657 5.59442 0
M  V30 4226 H 384.974 -0.179193 5.7302 0
M  V30 4227 H 383.371 0.573649 5.97352 0
M  V30 4228 H 384.441 1.18903 4.70096 0
M  V30 4229 N 385.784 -1.5574 0.241426 0
M  V30 4230 C 387.009 -2.0366 -0.392111 0
M  V30 4231 C 387.434 -1.11969 -1.51144 0
M  V30 4232 O 386.792 -0.111594 -1.80956 0
M  V30 4233 C 386.84 -3.49638 -0.882371 0
M  V30 4234 O 385.944 -3.6108 -1.99235 0
M  V30 4235 H 385.285 -0.658379 -0.0862122 0
M  V30 4236 H 387.815 -2.01302 0.365881 0
M  V30 4237 H 387.825 -3.90351 -1.18702 0
M  V30 4238 H 386.5 -4.15852 -0.0632361 0
M  V30 4239 H 385.077 -3.32262 -1.69282 0
M  V30 4240 N 387.262 0.0317525 -1.57568 0
M  V30 4241 C 388.673 0.578692 -1.77505 0
M  V30 4242 C 389.024 1.75749 -0.872164 0
M  V30 4243 O 388.149 2.16298 -0.0663106 0
M  V30 4244 C 388.744 1.05658 -3.21904 0
M  V30 4245 C 387.303 1.54906 -3.43047 0
M  V30 4246 C 386.45 0.485939 -2.73009 0
M  V30 4247 H 389.401 -0.194475 -1.57504 0
M  V30 4248 H 389.422 1.92404 -3.28269 0
M  V30 4249 H 388.934 0.198422 -3.87592 0
M  V30 4250 H 387.035 2.42915 -2.82529 0
M  V30 4251 H 387.148 1.59841 -4.5165 0
M  V30 4252 H 385.512 0.940354 -2.36705 0
M  V30 4253 H 386.295 -0.362709 -3.41379 0
M  V30 4254 N 388.74 1.54641 0.303973 0
M  V30 4255 C 390.151 1.64811 0.877163 0
M  V30 4256 C 390.502 0.554838 1.88191 0
M  V30 4257 O 389.627 -0.309033 2.14182 0
M  V30 4258 C 390.222 2.9876 1.59775 0
M  V30 4259 C 388.781 3.11061 2.11938 0
M  V30 4260 C 387.928 2.60479 0.951097 0
M  V30 4261 H 390.879 1.58493 0.0810486 0
M  V30 4262 H 390.9 2.90017 2.46314 0
M  V30 4263 H 390.412 3.7831 0.866226 0
M  V30 4264 H 388.513 2.36225 2.88146 0
M  V30 4265 H 388.626 4.17171 2.35595 0
M  V30 4266 H 386.99 2.16859 1.33583 0
M  V30 4267 H 387.773 3.42504 0.233581 0
M  V30 4268 N 390.218 -0.567019 1.47046 0
M  V30 4269 C 391.128 -1.70247 1.6141 0
M  V30 4270 C 392.144 -1.66746 0.497157 0
M  V30 4271 O 393.32 -1.86371 0.763389 0
M  V30 4272 C 390.385 -3.06756 1.61561 0
M  V30 4273 C 389.446 -3.21399 2.84607 0
M  V30 4274 C 388.679 -4.51396 2.84741 0
M  V30 4275 O 388.902 -5.36255 1.94388 0
M  V30 4276 O 387.836 -4.69621 3.76483 0
M  V30 4277 H 391.662 -1.61073 2.57467 0
M  V30 4278 H 389.247 -0.735894 1.30019 0
M  V30 4279 H 391.129 -3.8801 1.64396 0
M  V30 4280 H 389.804 -3.16333 0.686684 0
M  V30 4281 H 388.711 -2.39579 2.8732 0
M  V30 4282 H 390.044 -3.16721 3.76761 0
M  V30 4283 N 391.696 -1.35014 -0.812953 0
M  V30 4284 C 393.107 -1.25035 -1.38648 0
M  V30 4285 C 393.458 0.119967 -1.95833 0
M  V30 4286 O 392.583 1.02069 -1.90816 0
M  V30 4287 C 393.178 -2.26394 -2.52054 0
M  V30 4288 C 391.737 -2.20175 -3.05287 0
M  V30 4289 C 390.884 -2.12451 -1.78213 0
M  V30 4290 H 393.835 -1.46235 -0.616516 0
M  V30 4291 H 393.856 -1.88672 -3.30429 0
M  V30 4292 H 393.368 -3.26116 -2.10404 0
M  V30 4293 H 391.469 -1.23841 -3.51417 0
M  V30 4294 H 391.582 -3.11863 -3.63701 0
M  V30 4295 H 389.946 -1.58328 -1.9951 0
M  V30 4296 H 390.729 -3.14024 -1.38723 0
M  V30 4297 N 393.175 1.03435 -1.18907 0
M  V30 4298 C 394.591 1.28973 -0.940111 0
M  V30 4299 C 394.791 1.97676 0.390691 0
M  V30 4300 O 393.847 2.26127 1.12352 0
M  V30 4301 C 395.16 2.14221 -2.11021 0
M  V30 4302 C 396.708 2.27547 -2.14922 0
M  V30 4303 C 397.183 3.16164 -3.31367 0
M  V30 4304 N 398.674 3.23752 -3.31269 0
M  V30 4305 C 399.409 3.92495 -4.18014 0
M  V30 4306 N 398.905 4.63515 -5.14904 0
M  V30 4307 N 400.698 3.88838 -4.05908 0
M  V30 4308 H 392.849 0.57252 -2.04538 0
M  V30 4309 H 395.112 0.315184 -0.894071 0
M  V30 4310 H 394.818 1.71054 -3.073 0
M  V30 4311 H 394.692 3.14919 -2.0762 0
M  V30 4312 H 397.079 2.69947 -1.19217 0
M  V30 4313 H 397.16 1.26418 -2.22378 0
M  V30 4314 H 396.804 2.74474 -4.27348 0
M  V30 4315 H 396.734 4.17339 -3.21148 0
M  V30 4316 H 399.225 2.73167 -2.61129 0
M  V30 4317 H 399.538 5.13583 -5.77453 0
M  V30 4318 H 397.883 4.62398 -5.18857 0
M  V30 4319 H 401.074 3.32491 -3.29495 0
M  V30 4320 H 401.247 4.4214 -4.73726 0
M  V30 4321 N 394.653 0.992116 1.22453 0
M  V30 4322 C 395.883 0.684949 1.94915 0
M  V30 4323 C 396.291 -0.754292 1.73514 0
M  V30 4324 O 395.634 -1.52056 1.03076 0
M  V30 4325 C 395.696 0.910054 3.47791 0
M  V30 4326 C 395.36 2.33363 3.92926 0
M  V30 4327 C 396.357 3.31308 4.00663 0
M  V30 4328 C 394.042 2.66785 4.25595 0
M  V30 4329 C 396.036 4.6075 4.40441 0
M  V30 4330 C 393.723 3.96446 4.65053 0
M  V30 4331 C 394.721 4.9324 4.72444 0
M  V30 4332 O 394.409 6.20584 5.1101 0
M  V30 4333 H 394.141 0.25258 0.62704 0
M  V30 4334 H 396.695 1.32939 1.56577 0
M  V30 4335 H 394.925 0.208443 3.86138 0
M  V30 4336 H 396.614 0.598257 4.01467 0
M  V30 4337 H 397.38 3.0682 3.75615 0
M  V30 4338 H 393.259 1.92148 4.19047 0
M  V30 4339 H 396.803 5.363 4.46126 0
M  V30 4340 H 392.7 4.20724 4.89552 0
M  V30 4341 H 393.468 6.24509 5.29085 0
M  V30 4342 N 396.131 -1.37776 0.765217 0
M  V30 4343 C 397.356 -2.04651 0.336537 0
M  V30 4344 C 397.781 -1.57337 -1.03086 0
M  V30 4345 O 397.139 -0.730621 -1.65927 0
M  V30 4346 C 397.187 -3.58577 0.381468 0
M  V30 4347 O 396.291 -4.07706 -0.62042 0
M  V30 4348 H 395.632 -0.64756 0.146838 0
M  V30 4349 H 398.162 -1.76221 1.03959 0
M  V30 4350 H 398.172 -4.07314 0.236448 0
M  V30 4351 H 396.847 -3.9237 1.37907 0
M  V30 4352 H 395.424 -3.70306 -0.439056 0
M  V30 4353 N 397.609 -0.515225 -1.4894 0
M  V30 4354 C 398.886 0.0879088 -1.95402 0
M  V30 4355 C 399.266 1.52745 -1.45712 0
M  V30 4356 O 398.614 2.18238 -0.677093 0
M  V30 4357 C 398.824 -0.0141055 -3.48997 0
M  V30 4358 C 400.172 0.152646 -4.24326 0
M  V30 4359 O 401.196 0.0604025 -3.56149 0
M  V30 4360 O 400.055 0.34384 -5.45417 0
M  V30 4361 H 397.149 0.0874636 -0.822362 0
M  V30 4362 H 399.695 -0.578775 -1.59525 0
M  V30 4363 H 398.467 -1.01745 -3.77841 0
M  V30 4364 H 398.09 0.692091 -3.9153 0
M  V30 4365 N 399.087 1.5561 -0.249682 0
M  V30 4366 C 400.364 1.90932 0.424761 0
M  V30 4367 C 400.744 1.17078 1.75658 0
M  V30 4368 O 400.092 0.289176 2.26663 0
M  V30 4369 C 400.302 3.43975 0.590109 0
M  V30 4370 C 401.65 4.15281 0.884714 0
M  V30 4371 O 402.674 3.49729 0.67587 0
M  V30 4372 O 401.533 5.31236 1.28259 0
M  V30 4373 H 398.627 0.794815 0.228468 0
M  V30 4374 H 401.173 1.67135 -0.293954 0
M  V30 4375 H 399.945 3.89748 -0.34818 0
M  V30 4376 H 399.568 3.73644 1.35926 0
M  V30 4377 N 400.565 -0.0233959 1.57583 0
M  V30 4378 C 401.495 -1.02162 2.09965 0
M  V30 4379 C 402.476 -1.3735 1.00344 0
M  V30 4380 O 403.661 -1.46135 1.27899 0
M  V30 4381 C 400.791 -2.32081 2.58371 0
M  V30 4382 C 399.745 -2.1112 3.72307 0
M  V30 4383 C 399.071 -3.46848 4.06941 0
M  V30 4384 C 400.371 -1.49276 5.00514 0
M  V30 4385 H 402.065 -0.585557 2.93618 0
M  V30 4386 H 399.611 -0.280218 1.41247 0
M  V30 4387 H 401.564 -3.02249 2.93639 0
M  V30 4388 H 400.288 -2.77758 1.71808 0
M  V30 4389 H 398.947 -1.43384 3.37397 0
M  V30 4390 H 398.595 -3.90184 3.17436 0
M  V30 4391 H 398.295 -3.33646 4.83688 0
M  V30 4392 H 399.819 -4.18369 4.44747 0
M  V30 4393 H 401.233 -2.09368 5.33702 0
M  V30 4394 H 399.63 -1.46632 5.8191 0
M  V30 4395 H 400.7 -0.459217 4.82721 0
M  V30 4396 N 402.043 -1.548 -0.295768 0
M  V30 4397 C 403.292 -1.73538 -1.02798 0
M  V30 4398 C 403.605 -0.531159 -1.8825 0
M  V30 4399 O 404.811 -0.600458 -2.64777 0
M  V30 4400 C 403.267 -3.07051 -1.87744 0
M  V30 4401 C 402.875 -4.34968 -1.07269 0
M  V30 4402 C 404.619 -3.35146 -2.60533 0
M  V30 4403 C 402.526 -5.5953 -1.91521 0
M  V30 4404 H 401.456 -0.646794 -0.387522 0
M  V30 4405 H 404.107 -1.81278 -0.284718 0
M  V30 4406 H 402.489 -2.93289 -2.66078 0
M  V30 4407 H 403.663 -4.5958 -0.335117 0
M  V30 4408 H 401.978 -4.13847 -0.460384 0
M  V30 4409 H 404.575 -4.2541 -3.23929 0
M  V30 4410 H 404.918 -2.54255 -3.29636 0
M  V30 4411 H 405.451 -3.49902 -1.89244 0
M  V30 4412 H 402.19 -6.43103 -1.26878 0
M  V30 4413 H 401.71 -5.39096 -2.62937 0
M  V30 4414 H 403.389 -5.96982 -2.49442 0
M  V30 4415 N 403.521 0.559213 -1.47345 0
M  V30 4416 C 404.746 1.34676 -1.57725 0
M  V30 4417 C 405.171 1.86723 -0.227164 0
M  V30 4418 O 404.529 1.6286 0.796642 0
M  V30 4419 C 404.577 2.49399 -2.60447 0
M  V30 4420 O 403.681 3.51567 -2.15578 0
M  V30 4421 H 403.022 0.400115 -0.52991 0
M  V30 4422 H 405.552 0.676009 -1.93109 0
M  V30 4423 H 405.562 2.95996 -2.80803 0
M  V30 4424 H 404.237 2.10873 -3.58477 0
M  V30 4425 H 402.814 3.11289 -2.05313 0
M  V30 4426 N 404.999 1.35443 0.805782 0
M  V30 4427 C 405.931 1.24285 1.92577 0
M  V30 4428 C 406.944 0.165962 1.61952 0
M  V30 4429 O 408.133 0.419303 1.73505 0
M  V30 4430 C 405.233 0.891272 3.2697 0
M  V30 4431 C 404.406 2.06669 3.85495 0
M  V30 4432 C 403.465 1.69077 4.98297 0
M  V30 4433 O 402.491 2.4096 5.15681 0
M  V30 4434 N 403.693 0.614869 5.77234 0
M  V30 4435 H 406.458 2.20777 2.02676 0
M  V30 4436 H 404.019 1.28623 0.983243 0
M  V30 4437 H 406.011 0.621256 3.99903 0
M  V30 4438 H 404.581 0.016004 3.12596 0
M  V30 4439 H 403.801 2.50046 3.04747 0
M  V30 4440 H 405.089 2.85237 4.21328 0
M  V30 4441 H 404.487 0.017648 5.65697 0
M  V30 4442 H 403.044 0.404636 6.50543 0
M  V30 4443 N 406.477 -1.02803 1.19454 0
M  V30 4444 C 407.407 -2.12999 0.956758 0
M  V30 4445 C 408.388 -1.69743 -0.110188 0
M  V30 4446 O 409.573 -1.94148 0.0450038 0
M  V30 4447 C 406.703 -3.43746 0.495553 0
M  V30 4448 C 405.657 -4.00688 1.50443 0
M  V30 4449 C 404.983 -5.27067 0.900275 0
M  V30 4450 C 406.283 -4.35397 2.8849 0
M  V30 4451 H 407.977 -2.33148 1.87836 0
M  V30 4452 H 405.523 -1.12045 0.904539 0
M  V30 4453 H 407.476 -4.2021 0.316493 0
M  V30 4454 H 406.2 -3.23321 -0.461646 0
M  V30 4455 H 404.859 -3.2632 1.67065 0
M  V30 4456 H 404.507 -5.02959 -0.064503 0
M  V30 4457 H 404.207 -5.66127 1.57397 0
M  V30 4458 H 405.731 -6.06196 0.73203 0
M  V30 4459 H 407.145 -5.02795 2.75446 0
M  V30 4460 H 405.542 -4.85541 3.52661 0
M  V30 4461 H 406.612 -3.44662 3.41081 0
M  V30 4462 N 407.956 -0.998596 -1.21925 0
M  V30 4463 C 409.196 -0.685948 -1.92546 0
M  V30 4464 C 409.56 0.768441 -1.75952 0
M  V30 4465 O 410.761 1.19277 -2.40887 0
M  V30 4466 C 409.032 -1.08767 -3.40448 0
M  V30 4467 S 410.591 -0.894251 -4.29591 0
M  V30 4468 H 407.409 -0.250622 -0.665364 0
M  V30 4469 H 410.011 -1.28207 -1.47591 0
M  V30 4470 H 408.715 -2.14242 -3.50041 0
M  V30 4471 H 408.246 -0.48357 -3.90417 0
M  V30 4472 H 410.261 0.212149 -4.95746 0
M  V30 4473 N 409.434 1.37368 -0.772513 0
M  V30 4474 C 410.366 2.28899 -0.117502 0
M  V30 4475 C 411.379 1.4867 0.663405 0
M  V30 4476 O 412.568 1.71314 0.501372 0
M  V30 4477 C 409.668 3.2788 0.857192 0
M  V30 4478 C 408.841 4.37207 0.129938 0
M  V30 4479 C 407.9 5.16257 1.01811 0
M  V30 4480 O 406.926 5.67159 0.481601 0
M  V30 4481 N 408.128 5.31058 2.3443 0
M  V30 4482 H 410.893 2.85752 -0.903662 0
M  V30 4483 H 408.454 1.49353 -0.62493 0
M  V30 4484 H 410.446 3.77647 1.45482 0
M  V30 4485 H 409.016 2.7179 1.54432 0
M  V30 4486 H 408.236 3.88827 -0.648605 0
M  V30 4487 H 409.524 5.07434 -0.372559 0
M  V30 4488 H 408.922 4.91287 2.80452 0
M  V30 4489 H 407.479 5.84131 2.89197 0
M  V30 4490 N 410.912 0.523116 1.48665 0
M  V30 4491 C 411.842 -0.23231 2.32342 0
M  V30 4492 C 412.823 -0.941637 1.41659 0
M  V30 4493 O 414.008 -0.928751 1.70552 0
M  V30 4494 C 411.138 -1.28387 3.22698 0
M  V30 4495 C 410.092 -0.693098 4.22351 0
M  V30 4496 C 409.418 -1.8468 5.01794 0
M  V30 4497 C 410.718 0.33063 5.21252 0
M  V30 4498 H 412.412 0.466192 2.95748 0
M  V30 4499 H 409.958 0.225643 1.42221 0
M  V30 4500 H 411.911 -1.82024 3.80059 0
M  V30 4501 H 410.635 -2.01186 2.57278 0
M  V30 4502 H 409.294 -0.178299 3.66166 0
M  V30 4503 H 408.942 -2.56301 4.32804 0
M  V30 4504 H 408.642 -1.45747 5.69238 0
M  V30 4505 H 410.166 -2.38709 5.62006 0
M  V30 4506 H 411.58 -0.118407 5.73178 0
M  V30 4507 H 409.977 0.636974 5.9671 0
M  V30 4508 H 411.047 1.23883 4.68808 0
M  V30 4509 N 412.39 -1.55475 0.257931 0
M  V30 4510 C 413.62 -2.03314 -0.367026 0
M  V30 4511 C 414.028 -1.13625 -1.51281 0
M  V30 4512 O 413.371 -0.145334 -1.83124 0
M  V30 4513 C 413.433 -3.47362 -0.926284 0
M  V30 4514 C 413.097 -4.56914 0.0886584 0
M  V30 4515 C 414.094 -5.12013 0.902123 0
M  V30 4516 C 411.779 -5.01827 0.217936 0
M  V30 4517 C 413.773 -6.10529 1.83122 0
M  V30 4518 C 411.46 -6.00172 1.15052 0
M  V30 4519 C 412.458 -6.54402 1.95568 0
M  V30 4520 O 412.146 -7.50827 2.87253 0
M  V30 4521 H 411.878 -0.669976 -0.0900443 0
M  V30 4522 H 414.432 -2.01804 0.382673 0
M  V30 4523 H 412.662 -3.46056 -1.72575 0
M  V30 4524 H 414.351 -3.78637 -1.46249 0
M  V30 4525 H 415.117 -4.78139 0.812891 0
M  V30 4526 H 410.996 -4.59272 -0.398721 0
M  V30 4527 H 414.54 -6.52783 2.46008 0
M  V30 4528 H 410.437 -6.33465 1.24064 0
M  V30 4529 H 411.205 -7.68483 2.81739 0
M  V30 4530 N 413.868 0.0150385 -1.57593 0
M  V30 4531 C 415.117 0.702115 -1.89085 0
M  V30 4532 C 415.43 1.75764 -0.858277 0
M  V30 4533 O 416.636 2.49829 -1.0629 0
M  V30 4534 C 415.092 1.29992 -3.35604 0
M  V30 4535 C 414.7 0.280007 -4.47124 0
M  V30 4536 C 416.444 1.96606 -3.76227 0
M  V30 4537 C 414.351 0.886949 -5.84711 0
M  V30 4538 H 413.281 0.265997 -0.705522 0
M  V30 4539 H 415.932 -0.0430408 -1.8345 0
M  V30 4540 H 414.314 2.09525 -3.36029 0
M  V30 4541 H 415.488 -0.489631 -4.58191 0
M  V30 4542 H 413.803 -0.284835 -4.15425 0
M  V30 4543 H 416.4 2.42893 -4.76347 0
M  V30 4544 H 416.743 2.79024 -3.08952 0
M  V30 4545 H 417.276 1.23828 -3.78036 0
M  V30 4546 H 414.015 0.101876 -6.55421 0
M  V30 4547 H 413.535 1.6261 -5.77337 0
M  V30 4548 H 415.214 1.39011 -6.3189 0
M  V30 4549 N 415.346 1.54954 0.287554 0
M  V30 4550 C 416.309 1.86076 1.33823 0
M  V30 4551 C 417.309 0.734414 1.43049 0
M  V30 4552 O 418.499 1.00266 1.42452 0
M  V30 4553 C 415.631 2.05305 2.72144 0
M  V30 4554 H 416.824 2.79984 1.07465 0
M  V30 4555 H 414.377 1.47223 0.524902 0
M  V30 4556 H 415.112 1.1373 3.03704 0
M  V30 4557 H 414.897 2.873 2.66836 0
M  V30 4558 H 416.387 2.30706 3.48087 0
M  V30 4559 N 416.824 -0.551391 1.4764 0
M  V30 4560 C 418.072 -1.30572 1.54258 0
M  V30 4561 C 418.393 -1.93877 0.208963 0
M  V30 4562 O 417.663 -1.80234 -0.767619 0
M  V30 4563 H 416.243 -0.484894 0.568231 0
M  V30 4564 H 418.905 -0.643402 1.83974 0
M  V30 4565 H 418.001 -2.09621 2.31226 0
M  V30 4566 N 418.302 -1.35869 -0.798587 0
M  V30 4567 C 419.579 -1.20145 -1.54352 0
M  V30 4568 C 419.959 0.216161 -2.0999 0
M  V30 4569 O 419.307 1.22068 -1.93162 0
M  V30 4570 C 419.517 -2.27602 -2.64572 0
M  V30 4571 C 420.865 -2.63811 -3.32699 0
M  V30 4572 O 421.889 -2.26576 -2.74849 0
M  V30 4573 O 420.748 -3.27866 -4.37226 0
M  V30 4574 H 417.842 -0.467248 -0.682355 0
M  V30 4575 H 420.388 -1.47574 -0.837859 0
M  V30 4576 H 419.16 -3.2265 -2.21388 0
M  V30 4577 H 418.783 -2.01488 -3.42766 0
M  V30 4578 N 419.78 1.02168 -1.19998 0
M  V30 4579 C 420.712 2.10705 -0.901994 0
M  V30 4580 C 421.725 1.6244 0.108216 0
M  V30 4581 O 422.914 1.78082 -0.12214 0
M  V30 4582 C 420.014 3.37291 -0.329834 0
M  V30 4583 C 419.187 4.14714 -1.39035 0
M  V30 4584 C 418.246 5.19606 -0.830432 0
M  V30 4585 O 417.272 5.48809 -1.50989 0
M  V30 4586 N 418.474 5.79366 0.362696 0
M  V30 4587 H 421.239 2.36856 -1.83628 0
M  V30 4588 H 418.8 1.18518 -1.10296 0
M  V30 4589 H 420.792 4.04657 0.0587633 0
M  V30 4590 H 419.362 3.0843 0.508891 0
M  V30 4591 H 418.582 3.42392 -1.9535 0
M  V30 4592 H 419.87 4.63226 -2.10474 0
M  V30 4593 H 419.268 5.57968 0.932081 0
M  V30 4594 H 417.825 6.48106 0.69299 0
M  V30 4595 N 421.258 1.00505 1.21394 0
M  V30 4596 C 422.504 0.688793 1.90745 0
M  V30 4597 C 422.837 -0.778486 1.77914 0
M  V30 4598 O 422.112 -1.56433 1.15581 0
M  V30 4599 C 422.395 1.11063 3.42545 0
M  V30 4600 C 422.248 2.63737 3.64367 0
M  V30 4601 C 423.567 0.673059 4.34923 0
M  V30 4602 H 420.686 0.251702 0.692687 0
M  V30 4603 H 423.328 1.25074 1.43026 0
M  V30 4604 H 421.478 0.632508 3.83317 0
M  V30 4605 H 423.15 3.19313 3.32922 0
M  V30 4606 H 421.393 3.05248 3.08231 0
M  V30 4607 H 422.064 2.88305 4.70727 0
M  V30 4608 H 424.54 1.08392 4.01734 0
M  V30 4609 H 423.416 0.996383 5.39781 0
M  V30 4610 H 423.677 -0.425808 4.40045 0
M  V30 4611 N 422.737 -1.36956 0.779787 0
M  V30 4612 C 423.667 -2.32761 0.185651 0
M  V30 4613 C 424.648 -1.56177 -0.673989 0
M  V30 4614 O 425.833 -1.84378 -0.609797 0
M  V30 4615 C 422.963 -3.40418 -0.687964 0
M  V30 4616 C 421.917 -4.27941 0.0710102 0
M  V30 4617 C 421.243 -5.26681 -0.922573 0
M  V30 4618 C 422.543 -5.07006 1.25467 0
M  V30 4619 H 424.237 -2.82698 0.986008 0
M  V30 4620 H 421.783 -1.3592 0.475592 0
M  V30 4621 H 423.736 -4.06423 -1.11348 0
M  V30 4622 H 422.46 -2.89025 -1.52093 0
M  V30 4623 H 421.119 -3.63478 0.47739 0
M  V30 4624 H 420.767 -4.71565 -1.7503 0
M  V30 4625 H 420.467 -5.86103 -0.419237 0
M  V30 4626 H 421.991 -5.9556 -1.34686 0
M  V30 4627 H 423.405 -5.66105 0.905401 0
M  V30 4628 H 421.802 -5.75793 1.69063 0
M  V30 4629 H 422.872 -4.3921 2.05481 0
M  V30 4630 N 424.215 -0.530993 -1.48385 0
M  V30 4631 C 425.44 0.000729535 -2.074 0
M  V30 4632 C 425.865 1.27298 -1.3848 0
M  V30 4633 O 425.223 1.75599 -0.451081 0
M  V30 4634 C 425.271 0.206697 -3.60007 0
M  V30 4635 O 424.375 1.27514 -3.92191 0
M  V30 4636 H 423.716 -0.039583 -0.662819 0
M  V30 4637 H 426.246 -0.739194 -1.9078 0
M  V30 4638 H 426.256 0.42904 -4.05738 0
M  V30 4639 H 424.931 -0.722675 -4.09573 0
M  V30 4640 H 423.508 1.03537 -3.58238 0
M  V30 4641 N 425.693 1.55336 -0.266172 0
M  V30 4642 C 426.626 2.18256 0.666296 0
M  V30 4643 C 427.604 1.14064 1.1588 0
M  V30 4644 O 428.788 1.42546 1.23341 0
M  V30 4645 C 425.915 2.79867 1.90768 0
M  V30 4646 C 424.961 3.97283 1.55141 0
M  V30 4647 S 425.794 5.31694 0.637313 0
M  V30 4648 C 426.95 5.96769 1.88727 0
M  V30 4649 H 427.183 2.97008 0.131647 0
M  V30 4650 H 424.716 1.54317 -0.0504869 0
M  V30 4651 H 426.674 3.15996 2.62025 0
M  V30 4652 H 425.335 2.01025 2.41346 0
M  V30 4653 H 424.528 4.3905 2.4749 0
M  V30 4654 H 424.13 3.6253 0.919113 0
M  V30 4655 H 426.422 6.15458 2.83227 0
M  V30 4656 H 427.365 6.91752 1.51276 0
M  V30 4657 H 427.773 5.26034 2.04814 0
M  V30 4658 N 427.171 -0.0066808 1.57599 0
M  V30 4659 C 428.411 -0.697501 1.92131 0
M  V30 4660 C 428.775 -1.71306 0.867071 0
M  V30 4661 O 429.976 -2.45377 1.09743 0
M  V30 4662 C 428.247 -1.32978 3.3174 0
M  V30 4663 S 429.806 -2.04665 3.88146 0
M  V30 4664 H 426.624 -0.230555 0.672581 0
M  V30 4665 H 429.226 0.0484026 1.9544 0
M  V30 4666 H 427.93 -0.57772 4.06313 0
M  V30 4667 H 427.461 -2.11376 3.31789 0
M  V30 4668 H 429.476 -3.32097 3.68682 0
M  V30 4669 N 428.649 -1.55105 -0.279332 0
M  V30 4670 C 429.897 -1.75066 -1.00977 0
M  V30 4671 C 430.218 -0.551276 -1.87045 0
M  V30 4672 O 429.488 0.433984 -1.91032 0
M  V30 4673 H 428.068 -0.645578 -0.375816 0
M  V30 4674 H 430.73 -1.92497 -0.305089 0
M  V30 4675 H 429.826 -2.64894 -1.65038 0
M  V30 4676 N 430.127 0.543554 -1.4793 0
M  V30 4677 C 431.075 1.67039 -1.61866 0
M  V30 4678 C 432.069 1.62294 -0.48549 0
M  V30 4679 O 433.275 1.67315 -0.66376 0
M  V30 4680 H 429.65 0.552954 -0.509652 0
M  V30 4681 H 431.621 1.52426 -2.56533 0
M  V30 4682 C 430.37 3.05357 -1.6629 0
M  V30 4683 H 429.693 3.09696 -2.5284 0
M  V30 4684 H 431.133 3.83855 -1.80088 0
M  V30 4685 C 429.592 3.34531 -0.398861 0
M  V30 4686 O 430.122 3.98649 0.494162 0
M  V30 4687 N 428.328 2.89299 -0.2747 0
M  V30 4688 H 427.875 2.37298 -1.00236 0
M  V30 4689 H 427.833 3.09188 0.570075 0
M  V30 4690 N 431.605 1.3629 0.791371 0
M  V30 4691 C 432.83 1.33726 1.58531 0
M  V30 4692 C 433.255 -0.0794933 1.87932 0
M  V30 4693 O 432.613 -1.05087 1.47738 0
M  V30 4694 C 432.661 2.16425 2.88431 0
M  V30 4695 O 431.765 1.5554 3.81944 0
M  V30 4696 H 431.106 0.457793 0.480959 0
M  V30 4697 H 433.636 1.79547 0.981031 0
M  V30 4698 H 433.646 2.28933 3.37718 0
M  V30 4699 H 432.321 3.19415 2.66359 0
M  V30 4700 H 430.898 1.51961 3.40532 0
M  V30 4701 N 433.083 -1.0153 1.20538 0
M  V30 4702 C 434.331 -1.74803 1.01432 0
M  V30 4703 C 434.652 -1.8963 -0.454456 0
M  V30 4704 O 433.922 -1.43975 -1.32846 0
M  V30 4705 H 432.502 -0.647598 0.372324 0
M  V30 4706 H 435.164 -1.22402 1.5167 0
M  V30 4707 H 434.26 -2.75114 1.47373 0
M  V30 4708 N 434.561 -1.01147 -1.20859 0
M  V30 4709 C 435.791 -0.715872 -1.93801 0
M  V30 4710 C 436.199 0.726592 -1.74692 0
M  V30 4711 O 435.542 1.50397 -1.05482 0
M  V30 4712 C 435.604 -0.965269 -3.46299 0
M  V30 4713 C 435.268 -2.39584 -3.89164 0
M  V30 4714 C 436.265 -3.3764 -3.95342 0
M  V30 4715 C 433.95 -2.73522 -4.21297 0
M  V30 4716 C 435.944 -4.67698 -4.33056 0
M  V30 4717 C 433.631 -4.03794 -4.58687 0
M  V30 4718 C 434.629 -5.00693 -4.64538 0
M  V30 4719 O 434.317 -6.28635 -5.01072 0
M  V30 4720 H 434.049 -0.262524 -0.622942 0
M  V30 4721 H 436.603 -1.35413 -1.54443 0
M  V30 4722 H 434.833 -0.269847 -3.85757 0
M  V30 4723 H 436.522 -0.662051 -4.00464 0
M  V30 4724 H 437.288 -3.12757 -3.70686 0
M  V30 4725 H 433.167 -1.9879 -4.15937 0
M  V30 4726 H 436.711 -5.4333 -4.37537 0
M  V30 4727 H 432.608 -4.28459 -4.82797 0
M  V30 4728 H 433.376 -6.32847 -5.19083 0
M  V30 4729 N 436.039 1.36541 -0.78704 0
M  V30 4730 C 436.949 2.3387 -0.184896 0
M  V30 4731 C 437.965 1.60927 0.661697 0
M  V30 4732 O 439.141 1.92927 0.57804 0
M  V30 4733 C 436.206 3.40122 0.672145 0
M  V30 4734 C 435.267 4.28867 -0.19267 0
M  V30 4735 C 434.5 5.30045 0.623561 0
M  V30 4736 O 434.723 5.39232 1.8597 0
M  V30 4737 O 433.657 6.01895 0.0247068 0
M  V30 4738 H 437.483 2.87126 -0.989562 0
M  V30 4739 H 435.068 1.38969 -0.548455 0
M  V30 4740 H 436.95 4.05093 1.16094 0
M  V30 4741 H 435.625 2.89169 1.45474 0
M  V30 4742 H 434.532 3.66945 -0.728166 0
M  V30 4743 H 435.865 4.83165 -0.938722 0
M  V30 4744 N 437.518 0.538854 1.48102 0
M  V30 4745 C 438.764 0.00801365 2.02798 0
M  V30 4746 C 439.097 -1.3309 1.41424 0
M  V30 4747 O 438.372 -1.86169 0.563158 0
M  V30 4748 C 438.655 -0.104589 3.59948 0
M  V30 4749 C 438.508 1.26012 4.31788 0
M  V30 4750 C 439.827 -0.827055 4.32259 0
M  V30 4751 H 436.946 0.00438624 0.736987 0
M  V30 4752 H 439.588 0.6976 1.7673 0
M  V30 4753 H 437.738 -0.691893 3.82289 0
M  V30 4754 H 439.41 1.88922 4.2084 0
M  V30 4755 H 437.653 1.83968 3.92859 0
M  V30 4756 H 438.324 1.13424 5.40221 0
M  V30 4757 H 440.8 -0.328578 4.14801 0
M  V30 4758 H 439.676 -0.87476 5.41885 0
M  V30 4759 H 439.937 -1.87927 4.0017 0
M  V30 4760 N 438.996 -1.55193 0.274407 0
M  V30 4761 C 440.245 -1.98758 -0.343213 0
M  V30 4762 C 440.558 -1.16624 -1.5703 0
M  V30 4763 O 441.764 -1.5033 -2.26082 0
M  V30 4764 C 440.22 -3.53759 -0.661996 0
M  V30 4765 C 439.828 -4.4467 0.54524 0
M  V30 4766 C 441.572 -4.05916 -1.24228 0
M  V30 4767 C 439.479 -5.91058 0.201084 0
M  V30 4768 H 438.409 -0.742353 -0.132014 0
M  V30 4769 H 441.06 -1.79545 0.378948 0
M  V30 4770 H 439.442 -3.68772 -1.44304 0
M  V30 4771 H 440.616 -4.41426 1.32212 0
M  V30 4772 H 438.931 -4.03143 1.04232 0
M  V30 4773 H 441.528 -5.12831 -1.51357 0
M  V30 4774 H 441.871 -3.54908 -2.17592 0
M  V30 4775 H 442.404 -3.9434 -0.523542 0
M  V30 4776 H 439.143 -6.46161 1.10258 0
M  V30 4777 H 438.663 -5.97373 -0.539045 0
M  V30 4778 H 440.342 -6.46669 -0.206954 0
M  V30 4779 N 440.474 -0.00167713 -1.576 0
M  V30 4780 C 441.421 0.989195 -2.08527 0
M  V30 4781 C 442.391 1.34031 -0.981065 0
M  V30 4782 O 443.576 1.43839 -1.2536 0
M  V30 4783 C 440.716 2.27537 -2.59463 0
M  V30 4784 C 439.829 1.98314 -3.83791 0
M  V30 4785 C 438.964 3.21025 -4.23222 0
M  V30 4786 C 438.003 2.87495 -5.40382 0
M  V30 4787 N 437.14 4.02749 -5.75098 0
M  V30 4788 H 441.98 0.547973 -2.92919 0
M  V30 4789 H 439.517 0.258917 -1.44803 0
M  V30 4790 H 441.475 3.02729 -2.87073 0
M  V30 4791 H 440.105 2.69325 -1.77943 0
M  V30 4792 H 439.157 1.13482 -3.63078 0
M  V30 4793 H 440.469 1.69601 -4.69081 0
M  V30 4794 H 439.623 4.04561 -4.52123 0
M  V30 4795 H 438.362 3.52877 -3.36644 0
M  V30 4796 H 437.367 2.02367 -5.11202 0
M  V30 4797 H 438.592 2.56889 -6.28637 0
M  V30 4798 H 436.538 4.34494 -4.91478 0
M  V30 4799 H 436.455 3.77566 -6.54966 0
M  V30 4800 H 437.723 4.87068 -6.08592 0
M  V30 4801 N 441.952 1.55251 0.271103 0
M  V30 4802 C 443.201 1.75151 1.00025 0
M  V30 4803 C 443.514 0.561041 1.87381 0
M  V30 4804 O 444.72 0.642506 2.63788 0
M  V30 4805 C 443.176 3.09999 1.82835 0
M  V30 4806 C 442.784 4.3662 1.00336 0
M  V30 4807 C 444.528 3.39249 2.55168 0
M  V30 4808 C 442.435 5.62506 1.82595 0
M  V30 4809 H 441.365 0.652877 0.377183 0
M  V30 4810 H 444.016 1.81708 0.255843 0
M  V30 4811 H 442.398 2.97485 2.61378 0
M  V30 4812 H 443.572 4.60055 0.261959 0
M  V30 4813 H 441.887 4.14527 0.394486 0
M  V30 4814 H 444.484 4.3051 3.1712 0
M  V30 4815 H 444.827 2.59467 3.2555 0
M  V30 4816 H 445.36 3.52869 1.83653 0
M  V30 4817 H 442.099 6.45041 1.16631 0
M  V30 4818 H 441.619 5.43211 2.54327 0
M  V30 4819 H 443.298 6.00875 2.39913 0
M  V30 4820 N 443.43 -0.535701 1.48216 0
M  V30 4821 C 444.36 -1.65014 1.65204 0
M  V30 4822 C 445.341 -1.62554 0.501011 0
M  V30 4823 O 446.526 -1.7984 0.732886 0
M  V30 4824 C 443.656 -3.03616 1.68626 0
M  V30 4825 C 442.61 -3.20932 2.83172 0
M  V30 4826 C 441.936 -4.60537 2.71679 0
M  V30 4827 C 443.236 -3.04249 4.24535 0
M  V30 4828 H 444.93 -1.51053 2.58502 0
M  V30 4829 H 442.476 -0.725262 1.24402 0
M  V30 4830 H 444.429 -3.81446 1.79099 0
M  V30 4831 H 443.153 -3.18587 0.719026 0
M  V30 4832 H 441.812 -2.45517 2.72244 0
M  V30 4833 H 441.46 -4.72336 1.72937 0
M  V30 4834 H 441.16 -4.73069 3.48538 0
M  V30 4835 H 442.684 -5.40475 2.84112 0
M  V30 4836 H 444.098 -3.71877 4.36326 0
M  V30 4837 H 442.495 -3.28278 5.02348 0
M  V30 4838 H 443.565 -2.00739 4.41397 0
M  V30 4839 N 444.908 -1.36708 -0.784132 0
M  V30 4840 C 445.818 -1.3363 -1.92822 0
M  V30 4841 C 446.834 -0.237686 -1.72369 0
M  V30 4842 O 448.01 -0.470962 -1.95816 0
M  V30 4843 C 445.075 -1.13011 -3.27764 0
M  V30 4844 C 444.136 -2.32397 -3.60957 0
M  V30 4845 C 443.369 -2.12752 -4.89461 0
M  V30 4846 O 443.592 -1.10541 -5.59586 0
M  V30 4847 O 442.526 -3.00653 -5.21432 0
M  V30 4848 H 446.352 -2.29964 -1.98369 0
M  V30 4849 H 443.937 -1.1731 -0.925136 0
M  V30 4850 H 445.819 -1.03451 -4.08504 0
M  V30 4851 H 444.494 -0.19743 -3.23097 0
M  V30 4852 H 443.401 -2.47527 -2.80502 0
M  V30 4853 H 444.734 -3.2419 -3.70354 0
M  V30 4854 N 446.386 1.0089 -1.21074 0
M  V30 4855 C 447.797 1.56056 -1.02486 0
M  V30 4856 C 448.148 1.91728 0.416506 0
M  V30 4857 O 447.273 1.73066 1.29912 0
M  V30 4858 C 447.868 2.83563 -1.85411 0
M  V30 4859 C 446.427 3.3523 -1.71166 0
M  V30 4860 C 445.574 2.0846 -1.82865 0
M  V30 4861 H 448.525 0.831818 -1.35154 0
M  V30 4862 H 448.546 3.55286 -1.36205 0
M  V30 4863 H 448.058 2.57569 -2.9031 0
M  V30 4864 H 446.159 3.66167 -0.689361 0
M  V30 4865 H 446.272 4.06913 -2.52901 0
M  V30 4866 H 444.636 2.21275 -1.26132 0
M  V30 4867 H 445.419 1.84883 -2.89263 0
M  V30 4868 N 447.864 1.01787 1.20321 0
M  V30 4869 C 449.094 0.72614 1.93419 0
M  V30 4870 C 449.502 -0.717317 1.75075 0
M  V30 4871 O 448.845 -1.49836 1.06278 0
M  V30 4872 C 448.907 0.983621 3.45782 0
M  V30 4873 C 448.571 2.41645 3.87888 0
M  V30 4874 C 449.568 3.39732 3.93545 0
M  V30 4875 C 447.253 2.75752 4.19841 0
M  V30 4876 C 449.247 4.69988 4.30569 0
M  V30 4877 C 446.934 4.06221 4.56539 0
M  V30 4878 C 447.932 5.0315 4.61876 0
M  V30 4879 O 447.62 6.31284 4.97731 0
M  V30 4880 H 447.352 0.265824 0.621541 0
M  V30 4881 H 449.906 1.3623 1.53722 0
M  V30 4882 H 448.136 0.290301 3.85609 0
M  V30 4883 H 449.825 0.683279 4.00108 0
M  V30 4884 H 450.591 3.14718 3.69022 0
M  V30 4885 H 446.47 2.00993 4.14877 0
M  V30 4886 H 450.014 5.45642 4.3465 0
M  V30 4887 H 445.911 4.31013 4.80518 0
M  V30 4888 H 446.679 6.35591 5.15719 0
M  V30 4889 N 449.342 -1.36122 0.79427 0
M  V30 4890 C 450.588 -1.99406 0.369452 0
M  V30 4891 C 450.921 -1.62886 -1.05743 0
M  V30 4892 O 450.196 -0.886053 -1.73145 0
M  V30 4893 C 450.479 -3.56046 0.538833 0
M  V30 4894 C 450.332 -4.02404 2.00976 0
M  V30 4895 C 451.651 -4.40079 -0.0431359 0
M  V30 4896 H 448.77 -0.724397 0.135712 0
M  V30 4897 H 451.412 -1.61461 1.00151 0
M  V30 4898 H 449.562 -3.885 0.000771004 0
M  V30 4899 H 451.234 -3.80415 2.60926 0
M  V30 4900 H 449.477 -3.53765 2.51063 0
M  V30 4901 H 450.148 -5.11344 2.07922 0
M  V30 4902 H 452.624 -4.14013 0.416228 0
M  V30 4903 H 451.5 -5.48799 0.105374 0
M  V30 4904 H 451.761 -4.27264 -1.13571 0
M  V30 4905 N 450.82 -0.546701 -1.47814 0
M  V30 4906 C 452.066 -0.0187684 -2.02791 0
M  V30 4907 C 452.399 1.32338 -1.42128 0
M  V30 4908 O 451.674 1.85867 -0.573023 0
M  V30 4909 C 451.957 0.0854985 -3.59998 0
M  V30 4910 C 451.81 -1.283 -4.31114 0
M  V30 4911 C 453.129 0.80412 -4.32691 0
M  V30 4912 H 450.248 -0.0082946 -0.736953 0
M  V30 4913 H 452.89 -0.706962 -1.76358 0
M  V30 4914 H 451.04 0.671609 -3.82651 0
M  V30 4915 H 452.712 -1.91151 -4.19832 0
M  V30 4916 H 450.955 -1.86049 -3.91878 0
M  V30 4917 H 451.626 -1.16287 -5.39612 0
M  V30 4918 H 454.102 0.306576 -4.14969 0
M  V30 4919 H 452.978 0.846011 -5.42341 0
M  V30 4920 H 453.239 1.85802 -4.01161 0
M  V30 4921 N 452.299 1.55045 -0.282633 0
M  V30 4922 C 453.247 2.24254 0.617478 0
M  V30 4923 C 454.241 1.24215 1.15183 0
M  V30 4924 O 455.447 1.42123 1.10459 0
M  V30 4925 H 451.822 0.719801 0.217693 0
M  V30 4926 H 453.793 2.98398 0.0110076 0
M  V30 4927 C 452.542 2.98281 1.78672 0
M  V30 4928 H 451.865 3.75053 1.38475 0
M  V30 4929 H 453.305 3.50017 2.393 0
M  V30 4930 C 451.764 2.04184 2.67975 0
M  V30 4931 O 452.294 1.59792 3.6855 0
M  V30 4932 N 450.5 1.70526 2.35307 0
M  V30 4933 H 450.047 2.06821 1.53567 0
M  V30 4934 H 450.005 1.07839 2.95327 0
M  V30 4935 N 453.777 0.010035 1.57597 0
M  V30 4936 C 455.002 -0.687021 1.95691 0
M  V30 4937 C 455.427 -1.65952 0.885519 0
M  V30 4938 O 454.785 -1.80633 -0.15543 0
M  V30 4939 C 454.833 -1.3864 3.32884 0
M  V30 4940 O 453.937 -2.50115 3.27897 0
M  V30 4941 H 453.278 -0.181989 0.638573 0
M  V30 4942 H 455.808 0.0662122 2.04493 0
M  V30 4943 H 455.818 -1.74754 3.6868 0
M  V30 4944 H 454.493 -0.673411 4.10412 0
M  V30 4945 H 453.07 -2.16253 3.03791 0
M  V30 4946 N 455.255 -1.55392 -0.262866 0
M  V30 4947 C 456.185 -1.91978 -1.32917 0
M  V30 4948 C 457.166 -0.7828 -1.51017 0
M  V30 4949 O 458.351 -1.04178 -1.63892 0
M  V30 4950 C 455.481 -2.20055 -2.68687 0
M  V30 4951 C 454.435 -3.35854 -2.65304 0
M  V30 4952 C 453.761 -3.49435 -4.04721 0
M  V30 4953 C 455.061 -4.71977 -2.23685 0
M  V30 4954 H 456.755 -2.81292 -1.02544 0
M  V30 4955 H 454.301 -1.3534 -0.491846 0
M  V30 4956 H 456.254 -2.44237 -3.43404 0
M  V30 4957 H 454.978 -1.27551 -3.00663 0
M  V30 4958 H 453.637 -3.11655 -1.93045 0
M  V30 4959 H 453.285 -2.54379 -4.33936 0
M  V30 4960 H 452.985 -4.27297 -4.0335 0
M  V30 4961 H 454.509 -3.7592 -4.81161 0
M  V30 4962 H 455.923 -4.95637 -2.88127 0
M  V30 4963 H 454.32 -5.52828 -2.33456 0
M  V30 4964 H 455.39 -4.70115 -1.18827 0
M  V30 4965 N 456.733 0.527833 -1.48498 0
M  V30 4966 C 457.979 1.28545 -1.56857 0
M  V30 4967 C 458.312 1.92678 -0.242651 0
M  V30 4968 O 457.587 1.79394 0.751545 0
M  V30 4969 C 457.87 2.37314 -2.70839 0
M  V30 4970 C 457.723 1.77858 -4.13142 0
M  V30 4971 C 459.042 3.39068 -2.80573 0
M  V30 4972 H 456.161 0.466006 -0.570971 0
M  V30 4973 H 458.803 0.587784 -1.8068 0
M  V30 4974 H 456.953 2.96821 -2.50658 0
M  V30 4975 H 458.625 1.22385 -4.44769 0
M  V30 4976 H 456.868 1.08383 -4.20042 0
M  V30 4977 H 457.539 2.56624 -4.88721 0
M  V30 4978 H 460.015 2.89518 -2.98862 0
M  V30 4979 H 458.891 4.12566 -3.6205 0
M  V30 4980 H 459.152 3.9975 -1.88818 0
M  V30 4981 N 458.211 1.37122 0.776871 0
M  V30 4982 C 459.143 1.28342 1.89897 0
M  V30 4983 C 460.156 0.200277 1.61563 0
M  V30 4984 O 461.345 0.456012 1.72577 0
M  V30 4985 C 458.445 0.960427 3.25006 0
M  V30 4986 C 457.618 2.148 3.81025 0
M  V30 4987 C 456.677 1.79608 4.94598 0
M  V30 4988 O 455.703 2.51845 5.10454 0
M  V30 4989 N 456.905 0.737171 5.758 0
M  V30 4990 H 459.67 2.25027 1.97947 0
M  V30 4991 H 457.231 1.3068 0.955739 0
M  V30 4992 H 459.223 0.705942 3.98495 0
M  V30 4993 H 457.793 0.0823066 3.12492 0
M  V30 4994 H 457.013 2.56454 2.99374 0
M  V30 4995 H 458.301 2.9411 4.15183 0
M  V30 4996 H 457.699 0.137637 5.65533 0
M  V30 4997 H 456.256 0.542534 6.49538 0
M  V30 4998 N 459.689 -1.00246 1.21608 0
M  V30 4999 C 461.105 -1.26435 0.973975 0
M  V30 5000 C 461.305 -1.98642 -0.338143 0
M  V30 5001 O 460.361 -2.29026 -1.06317 0
M  V30 5002 C 461.674 -2.08551 2.16626 0
M  V30 5003 C 463.222 -2.21769 2.20879 0
M  V30 5004 C 463.697 -3.07267 3.39633 0
M  V30 5005 N 465.188 -3.14855 3.39736 0
M  V30 5006 C 465.923 -3.81274 4.28273 0
M  V30 5007 N 465.419 -4.497 5.27012 0
M  V30 5008 N 467.212 -3.7794 4.16074 0
M  V30 5009 H 459.363 -0.518089 2.05984 0
M  V30 5010 H 461.626 -0.291368 0.902113 0
M  V30 5011 H 461.332 -1.62847 3.11727 0
M  V30 5012 H 461.206 -3.09303 2.15897 0
M  V30 5013 H 463.593 -2.66691 1.26332 0
M  V30 5014 H 463.674 -1.20478 2.25652 0
M  V30 5015 H 463.318 -2.63047 4.34475 0
M  V30 5016 H 463.248 -4.08678 3.321 0
M  V30 5017 H 465.739 -2.66147 2.6828 0
M  V30 5018 H 466.052 -4.98092 5.90867 0
M  V30 5019 H 464.397 -4.48479 5.30935 0
M  V30 5020 H 467.588 -3.23638 3.38195 0
M  V30 5021 H 467.761 -4.29424 4.85282 0
M  V30 5022 N 461.167 -1.02423 -1.1978 0
M  V30 5023 C 462.13 -0.605703 -2.21052 0
M  V30 5024 C 463.13 0.328209 -1.57415 0
M  V30 5025 O 464.32 0.115853 -1.73814 0
M  V30 5026 C 461.452 0.114366 -3.40708 0
M  V30 5027 H 462.645 -1.5017 -2.59594 0
M  V30 5028 H 460.198 -0.814888 -1.33376 0
M  V30 5029 H 460.933 1.02492 -3.07678 0
M  V30 5030 H 460.718 -0.556641 -3.88129 0
M  V30 5031 H 462.208 0.394272 -4.15735 0
M  V30 5032 N 462.645 1.35699 -0.801477 0
M  V30 5033 C 463.555 2.33661 -0.209691 0
M  V30 5034 C 464.571 1.6162 0.644591 0
M  V30 5035 O 465.747 1.93529 0.557545 0
M  V30 5036 C 462.812 3.40816 0.636033 0
M  V30 5037 C 461.873 4.28639 -0.238147 0
M  V30 5038 C 461.106 5.30676 0.567307 0
M  V30 5039 O 461.329 5.41174 1.8024 0
M  V30 5040 O 460.263 6.01887 -0.0391336 0
M  V30 5041 H 464.089 2.8606 -1.01996 0
M  V30 5042 H 461.674 1.38379 -0.563164 0
M  V30 5043 H 463.556 4.06301 1.11791 0
M  V30 5044 H 462.231 2.90696 1.42399 0
M  V30 5045 H 461.138 3.66152 -0.767044 0
M  V30 5046 H 462.471 4.82143 -0.989915 0
M  V30 5047 N 464.123 0.554532 1.47522 0
M  V30 5048 C 465.07 -0.19466 2.29978 0
M  V30 5049 C 466.04 -0.910882 1.38896 0
M  V30 5050 O 467.225 -0.907102 1.67858 0
M  V30 5051 C 464.365 -1.22035 3.22802 0
M  V30 5052 C 463.478 -0.510474 4.28973 0
M  V30 5053 C 462.613 -1.52123 5.08952 0
M  V30 5054 C 461.652 -0.796173 6.069 0
M  V30 5055 N 460.789 -1.75363 6.79847 0
M  V30 5056 H 465.629 0.51461 2.93523 0
M  V30 5057 H 463.166 0.265607 1.44682 0
M  V30 5058 H 465.124 -1.8276 3.7504 0
M  V30 5059 H 463.754 -1.89769 2.61127 0
M  V30 5060 H 462.806 0.211234 3.79813 0
M  V30 5061 H 464.118 0.0576503 4.98767 0
M  V30 5062 H 463.272 -2.20207 5.65326 0
M  V30 5063 H 462.011 -2.12327 4.39054 0
M  V30 5064 H 461.016 -0.101388 5.49707 0
M  V30 5065 H 462.241 -0.199911 6.78806 0
M  V30 5066 H 460.187 -2.3443 6.12682 0
M  V30 5067 H 460.104 -1.23759 7.45801 0
M  V30 5068 H 461.372 -2.4257 7.40797 0
M  V30 5069 N 465.601 -1.54893 0.290851 0
M  V30 5070 C 466.848 -1.99933 -0.321391 0
M  V30 5071 C 467.176 -1.17927 -1.54672 0
M  V30 5072 O 466.431 -0.240902 -1.94212 0
M  V30 5073 C 466.73 -3.49815 -0.732397 0
M  V30 5074 C 466.396 -4.4921 0.390056 0
M  V30 5075 C 465.058 -4.76107 0.698223 0
M  V30 5076 C 467.41 -5.08453 1.14562 0
M  V30 5077 C 464.738 -5.59514 1.76526 0
M  V30 5078 C 467.09 -5.9302 2.2025 0
M  V30 5079 C 465.754 -6.18232 2.51684 0
M  V30 5080 H 465.024 -0.731608 -0.117605 0
M  V30 5081 H 467.671 -1.87107 0.407839 0
M  V30 5082 H 465.976 -3.60199 -1.54155 0
M  V30 5083 H 467.673 -3.82083 -1.21712 0
M  V30 5084 H 464.263 -4.28372 0.13976 0
M  V30 5085 H 468.447 -4.87683 0.920801 0
M  V30 5086 H 463.703 -5.77289 2.01364 0
M  V30 5087 H 467.877 -6.37955 2.7926 0
M  V30 5088 H 465.504 -6.82653 3.34499 0
M  V30 5089 N 467.08 -0.0183926 -1.57589 0
M  V30 5090 C 468.496 0.337897 -1.55982 0
M  V30 5091 C 468.696 1.73604 -1.02294 0
M  V30 5092 O 467.752 2.43589 -0.664895 0
M  V30 5093 C 469.065 0.196305 -3.00059 0
M  V30 5094 C 470.613 0.269875 -3.11834 0
M  V30 5095 C 471.088 0.157197 -4.5773 0
M  V30 5096 N 472.579 0.214521 -4.62703 0
M  V30 5097 C 473.314 0.150955 -5.73201 0
M  V30 5098 N 472.81 0.0369212 -6.9279 0
M  V30 5099 N 474.603 0.204162 -5.61729 0
M  V30 5100 H 466.754 -0.93279 -1.90821 0
M  V30 5101 H 469.017 -0.359253 -0.877292 0
M  V30 5102 H 468.723 -0.766383 -3.43248 0
M  V30 5103 H 468.597 0.970908 -3.6449 0
M  V30 5104 H 470.984 1.22302 -2.68563 0
M  V30 5105 H 471.065 -0.534918 -2.50144 0
M  V30 5106 H 470.709 -0.792479 -5.01679 0
M  V30 5107 H 470.639 0.980717 -5.17387 0
M  V30 5108 H 473.13 0.303238 -3.76681 0
M  V30 5109 H 473.443 -0.00518321 -7.728 0
M  V30 5110 H 471.788 0.0022886 -6.95 0
M  V30 5111 H 474.979 0.291575 -4.67191 0
M  V30 5112 H 475.152 0.15116 -6.47824 0
M  V30 5113 N 468.558 1.5553 0.254621 0
M  V30 5114 C 469.969 1.67518 0.824286 0
M  V30 5115 C 470.32 0.614429 1.86331 0
M  V30 5116 O 469.445 -0.240736 2.15057 0
M  V30 5117 C 470.04 3.03692 1.50189 0
M  V30 5118 C 468.599 3.17646 2.01935 0
M  V30 5119 C 467.746 2.63373 0.867746 0
M  V30 5120 H 470.697 1.58671 0.0305843 0
M  V30 5121 H 470.718 2.97706 2.36962 0
M  V30 5122 H 470.23 3.80874 0.745431 0
M  V30 5123 H 468.331 2.45273 2.80485 0
M  V30 5124 H 468.444 4.24455 2.22204 0
M  V30 5125 H 466.808 2.20999 1.26616 0
M  V30 5126 H 467.591 3.43074 0.124498 0
M  V30 5127 N 470.036 -0.519951 1.48776 0
M  V30 5128 C 470.966 -1.63253 1.66945 0
M  V30 5129 C 471.947 -1.62014 0.518224 0
M  V30 5130 O 473.132 -1.79053 0.751919 0
M  V30 5131 C 470.262 -3.0181 1.71836 0
M  V30 5132 C 469.216 -3.17911 2.8656 0
M  V30 5133 C 468.542 -4.5763 2.76548 0
M  V30 5134 C 469.842 -2.99729 4.27738 0
M  V30 5135 H 471.536 -1.48302 2.6009 0
M  V30 5136 H 469.082 -0.712026 1.25165 0
M  V30 5137 H 471.035 -3.79525 1.83135 0
M  V30 5138 H 469.759 -3.17806 0.752775 0
M  V30 5139 H 468.418 -2.42616 2.74833 0
M  V30 5140 H 468.066 -4.70476 1.77937 0
M  V30 5141 H 467.766 -4.69346 3.53536 0
M  V30 5142 H 469.29 -5.37431 2.89828 0
M  V30 5143 H 470.704 -3.67228 4.40246 0
M  V30 5144 H 469.101 -3.22932 5.05801 0
M  V30 5145 H 470.171 -1.96047 4.43502 0
M  V30 5146 N 471.514 -1.37532 -0.769588 0
M  V30 5147 C 472.763 -1.32183 -1.5235 0
M  V30 5148 C 473.076 0.0906555 -1.9539 0
M  V30 5149 O 474.282 0.266628 -2.70188 0
M  V30 5150 C 472.738 -2.32029 -2.75119 0
M  V30 5151 C 472.346 -3.78816 -2.3917 0
M  V30 5152 C 474.09 -2.35694 -3.53056 0
M  V30 5153 C 471.997 -4.70388 -3.58453 0
M  V30 5154 H 470.927 -0.491275 -0.571984 0
M  V30 5155 H 473.578 -1.63004 -0.842739 0
M  V30 5156 H 471.96 -1.94229 -3.45096 0
M  V30 5157 H 473.134 -4.25466 -1.76962 0
M  V30 5158 H 471.449 -3.78117 -1.74402 0
M  V30 5159 H 474.046 -3.01312 -4.41718 0
M  V30 5160 H 474.389 -1.37117 -3.93071 0
M  V30 5161 H 474.922 -2.72212 -2.90078 0
M  V30 5162 H 471.661 -5.70102 -3.23518 0
M  V30 5163 H 471.181 -4.28442 -4.19758 0
M  V30 5164 H 472.86 -4.87628 -4.25239 0
M  V30 5165 N 472.992 0.995999 -1.22138 0
M  V30 5166 C 473.942 2.06988 -0.956042 0
M  V30 5167 C 474.926 1.60636 0.0921576 0
M  V30 5168 O 476.118 1.76607 -0.117958 0
M  V30 5169 C 473.247 3.39148 -0.532335 0
M  V30 5170 C 472.333 3.92142 -1.61509 0
M  V30 5171 N 472.724 4.18397 -2.84214 0
M  V30 5172 C 471.022 4.20514 -1.48606 0
M  V30 5173 C 471.723 4.61425 -3.54206 0
M  V30 5174 N 470.699 4.64934 -2.81669 0
M  V30 5175 H 474.501 2.25223 -1.88816 0
M  V30 5176 H 472.015 1.17748 -1.11845 0
M  V30 5177 H 474.012 4.15642 -0.323574 0
M  V30 5178 H 472.672 3.22314 0.392921 0
M  V30 5179 H 473.683 4.06682 -3.20671 0
M  V30 5180 H 470.36 4.12769 -0.626762 0
M  V30 5181 H 471.75 4.90387 -4.59315 0
M  V30 5182 N 474.47 1.03057 1.19235 0
M  V30 5183 C 475.695 0.74757 1.93458 0
M  V30 5184 C 476.12 -0.687648 1.7508 0
M  V30 5185 O 475.478 -1.47499 1.05422 0
M  V30 5186 C 475.526 1.10604 3.43219 0
M  V30 5187 O 474.63 0.225671 4.11782 0
M  V30 5188 H 473.971 0.276047 0.603899 0
M  V30 5189 H 476.501 1.3777 1.51263 0
M  V30 5190 H 476.511 1.06366 3.93891 0
M  V30 5191 H 475.186 2.15165 3.55917 0
M  V30 5192 H 473.763 0.326795 3.71465 0
M  V30 5193 N 475.948 -1.35272 0.808662 0
M  V30 5194 C 476.878 -2.32315 0.234981 0
M  V30 5195 C 477.859 -1.57572 -0.64071 0
M  V30 5196 O 479.044 -1.8563 -0.570551 0
M  V30 5197 C 476.174 -3.41801 -0.615601 0
M  V30 5198 C 475.128 -4.27694 0.161767 0
M  V30 5199 C 474.454 -5.28519 -0.810649 0
M  V30 5200 C 475.754 -5.04231 1.36193 0
M  V30 5201 H 477.448 -2.80543 1.04575 0
M  V30 5202 H 474.994 -1.3488 0.504315 0
M  V30 5203 H 476.947 -4.08693 -1.02702 0
M  V30 5204 H 475.671 -2.92186 -1.45928 0
M  V30 5205 H 474.33 -3.62384 0.554382 0
M  V30 5206 H 473.978 -4.75171 -1.64988 0
M  V30 5207 H 473.678 -5.8686 -0.294822 0
M  V30 5208 H 475.202 -5.98283 -1.22023 0
M  V30 5209 H 476.616 -5.64058 1.02528 0
M  V30 5210 H 475.013 -5.72077 1.81239 0
M  V30 5211 H 476.083 -4.34753 2.14751 0
M  V30 5212 N 477.426 -0.562348 -1.47226 0
M  V30 5213 C 478.674 -0.0401371 -2.0206 0
M  V30 5214 C 478.995 1.3165 -1.43852 0
M  V30 5215 O 478.265 1.85976 -0.615599 0
M  V30 5216 H 476.845 -0.0118479 -0.746906 0
M  V30 5217 H 479.507 -0.73352 -1.8057 0
M  V30 5218 H 478.603 0.0441254 -3.12069 0
M  V30 5219 N 478.904 1.54736 -0.299062 0
M  V30 5220 C 480.181 1.92187 0.363802 0
M  V30 5221 C 480.561 1.22607 1.71845 0
M  V30 5222 O 479.909 0.361141 2.25628 0
M  V30 5223 C 480.119 3.45678 0.480377 0
M  V30 5224 C 481.467 4.17885 0.752147 0
M  V30 5225 O 482.491 3.51702 0.564264 0
M  V30 5226 O 481.35 5.35048 1.11294 0
M  V30 5227 H 478.444 0.801681 0.203066 0
M  V30 5228 H 480.99 1.66115 -0.346978 0
M  V30 5229 H 479.762 3.88443 -0.471999 0
M  V30 5230 H 479.385 3.77779 1.2397 0
M  V30 5231 N 480.382 0.0267497 1.57577 0
M  V30 5232 C 481.629 -0.652404 1.91703 0
M  V30 5233 C 481.957 -1.72271 0.902936 0
M  V30 5234 O 481.212 -1.955 -0.0884843 0
M  V30 5235 C 481.511 -1.30914 3.3256 0
M  V30 5236 C 481.177 -0.369441 4.49384 0
M  V30 5237 C 479.839 -0.110791 4.81072 0
M  V30 5238 C 482.191 0.275971 5.20469 0
M  V30 5239 C 479.519 0.801116 5.81205 0
M  V30 5240 C 481.871 1.17592 6.21575 0
M  V30 5241 C 480.535 1.44348 6.51705 0
M  V30 5242 H 479.805 -0.238732 0.70149 0
M  V30 5243 H 482.452 0.0880091 1.91298 0
M  V30 5244 H 480.757 -2.12425 3.29216 0
M  V30 5245 H 482.454 -1.84115 3.56234 0
M  V30 5246 H 479.044 -0.581211 4.24641 0
M  V30 5247 H 483.228 0.0892 4.9622 0
M  V30 5248 H 478.484 1.01614 6.02897 0
M  V30 5249 H 482.658 1.68223 6.75777 0
M  V30 5250 H 480.285 2.15176 7.29111 0
M  V30 5251 N 481.861 -1.55662 -0.24637 0
M  V30 5252 C 483.272 -1.67953 -0.81539 0
M  V30 5253 C 483.623 -0.624302 -1.86002 0
M  V30 5254 O 482.748 0.229328 -2.15181 0
M  V30 5255 C 483.343 -3.04484 -1.48576 0
M  V30 5256 C 481.902 -3.18713 -2.00248 0
M  V30 5257 C 481.049 -2.6383 -0.853766 0
M  V30 5258 H 484 -1.58685 -0.0221692 0
M  V30 5259 H 484.021 -2.98959 -2.3538 0
M  V30 5260 H 483.533 -3.81264 -0.725222 0
M  V30 5261 H 481.634 -2.46757 -2.79181 0
M  V30 5262 H 481.747 -4.25628 -2.1995 0
M  V30 5263 H 480.111 -2.21667 -1.25442 0
M  V30 5264 H 480.894 -3.43135 -0.106302 0
M  V30 5265 N 483.339 0.512053 -1.4905 0
M  V30 5266 C 484.585 1.26874 -1.58212 0
M  V30 5267 C 484.918 1.9241 -0.263073 0
M  V30 5268 O 484.193 1.80181 0.732476 0
M  V30 5269 C 484.476 2.34428 -2.73341 0
M  V30 5270 C 484.329 1.73466 -4.15006 0
M  V30 5271 C 485.648 3.36073 -2.84154 0
M  V30 5272 H 482.767 0.459924 -0.575881 0
M  V30 5273 H 485.409 0.568587 -1.81293 0
M  V30 5274 H 483.559 2.94146 -2.53792 0
M  V30 5275 H 485.231 1.17661 -4.46042 0
M  V30 5276 H 483.474 1.03921 -4.21168 0
M  V30 5277 H 484.145 2.51426 -4.91415 0
M  V30 5278 H 486.621 2.86332 -3.01916 0
M  V30 5279 H 485.497 4.08703 -3.66406 0
M  V30 5280 H 485.758 3.97725 -1.93048 0
M  V30 5281 N 484.817 1.37938 0.762283 0
M  V30 5282 C 486.064 1.33668 1.52115 0
M  V30 5283 C 486.392 -0.0759538 1.94352 0
M  V30 5284 O 485.647 -1.05121 1.6507 0
M  V30 5285 C 485.946 2.23042 2.79261 0
M  V30 5286 C 485.612 3.71159 2.56031 0
M  V30 5287 C 484.274 4.11523 2.49404 0
M  V30 5288 C 486.626 4.64955 2.35513 0
M  V30 5289 C 483.954 5.43784 2.20263 0
M  V30 5290 C 486.306 5.97464 2.07894 0
M  V30 5291 C 484.97 6.36922 1.99718 0
M  V30 5292 H 484.24 0.489127 0.556629 0
M  V30 5293 H 486.887 1.70224 0.877262 0
M  V30 5294 H 485.192 1.79512 3.48256 0
M  V30 5295 H 486.889 2.17047 3.37182 0
M  V30 5296 H 483.479 3.39153 2.62056 0
M  V30 5297 H 487.663 4.34623 2.39617 0
M  V30 5298 H 482.919 5.73307 2.12435 0
M  V30 5299 H 487.093 6.6969 1.91019 0
M  V30 5300 H 484.72 7.39331 1.76902 0
M  V30 5301 N 486.295 -0.989507 1.22664 0
M  V30 5302 C 487.544 -1.72375 1.04737 0
M  V30 5303 C 487.857 -1.91096 -0.417316 0
M  V30 5304 O 489.063 -2.6188 -0.716334 0
M  V30 5305 C 487.519 -3.10161 1.82561 0
M  V30 5306 C 487.127 -2.99358 3.333 0
M  V30 5307 C 488.871 -3.87607 1.73093 0
M  V30 5308 C 486.778 -4.32319 4.03552 0
M  V30 5309 H 485.708 -0.646326 0.388302 0
M  V30 5310 H 488.359 -1.10437 1.46546 0
M  V30 5311 H 486.741 -3.728 1.33552 0
M  V30 5312 H 487.915 -2.45863 3.89728 0
M  V30 5313 H 486.23 -2.35392 3.43481 0
M  V30 5314 H 488.827 -4.86025 2.22899 0
M  V30 5315 H 489.17 -4.10509 0.691976 0
M  V30 5316 H 489.703 -3.31652 2.19663 0
M  V30 5317 H 486.442 -4.14616 5.07714 0
M  V30 5318 H 485.962 -4.85714 3.51911 0
M  V30 5319 H 487.641 -5.01051 4.09337 0
M  V30 5320 N 487.773 -1.03688 -1.18687 0
M  V30 5321 C 488.72 -0.624624 -2.22187 0
M  V30 5322 C 489.69 0.365636 -1.62026 0
M  V30 5323 O 490.875 0.260481 -1.89014 0
M  V30 5324 C 488.015 0.0101738 -3.45099 0
M  V30 5325 C 487.128 -1.02709 -4.19613 0
M  V30 5326 C 486.263 -0.361213 -5.2997 0
M  V30 5327 C 485.302 -1.38384 -5.96252 0
M  V30 5328 N 484.439 -0.743196 -6.98155 0
M  V30 5329 H 489.279 -1.51176 -2.56807 0
M  V30 5330 H 486.816 -0.75636 -1.26165 0
M  V30 5331 H 488.774 0.395528 -4.15321 0
M  V30 5332 H 487.404 0.860848 -3.1111 0
M  V30 5333 H 486.456 -1.53043 -3.48256 0
M  V30 5334 H 487.768 -1.80398 -4.65036 0
M  V30 5335 H 486.922 0.0785537 -6.06649 0
M  V30 5336 H 485.661 0.447799 -4.8564 0
M  V30 5337 H 484.666 -1.83378 -5.18317 0
M  V30 5338 H 485.891 -2.19448 -6.42666 0
M  V30 5339 H 483.837 0.0455789 -6.55984 0
M  V30 5340 H 483.754 -1.45784 -7.41811 0
M  V30 5341 H 485.022 -0.327698 -7.78811 0
M  V30 5342 N 489.251 1.34841 -0.815825 0
M  V30 5343 C 490.528 1.92908 -0.323416 0
M  V30 5344 C 490.908 1.74479 1.18828 0
M  V30 5345 O 490.256 1.11928 1.99209 0
M  V30 5346 C 490.466 3.40957 -0.744952 0
M  V30 5347 C 491.814 4.18107 -0.739716 0
M  V30 5348 O 492.838 3.49511 -0.68708 0
M  V30 5349 O 491.697 5.40517 -0.806456 0
M  V30 5350 H 488.791 0.822436 -0.0867646 0
M  V30 5351 H 491.337 1.4386 -0.90014 0
M  V30 5352 H 490.109 3.4814 -1.78646 0
M  V30 5353 H 489.732 3.97341 -0.143535 0
M  V30 5354 N 490.729 0.570148 1.46925 0
M  V30 5355 C 491.676 -0.170257 2.30171 0
M  V30 5356 C 492.646 -0.896099 1.39855 0
M  V30 5357 O 493.831 -0.889248 1.68811 0
M  V30 5358 C 490.971 -1.18605 3.24079 0
M  V30 5359 C 490.084 -0.464947 4.29491 0
M  V30 5360 C 489.219 -1.46716 5.10537 0
M  V30 5361 C 488.258 -0.731758 6.0771 0
M  V30 5362 N 487.395 -1.68142 6.81669 0
M  V30 5363 H 492.235 0.545713 2.92961 0
M  V30 5364 H 489.772 0.280938 1.44392 0
M  V30 5365 H 491.73 -1.78771 3.76957 0
M  V30 5366 H 490.36 -1.86989 2.63125 0
M  V30 5367 H 489.412 0.251506 3.79568 0
M  V30 5368 H 490.724 0.110548 4.98677 0
M  V30 5369 H 489.878 -2.14199 5.6763 0
M  V30 5370 H 488.617 -2.07658 4.41282 0
M  V30 5371 H 487.622 -0.0430787 5.49783 0
M  V30 5372 H 488.847 -0.127904 6.7898 0
M  V30 5373 H 486.793 -2.27918 6.15134 0
M  V30 5374 H 486.71 -1.15841 7.47072 0
M  V30 5375 H 487.978 -2.347 7.43328 0
M  V30 5376 N 492.207 -1.54576 0.307264 0
M  V30 5377 C 493.453 -2.0056 -0.300612 0
M  V30 5378 C 493.786 -1.1953 -1.53057 0
M  V30 5379 O 493.061 -0.27337 -1.92569 0
M  V30 5380 C 493.344 -3.54167 -0.650987 0
M  V30 5381 C 493.197 -4.45933 0.588539 0
M  V30 5382 C 494.516 -4.14645 -1.47506 0
M  V30 5383 H 491.635 -0.729075 -0.107788 0
M  V30 5384 H 494.277 -1.85286 0.420606 0
M  V30 5385 H 492.427 -3.67313 -1.26544 0
M  V30 5386 H 494.099 -4.44683 1.22697 0
M  V30 5387 H 492.342 -4.16274 1.22058 0
M  V30 5388 H 493.013 -5.51189 0.299153 0
M  V30 5389 H 495.489 -4.04973 -0.955821 0
M  V30 5390 H 494.365 -5.22269 -1.68899 0
M  V30 5391 H 494.626 -3.66921 -2.4662 0
M  V30 5392 N 493.685 -0.035106 -1.57561 0
M  V30 5393 C 494.91 0.655802 -1.96759 0
M  V30 5394 C 495.335 1.64523 -0.911809 0
M  V30 5395 O 494.693 1.80857 0.126673 0
M  V30 5396 C 494.741 1.33326 -3.35047 0
M  V30 5397 O 493.845 2.44866 -3.31835 0
M  V30 5398 H 493.186 0.171807 -0.641388 0
M  V30 5399 H 495.716 -0.0987369 -2.04362 0
M  V30 5400 H 495.726 1.68867 -3.71413 0
M  V30 5401 H 494.401 0.608033 -4.11431 0
M  V30 5402 H 492.978 2.11392 -3.07193 0
M  V30 5403 N 495.163 1.55791 0.238111 0
M  V30 5404 C 496.095 1.87513 1.31802 0
M  V30 5405 C 497.108 0.762053 1.43863 0
M  V30 5406 O 498.297 1.04024 1.45056 0
M  V30 5407 C 495.397 2.05402 2.69561 0
M  V30 5408 C 494.57 3.3632 2.79656 0
M  V30 5409 C 493.629 3.43844 3.98319 0
M  V30 5410 O 492.655 4.16994 3.87433 0
M  V30 5411 N 493.857 2.73777 5.11885 0
M  V30 5412 H 496.622 2.80734 1.04922 0
M  V30 5413 H 494.183 1.56135 0.428196 0
M  V30 5414 H 496.175 2.07769 3.47296 0
M  V30 5415 H 494.745 1.18884 2.89111 0
M  V30 5416 H 493.965 3.46195 1.88528 0
M  V30 5417 H 495.253 4.22594 2.83358 0
M  V30 5418 H 494.651 2.14094 5.23622 0
M  V30 5419 H 493.208 2.81825 5.87723 0
M  V30 5420 N 496.642 -0.504142 1.49319 0
M  V30 5421 C 497.572 -1.61473 1.68667 0
M  V30 5422 C 498.553 -1.61455 0.535378 0
M  V30 5423 O 499.738 -1.78245 0.770868 0
M  V30 5424 C 496.868 -2.99971 1.75028 0
M  V30 5425 C 495.822 -3.14854 2.89916 0
M  V30 5426 C 495.148 -4.54671 2.81387 0
M  V30 5427 C 496.448 -2.95176 4.30893 0
M  V30 5428 H 498.142 -1.45535 2.61648 0
M  V30 5429 H 495.688 -0.698711 1.25913 0
M  V30 5430 H 497.641 -3.77562 1.8715 0
M  V30 5431 H 496.365 -3.1699 0.786441 0
M  V30 5432 H 495.024 -2.39687 2.77391 0
M  V30 5433 H 494.672 -4.68562 1.82917 0
M  V30 5434 H 494.372 -4.6557 3.58494 0
M  V30 5435 H 495.896 -5.34327 2.95512 0
M  V30 5436 H 497.31 -3.62538 4.44116 0
M  V30 5437 H 495.707 -3.17549 5.09198 0
M  V30 5438 H 496.777 -1.91332 4.45556 0
M  V30 5439 N 498.12 -1.38341 -0.754957 0
M  V30 5440 C 499.03 -1.3769 -1.89944 0
M  V30 5441 C 500.046 -0.274194 -1.71826 0
M  V30 5442 O 501.222 -0.512391 -1.94773 0
M  V30 5443 C 498.287 -1.19938 -3.25293 0
M  V30 5444 C 497.348 -2.40001 -3.55946 0
M  V30 5445 C 496.581 -2.23087 -4.84838 0
M  V30 5446 O 496.804 -1.22386 -5.57116 0
M  V30 5447 O 495.738 -3.11646 -5.14937 0
M  V30 5448 H 499.564 -2.3412 -1.93446 0
M  V30 5449 H 497.149 -1.19246 -0.900044 0
M  V30 5450 H 499.031 -1.12093 -4.06218 0
M  V30 5451 H 497.706 -0.265919 -3.22606 0
M  V30 5452 H 496.613 -2.53421 -2.75188 0
M  V30 5453 H 497.946 -3.31973 -3.63394 0
M  V30 5454 N 499.598 0.982988 -1.23187 0
M  V30 5455 C 500.508 2.10907 -1.02739 0
M  V30 5456 C 501.524 1.73979 0.0273188 0
M  V30 5457 O 502.7 2.00702 -0.16757 0
M  V30 5458 C 499.765 3.41142 -0.618304 0
M  V30 5459 C 498.826 3.92112 -1.74777 0
M  V30 5460 C 498.059 5.16131 -1.3581 0
M  V30 5461 O 498.282 5.6989 -0.241201 0
M  V30 5462 O 497.216 5.61103 -2.17824 0
M  V30 5463 H 501.042 2.31046 -1.97108 0
M  V30 5464 H 498.627 1.09284 -1.01869 0
M  V30 5465 H 500.509 4.19488 -0.400982 0
M  V30 5466 H 499.184 3.2234 0.296421 0
M  V30 5467 H 498.091 3.14895 -2.0197 0
M  V30 5468 H 499.424 4.15364 -2.64071 0
M  V30 5469 N 501.076 1.04316 1.18135 0
M  V30 5470 C 502.304 0.768117 1.92113 0
M  V30 5471 C 502.719 -0.675057 1.76319 0
M  V30 5472 O 502.076 -1.46038 1.09449 0
M  V30 5473 C 502.127 1.12808 3.43448 0
M  V30 5474 O 501.848 2.5146 3.58747 0
M  V30 5475 C 503.349 0.8779 4.3452 0
M  V30 5476 H 500.569 0.279937 0.609817 0
M  V30 5477 H 503.113 1.39149 1.49859 0
M  V30 5478 H 501.268 0.549623 3.83481 0
M  V30 5479 H 501.682 2.65313 4.52448 0
M  V30 5480 H 503.156 1.17959 5.39249 0
M  V30 5481 H 503.633 -0.187239 4.38801 0
M  V30 5482 H 504.239 1.43977 4.00188 0
M  V30 5483 N 502.554 -1.34406 0.822964 0
M  V30 5484 C 503.801 -1.98284 0.411057 0
M  V30 5485 C 504.129 -1.65245 -1.02588 0
M  V30 5486 O 503.384 -0.91619 -1.72929 0
M  V30 5487 C 503.683 -3.52981 0.560268 0
M  V30 5488 C 503.349 -4.05931 1.96293 0
M  V30 5489 C 502.011 -4.20103 2.34664 0
M  V30 5490 C 504.363 -4.34412 2.87985 0
M  V30 5491 C 501.691 -4.60082 3.64062 0
M  V30 5492 C 504.043 -4.75838 4.16847 0
M  V30 5493 C 502.707 -4.88215 4.55195 0
M  V30 5494 H 501.977 -0.725573 0.150416 0
M  V30 5495 H 504.624 -1.60349 1.04692 0
M  V30 5496 H 502.929 -3.91477 -0.158982 0
M  V30 5497 H 504.626 -4.00385 0.222087 0
M  V30 5498 H 501.216 -3.95363 1.65487 0
M  V30 5499 H 505.4 -4.23001 2.59584 0
M  V30 5500 H 500.656 -4.67856 3.93599 0
M  V30 5501 H 504.83 -4.96834 4.87984 0
M  V30 5502 H 502.457 -5.18952 5.55512 0
M  V30 5503 N 504.032 -0.577932 -1.46621 0
M  V30 5504 C 505.28 -0.061566 -2.02006 0
M  V30 5505 C 505.601 1.30117 -1.4524 0
M  V30 5506 O 504.871 1.85313 -0.63529 0
M  V30 5507 H 503.451 -0.0197692 -0.746738 0
M  V30 5508 H 506.113 -0.752631 -1.79782 0
M  V30 5509 H 505.209 0.0110238 -3.12098 0
M  V30 5510 N 505.51 1.54411 -0.315457 0
M  V30 5511 C 506.735 2.05299 0.294496 0
M  V30 5512 C 507.16 1.19052 1.4563 0
M  V30 5513 O 506.518 0.197804 1.80218 0
M  V30 5514 C 506.566 3.5345 0.714549 0
M  V30 5515 O 505.67 3.70175 1.81781 0
M  V30 5516 H 505.011 0.661743 0.0547019 0
M  V30 5517 H 507.541 1.99327 -0.461508 0
M  V30 5518 H 507.551 3.9557 0.999426 0
M  V30 5519 H 506.226 4.1568 -0.135244 0
M  V30 5520 H 504.803 3.3996 1.53236 0
M  V30 5521 N 506.988 0.0434614 1.5754 0
M  V30 5522 C 508.228 -0.636023 1.94253 0
M  V30 5523 C 508.592 -1.68461 0.921132 0
M  V30 5524 O 509.793 -2.41762 1.17494 0
M  V30 5525 C 508.064 -1.22357 3.35803 0
M  V30 5526 S 509.623 -1.92213 3.94461 0
M  V30 5527 H 506.441 -0.209041 0.679575 0
M  V30 5528 H 509.043 0.110556 1.95187 0
M  V30 5529 H 507.747 -0.448162 4.07946 0
M  V30 5530 H 507.278 -2.00713 3.38346 0
M  V30 5531 H 509.293 -3.20199 3.79061 0
M  V30 5532 N 508.466 -1.55915 -0.229846 0
M  V30 5533 C 509.429 -1.90914 -1.26824 0
M  V30 5534 C 510.429 -0.786999 -1.40225 0
M  V30 5535 O 511.619 -1.05484 -1.38632 0
M  V30 5536 C 508.751 -2.15264 -2.64337 0
M  V30 5537 H 509.944 -2.8378 -0.969998 0
M  V30 5538 H 507.497 -1.49069 -0.4699 0
M  V30 5539 H 508.232 -1.24923 -2.99274 0
M  V30 5540 H 508.017 -2.97005 -2.55989 0
M  V30 5541 H 509.507 -2.43467 -3.39284 0
M  V30 5542 N 509.944 0.496216 -1.49584 0
M  V30 5543 C 511.36 0.827814 -1.36453 0
M  V30 5544 C 511.56 1.97464 -0.401285 0
M  V30 5545 O 510.616 2.51958 0.165296 0
M  V30 5546 C 511.929 1.16352 -2.77277 0
M  V30 5547 C 513.477 1.27145 -2.86013 0
M  V30 5548 C 513.952 1.64042 -4.27615 0
M  V30 5549 N 515.443 1.71082 -4.30448 0
M  V30 5550 C 516.178 2.01085 -5.36984 0
M  V30 5551 N 515.674 2.2928 -6.5376 0
M  V30 5552 N 517.467 2.02376 -5.24405 0
M  V30 5553 H 509.618 -0.259947 -2.10803 0
M  V30 5554 H 511.881 -0.0537163 -0.946477 0
M  V30 5555 H 511.587 0.394153 -3.49484 0
M  V30 5556 H 511.461 2.10582 -3.12946 0
M  V30 5557 H 513.848 2.03152 -2.1404 0
M  V30 5558 H 513.929 0.309542 -2.5392 0
M  V30 5559 H 513.573 0.88583 -5.00115 0
M  V30 5560 H 513.503 2.6134 -4.57175 0
M  V30 5561 H 515.994 1.51434 -3.46232 0
M  V30 5562 H 516.307 2.51376 -7.30774 0
M  V30 5563 H 514.652 2.26726 -6.56978 0
M  V30 5564 H 517.843 1.79829 -4.32179 0
M  V30 5565 H 518.016 2.25425 -6.07526 0
M  V30 5566 N 511.423 1.38739 0.74761 0
M  V30 5567 C 512.839 1.20067 1.05148 0
M  V30 5568 C 513.039 0.0534835 2.01429 0
M  V30 5569 O 512.095 -0.59886 2.45296 0
M  V30 5570 C 513.408 2.52957 1.62584 0
M  V30 5571 C 514.956 2.59692 1.74726 0
M  V30 5572 C 515.431 3.92772 2.35573 0
M  V30 5573 N 516.922 3.94343 2.42997 0
M  V30 5574 C 517.657 4.9408 2.90985 0
M  V30 5575 N 517.153 6.04214 3.38965 0
M  V30 5576 N 518.946 4.81466 2.9008 0
M  V30 5577 H 511.097 2.12121 0.108808 0
M  V30 5578 H 513.36 0.941491 0.110899 0
M  V30 5579 H 513.066 3.37389 0.993051 0
M  V30 5580 H 512.94 2.71779 2.61565 0
M  V30 5581 H 515.327 1.75651 2.3713 0
M  V30 5582 H 515.408 2.44731 0.744326 0
M  V30 5583 H 515.052 4.77238 1.738 0
M  V30 5584 H 514.982 4.05046 3.36519 0
M  V30 5585 H 517.473 3.14799 2.0907 0
M  V30 5586 H 517.786 6.76241 3.74056 0
M  V30 5587 H 516.131 6.07825 3.37007 0
M  V30 5588 H 519.322 3.94535 2.51912 0
M  V30 5589 H 519.495 5.59344 3.27166 0
M  V30 5590 N 512.901 -0.976442 1.23707 0
M  V30 5591 C 514.148 -1.71827 1.07153 0
M  V30 5592 C 514.476 -1.9053 -0.390982 0
M  V30 5593 O 513.731 -1.45779 -1.30564 0
M  V30 5594 C 514.03 -3.11814 1.74662 0
M  V30 5595 C 513.696 -3.12978 3.24585 0
M  V30 5596 C 512.358 -3.13003 3.6549 0
M  V30 5597 C 514.71 -3.07986 4.20469 0
M  V30 5598 C 512.038 -3.05757 5.00729 0
M  V30 5599 C 514.39 -3.02282 5.55705 0
M  V30 5600 C 513.054 -3.00631 5.95968 0
M  V30 5601 H 512.324 -0.628758 0.392102 0
M  V30 5602 H 514.971 -1.14239 1.53693 0
M  V30 5603 H 513.276 -3.72812 1.20492 0
M  V30 5604 H 514.973 -3.67989 1.59328 0
M  V30 5605 H 511.563 -3.13718 2.92026 0
M  V30 5606 H 515.747 -3.07103 3.89874 0
M  V30 5607 H 511.003 -3.02834 5.31132 0
M  V30 5608 H 515.177 -2.97376 6.29714 0
M  V30 5609 H 512.804 -2.94771 7.00724 0
M  V30 5610 N 514.379 -1.04941 -1.1758 0
M  V30 5611 C 515.626 -0.757989 -1.87779 0
M  V30 5612 C 515.954 0.714827 -1.80888 0
M  V30 5613 O 515.209 1.53824 -1.20982 0
M  V30 5614 C 515.508 -1.18062 -3.37337 0
M  V30 5615 C 515.174 -2.65521 -3.6443 0
M  V30 5616 C 513.836 -3.05804 -3.71534 0
M  V30 5617 C 516.188 -3.60822 -3.76108 0
M  V30 5618 C 513.516 -4.40256 -3.87803 0
M  V30 5619 C 515.868 -4.95005 -3.93895 0
M  V30 5620 C 514.532 -5.34945 -3.99237 0
M  V30 5621 H 513.802 -0.277368 -0.68713 0
M  V30 5622 H 516.449 -1.31603 -1.39115 0
M  V30 5623 H 514.754 -0.541525 -3.8804 0
M  V30 5624 H 516.451 -0.932368 -3.9001 0
M  V30 5625 H 513.041 -2.33324 -3.59524 0
M  V30 5626 H 517.225 -3.30841 -3.69943 0
M  V30 5627 H 512.481 -4.70707 -3.90186 0
M  V30 5628 H 516.655 -5.68746 -4.01872 0
M  V30 5629 H 514.282 -6.39135 -4.11596 0
M  V30 5630 N 515.857 1.33968 -0.830081 0
M  V30 5631 C 517.273 1.51003 -0.516742 0
M  V30 5632 C 517.473 1.77286 0.957694 0
M  V30 5633 O 516.529 1.82797 1.74188 0
M  V30 5634 C 517.842 2.67036 -1.38247 0
M  V30 5635 C 519.39 2.80919 -1.38034 0
M  V30 5636 C 519.865 4.00004 -2.23071 0
M  V30 5637 N 521.356 4.07224 -2.20733 0
M  V30 5638 C 522.091 4.98541 -2.83275 0
M  V30 5639 N 521.587 5.95033 -3.54835 0
M  V30 5640 N 523.38 4.91469 -2.72791 0
M  V30 5641 H 515.531 1.15168 -1.78466 0
M  V30 5642 H 517.794 0.565443 -0.760906 0
M  V30 5643 H 517.5 2.54266 -2.42985 0
M  V30 5644 H 517.374 3.62226 -1.05225 0
M  V30 5645 H 519.761 2.93127 -0.340713 0
M  V30 5646 H 519.842 1.86517 -1.75057 0
M  V30 5647 H 519.486 3.88557 -3.27087 0
M  V30 5648 H 519.416 4.93634 -1.83394 0
M  V30 5649 H 521.907 3.38162 -1.68687 0
M  V30 5650 H 522.22 6.61357 -3.99784 0
M  V30 5651 H 520.565 5.95135 -3.58942 0
M  V30 5652 H 523.756 4.15048 -2.16456 0
M  V30 5653 H 523.929 5.62439 -3.21818 0
M  V30 5654 N 517.335 0.585699 1.46312 0
M  V30 5655 C 518.298 -0.135673 2.28798 0
M  V30 5656 C 519.298 -0.815988 1.38558 0
M  V30 5657 O 520.488 -0.667487 1.60904 0
M  V30 5658 C 517.62 -1.20163 3.1902 0
M  V30 5659 H 518.813 0.589257 2.94054 0
M  V30 5660 H 516.366 0.343794 1.52472 0
M  V30 5661 H 517.101 -1.95804 2.58517 0
M  V30 5662 H 516.886 -0.718282 3.85465 0
M  V30 5663 H 518.376 -1.70749 3.81096 0
M  V30 5664 N 518.813 -1.54241 0.323641 0
M  V30 5665 C 519.743 -2.27289 -0.534993 0
M  V30 5666 C 520.724 -1.28087 -1.11927 0
M  V30 5667 O 521.909 -1.56899 -1.14439 0
M  V30 5668 C 519.039 -3.03075 -1.69596 0
M  V30 5669 C 517.993 -4.09614 -1.24098 0
M  V30 5670 C 517.319 -4.73242 -2.4889 0
M  V30 5671 C 518.619 -5.21087 -0.355789 0
M  V30 5672 H 520.313 -2.99308 0.0743257 0
M  V30 5673 H 517.859 -1.43952 0.0371874 0
M  V30 5674 H 519.812 -3.52907 -2.30293 0
M  V30 5675 H 518.536 -2.28673 -2.33187 0
M  V30 5676 H 517.195 -3.60666 -0.656945 0
M  V30 5677 H 516.843 -3.95455 -3.10845 0
M  V30 5678 H 516.543 -5.45209 -2.19138 0
M  V30 5679 H 518.067 -5.25848 -3.10348 0
M  V30 5680 H 519.481 -5.66675 -0.869042 0
M  V30 5681 H 517.878 -5.9991 -0.151045 0
M  V30 5682 H 518.948 -4.81005 0.613339 0
M  V30 5683 N 520.291 -0.0518155 -1.57515 0
M  V30 5684 C 521.568 0.661727 -1.84067 0
M  V30 5685 C 521.948 1.88999 -0.940351 0
M  V30 5686 O 521.296 2.285 -0.00155404 0
M  V30 5687 C 521.506 1.01841 -3.3381 0
M  V30 5688 C 522.854 1.40043 -4.00841 0
M  V30 5689 O 523.878 1.11073 -3.38439 0
M  V30 5690 O 522.737 1.94111 -5.10865 0
M  V30 5691 H 519.831 0.326702 -0.759733 0
M  V30 5692 H 522.377 -0.0812277 -1.69505 0
M  V30 5693 H 521.149 0.145202 -3.91031 0
M  V30 5694 H 520.772 1.81879 -3.53562 0
M  V30 5695 N 521.769 1.56035 0.221574 0
M  V30 5696 C 522.701 1.889 1.29805 0
M  V30 5697 C 523.714 0.777269 1.43047 0
M  V30 5698 O 524.903 1.05557 1.43945 0
M  V30 5699 C 522.003 2.0825 2.67367 0
M  V30 5700 C 521.176 3.39267 2.76073 0
M  V30 5701 C 520.235 3.48049 3.94649 0
M  V30 5702 O 519.261 4.2108 3.82988 0
M  V30 5703 N 520.463 2.79191 5.08953 0
M  V30 5704 H 523.228 2.81831 1.01938 0
M  V30 5705 H 520.789 1.5658 0.411612 0
M  V30 5706 H 522.781 2.11441 3.45072 0
M  V30 5707 H 521.351 1.21944 2.87834 0
M  V30 5708 H 520.571 3.48175 1.84846 0
M  V30 5709 H 521.859 4.25575 2.7886 0
M  V30 5710 H 521.257 2.19635 5.21322 0
M  V30 5711 H 519.814 2.88043 5.84701 0
M  V30 5712 N 523.247 -0.488276 1.49845 0
M  V30 5713 C 524.494 -1.24157 1.59973 0
M  V30 5714 C 524.822 -1.92293 0.292182 0
M  V30 5715 O 524.077 -1.81942 -0.720813 0
M  V30 5716 C 524.376 -2.32152 2.71735 0
M  V30 5717 C 524.042 -1.81387 4.12807 0
M  V30 5718 C 522.704 -1.67262 4.51195 0
M  V30 5719 C 525.056 -1.43537 5.01045 0
M  V30 5720 C 522.384 -1.13685 5.7558 0
M  V30 5721 C 524.736 -0.914081 6.25961 0
M  V30 5722 C 523.4 -0.759327 6.63167 0
M  V30 5723 H 522.67 -0.454322 0.585383 0
M  V30 5724 H 525.317 -0.540261 1.83721 0
M  V30 5725 H 523.622 -3.08122 2.42008 0
M  V30 5726 H 525.319 -2.90164 2.76778 0
M  V30 5727 H 521.909 -1.93344 3.82513 0
M  V30 5728 H 526.093 -1.53292 4.72033 0
M  V30 5729 H 521.349 -1.00426 6.03096 0
M  V30 5730 H 525.523 -0.612066 6.93705 0
M  V30 5731 H 523.15 -0.342002 7.5943 0
M  V30 5732 N 524.725 -1.39134 -0.740242 0
M  V30 5733 C 526.002 -1.26584 -1.49117 0
M  V30 5734 C 526.382 0.126902 -2.10718 0
M  V30 5735 O 525.73 1.13765 -1.98166 0
M  V30 5736 C 525.94 -2.38619 -2.54681 0
M  V30 5737 C 527.288 -2.77685 -3.21211 0
M  V30 5738 O 528.312 -2.38029 -2.64991 0
M  V30 5739 O 527.171 -3.46115 -4.22926 0
M  V30 5740 H 524.265 -0.495769 -0.661923 0
M  V30 5741 H 526.811 -1.50995 -0.774514 0
M  V30 5742 H 525.583 -3.3175 -2.07504 0
M  V30 5743 H 525.206 -2.15845 -3.33911 0
M  V30 5744 N 526.204 0.969867 -1.24223 0
M  V30 5745 C 527.152 2.08535 -1.03034 0
M  V30 5746 C 528.146 1.69366 0.0340379 0
M  V30 5747 O 529.352 1.79597 -0.12034 0
M  V30 5748 H 525.727 0.682313 -0.316154 0
M  V30 5749 H 527.698 2.23569 -1.97635 0
M  V30 5750 C 526.447 3.4158 -0.649509 0
M  V30 5751 H 525.77 3.72177 -1.46028 0
M  V30 5752 H 527.21 4.20536 -0.540841 0
M  V30 5753 C 525.669 3.30703 0.643194 0
M  V30 5754 O 526.199 3.64443 1.68951 0
M  V30 5755 N 524.405 2.83841 0.623095 0
M  V30 5756 H 523.952 2.56583 -0.228719 0
M  V30 5757 H 523.91 2.76946 1.48823 0
M  V30 5758 N 527.682 1.05563 1.17022 0
M  V30 5759 C 528.931 0.763036 1.8671 0
M  V30 5760 C 529.244 -0.712857 1.82147 0
M  V30 5761 O 530.45 -1.11955 2.47343 0
M  V30 5762 C 528.906 1.31474 3.35026 0
M  V30 5763 C 528.514 2.82034 3.48081 0
M  V30 5764 C 530.258 1.09935 4.10018 0
M  V30 5765 C 528.165 3.30486 4.90442 0
M  V30 5766 H 527.095 0.281747 0.699382 0
M  V30 5767 H 529.746 1.2734 1.32124 0
M  V30 5768 H 528.128 0.732171 3.89173 0
M  V30 5769 H 529.302 3.46178 3.04133 0
M  V30 5770 H 527.617 3.02156 2.86515 0
M  V30 5771 H 530.214 1.43632 5.15048 0
M  V30 5772 H 530.557 0.0373072 4.16283 0
M  V30 5773 H 531.09 1.64732 3.62089 0
M  V30 5774 H 527.829 4.36137 4.89352 0
M  V30 5775 H 527.349 2.71086 5.35044 0
M  V30 5776 H 529.028 3.25382 5.59227 0
M  V30 5777 N 529.16 -1.33526 0.837174 0
M  V30 5778 C 530.11 -2.2672 0.241269 0
M  V30 5779 C 531.094 -1.49183 -0.602756 0
M  V30 5780 O 532.286 -1.71052 -0.455002 0
M  V30 5781 C 529.415 -3.38294 -0.584125 0
M  V30 5782 C 528.501 -4.23231 0.271315 0
M  V30 5783 N 528.892 -4.87473 1.34922 0
M  V30 5784 C 527.19 -4.45962 0.0580589 0
M  V30 5785 C 527.891 -5.50685 1.87405 0
M  V30 5786 N 526.867 -5.30732 1.17578 0
M  V30 5787 H 530.669 -2.73903 1.06558 0
M  V30 5788 H 528.183 -1.47411 0.68145 0
M  V30 5789 H 530.18 -4.04044 -1.02731 0
M  V30 5790 H 528.84 -2.9266 -1.40643 0
M  V30 5791 H 529.851 -4.88077 1.7321 0
M  V30 5792 H 526.528 -4.11052 -0.730938 0
M  V30 5793 H 527.918 -6.11845 2.77661 0
M  V30 5794 N 530.638 -0.59345 -1.46 0
M  V30 5795 C 531.915 -0.0157933 -1.95594 0
M  V30 5796 C 532.295 1.44807 -1.53604 0
M  V30 5797 O 531.643 2.14342 -0.791824 0
M  V30 5798 C 531.853 -0.199081 -3.48432 0
M  V30 5799 C 533.201 -0.0724943 -4.24538 0
M  V30 5800 O 534.225 -0.128469 -3.55968 0
M  V30 5801 O 533.084 0.0542426 -5.46473 0
M  V30 5802 H 530.178 0.043749 -0.825842 0
M  V30 5803 H 532.724 -0.662522 -1.56233 0
M  V30 5804 H 531.496 -1.21631 -3.71916 0
M  V30 5805 H 531.119 0.483576 -3.94648 0
M  V30 5806 N 532.116 1.54067 -0.331816 0
M  V30 5807 C 533.046 2.27569 0.522932 0
M  V30 5808 C 534.027 1.28679 1.11247 0
M  V30 5809 O 535.212 1.57504 1.13605 0
M  V30 5810 C 532.342 3.0397 1.67987 0
M  V30 5811 C 531.296 4.10267 1.21924 0
M  V30 5812 C 530.622 4.74555 2.46377 0
M  V30 5813 C 531.922 5.21268 0.32815 0
M  V30 5814 H 533.616 2.99264 -0.0901977 0
M  V30 5815 H 531.162 1.4393 -0.044821 0
M  V30 5816 H 533.115 3.54123 2.28418 0
M  V30 5817 H 531.839 2.29906 2.31971 0
M  V30 5818 H 530.498 3.61009 0.637809 0
M  V30 5819 H 530.146 3.97098 3.08743 0
M  V30 5820 H 529.846 5.46363 2.16243 0
M  V30 5821 H 531.37 5.27487 3.07555 0
M  V30 5822 H 532.784 5.67128 0.838978 0
M  V30 5823 H 531.181 5.99982 0.119228 0
M  V30 5824 H 532.251 4.80673 -0.638839 0
M  V30 5825 N 533.594 0.0601682 1.57485 0
M  V30 5826 C 534.84 -0.612501 1.93329 0
M  V30 5827 C 535.173 -1.6996 0.939526 0
M  V30 5828 O 534.448 -1.94472 -0.0330957 0
M  V30 5829 C 534.731 -1.20025 3.39508 0
M  V30 5830 C 534.584 -0.12059 4.49638 0
M  V30 5831 C 535.903 -2.10923 3.86264 0
M  V30 5832 H 533.022 -0.221185 0.703027 0
M  V30 5833 H 535.664 0.123768 1.89596 0
M  V30 5834 H 533.814 -1.82774 3.42821 0
M  V30 5835 H 535.486 0.51185 4.58452 0
M  V30 5836 H 533.729 0.550251 4.30296 0
M  V30 5837 H 534.4 -0.572019 5.49028 0
M  V30 5838 H 536.876 -1.58124 3.84884 0
M  V30 5839 H 535.752 -2.48987 4.8918 0
M  V30 5840 H 536.013 -3.01292 3.23536 0
M  V30 5841 N 535.072 -1.5615 -0.213296 0
M  V30 5842 C 536.319 -1.79546 -0.936462 0
M  V30 5843 C 536.647 -0.630337 -1.84003 0
M  V30 5844 O 535.902 0.384883 -1.91878 0
M  V30 5845 C 536.201 -3.08772 -1.79985 0
M  V30 5846 C 535.867 -4.38532 -1.04882 0
M  V30 5847 C 534.529 -4.73787 -0.841393 0
M  V30 5848 C 536.881 -5.18609 -0.51907 0
M  V30 5849 C 534.209 -5.86627 -0.0924403 0
M  V30 5850 C 536.561 -6.32229 0.216581 0
M  V30 5851 C 535.225 -6.6608 0.435191 0
M  V30 5852 H 534.495 -0.657004 -0.342676 0
M  V30 5853 H 537.142 -1.9041 -0.204051 0
M  V30 5854 H 535.447 -2.93065 -2.60038 0
M  V30 5855 H 537.144 -3.24077 -2.36168 0
M  V30 5856 H 533.734 -4.10855 -1.22048 0
M  V30 5857 H 537.918 -4.91801 -0.666775 0
M  V30 5858 H 533.174 -6.11338 0.087081 0
M  V30 5859 H 537.348 -6.93503 0.634538 0
M  V30 5860 H 534.975 -7.5336 1.01746 0
M  V30 5861 N 536.55 0.480323 -1.50102 0
M  V30 5862 C 537.796 1.23489 -1.60867 0
M  V30 5863 C 538.129 1.91809 -0.303827 0
M  V30 5864 O 537.404 1.81694 0.694092 0
M  V30 5865 C 537.687 2.28578 -2.78252 0
M  V30 5866 C 537.54 1.64624 -4.18592 0
M  V30 5867 C 538.859 3.2997 -2.91218 0
M  V30 5868 H 535.978 0.447605 -0.585507 0
M  V30 5869 H 538.62 0.530005 -1.82458 0
M  V30 5870 H 536.77 2.88697 -2.59974 0
M  V30 5871 H 538.442 1.08173 -4.48438 0
M  V30 5872 H 536.685 0.949645 -4.23278 0
M  V30 5873 H 537.356 2.40946 -4.96638 0
M  V30 5874 H 539.832 2.79864 -3.07921 0
M  V30 5875 H 538.708 4.00839 -3.74993 0
M  V30 5876 H 538.969 3.93541 -2.0144 0
M  V30 5877 N 538.028 1.39524 0.732853 0
M  V30 5878 C 539.258 1.3994 1.51988 0
M  V30 5879 C 539.666 -0.00727973 1.89199 0
M  V30 5880 O 539.009 -0.989521 1.54771 0
M  V30 5881 C 539.071 2.21026 2.83527 0
M  V30 5882 C 538.735 3.69633 2.68738 0
M  V30 5883 C 539.732 4.62665 2.37143 0
M  V30 5884 C 537.417 4.13244 2.85542 0
M  V30 5885 C 539.411 5.97291 2.22536 0
M  V30 5886 C 537.098 5.47945 2.70554 0
M  V30 5887 C 538.096 6.39783 2.39097 0
M  V30 5888 O 537.784 7.72002 2.24204 0
M  V30 5889 H 537.516 0.479795 0.476206 0
M  V30 5890 H 540.07 1.8399 0.913054 0
M  V30 5891 H 538.3 1.71728 3.46477 0
M  V30 5892 H 539.989 2.13594 3.45156 0
M  V30 5893 H 540.755 4.30272 2.2381 0
M  V30 5894 H 536.634 3.42094 3.09019 0
M  V30 5895 H 540.178 6.68939 1.97905 0
M  V30 5896 H 536.075 5.79928 2.83466 0
M  V30 5897 H 536.843 7.8275 2.39258 0
M  V30 5898 N 539.506 -0.963266 1.24736 0
M  V30 5899 C 540.754 -1.70343 1.08755 0
M  V30 5900 C 541.075 -1.91387 -0.373619 0
M  V30 5901 O 540.345 -1.4948 -1.2662 0
M  V30 5902 H 538.925 -0.631224 0.399456 0
M  V30 5903 H 541.587 -1.15859 1.56725 0
M  V30 5904 H 540.683 -2.68616 1.58909 0
M  V30 5905 N 540.985 -1.06182 -1.16461 0
M  V30 5906 C 542.225 -0.787048 -1.8864 0
M  V30 5907 C 542.589 0.674093 -1.79778 0
M  V30 5908 O 543.79 1.06341 -2.46871 0
M  V30 5909 C 542.061 -1.2666 -3.34203 0
M  V30 5910 S 543.62 -1.12071 -4.24247 0
M  V30 5911 H 540.438 -0.285539 -0.651144 0
M  V30 5912 H 543.04 -1.35851 -1.40587 0
M  V30 5913 H 541.744 -2.32496 -3.38192 0
M  V30 5914 H 541.275 -0.689841 -3.87304 0
M  V30 5915 H 543.29 -0.0509341 -4.96174 0
M  V30 5916 N 542.463 1.3308 -0.844243 0
M  V30 5917 C 543.693 2.01515 -0.455541 0
M  V30 5918 C 544.101 1.63655 0.949406 0
M  V30 5919 O 543.444 0.84848 1.62931 0
M  V30 5920 C 543.506 3.55967 -0.502801 0
M  V30 5921 C 543.17 4.17222 -1.86481 0
M  V30 5922 C 544.167 4.36205 -2.8288 0
M  V30 5923 C 541.852 4.53528 -2.15911 0
M  V30 5924 C 543.846 4.90649 -4.06869 0
M  V30 5925 C 541.533 5.07679 -3.40155 0
M  V30 5926 C 542.531 5.26186 -4.35451 0
M  V30 5927 O 542.219 5.79183 -5.57496 0
M  V30 5928 H 541.951 0.65199 -0.178565 0
M  V30 5929 H 544.505 1.70867 -1.1399 0
M  V30 5930 H 542.735 3.85965 0.23836 0
M  V30 5931 H 544.424 4.05688 -0.131169 0
M  V30 5932 H 545.19 4.085 -2.61444 0
M  V30 5933 H 541.069 4.38414 -1.42528 0
M  V30 5934 H 544.613 5.0501 -4.81259 0
M  V30 5935 H 540.51 5.34815 -3.61446 0
M  V30 5936 H 541.278 5.97591 -5.5931 0
M  V30 5937 N 543.941 0.601185 1.45683 0
M  V30 5938 C 545.357 0.264315 1.57396 0
M  V30 5939 C 545.557 -1.23324 1.59353 0
M  V30 5940 O 544.613 -2.01594 1.52039 0
M  V30 5941 C 545.926 0.929839 2.85962 0
M  V30 5942 C 547.474 0.905156 2.99626 0
M  V30 5943 C 547.949 1.55057 4.30954 0
M  V30 5944 N 549.44 1.51576 4.37697 0
M  V30 5945 C 550.175 1.98436 5.37969 0
M  V30 5946 N 549.671 2.53352 6.44813 0
M  V30 5947 N 551.464 1.89242 5.29286 0
M  V30 5948 H 543.615 1.57363 1.42656 0
M  V30 5949 H 545.878 0.658831 0.681649 0
M  V30 5950 H 545.584 1.98404 2.90394 0
M  V30 5951 H 545.458 0.449224 3.74515 0
M  V30 5952 H 547.845 -0.14048 2.94765 0
M  V30 5953 H 547.926 1.42397 2.12501 0
M  V30 5954 H 547.57 2.5955 4.36573 0
M  V30 5955 H 547.5 1.00682 5.16886 0
M  V30 5956 H 549.991 1.11452 3.61091 0
M  V30 5957 H 550.304 2.86918 7.17564 0
M  V30 5958 H 548.649 2.57388 6.45582 0
M  V30 5959 H 551.84 1.46083 4.44722 0
M  V30 5960 H 552.013 2.26075 6.07284 0
M  V30 5961 N 545.419 -1.53889 0.339982 0
M  V30 5962 C 546.369 -2.2165 -0.534354 0
M  V30 5963 C 547.353 -1.20266 -1.06887 0
M  V30 5964 O 548.545 -1.45827 -1.00316 0
M  V30 5965 C 545.674 -2.99014 -1.68659 0
M  V30 5966 C 544.76 -4.07751 -1.16618 0
M  V30 5967 N 545.151 -5.04469 -0.366717 0
M  V30 5968 C 543.449 -4.21998 -1.4434 0
M  V30 5969 C 544.15 -5.81638 -0.0847275 0
M  V30 5970 N 543.126 -5.39388 -0.675391 0
M  V30 5971 H 546.928 -2.93781 0.0835562 0
M  V30 5972 H 544.442 -1.61736 0.146665 0
M  V30 5973 H 546.439 -3.46056 -2.32489 0
M  V30 5974 H 545.099 -2.28408 -2.30781 0
M  V30 5975 H 546.11 -5.17899 -0.00811038 0
M  V30 5976 H 542.787 -3.62612 -2.06928 0
M  V30 5977 H 544.177 -6.69563 0.559943 0
M  V30 5978 N 546.897 -0.0685191 -1.57451 0
M  V30 5979 C 548.143 0.596247 -1.94465 0
M  V30 5980 C 548.498 1.67417 -0.948117 0
M  V30 5981 O 547.791 1.91576 0.0301056 0
M  V30 5982 C 547.985 1.22051 -3.35914 0
M  V30 5983 C 547.814 0.204586 -4.49234 0
M  V30 5984 C 546.584 -0.20959 -5.04865 0
M  V30 5985 C 548.782 -0.556872 -5.11276 0
M  V30 5986 N 546.764 -1.21656 -6.01725 0
M  V30 5987 C 548.135 -1.41642 -6.03604 0
M  V30 5988 C 550.19 -0.613297 -4.94108 0
M  V30 5989 C 548.893 -2.32737 -6.80607 0
M  V30 5990 C 550.919 -1.51174 -5.71752 0
M  V30 5991 C 550.281 -2.35898 -6.63726 0
M  V30 5992 H 546.38 0.189307 -0.75874 0
M  V30 5993 H 548.964 -0.144899 -1.9416 0
M  V30 5994 H 547.135 1.9316 -3.36963 0
M  V30 5995 H 548.867 1.84548 -3.60172 0
M  V30 5996 H 545.622 0.172871 -4.73284 0
M  V30 5997 H 546.046 -1.71746 -6.54853 0
M  V30 5998 H 550.688 0.0275228 -4.22791 0
M  V30 5999 H 548.406 -2.97856 -7.51204 0
M  V30 6000 H 551.992 -1.5602 -5.6049 0
M  V30 6001 H 550.872 -3.04291 -7.22756 0
M  V30 6002 N 548.375 1.56261 0.205012 0
M  V30 6003 C 549.623 1.79684 0.925096 0
M  V30 6004 C 549.944 0.63989 1.84202 0
M  V30 6005 O 549.214 -0.342345 1.92885 0
M  V30 6006 H 547.794 0.662774 0.344587 0
M  V30 6007 H 550.456 1.93734 0.212899 0
M  V30 6008 H 549.552 2.72467 1.52211 0
M  V30 6009 N 549.853 -0.472356 1.50355 0
M  V30 6010 C 550.803 -1.56809 1.65514 0
M  V30 6011 C 551.787 -1.5261 0.509801 0
M  V30 6012 O 552.979 -1.59655 0.764145 0
M  V30 6013 C 550.108 -2.9526 1.75146 0
M  V30 6014 C 549.194 -3.04348 2.95353 0
M  V30 6015 N 549.585 -2.83253 4.19048 0
M  V30 6016 C 547.883 -3.35482 2.93884 0
M  V30 6017 C 548.584 -2.97273 5.00003 0
M  V30 6018 N 547.56 -3.27418 4.33934 0
M  V30 6019 H 551.362 -1.39197 2.58846 0
M  V30 6020 H 548.876 -0.67906 1.47521 0
M  V30 6021 H 550.873 -3.74044 1.8411 0
M  V30 6022 H 549.533 -3.1392 0.829717 0
M  V30 6023 H 550.544 -2.5886 4.48567 0
M  V30 6024 H 547.221 -3.60138 2.11204 0
M  V30 6025 H 548.611 -2.85214 6.08361 0
M  V30 6026 N 551.331 -1.39911 -0.725443 0
M  V30 6027 C 552.742 -1.33599 -1.30415 0
M  V30 6028 C 553.093 -0.00481792 -1.96199 0
M  V30 6029 O 552.218 0.897275 -1.96921 0
M  V30 6030 C 552.813 -2.41965 -2.37146 0
M  V30 6031 C 551.372 -2.39144 -2.90667 0
M  V30 6032 C 550.519 -2.23355 -1.64341 0
M  V30 6033 H 553.47 -1.4986 -0.522267 0
M  V30 6034 H 553.491 -2.09304 -3.17761 0
M  V30 6035 H 553.003 -3.38837 -1.89238 0
M  V30 6036 H 551.104 -1.4594 -3.4283 0
M  V30 6037 H 551.217 -3.34362 -3.43131 0
M  V30 6038 H 549.581 -1.70696 -1.89037 0
M  V30 6039 H 550.364 -3.2221 -1.18471 0
M  V30 6040 N 552.809 0.956637 -1.25245 0
M  V30 6041 C 554.039 1.7332 -1.12445 0
M  V30 6042 C 554.447 1.86392 0.324732 0
M  V30 6043 O 553.79 1.35967 1.23526 0
M  V30 6044 C 553.852 3.16603 -1.70303 0
M  V30 6045 C 553.516 3.26966 -3.19284 0
M  V30 6046 C 554.513 3.11434 -4.16299 0
M  V30 6047 C 552.198 3.50851 -3.59456 0
M  V30 6048 C 554.192 3.1963 -5.51467 0
M  V30 6049 C 551.879 3.58684 -4.94761 0
M  V30 6050 C 552.877 3.43087 -5.90576 0
M  V30 6051 O 552.565 3.50598 -7.2342 0
M  V30 6052 H 552.297 0.549981 -0.393061 0
M  V30 6053 H 554.851 1.20892 -1.66055 0
M  V30 6054 H 553.081 3.70385 -1.11138 0
M  V30 6055 H 554.77 3.76109 -1.52632 0
M  V30 6056 H 555.536 2.92853 -3.86604 0
M  V30 6057 H 551.415 3.62053 -2.85375 0
M  V30 6058 H 554.959 3.07373 -6.26233 0
M  V30 6059 H 550.856 3.76782 -5.24124 0
M  V30 6060 H 551.624 3.67242 -7.31489 0
M  V30 6061 N 554.287 1.06798 1.15896 0
M  V30 6062 C 555.536 0.782796 1.8589 0
M  V30 6063 C 555.849 -0.693498 1.82893 0
M  V30 6064 O 557.055 -1.09325 2.48516 0
M  V30 6065 C 555.511 1.3502 3.33613 0
M  V30 6066 C 555.119 2.8571 3.45071 0
M  V30 6067 C 556.863 1.14278 4.08829 0
M  V30 6068 C 554.77 3.35669 4.86909 0
M  V30 6069 H 553.7 0.289149 0.696354 0
M  V30 6070 H 556.351 1.28734 1.30766 0
M  V30 6071 H 554.733 0.773407 3.88374 0
M  V30 6072 H 555.907 3.49385 3.00445 0
M  V30 6073 H 554.222 3.05178 2.83294 0
M  V30 6074 H 556.819 1.49087 5.13495 0
M  V30 6075 H 557.162 0.0814575 4.1622 0
M  V30 6076 H 557.695 1.68563 3.60321 0
M  V30 6077 H 554.434 4.41302 4.84698 0
M  V30 6078 H 553.954 2.76745 5.32139 0
M  V30 6079 H 555.633 3.31296 5.55745 0
M  V30 6080 N 555.766 -1.3263 0.851289 0
M  V30 6081 C 557.043 -1.91982 0.374448 0
M  V30 6082 C 557.423 -1.77568 -1.14161 0
M  V30 6083 O 556.771 -1.1717 -1.96172 0
M  V30 6084 C 556.981 -3.38862 0.835088 0
M  V30 6085 C 558.329 -4.15999 0.850309 0
M  V30 6086 O 559.353 -3.47566 0.779505 0
M  V30 6087 O 558.212 -5.38189 0.949481 0
M  V30 6088 H 555.306 -0.819846 0.10854 0
M  V30 6089 H 557.852 -1.41422 0.937966 0
M  V30 6090 H 556.624 -3.43281 1.87814 0
M  V30 6091 H 556.247 -3.96821 0.248833 0
M  V30 6092 N 557.244 -0.608902 -1.45362 0
M  V30 6093 C 558.474 -0.110852 -2.06302 0
M  V30 6094 C 558.882 1.21062 -1.45398 0
M  V30 6095 O 558.225 1.74861 -0.562976 0
M  V30 6096 C 558.287 0.101793 -3.59356 0
M  V30 6097 C 557.951 -1.13808 -4.42602 0
M  V30 6098 C 558.948 -2.05653 -4.77496 0
M  V30 6099 C 556.633 -1.36727 -4.83333 0
M  V30 6100 C 558.627 -3.18745 -5.51978 0
M  V30 6101 C 556.314 -2.5012 -5.57569 0
M  V30 6102 C 557.312 -3.40957 -5.91809 0
M  V30 6103 O 557 -4.52376 -6.64538 0
M  V30 6104 H 556.732 -0.0666001 -0.672711 0
M  V30 6105 H 559.286 -0.836942 -1.87575 0
M  V30 6106 H 557.516 0.88279 -3.76489 0
M  V30 6107 H 559.205 0.551607 -4.02134 0
M  V30 6108 H 559.971 -1.89172 -4.46586 0
M  V30 6109 H 555.85 -0.669216 -4.56117 0
M  V30 6110 H 559.394 -3.8967 -5.78622 0
M  V30 6111 H 555.291 -2.66553 -5.87894 0
M  V30 6112 H 556.059 -4.51075 -6.82989 0
M  V30 6113 N 558.722 1.53707 -0.348139 0
M  V30 6114 C 560.138 1.596 0.00361134 0
M  V30 6115 C 560.338 1.36394 1.4832 0
M  V30 6116 O 559.394 1.16046 2.24253 0
M  V30 6117 C 560.707 2.97512 -0.436682 0
M  V30 6118 C 562.255 3.10568 -0.389416 0
M  V30 6119 C 562.73 4.50866 -0.805249 0
M  V30 6120 N 564.221 4.56929 -0.759616 0
M  V30 6121 C 564.956 5.63643 -1.05327 0
M  V30 6122 N 564.452 6.78189 -1.41531 0
M  V30 6123 N 566.245 5.5354 -0.977207 0
M  V30 6124 H 558.396 1.67044 -1.31187 0
M  V30 6125 H 560.659 0.782559 -0.535075 0
M  V30 6126 H 560.365 3.19575 -1.46849 0
M  V30 6127 H 560.239 3.76742 0.185744 0
M  V30 6128 H 562.626 2.88226 0.633228 0
M  V30 6129 H 562.707 2.33387 -1.04711 0
M  V30 6130 H 562.351 4.73943 -1.82593 0
M  V30 6131 H 562.281 5.26452 -0.124989 0
M  V30 6132 H 564.772 3.74675 -0.49265 0
M  V30 6133 H 565.085 7.55541 -1.62411 0
M  V30 6134 H 563.43 6.79624 -1.45381 0
M  V30 6135 H 566.621 4.62932 -0.693675 0
M  V30 6136 H 566.794 6.36614 -1.2094 0
M  V30 6137 N 560.2 0.0768682 1.57412 0
M  V30 6138 C 561.147 -0.888577 2.13009 0
M  V30 6139 C 562.117 -1.29198 1.0439 0
M  V30 6140 O 563.302 -1.37694 1.3208 0
M  V30 6141 C 560.442 -2.14899 2.70023 0
M  V30 6142 C 559.555 -1.79777 3.92816 0
M  V30 6143 C 558.69 -3.00467 4.38056 0
M  V30 6144 C 557.729 -2.61385 5.53484 0
M  V30 6145 N 556.866 -3.74851 5.93659 0
M  V30 6146 H 561.706 -0.407593 2.95199 0
M  V30 6147 H 559.243 -0.189534 1.45874 0
M  V30 6148 H 561.201 -2.88688 3.0119 0
M  V30 6149 H 559.831 -2.60529 1.9059 0
M  V30 6150 H 558.883 -0.960301 3.68079 0
M  V30 6151 H 560.195 -1.47027 4.76639 0
M  V30 6152 H 559.349 -3.82529 4.7091 0
M  V30 6153 H 558.088 -3.36413 3.53097 0
M  V30 6154 H 557.093 -1.77746 5.20275 0
M  V30 6155 H 558.318 -2.26603 6.40178 0
M  V30 6156 H 556.264 -4.1055 5.11649 0
M  V30 6157 H 556.181 -3.45887 6.72234 0
M  V30 6158 H 557.449 -4.57477 6.31138 0
M  V30 6159 N 561.678 -1.56367 -0.196722 0
M  V30 6160 C 562.926 -1.80172 -0.915554 0
M  V30 6161 C 563.247 -0.649649 -1.8386 0
M  V30 6162 O 562.517 0.332111 -1.93064 0
M  V30 6163 H 561.097 -0.664592 -0.341067 0
M  V30 6164 H 563.759 -1.93844 -0.202622 0
M  V30 6165 H 562.855 -2.7327 -1.50764 0
M  V30 6166 N 563.156 0.464375 -1.50603 0
M  V30 6167 C 564.086 1.56944 -1.72889 0
M  V30 6168 C 565.067 1.59979 -0.577997 0
M  V30 6169 O 566.252 1.76138 -0.817855 0
M  V30 6170 C 563.382 2.95225 -1.8292 0
M  V30 6171 C 562.336 3.07056 -2.98162 0
M  V30 6172 C 561.662 4.47051 -2.93343 0
M  V30 6173 C 562.962 2.83648 -4.38567 0
M  V30 6174 H 564.656 1.38547 -2.65415 0
M  V30 6175 H 562.202 0.665082 -1.27721 0
M  V30 6176 H 564.155 3.72467 -1.97095 0
M  V30 6177 H 562.879 3.14793 -0.870209 0
M  V30 6178 H 561.538 2.32248 -2.83648 0
M  V30 6179 H 561.186 4.63547 -1.95276 0
M  V30 6180 H 560.886 4.55902 -3.70712 0
M  V30 6181 H 562.41 5.26304 -3.09575 0
M  V30 6182 H 563.824 3.50636 -4.53572 0
M  V30 6183 H 562.221 3.03937 -5.17438 0
M  V30 6184 H 563.291 1.79451 -4.50472 0
M  V30 6185 N 564.634 1.40294 0.718013 0
M  V30 6186 C 565.859 1.41941 1.5122 0
M  V30 6187 C 566.284 0.0202371 1.88089 0
M  V30 6188 O 565.642 -0.971078 1.53101 0
M  V30 6189 C 565.69 2.3141 2.76554 0
M  V30 6190 O 564.794 1.75567 3.73162 0
M  V30 6191 H 564.135 0.482644 0.456016 0
M  V30 6192 H 566.665 1.84494 0.884478 0
M  V30 6193 H 566.675 2.46513 3.25108 0
M  V30 6194 H 565.35 3.33085 2.49053 0
M  V30 6195 H 563.927 1.69798 3.31999 0
M  V30 6196 N 566.112 -0.949982 1.2575 0
M  V30 6197 C 567.059 -2.04738 1.06541 0
M  V30 6198 C 568.029 -1.66078 -0.0268818 0
M  V30 6199 O 569.214 -1.90348 0.131196 0
M  V30 6200 C 566.354 -3.38027 0.695127 0
M  V30 6201 C 565.467 -3.89776 1.86276 0
M  V30 6202 C 564.602 -5.11411 1.4364 0
M  V30 6203 C 563.641 -5.554 2.57287 0
M  V30 6204 N 562.778 -6.68244 2.15395 0
M  V30 6205 H 567.618 -2.20502 2.00457 0
M  V30 6206 H 565.155 -1.0805 0.998178 0
M  V30 6207 H 567.113 -4.14641 0.461375 0
M  V30 6208 H 565.743 -3.22135 -0.207046 0
M  V30 6209 H 564.795 -3.0964 2.20969 0
M  V30 6210 H 566.107 -4.18368 2.71606 0
M  V30 6211 H 565.261 -5.95457 1.16257 0
M  V30 6212 H 564 -4.84545 0.553879 0
M  V30 6213 H 563.005 -4.69916 2.85409 0
M  V30 6214 H 564.23 -5.84272 3.46125 0
M  V30 6215 H 562.176 -6.43078 1.29565 0
M  V30 6216 H 562.093 -6.96377 2.94272 0
M  V30 6217 H 563.361 -7.55687 1.91201 0
M  V30 6218 N 567.59 -1.07411 -1.15328 0
M  V30 6219 C 568.52 -0.716472 -2.22236 0
M  V30 6220 C 569.501 0.296373 -1.67498 0
M  V30 6221 O 570.686 0.168989 -1.93463 0
M  V30 6222 C 567.816 -0.114142 -3.47112 0
M  V30 6223 C 566.77 -1.05421 -4.14814 0
M  V30 6224 C 566.096 -0.314604 -5.33774 0
M  V30 6225 C 567.396 -2.38808 -4.64508 0
M  V30 6226 H 569.09 -1.61029 -2.52408 0
M  V30 6227 H 566.636 -0.775702 -1.21321 0
M  V30 6228 H 568.589 0.148001 -4.2114 0
M  V30 6229 H 567.313 0.814755 -3.16274 0
M  V30 6230 H 565.972 -1.30128 -3.42728 0
M  V30 6231 H 565.62 0.617772 -4.99192 0
M  V30 6232 H 565.32 -0.941209 -5.80013 0
M  V30 6233 H 566.844 -0.0602747 -6.1057 0
M  V30 6234 H 568.258 -2.18424 -5.3006 0
M  V30 6235 H 566.655 -2.97069 -5.21412 0
M  V30 6236 H 567.725 -3.01067 -3.80114 0
M  V30 6237 N 569.068 1.32177 -0.85831 0
M  V30 6238 C 570.298 2.01021 -0.476889 0
M  V30 6239 C 570.706 1.64653 0.931995 0
M  V30 6240 O 570.049 0.865713 1.62022 0
M  V30 6241 C 570.111 3.55413 -0.540528 0
M  V30 6242 C 569.775 4.1522 -1.90895 0
M  V30 6243 C 570.772 4.3318 -2.87491 0
M  V30 6244 C 568.457 4.51212 -2.20709 0
M  V30 6245 C 570.451 4.86306 -4.1205 0
M  V30 6246 C 568.138 5.04042 -3.45521 0
M  V30 6247 C 569.136 5.21538 -4.41007 0
M  V30 6248 O 568.824 5.73238 -5.63608 0
M  V30 6249 H 568.556 0.650059 -0.18547 0
M  V30 6250 H 571.11 1.69648 -1.15796 0
M  V30 6251 H 569.34 3.86196 0.19741 0
M  V30 6252 H 571.029 4.05526 -0.174191 0
M  V30 6253 H 571.795 4.05704 -2.65762 0
M  V30 6254 H 567.674 4.36878 -1.4717 0
M  V30 6255 H 571.218 4.99877 -4.86589 0
M  V30 6256 H 567.115 5.30952 -3.67098 0
M  V30 6257 H 567.883 5.91625 -5.65617 0
M  V30 6258 N 570.547 0.616602 1.45037 0
M  V30 6259 C 571.824 0.0469086 1.95544 0
M  V30 6260 C 572.204 -1.42345 1.55888 0
M  V30 6261 O 571.552 -2.13055 0.825824 0
M  V30 6262 C 571.762 0.254489 3.48071 0
M  V30 6263 C 573.11 0.140025 4.24369 0
M  V30 6264 O 574.134 0.185084 3.55719 0
M  V30 6265 O 572.993 0.0327034 5.4649 0
M  V30 6266 H 570.087 -0.0306051 0.826433 0
M  V30 6267 H 572.633 0.687293 1.55159 0
M  V30 6268 H 571.405 1.27532 3.69934 0
M  V30 6269 H 571.028 -0.42073 3.95368 0
M  V30 6270 N 572.025 -1.5352 0.356285 0
M  V30 6271 C 572.957 -2.23009 -0.529127 0
M  V30 6272 C 573.97 -1.241 -1.05371 0
M  V30 6273 O 575.159 -1.50379 -0.961679 0
M  V30 6274 C 572.259 -2.90685 -1.74229 0
M  V30 6275 C 571.432 -4.16019 -1.35081 0
M  V30 6276 C 570.491 -4.66989 -2.42502 0
M  V30 6277 O 569.517 -5.30895 -2.05279 0
M  V30 6278 N 570.719 -4.44006 -3.7395 0
M  V30 6279 H 573.484 -2.99627 0.0660501 0
M  V30 6280 H 571.045 -1.60885 0.181014 0
M  V30 6281 H 573.037 -3.21695 -2.4555 0
M  V30 6282 H 571.607 -2.17575 -2.24454 0
M  V30 6283 H 570.827 -3.91414 -0.467833 0
M  V30 6284 H 572.115 -4.9752 -1.06542 0
M  V30 6285 H 571.513 -3.92924 -4.06973 0
M  V30 6286 H 570.07 -4.7959 -4.41403 0
M  V30 6287 N 573.503 -0.0852151 -1.57369 0
M  V30 6288 C 574.749 0.581666 -1.94279 0
M  V30 6289 C 575.082 1.68444 -0.966446 0
M  V30 6290 O 574.357 1.945 0.00215277 0
M  V30 6291 C 574.64 1.14609 -3.41375 0
M  V30 6292 C 574.493 0.0490414 -4.49773 0
M  V30 6293 C 575.812 2.04751 -3.8957 0
M  V30 6294 H 572.931 0.209972 -0.706456 0
M  V30 6295 H 575.573 -0.153915 -1.89376 0
M  V30 6296 H 573.723 1.77297 -3.45685 0
M  V30 6297 H 575.395 -0.584721 -4.57579 0
M  V30 6298 H 573.638 -0.618638 -4.29366 0
M  V30 6299 H 574.309 0.484601 -5.49869 0
M  V30 6300 H 576.785 1.51981 -3.87351 0
M  V30 6301 H 575.661 2.41173 -4.93079 0
M  V30 6302 H 575.922 2.96107 -3.28288 0
M  V30 6303 N 574.981 1.5647 0.188427 0
M  V30 6304 C 575.931 1.91479 1.23774 0
M  V30 6305 C 576.915 0.78119 1.40664 0
M  V30 6306 O 578.107 1.04414 1.42922 0
M  V30 6307 C 575.236 2.26354 2.58106 0
M  V30 6308 C 574.322 3.46186 2.44981 0
M  V30 6309 N 574.713 4.63911 2.01546 0
M  V30 6310 C 573.011 3.50456 2.75856 0
M  V30 6311 C 573.712 5.46064 2.00472 0
M  V30 6312 N 572.688 4.86648 2.42229 0
M  V30 6313 H 576.49 2.79994 0.893339 0
M  V30 6314 H 574.004 1.57477 0.39682 0
M  V30 6315 H 576.001 2.49622 3.33908 0
M  V30 6316 H 574.661 1.39168 2.93364 0
M  V30 6317 H 575.672 4.88451 1.7215 0
M  V30 6318 H 572.349 2.73704 3.15265 0
M  V30 6319 H 573.739 6.50368 1.68734 0
M  V30 6320 N 576.459 -0.456382 1.50847 0
M  V30 6321 C 577.708 -1.2042 1.61808 0
M  V30 6322 C 578.021 -1.9278 0.330932 0
M  V30 6323 O 579.227 -2.69612 0.319643 0
M  V30 6324 C 577.683 -2.18891 2.85683 0
M  V30 6325 C 577.291 -1.52267 4.2133 0
M  V30 6326 C 579.035 -2.94224 3.05994 0
M  V30 6327 C 576.942 -2.4911 5.36375 0
M  V30 6328 H 575.872 -0.453177 0.602616 0
M  V30 6329 H 578.523 -0.473144 1.77295 0
M  V30 6330 H 576.905 -2.95351 2.63787 0
M  V30 6331 H 578.079 -0.814949 4.53536 0
M  V30 6332 H 576.394 -0.891594 4.06743 0
M  V30 6333 H 578.991 -3.66732 3.89117 0
M  V30 6334 H 579.334 -3.54469 2.18306 0
M  V30 6335 H 579.867 -2.24874 3.28141 0
M  V30 6336 H 576.606 -1.93582 6.26264 0
M  V30 6337 H 576.126 -3.17991 5.08569 0
M  V30 6338 H 577.805 -3.10637 5.67551 0
M  V30 6339 N 577.937 -1.40673 -0.710563 0
M  V30 6340 C 578.884 -1.41336 -1.82463 0
M  V30 6341 C 579.854 -0.269648 -1.63897 0
M  V30 6342 O 581.039 -0.468463 -1.8496 0
M  V30 6343 C 578.179 -1.28665 -3.20218 0
M  V30 6344 C 577.292 -2.52784 -3.5032 0
M  V30 6345 C 576.427 -2.32517 -4.77608 0
M  V30 6346 C 575.466 -3.52187 -5.0063 0
M  V30 6347 N 574.603 -3.31084 -6.19135 0
M  V30 6348 H 579.443 -2.36558 -1.8123 0
M  V30 6349 H 576.98 -1.17483 -0.885226 0
M  V30 6350 H 578.938 -1.19324 -3.99772 0
M  V30 6351 H 577.568 -0.370602 -3.20666 0
M  V30 6352 H 576.62 -2.72634 -2.65283 0
M  V30 6353 H 577.932 -3.41845 -3.63241 0
M  V30 6354 H 577.086 -2.20558 -5.65189 0
M  V30 6355 H 575.825 -1.40889 -4.66906 0
M  V30 6356 H 574.83 -3.64617 -4.11502 0
M  V30 6357 H 576.055 -4.44749 -5.13201 0
M  V30 6358 H 574.001 -2.42143 -6.09674 0
M  V30 6359 H 573.918 -4.13713 -6.32754 0
M  V30 6360 H 575.186 -3.22868 -7.0949 0
M  V30 6361 N 579.415 0.9433 -1.26252 0
M  V30 6362 C 580.362 2.0417 -1.07625 0
M  V30 6363 C 581.332 1.6609 0.0180738 0
M  V30 6364 O 582.517 1.90276 -0.141289 0
M  V30 6365 C 579.657 3.37653 -0.713043 0
M  V30 6366 C 578.77 3.88783 -1.8834 0
M  V30 6367 C 577.905 5.10642 -1.4635 0
M  V30 6368 C 576.944 5.54028 -2.60229 0
M  V30 6369 N 576.081 6.67092 -2.18936 0
M  V30 6370 H 580.921 2.19436 -2.01623 0
M  V30 6371 H 578.458 1.07519 -1.00389 0
M  V30 6372 H 580.416 4.14391 -0.483358 0
M  V30 6373 H 579.046 3.22241 0.18996 0
M  V30 6374 H 578.098 3.08464 -2.22608 0
M  V30 6375 H 579.41 4.16922 -2.73821 0
M  V30 6376 H 578.564 5.94832 -1.19414 0
M  V30 6377 H 577.303 4.84244 -0.579568 0
M  V30 6378 H 576.308 4.68396 -2.87898 0
M  V30 6379 H 577.533 5.82429 -3.49219 0
M  V30 6380 H 575.479 6.42381 -1.32974 0
M  V30 6381 H 575.396 6.94806 -2.97961 0
M  V30 6382 H 576.664 7.54662 -1.95206 0
M  V30 6383 N 580.893 1.08022 1.14757 0
M  V30 6384 C 582.139 0.808705 1.85978 0
M  V30 6385 C 582.472 -0.663764 1.82504 0
M  V30 6386 O 581.747 -1.48765 1.25296 0
M  V30 6387 C 582.03 1.32623 3.34788 0
M  V30 6388 C 581.883 2.86375 3.46856 0
M  V30 6389 C 583.202 0.948291 4.29762 0
M  V30 6390 H 580.321 0.295244 0.675278 0
M  V30 6391 H 582.963 1.33917 1.34783 0
M  V30 6392 H 581.113 0.875002 3.78518 0
M  V30 6393 H 582.785 3.39839 3.11941 0
M  V30 6394 H 581.028 3.24232 2.88194 0
M  V30 6395 H 581.699 3.17658 4.51439 0
M  V30 6396 H 584.175 1.33722 3.94028 0
M  V30 6397 H 583.051 1.33765 5.32352 0
M  V30 6398 H 583.312 -0.145094 4.41862 0
M  V30 6399 N 582.371 -1.3172 0.865308 0
M  V30 6400 C 583.62 -1.96145 0.470098 0
M  V30 6401 C 583.933 -1.69182 -0.981674 0
M  V30 6402 O 585.139 -2.27431 -1.48281 0
M  V30 6403 C 583.595 -3.51129 0.789732 0
M  V30 6404 C 583.203 -3.86938 2.25795 0
M  V30 6405 C 584.947 -4.2197 0.462765 0
M  V30 6406 C 582.854 -5.35012 2.52024 0
M  V30 6407 H 581.784 -0.734105 0.172065 0
M  V30 6408 H 584.435 -1.49959 1.05757 0
M  V30 6409 H 582.817 -3.95781 0.131571 0
M  V30 6410 H 583.991 -3.5326 2.95879 0
M  V30 6411 H 582.306 -3.29149 2.55049 0
M  V30 6412 H 584.903 -5.30904 0.636019 0
M  V30 6413 H 585.246 -4.12005 -0.59645 0
M  V30 6414 H 585.779 -3.82936 1.07727 0
M  V30 6415 H 582.518 -5.50008 3.56611 0
M  V30 6416 H 582.038 -5.70058 1.8653 0
M  V30 6417 H 583.717 -6.0222 2.36515 0
M  V30 6418 N 583.85 -0.624285 -1.44708 0
M  V30 6419 C 585.127 -0.0572781 -1.95516 0
M  V30 6420 C 585.507 1.41516 -1.56641 0
M  V30 6421 O 584.855 2.12614 -0.837111 0
M  V30 6422 C 585.065 -0.272944 -3.47931 0
M  V30 6423 C 586.413 -0.162529 -4.24289 0
M  V30 6424 O 587.437 -0.203946 -3.55616 0
M  V30 6425 O 586.296 -0.0616847 -5.46465 0
M  V30 6426 H 583.389 0.0262219 -0.826584 0
M  V30 6427 H 585.936 -0.695512 -1.54793 0
M  V30 6428 H 584.707 -1.29492 -3.69253 0
M  V30 6429 H 584.331 0.399756 -3.95585 0
M  V30 6430 N 585.328 1.53329 -0.364422 0
M  V30 6431 C 586.275 2.25698 0.482607 0
M  V30 6432 C 587.245 1.26325 1.07848 0
M  V30 6433 O 588.43 1.55104 1.11119 0
M  V30 6434 C 585.57 3.04873 1.61699 0
M  V30 6435 C 584.683 4.19135 1.0464 0
M  V30 6436 C 583.818 4.85754 2.14979 0
M  V30 6437 C 582.857 5.9205 1.5538 0
M  V30 6438 N 581.994 6.52365 2.59547 0
M  V30 6439 H 586.834 2.97666 -0.141032 0
M  V30 6440 H 584.371 1.46875 -0.0813692 0
M  V30 6441 H 586.329 3.49051 2.28516 0
M  V30 6442 H 584.959 2.35162 2.2113 0
M  V30 6443 H 584.011 3.79451 0.268553 0
M  V30 6444 H 585.323 4.95525 0.570653 0
M  V30 6445 H 584.477 5.3311 2.89619 0
M  V30 6446 H 583.216 4.08834 2.65906 0
M  V30 6447 H 582.221 5.44058 0.792549 0
M  V30 6448 H 583.446 6.7089 1.0528 0
M  V30 6449 H 581.392 5.78298 3.09689 0
M  V30 6450 H 581.309 7.2429 2.16655 0
M  V30 6451 H 582.577 7.0437 3.33892 0
M  V30 6452 N 586.806 0.0935595 1.57322 0
M  V30 6453 C 588.031 -0.582324 1.99057 0
M  V30 6454 C 588.456 -1.61025 0.972242 0
M  V30 6455 O 587.814 -1.81202 -0.0594622 0
M  V30 6456 C 587.862 -1.20799 3.39765 0
M  V30 6457 O 586.966 -2.32382 3.40694 0
M  V30 6458 H 586.307 -0.147884 0.647323 0
M  V30 6459 H 588.837 0.174516 2.03854 0
M  V30 6460 H 588.847 -1.54966 3.77425 0
M  V30 6461 H 587.522 -0.454914 4.13405 0
M  V30 6462 H 586.099 -1.99845 3.14827 0
M  V30 6463 N 588.284 -1.56567 -0.180126 0
M  V30 6464 C 589.514 -1.85349 -0.912647 0
M  V30 6465 C 589.922 -0.675795 -1.76719 0
M  V30 6466 O 589.265 0.3645 -1.80047 0
M  V30 6467 C 589.327 -3.08431 -1.84691 0
M  V30 6468 C 588.991 -4.41694 -1.17284 0
M  V30 6469 C 589.988 -5.17062 -0.542532 0
M  V30 6470 C 587.673 -4.8843 -1.17223 0
M  V30 6471 C 589.667 -6.37351 0.0793953 0
M  V30 6472 C 587.354 -6.08652 -0.54647 0
M  V30 6473 C 588.352 -6.82955 0.0782458 0
M  V30 6474 O 588.04 -8.00897 0.694158 0
M  V30 6475 H 587.772 -0.619286 -0.271036 0
M  V30 6476 H 590.326 -2.0454 -0.187768 0
M  V30 6477 H 588.556 -2.85163 -2.61188 0
M  V30 6478 H 590.245 -3.23733 -2.44851 0
M  V30 6479 H 591.011 -4.8204 -0.535045 0
M  V30 6480 H 586.89 -4.30542 -1.64788 0
M  V30 6481 H 590.434 -6.95287 0.567612 0
M  V30 6482 H 586.331 -6.4314 -0.55151 0
M  V30 6483 H 587.099 -8.16352 0.592537 0
M  V30 6484 N 589.762 0.448376 -1.51087 0
M  V30 6485 C 590.694 1.56146 -1.67783 0
M  V30 6486 C 591.707 1.52913 -0.55871 0
M  V30 6487 O 592.896 1.57889 -0.83267 0
M  V30 6488 C 589.996 2.95057 -1.66716 0
M  V30 6489 C 589.169 3.22915 -2.95033 0
M  V30 6490 C 588.228 4.41495 -2.86302 0
M  V30 6491 O 587.254 4.40688 -3.60254 0
M  V30 6492 N 588.456 5.44443 -2.014 0
M  V30 6493 H 591.221 1.42232 -2.638 0
M  V30 6494 H 588.782 0.637153 -1.48835 0
M  V30 6495 H 590.774 3.72388 -1.58458 0
M  V30 6496 H 589.344 3.02624 -0.783403 0
M  V30 6497 H 588.564 2.33985 -3.17245 0
M  V30 6498 H 589.852 3.38349 -3.79996 0
M  V30 6499 H 589.25 5.4793 -1.40674 0
M  V30 6500 H 587.807 6.2067 -1.99029 0
M  V30 6501 N 591.24 1.41047 0.703093 0
M  V30 6502 C 592.15 1.44645 1.84703 0
M  V30 6503 C 593.166 0.337778 1.7069 0
M  V30 6504 O 594.342 0.584327 1.92737 0
M  V30 6505 C 591.407 1.31928 3.20618 0
M  V30 6506 C 590.468 2.53047 3.46794 0
M  V30 6507 C 589.701 2.40927 4.76224 0
M  V30 6508 O 589.924 1.42978 5.5219 0
M  V30 6509 O 588.858 3.30543 5.03016 0
M  V30 6510 H 592.684 2.41139 1.84624 0
M  V30 6511 H 590.269 1.22504 0.855167 0
M  V30 6512 H 592.151 1.27092 4.01778 0
M  V30 6513 H 590.826 0.385469 3.21397 0
M  V30 6514 H 589.733 2.6346 2.65593 0
M  V30 6515 H 591.066 3.45231 3.50822 0
M  V30 6516 N 592.718 -0.936591 1.26751 0
M  V30 6517 C 593.958 -1.69796 1.13792 0
M  V30 6518 C 594.322 -1.89437 -0.312671 0
M  V30 6519 O 595.523 -2.62806 -0.564489 0
M  V30 6520 C 593.794 -3.03297 1.89065 0
M  V30 6521 S 595.353 -3.94461 1.92214 0
M  V30 6522 H 592.171 -0.583412 0.406389 0
M  V30 6523 H 594.773 -1.11575 1.60535 0
M  V30 6524 H 593.477 -2.86687 2.93665 0
M  V30 6525 H 593.008 -3.66575 1.42781 0
M  V30 6526 H 595.023 -4.85767 1.01215 0
M  V30 6527 N 594.196 -1.08629 -1.14182 0
M  V30 6528 C 595.126 -0.740003 -2.21464 0
M  V30 6529 C 596.107 0.278591 -1.67803 0
M  V30 6530 O 597.292 0.148461 -1.93632 0
M  V30 6531 C 594.422 -0.150952 -3.46972 0
M  V30 6532 C 593.376 -1.09815 -4.13672 0
M  V30 6533 C 592.702 -0.3712 -5.3341 0
M  V30 6534 C 594.002 -2.43722 -4.61949 0
M  V30 6535 H 595.696 -1.63697 -2.50686 0
M  V30 6536 H 593.242 -0.788526 -1.20492 0
M  V30 6537 H 595.195 0.103325 -4.21273 0
M  V30 6538 H 593.919 0.781164 -3.1712 0
M  V30 6539 H 592.578 -1.33756 -3.41328 0
M  V30 6540 H 592.226 0.564792 -4.99819 0
M  V30 6541 H 591.926 -1.00267 -5.78982 0
M  V30 6542 H 593.45 -0.12503 -6.10472 0
M  V30 6543 H 594.864 -2.24034 -5.27714 0
M  V30 6544 H 593.261 -3.02582 -5.18232 0
M  V30 6545 H 594.331 -3.05082 -3.76899 0
M  V30 6546 N 595.674 1.31259 -0.872281 0
M  V30 6547 C 596.637 2.26744 -0.334656 0
M  V30 6548 C 597.637 1.52307 0.515681 0
M  V30 6549 O 598.827 1.71148 0.324656 0
M  V30 6550 C 595.959 3.36841 0.524482 0
M  V30 6551 H 597.152 2.75812 -1.17762 0
M  V30 6552 H 594.705 1.42232 -0.648064 0
M  V30 6553 H 595.44 2.93069 1.38855 0
M  V30 6554 H 595.225 3.92009 -0.0844299 0
M  V30 6555 H 596.715 4.07944 0.892838 0
M  V30 6556 N 597.152 0.631951 1.44375 0
M  V30 6557 C 598.377 0.142146 2.06912 0
M  V30 6558 C 598.802 -1.17456 1.4692 0
M  V30 6559 O 598.16 -1.72074 0.570975 0
M  V30 6560 C 598.208 0.0417952 3.60576 0
M  V30 6561 O 597.312 -1.00194 4.00044 0
M  V30 6562 H 596.653 0.0851491 0.658518 0
M  V30 6563 H 599.183 0.868863 1.85235 0
M  V30 6564 H 599.193 -0.148517 4.0773 0
M  V30 6565 H 597.868 1.0031 4.03622 0
M  V30 6566 H 596.445 -0.786131 3.64519 0
M  V30 6567 N 598.631 -1.53133 0.372548 0
M  V30 6568 C 599.908 -1.93704 -0.271693 0
M  V30 6569 C 600.288 -1.30667 -1.65799 0
M  V30 6570 O 599.636 -0.46838 -2.23648 0
M  V30 6571 C 599.846 -3.47576 -0.314903 0
M  V30 6572 C 601.194 -4.20998 -0.551912 0
M  V30 6573 O 602.218 -3.53994 -0.39582 0
M  V30 6574 O 601.077 -5.39748 -0.85639 0
M  V30 6575 H 598.171 -0.810457 -0.164586 0
M  V30 6576 H 600.717 -1.6427 0.425838 0
M  V30 6577 H 599.489 -3.85749 0.656792 0
M  V30 6578 H 599.112 -3.83264 -1.05804 0
M  V30 6579 N 600.109 -0.101901 -1.5727 0
M  V30 6580 C 601.039 0.851544 -2.17419 0
M  V30 6581 C 602.02 1.28942 -1.10941 0
M  V30 6582 O 603.205 1.35509 -1.39107 0
M  V30 6583 C 600.335 2.10816 -2.75996 0
M  V30 6584 C 599.289 1.80867 -3.87906 0
M  V30 6585 C 598.615 3.13413 -4.33216 0
M  V30 6586 C 599.915 1.0903 -5.10793 0
M  V30 6587 H 601.609 0.350381 -2.97343 0
M  V30 6588 H 599.155 0.16709 -1.43027 0
M  V30 6589 H 601.108 2.77959 -3.16729 0
M  V30 6590 H 599.832 2.63227 -1.93337 0
M  V30 6591 H 598.491 1.16119 -3.47724 0
M  V30 6592 H 598.139 3.63725 -3.47438 0
M  V30 6593 H 597.839 2.94155 -5.08671 0
M  V30 6594 H 599.363 3.81704 -4.76586 0
M  V30 6595 H 600.777 1.66295 -5.48652 0
M  V30 6596 H 599.174 0.99927 -5.91722 0
M  V30 6597 H 600.244 0.0741704 -4.84843 0
M  V30 6598 N 601.587 1.56661 0.17182 0
M  V30 6599 C 602.55 1.9549 1.19651 0
M  V30 6600 C 603.55 0.838501 1.37207 0
M  V30 6601 O 604.74 1.10556 1.34622 0
M  V30 6602 C 601.872 2.24927 2.56166 0
M  V30 6603 H 603.065 2.87184 0.864007 0
M  V30 6604 H 600.618 1.50711 0.41425 0
M  V30 6605 H 601.353 1.35944 2.94431 0
M  V30 6606 H 601.138 3.06301 2.4479 0
M  V30 6607 H 602.628 2.55891 3.30014 0
M  V30 6608 N 603.065 -0.440357 1.51323 0
M  V30 6609 C 604.481 -0.7766 1.39431 0
M  V30 6610 C 604.681 -1.95838 0.474296 0
M  V30 6611 O 603.737 -2.52398 -0.0716692 0
M  V30 6612 C 605.05 -1.05981 2.81405 0
M  V30 6613 C 606.598 -1.16442 2.90534 0
M  V30 6614 C 607.073 -1.48058 4.33408 0
M  V30 6615 N 608.564 -1.54988 4.36501 0
M  V30 6616 C 609.299 -1.81017 5.44078 0
M  V30 6617 N 608.795 -2.04858 6.61819 0
M  V30 6618 N 610.588 -1.82774 5.31554 0
M  V30 6619 H 602.739 0.338006 2.09693 0
M  V30 6620 H 605.002 0.0888072 0.943831 0
M  V30 6621 H 604.708 -0.264173 3.50706 0
M  V30 6622 H 604.582 -1.98822 3.20546 0
M  V30 6623 H 606.969 -1.95068 2.21432 0
M  V30 6624 H 607.05 -0.215088 2.54894 0
M  V30 6625 H 606.694 -0.699605 5.03059 0
M  V30 6626 H 606.624 -2.44192 4.66559 0
M  V30 6627 H 609.115 -1.38479 3.51613 0
M  V30 6628 H 609.428 -2.2408 7.396 0
M  V30 6629 H 607.773 -2.02187 6.6494 0
M  V30 6630 H 610.964 -1.63665 4.38556 0
M  V30 6631 H 611.137 -2.02722 6.15474 0
M  V30 6632 N 604.543 -1.41418 -0.695603 0
M  V30 6633 C 605.959 -1.23887 -1.00619 0
M  V30 6634 C 606.159 -0.128206 -2.01092 0
M  V30 6635 O 605.215 0.507408 -2.47349 0
M  V30 6636 C 606.528 -2.58816 -1.53083 0
M  V30 6637 C 608.076 -2.65998 -1.64967 0
M  V30 6638 C 608.551 -4.01244 -2.20833 0
M  V30 6639 N 610.042 -4.0309 -2.28194 0
M  V30 6640 C 610.777 -5.04539 -2.72448 0
M  V30 6641 N 610.273 -6.16378 -3.16306 0
M  V30 6642 N 612.066 -4.91901 -2.72011 0
M  V30 6643 H 604.217 -2.12379 -0.0300061 0
M  V30 6644 H 606.48 -0.944958 -0.0758797 0
M  V30 6645 H 606.186 -3.40842 -0.867147 0
M  V30 6646 H 606.06 -2.81299 -2.51298 0
M  V30 6647 H 608.447 -1.84331 -2.30448 0
M  V30 6648 H 608.528 -2.47325 -0.652982 0
M  V30 6649 H 608.172 -4.83359 -1.55968 0
M  V30 6650 H 608.102 -4.17257 -3.21254 0
M  V30 6651 H 610.593 -3.22341 -1.97242 0
M  V30 6652 H 610.906 -6.89658 -3.487 0
M  V30 6653 H 609.251 -6.19914 -3.14215 0
M  V30 6654 H 612.442 -4.03613 -2.37095 0
M  V30 6655 H 612.615 -5.71102 -3.06181 0
M  V30 6656 N 606.021 0.929856 -1.27246 0
M  V30 6657 C 607.27 1.67182 -1.12842 0
M  V30 6658 C 607.583 1.9287 0.325666 0
M  V30 6659 O 608.789 2.64999 0.590572 0
M  V30 6660 C 607.245 3.01097 -1.97151 0
M  V30 6661 C 606.853 2.83115 -3.47203 0
M  V30 6662 C 608.597 3.78907 -1.91389 0
M  V30 6663 C 606.504 4.12573 -4.23719 0
M  V30 6664 H 605.434 0.627064 -0.418697 0
M  V30 6665 H 608.085 1.0332 -1.51649 0
M  V30 6666 H 606.467 3.66004 -1.51186 0
M  V30 6667 H 607.641 2.26989 -4.01015 0
M  V30 6668 H 605.956 2.18736 -3.54321 0
M  V30 6669 H 608.553 4.74837 -2.45834 0
M  V30 6670 H 608.896 4.0674 -0.887047 0
M  V30 6671 H 609.429 3.20794 -2.35237 0
M  V30 6672 H 606.168 3.8992 -5.26918 0
M  V30 6673 H 605.688 4.68371 -3.74685 0
M  V30 6674 H 607.367 4.8095 -4.32777 0
M  V30 6675 N 607.499 1.09233 1.13605 0
M  V30 6676 C 608.429 0.751738 2.21068 0
M  V30 6677 C 609.41 -0.269688 1.67948 0
M  V30 6678 O 610.595 -0.13819 1.93708 0
M  V30 6679 C 607.725 0.16935 3.46887 0
M  V30 6680 C 606.679 1.12007 4.13084 0
M  V30 6681 C 606.005 0.399483 5.33206 0
M  V30 6682 C 607.305 2.46168 4.6065 0
M  V30 6683 H 608.999 1.65024 2.49815 0
M  V30 6684 H 606.545 0.794905 1.20072 0
M  V30 6685 H 608.498 -0.0809824 4.21322 0
M  V30 6686 H 607.222 -0.764335 3.1753 0
M  V30 6687 H 605.881 1.35564 3.40614 0
M  V30 6688 H 605.529 -0.538277 5.00112 0
M  V30 6689 H 605.229 1.03337 5.78442 0
M  V30 6690 H 606.753 0.157403 6.10397 0
M  V30 6691 H 608.167 2.26829 5.26518 0
M  V30 6692 H 606.564 3.05326 5.1662 0
M  V30 6693 H 607.634 3.07076 3.75276 0
M  V30 6694 N 608.977 -1.30795 0.87923 0
M  V30 6695 C 610.393 -1.48981 0.57243 0
M  V30 6696 C 610.593 -1.80719 -0.891236 0
M  V30 6697 O 609.649 -1.89136 -1.67283 0
M  V30 6698 C 610.962 -2.61721 1.48063 0
M  V30 6699 C 612.51 -2.75603 1.48365 0
M  V30 6700 C 612.985 -3.91449 2.37763 0
M  V30 6701 N 614.476 -3.98751 2.35695 0
M  V30 6702 C 615.211 -4.87684 3.01583 0
M  V30 6703 N 614.707 -5.81454 3.76674 0
M  V30 6704 N 616.5 -4.81005 2.90844 0
M  V30 6705 H 608.651 -1.08465 1.82617 0
M  V30 6706 H 610.914 -0.536813 0.781368 0
M  V30 6707 H 610.62 -2.45073 2.52254 0
M  V30 6708 H 610.494 -3.58071 1.18596 0
M  V30 6709 H 612.881 -2.9166 0.44927 0
M  V30 6710 H 612.962 -1.79891 1.81859 0
M  V30 6711 H 612.606 -3.76149 3.41283 0
M  V30 6712 H 612.536 -4.86487 2.01589 0
M  V30 6713 H 615.027 -3.31668 1.81121 0
M  V30 6714 H 615.34 -6.46063 4.24054 0
M  V30 6715 H 613.685 -5.81403 3.80782 0
M  V30 6716 H 616.876 -4.06728 2.31711 0
M  V30 6717 H 617.049 -5.50107 3.42471 0
M  V30 6718 N 610.455 -0.639598 -1.44038 0
M  V30 6719 C 611.701 -0.156248 -2.02799 0
M  V30 6720 C 612.056 1.21145 -1.49471 0
M  V30 6721 O 611.349 1.79406 -0.672608 0
M  V30 6722 C 611.543 -0.0925348 -3.5728 0
M  V30 6723 C 611.372 -1.45252 -4.25596 0
M  V30 6724 C 610.142 -2.04145 -4.62226 0
M  V30 6725 C 612.34 -2.38812 -4.55492 0
M  V30 6726 N 610.322 -3.3329 -5.15549 0
M  V30 6727 C 611.693 -3.52578 -5.09989 0
M  V30 6728 C 613.748 -2.37785 -4.3745 0
M  V30 6729 C 612.451 -4.65525 -5.48342 0
M  V30 6730 C 614.477 -3.49802 -4.76857 0
M  V30 6731 C 613.839 -4.62292 -5.31475 0
M  V30 6732 H 609.938 -0.101292 -0.775412 0
M  V30 6733 H 612.522 -0.844938 -1.75411 0
M  V30 6734 H 610.693 0.565459 -3.84262 0
M  V30 6735 H 612.425 0.400426 -4.02714 0
M  V30 6736 H 609.18 -1.56999 -4.4682 0
M  V30 6737 H 609.604 -3.9934 -5.46678 0
M  V30 6738 H 614.246 -1.52061 -3.94509 0
M  V30 6739 H 611.964 -5.51951 -5.90233 0
M  V30 6740 H 615.55 -3.50193 -4.64603 0
M  V30 6741 H 614.43 -5.47536 -5.61403 0
M  V30 6742 N 611.933 1.52934 -0.380664 0
M  V30 6743 C 613.181 2.01069 0.203874 0
M  V30 6744 C 613.502 1.26922 1.4804 0
M  V30 6745 O 612.772 0.386787 1.92044 0
M  V30 6746 H 611.352 0.742882 0.0783279 0
M  V30 6747 H 614.014 1.88099 -0.510368 0
M  V30 6748 H 613.11 3.09258 0.42021 0
M  V30 6749 N 613.412 0.11024 1.57214 0
M  V30 6750 C 614.659 -0.54987 1.94891 0
M  V30 6751 C 614.987 -1.67243 0.992984 0
M  V30 6752 O 614.242 -1.95694 0.0152703 0
M  V30 6753 C 614.541 -1.13102 3.39032 0
M  V30 6754 C 614.207 -0.130713 4.5071 0
M  V30 6755 C 612.869 0.14437 4.80983 0
M  V30 6756 C 615.221 0.551472 5.18274 0
M  V30 6757 C 612.549 1.10807 5.76141 0
M  V30 6758 C 614.901 1.50375 6.14467 0
M  V30 6759 C 613.565 1.78691 6.43138 0
M  V30 6760 H 612.835 -0.201212 0.713158 0
M  V30 6761 H 615.482 0.189288 1.90562 0
M  V30 6762 H 613.787 -1.94675 3.40013 0
M  V30 6763 H 615.484 -1.64973 3.65493 0
M  V30 6764 H 612.074 -0.355301 4.27125 0
M  V30 6765 H 616.258 0.35211 4.95049 0
M  V30 6766 H 611.514 1.3343 5.96663 0
M  V30 6767 H 615.688 2.03808 6.65909 0
M  V30 6768 H 613.315 2.53522 7.1668 0
M  V30 6769 N 614.89 -1.56749 -0.16351 0
M  V30 6770 C 616.167 -1.73321 -0.906599 0
M  V30 6771 C 616.547 -0.673779 -2.00059 0
M  V30 6772 O 615.895 0.310121 -2.26386 0
M  V30 6773 C 616.105 -3.168 -1.46419 0
M  V30 6774 C 617.453 -3.77993 -1.93407 0
M  V30 6775 O 618.477 -3.20127 -1.56196 0
M  V30 6776 O 617.336 -4.79615 -2.61976 0
M  V30 6777 H 614.43 -0.708073 -0.427272 0
M  V30 6778 H 616.976 -1.69029 -0.150727 0
M  V30 6779 H 615.748 -3.85396 -0.677189 0
M  V30 6780 H 615.371 -3.2545 -2.28403 0
M  V30 6781 N 616.368 0.432326 -1.51554 0
M  V30 6782 C 617.315 1.52512 -1.7323 0
M  V30 6783 C 618.285 1.55863 -0.5741 0
M  V30 6784 O 619.47 1.72796 -0.809093 0
M  V30 6785 C 616.61 2.90183 -1.86783 0
M  V30 6786 C 615.723 2.96322 -3.14352 0
M  V30 6787 C 614.858 4.25147 -3.18471 0
M  V30 6788 C 613.897 4.25172 -4.40335 0
M  V30 6789 N 613.034 5.45529 -4.41975 0
M  V30 6790 H 617.874 1.33332 -2.66508 0
M  V30 6791 H 615.411 0.647613 -1.32077 0
M  V30 6792 H 617.369 3.70071 -1.92623 0
M  V30 6793 H 615.999 3.0791 -0.969087 0
M  V30 6794 H 615.051 2.09066 -3.17798 0
M  V30 6795 H 616.363 2.92203 -4.04251 0
M  V30 6796 H 615.517 5.13411 -3.23255 0
M  V30 6797 H 614.256 4.31929 -2.2647 0
M  V30 6798 H 613.261 3.353 -4.35723 0
M  V30 6799 H 614.486 4.20049 -5.33606 0
M  V30 6800 H 612.432 5.53024 -3.52847 0
M  V30 6801 H 612.349 5.43311 -5.25689 0
M  V30 6802 H 613.617 6.35812 -4.50958 0
M  V30 6803 N 617.846 1.41785 0.688094 0
M  V30 6804 C 619.076 1.44705 1.47459 0
M  V30 6805 C 619.484 0.052916 1.89126 0
M  V30 6806 O 618.827 -0.939781 1.57841 0
M  V30 6807 C 618.889 2.29935 2.76352 0
M  V30 6808 C 618.553 3.77996 2.56843 0
M  V30 6809 C 619.55 4.69976 2.22304 0
M  V30 6810 C 617.235 4.2212 2.7225 0
M  V30 6811 C 619.229 6.04068 2.03421 0
M  V30 6812 C 616.916 5.56275 2.52985 0
M  V30 6813 C 617.914 6.47065 2.18621 0
M  V30 6814 O 617.602 7.78744 1.9953 0
M  V30 6815 H 617.334 0.494703 0.460701 0
M  V30 6816 H 619.888 1.86802 0.854057 0
M  V30 6817 H 618.118 1.82664 3.40839 0
M  V30 6818 H 619.807 2.24467 3.38186 0
M  V30 6819 H 620.573 4.37175 2.10008 0
M  V30 6820 H 616.452 3.51752 2.97979 0
M  V30 6821 H 619.996 6.74897 1.76523 0
M  V30 6822 H 615.893 5.88653 2.64873 0
M  V30 6823 H 616.661 7.89966 2.14234 0
M  V30 6824 N 619.324 -0.923095 1.27737 0
M  V30 6825 C 620.549 -1.71054 1.17283 0
M  V30 6826 C 620.974 -1.86208 -0.266153 0
M  V30 6827 O 620.332 -1.36545 -1.1927 0
M  V30 6828 C 620.38 -3.0854 1.86642 0
M  V30 6829 O 619.484 -3.95528 1.16752 0
M  V30 6830 H 618.825 -0.524136 0.407649 0
M  V30 6831 H 621.355 -1.15487 1.6889 0
M  V30 6832 H 621.365 -3.58828 1.94182 0
M  V30 6833 H 620.04 -2.96828 2.91317 0
M  V30 6834 H 618.617 -3.53967 1.17312 0
M  V30 6835 N 620.802 -1.09834 -1.13024 0
M  V30 6836 C 621.749 -0.741522 -2.18564 0
M  V30 6837 C 622.719 0.279236 -1.63736 0
M  V30 6838 O 623.904 0.159923 -1.90129 0
M  V30 6839 C 621.044 -0.17277 -3.44667 0
M  V30 6840 C 620.157 -1.24808 -4.13578 0
M  V30 6841 C 619.292 -0.641631 -5.27311 0
M  V30 6842 C 618.331 -1.69795 -5.88078 0
M  V30 6843 N 617.468 -1.11223 -6.93234 0
M  V30 6844 H 622.308 -1.64576 -2.48432 0
M  V30 6845 H 619.845 -0.822174 -1.21978 0
M  V30 6846 H 621.803 0.17482 -4.16834 0
M  V30 6847 H 620.433 0.694725 -3.15235 0
M  V30 6848 H 619.485 -1.71288 -3.39653 0
M  V30 6849 H 620.797 -2.04795 -4.54819 0
M  V30 6850 H 619.951 -0.243128 -6.06213 0
M  V30 6851 H 618.69 0.189742 -4.87331 0
M  V30 6852 H 617.695 -2.10595 -5.07868 0
M  V30 6853 H 618.92 -2.53206 -6.3013 0
M  V30 6854 H 616.866 -0.302208 -6.55304 0
M  V30 6855 H 616.783 -1.84901 -7.3304 0
M  V30 6856 H 618.051 -0.740068 -7.75979 0
M  V30 6857 N 622.28 1.30327 -0.886154 0
M  V30 6858 C 623.526 1.96764 -0.515312 0
M  V30 6859 C 623.881 1.68675 0.925552 0
M  V30 6860 O 623.174 0.981693 1.6454 0
M  V30 6861 C 623.368 3.49906 -0.728042 0
M  V30 6862 C 623.197 3.92881 -2.18803 0
M  V30 6863 C 621.967 4.18424 -2.83284 0
M  V30 6864 C 624.165 4.05617 -3.16195 0
M  V30 6865 N 622.147 4.47867 -4.19867 0
M  V30 6866 C 623.518 4.38957 -4.37855 0
M  V30 6867 C 625.573 3.88047 -3.11968 0
M  V30 6868 C 624.276 4.56559 -5.55829 0
M  V30 6869 C 626.302 4.06851 -4.29215 0
M  V30 6870 C 625.664 4.40538 -5.49641 0
M  V30 6871 H 621.763 0.74493 -0.237916 0
M  V30 6872 H 624.347 1.57536 -1.14414 0
M  V30 6873 H 622.518 3.88187 -0.128696 0
M  V30 6874 H 624.25 4.03401 -0.323983 0
M  V30 6875 H 621.005 4.1167 -2.34146 0
M  V30 6876 H 621.429 4.66721 -4.90408 0
M  V30 6877 H 626.071 3.61078 -2.19961 0
M  V30 6878 H 623.789 4.8237 -6.4834 0
M  V30 6879 H 627.375 3.94724 -4.27416 0
M  V30 6880 H 626.255 4.54789 -6.38856 0
M  V30 6881 N 623.758 0.647228 1.43697 0
M  V30 6882 C 624.988 0.16551 2.05936 0
M  V30 6883 C 625.396 -1.17164 1.48557 0
M  V30 6884 O 624.739 -1.73307 0.60914 0
M  V30 6885 C 624.801 -0.00648082 3.59499 0
M  V30 6886 C 624.465 1.25503 4.39429 0
M  V30 6887 C 625.462 2.18241 4.71876 0
M  V30 6888 C 623.147 1.49494 4.79538 0
M  V30 6889 C 625.141 3.33268 5.43333 0
M  V30 6890 C 622.828 2.64815 5.50742 0
M  V30 6891 C 623.826 3.56528 5.82561 0
M  V30 6892 O 623.514 4.69836 6.52311 0
M  V30 6893 H 623.246 0.0844124 0.670709 0
M  V30 6894 H 625.8 0.88638 1.8529 0
M  V30 6895 H 624.03 -0.782661 3.78697 0
M  V30 6896 H 625.719 -0.444794 4.03456 0
M  V30 6897 H 626.485 2.00946 4.41413 0
M  V30 6898 H 622.364 0.789912 4.54182 0
M  V30 6899 H 625.908 4.04874 5.68087 0
M  V30 6900 H 621.805 2.82047 5.8062 0
M  V30 6901 H 622.573 4.69024 6.70789 0
M  V30 6902 N 625.236 -1.5273 0.388769 0
M  V30 6903 C 626.166 -2.29353 -0.438111 0
M  V30 6904 C 627.147 -1.32719 -1.06394 0
M  V30 6905 O 628.332 -1.61612 -1.07681 0
M  V30 6906 C 625.462 -3.09995 -1.56589 0
M  V30 6907 C 624.416 -4.14509 -1.06613 0
M  V30 6908 C 623.742 -4.83372 -2.28594 0
M  V30 6909 C 625.042 -5.22127 -0.134459 0
M  V30 6910 H 626.736 -2.98723 0.201206 0
M  V30 6911 H 624.282 -1.43665 0.0982089 0
M  V30 6912 H 626.235 -3.62357 -2.15118 0
M  V30 6913 H 624.959 -2.38357 -2.23279 0
M  V30 6914 H 623.618 -3.63128 -0.503383 0
M  V30 6915 H 623.266 -4.08283 -2.93792 0
M  V30 6916 H 622.966 -5.54012 -1.95817 0
M  V30 6917 H 624.49 -5.38538 -2.87766 0
M  V30 6918 H 625.904 -5.69851 -0.627914 0
M  V30 6919 H 624.301 -6.00011 0.103534 0
M  V30 6920 H 625.371 -4.77971 0.816798 0
M  V30 6921 N 626.714 -0.118576 -1.57153 0
M  V30 6922 C 627.991 0.583062 -1.86708 0
M  V30 6923 C 628.371 1.84841 -1.01967 0
M  V30 6924 O 627.719 2.28288 -0.0984673 0
M  V30 6925 C 627.929 0.875912 -3.3783 0
M  V30 6926 C 629.277 1.22916 -4.0642 0
M  V30 6927 O 630.301 0.966188 -3.42846 0
M  V30 6928 O 629.16 1.72269 -5.18638 0
M  V30 6929 H 626.254 0.294185 -0.772906 0
M  V30 6930 H 628.8 -0.153048 -1.69008 0
M  V30 6931 H 627.572 -0.0207776 -3.91294 0
M  V30 6932 H 627.195 1.66719 -3.60958 0
M  V30 6933 N 628.193 1.56834 0.155195 0
M  V30 6934 C 629.418 1.87412 0.888337 0
M  V30 6935 C 629.843 0.70671 1.74319 0
M  V30 6936 O 629.201 -0.343892 1.78009 0
M  V30 6937 C 629.249 3.1652 1.72765 0
M  V30 6938 O 628.353 2.99877 2.83103 0
M  V30 6939 H 627.694 0.615983 0.247914 0
M  V30 6940 H 630.224 2.04061 0.148478 0
M  V30 6941 H 630.234 3.48334 2.12433 0
M  V30 6942 H 628.909 4.01094 1.09985 0
M  V30 6943 H 627.486 2.79453 2.46902 0
M  V30 6944 N 629.671 -0.424282 1.51781 0
M  V30 6945 C 631.087 -0.761768 1.40247 0
M  V30 6946 C 631.287 -1.95324 0.495041 0
M  V30 6947 O 630.343 -2.5246 -0.0448949 0
M  V30 6948 C 631.656 -1.0299 2.82513 0
M  V30 6949 C 633.204 -1.13354 2.91753 0
M  V30 6950 C 633.679 -1.43453 4.34954 0
M  V30 6951 N 635.17 -1.5035 4.3812 0
M  V30 6952 C 635.905 -1.75236 5.45967 0
M  V30 6953 N 635.401 -1.97827 6.63955 0
M  V30 6954 N 637.194 -1.77126 5.33463 0
M  V30 6955 H 629.345 0.360228 2.09323 0
M  V30 6956 H 631.608 0.0988128 0.942836 0
M  V30 6957 H 631.314 -0.226961 3.50967 0
M  V30 6958 H 631.188 -1.95411 3.22637 0
M  V30 6959 H 633.575 -1.92709 2.23489 0
M  V30 6960 H 633.656 -0.188041 2.55108 0
M  V30 6961 H 633.3 -0.646209 5.03772 0
M  V30 6962 H 633.23 -2.3923 4.69123 0
M  V30 6963 H 635.721 -1.34742 3.53062 0
M  V30 6964 H 636.034 -2.16223 7.41935 0
M  V30 6965 H 634.379 -1.95123 6.67047 0
M  V30 6966 H 637.57 -1.59005 4.40267 0
M  V30 6967 H 637.743 -1.96182 6.17589 0
M  V30 6968 N 631.149 -1.42148 -0.680565 0
M  V30 6969 C 632.396 -1.4231 -1.44063 0
M  V30 6970 C 632.724 -0.037488 -1.94464 0
M  V30 6971 O 631.979 0.953184 -1.70918 0
M  V30 6972 C 632.278 -2.38945 -2.65782 0
M  V30 6973 C 631.944 -3.85455 -2.33956 0
M  V30 6974 C 630.606 -4.25364 -2.24987 0
M  V30 6975 C 632.958 -4.77895 -2.08004 0
M  V30 6976 C 630.286 -5.55701 -1.88184 0
M  V30 6977 C 632.638 -6.08568 -1.72706 0
M  V30 6978 C 631.302 -6.47482 -1.62244 0
M  V30 6979 H 630.572 -0.520748 -0.527164 0
M  V30 6980 H 633.219 -1.7505 -0.776524 0
M  V30 6981 H 631.524 -1.99511 -3.37198 0
M  V30 6982 H 633.221 -2.36336 -3.23954 0
M  V30 6983 H 629.811 -3.53855 -2.41836 0
M  V30 6984 H 633.995 -4.47854 -2.1387 0
M  V30 6985 H 629.251 -5.84718 -1.78648 0
M  V30 6986 H 633.425 -6.79688 -1.5165 0
M  V30 6987 H 631.052 -7.48387 -1.33496 0
M  V30 6988 N 632.627 0.916307 -1.28225 0
M  V30 6989 C 633.557 2.0352 -1.14464 0
M  V30 6990 C 634.538 1.70045 -0.0430844 0
M  V30 6991 O 635.723 1.92954 -0.219619 0
M  V30 6992 C 632.853 3.37889 -0.803027 0
M  V30 6993 C 631.807 3.85516 -1.85908 0
M  V30 6994 C 631.133 5.1682 -1.37116 0
M  V30 6995 C 632.433 4.07655 -3.26519 0
M  V30 6996 H 634.127 2.1529 -2.08064 0
M  V30 6997 H 631.673 1.03446 -1.00174 0
M  V30 6998 H 633.626 4.15654 -0.693537 0
M  V30 6999 H 632.35 3.26164 0.168674 0
M  V30 7000 H 631.009 3.09953 -1.95767 0
M  V30 7001 H 630.657 5.01497 -0.38859 0
M  V30 7002 H 630.357 5.49657 -2.07728 0
M  V30 7003 H 631.881 5.97143 -1.27484 0
M  V30 7004 H 633.295 4.75953 -3.19596 0
M  V30 7005 H 631.692 4.51818 -3.94943 0
M  V30 7006 H 632.762 3.12553 -3.70727 0
M  V30 7007 N 634.105 1.10431 1.1244 0
M  V30 7008 C 635.068 0.756542 2.16354 0
M  V30 7009 C 636.068 -0.21899 1.59302 0
M  V30 7010 O 637.258 0.00415969 1.742 0
M  V30 7011 C 634.39 0.120612 3.40687 0
M  V30 7012 H 635.583 1.67696 2.48632 0
M  V30 7013 H 633.136 0.904832 1.27446 0
M  V30 7014 H 633.871 -0.810536 3.14008 0
M  V30 7015 H 633.656 0.822693 3.83372 0
M  V30 7016 H 635.146 -0.106945 4.17463 0
M  V30 7017 N 635.583 -1.29855 0.893053 0
M  V30 7018 C 636.999 -1.48366 0.588199 0
M  V30 7019 C 637.199 -1.81654 -0.872018 0
M  V30 7020 O 636.255 -1.909 -1.65268 0
M  V30 7021 C 637.568 -2.60136 1.5083 0
M  V30 7022 C 639.116 -2.74014 1.51279 0
M  V30 7023 C 639.591 -3.88905 2.41902 0
M  V30 7024 N 641.082 -3.96228 2.39911 0
M  V30 7025 C 641.817 -4.84458 3.06738 0
M  V30 7026 N 641.313 -5.77426 3.8282 0
M  V30 7027 N 643.106 -4.77894 2.95929 0
M  V30 7028 H 635.257 -1.06522 1.83757 0
M  V30 7029 H 637.52 -0.528495 0.787018 0
M  V30 7030 H 637.226 -2.42383 2.54839 0
M  V30 7031 H 637.1 -3.56793 1.22388 0
M  V30 7032 H 639.487 -2.91167 0.480179 0
M  V30 7033 H 639.568 -1.77952 1.83757 0
M  V30 7034 H 639.212 -3.72508 3.45253 0
M  V30 7035 H 639.142 -4.84322 2.06737 0
M  V30 7036 H 641.633 -3.29728 1.84629 0
M  V30 7037 H 641.946 -6.41529 4.30883 0
M  V30 7038 H 640.291 -5.77332 3.86927 0
M  V30 7039 H 643.482 -4.04248 2.36012 0
M  V30 7040 H 643.655 -5.46444 3.48286 0
M  V30 7041 N 637.061 -0.65484 -1.43351 0
M  V30 7042 C 638.338 -0.0987371 -1.95351 0
M  V30 7043 C 638.718 1.38161 -1.59608 0
M  V30 7044 O 638.066 2.10791 -0.882021 0
M  V30 7045 C 638.276 -0.346684 -3.47274 0
M  V30 7046 C 639.624 -0.25249 -4.23849 0
M  V30 7047 O 640.648 -0.279332 -3.55103 0
M  V30 7048 O 639.507 -0.177584 -5.46211 0
M  V30 7049 H 636.601 0.0086829 -0.826954 0
M  V30 7050 H 639.147 -0.728189 -1.53282 0
M  V30 7051 H 637.919 -1.37296 -3.66423 0
M  V30 7052 H 637.542 0.315757 -3.96344 0
M  V30 7053 N 638.539 1.52521 -0.396863 0
M  V30 7054 C 639.489 2.2348 0.451722 0
M  V30 7055 C 640.473 1.2415 1.0235 0
M  V30 7056 O 641.665 1.4945 0.948348 0
M  V30 7057 C 638.794 3.05067 1.57445 0
M  V30 7058 C 637.88 4.11799 1.01404 0
M  V30 7059 N 638.271 5.05482 0.179234 0
M  V30 7060 C 636.569 4.27064 1.28578 0
M  V30 7061 C 637.27 5.81552 -0.131202 0
M  V30 7062 N 636.246 5.41523 0.474735 0
M  V30 7063 H 640.048 2.93269 -0.192534 0
M  V30 7064 H 637.562 1.61081 -0.206591 0
M  V30 7065 H 639.559 3.54446 2.19485 0
M  V30 7066 H 638.219 2.36816 2.22145 0
M  V30 7067 H 639.23 5.17573 -0.18411 0
M  V30 7068 H 635.907 3.70042 1.93327 0
M  V30 7069 H 637.297 6.67023 -0.808061 0
M  V30 7070 N 640.017 0.126909 1.57088 0
M  V30 7071 C 641.428 -0.397201 1.82426 0
M  V30 7072 C 641.779 -1.66084 1.04453 0
M  V30 7073 O 640.904 -2.14534 0.283552 0
M  V30 7074 C 641.499 -0.727411 3.30899 0
M  V30 7075 C 640.058 -1.19612 3.56889 0
M  V30 7076 C 639.205 -0.20885 2.76512 0
M  V30 7077 H 642.156 0.351924 1.54749 0
M  V30 7078 H 642.177 -1.58407 3.45959 0
M  V30 7079 H 641.689 0.19247 3.87622 0
M  V30 7080 H 639.79 -2.13263 3.05532 0
M  V30 7081 H 639.903 -1.13598 4.65438 0
M  V30 7082 H 638.267 -0.697479 2.44964 0
M  V30 7083 H 639.05 0.704267 3.35998 0
M  V30 7084 N 641.495 -1.56914 -0.146875 0
M  V30 7085 C 642.425 -2.01308 -1.1831 0
M  V30 7086 C 643.406 -0.892664 -1.44795 0
M  V30 7087 O 644.591 -1.16048 -1.55713 0
M  V30 7088 C 641.721 -2.3938 -2.51624 0
M  V30 7089 C 640.675 -3.54608 -2.3966 0
M  V30 7090 C 640.001 -3.78493 -3.77686 0
M  V30 7091 C 641.301 -4.87269 -1.88058 0
M  V30 7092 H 642.995 -2.88123 -0.813964 0
M  V30 7093 H 640.541 -1.38615 -0.3901 0
M  V30 7094 H 642.494 -2.69037 -3.24341 0
M  V30 7095 H 641.218 -1.49502 -2.90373 0
M  V30 7096 H 639.877 -3.25116 -1.69396 0
M  V30 7097 H 639.525 -2.85866 -4.13871 0
M  V30 7098 H 639.225 -4.56039 -3.70543 0
M  V30 7099 H 640.749 -4.10576 -4.51951 0
M  V30 7100 H 642.163 -5.15644 -2.50568 0
M  V30 7101 H 640.56 -5.68622 -1.91805 0
M  V30 7102 H 641.63 -4.77634 -0.836277 0
M  V30 7103 N 642.974 0.416227 -1.52004 0
M  V30 7104 C 644.202 1.18573 -1.69553 0
M  V30 7105 C 644.617 1.84472 -0.401919 0
M  V30 7106 O 643.974 1.71593 0.621463 0
M  V30 7107 C 644.025 2.25413 -2.82615 0
M  V30 7108 O 643.746 1.62205 -4.06966 0
M  V30 7109 C 645.247 3.15297 -3.11613 0
M  V30 7110 H 642.467 0.356582 -0.56841 0
M  V30 7111 H 645.011 0.490618 -1.98528 0
M  V30 7112 H 643.166 2.90604 -2.56179 0
M  V30 7113 H 643.58 2.3298 -4.69916 0
M  V30 7114 H 645.054 3.86351 -3.94255 0
M  V30 7115 H 645.531 3.77264 -2.24874 0
M  V30 7116 H 646.137 2.55783 -3.39787 0
M  V30 7117 N 644.452 1.42507 0.673017 0
M  V30 7118 C 645.863 1.38347 1.25367 0
M  V30 7119 C 646.214 0.0776327 1.96046 0
M  V30 7120 O 645.339 -0.823571 2.00116 0
M  V30 7121 C 645.934 2.506 2.28002 0
M  V30 7122 C 644.493 2.49767 2.81591 0
M  V30 7123 C 643.64 2.293 1.55938 0
M  V30 7124 H 646.591 1.51695 0.466288 0
M  V30 7125 H 646.612 2.20953 3.09774 0
M  V30 7126 H 646.124 3.45627 1.76532 0
M  V30 7127 H 644.225 1.58563 3.37177 0
M  V30 7128 H 644.338 3.46867 3.30485 0
M  V30 7129 H 642.702 1.77594 1.82572 0
M  V30 7130 H 643.485 3.26385 1.06431 0
M  V30 7131 N 645.93 -0.909495 1.28709 0
M  V30 7132 C 647.16 -1.69027 1.188 0
M  V30 7133 C 647.568 -1.87469 -0.255329 0
M  V30 7134 O 646.911 -1.40458 -1.18394 0
M  V30 7135 C 646.973 -3.10064 1.81936 0
M  V30 7136 C 646.637 -3.14891 3.31199 0
M  V30 7137 C 647.634 -2.95768 4.27571 0
M  V30 7138 C 645.319 -3.37269 3.7223 0
M  V30 7139 C 647.313 -2.98942 5.6295 0
M  V30 7140 C 645 -3.40074 5.07733 0
M  V30 7141 C 645.998 -3.20932 6.02903 0
M  V30 7142 O 645.686 -3.23507 7.35934 0
M  V30 7143 H 645.418 -0.535014 0.413203 0
M  V30 7144 H 647.972 -1.14645 1.70428 0
M  V30 7145 H 646.202 -3.66005 1.24808 0
M  V30 7146 H 647.891 -3.70185 1.66486 0
M  V30 7147 H 648.657 -2.78302 3.97206 0
M  V30 7148 H 644.536 -3.51212 2.98615 0
M  V30 7149 H 648.08 -2.83919 6.37209 0
M  V30 7150 H 643.977 -3.5707 5.37747 0
M  V30 7151 H 644.745 -3.3984 7.44615 0
M  V30 7152 N 647.408 -1.11026 -1.11852 0
M  V30 7153 C 648.657 -0.851249 -1.82857 0
M  V30 7154 C 648.97 0.62514 -1.85341 0
M  V30 7155 O 650.176 1.00026 -2.52403 0
M  V30 7156 C 648.632 -1.47309 -3.28372 0
M  V30 7157 C 648.24 -2.9832 -3.34229 0
M  V30 7158 C 649.984 -1.29373 -4.04306 0
M  V30 7159 C 647.891 -3.53509 -4.74115 0
M  V30 7160 H 646.821 -0.314794 -0.685143 0
M  V30 7161 H 649.472 -1.33499 -1.25898 0
M  V30 7162 H 647.854 -0.917017 -3.85236 0
M  V30 7163 H 649.028 -3.60295 -2.87271 0
M  V30 7164 H 647.343 -3.15482 -2.71772 0
M  V30 7165 H 649.94 -1.68042 -5.07608 0
M  V30 7166 H 650.283 -0.235879 -4.15631 0
M  V30 7167 H 650.816 -1.8182 -3.53817 0
M  V30 7168 H 647.555 -4.58987 -4.67986 0
M  V30 7169 H 647.075 -2.96305 -5.21501 0
M  V30 7170 H 648.754 -3.51693 -5.43066 0
M  V30 7171 N 648.886 1.2938 -0.899927 0
M  V30 7172 C 649.833 2.27713 -0.376243 0
M  V30 7173 C 650.803 1.57016 0.541774 0
M  V30 7174 O 651.988 1.84997 0.466966 0
M  V30 7175 C 649.128 3.42889 0.39 0
M  V30 7176 C 648.241 4.28369 -0.558938 0
M  V30 7177 C 647.376 5.30726 0.224379 0
M  V30 7178 C 646.415 6.07862 -0.719068 0
M  V30 7179 N 645.552 7.02094 0.0298569 0
M  V30 7180 H 650.392 2.71888 -1.21988 0
M  V30 7181 H 647.929 1.33724 -0.612879 0
M  V30 7182 H 649.887 4.08443 0.850314 0
M  V30 7183 H 648.517 2.99743 1.19809 0
M  V30 7184 H 647.569 3.62986 -1.13777 0
M  V30 7185 H 648.881 4.82068 -1.2811 0
M  V30 7186 H 648.035 6.02098 0.745881 0
M  V30 7187 H 646.774 4.77759 0.979674 0
M  V30 7188 H 645.779 5.35353 -1.25207 0
M  V30 7189 H 647.004 6.62917 -1.4737 0
M  V30 7190 H 644.95 6.51496 0.767415 0
M  V30 7191 H 644.867 7.5335 -0.632391 0
M  V30 7192 H 646.135 7.77685 0.531615 0
M  V30 7193 N 650.364 0.662433 1.43002 0
M  V30 7194 C 651.592 0.187615 2.06048 0
M  V30 7195 C 652.007 -1.15039 1.49705 0
M  V30 7196 O 651.364 -1.71209 0.631956 0
M  V30 7197 C 651.415 0.100498 3.6136 0
M  V30 7198 O 651.136 1.38562 4.15611 0
M  V30 7199 C 652.637 -0.399298 4.41498 0
M  V30 7200 H 649.857 0.0941675 0.664359 0
M  V30 7201 H 652.401 0.905681 1.83351 0
M  V30 7202 H 650.556 -0.568181 3.83211 0
M  V30 7203 H 650.97 1.25084 5.09366 0
M  V30 7204 H 652.444 -0.409187 5.50481 0
M  V30 7205 H 652.921 -1.43232 4.15188 0
M  V30 7206 H 653.527 0.23721 4.24638 0
M  V30 7207 N 651.842 -1.52309 0.404946 0
M  V30 7208 C 652.774 -2.24579 -0.45791 0
M  V30 7209 C 653.787 -1.2739 -1.01369 0
M  V30 7210 O 654.976 -1.53363 -0.91335 0
M  V30 7211 C 652.076 -2.9608 -1.64893 0
M  V30 7212 C 651.249 -4.20106 -1.21777 0
M  V30 7213 C 650.308 -4.74468 -2.27523 0
M  V30 7214 O 649.334 -5.37157 -1.88285 0
M  V30 7215 N 650.536 -4.55678 -3.59635 0
M  V30 7216 H 653.301 -2.99265 0.161341 0
M  V30 7217 H 650.862 -1.60228 0.232107 0
M  V30 7218 H 652.854 -3.29344 -2.35191 0
M  V30 7219 H 651.424 -2.24606 -2.17419 0
M  V30 7220 H 650.644 -3.92704 -0.343071 0
M  V30 7221 H 651.932 -5.00658 -0.906596 0
M  V30 7222 H 651.33 -4.05673 -3.94266 0
M  V30 7223 H 649.887 -4.9339 -4.25922 0
M  V30 7224 N 653.32 -0.135238 -1.57019 0
M  V30 7225 C 654.548 0.526066 -2.001 0
M  V30 7226 C 654.963 1.59184 -1.01519 0
M  V30 7227 O 654.32 1.82497 -0.0104258 0
M  V30 7228 C 654.371 1.13744 -3.43139 0
M  V30 7229 O 654.092 0.114259 -4.37951 0
M  V30 7230 C 655.593 1.8805 -4.01438 0
M  V30 7231 H 652.813 0.137962 -0.656664 0
M  V30 7232 H 655.357 -0.226359 -2.03243 0
M  V30 7233 H 653.512 1.84056 -3.40885 0
M  V30 7234 H 653.926 0.56058 -5.21496 0
M  V30 7235 H 655.4 2.26133 -5.03555 0
M  V30 7236 H 655.877 2.76194 -3.41487 0
M  V30 7237 H 656.483 1.22464 -4.07287 0
M  V30 7238 N 654.798 1.5699 0.138552 0
M  V30 7239 C 656.044 1.84966 0.846116 0
M  V30 7240 C 656.399 0.72038 1.78405 0
M  V30 7241 O 655.692 -0.281076 1.89527 0
M  V30 7242 C 655.886 3.17007 1.65049 0
M  V30 7243 C 655.715 4.42672 0.79194 0
M  V30 7244 C 654.485 5.03254 0.454293 0
M  V30 7245 C 656.683 5.14164 0.118419 0
M  V30 7246 N 654.665 6.12482 -0.416964 0
M  V30 7247 C 656.036 6.16966 -0.61263 0
M  V30 7248 C 658.091 4.97884 0.0399671 0
M  V30 7249 C 656.794 7.0525 -1.41473 0
M  V30 7250 C 658.82 5.86639 -0.748901 0
M  V30 7251 C 658.182 6.88929 -1.4682 0
M  V30 7252 H 654.281 0.727362 0.287172 0
M  V30 7253 H 656.865 1.94383 0.110972 0
M  V30 7254 H 655.036 3.08722 2.35681 0
M  V30 7255 H 656.768 3.3286 2.30187 0
M  V30 7256 H 653.523 4.6693 0.792038 0
M  V30 7257 H 653.947 6.7172 -0.843865 0
M  V30 7258 H 658.589 4.18779 0.581728 0
M  V30 7259 H 656.307 7.83777 -1.96772 0
M  V30 7260 H 659.893 5.7611 -0.811705 0
M  V30 7261 H 658.773 7.56419 -2.06882 0
M  V30 7262 N 656.276 -0.40816 1.52223 0
M  V30 7263 C 657.687 -0.986929 1.58482 0
M  V30 7264 C 658.038 -1.91521 0.425917 0
M  V30 7265 O 657.163 -2.11593 -0.453593 0
M  V30 7266 C 657.758 -1.7967 2.87235 0
M  V30 7267 C 656.317 -2.32549 2.9597 0
M  V30 7268 C 655.464 -1.12558 2.53428 0
M  V30 7269 H 658.415 -0.188362 1.57578 0
M  V30 7270 H 658.436 -2.65417 2.72642 0
M  V30 7271 H 657.948 -1.12082 3.71563 0
M  V30 7272 H 656.049 -3.03505 2.16137 0
M  V30 7273 H 656.162 -2.63348 4.00231 0
M  V30 7274 H 654.526 -1.47984 2.07299 0
M  V30 7275 H 655.309 -0.465351 3.40131 0
M  V30 7276 N 657.755 -1.42862 -0.66545 0
M  V30 7277 C 659.166 -1.3901 -1.24632 0
M  V30 7278 C 659.517 -0.0880285 -1.96002 0
M  V30 7279 O 658.642 0.812947 -2.0055 0
M  V30 7280 C 659.237 -2.51806 -2.2667 0
M  V30 7281 C 657.796 -2.51257 -2.80262 0
M  V30 7282 C 656.943 -2.30124 -1.5472 0
M  V30 7283 H 659.894 -1.5194 -0.458237 0
M  V30 7284 H 659.915 -2.22593 -3.08598 0
M  V30 7285 H 659.427 -3.46558 -1.74697 0
M  V30 7286 H 657.528 -1.60349 -3.36332 0
M  V30 7287 H 657.641 -3.48614 -3.28641 0
M  V30 7288 H 656.005 -1.7856 -1.81627 0
M  V30 7289 H 656.788 -3.26945 -1.04699 0
M  V30 7290 N 659.233 0.902656 -1.29189 0
M  V30 7291 C 660.18 2.00643 -1.14066 0
M  V30 7292 C 661.15 1.66064 -0.0347756 0
M  V30 7293 O 662.335 1.8973 -0.201752 0
M  V30 7294 C 659.475 3.35214 -0.820104 0
M  V30 7295 C 658.588 3.82594 -2.00614 0
M  V30 7296 C 657.723 5.05727 -1.62522 0
M  V30 7297 C 656.762 5.45469 -2.77724 0
M  V30 7298 N 655.899 6.59789 -2.40048 0
M  V30 7299 H 660.739 2.1291 -2.08502 0
M  V30 7300 H 658.276 1.04271 -1.03759 0
M  V30 7301 H 660.234 4.12643 -0.614949 0
M  V30 7302 H 658.864 3.22682 0.0873452 0
M  V30 7303 H 657.916 3.01226 -2.32308 0
M  V30 7304 H 659.228 4.07999 -2.86946 0
M  V30 7305 H 658.382 5.90732 -1.38277 0
M  V30 7306 H 657.121 4.82155 -0.733333 0
M  V30 7307 H 656.126 4.59 -3.02653 0
M  V30 7308 H 657.351 5.71024 -3.67572 0
M  V30 7309 H 655.297 6.37826 -1.53343 0
M  V30 7310 H 655.214 6.84975 -3.19914 0
M  V30 7311 H 656.482 7.4807 -2.19116 0
M  V30 7312 N 660.711 1.11618 1.11262 0
M  V30 7313 C 661.661 0.745274 2.15475 0
M  V30 7314 C 662.645 -0.251585 1.58921 0
M  V30 7315 O 663.837 -0.0584093 1.76904 0
M  V30 7316 C 660.966 0.192128 3.42762 0
M  V30 7317 C 660.052 1.21676 4.0627 0
M  V30 7318 N 660.443 2.41158 4.44608 0
M  V30 7319 C 658.741 1.06013 4.33217 0
M  V30 7320 C 659.442 3.0652 4.94389 0
M  V30 7321 N 658.418 2.33994 4.9066 0
M  V30 7322 H 662.22 1.65462 2.42898 0
M  V30 7323 H 659.734 0.995695 1.28295 0
M  V30 7324 H 661.731 -0.0917339 4.16799 0
M  V30 7325 H 660.391 -0.711778 3.16802 0
M  V30 7326 H 661.402 2.786 4.3658 0
M  V30 7327 H 658.079 0.212809 4.16957 0
M  V30 7328 H 659.469 4.08225 5.33669 0
M  V30 7329 N 662.189 -1.289 0.906776 0
M  V30 7330 C 663.438 -1.9455 0.532262 0
M  V30 7331 C 663.751 -1.72219 -0.927353 0
M  V30 7332 O 664.957 -2.32033 -1.40971 0
M  V30 7333 C 663.413 -3.48438 0.901041 0
M  V30 7334 C 663.021 -3.79558 2.37991 0
M  V30 7335 C 664.765 -4.20284 0.596777 0
M  V30 7336 C 662.672 -5.26723 2.68918 0
M  V30 7337 H 661.602 -0.728259 0.195333 0
M  V30 7338 H 664.253 -1.46519 1.10474 0
M  V30 7339 H 662.635 -3.95162 0.257419 0
M  V30 7340 H 663.809 -3.43668 3.06967 0
M  V30 7341 H 662.124 -3.20868 2.65391 0
M  V30 7342 H 664.721 -5.28612 0.8046 0
M  V30 7343 H 665.064 -4.13694 -0.465072 0
M  V30 7344 H 665.597 -3.79315 1.19855 0
M  V30 7345 H 662.336 -5.38384 3.73928 0
M  V30 7346 H 661.856 -5.63836 2.04571 0
M  V30 7347 H 663.535 -5.94391 2.55555 0
M  V30 7348 N 663.667 -0.670007 -1.42649 0
M  V30 7349 C 664.913 -0.190568 -2.01903 0
M  V30 7350 C 665.246 1.19817 -1.52832 0
M  V30 7351 O 664.521 1.80342 -0.728485 0
M  V30 7352 C 664.804 -0.21991 -3.59428 0
M  V30 7353 C 664.657 -1.64376 -4.18689 0
M  V30 7354 C 665.976 0.434519 -4.3795 0
M  V30 7355 H 663.095 -0.0707219 -0.733599 0
M  V30 7356 H 665.737 -0.853883 -1.69732 0
M  V30 7357 H 663.887 0.344894 -3.86966 0
M  V30 7358 H 665.559 -2.26044 -4.02122 0
M  V30 7359 H 663.802 -2.18591 -3.747 0
M  V30 7360 H 664.473 -1.61601 -5.27815 0
M  V30 7361 H 666.949 -0.0462156 -4.16074 0
M  V30 7362 H 665.825 0.38333 -5.4756 0
M  V30 7363 H 666.086 1.51135 -4.15464 0
M  V30 7364 N 665.145 1.52092 -0.413018 0
M  V30 7365 C 666.422 1.94356 0.22024 0
M  V30 7366 C 666.802 1.35017 1.62277 0
M  V30 7367 O 666.15 0.527511 2.22328 0
M  V30 7368 C 666.36 3.48289 0.222638 0
M  V30 7369 C 667.708 4.22313 0.440098 0
M  V30 7370 O 668.732 3.54919 0.301826 0
M  V30 7371 O 667.591 5.41829 0.712984 0
M  V30 7372 H 664.685 0.814536 0.14304 0
M  V30 7373 H 667.231 1.63083 -0.469242 0
M  V30 7374 H 666.003 3.83872 -0.758836 0
M  V30 7375 H 665.626 3.85934 0.956057 0
M  V30 7376 N 666.623 0.143563 1.56945 0
M  V30 7377 C 667.553 -0.7936 2.196 0
M  V30 7378 C 668.534 -1.25955 1.14321 0
M  V30 7379 O 669.719 -1.31773 1.42651 0
M  V30 7380 C 666.849 -2.03424 2.81489 0
M  V30 7381 C 665.803 -1.70519 3.92565 0
M  V30 7382 C 665.129 -3.01817 4.41373 0
M  V30 7383 C 666.429 -0.95449 5.13504 0
M  V30 7384 H 668.123 -0.271423 2.98167 0
M  V30 7385 H 665.669 -0.12911 1.4342 0
M  V30 7386 H 667.622 -2.69463 3.23987 0
M  V30 7387 H 666.346 -2.58008 2.00248 0
M  V30 7388 H 665.005 -1.06859 3.5068 0
M  V30 7389 H 664.653 -3.54386 3.56959 0
M  V30 7390 H 664.353 -2.80565 5.16292 0
M  V30 7391 H 665.877 -3.68934 4.86539 0
M  V30 7392 H 667.291 -1.5169 5.52868 0
M  V30 7393 H 665.688 -0.842035 5.94163 0
M  V30 7394 H 666.758 0.0544033 4.84869 0
M  V30 7395 N 668.101 -1.57061 -0.130224 0
M  V30 7396 C 669.347 -1.8453 -0.841216 0
M  V30 7397 C 669.68 -0.727666 -1.80052 0
M  V30 7398 O 668.955 0.267419 -1.92653 0
M  V30 7399 C 669.238 -3.22553 -1.60099 0
M  V30 7400 C 669.091 -4.44901 -0.662048 0
M  V30 7401 C 670.41 -3.58003 -2.55973 0
M  V30 7402 H 667.529 -0.671215 -0.304366 0
M  V30 7403 H 670.171 -1.89705 -0.105821 0
M  V30 7404 H 668.321 -3.18272 -2.22789 0
M  V30 7405 H 669.993 -4.61278 -0.0448559 0
M  V30 7406 H 668.236 -4.33791 0.0272253 0
M  V30 7407 H 668.907 -5.3812 -1.23006 0
M  V30 7408 H 671.383 -3.63002 -2.03393 0
M  V30 7409 H 670.259 -4.55576 -3.06172 0
M  V30 7410 H 670.52 -2.84833 -3.38116 0
M  V30 7411 N 669.579 0.400081 -1.52437 0
M  V30 7412 C 670.827 1.14392 -1.6661 0
M  V30 7413 C 671.148 1.90792 -0.402927 0
M  V30 7414 O 670.418 1.87042 0.582425 0
M  V30 7415 H 668.998 0.425275 -0.614125 0
M  V30 7416 H 671.66 0.455076 -1.89513 0
M  V30 7417 H 670.756 1.85298 -2.51139 0
M  V30 7418 N 671.057 1.43213 0.657864 0
M  V30 7419 C 672.334 1.35063 1.41483 0
M  V30 7420 C 672.714 -0.0038314 2.111 0
M  V30 7421 O 672.062 -1.02018 2.04462 0
M  V30 7422 C 672.272 2.53061 2.40335 0
M  V30 7423 C 673.62 2.9594 3.04474 0
M  V30 7424 O 674.644 2.53074 2.50663 0
M  V30 7425 O 673.503 3.70184 4.02027 0
M  V30 7426 H 670.597 0.533517 0.631893 0
M  V30 7427 H 673.143 1.55253 0.685162 0
M  V30 7428 H 671.915 3.43283 1.87809 0
M  V30 7429 H 671.538 2.34945 3.20759 0
M  V30 7430 N 672.536 -0.895792 1.29666 0
M  V30 7431 C 673.764 -1.68001 1.20761 0
M  V30 7432 C 674.179 -1.87379 -0.231187 0
M  V30 7433 O 673.536 -1.41359 -1.15429 0
M  V30 7434 C 673.587 -3.06236 1.92098 0
M  V30 7435 O 673.308 -2.8774 3.30359 0
M  V30 7436 C 674.809 -4.00652 1.89717 0
M  V30 7437 H 672.029 -0.524591 0.418384 0
M  V30 7438 H 674.573 -1.11995 1.71106 0
M  V30 7439 H 672.728 -3.59007 1.45578 0
M  V30 7440 H 673.142 -3.75359 3.66342 0
M  V30 7441 H 674.616 -4.95051 2.44189 0
M  V30 7442 H 675.093 -4.30424 0.873595 0
M  V30 7443 H 675.699 -3.53815 2.35998 0
M  V30 7444 N 674.014 -1.12206 -1.10668 0
M  V30 7445 C 675.26 -0.887096 -1.83036 0
M  V30 7446 C 675.615 0.580887 -1.83422 0
M  V30 7447 O 674.908 1.42379 -1.28213 0
M  V30 7448 C 675.102 -1.39276 -3.29146 0
M  V30 7449 C 674.931 -2.90837 -3.42992 0
M  V30 7450 C 673.701 -3.59047 -3.55546 0
M  V30 7451 C 675.899 -3.8885 -3.36601 0
M  V30 7452 N 673.881 -4.98747 -3.57945 0
M  V30 7453 C 675.252 -5.14666 -3.45716 0
M  V30 7454 C 677.307 -3.81296 -3.20184 0
M  V30 7455 C 676.01 -6.33814 -3.40106 0
M  V30 7456 C 678.036 -4.99965 -3.15895 0
M  V30 7457 C 677.398 -6.24637 -3.25589 0
M  V30 7458 H 673.497 -0.377857 -0.684652 0
M  V30 7459 H 676.081 -1.42791 -1.32358 0
M  V30 7460 H 674.252 -0.879026 -3.78322 0
M  V30 7461 H 675.984 -1.10011 -3.89461 0
M  V30 7462 H 672.739 -3.09533 -3.5845 0
M  V30 7463 H 673.163 -5.71606 -3.62762 0
M  V30 7464 H 677.805 -2.85806 -3.11569 0
M  V30 7465 H 675.523 -7.29574 -3.47487 0
M  V30 7466 H 679.109 -4.95847 -3.04347 0
M  V30 7467 H 677.989 -7.14921 -3.22269 0
M  V30 7468 N 675.492 1.28418 -0.913599 0
M  V30 7469 C 676.442 2.24928 -0.373042 0
M  V30 7470 C 677.426 1.52444 0.514753 0
M  V30 7471 O 678.618 1.73414 0.3545 0
M  V30 7472 C 675.747 3.41124 0.385896 0
M  V30 7473 C 674.833 4.20929 -0.51761 0
M  V30 7474 N 675.224 4.78777 -1.63113 0
M  V30 7475 C 673.522 4.44865 -0.317969 0
M  V30 7476 C 674.223 5.38822 -2.19193 0
M  V30 7477 N 673.199 5.22974 -1.48321 0
M  V30 7478 H 677.001 2.67224 -1.22346 0
M  V30 7479 H 674.515 1.43187 -0.766236 0
M  V30 7480 H 676.512 4.09347 0.789997 0
M  V30 7481 H 675.172 3.00362 1.23341 0
M  V30 7482 H 676.183 4.77148 -2.01372 0
M  V30 7483 H 672.86 4.14614 0.49004 0
M  V30 7484 H 674.25 5.94615 -3.12861 0
M  V30 7485 N 676.97 0.677563 1.42291 0
M  V30 7486 C 677.917 0.000947061 2.308 0
M  V30 7487 C 678.887 -0.789889 1.46116 0
M  V30 7488 O 680.072 -0.761578 1.74942 0
M  V30 7489 C 677.212 -0.942387 3.31984 0
M  V30 7490 C 676.325 -0.14508 4.31756 0
M  V30 7491 C 675.46 -1.08442 5.20013 0
M  V30 7492 C 674.499 -0.278958 6.11464 0
M  V30 7493 N 673.636 -1.17115 6.92263 0
M  V30 7494 H 678.476 0.761521 2.88106 0
M  V30 7495 H 676.013 0.38727 1.41911 0
M  V30 7496 H 677.971 -1.50317 3.89179 0
M  V30 7497 H 676.601 -1.66956 2.76271 0
M  V30 7498 H 675.653 0.532368 3.76656 0
M  V30 7499 H 676.965 0.48015 4.96484 0
M  V30 7500 H 676.119 -1.71504 5.81955 0
M  V30 7501 H 674.858 -1.74353 4.55469 0
M  V30 7502 H 673.863 0.364856 5.48588 0
M  V30 7503 H 675.088 0.376099 6.78058 0
M  V30 7504 H 673.034 -1.81661 6.30345 0
M  V30 7505 H 672.951 -0.601063 7.53607 0
M  V30 7506 H 674.219 -1.78915 7.58689 0
M  V30 7507 N 678.448 -1.51871 0.421078 0
M  V30 7508 C 679.378 -2.30231 -0.389363 0
M  V30 7509 C 680.359 -1.34946 -1.03555 0
M  V30 7510 O 681.544 -1.63859 -1.04229 0
M  V30 7511 C 678.674 -3.13247 -1.49979 0
M  V30 7512 C 677.628 -4.16677 -0.977966 0
M  V30 7513 C 676.954 -4.88112 -2.1829 0
M  V30 7514 C 678.254 -5.22295 -0.0236775 0
M  V30 7515 H 679.948 -2.98229 0.264524 0
M  V30 7516 H 677.494 -1.43424 0.12866 0
M  V30 7517 H 679.447 -3.66838 -2.07383 0
M  V30 7518 H 678.171 -2.4304 -2.18173 0
M  V30 7519 H 676.83 -3.64114 -0.426245 0
M  V30 7520 H 676.478 -4.14423 -2.85066 0
M  V30 7521 H 676.178 -5.58041 -1.84021 0
M  V30 7522 H 677.702 -5.44521 -2.76278 0
M  V30 7523 H 679.116 -5.71055 -0.506899 0
M  V30 7524 H 677.513 -5.99656 0.230782 0
M  V30 7525 H 678.583 -4.76131 0.917999 0
M  V30 7526 N 679.926 -0.151884 -1.56866 0
M  V30 7527 C 681.337 0.368128 -1.83035 0
M  V30 7528 C 681.688 1.64402 -1.07082 0
M  V30 7529 O 680.813 2.14056 -0.317647 0
M  V30 7530 C 681.408 0.674676 -3.32014 0
M  V30 7531 C 679.967 1.13919 -3.58747 0
M  V30 7532 C 679.114 0.164833 -2.7681 0
M  V30 7533 H 682.065 -0.376499 -1.54169 0
M  V30 7534 H 682.086 1.52883 -3.48435 0
M  V30 7535 H 681.598 -0.254113 -3.87267 0
M  V30 7536 H 679.699 2.08375 -3.08886 0
M  V30 7537 H 679.812 1.06179 -4.67186 0
M  V30 7538 H 678.176 0.658419 -2.46043 0
M  V30 7539 H 678.959 -0.757633 -3.34836 0
M  V30 7540 N 681.404 1.57128 0.121893 0
M  V30 7541 C 682.653 1.83888 0.828748 0
M  V30 7542 C 682.966 0.737087 1.81181 0
M  V30 7543 O 684.172 0.891007 2.56463 0
M  V30 7544 C 682.628 3.26014 1.52455 0
M  V30 7545 C 682.236 4.44195 0.58263 0
M  V30 7546 C 683.98 3.62025 2.21671 0
M  V30 7547 C 681.887 5.77349 1.28149 0
M  V30 7548 H 680.817 0.685856 0.313238 0
M  V30 7549 H 683.468 1.83319 0.0814851 0
M  V30 7550 H 681.85 3.21044 2.31834 0
M  V30 7551 H 683.024 4.60457 -0.177729 0
M  V30 7552 H 681.339 4.164 -0.00241228 0
M  V30 7553 H 683.936 4.58776 2.74643 0
M  V30 7554 H 684.279 2.89315 2.99337 0
M  V30 7555 H 684.812 3.68767 1.49184 0
M  V30 7556 H 681.551 6.53221 0.546189 0
M  V30 7557 H 681.071 5.64978 2.01394 0
M  V30 7558 H 682.75 6.21006 1.81549 0
M  V30 7559 N 682.882 -0.391992 1.52647 0
M  V30 7560 C 684.11 -1.1586 1.71418 0
M  V30 7561 C 684.525 -1.8381 0.431216 0
M  V30 7562 O 683.882 -1.7256 -0.594085 0
M  V30 7563 C 683.933 -2.20888 2.86165 0
M  V30 7564 O 683.654 -1.5571 4.09495 0
M  V30 7565 C 685.155 -3.103 3.1659 0
M  V30 7566 H 682.375 -0.347494 0.574011 0
M  V30 7567 H 684.919 -0.458972 1.99283 0
M  V30 7568 H 683.074 -2.86492 2.6077 0
M  V30 7569 H 683.488 -2.25474 4.73563 0
M  V30 7570 H 684.962 -3.8003 4.00351 0
M  V30 7571 H 685.439 -3.73639 2.30848 0
M  V30 7572 H 686.045 -2.50345 3.43813 0
M  V30 7573 N 684.36 -1.4356 -0.65026 0
M  V30 7574 C 685.292 -1.44918 -1.77571 0
M  V30 7575 C 686.305 -0.344925 -1.59104 0
M  V30 7576 O 687.494 -0.609537 -1.6777 0
M  V30 7577 C 684.594 -1.24914 -3.15039 0
M  V30 7578 C 683.767 -2.48232 -3.60138 0
M  V30 7579 C 682.826 -2.23409 -4.76419 0
M  V30 7580 O 681.852 -2.9678 -4.85706 0
M  V30 7581 N 683.054 -1.25259 -5.66825 0
M  V30 7582 H 685.819 -2.41935 -1.76883 0
M  V30 7583 H 683.38 -1.38754 -0.834202 0
M  V30 7584 H 685.372 -1.06185 -3.90521 0
M  V30 7585 H 683.942 -0.363319 -3.10481 0
M  V30 7586 H 683.162 -2.82366 -2.75069 0
M  V30 7587 H 684.45 -3.30296 -3.87017 0
M  V30 7588 H 683.848 -0.646246 -5.61997 0
M  V30 7589 H 682.405 -1.12513 -6.42016 0
M  V30 7590 N 685.838 0.888903 -1.30139 0
M  V30 7591 C 687.087 1.63507 -1.18103 0
M  V30 7592 C 687.4 1.93808 0.264141 0
M  V30 7593 O 688.606 2.66744 0.505966 0
M  V30 7594 C 687.062 2.94673 -2.0663 0
M  V30 7595 C 686.67 2.71926 -3.56034 0
M  V30 7596 C 688.414 3.72626 -2.03346 0
M  V30 7597 C 686.321 3.98884 -4.3663 0
M  V30 7598 H 685.251 0.613426 -0.438435 0
M  V30 7599 H 687.902 0.984427 -1.54859 0
M  V30 7600 H 686.284 3.61009 -1.62754 0
M  V30 7601 H 687.458 2.14116 -4.08033 0
M  V30 7602 H 685.773 2.07353 -3.61101 0
M  V30 7603 H 688.37 4.66775 -2.60816 0
M  V30 7604 H 688.713 4.03712 -1.016 0
M  V30 7605 H 689.246 3.13147 -2.45324 0
M  V30 7606 H 685.985 3.72959 -5.39056 0
M  V30 7607 H 685.505 4.56214 -3.89396 0
M  V30 7608 H 687.184 4.66938 -4.47859 0
M  V30 7609 N 687.317 1.12792 1.10072 0
M  V30 7610 C 688.564 0.885545 1.82111 0
M  V30 7611 C 688.892 -0.588519 1.85383 0
M  V30 7612 O 688.147 -1.45124 1.31292 0
M  V30 7613 C 688.446 1.4102 3.28403 0
M  V30 7614 C 688.112 2.89995 3.45273 0
M  V30 7615 C 686.774 3.30671 3.49585 0
M  V30 7616 C 689.126 3.85874 3.50358 0
M  V30 7617 C 686.454 4.65925 3.56553 0
M  V30 7618 C 688.806 5.20963 3.58859 0
M  V30 7619 C 687.47 5.61177 3.61437 0
M  V30 7620 H 686.74 0.324044 0.666391 0
M  V30 7621 H 689.387 1.40874 1.29718 0
M  V30 7622 H 687.692 0.807551 3.83387 0
M  V30 7623 H 689.389 1.19882 3.82661 0
M  V30 7624 H 685.979 2.57537 3.42597 0
M  V30 7625 H 690.163 3.5554 3.46273 0
M  V30 7626 H 685.419 4.96468 3.56833 0
M  V30 7627 H 689.593 5.95079 3.61738 0
M  V30 7628 H 687.22 6.6597 3.66589 0
M  V30 7629 N 688.795 -1.27931 0.920396 0
M  V30 7630 C 689.705 -2.30824 0.419212 0
M  V30 7631 C 690.721 -1.66767 -0.496461 0
M  V30 7632 O 691.897 -1.97763 -0.38104 0
M  V30 7633 C 688.962 -3.45158 -0.326601 0
M  V30 7634 C 688.023 -4.24754 0.623098 0
M  V30 7635 C 687.256 -5.33629 -0.0872172 0
M  V30 7636 O 687.479 -5.55204 -1.30784 0
M  V30 7637 O 686.413 -5.99091 0.580875 0
M  V30 7638 H 690.239 -2.75716 1.27337 0
M  V30 7639 H 687.824 -1.32747 0.685465 0
M  V30 7640 H 689.706 -4.14716 -0.747559 0
M  V30 7641 H 688.381 -3.02336 -1.15648 0
M  V30 7642 H 687.288 -3.57759 1.09359 0
M  V30 7643 H 688.621 -4.71272 1.41998 0
M  V30 7644 N 690.273 -0.685099 -1.4193 0
M  V30 7645 C 691.522 -0.208816 -2.00616 0
M  V30 7646 C 691.835 1.19506 -1.54847 0
M  V30 7647 O 693.041 1.76826 -2.06021 0
M  V30 7648 C 691.497 -0.322446 -3.58453 0
M  V30 7649 C 691.105 -1.73102 -4.13206 0
M  V30 7650 C 692.849 0.0945979 -4.24395 0
M  V30 7651 C 690.756 -1.79687 -5.63442 0
M  V30 7652 H 689.686 -0.0743092 -0.750329 0
M  V30 7653 H 692.337 -0.851778 -1.62533 0
M  V30 7654 H 690.719 0.388588 -3.94089 0
M  V30 7655 H 691.893 -2.46997 -3.8901 0
M  V30 7656 H 690.208 -2.09682 -3.59753 0
M  V30 7657 H 692.805 0.0656937 -5.3466 0
M  V30 7658 H 693.148 1.1316 -4.00625 0
M  V30 7659 H 693.681 -0.56579 -3.93756 0
M  V30 7660 H 690.42 -2.81404 -5.92024 0
M  V30 7661 H 689.94 -1.10162 -5.89597 0
M  V30 7662 H 691.619 -1.55498 -6.28036 0
M  V30 7663 N 691.751 1.51645 -0.429126 0
M  V30 7664 C 693.162 1.86665 0.0359003 0
M  V30 7665 C 693.513 1.34677 1.42676 0
M  V30 7666 O 692.638 0.694195 2.04963 0
M  V30 7667 C 693.233 3.38724 0.0719221 0
M  V30 7668 C 691.792 3.7331 0.481336 0
M  V30 7669 C 690.939 2.75313 -0.331329 0
M  V30 7670 H 693.89 1.44987 -0.645333 0
M  V30 7671 H 693.911 3.7011 0.883118 0
M  V30 7672 H 693.423 3.76532 -0.940495 0
M  V30 7673 H 691.524 3.41088 1.49966 0
M  V30 7674 H 691.637 4.78631 0.211837 0
M  V30 7675 H 690.001 2.53839 0.209204 0
M  V30 7676 H 690.784 3.15963 -1.34247 0
M  V30 7677 N 693.229 0.160201 1.56784 0
M  V30 7678 C 694.139 -0.787167 2.21 0
M  V30 7679 C 695.155 -1.26167 1.19825 0
M  V30 7680 O 696.331 -1.31611 1.52448 0
M  V30 7681 C 693.396 -2.00364 2.8294 0
M  V30 7682 C 692.457 -1.5771 3.99282 0
M  V30 7683 C 691.69 -2.73558 4.58259 0
M  V30 7684 O 691.913 -3.90129 4.16119 0
M  V30 7685 O 690.847 -2.48271 5.48311 0
M  V30 7686 H 694.673 -0.270462 3.02493 0
M  V30 7687 H 692.258 -0.0674666 1.49248 0
M  V30 7688 H 694.14 -2.71529 3.22257 0
M  V30 7689 H 692.815 -2.50961 2.04451 0
M  V30 7690 H 691.722 -0.835274 3.64656 0
M  V30 7691 H 693.055 -1.11815 4.79331 0
M  V30 7692 N 694.707 -1.5719 -0.113559 0
M  V30 7693 C 695.932 -1.89702 -0.838336 0
M  V30 7694 C 696.357 -0.752679 -1.72384 0
M  V30 7695 O 695.715 0.296575 -1.78858 0
M  V30 7696 C 695.763 -3.20989 -1.64312 0
M  V30 7697 O 694.867 -3.07278 -2.75053 0
M  V30 7698 H 694.208 -0.622339 -0.231496 0
M  V30 7699 H 696.738 -2.04382 -0.0943228 0
M  V30 7700 H 696.748 -3.53843 -2.03123 0
M  V30 7701 H 695.423 -4.03869 -0.993119 0
M  V30 7702 H 694 -2.85901 -2.39406 0
M  V30 7703 N 696.185 0.383891 -1.52853 0
M  V30 7704 C 697.118 1.49105 -1.72751 0
M  V30 7705 C 698.096 1.52077 -0.575438 0
M  V30 7706 O 699.28 1.70406 -0.805854 0
M  V30 7707 C 696.407 2.87551 -1.78975 0
M  V30 7708 C 695.453 3.02383 -3.00777 0
M  V30 7709 S 696.286 2.73048 -4.60657 0
M  V30 7710 C 697.442 4.13678 -4.69704 0
M  V30 7711 H 697.675 1.32002 -2.66388 0
M  V30 7712 H 695.208 0.577088 -1.4321 0
M  V30 7713 H 697.166 3.6733 -1.83246 0
M  V30 7714 H 695.827 3.01977 -0.864215 0
M  V30 7715 H 695.02 4.03733 -3.01688 0
M  V30 7716 H 694.622 2.30504 -2.94523 0
M  V30 7717 H 696.914 5.07676 -4.48633 0
M  V30 7718 H 697.857 4.1778 -5.71721 0
M  V30 7719 H 698.265 3.99825 -3.98497 0
M  V30 7720 N 697.663 1.43903 0.642637 0
M  V30 7721 C 698.94 1.36556 1.40043 0
M  V30 7722 C 699.32 0.0185588 2.11092 0
M  V30 7723 O 698.668 -0.998438 2.05532 0
M  V30 7724 C 698.878 2.55596 2.37638 0
M  V30 7725 C 700.226 2.99153 3.01318 0
M  V30 7726 O 701.25 2.55719 2.47965 0
M  V30 7727 O 700.109 3.74427 3.98078 0
M  V30 7728 H 697.203 0.540189 0.626198 0
M  V30 7729 H 699.749 1.55971 0.668657 0
M  V30 7730 H 698.521 3.45256 1.84158 0
M  V30 7731 H 698.144 2.38334 3.18249 0
M  V30 7732 N 699.141 -0.881989 1.30609 0
M  V30 7733 C 700.552 -1.44956 1.17664 0
M  V30 7734 C 700.903 -1.94945 -0.221531 0
M  V30 7735 O 700.028 -1.85257 -1.11844 0
M  V30 7736 C 700.623 -2.63474 2.12995 0
M  V30 7737 C 699.182 -3.16312 2.04019 0
M  V30 7738 C 698.329 -1.89008 2.02907 0
M  V30 7739 H 701.28 -0.691645 1.42835 0
M  V30 7740 H 701.301 -3.39783 1.71253 0
M  V30 7741 H 700.813 -2.2706 3.14746 0
M  V30 7742 H 698.914 -3.57376 1.0542 0
M  V30 7743 H 699.027 -3.79409 2.9255 0
M  V30 7744 H 697.391 -2.07465 1.47751 0
M  V30 7745 H 698.174 -1.54848 3.06394 0
M  V30 7746 N 700.619 -1.13374 -1.09472 0
M  V30 7747 C 701.844 -0.918711 -1.85942 0
M  V30 7748 C 702.269 0.527225 -1.8056 0
M  V30 7749 O 701.627 1.37408 -1.18274 0
M  V30 7750 C 701.675 -1.41056 -3.31867 0
M  V30 7751 O 700.779 -0.595496 -4.08078 0
M  V30 7752 H 700.12 -0.329297 -0.576593 0
M  V30 7753 H 702.65 -1.50829 -1.38245 0
M  V30 7754 H 702.66 -1.41398 -3.82715 0
M  V30 7755 H 701.335 -2.46335 -3.35099 0
M  V30 7756 H 699.912 -0.659911 -3.67014 0
M  V30 7757 N 702.098 1.27442 -0.927168 0
M  V30 7758 C 703.008 2.30599 -0.431448 0
M  V30 7759 C 704.024 1.67028 0.48761 0
M  V30 7760 O 705.2 1.97962 0.370546 0
M  V30 7761 C 702.265 3.45327 0.308292 0
M  V30 7762 C 701.326 4.24418 -0.645615 0
M  V30 7763 C 700.559 5.33667 0.0589164 0
M  V30 7764 O 700.782 5.5589 1.27838 0
M  V30 7765 O 699.716 5.98774 -0.612638 0
M  V30 7766 H 703.542 2.75036 -1.28797 0
M  V30 7767 H 701.127 1.32382 -0.692495 0
M  V30 7768 H 703.009 4.15107 0.725555 0
M  V30 7769 H 701.684 3.02945 1.14043 0
M  V30 7770 H 700.591 3.57174 -1.11255 0
M  V30 7771 H 701.924 4.70512 -1.44496 0
M  V30 7772 N 703.576 0.692616 1.41565 0
M  V30 7773 C 704.825 0.219452 2.00503 0
M  V30 7774 C 705.138 -1.18683 1.55479 0
M  V30 7775 O 706.344 -1.75731 2.06956 0
M  V30 7776 C 704.8 0.341451 3.58277 0
M  V30 7777 C 704.408 1.75291 4.12283 0
M  V30 7778 C 706.152 -0.0720899 4.24439 0
M  V30 7779 C 704.059 1.82673 5.62481 0
M  V30 7780 H 702.989 0.0782874 0.749925 0
M  V30 7781 H 705.64 0.860386 1.62079 0
M  V30 7782 H 704.022 -0.367683 3.94289 0
M  V30 7783 H 705.196 2.49057 3.87695 0
M  V30 7784 H 703.511 2.11587 3.58636 0
M  V30 7785 H 706.108 -0.0373385 5.34687 0
M  V30 7786 H 706.451 -1.11034 4.0122 0
M  V30 7787 H 706.984 0.586663 3.9345 0
M  V30 7788 H 703.723 2.84539 5.90523 0
M  V30 7789 H 703.243 1.13288 5.89004 0
M  V30 7790 H 704.922 1.58827 6.27203 0
M  V30 7791 N 705.054 -1.51416 0.437162 0
M  V30 7792 C 705.984 -2.30631 -0.364922 0
M  V30 7793 C 706.965 -1.36037 -1.02118 0
M  V30 7794 O 708.15 -1.64956 -1.02485 0
M  V30 7795 C 705.28 -3.1482 -1.46648 0
M  V30 7796 C 704.234 -4.17691 -0.933717 0
M  V30 7797 C 703.56 -4.904 -2.13101 0
M  V30 7798 C 704.86 -5.2229 0.0317201 0
M  V30 7799 H 706.554 -2.97932 0.29614 0
M  V30 7800 H 704.1 -1.4328 0.143865 0
M  V30 7801 H 706.053 -3.69017 -2.03481 0
M  V30 7802 H 704.777 -2.4534 -2.15583 0
M  V30 7803 H 703.436 -3.64545 -0.387602 0
M  V30 7804 H 703.084 -4.17423 -2.80654 0
M  V30 7805 H 702.784 -5.59962 -1.78092 0
M  V30 7806 H 704.308 -5.4742 -2.70487 0
M  V30 7807 H 705.722 -5.7156 -0.446302 0
M  V30 7808 H 704.119 -5.99378 0.29437 0
M  V30 7809 H 705.189 -4.75131 0.968447 0
M  V30 7810 N 706.532 -0.168513 -1.56696 0
M  V30 7811 C 707.809 0.523367 -1.88468 0
M  V30 7812 C 708.189 1.81503 -1.07796 0
M  V30 7813 O 707.537 2.27859 -0.171045 0
M  V30 7814 C 707.747 0.767991 -3.40445 0
M  V30 7815 C 709.095 1.09924 -4.10124 0
M  V30 7816 O 710.119 0.856625 -3.45746 0
M  V30 7817 O 708.978 1.55681 -5.23856 0
M  V30 7818 H 706.072 0.269447 -0.781874 0
M  V30 7819 H 708.618 -0.206739 -1.68436 0
M  V30 7820 H 707.39 -0.145254 -3.9103 0
M  V30 7821 H 707.013 1.55151 -3.66079 0
M  V30 7822 N 708.01 1.57248 0.105221 0
M  V30 7823 C 709.287 1.76566 0.841647 0
M  V30 7824 C 709.667 0.747566 1.9742 0
M  V30 7825 O 709.015 -0.225886 2.27381 0
M  V30 7826 C 709.225 3.22016 1.3456 0
M  V30 7827 C 710.573 3.84911 1.79244 0
M  V30 7828 O 711.597 3.25703 1.44207 0
M  V30 7829 O 710.456 4.89008 2.43995 0
M  V30 7830 H 707.55 0.723443 0.400698 0
M  V30 7831 H 710.096 1.69472 0.0878893 0
M  V30 7832 H 708.868 3.87644 0.533685 0
M  V30 7833 H 708.491 3.33703 2.16167 0
M  V30 7834 N 709.488 -0.375779 1.53054 0
M  V30 7835 C 710.435 -1.45978 1.78771 0
M  V30 7836 C 711.405 -1.53625 0.631552 0
M  V30 7837 O 712.59 -1.69674 0.872667 0
M  V30 7838 C 709.73 -2.8305 1.97425 0
M  V30 7839 C 708.843 -2.84451 3.25134 0
M  V30 7840 C 707.978 -4.13034 3.34031 0
M  V30 7841 C 707.017 -4.08536 4.55812 0
M  V30 7842 N 706.154 -5.2875 4.61918 0
M  V30 7843 H 710.994 -1.23349 2.71273 0
M  V30 7844 H 708.531 -0.598147 1.3439 0
M  V30 7845 H 710.489 -3.62666 2.06225 0
M  V30 7846 H 709.119 -3.04101 1.0827 0
M  V30 7847 H 708.171 -1.97127 3.25338 0
M  V30 7848 H 709.483 -2.76998 4.14818 0
M  V30 7849 H 708.637 -5.0106 3.42087 0
M  V30 7850 H 707.376 -4.23226 2.42345 0
M  V30 7851 H 706.381 -3.18897 4.47867 0
M  V30 7852 H 707.606 -3.99955 5.48828 0
M  V30 7853 H 705.552 -5.39547 3.73129 0
M  V30 7854 H 705.469 -5.23426 5.45492 0
M  V30 7855 H 706.737 -6.18637 4.74245 0
M  V30 7856 N 710.966 -1.44241 -0.634997 0
M  V30 7857 C 712.191 -1.50516 -1.42687 0
M  V30 7858 C 712.616 -0.129864 -1.87651 0
M  V30 7859 O 711.974 0.880164 -1.58502 0
M  V30 7860 C 712.022 -2.4714 -2.62591 0
M  V30 7861 O 711.126 -1.97025 -3.62291 0
M  V30 7862 H 710.467 -0.50841 -0.427101 0
M  V30 7863 H 712.997 -1.89337 -0.775408 0
M  V30 7864 H 713.007 -2.65048 -3.10183 0
M  V30 7865 H 711.682 -3.47039 -2.29209 0
M  V30 7866 H 710.259 -1.88866 -3.21534 0
M  V30 7867 N 712.444 0.87505 -1.31075 0
M  V30 7868 C 713.394 1.96933 -1.14898 0
M  V30 7869 C 714.378 1.60783 -0.0613703 0
M  V30 7870 O 715.57 1.74678 -0.285751 0
M  V30 7871 C 712.699 3.3253 -0.853166 0
M  V30 7872 C 711.785 3.74963 -1.98151 0
M  V30 7873 N 712.176 3.89403 -3.22799 0
M  V30 7874 C 710.474 4.04436 -1.8801 0
M  V30 7875 C 711.175 4.25563 -3.96574 0
M  V30 7876 N 710.151 4.3597 -3.24701 0
M  V30 7877 H 713.953 2.06201 -2.09424 0
M  V30 7878 H 711.467 1.06551 -1.22558 0
M  V30 7879 H 713.464 4.10666 -0.718266 0
M  V30 7880 H 712.124 3.24592 0.0839218 0
M  V30 7881 H 713.135 3.74266 -3.57974 0
M  V30 7882 H 709.812 4.04915 -1.01733 0
M  V30 7883 H 711.202 4.44375 -5.03965 0
M  V30 7884 N 713.922 1.13953 1.08869 0
M  V30 7885 C 715.147 0.928559 1.85452 0
M  V30 7886 C 715.572 -0.517642 1.80837 0
M  V30 7887 O 714.93 -1.36779 1.19001 0
M  V30 7888 C 714.978 1.42814 3.31114 0
M  V30 7889 O 714.082 0.617129 4.07756 0
M  V30 7890 H 713.423 0.33235 0.574839 0
M  V30 7891 H 715.953 1.5156 1.37443 0
M  V30 7892 H 715.963 1.43425 3.8196 0
M  V30 7893 H 714.638 2.48109 3.33788 0
M  V30 7894 H 713.215 0.679365 3.66659 0
M  V30 7895 N 715.4 -1.26948 0.933913 0
M  V30 7896 C 716.647 -1.94087 0.577625 0
M  V30 7897 C 716.975 -1.73345 -0.88214 0
M  V30 7898 O 716.23 -1.05945 -1.64542 0
M  V30 7899 C 716.529 -3.46963 0.857406 0
M  V30 7900 C 716.195 -3.87834 2.2999 0
M  V30 7901 C 714.857 -3.98704 2.69423 0
M  V30 7902 C 717.209 -4.08442 3.23766 0
M  V30 7903 C 714.537 -4.27573 4.01744 0
M  V30 7904 C 716.889 -4.38798 4.55675 0
M  V30 7905 C 715.553 -4.47881 4.94934 0
M  V30 7906 H 714.823 -0.710215 0.211368 0
M  V30 7907 H 717.47 -1.50899 1.17905 0
M  V30 7908 H 715.775 -3.91416 0.173369 0
M  V30 7909 H 717.472 -3.97062 0.560615 0
M  V30 7910 H 714.062 -3.79916 1.98399 0
M  V30 7911 H 718.246 -3.99479 2.94499 0
M  V30 7912 H 713.502 -4.32815 4.31834 0
M  V30 7913 H 717.676 -4.5369 5.28335 0
M  V30 7914 H 715.303 -4.70005 5.97495 0
M  V30 7915 N 716.879 -0.700114 -1.41195 0
M  V30 7916 C 718.107 -0.242179 -2.05478 0
M  V30 7917 C 718.522 1.11029 -1.52702 0
M  V30 7918 O 717.879 1.69473 -0.677127 0
M  V30 7919 C 717.93 -0.196271 -3.60967 0
M  V30 7920 O 717.651 -1.49532 -4.11791 0
M  V30 7921 C 719.152 0.282102 -4.42401 0
M  V30 7922 H 716.372 -0.111749 -0.661629 0
M  V30 7923 H 718.916 -0.953975 -1.80885 0
M  V30 7924 H 717.071 0.46638 -3.84582 0
M  V30 7925 H 717.485 -1.38545 -5.05871 0
M  V30 7926 H 718.959 0.263093 -5.51373 0
M  V30 7927 H 719.436 1.32174 -4.1884 0
M  V30 7928 H 720.042 -0.349712 -4.2386 0
M  V30 7929 N 718.357 1.51182 -0.445186 0
M  V30 7930 C 719.773 1.59299 -0.0978954 0
M  V30 7931 C 719.973 1.4555 1.39346 0
M  V30 7932 O 719.029 1.30073 2.16419 0
M  V30 7933 C 720.342 2.94133 -0.625005 0
M  V30 7934 C 721.89 3.07463 -0.586137 0
M  V30 7935 C 722.365 4.44832 -1.09035 0
M  V30 7936 N 723.856 4.51173 -1.04867 0
M  V30 7937 C 724.591 5.55804 -1.40959 0
M  V30 7938 N 724.087 6.67816 -1.84375 0
M  V30 7939 N 725.88 5.46205 -1.32726 0
M  V30 7940 H 718.031 1.58363 -1.41544 0
M  V30 7941 H 720.294 0.746946 -0.58376 0
M  V30 7942 H 720 3.09589 -1.66876 0
M  V30 7943 H 719.874 3.77161 -0.0542262 0
M  V30 7944 H 722.261 2.9167 0.448646 0
M  V30 7945 H 722.342 2.26255 -1.19341 0
M  V30 7946 H 721.986 4.61372 -2.12364 0
M  V30 7947 H 721.916 5.24591 -0.459539 0
M  V30 7948 H 724.407 3.70783 -0.729932 0
M  V30 7949 H 724.72 7.43683 -2.10131 0
M  V30 7950 H 723.065 6.69003 -1.88308 0
M  V30 7951 H 726.256 4.57583 -0.986678 0
M  V30 7952 H 726.429 6.27634 -1.61182 0
M  V30 7953 N 719.835 0.176821 1.56605 0
M  V30 7954 C 721.063 -0.472828 2.01425 0
M  V30 7955 C 721.478 -1.56436 1.05703 0
M  V30 7956 O 720.835 -1.82405 0.058808 0
M  V30 7957 C 720.886 -1.04607 3.46034 0
M  V30 7958 O 720.607 0.00189608 4.381 0
M  V30 7959 C 722.108 -1.7734 4.06282 0
M  V30 7960 H 719.328 -0.120503 0.660091 0
M  V30 7961 H 721.872 0.280166 2.02572 0
M  V30 7962 H 720.027 -1.74953 3.45645 0
M  V30 7963 H 720.441 -0.422118 5.22799 0
M  V30 7964 H 721.915 -2.12703 5.09374 0
M  V30 7965 H 722.392 -2.67043 3.4869 0
M  V30 7966 H 722.998 -1.11623 4.10391 0
M  V30 7967 N 721.313 -1.57302 -0.09688 0
M  V30 7968 C 722.729 -1.53094 -0.451041 0
M  V30 7969 C 722.929 -0.893265 -1.80618 0
M  V30 7970 O 721.985 -0.485013 -2.47798 0
M  V30 7971 C 723.298 -2.9782 -0.415172 0
M  V30 7972 C 724.846 -3.09026 -0.497155 0
M  V30 7973 C 725.321 -4.55356 -0.491452 0
M  V30 7974 N 726.812 -4.59896 -0.552258 0
M  V30 7975 C 727.547 -5.70563 -0.569654 0
M  V30 7976 N 727.043 -6.90666 -0.543365 0
M  V30 7977 N 728.836 -5.58733 -0.614331 0
M  V30 7978 H 720.987 -1.97131 0.790771 0
M  V30 7979 H 723.25 -0.901211 0.294147 0
M  V30 7980 H 722.956 -3.47933 0.513362 0
M  V30 7981 H 722.83 -3.56416 -1.23481 0
M  V30 7982 H 725.217 -2.58902 -1.41611 0
M  V30 7983 H 725.298 -2.53386 0.35059 0
M  V30 7984 H 724.942 -5.06131 0.423549 0
M  V30 7985 H 724.872 -5.08832 -1.35639 0
M  V30 7986 H 727.363 -3.73456 -0.577842 0
M  V30 7987 H 727.676 -7.70769 -0.559873 0
M  V30 7988 H 726.021 -6.93123 -0.510441 0
M  V30 7989 H 729.212 -4.63809 -0.632387 0
M  V30 7990 H 729.385 -6.44984 -0.62442 0
M  V30 7991 N 722.791 0.367657 -1.53252 0
M  V30 7992 C 723.721 1.45632 -1.8252 0
M  V30 7993 C 724.702 1.55979 -0.678568 0
M  V30 7994 O 725.887 1.70581 -0.928217 0
M  V30 7995 C 723.017 2.82994 -2.01325 0
M  V30 7996 C 721.971 2.87473 -3.17086 0
M  V30 7997 C 721.297 4.2749 -3.21179 0
M  V30 7998 C 722.597 2.55182 -4.55719 0
M  V30 7999 H 724.291 1.21387 -2.73689 0
M  V30 8000 H 721.837 0.58251 -1.31692 0
M  V30 8001 H 723.79 3.59179 -2.20383 0
M  V30 8002 H 722.514 3.08622 -1.06864 0
M  V30 8003 H 721.173 2.13739 -2.97844 0
M  V30 8004 H 720.821 4.5019 -2.24361 0
M  V30 8005 H 720.521 4.31403 -3.98955 0
M  V30 8006 H 722.045 5.0555 -3.42419 0
M  V30 8007 H 723.459 3.21081 -4.74953 0
M  V30 8008 H 721.856 2.70414 -5.3572 0
M  V30 8009 H 722.926 1.5044 -4.60973 0
M  V30 8010 N 724.269 1.44576 0.627338 0
M  V30 8011 C 725.232 1.51372 1.72102 0
M  V30 8012 C 726.232 0.395329 1.55865 0
M  V30 8013 O 727.422 0.658094 1.61291 0
M  V30 8014 C 724.554 1.39129 3.11217 0
M  V30 8015 H 725.747 2.48798 1.6745 0
M  V30 8016 H 723.3 1.31724 0.841336 0
M  V30 8017 H 724.035 0.428114 3.21462 0
M  V30 8018 H 723.82 2.20229 3.24409 0
M  V30 8019 H 725.31 1.46874 3.90919 0
M  V30 8020 N 725.747 -0.868086 1.31537 0
M  V30 8021 C 726.972 -1.65926 1.24432 0
M  V30 8022 C 727.397 -1.87169 -0.186936 0
M  V30 8023 O 726.755 -1.4148 -1.13371 0
M  V30 8024 C 726.803 -3.00347 1.9956 0
M  V30 8025 O 725.907 -3.90221 1.33422 0
M  V30 8026 H 725.248 -0.506375 0.429512 0
M  V30 8027 H 727.778 -1.0822 1.73637 0
M  V30 8028 H 727.788 -3.50269 2.09226 0
M  V30 8029 H 726.463 -2.84205 3.03645 0
M  V30 8030 H 725.04 -3.48672 1.32219 0
M  V30 8031 N 727.225 -1.14528 -1.08264 0
M  V30 8032 C 728.471 -0.925721 -1.81113 0
M  V30 8033 C 728.826 0.54185 -1.84612 0
M  V30 8034 O 728.119 1.39628 -1.31205 0
M  V30 8035 C 728.313 -1.46226 -3.26117 0
M  V30 8036 C 728.142 -2.98047 -3.36746 0
M  V30 8037 C 726.912 -3.66508 -3.4785 0
M  V30 8038 C 729.11 -3.95903 -3.28277 0
M  V30 8039 N 727.092 -5.06227 -3.47285 0
M  V30 8040 C 728.463 -5.21883 -3.34721 0
M  V30 8041 C 730.518 -3.88002 -3.12024 0
M  V30 8042 C 729.221 -6.40886 -3.26585 0
M  V30 8043 C 731.247 -5.06553 -3.05219 0
M  V30 8044 C 730.609 -6.31403 -3.12266 0
M  V30 8045 H 726.708 -0.392294 -0.676483 0
M  V30 8046 H 729.292 -1.45567 -1.293 0
M  V30 8047 H 727.463 -0.959076 -3.76373 0
M  V30 8048 H 729.195 -1.18247 -3.8704 0
M  V30 8049 H 725.95 -3.17067 -3.51804 0
M  V30 8050 H 726.374 -5.79172 -3.50555 0
M  V30 8051 H 731.016 -2.9235 -3.05436 0
M  V30 8052 H 728.734 -7.36781 -3.31934 0
M  V30 8053 H 732.32 -5.02191 -2.93761 0
M  V30 8054 H 731.2 -7.21596 -3.07032 0
M  V30 8055 N 728.703 1.26451 -0.940633 0
M  V30 8056 C 729.633 2.28773 -0.467479 0
M  V30 8057 C 730.614 1.63218 0.478955 0
M  V30 8058 O 731.799 1.90427 0.380929 0
M  V30 8059 C 728.929 3.46259 0.268656 0
M  V30 8060 C 727.883 4.23898 -0.591171 0
M  V30 8061 C 727.209 5.33993 0.274891 0
M  V30 8062 C 728.509 4.87974 -1.86223 0
M  V30 8063 H 730.203 2.68601 -1.32265 0
M  V30 8064 H 727.749 1.29123 -0.637436 0
M  V30 8065 H 729.702 4.16951 0.610696 0
M  V30 8066 H 728.426 3.05383 1.15796 0
M  V30 8067 H 727.085 3.54969 -0.916098 0
M  V30 8068 H 726.733 4.89358 1.16353 0
M  V30 8069 H 726.433 5.86849 -0.297006 0
M  V30 8070 H 727.957 6.07523 0.612213 0
M  V30 8071 H 729.371 5.50883 -1.58747 0
M  V30 8072 H 727.768 5.50945 -2.37866 0
M  V30 8073 H 728.838 4.10945 -2.57394 0
M  V30 8074 N 730.181 0.707592 1.40822 0
M  V30 8075 C 731.406 0.251626 2.05868 0
M  V30 8076 C 731.831 -1.09503 1.5294 0
M  V30 8077 O 731.189 -1.68806 0.661385 0
M  V30 8078 C 731.237 0.23287 3.59847 0
M  V30 8079 O 730.341 -0.788477 4.04792 0
M  V30 8080 H 729.682 0.119936 0.653078 0
M  V30 8081 H 732.212 0.96583 1.80369 0
M  V30 8082 H 732.222 0.0678204 4.07944 0
M  V30 8083 H 730.897 1.21565 3.97737 0
M  V30 8084 H 729.474 -0.591802 3.68174 0
M  V30 8085 N 731.66 -1.50943 0.453197 0
M  V30 8086 C 732.57 -2.31884 -0.355963 0
M  V30 8087 C 733.586 -1.41481 -1.01287 0
M  V30 8088 O 734.762 -1.74546 -1.00477 0
M  V30 8089 C 731.827 -3.15668 -1.43369 0
M  V30 8090 C 730.888 -4.2187 -0.795253 0
M  V30 8091 C 730.121 -5.0165 -1.82162 0
M  V30 8092 O 730.344 -4.82266 -3.04592 0
M  V30 8093 O 729.278 -5.85311 -1.40336 0
M  V30 8094 H 733.104 -3.02162 0.305248 0
M  V30 8095 H 730.689 -1.47839 0.215398 0
M  V30 8096 H 732.571 -3.67709 -2.05836 0
M  V30 8097 H 731.246 -2.48137 -2.07869 0
M  V30 8098 H 730.153 -3.73867 -0.132106 0
M  V30 8099 H 731.486 -4.9182 -0.193484 0
M  V30 8100 N 733.138 -0.185124 -1.56509 0
M  V30 8101 C 734.086 0.756505 -2.19954 0
M  V30 8102 C 735.08 1.22725 -1.16769 0
M  V30 8103 O 736.286 1.1913 -1.34937 0
M  V30 8104 H 732.661 0.262279 -0.704779 0
M  V30 8105 H 734.632 0.197587 -2.97745 0
M  V30 8106 C 733.381 1.96975 -2.86524 0
M  V30 8107 H 732.704 1.61658 -3.65659 0
M  V30 8108 H 734.144 2.60719 -3.34367 0
M  V30 8109 C 732.603 2.80219 -1.87027 0
M  V30 8110 O 733.133 3.77821 -1.36433 0
M  V30 8111 N 731.339 2.4551 -1.55477 0
M  V30 8112 H 730.886 1.66199 -1.96813 0
M  V30 8113 H 730.844 3.01493 -0.891597 0
M  V30 8114 N 734.616 1.57351 0.0885366 0
M  V30 8115 C 736.032 1.53331 0.442916 0
M  V30 8116 C 736.232 0.902831 1.80142 0
M  V30 8117 O 735.288 0.498147 2.47537 0
M  V30 8118 C 736.601 2.98036 0.399372 0
M  V30 8119 C 738.149 3.09286 0.480759 0
M  V30 8120 C 738.624 4.5561 0.467296 0
M  V30 8121 N 740.115 4.60182 0.52786 0
M  V30 8122 C 740.85 5.70857 0.539388 0
M  V30 8123 N 740.346 6.90944 0.506729 0
M  V30 8124 N 742.139 5.59051 0.584691 0
M  V30 8125 H 734.29 1.96709 -0.801215 0
M  V30 8126 H 736.553 0.899639 -0.298922 0
M  V30 8127 H 736.259 3.47656 -0.531806 0
M  V30 8128 H 736.133 3.57066 1.21589 0
M  V30 8129 H 738.52 2.5965 1.40236 0
M  V30 8130 H 738.601 2.53197 -0.364023 0
M  V30 8131 H 738.245 5.05899 -0.450384 0
M  V30 8132 H 738.175 5.09544 1.32938 0
M  V30 8133 H 740.666 3.73757 0.558028 0
M  V30 8134 H 740.979 7.71055 0.518989 0
M  V30 8135 H 739.324 6.93384 0.473675 0
M  V30 8136 H 742.515 4.64138 0.607781 0
M  V30 8137 H 742.688 6.45307 0.590206 0
M  V30 8138 N 736.094 -0.359525 1.53444 0
M  V30 8139 C 737.342 -1.09935 1.69584 0
M  V30 8140 C 737.663 -1.89656 0.453371 0
M  V30 8141 O 736.933 -1.8852 -0.53263 0
M  V30 8142 H 735.513 -0.408843 0.625185 0
M  V30 8143 H 738.175 -0.40467 1.90653 0
M  V30 8144 H 737.271 -1.78575 2.55964 0
M  V30 8145 N 737.572 -1.44907 -0.619662 0
M  V30 8146 C 738.82 -1.47999 -1.37625 0
M  V30 8147 C 739.141 -0.118295 -1.94641 0
M  V30 8148 O 738.411 0.85086 -1.76457 0
M  V30 8149 H 736.991 -0.544993 -0.510873 0
M  V30 8150 H 739.653 -1.80772 -0.728522 0
M  V30 8151 H 738.749 -2.21196 -2.20179 0
M  V30 8152 N 739.05 0.861098 -1.31996 0
M  V30 8153 C 740.461 1.43065 -1.19955 0
M  V30 8154 C 740.812 1.95273 0.190489 0
M  V30 8155 O 739.937 1.87012 1.08882 0
M  V30 8156 C 740.532 2.60052 -2.1716 0
M  V30 8157 C 739.091 3.13026 -2.09026 0
M  V30 8158 C 738.238 1.85756 -2.05888 0
M  V30 8159 H 741.189 0.668834 -1.43918 0
M  V30 8160 H 741.21 3.37016 -1.76637 0
M  V30 8161 H 740.722 2.22024 -3.18319 0
M  V30 8162 H 738.823 3.55653 -1.11092 0
M  V30 8163 H 738.936 3.74707 -2.98549 0
M  V30 8164 H 737.3 2.05088 -1.51033 0
M  V30 8165 H 738.083 1.49954 -3.08818 0
M  V30 8166 N 740.528 1.15101 1.07655 0
M  V30 8167 C 741.774 0.925343 1.80458 0
M  V30 8168 C 742.107 -0.546354 1.86356 0
M  V30 8169 O 741.382 -1.40496 1.34503 0
M  V30 8170 C 741.665 1.53646 3.25676 0
M  V30 8171 C 741.518 3.07854 3.27942 0
M  V30 8172 C 742.837 1.21968 4.22861 0
M  V30 8173 H 739.956 0.337592 0.655134 0
M  V30 8174 H 742.598 1.42217 1.25993 0
M  V30 8175 H 740.748 1.11395 3.72187 0
M  V30 8176 H 742.42 3.58989 2.89697 0
M  V30 8177 H 740.663 3.41904 2.66991 0
M  V30 8178 H 741.334 3.45725 4.30324 0
M  V30 8179 H 743.81 1.5851 3.84726 0
M  V30 8180 H 742.686 1.67349 5.22767 0
M  V30 8181 H 742.947 0.136207 4.4189 0
M  V30 8182 N 742.006 -1.2595 0.947325 0
M  V30 8183 C 743.417 -1.75389 0.639963 0
M  V30 8184 C 743.768 -1.77081 -0.844788 0
M  V30 8185 O 742.893 -1.3869 -1.66114 0
M  V30 8186 C 743.488 -3.18506 1.15496 0
M  V30 8187 C 742.047 -3.65534 0.897894 0
M  V30 8188 C 741.194 -2.44818 1.30228 0
M  V30 8189 H 744.145 -1.1194 1.12495 0
M  V30 8190 H 744.166 -3.77045 0.511627 0
M  V30 8191 H 743.678 -3.17243 2.23559 0
M  V30 8192 H 741.779 -3.72221 -0.168096 0
M  V30 8193 H 741.892 -4.54039 1.52922 0
M  V30 8194 H 740.256 -2.44291 0.720678 0
M  V30 8195 H 741.039 -2.46251 2.39198 0
M  V30 8196 N 743.484 -0.715051 -1.40445 0
M  V30 8197 C 744.709 -0.26254 -2.05732 0
M  V30 8198 C 745.134 1.08691 -1.53519 0
M  V30 8199 O 744.492 1.68453 -0.670328 0
M  V30 8200 C 744.54 -0.25195 -3.59719 0
M  V30 8201 O 743.644 0.766998 -4.05205 0
M  V30 8202 H 742.985 -0.123398 -0.652433 0
M  V30 8203 H 745.515 -0.975382 -1.79854 0
M  V30 8204 H 745.525 -0.0894537 -4.07902 0
M  V30 8205 H 744.2 -1.23672 -3.97087 0
M  V30 8206 H 742.777 0.572269 -3.68483 0
M  V30 8207 N 744.962 1.50701 -0.461195 0
M  V30 8208 C 745.872 2.32069 0.343661 0
M  V30 8209 C 746.888 1.42016 1.00535 0
M  V30 8210 O 748.064 1.75077 0.995498 0
M  V30 8211 C 745.129 3.16424 1.41692 0
M  V30 8212 C 744.19 4.22286 0.772869 0
M  V30 8213 C 743.423 5.02609 1.79499 0
M  V30 8214 O 743.646 4.83874 3.0203 0
M  V30 8215 O 742.58 5.86047 1.3723 0
M  V30 8216 H 746.406 3.01996 -0.321268 0
M  V30 8217 H 743.991 1.47723 -0.223235 0
M  V30 8218 H 745.873 3.68795 2.03883 0
M  V30 8219 H 744.548 2.49236 2.0655 0
M  V30 8220 H 743.455 3.73931 0.112277 0
M  V30 8221 H 744.788 4.91915 0.167399 0
M  V30 8222 N 746.441 0.193421 1.56409 0
M  V30 8223 C 747.388 -0.728124 2.19014 0
M  V30 8224 C 748.358 -1.21098 1.13686 0
M  V30 8225 O 749.543 -1.27517 1.4193 0
M  V30 8226 C 746.683 -1.94277 2.8522 0
M  V30 8227 C 745.796 -1.50143 4.05069 0
M  V30 8228 C 744.931 -2.67145 4.59137 0
M  V30 8229 C 743.97 -2.19609 5.71348 0
M  V30 8230 N 743.107 -3.29782 6.19829 0
M  V30 8231 H 747.947 -0.187499 2.9741 0
M  V30 8232 H 745.484 -0.0808064 1.46878 0
M  V30 8233 H 747.442 -2.65551 3.21774 0
M  V30 8234 H 746.072 -2.45673 2.09391 0
M  V30 8235 H 745.124 -0.684624 3.74189 0
M  V30 8236 H 746.436 -1.11266 4.86232 0
M  V30 8237 H 745.59 -3.46544 4.97988 0
M  V30 8238 H 744.329 -3.09295 3.77078 0
M  V30 8239 H 743.334 -1.38664 5.32027 0
M  V30 8240 H 744.559 -1.78492 6.55223 0
M  V30 8241 H 742.505 -3.71466 5.40693 0
M  V30 8242 H 742.422 -2.95069 6.96039 0
M  V30 8243 H 743.69 -4.094 6.63334 0
M  V30 8244 N 747.919 -1.57396 -0.0801906 0
M  V30 8245 C 749.165 -1.87113 -0.782083 0
M  V30 8246 C 749.498 -0.78458 -1.77646 0
M  V30 8247 O 748.773 0.205993 -1.93406 0
M  V30 8248 C 749.056 -3.27483 -1.49756 0
M  V30 8249 C 748.909 -4.46782 -0.520171 0
M  V30 8250 C 750.228 -3.65965 -2.44454 0
M  V30 8251 H 747.347 -0.680559 -0.282858 0
M  V30 8252 H 749.989 -1.89946 -0.0454139 0
M  V30 8253 H 748.139 -3.25199 -2.12551 0
M  V30 8254 H 749.811 -4.61187 0.101919 0
M  V30 8255 H 748.054 -4.33485 0.165219 0
M  V30 8256 H 748.725 -5.41761 -1.05824 0
M  V30 8257 H 751.201 -3.69289 -1.91742 0
M  V30 8258 H 750.077 -4.65086 -2.91524 0
M  V30 8259 H 750.338 -2.95446 -3.28883 0
M  V30 8260 N 749.397 0.351382 -1.53633 0
M  V30 8261 C 750.646 1.08988 -1.69719 0
M  V30 8262 C 750.959 1.90043 -0.462948 0
M  V30 8263 O 752.165 2.66769 -0.504613 0
M  V30 8264 C 750.621 1.98691 -3.00083 0
M  V30 8265 C 750.229 1.22881 -4.30818 0
M  V30 8266 C 751.973 2.72446 -3.25536 0
M  V30 8267 C 749.88 2.11568 -5.52262 0
M  V30 8268 H 748.81 0.410588 -0.632403 0
M  V30 8269 H 751.461 0.349886 -1.80133 0
M  V30 8270 H 749.843 2.76478 -2.83506 0
M  V30 8271 H 751.017 0.500582 -4.58073 0
M  V30 8272 H 749.332 0.60928 -4.11918 0
M  V30 8273 H 751.929 3.39055 -4.13456 0
M  V30 8274 H 752.272 3.38588 -2.42206 0
M  V30 8275 H 752.805 2.01735 -3.42852 0
M  V30 8276 H 749.544 1.4998 -6.38111 0
M  V30 8277 H 749.064 2.82201 -5.29266 0
M  V30 8278 H 750.743 2.70802 -5.87601 0
M  V30 8279 N 750.875 1.45233 0.611969 0
M  V30 8280 C 752.124 1.48296 1.36716 0
M  V30 8281 C 752.437 0.12706 1.95187 0
M  V30 8282 O 753.643 0.0353066 2.71477 0
M  V30 8283 C 752.099 2.61168 2.47627 0
M  V30 8284 C 751.707 4.03051 1.95587 0
M  V30 8285 C 753.451 2.73472 3.24674 0
M  V30 8286 C 751.358 5.07312 3.03954 0
M  V30 8287 H 750.288 0.5518 0.513841 0
M  V30 8288 H 752.939 1.7136 0.656359 0
M  V30 8289 H 751.321 2.31379 3.21372 0
M  V30 8290 H 752.495 4.42497 1.2858 0
M  V30 8291 H 750.81 3.95158 1.31298 0
M  V30 8292 H 753.407 3.48537 4.05494 0
M  V30 8293 H 753.75 1.79953 3.75397 0
M  V30 8294 H 754.283 3.02765 2.58028 0
M  V30 8295 H 751.022 6.02525 2.58154 0
M  V30 8296 H 750.542 4.7244 3.69541 0
M  V30 8297 H 752.221 5.31867 3.6841 0
M  V30 8298 N 752.353 -0.854086 1.3245 0
M  V30 8299 C 753.581 -1.64074 1.26045 0
M  V30 8300 C 753.996 -1.8802 -0.171456 0
M  V30 8301 O 753.353 -1.4496 -1.10873 0
M  V30 8302 C 753.404 -2.9997 2.01743 0
M  V30 8303 O 753.125 -2.77084 3.39346 0
M  V30 8304 C 754.626 -3.94414 2.02368 0
M  V30 8305 H 751.846 -0.511015 0.434862 0
M  V30 8306 H 754.39 -1.06494 1.74583 0
M  V30 8307 H 752.545 -3.54193 1.56926 0
M  V30 8308 H 752.959 -3.63514 3.78098 0
M  V30 8309 H 754.433 -4.87032 2.59815 0
M  V30 8310 H 754.91 -4.27427 1.01009 0
M  V30 8311 H 755.516 -3.46127 2.47135 0
M  V30 8312 N 753.831 -1.1567 -1.07043 0
M  V30 8313 C 754.794 -0.858906 -2.12498 0
M  V30 8314 C 755.794 0.142735 -1.60165 0
M  V30 8315 O 756.984 -0.0872678 -1.73981 0
M  V30 8316 C 754.116 -0.283021 -3.39723 0
M  V30 8317 H 755.309 -1.79368 -2.40348 0
M  V30 8318 H 752.862 -0.964608 -1.22984 0
M  V30 8319 H 753.597 0.659796 -3.17517 0
M  V30 8320 H 753.382 -1.00467 -3.7901 0
M  V30 8321 H 754.872 -0.0923543 -4.17498 0
M  V30 8322 N 755.309 1.25446 -0.953992 0
M  V30 8323 C 756.239 2.28264 -0.491717 0
M  V30 8324 C 757.22 1.63717 0.461617 0
M  V30 8325 O 758.405 1.90821 0.36071 0
M  V30 8326 C 755.535 3.46525 0.231915 0
M  V30 8327 C 754.489 4.23247 -0.636098 0
M  V30 8328 C 753.815 5.34254 0.218238 0
M  V30 8329 C 755.115 4.85971 -1.91389 0
M  V30 8330 H 756.809 2.67183 -1.35106 0
M  V30 8331 H 754.355 1.2844 -0.651095 0
M  V30 8332 H 756.308 4.17576 0.566439 0
M  V30 8333 H 755.032 3.06594 1.12551 0
M  V30 8334 H 753.691 3.53978 -0.953696 0
M  V30 8335 H 753.339 4.90564 1.11156 0
M  V30 8336 H 753.039 5.86501 -0.359232 0
M  V30 8337 H 754.563 6.08138 0.547743 0
M  V30 8338 H 755.977 5.49168 -1.64581 0
M  V30 8339 H 754.374 5.48391 -2.43696 0
M  V30 8340 H 755.444 4.08192 -2.61738 0
M  V30 8341 N 756.787 0.722489 1.40064 0
M  V30 8342 C 758.012 0.273446 2.05589 0
M  V30 8343 C 758.437 -1.07875 1.54093 0
M  V30 8344 O 757.795 -1.68095 0.679252 0
M  V30 8345 C 757.843 0.271023 3.5958 0
M  V30 8346 O 756.947 -0.745499 4.05606 0
M  V30 8347 H 756.288 0.126856 0.65177 0
M  V30 8348 H 758.818 0.984906 1.79334 0
M  V30 8349 H 758.828 0.111084 4.07849 0
M  V30 8350 H 757.503 1.25776 3.96425 0
M  V30 8351 H 756.08 -0.552719 3.68781 0
M  V30 8352 N 758.265 -1.50454 0.469181 0
M  V30 8353 C 759.212 -2.28486 -0.325982 0
M  V30 8354 C 760.182 -1.33455 -0.988893 0
M  V30 8355 O 761.367 -1.6239 -1.0017 0
M  V30 8356 C 758.507 -3.15288 -1.40313 0
M  V30 8357 C 757.62 -4.25348 -0.755183 0
M  V30 8358 C 756.755 -4.9941 -1.81006 0
M  V30 8359 C 755.794 -6.01348 -1.14226 0
M  V30 8360 N 754.931 -6.68695 -2.1399 0
M  V30 8361 H 759.771 -2.95987 0.345753 0
M  V30 8362 H 757.308 -1.45965 0.182355 0
M  V30 8363 H 759.266 -3.63964 -2.03927 0
M  V30 8364 H 757.896 -2.49837 -2.04405 0
M  V30 8365 H 756.948 -3.80399 -0.00651901 0
M  V30 8366 H 758.26 -4.98279 -0.227941 0
M  V30 8367 H 757.414 -5.51794 -2.52206 0
M  V30 8368 H 756.153 -4.26181 -2.3711 0
M  V30 8369 H 755.158 -5.48225 -0.415876 0
M  V30 8370 H 756.383 -6.76548 -0.588135 0
M  V30 8371 H 754.329 -5.98258 -2.69115 0
M  V30 8372 H 754.246 -7.37495 -1.66246 0
M  V30 8373 H 755.514 -7.25697 -2.84576 0
M  V30 8374 N 759.743 -0.201713 -1.56304 0
M  V30 8375 C 761.154 0.309711 -1.84113 0
M  V30 8376 C 761.505 1.60912 -1.12258 0
M  V30 8377 O 760.63 2.12937 -0.385587 0
M  V30 8378 C 761.225 0.568706 -3.33993 0
M  V30 8379 C 759.784 1.02448 -3.6219 0
M  V30 8380 C 758.931 0.0766842 -2.77194 0
M  V30 8381 H 761.882 -0.425356 -1.52893 0
M  V30 8382 H 761.903 1.41721 -3.53122 0
M  V30 8383 H 761.415 -0.37719 -3.86263 0
M  V30 8384 H 759.516 1.98443 -3.15359 0
M  V30 8385 H 759.629 0.912619 -4.70328 0
M  V30 8386 H 757.993 0.579809 -2.48013 0
M  V30 8387 H 758.776 -0.863774 -3.32256 0
M  V30 8388 N 761.222 1.57436 0.0718424 0
M  V30 8389 C 762.633 1.75975 0.623678 0
M  V30 8390 C 762.984 0.827155 1.77912 0
M  V30 8391 O 762.109 0.0112425 2.16397 0
M  V30 8392 C 762.704 3.1911 1.13816 0
M  V30 8393 C 761.263 3.38994 1.63586 0
M  V30 8394 C 760.41 2.71684 0.555261 0
M  V30 8395 H 763.361 1.57948 -0.154328 0
M  V30 8396 H 763.382 3.23267 2.00696 0
M  V30 8397 H 762.894 3.86962 0.296998 0
M  V30 8398 H 760.995 2.76256 2.50027 0
M  V30 8399 H 761.108 4.47436 1.71283 0
M  V30 8400 H 759.472 2.34236 1.00029 0
M  V30 8401 H 760.255 3.42191 -0.275712 0
M  V30 8402 N 762.7 -0.34323 1.53817 0
M  V30 8403 C 763.946 -1.08504 1.71332 0
M  V30 8404 C 764.279 -1.88294 0.475285 0
M  V30 8405 O 763.554 -1.87205 -0.527688 0
M  V30 8406 C 763.837 -2.02597 2.97702 0
M  V30 8407 C 763.69 -1.26268 4.31713 0
M  V30 8408 C 765.009 -3.0241 3.19744 0
M  V30 8409 H 762.128 -0.393072 0.623429 0
M  V30 8410 H 764.77 -0.363579 1.86489 0
M  V30 8411 H 762.92 -2.64118 2.8491 0
M  V30 8412 H 764.592 -0.673594 4.56356 0
M  V30 8413 H 762.835 -0.564696 4.30109 0
M  V30 8414 H 763.506 -1.95253 5.16314 0
M  V30 8415 H 765.982 -2.51004 3.31868 0
M  V30 8416 H 764.858 -3.65449 4.09558 0
M  V30 8417 H 765.119 -3.73806 2.36054 0
M  V30 8418 N 764.178 -1.45556 -0.604258 0
M  V30 8419 C 765.126 -1.5482 -1.7359 0
M  V30 8420 C 766.12 -0.417966 -1.64163 0
M  V30 8421 O 767.326 -0.594007 -1.69916 0
M  V30 8422 H 763.701 -0.486352 -0.573556 0
M  V30 8423 H 765.672 -2.5001 -1.62903 0
M  V30 8424 C 764.421 -1.53521 -3.11972 0
M  V30 8425 H 763.744 -2.39818 -3.19886 0
M  V30 8426 H 765.184 -1.64061 -3.90973 0
M  V30 8427 C 763.643 -0.260191 -3.35894 0
M  V30 8428 O 764.173 0.658582 -3.96265 0
M  V30 8429 N 762.379 -0.154839 -2.90187 0
M  V30 8430 H 761.926 -0.903378 -2.4124 0
M  V30 8431 H 761.884 0.697437 -3.06567 0
M  V30 8432 N 765.656 0.84705 -1.32902 0
M  V30 8433 C 767.067 1.41785 -1.21466 0
M  V30 8434 C 767.418 1.95464 0.169767 0
M  V30 8435 O 766.543 1.88157 1.06892 0
M  V30 8436 C 767.138 2.57734 -2.19906 0
M  V30 8437 C 765.697 3.10791 -2.12334 0
M  V30 8438 C 764.844 1.83562 -2.07847 0
M  V30 8439 H 767.795 0.653532 -1.44619 0
M  V30 8440 H 767.816 3.35123 -1.80202 0
M  V30 8441 H 767.328 2.18635 -3.20656 0
M  V30 8442 H 765.429 3.54455 -1.14858 0
M  V30 8443 H 765.542 3.71519 -3.02506 0
M  V30 8444 H 763.906 2.03475 -1.53199 0
M  V30 8445 H 764.689 1.4667 -3.10392 0
M  V30 8446 N 767.134 1.16236 1.06428 0
M  V30 8447 C 768.55 0.906983 1.31324 0
M  V30 8448 C 768.75 -0.440872 1.96618 0
M  V30 8449 O 767.806 -1.1807 2.23194 0
M  V30 8450 C 769.119 2.05501 2.19522 0
M  V30 8451 C 770.667 2.09061 2.32943 0
M  V30 8452 C 771.142 3.23214 3.24495 0
M  V30 8453 N 772.633 3.22922 3.32078 0
M  V30 8454 C 773.368 4.07889 4.03006 0
M  V30 8455 N 772.864 5.02941 4.76469 0
M  V30 8456 N 774.657 3.95881 3.99043 0
M  V30 8457 H 766.808 2.03015 0.624388 0
M  V30 8458 H 769.071 0.88576 0.337835 0
M  V30 8459 H 768.777 3.02847 1.78819 0
M  V30 8460 H 768.651 1.99538 3.201 0
M  V30 8461 H 771.038 1.12308 2.72893 0
M  V30 8462 H 771.119 2.19089 1.32037 0
M  V30 8463 H 770.763 4.20225 2.85261 0
M  V30 8464 H 770.693 3.10423 4.25377 0
M  V30 8465 H 773.184 2.54093 2.79724 0
M  V30 8466 H 773.497 5.64196 5.28112 0
M  V30 8467 H 771.842 5.06922 4.75453 0
M  V30 8468 H 775.033 3.20927 3.40769 0
M  V30 8469 H 775.206 4.62321 4.54052 0
M  V30 8470 N 768.612 -1.24939 0.960631 0
M  V30 8471 C 769.522 -2.29374 0.492435 0
M  V30 8472 C 770.538 -1.68262 -0.443154 0
M  V30 8473 O 771.714 -1.98875 -0.31793 0
M  V30 8474 C 768.779 -3.46023 -0.216626 0
M  V30 8475 C 767.84 -4.22557 0.757915 0
M  V30 8476 C 767.073 -5.33636 0.0825969 0
M  V30 8477 O 767.296 -5.59084 -1.13054 0
M  V30 8478 O 766.23 -5.96939 0.771177 0
M  V30 8479 H 770.056 -2.71525 1.36044 0
M  V30 8480 H 767.641 -1.30499 0.72735 0
M  V30 8481 H 769.523 -4.16885 -0.615241 0
M  V30 8482 H 768.198 -3.05862 -1.05971 0
M  V30 8483 H 767.105 -3.54099 1.20685 0
M  V30 8484 H 768.438 -4.66516 1.5692 0
M  V30 8485 N 770.09 -0.729906 -1.39679 0
M  V30 8486 C 771.337 -0.275622 -2.00615 0
M  V30 8487 C 771.665 1.13559 -1.57907 0
M  V30 8488 O 770.92 1.78745 -0.796789 0
M  V30 8489 C 771.219 -0.319564 -3.55968 0
M  V30 8490 C 770.885 -1.68308 -4.1831 0
M  V30 8491 C 769.547 -2.05629 -4.35052 0
M  V30 8492 C 771.899 -2.57857 -4.52945 0
M  V30 8493 C 769.227 -3.32018 -4.83716 0
M  V30 8494 C 771.579 -3.83613 -5.03015 0
M  V30 8495 C 770.243 -4.21033 -5.17965 0
M  V30 8496 H 769.513 -0.100857 -0.734104 0
M  V30 8497 H 772.16 -0.93575 -1.67081 0
M  V30 8498 H 770.465 0.42414 -3.89497 0
M  V30 8499 H 772.162 0.0499905 -4.00969 0
M  V30 8500 H 768.752 -1.3829 -4.05677 0
M  V30 8501 H 772.936 -2.30295 -4.39634 0
M  V30 8502 H 768.192 -3.6096 -4.93475 0
M  V30 8503 H 772.366 -4.53162 -5.28788 0
M  V30 8504 H 769.993 -5.19034 -5.55435 0
M  V30 8505 N 771.568 1.50203 -0.477153 0
M  V30 8506 C 772.498 2.31517 0.303646 0
M  V30 8507 C 773.479 1.38696 0.984753 0
M  V30 8508 O 774.664 1.67615 0.980758 0
M  V30 8509 C 771.794 3.18598 1.38249 0
M  V30 8510 C 770.748 4.2002 0.822645 0
M  V30 8511 C 770.074 4.95878 2.00024 0
M  V30 8512 C 771.374 5.22023 -0.170185 0
M  V30 8513 H 773.068 2.97042 -0.375027 0
M  V30 8514 H 770.614 1.42848 -0.181802 0
M  V30 8515 H 772.567 3.74282 1.93625 0
M  V30 8516 H 771.291 2.5097 2.09002 0
M  V30 8517 H 769.95 3.65445 0.290813 0
M  V30 8518 H 769.598 4.24717 2.69489 0
M  V30 8519 H 769.298 5.64487 1.63183 0
M  V30 8520 H 770.822 5.54399 2.55878 0
M  V30 8521 H 772.236 5.72543 0.294606 0
M  V30 8522 H 770.633 5.98386 -0.453181 0
M  V30 8523 H 771.703 4.72396 -1.09408 0
M  V30 8524 N 773.046 0.209999 1.56195 0
M  V30 8525 C 773.993 -0.704854 2.19774 0
M  V30 8526 C 774.963 -1.19886 1.14964 0
M  V30 8527 O 776.148 -1.26005 1.43274 0
M  V30 8528 C 773.288 -1.91241 2.87265 0
M  V30 8529 C 772.401 -1.45838 4.06639 0
M  V30 8530 C 771.536 -2.6226 4.61945 0
M  V30 8531 C 770.575 -2.13537 5.73645 0
M  V30 8532 N 769.712 -3.2319 6.23292 0
M  V30 8533 H 774.552 -0.155944 2.97592 0
M  V30 8534 H 772.089 -0.0652235 1.46955 0
M  V30 8535 H 774.047 -2.62123 3.24573 0
M  V30 8536 H 772.677 -2.43439 2.11985 0
M  V30 8537 H 771.729 -0.644897 3.74894 0
M  V30 8538 H 773.041 -1.06103 4.87384 0
M  V30 8539 H 772.195 -3.41243 5.01636 0
M  V30 8540 H 770.934 -3.05278 3.80338 0
M  V30 8541 H 769.939 -1.33013 5.33468 0
M  V30 8542 H 771.164 -1.71533 6.57079 0
M  V30 8543 H 769.11 -3.65711 5.44602 0
M  V30 8544 H 769.027 -2.8767 6.99129 0
M  V30 8545 H 770.295 -4.02342 6.67639 0
M  V30 8546 N 774.524 -1.57472 -0.0634922 0
M  V30 8547 C 775.749 -1.92273 -0.77756 0
M  V30 8548 C 776.174 -0.807141 -1.69902 0
M  V30 8549 O 775.532 0.239523 -1.79711 0
M  V30 8550 C 775.58 -3.26054 -1.54017 0
M  V30 8551 O 774.684 -3.15873 -2.65138 0
M  V30 8552 H 774.025 -0.629389 -0.211579 0
M  V30 8553 H 776.555 -2.04579 -0.0292523 0
M  V30 8554 H 776.565 -3.60127 -1.91763 0
M  V30 8555 H 775.24 -4.06824 -0.864128 0
M  V30 8556 H 773.817 -2.93373 -2.30189 0
M  V30 8557 N 776.003 0.335068 -1.53997 0
M  V30 8558 C 777.252 1.07182 -1.70865 0
M  V30 8559 C 777.565 1.89541 -0.483078 0
M  V30 8560 O 778.771 2.66219 -0.532879 0
M  V30 8561 C 777.227 1.95497 -3.02174 0
M  V30 8562 C 776.835 1.18304 -4.32097 0
M  V30 8563 C 778.579 2.68978 -3.28407 0
M  V30 8564 C 776.486 2.05699 -5.54474 0
M  V30 8565 H 775.416 0.403857 -0.636722 0
M  V30 8566 H 778.067 0.33076 -1.80494 0
M  V30 8567 H 776.449 2.73456 -2.86423 0
M  V30 8568 H 777.623 0.451969 -4.58578 0
M  V30 8569 H 775.938 0.565556 -4.12541 0
M  V30 8570 H 778.535 3.34651 -4.17029 0
M  V30 8571 H 778.878 3.36 -2.45784 0
M  V30 8572 H 779.411 1.98087 -3.44973 0
M  V30 8573 H 776.15 1.43204 -6.39666 0
M  V30 8574 H 775.67 2.76572 -5.32229 0
M  V30 8575 H 777.349 2.64554 -5.90441 0
M  V30 8576 N 777.481 1.45874 0.596531 0
M  V30 8577 C 778.758 1.40942 1.35627 0
M  V30 8578 C 779.138 0.0857066 2.10926 0
M  V30 8579 O 778.486 -0.932544 2.08605 0
M  V30 8580 C 778.696 2.63027 2.29386 0
M  V30 8581 C 780.044 3.08588 2.91649 0
M  V30 8582 O 781.068 2.63478 2.39704 0
M  V30 8583 O 779.927 3.86902 3.85965 0
M  V30 8584 H 777.021 0.559838 0.608696 0
M  V30 8585 H 779.567 1.5802 0.618698 0
M  V30 8586 H 778.339 3.5094 1.7308 0
M  V30 8587 H 777.962 2.48338 3.10506 0
M  V30 8588 N 778.959 -0.83999 1.33349 0
M  V30 8589 C 779.889 -1.965 1.26135 0
M  V30 8590 C 780.87 -1.69505 0.142152 0
M  V30 8591 O 782.055 -1.91346 0.331743 0
M  V30 8592 C 779.185 -3.32632 0.99866 0
M  V30 8593 C 778.139 -3.74021 2.08068 0
M  V30 8594 C 777.465 -5.07947 1.67014 0
M  V30 8595 C 778.765 -3.87925 3.49731 0
M  V30 8596 H 780.459 -2.02793 2.20262 0
M  V30 8597 H 778.005 -0.974297 1.06035 0
M  V30 8598 H 779.958 -4.10903 0.934696 0
M  V30 8599 H 778.682 -3.26593 0.0217759 0
M  V30 8600 H 777.341 -2.98012 2.13505 0
M  V30 8601 H 776.989 -4.98378 0.680316 0
M  V30 8602 H 776.689 -5.36611 2.39422 0
M  V30 8603 H 778.213 -5.88695 1.62082 0
M  V30 8604 H 779.627 -4.5651 3.46802 0
M  V30 8605 H 778.024 -4.28023 4.20614 0
M  V30 8606 H 779.094 -2.90407 3.88319 0
M  V30 8607 N 780.437 -1.16799 -1.0581 0
M  V30 8608 C 781.685 -0.950642 -1.78346 0
M  V30 8609 C 782.006 0.522524 -1.87869 0
M  V30 8610 O 781.276 1.3795 -1.39092 0
M  V30 8611 H 779.856 -0.348736 -0.6606 0
M  V30 8612 H 782.518 -1.47158 -1.27791 0
M  V30 8613 H 781.614 -1.37359 -2.80248 0
M  V30 8614 N 781.915 1.24427 -0.967243 0
M  V30 8615 C 783.163 1.92107 -0.627638 0
M  V30 8616 C 783.484 1.75991 0.83978 0
M  V30 8617 O 782.754 1.13118 1.59941 0
M  V30 8618 H 781.334 0.710986 -0.229145 0
M  V30 8619 H 783.996 1.51331 -1.22821 0
M  V30 8620 H 783.092 2.99791 -0.867844 0
M  V30 8621 N 783.393 0.737304 1.3929 0
M  V30 8622 C 784.323 0.113988 2.33222 0
M  V30 8623 C 785.304 -0.721695 1.54031 0
M  V30 8624 O 786.489 -0.666206 1.82415 0
M  V30 8625 C 783.619 -0.792319 3.38141 0
M  V30 8626 C 782.573 -0.0606178 4.27957 0
M  V30 8627 C 781.899 -1.08409 5.23595 0
M  V30 8628 C 783.199 1.09817 5.10625 0
M  V30 8629 H 784.893 0.898611 2.85596 0
M  V30 8630 H 782.439 0.433571 1.37318 0
M  V30 8631 H 784.392 -1.23793 4.02807 0
M  V30 8632 H 783.116 -1.60908 2.84211 0
M  V30 8633 H 781.775 0.365393 3.64775 0
M  V30 8634 H 781.423 -1.89449 4.6596 0
M  V30 8635 H 781.123 -0.599269 5.84536 0
M  V30 8636 H 782.647 -1.52936 5.91137 0
M  V30 8637 H 784.061 0.730892 5.68622 0
M  V30 8638 H 782.458 1.51278 5.80719 0
M  V30 8639 H 783.528 1.91878 4.45321 0
M  V30 8640 N 784.871 -1.49948 0.485112 0
M  V30 8641 C 786.282 -1.8667 0.0334041 0
M  V30 8642 C 786.633 -1.3988 -1.37579 0
M  V30 8643 O 785.758 -0.769788 -2.02245 0
M  V30 8644 C 786.353 -3.38757 0.0538426 0
M  V30 8645 C 784.912 -3.74839 -0.342453 0
M  V30 8646 C 784.059 -2.73894 0.433281 0
M  V30 8647 H 787.01 -1.42492 0.698699 0
M  V30 8648 H 787.031 -3.73132 -0.745146 0
M  V30 8649 H 786.543 -3.72782 1.07959 0
M  V30 8650 H 784.644 -3.46419 -1.37203 0
M  V30 8651 H 784.757 -4.79088 -0.0340503 0
M  V30 8652 H 783.121 -2.54441 -0.114849 0
M  V30 8653 H 783.904 -3.10763 1.45881 0
M  V30 8654 N 786.349 -0.21828 -1.56081 0
M  V30 8655 C 787.626 0.463143 -1.90038 0
M  V30 8656 C 788.006 1.77982 -1.13515 0
M  V30 8657 O 787.354 2.27199 -0.24345 0
M  V30 8658 C 787.564 0.659292 -3.42716 0
M  V30 8659 C 788.912 0.968203 -4.13414 0
M  V30 8660 O 789.936 0.746195 -3.48296 0
M  V30 8661 O 788.795 1.38936 -5.28544 0
M  V30 8662 H 785.889 0.244435 -0.790051 0
M  V30 8663 H 788.435 -0.260221 -1.67693 0
M  V30 8664 H 787.207 -0.269584 -3.9037 0
M  V30 8665 H 786.83 1.43426 -3.7083 0
M  V30 8666 N 787.827 1.57504 0.0551401 0
M  V30 8667 C 788.737 2.08198 1.08124 0
M  V30 8668 C 789.753 1.01496 1.41331 0
M  V30 8669 O 790.929 1.33073 1.51174 0
M  V30 8670 C 787.994 2.52968 2.37083 0
M  V30 8671 C 787.055 3.7404 2.10696 0
M  V30 8672 C 786.288 4.16665 3.33505 0
M  V30 8673 O 786.511 3.59019 4.4324 0
M  V30 8674 O 785.445 5.09324 3.20737 0
M  V30 8675 H 789.271 2.95977 0.680518 0
M  V30 8676 H 786.856 1.46933 0.270401 0
M  V30 8677 H 788.738 2.82211 3.12946 0
M  V30 8678 H 787.413 1.6831 2.76502 0
M  V30 8679 H 786.32 3.49855 1.32484 0
M  V30 8680 H 787.653 4.59601 1.76148 0
M  V30 8681 N 789.305 -0.326896 1.54172 0
M  V30 8682 C 790.582 -1.08326 1.62864 0
M  V30 8683 C 790.962 -2.06018 0.46039 0
M  V30 8684 O 790.31 -2.21889 -0.545685 0
M  V30 8685 C 790.52 -1.78816 2.9971 0
M  V30 8686 C 791.868 -2.31958 3.55641 0
M  V30 8687 O 792.892 -1.88888 3.01993 0
M  V30 8688 O 791.751 -3.10801 4.49517 0
M  V30 8689 H 788.845 -0.499131 0.659392 0
M  V30 8690 H 791.391 -0.327054 1.66519 0
M  V30 8691 H 790.163 -1.07739 3.76176 0
M  V30 8692 H 789.786 -2.61255 2.99719 0
M  V30 8693 N 790.784 -1.46188 -0.588786 0
M  V30 8694 C 791.714 -1.59148 -1.70863 0
M  V30 8695 C 792.695 -0.442083 -1.64255 0
M  V30 8696 O 793.88 -0.667575 -1.82365 0
M  V30 8697 C 791.01 -1.5757 -3.09498 0
M  V30 8698 C 789.964 -2.71418 -3.30932 0
M  V30 8699 C 789.29 -2.549 -4.70032 0
M  V30 8700 C 790.59 -4.1329 -3.19356 0
M  V30 8701 H 792.284 -2.52889 -1.60274 0
M  V30 8702 H 789.83 -1.21707 -0.769638 0
M  V30 8703 H 791.783 -1.65231 -3.87655 0
M  V30 8704 H 790.507 -0.603705 -3.20972 0
M  V30 8705 H 789.166 -2.63216 -2.55172 0
M  V30 8706 H 788.814 -1.55797 -4.78264 0
M  V30 8707 H 788.514 -3.31257 -4.85327 0
M  V30 8708 H 790.038 -2.64443 -5.50366 0
M  V30 8709 H 791.452 -4.22636 -3.87365 0
M  V30 8710 H 789.849 -4.90187 -3.46175 0
M  V30 8711 H 790.919 -4.33874 -2.16522 0
M  V30 8712 N 792.262 0.832906 -1.33792 0
M  V30 8713 C 793.511 1.58351 -1.24932 0
M  V30 8714 C 793.824 1.94754 0.181703 0
M  V30 8715 O 795.03 2.6865 0.392375 0
M  V30 8716 C 793.486 2.85643 -2.18943 0
M  V30 8717 C 793.094 2.56581 -3.67247 0
M  V30 8718 C 794.838 3.63667 -2.18968 0
M  V30 8719 C 792.745 3.80006 -4.53155 0
M  V30 8720 H 791.675 0.594278 -0.464058 0
M  V30 8721 H 794.326 0.91786 -1.58895 0
M  V30 8722 H 792.708 3.53781 -1.77919 0
M  V30 8723 H 793.882 1.96617 -4.16747 0
M  V30 8724 H 792.197 1.91851 -3.6957 0
M  V30 8725 H 794.794 4.55293 -2.80379 0
M  V30 8726 H 795.137 3.99039 -1.18631 0
M  V30 8727 H 795.67 3.0246 -2.58384 0
M  V30 8728 H 792.409 3.4976 -5.5439 0
M  V30 8729 H 791.929 4.39288 -4.08395 0
M  V30 8730 H 793.608 4.47523 -4.6726 0
M  V30 8731 N 793.74 1.17359 1.05189 0
M  V30 8732 C 794.989 0.956412 1.77583 0
M  V30 8733 C 795.302 -0.516018 1.88671 0
M  V30 8734 O 796.508 -0.851401 2.57805 0
M  V30 8735 C 794.964 1.66203 3.19225 0
M  V30 8736 C 794.572 3.17299 3.16267 0
M  V30 8737 C 796.316 1.52725 3.96075 0
M  V30 8738 C 794.223 3.8055 4.52698 0
M  V30 8739 H 793.153 0.354204 0.665624 0
M  V30 8740 H 795.804 1.40612 1.17901 0
M  V30 8741 H 794.186 1.14006 3.79234 0
M  V30 8742 H 795.36 3.76431 2.65776 0
M  V30 8743 H 793.675 3.3079 2.52917 0
M  V30 8744 H 796.272 1.97351 4.96947 0
M  V30 8745 H 796.615 0.477803 4.13549 0
M  V30 8746 H 797.148 2.02139 3.42614 0
M  V30 8747 H 793.887 4.85492 4.4043 0
M  V30 8748 H 793.407 3.26206 5.03339 0
M  V30 8749 H 795.086 3.82757 5.21638 0
M  V30 8750 N 795.218 -1.23913 0.973828 0
M  V30 8751 C 796.466 -1.91771 0.637817 0
M  V30 8752 C 796.787 -1.76434 -0.830435 0
M  V30 8753 O 796.057 -1.13965 -1.59339 0
M  V30 8754 H 794.637 -0.709761 0.232912 0
M  V30 8755 H 797.299 -1.50677 1.23622 0
M  V30 8756 H 796.395 -2.99327 0.883731 0
M  V30 8757 N 796.696 -0.74468 -1.38897 0
M  V30 8758 C 797.626 -0.126355 -2.33158 0
M  V30 8759 C 798.607 0.713517 -1.54412 0
M  V30 8760 O 799.792 0.656523 -1.82766 0
M  V30 8761 C 796.922 0.774375 -3.38557 0
M  V30 8762 C 795.876 0.0379214 -4.27983 0
M  V30 8763 C 795.202 1.05631 -5.24162 0
M  V30 8764 C 796.502 -1.12523 -5.10035 0
M  V30 8765 H 798.196 -0.913744 -2.85116 0
M  V30 8766 H 795.742 -0.440847 -1.37086 0
M  V30 8767 H 797.695 1.21655 -4.03458 0
M  V30 8768 H 796.419 1.59399 -2.85061 0
M  V30 8769 H 795.078 -0.384733 -3.64576 0
M  V30 8770 H 794.726 1.86975 -4.66958 0
M  V30 8771 H 794.426 0.568261 -5.84846 0
M  V30 8772 H 795.95 1.49799 -5.9194 0
M  V30 8773 H 797.364 -0.761037 -5.68226 0
M  V30 8774 H 795.761 -1.54355 -5.79909 0
M  V30 8775 H 796.831 -1.94237 -4.44297 0
M  V30 8776 N 798.174 1.49689 -0.493057 0
M  V30 8777 C 799.121 2.28976 0.28959 0
M  V30 8778 C 800.091 1.35011 0.967536 0
M  V30 8779 O 801.276 1.63964 0.975736 0
M  V30 8780 C 798.416 3.1748 1.35279 0
M  V30 8781 C 797.529 4.26496 0.687418 0
M  V30 8782 C 796.664 5.02226 1.73038 0
M  V30 8783 C 795.703 6.03089 1.04645 0
M  V30 8784 N 794.84 6.72014 2.03325 0
M  V30 8785 H 799.68 2.954 -0.392798 0
M  V30 8786 H 797.217 1.45657 -0.205554 0
M  V30 8787 H 799.175 3.67162 1.98111 0
M  V30 8788 H 797.805 2.53057 2.00405 0
M  V30 8789 H 796.857 3.80362 -0.0540001 0
M  V30 8790 H 798.169 4.98578 0.14864 0
M  V30 8791 H 797.323 5.55737 2.43395 0
M  V30 8792 H 796.062 4.29899 2.303 0
M  V30 8793 H 795.067 5.48817 0.328606 0
M  V30 8794 H 796.292 6.77398 0.480428 0
M  V30 8795 H 794.238 6.02464 2.59564 0
M  V30 8796 H 794.155 7.40046 1.54492 0
M  V30 8797 H 795.423 7.30133 2.72995 0
M  V30 8798 N 799.652 0.226554 1.55963 0
M  V30 8799 C 801.063 -0.280381 1.84583 0
M  V30 8800 C 801.414 -1.59105 1.14804 0
M  V30 8801 O 800.539 -2.12297 0.419414 0
M  V30 8802 C 801.134 -0.515499 3.34855 0
M  V30 8803 C 799.693 -0.966733 3.63774 0
M  V30 8804 C 798.84 -0.0325753 2.77281 0
M  V30 8805 H 801.791 0.449626 1.52197 0
M  V30 8806 H 801.812 -1.36085 3.55332 0
M  V30 8807 H 801.324 0.438594 3.85614 0
M  V30 8808 H 799.425 -1.93401 3.18476 0
M  V30 8809 H 799.538 -0.837679 4.7172 0
M  V30 8810 H 797.902 -0.540279 2.48904 0
M  V30 8811 H 798.685 0.916524 3.30839 0
M  V30 8812 N 801.13 -1.57531 -0.0467866 0
M  V30 8813 C 802.077 -2.05387 -1.05285 0
M  V30 8814 C 803.047 -0.939385 -1.36985 0
M  V30 8815 O 804.232 -1.20877 -1.47626 0
M  V30 8816 C 801.372 -2.52343 -2.35408 0
M  V30 8817 C 800.485 -3.77512 -2.10022 0
M  V30 8818 C 799.62 -4.1315 -3.33887 0
M  V30 8819 C 798.659 -5.31286 -3.03976 0
M  V30 8820 N 797.796 -5.62441 -4.20243 0
M  V30 8821 H 802.636 -2.91095 -0.637788 0
M  V30 8822 H 800.173 -1.43939 -0.303322 0
M  V30 8823 H 802.131 -2.77628 -3.11413 0
M  V30 8824 H 800.761 -1.69577 -2.7467 0
M  V30 8825 H 799.813 -3.59417 -1.24594 0
M  V30 8826 H 801.125 -4.63644 -1.83945 0
M  V30 8827 H 800.279 -4.39469 -4.18273 0
M  V30 8828 H 799.018 -3.25634 -3.63062 0
M  V30 8829 H 798.023 -5.04738 -2.17991 0
M  V30 8830 H 799.248 -6.20441 -2.76098 0
M  V30 8831 H 797.194 -4.77885 -4.49402 0
M  V30 8832 H 797.111 -6.43046 -3.97528 0
M  V30 8833 H 798.379 -5.93327 -5.05553 0
M  V30 8834 N 802.608 0.318715 -1.54344 0
M  V30 8835 C 803.518 1.41535 -1.87097 0
M  V30 8836 C 804.534 1.56361 -0.763353 0
M  V30 8837 O 805.71 1.71365 -1.05811 0
M  V30 8838 C 802.775 2.76178 -2.09587 0
M  V30 8839 C 801.836 2.70486 -3.3337 0
M  V30 8840 C 801.069 3.98708 -3.54778 0
M  V30 8841 O 801.292 4.9721 -2.79532 0
M  V30 8842 O 800.226 4.01674 -4.48266 0
M  V30 8843 H 804.052 1.16764 -2.80357 0
M  V30 8844 H 801.637 0.51318 -1.4031 0
M  V30 8845 H 803.519 3.55873 -2.25682 0
M  V30 8846 H 802.194 3.00829 -1.19514 0
M  V30 8847 H 801.101 1.89325 -3.22656 0
M  V30 8848 H 802.434 2.50789 -4.23516 0
M  V30 8849 N 804.086 1.46499 0.581025 0
M  V30 8850 C 805.502 1.31491 0.904563 0
M  V30 8851 C 805.702 0.287598 1.99437 0
M  V30 8852 O 804.758 -0.309247 2.50599 0
M  V30 8853 C 806.071 2.70163 1.32032 0
M  V30 8854 C 807.619 2.78266 1.43308 0
M  V30 8855 C 808.094 4.17524 1.8825 0
M  V30 8856 N 809.585 4.19949 1.9544 0
M  V30 8857 C 810.32 5.24594 2.31493 0
M  V30 8858 N 809.816 6.39564 2.66326 0
M  V30 8859 N 811.609 5.11961 2.32062 0
M  V30 8860 H 803.76 2.11946 -0.138856 0
M  V30 8861 H 806.023 0.948 0.000548528 0
M  V30 8862 H 805.729 3.46655 0.593554 0
M  V30 8863 H 805.603 3.00379 2.2815 0
M  V30 8864 H 807.99 2.02061 2.15071 0
M  V30 8865 H 808.071 2.51732 0.45438 0
M  V30 8866 H 807.715 4.94225 1.17065 0
M  V30 8867 H 807.645 4.41466 2.87081 0
M  V30 8868 H 810.136 3.36996 1.71004 0
M  V30 8869 H 810.449 7.15187 2.92793 0
M  V30 8870 H 808.794 6.42923 2.6396 0
M  V30 8871 H 811.985 4.21177 2.04272 0
M  V30 8872 H 812.158 5.93626 2.5983 0
M  V30 8873 N 805.565 -0.825799 1.34232 0
M  V30 8874 C 806.475 -1.9684 1.27638 0
M  V30 8875 C 807.491 -1.73018 0.184569 0
M  V30 8876 O 808.667 -1.97172 0.410525 0
M  V30 8877 C 805.732 -3.31084 1.02879 0
M  V30 8878 C 804.793 -3.67933 2.21188 0
M  V30 8879 C 804.026 -4.95772 1.976 0
M  V30 8880 O 804.249 -5.62721 0.93281 0
M  V30 8881 O 803.183 -5.30431 2.84477 0
M  V30 8882 H 807.009 -2.05346 2.23756 0
M  V30 8883 H 804.594 -0.960772 1.1441 0
M  V30 8884 H 806.476 -4.11492 0.908406 0
M  V30 8885 H 805.151 -3.23552 0.0979821 0
M  V30 8886 H 804.058 -2.87981 2.38784 0
M  V30 8887 H 805.391 -3.80147 3.12648 0
M  V30 8888 N 807.043 -1.17915 -1.04565 0
M  V30 8889 C 807.973 -0.925033 -2.14395 0
M  V30 8890 C 808.954 0.135375 -1.6956 0
M  V30 8891 O 810.139 -0.0161774 -1.94193 0
M  V30 8892 C 807.269 -0.444469 -3.44444 0
M  V30 8893 C 806.223 -1.44478 -4.02877 0
M  V30 8894 C 805.549 -0.821933 -5.28345 0
M  V30 8895 C 806.849 -2.81995 -4.39632 0
M  V30 8896 H 808.543 -1.84354 -2.35911 0
M  V30 8897 H 806.089 -0.887806 -1.13375 0
M  V30 8898 H 808.042 -0.254078 -4.20633 0
M  V30 8899 H 806.766 0.509592 -3.226 0
M  V30 8900 H 805.425 -1.62203 -3.28764 0
M  V30 8901 H 805.073 0.139161 -5.02807 0
M  V30 8902 H 804.773 -1.48976 -5.68401 0
M  V30 8903 H 806.297 -0.641959 -6.07216 0
M  V30 8904 H 807.711 -2.67952 -5.06828 0
M  V30 8905 H 806.108 -3.45414 -4.90723 0
M  V30 8906 H 807.178 -3.35927 -3.49687 0
M  V30 8907 N 808.521 1.23394 -0.980386 0
M  V30 8908 C 809.468 2.24859 -0.520298 0
M  V30 8909 C 810.438 1.60144 0.440821 0
M  V30 8910 O 811.623 1.87593 0.348369 0
M  V30 8911 C 808.763 3.44675 0.171145 0
M  V30 8912 C 807.876 4.23947 -0.830233 0
M  V30 8913 C 807.011 5.31079 -0.113597 0
M  V30 8914 C 806.05 6.02058 -1.10419 0
M  V30 8915 N 805.187 7.00862 -0.416709 0
M  V30 8916 H 810.027 2.63579 -1.39032 0
M  V30 8917 H 807.564 1.29556 -0.696682 0
M  V30 8918 H 809.522 4.13024 0.588838 0
M  V30 8919 H 808.152 3.06755 1.00504 0
M  V30 8920 H 807.204 3.55016 -1.36631 0
M  V30 8921 H 808.516 4.72945 -1.58508 0
M  V30 8922 H 807.67 6.05622 0.36146 0
M  V30 8923 H 806.409 4.83022 0.673854 0
M  V30 8924 H 805.414 5.26307 -1.59 0
M  V30 8925 H 806.639 6.52203 -1.8923 0
M  V30 8926 H 804.585 6.55057 0.351535 0
M  V30 8927 H 804.502 7.47804 -1.11021 0
M  V30 8928 H 805.77 7.79492 0.0359606 0
M  V30 8929 N 809.999 0.752036 1.385 0
M  V30 8930 C 811.248 0.304294 1.99391 0
M  V30 8931 C 811.561 -1.11982 1.60373 0
M  V30 8932 O 812.767 -1.66795 2.14223 0
M  V30 8933 C 811.223 0.493101 3.56506 0
M  V30 8934 C 810.831 1.9262 4.04477 0
M  V30 8935 C 812.575 0.107994 4.24363 0
M  V30 8936 C 810.482 2.06365 5.54227 0
M  V30 8937 H 809.412 0.110024 0.745929 0
M  V30 8938 H 812.063 0.928355 1.58284 0
M  V30 8939 H 810.445 -0.20012 3.95494 0
M  V30 8940 H 811.619 2.65276 3.76783 0
M  V30 8941 H 809.934 2.26608 3.49339 0
M  V30 8942 H 812.531 0.189474 5.34364 0
M  V30 8943 H 812.874 -0.939165 4.05568 0
M  V30 8944 H 813.407 0.753011 3.90608 0
M  V30 8945 H 810.146 3.0933 5.77923 0
M  V30 8946 H 809.666 1.38167 5.83669 0
M  V30 8947 H 811.345 1.85286 6.19902 0
M  V30 8948 N 811.477 -1.49425 0.500989 0
M  V30 8949 C 812.387 -2.32899 -0.282011 0
M  V30 8950 C 813.403 -1.44632 -0.967346 0
M  V30 8951 O 814.579 -1.77654 -0.94873 0
M  V30 8952 C 811.644 -3.20069 -1.33253 0
M  V30 8953 C 810.705 -4.24186 -0.660636 0
M  V30 8954 C 809.938 -5.07191 -1.6611 0
M  V30 8955 O 810.161 -4.91712 -2.89094 0
M  V30 8956 O 809.095 -5.8948 -1.21643 0
M  V30 8957 H 812.921 -3.01038 0.401224 0
M  V30 8958 H 810.506 -1.47079 0.262323 0
M  V30 8959 H 812.388 -3.74071 -1.94033 0
M  V30 8960 H 811.063 -2.54625 -1.9987 0
M  V30 8961 H 809.97 -3.74098 -0.0130959 0
M  V30 8962 H 811.303 -4.92186 -0.0369179 0
M  V30 8963 N 812.955 -0.234822 -1.55841 0
M  V30 8964 C 814.203 0.392483 -1.98252 0
M  V30 8965 C 814.524 1.59344 -1.12404 0
M  V30 8966 O 813.794 1.94834 -0.204055 0
M  V30 8967 H 812.374 0.147999 -0.732192 0
M  V30 8968 H 815.036 -0.330804 -1.92072 0
M  V30 8969 H 814.132 0.709829 -3.03921 0
M  V30 8970 N 814.433 1.57553 0.0384317 0
M  V30 8971 C 815.849 1.54663 0.39391 0
M  V30 8972 C 816.049 0.959685 1.77179 0
M  V30 8973 O 815.105 0.576647 2.45827 0
M  V30 8974 C 816.418 2.99156 0.304352 0
M  V30 8975 C 817.966 3.10659 0.382119 0
M  V30 8976 C 818.441 4.56866 0.322111 0
M  V30 8977 N 819.932 4.61629 0.38119 0
M  V30 8978 C 820.667 5.72284 0.357501 0
M  V30 8979 N 820.163 6.92207 0.286654 0
M  V30 8980 N 821.956 5.60628 0.406538 0
M  V30 8981 H 814.107 1.9406 -0.86339 0
M  V30 8982 H 816.37 0.889673 -0.327392 0
M  V30 8983 H 816.076 3.45788 -0.642141 0
M  V30 8984 H 815.95 3.60753 1.10168 0
M  V30 8985 H 818.337 2.6398 1.31904 0
M  V30 8986 H 818.418 2.5191 -0.444391 0
M  V30 8987 H 818.062 5.0421 -0.611104 0
M  V30 8988 H 817.992 5.13515 1.1666 0
M  V30 8989 H 820.483 3.75343 0.438838 0
M  V30 8990 H 820.796 7.72316 0.273421 0
M  V30 8991 H 819.141 6.9454 0.252841 0
M  V30 8992 H 822.332 4.65836 0.459812 0
M  V30 8993 H 822.505 6.46858 0.384608 0
M  V30 8994 N 815.911 -0.310526 1.54511 0
M  V30 8995 C 817.158 -1.04691 1.73338 0
M  V30 8996 C 817.486 -1.87584 0.514038 0
M  V30 8997 O 816.741 -1.89096 -0.504119 0
M  V30 8998 C 817.04 -1.98942 2.96912 0
M  V30 8999 C 816.706 -1.321 4.31115 0
M  V30 9000 C 815.368 -1.13603 4.67598 0
M  V30 9001 C 817.72 -0.842362 5.14348 0
M  V30 9002 C 815.048 -0.459102 5.84901 0
M  V30 9003 C 817.4 -0.179202 6.32346 0
M  V30 9004 C 816.064 0.0178111 6.67498 0
M  V30 9005 H 815.334 -0.38309 0.634289 0
M  V30 9006 H 817.981 -0.322723 1.88761 0
M  V30 9007 H 816.286 -2.77856 2.76231 0
M  V30 9008 H 817.983 -2.55972 3.08674 0
M  V30 9009 H 814.573 -1.47502 4.02419 0
M  V30 9010 H 818.757 -0.973013 4.86668 0
M  V30 9011 H 814.013 -0.295385 6.10686 0
M  V30 9012 H 818.187 0.199619 6.96114 0
M  V30 9013 H 815.814 0.544356 7.58249 0
M  V30 9014 N 817.389 -1.46805 -0.573248 0
M  V30 9015 C 818.636 -1.52604 -1.3311 0
M  V30 9016 C 818.964 -0.181633 -1.9365 0
M  V30 9017 O 818.219 0.823775 -1.77517 0
M  V30 9018 C 818.518 -2.58001 -2.47326 0
M  V30 9019 C 818.184 -4.01747 -2.04719 0
M  V30 9020 C 816.846 -4.40881 -1.92814 0
M  V30 9021 C 819.198 -4.92008 -1.71982 0
M  V30 9022 C 816.526 -5.68129 -1.46445 0
M  V30 9023 C 818.878 -6.19703 -1.27089 0
M  V30 9024 C 817.542 -6.57733 -1.13768 0
M  V30 9025 H 816.812 -0.558417 -0.487084 0
M  V30 9026 H 819.459 -1.80327 -0.644538 0
M  V30 9027 H 817.764 -2.23974 -3.2147 0
M  V30 9028 H 819.461 -2.59715 -3.05531 0
M  V30 9029 H 816.051 -3.70819 -2.14922 0
M  V30 9030 H 820.235 -4.62485 -1.8006 0
M  V30 9031 H 815.491 -5.96359 -1.34783 0
M  V30 9032 H 819.665 -6.89064 -1.00814 0
M  V30 9033 H 817.292 -7.56228 -0.776142 0
M  V30 9034 N 818.867 0.818669 -1.34668 0
M  V30 9035 C 819.83 1.9114 -1.26483 0
M  V30 9036 C 820.83 1.598 -0.179044 0
M  V30 9037 O 822.02 1.6876 -0.431952 0
M  V30 9038 C 819.152 3.27285 -0.95381 0
M  V30 9039 H 820.345 1.9982 -2.23634 0
M  V30 9040 H 817.898 1.01314 -1.19018 0
M  V30 9041 H 818.633 3.24297 0.0143428 0
M  V30 9042 H 818.418 3.51416 -1.73924 0
M  V30 9043 H 819.908 4.07299 -0.921827 0
M  V30 9044 N 820.346 1.18468 1.03938 0
M  V30 9045 C 821.276 0.936389 2.13902 0
M  V30 9046 C 822.257 -0.126381 1.6963 0
M  V30 9047 O 823.442 0.0264757 1.94182 0
M  V30 9048 C 820.572 0.462729 3.44204 0
M  V30 9049 C 819.526 1.46613 4.02105 0
M  V30 9050 C 818.852 0.84994 5.27902 0
M  V30 9051 C 820.152 2.84323 4.3813 0
M  V30 9052 H 821.846 1.85602 2.3493 0
M  V30 9053 H 819.392 0.893806 1.12903 0
M  V30 9054 H 821.345 0.276382 4.20493 0
M  V30 9055 H 820.069 -0.492477 3.22866 0
M  V30 9056 H 818.728 1.63944 3.27899 0
M  V30 9057 H 818.376 -0.112493 5.02874 0
M  V30 9058 H 818.076 1.51988 5.67603 0
M  V30 9059 H 819.6 0.674152 6.06867 0
M  V30 9060 H 821.014 2.70636 5.054 0
M  V30 9061 H 819.411 3.48012 4.88884 0
M  V30 9062 H 820.481 3.37776 3.47901 0
M  V30 9063 N 821.824 -1.22873 0.986916 0
M  V30 9064 C 822.757 -2.23154 0.477245 0
M  V30 9065 C 823.735 -1.55981 -0.459206 0
M  V30 9066 O 824.919 -1.84503 -0.386141 0
M  V30 9067 C 822.046 -3.37289 -0.308838 0
M  V30 9068 C 821.092 -4.22637 0.572717 0
M  V30 9069 S 821.925 -4.95758 2.02446 0
M  V30 9070 C 823.081 -6.13338 1.2477 0
M  V30 9071 H 823.314 -2.6604 1.32702 0
M  V30 9072 H 820.847 -1.32455 0.793415 0
M  V30 9073 H 822.805 -4.03472 -0.756351 0
M  V30 9074 H 821.466 -2.92922 -1.13381 0
M  V30 9075 H 820.659 -5.0399 -0.0318024 0
M  V30 9076 H 820.261 -3.61555 0.956746 0
M  V30 9077 H 822.553 -6.7556 0.51231 0
M  V30 9078 H 823.496 -6.78189 2.03629 0
M  V30 9079 H 823.904 -5.59311 0.763622 0
M  V30 9080 N 823.302 -0.75937 -1.38099 0
M  V30 9081 C 824.527 -0.327859 -2.04792 0
M  V30 9082 C 824.952 1.03752 -1.56899 0
M  V30 9083 O 824.31 1.66235 -0.723581 0
M  V30 9084 C 824.358 -0.366264 -3.58735 0
M  V30 9085 O 823.462 0.637697 -4.0744 0
M  V30 9086 H 822.803 -0.144092 -0.648177 0
M  V30 9087 H 825.333 -1.03211 -1.7666 0
M  V30 9088 H 825.343 -0.219179 -4.07411 0
M  V30 9089 H 824.018 -1.36243 -3.92951 0
M  V30 9090 H 822.595 0.454749 -3.70117 0
M  V30 9091 N 824.78 1.49157 -0.508906 0
M  V30 9092 C 826.026 2.03385 0.0248089 0
M  V30 9093 C 826.381 1.381 1.33964 0
M  V30 9094 O 825.674 0.510317 1.84679 0
M  V30 9095 C 825.868 3.56687 0.225717 0
M  V30 9096 C 825.697 4.36832 -1.06809 0
M  V30 9097 C 824.467 4.78556 -1.6221 0
M  V30 9098 C 826.665 4.74934 -1.97338 0
M  V30 9099 N 824.647 5.43158 -2.86098 0
M  V30 9100 C 826.018 5.39336 -3.05805 0
M  V30 9101 C 828.073 4.56872 -1.97921 0
M  V30 9102 C 826.776 5.87587 -4.1489 0
M  V30 9103 C 828.802 5.06089 -3.05987 0
M  V30 9104 C 828.164 5.70499 -4.13172 0
M  V30 9105 H 824.263 0.781349 -0.0318988 0
M  V30 9106 H 826.847 1.82233 -0.685518 0
M  V30 9107 H 825.018 3.77707 0.905108 0
M  V30 9108 H 826.75 3.97554 0.757147 0
M  V30 9109 H 823.505 4.59017 -1.16621 0
M  V30 9110 H 823.929 5.8004 -3.49116 0
M  V30 9111 H 828.571 4.06474 -1.16357 0
M  V30 9112 H 826.289 6.37002 -4.97247 0
M  V30 9113 H 829.875 4.93919 -3.07466 0
M  V30 9114 H 828.755 6.07893 -4.95415 0
M  V30 9115 N 826.258 0.243083 1.55714 0
M  V30 9116 C 827.206 -0.674349 2.2261 0
M  V30 9117 C 828.2 -1.18307 1.21243 0
M  V30 9118 O 829.406 -1.1404 1.39265 0
M  V30 9119 H 825.781 -0.235941 0.714028 0
M  V30 9120 H 827.752 -0.0869446 2.98273 0
M  V30 9121 C 826.501 -1.86206 2.93637 0
M  V30 9122 H 825.824 -1.47975 3.71407 0
M  V30 9123 H 827.264 -2.4813 3.43813 0
M  V30 9124 C 825.723 -2.73084 1.97298 0
M  V30 9125 O 826.253 -3.72497 1.50361 0
M  V30 9126 N 824.459 -2.39571 1.64482 0
M  V30 9127 H 824.006 -1.5878 2.02846 0
M  V30 9128 H 823.964 -2.97976 1.00288 0
M  V30 9129 N 827.736 -1.57571 -0.0300757 0
M  V30 9130 C 828.666 -2.0953 -1.03051 0
M  V30 9131 C 829.647 -0.99761 -1.37774 0
M  V30 9132 O 830.832 -1.27279 -1.46676 0
M  V30 9133 C 827.962 -2.57385 -2.33174 0
M  V30 9134 C 826.916 -3.71409 -2.12696 0
M  V30 9135 C 826.242 -4.05467 -3.4857 0
M  V30 9136 C 827.542 -4.99877 -1.51396 0
M  V30 9137 H 829.236 -2.93367 -0.597999 0
M  V30 9138 H 826.782 -1.41127 -0.286203 0
M  V30 9139 H 828.735 -2.92355 -3.03491 0
M  V30 9140 H 827.459 -1.70629 -2.78484 0
M  V30 9141 H 826.118 -3.36786 -1.44813 0
M  V30 9142 H 825.766 -3.15779 -3.91526 0
M  V30 9143 H 825.466 -4.82269 -3.35694 0
M  V30 9144 H 826.99 -4.4297 -4.2025 0
M  V30 9145 H 828.404 -5.3281 -2.11629 0
M  V30 9146 H 826.801 -5.81283 -1.49098 0
M  V30 9147 H 827.871 -4.82522 -0.479676 0
M  V30 9148 N 829.214 0.302327 -1.54673 0
M  V30 9149 C 830.63 0.647911 -1.45857 0
M  V30 9150 C 830.83 1.90773 -0.64869 0
M  V30 9151 O 829.886 2.52018 -0.155865 0
M  V30 9152 C 831.199 0.802144 -2.89804 0
M  V30 9153 C 832.747 0.898114 -2.99838 0
M  V30 9154 C 833.222 1.08436 -4.44978 0
M  V30 9155 N 834.713 1.15059 -4.48682 0
M  V30 9156 C 835.448 1.31296 -5.58166 0
M  V30 9157 N 834.944 1.4444 -6.77576 0
M  V30 9158 N 836.737 1.34174 -5.45851 0
M  V30 9159 H 828.888 -0.525428 -2.05798 0
M  V30 9160 H 831.151 -0.173423 -0.932002 0
M  V30 9161 H 830.857 -0.0526531 -3.51661 0
M  V30 9162 H 830.731 1.69155 -3.37145 0
M  V30 9163 H 833.118 1.7434 -2.38096 0
M  V30 9164 H 833.199 -0.0152752 -2.55795 0
M  V30 9165 H 832.843 0.243843 -5.07314 0
M  V30 9166 H 832.773 2.01195 -4.8665 0
M  V30 9167 H 835.264 1.0626 -3.62653 0
M  V30 9168 H 835.577 1.56582 -7.56771 0
M  V30 9169 H 833.922 1.41499 -6.80443 0
M  V30 9170 H 837.113 1.23516 -4.5151 0
M  V30 9171 H 837.286 1.46485 -6.31226 0
M  V30 9172 N 830.692 1.47107 0.565454 0
M  V30 9173 C 831.622 1.61846 1.68309 0
M  V30 9174 C 832.603 0.468159 1.63531 0
M  V30 9175 O 833.788 0.696504 1.8128 0
M  V30 9176 C 830.918 1.62474 3.06952 0
M  V30 9177 C 829.872 2.76649 3.26572 0
M  V30 9178 C 829.198 2.62345 4.65917 0
M  V30 9179 C 830.498 4.18319 3.12741 0
M  V30 9180 H 832.192 2.55407 1.5623 0
M  V30 9181 H 829.738 1.22916 0.750179 0
M  V30 9182 H 831.691 1.71378 3.84977 0
M  V30 9183 H 830.415 0.654692 3.19971 0
M  V30 9184 H 829.074 2.67242 2.50952 0
M  V30 9185 H 828.722 1.63386 4.75725 0
M  V30 9186 H 828.422 3.38936 4.79996 0
M  V30 9187 H 829.946 2.73165 5.46089 0
M  V30 9188 H 831.36 4.28745 3.80593 0
M  V30 9189 H 829.757 4.95632 3.38333 0
M  V30 9190 H 830.827 4.37263 2.09592 0
M  V30 9191 N 832.17 -0.811516 1.35101 0
M  V30 9192 C 833.4 -1.59749 1.31011 0
M  V30 9193 C 833.808 -1.88847 -0.115566 0
M  V30 9194 O 833.151 -1.48854 -1.07649 0
M  V30 9195 C 833.213 -2.95714 2.04435 0
M  V30 9196 C 832.877 -2.89456 3.53645 0
M  V30 9197 C 833.874 -2.63237 4.48333 0
M  V30 9198 C 831.559 -3.08728 3.96222 0
M  V30 9199 C 833.553 -2.56361 5.83573 0
M  V30 9200 C 831.24 -3.01475 5.3156 0
M  V30 9201 C 832.238 -2.75326 6.25048 0
M  V30 9202 O 831.926 -2.68026 7.57903 0
M  V30 9203 H 831.658 -0.502889 0.45175 0
M  V30 9204 H 834.212 -1.01687 1.78462 0
M  V30 9205 H 832.442 -3.55739 1.51613 0
M  V30 9206 H 834.131 -3.56816 1.93487 0
M  V30 9207 H 834.897 -2.48072 4.16756 0
M  V30 9208 H 830.776 -3.28094 3.23845 0
M  V30 9209 H 834.32 -2.35871 6.56514 0
M  V30 9210 H 830.217 -3.16197 5.62752 0
M  V30 9211 H 830.985 -2.8367 7.67772 0
M  V30 9212 N 833.648 -1.19017 -1.03309 0
M  V30 9213 C 834.895 -0.990214 -1.76638 0
M  V30 9214 C 835.223 0.479435 -1.88498 0
M  V30 9215 O 834.478 1.37223 -1.39529 0
M  V30 9216 C 834.777 -1.59927 -3.19622 0
M  V30 9217 C 834.443 -3.09632 -3.27779 0
M  V30 9218 C 833.105 -3.50491 -3.29712 0
M  V30 9219 C 835.457 -4.05644 -3.27264 0
M  V30 9220 C 832.785 -4.85921 -3.28782 0
M  V30 9221 C 835.137 -5.41 -3.27875 0
M  V30 9222 C 833.801 -5.81295 -3.28104 0
M  V30 9223 H 833.071 -0.362345 -0.646364 0
M  V30 9224 H 835.718 -1.48197 -1.21284 0
M  V30 9225 H 834.023 -1.0297 -3.78027 0
M  V30 9226 H 835.72 -1.41989 -3.7502 0
M  V30 9227 H 832.31 -2.77073 -3.26999 0
M  V30 9228 H 836.494 -3.75124 -3.24955 0
M  V30 9229 H 831.75 -5.16427 -3.27281 0
M  V30 9230 H 835.924 -6.15157 -3.26428 0
M  V30 9231 H 833.551 -6.86211 -3.27138 0
M  V30 9232 N 835.127 1.22348 -0.993418 0
M  V30 9233 C 836.373 1.91393 -0.67056 0
M  V30 9234 C 836.706 1.77163 0.795428 0
M  V30 9235 O 835.981 1.14084 1.57528 0
M  V30 9236 C 836.264 3.43589 -1.0779 0
M  V30 9237 C 836.117 3.66867 -2.60248 0
M  V30 9238 C 837.436 4.35545 -0.631527 0
M  V30 9239 H 834.555 0.695057 -0.24508 0
M  V30 9240 H 837.197 1.44213 -1.23703 0
M  V30 9241 H 835.347 3.83903 -0.595902 0
M  V30 9242 H 837.019 3.35954 -3.16121 0
M  V30 9243 H 835.262 3.1113 -3.02293 0
M  V30 9244 H 835.933 4.73457 -2.838 0
M  V30 9245 H 838.409 4.0275 -1.04554 0
M  V30 9246 H 837.285 5.40707 -0.944831 0
M  V30 9247 H 837.546 4.39618 0.467779 0
M  V30 9248 N 836.605 0.766683 1.37694 0
M  V30 9249 C 837.854 0.325425 1.99057 0
M  V30 9250 C 838.167 -1.10275 1.61551 0
M  V30 9251 O 839.373 -1.64513 2.1598 0
M  V30 9252 C 837.829 0.530886 3.55963 0
M  V30 9253 C 837.437 1.96899 4.02411 0
M  V30 9254 C 839.181 0.152997 4.24224 0
M  V30 9255 C 837.088 2.12232 5.52007 0
M  V30 9256 H 836.018 0.117929 0.744721 0
M  V30 9257 H 838.669 0.945091 1.5729 0
M  V30 9258 H 837.051 -0.158162 3.95684 0
M  V30 9259 H 838.225 2.69258 3.73948 0
M  V30 9260 H 836.54 2.303 3.46916 0
M  V30 9261 H 839.137 0.24614 5.34133 0
M  V30 9262 H 839.48 -0.896096 4.06541 0
M  V30 9263 H 840.013 0.794398 3.89787 0
M  V30 9264 H 836.752 3.15442 5.7461 0
M  V30 9265 H 836.272 1.4435 5.82171 0
M  V30 9266 H 837.951 1.9185 6.17902 0
M  V30 9267 N 838.083 -1.48885 0.516809 0
M  V30 9268 C 839.311 -2.06892 -0.0184017 0
M  V30 9269 C 839.726 -1.37511 -1.29368 0
M  V30 9270 O 839.083 -0.458409 -1.76649 0
M  V30 9271 C 839.134 -3.60566 -0.259673 0
M  V30 9272 O 838.855 -4.27338 0.965065 0
M  V30 9273 C 840.356 -4.35331 -0.836751 0
M  V30 9274 H 837.576 -0.670433 0.0275743 0
M  V30 9275 H 840.12 -1.91455 0.718689 0
M  V30 9276 H 838.275 -3.75653 -0.94678 0
M  V30 9277 H 838.689 -5.19287 0.737647 0
M  V30 9278 H 840.163 -5.43675 -0.955065 0
M  V30 9279 H 840.64 -3.9887 -1.83845 0
M  V30 9280 H 841.246 -4.2489 -0.186622 0
M  V30 9281 N 839.561 -0.251338 -1.55583 0
M  V30 9282 C 840.471 0.656978 -2.25213 0
M  V30 9283 C 841.487 1.18966 -1.26977 0
M  V30 9284 O 842.663 1.22499 -1.59862 0
M  V30 9285 C 839.728 1.83527 -2.94141 0
M  V30 9286 C 838.789 1.34162 -4.07798 0
M  V30 9287 C 838.022 2.46375 -4.73429 0
M  V30 9288 O 838.245 3.65205 -4.38157 0
M  V30 9289 O 837.179 2.15881 -5.61853 0
M  V30 9290 H 841.005 0.0936395 -3.03556 0
M  V30 9291 H 838.59 -0.0196638 -1.49387 0
M  V30 9292 H 840.472 2.52279 -3.3754 0
M  V30 9293 H 839.147 2.38614 -2.18735 0
M  V30 9294 H 838.054 0.621249 -3.68906 0
M  V30 9295 H 839.387 0.836779 -4.85035 0
M  V30 9296 N 841.039 1.57585 0.0217189 0
M  V30 9297 C 841.986 2.07036 1.02004 0
M  V30 9298 C 842.956 0.96106 1.35473 0
M  V30 9299 O 844.141 1.23211 1.45684 0
M  V30 9300 C 841.281 2.56056 2.31364 0
M  V30 9301 C 840.394 3.80805 2.03989 0
M  V30 9302 C 839.529 4.18409 3.27272 0
M  V30 9303 C 838.568 5.36055 2.95486 0
M  V30 9304 N 837.705 5.69056 4.11242 0
M  V30 9305 H 842.545 2.92073 0.591396 0
M  V30 9306 H 840.082 1.44403 0.280384 0
M  V30 9307 H 842.04 2.82548 3.06957 0
M  V30 9308 H 840.67 1.73925 2.71937 0
M  V30 9309 H 839.722 3.61354 1.1886 0
M  V30 9310 H 841.034 4.66512 1.76546 0
M  V30 9311 H 840.188 4.46068 4.11228 0
M  V30 9312 H 838.927 3.31369 3.57835 0
M  V30 9313 H 837.932 5.08142 2.09933 0
M  V30 9314 H 839.157 6.24755 2.66193 0
M  V30 9315 H 837.103 4.84974 4.41742 0
M  V30 9316 H 837.02 6.49288 3.87247 0
M  V30 9317 H 838.288 6.01295 4.96049 0
M  V30 9318 N 842.517 -0.29412 1.54831 0
M  V30 9319 C 843.447 -1.36757 1.89261 0
M  V30 9320 C 844.428 -1.52564 0.752214 0
M  V30 9321 O 845.613 -1.65958 1.00855 0
M  V30 9322 C 842.743 -2.73066 2.14597 0
M  V30 9323 C 841.697 -2.72017 3.3044 0
M  V30 9324 C 841.023 -4.11679 3.4121 0
M  V30 9325 C 842.323 -2.33149 4.67375 0
M  V30 9326 H 844.017 -1.08191 2.79169 0
M  V30 9327 H 841.563 -0.519014 1.34321 0
M  V30 9328 H 843.516 -3.48255 2.37269 0
M  V30 9329 H 842.24 -3.03172 1.21467 0
M  V30 9330 H 840.899 -1.99285 3.07703 0
M  V30 9331 H 840.547 -4.38973 2.45584 0
M  V30 9332 H 840.247 -4.11877 4.19084 0
M  V30 9333 H 841.771 -4.88637 3.6615 0
M  V30 9334 H 843.185 -2.98054 4.89731 0
M  V30 9335 H 841.582 -2.44546 5.48012 0
M  V30 9336 H 842.652 -1.28275 4.67626 0
M  V30 9337 N 843.995 -1.47404 -0.557645 0
M  V30 9338 C 844.925 -1.62736 -1.67449 0
M  V30 9339 C 845.906 -0.476824 -1.6328 0
M  V30 9340 O 847.091 -0.706108 -1.80908 0
M  V30 9341 C 844.221 -1.641 -3.06086 0
M  V30 9342 C 843.175 -2.78377 -3.25101 0
M  V30 9343 C 842.501 -2.64812 -4.6452 0
M  V30 9344 C 843.801 -4.19971 -3.10518 0
M  V30 9345 H 845.495 -2.56232 -1.54873 0
M  V30 9346 H 843.041 -1.23312 -0.743649 0
M  V30 9347 H 844.994 -1.73417 -3.84063 0
M  V30 9348 H 843.718 -0.671652 -3.19619 0
M  V30 9349 H 842.377 -2.6857 -2.49531 0
M  V30 9350 H 842.025 -1.65906 -4.74852 0
M  V30 9351 H 841.725 -3.41477 -4.78191 0
M  V30 9352 H 843.249 -2.76057 -5.44633 0
M  V30 9353 H 844.663 -4.30757 -3.78313 0
M  V30 9354 H 843.06 -4.97419 -3.35699 0
M  V30 9355 H 844.13 -4.38369 -2.0727 0
M  V30 9356 N 845.473 0.80434 -1.35529 0
M  V30 9357 C 846.436 1.89788 -1.28503 0
M  V30 9358 C 847.436 1.59601 -0.195983 0
M  V30 9359 O 848.626 1.68292 -0.449827 0
M  V30 9360 C 845.758 3.26255 -0.98847 0
M  V30 9361 H 846.951 1.97436 -2.25741 0
M  V30 9362 H 844.504 1.00046 -1.20086 0
M  V30 9363 H 845.239 3.24294 -0.0200541 0
M  V30 9364 H 845.024 3.49551 -1.77641 0
M  V30 9365 H 846.514 4.06298 -0.964975 0
M  V30 9366 N 846.951 1.19563 1.02676 0
M  V30 9367 C 847.899 0.931942 2.13114 0
M  V30 9368 C 848.893 -0.113007 1.69023 0
M  V30 9369 O 850.099 0.0364298 1.79963 0
M  V30 9370 H 846.474 0.283981 0.696318 0
M  V30 9371 H 848.445 1.86991 2.32545 0
M  V30 9372 C 847.194 0.489461 3.44238 0
M  V30 9373 H 846.517 1.28508 3.78584 0
M  V30 9374 H 847.957 0.34408 4.22602 0
M  V30 9375 C 846.416 -0.796761 3.27343 0
M  V30 9376 O 846.946 -1.85767 3.56165 0
M  V30 9377 N 845.152 -0.754824 2.80626 0
M  V30 9378 H 844.699 0.108778 2.5737 0
M  V30 9379 H 844.657 -1.6158 2.69702 0
M  V30 9380 N 848.429 -1.21819 0.999893 0
M  V30 9381 C 849.659 -1.94475 0.697346 0
M  V30 9382 C 850.067 -1.73991 -0.743228 0
M  V30 9383 O 849.41 -1.04042 -1.51397 0
M  V30 9384 C 849.472 -3.47204 0.932181 0
M  V30 9385 C 849.136 -3.91432 2.3586 0
M  V30 9386 C 850.133 -3.98545 3.33853 0
M  V30 9387 C 847.818 -4.23888 2.69489 0
M  V30 9388 C 849.812 -4.37499 4.63545 0
M  V30 9389 C 847.499 -4.62519 3.99399 0
M  V30 9390 C 848.497 -4.69294 4.96238 0
M  V30 9391 O 848.185 -5.07048 6.23825 0
M  V30 9392 H 847.917 -0.625419 0.256567 0
M  V30 9393 H 850.471 -1.55728 1.33933 0
M  V30 9394 H 848.701 -3.85997 0.233025 0
M  V30 9395 H 850.39 -4.01078 0.623807 0
M  V30 9396 H 851.156 -3.73654 3.09205 0
M  V30 9397 H 847.035 -4.17815 1.94812 0
M  V30 9398 H 850.579 -4.42702 5.3913 0
M  V30 9399 H 846.476 -4.86864 4.23833 0
M  V30 9400 H 847.244 -5.25098 6.27865 0
M  V30 9401 N 849.908 -0.773975 -1.37286 0
M  V30 9402 C 851.157 -0.335977 -1.98882 0
M  V30 9403 C 851.47 1.09416 -1.62134 0
M  V30 9404 O 852.676 1.63366 -2.1685 0
M  V30 9405 C 851.132 -0.549756 -3.55676 0
M  V30 9406 C 850.74 -1.9903 -4.01361 0
M  V30 9407 C 852.484 -0.175493 -4.24137 0
M  V30 9408 C 850.391 -2.15156 -5.50874 0
M  V30 9409 H 849.321 -0.121877 -0.744085 0
M  V30 9410 H 851.972 -0.953419 -1.56787 0
M  V30 9411 H 850.354 0.137175 -3.95762 0
M  V30 9412 H 851.528 -2.71237 -3.72515 0
M  V30 9413 H 849.843 -2.32137 -3.4569 0
M  V30 9414 H 852.44 -0.274463 -5.33995 0
M  V30 9415 H 852.783 0.874524 -4.07011 0
M  V30 9416 H 853.316 -0.815058 -3.89361 0
M  V30 9417 H 850.055 -3.18485 -5.72929 0
M  V30 9418 H 849.575 -1.47435 -5.81397 0
M  V30 9419 H 851.254 -1.95124 -6.16876 0
M  V30 9420 N 851.386 1.48609 -0.524698 0
M  V30 9421 C 852.316 2.32366 0.229837 0
M  V30 9422 C 853.297 1.41759 0.940129 0
M  V30 9423 O 854.482 1.7065 0.926936 0
M  V30 9424 C 851.612 3.22835 1.28043 0
M  V30 9425 C 850.566 4.22424 0.688603 0
M  V30 9426 C 849.892 5.0199 1.84146 0
M  V30 9427 C 851.192 5.21217 -0.336176 0
M  V30 9428 H 852.886 2.95698 -0.469339 0
M  V30 9429 H 850.432 1.42197 -0.227156 0
M  V30 9430 H 852.385 3.80253 1.8162 0
M  V30 9431 H 851.109 2.57492 2.00912 0
M  V30 9432 H 849.768 3.66185 0.174402 0
M  V30 9433 H 849.416 4.33076 2.5584 0
M  V30 9434 H 849.116 5.69392 1.45142 0
M  V30 9435 H 850.64 5.62259 2.38111 0
M  V30 9436 H 852.054 5.7319 0.112307 0
M  V30 9437 H 850.451 5.96642 -0.643324 0
M  V30 9438 H 851.521 4.68676 -1.24381 0
M  V30 9439 N 852.864 0.259585 1.55447 0
M  V30 9440 C 854.275 -0.241165 1.85136 0
M  V30 9441 C 854.626 -1.56634 1.18153 0
M  V30 9442 O 853.751 -2.11359 0.464351 0
M  V30 9443 C 854.346 -0.444355 3.35873 0
M  V30 9444 C 852.905 -0.889354 3.65742 0
M  V30 9445 C 852.052 0.0262474 2.77288 0
M  V30 9446 H 855.003 0.481808 1.51209 0
M  V30 9447 H 855.024 -1.28517 3.58139 0
M  V30 9448 H 854.536 0.520289 3.84597 0
M  V30 9449 H 852.637 -1.86602 3.22507 0
M  V30 9450 H 852.75 -0.737432 4.73391 0
M  V30 9451 H 851.114 -0.487361 2.49994 0
M  V30 9452 H 851.897 0.986494 3.28821 0
M  V30 9453 N 854.342 -1.57594 -0.0133615 0
M  V30 9454 C 855.272 -2.10611 -1.00823 0
M  V30 9455 C 856.253 -1.01217 -1.36708 0
M  V30 9456 O 857.438 -1.28827 -1.45318 0
M  V30 9457 C 854.568 -2.59844 -2.30431 0
M  V30 9458 C 853.522 -3.73644 -2.08745 0
M  V30 9459 C 852.848 -4.09141 -3.4425 0
M  V30 9460 C 854.148 -5.01454 -1.46086 0
M  V30 9461 H 855.842 -2.93985 -0.566849 0
M  V30 9462 H 853.388 -1.41423 -0.271219 0
M  V30 9463 H 855.341 -2.95557 -3.00373 0
M  V30 9464 H 854.065 -1.73573 -2.76658 0
M  V30 9465 H 852.724 -3.38303 -1.41232 0
M  V30 9466 H 852.372 -3.19914 -3.88155 0
M  V30 9467 H 852.072 -4.85802 -3.3056 0
M  V30 9468 H 853.596 -4.47402 -4.15528 0
M  V30 9469 H 855.01 -5.35024 -2.05966 0
M  V30 9470 H 853.407 -5.82832 -1.42924 0
M  V30 9471 H 854.477 -4.83003 -0.428471 0
M  V30 9472 N 855.82 0.285905 -1.54985 0
M  V30 9473 C 857.067 1.0192 -1.74982 0
M  V30 9474 C 857.395 1.86743 -0.543816 0
M  V30 9475 O 856.65 1.89874 0.473972 0
M  V30 9476 C 856.949 1.94193 -3.0004 0
M  V30 9477 C 856.615 1.25225 -4.33162 0
M  V30 9478 C 855.277 1.06149 -4.69346 0
M  V30 9479 C 857.629 0.760427 -5.15623 0
M  V30 9480 C 854.957 0.365991 -5.85557 0
M  V30 9481 C 857.309 0.0785787 -6.32551 0
M  V30 9482 C 855.973 -0.124002 -6.67385 0
M  V30 9483 H 855.243 0.372951 -0.640304 0
M  V30 9484 H 857.89 0.292652 -1.89251 0
M  V30 9485 H 856.195 2.73426 -2.80616 0
M  V30 9486 H 857.892 2.51029 -3.12707 0
M  V30 9487 H 854.482 1.41081 -4.04715 0
M  V30 9488 H 858.666 0.895466 -4.88155 0
M  V30 9489 H 853.922 0.198193 -6.11079 0
M  V30 9490 H 858.096 -0.310339 -6.95708 0
M  V30 9491 H 855.723 -0.664918 -7.57287 0
M  V30 9492 N 857.298 1.47698 0.54982 0
M  V30 9493 C 858.575 1.45185 1.31075 0
M  V30 9494 C 858.955 0.152768 2.10547 0
M  V30 9495 O 858.303 -0.865706 2.11466 0
M  V30 9496 C 858.513 2.70192 2.20902 0
M  V30 9497 C 859.861 3.1771 2.81683 0
M  V30 9498 O 860.885 2.70971 2.312 0
M  V30 9499 O 859.744 3.98986 3.7346 0
M  V30 9500 H 856.838 0.57892 0.590577 0
M  V30 9501 H 859.384 1.59908 0.568112 0
M  V30 9502 H 858.156 3.56269 1.61828 0
M  V30 9503 H 857.779 2.58091 3.02448 0
M  V30 9504 N 858.776 -0.797141 1.35954 0
M  V30 9505 C 859.739 -1.89104 1.29508 0
M  V30 9506 C 860.739 -1.59495 0.204444 0
M  V30 9507 O 861.929 -1.68051 0.458746 0
M  V30 9508 C 859.061 -3.25726 1.00576 0
M  V30 9509 H 860.254 -1.96237 2.26785 0
M  V30 9510 H 857.807 -0.994075 1.20614 0
M  V30 9511 H 858.542 -3.24279 0.0372519 0
M  V30 9512 H 858.327 -3.48604 1.79492 0
M  V30 9513 H 859.817 -4.0578 0.986508 0
M  V30 9514 N 860.254 -1.20106 -1.0204 0
M  V30 9515 C 861.184 -0.970301 -2.12385 0
M  V30 9516 C 862.165 0.099378 -1.69809 0
M  V30 9517 O 863.35 -0.057365 -1.94115 0
M  V30 9518 C 860.48 -0.517431 -3.43424 0
M  V30 9519 C 859.434 -1.52992 -3.99722 0
M  V30 9520 C 858.76 -0.933817 -5.26483 0
M  V30 9521 C 860.06 -2.91257 -4.33551 0
M  V30 9522 H 861.754 -1.89316 -2.31948 0
M  V30 9523 H 859.3 -0.911655 -1.11467 0
M  V30 9524 H 861.253 -0.343243 -4.2 0
M  V30 9525 H 859.977 0.441049 -3.23608 0
M  V30 9526 H 858.636 -1.6914 -3.2525 0
M  V30 9527 H 858.284 0.0324763 -5.0299 0
M  V30 9528 H 857.984 -1.60999 -5.65113 0
M  V30 9529 H 859.508 -0.770614 -6.05718 0
M  V30 9530 H 860.922 -2.78642 -5.0103 0
M  V30 9531 H 859.319 -3.55745 -4.83286 0
M  V30 9532 H 860.389 -3.43269 -3.42483 0
M  V30 9533 N 861.732 1.21287 -1.00634 0
M  V30 9534 C 862.96 1.94385 -0.708678 0
M  V30 9535 C 863.375 1.7416 0.728957 0
M  V30 9536 O 862.732 1.04906 1.49335 0
M  V30 9537 C 862.783 3.46755 -1.02193 0
M  V30 9538 O 862.504 3.6631 -2.40309 0
M  V30 9539 C 864.005 4.37014 -0.743867 0
M  V30 9540 H 861.225 0.618136 -0.261052 0
M  V30 9541 H 863.769 1.54067 -1.34475 0
M  V30 9542 H 861.924 3.8499 -0.431441 0
M  V30 9543 H 862.338 4.60393 -2.51274 0
M  V30 9544 H 863.812 5.42621 -1.01321 0
M  V30 9545 H 864.289 4.38017 0.322084 0
M  V30 9546 H 864.895 4.04426 -1.31603 0
M  V30 9547 N 863.21 0.781244 1.36873 0
M  V30 9548 C 864.143 0.120106 2.27884 0
M  V30 9549 C 865.121 -0.698961 1.4681 0
M  V30 9550 O 866.305 -0.671694 1.76126 0
M  V30 9551 C 863.432 -0.835804 3.28226 0
M  V30 9552 C 862.478 -0.0995527 4.26384 0
M  V30 9553 S 863.311 1.21903 5.2144 0
M  V30 9554 C 864.467 0.266904 6.25331 0
M  V30 9555 H 864.7 0.891796 2.83609 0
M  V30 9556 H 862.233 0.575075 1.43291 0
M  V30 9557 H 864.191 -1.3819 3.86541 0
M  V30 9558 H 862.852 -1.58068 2.71428 0
M  V30 9559 H 862.045 -0.82457 4.97209 0
M  V30 9560 H 861.647 0.375818 3.72107 0
M  V30 9561 H 863.939 -0.55725 6.75204 0
M  V30 9562 H 864.882 0.943603 7.01785 0
M  V30 9563 H 865.29 -0.126121 5.64359 0
M  V30 9564 N 864.689 -1.48329 0.532571 0
M  V30 9565 C 865.917 -2.069 0.00354299 0
M  V30 9566 C 866.332 -1.38876 -1.27902 0
M  V30 9567 O 865.689 -0.477119 -1.76153 0
M  V30 9568 C 865.74 -3.60821 -0.221416 0
M  V30 9569 O 865.461 -4.26291 1.01034 0
M  V30 9570 C 866.962 -4.36194 -0.790531 0
M  V30 9571 H 864.182 -0.670103 0.0346836 0
M  V30 9572 H 866.726 -1.90682 0.738955 0
M  V30 9573 H 864.881 -3.76636 -0.906884 0
M  V30 9574 H 865.295 -5.18475 0.792683 0
M  V30 9575 H 866.769 -5.44657 -0.897347 0
M  V30 9576 H 867.246 -4.00798 -1.79605 0
M  V30 9577 H 867.852 -4.25064 -0.141546 0
M  V30 9578 N 866.167 -0.267825 -1.55308 0
M  V30 9579 C 867.444 0.402449 -1.91415 0
M  V30 9580 C 867.824 1.7428 -1.1912 0
M  V30 9581 O 867.172 2.2631 -0.315609 0
M  V30 9582 C 867.382 0.549926 -3.4464 0
M  V30 9583 C 868.73 0.836188 -4.16285 0
M  V30 9584 O 869.754 0.635009 -3.50494 0
M  V30 9585 O 868.613 1.22051 -5.32697 0
M  V30 9586 H 865.707 0.219177 -0.797427 0
M  V30 9587 H 868.253 -0.313439 -1.6678 0
M  V30 9588 H 867.025 -0.393641 -3.89315 0
M  V30 9589 H 866.648 1.31556 -3.75205 0
M  V30 9590 N 867.645 1.57599 0.00500368 0
M  V30 9591 C 868.593 2.09223 1.01628 0
M  V30 9592 C 869.587 1.01113 1.35913 0
M  V30 9593 O 870.793 1.19583 1.34536 0
M  V30 9594 H 867.168 0.667999 0.345372 0
M  V30 9595 H 869.139 2.93188 0.555274 0
M  V30 9596 C 867.888 2.60674 2.30097 0
M  V30 9597 H 867.211 3.43491 2.04582 0
M  V30 9598 H 868.651 3.00479 2.99146 0
M  V30 9599 C 867.11 1.51862 3.00731 0
M  V30 9600 O 867.64 0.898651 3.91519 0
M  V30 9601 N 865.846 1.24729 2.62471 0
M  V30 9602 H 865.393 1.7533 1.88725 0
M  V30 9603 H 865.351 0.521437 3.10046 0
M  V30 9604 N 869.123 -0.277682 1.55134 0
M  V30 9605 C 870.053 -1.34742 1.90701 0
M  V30 9606 C 871.034 -1.51757 0.768354 0
M  V30 9607 O 872.219 -1.64879 1.02609 0
M  V30 9608 C 869.349 -2.70775 2.17481 0
M  V30 9609 C 868.303 -2.68497 3.33307 0
M  V30 9610 C 867.629 -4.08037 3.45557 0
M  V30 9611 C 868.929 -2.28178 4.69821 0
M  V30 9612 H 870.623 -1.05224 2.803 0
M  V30 9613 H 868.169 -0.504738 1.34864 0
M  V30 9614 H 870.122 -3.45719 2.40949 0
M  V30 9615 H 868.846 -3.01867 1.24676 0
M  V30 9616 H 867.505 -1.9601 3.09799 0
M  V30 9617 H 867.153 -4.36344 2.50226 0
M  V30 9618 H 866.853 -4.07409 4.23429 0
M  V30 9619 H 868.377 -4.84726 3.71312 0
M  V30 9620 H 869.791 -2.92843 4.92865 0
M  V30 9621 H 868.188 -2.3872 5.50575 0
M  V30 9622 H 869.258 -1.23308 4.6896 0
M  V30 9623 N 870.601 -1.47988 -0.541979 0
M  V30 9624 C 871.549 -1.62044 -1.66867 0
M  V30 9625 C 872.543 -0.487217 -1.62242 0
M  V30 9626 O 873.749 -0.66554 -1.67244 0
M  V30 9627 H 870.124 -0.51024 -0.552412 0
M  V30 9628 H 872.095 -2.56695 -1.52153 0
M  V30 9629 C 870.844 -1.66615 -3.0518 0
M  V30 9630 H 870.167 -2.5317 -3.09427 0
M  V30 9631 H 871.607 -1.80496 -3.83663 0
M  V30 9632 C 870.066 -0.402421 -3.34488 0
M  V30 9633 O 870.596 0.48992 -3.98701 0
M  V30 9634 N 868.802 -0.277778 -2.89269 0
M  V30 9635 H 868.349 -1.00488 -2.37192 0
M  V30 9636 H 868.307 0.566784 -3.09249 0
M  V30 9637 N 872.079 0.78992 -1.36375 0
M  V30 9638 C 873.026 1.90254 -1.3066 0
M  V30 9639 C 873.996 1.65171 -0.17539 0
M  V30 9640 O 875.181 1.87338 -0.361824 0
M  V30 9641 C 872.321 3.27057 -1.10125 0
M  V30 9642 C 871.434 3.64215 -2.32317 0
M  V30 9643 C 870.569 4.90134 -2.04798 0
M  V30 9644 C 869.608 5.19969 -3.22953 0
M  V30 9645 N 868.745 6.37071 -2.95102 0
M  V30 9646 H 873.585 1.94474 -2.25796 0
M  V30 9647 H 871.122 0.951022 -1.12223 0
M  V30 9648 H 873.08 4.05947 -0.962453 0
M  V30 9649 H 871.71 3.22261 -0.186444 0
M  V30 9650 H 870.762 2.80454 -2.57002 0
M  V30 9651 H 872.074 3.82212 -3.20492 0
M  V30 9652 H 871.228 5.76888 -1.87845 0
M  V30 9653 H 869.967 4.74205 -1.13932 0
M  V30 9654 H 868.972 4.31699 -3.40465 0
M  V30 9655 H 870.197 5.37817 -4.14644 0
M  V30 9656 H 868.143 6.22535 -2.06848 0
M  V30 9657 H 868.06 6.55398 -3.76815 0
M  V30 9658 H 869.328 7.26808 -2.81727 0
M  V30 9659 N 873.557 1.20646 1.01402 0
M  V30 9660 C 874.803 1.0197 1.753 0
M  V30 9661 C 875.136 -0.446803 1.8899 0
M  V30 9662 O 874.411 -1.33169 1.41762 0
M  V30 9663 C 874.694 1.70693 3.17074 0
M  V30 9664 C 874.547 3.24805 3.11162 0
M  V30 9665 C 875.866 1.44212 4.15802 0
M  V30 9666 H 872.985 0.371844 0.636318 0
M  V30 9667 H 875.627 1.48696 1.18277 0
M  V30 9668 H 873.777 1.30968 3.65759 0
M  V30 9669 H 875.449 3.73841 2.70261 0
M  V30 9670 H 873.692 3.55576 2.48492 0
M  V30 9671 H 874.363 3.68049 4.11393 0
M  V30 9672 H 876.839 1.7868 3.75783 0
M  V30 9673 H 875.715 1.94825 5.13161 0
M  V30 9674 H 875.976 0.370252 4.40547 0
M  V30 9675 N 875.035 -1.20752 1.01276 0
M  V30 9676 C 876.282 -1.90021 0.699887 0
M  V30 9677 C 876.61 -1.78604 -0.770113 0
M  V30 9678 O 875.865 -1.16195 -1.57471 0
M  V30 9679 C 876.164 -3.40808 1.07633 0
M  V30 9680 C 875.83 -3.72423 2.54189 0
M  V30 9681 C 874.492 -3.80762 2.94234 0
M  V30 9682 C 876.844 -3.87025 3.49086 0
M  V30 9683 C 874.172 -4.01158 4.28123 0
M  V30 9684 C 876.524 -4.0893 4.82658 0
M  V30 9685 C 875.188 -4.15498 5.22415 0
M  V30 9686 H 874.458 -0.695335 0.256107 0
M  V30 9687 H 877.105 -1.43096 1.27263 0
M  V30 9688 H 875.41 -3.89521 0.421944 0
M  V30 9689 H 877.107 -3.92693 0.811997 0
M  V30 9690 H 873.697 -3.66529 2.22158 0
M  V30 9691 H 877.881 -3.79942 3.19309 0
M  V30 9692 H 873.137 -4.04476 4.58486 0
M  V30 9693 H 877.311 -4.19172 5.56119 0
M  V30 9694 H 874.938 -4.31055 6.26176 0
M  V30 9695 N 876.513 -0.788492 -1.36457 0
M  V30 9696 C 877.46 -0.18435 -2.30063 0
M  V30 9697 C 878.43 0.67128 -1.51931 0
M  V30 9698 O 879.615 0.620152 -1.8044 0
M  V30 9699 C 876.755 0.675596 -3.38422 0
M  V30 9700 C 875.868 -0.198475 -4.31544 0
M  V30 9701 C 875.003 0.667757 -5.26986 0
M  V30 9702 C 874.042 -0.207825 -6.11747 0
M  V30 9703 N 873.179 0.617335 -6.99381 0
M  V30 9704 H 878.019 -0.988056 -2.81143 0
M  V30 9705 H 875.556 -0.498815 -1.38384 0
M  V30 9706 H 877.514 1.18916 -3.99894 0
M  V30 9707 H 876.144 1.44474 -2.88664 0
M  V30 9708 H 875.196 -0.829995 -3.71235 0
M  V30 9709 H 876.508 -0.873163 -4.91098 0
M  V30 9710 H 875.662 1.24716 -5.93743 0
M  V30 9711 H 874.401 1.37607 -4.67884 0
M  V30 9712 H 873.406 -0.799638 -5.43954 0
M  V30 9713 H 874.631 -0.913729 -6.72925 0
M  V30 9714 H 872.577 1.30996 -6.42788 0
M  V30 9715 H 872.494 0.000307255 -7.56 0
M  V30 9716 H 873.762 1.1806 -7.70508 0
M  V30 9717 N 877.991 1.48044 -0.54043 0
M  V30 9718 C 878.938 2.29781 0.216597 0
M  V30 9719 C 879.908 1.38021 0.924094 0
M  V30 9720 O 881.093 1.66985 0.923078 0
M  V30 9721 C 878.233 3.21623 1.2511 0
M  V30 9722 C 877.346 4.28467 0.551384 0
M  V30 9723 C 876.481 5.07477 1.56972 0
M  V30 9724 C 875.52 6.06113 0.854048 0
M  V30 9725 N 874.657 6.78143 1.81842 0
M  V30 9726 H 879.497 2.94001 -0.486578 0
M  V30 9727 H 877.034 1.44929 -0.251789 0
M  V30 9728 H 878.992 3.73279 1.8633 0
M  V30 9729 H 877.622 2.59305 1.92252 0
M  V30 9730 H 876.674 3.79997 -0.174982 0
M  V30 9731 H 877.986 4.98799 -0.0100542 0
M  V30 9732 H 877.14 5.63199 2.25592 0
M  V30 9733 H 875.879 4.37008 2.16507 0
M  V30 9734 H 874.884 5.49585 0.153838 0
M  V30 9735 H 876.109 6.78584 0.264675 0
M  V30 9736 H 874.055 6.10417 2.40265 0
M  V30 9737 H 873.972 7.44587 1.3087 0
M  V30 9738 H 875.24 7.38448 2.49628 0
M  V30 9739 N 879.47 0.276058 1.55163 0
M  V30 9740 C 880.4 -0.604633 2.25536 0
M  V30 9741 C 881.381 -1.15813 1.24585 0
M  V30 9742 O 882.566 -1.1921 1.53306 0
M  V30 9743 C 879.696 -1.78836 2.97716 0
M  V30 9744 C 878.65 -1.36635 4.05604 0
M  V30 9745 C 877.976 -2.63325 4.65364 0
M  V30 9746 C 879.276 -0.515858 5.19746 0
M  V30 9747 H 880.97 -0.0177483 2.99395 0
M  V30 9748 H 878.516 -0.00709627 1.43998 0
M  V30 9749 H 880.469 -2.41036 3.45658 0
M  V30 9750 H 879.193 -2.40109 2.21394 0
M  V30 9751 H 877.852 -0.767541 3.58475 0
M  V30 9752 H 877.5 -3.22858 3.85709 0
M  V30 9753 H 877.2 -2.358 5.38212 0
M  V30 9754 H 878.724 -3.26372 5.16056 0
M  V30 9755 H 880.138 -1.04289 5.63735 0
M  V30 9756 H 878.535 -0.335449 5.99162 0
M  V30 9757 H 879.605 0.465137 4.82664 0
M  V30 9758 N 880.948 -1.576 0.00335426 0
M  V30 9759 C 882.197 -1.89892 -0.680001 0
M  V30 9760 C 882.51 -0.878731 -1.7475 0
M  V30 9761 O 883.716 -1.09199 -2.48572 0
M  V30 9762 C 882.172 -3.37098 -1.26066 0
M  V30 9763 C 881.78 -4.4742 -0.227807 0
M  V30 9764 C 883.524 -3.78495 -1.92202 0
M  V30 9765 C 881.431 -5.85706 -0.81865 0
M  V30 9766 H 880.361 -0.708578 -0.257746 0
M  V30 9767 H 883.012 -1.83387 0.0644472 0
M  V30 9768 H 881.394 -3.38451 -2.05589 0
M  V30 9769 H 882.568 -4.57589 0.54307 0
M  V30 9770 H 880.883 -4.15064 0.333297 0
M  V30 9771 H 883.48 -4.7915 -2.37318 0
M  V30 9772 H 883.823 -3.12187 -2.75399 0
M  V30 9773 H 884.356 -3.79456 -1.19408 0
M  V30 9774 H 881.095 -6.55495 -0.0253787 0
M  V30 9775 H 880.615 -5.79196 -1.55861 0
M  V30 9776 H 882.294 -6.33469 -1.31627 0
M  V30 9777 N 882.426 0.269451 -1.5528 0
M  V30 9778 C 883.703 1.02207 -1.66773 0
M  V30 9779 C 884.083 2.04168 -0.536536 0
M  V30 9780 O 883.431 2.23761 0.462956 0
M  V30 9781 C 883.641 1.67569 -3.0614 0
M  V30 9782 C 884.989 2.18599 -3.64005 0
M  V30 9783 O 886.013 1.7755 -3.08795 0
M  V30 9784 O 884.872 2.93903 -4.60742 0
M  V30 9785 H 881.966 0.474314 -0.677462 0
M  V30 9786 H 884.512 0.265026 -1.67618 0
M  V30 9787 H 883.284 0.937029 -3.79915 0
M  V30 9788 H 882.907 2.49951 -3.09209 0
M  V30 9789 N 883.904 1.48273 0.534124 0
M  V30 9790 C 885.32 1.34302 0.862272 0
M  V30 9791 C 885.52 0.350902 1.98421 0
M  V30 9792 O 884.576 -0.229364 2.51456 0
M  V30 9793 C 885.889 2.74227 1.23371 0
M  V30 9794 C 887.437 2.82684 1.34383 0
M  V30 9795 C 887.912 4.23301 1.74871 0
M  V30 9796 N 889.403 4.25954 1.81981 0
M  V30 9797 C 890.138 5.31693 2.14686 0
M  V30 9798 N 889.634 6.47714 2.45844 0
M  V30 9799 N 891.427 5.19084 2.15657 0
M  V30 9800 H 883.578 2.11397 -0.206215 0
M  V30 9801 H 885.841 0.947537 -0.0296116 0
M  V30 9802 H 885.547 3.48368 0.482967 0
M  V30 9803 H 885.421 3.07485 2.18478 0
M  V30 9804 H 887.808 2.08801 2.08534 0
M  V30 9805 H 887.889 2.5305 0.374063 0
M  V30 9806 H 887.533 4.97699 1.01282 0
M  V30 9807 H 887.463 4.50376 2.7289 0
M  V30 9808 H 889.954 3.42266 1.60196 0
M  V30 9809 H 890.267 7.2414 2.69892 0
M  V30 9810 H 888.612 6.50995 2.43372 0
M  V30 9811 H 891.803 4.27463 1.9077 0
M  V30 9812 H 891.976 6.01592 2.40813 0
M  V30 9813 N 885.382 -0.782676 1.36792 0
M  V30 9814 C 886.628 -1.54311 1.3159 0
M  V30 9815 C 886.961 -1.93928 -0.102696 0
M  V30 9816 O 886.236 -1.63233 -1.05761 0
M  V30 9817 C 886.519 -2.81561 2.24489 0
M  V30 9818 C 886.372 -2.48268 3.75078 0
M  V30 9819 C 887.691 -3.83428 2.16034 0
M  V30 9820 H 884.81 -0.559828 0.479335 0
M  V30 9821 H 887.452 -0.898717 1.67401 0
M  V30 9822 H 885.602 -3.36549 1.9408 0
M  V30 9823 H 887.274 -1.99279 4.16036 0
M  V30 9824 H 885.517 -1.81116 3.94182 0
M  V30 9825 H 886.188 -3.39183 4.35499 0
M  V30 9826 H 888.664 -3.37905 2.42815 0
M  V30 9827 H 887.54 -4.70204 2.83194 0
M  V30 9828 H 887.801 -4.26887 1.14976 0
M  V30 9829 N 886.86 -1.21182 -1.00761 0
M  V30 9830 C 888.088 -1.05335 -1.78079 0
M  V30 9831 C 888.503 0.396988 -1.84579 0
M  V30 9832 O 887.86 1.27548 -1.30529 0
M  V30 9833 C 887.911 -1.64089 -3.22113 0
M  V30 9834 O 887.632 -3.03448 -3.15992 0
M  V30 9835 C 889.133 -1.53318 -4.15943 0
M  V30 9836 H 886.353 -0.37005 -0.559736 0
M  V30 9837 H 888.897 -1.60463 -1.26775 0
M  V30 9838 H 887.052 -1.13059 -3.70535 0
M  V30 9839 H 887.466 -3.31492 -4.06465 0
M  V30 9840 H 888.94 -1.99174 -5.14814 0
M  V30 9841 H 889.417 -0.487166 -4.3649 0
M  V30 9842 H 890.023 -2.03582 -3.73409 0
M  V30 9843 N 888.338 1.20213 -1.01915 0
M  V30 9844 C 889.586 1.89272 -0.708552 0
M  V30 9845 C 889.907 1.79394 0.76438 0
M  V30 9846 O 889.177 1.198 1.54999 0
M  V30 9847 H 887.757 0.700628 -0.259094 0
M  V30 9848 H 890.419 1.45985 -1.29129 0
M  V30 9849 H 889.515 2.95841 -0.994215 0
M  V30 9850 N 889.816 0.795718 1.36037 0
M  V30 9851 C 890.748 0.156336 2.28666 0
M  V30 9852 C 891.761 -0.638075 1.49775 0
M  V30 9853 O 892.95 -0.472222 1.7214 0
M  V30 9854 C 890.05 -0.801417 3.29288 0
M  V30 9855 C 889.223 -0.0557118 4.37365 0
M  V30 9856 C 888.282 -0.930338 5.1791 0
M  V30 9857 O 887.308 -0.385266 5.67895 0
M  V30 9858 N 888.51 -2.25382 5.34961 0
M  V30 9859 H 891.275 0.952033 2.84177 0
M  V30 9860 H 888.836 0.650189 1.48271 0
M  V30 9861 H 890.828 -1.39051 3.80062 0
M  V30 9862 H 889.398 -1.49796 2.74372 0
M  V30 9863 H 888.618 0.714508 3.87671 0
M  V30 9864 H 889.906 0.458633 5.06729 0
M  V30 9865 H 889.304 -2.72073 4.95977 0
M  V30 9866 H 887.861 -2.79241 5.88955 0
M  V30 9867 N 891.294 -1.47756 0.548274 0
M  V30 9868 C 892.542 -2.02089 0.0208542 0
M  V30 9869 C 892.863 -1.42589 -1.33017 0
M  V30 9870 O 892.133 -0.597825 -1.86555 0
M  V30 9871 H 890.713 -0.746985 0.00472023 0
M  V30 9872 H 893.375 -1.81262 0.716257 0
M  V30 9873 H 892.471 -3.12012 -0.0739016 0
M  V30 9874 N 892.772 -0.284283 -1.55015 0
M  V30 9875 C 893.702 0.592663 -2.25853 0
M  V30 9876 C 894.683 1.15151 -1.25197 0
M  V30 9877 O 895.868 1.18395 -1.53936 0
M  V30 9878 C 892.998 1.77254 -2.98661 0
M  V30 9879 C 891.952 1.34482 -4.06323 0
M  V30 9880 C 891.278 2.60853 -4.66754 0
M  V30 9881 C 892.578 0.488288 -5.20013 0
M  V30 9882 H 894.272 0.00187041 -2.994 0
M  V30 9883 H 891.818 -0.000540402 -1.44 0
M  V30 9884 H 893.771 2.39199 -3.46932 0
M  V30 9885 H 892.495 2.38931 -2.22664 0
M  V30 9886 H 891.154 0.748519 -3.58877 0
M  V30 9887 H 890.802 3.20808 -3.87416 0
M  V30 9888 H 890.502 2.32942 -5.39455 0
M  V30 9889 H 892.026 3.23631 -5.1778 0
M  V30 9890 H 893.44 1.01298 -5.6428 0
M  V30 9891 H 891.837 0.303669 -5.99331 0
M  V30 9892 H 892.907 -0.490727 -4.8241 0
M  V30 9893 N 894.251 1.57596 -0.0117121 0
M  V30 9894 C 895.181 2.12188 0.9746 0
M  V30 9895 C 896.162 1.03379 1.35081 0
M  V30 9896 O 897.347 1.31123 1.4325 0
M  V30 9897 C 894.477 2.63477 2.26268 0
M  V30 9898 C 893.431 3.76917 2.02774 0
M  V30 9899 C 892.757 4.14566 3.37697 0
M  V30 9900 C 894.057 5.03715 1.38089 0
M  V30 9901 H 895.751 2.9485 0.520007 0
M  V30 9902 H 893.297 1.41836 0.248685 0
M  V30 9903 H 895.25 3.00299 2.95633 0
M  V30 9904 H 893.974 1.77953 2.73862 0
M  V30 9905 H 892.633 3.40507 1.35832 0
M  V30 9906 H 892.281 3.26048 3.83016 0
M  V30 9907 H 891.981 4.91 3.22789 0
M  V30 9908 H 893.505 4.53956 4.08358 0
M  V30 9909 H 894.919 5.38233 1.97428 0
M  V30 9910 H 893.316 5.85032 1.33634 0
M  V30 9911 H 894.386 4.83624 0.351575 0
M  V30 9912 N 895.729 -0.261212 1.5542 0
M  V30 9913 C 897.006 -1.01321 1.67312 0
M  V30 9914 C 897.386 -2.0388 0.547356 0
M  V30 9915 O 896.734 -2.24003 -0.451083 0
M  V30 9916 C 896.944 -1.65943 3.07024 0
M  V30 9917 C 898.292 -2.16666 3.65159 0
M  V30 9918 O 899.316 -1.75909 3.09733 0
M  V30 9919 O 898.175 -2.91455 4.62294 0
M  V30 9920 H 895.269 -0.470714 0.679968 0
M  V30 9921 H 897.815 -0.256133 1.67756 0
M  V30 9922 H 896.587 -0.916868 3.80407 0
M  V30 9923 H 896.21 -2.48308 3.1053 0
M  V30 9924 N 897.207 -1.48554 -0.526253 0
M  V30 9925 C 898.437 -1.60197 -1.30463 0
M  V30 9926 C 898.845 -0.26278 -1.87366 0
M  V30 9927 O 898.188 0.758537 -1.67308 0
M  V30 9928 C 898.25 -2.59223 -2.49085 0
M  V30 9929 C 897.914 -4.04199 -2.13241 0
M  V30 9930 C 898.911 -4.91771 -1.68694 0
M  V30 9931 C 896.596 -4.49762 -2.2365 0
M  V30 9932 C 898.59 -6.22934 -1.35026 0
M  V30 9933 C 896.277 -5.80945 -1.89594 0
M  V30 9934 C 897.275 -6.67354 -1.45353 0
M  V30 9935 O 896.963 -7.96096 -1.11745 0
M  V30 9936 H 896.695 -0.54284 -0.402866 0
M  V30 9937 H 899.249 -1.95137 -0.641157 0
M  V30 9938 H 897.479 -2.19412 -3.18426 0
M  V30 9939 H 899.168 -2.60661 -3.11144 0
M  V30 9940 H 899.934 -4.57806 -1.6012 0
M  V30 9941 H 895.813 -3.8269 -2.5704 0
M  V30 9942 H 899.357 -6.90334 -1.00422 0
M  V30 9943 H 895.254 -6.14444 -1.9781 0
M  V30 9944 H 896.022 -8.08882 -1.25111 0
M  V30 9945 N 898.685 0.775411 -1.37205 0
M  V30 9946 C 899.91 1.5696 -1.35567 0
M  V30 9947 C 900.335 1.88012 0.0575554 0
M  V30 9948 O 899.693 1.48954 1.03355 0
M  V30 9949 C 899.741 2.85886 -2.19776 0
M  V30 9950 O 898.845 3.80103 -1.59987 0
M  V30 9951 H 898.186 0.475583 -0.463375 0
M  V30 9952 H 900.716 0.96001 -1.80679 0
M  V30 9953 H 900.726 3.35024 -2.32859 0
M  V30 9954 H 899.401 2.62613 -3.22502 0
M  V30 9955 H 897.978 3.38736 -1.55924 0
M  V30 9956 N 900.163 1.21714 1.00117 0
M  V30 9957 C 901.579 0.97532 1.26332 0
M  V30 9958 C 901.779 -0.336029 1.98678 0
M  V30 9959 O 900.835 -1.06073 2.29139 0
M  V30 9960 C 902.148 2.16848 2.0832 0
M  V30 9961 C 903.696 2.21115 2.21533 0
M  V30 9962 C 904.171 3.3996 3.06906 0
M  V30 9963 N 905.662 3.40071 3.14494 0
M  V30 9964 C 906.397 4.28678 3.80818 0
M  V30 9965 N 905.893 5.2749 4.49139 0
M  V30 9966 N 907.686 4.16476 3.77497 0
M  V30 9967 H 899.837 2.06039 0.515897 0
M  V30 9968 H 902.1 0.902423 0.290408 0
M  V30 9969 H 901.806 3.119 1.62515 0
M  V30 9970 H 901.68 2.16226 3.09073 0
M  V30 9971 H 904.067 1.26616 2.66557 0
M  V30 9972 H 904.148 2.2578 1.20238 0
M  V30 9973 H 903.792 4.34755 2.62585 0
M  V30 9974 H 903.722 3.32534 4.08324 0
M  V30 9975 H 906.213 2.68563 2.65861 0
M  V30 9976 H 906.526 5.91397 4.97463 0
M  V30 9977 H 904.871 5.31412 4.47914 0
M  V30 9978 H 908.062 3.38539 3.23278 0
M  V30 9979 H 908.235 4.85739 4.28908 0
M  V30 9980 N 901.641 -1.19671 1.02551 0
M  V30 9981 C 902.887 -1.89548 0.721069 0
M  V30 9982 C 903.22 -1.79209 -0.748176 0
M  V30 9983 O 902.495 -1.1822 -1.54448 0
M  V30 9984 C 902.778 -3.4061 1.16861 0
M  V30 9985 C 902.631 -3.59838 2.69883 0
M  V30 9986 C 903.95 -4.33718 0.746782 0
M  V30 9987 H 901.069 -0.688315 0.263422 0
M  V30 9988 H 903.711 -1.40883 1.27483 0
M  V30 9989 H 901.861 -3.82188 0.697477 0
M  V30 9990 H 903.533 -3.27454 3.24917 0
M  V30 9991 H 901.776 -3.03005 3.10435 0
M  V30 9992 H 902.447 -4.65766 2.96253 0
M  V30 9993 H 904.923 -3.99837 1.15195 0
M  V30 9994 H 903.799 -5.38012 1.08786 0
M  V30 9995 H 904.06 -4.40704 -0.351057 0
M  V30 9996 N 903.119 -0.802921 -1.35613 0
M  V30 9997 C 904.347 -0.39393 -2.03115 0
M  V30 9998 C 904.762 0.993961 -1.60517 0
M  V30 9999 O 904.119 1.63984 -0.800973 0
M  V30 10000 C 904.17 -0.463486 -3.58516 0
M  V30 10001 O 903.891 -1.79666 -3.99565 0
M  V30 10002 C 905.392 -0.0468377 -4.43275 0
M  V30 10003 H 902.612 -0.160519 -0.651517 0
M  V30 10004 H 905.156 -1.08552 -1.73311 0
M  V30 10005 H 903.311 0.179821 -3.86982 0
M  V30 10006 H 903.725 -1.75688 -4.942 0
M  V30 10007 H 905.199 -0.146626 -5.51805 0
M  V30 10008 H 905.676 1.00741 -4.2749 0
M  V30 10009 H 906.282 -0.663158 -4.20098 0
M  V30 10010 N 904.597 1.47463 -0.556102 0
M  V30 10011 C 905.827 2.06568 -0.0364056 0
M  V30 10012 C 906.235 1.40939 1.26225 0
M  V30 10013 O 905.578 0.499572 1.76777 0
M  V30 10014 C 905.64 3.58755 0.231278 0
M  V30 10015 C 905.304 4.46417 -0.977776 0
M  V30 10016 C 906.301 4.846 -1.88305 0
M  V30 10017 C 903.986 4.87948 -1.19214 0
M  V30 10018 C 905.98 5.63111 -2.98639 0
M  V30 10019 C 903.667 5.66224 -2.29857 0
M  V30 10020 C 904.665 6.03716 -3.194 0
M  V30 10021 O 904.353 6.80415 -4.28125 0
M  V30 10022 H 904.085 0.674675 -0.042305 0
M  V30 10023 H 906.639 1.9047 -0.768775 0
M  V30 10024 H 904.869 3.73061 1.01794 0
M  V30 10025 H 906.558 3.99884 0.696221 0
M  V30 10026 H 907.324 4.53115 -1.72949 0
M  V30 10027 H 903.203 4.58233 -0.504347 0
M  V30 10028 H 906.747 5.92293 -3.68557 0
M  V30 10029 H 902.644 5.97121 -2.45186 0
M  V30 10030 H 903.412 6.98807 -4.26159 0
M  V30 10031 N 906.075 0.2925 1.54862 0
M  V30 10032 C 907.038 -0.574423 2.21885 0
M  V30 10033 C 908.038 -1.06791 1.20218 0
M  V30 10034 O 909.228 -0.9653 1.45009 0
M  V30 10035 C 906.36 -1.79438 2.89853 0
M  V30 10036 H 907.553 0.0110319 2.99898 0
M  V30 10037 H 905.106 0.043256 1.5624 0
M  V30 10038 H 905.841 -2.4199 2.15897 0
M  V30 10039 H 905.626 -1.44827 3.64373 0
M  V30 10040 H 907.116 -2.41048 3.41007 0
M  V30 10041 N 907.553 -1.57587 0.0200696 0
M  V30 10042 C 908.8 -1.91424 -0.660525 0
M  V30 10043 C 909.128 -0.895626 -1.72652 0
M  V30 10044 O 908.383 0.096771 -1.95461 0
M  V30 10045 C 908.682 -3.32002 -1.32323 0
M  V30 10046 C 908.348 -4.49223 -0.388487 0
M  V30 10047 C 907.01 -4.81021 -0.131184 0
M  V30 10048 C 909.362 -5.20581 0.253906 0
M  V30 10049 C 906.69 -5.81539 0.776471 0
M  V30 10050 C 909.042 -6.22067 1.14956 0
M  V30 10051 C 907.706 -6.52311 1.41584 0
M  V30 10052 H 906.976 -0.700472 -0.241703 0
M  V30 10053 H 909.623 -1.91333 0.0798991 0
M  V30 10054 H 907.928 -3.28312 -2.13819 0
M  V30 10055 H 909.625 -3.5545 -1.85623 0
M  V30 10056 H 906.215 -4.24391 -0.599207 0
M  V30 10057 H 910.399 -4.96253 0.068164 0
M  V30 10058 H 905.655 -6.03322 0.990575 0
M  V30 10059 H 909.829 -6.76484 1.65357 0
M  V30 10060 H 907.456 -7.30017 2.12083 0
M  V30 10061 N 909.032 0.252966 -1.55557 0
M  V30 10062 C 909.982 1.31585 -1.86197 0
M  V30 10063 C 910.966 1.43773 -0.722357 0
M  V30 10064 O 912.158 1.47117 -0.984152 0
M  V30 10065 C 909.287 2.67245 -2.15487 0
M  V30 10066 C 908.373 2.59087 -3.3576 0
M  V30 10067 N 908.764 2.20556 -4.5518 0
M  V30 10068 C 907.062 2.90112 -3.3875 0
M  V30 10069 C 907.763 2.22881 -5.37307 0
M  V30 10070 N 906.739 2.62145 -4.76215 0
M  V30 10071 H 910.541 1.00835 -2.76061 0
M  V30 10072 H 908.055 0.461598 -1.55702 0
M  V30 10073 H 910.052 3.43944 -2.35602 0
M  V30 10074 H 908.712 2.98867 -1.26919 0
M  V30 10075 H 909.723 1.922 -4.80915 0
M  V30 10076 H 906.4 3.26313 -2.60434 0
M  V30 10077 H 907.79 1.95482 -6.42835 0
M  V30 10078 N 910.51 1.48831 0.518367 0
M  V30 10079 C 911.44 1.67119 1.63075 0
M  V30 10080 C 912.421 0.519948 1.61958 0
M  V30 10081 O 913.606 0.753824 1.78972 0
M  V30 10082 C 910.736 1.72158 3.01627 0
M  V30 10083 C 909.69 2.86898 3.17606 0
M  V30 10084 C 909.016 2.77035 4.57335 0
M  V30 10085 C 910.316 4.28057 2.99274 0
M  V30 10086 H 912.01 2.60248 1.48025 0
M  V30 10087 H 909.556 1.2524 0.710694 0
M  V30 10088 H 911.509 1.83539 3.7933 0
M  V30 10089 H 910.233 0.756157 3.17726 0
M  V30 10090 H 908.892 2.75091 2.42323 0
M  V30 10091 H 908.54 1.78438 4.70286 0
M  V30 10092 H 908.24 3.54036 4.6897 0
M  V30 10093 H 909.764 2.904 5.37122 0
M  V30 10094 H 911.178 4.40636 3.6676 0
M  V30 10095 H 909.575 5.06145 3.22393 0
M  V30 10096 H 910.645 4.4371 1.95574 0
M  V30 10097 N 911.988 -0.768124 1.37614 0
M  V30 10098 C 913.265 -1.51637 1.23554 0
M  V30 10099 C 913.645 -2.1042 -0.169331 0
M  V30 10100 O 912.993 -1.95834 -1.17735 0
M  V30 10101 C 913.203 -2.59436 2.33439 0
M  V30 10102 C 914.551 -3.2674 2.71157 0
M  V30 10103 O 915.575 -2.69733 2.32642 0
M  V30 10104 O 914.434 -4.29814 3.37524 0
M  V30 10105 H 911.528 -0.671778 0.482332 0
M  V30 10106 H 914.074 -0.804779 1.49403 0
M  V30 10107 H 912.846 -2.14146 3.27502 0
M  V30 10108 H 912.469 -3.38192 2.09073 0
M  V30 10109 N 913.466 -1.22244 -0.994698 0
M  V30 10110 C 914.696 -1.07062 -1.76695 0
M  V30 10111 C 915.104 0.381895 -1.85306 0
M  V30 10112 O 914.447 1.27648 -1.32105 0
M  V30 10113 C 914.509 -1.60487 -3.2169 0
M  V30 10114 C 914.173 -3.09079 -3.36629 0
M  V30 10115 C 915.17 -4.06526 -3.24088 0
M  V30 10116 C 912.855 -3.48497 -3.61739 0
M  V30 10117 C 914.849 -5.41377 -3.36437 0
M  V30 10118 C 912.536 -4.83498 -3.73729 0
M  V30 10119 C 913.534 -5.79747 -3.61086 0
M  V30 10120 O 913.222 -7.12297 -3.72678 0
M  V30 10121 H 912.954 -0.375963 -0.561807 0
M  V30 10122 H 915.508 -1.62259 -1.25941 0
M  V30 10123 H 913.738 -0.996957 -3.73628 0
M  V30 10124 H 915.427 -1.40994 -3.80625 0
M  V30 10125 H 916.193 -3.77415 -3.04602 0
M  V30 10126 H 912.072 -2.74106 -3.70657 0
M  V30 10127 H 915.616 -6.16485 -3.26485 0
M  V30 10128 H 911.513 -5.1229 -3.92721 0
M  V30 10129 H 912.281 -7.1985 -3.89562 0
M  V30 10130 N 914.944 1.19125 -1.03184 0
M  V30 10131 C 915.854 2.26112 -0.625329 0
M  V30 10132 C 916.87 1.7056 0.344298 0
M  V30 10133 O 918.046 2.0039 0.20144 0
M  V30 10134 C 915.111 3.46697 0.0145169 0
M  V30 10135 C 914.172 4.17419 -1.00299 0
M  V30 10136 C 913.405 5.32247 -0.393581 0
M  V30 10137 O 913.628 5.64724 0.802659 0
M  V30 10138 O 912.562 5.91428 -1.1179 0
M  V30 10139 H 916.388 2.63131 -1.51643 0
M  V30 10140 H 913.973 1.26036 -0.802197 0
M  V30 10141 H 915.855 4.19762 0.371139 0
M  V30 10142 H 914.53 3.11521 0.879581 0
M  V30 10143 H 913.437 3.4646 -1.41125 0
M  V30 10144 H 914.77 4.56573 -1.83852 0
M  V30 10145 N 916.422 0.810101 1.35185 0
M  V30 10146 C 917.369 0.220927 2.2974 0
M  V30 10147 C 918.339 -0.647024 1.5298 0
M  V30 10148 O 919.524 -0.591367 1.81404 0
M  V30 10149 C 916.664 -0.62167 3.39454 0
M  V30 10150 C 915.777 0.267104 4.31173 0
M  V30 10151 C 914.912 -0.583833 5.27982 0
M  V30 10152 C 913.951 0.305123 6.11339 0
M  V30 10153 N 913.088 -0.505992 7.00274 0
M  V30 10154 H 917.928 1.03266 2.79536 0
M  V30 10155 H 915.465 0.520768 1.37573 0
M  V30 10156 H 917.423 -1.12539 4.01735 0
M  V30 10157 H 916.053 -1.39863 2.90926 0
M  V30 10158 H 915.105 0.88895 3.69867 0
M  V30 10159 H 916.417 0.951182 4.89647 0
M  V30 10160 H 915.571 -1.15254 5.95652 0
M  V30 10161 H 914.31 -1.30146 4.70014 0
M  V30 10162 H 913.315 0.886075 5.42613 0
M  V30 10163 H 914.54 1.02067 6.71386 0
M  V30 10164 H 912.486 -1.20753 6.4479 0
M  V30 10165 H 912.403 0.119966 7.55905 0
M  V30 10166 H 913.671 -1.05787 7.72288 0
M  V30 10167 N 917.9 -1.47166 0.563914 0
M  V30 10168 C 919.146 -2.03337 0.0506932 0
M  V30 10169 C 919.501 -1.42976 -1.28746 0
M  V30 10170 O 918.794 -0.578508 -1.82658 0
M  V30 10171 C 918.988 -3.57279 -0.0931797 0
M  V30 10172 C 918.817 -4.32567 1.22948 0
M  V30 10173 C 917.587 -4.72206 1.79859 0
M  V30 10174 C 919.785 -4.67282 2.14829 0
M  V30 10175 N 917.767 -5.32166 3.0606 0
M  V30 10176 C 919.138 -5.27615 3.25611 0
M  V30 10177 C 921.193 -4.49211 2.14741 0
M  V30 10178 C 919.896 -5.71784 4.36412 0
M  V30 10179 C 921.922 -4.94384 3.24559 0
M  V30 10180 C 921.284 -5.54771 4.34061 0
M  V30 10181 H 917.383 -0.779627 0.0608761 0
M  V30 10182 H 919.967 -1.79563 0.75268 0
M  V30 10183 H 918.138 -3.80806 -0.764301 0
M  V30 10184 H 919.87 -4.0009 -0.609075 0
M  V30 10185 H 916.625 -4.54372 1.33577 0
M  V30 10186 H 917.049 -5.66684 3.70404 0
M  V30 10187 H 921.691 -4.01875 1.31362 0
M  V30 10188 H 919.409 -6.18108 5.20546 0
M  V30 10189 H 922.995 -4.82167 3.25586 0
M  V30 10190 H 921.875 -5.89087 5.17635 0
M  V30 10191 N 919.378 -0.300708 -1.54705 0
M  V30 10192 C 920.326 0.591264 -2.2496 0
M  V30 10193 C 921.32 1.13725 -1.2555 0
M  V30 10194 O 922.526 1.08793 -1.43402 0
M  V30 10195 H 918.901 0.209278 -0.722293 0
M  V30 10196 H 920.872 -0.0238175 -2.9839 0
M  V30 10197 C 919.621 1.75179 -3.00346 0
M  V30 10198 H 918.944 1.34089 -3.76643 0
M  V30 10199 H 920.384 2.35198 -3.52786 0
M  V30 10200 C 918.843 2.65574 -2.07298 0
M  V30 10201 O 919.373 3.6666 -1.64083 0
M  V30 10202 N 917.579 2.33301 -1.7326 0
M  V30 10203 H 917.126 1.51142 -2.08599 0
M  V30 10204 H 917.084 2.94049 -1.11278 0
M  V30 10205 N 920.856 1.57574 -0.0284266 0
M  V30 10206 C 921.804 2.11332 0.971675 0
M  V30 10207 C 922.798 1.03974 1.33738 0
M  V30 10208 O 924.004 1.22409 1.31969 0
M  V30 10209 H 920.379 0.675174 0.331125 0
M  V30 10210 H 922.35 2.943 0.49296 0
M  V30 10211 C 921.099 2.65496 2.24516 0
M  V30 10212 H 920.422 3.47753 1.9725 0
M  V30 10213 H 921.862 3.06757 2.92705 0
M  V30 10214 C 920.321 1.58207 2.97443 0
M  V30 10215 O 920.851 0.981496 3.89525 0
M  V30 10216 N 919.057 1.30269 2.59766 0
M  V30 10217 H 918.604 1.79294 1.84963 0
M  V30 10218 H 918.562 0.587085 3.0887 0
M  V30 10219 N 922.334 -0.244713 1.55689 0
M  V30 10220 C 923.284 -1.30596 1.86892 0
M  V30 10221 C 924.268 -1.43388 0.729972 0
M  V30 10222 O 925.46 -1.46593 0.99194 0
M  V30 10223 C 922.589 -2.66099 2.16902 0
M  V30 10224 C 921.675 -2.57302 3.37129 0
M  V30 10225 N 922.066 -2.18139 4.56343 0
M  V30 10226 C 920.364 -2.88311 3.40283 0
M  V30 10227 C 921.065 -2.20028 5.38482 0
M  V30 10228 N 920.041 -2.59616 4.77599 0
M  V30 10229 H 923.843 -0.993699 2.76591 0
M  V30 10230 H 921.357 -0.453334 1.55944 0
M  V30 10231 H 923.354 -3.4269 2.37422 0
M  V30 10232 H 922.014 -2.9819 1.28502 0
M  V30 10233 H 923.025 -1.89647 4.81928 0
M  V30 10234 H 919.702 -3.24928 2.62161 0
M  V30 10235 H 921.092 -1.9207 6.43862 0
M  V30 10236 N 923.813 -1.49104 -0.510467 0
M  V30 10237 C 924.745 -1.61183 -1.6295 0
M  V30 10238 C 925.758 -0.495003 -1.55092 0
M  V30 10239 O 926.947 -0.766671 -1.61197 0
M  V30 10240 C 924.047 -1.54373 -3.01699 0
M  V30 10241 C 923.22 -2.81428 -3.34838 0
M  V30 10242 C 922.279 -2.67802 -4.52956 0
M  V30 10243 O 921.305 -3.41723 -4.55208 0
M  V30 10244 N 922.507 -1.78715 -5.52305 0
M  V30 10245 H 925.272 -2.57693 -1.53018 0
M  V30 10246 H 922.833 -1.46073 -0.698152 0
M  V30 10247 H 924.825 -1.42924 -3.78622 0
M  V30 10248 H 923.395 -0.657597 -3.05605 0
M  V30 10249 H 922.615 -3.07299 -2.46903 0
M  V30 10250 H 923.903 -3.6568 -3.53773 0
M  V30 10251 H 923.301 -1.17897 -5.53278 0
M  V30 10252 H 921.858 -1.73194 -6.28369 0
M  V30 10253 N 925.291 0.760815 -1.38019 0
M  V30 10254 C 926.707 1.06289 -1.19058 0
M  V30 10255 C 926.907 2.01471 -0.0342603 0
M  V30 10256 O 925.963 2.44713 0.62224 0
M  V30 10257 C 927.276 1.6499 -2.51394 0
M  V30 10258 C 928.824 1.77196 -2.58013 0
M  V30 10259 C 929.299 2.3931 -3.90506 0
M  V30 10260 N 930.79 2.46749 -3.92007 0
M  V30 10261 C 931.525 2.95687 -4.91281 0
M  V30 10262 N 931.021 3.44715 -6.00952 0
M  V30 10263 N 932.814 2.94661 -4.78677 0
M  V30 10264 H 924.965 0.129045 -2.12008 0
M  V30 10265 H 927.228 0.119878 -0.94039 0
M  V30 10266 H 926.934 1.0252 -3.36426 0
M  V30 10267 H 926.808 2.64146 -2.6927 0
M  V30 10268 H 929.195 2.38796 -1.7338 0
M  V30 10269 H 929.276 0.767645 -2.4401 0
M  V30 10270 H 928.92 1.78346 -4.75558 0
M  V30 10271 H 928.85 3.40369 -4.01817 0
M  V30 10272 H 931.341 2.12064 -3.12789 0
M  V30 10273 H 931.654 3.80492 -6.72641 0
M  V30 10274 H 929.999 3.42791 -6.04582 0
M  V30 10275 H 933.19 2.55665 -3.92113 0
M  V30 10276 H 933.363 3.32489 -5.56197 0
M  V30 10277 N 926.769 1.22769 0.988202 0
M  V30 10278 C 927.699 1.02627 2.09738 0
M  V30 10279 C 928.68 -0.0543211 1.70013 0
M  V30 10280 O 929.865 0.108811 1.93895 0
M  V30 10281 C 926.995 0.608302 3.41931 0
M  V30 10282 C 925.949 1.63536 3.95525 0
M  V30 10283 C 925.275 1.07308 5.23822 0
M  V30 10284 C 926.575 3.02649 4.25677 0
M  V30 10285 H 928.269 1.954 2.26847 0
M  V30 10286 H 925.815 0.940888 1.09011 0
M  V30 10287 H 927.768 0.454478 4.18942 0
M  V30 10288 H 926.492 -0.355095 3.24664 0
M  V30 10289 H 925.151 1.77704 3.20651 0
M  V30 10290 H 924.799 0.100894 5.02899 0
M  V30 10291 H 924.499 1.75925 5.60646 0
M  V30 10292 H 926.023 0.930938 6.03462 0
M  V30 10293 H 927.437 2.91828 4.93467 0
M  V30 10294 H 925.834 3.68434 4.73684 0
M  V30 10295 H 926.904 3.52228 3.33262 0
M  V30 10296 N 928.247 -1.18576 1.03814 0
M  V30 10297 C 929.157 -2.25778 0.637311 0
M  V30 10298 C 930.173 -1.7074 -0.335248 0
M  V30 10299 O 931.349 -2.00494 -0.19081 0
M  V30 10300 C 928.414 -3.467 0.00386953 0
M  V30 10301 C 927.475 -4.16881 1.02511 0
M  V30 10302 C 926.708 -5.32031 0.421802 0
M  V30 10303 O 926.931 -5.65142 -0.772699 0
M  V30 10304 O 925.865 -5.90826 1.14925 0
M  V30 10305 H 929.691 -2.62323 1.53037 0
M  V30 10306 H 927.276 -1.25609 0.80887 0
M  V30 10307 H 929.158 -4.19953 -0.348873 0
M  V30 10308 H 927.833 -3.11983 -0.863047 0
M  V30 10309 H 926.74 -3.45707 1.4296 0
M  V30 10310 H 928.073 -4.55592 1.86271 0
M  V30 10311 N 929.725 -0.817259 -1.34754 0
M  V30 10312 C 930.95 -0.414423 -2.03217 0
M  V30 10313 C 931.375 0.970037 -1.61158 0
M  V30 10314 O 930.733 1.63016 -0.793436 0
M  V30 10315 C 930.781 -0.518087 -3.56859 0
M  V30 10316 O 929.885 0.464314 -4.09778 0
M  V30 10317 H 929.226 -0.171454 -0.641482 0
M  V30 10318 H 931.756 -1.10611 -1.72123 0
M  V30 10319 H 931.766 -0.391779 -4.06115 0
M  V30 10320 H 930.441 -1.52786 -3.86819 0
M  V30 10321 H 929.018 0.297361 -3.71712 0
M  V30 10322 N 931.203 1.46865 -0.571711 0
M  V30 10323 C 932.431 2.06818 -0.0583975 0
M  V30 10324 C 932.846 1.42218 1.24175 0
M  V30 10325 O 932.203 0.523655 1.74826 0
M  V30 10326 C 932.254 3.61281 0.125673 0
M  V30 10327 O 931.975 4.23462 -1.123 0
M  V30 10328 C 933.476 4.38137 0.674604 0
M  V30 10329 H 930.696 0.668948 -0.052438 0
M  V30 10330 H 933.24 1.88656 -0.789251 0
M  V30 10331 H 931.395 3.78908 0.806707 0
M  V30 10332 H 931.809 5.16192 -0.929869 0
M  V30 10333 H 933.283 5.46845 0.752626 0
M  V30 10334 H 933.76 4.05419 1.68915 0
M  V30 10335 H 934.366 4.2529 0.0287979 0
M  V30 10336 N 932.681 0.308908 1.54543 0
M  V30 10337 C 933.591 -0.572939 2.27496 0
M  V30 10338 C 934.607 -1.14171 1.31305 0
M  V30 10339 O 935.783 -1.16481 1.64299 0
M  V30 10340 C 932.848 -1.72483 3.0075 0
M  V30 10341 C 931.909 -1.18934 4.12496 0
M  V30 10342 C 931.142 -2.28634 4.82247 0
M  V30 10343 O 931.365 -3.48691 4.5141 0
M  V30 10344 O 930.299 -1.94879 5.69478 0
M  V30 10345 H 934.125 0.0190877 3.03694 0
M  V30 10346 H 931.71 0.0750943 1.49211 0
M  V30 10347 H 933.592 -2.39578 3.46671 0
M  V30 10348 H 932.267 -2.30332 2.2744 0
M  V30 10349 H 931.174 -0.483904 3.70957 0
M  V30 10350 H 932.507 -0.656185 4.87806 0
M  V30 10351 N 934.159 -1.57557 0.0367827 0
M  V30 10352 C 935.436 -1.83427 -0.679261 0
M  V30 10353 C 935.816 -0.922274 -1.89888 0
M  V30 10354 O 935.164 0.02025 -2.28491 0
M  V30 10355 C 935.374 -3.32823 -1.05022 0
M  V30 10356 C 936.722 -3.99486 -1.43861 0
M  V30 10357 O 937.746 -3.37364 -1.14297 0
M  V30 10358 O 936.605 -5.0899 -1.98977 0
M  V30 10359 H 933.699 -0.756581 -0.333936 0
M  V30 10360 H 936.245 -1.69575 0.0650494 0
M  V30 10361 H 935.017 -3.90874 -0.182509 0
M  V30 10362 H 934.64 -3.5181 -1.85244 0
M  V30 10363 N 935.637 0.236453 -1.55816 0
M  V30 10364 C 936.883 0.964439 -1.784 0
M  V30 10365 C 937.216 1.84573 -0.603868 0
M  V30 10366 O 936.491 1.90395 0.397473 0
M  V30 10367 C 936.774 1.81608 -3.10951 0
M  V30 10368 C 936.627 0.962283 -4.39386 0
M  V30 10369 C 937.946 2.79665 -3.39817 0
M  V30 10370 H 935.065 0.349192 -0.649026 0
M  V30 10371 H 937.707 0.234247 -1.8855 0
M  V30 10372 H 935.857 2.43864 -3.02428 0
M  V30 10373 H 937.529 0.35762 -4.59912 0
M  V30 10374 H 935.772 0.267062 -4.32977 0
M  V30 10375 H 936.443 1.59222 -5.28538 0
M  V30 10376 H 938.919 2.27546 -3.4837 0
M  V30 10377 H 937.795 3.36367 -4.33761 0
M  V30 10378 H 938.056 3.56657 -2.61244 0
M  V30 10379 N 937.115 1.49373 0.502552 0
M  V30 10380 C 938.362 1.58781 1.25678 0
M  V30 10381 C 938.69 0.273819 1.92563 0
M  V30 10382 O 937.945 -0.738141 1.81246 0
M  V30 10383 C 938.244 2.69508 2.34735 0
M  V30 10384 C 937.91 4.11057 1.85318 0
M  V30 10385 C 936.572 4.49578 1.7156 0
M  V30 10386 C 938.924 4.99653 1.48312 0
M  V30 10387 C 936.252 5.74469 1.19172 0
M  V30 10388 C 938.604 6.2506 0.97377 0
M  V30 10389 C 937.268 6.62412 0.822573 0
M  V30 10390 H 936.538 0.581021 0.459887 0
M  V30 10391 H 939.185 1.83197 0.557767 0
M  V30 10392 H 937.49 2.39057 3.10418 0
M  V30 10393 H 939.187 2.73997 2.92791 0
M  V30 10394 H 935.777 3.80651 1.96985 0
M  V30 10395 H 939.961 4.70549 1.57789 0
M  V30 10396 H 935.217 6.0211 1.06176 0
M  V30 10397 H 939.391 6.93089 0.678233 0
M  V30 10398 H 937.018 7.59069 0.414453 0
M  V30 10399 N 938.594 -0.753485 1.38421 0
M  V30 10400 C 939.819 -1.54783 1.38047 0
M  V30 10401 C 940.244 -1.8808 -0.0276371 0
M  V30 10402 O 939.602 -1.5058 -1.00973 0
M  V30 10403 C 939.65 -2.82353 2.24297 0
M  V30 10404 O 938.754 -3.77509 1.66014 0
M  V30 10405 H 938.095 -0.468151 0.470883 0
M  V30 10406 H 940.625 -0.931144 1.82184 0
M  V30 10407 H 940.635 -3.31277 2.38159 0
M  V30 10408 H 939.31 -2.57449 3.26639 0
M  V30 10409 H 937.887 -3.36212 1.61294 0
M  V30 10410 N 940.072 -1.23292 -0.981677 0
M  V30 10411 C 941.318 -1.06582 -1.72535 0
M  V30 10412 C 941.651 0.396538 -1.90108 0
M  V30 10413 O 940.926 1.29363 -1.45243 0
M  V30 10414 C 941.209 -1.7904 -3.12437 0
M  V30 10415 C 941.062 -3.32941 -3.02441 0
M  V30 10416 C 942.381 -1.55185 -4.11832 0
M  V30 10417 H 939.5 -0.388585 -0.626236 0
M  V30 10418 H 942.142 -1.51779 -1.14293 0
M  V30 10419 H 940.292 -1.40619 -3.62158 0
M  V30 10420 H 941.964 -3.80875 -2.60254 0
M  V30 10421 H 940.207 -3.62039 -2.38977 0
M  V30 10422 H 940.878 -3.78827 -4.0149 0
M  V30 10423 H 943.354 -1.88581 -3.70913 0
M  V30 10424 H 942.23 -2.08362 -5.07815 0
M  V30 10425 H 942.491 -0.486925 -4.3941 0
M  V30 10426 N 941.55 1.18024 -1.04442 0
M  V30 10427 C 942.48 2.23988 -0.659683 0
M  V30 10428 C 943.461 1.6669 0.338904 0
M  V30 10429 O 944.646 1.92971 0.21817 0
M  V30 10430 C 941.776 3.4729 -0.0257672 0
M  V30 10431 C 940.73 4.17362 -0.948299 0
M  V30 10432 C 940.056 5.34401 -0.17866 0
M  V30 10433 C 941.356 4.70435 -2.26909 0
M  V30 10434 H 943.05 2.56425 -1.54553 0
M  V30 10435 H 940.596 1.23256 -0.744575 0
M  V30 10436 H 942.549 4.20627 0.255131 0
M  V30 10437 H 941.273 3.14098 0.894981 0
M  V30 10438 H 939.932 3.45928 -1.21364 0
M  V30 10439 H 939.58 4.97458 0.744614 0
M  V30 10440 H 939.28 5.8222 -0.793294 0
M  V30 10441 H 940.804 6.10526 0.0951315 0
M  V30 10442 H 942.218 5.35447 -2.04864 0
M  V30 10443 H 940.615 5.28803 -2.83703 0
M  V30 10444 H 941.685 3.87653 -2.91296 0
M  V30 10445 N 943.028 0.824394 1.34319 0
M  V30 10446 C 944.305 0.335692 1.92698 0
M  V30 10447 C 944.685 -1.17715 1.75232 0
M  V30 10448 O 944.033 -1.98493 1.13194 0
M  V30 10449 C 944.243 0.766647 3.40475 0
M  V30 10450 C 945.591 0.766323 4.17627 0
M  V30 10451 O 946.615 0.709321 3.49066 0
M  V30 10452 O 945.474 0.840856 5.39992 0
M  V30 10453 H 942.568 0.0919996 0.821867 0
M  V30 10454 H 945.114 0.909282 1.43283 0
M  V30 10455 H 943.886 1.80859 3.46995 0
M  V30 10456 H 943.509 0.168833 3.97241 0
M  V30 10457 N 944.506 -1.46559 0.579492 0
M  V30 10458 C 945.438 -2.28383 -0.19337 0
M  V30 10459 C 946.451 -1.38324 -0.858511 0
M  V30 10460 O 947.64 -1.62952 -0.728615 0
M  V30 10461 C 944.74 -3.13262 -1.29306 0
M  V30 10462 C 943.913 -4.31426 -0.720459 0
M  V30 10463 C 942.972 -4.97728 -1.70744 0
M  V30 10464 O 941.998 -5.55423 -1.24476 0
M  V30 10465 N 943.2 -4.94445 -3.04146 0
M  V30 10466 H 945.965 -2.95353 0.508611 0
M  V30 10467 H 943.526 -1.56436 0.417046 0
M  V30 10468 H 945.518 -3.54483 -1.95254 0
M  V30 10469 H 944.088 -2.48388 -1.89795 0
M  V30 10470 H 943.308 -3.94028 0.116398 0
M  V30 10471 H 944.596 -5.07808 -0.31763 0
M  V30 10472 H 943.994 -4.4881 -3.44363 0
M  V30 10473 H 942.551 -5.39616 -3.65592 0
M  V30 10474 N 945.984 -0.3171 -1.54377 0
M  V30 10475 C 947.23 0.287836 -2.00747 0
M  V30 10476 C 947.563 1.52292 -1.20502 0
M  V30 10477 O 946.838 1.92391 -0.285626 0
M  V30 10478 C 947.121 0.628423 -3.54574 0
M  V30 10479 C 946.974 -0.616922 -4.45549 0
M  V30 10480 C 948.293 1.44862 -4.15575 0
M  V30 10481 H 945.412 0.103144 -0.729747 0
M  V30 10482 H 948.054 -0.432396 -1.85014 0
M  V30 10483 H 946.204 1.24203 -3.68111 0
M  V30 10484 H 947.876 -1.25526 -4.43893 0
M  V30 10485 H 946.119 -1.24706 -4.15489 0
M  V30 10486 H 946.79 -0.334243 -5.50987 0
M  V30 10487 H 949.266 0.930015 -4.05574 0
M  V30 10488 H 948.142 1.6557 -5.23333 0
M  V30 10489 H 948.403 2.44279 -3.68484 0
M  V30 10490 N 947.462 1.57535 -0.0451378 0
M  V30 10491 C 948.709 1.92451 0.629987 0
M  V30 10492 C 949.037 0.92298 1.71206 0
M  V30 10493 O 948.292 -0.0656626 1.9559 0
M  V30 10494 C 948.591 3.34065 1.27024 0
M  V30 10495 C 948.257 4.49785 0.316971 0
M  V30 10496 C 946.919 4.81169 0.0546406 0
M  V30 10497 C 949.271 5.20111 -0.336693 0
M  V30 10498 C 946.599 5.8023 -0.86889 0
M  V30 10499 C 948.951 6.2016 -1.24838 0
M  V30 10500 C 947.615 6.49976 -1.51944 0
M  V30 10501 H 946.885 0.704228 0.230529 0
M  V30 10502 H 949.532 1.91182 -0.110328 0
M  V30 10503 H 947.837 3.31672 2.08568 0
M  V30 10504 H 949.534 3.58359 1.79945 0
M  V30 10505 H 946.124 4.2529 0.531614 0
M  V30 10506 H 950.308 4.96082 -0.147105 0
M  V30 10507 H 945.564 6.0167 -1.08643 0
M  V30 10508 H 949.738 6.73767 -1.76098 0
M  V30 10509 H 947.365 7.26551 -2.2367 0
M  V30 10510 N 948.94 -0.228186 1.55939 0
M  V30 10511 C 950.188 -0.951668 1.78291 0
M  V30 10512 C 950.509 -1.85132 0.612474 0
M  V30 10513 O 949.779 -1.92356 -0.370942 0
M  V30 10514 H 948.359 -0.354388 0.657585 0
M  V30 10515 H 951.021 -0.241635 1.93396 0
M  V30 10516 H 950.117 -1.56239 2.70177 0
M  V30 10517 N 950.418 -1.49637 -0.494624 0
M  V30 10518 C 951.348 -1.69692 -1.60396 0
M  V30 10519 C 952.329 -0.545648 -1.61111 0
M  V30 10520 O 953.514 -0.782202 -1.77751 0
M  V30 10521 C 950.644 -1.76934 -2.9885 0
M  V30 10522 C 949.598 -2.91915 -3.13001 0
M  V30 10523 C 948.924 -2.84276 -4.5287 0
M  V30 10524 C 950.224 -4.32764 -2.92426 0
M  V30 10525 H 951.918 -2.6257 -1.43866 0
M  V30 10526 H 949.464 -1.26355 -0.690679 0
M  V30 10527 H 951.417 -1.8955 -3.76362 0
M  V30 10528 H 950.141 -0.806609 -3.16483 0
M  V30 10529 H 948.8 -2.78911 -2.37916 0
M  V30 10530 H 948.448 -1.85897 -4.67388 0
M  V30 10531 H 948.148 -3.61452 -4.63278 0
M  V30 10532 H 949.672 -2.98909 -5.32434 0
M  V30 10533 H 951.086 -4.46415 -3.59703 0
M  V30 10534 H 949.483 -5.1121 -3.143 0
M  V30 10535 H 950.553 -4.46765 -1.88491 0
M  V30 10536 N 951.896 0.746133 -1.38819 0
M  V30 10537 C 952.843 1.86001 -1.36647 0
M  V30 10538 C 953.813 1.6453 -0.227849 0
M  V30 10539 O 954.998 1.86092 -0.421241 0
M  V30 10540 C 952.138 3.23388 -1.20474 0
M  V30 10541 C 951.251 3.5664 -2.43786 0
M  V30 10542 C 950.386 4.8337 -2.20287 0
M  V30 10543 C 949.425 5.09431 -3.39332 0
M  V30 10544 N 948.562 6.2736 -3.1522 0
M  V30 10545 H 953.402 1.87192 -2.31869 0
M  V30 10546 H 950.939 0.914838 -1.15192 0
M  V30 10547 H 952.897 4.02679 -1.09112 0
M  V30 10548 H 951.527 3.21505 -0.288874 0
M  V30 10549 H 950.579 2.72135 -2.65794 0
M  V30 10550 H 951.891 3.71823 -3.3249 0
M  V30 10551 H 951.045 5.70619 -2.06103 0
M  V30 10552 H 949.784 4.70341 -1.28961 0
M  V30 10553 H 948.789 4.20648 -3.54027 0
M  V30 10554 H 950.014 5.24354 -4.31544 0
M  V30 10555 H 947.96 6.15639 -2.26549 0
M  V30 10556 H 947.877 6.43078 -3.97476 0
M  V30 10557 H 949.145 7.17477 -3.04707 0
M  V30 10558 N 953.375 1.23811 0.975125 0
M  V30 10559 C 954.791 1.0019 1.24234 0
M  V30 10560 C 954.991 -0.293811 1.99346 0
M  V30 10561 O 954.047 -1.01189 2.31337 0
M  V30 10562 C 955.36 2.21218 2.03674 0
M  V30 10563 C 956.908 2.25764 2.16793 0
M  V30 10564 C 957.383 3.46394 2.99626 0
M  V30 10565 N 958.874 3.46665 3.07209 0
M  V30 10566 C 959.609 4.3666 3.71639 0
M  V30 10567 N 959.105 5.36899 4.37849 0
M  V30 10568 N 960.898 4.2439 3.68578 0
M  V30 10569 H 953.049 2.07087 0.472076 0
M  V30 10570 H 955.312 0.90838 0.271201 0
M  V30 10571 H 955.018 3.15277 1.55862 0
M  V30 10572 H 954.892 2.22733 3.04417 0
M  V30 10573 H 957.279 1.32242 2.63811 0
M  V30 10574 H 957.36 2.28279 1.15422 0
M  V30 10575 H 957.004 4.40227 2.53304 0
M  V30 10576 H 956.934 3.41121 4.01178 0
M  V30 10577 H 959.425 2.74142 2.60105 0
M  V30 10578 H 959.738 6.01816 4.84807 0
M  V30 10579 H 958.083 5.40793 4.36541 0
M  V30 10580 H 961.274 3.4532 3.16025 0
M  V30 10581 H 961.447 4.94727 4.18508 0
M  V30 10582 N 954.853 -1.17469 1.05066 0
M  V30 10583 C 956.099 -1.87976 0.761113 0
M  V30 10584 C 956.432 -1.80756 -0.709995 0
M  V30 10585 O 955.707 -1.21469 -1.51906 0
M  V30 10586 C 955.99 -3.38055 1.2406 0
M  V30 10587 C 955.843 -3.54032 2.77455 0
M  V30 10588 C 957.162 -4.32036 0.838612 0
M  V30 10589 H 954.281 -0.682573 0.277963 0
M  V30 10590 H 956.923 -1.38147 1.30443 0
M  V30 10591 H 955.073 -3.80622 0.778388 0
M  V30 10592 H 956.745 -3.20489 3.3179 0
M  V30 10593 H 954.988 -2.96352 3.16793 0
M  V30 10594 H 955.659 -4.59377 3.06066 0
M  V30 10595 H 958.135 -3.97303 1.23651 0
M  V30 10596 H 957.011 -5.35583 1.20173 0
M  V30 10597 H 957.272 -4.41349 -0.257498 0
M  V30 10598 N 956.331 -0.831506 -1.3388 0
M  V30 10599 C 957.578 -0.423674 -1.98018 0
M  V30 10600 C 957.906 1.01533 -1.65895 0
M  V30 10601 O 957.161 1.72342 -0.927183 0
M  V30 10602 C 957.46 -0.582733 -3.52617 0
M  V30 10603 C 957.126 -1.98874 -4.04673 0
M  V30 10604 C 955.788 -2.37334 -4.186 0
M  V30 10605 C 958.14 -2.90745 -4.3257 0
M  V30 10606 C 955.468 -3.66984 -4.57755 0
M  V30 10607 C 957.82 -4.19868 -4.73174 0
M  V30 10608 C 956.484 -4.58294 -4.85307 0
M  V30 10609 H 955.754 -0.155033 -0.7246 0
M  V30 10610 H 958.401 -1.05711 -1.59679 0
M  V30 10611 H 956.706 0.134052 -3.91571 0
M  V30 10612 H 958.403 -0.247576 -4.00235 0
M  V30 10613 H 954.993 -1.68001 -3.94301 0
M  V30 10614 H 959.177 -2.62272 -4.2134 0
M  V30 10615 H 954.433 -3.9657 -4.65341 0
M  V30 10616 H 958.607 -4.91138 -4.93717 0
M  V30 10617 H 956.234 -5.58805 -5.15404 0
M  V30 10618 N 957.809 1.4625 -0.587256 0
M  V30 10619 C 959.034 2.07252 -0.0784517 0
M  V30 10620 C 959.459 1.43239 1.21919 0
M  V30 10621 O 958.817 0.517791 1.73749 0
M  V30 10622 C 958.865 3.60534 0.0691037 0
M  V30 10623 O 957.969 3.96773 1.12448 0
M  V30 10624 H 957.31 0.660825 -0.064859 0
M  V30 10625 H 959.84 1.87819 -0.811491 0
M  V30 10626 H 959.85 4.0708 0.273826 0
M  V30 10627 H 958.525 4.06516 -0.878514 0
M  V30 10628 H 957.102 3.6193 0.897852 0
M  V30 10629 N 959.287 0.325282 1.54207 0
M  V30 10630 C 960.703 -0.0273036 1.59577 0
M  V30 10631 C 960.903 -1.50329 1.34177 0
M  V30 10632 O 959.959 -2.25951 1.12705 0
M  V30 10633 C 961.272 0.392468 2.98128 0
M  V30 10634 C 962.82 0.343269 3.11112 0
M  V30 10635 C 963.295 0.738229 4.52011 0
M  V30 10636 N 964.786 0.691701 4.58006 0
M  V30 10637 C 965.521 0.969479 5.65145 0
M  V30 10638 N 965.017 1.31448 6.80216 0
M  V30 10639 N 966.81 0.894926 5.5493 0
M  V30 10640 H 958.961 1.28692 1.68974 0
M  V30 10641 H 961.224 0.523399 0.790416 0
M  V30 10642 H 960.93 1.42089 3.2172 0
M  V30 10643 H 960.804 -0.241651 3.76425 0
M  V30 10644 H 963.191 -0.675946 2.87254 0
M  V30 10645 H 963.272 1.01235 2.34915 0
M  V30 10646 H 962.916 1.75537 4.76602 0
M  V30 10647 H 962.846 0.0468226 5.26579 0
M  V30 10648 H 965.337 0.436975 3.75365 0
M  V30 10649 H 965.65 1.51177 7.57869 0
M  V30 10650 H 963.995 1.35276 6.81708 0
M  V30 10651 H 967.186 0.624876 4.6391 0
M  V30 10652 H 967.359 1.11476 6.38339 0
M  V30 10653 N 960.765 -1.57509 0.0534917 0
M  V30 10654 C 961.993 -1.97098 -0.629298 0
M  V30 10655 C 962.408 -0.931128 -1.64242 0
M  V30 10656 O 961.765 0.0843866 -1.82305 0
M  V30 10657 C 961.816 -3.36767 -1.31415 0
M  V30 10658 O 961.537 -4.36766 -0.341599 0
M  V30 10659 C 963.038 -3.91127 -2.08649 0
M  V30 10660 H 960.258 -0.648611 -0.171886 0
M  V30 10661 H 962.802 -2.04145 0.120479 0
M  V30 10662 H 960.957 -3.30863 -2.01515 0
M  V30 10663 H 961.371 -5.1788 -0.830715 0
M  V30 10664 H 962.845 -4.91129 -2.51985 0
M  V30 10665 H 963.322 -3.26679 -2.9356 0
M  V30 10666 H 963.928 -4.00376 -1.43456 0
M  V30 10667 N 962.243 0.219913 -1.56058 0
M  V30 10668 C 963.193 1.27606 -1.88946 0
M  V30 10669 C 964.177 1.42209 -0.752691 0
M  V30 10670 O 965.369 1.44996 -1.01514 0
M  V30 10671 C 962.498 2.62614 -2.21108 0
M  V30 10672 C 961.584 2.51906 -3.4118 0
M  V30 10673 N 961.975 2.10851 -4.59756 0
M  V30 10674 C 960.273 2.82861 -3.44827 0
M  V30 10675 C 960.974 2.11434 -5.41914 0
M  V30 10676 N 959.95 2.51985 -4.81669 0
M  V30 10677 H 963.752 0.94957 -2.78137 0
M  V30 10678 H 961.266 0.428468 -1.56646 0
M  V30 10679 H 963.263 3.38869 -2.42844 0
M  V30 10680 H 961.923 2.96108 -1.3323 0
M  V30 10681 H 962.934 1.81956 -4.84884 0
M  V30 10682 H 959.611 3.20716 -2.67297 0
M  V30 10683 H 961.001 1.81803 -6.46836 0
M  V30 10684 N 963.721 1.49897 0.486681 0
M  V30 10685 C 964.631 1.70379 1.6127 0
M  V30 10686 C 965.647 0.58659 1.63814 0
M  V30 10687 O 966.823 0.863044 1.81971 0
M  V30 10688 C 963.888 1.77911 2.97571 0
M  V30 10689 C 962.949 3.01569 3.0554 0
M  V30 10690 C 962.182 3.08732 4.35339 0
M  V30 10691 O 962.405 2.23099 5.2496 0
M  V30 10692 O 961.339 4.01325 4.48578 0
M  V30 10693 H 965.165 2.65799 1.46916 0
M  V30 10694 H 962.75 1.33808 0.664516 0
M  V30 10695 H 964.632 1.85135 3.78554 0
M  V30 10696 H 963.307 0.856722 3.12157 0
M  V30 10697 H 962.214 2.99854 2.23693 0
M  V30 10698 H 963.547 3.93335 2.95886 0
M  V30 10699 N 965.199 -0.738761 1.39212 0
M  V30 10700 C 966.446 -1.49824 1.36231 0
M  V30 10701 C 966.774 -1.94453 -0.0429552 0
M  V30 10702 O 966.029 -1.6683 -1.02304 0
M  V30 10703 C 966.328 -2.75435 2.2775 0
M  V30 10704 C 965.994 -2.49694 3.75451 0
M  V30 10705 C 964.656 -2.42383 4.15697 0
M  V30 10706 C 967.008 -2.27587 4.68885 0
M  V30 10707 C 964.336 -2.11001 5.47444 0
M  V30 10708 C 966.688 -1.97723 6.00906 0
M  V30 10709 C 965.352 -1.88879 6.4022 0
M  V30 10710 H 964.622 -0.548247 0.498504 0
M  V30 10711 H 967.269 -0.848244 1.71689 0
M  V30 10712 H 965.574 -3.45159 1.85398 0
M  V30 10713 H 967.271 -3.33449 2.22739 0
M  V30 10714 H 963.861 -2.56261 3.43552 0
M  V30 10715 H 968.045 -2.32206 4.38628 0
M  V30 10716 H 963.301 -2.02673 5.76831 0
M  V30 10717 H 967.475 -1.79625 6.72836 0
M  V30 10718 H 965.102 -1.64327 7.42227 0
M  V30 10719 N 966.677 -1.24326 -0.968545 0
M  V30 10720 C 967.924 -1.08245 -1.71141 0
M  V30 10721 C 968.252 0.378842 -1.90775 0
M  V30 10722 O 967.507 1.29634 -1.46607 0
M  V30 10723 C 967.806 -1.76644 -3.10695 0
M  V30 10724 C 967.472 -3.26572 -3.10905 0
M  V30 10725 C 966.134 -3.67475 -3.10669 0
M  V30 10726 C 968.486 -4.22422 -3.05302 0
M  V30 10727 C 965.814 -5.02666 -3.02562 0
M  V30 10728 C 968.166 -5.57619 -2.98737 0
M  V30 10729 C 966.83 -5.9787 -2.9683 0
M  V30 10730 H 966.1 -0.396098 -0.626249 0
M  V30 10731 H 968.747 -1.54418 -1.13258 0
M  V30 10732 H 967.052 -1.22864 -3.72037 0
M  V30 10733 H 968.749 -1.61668 -3.66967 0
M  V30 10734 H 965.339 -2.94017 -3.11852 0
M  V30 10735 H 969.523 -3.91821 -3.04614 0
M  V30 10736 H 964.779 -5.3305 -2.99446 0
M  V30 10737 H 968.953 -6.31595 -2.93361 0
M  V30 10738 H 966.58 -7.02587 -2.90303 0
M  V30 10739 N 968.156 1.1691 -1.05688 0
M  V30 10740 C 969.088 2.20648 -0.620237 0
M  V30 10741 C 970.101 1.59652 0.318604 0
M  V30 10742 O 971.29 1.78157 0.110553 0
M  V30 10743 C 968.39 3.38716 0.111729 0
M  V30 10744 C 967.563 4.29277 -0.839062 0
M  V30 10745 C 966.622 5.25993 -0.147453 0
M  V30 10746 O 965.648 5.63787 -0.783151 0
M  V30 10747 N 966.85 5.69725 1.11327 0
M  V30 10748 H 969.615 2.58731 -1.51256 0
M  V30 10749 H 967.176 1.31858 -0.939412 0
M  V30 10750 H 969.168 4.00455 0.584657 0
M  V30 10751 H 967.738 2.99189 0.905784 0
M  V30 10752 H 966.958 3.64894 -1.4915 0
M  V30 10753 H 968.246 4.86669 -1.48428 0
M  V30 10754 H 967.644 5.41103 1.64999 0
M  V30 10755 H 966.201 6.33584 1.53018 0
M  V30 10756 N 969.634 0.838594 1.33437 0
M  V30 10757 C 970.581 0.269609 2.2922 0
M  V30 10758 C 971.551 -0.614429 1.54318 0
M  V30 10759 O 972.736 -0.552756 1.82618 0
M  V30 10760 C 969.876 -0.549527 3.40697 0
M  V30 10761 C 968.989 0.358502 4.3051 0
M  V30 10762 C 968.124 -0.471709 5.29101 0
M  V30 10763 C 967.163 0.434728 6.10554 0
M  V30 10764 N 966.3 -0.357339 7.0119 0
M  V30 10765 H 971.14 1.09172 2.77282 0
M  V30 10766 H 968.677 0.549832 1.36438 0
M  V30 10767 H 970.635 -1.03992 4.04032 0
M  V30 10768 H 969.265 -1.33661 2.93828 0
M  V30 10769 H 968.317 0.967204 3.67899 0
M  V30 10770 H 969.629 1.05483 4.87519 0
M  V30 10771 H 968.783 -1.02594 5.97963 0
M  V30 10772 H 967.522 -1.20147 4.72669 0
M  V30 10773 H 966.527 1.00097 5.40611 0
M  V30 10774 H 967.752 1.16285 6.6907 0
M  V30 10775 H 965.698 -1.07049 6.47207 0
M  V30 10776 H 965.615 0.280277 7.5548 0
M  V30 10777 H 966.883 -0.893814 7.74359 0
M  V30 10778 N 971.112 -1.45937 0.595003 0
M  V30 10779 C 972.337 -2.07207 0.0894416 0
M  V30 10780 C 972.762 -1.43884 -1.21157 0
M  V30 10781 O 972.12 -0.526998 -1.73472 0
M  V30 10782 C 972.168 -3.60565 -0.0499828 0
M  V30 10783 O 971.272 -3.97364 -1.10342 0
M  V30 10784 H 970.613 -0.660471 0.0683627 0
M  V30 10785 H 973.143 -1.87386 0.82144 0
M  V30 10786 H 973.153 -4.0722 -0.252234 0
M  V30 10787 H 971.828 -4.06044 0.90006 0
M  V30 10788 H 970.405 -3.62401 -0.878645 0
M  V30 10789 N 972.59 -0.333456 -1.54032 0
M  V30 10790 C 973.836 0.259248 -2.01741 0
M  V30 10791 C 974.191 1.48999 -1.21725 0
M  V30 10792 O 973.484 1.89333 -0.293882 0
M  V30 10793 C 973.678 0.63565 -3.51702 0
M  V30 10794 C 973.507 -0.55707 -4.46236 0
M  V30 10795 C 972.277 -1.05925 -4.94073 0
M  V30 10796 C 974.475 -1.41237 -4.94527 0
M  V30 10797 N 972.457 -2.21535 -5.72534 0
M  V30 10798 C 973.828 -2.41551 -5.71011 0
M  V30 10799 C 975.883 -1.43899 -4.76652 0
M  V30 10800 C 974.586 -3.44342 -6.31523 0
M  V30 10801 C 976.612 -2.45567 -5.38006 0
M  V30 10802 C 975.974 -3.44606 -6.1435 0
M  V30 10803 H 972.073 0.0584431 -0.779813 0
M  V30 10804 H 974.657 -0.470736 -1.88924 0
M  V30 10805 H 972.828 1.33475 -3.64745 0
M  V30 10806 H 974.56 1.21067 -3.86167 0
M  V30 10807 H 971.315 -0.628947 -4.69405 0
M  V30 10808 H 971.739 -2.79878 -6.16439 0
M  V30 10809 H 976.381 -0.686929 -4.17182 0
M  V30 10810 H 974.099 -4.20449 -6.90107 0
M  V30 10811 H 977.685 -2.4844 -5.26088 0
M  V30 10812 H 976.565 -4.21987 -6.60982 0
M  V30 10813 N 974.068 1.57479 -0.061844 0
M  V30 10814 C 975.317 1.92285 0.609055 0
M  V30 10815 C 975.63 0.942983 1.71369 0
M  V30 10816 O 976.836 1.18349 2.44348 0
M  V30 10817 C 975.292 3.41545 1.13468 0
M  V30 10818 C 974.9 4.47958 0.0615926 0
M  V30 10819 C 976.644 3.85368 1.78022 0
M  V30 10820 C 974.551 5.88341 0.600705 0
M  V30 10821 H 973.481 0.717656 0.23127 0
M  V30 10822 H 976.132 1.83021 -0.132466 0
M  V30 10823 H 974.514 3.45848 1.92886 0
M  V30 10824 H 975.688 4.55258 -0.712527 0
M  V30 10825 H 974.003 4.13541 -0.487116 0
M  V30 10826 H 976.6 4.87627 2.19371 0
M  V30 10827 H 976.943 3.22193 2.63623 0
M  V30 10828 H 977.476 3.83626 1.05242 0
M  V30 10829 H 974.215 6.55138 -0.217922 0
M  V30 10830 H 973.735 5.84581 1.34257 0
M  V30 10831 H 975.414 6.37918 1.08025 0
M  V30 10832 N 975.546 -0.211634 1.56173 0
M  V30 10833 C 976.776 -0.949805 1.83473 0
M  V30 10834 C 977.184 -1.78045 0.640053 0
M  V30 10835 O 976.527 -1.79277 -0.400702 0
M  V30 10836 C 976.589 -1.90868 3.04647 0
M  V30 10837 C 976.253 -1.26159 4.39241 0
M  V30 10838 C 977.25 -0.646597 5.15863 0
M  V30 10839 C 974.935 -1.27039 4.85969 0
M  V30 10840 C 976.929 -0.0490313 6.37381 0
M  V30 10841 C 974.616 -0.668987 6.07427 0
M  V30 10842 C 975.614 -0.0593687 6.82974 0
M  V30 10843 O 975.302 0.532656 8.02133 0
M  V30 10844 H 975.034 -0.283458 0.6137 0
M  V30 10845 H 977.588 -0.22894 2.0412 0
M  V30 10846 H 975.818 -2.6688 2.79843 0
M  V30 10847 H 977.507 -2.51323 3.18734 0
M  V30 10848 H 978.273 -0.632056 4.80864 0
M  V30 10849 H 974.152 -1.73429 4.27134 0
M  V30 10850 H 977.696 0.427414 6.96289 0
M  V30 10851 H 973.593 -0.680975 6.41898 0
M  V30 10852 H 974.361 0.427942 8.17381 0
M  V30 10853 N 977.024 -1.50153 -0.478725 0
M  V30 10854 C 978.254 -1.64266 -1.253 0
M  V30 10855 C 978.662 -0.322256 -1.86435 0
M  V30 10856 O 978.005 0.704925 -1.69636 0
M  V30 10857 C 978.067 -2.67017 -2.40712 0
M  V30 10858 C 977.731 -4.10779 -2.00274 0
M  V30 10859 C 978.728 -4.96889 -1.52963 0
M  V30 10860 C 976.413 -4.5665 -2.09228 0
M  V30 10861 C 978.407 -6.26914 -1.15139 0
M  V30 10862 C 976.094 -5.86683 -1.71015 0
M  V30 10863 C 977.092 -6.71641 -1.24048 0
M  V30 10864 O 976.78 -7.99248 -0.863617 0
M  V30 10865 H 976.512 -0.555382 -0.385392 0
M  V30 10866 H 979.066 -1.97078 -0.578751 0
M  V30 10867 H 977.296 -2.29432 -3.11284 0
M  V30 10868 H 978.985 -2.70428 -3.02694 0
M  V30 10869 H 979.751 -4.62669 -1.45474 0
M  V30 10870 H 975.63 -3.90674 -2.44735 0
M  V30 10871 H 979.174 -6.93179 -0.784089 0
M  V30 10872 H 975.071 -6.20426 -1.78162 0
M  V30 10873 H 975.839 -8.12452 -0.993139 0
M  V30 10874 N 978.502 0.731368 -1.39602 0
M  V30 10875 C 979.727 1.52567 -1.40492 0
M  V30 10876 C 980.152 1.881 -0.00228828 0
M  V30 10877 O 979.51 1.52167 0.985643 0
M  V30 10878 C 979.558 2.78749 -2.2876 0
M  V30 10879 O 978.662 3.7482 -1.71999 0
M  V30 10880 H 978.003 0.460601 -0.478271 0
M  V30 10881 H 980.533 0.902042 -1.83642 0
M  V30 10882 H 980.543 3.27446 -2.43399 0
M  V30 10883 H 979.218 2.5222 -3.30693 0
M  V30 10884 H 977.795 3.33604 -1.66622 0
M  V30 10885 N 979.98 1.24838 0.961938 0
M  V30 10886 C 981.257 0.99939 1.68141 0
M  V30 10887 C 981.637 -0.476588 2.0565 0
M  V30 10888 O 980.985 -1.45224 1.76415 0
M  V30 10889 C 981.195 1.92797 2.90913 0
M  V30 10890 C 982.543 2.20219 3.63027 0
M  V30 10891 O 983.567 1.90496 3.00981 0
M  V30 10892 O 982.426 2.70725 4.74731 0
M  V30 10893 H 979.52 0.37842 0.735342 0
M  V30 10894 H 982.066 1.35961 1.01551 0
M  V30 10895 H 980.838 2.92492 2.59931 0
M  V30 10896 H 980.461 1.57127 3.65235 0
M  V30 10897 N 981.458 -1.16348 1.06306 0
M  V30 10898 C 982.874 -1.38873 0.786543 0
M  V30 10899 C 983.074 -1.91915 -0.614061 0
M  V30 10900 O 982.13 -2.11804 -1.3746 0
M  V30 10901 C 983.443 -2.36936 1.85154 0
M  V30 10902 C 984.991 -2.5062 1.87506 0
M  V30 10903 C 985.466 -3.51965 2.9306 0
M  V30 10904 N 986.957 -3.59492 2.92095 0
M  V30 10905 C 987.692 -4.37699 3.70415 0
M  V30 10906 N 987.188 -5.19327 4.58553 0
M  V30 10907 N 988.981 -4.32683 3.58806 0
M  V30 10908 H 981.132 -0.802542 1.96655 0
M  V30 10909 H 983.395 -0.415304 0.852189 0
M  V30 10910 H 983.101 -2.05056 2.85736 0
M  V30 10911 H 982.975 -3.36585 1.70267 0
M  V30 10912 H 985.362 -2.81804 0.875827 0
M  V30 10913 H 985.443 -1.51006 2.06472 0
M  V30 10914 H 985.087 -3.21518 3.93177 0
M  V30 10915 H 985.017 -4.51309 2.71344 0
M  V30 10916 H 987.508 -3.01222 2.28197 0
M  V30 10917 H 987.821 -5.76216 5.1497 0
M  V30 10918 H 986.166 -5.1867 4.62608 0
M  V30 10919 H 989.357 -3.67971 2.89335 0
M  V30 10920 H 989.53 -4.93386 4.20088 0
M  V30 10921 N 982.937 -0.845659 -1.3299 0
M  V30 10922 C 984.162 -0.457435 -2.02293 0
M  V30 10923 C 984.587 0.935634 -1.63179 0
M  V30 10924 O 983.945 1.61297 -0.827835 0
M  V30 10925 C 983.993 -0.593665 -3.5568 0
M  V30 10926 O 983.097 0.37729 -4.10671 0
M  V30 10927 H 982.438 -0.185022 -0.637701 0
M  V30 10928 H 984.968 -1.14237 -1.69738 0
M  V30 10929 H 984.978 -0.477834 -4.05192 0
M  V30 10930 H 983.653 -1.60957 -3.83491 0
M  V30 10931 H 982.23 0.218448 -3.7226 0
M  V30 10932 N 984.415 1.45619 -0.602734 0
M  V30 10933 C 985.692 1.9558 -0.0282472 0
M  V30 10934 C 986.072 1.54523 1.43826 0
M  V30 10935 O 985.42 0.805456 2.13833 0
M  V30 10936 C 985.63 3.48298 -0.221263 0
M  V30 10937 C 986.978 4.24483 -0.0995249 0
M  V30 10938 O 988.002 3.55879 -0.151132 0
M  V30 10939 O 986.861 5.46497 0.0194454 0
M  V30 10940 H 983.955 0.826104 0.0384897 0
M  V30 10941 H 986.501 1.55808 -0.672456 0
M  V30 10942 H 985.273 3.71134 -1.23997 0
M  V30 10943 H 984.896 3.94948 0.458437 0
M  V30 10944 N 985.893 0.34162 1.53853 0
M  V30 10945 C 986.823 -0.508431 2.27897 0
M  V30 10946 C 987.804 -1.10425 1.29384 0
M  V30 10947 O 988.989 -1.126 1.58224 0
M  V30 10948 C 986.119 -1.66048 3.05034 0
M  V30 10949 C 985.073 -1.19309 4.11035 0
M  V30 10950 C 984.399 -2.4335 4.76114 0
M  V30 10951 C 985.699 -0.294952 5.21467 0
M  V30 10952 H 987.393 0.109251 2.99201 0
M  V30 10953 H 984.939 0.0539847 1.43899 0
M  V30 10954 H 986.892 -2.26158 3.5557 0
M  V30 10955 H 985.616 -2.30503 2.31379 0
M  V30 10956 H 984.275 -0.614809 3.61408 0
M  V30 10957 H 983.923 -3.06208 3.99056 0
M  V30 10958 H 983.623 -2.1276 5.47729 0
M  V30 10959 H 985.147 -3.0419 5.29434 0
M  V30 10960 H 986.561 -0.80285 5.67651 0
M  V30 10961 H 984.958 -0.0810221 6.00045 0
M  V30 10962 H 986.028 0.669433 4.80257 0
M  V30 10963 N 987.371 -1.57444 0.0701946 0
M  V30 10964 C 988.62 -1.92605 -0.598849 0
M  V30 10965 C 988.933 -0.952058 -1.70866 0
M  V30 10966 O 990.139 -1.19643 -2.43716 0
M  V30 10967 C 988.595 -3.42142 -1.11655 0
M  V30 10968 C 988.203 -4.47984 -0.0378355 0
M  V30 10969 C 989.947 -3.86307 -1.75975 0
M  V30 10970 C 987.854 -5.88652 -0.569495 0
M  V30 10971 H 986.784 -0.718873 -0.22746 0
M  V30 10972 H 989.435 -1.82948 0.14217 0
M  V30 10973 H 987.817 -3.46866 -1.91049 0
M  V30 10974 H 988.991 -4.54874 0.736661 0
M  V30 10975 H 987.306 -4.13277 0.50904 0
M  V30 10976 H 989.903 -4.88784 -2.16782 0
M  V30 10977 H 990.246 -3.23587 -2.61911 0
M  V30 10978 H 990.779 -3.84179 -1.03206 0
M  V30 10979 H 987.518 -6.55013 0.252662 0
M  V30 10980 H 987.038 -5.85285 -1.31155 0
M  V30 10981 H 988.717 -6.38482 -1.04641 0
M  V30 10982 N 988.849 0.203349 -1.56283 0
M  V30 10983 C 990.097 0.923183 -1.79782 0
M  V30 10984 C 990.418 1.84134 -0.64185 0
M  V30 10985 O 989.688 1.92922 0.340292 0
M  V30 10986 H 988.268 0.343881 -0.66314 0
M  V30 10987 H 990.93 0.210837 -1.93756 0
M  V30 10988 H 990.026 1.51921 -2.72629 0
M  V30 10989 N 990.327 1.50405 0.470755 0
M  V30 10990 C 991.257 1.72222 1.57676 0
M  V30 10991 C 992.238 0.57121 1.60222 0
M  V30 10992 O 993.423 0.810381 1.76484 0
M  V30 10993 C 990.553 1.81666 2.95998 0
M  V30 10994 C 989.507 2.96857 3.08318 0
M  V30 10995 C 988.833 2.91445 4.4829 0
M  V30 10996 C 990.133 4.37361 2.85504 0
M  V30 10997 H 991.827 2.64825 1.39671 0
M  V30 10998 H 989.373 1.27438 0.67049 0
M  V30 10999 H 991.326 1.95514 3.73299 0
M  V30 11000 H 990.05 0.856856 3.1516 0
M  V30 11001 H 988.709 2.82661 2.33449 0
M  V30 11002 H 988.357 1.93309 4.64371 0
M  V30 11003 H 988.057 3.68776 4.57469 0
M  V30 11004 H 989.581 3.07341 5.27611 0
M  V30 11005 H 990.995 4.52081 3.52555 0
M  V30 11006 H 989.392 5.16145 3.06127 0
M  V30 11007 H 990.462 4.49708 1.81359 0
M  V30 11008 N 991.805 -0.723954 1.39988 0
M  V30 11009 C 993.221 -1.03095 1.21834 0
M  V30 11010 C 993.421 -2.01309 0.0876647 0
M  V30 11011 O 992.477 -2.46277 -0.55714 0
M  V30 11012 C 993.79 -1.58267 2.5568 0
M  V30 11013 C 995.338 -1.70293 2.6262 0
M  V30 11014 C 995.813 -2.28872 3.96713 0
M  V30 11015 N 997.304 -2.36269 3.98411 0
M  V30 11016 C 998.039 -2.82557 4.98948 0
M  V30 11017 N 997.535 -3.28661 6.0988 0
M  V30 11018 N 999.328 -2.81866 4.86321 0
M  V30 11019 H 991.479 -0.0727891 2.12275 0
M  V30 11020 H 993.742 -0.0949029 0.943238 0
M  V30 11021 H 993.448 -0.935642 3.39026 0
M  V30 11022 H 993.322 -2.56914 2.76179 0
M  V30 11023 H 995.709 -2.34115 1.7965 0
M  V30 11024 H 995.79 -0.70268 2.45959 0
M  V30 11025 H 995.434 -1.65675 4.80119 0
M  V30 11026 H 995.364 -3.29595 4.107 0
M  V30 11027 H 997.855 -2.03697 3.18302 0
M  V30 11028 H 998.168 -3.62524 6.82493 0
M  V30 11029 H 996.513 -3.26641 6.13458 0
M  V30 11030 H 999.704 -2.45179 3.98754 0
M  V30 11031 H 999.877 -3.17626 5.64817 0
M  V30 11032 N 993.283 -1.25346 -0.955304 0
M  V30 11033 C 994.193 -1.07412 -2.08566 0
M  V30 11034 C 995.209 -0.0114424 -1.73996 0
M  V30 11035 O 996.385 -0.212236 -2.00279 0
M  V30 11036 C 993.45 -0.694141 -3.3968 0
M  V30 11037 C 992.511 -1.83468 -3.88121 0
M  V30 11038 C 991.744 -1.47274 -5.12978 0
M  V30 11039 O 991.967 -0.368086 -5.69211 0
M  V30 11040 O 990.901 -2.30269 -5.56111 0
M  V30 11041 H 994.727 -2.02206 -2.26598 0
M  V30 11042 H 992.312 -1.04279 -1.06988 0
M  V30 11043 H 994.194 -0.494325 -4.18491 0
M  V30 11044 H 992.869 0.224545 -3.2292 0
M  V30 11045 H 991.776 -2.08935 -3.10318 0
M  V30 11046 H 993.109 -2.73258 -4.09379 0
M  V30 11047 N 994.761 1.15782 -1.06922 0
M  V30 11048 C 996.038 1.8253 -0.703 0
M  V30 11049 C 996.418 1.94733 0.814994 0
M  V30 11050 O 995.766 1.49537 1.72774 0
M  V30 11051 C 995.976 3.19145 -1.41234 0
M  V30 11052 C 997.324 3.94839 -1.56164 0
M  V30 11053 O 998.348 3.28685 -1.37277 0
M  V30 11054 O 997.207 5.13436 -1.87205 0
M  V30 11055 H 994.301 0.788425 -0.24963 0
M  V30 11056 H 996.847 1.22931 -1.16988 0
M  V30 11057 H 995.619 3.05336 -2.44715 0
M  V30 11058 H 995.242 3.86427 -0.935959 0
M  V30 11059 N 996.239 0.8527 1.3254 0
M  V30 11060 C 997.171 0.253181 2.27797 0
M  V30 11061 C 998.184 -0.573977 1.52346 0
M  V30 11062 O 999.373 -0.398786 1.73988 0
M  V30 11063 C 996.473 -0.661034 3.32391 0
M  V30 11064 C 995.646 0.12984 4.37207 0
M  V30 11065 C 994.705 -0.709837 5.2139 0
M  V30 11066 O 993.731 -0.144056 5.69018 0
M  V30 11067 N 994.933 -2.0249 5.44039 0
M  V30 11068 H 997.698 1.07171 2.79883 0
M  V30 11069 H 995.259 0.712491 1.45379 0
M  V30 11070 H 997.251 -1.22806 3.85617 0
M  V30 11071 H 995.821 -1.38025 2.80478 0
M  V30 11072 H 995.041 0.878289 3.84291 0
M  V30 11073 H 996.329 0.673141 5.04328 0
M  V30 11074 H 995.727 -2.50792 5.0707 0
M  V30 11075 H 994.284 -2.5401 6.00269 0
M  V30 11076 N 997.718 -1.45297 0.610449 0
M  V30 11077 C 998.967 -2.0143 0.104323 0
M  V30 11078 C 999.28 -1.48431 -1.27388 0
M  V30 11079 O 1000.49 -1.96558 -1.87289 0
M  V30 11080 C 998.942 -3.59644 0.135812 0
M  V30 11081 C 998.55 -4.2164 1.51405 0
M  V30 11082 C 1000.29 -4.2333 -0.314922 0
M  V30 11083 C 998.201 -5.72015 1.50176 0
M  V30 11084 H 997.131 -0.753176 0.035233 0
M  V30 11085 H 999.782 -1.66738 0.7662 0
M  V30 11086 H 998.164 -3.91538 -0.592773 0
M  V30 11087 H 999.338 -4.01315 2.26457 0
M  V30 11088 H 997.653 -3.70159 1.90712 0
M  V30 11089 H 1000.25 -5.33597 -0.343335 0
M  V30 11090 H 1000.59 -3.94206 -1.33817 0
M  V30 11091 H 1001.13 -3.96163 0.360489 0
M  V30 11092 H 997.865 -6.05842 2.50271 0
M  V30 11093 H 997.385 -5.94523 0.793869 0
M  V30 11094 H 999.064 -6.35266 1.22665 0
M  V30 11095 N 999.196 -0.349774 -1.5367 0
M  V30 11096 C 1000.43 0.245682 -2.05134 0
M  V30 11097 C 1000.83 1.44269 -1.22406 0
M  V30 11098 O 1000.18 1.81938 -0.25379 0
M  V30 11099 C 1000.24 0.718439 -3.52248 0
M  V30 11100 C 999.903 -0.35975 -4.55582 0
M  V30 11101 C 1000.9 -1.20449 -5.05755 0
M  V30 11102 C 998.585 -0.515463 -4.99648 0
M  V30 11103 C 1000.58 -2.19043 -5.98581 0
M  V30 11104 C 998.266 -1.50479 -5.92283 0
M  V30 11105 C 999.264 -2.34072 -6.41638 0
M  V30 11106 O 998.952 -3.31319 -7.3245 0
M  V30 11107 H 998.684 0.0501122 -0.67414 0
M  V30 11108 H 1001.24 -0.5018 -1.99176 0
M  V30 11109 H 999.468 1.51727 -3.55691 0
M  V30 11110 H 1001.16 1.23513 -3.86651 0
M  V30 11111 H 1001.92 -1.09531 -4.7247 0
M  V30 11112 H 997.802 0.12537 -4.60829 0
M  V30 11113 H 1001.35 -2.84327 -6.37027 0
M  V30 11114 H 997.243 -1.61451 -6.24983 0
M  V30 11115 H 998.011 -3.26863 -7.50402 0
M  V30 11116 N 1000.67 1.57404 -0.0785433 0
M  V30 11117 C 1001.91 1.95621 0.592595 0
M  V30 11118 C 1002.28 0.958429 1.66367 0
M  V30 11119 O 1003.48 1.2285 2.39084 0
M  V30 11120 C 1001.75 3.38445 1.14846 0
M  V30 11121 S 1003.31 3.98645 1.83378 0
M  V30 11122 H 1000.13 0.684063 0.193851 0
M  V30 11123 H 1002.73 1.94892 -0.154007 0
M  V30 11124 H 1001.43 4.08843 0.357179 0
M  V30 11125 H 1000.96 3.42733 1.93127 0
M  V30 11126 H 1002.98 3.86099 3.11676 0
M  V30 11127 N 1002.15 -0.195058 1.56388 0
M  V30 11128 C 1003.08 -1.24444 1.97575 0
M  V30 11129 C 1004.06 -1.47471 0.847717 0
M  V30 11130 O 1005.25 -1.59208 1.11205 0
M  V30 11131 C 1002.38 -2.58866 2.31529 0
M  V30 11132 C 1001.33 -2.50451 3.47071 0
M  V30 11133 C 1000.66 -3.89146 3.667 0
M  V30 11134 C 1001.96 -2.02953 4.81256 0
M  V30 11135 H 1003.65 -0.902178 2.85484 0
M  V30 11136 H 1001.2 -0.43254 1.3735 0
M  V30 11137 H 1003.15 -3.3246 2.58936 0
M  V30 11138 H 1001.87 -2.94833 1.40502 0
M  V30 11139 H 1000.53 -1.79313 3.19754 0
M  V30 11140 H 1000.18 -4.22466 2.73004 0
M  V30 11141 H 999.882 -3.84391 4.44429 0
M  V30 11142 H 1001.41 -4.64363 3.96484 0
M  V30 11143 H 1002.82 -2.66306 5.07695 0
M  V30 11144 H 1001.22 -2.092 5.62455 0
M  V30 11145 H 1002.29 -0.982757 4.74837 0
M  V30 11146 N 1003.63 -1.50653 -0.462772 0
M  V30 11147 C 1004.91 -1.5258 -1.22387 0
M  V30 11148 C 1005.29 -0.275263 -2.09298 0
M  V30 11149 O 1004.63 0.740943 -2.16153 0
M  V30 11150 C 1004.84 -2.82611 -2.04773 0
M  V30 11151 C 1006.19 -3.33592 -2.62681 0
M  V30 11152 O 1007.22 -2.83989 -2.15008 0
M  V30 11153 O 1006.08 -4.20081 -3.49563 0
M  V30 11154 H 1003.17 -0.612367 -0.55582 0
M  V30 11155 H 1005.72 -1.62948 -0.473914 0
M  V30 11156 H 1004.49 -3.65098 -1.40781 0
M  V30 11157 H 1004.11 -2.75286 -2.86886 0
M  V30 11158 N 1005.11 0.71652 -1.4037 0
M  V30 11159 C 1006.07 1.81231 -1.40313 0
M  V30 11160 C 1007.07 1.58032 -0.297087 0
M  V30 11161 O 1008.26 1.65091 -0.555944 0
M  V30 11162 C 1005.39 3.19308 -1.19395 0
M  V30 11163 H 1006.59 1.8268 -2.3784 0
M  V30 11164 H 1004.14 0.922062 -1.26205 0
M  V30 11165 H 1004.87 3.2351 -0.226252 0
M  V30 11166 H 1004.66 3.37546 -1.99512 0
M  V30 11167 H 1006.15 3.99339 -1.22141 0
M  V30 11168 N 1006.59 1.25851 0.948643 0
M  V30 11169 C 1007.81 1.13813 1.73382 0
M  V30 11170 C 1008.24 -0.303615 1.85633 0
M  V30 11171 O 1007.59 -1.21997 1.34114 0
M  V30 11172 C 1007.64 1.80388 3.12238 0
M  V30 11173 O 1006.75 1.08759 3.978 0
M  V30 11174 H 1006.09 0.397006 0.532243 0
M  V30 11175 H 1008.62 1.66529 1.18866 0
M  V30 11176 H 1008.63 1.86913 3.62667 0
M  V30 11177 H 1007.3 2.85278 3.02637 0
M  V30 11178 H 1005.88 1.10157 3.56258 0
M  V30 11179 N 1008.06 -1.15214 1.07534 0
M  V30 11180 C 1009.01 -2.22078 0.69168 0
M  V30 11181 C 1010.01 -1.66751 -0.298382 0
M  V30 11182 O 1011.21 -1.7927 -0.161897 0
M  V30 11183 H 1007.59 -0.723347 0.205604 0
M  V30 11184 H 1009.56 -2.51716 1.60256 0
M  V30 11185 C 1008.31 -3.47534 0.107546 0
M  V30 11186 H 1007.63 -3.90429 0.860522 0
M  V30 11187 H 1009.07 -4.23821 -0.123215 0
M  V30 11188 C 1007.53 -3.16583 -1.15226 0
M  V30 11189 O 1008.06 -3.33551 -2.23845 0
M  V30 11190 N 1006.27 -2.70611 -1.05915 0
M  V30 11191 H 1005.81 -2.57004 -0.175198 0
M  V30 11192 H 1005.77 -2.50277 -1.90287 0
M  V30 11193 N 1009.54 -0.859717 -1.32086 0
M  V30 11194 C 1010.79 -0.464662 -1.96686 0
M  V30 11195 C 1011.11 0.98412 -1.68345 0
M  V30 11196 O 1010.38 1.68847 -0.993361 0
M  V30 11197 H 1008.96 -0.168838 -0.727669 0
M  V30 11198 H 1011.62 -1.09726 -1.61079 0
M  V30 11199 H 1010.72 -0.613904 -3.06003 0
M  V30 11200 N 1011.02 1.44971 -0.618145 0
M  V30 11201 C 1012.43 1.85611 -0.201334 0
M  V30 11202 C 1012.78 1.51698 1.24427 0
M  V30 11203 O 1011.91 0.94875 1.94493 0
M  V30 11204 C 1012.5 3.36897 -0.358619 0
M  V30 11205 C 1011.06 3.764 0.00358196 0
M  V30 11206 C 1010.21 2.68881 -0.678118 0
M  V30 11207 H 1013.16 1.35622 -0.824152 0
M  V30 11208 H 1013.18 3.78326 0.406176 0
M  V30 11209 H 1012.69 3.61548 -1.41084 0
M  V30 11210 H 1010.79 3.57365 1.05457 0
M  V30 11211 H 1010.91 4.77449 -0.397427 0
M  V30 11212 H 1009.27 2.54442 -0.114699 0
M  V30 11213 H 1010.05 2.96367 -1.73268 0
M  V30 11214 N 1012.5 0.357919 1.53482 0
M  V30 11215 C 1013.73 -0.23514 2.05559 0
M  V30 11216 C 1014.14 -1.43068 1.23195 0
M  V30 11217 O 1013.5 -1.80481 0.270741 0
M  V30 11218 C 1013.55 -0.636147 3.55859 0
M  V30 11219 O 1013.27 0.511864 4.35099 0
M  V30 11220 C 1014.77 -1.28841 4.24164 0
M  V30 11221 H 1011.99 -0.0428446 0.669631 0
M  V30 11222 H 1014.54 0.51407 1.97933 0
M  V30 11223 H 1012.69 -1.33528 3.63661 0
M  V30 11224 H 1013.1 0.189328 5.24158 0
M  V30 11225 H 1014.58 -1.51962 5.30671 0
M  V30 11226 H 1015.06 -2.24638 3.77405 0
M  V30 11227 H 1015.66 -0.630914 4.20594 0
M  V30 11228 N 1013.98 -1.5736 0.0868897 0
M  V30 11229 C 1015.22 -1.95933 -0.582212 0
M  V30 11230 C 1015.58 -0.967238 -1.65857 0
M  V30 11231 O 1016.78 -1.24116 -2.3843 0
M  V30 11232 C 1015.05 -3.39049 -1.1305 0
M  V30 11233 S 1016.61 -3.99612 -1.81262 0
M  V30 11234 H 1013.43 -0.685082 -0.190221 0
M  V30 11235 H 1016.03 -1.94808 0.164341 0
M  V30 11236 H 1014.74 -4.09026 -0.335492 0
M  V30 11237 H 1014.27 -3.43752 -1.91307 0
M  V30 11238 H 1016.28 -3.87747 -3.09624 0
M  V30 11239 N 1015.45 0.186762 -1.56489 0
M  V30 11240 C 1016.7 0.902594 -1.82277 0
M  V30 11241 C 1017.06 1.80536 -0.665179 0
M  V30 11242 O 1016.35 1.88573 0.339224 0
M  V30 11243 C 1016.54 1.74719 -3.11782 0
M  V30 11244 C 1016.37 0.92769 -4.40027 0
M  V30 11245 C 1015.14 0.608832 -5.01619 0
M  V30 11246 C 1017.34 0.276471 -5.13556 0
M  V30 11247 N 1015.32 -0.228425 -6.13475 0
M  V30 11248 C 1016.69 -0.42262 -6.18558 0
M  V30 11249 C 1018.75 0.19305 -4.97526 0
M  V30 11250 C 1017.45 -1.1972 -7.09267 0
M  V30 11251 C 1019.48 -0.568152 -5.88665 0
M  V30 11252 C 1018.84 -1.25566 -6.93118 0
M  V30 11253 H 1014.94 0.309403 -0.718188 0
M  V30 11254 H 1017.52 0.170693 -1.9395 0
M  V30 11255 H 1015.69 2.45063 -3.01328 0
M  V30 11256 H 1017.42 2.40314 -3.25625 0
M  V30 11257 H 1014.18 0.935247 -4.64274 0
M  V30 11258 H 1014.6 -0.636908 -6.73997 0
M  V30 11259 H 1019.25 0.71023 -4.16792 0
M  V30 11260 H 1016.96 -1.72578 -7.89457 0
M  V30 11261 H 1020.55 -0.634164 -5.78333 0
M  V30 11262 H 1019.43 -1.83524 -7.62423 0
M  V30 11263 N 1016.93 1.50896 0.454776 0
M  V30 11264 C 1017.88 1.71497 1.57136 0
M  V30 11265 C 1018.87 0.58098 1.59126 0
M  V30 11266 O 1020.08 0.761916 1.63079 0
M  V30 11267 H 1016.46 0.54158 0.521724 0
M  V30 11268 H 1018.43 2.65129 1.36928 0
M  V30 11269 C 1017.18 1.84125 2.94947 0
M  V30 11270 H 1016.5 2.7078 2.9414 0
M  V30 11271 H 1017.94 2.02558 3.72487 0
M  V30 11272 C 1016.4 0.596752 3.31573 0
M  V30 11273 O 1016.93 -0.256632 4.00879 0
M  V30 11274 N 1015.13 0.445958 2.87158 0
M  V30 11275 H 1014.68 1.14146 2.30929 0
M  V30 11276 H 1014.64 -0.385519 3.12027 0
M  V30 11277 N 1018.41 -0.709066 1.40748 0
M  V30 11278 C 1019.66 -1.46611 1.39103 0
M  V30 11279 C 1019.98 -1.95 -0.00365366 0
M  V30 11280 O 1019.25 -1.70791 -0.959541 0
M  V30 11281 H 1017.83 -0.543954 0.511979 0
M  V30 11282 H 1020.49 -0.840141 1.75863 0
M  V30 11283 H 1019.59 -2.33581 2.06994 0
M  V30 11284 N 1019.89 -1.26353 -0.941956 0
M  V30 11285 C 1020.82 -1.03634 -2.04432 0
M  V30 11286 C 1021.83 0.00295864 -1.628 0
M  V30 11287 O 1023.02 -0.237029 -1.76919 0
M  V30 11288 C 1020.12 -0.547231 -3.34453 0
M  V30 11289 C 1019.3 -1.65559 -4.04857 0
M  V30 11290 C 1018.36 -1.16466 -5.13149 0
M  V30 11291 O 1017.38 -1.86158 -5.37898 0
M  V30 11292 N 1018.58 -0.0126703 -5.80499 0
M  V30 11293 H 1021.35 -1.98558 -2.24488 0
M  V30 11294 H 1018.91 -1.17728 -1.11138 0
M  V30 11295 H 1020.9 -0.203004 -4.04191 0
M  V30 11296 H 1019.47 0.308401 -3.11075 0
M  V30 11297 H 1018.69 -2.17079 -3.29044 0
M  V30 11298 H 1019.98 -2.39985 -4.48647 0
M  V30 11299 H 1019.38 0.569358 -5.62828 0
M  V30 11300 H 1017.93 0.272486 -6.5123 0
M  V30 11301 N 1021.37 1.14642 -1.08144 0
M  V30 11302 C 1022.64 1.81774 -0.72232 0
M  V30 11303 C 1023.02 1.95587 0.794294 0
M  V30 11304 O 1022.37 1.51361 1.71178 0
M  V30 11305 C 1022.58 3.1763 -1.44611 0
M  V30 11306 C 1023.93 3.93161 -1.60343 0
M  V30 11307 O 1024.95 3.2721 -1.40755 0
M  V30 11308 O 1023.81 5.11422 -1.9264 0
M  V30 11309 H 1020.91 0.785733 -0.257978 0
M  V30 11310 H 1023.45 1.21683 -1.18285 0
M  V30 11311 H 1022.23 3.02723 -2.4794 0
M  V30 11312 H 1021.85 3.85412 -0.976892 0
M  V30 11313 N 1022.85 0.866709 1.31628 0
M  V30 11314 C 1024.09 0.475086 1.96437 0
M  V30 11315 C 1024.41 -0.975179 1.68865 0
M  V30 11316 O 1023.68 -1.68317 1.0023 0
M  V30 11317 H 1022.26 0.172695 0.726764 0
M  V30 11318 H 1024.93 1.10578 1.60494 0
M  V30 11319 H 1024.02 0.630123 3.05673 0
M  V30 11320 N 1024.32 -1.44642 0.625825 0
M  V30 11321 C 1025.57 -2.01695 0.127948 0
M  V30 11322 C 1025.89 -1.49439 -1.25271 0
M  V30 11323 O 1025.16 -0.695873 -1.83124 0
M  V30 11324 H 1023.74 -0.745685 0.0443096 0
M  V30 11325 H 1026.4 -1.7721 0.811332 0
M  V30 11326 H 1025.5 -3.11966 0.0915933 0
M  V30 11327 N 1025.8 -0.366053 -1.5329 0
M  V30 11328 C 1026.73 0.47211 -2.28677 0
M  V30 11329 C 1027.71 1.08353 -1.31125 0
M  V30 11330 O 1028.9 1.10069 -1.59995 0
M  V30 11331 C 1026.03 1.61174 -3.07637 0
M  V30 11332 C 1024.98 1.12755 -4.12881 0
M  V30 11333 C 1024.31 2.35745 -4.79925 0
M  V30 11334 C 1025.61 0.211954 -5.2187 0
M  V30 11335 H 1027.3 -0.156838 -2.98989 0
M  V30 11336 H 1024.85 -0.0768709 -1.43795 0
M  V30 11337 H 1026.8 2.20473 -3.59123 0
M  V30 11338 H 1025.52 2.26793 -2.35016 0
M  V30 11339 H 1024.18 0.557234 -3.6234 0
M  V30 11340 H 1023.83 2.99821 -4.03877 0
M  V30 11341 H 1023.53 2.04019 -5.51044 0
M  V30 11342 H 1025.06 2.95729 -5.34207 0
M  V30 11343 H 1026.47 0.71244 -5.68856 0
M  V30 11344 H 1024.87 -0.0144501 -6.00098 0
M  V30 11345 H 1025.94 -0.745753 -4.79131 0
M  V30 11346 N 1027.28 1.57312 -0.0952337 0
M  V30 11347 C 1028.19 2.17556 0.877877 0
M  V30 11348 C 1029.21 1.14505 1.31014 0
M  V30 11349 O 1030.38 1.46876 1.37802 0
M  V30 11350 C 1027.45 2.74413 2.11892 0
M  V30 11351 C 1026.51 3.92419 1.74085 0
M  V30 11352 C 1025.74 4.46556 2.92273 0
M  V30 11353 O 1025.96 3.99631 4.07002 0
M  V30 11354 O 1024.9 5.37576 2.70732 0
M  V30 11355 H 1028.72 3.01116 0.395312 0
M  V30 11356 H 1026.31 1.48841 0.129123 0
M  V30 11357 H 1028.19 3.10754 2.84622 0
M  V30 11358 H 1026.87 1.93899 2.59201 0
M  V30 11359 H 1025.77 3.6089 0.985346 0
M  V30 11360 H 1027.11 4.74298 1.31539 0
M  V30 11361 N 1028.76 -0.17846 1.56586 0
M  V30 11362 C 1030.01 -0.894464 1.81228 0
M  V30 11363 C 1030.33 -1.83089 0.671062 0
M  V30 11364 O 1029.6 -1.93439 -0.309557 0
M  V30 11365 H 1028.18 -0.333288 0.668527 0
M  V30 11366 H 1030.84 -0.179986 1.94067 0
M  V30 11367 H 1029.93 -1.47565 2.75011 0
M  V30 11368 N 1030.24 -1.51135 -0.446768 0
M  V30 11369 C 1031.17 -1.74709 -1.54916 0
M  V30 11370 C 1032.15 -0.596628 -1.59293 0
M  V30 11371 O 1033.33 -0.838356 -1.75172 0
M  V30 11372 C 1030.46 -1.86353 -2.9307 0
M  V30 11373 C 1029.42 -3.01725 -3.03556 0
M  V30 11374 C 1028.74 -2.9854 -4.43597 0
M  V30 11375 C 1030.04 -4.41848 -2.7851 0
M  V30 11376 H 1031.74 -2.67014 -1.3544 0
M  V30 11377 H 1029.28 -1.28489 -0.650131 0
M  V30 11378 H 1031.23 -2.01428 -3.70141 0
M  V30 11379 H 1029.96 -0.906887 -3.13756 0
M  V30 11380 H 1028.62 -2.86339 -2.28922 0
M  V30 11381 H 1028.27 -2.00673 -4.61237 0
M  V30 11382 H 1027.97 -3.76008 -4.51544 0
M  V30 11383 H 1029.49 -3.15696 -5.22655 0
M  V30 11384 H 1030.9 -4.57633 -3.45319 0
M  V30 11385 H 1029.3 -5.2095 -2.97877 0
M  V30 11386 H 1030.37 -4.52536 -1.74182 0
M  V30 11387 N 1031.71 0.701592 -1.41122 0
M  V30 11388 C 1033.13 1.01143 -1.23459 0
M  V30 11389 C 1033.33 2.01144 -0.11968 0
M  V30 11390 O 1032.39 2.47132 0.517889 0
M  V30 11391 C 1033.7 1.54179 -2.58165 0
M  V30 11392 C 1035.25 1.66093 -2.65296 0
M  V30 11393 C 1035.72 2.22532 -4.00304 0
M  V30 11394 N 1037.21 2.299 -4.0212 0
M  V30 11395 C 1037.95 2.74584 -5.0338 0
M  V30 11396 N 1037.44 3.18917 -6.15032 0
M  V30 11397 N 1039.24 2.74094 -4.90743 0
M  V30 11398 H 1031.39 0.0390087 -2.12364 0
M  V30 11399 H 1033.65 0.0798848 -0.944628 0
M  V30 11400 H 1033.36 0.881587 -3.40472 0
M  V30 11401 H 1033.23 2.52488 -2.80231 0
M  V30 11402 H 1035.62 2.31227 -1.83352 0
M  V30 11403 H 1035.7 0.663461 -2.47046 0
M  V30 11404 H 1035.34 1.58016 -4.82694 0
M  V30 11405 H 1035.27 3.2302 -4.15891 0
M  V30 11406 H 1037.76 1.98607 -3.21502 0
M  V30 11407 H 1038.08 3.5162 -6.88174 0
M  V30 11408 H 1036.42 3.1684 -6.18577 0
M  V30 11409 H 1039.61 2.38804 -4.02604 0
M  V30 11410 H 1039.79 3.086 -5.69798 0
M  V30 11411 N 1033.19 1.2685 0.935242 0
M  V30 11412 C 1034.12 1.04717 2.0388 0
M  V30 11413 C 1035.14 0.00567507 1.62799 0
M  V30 11414 O 1036.33 0.246408 1.76791 0
M  V30 11415 C 1033.43 0.56496 3.34158 0
M  V30 11416 C 1032.6 1.67704 4.03973 0
M  V30 11417 C 1031.66 1.19186 5.12524 0
M  V30 11418 O 1030.68 1.89008 5.36903 0
M  V30 11419 N 1031.89 0.0434554 5.80484 0
M  V30 11420 H 1034.65 1.99746 2.23431 0
M  V30 11421 H 1032.21 1.18316 1.10512 0
M  V30 11422 H 1034.2 0.224436 4.04077 0
M  V30 11423 H 1032.77 -0.291899 3.11234 0
M  V30 11424 H 1031.99 2.18821 3.27889 0
M  V30 11425 H 1033.28 2.42361 4.47368 0
M  V30 11426 H 1032.68 -0.539502 5.63122 0
M  V30 11427 H 1031.24 -0.237946 6.51366 0
M  V30 11428 N 1034.67 -1.14067 1.0875 0
M  V30 11429 C 1035.62 -2.19261 0.720633 0
M  V30 11430 C 1036.59 -1.63462 -0.294847 0
M  V30 11431 O 1037.77 -1.89967 -0.178058 0
M  V30 11432 C 1034.91 -3.44816 0.139873 0
M  V30 11433 C 1034.03 -4.1475 1.20856 0
M  V30 11434 C 1033.16 -5.27899 0.591285 0
M  V30 11435 C 1032.2 -5.89672 1.64176 0
M  V30 11436 N 1031.34 -6.94264 1.04603 0
M  V30 11437 H 1036.18 -2.49991 1.62198 0
M  V30 11438 H 1033.71 -1.22757 0.810497 0
M  V30 11439 H 1035.67 -4.16648 -0.214587 0
M  V30 11440 H 1034.3 -3.14558 -0.724774 0
M  V30 11441 H 1033.35 -3.41272 1.6804 0
M  V30 11442 H 1034.67 -4.56753 2.00446 0
M  V30 11443 H 1033.82 -6.06417 0.185271 0
M  V30 11444 H 1032.56 -4.87128 -0.236236 0
M  V30 11445 H 1031.56 -5.09854 2.05739 0
M  V30 11446 H 1032.79 -6.32517 2.47182 0
M  V30 11447 H 1030.73 -6.55562 0.239664 0
M  V30 11448 H 1030.65 -7.34771 1.77898 0
M  V30 11449 H 1031.92 -7.7665 0.665989 0
M  V30 11450 N 1036.15 -0.873678 -1.31166 0
M  V30 11451 C 1037.4 -0.485497 -1.96182 0
M  V30 11452 C 1037.72 0.96621 -1.69379 0
M  V30 11453 O 1036.99 1.67783 -1.01121 0
M  V30 11454 H 1035.57 -0.176547 -0.725838 0
M  V30 11455 H 1038.23 -1.11428 -1.59906 0
M  V30 11456 H 1037.33 -0.646325 -3.05334 0
M  V30 11457 N 1037.63 1.44308 -0.633487 0
M  V30 11458 C 1038.87 2.02863 -0.14765 0
M  V30 11459 C 1039.23 1.48956 1.21778 0
M  V30 11460 O 1038.52 0.664997 1.7969 0
M  V30 11461 C 1038.71 3.57316 -0.0773886 0
M  V30 11462 C 1038.54 4.26208 -1.43446 0
M  V30 11463 C 1037.31 4.63087 -2.02184 0
M  V30 11464 C 1039.51 4.56501 -2.36879 0
M  V30 11465 N 1037.49 5.16957 -3.31102 0
M  V30 11466 C 1038.86 5.11479 -3.50413 0
M  V30 11467 C 1040.92 4.38454 -2.35929 0
M  V30 11468 C 1039.62 5.50311 -4.63196 0
M  V30 11469 C 1041.65 4.78336 -3.47777 0
M  V30 11470 C 1041.01 5.3343 -4.60035 0
M  V30 11471 H 1037.11 0.775835 -0.0980038 0
M  V30 11472 H 1039.69 1.75767 -0.837495 0
M  V30 11473 H 1037.86 3.84019 0.581743 0
M  V30 11474 H 1039.6 4.02541 0.417494 0
M  V30 11475 H 1036.35 4.47482 -1.55103 0
M  V30 11476 H 1036.78 5.48366 -3.97019 0
M  V30 11477 H 1041.42 3.9515 -1.50387 0
M  V30 11478 H 1039.14 5.92568 -5.49444 0
M  V30 11479 H 1042.72 4.66084 -3.4822 0
M  V30 11480 H 1041.6 5.63719 -5.45151 0
M  V30 11481 N 1039.1 0.374177 1.53094 0
M  V30 11482 C 1040.33 -0.215903 2.06273 0
M  V30 11483 C 1040.75 -1.40979 1.24526 0
M  V30 11484 O 1040.11 -1.79331 0.266462 0
M  V30 11485 C 1040.16 -0.579089 3.5592 0
M  V30 11486 O 1039.26 -1.67516 3.76845 0
M  V30 11487 H 1038.61 -0.0293981 0.663349 0
M  V30 11488 H 1041.14 0.537271 1.9742 0
M  V30 11489 H 1041.15 -0.847678 3.99097 0
M  V30 11490 H 1039.82 0.293843 4.14861 0
M  V30 11491 H 1038.4 -1.40146 3.45563 0
M  V30 11492 N 1040.58 -1.57259 0.103575 0
M  V30 11493 C 1041.51 -2.17509 -0.84923 0
M  V30 11494 C 1042.49 -1.11079 -1.28824 0
M  V30 11495 O 1043.68 -1.39252 -1.35361 0
M  V30 11496 C 1040.81 -2.76221 -2.10522 0
M  V30 11497 C 1039.76 -3.88098 -1.80454 0
M  V30 11498 C 1039.09 -4.33549 -3.12952 0
M  V30 11499 C 1040.39 -5.10909 -1.08486 0
M  V30 11500 H 1042.08 -2.9738 -0.347217 0
M  V30 11501 H 1039.63 -1.43045 -0.165568 0
M  V30 11502 H 1041.58 -3.17024 -2.77621 0
M  V30 11503 H 1040.31 -1.93617 -2.63021 0
M  V30 11504 H 1038.96 -3.47847 -1.15749 0
M  V30 11505 H 1038.61 -3.47825 -3.63355 0
M  V30 11506 H 1038.31 -5.08984 -2.93614 0
M  V30 11507 H 1039.84 -4.76992 -3.81196 0
M  V30 11508 H 1041.25 -5.48828 -1.65711 0
M  V30 11509 H 1039.65 -5.91828 -0.992973 0
M  V30 11510 H 1040.72 -4.84851 -0.0690108 0
M  V30 11511 N 1042.06 0.170153 -1.56679 0
M  V30 11512 C 1043.31 0.887906 -1.8233 0
M  V30 11513 C 1043.64 1.81845 -0.681608 0
M  V30 11514 O 1042.91 1.9191 0.316362 0
M  V30 11515 C 1043.2 1.68256 -3.18374 0
M  V30 11516 C 1043.05 0.775059 -4.43072 0
M  V30 11517 C 1044.37 2.65001 -3.51372 0
M  V30 11518 H 1041.49 0.32135 -0.663252 0
M  V30 11519 H 1044.13 0.154065 -1.89374 0
M  V30 11520 H 1042.28 2.30817 -3.12499 0
M  V30 11521 H 1043.95 0.162234 -4.61015 0
M  V30 11522 H 1042.2 0.0831809 -4.3372 0
M  V30 11523 H 1042.87 1.36661 -5.34816 0
M  V30 11524 H 1045.34 2.12566 -3.57708 0
M  V30 11525 H 1044.22 3.17667 -4.47637 0
M  V30 11526 H 1044.48 3.45255 -2.76136 0
M  V30 11527 N 1043.54 1.5137 0.438746 0
M  V30 11528 C 1044.76 1.68058 1.21537 0
M  V30 11529 C 1045.19 0.376787 1.84288 0
M  V30 11530 O 1044.55 -0.662911 1.68746 0
M  V30 11531 C 1044.59 2.79684 2.27616 0
M  V30 11532 O 1043.7 2.43189 3.33066 0
M  V30 11533 H 1043.04 0.560408 0.356144 0
M  V30 11534 H 1045.57 1.97926 0.518311 0
M  V30 11535 H 1045.58 3.03726 2.72423 0
M  V30 11536 H 1044.25 3.74293 1.81321 0
M  V30 11537 H 1042.83 2.29713 2.93746 0
M  V30 11538 N 1045.02 -0.694098 1.41492 0
M  V30 11539 C 1045.95 -1.82042 1.46229 0
M  V30 11540 C 1046.93 -1.67047 0.320803 0
M  V30 11541 O 1048.11 -1.86758 0.53245 0
M  V30 11542 C 1045.24 -3.2019 1.34519 0
M  V30 11543 C 1044.2 -3.49892 2.46495 0
M  V30 11544 C 1043.52 -4.87411 2.1985 0
M  V30 11545 C 1044.82 -3.4872 3.88834 0
M  V30 11546 H 1046.52 -1.78335 2.40493 0
M  V30 11547 H 1044.06 -0.856566 1.15754 0
M  V30 11548 H 1046.02 -3.98699 1.36445 0
M  V30 11549 H 1044.74 -3.24527 0.367406 0
M  V30 11550 H 1043.4 -2.73734 2.43854 0
M  V30 11551 H 1043.05 -4.88375 1.20411 0
M  V30 11552 H 1042.75 -5.08248 2.94885 0
M  V30 11553 H 1044.27 -5.68228 2.23494 0
M  V30 11554 H 1045.68 -4.1723 3.93182 0
M  V30 11555 H 1044.08 -3.81089 4.63564 0
M  V30 11556 H 1045.15 -2.47665 4.16881 0
M  V30 11557 N 1046.49 -1.27344 -0.928501 0
M  V30 11558 C 1047.42 -1.12517 -2.04602 0
M  V30 11559 C 1048.41 -0.0268563 -1.70079 0
M  V30 11560 O 1049.59 -0.201197 -1.93155 0
M  V30 11561 C 1046.72 -0.770749 -3.3864 0
M  V30 11562 C 1045.67 -1.8222 -3.87272 0
M  V30 11563 C 1045 -1.32178 -5.18105 0
M  V30 11564 C 1046.3 -3.22614 -4.10752 0
M  V30 11565 H 1047.99 -2.06 -2.17265 0
M  V30 11566 H 1045.54 -0.991827 -1.04397 0
M  V30 11567 H 1047.49 -0.653843 -4.16297 0
M  V30 11568 H 1046.22 0.19979 -3.25988 0
M  V30 11569 H 1044.88 -1.928 -3.11807 0
M  V30 11570 H 1044.52 -0.340719 -5.01845 0
M  V30 11571 H 1044.22 -2.02474 -5.51614 0
M  V30 11572 H 1045.75 -1.2178 -5.98333 0
M  V30 11573 H 1047.16 -3.1504 -4.78981 0
M  V30 11574 H 1045.56 -3.90614 -4.55566 0
M  V30 11575 H 1046.63 -3.67727 -3.16077 0
M  V30 11576 N 1047.97 1.13488 -1.09353 0
M  V30 11577 C 1048.91 2.17951 -0.67622 0
M  V30 11578 C 1049.88 1.59482 0.316906 0
M  V30 11579 O 1051.07 1.8723 0.218459 0
M  V30 11580 C 1048.19 3.387 0.00391024 0
M  V30 11581 C 1047.24 4.15764 -0.950906 0
M  V30 11582 S 1048.07 4.75517 -2.46259 0
M  V30 11583 C 1049.23 5.99613 -1.79485 0
M  V30 11584 H 1049.46 2.53012 -1.56115 0
M  V30 11585 H 1047 1.24773 -0.909447 0
M  V30 11586 H 1048.95 4.08643 0.39002 0
M  V30 11587 H 1047.61 3.01941 0.86548 0
M  V30 11588 H 1046.81 5.02229 -0.422086 0
M  V30 11589 H 1046.41 3.51473 -1.27838 0
M  V30 11590 H 1048.7 6.68204 -1.11846 0
M  V30 11591 H 1049.64 6.57102 -2.63862 0
M  V30 11592 H 1050.05 5.50165 -1.26409 0
M  V30 11593 N 1049.45 0.880621 1.30701 0
M  V30 11594 C 1050.7 0.492957 1.95583 0
M  V30 11595 C 1051.01 -0.961863 1.70316 0
M  V30 11596 O 1052.22 -1.45617 2.29146 0
M  V30 11597 C 1050.68 0.830656 3.50183 0
M  V30 11598 C 1050.28 2.30295 3.84276 0
M  V30 11599 C 1052.03 0.511979 4.21401 0
M  V30 11600 C 1049.93 2.58251 5.32034 0
M  V30 11601 H 1048.86 0.18062 0.732047 0
M  V30 11602 H 1051.52 1.075 1.48715 0
M  V30 11603 H 1049.9 0.177752 3.95601 0
M  V30 11604 H 1051.07 2.99981 3.49783 0
M  V30 11605 H 1049.39 2.58873 3.2615 0
M  V30 11606 H 1051.98 0.697935 5.30125 0
M  V30 11607 H 1052.33 -0.548327 4.12673 0
M  V30 11608 H 1052.86 1.12189 3.81652 0
M  V30 11609 H 1049.6 3.63005 5.45809 0
M  V30 11610 H 1049.12 1.9317 5.67843 0
M  V30 11611 H 1050.8 2.43527 5.99419 0
M  V30 11612 N 1050.93 -1.4397 0.641131 0
M  V30 11613 C 1052.21 -1.95436 0.0800918 0
M  V30 11614 C 1052.59 -1.58282 -1.39678 0
M  V30 11615 O 1051.93 -0.861867 -2.11623 0
M  V30 11616 C 1052.14 -3.47589 0.313531 0
M  V30 11617 C 1053.49 -4.2407 0.212034 0
M  V30 11618 O 1054.52 -3.55353 0.245434 0
M  V30 11619 O 1053.38 -5.46356 0.125455 0
M  V30 11620 H 1050.47 -0.826834 -0.0165735 0
M  V30 11621 H 1053.02 -1.5397 0.71353 0
M  V30 11622 H 1051.79 -3.67716 1.33793 0
M  V30 11623 H 1051.41 -3.96025 -0.353563 0
M  V30 11624 N 1052.41 -0.382291 -1.52893 0
M  V30 11625 C 1053.82 -0.031941 -1.59568 0
M  V30 11626 C 1054.02 1.45245 -1.39664 0
M  V30 11627 O 1053.08 2.21612 -1.21013 0
M  V30 11628 C 1054.39 -0.502846 -2.96466 0
M  V30 11629 C 1055.94 -0.4585 -3.09624 0
M  V30 11630 C 1056.42 -0.905481 -4.4896 0
M  V30 11631 N 1057.91 -0.861211 -4.55124 0
M  V30 11632 C 1058.64 -1.17856 -5.61157 0
M  V30 11633 N 1058.14 -1.56603 -6.74868 0
M  V30 11634 N 1059.93 -1.10027 -5.51226 0
M  V30 11635 H 1052.08 -1.34875 -1.64081 0
M  V30 11636 H 1054.34 -0.552375 -0.770446 0
M  V30 11637 H 1054.05 -1.53931 -3.16225 0
M  V30 11638 H 1053.92 0.101777 -3.77063 0
M  V30 11639 H 1056.31 0.568868 -2.89565 0
M  V30 11640 H 1056.39 -1.09884 -2.30996 0
M  V30 11641 H 1056.04 -1.93105 -4.69759 0
M  V30 11642 H 1055.97 -0.242227 -5.26043 0
M  V30 11643 H 1058.46 -0.575988 -3.73485 0
M  V30 11644 H 1058.77 -1.792 -7.51736 0
M  V30 11645 H 1057.12 -1.60484 -6.76217 0
M  V30 11646 H 1060.31 -0.796623 -4.61272 0
M  V30 11647 H 1060.48 -1.35091 -6.33762 0
M  V30 11648 N 1053.89 1.57202 -0.111913 0
M  V30 11649 C 1054.8 2.18475 0.854753 0
M  V30 11650 C 1055.81 1.15888 1.29792 0
M  V30 11651 O 1056.99 1.48329 1.36237 0
M  V30 11652 C 1054.05 2.76645 2.0897 0
M  V30 11653 C 1053.11 3.94244 1.69913 0
M  V30 11654 C 1052.35 4.49631 2.8752 0
M  V30 11655 O 1052.57 4.03926 4.02741 0
M  V30 11656 O 1051.5 5.40417 2.65015 0
M  V30 11657 H 1055.33 3.01519 0.363352 0
M  V30 11658 H 1052.91 1.4897 0.113329 0
M  V30 11659 H 1054.8 3.13755 2.81311 0
M  V30 11660 H 1053.47 1.96637 2.5713 0
M  V30 11661 H 1052.38 3.61915 0.947013 0
M  V30 11662 H 1053.71 4.75666 1.26501 0
M  V30 11663 N 1055.36 -0.161842 1.56767 0
M  V30 11664 C 1056.59 -0.896274 1.87034 0
M  V30 11665 C 1057.01 -1.74617 0.699314 0
M  V30 11666 O 1056.37 -1.77861 -0.351435 0
M  V30 11667 C 1056.42 -1.74105 3.15784 0
M  V30 11668 O 1055.52 -2.84372 2.98674 0
M  V30 11669 H 1054.86 -0.250523 0.614926 0
M  V30 11670 H 1057.39 -0.157127 2.03996 0
M  V30 11671 H 1057.4 -2.13907 3.4743 0
M  V30 11672 H 1056.08 -1.11684 4.00624 0
M  V30 11673 H 1054.66 -2.48084 2.78404 0
M  V30 11674 N 1056.84 -1.516 -0.430713 0
M  V30 11675 C 1057.77 -1.69594 -1.54177 0
M  V30 11676 C 1058.79 -0.576518 -1.5225 0
M  V30 11677 O 1059.98 -0.85104 -1.56906 0
M  V30 11678 C 1057.08 -1.70148 -2.93092 0
M  V30 11679 C 1056.25 -2.98782 -3.1945 0
M  V30 11680 C 1055.31 -2.91435 -4.38123 0
M  V30 11681 O 1054.33 -3.65372 -4.36454 0
M  V30 11682 N 1055.54 -2.0774 -5.42056 0
M  V30 11683 H 1058.3 -2.65442 -1.39143 0
M  V30 11684 H 1055.86 -1.49569 -0.61974 0
M  V30 11685 H 1057.85 -1.62793 -3.70514 0
M  V30 11686 H 1056.42 -0.818667 -3.0169 0
M  V30 11687 H 1055.64 -3.19954 -2.30267 0
M  V30 11688 H 1056.93 -3.83919 -3.33892 0
M  V30 11689 H 1056.33 -1.47059 -5.46251 0
M  V30 11690 H 1054.89 -2.06259 -6.18305 0
M  V30 11691 N 1058.32 0.686584 -1.41858 0
M  V30 11692 C 1059.57 1.44235 -1.40994 0
M  V30 11693 C 1059.88 1.95583 -0.0254979 0
M  V30 11694 O 1061.09 2.71294 0.10576 0
M  V30 11695 C 1059.54 2.6086 -2.47952 0
M  V30 11696 C 1059.15 2.16259 -3.92347 0
M  V30 11697 C 1060.9 3.38441 -2.56237 0
M  V30 11698 C 1058.8 3.29896 -4.90838 0
M  V30 11699 H 1057.73 0.54181 -0.524364 0
M  V30 11700 H 1060.38 0.744486 -1.67719 0
M  V30 11701 H 1058.77 3.32957 -2.14373 0
M  V30 11702 H 1059.94 1.51392 -4.35221 0
M  V30 11703 H 1058.25 1.51648 -3.87804 0
M  V30 11704 H 1060.85 4.23052 -3.27003 0
M  V30 11705 H 1061.19 3.84238 -1.6021 0
M  V30 11706 H 1061.73 2.73406 -2.88953 0
M  V30 11707 H 1058.47 2.89104 -5.88302 0
M  V30 11708 H 1057.99 3.93584 -4.52606 0
M  V30 11709 H 1059.67 3.95541 -5.12012 0
M  V30 11710 N 1059.8 1.27835 0.921735 0
M  V30 11711 C 1061.21 1.05369 1.19873 0
M  V30 11712 C 1061.41 -0.208997 2.00413 0
M  V30 11713 O 1060.47 -0.912861 2.35421 0
M  V30 11714 C 1061.78 2.29658 1.94108 0
M  V30 11715 C 1063.33 2.34756 2.07023 0
M  V30 11716 C 1063.81 3.5879 2.84664 0
M  V30 11717 N 1065.3 3.59383 2.9223 0
M  V30 11718 C 1066.03 4.52029 3.52785 0
M  V30 11719 N 1065.53 5.54986 4.14683 0
M  V30 11720 N 1067.32 4.39641 3.50246 0
M  V30 11721 H 1059.47 2.08903 0.383819 0
M  V30 11722 H 1061.73 0.919065 0.232429 0
M  V30 11723 H 1061.44 3.21604 1.4235 0
M  V30 11724 H 1061.31 2.35444 2.94696 0
M  V30 11725 H 1063.7 1.43312 2.57965 0
M  V30 11726 H 1063.78 2.32969 1.05636 0
M  V30 11727 H 1063.43 4.50574 2.34404 0
M  V30 11728 H 1063.36 3.57829 3.86349 0
M  V30 11729 H 1065.85 2.84927 2.48244 0
M  V30 11730 H 1066.16 6.21837 4.58845 0
M  V30 11731 H 1064.51 5.58822 4.13211 0
M  V30 11732 H 1067.7 3.58413 3.01094 0
M  V30 11733 H 1067.87 5.12033 3.97148 0
M  V30 11734 N 1061.28 -1.12907 1.09954 0
M  V30 11735 C 1062.22 -2.20561 0.73863 0
M  V30 11736 C 1063.22 -1.67347 -0.262944 0
M  V30 11737 O 1064.42 -1.79574 -0.123834 0
M  V30 11738 H 1060.8 -0.718823 0.220901 0
M  V30 11739 H 1062.77 -2.4826 1.65559 0
M  V30 11740 C 1061.52 -3.47227 0.181239 0
M  V30 11741 H 1060.84 -3.88516 0.943144 0
M  V30 11742 H 1062.28 -4.23987 -0.0332888 0
M  V30 11743 C 1060.74 -3.18956 -1.08485 0
M  V30 11744 O 1061.27 -3.38224 -2.1672 0
M  V30 11745 N 1059.48 -2.72797 -1.00151 0
M  V30 11746 H 1059.02 -2.57317 -0.120645 0
M  V30 11747 H 1058.98 -2.54256 -1.84935 0
M  V30 11748 N 1062.75 -0.88754 -1.30232 0
M  V30 11749 C 1063.98 -0.522306 -2.00199 0
M  V30 11750 C 1064.4 0.889866 -1.66514 0
M  V30 11751 O 1063.75 1.58558 -0.903639 0
M  V30 11752 C 1063.8 -0.690551 -3.54843 0
M  V30 11753 O 1063.53 -2.04713 -3.8733 0
M  V30 11754 C 1065.03 -0.328649 -4.4208 0
M  V30 11755 H 1062.25 -0.201628 -0.63999 0
M  V30 11756 H 1064.79 -1.19355 -1.66056 0
M  V30 11757 H 1062.95 -0.0666493 -3.87343 0
M  V30 11758 H 1063.36 -2.06762 -4.82027 0
M  V30 11759 H 1064.83 -0.497257 -5.49756 0
M  V30 11760 H 1065.31 0.733502 -4.33032 0
M  V30 11761 H 1065.92 -0.928982 -4.1503 0
M  V30 11762 N 1064.23 1.43628 -0.648757 0
M  V30 11763 C 1065.65 1.56442 -0.315921 0
M  V30 11764 C 1065.85 1.63322 1.18018 0
M  V30 11765 O 1064.9 1.58585 1.96487 0
M  V30 11766 C 1066.22 2.82751 -1.02335 0
M  V30 11767 C 1067.77 2.96488 -1.00318 0
M  V30 11768 C 1068.24 4.25623 -1.69142 0
M  V30 11769 N 1069.73 4.32477 -1.65885 0
M  V30 11770 C 1070.47 5.31154 -2.16016 0
M  V30 11771 N 1069.96 6.36135 -2.74415 0
M  V30 11772 N 1071.76 5.22778 -2.06541 0
M  V30 11773 H 1063.91 1.37405 -1.61968 0
M  V30 11774 H 1066.17 0.65962 -0.680886 0
M  V30 11775 H 1065.88 2.83714 -2.07844 0
M  V30 11776 H 1065.75 3.72836 -0.572114 0
M  V30 11777 H 1068.14 2.95068 0.0434919 0
M  V30 11778 H 1068.22 2.07704 -1.49307 0
M  V30 11779 H 1067.86 4.27804 -2.73763 0
M  V30 11780 H 1067.79 5.13296 -1.17622 0
M  V30 11781 H 1070.28 3.57232 -1.23264 0
M  V30 11782 H 1070.6 7.07743 -3.10355 0
M  V30 11783 H 1068.94 6.36771 -2.78474 0
M  V30 11784 H 1072.13 4.39678 -1.60625 0
M  V30 11785 H 1072.3 5.99523 -2.45919 0
M  V30 11786 N 1065.71 0.390394 1.52688 0
M  V30 11787 C 1066.94 -0.191485 2.06012 0
M  V30 11788 C 1067.35 -1.40422 1.26202 0
M  V30 11789 O 1066.71 -1.79866 0.308963 0
M  V30 11790 C 1066.76 -0.560521 3.57128 0
M  V30 11791 O 1066.48 0.60404 4.33916 0
M  V30 11792 C 1067.98 -1.19814 4.26801 0
M  V30 11793 H 1065.2 -0.0286311 0.670389 0
M  V30 11794 H 1067.75 0.555939 1.96798 0
M  V30 11795 H 1065.9 -1.25784 3.66411 0
M  V30 11796 H 1066.32 0.300467 5.23639 0
M  V30 11797 H 1067.79 -1.40672 5.33775 0
M  V30 11798 H 1068.27 -2.16582 3.82085 0
M  V30 11799 H 1068.87 -0.541558 4.21838 0
M  V30 11800 N 1067.19 -1.57141 0.120249 0
M  V30 11801 C 1068.14 -2.15379 -0.829497 0
M  V30 11802 C 1069.11 -1.07913 -1.2627 0
M  V30 11803 O 1070.29 -1.35827 -1.33999 0
M  V30 11804 C 1067.43 -2.75847 -2.0737 0
M  V30 11805 C 1066.54 -3.97624 -1.68875 0
M  V30 11806 C 1065.68 -4.46175 -2.88272 0
M  V30 11807 C 1064.72 -5.60481 -2.46023 0
M  V30 11808 N 1063.85 -6.0377 -3.58337 0
M  V30 11809 H 1068.69 -2.96211 -0.326031 0
M  V30 11810 H 1066.23 -1.46341 -0.149235 0
M  V30 11811 H 1068.19 -3.09037 -2.80272 0
M  V30 11812 H 1066.82 -1.97703 -2.55174 0
M  V30 11813 H 1065.87 -3.70588 -0.858431 0
M  V30 11814 H 1067.18 -4.80512 -1.33827 0
M  V30 11815 H 1066.34 -4.8128 -3.69397 0
M  V30 11816 H 1065.08 -3.6224 -3.26548 0
M  V30 11817 H 1064.08 -5.24979 -1.63331 0
M  V30 11818 H 1065.31 -6.46184 -2.08863 0
M  V30 11819 H 1063.25 -5.22776 -3.96284 0
M  V30 11820 H 1063.17 -6.81517 -3.27217 0
M  V30 11821 H 1064.44 -6.43514 -4.39898 0
M  V30 11822 N 1068.67 0.153526 -1.5685 0
M  V30 11823 C 1069.91 0.868517 -1.83261 0
M  V30 11824 C 1070.25 1.81112 -0.700857 0
M  V30 11825 O 1069.52 1.92235 0.295989 0
M  V30 11826 C 1069.8 1.6487 -3.2014 0
M  V30 11827 C 1069.66 0.728021 -4.43869 0
M  V30 11828 C 1070.98 2.61259 -3.54163 0
M  V30 11829 H 1068.09 0.314297 -0.666623 0
M  V30 11830 H 1070.74 0.133971 -1.89527 0
M  V30 11831 H 1068.89 2.2749 -3.1493 0
M  V30 11832 H 1070.56 0.113328 -4.61161 0
M  V30 11833 H 1068.8 0.0371744 -4.33784 0
M  V30 11834 H 1069.47 1.30981 -5.36235 0
M  V30 11835 H 1071.95 2.0876 -3.59942 0
M  V30 11836 H 1070.82 3.12902 -4.50981 0
M  V30 11837 H 1071.09 3.42307 -2.79782 0
M  V30 11838 N 1070.14 1.51827 0.422667 0
M  V30 11839 C 1071.07 1.77152 1.52117 0
M  V30 11840 C 1072.06 0.621895 1.58324 0
M  V30 11841 O 1073.24 0.866118 1.73816 0
M  V30 11842 C 1070.37 1.90991 2.90068 0
M  V30 11843 C 1069.32 3.06516 2.98717 0
M  V30 11844 C 1068.65 3.05559 4.38791 0
M  V30 11845 C 1069.95 4.46223 2.71445 0
M  V30 11846 H 1071.64 2.69135 1.31175 0
M  V30 11847 H 1069.19 1.29507 0.629607 0
M  V30 11848 H 1071.14 2.07291 3.6689 0
M  V30 11849 H 1069.87 0.956688 3.12274 0
M  V30 11850 H 1068.53 2.89945 2.24338 0
M  V30 11851 H 1068.17 2.07985 4.57986 0
M  V30 11852 H 1067.87 3.83144 4.45505 0
M  V30 11853 H 1069.4 3.23971 5.17566 0
M  V30 11854 H 1070.81 4.63069 3.37994 0
M  V30 11855 H 1069.21 5.25623 2.89552 0
M  V30 11856 H 1070.28 4.5525 1.6696 0
M  V30 11857 N 1071.62 -0.679052 1.4222 0
M  V30 11858 C 1072.59 -1.77448 1.45069 0
M  V30 11859 C 1073.59 -1.57189 0.338882 0
M  V30 11860 O 1074.78 -1.63559 0.599519 0
M  V30 11861 C 1071.91 -3.1603 1.27819 0
M  V30 11862 H 1073.1 -1.7631 2.426 0
M  V30 11863 H 1070.65 -0.888277 1.28605 0
M  V30 11864 H 1071.39 -3.22796 0.311946 0
M  V30 11865 H 1071.17 -3.32138 2.08391 0
M  V30 11866 H 1072.66 -3.9596 1.32686 0
M  V30 11867 N 1073.1 -1.28322 -0.914942 0
M  V30 11868 C 1074.03 -1.07947 -2.02188 0
M  V30 11869 C 1075.05 -0.0315743 -1.62769 0
M  V30 11870 O 1076.23 -0.274503 -1.76377 0
M  V30 11871 C 1073.33 -0.61805 -3.33217 0
M  V30 11872 C 1072.51 -1.74109 -4.01254 0
M  V30 11873 C 1071.57 -1.27325 -5.10563 0
M  V30 11874 O 1070.59 -1.97526 -5.33828 0
M  V30 11875 N 1071.79 -0.1358 -5.80341 0
M  V30 11876 H 1074.56 -2.03275 -2.20225 0
M  V30 11877 H 1072.12 -1.20059 -1.08616 0
M  V30 11878 H 1074.11 -0.288693 -4.03669 0
M  V30 11879 H 1072.68 0.242348 -3.11659 0
M  V30 11880 H 1071.9 -2.2401 -3.24366 0
M  V30 11881 H 1073.19 -2.49448 -4.43456 0
M  V30 11882 H 1072.59 0.449846 -5.63909 0
M  V30 11883 H 1071.15 0.134289 -6.51662 0
M  V30 11884 N 1074.58 1.12322 -1.10551 0
M  V30 11885 C 1075.83 1.83495 -0.846998 0
M  V30 11886 C 1076.15 1.8457 0.629205 0
M  V30 11887 O 1075.42 1.30968 1.45686 0
M  V30 11888 H 1074 0.679479 -0.310351 0
M  V30 11889 H 1076.66 1.36004 -1.39602 0
M  V30 11890 H 1075.76 2.87651 -1.21092 0
M  V30 11891 N 1076.06 0.894434 1.2976 0
M  V30 11892 C 1077.33 0.437365 1.90648 0
M  V30 11893 C 1077.71 -1.08261 1.81226 0
M  V30 11894 O 1077.06 -1.92213 1.23557 0
M  V30 11895 C 1077.27 0.946047 3.35933 0
M  V30 11896 C 1078.62 0.986621 4.12978 0
M  V30 11897 O 1079.64 0.893356 3.44815 0
M  V30 11898 O 1078.5 1.12591 5.34776 0
M  V30 11899 H 1075.6 0.135436 0.815835 0
M  V30 11900 H 1078.14 0.983955 1.38262 0
M  V30 11901 H 1076.91 1.98998 3.3692 0
M  V30 11902 H 1076.54 0.379164 3.95788 0
M  V30 11903 N 1077.53 -1.43282 0.656365 0
M  V30 11904 C 1078.48 -2.32556 -0.0452037 0
M  V30 11905 C 1079.48 -1.48789 -0.80982 0
M  V30 11906 O 1080.68 -1.64979 -0.719865 0
M  V30 11907 H 1077.06 -0.751258 -0.0334043 0
M  V30 11908 H 1079.03 -2.89448 0.725423 0
M  V30 11909 C 1077.78 -3.33138 -0.995706 0
M  V30 11910 H 1077.1 -3.97622 -0.416774 0
M  V30 11911 H 1078.54 -3.98231 -1.45562 0
M  V30 11912 C 1077 -2.63978 -2.09325 0
M  V30 11913 O 1077.53 -2.45769 -3.17743 0
M  V30 11914 N 1075.74 -2.23301 -1.8597 0
M  V30 11915 H 1075.28 -2.38312 -0.97802 0
M  V30 11916 H 1075.24 -1.77358 -2.59599 0
M  V30 11917 N 1079.01 -0.398486 -1.52479 0
M  V30 11918 C 1079.95 0.467426 -2.24383 0
M  V30 11919 C 1080.96 1.01908 -1.26959 0
M  V30 11920 O 1082.15 0.919843 -1.52974 0
M  V30 11921 C 1079.25 1.66146 -2.95379 0
M  V30 11922 C 1078.42 1.23557 -4.19586 0
M  V30 11923 C 1077.48 2.29532 -4.73499 0
M  V30 11924 O 1076.51 1.90561 -5.36354 0
M  V30 11925 N 1077.71 3.61564 -4.5415 0
M  V30 11926 H 1080.47 -0.148653 -2.99331 0
M  V30 11927 H 1078.03 -0.225313 -1.60325 0
M  V30 11928 H 1080.03 2.36585 -3.28344 0
M  V30 11929 H 1078.6 2.18369 -2.23682 0
M  V30 11930 H 1077.82 0.359715 -3.92555 0
M  V30 11931 H 1079.1 0.927812 -5.00269 0
M  V30 11932 H 1078.5 3.95983 -4.03998 0
M  V30 11933 H 1077.06 4.2801 -4.9158 0
M  V30 11934 N 1080.49 1.57075 -0.12858 0
M  V30 11935 C 1081.74 1.9581 0.527868 0
M  V30 11936 C 1082.07 1.01253 1.65715 0
M  V30 11937 O 1081.35 0.0514853 1.94432 0
M  V30 11938 C 1081.63 3.44406 1.05151 0
M  V30 11939 C 1081.48 4.49737 -0.0750113 0
M  V30 11940 C 1082.8 3.95069 1.9393 0
M  V30 11941 H 1079.92 0.711978 0.19041 0
M  V30 11942 H 1082.56 1.88879 -0.206081 0
M  V30 11943 H 1080.71 3.50443 1.67697 0
M  V30 11944 H 1082.38 4.55793 -0.710685 0
M  V30 11945 H 1080.63 4.27497 -0.736809 0
M  V30 11946 H 1081.3 5.50996 0.332779 0
M  V30 11947 H 1083.77 3.91395 1.41241 0
M  V30 11948 H 1082.65 4.99542 2.27484 0
M  V30 11949 H 1082.91 3.36329 2.86941 0
M  V30 11950 N 1081.97 -0.145205 1.5693 0
M  V30 11951 C 1082.9 -1.18096 2.01434 0
M  V30 11952 C 1083.88 -1.447 0.894204 0
M  V30 11953 O 1085.07 -1.55589 1.16214 0
M  V30 11954 C 1082.2 -2.51369 2.39647 0
M  V30 11955 C 1081.15 -2.39283 3.54863 0
M  V30 11956 C 1080.48 -3.77283 3.78895 0
M  V30 11957 C 1081.78 -1.8754 4.87469 0
M  V30 11958 H 1083.47 -0.810897 2.8821 0
M  V30 11959 H 1081.02 -0.388624 1.38657 0
M  V30 11960 H 1082.97 -3.24054 2.69382 0
M  V30 11961 H 1081.69 -2.90214 1.49811 0
M  V30 11962 H 1080.35 -1.6905 3.25296 0
M  V30 11963 H 1080 -4.13567 2.86307 0
M  V30 11964 H 1079.7 -3.70057 4.56433 0
M  V30 11965 H 1081.22 -4.51514 4.11057 0
M  V30 11966 H 1082.64 -2.50019 5.1591 0
M  V30 11967 H 1081.03 -1.912 5.68826 0
M  V30 11968 H 1082.1 -0.831194 4.77723 0
M  V30 11969 N 1083.45 -1.52049 -0.414609 0
M  V30 11970 C 1084.69 -1.67511 -1.17129 0
M  V30 11971 C 1085.05 -0.39383 -1.87917 0
M  V30 11972 O 1086.25 -0.424496 -2.65427 0
M  V30 11973 C 1084.52 -2.85982 -2.14357 0
M  V30 11974 S 1086.08 -3.21898 -2.98206 0
M  V30 11975 H 1082.9 -0.589923 -0.396877 0
M  V30 11976 H 1085.5 -1.90025 -0.459409 0
M  V30 11977 H 1084.21 -3.77488 -1.6103 0
M  V30 11978 H 1083.74 -2.65725 -2.90092 0
M  V30 11979 H 1085.75 -2.70095 -4.16249 0
M  V30 11980 N 1084.93 0.6715 -1.42579 0
M  V30 11981 C 1086.34 1.2522 -1.38481 0
M  V30 11982 C 1086.69 1.96038 -0.079719 0
M  V30 11983 O 1085.81 2.00203 0.821441 0
M  V30 11984 C 1086.41 2.27736 -2.50842 0
M  V30 11985 C 1084.97 2.81325 -2.50067 0
M  V30 11986 C 1084.11 1.55694 -2.29466 0
M  V30 11987 H 1087.06 0.464673 -1.51745 0
M  V30 11988 H 1087.09 3.09539 -2.21283 0
M  V30 11989 H 1086.6 1.76164 -3.45815 0
M  V30 11990 H 1084.7 3.37008 -1.58922 0
M  V30 11991 H 1084.81 3.30116 -3.47218 0
M  V30 11992 H 1083.18 1.82383 -1.77788 0
M  V30 11993 H 1083.96 1.06084 -3.26498 0
M  V30 11994 N 1086.4 1.28806 0.908124 0
M  V30 11995 C 1087.63 1.19153 1.69146 0
M  V30 11996 C 1088.05 -0.249056 1.8715 0
M  V30 11997 O 1087.4 -1.16772 1.40251 0
M  V30 11998 C 1087.45 1.89167 3.08055 0
M  V30 11999 O 1087.18 3.27599 2.90879 0
M  V30 12000 C 1088.68 1.85886 4.02444 0
M  V30 12001 H 1085.9 0.413359 0.528559 0
M  V30 12002 H 1088.44 1.7003 1.13622 0
M  V30 12003 H 1086.6 1.42146 3.60379 0
M  V30 12004 H 1087.01 3.62743 3.78837 0
M  V30 12005 H 1088.48 2.39454 4.97359 0
M  V30 12006 H 1088.96 0.832483 4.31238 0
M  V30 12007 H 1089.57 2.32612 3.5605 0
M  V30 12008 N 1087.88 -1.11734 1.11145 0
M  V30 12009 C 1089.11 -1.86943 0.879534 0
M  V30 12010 C 1089.52 -1.80283 -0.574007 0
M  V30 12011 O 1088.86 -1.17998 -1.40791 0
M  V30 12012 C 1088.92 -3.36738 1.25887 0
M  V30 12013 C 1088.59 -3.67169 2.72095 0
M  V30 12014 C 1089.59 -3.6491 3.7032 0
M  V30 12015 C 1087.27 -3.96272 3.08665 0
M  V30 12016 C 1089.26 -3.91325 5.03134 0
M  V30 12017 C 1086.95 -4.22345 4.41665 0
M  V30 12018 C 1087.95 -4.19859 5.38709 0
M  V30 12019 O 1087.64 -4.4528 6.69314 0
M  V30 12020 H 1087.37 -0.598117 0.315011 0
M  V30 12021 H 1089.92 -1.42253 1.48166 0
M  V30 12022 H 1088.15 -3.82019 0.599873 0
M  V30 12023 H 1089.84 -3.93306 1.00325 0
M  V30 12024 H 1090.61 -3.42481 3.43412 0
M  V30 12025 H 1086.49 -3.97344 2.33749 0
M  V30 12026 H 1090.03 -3.893 5.78871 0
M  V30 12027 H 1085.93 -4.4425 4.68308 0
M  V30 12028 H 1086.7 -4.62863 6.75056 0
M  V30 12029 N 1089.36 -0.901303 -1.29284 0
M  V30 12030 C 1090.29 -0.32479 -2.25877 0
M  V30 12031 C 1091.27 0.563944 -1.52507 0
M  V30 12032 O 1092.45 0.510393 -1.81459 0
M  V30 12033 C 1089.58 0.536897 -3.34418 0
M  V30 12034 C 1088.63 -0.28474 -4.25548 0
M  V30 12035 S 1089.46 -1.68355 -5.08347 0
M  V30 12036 C 1090.62 -0.828826 -6.20388 0
M  V30 12037 H 1090.85 -1.14352 -2.74428 0
M  V30 12038 H 1088.38 -0.701749 -1.37531 0
M  V30 12039 H 1090.34 1.02827 -3.97413 0
M  V30 12040 H 1089 1.32988 -2.84558 0
M  V30 12041 H 1088.19 0.373566 -5.02614 0
M  V30 12042 H 1087.8 -0.709313 -3.67212 0
M  V30 12043 H 1090.09 -0.0529234 -6.77479 0
M  V30 12044 H 1091.03 -1.57161 -6.90439 0
M  V30 12045 H 1091.44 -0.382503 -5.63203 0
M  V30 12046 N 1090.84 1.42931 -0.663954 0
M  V30 12047 C 1091.77 2.33499 0.00731327 0
M  V30 12048 C 1092.75 1.50074 0.800733 0
M  V30 12049 O 1093.93 1.78708 0.760062 0
M  V30 12050 C 1091.06 3.33569 0.966897 0
M  V30 12051 C 1090.02 4.27064 0.282839 0
M  V30 12052 C 1089.34 5.17257 1.35461 0
M  V30 12053 C 1090.64 5.1564 -0.831438 0
M  V30 12054 H 1092.34 2.89879 -0.749044 0
M  V30 12055 H 1089.88 1.39385 -0.361656 0
M  V30 12056 H 1091.84 3.95833 1.44549 0
M  V30 12057 H 1090.56 2.75469 1.75455 0
M  V30 12058 H 1089.22 3.6618 -0.175417 0
M  V30 12059 H 1088.87 4.5549 2.13397 0
M  V30 12060 H 1088.57 5.80634 0.902098 0
M  V30 12061 H 1090.09 5.82395 1.83436 0
M  V30 12062 H 1091.51 5.71651 -0.434534 0
M  V30 12063 H 1089.9 5.87794 -1.20908 0
M  V30 12064 H 1090.97 4.54687 -1.68487 0
M  V30 12065 N 1092.32 0.406567 1.52266 0
M  V30 12066 C 1093.54 -0.172101 2.06685 0
M  V30 12067 C 1093.97 -1.38306 1.27488 0
M  V30 12068 O 1093.32 -1.78726 0.304441 0
M  V30 12069 C 1093.37 -0.503463 3.57068 0
M  V30 12070 O 1092.48 -1.59485 3.80314 0
M  V30 12071 H 1091.82 -0.0153209 0.663823 0
M  V30 12072 H 1094.35 0.579025 1.96236 0
M  V30 12073 H 1094.36 -0.762833 4.00805 0
M  V30 12074 H 1093.03 0.381775 4.14144 0
M  V30 12075 H 1091.61 -1.32784 3.48458 0
M  V30 12076 N 1093.79 -1.57004 0.136909 0
M  V30 12077 C 1095.21 -1.82675 -0.385577 0
M  V30 12078 C 1095.56 -1.05508 -1.65416 0
M  V30 12079 O 1094.68 -0.297207 -2.14349 0
M  V30 12080 C 1095.28 -3.31356 -0.706326 0
M  V30 12081 C 1093.84 -3.57644 -1.17337 0
M  V30 12082 C 1092.98 -2.7664 -0.191239 0
M  V30 12083 H 1095.93 -1.54522 0.36177 0
M  V30 12084 H 1095.95 -3.4696 -1.56201 0
M  V30 12085 H 1095.47 -3.87492 0.217147 0
M  V30 12086 H 1093.57 -3.06883 -2.11313 0
M  V30 12087 H 1093.68 -4.66152 -1.10632 0
M  V30 12088 H 1092.04 -2.45403 -0.681867 0
M  V30 12089 H 1092.83 -3.35543 0.725647 0
M  V30 12090 N 1095.27 0.136881 -1.57004 0
M  V30 12091 C 1096.52 0.8461 -1.83536 0
M  V30 12092 C 1096.84 1.81246 -0.71937 0
M  V30 12093 O 1096.11 1.94191 0.258161 0
M  V30 12094 H 1094.69 0.315446 -0.677128 0
M  V30 12095 H 1097.35 0.128469 -1.94476 0
M  V30 12096 H 1096.45 1.40221 -2.78827 0
M  V30 12097 N 1096.75 1.52266 0.40654 0
M  V30 12098 C 1097.68 1.78755 1.50229 0
M  V30 12099 C 1098.66 0.638652 1.57655 0
M  V30 12100 O 1099.85 0.884505 1.72888 0
M  V30 12101 C 1096.98 1.94057 2.88026 0
M  V30 12102 C 1095.93 3.09667 2.95449 0
M  V30 12103 C 1095.26 3.10196 4.35526 0
M  V30 12104 C 1096.56 4.49077 2.66697 0
M  V30 12105 H 1098.25 2.70511 1.28313 0
M  V30 12106 H 1095.8 1.30167 0.615836 0
M  V30 12107 H 1097.75 2.11171 3.64671 0
M  V30 12108 H 1096.47 0.989755 3.11242 0
M  V30 12109 H 1095.13 2.92308 2.2125 0
M  V30 12110 H 1094.78 2.12831 4.55754 0
M  V30 12111 H 1094.48 3.87847 4.41416 0
M  V30 12112 H 1096 3.29443 5.14101 0
M  V30 12113 H 1097.42 4.66628 3.33064 0
M  V30 12114 H 1095.82 5.28665 2.8396 0
M  V30 12115 H 1096.89 4.56995 1.62122 0
M  V30 12116 N 1098.23 -0.663929 1.42933 0
M  V30 12117 C 1099.45 -1.45691 1.47611 0
M  V30 12118 C 1099.88 -1.87875 0.0920305 0
M  V30 12119 O 1099.24 -1.56696 -0.91192 0
M  V30 12120 C 1099.28 -2.67517 2.41799 0
M  V30 12121 O 1098.39 -3.66187 1.89686 0
M  V30 12122 H 1097.73 -0.437257 0.499702 0
M  V30 12123 H 1100.26 -0.813397 1.87737 0
M  V30 12124 H 1100.27 -3.1546 2.58745 0
M  V30 12125 H 1098.94 -2.36155 3.4235 0
M  V30 12126 H 1097.52 -3.25274 1.82349 0
M  V30 12127 N 1099.71 -1.29285 -0.901281 0
M  V30 12128 C 1100.64 -1.10086 -2.01032 0
M  V30 12129 C 1101.65 -0.0488364 -1.62727 0
M  V30 12130 O 1102.84 -0.293194 -1.76076 0
M  V30 12131 C 1099.94 -0.653357 -3.32542 0
M  V30 12132 C 1099.11 -1.78355 -3.99385 0
M  V30 12133 C 1098.17 -1.32733 -5.09184 0
M  V30 12134 O 1097.2 -2.03177 -5.31703 0
M  V30 12135 N 1098.4 -0.197345 -5.80164 0
M  V30 12136 H 1101.17 -2.056 -2.18057 0
M  V30 12137 H 1098.73 -1.21204 -1.07337 0
M  V30 12138 H 1100.72 -0.331491 -4.0334 0
M  V30 12139 H 1099.29 0.209278 -3.11899 0
M  V30 12140 H 1098.51 -2.27438 -3.21972 0
M  V30 12141 H 1099.8 -2.54137 -4.40785 0
M  V30 12142 H 1099.19 0.390011 -5.64354 0
M  V30 12143 H 1097.75 0.0651642 -6.51767 0
M  V30 12144 N 1101.18 1.11143 -1.11736 0
M  V30 12145 C 1102.09 2.20851 -0.791331 0
M  V30 12146 C 1103.11 1.72644 0.216833 0
M  V30 12147 O 1104.29 2.01332 0.0522401 0
M  V30 12148 C 1101.35 3.4585 -0.242694 0
M  V30 12149 C 1100.41 4.08829 -1.30986 0
M  V30 12150 C 1099.65 5.27861 -0.787305 0
M  V30 12151 O 1099.87 5.69122 0.381549 0
M  V30 12152 O 1098.8 5.81506 -1.55352 0
M  V30 12153 H 1102.63 2.51158 -1.70744 0
M  V30 12154 H 1100.21 1.19739 -0.893478 0
M  V30 12155 H 1102.1 4.21359 0.0587472 0
M  V30 12156 H 1100.77 3.17187 0.646079 0
M  V30 12157 H 1099.68 3.35037 -1.66436 0
M  V30 12158 H 1101.01 4.41678 -2.17213 0
M  V30 12159 N 1102.66 0.908147 1.28804 0
M  V30 12160 C 1103.91 0.53734 1.94826 0
M  V30 12161 C 1104.23 -0.920962 1.71882 0
M  V30 12162 O 1103.5 -1.65043 1.05534 0
M  V30 12163 H 1102.08 0.195729 0.720902 0
M  V30 12164 H 1104.74 1.15628 1.56895 0
M  V30 12165 H 1103.84 0.727052 3.03513 0
M  V30 12166 N 1104.14 -1.42577 0.671525 0
M  V30 12167 C 1105.07 -2.33499 0.00506984 0
M  V30 12168 C 1106.05 -1.50497 -0.792763 0
M  V30 12169 O 1107.24 -1.79109 -0.750574 0
M  V30 12170 C 1104.37 -3.34077 -0.949194 0
M  V30 12171 C 1103.32 -4.27208 -0.260187 0
M  V30 12172 C 1102.65 -5.17968 -1.32716 0
M  V30 12173 C 1103.95 -5.15192 0.858772 0
M  V30 12174 H 1105.64 -2.89477 0.764407 0
M  V30 12175 H 1103.19 -1.39191 0.369043 0
M  V30 12176 H 1105.14 -3.96594 -1.42448 0
M  V30 12177 H 1103.86 -2.76396 -1.73991 0
M  V30 12178 H 1102.52 -3.66082 0.194834 0
M  V30 12179 H 1102.17 -4.56615 -2.10979 0
M  V30 12180 H 1101.87 -5.81104 -0.871293 0
M  V30 12181 H 1103.39 -5.83359 -1.80345 0
M  V30 12182 H 1104.81 -5.71412 0.464844 0
M  V30 12183 H 1103.21 -5.87144 1.24023 0
M  V30 12184 H 1104.28 -4.53787 1.70895 0
M  V30 12185 N 1105.62 -0.414636 -1.52048 0
M  V30 12186 C 1106.55 0.399119 -2.30064 0
M  V30 12187 C 1107.53 1.04126 -1.34506 0
M  V30 12188 O 1108.71 1.04923 -1.63416 0
M  V30 12189 C 1105.84 1.51305 -3.12608 0
M  V30 12190 C 1104.8 0.995621 -4.16259 0
M  V30 12191 C 1104.12 2.20357 -4.87183 0
M  V30 12192 C 1105.42 0.0458178 -5.2228 0
M  V30 12193 H 1107.12 -0.251879 -2.98339 0
M  V30 12194 H 1104.66 -0.122579 -1.43477 0
M  V30 12195 H 1106.62 2.08936 -3.65956 0
M  V30 12196 H 1105.34 2.19201 -2.42113 0
M  V30 12197 H 1104 0.441676 -3.6393 0
M  V30 12198 H 1103.65 2.8682 -4.13211 0
M  V30 12199 H 1103.35 1.86385 -5.57256 0
M  V30 12200 H 1104.87 2.78584 -5.43345 0
M  V30 12201 H 1106.29 0.531102 -5.70835 0
M  V30 12202 H 1104.68 -0.20536 -5.99749 0
M  V30 12203 H 1105.75 -0.897807 -4.76516 0
M  V30 12204 N 1107.1 1.56929 -0.145233 0
M  V30 12205 C 1108.33 2.00141 0.51257 0
M  V30 12206 C 1108.73 1.0243 1.59075 0
M  V30 12207 O 1108.08 0.0130063 1.83695 0
M  V30 12208 C 1108.14 3.39785 1.17417 0
M  V30 12209 C 1107.8 4.56365 0.240801 0
M  V30 12210 C 1108.8 5.17183 -0.530847 0
M  V30 12211 C 1106.49 5.02093 0.144221 0
M  V30 12212 C 1108.48 6.22136 -1.38654 0
M  V30 12213 C 1106.17 6.06902 -0.71508 0
M  V30 12214 C 1107.16 6.66793 -1.47907 0
M  V30 12215 O 1106.85 7.69573 -2.32405 0
M  V30 12216 H 1106.58 0.661747 0.138085 0
M  V30 12217 H 1109.14 2.04037 -0.236269 0
M  V30 12218 H 1107.37 3.32722 1.97061 0
M  V30 12219 H 1109.06 3.67115 1.73152 0
M  V30 12220 H 1109.82 4.82754 -0.466256 0
M  V30 12221 H 1105.7 4.55206 0.728613 0
M  V30 12222 H 1109.25 6.68812 -1.98333 0
M  V30 12223 H 1105.14 6.40758 -0.78097 0
M  V30 12224 H 1105.91 7.86786 -2.25634 0
M  V30 12225 N 1108.58 -0.128553 1.57075 0
M  V30 12226 C 1109.49 -1.17718 2.02927 0
M  V30 12227 C 1110.5 -1.45912 0.947932 0
M  V30 12228 O 1111.68 -1.57217 1.25876 0
M  V30 12229 C 1108.74 -2.48625 2.41633 0
M  V30 12230 C 1107.8 -2.27914 3.63804 0
M  V30 12231 C 1107.04 -3.52579 4.00654 0
M  V30 12232 O 1107.26 -4.59505 3.37952 0
M  V30 12233 O 1106.19 -3.44147 4.93808 0
M  V30 12234 H 1110.02 -0.817846 2.92481 0
M  V30 12235 H 1107.6 -0.338649 1.45511 0
M  V30 12236 H 1109.49 -3.2577 2.67305 0
M  V30 12237 H 1108.16 -2.84052 1.55229 0
M  V30 12238 H 1107.07 -1.4866 3.43294 0
M  V30 12239 H 1108.4 -1.97395 4.50883 0
M  V30 12240 N 1110.05 -1.5248 -0.398459 0
M  V30 12241 C 1110.98 -1.79549 -1.49279 0
M  V30 12242 C 1111.96 -0.647004 -1.57315 0
M  V30 12243 O 1113.15 -0.893661 -1.72416 0
M  V30 12244 C 1110.28 -1.95582 -2.86993 0
M  V30 12245 C 1109.23 -3.1123 -2.93803 0
M  V30 12246 C 1108.56 -3.12501 -4.33874 0
M  V30 12247 C 1109.86 -4.50485 -2.64312 0
M  V30 12248 H 1111.55 -2.71187 -1.26877 0
M  V30 12249 H 1109.1 -1.30492 -0.608924 0
M  V30 12250 H 1111.05 -2.13102 -3.63546 0
M  V30 12251 H 1109.78 -1.00625 -3.10712 0
M  V30 12252 H 1108.44 -2.93477 -2.19697 0
M  V30 12253 H 1108.08 -2.15245 -4.54619 0
M  V30 12254 H 1107.78 -3.90183 -4.39353 0
M  V30 12255 H 1109.31 -3.32164 -5.12347 0
M  V30 12256 H 1110.72 -4.68387 -3.30585 0
M  V30 12257 H 1109.12 -5.30163 -2.81153 0
M  V30 12258 H 1110.19 -4.57848 -1.59696 0
M  V30 12259 N 1111.53 0.65634 -1.43283 0
M  V30 12260 C 1112.44 1.79847 -1.50639 0
M  V30 12261 C 1113.46 1.69487 -0.393714 0
M  V30 12262 O 1114.63 1.90712 -0.647379 0
M  V30 12263 C 1111.7 3.16107 -1.42398 0
M  V30 12264 C 1110.76 3.38287 -2.64312 0
M  V30 12265 C 1109.99 4.68046 -2.56454 0
M  V30 12266 O 1110.22 5.4719 -1.61056 0
M  V30 12267 O 1109.15 4.91877 -3.46902 0
M  V30 12268 H 1112.98 1.76596 -2.47078 0
M  V30 12269 H 1110.56 0.814428 -1.25249 0
M  V30 12270 H 1112.44 3.97382 -1.40233 0
M  V30 12271 H 1111.12 3.19956 -0.490929 0
M  V30 12272 H 1110.02 2.56788 -2.72049 0
M  V30 12273 H 1111.36 3.39282 -3.56579 0
M  V30 12274 N 1113.01 1.29761 0.894412 0
M  V30 12275 C 1114.23 1.21064 1.68399 0
M  V30 12276 C 1114.66 -0.224608 1.86754 0
M  V30 12277 O 1114.02 -1.16199 1.39167 0
M  V30 12278 C 1114.07 1.93468 3.04306 0
M  V30 12279 O 1113.17 1.25533 3.9283 0
M  V30 12280 H 1112.51 0.419223 0.514925 0
M  V30 12281 H 1115.04 1.71421 1.11696 0
M  V30 12282 H 1115.05 2.02127 3.54413 0
M  V30 12283 H 1113.73 2.97857 2.90265 0
M  V30 12284 H 1112.3 1.25168 3.51266 0
M  V30 12285 N 1114.49 -1.10549 1.12324 0
M  V30 12286 C 1115.74 -1.81851 0.872531 0
M  V30 12287 C 1116.05 -1.86058 -0.603468 0
M  V30 12288 O 1117.26 -2.53553 -0.970736 0
M  V30 12289 C 1115.71 -3.26631 1.51131 0
M  V30 12290 C 1115.32 -3.30725 3.02201 0
M  V30 12291 C 1117.06 -4.02768 1.34082 0
M  V30 12292 C 1114.97 -4.69957 3.59018 0
M  V30 12293 H 1113.9 -0.681422 0.322769 0
M  V30 12294 H 1116.55 -1.24332 1.34959 0
M  V30 12295 H 1114.93 -3.8414 0.961913 0
M  V30 12296 H 1116.11 -2.83046 3.63623 0
M  V30 12297 H 1114.42 -2.68072 3.18632 0
M  V30 12298 H 1117.02 -5.05612 1.73955 0
M  V30 12299 H 1117.36 -4.15328 0.284369 0
M  V30 12300 H 1117.9 -3.51671 1.85937 0
M  V30 12301 H 1114.63 -4.62597 4.64418 0
M  V30 12302 H 1114.15 -5.18008 3.02371 0
M  V30 12303 H 1115.83 -5.38925 3.58007 0
M  V30 12304 N 1115.97 -0.914965 -1.28321 0
M  V30 12305 C 1117.19 -0.564023 -1.99583 0
M  V30 12306 C 1117.62 0.847821 -1.6791 0
M  V30 12307 O 1116.97 1.56682 -0.912171 0
M  V30 12308 C 1117.02 -0.781368 -3.52033 0
M  V30 12309 O 1116.13 0.159072 -4.12093 0
M  V30 12310 H 1115.47 -0.218565 -0.626997 0
M  V30 12311 H 1118 -1.23074 -1.63444 0
M  V30 12312 H 1118.01 -0.691946 -4.0209 0
M  V30 12313 H 1116.68 -1.81059 -3.7442 0
M  V30 12314 H 1115.26 0.0208145 -3.72894 0
M  V30 12315 N 1117.44 1.42219 -0.679077 0
M  V30 12316 C 1118.86 1.55737 -0.349034 0
M  V30 12317 C 1119.06 1.65789 1.14527 0
M  V30 12318 O 1118.12 1.62717 1.93079 0
M  V30 12319 C 1119.43 2.80516 -1.0831 0
M  V30 12320 C 1120.98 2.94294 -1.06584 0
M  V30 12321 C 1121.45 4.2194 -1.78132 0
M  V30 12322 N 1122.94 4.28861 -1.75021 0
M  V30 12323 C 1123.68 5.26453 -2.27234 0
M  V30 12324 N 1123.17 6.30171 -2.87847 0
M  V30 12325 N 1124.97 5.1828 -2.17584 0
M  V30 12326 H 1117.12 1.33939 -1.64846 0
M  V30 12327 H 1119.38 0.645029 -0.694725 0
M  V30 12328 H 1119.09 2.79241 -2.13816 0
M  V30 12329 H 1118.96 3.71539 -0.651069 0
M  V30 12330 H 1121.35 2.95094 -0.0191061 0
M  V30 12331 H 1121.43 2.04491 -1.53679 0
M  V30 12332 H 1121.07 4.21901 -2.82776 0
M  V30 12333 H 1121 5.10685 -1.28483 0
M  V30 12334 H 1123.49 3.54537 -1.30814 0
M  V30 12335 H 1123.81 7.01 -3.25298 0
M  V30 12336 H 1122.15 6.30721 -2.91918 0
M  V30 12337 H 1125.34 4.36172 -1.69916 0
M  V30 12338 H 1125.52 5.94172 -2.58581 0
M  V30 12339 N 1118.92 0.422693 1.51826 0
M  V30 12340 C 1119.87 -0.41063 2.28947 0
M  V30 12341 C 1120.86 -1.03389 1.34191 0
M  V30 12342 O 1122.07 -0.970533 1.51594 0
M  V30 12343 H 1118.44 -0.151219 0.736639 0
M  V30 12344 H 1120.42 0.260859 2.97258 0
M  V30 12345 C 1119.16 -1.50758 3.13317 0
M  V30 12346 H 1118.49 -1.03734 3.86108 0
M  V30 12347 H 1119.93 -2.0642 3.7036 0
M  V30 12348 C 1118.39 -2.48261 2.27746 0
M  V30 12349 O 1118.92 -3.52462 1.92701 0
M  V30 12350 N 1117.12 -2.18795 1.91251 0
M  V30 12351 H 1116.67 -1.34088 2.1995 0
M  V30 12352 H 1116.63 -2.84276 1.34293 0
M  V30 12353 N 1120.4 -1.5685 0.153553 0
M  V30 12354 C 1121.36 -2.15894 -0.769564 0
M  V30 12355 C 1122.36 -1.10239 -1.17064 0
M  V30 12356 O 1123.55 -1.35845 -1.09049 0
M  V30 12357 C 1120.68 -2.72738 -2.04516 0
M  V30 12358 H 1121.88 -2.98807 -0.255842 0
M  V30 12359 H 1119.43 -1.56005 -0.0959279 0
M  V30 12360 H 1120.17 -1.9351 -2.60239 0
M  V30 12361 H 1119.95 -3.50042 -1.76672 0
M  V30 12362 H 1121.44 -3.18208 -2.70432 0
M  V30 12363 N 1121.88 0.120221 -1.57141 0
M  V30 12364 C 1123.12 0.828222 -1.84788 0
M  V30 12365 C 1123.45 1.79936 -0.738459 0
M  V30 12366 O 1122.71 1.93824 0.270295 0
M  V30 12367 C 1123.01 1.61338 -3.18912 0
M  V30 12368 C 1122.67 0.786637 -4.43985 0
M  V30 12369 C 1121.33 0.558645 -4.77946 0
M  V30 12370 C 1123.69 0.210281 -5.20776 0
M  V30 12371 C 1121.01 -0.255975 -5.86141 0
M  V30 12372 C 1123.37 -0.591523 -6.29828 0
M  V30 12373 C 1122.03 -0.829843 -6.62322 0
M  V30 12374 H 1121.3 0.303068 -0.676188 0
M  V30 12375 H 1123.95 0.0906538 -1.91285 0
M  V30 12376 H 1122.25 2.42182 -3.07986 0
M  V30 12377 H 1123.95 2.16513 -3.37525 0
M  V30 12378 H 1120.54 0.974426 -4.17376 0
M  V30 12379 H 1124.72 0.373641 -4.94892 0
M  V30 12380 H 1119.98 -0.449849 -6.09743 0
M  V30 12381 H 1124.15 -1.04512 -6.88513 0
M  V30 12382 H 1121.78 -1.4629 -7.45992 0
M  V30 12383 N 1123.36 1.52689 0.390367 0
M  V30 12384 C 1124.58 1.71839 1.16129 0
M  V30 12385 C 1125.01 0.435226 1.82996 0
M  V30 12386 O 1124.36 -0.60889 1.70769 0
M  V30 12387 C 1124.41 2.86784 2.18603 0
M  V30 12388 O 1123.52 2.53662 3.25161 0
M  V30 12389 H 1122.86 0.571455 0.338135 0
M  V30 12390 H 1125.39 1.99475 0.45508 0
M  V30 12391 H 1125.4 3.12239 2.62622 0
M  V30 12392 H 1124.07 3.79872 1.69322 0
M  V30 12393 H 1122.65 2.38942 2.86289 0
M  V30 12394 N 1124.83 -0.648732 1.43629 0
M  V30 12395 C 1126.08 -1.40446 1.44768 0
M  V30 12396 C 1126.4 -1.95447 0.0773445 0
M  V30 12397 O 1127.6 -2.71479 -0.0337942 0
M  V30 12398 C 1126.06 -2.54194 2.54781 0
M  V30 12399 C 1125.67 -2.05781 3.97942 0
M  V30 12400 C 1127.41 -3.31529 2.65121 0
M  V30 12401 C 1125.32 -3.16767 4.99412 0
M  V30 12402 H 1124.25 -0.527717 0.538545 0
M  V30 12403 H 1126.9 -0.699756 1.69634 0
M  V30 12404 H 1125.28 -3.27156 2.23125 0
M  V30 12405 H 1126.45 -1.398 4.39081 0
M  V30 12406 H 1124.77 -1.41312 3.91688 0
M  V30 12407 H 1127.37 -4.14233 3.38105 0
M  V30 12408 H 1127.71 -3.79855 1.70341 0
M  V30 12409 H 1128.24 -2.65649 2.961 0
M  V30 12410 H 1124.98 -2.73404 5.9576 0
M  V30 12411 H 1124.5 -3.81445 4.62882 0
M  V30 12412 H 1126.18 -3.81827 5.22319 0
M  V30 12413 N 1126.31 -1.30234 -0.887518 0
M  V30 12414 C 1127.54 -1.21652 -1.66986 0
M  V30 12415 C 1127.95 0.223473 -1.87876 0
M  V30 12416 O 1127.29 1.15993 -1.42448 0
M  V30 12417 C 1127.36 -1.87173 -3.06931 0
M  V30 12418 C 1127.02 -3.36496 -3.09224 0
M  V30 12419 C 1128.02 -4.3253 -2.88469 0
M  V30 12420 C 1125.7 -3.77901 -3.30902 0
M  V30 12421 C 1127.7 -5.67942 -2.89344 0
M  V30 12422 C 1125.38 -5.13432 -3.31407 0
M  V30 12423 C 1126.38 -6.08263 -3.10653 0
M  V30 12424 O 1126.07 -7.41318 -3.1097 0
M  V30 12425 H 1125.8 -0.422224 -0.527923 0
M  V30 12426 H 1128.35 -1.72349 -1.11736 0
M  V30 12427 H 1126.58 -1.31002 -3.63834 0
M  V30 12428 H 1128.27 -1.72745 -3.67306 0
M  V30 12429 H 1129.04 -4.01873 -2.7152 0
M  V30 12430 H 1124.92 -3.04534 -3.46093 0
M  V30 12431 H 1128.46 -6.41936 -2.73063 0
M  V30 12432 H 1124.36 -5.4373 -3.47891 0
M  V30 12433 H 1125.13 -7.50275 -3.27153 0
M  V30 12434 N 1127.79 1.09952 -1.12909 0
M  V30 12435 C 1129.21 1.34051 -0.866172 0
M  V30 12436 C 1129.41 1.95169 0.501125 0
M  V30 12437 O 1128.46 2.19458 1.24878 0
M  V30 12438 C 1129.78 2.25738 -1.98653 0
M  V30 12439 C 1131.32 2.39261 -2.01799 0
M  V30 12440 C 1131.8 3.3428 -3.13083 0
M  V30 12441 N 1133.29 3.41851 -3.12558 0
M  V30 12442 C 1134.02 4.15358 -3.95304 0
M  V30 12443 N 1133.52 4.91709 -4.88051 0
M  V30 12444 N 1135.31 4.11027 -3.83423 0
M  V30 12445 H 1127.46 0.686521 -2.00999 0
M  V30 12446 H 1129.73 0.364913 -0.874953 0
M  V30 12447 H 1129.43 1.88048 -2.97205 0
M  V30 12448 H 1129.31 3.26085 -1.89601 0
M  V30 12449 H 1131.69 2.76218 -1.03864 0
M  V30 12450 H 1131.78 1.38712 -2.14925 0
M  V30 12451 H 1131.42 2.98048 -4.11254 0
M  V30 12452 H 1131.35 4.34721 -2.97195 0
M  V30 12453 H 1133.84 2.87405 -2.45371 0
M  V30 12454 H 1134.15 5.45212 -5.47689 0
M  V30 12455 H 1132.5 4.90816 -4.92061 0
M  V30 12456 H 1135.69 3.50477 -3.10296 0
M  V30 12457 H 1135.86 4.68054 -4.4814 0
M  V30 12458 N 1129.27 0.921757 1.27833 0
M  V30 12459 C 1130.23 0.420978 2.25301 0
M  V30 12460 C 1131.23 -0.457158 1.54165 0
M  V30 12461 O 1132.42 -0.259079 1.72263 0
M  V30 12462 C 1129.55 -0.395501 3.38598 0
M  V30 12463 H 1130.75 1.28206 2.71115 0
M  V30 12464 H 1128.3 0.701893 1.39654 0
M  V30 12465 H 1129.03 -1.27565 2.98157 0
M  V30 12466 H 1128.82 0.234029 3.91401 0
M  V30 12467 H 1130.31 -0.736444 4.11055 0
M  V30 12468 N 1130.75 -1.41857 0.686609 0
M  V30 12469 C 1131.99 -2.01666 0.214118 0
M  V30 12470 C 1132.33 -1.5422 -1.18025 0
M  V30 12471 O 1131.6 -0.749482 -1.7948 0
M  V30 12472 C 1131.88 -3.59147 0.261841 0
M  V30 12473 C 1131.74 -4.16742 1.69251 0
M  V30 12474 C 1133.06 -4.38427 -0.383378 0
M  V30 12475 H 1130.17 -0.732724 0.0792785 0
M  V30 12476 H 1132.82 -1.68724 0.873633 0
M  V30 12477 H 1130.97 -3.87342 -0.29971 0
M  V30 12478 H 1132.64 -3.99456 2.30722 0
M  V30 12479 H 1130.88 -3.72124 2.2295 0
M  V30 12480 H 1131.55 -5.25894 1.6775 0
M  V30 12481 H 1134.03 -4.15992 0.0947701 0
M  V30 12482 H 1132.9 -5.4797 -0.319401 0
M  V30 12483 H 1133.17 -4.172 -1.46276 0
M  V30 12484 N 1132.22 -0.430739 -1.51599 0
M  V30 12485 C 1133.13 0.390347 -2.3133 0
M  V30 12486 C 1134.15 1.03376 -1.39962 0
M  V30 12487 O 1135.33 1.03057 -1.73035 0
M  V30 12488 C 1132.39 1.48039 -3.13505 0
M  V30 12489 C 1131.45 0.857792 -4.20643 0
M  V30 12490 C 1130.69 1.89589 -4.9889 0
M  V30 12491 O 1130.91 3.11717 -4.77691 0
M  V30 12492 O 1129.84 1.49009 -5.83164 0
M  V30 12493 H 1133.67 -0.260358 -3.02582 0
M  V30 12494 H 1131.25 -0.193428 -1.48143 0
M  V30 12495 H 1133.14 2.11272 -3.64612 0
M  V30 12496 H 1131.81 2.1153 -2.45024 0
M  V30 12497 H 1130.72 0.187592 -3.73629 0
M  V30 12498 H 1132.05 0.266474 -4.91478 0
M  V30 12499 N 1133.7 1.56767 -0.161869 0
M  V30 12500 C 1134.61 2.21083 0.784814 0
M  V30 12501 C 1135.63 1.19959 1.26039 0
M  V30 12502 O 1136.8 1.52588 1.31449 0
M  V30 12503 C 1133.87 2.83153 2.00063 0
M  V30 12504 C 1132.93 3.9945 1.57285 0
M  V30 12505 C 1132.16 4.5855 2.7307 0
M  V30 12506 O 1132.39 4.16534 3.89686 0
M  V30 12507 O 1131.32 5.48575 2.47688 0
M  V30 12508 H 1135.15 3.02522 0.267243 0
M  V30 12509 H 1132.73 1.49255 0.0658783 0
M  V30 12510 H 1134.61 3.22546 2.71186 0
M  V30 12511 H 1133.29 2.04718 2.50744 0
M  V30 12512 H 1132.2 3.64745 0.831393 0
M  V30 12513 H 1133.53 4.7945 1.11304 0
M  V30 12514 N 1135.18 -0.111886 1.57202 0
M  V30 12515 C 1136.43 -0.816794 1.84859 0
M  V30 12516 C 1136.75 -1.80079 0.748113 0
M  V30 12517 O 1136.02 -1.94578 -0.227235 0
M  V30 12518 H 1134.6 -0.304633 0.682061 0
M  V30 12519 H 1137.26 -0.097513 1.94656 0
M  V30 12520 H 1136.36 -1.35768 2.81022 0
M  V30 12521 N 1136.66 -1.52894 -0.382264 0
M  V30 12522 C 1137.62 -1.77497 -1.45008 0
M  V30 12523 C 1138.62 -0.64509 -1.47293 0
M  V30 12524 O 1139.81 -0.913192 -1.48346 0
M  V30 12525 C 1136.94 -1.88188 -2.8425 0
M  V30 12526 H 1138.14 -2.72849 -1.24473 0
M  V30 12527 H 1135.69 -1.43717 -0.61441 0
M  V30 12528 H 1136.42 -0.948451 -3.10121 0
M  V30 12529 H 1136.21 -2.70353 -2.83992 0
M  V30 12530 H 1137.7 -2.08873 -3.6161 0
M  V30 12531 N 1138.14 0.641106 -1.43971 0
M  V30 12532 C 1139.36 1.43324 -1.4991 0
M  V30 12533 C 1139.79 1.87705 -0.121908 0
M  V30 12534 O 1139.15 1.58127 0.886875 0
M  V30 12535 C 1139.19 2.63637 -2.46025 0
M  V30 12536 O 1138.3 3.63123 -1.95488 0
M  V30 12537 H 1137.64 0.429252 -0.506595 0
M  V30 12538 H 1140.17 0.783427 -1.89007 0
M  V30 12539 H 1140.18 3.11304 -2.63731 0
M  V30 12540 H 1138.85 2.30678 -3.46064 0
M  V30 12541 H 1137.43 3.22332 -1.87501 0
M  V30 12542 N 1139.62 1.30703 0.880598 0
M  V30 12543 C 1140.56 1.17455 1.98678 0
M  V30 12544 C 1141.53 0.0629569 1.65981 0
M  V30 12545 O 1142.72 0.233926 1.89361 0
M  V30 12546 C 1139.86 0.876882 3.33774 0
M  V30 12547 C 1138.97 2.07078 3.79134 0
M  V30 12548 C 1138.11 1.71082 5.02896 0
M  V30 12549 C 1137.14 2.86942 5.40676 0
M  V30 12550 N 1136.28 2.51212 6.55619 0
M  V30 12551 H 1141.12 2.12086 2.09341 0
M  V30 12552 H 1138.66 1.05514 1.02495 0
M  V30 12553 H 1140.62 0.684899 4.1154 0
M  V30 12554 H 1139.25 -0.0325633 3.22784 0
M  V30 12555 H 1138.3 2.37388 2.97239 0
M  V30 12556 H 1139.61 2.9383 4.0307 0
M  V30 12557 H 1138.76 1.48284 5.883 0
M  V30 12558 H 1137.5 0.815064 4.80841 0
M  V30 12559 H 1136.51 3.10401 4.53797 0
M  V30 12560 H 1137.73 3.77211 5.64703 0
M  V30 12561 H 1135.68 1.64147 6.35131 0
M  V30 12562 H 1135.6 3.31495 6.79446 0
M  V30 12563 H 1136.86 2.31781 7.44243 0
M  V30 12564 N 1141.09 -1.09351 1.1349 0
M  V30 12565 C 1142.02 -2.18037 0.835588 0
M  V30 12566 C 1143 -1.68856 -0.205373 0
M  V30 12567 O 1144.19 -1.94094 -0.0641357 0
M  V30 12568 C 1141.32 -3.45987 0.301661 0
M  V30 12569 C 1140.27 -4.08507 1.27696 0
M  V30 12570 C 1139.6 -5.31292 0.602758 0
M  V30 12571 C 1140.9 -4.50916 2.63575 0
M  V30 12572 H 1142.59 -2.43332 1.74441 0
M  V30 12573 H 1140.14 -1.1695 0.840166 0
M  V30 12574 H 1142.09 -4.21324 0.079928 0
M  V30 12575 H 1140.82 -3.20217 -0.642552 0
M  V30 12576 H 1139.48 -3.3519 1.4847 0
M  V30 12577 H 1139.12 -5.01802 -0.346953 0
M  V30 12578 H 1138.82 -5.74075 1.25345 0
M  V30 12579 H 1140.35 -6.09351 0.390325 0
M  V30 12580 H 1141.76 -5.17474 2.46765 0
M  V30 12581 H 1140.16 -5.04586 3.24827 0
M  V30 12582 H 1141.23 -3.63279 3.2118 0
M  V30 12583 N 1142.57 -0.928524 -1.27343 0
M  V30 12584 C 1143.82 -0.568267 -1.93946 0
M  V30 12585 C 1144.14 0.893501 -1.73325 0
M  V30 12586 O 1143.41 1.63344 -1.08147 0
M  V30 12587 H 1141.99 -0.207173 -0.717696 0
M  V30 12588 H 1144.65 -1.1811 -1.55036 0
M  V30 12589 H 1143.75 -0.775246 -3.02318 0
M  V30 12590 N 1144.05 1.41491 -0.694123 0
M  V30 12591 C 1144.98 2.33462 -0.0422169 0
M  V30 12592 C 1145.96 1.51739 0.76872 0
M  V30 12593 O 1147.15 1.8028 0.721985 0
M  V30 12594 C 1144.28 3.35545 0.895925 0
M  V30 12595 C 1143.23 4.27568 0.192188 0
M  V30 12596 C 1142.56 5.20014 1.24459 0
M  V30 12597 C 1143.86 5.1376 -0.940626 0
M  V30 12598 H 1145.55 2.88225 -0.810363 0
M  V30 12599 H 1143.1 1.38586 -0.39114 0
M  V30 12600 H 1145.05 3.9881 1.36121 0
M  V30 12601 H 1143.77 2.79129 1.69572 0
M  V30 12602 H 1142.43 3.65726 -0.25305 0
M  V30 12603 H 1142.08 4.59913 2.03687 0
M  V30 12604 H 1141.78 5.82417 0.778734 0
M  V30 12605 H 1143.3 5.86155 1.71041 0
M  V30 12606 H 1144.72 5.70601 -0.555692 0
M  V30 12607 H 1143.11 5.85097 -1.33349 0
M  V30 12608 H 1144.18 4.51011 -1.78093 0
M  V30 12609 N 1145.53 0.438773 1.51369 0
M  V30 12610 C 1146.78 -0.128723 2.01289 0
M  V30 12611 C 1147.09 -1.43659 1.32745 0
M  V30 12612 O 1148.3 -2.08712 1.73642 0
M  V30 12613 C 1146.75 -0.279945 3.5881 0
M  V30 12614 C 1146.36 1.01758 4.3629 0
M  V30 12615 C 1148.1 -0.801133 4.16872 0
M  V30 12616 C 1146.01 0.831918 5.85519 0
M  V30 12617 H 1144.94 -0.0518814 0.752213 0
M  V30 12618 H 1147.59 0.568753 1.74463 0
M  V30 12619 H 1145.97 -1.04046 3.82087 0
M  V30 12620 H 1147.15 1.78653 4.24758 0
M  V30 12621 H 1145.46 1.46741 3.89687 0
M  V30 12622 H 1148.06 -0.956548 5.26074 0
M  V30 12623 H 1148.4 -1.78396 3.76139 0
M  V30 12624 H 1148.94 -0.0988934 3.97677 0
M  V30 12625 H 1145.67 1.78716 6.30667 0
M  V30 12626 H 1145.19 0.102785 5.99712 0
M  V30 12627 H 1146.87 0.485681 6.45174 0
M  V30 12628 N 1147.01 -1.56678 0.170181 0
M  V30 12629 C 1148.25 -1.96024 -0.475147 0
M  V30 12630 C 1148.57 -1.0588 -1.64465 0
M  V30 12631 O 1149.77 -1.34901 -2.35614 0
M  V30 12632 C 1148.23 -3.4855 -0.896704 0
M  V30 12633 C 1147.84 -4.47318 0.247142 0
M  V30 12634 C 1149.58 -3.96716 -1.51052 0
M  V30 12635 C 1147.49 -5.91082 -0.193982 0
M  V30 12636 H 1146.42 -0.731883 -0.181282 0
M  V30 12637 H 1149.07 -1.81674 0.25823 0
M  V30 12638 H 1147.45 -3.58314 -1.68603 0
M  V30 12639 H 1148.63 -4.49268 1.02445 0
M  V30 12640 H 1146.94 -4.09203 0.770839 0
M  V30 12641 H 1149.54 -5.01581 -1.85258 0
M  V30 12642 H 1149.88 -3.39588 -2.40802 0
M  V30 12643 H 1150.41 -3.89965 -0.785652 0
M  V30 12644 H 1147.15 -6.5208 0.668714 0
M  V30 12645 H 1146.67 -5.92441 -0.936675 0
M  V30 12646 H 1148.35 -6.43844 -0.638237 0
M  V30 12647 N 1148.48 0.103547 -1.57259 0
M  V30 12648 C 1149.43 1.12621 -2.01458 0
M  V30 12649 C 1150.4 1.40282 -0.889391 0
M  V30 12650 O 1151.59 1.51887 -1.15477 0
M  V30 12651 C 1148.73 2.44352 -2.43692 0
M  V30 12652 C 1147.84 2.23495 -3.69695 0
M  V30 12653 C 1146.97 3.48565 -4.00844 0
M  V30 12654 C 1146.01 3.22932 -5.19982 0
M  V30 12655 N 1145.15 4.40246 -5.46926 0
M  V30 12656 H 1149.99 0.742315 -2.88606 0
M  V30 12657 H 1147.53 0.355016 -1.42752 0
M  V30 12658 H 1149.48 3.2122 -2.66221 0
M  V30 12659 H 1148.11 2.80605 -1.59565 0
M  V30 12660 H 1147.17 1.3747 -3.54692 0
M  V30 12661 H 1148.48 2.0054 -4.56711 0
M  V30 12662 H 1147.63 4.33844 -4.24104 0
M  V30 12663 H 1146.37 3.74565 -3.12333 0
M  V30 12664 H 1145.38 2.36045 -4.96551 0
M  V30 12665 H 1146.6 2.98286 -6.10084 0
M  V30 12666 H 1144.55 4.66338 -4.61373 0
M  V30 12667 H 1144.46 4.20452 -6.28296 0
M  V30 12668 H 1145.73 5.26614 -5.74716 0
M  V30 12669 N 1149.96 1.53094 0.37415 0
M  V30 12670 C 1150.91 1.78927 1.45787 0
M  V30 12671 C 1151.88 0.633187 1.53558 0
M  V30 12672 O 1153.06 0.874472 1.69581 0
M  V30 12673 C 1150.2 1.97726 2.8284 0
M  V30 12674 C 1149.32 3.25436 2.84104 0
M  V30 12675 C 1148.45 3.3447 4.12678 0
M  V30 12676 C 1147.49 4.56246 4.08051 0
M  V30 12677 N 1146.63 4.6248 5.28258 0
M  V30 12678 H 1151.47 2.71404 1.2306 0
M  V30 12679 H 1149 1.34453 0.596716 0
M  V30 12680 H 1150.96 2.06611 3.62447 0
M  V30 12681 H 1149.59 1.08593 3.03986 0
M  V30 12682 H 1148.64 3.25548 1.96781 0
M  V30 12683 H 1149.96 4.15112 2.76556 0
M  V30 12684 H 1149.11 3.4262 5.00696 0
M  V30 12685 H 1147.85 2.42795 4.22968 0
M  V30 12686 H 1146.85 4.48206 3.1842 0
M  V30 12687 H 1148.08 5.49254 3.99371 0
M  V30 12688 H 1146.03 3.73703 5.3915 0
M  V30 12689 H 1145.94 5.46049 5.22845 0
M  V30 12690 H 1147.21 4.74903 6.18132 0
M  V30 12691 N 1151.44 -0.633461 1.44309 0
M  V30 12692 C 1152.35 -1.77428 1.53481 0
M  V30 12693 C 1153.37 -1.68839 0.420628 0
M  V30 12694 O 1154.54 -1.89658 0.677638 0
M  V30 12695 C 1151.61 -3.13801 1.47409 0
M  V30 12696 C 1150.67 -3.34039 2.6966 0
M  V30 12697 C 1149.9 -4.63907 2.63868 0
M  V30 12698 O 1150.12 -5.44559 1.69741 0
M  V30 12699 O 1149.06 -4.86295 3.54684 0
M  V30 12700 H 1152.88 -1.72642 2.49857 0
M  V30 12701 H 1150.47 -0.794399 1.26529 0
M  V30 12702 H 1152.35 -3.95101 1.46537 0
M  V30 12703 H 1151.03 -3.19134 0.541769 0
M  V30 12704 H 1149.93 -2.52427 2.761 0
M  V30 12705 H 1151.27 -3.33566 3.61931 0
M  V30 12706 N 1152.92 -1.31168 -0.873655 0
M  V30 12707 C 1153.83 -1.20458 -2.01313 0
M  V30 12708 C 1154.84 -0.122074 -1.73571 0
M  V30 12709 O 1156.02 -0.339176 -1.98523 0
M  V30 12710 C 1153.09 -0.90876 -3.34578 0
M  V30 12711 C 1152.15 -2.07779 -3.75668 0
M  V30 12712 C 1151.38 -1.79599 -5.02573 0
M  V30 12713 O 1151.6 -0.729338 -5.65718 0
M  V30 12714 O 1150.54 -2.65169 -5.40341 0
M  V30 12715 H 1154.36 -2.16207 -2.13279 0
M  V30 12716 H 1151.95 -1.10871 -1.00139 0
M  V30 12717 H 1153.83 -0.759469 -4.145 0
M  V30 12718 H 1152.5 0.0187249 -3.23695 0
M  V30 12719 H 1151.41 -2.28247 -2.96402 0
M  V30 12720 H 1152.74 -2.9874 -3.91172 0
M  V30 12721 N 1154.4 1.08748 -1.14068 0
M  V30 12722 C 1155.62 1.84814 -0.930138 0
M  V30 12723 C 1156.04 1.81461 0.521267 0
M  V30 12724 O 1155.4 1.21577 1.36108 0
M  V30 12725 C 1155.45 3.32501 -1.41863 0
M  V30 12726 O 1155.17 3.35846 -2.81317 0
M  V30 12727 C 1156.67 4.25384 -1.24753 0
M  V30 12728 H 1153.89 0.583546 -0.331233 0
M  V30 12729 H 1156.43 1.37366 -1.51495 0
M  V30 12730 H 1154.59 3.7735 -0.876664 0
M  V30 12731 H 1155 4.28013 -3.03159 0
M  V30 12732 H 1156.48 5.27138 -1.63798 0
M  V30 12733 H 1156.95 4.38789 -0.18999 0
M  V30 12734 H 1157.56 3.86357 -1.77787 0
M  V30 12735 N 1155.87 0.935264 1.26849 0
M  V30 12736 C 1156.81 0.384563 2.24936 0
M  V30 12737 C 1157.79 -0.523311 1.53949 0
M  V30 12738 O 1158.97 -0.462103 1.82748 0
M  V30 12739 C 1156.1 -0.448043 3.35723 0
M  V30 12740 C 1155.14 0.397466 4.24644 0
M  V30 12741 S 1155.98 1.81773 5.03705 0
M  V30 12742 C 1157.13 0.99302 6.17972 0
M  V30 12743 H 1157.36 1.21588 2.713 0
M  V30 12744 H 1154.9 0.737966 1.35622 0
M  V30 12745 H 1156.86 -0.922541 3.99999 0
M  V30 12746 H 1155.52 -1.25397 2.87983 0
M  V30 12747 H 1154.71 -0.240176 5.03427 0
M  V30 12748 H 1154.31 0.806423 3.65202 0
M  V30 12749 H 1156.6 0.232526 6.77101 0
M  V30 12750 H 1157.55 1.75412 6.86029 0
M  V30 12751 H 1157.95 0.531692 5.6199 0
M  V30 12752 N 1157.35 -1.41121 0.701616 0
M  V30 12753 C 1158.59 -2.02993 0.239383 0
M  V30 12754 C 1158.96 -1.5439 -1.1414 0
M  V30 12755 O 1160.16 -2.08229 -1.69982 0
M  V30 12756 C 1158.43 -3.56128 0.301232 0
M  V30 12757 S 1159.99 -4.38716 -0.0860681 0
M  V30 12758 H 1156.81 -0.704494 0.0959645 0
M  V30 12759 H 1159.41 -1.72461 0.920736 0
M  V30 12760 H 1158.11 -3.88996 1.30805 0
M  V30 12761 H 1157.64 -3.91371 -0.399069 0
M  V30 12762 H 1159.66 -4.78537 -1.31212 0
M  V30 12763 N 1158.83 -0.446794 -1.51134 0
M  V30 12764 C 1160.06 0.117242 -2.07068 0
M  V30 12765 C 1160.48 1.34877 -1.3111 0
M  V30 12766 O 1159.84 1.77856 -0.35172 0
M  V30 12767 C 1159.89 0.408616 -3.58277 0
M  V30 12768 O 1158.99 1.49345 -3.84408 0
M  V30 12769 H 1158.33 -0.00228458 -0.663996 0
M  V30 12770 H 1160.86 -0.63085 -1.94632 0
M  V30 12771 H 1160.87 0.656298 -4.02687 0
M  V30 12772 H 1159.55 -0.491444 -4.12986 0
M  V30 12773 H 1158.12 1.23499 -3.51856 0
M  V30 12774 N 1160.31 1.56586 -0.178487 0
M  V30 12775 C 1161.54 2.01183 0.470002 0
M  V30 12776 C 1161.95 1.05781 1.56866 0
M  V30 12777 O 1161.29 0.0519678 1.83626 0
M  V30 12778 C 1161.35 3.42199 1.10183 0
M  V30 12779 C 1161.02 4.56773 0.143945 0
M  V30 12780 C 1162.01 5.1594 -0.64043 0
M  V30 12781 C 1159.7 5.02286 0.0376874 0
M  V30 12782 C 1161.69 6.19055 -1.51819 0
M  V30 12783 C 1159.38 6.05248 -0.843652 0
M  V30 12784 C 1160.38 6.63505 -1.62017 0
M  V30 12785 O 1160.06 7.6447 -2.48677 0
M  V30 12786 H 1159.8 0.664527 0.124018 0
M  V30 12787 H 1162.35 2.0349 -0.279495 0
M  V30 12788 H 1160.58 3.36827 1.89959 0
M  V30 12789 H 1162.27 3.70705 1.65326 0
M  V30 12790 H 1163.04 4.81656 -0.56855 0
M  V30 12791 H 1158.91 4.56649 0.631893 0
M  V30 12792 H 1162.46 6.64455 -2.12475 0
M  V30 12793 H 1158.36 6.38958 -0.916708 0
M  V30 12794 H 1159.12 7.81823 -2.42272 0
M  V30 12795 N 1161.79 -0.095206 1.57312 0
M  V30 12796 C 1163.06 -0.830388 1.77099 0
M  V30 12797 C 1163.44 -1.9694 0.760121 0
M  V30 12798 O 1162.79 -2.2752 -0.211403 0
M  V30 12799 C 1163 -1.32507 3.22867 0
M  V30 12800 C 1164.35 -1.7679 3.86045 0
M  V30 12801 O 1165.37 -1.42131 3.26615 0
M  V30 12802 O 1164.23 -2.40876 4.90552 0
M  V30 12803 H 1161.33 -0.396083 0.72598 0
M  V30 12804 H 1163.87 -0.0770965 1.69525 0
M  V30 12805 H 1162.64 -0.508992 3.87975 0
M  V30 12806 H 1162.27 -2.14037 3.35073 0
M  V30 12807 N 1163.26 -1.53291 -0.366026 0
M  V30 12808 C 1164.51 -1.69451 -1.10872 0
M  V30 12809 C 1164.84 -0.446078 -1.89316 0
M  V30 12810 O 1164.09 0.571962 -1.87155 0
M  V30 12811 C 1164.39 -2.89547 -2.09517 0
M  V30 12812 C 1164.06 -4.26073 -1.47556 0
M  V30 12813 C 1162.72 -4.63199 -1.30386 0
M  V30 12814 C 1165.07 -5.10977 -1.02724 0
M  V30 12815 C 1162.4 -5.82866 -0.669666 0
M  V30 12816 C 1164.75 -6.31289 -0.407052 0
M  V30 12817 C 1163.42 -6.67128 -0.222839 0
M  V30 12818 H 1162.69 -0.620066 -0.405708 0
M  V30 12819 H 1165.33 -1.87475 -0.390563 0
M  V30 12820 H 1163.64 -2.66034 -2.87634 0
M  V30 12821 H 1165.34 -2.99245 -2.66933 0
M  V30 12822 H 1161.93 -3.9684 -1.61914 0
M  V30 12823 H 1166.11 -4.82844 -1.14783 0
M  V30 12824 H 1161.37 -6.09224 -0.515351 0
M  V30 12825 H 1165.54 -6.96381 -0.0514661 0
M  V30 12826 H 1163.17 -7.59718 0.270647 0
M  V30 12827 N 1164.74 0.6258 -1.44643 0
M  V30 12828 C 1165.67 1.74858 -1.54748 0
M  V30 12829 C 1166.65 1.65327 -0.400138 0
M  V30 12830 O 1167.84 1.84005 -0.620948 0
M  V30 12831 C 1164.97 3.13408 -1.49643 0
M  V30 12832 C 1163.92 3.37733 -2.62908 0
M  V30 12833 C 1163.25 4.76367 -2.42855 0
M  V30 12834 C 1164.55 3.29771 -4.05029 0
M  V30 12835 H 1166.24 1.66658 -2.48728 0
M  V30 12836 H 1163.79 0.800363 -1.19709 0
M  V30 12837 H 1165.74 3.91735 -1.55312 0
M  V30 12838 H 1164.47 3.22404 -0.521824 0
M  V30 12839 H 1163.12 2.61788 -2.56637 0
M  V30 12840 H 1162.77 4.82074 -1.43575 0
M  V30 12841 H 1162.47 4.936 -3.18799 0
M  V30 12842 H 1164 5.56917 -2.50351 0
M  V30 12843 H 1165.41 3.97996 -4.12641 0
M  V30 12844 H 1163.81 3.58538 -4.81218 0
M  V30 12845 H 1164.88 2.27493 -4.28223 0
M  V30 12846 N 1166.22 1.31629 0.866686 0
M  V30 12847 C 1167.47 1.20861 1.61479 0
M  V30 12848 C 1167.78 -0.231208 1.94229 0
M  V30 12849 O 1168.99 -0.460618 2.67564 0
M  V30 12850 C 1167.44 2.11602 2.91123 0
M  V30 12851 C 1167.05 3.60598 2.65844 0
M  V30 12852 C 1168.8 2.09642 3.69121 0
M  V30 12853 C 1166.7 4.43337 3.91415 0
M  V30 12854 H 1165.63 0.448783 0.605896 0
M  V30 12855 H 1168.28 1.56507 0.958001 0
M  V30 12856 H 1166.67 1.68858 3.58194 0
M  V30 12857 H 1167.84 4.11609 2.07159 0
M  V30 12858 H 1166.16 3.64568 2.01194 0
M  V30 12859 H 1168.75 2.68701 4.62281 0
M  V30 12860 H 1169.1 1.08438 4.01929 0
M  V30 12861 H 1169.63 2.50603 3.08938 0
M  V30 12862 H 1166.37 5.45309 3.63756 0
M  V30 12863 H 1165.89 3.97083 4.49539 0
M  V30 12864 H 1167.57 4.5572 4.5927 0
M  V30 12865 N 1167.7 -1.08142 1.14644 0
M  V30 12866 C 1168.93 -1.8405 0.938563 0
M  V30 12867 C 1169.34 -1.82017 -0.516361 0
M  V30 12868 O 1168.68 -1.22418 -1.36966 0
M  V30 12869 C 1168.74 -3.32563 1.36536 0
M  V30 12870 C 1168.41 -3.58327 2.83638 0
M  V30 12871 C 1169.4 -3.52944 3.81741 0
M  V30 12872 C 1167.09 -3.86251 3.21115 0
M  V30 12873 C 1169.08 -3.7512 5.15329 0
M  V30 12874 C 1166.77 -4.0808 4.54878 0
M  V30 12875 C 1167.77 -4.02508 5.51794 0
M  V30 12876 O 1167.46 -4.23761 6.83141 0
M  V30 12877 H 1167.19 -0.587793 0.33388 0
M  V30 12878 H 1169.74 -1.37467 1.52617 0
M  V30 12879 H 1167.97 -3.79917 0.721106 0
M  V30 12880 H 1169.66 -3.89915 1.12787 0
M  V30 12881 H 1170.43 -3.31382 3.54134 0
M  V30 12882 H 1166.31 -3.89707 2.46272 0
M  V30 12883 H 1169.85 -3.70686 5.90963 0
M  V30 12884 H 1165.75 -4.29126 4.82204 0
M  V30 12885 H 1166.51 -4.41152 6.8944 0
M  V30 12886 N 1169.18 -0.941978 -1.26351 0
M  V30 12887 C 1170.43 -0.588806 -1.93333 0
M  V30 12888 C 1170.75 0.875067 -1.74263 0
M  V30 12889 O 1170.02 1.62187 -1.09873 0
M  V30 12890 H 1168.6 -0.214774 -0.715459 0
M  V30 12891 H 1171.26 -1.19747 -1.53774 0
M  V30 12892 H 1170.35 -0.807267 -3.01479 0
M  V30 12893 N 1170.66 1.40747 -0.709091 0
M  V30 12894 C 1171.6 2.30741 -0.0523584 0
M  V30 12895 C 1172.57 1.4784 0.757145 0
M  V30 12896 O 1173.76 1.76595 0.72242 0
M  V30 12897 C 1170.9 3.34 0.868203 0
M  V30 12898 C 1170.01 4.31972 0.0488686 0
M  V30 12899 C 1169.15 5.223 0.968311 0
M  V30 12900 C 1168.18 6.11934 0.142682 0
M  V30 12901 N 1167.32 6.947 1.01665 0
M  V30 12902 H 1172.16 2.86338 -0.825509 0
M  V30 12903 H 1169.7 1.41013 -0.418785 0
M  V30 12904 H 1171.66 3.92431 1.41611 0
M  V30 12905 H 1170.29 2.79921 1.6076 0
M  V30 12906 H 1169.34 3.75377 -0.616137 0
M  V30 12907 H 1170.65 4.95291 -0.590625 0
M  V30 12908 H 1169.8 5.85631 1.58498 0
M  V30 12909 H 1168.54 4.5924 1.64164 0
M  V30 12910 H 1167.55 5.47639 -0.486965 0
M  V30 12911 H 1168.77 6.77052 -0.527046 0
M  V30 12912 H 1166.72 6.34236 1.67575 0
M  V30 12913 H 1166.64 7.54759 0.433045 0
M  V30 12914 H 1167.9 7.62487 1.6197 0
M  V30 12915 N 1172.13 0.454803 1.50895 0
M  V30 12916 C 1173.36 -0.103936 2.06639 0
M  V30 12917 C 1173.78 -1.34943 1.32044 0
M  V30 12918 O 1173.13 -1.78393 0.384972 0
M  V30 12919 C 1173.18 -0.408546 3.59184 0
M  V30 12920 O 1172.91 0.787535 4.30963 0
M  V30 12921 C 1174.41 -1.01605 4.31499 0
M  V30 12922 H 1171.63 -0.000171839 0.671 0
M  V30 12923 H 1174.17 0.638907 1.94263 0
M  V30 12924 H 1172.33 -1.1013 3.71416 0
M  V30 12925 H 1172.74 0.52229 5.21893 0
M  V30 12926 H 1174.21 -1.17906 5.39261 0
M  V30 12927 H 1174.69 -2.00182 3.90927 0
M  V30 12928 H 1175.3 -0.362155 4.23755 0
M  V30 12929 N 1173.61 -1.56489 0.186789 0
M  V30 12930 C 1175.02 -1.83809 -0.327265 0
M  V30 12931 C 1175.37 -1.10718 -1.61976 0
M  V30 12932 O 1174.5 -0.36525 -2.13295 0
M  V30 12933 C 1175.09 -3.33435 -0.600551 0
M  V30 12934 C 1173.65 -3.61195 -1.059 0
M  V30 12935 C 1172.8 -2.77108 -0.103131 0
M  V30 12936 H 1175.75 -1.53292 0.410747 0
M  V30 12937 H 1175.77 -3.51754 -1.45084 0
M  V30 12938 H 1175.28 -3.86605 0.340315 0
M  V30 12939 H 1173.38 -3.13451 -2.01443 0
M  V30 12940 H 1173.5 -4.69435 -0.957458 0
M  V30 12941 H 1171.86 -2.47448 -0.603449 0
M  V30 12942 H 1172.64 -3.33065 0.832031 0
M  V30 12943 N 1175.09 0.086862 -1.5736 0
M  V30 12944 C 1176.02 1.10538 -2.05678 0
M  V30 12945 C 1177 1.41281 -0.947293 0
M  V30 12946 O 1178.19 1.51169 -1.21908 0
M  V30 12947 C 1175.32 2.42302 -2.48812 0
M  V30 12948 C 1174.27 2.25948 -3.63499 0
M  V30 12949 C 1173.6 3.62961 -3.92637 0
M  V30 12950 C 1174.9 1.69319 -4.94094 0
M  V30 12951 H 1176.59 0.703371 -2.91021 0
M  V30 12952 H 1174.14 0.336895 -1.40004 0
M  V30 12953 H 1176.09 3.13833 -2.81224 0
M  V30 12954 H 1174.81 2.84454 -1.60479 0
M  V30 12955 H 1173.47 1.5686 -3.31347 0
M  V30 12956 H 1173.12 4.02656 -3.01459 0
M  V30 12957 H 1172.82 3.52862 -4.69853 0
M  V30 12958 H 1174.34 4.35946 -4.27531 0
M  V30 12959 H 1175.76 2.30699 -5.24834 0
M  V30 12960 H 1174.15 1.69957 -5.7553 0
M  V30 12961 H 1175.22 0.653318 -4.80479 0
M  V30 12962 N 1176.57 1.53483 0.357892 0
M  V30 12963 C 1177.81 1.70037 1.09971 0
M  V30 12964 C 1178.14 0.456112 1.89076 0
M  V30 12965 O 1177.4 -0.562029 1.87456 0
M  V30 12966 C 1177.7 2.90654 2.07978 0
M  V30 12967 C 1177.36 4.26849 1.45295 0
M  V30 12968 C 1176.02 4.63884 1.27928 0
M  V30 12969 C 1178.38 5.11514 1.00013 0
M  V30 12970 C 1175.7 5.83213 0.638745 0
M  V30 12971 C 1178.06 6.31496 0.373568 0
M  V30 12972 C 1176.72 6.67237 0.187457 0
M  V30 12973 H 1175.99 0.622209 0.402414 0
M  V30 12974 H 1178.64 1.87679 0.380615 0
M  V30 12975 H 1176.94 2.67556 2.86219 0
M  V30 12976 H 1178.64 3.00656 2.65343 0
M  V30 12977 H 1175.23 3.97693 1.59807 0
M  V30 12978 H 1179.41 4.83446 1.12221 0
M  V30 12979 H 1174.67 6.09489 0.483035 0
M  V30 12980 H 1178.84 6.96398 0.0145346 0
M  V30 12981 H 1176.47 7.59564 -0.310933 0
M  V30 12982 N 1178.05 -0.61812 1.44973 0
M  V30 12983 C 1179.46 -0.937734 1.29146 0
M  V30 12984 C 1179.66 -2.00104 0.236749 0
M  V30 12985 O 1178.72 -2.49731 -0.372923 0
M  V30 12986 C 1180.03 -1.38865 2.66715 0
M  V30 12987 C 1181.58 -1.50343 2.74529 0
M  V30 12988 C 1182.05 -1.98814 4.12598 0
M  V30 12989 N 1183.54 -2.06064 4.14839 0
M  V30 12990 C 1184.28 -2.44768 5.18533 0
M  V30 12991 N 1183.78 -2.82516 6.32579 0
M  V30 12992 N 1185.57 -2.45016 5.05889 0
M  V30 12993 H 1177.72 0.084872 2.1223 0
M  V30 12994 H 1179.98 -0.0246744 0.947679 0
M  V30 12995 H 1179.69 -0.681583 3.45032 0
M  V30 12996 H 1179.56 -2.3572 2.94475 0
M  V30 12997 H 1181.95 -2.20144 1.96522 0
M  V30 12998 H 1182.03 -0.518297 2.50494 0
M  V30 12999 H 1181.67 -1.29604 4.91086 0
M  V30 13000 H 1181.6 -2.98223 4.34017 0
M  V30 13001 H 1184.1 -1.79525 3.32535 0
M  V30 13002 H 1184.41 -3.109 7.07504 0
M  V30 13003 H 1182.75 -2.80237 6.35997 0
M  V30 13004 H 1185.94 -2.14925 4.15842 0
M  V30 13005 H 1186.12 -2.74854 5.86821 0
M  V30 13006 N 1179.52 -1.32087 -0.859693 0
M  V30 13007 C 1180.77 -1.22119 -1.61033 0
M  V30 13008 C 1181.09 0.218289 -1.93774 0
M  V30 13009 O 1180.36 1.14172 -1.5919 0
M  V30 13010 H 1178.94 -0.448989 -0.597008 0
M  V30 13011 H 1181.6 -1.65545 -1.02863 0
M  V30 13012 H 1180.7 -1.80023 -2.54947 0
M  V30 13013 N 1181 1.07532 -1.15215 0
M  V30 13014 C 1181.95 2.16785 -0.843022 0
M  V30 13015 C 1182.94 1.68411 0.182802 0
M  V30 13016 O 1184.15 1.7996 0.0380164 0
M  V30 13017 H 1180.52 0.707465 -0.254945 0
M  V30 13018 H 1182.5 2.40078 -1.77215 0
M  V30 13019 C 1181.24 3.45967 -0.346699 0
M  V30 13020 H 1180.57 3.83574 -1.12744 0
M  V30 13021 H 1182.01 4.23663 -0.169039 0
M  V30 13022 C 1180.47 3.23768 0.931437 0
M  V30 13023 O 1181 3.48179 2.00336 0
M  V30 13024 N 1179.2 2.77264 0.870217 0
M  V30 13025 H 1178.75 2.576 -0.00226223 0
M  V30 13026 H 1178.71 2.6279 1.72594 0
M  V30 13027 N 1182.48 0.948665 1.2585 0
M  V30 13028 C 1183.73 0.595938 1.92695 0
M  V30 13029 C 1184.04 -0.870229 1.75175 0
M  V30 13030 O 1185.25 -1.33266 2.36543 0
M  V30 13031 C 1183.7 1.01511 3.45288 0
M  V30 13032 C 1183.31 2.50341 3.71528 0
M  V30 13033 C 1185.06 0.734635 4.18095 0
M  V30 13034 C 1182.96 2.8609 5.17597 0
M  V30 13035 H 1181.89 0.219171 0.721443 0
M  V30 13036 H 1184.54 1.15231 1.42807 0
M  V30 13037 H 1182.93 0.387201 3.94102 0
M  V30 13038 H 1184.1 3.18101 3.3339 0
M  V30 13039 H 1182.42 2.75797 3.11969 0
M  V30 13040 H 1185.01 0.977962 5.25681 0
M  V30 13041 H 1185.36 -0.328807 4.14999 0
M  V30 13042 H 1185.89 1.32262 3.75169 0
M  V30 13043 H 1182.63 3.91427 5.25799 0
M  V30 13044 H 1182.15 2.22999 5.56805 0
M  V30 13045 H 1183.83 2.74959 5.85668 0
M  V30 13046 N 1183.96 -1.40369 0.716545 0
M  V30 13047 C 1184.89 -2.33365 0.0793533 0
M  V30 13048 C 1185.87 -1.52943 -0.744482 0
M  V30 13049 O 1187.05 -1.81406 -0.693212 0
M  V30 13050 C 1184.18 -3.36928 -0.842429 0
M  V30 13051 C 1183.14 -4.2782 -0.124142 0
M  V30 13052 C 1182.46 -5.21928 -1.1617 0
M  V30 13053 C 1183.76 -5.12199 1.02224 0
M  V30 13054 H 1185.46 -2.86899 0.856115 0
M  V30 13055 H 1183 -1.37946 0.413138 0
M  V30 13056 H 1184.96 -4.00925 -1.29759 0
M  V30 13057 H 1183.68 -2.81791 -1.6511 0
M  V30 13058 H 1182.34 -3.65277 0.311201 0
M  V30 13059 H 1181.99 -4.63096 -1.96345 0
M  V30 13060 H 1181.69 -5.83582 -0.685978 0
M  V30 13061 H 1183.21 -5.88802 -1.61694 0
M  V30 13062 H 1184.63 -5.69644 0.646399 0
M  V30 13063 H 1183.02 -5.82901 1.4264 0
M  V30 13064 H 1184.09 -4.4812 1.85246 0
M  V30 13065 N 1185.44 -0.462799 -1.50652 0
M  V30 13066 C 1186.68 0.0951853 -2.02576 0
M  V30 13067 C 1187.02 1.40113 -1.34469 0
M  V30 13068 O 1186.29 1.88793 -0.467702 0
M  V30 13069 C 1186.57 0.287603 -3.5895 0
M  V30 13070 C 1186.43 -1.03878 -4.37641 0
M  V30 13071 C 1187.75 1.04593 -4.27491 0
M  V30 13072 H 1184.86 0.0331191 -0.736255 0
M  V30 13073 H 1187.51 -0.606772 -1.80051 0
M  V30 13074 H 1185.66 0.885514 -3.78274 0
M  V30 13075 H 1187.33 -1.67263 -4.29908 0
M  V30 13076 H 1185.57 -1.6374 -4.01711 0
M  V30 13077 H 1186.24 -0.857889 -5.45293 0
M  V30 13078 H 1188.72 0.539213 -4.12591 0
M  V30 13079 H 1187.59 1.14935 -5.36732 0
M  V30 13080 H 1187.86 2.08045 -3.90089 0
M  V30 13081 N 1186.91 1.56388 -0.195085 0
M  V30 13082 C 1188.33 1.8398 0.317513 0
M  V30 13083 C 1188.68 1.11575 1.61386 0
M  V30 13084 O 1187.8 0.376557 2.13099 0
M  V30 13085 C 1188.4 3.33749 0.582859 0
M  V30 13086 C 1186.96 3.61752 1.03983 0
M  V30 13087 C 1186.1 2.77159 0.088434 0
M  V30 13088 H 1189.05 1.53072 -0.418871 0
M  V30 13089 H 1189.07 3.52519 1.43216 0
M  V30 13090 H 1188.59 3.86419 -0.360813 0
M  V30 13091 H 1186.69 3.14515 1.99778 0
M  V30 13092 H 1186.8 4.69937 0.932549 0
M  V30 13093 H 1185.16 2.47765 0.590317 0
M  V30 13094 H 1185.95 3.32619 -0.849682 0
M  V30 13095 N 1188.39 -0.0785156 1.57404 0
M  V30 13096 C 1189.3 -1.11203 2.0657 0
M  V30 13097 C 1190.32 -1.42822 0.993872 0
M  V30 13098 O 1191.49 -1.53133 1.30814 0
M  V30 13099 C 1188.56 -2.40812 2.4942 0
M  V30 13100 C 1187.62 -2.16225 3.70871 0
M  V30 13101 C 1186.85 -3.39654 4.11668 0
M  V30 13102 O 1187.08 -4.48521 3.524 0
M  V30 13103 O 1186.01 -3.28263 5.04507 0
M  V30 13104 H 1189.84 -0.724381 2.94935 0
M  V30 13105 H 1187.42 -0.292184 1.46515 0
M  V30 13106 H 1189.3 -3.17101 2.77534 0
M  V30 13107 H 1187.98 -2.7897 1.64187 0
M  V30 13108 H 1186.89 -1.37663 3.4785 0
M  V30 13109 H 1188.22 -1.82951 4.56935 0
M  V30 13110 N 1189.87 -1.5367 -0.349747 0
M  V30 13111 C 1191.1 -1.74858 -1.11532 0
M  V30 13112 C 1191.52 -0.483591 -1.81777 0
M  V30 13113 O 1190.88 0.563399 -1.72324 0
M  V30 13114 C 1190.93 -2.92479 -2.10923 0
M  V30 13115 O 1190.03 -2.62194 -3.18321 0
M  V30 13116 H 1189.37 -0.580219 -0.322865 0
M  V30 13117 H 1191.9 -2.00611 -0.402033 0
M  V30 13118 H 1191.91 -3.19093 -2.54252 0
M  V30 13119 H 1190.59 -3.84228 -1.59191 0
M  V30 13120 H 1189.16 -2.46448 -2.79853 0
M  V30 13121 N 1191.35 0.610423 -1.45298 0
M  V30 13122 C 1192.3 1.7213 -1.53753 0
M  V30 13123 C 1193.27 1.61609 -0.383632 0
M  V30 13124 O 1194.45 1.8123 -0.596694 0
M  V30 13125 C 1191.59 3.10433 -1.50749 0
M  V30 13126 C 1190.7 3.3178 -2.76669 0
M  V30 13127 C 1189.84 4.60173 -2.65356 0
M  V30 13128 C 1188.88 4.74769 -3.86343 0
M  V30 13129 N 1188.01 5.94459 -3.73581 0
M  V30 13130 H 1192.85 1.64239 -2.48655 0
M  V30 13131 H 1190.39 0.800879 -1.23387 0
M  V30 13132 H 1192.35 3.90446 -1.46996 0
M  V30 13133 H 1190.98 3.17288 -0.593998 0
M  V30 13134 H 1190.03 2.45563 -2.90522 0
M  V30 13135 H 1191.34 3.38439 -3.66416 0
M  V30 13136 H 1190.5 5.48377 -2.59553 0
M  V30 13137 H 1189.24 4.55907 -1.73204 0
M  V30 13138 H 1188.24 3.8499 -3.92509 0
M  V30 13139 H 1189.47 4.80834 -4.79557 0
M  V30 13140 H 1187.41 5.91243 -2.84196 0
M  V30 13141 H 1187.33 6.02265 -4.5696 0
M  V30 13142 H 1188.6 6.85168 -3.71705 0
M  V30 13143 N 1192.83 1.32541 0.852676 0
M  V30 13144 C 1194.24 1.11575 1.14119 0
M  V30 13145 C 1194.44 -0.102469 2.01239 0
M  V30 13146 O 1193.5 -0.786786 2.39929 0
M  V30 13147 C 1194.81 2.39624 1.81661 0
M  V30 13148 C 1196.36 2.454 1.94288 0
M  V30 13149 C 1196.83 3.73375 2.65245 0
M  V30 13150 N 1198.33 3.74368 2.72769 0
M  V30 13151 C 1199.06 4.70094 3.28328 0
M  V30 13152 N 1198.56 5.76187 3.84682 0
M  V30 13153 N 1200.35 4.57588 3.26449 0
M  V30 13154 H 1192.5 2.10644 0.272544 0
M  V30 13155 H 1194.76 0.930094 0.183385 0
M  V30 13156 H 1194.47 3.28698 1.25102 0
M  V30 13157 H 1194.34 2.50734 2.81802 0
M  V30 13158 H 1196.73 1.56784 2.50005 0
M  V30 13159 H 1196.81 2.38241 0.931379 0
M  V30 13160 H 1196.46 4.62366 2.10191 0
M  V30 13161 H 1196.39 3.77806 3.66838 0
M  V30 13162 H 1198.88 2.97685 2.32791 0
M  V30 13163 H 1199.19 6.45285 4.25238 0
M  V30 13164 H 1197.53 5.79939 3.83008 0
M  V30 13165 H 1200.73 3.7387 2.81672 0
M  V30 13166 H 1200.9 5.32365 3.69448 0
M  V30 13167 N 1194.3 -1.0692 1.15784 0
M  V30 13168 C 1195.55 -1.8002 0.946795 0
M  V30 13169 C 1195.91 -1.85232 -0.520268 0
M  V30 13170 O 1195.2 -1.32825 -1.38087 0
M  V30 13171 C 1195.39 -3.24389 1.50022 0
M  V30 13172 C 1195.22 -3.33245 3.01957 0
M  V30 13173 C 1193.99 -3.43549 3.70543 0
M  V30 13174 C 1196.19 -3.23634 3.99707 0
M  V30 13175 N 1194.17 -3.41354 5.10246 0
M  V30 13176 C 1195.54 -3.28608 5.25754 0
M  V30 13177 C 1197.6 -3.07475 3.91617 0
M  V30 13178 C 1196.3 -3.19084 6.44653 0
M  V30 13179 C 1198.33 -2.99286 5.1008 0
M  V30 13180 C 1197.69 -3.04876 6.35004 0
M  V30 13181 H 1193.79 -0.671859 0.400162 0
M  V30 13182 H 1196.37 -1.27592 1.47066 0
M  V30 13183 H 1194.54 -3.75228 1.00293 0
M  V30 13184 H 1196.27 -3.85633 1.22756 0
M  V30 13185 H 1193.03 -3.48079 3.21151 0
M  V30 13186 H 1193.45 -3.43772 5.83223 0
M  V30 13187 H 1198.1 -3.02004 2.95895 0
M  V30 13188 H 1195.81 -3.23313 7.40604 0
M  V30 13189 H 1199.4 -2.8788 5.05585 0
M  V30 13190 H 1198.28 -2.9859 7.2513 0
M  V30 13191 N 1195.78 -0.955326 -1.25345 0
M  V30 13192 C 1196.75 -0.480564 -2.24105 0
M  V30 13193 C 1197.75 0.416123 -1.55322 0
M  V30 13194 O 1198.94 0.213315 -1.72889 0
M  V30 13195 C 1196.07 0.305589 -3.39528 0
M  V30 13196 H 1197.26 -1.35349 -2.6762 0
M  V30 13197 H 1194.81 -0.738673 -1.37744 0
M  V30 13198 H 1195.55 1.19615 -3.01434 0
M  V30 13199 H 1195.33 -0.337719 -3.90643 0
M  V30 13200 H 1196.82 0.627201 -4.12863 0
M  V30 13201 N 1197.26 1.39987 -0.723979 0
M  V30 13202 C 1198.68 1.54547 -0.398403 0
M  V30 13203 C 1198.88 1.69348 1.09194 0
M  V30 13204 O 1197.93 1.68778 1.87804 0
M  V30 13205 C 1199.25 2.76929 -1.1718 0
M  V30 13206 C 1200.79 2.90754 -1.15893 0
M  V30 13207 C 1201.27 4.16059 -1.91465 0
M  V30 13208 N 1202.76 4.23076 -1.88576 0
M  V30 13209 C 1203.5 5.18957 -2.43867 0
M  V30 13210 N 1202.99 6.20695 -3.0775 0
M  V30 13211 N 1204.78 5.11095 -2.33962 0
M  V30 13212 H 1196.94 1.28626 -1.69024 0
M  V30 13213 H 1199.2 0.6226 -0.714894 0
M  V30 13214 H 1198.9 2.72298 -2.22591 0
M  V30 13215 H 1198.78 3.69279 -0.768941 0
M  V30 13216 H 1201.17 2.94884 -0.112978 0
M  V30 13217 H 1201.25 1.99498 -1.60107 0
M  V30 13218 H 1200.89 4.12691 -2.96055 0
M  V30 13219 H 1200.82 5.06339 -1.44665 0
M  V30 13220 H 1203.31 3.50195 -1.42027 0
M  V30 13221 H 1203.62 6.90296 -3.47435 0
M  V30 13222 H 1201.97 6.21114 -3.11837 0
M  V30 13223 H 1205.16 4.30546 -1.83706 0
M  V30 13224 H 1205.33 5.85644 -2.77353 0
M  V30 13225 N 1198.74 0.470782 1.50404 0
M  V30 13226 C 1199.99 -0.0844409 2.02624 0
M  V30 13227 C 1200.32 -1.39398 1.3521 0
M  V30 13228 O 1199.59 -1.88542 0.477707 0
M  V30 13229 C 1199.88 -0.268563 3.59097 0
M  V30 13230 C 1199.73 1.06198 4.37084 0
M  V30 13231 C 1201.05 -1.02324 4.28039 0
M  V30 13232 H 1198.17 -0.0292141 0.736421 0
M  V30 13233 H 1200.81 0.616312 1.79726 0
M  V30 13234 H 1198.96 -0.865441 3.78738 0
M  V30 13235 H 1200.63 1.69541 4.29015 0
M  V30 13236 H 1198.87 1.65868 4.00837 0
M  V30 13237 H 1199.55 0.886795 5.4483 0
M  V30 13238 H 1202.02 -0.517325 4.12872 0
M  V30 13239 H 1200.9 -1.12087 5.37334 0
M  V30 13240 H 1201.16 -2.05974 3.91187 0
M  V30 13241 N 1200.22 -1.56282 0.203376 0
M  V30 13242 C 1201.44 -2.02643 -0.441658 0
M  V30 13243 C 1201.87 -1.0825 -1.5383 0
M  V30 13244 O 1201.23 -0.0674337 -1.81175 0
M  V30 13245 C 1201.27 -3.47382 -0.967369 0
M  V30 13246 O 1200.38 -3.56115 -2.07981 0
M  V30 13247 H 1199.72 -0.656081 -0.102242 0
M  V30 13248 H 1202.25 -2.02134 0.316684 0
M  V30 13249 H 1202.26 -3.8734 -1.28186 0
M  V30 13250 H 1200.93 -4.15574 -0.164625 0
M  V30 13251 H 1199.51 -3.28035 -1.77334 0
M  V30 13252 N 1201.7 0.070167 -1.57444 0
M  V30 13253 C 1202.94 0.774338 -1.89165 0
M  V30 13254 C 1203.3 1.7466 -0.797353 0
M  V30 13255 O 1204.5 2.49599 -0.997682 0
M  V30 13256 C 1202.77 1.46235 -3.26114 0
M  V30 13257 S 1204.33 2.20136 -3.79586 0
M  V30 13258 H 1201.15 0.257464 -0.662747 0
M  V30 13259 H 1203.75 0.0303734 -1.95476 0
M  V30 13260 H 1202.45 0.740942 -4.03656 0
M  V30 13261 H 1201.99 2.24571 -3.23004 0
M  V30 13262 H 1204 3.4668 -3.55003 0
M  V30 13263 N 1203.17 1.53854 0.341593 0
M  V30 13264 C 1204.42 1.71447 1.08322 0
M  V30 13265 C 1204.75 0.477289 1.88243 0
M  V30 13266 O 1204.03 -0.525695 1.87261 0
M  V30 13267 C 1204.31 2.97917 2.02281 0
M  V30 13268 C 1204.16 4.31847 1.25809 0
M  V30 13269 C 1205.48 3.20065 3.0207 0
M  V30 13270 H 1202.6 0.623847 0.392408 0
M  V30 13271 H 1205.24 1.86527 0.361594 0
M  V30 13272 H 1203.39 2.85191 2.63815 0
M  V30 13273 H 1205.07 4.56427 0.668737 0
M  V30 13274 H 1203.31 4.30169 0.560119 0
M  V30 13275 H 1203.98 5.16522 1.94704 0
M  V30 13276 H 1206.46 3.32135 2.50651 0
M  V30 13277 H 1205.33 4.09947 3.65013 0
M  V30 13278 H 1205.59 2.36452 3.73554 0
M  V30 13279 N 1204.65 -0.602709 1.4562 0
M  V30 13280 C 1205.88 -1.39299 1.53657 0
M  V30 13281 C 1206.3 -1.87315 0.171632 0
M  V30 13282 O 1205.66 -1.60423 -0.844639 0
M  V30 13283 C 1205.71 -2.57021 2.52928 0
M  V30 13284 O 1204.81 -3.57812 2.05047 0
M  V30 13285 H 1204.15 -0.41567 0.517798 0
M  V30 13286 H 1206.68 -0.73304 1.91018 0
M  V30 13287 H 1206.69 -3.04202 2.71892 0
M  V30 13288 H 1205.37 -2.21422 3.52058 0
M  V30 13289 H 1203.94 -3.17247 1.95981 0
M  V30 13290 N 1206.13 -1.32992 -0.845635 0
M  V30 13291 C 1207.08 -1.22652 -1.97634 0
M  V30 13292 C 1208.07 -0.129344 -1.68905 0
M  V30 13293 O 1209.28 -0.292863 -1.77602 0
M  V30 13294 H 1205.65 -0.380439 -0.648668 0
M  V30 13295 H 1207.62 -2.18261 -2.03481 0
M  V30 13296 C 1206.37 -0.975677 -3.3373 0
M  V30 13297 H 1205.7 -1.81217 -3.56371 0
M  V30 13298 H 1207.14 -0.943608 -4.13367 0
M  V30 13299 C 1205.59 0.321491 -3.35363 0
M  V30 13300 O 1206.12 1.33042 -3.79029 0
M  V30 13301 N 1204.33 0.346648 -2.88525 0
M  V30 13302 H 1203.88 -0.474931 -2.53184 0
M  V30 13303 H 1203.84 1.2144 -2.9 0
M  V30 13304 N 1207.61 1.06304 -1.1635 0
M  V30 13305 C 1208.88 1.75916 -0.855166 0
M  V30 13306 C 1209.26 2.0094 0.647024 0
M  V30 13307 O 1208.61 1.63642 1.59479 0
M  V30 13308 C 1208.82 3.06028 -1.67774 0
M  V30 13309 C 1210.17 3.80184 -1.89065 0
M  V30 13310 O 1211.19 3.15868 -1.64639 0
M  V30 13311 O 1210.05 4.95723 -2.30045 0
M  V30 13312 H 1207.15 0.764432 -0.315551 0
M  V30 13313 H 1209.69 1.12574 -1.26985 0
M  V30 13314 H 1208.47 2.83498 -2.69712 0
M  V30 13315 H 1208.09 3.77104 -1.26009 0
M  V30 13316 N 1209.09 0.96196 1.24836 0
M  V30 13317 C 1210.02 0.445329 2.24832 0
M  V30 13318 C 1211.03 -0.442797 1.56663 0
M  V30 13319 O 1212.22 -0.249896 1.76742 0
M  V30 13320 C 1209.32 -0.376953 3.36797 0
M  V30 13321 C 1208.49 0.499908 4.34534 0
M  V30 13322 C 1207.55 -0.265402 5.2553 0
M  V30 13323 O 1206.58 0.338707 5.68191 0
M  V30 13324 N 1207.78 -1.55654 5.59243 0
M  V30 13325 H 1210.54 1.30505 2.69793 0
M  V30 13326 H 1208.11 0.833137 1.38818 0
M  V30 13327 H 1210.1 -0.896831 3.94638 0
M  V30 13328 H 1208.67 -1.13757 2.91167 0
M  V30 13329 H 1207.89 1.20082 3.75465 0
M  V30 13330 H 1209.18 1.09814 4.96808 0
M  V30 13331 H 1208.57 -2.06916 5.265 0
M  V30 13332 H 1207.13 -2.02223 6.19636 0
M  V30 13333 N 1210.56 -1.39601 0.731392 0
M  V30 13334 C 1211.81 -1.99821 0.274661 0
M  V30 13335 C 1212.13 -1.58693 -1.1435 0
M  V30 13336 O 1213.33 -2.11724 -1.69957 0
M  V30 13337 C 1211.79 -3.57199 0.440124 0
M  V30 13338 C 1211.4 -4.07292 1.86594 0
M  V30 13339 C 1213.14 -4.24476 0.0449851 0
M  V30 13340 C 1211.05 -5.57229 1.98115 0
M  V30 13341 H 1209.98 -0.747481 0.0989383 0
M  V30 13342 H 1212.63 -1.59645 0.904755 0
M  V30 13343 H 1211.01 -3.95153 -0.25881 0
M  V30 13344 H 1212.18 -3.80679 2.59654 0
M  V30 13345 H 1210.5 -3.52665 2.21397 0
M  V30 13346 H 1213.1 -5.34587 0.110126 0
M  V30 13347 H 1213.44 -4.04129 -0.999269 0
M  V30 13348 H 1213.97 -3.91683 0.694942 0
M  V30 13349 H 1210.71 -5.82452 3.00716 0
M  V30 13350 H 1210.23 -5.85656 1.29487 0
M  V30 13351 H 1211.91 -6.22584 1.76063 0
M  V30 13352 N 1212.04 -0.478751 -1.50152 0
M  V30 13353 C 1213.29 0.073694 -2.02666 0
M  V30 13354 C 1213.62 1.38679 -1.35947 0
M  V30 13355 O 1212.9 1.88286 -0.4877 0
M  V30 13356 C 1213.18 0.249516 -3.59235 0
M  V30 13357 C 1213.03 -1.08514 -4.36514 0
M  V30 13358 C 1214.35 1.00053 -4.28576 0
M  V30 13359 H 1211.47 0.0253082 -0.736565 0
M  V30 13360 H 1214.11 -0.625834 -1.79397 0
M  V30 13361 H 1212.26 0.845343 -3.79192 0
M  V30 13362 H 1213.93 -1.71814 -4.28109 0
M  V30 13363 H 1212.18 -1.67992 -3.99952 0
M  V30 13364 H 1212.85 -0.915676 -5.44352 0
M  V30 13365 H 1215.32 0.495422 -4.1314 0
M  V30 13366 H 1214.2 1.09236 -5.37921 0
M  V30 13367 H 1214.46 2.03896 -3.92274 0
M  V30 13368 N 1213.52 1.56172 -0.211661 0
M  V30 13369 C 1214.47 2.21206 0.719063 0
M  V30 13370 C 1215.46 1.18835 1.20725 0
M  V30 13371 O 1216.67 1.36939 1.16823 0
M  V30 13372 H 1213.04 0.709129 0.250279 0
M  V30 13373 H 1215.01 2.98038 0.147022 0
M  V30 13374 C 1213.76 2.89826 1.92084 0
M  V30 13375 H 1213.09 3.68351 1.55428 0
M  V30 13376 H 1214.53 3.38744 2.55006 0
M  V30 13377 C 1212.99 1.91756 2.77004 0
M  V30 13378 O 1213.52 1.42826 3.75451 0
M  V30 13379 N 1211.72 1.59622 2.42836 0
M  V30 13380 H 1211.27 1.99606 1.62835 0
M  V30 13381 H 1211.23 0.942641 2.99936 0
M  V30 13382 N 1215 -0.0618163 1.57479 0
M  V30 13383 C 1215.93 -1.07252 2.07411 0
M  V30 13384 C 1216.91 -1.39756 0.969649 0
M  V30 13385 O 1218.09 -1.4921 1.24298 0
M  V30 13386 C 1215.22 -2.38313 2.52635 0
M  V30 13387 C 1214.18 -2.20136 3.67048 0
M  V30 13388 C 1213.5 -3.56668 3.98361 0
M  V30 13389 C 1214.8 -1.61437 4.96725 0
M  V30 13390 H 1216.5 -0.656983 2.92103 0
M  V30 13391 H 1214.04 -0.314579 1.40522 0
M  V30 13392 H 1216 -3.09319 2.86181 0
M  V30 13393 H 1214.72 -2.81865 1.64984 0
M  V30 13394 H 1213.38 -1.51569 3.338 0
M  V30 13395 H 1213.03 -3.97809 3.07826 0
M  V30 13396 H 1212.73 -3.45342 4.75408 0
M  V30 13397 H 1214.25 -4.2909 4.34413 0
M  V30 13398 H 1215.67 -2.2232 5.28438 0
M  V30 13399 H 1214.06 -1.60779 5.78161 0
M  V30 13400 H 1215.13 -0.576795 4.81457 0
M  V30 13401 N 1216.48 -1.54033 -0.333429 0
M  V30 13402 C 1217.44 -1.82021 -1.39288 0
M  V30 13403 C 1218.44 -0.691623 -1.45166 0
M  V30 13404 O 1219.63 -0.959925 -1.45365 0
M  V30 13405 C 1216.76 -1.97136 -2.78119 0
M  V30 13406 H 1217.95 -2.76671 -1.1573 0
M  V30 13407 H 1215.51 -1.45599 -0.568376 0
M  V30 13408 H 1216.24 -1.04663 -3.06946 0
M  V30 13409 H 1216.03 -2.79251 -2.75247 0
M  V30 13410 H 1217.52 -2.20271 -3.54782 0
M  V30 13411 N 1217.95 0.594978 -1.45938 0
M  V30 13412 C 1218.9 1.726 -1.55923 0
M  V30 13413 C 1219.9 1.63893 -0.428411 0
M  V30 13414 O 1221.1 1.69535 -0.604815 0
M  V30 13415 H 1217.48 0.570447 -0.489994 0
M  V30 13416 H 1219.45 1.61308 -2.51043 0
M  V30 13417 C 1218.2 3.10988 -1.55505 0
M  V30 13418 H 1217.52 3.18353 -2.4185 0
M  V30 13419 H 1218.96 3.8992 -1.66548 0
M  V30 13420 C 1217.42 3.35721 -0.281573 0
M  V30 13421 O 1217.95 3.96676 0.633336 0
M  V30 13422 N 1216.16 2.90083 -0.173314 0
M  V30 13423 H 1215.7 2.4066 -0.91872 0
M  V30 13424 H 1215.66 3.07005 0.677903 0
M  V30 13425 N 1219.43 1.33438 0.838571 0
M  V30 13426 C 1220.68 1.24259 1.58879 0
M  V30 13427 C 1220.99 -0.189957 1.94675 0
M  V30 13428 O 1222.2 -0.40376 2.68481 0
M  V30 13429 C 1220.66 2.1773 2.86569 0
M  V30 13430 C 1220.26 3.66156 2.58135 0
M  V30 13431 C 1222.01 2.17424 3.64591 0
M  V30 13432 C 1219.92 4.5154 3.81923 0
M  V30 13433 H 1218.85 0.461534 0.59624 0
M  V30 13434 H 1221.5 1.58504 0.924588 0
M  V30 13435 H 1219.88 1.76418 3.54532 0
M  V30 13436 H 1221.05 4.1591 1.98382 0
M  V30 13437 H 1219.37 3.68754 1.93416 0
M  V30 13438 H 1221.96 2.78446 4.56478 0
M  V30 13439 H 1222.31 1.16939 3.99539 0
M  V30 13440 H 1222.84 2.571 3.03553 0
M  V30 13441 H 1219.58 5.52902 3.52107 0
M  V30 13442 H 1219.1 4.06529 4.41015 0
M  V30 13443 H 1220.78 4.65359 4.495 0
M  V30 13444 N 1220.91 -1.05686 1.16912 0
M  V30 13445 C 1221.84 -2.12775 0.824755 0
M  V30 13446 C 1222.82 -1.61286 -0.206289 0
M  V30 13447 O 1224.01 -1.8829 -0.0889616 0
M  V30 13448 C 1221.13 -3.37922 0.229422 0
M  V30 13449 C 1220.18 -4.08226 1.23506 0
M  V30 13450 S 1221.01 -4.57424 2.78431 0
M  V30 13451 C 1222.17 -5.85825 2.20364 0
M  V30 13452 H 1222.4 -2.41657 1.73174 0
M  V30 13453 H 1219.93 -1.18212 0.99324 0
M  V30 13454 H 1221.89 -4.10359 -0.107588 0
M  V30 13455 H 1220.55 -3.07186 -0.655424 0
M  V30 13456 H 1219.75 -4.98129 0.767059 0
M  V30 13457 H 1219.35 -3.41832 1.51747 0
M  V30 13458 H 1221.64 -6.58912 1.57611 0
M  V30 13459 H 1222.58 -6.37364 3.08501 0
M  V30 13460 H 1222.99 -5.4015 1.64008 0
M  V30 13461 N 1222.39 -0.968567 -1.24324 0
M  V30 13462 C 1223.61 -0.648166 -1.97012 0
M  V30 13463 C 1224.04 0.775842 -1.71354 0
M  V30 13464 O 1223.4 1.52672 -0.977804 0
M  V30 13465 C 1223.44 -0.929974 -3.48402 0
M  V30 13466 O 1222.55 -0.015854 -4.12397 0
M  V30 13467 H 1221.89 -0.244961 -0.617163 0
M  V30 13468 H 1224.42 -1.29895 -1.58077 0
M  V30 13469 H 1224.43 -0.861863 -3.98793 0
M  V30 13470 H 1223.1 -1.96776 -3.66404 0
M  V30 13471 H 1221.68 -0.137361 -3.72647 0
M  V30 13472 N 1223.87 1.39211 -0.738786 0
M  V30 13473 C 1225.09 2.04732 -0.298751 0
M  V30 13474 C 1225.51 1.55706 1.06776 0
M  V30 13475 O 1224.87 0.723605 1.67542 0
M  V30 13476 C 1224.92 3.60288 -0.29574 0
M  V30 13477 O 1224.64 4.07511 -1.60831 0
M  V30 13478 C 1226.14 4.43011 0.159994 0
M  V30 13479 H 1223.36 0.658296 -0.129952 0
M  V30 13480 H 1225.9 1.78186 -1.0035 0
M  V30 13481 H 1224.06 3.85722 0.360146 0
M  V30 13482 H 1224.47 5.01858 -1.52443 0
M  V30 13483 H 1225.95 5.51889 0.110941 0
M  V30 13484 H 1226.42 4.22325 1.20573 0
M  V30 13485 H 1227.03 4.22734 -0.466467 0
M  V30 13486 N 1225.34 0.486708 1.49896 0
M  V30 13487 C 1226.59 -0.0629451 2.02702 0
M  V30 13488 C 1226.92 -1.37956 1.36681 0
M  V30 13489 O 1226.2 -1.88025 0.497678 0
M  V30 13490 C 1226.48 -0.230461 3.59362 0
M  V30 13491 C 1226.33 1.10828 4.35933 0
M  V30 13492 C 1227.65 -0.977785 4.29101 0
M  V30 13493 H 1224.77 -0.0214017 0.736689 0
M  V30 13494 H 1227.41 0.635339 1.79063 0
M  V30 13495 H 1225.56 -0.825222 3.79634 0
M  V30 13496 H 1227.24 1.74082 4.27192 0
M  V30 13497 H 1225.48 1.7011 3.99055 0
M  V30 13498 H 1226.15 0.944532 5.43859 0
M  V30 13499 H 1228.63 -0.473505 4.13397 0
M  V30 13500 H 1227.5 -1.06382 5.38492 0
M  V30 13501 H 1227.76 -2.01813 3.9335 0
M  V30 13502 N 1226.82 -1.56058 0.219941 0
M  V30 13503 C 1228.05 -2.031 -0.42014 0
M  V30 13504 C 1228.47 -1.09875 -1.52673 0
M  V30 13505 O 1227.83 -0.0866458 -1.81093 0
M  V30 13506 C 1227.88 -3.48389 -0.93047 0
M  V30 13507 O 1226.98 -3.583 -2.04192 0
M  V30 13508 H 1226.32 -0.657129 -0.0952772 0
M  V30 13509 H 1228.85 -2.01787 0.338105 0
M  V30 13510 H 1228.86 -3.88678 -1.2407 0
M  V30 13511 H 1227.54 -4.15725 -0.120539 0
M  V30 13512 H 1226.12 -3.29898 -1.73845 0
M  V30 13513 N 1228.3 0.053464 -1.57509 0
M  V30 13514 C 1229.53 0.761533 -1.92375 0
M  V30 13515 C 1229.94 1.70179 -0.817585 0
M  V30 13516 O 1229.3 1.81313 0.207843 0
M  V30 13517 C 1229.35 1.53954 -3.27078 0
M  V30 13518 O 1229.07 0.637054 -4.33443 0
M  V30 13519 C 1230.57 2.34697 -3.76075 0
M  V30 13520 H 1227.79 0.215483 -0.635459 0
M  V30 13521 H 1230.34 0.0182624 -2.04492 0
M  V30 13522 H 1228.49 2.23492 -3.16434 0
M  V30 13523 H 1228.91 1.18006 -5.11053 0
M  V30 13524 H 1230.38 2.84716 -4.72906 0
M  V30 13525 H 1230.86 3.15041 -3.06016 0
M  V30 13526 H 1231.46 1.70281 -3.89724 0
M  V30 13527 N 1229.78 1.54207 0.325255 0
M  V30 13528 C 1230.73 1.84197 1.42036 0
M  V30 13529 C 1231.72 0.71375 1.53629 0
M  V30 13530 O 1232.93 0.897385 1.56035 0
M  V30 13531 H 1229.3 0.583848 0.473947 0
M  V30 13532 H 1231.27 2.7578 1.13965 0
M  V30 13533 C 1230.02 2.08459 2.78281 0
M  V30 13534 H 1229.35 2.94734 2.70133 0
M  V30 13535 H 1230.79 2.33398 3.5398 0
M  V30 13536 C 1229.24 0.875615 3.25322 0
M  V30 13537 O 1229.77 0.0840387 4.01612 0
M  V30 13538 N 1227.98 0.687721 2.82345 0
M  V30 13539 H 1227.53 1.33307 2.20425 0
M  V30 13540 H 1227.49 -0.119687 3.14172 0
M  V30 13541 N 1231.26 -0.58723 1.46251 0
M  V30 13542 C 1232.22 -1.67863 1.5606 0
M  V30 13543 C 1233.22 -1.54715 0.438162 0
M  V30 13544 O 1234.41 -1.59415 0.702323 0
M  V30 13545 C 1231.54 -3.07262 1.47659 0
M  V30 13546 H 1232.74 -1.60525 2.53321 0
M  V30 13547 H 1230.29 -0.804691 1.33994 0
M  V30 13548 H 1231.02 -3.20159 0.5166 0
M  V30 13549 H 1230.81 -3.18213 2.29092 0
M  V30 13550 H 1232.3 -3.8672 1.57599 0
M  V30 13551 N 1232.74 -1.33881 -0.831482 0
M  V30 13552 C 1233.67 -1.27384 -1.95693 0
M  V30 13553 C 1234.65 -0.152943 -1.69411 0
M  V30 13554 O 1235.83 -0.34392 -1.9113 0
M  V30 13555 C 1232.96 -1.01982 -3.31989 0
M  V30 13556 C 1231.92 -2.10445 -3.72689 0
M  V30 13557 C 1231.24 -1.70245 -5.06873 0
M  V30 13558 C 1232.54 -3.52194 -3.8569 0
M  V30 13559 H 1234.24 -2.21549 -2.01386 0
M  V30 13560 H 1231.78 -1.06653 -0.967526 0
M  V30 13561 H 1233.73 -0.960841 -4.103 0
M  V30 13562 H 1232.46 -0.0425709 -3.26572 0
M  V30 13563 H 1231.12 -2.15398 -2.96647 0
M  V30 13564 H 1230.77 -0.712036 -4.97935 0
M  V30 13565 H 1230.47 -2.42834 -5.35075 0
M  V30 13566 H 1231.99 -1.65827 -5.87651 0
M  V30 13567 H 1233.4 -3.49701 -4.54293 0
M  V30 13568 H 1231.8 -4.23331 -4.25336 0
M  V30 13569 H 1232.87 -3.9016 -2.87929 0
M  V30 13570 N 1234.21 1.05064 -1.1747 0
M  V30 13571 C 1235.44 1.81761 -0.988464 0
M  V30 13572 C 1235.86 1.83028 0.463272 0
M  V30 13573 O 1235.21 1.25846 1.32171 0
M  V30 13574 C 1235.26 3.2782 -1.5237 0
M  V30 13575 O 1234.99 3.26726 -2.91859 0
M  V30 13576 C 1236.49 4.212 -1.38223 0
M  V30 13577 H 1233.71 0.572712 -0.349631 0
M  V30 13578 H 1236.25 1.32477 -1.55789 0
M  V30 13579 H 1234.41 3.7437 -0.996272 0
M  V30 13580 H 1234.82 4.18151 -3.16623 0
M  V30 13581 H 1236.29 5.2166 -1.80485 0
M  V30 13582 H 1236.77 4.37962 -0.329491 0
M  V30 13583 H 1237.38 3.80506 -1.89988 0
M  V30 13584 N 1235.69 0.975146 1.23809 0
M  V30 13585 C 1236.94 0.642074 1.92367 0
M  V30 13586 C 1237.27 -0.82164 1.75962 0
M  V30 13587 O 1236.55 -1.59205 1.11732 0
M  V30 13588 C 1236.83 1.02677 3.45151 0
M  V30 13589 C 1236.68 2.54773 3.7069 0
M  V30 13590 C 1238 0.5668 4.36435 0
M  V30 13591 H 1235.12 0.234735 0.698619 0
M  V30 13592 H 1237.76 1.21549 1.46034 0
M  V30 13593 H 1235.91 0.538846 3.84745 0
M  V30 13594 H 1237.58 3.11099 3.4061 0
M  V30 13595 H 1235.83 2.97641 3.15583 0
M  V30 13596 H 1236.5 2.7674 4.77618 0
M  V30 13597 H 1238.97 0.985635 4.04258 0
M  V30 13598 H 1237.85 0.864458 5.4205 0
M  V30 13599 H 1238.11 -0.532989 4.38875 0
M  V30 13600 N 1237.17 -1.38817 0.746158 0
M  V30 13601 C 1238.13 -2.28876 0.121886 0
M  V30 13602 C 1239.13 -1.46838 -0.655379 0
M  V30 13603 O 1240.32 -1.67377 -0.482744 0
M  V30 13604 C 1237.45 -3.30487 -0.836118 0
M  V30 13605 H 1238.65 -2.85586 0.915453 0
M  V30 13606 H 1236.2 -1.47652 0.512691 0
M  V30 13607 H 1236.94 -2.78853 -1.65563 0
M  V30 13608 H 1236.72 -3.9109 -0.281271 0
M  V30 13609 H 1238.21 -3.97848 -1.26914 0
M  V30 13610 N 1238.65 -0.49465 -1.49636 0
M  V30 13611 C 1239.58 0.323781 -2.26902 0
M  V30 13612 C 1240.59 0.936281 -1.33183 0
M  V30 13613 O 1241.78 0.820695 -1.58514 0
M  V30 13614 C 1238.88 1.47025 -3.05347 0
M  V30 13615 C 1238.05 0.966228 -4.26594 0
M  V30 13616 C 1237.11 1.98955 -4.87138 0
M  V30 13617 O 1236.14 1.56065 -5.47387 0
M  V30 13618 N 1237.34 3.3195 -4.76224 0
M  V30 13619 H 1240.11 -0.338716 -2.9778 0
M  V30 13620 H 1237.67 -0.326817 -1.58567 0
M  V30 13621 H 1239.66 2.15225 -3.42725 0
M  V30 13622 H 1238.23 2.03702 -2.37117 0
M  V30 13623 H 1237.45 0.109336 -3.94048 0
M  V30 13624 H 1238.74 0.607781 -5.05157 0
M  V30 13625 H 1238.14 3.69488 -4.28363 0
M  V30 13626 H 1236.69 3.95881 -5.17805 0
M  V30 13627 N 1240.13 1.55939 -0.228214 0
M  V30 13628 C 1241.08 2.17223 0.692674 0
M  V30 13629 C 1242.06 1.12252 1.15275 0
M  V30 13630 O 1243.25 1.3822 1.10563 0
M  V30 13631 C 1240.38 2.86084 1.89766 0
M  V30 13632 C 1239.47 3.98288 1.45695 0
M  V30 13633 N 1239.86 5.00515 0.729258 0
M  V30 13634 C 1238.16 4.105 1.74372 0
M  V30 13635 C 1238.86 5.79516 0.503606 0
M  V30 13636 N 1237.83 5.33119 1.06229 0
M  V30 13637 H 1241.63 2.9362 0.128345 0
M  V30 13638 H 1239.15 1.62373 -0.0297445 0
M  V30 13639 H 1241.15 3.28404 2.5682 0
M  V30 13640 H 1239.81 2.11185 2.46639 0
M  V30 13641 H 1240.82 5.16495 0.381261 0
M  V30 13642 H 1237.49 3.46759 2.32518 0
M  V30 13643 H 1238.88 6.71857 -0.0760344 0
M  V30 13644 N 1241.6 -0.0451101 1.57535 0
M  V30 13645 C 1242.83 -0.755068 1.93167 0
M  V30 13646 C 1243.25 -1.68949 0.826915 0
M  V30 13647 O 1242.61 -1.79978 -0.218534 0
M  V30 13648 C 1242.66 -1.50201 3.27829 0
M  V30 13649 O 1241.76 -2.61434 3.18945 0
M  V30 13650 H 1241.11 -0.204219 0.631815 0
M  V30 13651 H 1243.64 -0.00537504 2.04599 0
M  V30 13652 H 1243.65 -1.87547 3.6234 0
M  V30 13653 H 1242.32 -0.816591 4.07805 0
M  V30 13654 H 1240.9 -2.26749 2.96039 0
M  V30 13655 N 1243.08 -1.54377 -0.317073 0
M  V30 13656 C 1244.01 -1.80563 -1.41172 0
M  V30 13657 C 1245.03 -0.687865 -1.47554 0
M  V30 13658 O 1246.22 -0.965084 -1.50161 0
M  V30 13659 C 1243.32 -1.9142 -2.79663 0
M  V30 13660 C 1242.49 -3.21655 -2.96407 0
M  V30 13661 C 1241.55 -3.23131 -4.15298 0
M  V30 13662 O 1240.57 -3.96741 -4.08149 0
M  V30 13663 N 1241.78 -2.47376 -5.25153 0
M  V30 13664 H 1244.54 -2.75032 -1.1907 0
M  V30 13665 H 1242.1 -1.53754 -0.507086 0
M  V30 13666 H 1244.09 -1.89828 -3.57418 0
M  V30 13667 H 1242.66 -1.0402 -2.94786 0
M  V30 13668 H 1241.88 -3.36154 -2.05899 0
M  V30 13669 H 1243.17 -4.07629 -3.04494 0
M  V30 13670 H 1242.57 -1.87173 -5.33838 0
M  V30 13671 H 1241.13 -2.51555 -6.01301 0
M  V30 13672 N 1244.56 0.579466 -1.4656 0
M  V30 13673 C 1245.79 1.36837 -1.55854 0
M  V30 13674 C 1246.21 1.87019 -0.20141 0
M  V30 13675 O 1245.57 1.61746 0.81901 0
M  V30 13676 C 1245.62 2.52965 -2.56985 0
M  V30 13677 O 1244.72 3.54505 -2.10713 0
M  V30 13678 H 1244.06 0.407379 -0.524345 0
M  V30 13679 H 1246.59 0.702558 -1.9216 0
M  V30 13680 H 1246.6 2.99838 -2.76697 0
M  V30 13681 H 1245.28 2.15793 -3.55536 0
M  V30 13682 H 1243.85 3.14089 -2.01003 0
M  V30 13683 N 1246.04 1.3432 0.824371 0
M  V30 13684 C 1246.97 1.2842 1.95014 0
M  V30 13685 C 1247.95 0.161925 1.69328 0
M  V30 13686 O 1249.13 0.354052 1.90945 0
M  V30 13687 C 1246.26 1.03741 3.31444 0
M  V30 13688 C 1245.22 2.12419 3.71567 0
M  V30 13689 C 1244.54 1.72931 5.05963 0
M  V30 13690 C 1245.84 3.54235 3.83817 0
M  V30 13691 H 1247.54 2.22614 2.00209 0
M  V30 13692 H 1245.08 1.07165 0.961856 0
M  V30 13693 H 1247.04 0.982586 4.09784 0
M  V30 13694 H 1245.76 0.0598892 3.26545 0
M  V30 13695 H 1244.42 2.16968 2.955 0
M  V30 13696 H 1244.07 0.738433 4.9755 0
M  V30 13697 H 1243.77 2.45668 5.3378 0
M  V30 13698 H 1245.29 1.68941 5.86763 0
M  V30 13699 H 1246.71 3.52106 4.52432 0
M  V30 13700 H 1245.1 4.25581 4.23085 0
M  V30 13701 H 1246.17 3.91682 2.85856 0
M  V30 13702 N 1247.52 -1.0444 1.18026 0
M  V30 13703 C 1248.77 -1.7697 0.9677 0
M  V30 13704 C 1249.08 -1.88995 -0.503994 0
M  V30 13705 O 1250.28 -2.58342 -0.834968 0
M  V30 13706 C 1248.74 -3.1816 1.68232 0
M  V30 13707 C 1248.35 -3.14241 3.19307 0
M  V30 13708 C 1250.09 -3.95095 1.55244 0
M  V30 13709 C 1248 -4.50266 3.83425 0
M  V30 13710 H 1246.93 -0.663355 0.358436 0
M  V30 13711 H 1249.58 -1.17003 1.4136 0
M  V30 13712 H 1247.96 -3.78501 1.16418 0
M  V30 13713 H 1249.14 -2.63373 3.78115 0
M  V30 13714 H 1247.45 -2.50805 3.32394 0
M  V30 13715 H 1250.05 -4.95681 2.00511 0
M  V30 13716 H 1250.39 -4.13236 0.504125 0
M  V30 13717 H 1250.92 -3.4132 2.04317 0
M  V30 13718 H 1247.66 -4.37329 4.88286 0
M  V30 13719 H 1247.18 -5.01251 3.29404 0
M  V30 13720 H 1248.86 -5.1919 3.86071 0
M  V30 13721 N 1248.99 -0.981699 -1.2329 0
M  V30 13722 C 1249.94 -0.52269 -2.24803 0
M  V30 13723 C 1250.91 0.439116 -1.6019 0
M  V30 13724 O 1252.1 0.346372 -1.8763 0
M  V30 13725 C 1249.24 0.167477 -3.44693 0
M  V30 13726 C 1248.35 -0.834744 -4.23858 0
M  V30 13727 C 1247.48 -0.119249 -5.31066 0
M  V30 13728 C 1246.52 -1.1106 -6.0194 0
M  V30 13729 N 1245.66 -0.424167 -7.00818 0
M  V30 13730 H 1250.5 -1.39312 -2.63431 0
M  V30 13731 H 1248.04 -0.698061 -1.29482 0
M  V30 13732 H 1250 0.584442 -4.13086 0
M  V30 13733 H 1248.63 1.00177 -3.06862 0
M  V30 13734 H 1247.68 -1.37009 -3.5487 0
M  V30 13735 H 1248.99 -1.59012 -4.72776 0
M  V30 13736 H 1248.14 0.355015 -6.0566 0
M  V30 13737 H 1246.88 0.668714 -4.83094 0
M  V30 13738 H 1245.89 -1.5956 -5.26138 0
M  V30 13739 H 1247.11 -1.89924 -6.52001 0
M  V30 13740 H 1245.06 0.344564 -6.55094 0
M  V30 13741 H 1244.98 -1.11817 -7.47685 0
M  V30 13742 H 1246.24 0.0276655 -7.79495 0
M  V30 13743 N 1250.47 1.3842 -0.753509 0
M  V30 13744 C 1251.88 1.82847 -0.377331 0
M  V30 13745 C 1252.23 1.62867 1.09401 0
M  V30 13746 O 1251.36 1.12981 1.84565 0
M  V30 13747 C 1251.95 3.31945 -0.678095 0
M  V30 13748 C 1250.51 3.7472 -0.355196 0
M  V30 13749 C 1249.66 2.61193 -0.931311 0
M  V30 13750 H 1252.61 1.2715 -0.949667 0
M  V30 13751 H 1252.63 3.80475 0.0437292 0
M  V30 13752 H 1252.14 3.46455 -1.74902 0
M  V30 13753 H 1250.25 3.65789 0.70915 0
M  V30 13754 H 1250.36 4.71487 -0.850693 0
M  V30 13755 H 1248.72 2.5219 -0.356695 0
M  V30 13756 H 1249.51 2.78503 -2.00727 0
M  V30 13757 N 1251.95 0.502579 1.49372 0
M  V30 13758 C 1252.88 -0.321683 2.25921 0
M  V30 13759 C 1253.86 -0.968999 1.30572 0
M  V30 13760 O 1255.05 -0.998788 1.59864 0
M  V30 13761 C 1252.17 -1.45318 3.05942 0
M  V30 13762 C 1251.22 -0.920076 4.16457 0
M  V30 13763 S 1252.05 0.190402 5.35161 0
M  V30 13764 C 1253.21 -0.944222 6.18737 0
M  V30 13765 H 1253.44 0.328036 2.95485 0
M  V30 13766 H 1250.97 0.287903 1.51692 0
M  V30 13767 H 1252.93 -2.1015 3.52629 0
M  V30 13768 H 1251.59 -2.07452 2.35844 0
M  V30 13769 H 1250.79 -1.76808 4.71969 0
M  V30 13770 H 1250.39 -0.348944 3.72369 0
M  V30 13771 H 1252.68 -1.8491 6.51778 0
M  V30 13772 H 1253.62 -0.42769 7.06807 0
M  V30 13773 H 1254.03 -1.21227 5.5133 0
M  V30 13774 N 1253.43 -1.55816 0.23648 0
M  V30 13775 C 1254.84 -1.59159 -0.118601 0
M  V30 13776 C 1255.04 -1.25352 -1.57763 0
M  V30 13777 O 1254.1 -0.995863 -2.32032 0
M  V30 13778 C 1255.41 -2.99885 0.221175 0
M  V30 13779 C 1256.96 -3.12567 0.164624 0
M  V30 13780 C 1257.44 -4.55496 0.478285 0
M  V30 13781 N 1258.93 -4.61215 0.428402 0
M  V30 13782 C 1259.66 -5.69768 0.644398 0
M  V30 13783 N 1259.16 -6.86624 0.922966 0
M  V30 13784 N 1260.95 -5.59143 0.575814 0
M  V30 13785 H 1253.1 -1.76063 1.18809 0
M  V30 13786 H 1255.37 -0.819079 0.477297 0
M  V30 13787 H 1255.07 -3.29326 1.2344 0
M  V30 13788 H 1254.95 -3.74425 -0.456723 0
M  V30 13789 H 1257.33 -2.82914 -0.839263 0
M  V30 13790 H 1257.41 -2.40325 0.876219 0
M  V30 13791 H 1257.06 -4.85868 1.47968 0
M  V30 13792 H 1256.99 -5.25984 -0.254671 0
M  V30 13793 H 1259.48 -3.77251 0.221398 0
M  V30 13794 H 1259.79 -7.6528 1.07548 0
M  V30 13795 H 1258.14 -6.88333 0.960325 0
M  V30 13796 H 1261.33 -4.66727 0.358307 0
M  V30 13797 H 1261.5 -6.43674 0.747548 0
M  V30 13798 N 1254.91 0.036755 -1.57557 0
M  V30 13799 C 1256.18 0.764087 -1.80059 0
M  V30 13800 C 1256.56 1.93983 -0.83269 0
M  V30 13801 O 1255.91 2.28148 0.126815 0
M  V30 13802 C 1256.12 1.20433 -3.27562 0
M  V30 13803 C 1257.47 1.6234 -3.9234 0
M  V30 13804 O 1258.49 1.29911 -3.31665 0
M  V30 13805 O 1257.35 2.22504 -4.99154 0
M  V30 13806 H 1254.45 0.368866 -0.74018 0
M  V30 13807 H 1256.99 0.0141254 -1.69694 0
M  V30 13808 H 1255.76 0.364646 -3.89597 0
M  V30 13809 H 1255.39 2.01454 -3.42786 0
M  V30 13810 N 1256.39 1.54543 0.308881 0
M  V30 13811 C 1257.63 1.73449 1.04506 0
M  V30 13812 C 1257.96 0.516034 1.8753 0
M  V30 13813 O 1257.22 -0.502106 1.89149 0
M  V30 13814 C 1257.51 2.97124 1.98626 0
M  V30 13815 C 1257.18 4.31256 1.31641 0
M  V30 13816 C 1255.84 4.67719 1.13105 0
M  V30 13817 C 1258.19 5.14437 0.836888 0
M  V30 13818 C 1255.52 5.84949 0.452878 0
M  V30 13819 C 1257.87 6.32365 0.172473 0
M  V30 13820 C 1256.54 6.67495 -0.0249143 0
M  V30 13821 H 1255.81 0.634697 0.382415 0
M  V30 13822 H 1258.46 1.88795 0.320714 0
M  V30 13823 H 1256.76 2.76526 2.77562 0
M  V30 13824 H 1258.46 3.08946 2.55643 0
M  V30 13825 H 1255.05 4.02576 1.47074 0
M  V30 13826 H 1259.23 4.86772 0.967834 0
M  V30 13827 H 1254.49 6.10717 0.288886 0
M  V30 13828 H 1258.66 6.96092 -0.207027 0
M  V30 13829 H 1256.29 7.5819 -0.552425 0
M  V30 13830 N 1257.86 -0.571685 1.46866 0
M  V30 13831 C 1258.79 -1.68994 1.61131 0
M  V30 13832 C 1259.77 -1.63728 0.461222 0
M  V30 13833 O 1260.96 -1.81574 0.688813 0
M  V30 13834 C 1258.09 -3.07638 1.61172 0
M  V30 13835 C 1257.04 -3.27742 2.75262 0
M  V30 13836 C 1256.37 -4.67025 2.60368 0
M  V30 13837 C 1257.67 -3.14511 4.16989 0
M  V30 13838 H 1259.36 -1.57311 2.54742 0
M  V30 13839 H 1256.91 -0.755382 1.22597 0
M  V30 13840 H 1258.86 -3.857 1.69744 0
M  V30 13841 H 1257.59 -3.20245 0.641122 0
M  V30 13842 H 1256.25 -2.52083 2.66176 0
M  V30 13843 H 1255.89 -4.76413 1.61368 0
M  V30 13844 H 1255.59 -4.81428 3.36899 0
M  V30 13845 H 1257.12 -5.47242 2.70848 0
M  V30 13846 H 1258.53 -3.82407 4.27128 0
M  V30 13847 H 1256.93 -3.40431 4.94193 0
M  V30 13848 H 1258 -2.11443 4.36371 0
M  V30 13849 N 1259.34 -1.34755 -0.817236 0
M  V30 13850 C 1260.27 -1.29452 -1.94331 0
M  V30 13851 C 1261.25 -0.170902 -1.69239 0
M  V30 13852 O 1262.44 -0.364173 -1.90755 0
M  V30 13853 C 1259.57 -1.05497 -3.30889 0
M  V30 13854 C 1258.52 -2.14386 -3.70436 0
M  V30 13855 C 1257.85 -1.75612 -5.05039 0
M  V30 13856 C 1259.15 -3.56265 -3.81933 0
M  V30 13857 H 1260.84 -2.23672 -1.99025 0
M  V30 13858 H 1258.39 -1.07674 -0.956159 0
M  V30 13859 H 1260.34 -1.0043 -4.09257 0
M  V30 13860 H 1259.06 -0.0772059 -3.26509 0
M  V30 13861 H 1257.72 -2.18532 -2.94345 0
M  V30 13862 H 1257.37 -0.764809 -4.97152 0
M  V30 13863 H 1257.07 -2.48495 -5.3247 0
M  V30 13864 H 1258.6 -1.72051 -5.85859 0
M  V30 13865 H 1260.01 -3.545 -4.50558 0
M  V30 13866 H 1258.41 -4.27818 -4.20822 0
M  V30 13867 H 1259.48 -3.93192 -2.83775 0
M  V30 13868 N 1260.82 1.03812 -1.18578 0
M  V30 13869 C 1261.75 2.11436 -0.858502 0
M  V30 13870 C 1262.73 1.61594 0.180604 0
M  V30 13871 O 1263.91 1.88408 0.058995 0
M  V30 13872 C 1261.04 3.37514 -0.283154 0
M  V30 13873 C 1260.09 4.0621 -1.29985 0
M  V30 13874 S 1260.92 4.52936 -2.85673 0
M  V30 13875 C 1262.08 5.82245 -2.29656 0
M  V30 13876 H 1262.31 2.38871 -1.76997 0
M  V30 13877 H 1259.84 1.16617 -1.01192 0
M  V30 13878 H 1261.8 4.10478 0.0422898 0
M  V30 13879 H 1260.46 3.08189 0.60647 0
M  V30 13880 H 1259.65 4.96845 -0.84621 0
M  V30 13881 H 1259.26 3.39374 -1.57166 0
M  V30 13882 H 1261.55 6.56321 -1.68074 0
M  V30 13883 H 1262.49 6.32375 -3.18602 0
M  V30 13884 H 1262.9 5.37472 -1.72581 0
M  V30 13885 N 1262.3 0.988223 1.22768 0
M  V30 13886 C 1263.52 0.679426 1.95955 0
M  V30 13887 C 1263.95 -0.748483 1.72567 0
M  V30 13888 O 1263.31 -1.51097 1.00197 0
M  V30 13889 C 1263.35 0.985284 3.46878 0
M  V30 13890 O 1262.46 0.0814607 4.1232 0
M  V30 13891 H 1261.8 0.254749 0.613188 0
M  V30 13892 H 1264.33 1.32393 1.55991 0
M  V30 13893 H 1264.34 0.925198 3.97371 0
M  V30 13894 H 1263.01 2.02581 3.63227 0
M  V30 13895 H 1261.59 0.196629 3.72381 0
M  V30 13896 N 1263.78 -1.38018 0.760839 0
M  V30 13897 C 1265.02 -2.00248 0.320716 0
M  V30 13898 C 1265.35 -1.60259 -1.09684 0
M  V30 13899 O 1264.63 -0.843567 -1.75255 0
M  V30 13900 C 1264.91 -3.57254 0.451849 0
M  V30 13901 C 1264.77 -4.07185 1.91103 0
M  V30 13902 C 1266.08 -4.39843 -0.150439 0
M  V30 13903 H 1263.2 -0.727491 0.118007 0
M  V30 13904 H 1265.85 -1.63855 0.961842 0
M  V30 13905 H 1264 -3.88386 -0.0939672 0
M  V30 13906 H 1265.67 -3.86665 2.51571 0
M  V30 13907 H 1263.91 -3.59782 2.42362 0
M  V30 13908 H 1264.58 -5.16262 1.9539 0
M  V30 13909 H 1267.06 -4.14905 0.315145 0
M  V30 13910 H 1265.93 -5.48893 -0.0284853 0
M  V30 13911 H 1266.19 -4.24367 -1.23956 0
M  V30 13912 N 1265.25 -0.510493 -1.49103 0
M  V30 13913 C 1266.19 0.299697 -2.27232 0
M  V30 13914 C 1267.2 0.922102 -1.34168 0
M  V30 13915 O 1268.39 0.803836 -1.59376 0
M  V30 13916 C 1265.49 1.43778 -3.06889 0
M  V30 13917 C 1264.66 0.920927 -4.27595 0
M  V30 13918 C 1263.72 1.93777 -4.89221 0
M  V30 13919 O 1262.75 1.5025 -5.49011 0
M  V30 13920 N 1263.95 3.2688 -4.79718 0
M  V30 13921 H 1266.71 -0.37028 -2.97404 0
M  V30 13922 H 1264.27 -0.343617 -1.58212 0
M  V30 13923 H 1266.27 2.11577 -3.44988 0
M  V30 13924 H 1264.84 2.01175 -2.39264 0
M  V30 13925 H 1264.06 0.0675358 -3.94142 0
M  V30 13926 H 1265.34 0.554168 -5.05773 0
M  V30 13927 H 1264.74 3.64924 -4.32258 0
M  V30 13928 H 1263.3 3.90366 -5.21974 0
M  V30 13929 N 1266.73 1.55688 -0.24474 0
M  V30 13930 C 1267.69 2.20014 0.642382 0
M  V30 13931 C 1268.69 1.16877 1.10437 0
M  V30 13932 O 1269.88 1.41972 1.00943 0
M  V30 13933 C 1267.02 2.84198 1.88267 0
M  V30 13934 H 1268.21 2.9979 0.0811937 0
M  V30 13935 H 1265.76 1.56299 0.00480917 0
M  V30 13936 H 1266.5 2.08354 2.48514 0
M  V30 13937 H 1266.28 3.59747 1.55963 0
M  V30 13938 H 1267.77 3.33434 2.5142 0
M  V30 13939 N 1268.21 -0.0283989 1.57574 0
M  V30 13940 C 1269.46 -0.720142 1.89583 0
M  V30 13941 C 1269.79 -1.7497 0.842562 0
M  V30 13942 O 1269.06 -1.93979 -0.142294 0
M  V30 13943 C 1269.35 -1.38909 3.32229 0
M  V30 13944 C 1269.2 -0.372998 4.48251 0
M  V30 13945 C 1270.52 -2.32289 3.73804 0
M  V30 13946 H 1267.64 -0.26033 0.689491 0
M  V30 13947 H 1270.28 0.0170607 1.89992 0
M  V30 13948 H 1268.43 -2.01744 3.32011 0
M  V30 13949 H 1270.1 0.253492 4.60603 0
M  V30 13950 H 1268.34 0.30765 4.32708 0
M  V30 13951 H 1269.02 -0.879549 5.44948 0
M  V30 13952 H 1271.49 -1.79497 3.75393 0
M  V30 13953 H 1270.37 -2.76075 4.74419 0
M  V30 13954 H 1270.63 -3.18992 3.06099 0
M  V30 13955 N 1269.69 -1.54705 -0.300681 0
M  V30 13956 C 1270.93 -1.74001 -1.03585 0
M  V30 13957 C 1271.26 -0.525972 -1.87253 0
M  V30 13958 O 1270.52 0.492068 -1.89413 0
M  V30 13959 C 1270.82 -2.98173 -1.97047 0
M  V30 13960 C 1270.48 -4.31948 -1.29352 0
M  V30 13961 C 1269.14 -4.68312 -1.10623 0
M  V30 13962 C 1271.5 -5.14874 -0.809594 0
M  V30 13963 C 1268.82 -5.85181 -0.42185 0
M  V30 13964 C 1271.18 -6.32447 -0.138935 0
M  V30 13965 C 1269.84 -6.67473 0.0603129 0
M  V30 13966 H 1269.11 -0.636716 -0.379044 0
M  V30 13967 H 1271.76 -1.88963 -0.310697 0
M  V30 13968 H 1270.06 -2.77994 -2.76091 0
M  V30 13969 H 1271.76 -3.10297 -2.54001 0
M  V30 13970 H 1268.35 -4.0335 -1.44937 0
M  V30 13971 H 1272.53 -4.87278 -0.942006 0
M  V30 13972 H 1267.79 -6.10862 -0.256494 0
M  V30 13973 H 1271.96 -6.95973 0.243939 0
M  V30 13974 H 1269.59 -7.57887 0.592626 0
M  V30 13975 N 1271.17 0.563888 -1.47167 0
M  V30 13976 C 1272.12 1.66687 -1.55562 0
M  V30 13977 C 1273.1 1.55455 -0.415024 0
M  V30 13978 O 1274.29 1.64051 -0.664557 0
M  V30 13979 C 1271.42 3.05469 -1.56665 0
M  V30 13980 C 1270.51 3.21928 -2.76085 0
M  V30 13981 N 1270.9 3.08477 -4.00844 0
M  V30 13982 C 1269.2 3.52913 -2.72706 0
M  V30 13983 C 1269.9 3.27447 -4.80784 0
M  V30 13984 N 1268.87 3.53474 -4.12986 0
M  V30 13985 H 1272.68 1.54846 -2.498 0
M  V30 13986 H 1270.19 0.76846 -1.43068 0
M  V30 13987 H 1272.19 3.84655 -1.60768 0
M  V30 13988 H 1270.85 3.18427 -0.635174 0
M  V30 13989 H 1271.86 2.85944 -4.31806 0
M  V30 13990 H 1268.53 3.7244 -1.88666 0
M  V30 13991 H 1269.92 3.22072 -5.89677 0
M  V30 13992 N 1272.64 1.35187 0.810078 0
M  V30 13993 C 1273.87 1.31181 1.59609 0
M  V30 13994 C 1274.28 -0.113556 1.88859 0
M  V30 13995 O 1273.63 -1.07491 1.48968 0
M  V30 13996 C 1273.69 2.04749 2.95496 0
M  V30 13997 C 1273.35 3.53952 2.89079 0
M  V30 13998 C 1274.35 4.48612 2.6276 0
M  V30 13999 C 1272.03 3.96551 3.08306 0
M  V30 14000 C 1274.03 5.83846 2.5574 0
M  V30 14001 C 1271.71 5.31881 3.00909 0
M  V30 14002 C 1272.71 6.2534 2.74661 0
M  V30 14003 O 1272.4 7.58188 2.6722 0
M  V30 14004 H 1272.13 0.452285 0.502408 0
M  V30 14005 H 1274.69 1.78571 1.01497 0
M  V30 14006 H 1272.92 1.51992 3.55577 0
M  V30 14007 H 1274.61 1.93866 3.5661 0
M  V30 14008 H 1275.37 4.1702 2.47628 0
M  V30 14009 H 1271.25 3.24194 3.27749 0
M  V30 14010 H 1274.79 6.56765 2.35172 0
M  V30 14011 H 1270.69 5.63088 3.15598 0
M  V30 14012 H 1271.46 7.68073 2.82853 0
M  V30 14013 N 1274.12 -1.03182 1.19127 0
M  V30 14014 C 1275.05 -2.13301 0.94999 0
M  V30 14015 C 1276.03 -1.69707 -0.115577 0
M  V30 14016 O 1277.22 -1.94161 0.0388395 0
M  V30 14017 C 1274.35 -3.43902 0.484637 0
M  V30 14018 C 1273.3 -4.01164 1.4917 0
M  V30 14019 C 1272.63 -5.2735 0.883537 0
M  V30 14020 C 1273.93 -4.36311 2.87107 0
M  V30 14021 H 1275.62 -2.33743 1.87095 0
M  V30 14022 H 1273.17 -1.12332 0.900977 0
M  V30 14023 H 1275.12 -4.20308 0.30315 0
M  V30 14024 H 1273.85 -3.23173 -0.471909 0
M  V30 14025 H 1272.5 -3.26849 1.66028 0
M  V30 14026 H 1272.15 -5.02936 -0.0804712 0
M  V30 14027 H 1271.85 -5.66624 1.55599 0
M  V30 14028 H 1273.38 -6.06425 0.71278 0
M  V30 14029 H 1274.79 -5.03666 2.73848 0
M  V30 14030 H 1273.19 -4.86659 3.51117 0
M  V30 14031 H 1274.26 -3.45743 3.39985 0
M  V30 14032 N 1275.6 -0.99472 -1.22242 0
M  V30 14033 C 1276.53 -0.566499 -2.26524 0
M  V30 14034 C 1277.51 0.407541 -1.65146 0
M  V30 14035 O 1278.7 0.297777 -1.91903 0
M  V30 14036 C 1275.83 0.11786 -3.471 0
M  V30 14037 C 1274.78 -0.774908 -4.20927 0
M  V30 14038 C 1274.11 0.0424687 -5.34683 0
M  V30 14039 C 1275.41 -2.07263 -4.79416 0
M  V30 14040 H 1277.1 -1.43818 -2.62596 0
M  V30 14041 H 1274.65 -0.692971 -1.2623 0
M  V30 14042 H 1276.6 0.428842 -4.19212 0
M  V30 14043 H 1275.32 1.0241 -3.10129 0
M  V30 14044 H 1273.98 -1.06956 -3.50651 0
M  V30 14045 H 1273.63 0.949677 -4.93954 0
M  V30 14046 H 1273.33 -0.551867 -5.85003 0
M  V30 14047 H 1274.85 0.347504 -6.0961 0
M  V30 14048 H 1276.27 -1.82548 -5.4346 0
M  V30 14049 H 1274.67 -2.61594 -5.40082 0
M  V30 14050 H 1275.74 -2.75017 -3.99366 0
M  V30 14051 N 1277.08 1.37613 -0.768148 0
M  V30 14052 C 1278.33 1.99779 -0.330841 0
M  V30 14053 C 1278.65 1.60978 1.09162 0
M  V30 14054 O 1277.91 0.845778 1.7648 0
M  V30 14055 C 1278.21 3.54952 -0.417608 0
M  V30 14056 C 1277.87 4.13509 -1.7978 0
M  V30 14057 C 1276.54 4.29216 -2.17549 0
M  V30 14058 C 1278.89 4.45662 -2.7025 0
M  V30 14059 C 1276.22 4.74376 -3.45231 0
M  V30 14060 C 1278.57 4.92245 -3.97338 0
M  V30 14061 C 1277.23 5.06157 -4.35157 0
M  V30 14062 H 1276.5 0.731044 -0.121063 0
M  V30 14063 H 1279.15 1.64437 -0.98147 0
M  V30 14064 H 1277.45 3.90519 0.316567 0
M  V30 14065 H 1279.15 4.00954 -0.0606037 0
M  V30 14066 H 1275.74 4.01709 -1.49425 0
M  V30 14067 H 1279.92 4.33116 -2.42332 0
M  V30 14068 H 1275.18 4.83333 -3.74431 0
M  V30 14069 H 1279.35 5.16091 -4.67572 0
M  V30 14070 H 1276.98 5.4091 -5.34154 0
M  V30 14071 N 1278.56 0.518393 1.4883 0
M  V30 14072 C 1279.78 -0.0183131 2.07392 0
M  V30 14073 C 1280.21 -1.28468 1.37396 0
M  V30 14074 O 1279.56 -1.75975 0.436177 0
M  V30 14075 C 1279.61 -0.237211 3.59819 0
M  V30 14076 O 1278.72 -1.30835 3.91096 0
M  V30 14077 H 1278.06 0.0339621 0.663131 0
M  V30 14078 H 1280.59 0.722993 1.914 0
M  V30 14079 H 1280.6 -0.463424 4.0536 0
M  V30 14080 H 1279.27 0.687925 4.10171 0
M  V30 14081 H 1277.85 -1.06571 3.57347 0
M  V30 14082 N 1280.03 -1.55556 0.252993 0
M  V30 14083 C 1281.45 -1.85032 -0.249011 0
M  V30 14084 C 1281.8 -1.17488 -1.57134 0
M  V30 14085 O 1280.92 -0.455387 -2.11554 0
M  V30 14086 C 1281.52 -3.35682 -0.458589 0
M  V30 14087 C 1280.08 -3.65362 -0.90485 0
M  V30 14088 C 1279.22 -2.77296 0.0144927 0
M  V30 14089 H 1282.17 -1.51412 0.475394 0
M  V30 14090 H 1282.19 -3.57591 -1.30034 0
M  V30 14091 H 1281.71 -3.84814 0.503981 0
M  V30 14092 H 1279.81 -3.21713 -1.87967 0
M  V30 14093 H 1279.92 -4.73074 -0.757492 0
M  V30 14094 H 1278.28 -2.49785 -0.497954 0
M  V30 14095 H 1279.07 -3.29236 0.972546 0
M  V30 14096 N 1281.51 0.0200419 -1.57587 0
M  V30 14097 C 1282.76 0.708115 -1.88861 0
M  V30 14098 C 1283.07 1.76036 -0.852693 0
M  V30 14099 O 1284.28 2.50165 -1.05497 0
M  V30 14100 C 1282.74 1.31057 -3.3519 0
M  V30 14101 C 1282.34 0.294202 -4.47033 0
M  V30 14102 C 1284.09 1.97799 -3.756 0
M  V30 14103 C 1282 0.905508 -5.84427 0
M  V30 14104 H 1280.93 0.268236 -0.704674 0
M  V30 14105 H 1283.58 -0.0372162 -1.83462 0
M  V30 14106 H 1281.96 2.1059 -3.35362 0
M  V30 14107 H 1283.13 -0.475081 -4.58344 0
M  V30 14108 H 1281.45 -0.271644 -4.15513 0
M  V30 14109 H 1284.04 2.44404 -4.75574 0
M  V30 14110 H 1284.39 2.80004 -3.08064 0
M  V30 14111 H 1284.92 1.25028 -3.77641 0
M  V30 14112 H 1281.66 0.122685 -6.55385 0
M  V30 14113 H 1281.18 1.64442 -5.76818 0
M  V30 14114 H 1282.86 1.41016 -6.31446 0
M  V30 14115 N 1282.99 1.54862 0.292472 0
M  V30 14116 C 1283.92 1.89406 1.36556 0
M  V30 14117 C 1284.9 0.753838 1.52484 0
M  V30 14118 O 1286.09 1.01031 1.6585 0
M  V30 14119 C 1283.22 2.14888 2.72838 0
M  V30 14120 C 1282.17 3.3073 2.71665 0
M  V30 14121 C 1281.5 3.41648 4.11316 0
M  V30 14122 C 1282.8 4.67622 2.32651 0
M  V30 14123 H 1284.49 2.79284 1.07894 0
M  V30 14124 H 1282.04 1.34377 0.517585 0
M  V30 14125 H 1283.99 2.3764 3.48002 0
M  V30 14126 H 1282.71 1.2179 3.03042 0
M  V30 14127 H 1281.37 3.07915 1.98958 0
M  V30 14128 H 1281.02 2.46051 4.38711 0
M  V30 14129 H 1280.72 4.19522 4.11431 0
M  V30 14130 H 1282.24 3.6667 4.88248 0
M  V30 14131 H 1283.66 4.90048 2.97533 0
M  V30 14132 H 1282.06 5.48272 2.43963 0
M  V30 14133 H 1283.13 4.67762 1.27777 0
M  V30 14134 N 1284.47 -0.556076 1.47464 0
M  V30 14135 C 1285.42 -1.66304 1.60036 0
M  V30 14136 C 1286.39 -1.60074 0.443348 0
M  V30 14137 O 1287.57 -1.7889 0.663545 0
M  V30 14138 C 1284.71 -3.04624 1.62167 0
M  V30 14139 C 1283.82 -3.21283 2.88793 0
M  V30 14140 C 1282.96 -4.50008 2.82252 0
M  V30 14141 C 1282 -4.60103 4.03698 0
M  V30 14142 N 1281.13 -5.80184 3.95387 0
M  V30 14143 H 1285.97 -1.54897 2.5458 0
M  V30 14144 H 1283.51 -0.754533 1.26274 0
M  V30 14145 H 1285.47 -3.84721 1.61386 0
M  V30 14146 H 1284.1 -3.14865 0.711348 0
M  V30 14147 H 1283.15 -2.34611 2.99436 0
M  V30 14148 H 1284.46 -3.24607 3.78724 0
M  V30 14149 H 1283.62 -5.38366 2.79726 0
M  V30 14150 H 1282.36 -4.49165 1.90005 0
M  V30 14151 H 1281.36 -3.70157 4.06527 0
M  V30 14152 H 1282.59 -4.62704 4.97073 0
M  V30 14153 H 1280.53 -5.80288 3.05944 0
M  V30 14154 H 1280.45 -5.8489 4.78998 0
M  V30 14155 H 1281.72 -6.709 3.96879 0
M  V30 14156 N 1285.95 -1.35615 -0.802897 0
M  V30 14157 C 1287.2 -1.28839 -1.55708 0
M  V30 14158 C 1287.52 0.135906 -1.94526 0
M  V30 14159 O 1286.79 1.07317 -1.6389 0
M  V30 14160 H 1285.37 -0.473906 -0.577427 0
M  V30 14161 H 1288.03 -1.69759 -0.957487 0
M  V30 14162 H 1287.12 -1.90675 -2.47082 0
M  V30 14163 N 1287.43 1.02549 -1.19673 0
M  V30 14164 C 1288.84 1.28271 -0.94967 0
M  V30 14165 C 1289.04 1.97961 0.37599 0
M  V30 14166 O 1288.1 2.26955 1.10668 0
M  V30 14167 C 1289.41 2.12647 -2.12607 0
M  V30 14168 C 1290.96 2.25943 -2.16607 0
M  V30 14169 C 1291.43 3.13693 -3.33708 0
M  V30 14170 N 1292.92 3.21281 -3.33665 0
M  V30 14171 C 1293.66 3.89377 -4.20919 0
M  V30 14172 N 1293.16 4.59675 -5.18334 0
M  V30 14173 N 1294.95 3.85811 -4.08786 0
M  V30 14174 H 1287.1 0.557304 -2.04958 0
M  V30 14175 H 1289.36 0.308531 -0.896389 0
M  V30 14176 H 1289.07 1.68766 -3.08563 0
M  V30 14177 H 1288.94 3.13367 -2.09955 0
M  V30 14178 H 1291.33 2.69053 -1.2122 0
M  V30 14179 H 1291.41 1.24762 -2.23311 0
M  V30 14180 H 1291.05 2.7129 -4.29376 0
M  V30 14181 H 1290.98 4.14941 -3.2424 0
M  V30 14182 H 1293.48 2.71218 -2.63152 0
M  V30 14183 H 1293.79 5.09277 -5.81254 0
M  V30 14184 H 1292.13 4.58529 -5.22279 0
M  V30 14185 H 1295.32 3.30033 -3.31957 0
M  V30 14186 H 1295.5 4.38607 -4.76999 0
M  V30 14187 N 1288.9 1.00119 1.21713 0
M  V30 14188 C 1290.15 0.682733 1.90962 0
M  V30 14189 C 1290.48 -0.784131 1.77665 0
M  V30 14190 O 1289.76 -1.56799 1.15084 0
M  V30 14191 C 1290.04 1.09975 3.42896 0
M  V30 14192 C 1289.89 2.62578 3.65202 0
M  V30 14193 C 1291.21 0.659247 4.35134 0
M  V30 14194 H 1288.33 0.249501 0.693483 0
M  V30 14195 H 1290.97 1.24619 1.43423 0
M  V30 14196 H 1289.12 0.620334 3.83515 0
M  V30 14197 H 1290.8 3.18254 3.33934 0
M  V30 14198 H 1289.04 3.04268 3.09198 0
M  V30 14199 H 1289.71 2.86809 4.7164 0
M  V30 14200 H 1292.19 1.07116 4.02076 0
M  V30 14201 H 1291.06 0.979241 5.40095 0
M  V30 14202 H 1291.32 -0.439777 4.39907 0
M  V30 14203 N 1290.38 -1.37203 0.775435 0
M  V30 14204 C 1291.61 -2.03572 0.352416 0
M  V30 14205 C 1292.02 -1.58612 -1.03145 0
M  V30 14206 O 1291.36 -0.764478 -1.67037 0
M  V30 14207 C 1291.42 -3.58064 0.321026 0
M  V30 14208 C 1291.09 -4.2617 1.6501 0
M  V30 14209 C 1292.09 -4.50034 2.60318 0
M  V30 14210 C 1289.77 -4.63927 1.92555 0
M  V30 14211 C 1291.76 -5.10716 3.81376 0
M  V30 14212 C 1289.45 -5.24329 3.13883 0
M  V30 14213 C 1290.45 -5.47661 4.08113 0
M  V30 14214 O 1290.14 -6.068 5.27304 0
M  V30 14215 H 1289.87 -0.660231 0.145159 0
M  V30 14216 H 1292.42 -1.76446 1.05148 0
M  V30 14217 H 1290.65 -3.84252 -0.434439 0
M  V30 14218 H 1292.34 -4.0583 -0.0754241 0
M  V30 14219 H 1293.11 -4.21273 2.4032 0
M  V30 14220 H 1288.99 -4.45098 1.20036 0
M  V30 14221 H 1292.53 -5.28844 4.5494 0
M  V30 14222 H 1288.43 -5.52514 3.33765 0
M  V30 14223 H 1289.2 -6.25276 5.28179 0
M  V30 14224 N 1291.86 -0.526279 -1.48553 0
M  V30 14225 C 1292.81 0.238513 -2.29564 0
M  V30 14226 C 1293.78 0.937222 -1.37133 0
M  V30 14227 O 1294.96 0.93897 -1.66096 0
M  V30 14228 C 1292.1 1.28173 -3.20415 0
M  V30 14229 C 1291.21 0.592244 -4.27921 0
M  V30 14230 C 1290.35 1.61808 -5.05956 0
M  V30 14231 C 1289.39 0.911846 -6.0527 0
M  V30 14232 N 1288.53 1.88305 -6.76377 0
M  V30 14233 H 1293.37 -0.458502 -2.94452 0
M  V30 14234 H 1290.9 -0.237948 -1.45163 0
M  V30 14235 H 1292.86 1.89883 -3.71484 0
M  V30 14236 H 1291.49 1.94718 -2.57458 0
M  V30 14237 H 1290.54 -0.138714 -3.80147 0
M  V30 14238 H 1291.85 0.0375427 -4.98786 0
M  V30 14239 H 1291.01 2.30956 -5.61021 0
M  V30 14240 H 1289.75 2.20667 -4.34922 0
M  V30 14241 H 1288.75 0.206273 -5.49413 0
M  V30 14242 H 1289.98 0.329415 -6.78301 0
M  V30 14243 H 1287.92 2.46079 -6.08096 0
M  V30 14244 H 1287.84 1.37969 -7.43304 0
M  V30 14245 H 1289.11 2.56663 -7.36033 0
M  V30 14246 N 1293.34 1.5542 -0.261239 0
M  V30 14247 C 1294.59 1.9846 0.360052 0
M  V30 14248 C 1294.9 1.15288 1.58013 0
M  V30 14249 O 1296.11 1.48408 2.27348 0
M  V30 14250 C 1294.56 3.53185 0.691964 0
M  V30 14251 C 1294.17 4.45116 -0.507521 0
M  V30 14252 C 1295.91 4.04848 1.27665 0
M  V30 14253 C 1293.82 5.91207 -0.150966 0
M  V30 14254 H 1292.75 0.741207 0.138303 0
M  V30 14255 H 1295.4 1.79859 -0.363712 0
M  V30 14256 H 1293.78 3.67535 1.47425 0
M  V30 14257 H 1294.96 4.42531 -1.28465 0
M  V30 14258 H 1293.27 4.04013 -1.0081 0
M  V30 14259 H 1295.87 5.11529 1.55699 0
M  V30 14260 H 1296.21 3.5305 2.20593 0
M  V30 14261 H 1296.75 3.93882 0.556955 0
M  V30 14262 H 1293.48 6.47072 -1.04776 0
M  V30 14263 H 1293 5.96894 0.589671 0
M  V30 14264 H 1294.68 6.4647 0.261772 0
M  V30 14265 N 1294.82 -0.0116844 1.57596 0
M  V30 14266 C 1295.75 -1.00599 2.10718 0
M  V30 14267 C 1296.73 -1.36601 1.01362 0
M  V30 14268 O 1297.91 -1.4518 1.28982 0
M  V30 14269 C 1295.04 -2.30155 2.60089 0
M  V30 14270 C 1294 -2.08347 3.73866 0
M  V30 14271 C 1293.32 -3.43814 4.09507 0
M  V30 14272 C 1294.62 -1.45552 5.01609 0
M  V30 14273 H 1296.32 -0.563721 2.94045 0
M  V30 14274 H 1293.86 -0.269714 1.41452 0
M  V30 14275 H 1295.81 -3.00058 2.95877 0
M  V30 14276 H 1294.54 -2.76473 1.73868 0
M  V30 14277 H 1293.2 -1.40872 3.38453 0
M  V30 14278 H 1292.85 -3.87814 3.20326 0
M  V30 14279 H 1292.55 -3.30043 4.86154 0
M  V30 14280 H 1294.07 -4.15052 4.47844 0
M  V30 14281 H 1295.48 -2.05396 5.35243 0
M  V30 14282 H 1293.88 -1.42304 5.82983 0
M  V30 14283 H 1294.95 -0.423331 4.83049 0
M  V30 14284 N 1296.29 -1.55015 -0.284256 0
M  V30 14285 C 1297.52 -1.79431 -1.04016 0
M  V30 14286 C 1297.94 -0.560254 -1.79563 0
M  V30 14287 O 1297.3 0.489804 -1.74558 0
M  V30 14288 C 1297.35 -3.01162 -1.98328 0
M  V30 14289 O 1296.45 -2.75459 -3.06914 0
M  V30 14290 H 1295.79 -0.593391 -0.297965 0
M  V30 14291 H 1298.32 -2.02136 -0.316585 0
M  V30 14292 H 1298.33 -3.29589 -2.40489 0
M  V30 14293 H 1297.01 -3.90634 -1.42751 0
M  V30 14294 H 1295.59 -2.58096 -2.69148 0
M  V30 14295 N 1297.77 0.548248 -1.47757 0
M  V30 14296 C 1298.73 1.63666 -1.60456 0
M  V30 14297 C 1299.73 1.53499 -0.479028 0
M  V30 14298 O 1300.92 1.57497 -0.744342 0
M  V30 14299 C 1298.06 3.03239 -1.55754 0
M  V30 14300 H 1299.25 1.53752 -2.57488 0
M  V30 14301 H 1296.8 0.768881 -1.36081 0
M  V30 14302 H 1297.54 3.18677 -0.601303 0
M  V30 14303 H 1297.32 3.12027 -2.37448 0
M  V30 14304 H 1298.81 3.82406 -1.67797 0
M  V30 14305 N 1299.25 1.36039 0.795694 0
M  V30 14306 C 1300.16 1.31991 1.93948 0
M  V30 14307 C 1301.18 0.223064 1.72564 0
M  V30 14308 O 1302.35 0.454344 1.96208 0
M  V30 14309 C 1299.42 1.10228 3.28711 0
M  V30 14310 C 1298.48 2.29328 3.62914 0
M  V30 14311 C 1297.71 2.08595 4.91247 0
M  V30 14312 O 1297.93 1.05793 5.60503 0
M  V30 14313 O 1296.87 2.96222 5.23962 0
M  V30 14314 H 1300.69 2.28274 2.00311 0
M  V30 14315 H 1298.28 1.16521 0.935048 0
M  V30 14316 H 1300.16 0.999842 4.09367 0
M  V30 14317 H 1298.84 0.17003 3.23253 0
M  V30 14318 H 1297.74 2.4514 2.8259 0
M  V30 14319 H 1299.08 3.21038 3.73089 0
M  V30 14320 N 1300.73 -1.01913 1.20215 0
M  V30 14321 C 1301.98 -1.75124 1.00876 0
M  V30 14322 C 1302.3 -1.89485 -0.460475 0
M  V30 14323 O 1301.57 -1.43552 -1.33302 0
M  V30 14324 H 1300.15 -0.648777 0.370266 0
M  V30 14325 H 1302.81 -1.22883 1.5128 0
M  V30 14326 H 1301.91 -2.7558 1.46499 0
M  V30 14327 N 1302.21 -1.00763 -1.2118 0
M  V30 14328 C 1303.12 -0.579646 -2.27326 0
M  V30 14329 C 1304.13 0.378592 -1.69831 0
M  V30 14330 O 1305.31 0.241772 -1.99944 0
M  V30 14331 C 1302.37 0.0843648 -3.46597 0
M  V30 14332 C 1301.43 -0.918685 -4.19355 0
M  V30 14333 C 1300.67 -0.286267 -5.32932 0
M  V30 14334 O 1300.89 0.916274 -5.62993 0
M  V30 14335 O 1299.82 -0.998513 -5.9356 0
M  V30 14336 H 1303.65 -1.46311 -2.66133 0
M  V30 14337 H 1301.24 -0.776641 -1.27627 0
M  V30 14338 H 1303.12 0.455636 -4.18929 0
M  V30 14339 H 1301.79 0.942166 -3.09685 0
M  V30 14340 H 1300.7 -1.34116 -3.49233 0
M  V30 14341 H 1302.03 -1.74616 -4.60185 0
M  V30 14342 N 1303.68 1.3679 -0.7827 0
M  V30 14343 C 1304.91 2.04206 -0.362571 0
M  V30 14344 C 1305.33 1.58637 1.01074 0
M  V30 14345 O 1304.69 0.751692 1.64983 0
M  V30 14346 C 1304.74 3.58062 -0.4271 0
M  V30 14347 O 1303.84 4.08463 0.56845 0
M  V30 14348 H 1303.19 0.645638 -0.155073 0
M  V30 14349 H 1305.72 1.74883 -1.06194 0
M  V30 14350 H 1305.73 4.0698 -0.288298 0
M  V30 14351 H 1304.4 3.90582 -1.42893 0
M  V30 14352 H 1302.98 3.70835 0.391863 0
M  V30 14353 N 1305.16 0.53415 1.48272 0
M  V30 14354 C 1306.41 0.00157259 2.025 0
M  V30 14355 C 1306.74 -1.33886 1.41085 0
M  V30 14356 O 1305.99 -1.87884 0.547544 0
M  V30 14357 C 1306.29 -0.165144 3.57018 0
M  V30 14358 C 1305.96 1.10146 4.3724 0
M  V30 14359 C 1304.62 1.44857 4.58879 0
M  V30 14360 C 1306.97 1.94183 4.83676 0
M  V30 14361 C 1304.3 2.63497 5.24201 0
M  V30 14362 C 1306.65 3.12005 5.50305 0
M  V30 14363 C 1305.32 3.47058 5.70182 0
M  V30 14364 H 1304.59 0.00057545 0.741 0
M  V30 14365 H 1307.23 0.701014 1.78208 0
M  V30 14366 H 1305.54 -0.947384 3.80173 0
M  V30 14367 H 1307.23 -0.592202 3.96603 0
M  V30 14368 H 1303.82 0.821132 4.20661 0
M  V30 14369 H 1308.01 1.68677 4.66757 0
M  V30 14370 H 1303.26 2.90852 5.37787 0
M  V30 14371 H 1307.44 3.77426 5.85254 0
M  V30 14372 H 1305.07 4.39086 6.2057 0
M  V30 14373 N 1306.64 -1.55279 0.269478 0
M  V30 14374 C 1307.57 -2.25278 -0.614188 0
M  V30 14375 C 1308.55 -1.24092 -1.1634 0
M  V30 14376 O 1309.74 -1.52799 -1.19858 0
M  V30 14377 C 1306.87 -2.96956 -1.80096 0
M  V30 14378 C 1305.82 -4.05021 -1.38353 0
M  V30 14379 C 1305.15 -4.64244 -2.65295 0
M  V30 14380 C 1306.45 -5.19523 -0.537886 0
M  V30 14381 H 1308.14 -2.99385 -0.0304397 0
M  V30 14382 H 1305.69 -1.43994 -0.0132004 0
M  V30 14383 H 1307.64 -3.44633 -2.42499 0
M  V30 14384 H 1306.36 -2.20374 -2.41045 0
M  V30 14385 H 1305.02 -3.58146 -0.78273 0
M  V30 14386 H 1304.67 -3.84337 -3.2449 0
M  V30 14387 H 1304.37 -5.37208 -2.38079 0
M  V30 14388 H 1305.89 -5.14668 -3.28557 0
M  V30 14389 H 1307.31 -5.63287 -1.06677 0
M  V30 14390 H 1305.71 -5.99014 -0.360845 0
M  V30 14391 H 1306.78 -4.82857 0.444672 0
M  V30 14392 N 1308.12 0.00332656 -1.576 0
M  V30 14393 C 1309.05 0.994803 -2.11248 0
M  V30 14394 C 1310.03 1.36061 -1.02085 0
M  V30 14395 O 1311.21 1.44494 -1.2975 0
M  V30 14396 C 1308.34 2.28772 -2.61306 0
M  V30 14397 C 1307.3 2.06362 -3.74965 0
M  V30 14398 C 1306.62 3.41638 -4.11324 0
M  V30 14399 C 1307.92 1.4289 -5.02374 0
M  V30 14400 H 1309.62 0.548119 -2.9434 0
M  V30 14401 H 1307.16 0.262208 -1.41593 0
M  V30 14402 H 1309.12 2.98485 -2.97464 0
M  V30 14403 H 1307.84 2.75547 -1.75332 0
M  V30 14404 H 1306.5 1.39076 -3.39195 0
M  V30 14405 H 1306.15 3.8611 -3.22379 0
M  V30 14406 H 1305.85 3.2746 -4.87897 0
M  V30 14407 H 1307.37 4.12671 -4.50039 0
M  V30 14408 H 1308.79 2.02555 -5.36325 0
M  V30 14409 H 1307.18 1.3921 -5.8373 0
M  V30 14410 H 1308.25 0.397708 -4.83266 0
M  V30 14411 N 1309.6 1.55164 0.276031 0
M  V30 14412 C 1310.56 1.87065 1.32436 0
M  V30 14413 C 1311.56 0.745024 1.42499 0
M  V30 14414 O 1312.75 1.01321 1.41702 0
M  V30 14415 C 1309.88 2.07322 2.70611 0
M  V30 14416 H 1311.07 2.80775 1.05382 0
M  V30 14417 H 1308.63 1.47609 0.513947 0
M  V30 14418 H 1309.36 1.15983 3.0285 0
M  V30 14419 H 1309.15 2.89275 2.64693 0
M  V30 14420 H 1310.64 2.33287 3.46362 0
M  V30 14421 N 1311.07 -0.540404 1.48045 0
M  V30 14422 C 1312.01 -1.66223 1.56349 0
M  V30 14423 C 1312.99 -1.57227 0.414552 0
M  V30 14424 O 1314.17 -1.77847 0.624709 0
M  V30 14425 C 1311.3 -3.04568 1.48176 0
M  V30 14426 C 1310.34 -3.31957 2.67781 0
M  V30 14427 S 1311.18 -3.19368 4.29842 0
M  V30 14428 C 1312.33 -4.60177 4.2425 0
M  V30 14429 H 1312.56 -1.58927 2.51256 0
M  V30 14430 H 1310.1 -0.722554 1.3645 0
M  V30 14431 H 1312.06 -3.84359 1.44147 0
M  V30 14432 H 1310.72 -3.09314 0.54625 0
M  V30 14433 H 1309.91 -4.32855 2.58172 0
M  V30 14434 H 1309.51 -2.59817 2.69019 0
M  V30 14435 H 1311.8 -5.51482 3.9354 0
M  V30 14436 H 1312.75 -4.74842 5.25291 0
M  V30 14437 H 1313.15 -4.39011 3.54865 0
M  V30 14438 N 1312.55 -1.36459 -0.788468 0
M  V30 14439 C 1313.78 -1.34063 -1.58246 0
M  V30 14440 C 1314.2 0.0754933 -1.87948 0
M  V30 14441 O 1313.56 1.04772 -1.47961 0
M  V30 14442 C 1313.61 -2.17038 -2.8797 0
M  V30 14443 O 1312.71 -1.56353 -3.81612 0
M  V30 14444 H 1312.05 -0.458816 -0.479983 0
M  V30 14445 H 1314.58 -1.79755 -0.977207 0
M  V30 14446 H 1314.59 -2.29651 -3.3723 0
M  V30 14447 H 1313.27 -3.19981 -2.65678 0
M  V30 14448 H 1311.85 -1.52685 -3.40208 0
M  V30 14449 N 1314.03 1.01274 -1.20754 0
M  V30 14450 C 1315.45 1.27256 -0.963221 0
M  V30 14451 C 1315.65 1.98349 0.354972 0
M  V30 14452 O 1314.7 2.28116 1.08255 0
M  V30 14453 C 1316.02 2.1038 -2.14851 0
M  V30 14454 C 1317.56 2.23633 -2.18991 0
M  V30 14455 C 1318.04 3.10136 -3.37016 0
M  V30 14456 N 1319.53 3.17724 -3.37054 0
M  V30 14457 C 1320.26 3.84891 -4.25025 0
M  V30 14458 N 1319.76 4.54152 -5.23181 0
M  V30 14459 N 1321.55 3.81454 -4.12855 0
M  V30 14460 H 1313.7 0.535534 -2.05538 0
M  V30 14461 H 1315.97 0.299006 -0.899611 0
M  V30 14462 H 1315.67 1.65484 -3.10335 0
M  V30 14463 H 1315.55 3.11122 -2.13267 0
M  V30 14464 H 1317.93 2.67753 -1.24067 0
M  V30 14465 H 1318.02 1.22387 -2.24622 0
M  V30 14466 H 1317.66 2.66721 -4.32229 0
M  V30 14467 H 1317.59 4.11478 -3.28623 0
M  V30 14468 H 1320.08 2.68412 -2.66014 0
M  V30 14469 H 1320.39 5.03084 -5.86623 0
M  V30 14470 H 1318.74 4.52964 -5.27113 0
M  V30 14471 H 1321.93 3.26494 -3.35439 0
M  V30 14472 H 1322.1 4.33523 -4.81624 0
M  V30 14473 N 1315.51 1.01404 1.20644 0
M  V30 14474 C 1316.76 0.697244 1.89265 0
M  V30 14475 C 1317.07 -0.776149 1.79542 0
M  V30 14476 O 1318.28 -1.2054 2.43274 0
M  V30 14477 C 1316.73 1.19672 3.39421 0
M  V30 14478 C 1316.34 2.69683 3.57736 0
M  V30 14479 C 1318.09 0.955225 4.13613 0
M  V30 14480 C 1315.99 3.13124 5.01704 0
M  V30 14481 H 1314.92 0.257105 0.708811 0
M  V30 14482 H 1317.57 1.22639 1.36499 0
M  V30 14483 H 1315.96 0.595562 3.91496 0
M  V30 14484 H 1317.13 3.35326 3.16059 0
M  V30 14485 H 1315.44 2.91946 2.96911 0
M  V30 14486 H 1318.04 1.25524 5.19757 0
M  V30 14487 H 1318.38 -0.108362 4.16159 0
M  V30 14488 H 1318.92 1.51962 3.67631 0
M  V30 14489 H 1315.66 4.18748 5.04311 0
M  V30 14490 H 1315.18 2.522 5.44201 0
M  V30 14491 H 1316.86 3.05617 5.70269 0
M  V30 14492 N 1316.99 -1.36373 0.789944 0
M  V30 14493 C 1318.24 -1.98476 0.359165 0
M  V30 14494 C 1318.55 -1.634 -1.07517 0
M  V30 14495 O 1319.76 -2.18742 -1.60824 0
M  V30 14496 C 1318.21 -3.55011 0.591228 0
M  V30 14497 C 1317.82 -3.99011 2.03701 0
M  V30 14498 C 1319.56 -4.23903 0.224979 0
M  V30 14499 C 1317.47 -5.48325 2.2157 0
M  V30 14500 H 1316.4 -0.742612 0.130552 0
M  V30 14501 H 1319.05 -1.55664 0.971652 0
M  V30 14502 H 1317.43 -3.95895 -0.0909788 0
M  V30 14503 H 1318.61 -3.69324 2.75566 0
M  V30 14504 H 1316.92 -3.42957 2.36155 0
M  V30 14505 H 1319.52 -5.33638 0.336764 0
M  V30 14506 H 1319.86 -4.08004 -0.826964 0
M  V30 14507 H 1320.4 -3.88383 0.860443 0
M  V30 14508 H 1317.13 -5.69173 3.25149 0
M  V30 14509 H 1316.65 -5.79637 1.54211 0
M  V30 14510 H 1318.33 -6.14556 2.0231 0
M  V30 14511 N 1318.47 -0.542005 -1.47987 0
M  V30 14512 C 1319.7 -0.0166928 -2.06593 0
M  V30 14513 C 1320.1 1.27564 -1.39728 0
M  V30 14514 O 1319.45 1.77245 -0.48268 0
M  V30 14515 C 1319.51 0.265501 -3.58518 0
M  V30 14516 C 1319.17 -0.935133 -4.4733 0
M  V30 14517 C 1320.17 -1.83673 -4.86375 0
M  V30 14518 C 1317.85 -1.14552 -4.89063 0
M  V30 14519 C 1319.85 -2.93252 -5.65935 0
M  V30 14520 C 1317.54 -2.24443 -5.68391 0
M  V30 14521 C 1318.53 -3.13625 -6.06736 0
M  V30 14522 O 1318.22 -4.21613 -6.84469 0
M  V30 14523 H 1317.95 -0.0358651 -0.675048 0
M  V30 14524 H 1320.51 -0.750565 -1.91195 0
M  V30 14525 H 1318.74 1.0535 -3.72073 0
M  V30 14526 H 1320.43 0.734348 -3.99202 0
M  V30 14527 H 1321.19 -1.68618 -4.54745 0
M  V30 14528 H 1317.07 -0.460598 -4.58693 0
M  V30 14529 H 1320.62 -3.62888 -5.95783 0
M  V30 14530 H 1316.51 -2.39477 -5.99434 0
M  V30 14531 H 1317.28 -4.19472 -7.02841 0
M  V30 14532 N 1319.94 1.55134 -0.277709 0
M  V30 14533 C 1320.87 2.256 0.602232 0
M  V30 14534 C 1321.85 1.24708 1.15681 0
M  V30 14535 O 1323.04 1.53433 1.19046 0
M  V30 14536 C 1320.17 2.97907 1.78519 0
M  V30 14537 C 1319.12 4.0575 1.36203 0
M  V30 14538 C 1318.45 4.65644 2.62829 0
M  V30 14539 C 1319.75 5.19801 0.510327 0
M  V30 14540 H 1321.44 2.99396 0.0145622 0
M  V30 14541 H 1318.99 1.43999 0.00556389 0
M  V30 14542 H 1320.94 3.45915 2.40668 0
M  V30 14543 H 1319.67 2.21649 2.39873 0
M  V30 14544 H 1318.33 3.58557 0.763726 0
M  V30 14545 H 1317.97 3.86053 3.22447 0
M  V30 14546 H 1317.67 5.38463 2.35227 0
M  V30 14547 H 1319.2 5.16403 3.25823 0
M  V30 14548 H 1320.61 5.63845 1.03689 0
M  V30 14549 H 1319.01 5.99197 0.329073 0
M  V30 14550 H 1320.08 4.82614 -0.470273 0
M  V30 14551 N 1321.42 0.00503138 1.57599 0
M  V30 14552 C 1322.7 -0.716079 1.82021 0
M  V30 14553 C 1323.08 -1.91707 0.883829 0
M  V30 14554 O 1322.43 -2.28404 -0.0662812 0
M  V30 14555 C 1322.64 -1.11706 3.3064 0
M  V30 14556 C 1323.98 -1.51881 3.96506 0
M  V30 14557 O 1325.01 -1.21071 3.34993 0
M  V30 14558 O 1323.87 -2.09191 5.04877 0
M  V30 14559 H 1320.96 -0.349112 0.7497 0
M  V30 14560 H 1323.51 0.030871 1.69672 0
M  V30 14561 H 1322.28 -0.261223 3.90427 0
M  V30 14562 H 1321.9 -1.92295 3.48006 0
M  V30 14563 N 1322.9 -1.55308 -0.267798 0
M  V30 14564 C 1324.31 -1.66814 -0.838459 0
M  V30 14565 C 1324.66 -0.598609 -1.86845 0
M  V30 14566 O 1323.79 0.25896 -2.14845 0
M  V30 14567 C 1324.38 -3.02408 -1.52758 0
M  V30 14568 C 1322.94 -3.15923 -2.04621 0
M  V30 14569 C 1322.09 -2.62628 -0.890044 0
M  V30 14570 H 1325.04 -1.58639 -0.0440354 0
M  V30 14571 H 1325.06 -2.95687 -2.39478 0
M  V30 14572 H 1324.57 -3.80228 -0.777695 0
M  V30 14573 H 1322.67 -2.42886 -2.82555 0
M  V30 14574 H 1322.79 -4.22556 -2.25794 0
M  V30 14575 H 1321.15 -2.19918 -1.28485 0
M  V30 14576 H 1321.93 -3.42956 -0.153579 0
M  V30 14577 N 1324.38 0.532545 -1.4833 0
M  V30 14578 C 1325.6 1.31809 -1.60129 0
M  V30 14579 C 1326.03 1.86283 -0.260807 0
M  V30 14580 O 1325.39 1.6427 0.767137 0
M  V30 14581 C 1325.43 2.44661 -2.64903 0
M  V30 14582 O 1324.54 3.47622 -2.21885 0
M  V30 14583 H 1323.88 0.390492 -0.53704 0
M  V30 14584 H 1326.41 0.641068 -1.94297 0
M  V30 14585 H 1326.42 2.90883 -2.86096 0
M  V30 14586 H 1325.09 2.04373 -3.62222 0
M  V30 14587 H 1323.67 3.07536 -2.10894 0
M  V30 14588 N 1325.86 1.36875 0.78122 0
M  V30 14589 C 1326.79 1.34559 1.9083 0
M  V30 14590 C 1327.77 0.215713 1.68727 0
M  V30 14591 O 1328.95 0.41462 1.89722 0
M  V30 14592 C 1326.08 1.14233 3.27976 0
M  V30 14593 C 1325.04 2.24132 3.64621 0
M  V30 14594 C 1324.36 1.8894 5.00206 0
M  V30 14595 C 1325.66 3.66266 3.72353 0
M  V30 14596 H 1327.36 2.28871 1.93025 0
M  V30 14597 H 1324.9 1.10171 0.927275 0
M  V30 14598 H 1326.85 1.11246 4.06451 0
M  V30 14599 H 1325.58 0.163747 3.26189 0
M  V30 14600 H 1324.24 2.26259 2.88448 0
M  V30 14601 H 1323.89 0.896351 4.94949 0
M  V30 14602 H 1323.59 2.62525 5.25694 0
M  V30 14603 H 1325.11 1.87523 5.81092 0
M  V30 14604 H 1326.52 3.66321 4.41001 0
M  V30 14605 H 1324.92 4.38825 4.09332 0
M  V30 14606 H 1325.99 4.00578 2.7325 0
M  V30 14607 N 1327.33 -1.00632 1.21289 0
M  V30 14608 C 1328.58 -1.74044 1.02728 0
M  V30 14609 C 1328.9 -1.89963 -0.440351 0
M  V30 14610 O 1328.17 -1.44958 -1.31772 0
M  V30 14611 H 1326.75 -0.644813 0.377127 0
M  V30 14612 H 1329.41 -1.21272 1.52575 0
M  V30 14613 H 1328.51 -2.74011 1.49413 0
M  V30 14614 N 1328.81 -1.02043 -1.20104 0
M  V30 14615 C 1330.06 -0.710566 -1.89197 0
M  V30 14616 C 1330.38 0.762471 -1.79475 0
M  V30 14617 O 1329.65 1.54871 -1.19965 0
M  V30 14618 H 1328.23 -0.259839 -0.700352 0
M  V30 14619 H 1330.89 -1.29285 -1.45848 0
M  V30 14620 H 1329.99 -0.997363 -2.95735 0
M  V30 14621 N 1330.29 1.35952 -0.797165 0
M  V30 14622 C 1331.54 1.99327 -0.373695 0
M  V30 14623 C 1331.87 1.63111 1.05396 0
M  V30 14624 O 1331.14 0.889736 1.72956 0
M  V30 14625 C 1331.43 3.5593 -0.54641 0
M  V30 14626 C 1331.28 4.01975 -2.01832 0
M  V30 14627 C 1332.6 4.40087 0.0337694 0
M  V30 14628 H 1329.72 0.724107 -0.137254 0
M  V30 14629 H 1332.36 1.61248 -1.00495 0
M  V30 14630 H 1330.51 3.88499 -0.00903959 0
M  V30 14631 H 1332.18 3.79859 -2.61735 0
M  V30 14632 H 1330.43 3.5323 -2.51815 0
M  V30 14633 H 1331.1 5.109 -2.09009 0
M  V30 14634 H 1333.57 4.13923 -0.425039 0
M  V30 14635 H 1332.45 5.48775 -0.117054 0
M  V30 14636 H 1332.71 4.27504 1.12661 0
M  V30 14637 N 1331.77 0.549846 1.47697 0
M  V30 14638 C 1332.99 0.0256819 2.07384 0
M  V30 14639 C 1333.42 -1.25525 1.4009 0
M  V30 14640 O 1332.78 -1.7501 0.473406 0
M  V30 14641 C 1332.82 -0.160835 3.60241 0
M  V30 14642 O 1331.93 -1.22509 3.93783 0
M  V30 14643 H 1331.27 0.0480204 0.662261 0
M  V30 14644 H 1333.8 0.763429 1.89823 0
M  V30 14645 H 1333.81 -0.377337 4.06251 0
M  V30 14646 H 1332.48 0.774774 4.0862 0
M  V30 14647 H 1331.06 -0.98967 3.59527 0
M  V30 14648 N 1333.25 -1.54984 0.285932 0
M  V30 14649 C 1334.49 -1.99436 -0.32709 0
M  V30 14650 C 1334.82 -1.17582 -1.55562 0
M  V30 14651 O 1334.09 -0.268002 -1.94058 0
M  V30 14652 H 1332.67 -0.736662 -0.123846 0
M  V30 14653 H 1335.33 -1.90881 0.393774 0
M  V30 14654 H 1334.42 -3.0609 -0.609523 0
M  V30 14655 N 1334.72 -0.0133892 -1.57594 0
M  V30 14656 C 1335.66 1.00798 -2.04731 0
M  V30 14657 C 1336.64 1.32686 -0.93985 0
M  V30 14658 O 1337.82 1.44622 -1.209 0
M  V30 14659 C 1334.95 2.33216 -2.45618 0
M  V30 14660 C 1333.99 2.16898 -3.67229 0
M  V30 14661 S 1334.83 1.48248 -5.14571 0
M  V30 14662 C 1335.98 2.82068 -5.58738 0
M  V30 14663 H 1336.21 0.606673 -2.91044 0
M  V30 14664 H 1333.75 0.197865 -1.53127 0
M  V30 14665 H 1335.71 3.09348 -2.69841 0
M  V30 14666 H 1334.37 2.70483 -1.59679 0
M  V30 14667 H 1333.56 3.14753 -3.93632 0
M  V30 14668 H 1333.16 1.4891 -3.43077 0
M  V30 14669 H 1335.45 3.78343 -5.62017 0
M  V30 14670 H 1336.4 2.60348 -6.58502 0
M  V30 14671 H 1336.8 2.86592 -4.86338 0
M  V30 14672 N 1336.2 1.55448 0.259558 0
M  V30 14673 C 1337.43 1.81063 1.01148 0
M  V30 14674 C 1337.85 0.58875 1.78649 0
M  V30 14675 O 1337.21 -0.461971 1.75315 0
M  V30 14676 C 1337.26 3.04279 1.93512 0
M  V30 14677 O 1336.36 2.80307 3.02493 0
M  V30 14678 H 1335.7 0.598056 0.288487 0
M  V30 14679 H 1338.23 2.02614 0.284387 0
M  V30 14680 H 1338.24 3.33373 2.35215 0
M  V30 14681 H 1336.92 3.92856 1.36518 0
M  V30 14682 H 1335.5 2.62345 2.65008 0
M  V30 14683 N 1337.68 -0.524672 1.4861 0
M  V30 14684 C 1338.61 -1.63782 1.66426 0
M  V30 14685 C 1339.59 -1.62177 0.513077 0
M  V30 14686 O 1340.78 -1.7929 0.74623 0
M  V30 14687 C 1337.91 -3.02354 1.70877 0
M  V30 14688 C 1336.86 -3.18819 2.85549 0
M  V30 14689 C 1336.19 -4.58506 2.75094 0
M  V30 14690 C 1337.49 -3.01086 4.26784 0
M  V30 14691 H 1339.18 -1.49127 2.59618 0
M  V30 14692 H 1336.73 -0.715997 1.24938 0
M  V30 14693 H 1338.68 -3.80105 1.81929 0
M  V30 14694 H 1337.4 -3.18044 0.742682 0
M  V30 14695 H 1336.06 -2.43487 2.74061 0
M  V30 14696 H 1335.71 -4.71038 1.76443 0
M  V30 14697 H 1335.41 -4.70466 3.52044 0
M  V30 14698 H 1336.93 -5.38348 2.88121 0
M  V30 14699 H 1338.35 -3.68624 4.39077 0
M  V30 14700 H 1336.75 -3.24536 5.04774 0
M  V30 14701 H 1337.82 -1.97454 4.42877 0
M  V30 14702 N 1339.16 -1.37287 -0.77395 0
M  V30 14703 C 1340.41 -1.32112 -1.5294 0
M  V30 14704 C 1340.73 0.0946137 -1.9477 0
M  V30 14705 O 1340 1.03817 -1.66129 0
M  V30 14706 H 1338.58 -0.486047 -0.567245 0
M  V30 14707 H 1341.24 -1.71752 -0.921263 0
M  V30 14708 H 1340.34 -1.95873 -2.42982 0
M  V30 14709 N 1340.64 0.999871 -1.21821 0
M  V30 14710 C 1342.05 1.26228 -0.976664 0
M  V30 14711 C 1342.25 1.98714 0.333915 0
M  V30 14712 O 1341.31 2.29252 1.05829 0
M  V30 14713 C 1342.62 2.08089 -2.1707 0
M  V30 14714 C 1344.17 2.21298 -2.21351 0
M  V30 14715 C 1344.64 3.06544 -3.40287 0
M  V30 14716 N 1346.14 3.14131 -3.40405 0
M  V30 14717 C 1346.87 3.80362 -4.29083 0
M  V30 14718 N 1346.37 4.48577 -5.27968 0
M  V30 14719 N 1348.16 3.77053 -4.16878 0
M  V30 14720 H 1340.31 0.513704 -2.06094 0
M  V30 14721 H 1342.57 0.289447 -0.902732 0
M  V30 14722 H 1342.28 1.62183 -3.12073 0
M  V30 14723 H 1342.15 3.08843 -2.16554 0
M  V30 14724 H 1344.54 2.66422 -1.269 0
M  V30 14725 H 1344.62 1.19997 -2.25908 0
M  V30 14726 H 1344.27 2.62122 -4.35034 0
M  V30 14727 H 1344.2 4.0797 -3.32969 0
M  V30 14728 H 1346.69 2.65576 -2.68846 0
M  V30 14729 H 1347 4.96833 -5.91926 0
M  V30 14730 H 1345.34 4.47348 -5.31888 0
M  V30 14731 H 1348.54 3.22918 -3.38883 0
M  V30 14732 H 1348.71 4.2839 -4.86195 0
M  V30 14733 N 1342.11 1.02678 1.19562 0
M  V30 14734 C 1343.36 0.722016 1.89191 0
M  V30 14735 C 1343.69 -0.749217 1.79491 0
M  V30 14736 O 1342.94 -1.56105 1.18025 0
M  V30 14737 C 1343.24 1.11603 3.39529 0
M  V30 14738 C 1342.91 2.58518 3.69431 0
M  V30 14739 C 1341.57 2.98658 3.77302 0
M  V30 14740 C 1343.92 3.53579 3.82925 0
M  V30 14741 C 1341.25 4.32776 3.96134 0
M  V30 14742 C 1343.6 4.87398 4.0327 0
M  V30 14743 C 1342.27 5.27229 4.09373 0
M  V30 14744 H 1341.54 0.264204 0.692298 0
M  V30 14745 H 1344.18 1.28924 1.41601 0
M  V30 14746 H 1342.49 0.467374 3.89002 0
M  V30 14747 H 1344.19 0.857771 3.91718 0
M  V30 14748 H 1340.78 2.26421 3.63911 0
M  V30 14749 H 1344.96 3.23721 3.76189 0
M  V30 14750 H 1340.22 4.63175 3.99098 0
M  V30 14751 H 1344.39 5.60973 4.12653 0
M  V30 14752 H 1342.02 6.31164 4.23718 0
M  V30 14753 N 1343.59 -1.35528 0.804364 0
M  V30 14754 C 1344.54 -2.27241 0.18591 0
M  V30 14755 C 1345.53 -1.47669 -0.638956 0
M  V30 14756 O 1346.72 -1.69891 -0.496578 0
M  V30 14757 C 1343.85 -3.36769 -0.666446 0
M  V30 14758 C 1342.93 -4.23767 0.168027 0
M  V30 14759 N 1343.32 -4.90618 1.22994 0
M  V30 14760 C 1341.62 -4.45971 -0.0507088 0
M  V30 14761 C 1342.32 -5.55092 1.7392 0
M  V30 14762 N 1341.3 -5.33441 1.04601 0
M  V30 14763 H 1345.1 -2.7642 0.998467 0
M  V30 14764 H 1342.62 -1.49029 0.645301 0
M  V30 14765 H 1344.61 -4.01419 -1.12554 0
M  V30 14766 H 1343.27 -2.89143 -1.47738 0
M  V30 14767 H 1344.28 -4.92155 1.61256 0
M  V30 14768 H 1340.96 -4.09147 -0.830958 0
M  V30 14769 H 1342.35 -6.18434 2.62659 0
M  V30 14770 N 1345.07 -0.557671 -1.47404 0
M  V30 14771 C 1346.32 -0.0316382 -2.01675 0
M  V30 14772 C 1346.63 1.32656 -1.43742 0
M  V30 14773 O 1347.84 1.94253 -1.89678 0
M  V30 14774 C 1346.3 -0.00606931 -3.59899 0
M  V30 14775 C 1345.9 -1.36106 -4.26825 0
M  V30 14776 C 1347.65 0.467332 -4.2192 0
M  V30 14777 C 1345.55 -1.29457 -5.77057 0
M  V30 14778 H 1344.48 -0.00805738 -0.753957 0
M  V30 14779 H 1347.14 -0.705592 -1.69392 0
M  V30 14780 H 1345.52 0.733541 -3.89147 0
M  V30 14781 H 1346.69 -2.11842 -4.09218 0
M  V30 14782 H 1345.01 -1.77243 -3.76794 0
M  V30 14783 H 1347.6 0.535478 -5.32012 0
M  V30 14784 H 1347.95 1.47942 -3.89126 0
M  V30 14785 H 1348.48 -0.217434 -3.97205 0
M  V30 14786 H 1345.22 -2.28267 -6.14471 0
M  V30 14787 H 1344.74 -0.579022 -5.96999 0
M  V30 14788 H 1346.42 -0.996834 -6.39275 0
M  V30 14789 N 1346.55 1.54831 -0.294147 0
M  V30 14790 C 1347.97 1.59489 0.0594489 0
M  V30 14791 C 1348.17 1.31121 1.53002 0
M  V30 14792 O 1347.22 1.08129 2.28176 0
M  V30 14793 C 1348.53 2.98858 -0.332323 0
M  V30 14794 C 1350.08 3.1174 -0.280518 0
M  V30 14795 C 1350.56 4.53407 -0.64701 0
M  V30 14796 N 1352.05 4.59307 -0.599284 0
M  V30 14797 C 1352.78 5.66983 -0.85542 0
M  V30 14798 N 1352.28 6.82726 -1.17717 0
M  V30 14799 N 1354.07 5.56621 -0.78294 0
M  V30 14800 H 1346.22 1.71532 -1.25262 0
M  V30 14801 H 1348.49 0.800801 -0.507368 0
M  V30 14802 H 1348.19 3.24517 -1.35578 0
M  V30 14803 H 1348.07 3.75862 0.317443 0
M  V30 14804 H 1350.45 2.85834 0.733683 0
M  V30 14805 H 1350.53 2.36907 -0.96481 0
M  V30 14806 H 1350.18 4.80042 -1.65899 0
M  V30 14807 H 1350.11 5.26567 0.0592796 0
M  V30 14808 H 1352.6 3.76169 -0.361259 0
M  V30 14809 H 1352.91 7.60761 -1.35877 0
M  V30 14810 H 1351.26 6.84295 -1.21513 0
M  V30 14811 H 1354.45 4.65075 -0.531282 0
M  V30 14812 H 1354.62 6.40456 -0.985929 0
M  V30 14813 N 1348.03 0.0217466 1.57585 0
M  V30 14814 C 1348.96 -0.99116 2.06661 0
M  V30 14815 C 1349.97 -1.29346 0.988604 0
M  V30 14816 O 1351.16 -1.25941 1.26496 0
M  V30 14817 C 1348.26 -2.32047 2.46997 0
M  V30 14818 C 1347.43 -2.20441 3.77789 0
M  V30 14819 C 1346.49 -3.36243 4.04755 0
M  V30 14820 O 1345.52 -3.13458 4.75114 0
M  V30 14821 N 1346.72 -4.598 3.54351 0
M  V30 14822 H 1349.49 -0.572486 2.94181 0
M  V30 14823 H 1347.05 -0.165175 1.61055 0
M  V30 14824 H 1349.04 -3.0833 2.62135 0
M  V30 14825 H 1347.61 -2.65581 1.64881 0
M  V30 14826 H 1346.83 -1.28931 3.72519 0
M  V30 14827 H 1348.12 -2.09882 4.63494 0
M  V30 14828 H 1347.52 -4.81207 2.97416 0
M  V30 14829 H 1346.07 -5.33276 3.7478 0
M  V30 14830 N 1349.51 -1.55583 -0.251311 0
M  V30 14831 C 1350.75 -1.77209 -0.979966 0
M  V30 14832 C 1351.08 -0.585279 -1.85485 0
M  V30 14833 O 1350.34 0.431559 -1.90882 0
M  V30 14834 C 1350.63 -3.04291 -1.87461 0
M  V30 14835 C 1350.3 -4.35844 -1.15545 0
M  V30 14836 C 1348.96 -4.71594 -0.956679 0
M  V30 14837 C 1351.31 -5.17189 -0.645381 0
M  V30 14838 C 1348.64 -5.86227 -0.235465 0
M  V30 14839 C 1350.99 -6.32569 0.0623441 0
M  V30 14840 C 1349.66 -6.66943 0.272634 0
M  V30 14841 H 1348.93 -0.648452 -0.358595 0
M  V30 14842 H 1351.58 -1.89856 -0.250423 0
M  V30 14843 H 1349.88 -2.86637 -2.67108 0
M  V30 14844 H 1351.58 -3.18221 -2.44001 0
M  V30 14845 H 1348.17 -4.07757 -1.32031 0
M  V30 14846 H 1352.35 -4.90028 -0.786505 0
M  V30 14847 H 1347.61 -6.11369 -0.0620232 0
M  V30 14848 H 1351.78 -6.94844 0.465234 0
M  V30 14849 H 1349.41 -7.55617 0.833442 0
M  V30 14850 N 1350.98 0.516783 -1.48886 0
M  V30 14851 C 1352.21 1.30103 -1.61518 0
M  V30 14852 C 1352.63 1.85996 -0.28055 0
M  V30 14853 O 1351.99 1.65075 0.749671 0
M  V30 14854 C 1352.04 2.41837 -2.67483 0
M  V30 14855 O 1351.14 3.45249 -2.25559 0
M  V30 14856 H 1350.48 0.384774 -0.541152 0
M  V30 14857 H 1353.01 0.620424 -1.94966 0
M  V30 14858 H 1353.02 2.87832 -2.89165 0
M  V30 14859 H 1351.7 2.00519 -3.64369 0
M  V30 14860 H 1350.28 3.05281 -2.14144 0
M  V30 14861 N 1352.46 1.37696 0.766659 0
M  V30 14862 C 1353.74 1.23715 1.51506 0
M  V30 14863 C 1354.12 -0.167091 2.10438 0
M  V30 14864 O 1353.47 -1.17526 1.95959 0
M  V30 14865 C 1353.68 2.33715 2.59188 0
M  V30 14866 C 1355.02 2.71504 3.26451 0
M  V30 14867 O 1356.05 2.32929 2.69486 0
M  V30 14868 O 1354.91 3.37981 4.29454 0
M  V30 14869 H 1352 0.483046 0.671264 0
M  V30 14870 H 1354.55 1.49489 0.803188 0
M  V30 14871 H 1353.32 3.27729 2.13797 0
M  V30 14872 H 1352.94 2.09433 3.3797 0
M  V30 14873 N 1353.94 -0.993397 1.22349 0
M  V30 14874 C 1355.35 -1.54739 1.04465 0
M  V30 14875 C 1355.7 -1.92243 -0.392057 0
M  V30 14876 O 1354.83 -1.74707 -1.27697 0
M  V30 14877 C 1355.42 -2.81179 1.89007 0
M  V30 14878 C 1353.98 -3.33023 1.75421 0
M  V30 14879 C 1353.13 -2.06114 1.85505 0
M  V30 14880 H 1356.08 -0.814539 1.36202 0
M  V30 14881 H 1356.1 -3.53523 1.40718 0
M  V30 14882 H 1355.61 -2.53851 2.93566 0
M  V30 14883 H 1353.71 -3.6526 0.735935 0
M  V30 14884 H 1353.83 -4.03659 2.58062 0
M  V30 14885 H 1352.19 -2.19651 1.2894 0
M  V30 14886 H 1352.97 -1.81184 2.91594 0
M  V30 14887 N 1355.42 -1.03311 -1.19015 0
M  V30 14888 C 1356.66 -0.733124 -1.89085 0
M  V30 14889 C 1357 0.73675 -1.79682 0
M  V30 14890 O 1356.27 1.53692 -1.19201 0
M  V30 14891 C 1356.55 -1.19028 -3.39859 0
M  V30 14892 C 1356.41 -2.72169 -3.58112 0
M  V30 14893 C 1357.73 -0.774383 -4.33234 0
M  V30 14894 H 1354.85 -0.2678 -0.686624 0
M  V30 14895 H 1357.49 -1.28378 -1.40068 0
M  V30 14896 H 1355.64 -0.721799 -3.81736 0
M  V30 14897 H 1357.31 -3.26996 -3.25379 0
M  V30 14898 H 1355.55 -3.12358 -3.01023 0
M  V30 14899 H 1356.22 -2.99213 -4.6387 0
M  V30 14900 H 1358.7 -1.17739 -3.99095 0
M  V30 14901 H 1357.58 -1.12209 -5.37308 0
M  V30 14902 H 1357.84 0.322989 -4.40919 0
M  V30 14903 N 1356.9 1.35099 -0.81154 0
M  V30 14904 C 1358.12 2.03391 -0.405805 0
M  V30 14905 C 1358.55 1.60745 0.97686 0
M  V30 14906 O 1357.9 0.786518 1.63351 0
M  V30 14907 C 1357.95 3.57075 -0.502954 0
M  V30 14908 O 1357.06 4.09577 0.481681 0
M  V30 14909 H 1356.4 0.642203 -0.168733 0
M  V30 14910 H 1358.93 1.72591 -1.0988 0
M  V30 14911 H 1358.94 4.06277 -0.37456 0
M  V30 14912 H 1357.61 3.87463 -1.51145 0
M  V30 14913 H 1356.19 3.71583 0.313115 0
M  V30 14914 N 1358.37 0.56548 1.47106 0
M  V30 14915 C 1359.28 -0.180488 2.33905 0
M  V30 14916 C 1360.3 -0.90355 1.48701 0
M  V30 14917 O 1361.48 -0.870595 1.81611 0
M  V30 14918 C 1358.54 -1.19212 3.2556 0
M  V30 14919 C 1357.6 -0.475589 4.26658 0
M  V30 14920 C 1356.83 -1.43902 5.13934 0
M  V30 14921 O 1357.06 -2.67443 5.03816 0
M  V30 14922 O 1355.99 -0.958998 5.94211 0
M  V30 14923 H 1359.82 0.531726 2.99009 0
M  V30 14924 H 1357.4 0.32602 1.45799 0
M  V30 14925 H 1359.28 -1.77586 3.82153 0
M  V30 14926 H 1357.96 -1.8861 2.63074 0
M  V30 14927 H 1356.87 0.149561 3.73801 0
M  V30 14928 H 1358.2 0.177103 4.91881 0
M  V30 14929 N 1359.85 -1.54672 0.302354 0
M  V30 14930 C 1361.1 -1.99771 -0.305919 0
M  V30 14931 C 1361.42 -1.19225 -1.54306 0
M  V30 14932 O 1360.69 -0.288569 -1.93763 0
M  V30 14933 H 1359.27 -0.737934 -0.116026 0
M  V30 14934 H 1361.93 -1.90452 0.413997 0
M  V30 14935 H 1361.03 -3.06719 -0.577024 0
M  V30 14936 N 1361.33 -0.0301034 -1.57571 0
M  V30 14937 C 1362.26 0.94977 -2.13311 0
M  V30 14938 C 1363.24 1.33865 -1.04948 0
M  V30 14939 O 1364.43 1.4171 -1.32786 0
M  V30 14940 C 1361.56 2.23178 -2.66099 0
M  V30 14941 C 1360.51 1.98362 -3.79258 0
M  V30 14942 C 1359.84 3.32836 -4.18479 0
M  V30 14943 C 1361.14 1.32201 -5.05292 0
M  V30 14944 H 1362.83 0.485562 -2.95436 0
M  V30 14945 H 1360.38 0.232116 -1.42117 0
M  V30 14946 H 1362.33 2.92108 -3.03728 0
M  V30 14947 H 1361.05 2.71766 -1.81137 0
M  V30 14948 H 1359.71 1.31849 -3.42069 0
M  V30 14949 H 1359.36 3.79185 -3.30496 0
M  V30 14950 H 1359.06 3.17037 -4.94733 0
M  V30 14951 H 1360.58 4.03032 -4.58691 0
M  V30 14952 H 1362 1.91133 -5.40501 0
M  V30 14953 H 1360.4 1.26797 -5.86551 0
M  V30 14954 H 1361.47 0.29511 -4.84001 0
M  V30 14955 N 1362.81 1.55714 0.243056 0
M  V30 14956 C 1364.03 1.82126 0.992219 0
M  V30 14957 C 1364.46 0.607665 1.78014 0
M  V30 14958 O 1363.82 -0.443351 1.75796 0
M  V30 14959 C 1363.86 3.06314 1.90274 0
M  V30 14960 O 1362.97 2.83499 2.99503 0
M  V30 14961 H 1362.31 0.601082 0.282128 0
M  V30 14962 H 1364.84 2.02904 0.262881 0
M  V30 14963 H 1364.85 3.35849 2.31666 0
M  V30 14964 H 1363.52 3.94282 1.32344 0
M  V30 14965 H 1362.1 2.65141 2.62211 0
M  V30 14966 N 1364.29 -0.50888 1.49158 0
M  V30 14967 C 1365.53 -1.2635 1.58247 0
M  V30 14968 C 1365.86 -1.92677 0.265654 0
M  V30 14969 O 1365.12 -1.80931 -0.745818 0
M  V30 14970 C 1365.42 -2.35875 2.6851 0
M  V30 14971 C 1365.08 -1.87059 4.10268 0
M  V30 14972 C 1363.74 -1.73464 4.48847 0
M  V30 14973 C 1366.1 -1.50429 4.9902 0
M  V30 14974 C 1363.42 -1.21606 5.73959 0
M  V30 14975 C 1365.78 -1.00026 6.24642 0
M  V30 14976 C 1364.44 -0.850646 6.62058 0
M  V30 14977 H 1363.71 -0.462346 0.579066 0
M  V30 14978 H 1366.36 -0.565528 1.82959 0
M  V30 14979 H 1364.66 -3.11428 2.37739 0
M  V30 14980 H 1366.36 -2.9395 2.72753 0
M  V30 14981 H 1362.95 -1.98597 3.79812 0
M  V30 14982 H 1367.13 -1.59782 4.69876 0
M  V30 14983 H 1362.39 -1.08728 6.01655 0
M  V30 14984 H 1366.56 -0.707608 6.92796 0
M  V30 14985 H 1364.19 -0.446627 7.58887 0
M  V30 14986 N 1365.76 -1.381 -0.759346 0
M  V30 14987 C 1367.01 -1.35196 -1.51966 0
M  V30 14988 C 1367.37 0.0595044 -1.92308 0
M  V30 14989 O 1366.66 1.02089 -1.62137 0
M  V30 14990 C 1366.85 -2.23636 -2.78786 0
M  V30 14991 C 1366.68 -3.73241 -2.50841 0
M  V30 14992 C 1365.45 -4.42292 -2.44348 0
M  V30 14993 C 1367.65 -4.6581 -2.18003 0
M  V30 14994 N 1365.63 -5.77366 -2.08617 0
M  V30 14995 C 1367 -5.89354 -1.92516 0
M  V30 14996 C 1369.06 -4.54071 -2.04264 0
M  V30 14997 C 1367.76 -7.02473 -1.54675 0
M  V30 14998 C 1369.79 -5.67088 -1.67825 0
M  V30 14999 C 1369.15 -6.89689 -1.43206 0
M  V30 15000 H 1365.25 -0.550002 -0.555897 0
M  V30 15001 H 1367.83 -1.73436 -0.884769 0
M  V30 15002 H 1366 -1.87594 -3.40093 0
M  V30 15003 H 1367.73 -2.119 -3.44791 0
M  V30 15004 H 1364.49 -3.95439 -2.60624 0
M  V30 15005 H 1364.91 -6.48784 -1.93414 0
M  V30 15006 H 1369.56 -3.59843 -2.21975 0
M  V30 15007 H 1367.27 -7.96624 -1.35704 0
M  V30 15008 H 1370.86 -5.59982 -1.57834 0
M  V30 15009 H 1369.74 -7.75658 -1.15428 0
M  V30 15010 N 1367.24 0.986894 -1.22875 0
M  V30 15011 C 1368.66 1.25185 -0.989997 0
M  V30 15012 C 1368.86 1.99057 0.31282 0
M  V30 15013 O 1367.91 2.30361 1.03392 0
M  V30 15014 C 1369.23 2.05775 -2.19265 0
M  V30 15015 C 1370.78 2.18938 -2.23686 0
M  V30 15016 C 1371.25 3.02917 -3.43519 0
M  V30 15017 N 1372.74 3.10503 -3.43718 0
M  V30 15018 C 1373.48 3.75789 -4.33094 0
M  V30 15019 N 1372.97 4.42952 -5.32696 0
M  V30 15020 N 1374.77 3.72611 -4.20854 0
M  V30 15021 H 1366.92 0.491816 -2.06628 0
M  V30 15022 H 1369.18 0.279856 -0.905751 0
M  V30 15023 H 1368.89 1.58864 -3.13776 0
M  V30 15024 H 1368.76 3.06529 -2.19818 0
M  V30 15025 H 1371.15 2.65061 -1.29718 0
M  V30 15026 H 1371.23 1.17595 -2.27168 0
M  V30 15027 H 1370.87 2.57493 -4.3779 0
M  V30 15028 H 1370.8 4.04415 -3.37277 0
M  V30 15029 H 1373.29 2.62709 -2.71647 0
M  V30 15030 H 1373.61 4.90527 -5.97162 0
M  V30 15031 H 1371.95 4.41681 -5.36603 0
M  V30 15032 H 1375.14 3.19305 -3.42289 0
M  V30 15033 H 1375.31 4.2321 -4.90711 0
M  V30 15034 N 1368.72 1.0394 1.18466 0
M  V30 15035 C 1369.63 0.639714 2.2571 0
M  V30 15036 C 1370.65 -0.333431 1.70775 0
M  V30 15037 O 1371.82 -0.188676 2.00514 0
M  V30 15038 C 1368.89 0.007559 3.46699 0
M  V30 15039 C 1367.95 1.02955 4.16772 0
M  V30 15040 C 1367.18 0.427464 5.31985 0
M  V30 15041 O 1367.4 -0.766684 5.65224 0
M  V30 15042 O 1366.34 1.15553 5.90704 0
M  V30 15043 H 1370.16 1.53316 2.6216 0
M  V30 15044 H 1367.75 0.810206 1.25523 0
M  V30 15045 H 1369.63 -0.344404 4.1999 0
M  V30 15046 H 1368.31 -0.859727 3.12074 0
M  V30 15047 H 1367.21 1.43328 3.45554 0
M  V30 15048 H 1368.55 1.86756 4.55393 0
M  V30 15049 N 1370.2 -1.34667 0.818693 0
M  V30 15050 C 1371.45 -1.9767 0.401184 0
M  V30 15051 C 1371.76 -1.65644 -1.04027 0
M  V30 15052 O 1372.97 -2.22104 -1.56148 0
M  V30 15053 C 1371.42 -3.53677 0.666398 0
M  V30 15054 C 1371.03 -3.94601 2.12119 0
M  V30 15055 C 1372.77 -4.23331 0.314845 0
M  V30 15056 C 1370.68 -5.43502 2.33151 0
M  V30 15057 H 1369.61 -0.739675 0.146275 0
M  V30 15058 H 1372.26 -1.53568 1.00445 0
M  V30 15059 H 1370.64 -3.95999 -0.00698307 0
M  V30 15060 H 1371.82 -3.63396 2.83338 0
M  V30 15061 H 1370.13 -3.37871 2.43377 0
M  V30 15062 H 1372.73 -5.32804 0.449881 0
M  V30 15063 H 1373.07 -4.09666 -0.740235 0
M  V30 15064 H 1373.61 -3.8647 0.942631 0
M  V30 15065 H 1370.35 -5.62148 3.37149 0
M  V30 15066 H 1369.87 -5.76236 1.66471 0
M  V30 15067 H 1371.54 -6.10127 2.153 0
M  V30 15068 N 1371.68 -0.573274 -1.46804 0
M  V30 15069 C 1372.92 -0.0636394 -2.033 0
M  V30 15070 C 1373.28 1.27833 -1.43793 0
M  V30 15071 O 1372.57 1.82286 -0.590126 0
M  V30 15072 C 1372.76 0.0704285 -3.57331 0
M  V30 15073 C 1372.59 -1.257 -4.31775 0
M  V30 15074 C 1371.36 -1.82862 -4.71051 0
M  V30 15075 C 1373.56 -2.178 -4.65905 0
M  V30 15076 N 1371.54 -3.09442 -5.30206 0
M  V30 15077 C 1372.91 -3.28964 -5.25531 0
M  V30 15078 C 1374.97 -2.17597 -4.47835 0
M  V30 15079 C 1373.67 -4.40044 -5.68993 0
M  V30 15080 C 1375.7 -3.277 -4.92307 0
M  V30 15081 C 1375.06 -4.37584 -5.51996 0
M  V30 15082 H 1371.16 -0.065839 -0.779223 0
M  V30 15083 H 1373.74 -0.764099 -1.7908 0
M  V30 15084 H 1371.91 0.740038 -3.81285 0
M  V30 15085 H 1373.65 0.583588 -4.0047 0
M  V30 15086 H 1370.4 -1.36467 -4.53513 0
M  V30 15087 H 1370.83 -3.74004 -5.64314 0
M  V30 15088 H 1375.47 -1.33919 -4.01031 0
M  V30 15089 H 1373.19 -5.24471 -6.14781 0
M  V30 15090 H 1376.77 -3.2865 -4.80084 0
M  V30 15091 H 1375.65 -5.21375 -5.85779 0
M  V30 15092 N 1373.15 1.5451 -0.310553 0
M  V30 15093 C 1374.08 2.26827 0.554243 0
M  V30 15094 C 1375.07 1.27133 1.13009 0
M  V30 15095 O 1376.25 1.55923 1.15765 0
M  V30 15096 C 1373.38 3.01626 1.7216 0
M  V30 15097 C 1372.33 4.08547 1.27566 0
M  V30 15098 C 1371.66 4.71115 2.52893 0
M  V30 15099 C 1372.96 5.20766 0.399955 0
M  V30 15100 H 1374.65 2.9936 -0.0489475 0
M  V30 15101 H 1372.2 1.43978 -0.0249817 0
M  V30 15102 H 1374.15 3.50942 2.33276 0
M  V30 15103 H 1372.88 2.26688 2.35118 0
M  V30 15104 H 1371.54 3.60096 0.687499 0
M  V30 15105 H 1371.18 3.92805 3.14186 0
M  V30 15106 H 1370.88 5.43331 2.23752 0
M  V30 15107 H 1372.41 5.23198 3.14796 0
M  V30 15108 H 1373.82 5.65918 0.917054 0
M  V30 15109 H 1372.22 5.9976 0.2019 0
M  V30 15110 H 1373.29 4.81508 -0.572537 0
M  V30 15111 N 1374.63 0.0384594 1.57553 0
M  V30 15112 C 1375.86 -0.651613 1.96898 0
M  V30 15113 C 1376.28 -1.64328 0.915308 0
M  V30 15114 O 1375.64 -1.80883 -0.122824 0
M  V30 15115 C 1375.69 -1.32613 3.3533 0
M  V30 15116 O 1374.79 -2.44159 3.32355 0
M  V30 15117 H 1374.13 -0.170441 0.641752 0
M  V30 15118 H 1376.66 0.103086 2.0434 0
M  V30 15119 H 1376.67 -1.68076 3.71772 0
M  V30 15120 H 1375.35 -0.599275 4.1156 0
M  V30 15121 H 1373.93 -2.10738 3.07642 0
M  V30 15122 N 1376.11 -1.55841 -0.234795 0
M  V30 15123 C 1377.34 -1.82649 -0.982547 0
M  V30 15124 C 1377.76 -0.617097 -1.77689 0
M  V30 15125 O 1377.12 0.434022 -1.76028 0
M  V30 15126 C 1377.17 -3.07319 -1.88646 0
M  V30 15127 O 1376.27 -2.85084 -2.97995 0
M  V30 15128 H 1375.61 -0.60257 -0.278936 0
M  V30 15129 H 1378.14 -2.03041 -0.252117 0
M  V30 15130 H 1378.15 -3.37073 -2.29882 0
M  V30 15131 H 1376.83 -3.94978 -1.30251 0
M  V30 15132 H 1375.4 -2.66528 -2.60801 0
M  V30 15133 N 1377.59 0.500963 -1.49426 0
M  V30 15134 C 1378.54 1.59939 -1.62492 0
M  V30 15135 C 1379.52 1.53555 -0.480584 0
M  V30 15136 O 1380.72 1.61085 -0.733538 0
M  V30 15137 C 1377.84 2.98549 -1.6948 0
M  V30 15138 C 1376.93 3.09929 -2.89491 0
M  V30 15139 N 1377.32 2.91198 -4.13567 0
M  V30 15140 C 1375.62 3.41029 -2.87428 0
M  V30 15141 C 1376.32 3.06761 -4.94239 0
M  V30 15142 N 1375.3 3.35639 -4.27606 0
M  V30 15143 H 1379.1 1.44111 -2.56143 0
M  V30 15144 H 1376.61 0.707088 -1.46199 0
M  V30 15145 H 1378.61 3.7749 -1.76938 0
M  V30 15146 H 1377.27 3.15446 -0.769658 0
M  V30 15147 H 1378.28 2.67373 -4.43545 0
M  V30 15148 H 1374.96 3.64103 -2.04293 0
M  V30 15149 H 1376.35 2.96772 -6.02807 0
M  V30 15150 N 1379.07 1.38501 0.752011 0
M  V30 15151 C 1379.98 1.38094 1.8965 0
M  V30 15152 C 1380.99 0.277851 1.71767 0
M  V30 15153 O 1382.17 0.516536 1.94663 0
M  V30 15154 C 1379.23 1.2063 3.25037 0
M  V30 15155 C 1378.3 2.40758 3.55435 0
M  V30 15156 C 1377.53 2.24118 4.84362 0
M  V30 15157 O 1377.75 1.23571 5.56854 0
M  V30 15158 O 1376.69 3.12741 5.14273 0
M  V30 15159 H 1380.51 2.34532 1.92947 0
M  V30 15160 H 1378.1 1.19437 0.897504 0
M  V30 15161 H 1379.98 1.12957 4.05979 0
M  V30 15162 H 1378.65 0.272785 3.22549 0
M  V30 15163 H 1377.56 2.54006 2.74648 0
M  V30 15164 H 1378.89 3.32745 3.62686 0
M  V30 15165 N 1380.55 -0.980364 1.23396 0
M  V30 15166 C 1381.77 -1.76223 1.09363 0
M  V30 15167 C 1382.2 -1.84801 -0.350759 0
M  V30 15168 O 1381.55 -1.30966 -1.2537 0
M  V30 15169 C 1381.6 -3.16728 1.72383 0
M  V30 15170 O 1380.71 -4.00439 0.986002 0
M  V30 15171 H 1380.05 -0.542174 0.383332 0
M  V30 15172 H 1382.58 -1.23066 1.6345 0
M  V30 15173 H 1382.59 -3.67307 1.77623 0
M  V30 15174 H 1381.26 -3.098 2.77483 0
M  V30 15175 H 1379.84 -3.58946 1.01054 0
M  V30 15176 N 1382.02 -1.04567 -1.17913 0
M  V30 15177 C 1383.27 -0.762914 -1.8855 0
M  V30 15178 C 1383.62 0.702052 -1.79134 0
M  V30 15179 O 1382.92 1.50622 -1.18421 0
M  V30 15180 C 1383.11 -1.1699 -3.3771 0
M  V30 15181 C 1382.94 -2.67289 -3.61645 0
M  V30 15182 C 1381.71 -3.34508 -3.78724 0
M  V30 15183 C 1383.91 -3.6551 -3.61811 0
M  V30 15184 N 1381.89 -4.73736 -3.90445 0
M  V30 15185 C 1383.26 -4.90436 -3.79306 0
M  V30 15186 C 1385.32 -3.59068 -3.44927 0
M  V30 15187 C 1384.02 -6.09693 -3.81663 0
M  V30 15188 C 1386.05 -4.77758 -3.4857 0
M  V30 15189 C 1385.41 -6.01505 -3.66566 0
M  V30 15190 H 1381.51 -0.331303 -0.708352 0
M  V30 15191 H 1384.09 -1.33636 -1.41596 0
M  V30 15192 H 1382.26 -0.62448 -3.83347 0
M  V30 15193 H 1383.99 -0.837634 -3.95937 0
M  V30 15194 H 1380.75 -2.84911 -3.78316 0
M  V30 15195 H 1381.17 -5.46111 -4.00115 0
M  V30 15196 H 1385.81 -2.64366 -3.29955 0
M  V30 15197 H 1383.53 -7.04746 -3.95422 0
M  V30 15198 H 1387.12 -4.74421 -3.36773 0
M  V30 15199 H 1386 -6.9181 -3.69281 0
M  V30 15200 N 1383.5 1.34231 -0.825823 0
M  V30 15201 C 1384.75 1.97454 -0.411661 0
M  V30 15202 C 1385.06 1.66193 1.03147 0
M  V30 15203 O 1386.27 2.22929 1.54968 0
M  V30 15204 C 1384.73 3.53318 -0.685145 0
M  V30 15205 C 1384.33 3.9347 -2.14208 0
M  V30 15206 C 1386.08 4.23158 -0.337291 0
M  V30 15207 C 1383.98 5.42258 -2.3603 0
M  V30 15208 H 1382.91 0.738889 -0.150196 0
M  V30 15209 H 1385.57 1.53033 -1.01258 0
M  V30 15210 H 1383.95 3.95998 -0.0140178 0
M  V30 15211 H 1385.12 3.61888 -2.85261 0
M  V30 15212 H 1383.44 3.36575 -2.45165 0
M  V30 15213 H 1386.03 5.32558 -0.47813 0
M  V30 15214 H 1386.38 4.10053 0.718499 0
M  V30 15215 H 1386.91 3.85965 -0.963113 0
M  V30 15216 H 1383.65 5.60352 -3.40126 0
M  V30 15217 H 1383.17 5.75345 -1.69524 0
M  V30 15218 H 1384.85 6.08976 -2.18533 0
M  V30 15219 N 1384.98 0.581051 1.46498 0
M  V30 15220 C 1385.93 -0.174031 2.27335 0
M  V30 15221 C 1386.91 -0.863391 1.35773 0
M  V30 15222 O 1388.11 -0.75776 1.59959 0
M  V30 15223 C 1385.23 -1.18814 3.22084 0
M  V30 15224 C 1384.32 -0.500978 4.21131 0
M  V30 15225 N 1384.71 0.442495 5.03861 0
M  V30 15226 C 1383.01 -0.751932 4.39616 0
M  V30 15227 C 1383.71 0.843944 5.75545 0
M  V30 15228 N 1382.69 0.19346 5.43256 0
M  V30 15229 H 1386.49 0.551004 2.88689 0
M  V30 15230 H 1384 0.402722 1.57327 0
M  V30 15231 H 1386 -1.74325 3.78703 0
M  V30 15232 H 1384.66 -1.91401 2.62289 0
M  V30 15233 H 1385.67 0.817931 5.114 0
M  V30 15234 H 1382.35 -1.46451 3.90971 0
M  V30 15235 H 1383.74 1.62058 6.52063 0
M  V30 15236 N 1386.46 -1.54343 0.318742 0
M  V30 15237 C 1387.42 -2.22828 -0.536679 0
M  V30 15238 C 1388.42 -1.22013 -1.04735 0
M  V30 15239 O 1389.61 -1.46626 -0.940549 0
M  V30 15240 C 1386.74 -2.92857 -1.74493 0
M  V30 15241 H 1387.94 -2.99836 0.0619325 0
M  V30 15242 H 1385.49 -1.56144 0.0697687 0
M  V30 15243 H 1386.22 -2.19973 -2.3829 0
M  V30 15244 H 1386.01 -3.66779 -1.38621 0
M  V30 15245 H 1387.5 -3.45049 -2.35225 0
M  V30 15246 N 1387.94 -0.0468143 -1.5753 0
M  V30 15247 C 1388.87 0.927092 -2.14306 0
M  V30 15248 C 1389.85 1.32745 -1.06362 0
M  V30 15249 O 1391.03 1.40293 -1.34281 0
M  V30 15250 C 1388.16 2.20343 -2.68452 0
M  V30 15251 C 1387.12 1.94328 -3.81341 0
M  V30 15252 C 1386.44 3.28379 -4.21985 0
M  V30 15253 C 1387.74 1.26835 -5.06666 0
M  V30 15254 H 1389.44 0.454199 -2.95935 0
M  V30 15255 H 1386.98 0.217029 -1.42355 0
M  V30 15256 H 1388.93 2.8887 -3.0681 0
M  V30 15257 H 1387.66 2.6983 -1.84009 0
M  V30 15258 H 1386.32 1.28214 -3.43448 0
M  V30 15259 H 1385.97 3.75658 -3.34499 0
M  V30 15260 H 1385.67 3.11772 -4.98068 0
M  V30 15261 H 1387.19 3.98145 -4.6294 0
M  V30 15262 H 1388.6 1.85389 -5.42498 0
M  V30 15263 H 1387 1.20569 -5.87863 0
M  V30 15264 H 1388.07 0.243759 -4.84287 0
M  V30 15265 N 1389.41 1.55964 0.226527 0
M  V30 15266 C 1390.65 1.80518 0.958774 0
M  V30 15267 C 1391.02 0.619549 1.81729 0
M  V30 15268 O 1392.22 0.744294 2.5829 0
M  V30 15269 C 1390.49 3.09939 1.77968 0
M  V30 15270 S 1392.05 3.5579 2.56824 0
M  V30 15271 H 1388.87 0.633829 0.322151 0
M  V30 15272 H 1391.47 1.94203 0.224786 0
M  V30 15273 H 1390.17 3.94277 1.13903 0
M  V30 15274 H 1389.7 2.99047 2.55605 0
M  V30 15275 H 1391.72 3.18734 3.80293 0
M  V30 15276 N 1390.89 -0.493031 1.4969 0
M  V30 15277 C 1391.82 -1.61058 1.63074 0
M  V30 15278 C 1392.84 -1.54504 0.513069 0
M  V30 15279 O 1394.03 -1.60291 0.785431 0
M  V30 15280 C 1391.13 -2.99877 1.57883 0
M  V30 15281 C 1390.3 -3.31531 2.85317 0
M  V30 15282 C 1389.36 -4.49799 2.7307 0
M  V30 15283 O 1388.38 -4.51189 3.47012 0
M  V30 15284 N 1389.59 -5.50182 1.85148 0
M  V30 15285 H 1392.35 -1.5 2.59461 0
M  V30 15286 H 1389.91 -0.681057 1.46878 0
M  V30 15287 H 1391.9 -3.76928 1.47333 0
M  V30 15288 H 1390.47 -3.04817 0.693218 0
M  V30 15289 H 1389.69 -2.433 3.10159 0
M  V30 15290 H 1390.98 -3.49481 3.69784 0
M  V30 15291 H 1390.38 -5.51865 1.24345 0
M  V30 15292 H 1388.94 -6.26305 1.80516 0
M  V30 15293 N 1392.37 -1.38898 -0.744656 0
M  V30 15294 C 1393.28 -1.39098 -1.88915 0
M  V30 15295 C 1394.3 -0.286956 -1.71617 0
M  V30 15296 O 1395.47 -0.526852 -1.94387 0
M  V30 15297 C 1392.54 -1.22352 -3.24393 0
M  V30 15298 C 1391.6 -2.4264 -3.54153 0
M  V30 15299 C 1390.83 -2.26683 -4.83167 0
M  V30 15300 O 1391.05 -1.26523 -5.56191 0
M  V30 15301 O 1389.99 -3.15464 -5.12607 0
M  V30 15302 H 1393.81 -2.35551 -1.91701 0
M  V30 15303 H 1391.4 -1.19911 -0.891158 0
M  V30 15304 H 1393.28 -1.15109 -4.05374 0
M  V30 15305 H 1391.96 -0.289886 -3.22399 0
M  V30 15306 H 1390.86 -2.55459 -2.73298 0
M  V30 15307 H 1392.2 -3.34664 -3.60917 0
M  V30 15308 N 1393.85 0.973806 -1.23914 0
M  V30 15309 C 1394.81 2.04892 -1.02723 0
M  V30 15310 C 1395.81 1.60795 0.0132972 0
M  V30 15311 O 1397 1.72714 -0.227084 0
M  V30 15312 C 1394.13 3.36341 -0.555667 0
M  V30 15313 H 1395.33 2.25124 -1.98139 0
M  V30 15314 H 1392.88 1.14817 -1.06051 0
M  V30 15315 H 1393.61 3.21799 0.40197 0
M  V30 15316 H 1393.4 3.69689 -1.30661 0
M  V30 15317 H 1394.89 4.15398 -0.428248 0
M  V30 15318 N 1395.33 1.05191 1.17357 0
M  V30 15319 C 1396.57 0.760479 1.87246 0
M  V30 15320 C 1396.9 -0.714618 1.81434 0
M  V30 15321 O 1396.17 -1.51636 1.24029 0
M  V30 15322 H 1394.75 0.278317 0.693216 0
M  V30 15323 H 1397.41 1.33106 1.42369 0
M  V30 15324 H 1396.5 1.07542 2.92987 0
M  V30 15325 N 1396.8 -1.33791 0.83293 0
M  V30 15326 C 1397.75 -2.31249 0.250357 0
M  V30 15327 C 1398.75 -1.57865 -0.614403 0
M  V30 15328 O 1399.95 -1.72782 -0.504627 0
M  V30 15329 H 1396.33 -0.749421 0.0622268 0
M  V30 15330 H 1398.3 -2.77899 1.08697 0
M  V30 15331 C 1397.05 -3.43082 -0.564783 0
M  V30 15332 H 1396.37 -3.99696 0.0913189 0
M  V30 15333 H 1397.81 -4.13486 -0.938351 0
M  V30 15334 C 1396.27 -2.88414 -1.74124 0
M  V30 15335 O 1396.8 -2.84113 -2.83976 0
M  V30 15336 N 1395.01 -2.45101 -1.56121 0
M  V30 15337 H 1394.55 -2.48799 -0.667607 0
M  V30 15338 H 1394.51 -2.08875 -2.34986 0
M  V30 15339 N 1398.28 -0.588812 -1.46187 0
M  V30 15340 C 1399.69 -0.163897 -1.85979 0
M  V30 15341 C 1400.04 1.27458 -1.49161 0
M  V30 15342 O 1399.17 1.96365 -0.909372 0
M  V30 15343 C 1399.76 -0.29067 -3.37551 0
M  V30 15344 C 1398.32 0.0794165 -3.76316 0
M  V30 15345 C 1397.47 -0.623807 -2.70192 0
M  V30 15346 H 1400.42 -0.79666 -1.37255 0
M  V30 15347 H 1400.44 0.482316 -3.77431 0
M  V30 15348 H 1399.95 -1.33771 -3.64317 0
M  V30 15349 H 1398.06 1.12636 -3.55168 0
M  V30 15350 H 1398.17 -0.301153 -4.78153 0
M  V30 15351 H 1396.53 -0.0634124 -2.54621 0
M  V30 15352 H 1397.32 -1.67261 -2.99797 0
M  V30 15353 N 1399.76 1.54172 -0.326923 0
M  V30 15354 C 1401.04 1.92812 0.329078 0
M  V30 15355 C 1401.42 1.25687 1.69605 0
M  V30 15356 O 1400.77 0.401779 2.2494 0
M  V30 15357 C 1400.98 3.46488 0.417949 0
M  V30 15358 C 1402.32 4.19174 0.67665 0
M  V30 15359 O 1403.35 3.52663 0.500735 0
M  V30 15360 O 1402.21 5.36968 1.01625 0
M  V30 15361 H 1399.3 0.805214 0.188573 0
M  V30 15362 H 1401.85 1.65462 -0.376884 0
M  V30 15363 H 1400.62 3.87528 -0.541986 0
M  V30 15364 H 1400.24 3.79954 1.17136 0
M  V30 15365 N 1401.24 0.0551678 1.57503 0
M  V30 15366 C 1402.17 -0.915714 2.14795 0
M  V30 15367 C 1403.15 -1.32179 1.07065 0
M  V30 15368 O 1404.33 -1.39579 1.35023 0
M  V30 15369 C 1401.46 -2.18916 2.69616 0
M  V30 15370 C 1400.42 -1.92303 3.82366 0
M  V30 15371 C 1399.74 -3.26136 4.23721 0
M  V30 15372 C 1401.04 -1.24146 5.07331 0
M  V30 15373 H 1402.74 -0.438499 2.96171 0
M  V30 15374 H 1400.28 -0.209477 1.42468 0
M  V30 15375 H 1402.24 -2.87239 3.08337 0
M  V30 15376 H 1400.96 -2.6885 1.85437 0
M  V30 15377 H 1399.62 -1.26391 3.44123 0
M  V30 15378 H 1399.27 -3.73879 3.36487 0
M  V30 15379 H 1398.97 -3.09126 4.99715 0
M  V30 15380 H 1400.49 -3.95684 4.65045 0
M  V30 15381 H 1401.91 -1.8251 5.43473 0
M  V30 15382 H 1400.3 -1.17449 5.88494 0
M  V30 15383 H 1401.37 -0.218073 4.84409 0
M  V30 15384 N 1402.72 -1.56081 -0.218252 0
M  V30 15385 C 1403.96 -1.78893 -0.940296 0
M  V30 15386 C 1404.29 -0.62425 -1.84738 0
M  V30 15387 O 1403.56 0.358686 -1.92588 0
M  V30 15388 H 1402.14 -0.659828 -0.350193 0
M  V30 15389 H 1404.8 -1.93546 -0.229316 0
M  V30 15390 H 1403.89 -2.71167 -1.54516 0
M  V30 15391 N 1404.2 0.485086 -1.49949 0
M  V30 15392 C 1405.11 1.61089 -1.70551 0
M  V30 15393 C 1406.12 1.63752 -0.588333 0
M  V30 15394 O 1407.3 1.81879 -0.86498 0
M  V30 15395 C 1404.36 2.97382 -1.78227 0
M  V30 15396 C 1403.42 3.05219 -3.01894 0
M  V30 15397 C 1402.66 4.35011 -3.09195 0
M  V30 15398 O 1402.88 5.24722 -2.23658 0
M  V30 15399 O 1401.81 4.48151 -4.01802 0
M  V30 15400 H 1405.64 1.46633 -2.65956 0
M  V30 15401 H 1403.22 0.663091 -1.33879 0
M  V30 15402 H 1405.11 3.78356 -1.85538 0
M  V30 15403 H 1403.78 3.12066 -0.860043 0
M  V30 15404 H 1402.69 2.23373 -3.00092 0
M  V30 15405 H 1404.02 2.95467 -3.93649 0
M  V30 15406 N 1405.67 1.39291 0.737279 0
M  V30 15407 C 1407.09 1.20845 1.04253 0
M  V30 15408 C 1407.29 0.0684513 2.01384 0
M  V30 15409 O 1406.35 -0.580615 2.45734 0
M  V30 15410 C 1407.66 2.54158 1.60699 0
M  V30 15411 C 1409.21 2.60983 1.72791 0
M  V30 15412 C 1409.68 3.94511 2.32647 0
M  V30 15413 N 1411.17 3.96138 2.4006 0
M  V30 15414 C 1411.91 4.96229 2.87306 0
M  V30 15415 N 1411.4 6.06716 3.34465 0
M  V30 15416 N 1413.2 4.83609 2.86494 0
M  V30 15417 H 1405.35 2.12196 0.0930416 0
M  V30 15418 H 1407.61 0.942289 0.103899 0
M  V30 15419 H 1407.32 3.38118 0.96795 0
M  V30 15420 H 1407.19 2.73715 2.59538 0
M  V30 15421 H 1409.58 1.77408 2.35818 0
M  V30 15422 H 1409.66 2.45278 0.726118 0
M  V30 15423 H 1409.3 4.78516 1.70249 0
M  V30 15424 H 1409.23 4.07536 3.33499 0
M  V30 15425 H 1411.72 3.16344 2.06725 0
M  V30 15426 H 1412.04 6.79002 3.6902 0
M  V30 15427 H 1410.38 6.10313 3.3248 0
M  V30 15428 H 1413.57 3.96396 2.48973 0
M  V30 15429 H 1413.75 5.6176 3.23001 0
M  V30 15430 N 1407.15 -0.967221 1.24429 0
M  V30 15431 C 1408.38 -1.7452 1.11133 0
M  V30 15432 C 1408.79 -1.85785 -0.336087 0
M  V30 15433 O 1408.15 -1.34652 -1.23188 0
M  V30 15434 C 1408.2 -3.16544 1.74591 0
M  V30 15435 O 1407.92 -3.05845 3.13673 0
M  V30 15436 C 1409.42 -4.10677 1.6691 0
M  V30 15437 H 1406.64 -0.547267 0.388253 0
M  V30 15438 H 1409.19 -1.2143 1.64545 0
M  V30 15439 H 1407.34 -3.66618 1.2518 0
M  V30 15440 H 1407.76 -3.95346 3.44676 0
M  V30 15441 H 1409.23 -5.07987 2.15992 0
M  V30 15442 H 1409.71 -4.34652 0.630411 0
M  V30 15443 H 1410.31 -3.66514 2.15749 0
M  V30 15444 N 1408.63 -1.05812 -1.16797 0
M  V30 15445 C 1409.56 -0.685778 -2.23202 0
M  V30 15446 C 1410.54 0.319428 -1.67074 0
M  V30 15447 O 1411.73 0.195635 -1.93212 0
M  V30 15448 C 1408.86 -0.0662958 -3.47237 0
M  V30 15449 C 1407.81 -0.996943 -4.16227 0
M  V30 15450 C 1407.14 -0.241015 -5.34157 0
M  V30 15451 C 1408.44 -2.32384 -4.67755 0
M  V30 15452 H 1410.13 -1.57535 -2.54604 0
M  V30 15453 H 1407.68 -0.758909 -1.22379 0
M  V30 15454 H 1409.63 0.206024 -4.20896 0
M  V30 15455 H 1408.35 0.858263 -3.15121 0
M  V30 15456 H 1407.01 -1.25393 -3.44488 0
M  V30 15457 H 1406.66 0.686508 -4.98293 0
M  V30 15458 H 1406.36 -0.861188 -5.81255 0
M  V30 15459 H 1407.88 0.0238739 -6.10595 0
M  V30 15460 H 1409.3 -2.11099 -5.3302 0
M  V30 15461 H 1407.69 -2.89855 -5.25456 0
M  V30 15462 H 1408.76 -2.958 -3.84227 0
M  V30 15463 N 1410.11 1.33347 -0.840014 0
M  V30 15464 C 1411.02 2.32965 -0.276527 0
M  V30 15465 C 1412.03 1.634 0.598037 0
M  V30 15466 O 1413.21 1.95046 0.501888 0
M  V30 15467 C 1410.27 3.42498 0.53816 0
M  V30 15468 C 1409.34 4.27781 -0.360814 0
M  V30 15469 C 1408.57 5.32083 0.415085 0
M  V30 15470 O 1408.79 5.46115 1.64666 0
M  V30 15471 O 1407.73 6.01528 -0.211503 0
M  V30 15472 H 1411.55 2.83022 -1.10147 0
M  V30 15473 H 1409.14 1.3671 -0.602566 0
M  V30 15474 H 1411.02 4.09336 1.00108 0
M  V30 15475 H 1409.69 2.94655 1.34015 0
M  V30 15476 H 1408.6 3.63805 -0.871598 0
M  V30 15477 H 1409.93 4.7911 -1.1276 0
M  V30 15478 N 1411.59 0.596556 1.45873 0
M  V30 15479 C 1412.81 0.0916466 2.07197 0
M  V30 15480 C 1413.24 -1.21004 1.44012 0
M  V30 15481 O 1412.59 -1.73415 0.528844 0
M  V30 15482 C 1412.64 -0.0461457 3.6057 0
M  V30 15483 O 1411.75 -1.09919 3.97481 0
M  V30 15484 H 1411.09 0.0690655 0.660398 0
M  V30 15485 H 1413.62 0.823434 1.87299 0
M  V30 15486 H 1413.63 -0.2479 4.07246 0
M  V30 15487 H 1412.3 0.904381 4.05948 0
M  V30 15488 H 1410.88 -0.874788 3.62494 0
M  V30 15489 N 1413.06 -1.53996 0.335095 0
M  V30 15490 C 1414.31 -2.00772 -0.263997 0
M  V30 15491 C 1414.64 -1.22309 -1.51231 0
M  V30 15492 O 1413.89 -0.296427 -1.93442 0
M  V30 15493 C 1414.19 -3.51769 -0.631907 0
M  V30 15494 C 1413.86 -4.47908 0.518553 0
M  V30 15495 C 1412.52 -4.73912 0.834297 0
M  V30 15496 C 1414.87 -5.04964 1.29078 0
M  V30 15497 C 1412.2 -5.54228 1.92478 0
M  V30 15498 C 1414.55 -5.86469 2.37144 0
M  V30 15499 C 1413.22 -6.1077 2.69288 0
M  V30 15500 H 1412.49 -0.734676 -0.0966033 0
M  V30 15501 H 1415.13 -1.85862 0.46126 0
M  V30 15502 H 1413.44 -3.64466 -1.43776 0
M  V30 15503 H 1415.14 -3.85412 -1.10719 0
M  V30 15504 H 1411.73 -4.27796 0.262392 0
M  V30 15505 H 1415.91 -4.84846 1.0601 0
M  V30 15506 H 1411.17 -5.71285 2.17816 0
M  V30 15507 H 1415.34 -6.29695 2.97417 0
M  V30 15508 H 1412.97 -6.72792 3.53913 0
M  V30 15509 N 1414.54 -0.0635198 -1.57472 0
M  V30 15510 C 1415.77 0.616735 -1.97494 0
M  V30 15511 C 1416.18 1.63646 -0.941568 0
M  V30 15512 O 1415.54 1.82355 0.0727768 0
M  V30 15513 C 1415.59 1.29268 -3.37597 0
M  V30 15514 O 1415.31 0.313781 -4.36975 0
M  V30 15515 C 1416.81 2.06154 -3.92448 0
M  V30 15516 H 1414.03 0.167753 -0.649692 0
M  V30 15517 H 1416.58 -0.133475 -2.04064 0
M  V30 15518 H 1414.73 1.99404 -3.3214 0
M  V30 15519 H 1415.15 0.797723 -5.18398 0
M  V30 15520 H 1416.62 2.48853 -4.92723 0
M  V30 15521 H 1417.1 2.91474 -3.28541 0
M  V30 15522 H 1417.7 1.40903 -4.01281 0
M  V30 15523 N 1416.02 1.56195 0.209972 0
M  V30 15524 C 1417.44 1.49446 0.56018 0
M  V30 15525 C 1417.64 0.760799 1.86585 0
M  V30 15526 O 1416.69 0.305201 2.50649 0
M  V30 15527 C 1418 2.94054 0.628687 0
M  V30 15528 C 1419.55 3.04641 0.718531 0
M  V30 15529 C 1420.03 4.50631 0.81828 0
M  V30 15530 N 1421.52 4.54721 0.8822 0
M  V30 15531 C 1422.25 5.64976 0.979292 0
M  V30 15532 N 1421.75 6.84955 1.03961 0
M  V30 15533 N 1423.54 5.52854 1.01533 0
M  V30 15534 H 1415.69 2.02316 -0.646674 0
M  V30 15535 H 1417.96 0.920063 -0.228446 0
M  V30 15536 H 1417.66 3.50728 -0.261324 0
M  V30 15537 H 1417.54 3.46592 1.48842 0
M  V30 15538 H 1419.92 2.48026 1.59898 0
M  V30 15539 H 1420 2.55254 -0.167102 0
M  V30 15540 H 1419.65 5.07867 -0.0577557 0
M  V30 15541 H 1419.58 4.97736 1.7195 0
M  V30 15542 H 1422.07 3.68322 0.845433 0
M  V30 15543 H 1422.38 7.64732 1.11379 0
M  V30 15544 H 1420.73 6.87643 1.00854 0
M  V30 15545 H 1423.92 4.58046 0.96494 0
M  V30 15546 H 1424.09 6.38809 1.08754 0
M  V30 15547 N 1417.5 -0.477127 1.50204 0
M  V30 15548 C 1418.43 -1.58405 1.71552 0
M  V30 15549 C 1419.41 -1.60463 0.564413 0
M  V30 15550 O 1420.59 -1.76826 0.802893 0
M  V30 15551 C 1417.72 -2.96765 1.8041 0
M  V30 15552 C 1416.68 -3.09573 2.95548 0
M  V30 15553 C 1416 -4.49522 2.89542 0
M  V30 15554 C 1417.3 -2.87356 4.36147 0
M  V30 15555 H 1419 -1.40792 2.64231 0
M  V30 15556 H 1416.54 -0.675886 1.27153 0
M  V30 15557 H 1418.5 -3.74125 1.9393 0
M  V30 15558 H 1417.22 -3.1552 0.843489 0
M  V30 15559 H 1415.88 -2.34645 2.81669 0
M  V30 15560 H 1415.53 -4.65186 1.91339 0
M  V30 15561 H 1415.23 -4.59028 3.66834 0
M  V30 15562 H 1416.75 -5.28909 3.05102 0
M  V30 15563 H 1418.17 -3.54469 4.50583 0
M  V30 15564 H 1416.56 -3.08313 5.14843 0
M  V30 15565 H 1417.63 -1.83264 4.48935 0
M  V30 15566 N 1418.98 -1.3968 -0.729882 0
M  V30 15567 C 1419.91 -1.41549 -1.85704 0
M  V30 15568 C 1420.89 -0.278186 -1.6781 0
M  V30 15569 O 1422.07 -0.484749 -1.88053 0
M  V30 15570 C 1419.2 -1.26327 -3.2351 0
M  V30 15571 C 1418.16 -2.37511 -3.56051 0
M  V30 15572 C 1417.48 -2.07375 -4.92849 0
M  V30 15573 C 1418.78 -3.79833 -3.58502 0
M  V30 15574 H 1420.48 -2.35877 -1.84398 0
M  V30 15575 H 1418.02 -1.13536 -0.885747 0
M  V30 15576 H 1419.98 -1.26254 -4.02042 0
M  V30 15577 H 1418.7 -0.284697 -3.25357 0
M  V30 15578 H 1417.36 -2.36809 -2.79852 0
M  V30 15579 H 1417.01 -1.07943 -4.91281 0
M  V30 15580 H 1416.71 -2.81855 -5.15588 0
M  V30 15581 H 1418.23 -2.08961 -5.73731 0
M  V30 15582 H 1419.64 -3.82436 -4.27101 0
M  V30 15583 H 1418.04 -4.53715 -3.92763 0
M  V30 15584 H 1419.11 -4.10443 -2.58195 0
M  V30 15585 N 1420.45 0.960609 -1.2494 0
M  V30 15586 C 1421.36 2.0902 -1.06527 0
M  V30 15587 C 1422.38 1.74 -0.00406641 0
M  V30 15588 O 1423.56 2.00367 -0.203744 0
M  V30 15589 C 1420.62 3.39971 -0.679736 0
M  V30 15590 C 1419.68 3.88895 -1.81821 0
M  V30 15591 C 1418.92 5.13597 -1.45098 0
M  V30 15592 O 1419.14 5.69362 -0.343954 0
M  V30 15593 O 1418.07 5.57083 -2.27909 0
M  V30 15594 H 1421.9 2.27453 -2.01243 0
M  V30 15595 H 1419.48 1.07429 -1.03824 0
M  V30 15596 H 1421.37 4.18696 -0.47658 0
M  V30 15597 H 1420.04 3.22822 0.238231 0
M  V30 15598 H 1418.95 3.11201 -2.07617 0
M  V30 15599 H 1420.28 4.10533 -2.7152 0
M  V30 15600 N 1421.93 1.0643 1.16234 0
M  V30 15601 C 1423.21 0.695256 1.82827 0
M  V30 15602 C 1423.59 -0.823242 1.94386 0
M  V30 15603 O 1422.94 -1.73406 1.48804 0
M  V30 15604 C 1423.15 1.3988 3.19741 0
M  V30 15605 C 1424.5 1.54489 3.95498 0
M  V30 15606 O 1425.52 1.35882 3.29264 0
M  V30 15607 O 1424.38 1.85027 5.14225 0
M  V30 15608 H 1421.47 0.246285 0.789476 0
M  V30 15609 H 1424.02 1.16466 1.23426 0
M  V30 15610 H 1422.79 2.43419 3.06371 0
M  V30 15611 H 1422.41 0.91957 3.8682 0
M  V30 15612 N 1423.41 -1.329 0.847073 0
M  V30 15613 C 1424.82 -1.79813 0.502394 0
M  V30 15614 C 1425.17 -1.70017 -0.979218 0
M  V30 15615 O 1424.3 -1.25427 -1.76344 0
M  V30 15616 C 1424.89 -3.26485 0.905154 0
M  V30 15617 C 1423.45 -3.71383 0.612489 0
M  V30 15618 C 1422.6 -2.54157 1.10903 0
M  V30 15619 H 1425.55 -1.20306 1.035 0
M  V30 15620 H 1425.57 -3.79872 0.218476 0
M  V30 15621 H 1425.08 -3.33583 1.98353 0
M  V30 15622 H 1423.18 -3.69806 -0.45548 0
M  V30 15623 H 1423.3 -4.64507 1.17347 0
M  V30 15624 H 1421.66 -2.49134 0.529576 0
M  V30 15625 H 1422.44 -2.64013 2.19435 0
M  V30 15626 N 1424.89 -0.604284 -1.45555 0
M  V30 15627 C 1426.12 -0.104452 -2.06636 0
M  V30 15628 C 1426.53 1.20976 -1.44949 0
M  V30 15629 O 1425.89 1.73616 -0.562468 0
M  V30 15630 C 1425.94 0.0451646 -3.61472 0
M  V30 15631 O 1425.66 -1.21705 -4.20856 0
M  V30 15632 C 1427.16 0.57684 -4.39531 0
M  V30 15633 H 1424.38 -0.067326 -0.667614 0
M  V30 15634 H 1426.93 -0.831079 -1.86851 0
M  V30 15635 H 1425.08 0.722104 -3.80611 0
M  V30 15636 H 1425.49 -1.04462 -5.13992 0
M  V30 15637 H 1426.97 0.630627 -5.48386 0
M  V30 15638 H 1427.45 1.59842 -4.09081 0
M  V30 15639 H 1428.05 -0.0659444 -4.25249 0
M  V30 15640 N 1426.37 1.53816 -0.343257 0
M  V30 15641 C 1427.59 2.05326 0.254744 0
M  V30 15642 C 1428.01 1.21824 1.44237 0
M  V30 15643 O 1427.37 0.253507 1.80731 0
M  V30 15644 C 1427.42 3.55235 0.670075 0
M  V30 15645 O 1427.14 4.35568 -0.470322 0
M  V30 15646 C 1428.64 4.22915 1.32882 0
M  V30 15647 H 1425.86 0.669191 0.0492324 0
M  V30 15648 H 1428.4 1.98415 -0.495159 0
M  V30 15649 H 1426.56 3.6237 1.36992 0
M  V30 15650 H 1426.97 5.24315 -0.139303 0
M  V30 15651 H 1428.45 5.29197 1.57019 0
M  V30 15652 H 1428.92 3.75244 2.28229 0
M  V30 15653 H 1429.53 4.19973 0.67102 0
M  V30 15654 N 1427.84 0.0718701 1.57436 0
M  V30 15655 C 1428.77 -0.89288 2.15754 0
M  V30 15656 C 1429.76 -1.31036 1.0846 0
M  V30 15657 O 1430.94 -1.38139 1.36496 0
M  V30 15658 C 1428.07 -2.16044 2.71923 0
M  V30 15659 C 1427.02 -1.88236 3.84384 0
M  V30 15660 C 1426.35 -3.21624 4.27156 0
M  V30 15661 C 1427.65 -1.18758 5.0862 0
M  V30 15662 H 1429.34 -0.407061 2.9662 0
M  V30 15663 H 1426.89 -0.194354 1.42682 0
M  V30 15664 H 1428.84 -2.83952 3.11366 0
M  V30 15665 H 1427.57 -2.66868 1.88279 0
M  V30 15666 H 1426.23 -1.22734 3.45445 0
M  V30 15667 H 1425.87 -3.70289 3.40433 0
M  V30 15668 H 1425.57 -3.03809 5.02965 0
M  V30 15669 H 1427.1 -3.90729 4.69215 0
M  V30 15670 H 1428.51 -1.76735 5.45378 0
M  V30 15671 H 1426.91 -1.11201 5.89707 0
M  V30 15672 H 1427.98 -0.166682 4.84613 0
M  V30 15673 N 1429.32 -1.56304 -0.201686 0
M  V30 15674 C 1430.27 -1.94901 -1.26949 0
M  V30 15675 C 1431.26 -0.833574 -1.47472 0
M  V30 15676 O 1432.47 -1.01854 -1.48411 0
M  V30 15677 H 1428.85 -0.619663 -0.426053 0
M  V30 15678 H 1430.82 -2.83964 -0.9169 0
M  V30 15679 C 1429.57 -2.29913 -2.60835 0
M  V30 15680 H 1428.89 -3.15268 -2.45858 0
M  V30 15681 H 1430.33 -2.60789 -3.34313 0
M  V30 15682 C 1428.79 -1.13136 -3.17335 0
M  V30 15683 O 1429.32 -0.402915 -3.99674 0
M  V30 15684 N 1427.52 -0.909912 -2.75987 0
M  V30 15685 H 1427.07 -1.50402 -2.09134 0
M  V30 15686 H 1427.03 -0.130348 -3.1413 0
M  V30 15687 N 1430.8 0.469154 -1.50455 0
M  V30 15688 C 1432.05 1.21788 -1.60781 0
M  V30 15689 C 1432.36 1.93054 -0.314576 0
M  V30 15690 O 1433.57 2.69873 -0.296773 0
M  V30 15691 C 1432.02 2.21305 -2.83817 0
M  V30 15692 C 1431.63 1.55833 -4.20024 0
M  V30 15693 C 1433.38 2.96808 -3.03489 0
M  V30 15694 C 1431.28 2.53648 -5.34244 0
M  V30 15695 H 1430.21 0.45827 -0.598752 0
M  V30 15696 H 1432.86 0.488159 -1.76888 0
M  V30 15697 H 1431.25 2.97577 -2.61273 0
M  V30 15698 H 1432.42 0.853371 -4.52829 0
M  V30 15699 H 1430.74 0.926046 -4.05972 0
M  V30 15700 H 1433.33 3.70017 -3.85994 0
M  V30 15701 H 1433.68 3.56307 -2.15293 0
M  V30 15702 H 1434.21 2.27648 -3.26223 0
M  V30 15703 H 1430.95 1.98885 -6.246 0
M  V30 15704 H 1430.47 3.22291 -5.05854 0
M  V30 15705 H 1432.15 3.15438 -5.64897 0
M  V30 15706 N 1432.28 1.40065 0.722464 0
M  V30 15707 C 1433.69 1.21944 1.02965 0
M  V30 15708 C 1433.89 0.0898069 2.013 0
M  V30 15709 O 1432.95 -0.554519 2.46336 0
M  V30 15710 C 1434.26 2.55848 1.57995 0
M  V30 15711 C 1435.81 2.62801 1.70013 0
M  V30 15712 C 1436.29 3.96957 2.2845 0
M  V30 15713 N 1437.78 3.98662 2.35844 0
M  V30 15714 C 1438.51 4.99248 2.82026 0
M  V30 15715 N 1438.01 6.1023 3.28012 0
M  V30 15716 N 1439.8 4.8662 2.81349 0
M  V30 15717 H 1431.95 2.12283 0.0705301 0
M  V30 15718 H 1434.22 0.943338 0.0938991 0
M  V30 15719 H 1433.92 3.39125 0.932034 0
M  V30 15720 H 1433.8 2.76452 2.5662 0
M  V30 15721 H 1436.18 1.799 2.33923 0
M  V30 15722 H 1436.26 2.46034 0.700062 0
M  V30 15723 H 1435.91 4.80295 1.65164 0
M  V30 15724 H 1435.84 4.1105 3.29158 0
M  V30 15725 H 1438.33 3.18518 2.03358 0
M  V30 15726 H 1438.64 6.82878 3.61797 0
M  V30 15727 H 1436.99 6.13805 3.25988 0
M  V30 15728 H 1440.18 3.99015 2.44755 0
M  V30 15729 H 1440.35 5.65155 3.17024 0
M  V30 15730 N 1433.76 -0.95397 1.25448 0
M  V30 15731 C 1435.01 -1.6953 1.10018 0
M  V30 15732 C 1435.33 -1.9166 -0.359385 0
M  V30 15733 O 1434.6 -1.50417 -1.25506 0
M  V30 15734 H 1433.18 -0.628238 0.404136 0
M  V30 15735 H 1435.84 -1.14691 1.57581 0
M  V30 15736 H 1434.93 -2.67427 1.60901 0
M  V30 15737 N 1435.24 -1.07045 -1.15668 0
M  V30 15738 C 1436.48 -0.790172 -1.86013 0
M  V30 15739 C 1436.8 0.685663 -1.82548 0
M  V30 15740 O 1436.07 1.49644 -1.26426 0
M  V30 15741 H 1434.65 -0.28931 -0.688701 0
M  V30 15742 H 1437.32 -1.35354 -1.40233 0
M  V30 15743 H 1436.41 -1.1219 -2.91239 0
M  V30 15744 N 1436.71 1.32449 -0.85411 0
M  V30 15745 C 1437.68 2.27183 -0.303377 0
M  V30 15746 C 1438.68 1.51582 0.536622 0
M  V30 15747 O 1439.87 1.70684 0.348211 0
M  V30 15748 C 1437 3.36086 0.570852 0
M  V30 15749 H 1438.19 2.77408 -1.1395 0
M  V30 15750 H 1435.74 1.43111 -0.628402 0
M  V30 15751 H 1436.48 2.91128 1.42881 0
M  V30 15752 H 1436.26 3.92088 -0.030399 0
M  V30 15753 H 1437.75 4.06675 0.948972 0
M  V30 15754 N 1438.19 0.611994 1.45232 0
M  V30 15755 C 1439.42 0.113618 2.07089 0
M  V30 15756 C 1439.84 -1.1947 1.45288 0
M  V30 15757 O 1439.2 -1.72845 0.547207 0
M  V30 15758 C 1439.25 -0.00789978 3.60599 0
M  V30 15759 O 1438.35 -1.05697 3.98625 0
M  V30 15760 H 1437.69 0.076066 0.659629 0
M  V30 15761 H 1440.22 0.843253 1.86415 0
M  V30 15762 H 1440.23 -0.204692 4.07486 0
M  V30 15763 H 1438.91 0.947386 4.04966 0
M  V30 15764 H 1437.48 -0.836291 3.63401 0
M  V30 15765 N 1439.67 -1.53632 0.351409 0
M  V30 15766 C 1441.08 -1.86241 -0.130834 0
M  V30 15767 C 1441.43 -1.27243 -1.49344 0
M  V30 15768 O 1440.56 -0.589006 -2.0823 0
M  V30 15769 C 1441.15 -3.37919 -0.244179 0
M  V30 15770 C 1439.71 -3.70377 -0.670662 0
M  V30 15771 C 1438.86 -2.76643 0.190813 0
M  V30 15772 H 1441.81 -1.48083 0.570724 0
M  V30 15773 H 1441.83 -3.65137 -1.07029 0
M  V30 15774 H 1441.34 -3.8083 0.747688 0
M  V30 15775 H 1439.44 -3.33015 -1.67127 0
M  V30 15776 H 1439.56 -4.76934 -0.455102 0
M  V30 15777 H 1437.92 -2.52446 -0.338092 0
M  V30 15778 H 1438.7 -3.22385 1.17996 0
M  V30 15779 N 1441.15 -0.0802183 -1.57396 0
M  V30 15780 C 1442.38 0.595754 -1.98137 0
M  V30 15781 C 1442.79 1.62638 -0.958871 0
M  V30 15782 O 1442.15 1.82422 0.0534316 0
M  V30 15783 C 1442.2 1.2568 -3.38949 0
M  V30 15784 O 1441.92 0.267417 -4.37283 0
M  V30 15785 C 1443.42 2.0198 -3.94612 0
M  V30 15786 H 1440.64 0.160853 -0.651435 0
M  V30 15787 H 1443.18 -0.155111 -2.03911 0
M  V30 15788 H 1441.34 1.9587 -3.34236 0
M  V30 15789 H 1441.75 0.742695 -5.19215 0
M  V30 15790 H 1443.23 2.43613 -4.95335 0
M  V30 15791 H 1443.7 2.87973 -3.31614 0
M  V30 15792 H 1444.31 1.36639 -4.02753 0
M  V30 15793 N 1442.63 1.56409 0.193394 0
M  V30 15794 C 1443.87 1.79919 0.911712 0
M  V30 15795 C 1444.19 0.653729 1.84352 0
M  V30 15796 O 1445.39 0.773172 2.60258 0
M  V30 15797 C 1443.85 3.18726 1.67158 0
M  V30 15798 C 1443.46 4.41078 0.784512 0
M  V30 15799 C 1445.2 3.51544 2.37944 0
M  V30 15800 C 1443.11 5.70907 1.54335 0
M  V30 15801 H 1442.04 0.670864 0.344177 0
M  V30 15802 H 1444.69 1.82757 0.164967 0
M  V30 15803 H 1443.07 3.10142 2.46227 0
M  V30 15804 H 1444.25 4.60789 0.032356 0
M  V30 15805 H 1442.56 4.15978 0.187407 0
M  V30 15806 H 1445.16 4.45779 2.95271 0
M  V30 15807 H 1445.5 2.75369 3.12214 0
M  V30 15808 H 1446.03 3.61583 1.65839 0
M  V30 15809 H 1442.77 6.50052 0.843393 0
M  V30 15810 H 1442.29 5.5521 2.26939 0
M  V30 15811 H 1443.97 6.12085 2.09669 0
M  V30 15812 N 1444.1 -0.461169 1.50702 0
M  V30 15813 C 1445.03 -1.56576 1.73223 0
M  V30 15814 C 1446.01 -1.59855 0.581401 0
M  V30 15815 O 1447.2 -1.75964 0.821602 0
M  V30 15816 C 1444.33 -2.94835 1.83548 0
M  V30 15817 C 1443.28 -3.06421 2.98815 0
M  V30 15818 C 1442.61 -4.46425 2.94293 0
M  V30 15819 C 1443.91 -2.82714 4.3917 0
M  V30 15820 H 1445.6 -1.37982 2.65709 0
M  V30 15821 H 1443.15 -0.662362 1.27862 0
M  V30 15822 H 1445.1 -3.72047 1.97887 0
M  V30 15823 H 1443.83 -3.14608 0.876906 0
M  V30 15824 H 1442.49 -2.31644 2.84142 0
M  V30 15825 H 1442.13 -4.63131 1.96262 0
M  V30 15826 H 1441.83 -4.55111 3.71682 0
M  V30 15827 H 1443.36 -5.25644 3.10695 0
M  V30 15828 H 1444.77 -3.4967 4.54317 0
M  V30 15829 H 1443.17 -3.02835 5.18084 0
M  V30 15830 H 1444.24 -1.78492 4.50853 0
M  V30 15831 N 1445.58 -1.40446 -0.715026 0
M  V30 15832 C 1446.51 -1.43511 -1.84193 0
M  V30 15833 C 1447.49 -0.295969 -1.67505 0
M  V30 15834 O 1448.68 -0.504667 -1.87528 0
M  V30 15835 C 1445.81 -1.29751 -3.22152 0
M  V30 15836 C 1444.76 -2.41274 -3.53512 0
M  V30 15837 C 1444.09 -2.12591 -4.90621 0
M  V30 15838 C 1445.39 -3.83614 -3.54454 0
M  V30 15839 H 1447.08 -2.37819 -1.81885 0
M  V30 15840 H 1444.63 -1.14469 -0.873655 0
M  V30 15841 H 1446.58 -1.30511 -4.0068 0
M  V30 15842 H 1445.3 -0.319189 -3.25037 0
M  V30 15843 H 1443.96 -2.39764 -2.77324 0
M  V30 15844 H 1443.61 -1.13148 -4.90109 0
M  V30 15845 H 1443.31 -2.87308 -5.1257 0
M  V30 15846 H 1444.84 -2.15034 -5.71483 0
M  V30 15847 H 1446.25 -3.86945 -4.23021 0
M  V30 15848 H 1444.65 -4.57855 -3.87929 0
M  V30 15849 H 1445.72 -4.13159 -2.53827 0
M  V30 15850 N 1447.06 0.947303 -1.25952 0
M  V30 15851 C 1448.01 2.04511 -1.06976 0
M  V30 15852 C 1448.98 1.66084 0.023347 0
M  V30 15853 O 1450.16 1.9032 -0.135247 0
M  V30 15854 C 1447.3 3.37878 -0.70232 0
M  V30 15855 C 1446.41 3.89379 -1.87105 0
M  V30 15856 C 1445.55 5.11104 -1.44728 0
M  V30 15857 C 1444.59 5.54852 -2.58469 0
M  V30 15858 N 1443.73 6.67784 -2.16817 0
M  V30 15859 H 1448.57 2.20075 -2.00925 0
M  V30 15860 H 1446.1 1.07837 -1.00048 0
M  V30 15861 H 1448.06 4.14542 -0.470199 0
M  V30 15862 H 1446.69 3.22179 0.20019 0
M  V30 15863 H 1445.74 3.09169 -2.21627 0
M  V30 15864 H 1447.05 4.17789 -2.72496 0
M  V30 15865 H 1446.21 5.95208 -1.17525 0
M  V30 15866 H 1444.95 4.84426 -0.564191 0
M  V30 15867 H 1443.95 4.69308 -2.86409 0
M  V30 15868 H 1445.18 5.83534 -3.47368 0
M  V30 15869 H 1443.12 6.428 -1.30934 0
M  V30 15870 H 1443.04 6.95749 -2.95753 0
M  V30 15871 H 1444.31 7.55278 -1.92809 0
M  V30 15872 N 1448.54 1.07657 1.15099 0
M  V30 15873 C 1449.82 0.714608 1.82079 0
M  V30 15874 C 1450.2 -0.802578 1.95248 0
M  V30 15875 O 1449.54 -1.71818 1.50634 0
M  V30 15876 C 1449.75 1.43264 3.1824 0
M  V30 15877 C 1451.1 1.58675 3.93837 0
M  V30 15878 O 1452.13 1.39367 3.27804 0
M  V30 15879 O 1450.98 1.9047 5.12234 0
M  V30 15880 H 1448.08 0.254645 0.786819 0
M  V30 15881 H 1450.62 1.17768 1.22183 0
M  V30 15882 H 1449.4 2.46655 3.03772 0
M  V30 15883 H 1449.02 0.960546 3.85823 0
M  V30 15884 N 1450.02 -1.31994 0.861122 0
M  V30 15885 C 1450.98 -2.27019 0.315421 0
M  V30 15886 C 1451.98 -1.51864 -0.528575 0
M  V30 15887 O 1453.17 -1.70867 -0.339154 0
M  V30 15888 C 1450.3 -3.36384 -0.553021 0
M  V30 15889 H 1451.49 -2.768 1.1542 0
M  V30 15890 H 1449.05 -1.42776 0.635982 0
M  V30 15891 H 1449.78 -2.91882 -1.41335 0
M  V30 15892 H 1449.57 -3.92067 0.0511919 0
M  V30 15893 H 1451.06 -4.07172 -0.927392 0
M  V30 15894 N 1451.49 -0.619688 -1.44906 0
M  V30 15895 C 1452.74 -0.117147 -2.0136 0
M  V30 15896 C 1453.06 1.2644 -1.49239 0
M  V30 15897 O 1454.26 1.86034 -1.97747 0
M  V30 15898 C 1452.72 -0.15871 -3.5955 0
M  V30 15899 C 1452.33 -1.54086 -4.20668 0
M  V30 15900 C 1454.07 0.287961 -4.23522 0
M  V30 15901 C 1451.98 -1.53816 -5.71047 0
M  V30 15902 H 1450.91 -0.040028 -0.752937 0
M  V30 15903 H 1453.56 -0.776802 -1.66247 0
M  V30 15904 H 1451.94 0.56783 -3.91908 0
M  V30 15905 H 1453.11 -2.29007 -3.99865 0
M  V30 15906 H 1451.43 -1.93065 -3.68938 0
M  V30 15907 H 1454.03 0.309351 -5.33804 0
M  V30 15908 H 1454.37 1.31305 -3.9505 0
M  V30 15909 H 1454.9 -0.385707 -3.95926 0
M  V30 15910 H 1451.64 -2.54124 -6.04236 0
M  V30 15911 H 1451.16 -0.831708 -5.94006 0
M  V30 15912 H 1452.84 -1.26708 -6.34472 0
M  V30 15913 N 1452.97 1.53444 -0.359552 0
M  V30 15914 C 1454.39 1.59598 -0.00824946 0
M  V30 15915 C 1454.59 1.37492 1.47303 0
M  V30 15916 O 1453.64 1.1771 2.23385 0
M  V30 15917 C 1454.96 2.9718 -0.45878 0
M  V30 15918 C 1456.51 3.1027 -0.412485 0
M  V30 15919 C 1456.98 4.50255 -0.838733 0
M  V30 15920 N 1458.47 4.56352 -0.793552 0
M  V30 15921 C 1459.21 5.62845 -1.09513 0
M  V30 15922 N 1458.7 6.77119 -1.46567 0
M  V30 15923 N 1460.5 5.52799 -1.01832 0
M  V30 15924 H 1452.65 1.66065 -1.32424 0
M  V30 15925 H 1454.91 0.778561 -0.540876 0
M  V30 15926 H 1454.62 3.18475 -1.4922 0
M  V30 15927 H 1454.49 3.7687 0.157741 0
M  V30 15928 H 1456.88 2.88689 0.611791 0
M  V30 15929 H 1456.96 2.32602 -1.06442 0
M  V30 15930 H 1456.6 4.72573 -1.8611 0
M  V30 15931 H 1456.53 5.26344 -0.164109 0
M  V30 15932 H 1459.02 3.74299 -0.52048 0
M  V30 15933 H 1459.34 7.54313 -1.68021 0
M  V30 15934 H 1457.68 6.78525 -1.50427 0
M  V30 15935 H 1460.87 4.62403 -0.728059 0
M  V30 15936 H 1461.04 6.35698 -1.25668 0
M  V30 15937 N 1454.45 0.0885642 1.57351 0
M  V30 15938 C 1455.4 -0.872723 2.13664 0
M  V30 15939 C 1456.37 -1.28418 1.05347 0
M  V30 15940 O 1457.55 -1.36709 1.33099 0
M  V30 15941 C 1454.69 -2.12886 2.71613 0
M  V30 15942 C 1453.81 -1.76852 3.94141 0
M  V30 15943 C 1452.94 -2.97203 4.40277 0
M  V30 15944 C 1451.98 -2.57265 5.55411 0
M  V30 15945 N 1451.12 -3.70429 5.96428 0
M  V30 15946 H 1455.96 -0.385644 2.95494 0
M  V30 15947 H 1453.49 -0.178688 1.46011 0
M  V30 15948 H 1455.45 -2.86441 3.03327 0
M  V30 15949 H 1454.08 -2.59105 1.92521 0
M  V30 15950 H 1453.13 -0.932921 3.68783 0
M  V30 15951 H 1454.45 -1.43481 4.77718 0
M  V30 15952 H 1453.6 -3.79019 4.7374 0
M  V30 15953 H 1452.34 -3.3378 3.55587 0
M  V30 15954 H 1451.34 -1.73875 5.21582 0
M  V30 15955 H 1452.57 -2.21839 6.41844 0
M  V30 15956 H 1450.51 -4.06737 5.14686 0
M  V30 15957 H 1450.43 -3.40881 6.74786 0
M  V30 15958 H 1451.7 -4.52774 6.3452 0
M  V30 15959 N 1455.93 -1.56509 -0.185096 0
M  V30 15960 C 1456.89 -1.94468 -1.21305 0
M  V30 15961 C 1457.89 -0.826838 -1.37913 0
M  V30 15962 O 1459.08 -1.09411 -1.35554 0
M  V30 15963 C 1456.21 -2.22747 -2.58063 0
M  V30 15964 H 1457.41 -2.86442 -0.888323 0
M  V30 15965 H 1454.96 -1.50354 -0.427012 0
M  V30 15966 H 1455.69 -1.33443 -2.95573 0
M  V30 15967 H 1455.48 -3.04215 -2.47378 0
M  V30 15968 H 1456.97 -2.53084 -3.32172 0
M  V30 15969 N 1457.41 0.45317 -1.50944 0
M  V30 15970 C 1458.34 1.55655 -1.74051 0
M  V30 15971 C 1459.32 1.59545 -0.58987 0
M  V30 15972 O 1460.5 1.75526 -0.830922 0
M  V30 15973 C 1457.63 2.93857 -1.85109 0
M  V30 15974 C 1456.59 3.04832 -3.00435 0
M  V30 15975 C 1455.91 4.44858 -2.96657 0
M  V30 15976 C 1457.21 2.80381 -4.40663 0
M  V30 15977 H 1458.91 1.36571 -2.66437 0
M  V30 15978 H 1456.45 0.655572 -1.28212 0
M  V30 15979 H 1458.41 3.70992 -1.99857 0
M  V30 15980 H 1457.13 3.14138 -0.893579 0
M  V30 15981 H 1455.79 2.30134 -2.85366 0
M  V30 15982 H 1455.44 4.62083 -1.98716 0
M  V30 15983 H 1455.14 4.53134 -3.7409 0
M  V30 15984 H 1456.66 5.23989 -3.13478 0
M  V30 15985 H 1458.07 3.47255 -4.56165 0
M  V30 15986 H 1456.47 3.00083 -5.19683 0
M  V30 15987 H 1457.54 1.76099 -4.51793 0
M  V30 15988 N 1458.88 1.40823 0.707568 0
M  V30 15989 C 1460.11 1.42659 1.49439 0
M  V30 15990 C 1460.52 0.0268475 1.89181 0
M  V30 15991 O 1459.87 -0.961444 1.56531 0
M  V30 15992 C 1459.93 2.26104 2.79494 0
M  V30 15993 C 1459.59 3.7442 2.62027 0
M  V30 15994 C 1460.59 4.66867 2.28759 0
M  V30 15995 C 1458.27 4.18328 2.78042 0
M  V30 15996 C 1460.27 6.01208 2.11727 0
M  V30 15997 C 1457.95 5.52736 2.60627 0
M  V30 15998 C 1458.95 6.43991 2.27518 0
M  V30 15999 O 1458.64 7.75921 2.10243 0
M  V30 16000 H 1458.37 0.488307 0.467475 0
M  V30 16001 H 1460.93 1.85607 0.879719 0
M  V30 16002 H 1459.16 1.77949 3.43323 0
M  V30 16003 H 1460.85 2.19785 3.41247 0
M  V30 16004 H 1461.61 4.34239 2.16012 0
M  V30 16005 H 1457.49 3.47612 3.02798 0
M  V30 16006 H 1461.03 6.724 1.85807 0
M  V30 16007 H 1456.93 5.84947 2.7296 0
M  V30 16008 H 1457.7 7.86938 2.251 0
M  V30 16009 N 1460.36 -0.94061 1.26453 0
M  V30 16010 C 1461.64 -1.66421 1.02779 0
M  V30 16011 C 1462.02 -2.06429 -0.441614 0
M  V30 16012 O 1461.37 -1.78854 -1.42209 0
M  V30 16013 C 1461.58 -2.87599 1.97707 0
M  V30 16014 C 1462.93 -3.59237 2.26349 0
M  V30 16015 O 1463.95 -2.97704 1.95577 0
M  V30 16016 O 1462.81 -4.70068 2.78744 0
M  V30 16017 H 1459.9 -0.728813 0.390846 0
M  V30 16018 H 1462.45 -0.99229 1.37665 0
M  V30 16019 H 1461.22 -2.54929 2.96862 0
M  V30 16020 H 1460.84 -3.62516 1.63303 0
M  V30 16021 N 1461.84 -1.08266 -1.14527 0
M  V30 16022 C 1462.75 -0.723043 -2.2318 0
M  V30 16023 C 1463.77 0.269819 -1.71895 0
M  V30 16024 O 1464.94 0.114126 -2.01076 0
M  V30 16025 C 1462.01 -0.136229 -3.46432 0
M  V30 16026 C 1461.07 -1.18352 -4.12664 0
M  V30 16027 C 1460.3 -0.624612 -5.30032 0
M  V30 16028 O 1460.52 0.556377 -5.6768 0
M  V30 16029 O 1459.46 -1.37397 -5.86008 0
M  V30 16030 H 1463.28 -1.6294 -2.56289 0
M  V30 16031 H 1460.87 -0.856235 -1.22429 0
M  V30 16032 H 1462.75 0.18829 -4.20979 0
M  V30 16033 H 1461.43 0.74331 -3.1505 0
M  V30 16034 H 1460.33 -1.56054 -3.39997 0
M  V30 16035 H 1461.67 -2.03528 -4.48148 0
M  V30 16036 N 1463.32 1.31536 -0.86811 0
M  V30 16037 C 1464.57 1.97066 -0.478829 0
M  V30 16038 C 1464.9 1.68469 0.966021 0
M  V30 16039 O 1464.17 0.980166 1.67997 0
M  V30 16040 C 1464.46 3.52533 -0.734313 0
M  V30 16041 C 1464.31 3.90711 -2.22856 0
M  V30 16042 C 1465.63 4.39647 -0.199559 0
M  V30 16043 H 1462.75 0.715813 -0.175444 0
M  V30 16044 H 1465.39 1.55694 -1.08901 0
M  V30 16045 H 1463.54 3.87905 -0.214962 0
M  V30 16046 H 1465.21 3.65451 -2.81502 0
M  V30 16047 H 1463.45 3.39385 -2.70185 0
M  V30 16048 H 1464.13 4.99103 -2.35797 0
M  V30 16049 H 1466.6 4.11088 -0.643853 0
M  V30 16050 H 1465.48 5.47383 -0.407783 0
M  V30 16051 H 1465.74 4.32875 0.898414 0
M  V30 16052 N 1464.8 0.627364 1.44575 0
M  V30 16053 C 1466.07 0.0614392 1.95503 0
M  V30 16054 C 1466.45 -1.41182 1.56942 0
M  V30 16055 O 1465.8 -2.12435 0.841634 0
M  V30 16056 C 1466.01 0.280349 3.47872 0
M  V30 16057 C 1467.36 0.171559 4.24253 0
M  V30 16058 O 1468.38 0.211515 3.55571 0
M  V30 16059 O 1467.24 0.0733152 5.46451 0
M  V30 16060 H 1464.34 -0.0244626 0.826638 0
M  V30 16061 H 1466.88 0.698805 1.54644 0
M  V30 16062 H 1465.66 1.30278 3.68976 0
M  V30 16063 H 1465.28 -0.391336 3.95669 0
M  V30 16064 N 1466.28 -1.53251 0.367684 0
M  V30 16065 C 1467.22 -2.258 -0.477802 0
M  V30 16066 C 1468.19 -1.26554 -1.07579 0
M  V30 16067 O 1469.38 -1.5534 -1.10788 0
M  V30 16068 C 1466.52 -3.05216 -1.6105 0
M  V30 16069 C 1465.63 -4.19357 -1.03748 0
M  V30 16070 C 1464.77 -4.86211 -2.13945 0
M  V30 16071 C 1463.8 -5.9238 -1.5412 0
M  V30 16072 N 1462.94 -6.52916 -2.58158 0
M  V30 16073 H 1467.78 -2.97635 0.147367 0
M  V30 16074 H 1465.32 -1.46857 0.084495 0
M  V30 16075 H 1467.28 -3.49536 -2.27772 0
M  V30 16076 H 1465.91 -2.35632 -2.20629 0
M  V30 16077 H 1464.96 -3.79507 -0.260476 0
M  V30 16078 H 1466.27 -4.95645 -0.560105 0
M  V30 16079 H 1465.42 -5.33725 -2.88483 0
M  V30 16080 H 1464.16 -4.09399 -2.65035 0
M  V30 16081 H 1463.17 -5.44225 -0.780968 0
M  V30 16082 H 1464.39 -6.71112 -1.03852 0
M  V30 16083 H 1462.34 -5.78956 -3.08457 0
M  V30 16084 H 1462.26 -7.2475 -2.15113 0
M  V30 16085 H 1463.52 -7.05079 -3.32392 0
M  V30 16086 N 1467.75 -0.0969077 -1.57302 0
M  V30 16087 C 1469 0.567212 -1.94706 0
M  V30 16088 C 1469.33 1.67721 -0.978937 0
M  V30 16089 O 1468.61 1.94496 -0.0123016 0
M  V30 16090 C 1468.89 1.12069 -3.42217 0
M  V30 16091 C 1468.74 0.015615 -4.49797 0
M  V30 16092 C 1470.06 2.0185 -3.91081 0
M  V30 16093 H 1467.18 0.204716 -0.707997 0
M  V30 16094 H 1469.82 -0.167984 -1.89256 0
M  V30 16095 H 1467.97 1.74723 -3.46993 0
M  V30 16096 H 1469.65 -0.61871 -4.57132 0
M  V30 16097 H 1467.89 -0.650529 -4.28895 0
M  V30 16098 H 1468.56 0.443724 -5.50214 0
M  V30 16099 H 1471.04 1.49098 -3.8847 0
M  V30 16100 H 1469.91 2.37502 -4.94858 0
M  V30 16101 H 1470.17 2.93659 -3.3048 0
M  V30 16102 N 1469.23 1.56605 0.176793 0
M  V30 16103 C 1470.14 1.99211 1.23903 0
M  V30 16104 C 1471.16 0.902614 1.48758 0
M  V30 16105 O 1472.33 1.20982 1.61014 0
M  V30 16106 C 1469.4 2.33873 2.55938 0
M  V30 16107 C 1468.46 3.56624 2.38994 0
M  V30 16108 C 1467.69 3.89623 3.64733 0
M  V30 16109 O 1467.92 3.23662 4.6968 0
M  V30 16110 O 1466.85 4.82992 3.5917 0
M  V30 16111 H 1470.68 2.89827 0.907398 0
M  V30 16112 H 1468.26 1.44401 0.383234 0
M  V30 16113 H 1470.14 2.57161 3.33836 0
M  V30 16114 H 1468.82 1.46421 2.88691 0
M  V30 16115 H 1467.72 3.38561 1.59146 0
M  V30 16116 H 1469.06 4.446 2.11167 0
M  V30 16117 N 1470.71 -0.445159 1.51182 0
M  V30 16118 C 1471.66 -1.5604 1.72494 0
M  V30 16119 C 1472.65 -1.58753 0.591101 0
M  V30 16120 O 1473.86 -1.62591 0.772285 0
M  V30 16121 H 1470.23 -0.518265 0.544891 0
M  V30 16122 H 1472.2 -1.35237 2.65995 0
M  V30 16123 C 1470.95 -2.93768 1.85999 0
M  V30 16124 H 1470.28 -2.9241 2.72647 0
M  V30 16125 H 1471.72 -3.71189 2.04926 0
M  V30 16126 C 1470.17 -3.31186 0.617853 0
M  V30 16127 O 1470.7 -4.01035 -0.231101 0
M  V30 16128 N 1468.91 -2.86868 0.464234 0
M  V30 16129 H 1468.46 -2.30198 1.15614 0
M  V30 16130 H 1468.42 -3.12267 -0.365643 0
M  V30 16131 N 1472.19 -1.41197 -0.700089 0
M  V30 16132 C 1473.41 -1.43856 -1.494 0
M  V30 16133 C 1473.84 -0.0441877 -1.88048 0
M  V30 16134 O 1473.2 0.951503 -1.54325 0
M  V30 16135 C 1473.24 -2.34913 -2.73584 0
M  V30 16136 O 1472.35 -1.80305 -3.70896 0
M  V30 16137 H 1471.69 -0.488412 -0.449833 0
M  V30 16138 H 1474.22 -1.85606 -0.860911 0
M  V30 16139 H 1474.23 -2.50633 -3.21943 0
M  V30 16140 H 1472.9 -3.36229 -2.44791 0
M  V30 16141 H 1471.48 -1.74012 -3.29809 0
M  V30 16142 N 1473.67 0.933891 -1.2695 0
M  V30 16143 C 1474.58 2.06713 -1.10936 0
M  V30 16144 C 1475.59 1.73952 -0.0409734 0
M  V30 16145 O 1476.77 1.9989 -0.246199 0
M  V30 16146 C 1473.83 3.38453 -0.751696 0
M  V30 16147 C 1472.89 3.84951 -1.90029 0
M  V30 16148 C 1472.13 5.10404 -1.55959 0
M  V30 16149 O 1472.35 5.68504 -0.464646 0
M  V30 16150 O 1471.28 5.52123 -2.39675 0
M  V30 16151 H 1475.11 2.23133 -2.06023 0
M  V30 16152 H 1472.69 1.05202 -1.06079 0
M  V30 16153 H 1474.58 4.17591 -0.565285 0
M  V30 16154 H 1473.25 3.23255 0.169703 0
M  V30 16155 H 1472.16 3.06727 -2.14172 0
M  V30 16156 H 1473.49 4.04681 -2.80167 0
M  V30 16157 N 1475.14 1.08871 1.13951 0
M  V30 16158 C 1476.39 0.821287 1.85098 0
M  V30 16159 C 1476.72 -0.65302 1.8321 0
M  V30 16160 O 1475.97 -1.49629 1.26134 0
M  V30 16161 C 1476.27 1.29443 3.33135 0
M  V30 16162 C 1475.94 2.77737 3.55208 0
M  V30 16163 C 1474.6 3.18238 3.60941 0
M  V30 16164 C 1476.95 3.7338 3.63644 0
M  V30 16165 C 1474.28 4.53165 3.72637 0
M  V30 16166 C 1476.63 5.08089 3.76867 0
M  V30 16167 C 1475.3 5.48187 3.8085 0
M  V30 16168 H 1474.57 0.30053 0.67732 0
M  V30 16169 H 1477.21 1.36249 1.34568 0
M  V30 16170 H 1475.52 0.672919 3.85978 0
M  V30 16171 H 1477.22 1.06421 3.86621 0
M  V30 16172 H 1473.81 2.45393 3.51398 0
M  V30 16173 H 1477.99 3.43207 3.58501 0
M  V30 16174 H 1473.25 4.83679 3.73985 0
M  V30 16175 H 1477.42 5.82058 3.82337 0
M  V30 16176 H 1475.05 6.52737 3.89665 0
M  V30 16177 N 1476.62 -1.31073 0.875073 0
M  V30 16178 C 1478.04 -1.49162 0.567697 0
M  V30 16179 C 1478.24 -1.80435 -0.896969 0
M  V30 16180 O 1477.29 -1.88604 -1.67883 0
M  V30 16181 C 1478.61 -2.6219 1.47231 0
M  V30 16182 C 1480.15 -2.76072 1.47489 0
M  V30 16183 C 1480.63 -3.92202 2.36519 0
M  V30 16184 N 1482.12 -3.99497 2.34428 0
M  V30 16185 C 1482.86 -4.88639 3.00033 0
M  V30 16186 N 1482.35 -5.82647 3.74826 0
M  V30 16187 N 1484.14 -4.81926 2.89315 0
M  V30 16188 H 1476.3 -1.09045 1.82272 0
M  V30 16189 H 1478.56 -0.539291 0.77966 0
M  V30 16190 H 1478.26 -2.45872 2.51475 0
M  V30 16191 H 1478.14 -3.58446 1.17459 0
M  V30 16192 H 1480.53 -2.91801 0.440008 0
M  V30 16193 H 1480.61 -1.80468 1.81287 0
M  V30 16194 H 1480.25 -3.77231 3.40087 0
M  V30 16195 H 1480.18 -4.87125 2.00043 0
M  V30 16196 H 1482.67 -3.32241 1.80067 0
M  V30 16197 H 1482.98 -6.47406 4.22001 0
M  V30 16198 H 1481.33 -5.82609 3.78934 0
M  V30 16199 H 1484.52 -4.07462 2.30418 0
M  V30 16200 H 1484.69 -5.51192 3.40722 0
M  V30 16201 N 1478.1 -0.635022 -1.4424 0
M  V30 16202 C 1479.01 0.0686832 -2.34499 0
M  V30 16203 C 1480.03 0.831574 -1.52843 0
M  V30 16204 O 1481.2 0.782954 -1.85558 0
M  V30 16205 C 1478.27 1.03543 -3.30877 0
M  V30 16206 C 1477.33 0.271484 -4.28441 0
M  V30 16207 C 1476.56 1.19218 -5.20214 0
M  V30 16208 O 1476.78 2.43101 -5.16002 0
M  V30 16209 O 1475.72 0.6744 -5.9811 0
M  V30 16210 H 1479.54 -0.673781 -2.96132 0
M  V30 16211 H 1477.13 -0.395211 -1.44078 0
M  V30 16212 H 1479.01 1.59151 -3.90191 0
M  V30 16213 H 1477.69 1.75844 -2.71773 0
M  V30 16214 H 1476.59 -0.327736 -3.72662 0
M  V30 16215 H 1477.93 -0.411584 -4.90476 0
M  V30 16216 N 1479.58 1.53054 -0.375806 0
M  V30 16217 C 1480.54 2.24666 0.453608 0
M  V30 16218 C 1481.54 1.25816 1.00135 0
M  V30 16219 O 1482.73 1.50016 0.885481 0
M  V30 16220 C 1479.86 2.99131 1.63503 0
M  V30 16221 H 1481.06 2.994 -0.173172 0
M  V30 16222 H 1478.61 1.55778 -0.127673 0
M  V30 16223 H 1479.34 2.28666 2.29962 0
M  V30 16224 H 1479.13 3.71671 1.24913 0
M  V30 16225 H 1480.62 3.53542 2.22256 0
M  V30 16226 N 1481.06 0.105248 1.57248 0
M  V30 16227 C 1482.31 -0.555797 1.93891 0
M  V30 16228 C 1482.62 -1.68703 0.989883 0
M  V30 16229 O 1483.82 -2.40991 1.25043 0
M  V30 16230 C 1482.28 -1.04006 3.44544 0
M  V30 16231 C 1481.89 0.0619641 4.47957 0
M  V30 16232 C 1483.63 -1.67327 3.90131 0
M  V30 16233 C 1481.54 -0.438229 5.89774 0
M  V30 16234 H 1480.47 -0.211391 0.723761 0
M  V30 16235 H 1483.12 0.182887 1.82586 0
M  V30 16236 H 1481.5 -1.83275 3.51036 0
M  V30 16237 H 1482.68 0.837803 4.5312 0
M  V30 16238 H 1480.99 0.600973 4.1204 0
M  V30 16239 H 1483.59 -2.0584 4.93492 0
M  V30 16240 H 1483.93 -2.54638 3.29341 0
M  V30 16241 H 1484.46 -0.946231 3.86382 0
M  V30 16242 H 1481.2 0.398506 6.54288 0
M  V30 16243 H 1480.72 -1.18085 5.88061 0
M  V30 16244 H 1482.4 -0.903922 6.40655 0
M  V30 16245 N 1482.53 -1.56697 -0.168486 0
M  V30 16246 C 1483.46 -1.99659 -1.21073 0
M  V30 16247 C 1484.45 -0.872625 -1.46011 0
M  V30 16248 O 1485.63 -1.13891 -1.57297 0
M  V30 16249 C 1482.76 -2.35889 -2.54899 0
M  V30 16250 C 1481.71 -3.51272 -2.44524 0
M  V30 16251 C 1481.04 -3.73253 -3.82866 0
M  V30 16252 C 1482.34 -4.84631 -1.94756 0
M  V30 16253 H 1484.03 -2.86974 -0.853593 0
M  V30 16254 H 1481.58 -1.38065 -0.409165 0
M  V30 16255 H 1483.53 -2.64542 -3.28017 0
M  V30 16256 H 1482.26 -1.45486 -2.92406 0
M  V30 16257 H 1480.92 -3.22751 -1.7386 0
M  V30 16258 H 1480.56 -2.80136 -4.17772 0
M  V30 16259 H 1480.26 -4.5089 -3.76792 0
M  V30 16260 H 1481.79 -4.04309 -4.57566 0
M  V30 16261 H 1483.2 -5.12142 -2.5765 0
M  V30 16262 H 1481.6 -5.65925 -1.99623 0
M  V30 16263 H 1482.67 -4.76436 -0.902021 0
M  V30 16264 N 1484.01 0.437135 -1.51416 0
M  V30 16265 C 1484.94 1.538 -1.75692 0
M  V30 16266 C 1485.92 1.5891 -0.606759 0
M  V30 16267 O 1487.11 1.74635 -0.849492 0
M  V30 16268 C 1484.24 2.91877 -1.88215 0
M  V30 16269 C 1483.19 3.01628 -3.03652 0
M  V30 16270 C 1482.52 4.41687 -3.01358 0
M  V30 16271 C 1483.82 2.75691 -4.43612 0
M  V30 16272 H 1485.51 1.33737 -2.67871 0
M  V30 16273 H 1483.06 0.641936 -1.289 0
M  V30 16274 H 1485.01 3.68851 -2.03781 0
M  V30 16275 H 1483.74 3.13173 -0.926847 0
M  V30 16276 H 1482.39 2.27094 -2.87791 0
M  V30 16277 H 1482.04 4.5995 -2.03605 0
M  V30 16278 H 1481.74 4.49141 -3.78875 0
M  V30 16279 H 1483.27 5.20634 -3.19018 0
M  V30 16280 H 1484.68 3.42398 -4.59822 0
M  V30 16281 H 1483.08 2.94554 -5.22836 0
M  V30 16282 H 1484.15 1.71297 -4.53636 0
M  V30 16283 N 1485.49 1.41566 0.692592 0
M  V30 16284 C 1486.72 1.44646 1.48635 0
M  V30 16285 C 1487.14 0.0541597 1.88022 0
M  V30 16286 O 1486.5 -0.943305 1.54827 0
M  V30 16287 C 1486.55 2.3636 2.72335 0
M  V30 16288 O 1485.65 1.8227 3.69934 0
M  V30 16289 H 1484.99 0.490791 0.447236 0
M  V30 16290 H 1487.52 1.8606 0.851056 0
M  V30 16291 H 1487.53 2.52337 3.20609 0
M  V30 16292 H 1486.21 3.37523 2.43004 0
M  V30 16293 H 1484.78 1.75759 3.28882 0
M  V30 16294 N 1486.97 -0.927146 1.27443 0
M  V30 16295 C 1487.92 -2.02783 1.10216 0
M  V30 16296 C 1488.89 -1.661 0.00307842 0
M  V30 16297 O 1490.07 -1.90081 0.165508 0
M  V30 16298 C 1487.21 -3.36718 0.755984 0
M  V30 16299 C 1486.32 -3.86353 1.93276 0
M  V30 16300 C 1485.46 -5.08737 1.52841 0
M  V30 16301 C 1484.5 -5.50669 2.67263 0
M  V30 16302 N 1483.63 -6.6425 2.27413 0
M  V30 16303 H 1488.47 -2.16851 2.04401 0
M  V30 16304 H 1486.01 -1.06232 1.0175 0
M  V30 16305 H 1487.97 -4.13741 0.53609 0
M  V30 16306 H 1486.6 -3.22456 -0.148909 0
M  V30 16307 H 1485.65 -3.05604 2.26518 0
M  V30 16308 H 1486.96 -4.13401 2.79108 0
M  V30 16309 H 1486.12 -5.93263 1.26979 0
M  V30 16310 H 1484.86 -4.83467 0.641187 0
M  V30 16311 H 1483.86 -4.64692 2.93839 0
M  V30 16312 H 1485.09 -5.77934 3.56607 0
M  V30 16313 H 1483.03 -6.40636 1.41143 0
M  V30 16314 H 1482.95 -6.90955 3.06784 0
M  V30 16315 H 1484.22 -7.52115 2.048 0
M  V30 16316 N 1488.45 -1.09474 -1.13372 0
M  V30 16317 C 1489.67 -0.852921 -1.88502 0
M  V30 16318 C 1490.09 0.595855 -1.79151 0
M  V30 16319 O 1489.45 1.41019 -1.15845 0
M  V30 16320 C 1489.5 -1.27993 -3.38083 0
M  V30 16321 O 1489.22 -2.67189 -3.47191 0
M  V30 16322 C 1490.72 -1.07056 -4.30179 0
M  V30 16323 H 1487.94 -0.30682 -0.596743 0
M  V30 16324 H 1490.48 -1.45685 -1.43513 0
M  V30 16325 H 1488.64 -0.719879 -3.80653 0
M  V30 16326 H 1489.05 -2.85202 -4.40182 0
M  V30 16327 H 1490.53 -1.4186 -5.3346 0
M  V30 16328 H 1491 -0.00838732 -4.39199 0
M  V30 16329 H 1491.61 -1.61659 -3.93378 0
M  V30 16330 N 1489.92 1.30607 -0.882012 0
M  V30 16331 C 1490.87 2.2577 -0.318082 0
M  V30 16332 C 1491.86 1.51143 0.551774 0
M  V30 16333 O 1493.05 1.72498 0.396682 0
M  V30 16334 C 1490.18 3.40082 0.468967 0
M  V30 16335 C 1489.27 4.22067 -0.41481 0
M  V30 16336 N 1489.66 4.82613 -1.51389 0
M  V30 16337 C 1487.95 4.45508 -0.209391 0
M  V30 16338 C 1488.66 5.44007 -2.05988 0
M  V30 16339 N 1487.63 5.26435 -1.35524 0
M  V30 16340 H 1491.43 2.70128 -1.15793 0
M  V30 16341 H 1488.95 1.45013 -0.731091 0
M  V30 16342 H 1490.94 4.07298 0.889584 0
M  V30 16343 H 1489.6 2.97265 1.30629 0
M  V30 16344 H 1490.62 4.81916 -1.89676 0
M  V30 16345 H 1487.29 4.13296 0.591 0
M  V30 16346 H 1488.68 6.02068 -2.98268 0
M  V30 16347 N 1491.4 0.642663 1.43901 0
M  V30 16348 C 1492.82 0.309286 1.56575 0
M  V30 16349 C 1493.02 -1.18709 1.6282 0
M  V30 16350 O 1492.07 -1.97157 1.57751 0
M  V30 16351 C 1493.39 1.01136 2.83182 0
M  V30 16352 C 1494.94 0.9906 2.96911 0
M  V30 16353 C 1495.41 1.67336 4.26336 0
M  V30 16354 N 1496.9 1.6405 4.33177 0
M  V30 16355 C 1497.64 2.13762 5.32065 0
M  V30 16356 N 1497.13 2.71716 6.37293 0
M  V30 16357 N 1498.93 2.04323 5.23649 0
M  V30 16358 H 1491.08 1.61384 1.38091 0
M  V30 16359 H 1493.34 0.678084 0.6625 0
M  V30 16360 H 1493.05 2.0664 2.84592 0
M  V30 16361 H 1492.92 0.556304 3.73075 0
M  V30 16362 H 1495.31 -0.0559997 2.95047 0
M  V30 16363 H 1495.39 1.48425 2.08335 0
M  V30 16364 H 1495.03 2.71947 4.2896 0
M  V30 16365 H 1494.96 1.15445 5.1379 0
M  V30 16366 H 1497.45 1.21749 3.57751 0
M  V30 16367 H 1497.77 3.07352 7.09052 0
M  V30 16368 H 1496.11 2.75772 6.37946 0
M  V30 16369 H 1499.3 1.5876 4.40355 0
M  V30 16370 H 1499.47 2.43376 6.0056 0
M  V30 16371 N 1492.88 -1.52852 0.383918 0
M  V30 16372 C 1494.16 -1.939 -0.25729 0
M  V30 16373 C 1494.54 -1.31895 -1.64824 0
M  V30 16374 O 1493.89 -0.484987 -2.23294 0
M  V30 16375 C 1494.1 -3.47801 -0.289064 0
M  V30 16376 C 1495.44 -4.21396 -0.520611 0
M  V30 16377 O 1496.47 -3.54278 -0.369502 0
M  V30 16378 O 1495.33 -5.4037 -0.816254 0
M  V30 16379 H 1492.42 -0.811658 -0.158558 0
M  V30 16380 H 1494.97 -1.63949 0.438034 0
M  V30 16381 H 1493.74 -3.8525 0.685441 0
M  V30 16382 H 1493.36 -3.8404 -1.02953 0
M  V30 16383 N 1494.36 -0.113586 -1.5719 0
M  V30 16384 C 1495.31 0.855985 -2.16277 0
M  V30 16385 C 1496.3 1.2792 -1.11053 0
M  V30 16386 O 1497.51 1.25158 -1.29366 0
M  V30 16387 H 1493.88 0.294134 -0.692091 0
M  V30 16388 H 1495.85 0.333109 -2.96535 0
M  V30 16389 C 1494.6 2.09832 -2.77247 0
M  V30 16390 H 1493.93 1.78158 -3.5791 0
M  V30 16391 H 1495.37 2.7569 -3.22135 0
M  V30 16392 C 1493.82 2.88453 -1.74059 0
M  V30 16393 O 1494.35 3.83648 -1.19068 0
M  V30 16394 N 1492.56 2.52342 -1.44124 0
M  V30 16395 H 1492.11 1.74998 -1.89033 0
M  V30 16396 H 1492.07 3.05244 -0.753234 0
M  V30 16397 N 1495.84 1.56784 0.160173 0
M  V30 16398 C 1497.08 1.82621 0.874982 0
M  V30 16399 C 1497.41 0.692427 1.81757 0
M  V30 16400 O 1496.67 -0.319535 1.93074 0
M  V30 16401 C 1496.97 3.14703 1.69402 0
M  V30 16402 C 1496.63 4.41839 0.899373 0
M  V30 16403 C 1495.29 4.7637 0.680099 0
M  V30 16404 C 1497.65 5.20072 0.342747 0
M  V30 16405 C 1494.97 5.86603 -0.106723 0
M  V30 16406 C 1497.33 6.3113 -0.431044 0
M  V30 16407 C 1495.99 6.64219 -0.661017 0
M  V30 16408 H 1495.26 0.668256 0.320178 0
M  V30 16409 H 1497.91 1.90993 0.139305 0
M  V30 16410 H 1496.21 3.01723 2.49941 0
M  V30 16411 H 1497.91 3.31906 2.25032 0
M  V30 16412 H 1494.5 4.14761 1.08033 0
M  V30 16413 H 1498.68 4.9378 0.499467 0
M  V30 16414 H 1493.94 6.1069 -0.294528 0
M  V30 16415 H 1498.11 6.9095 -0.869557 0
M  V30 16416 H 1495.74 7.49473 -1.27257 0
M  V30 16417 N 1497.32 -0.429099 1.51646 0
M  V30 16418 C 1498.56 -1.17482 1.63954 0
M  V30 16419 C 1498.88 -1.92152 0.36565 0
M  V30 16420 O 1500.08 -2.68991 0.368221 0
M  V30 16421 C 1498.54 -2.13703 2.89585 0
M  V30 16422 C 1498.15 -1.44642 4.24008 0
M  V30 16423 C 1499.89 -2.88657 3.11252 0
M  V30 16424 C 1497.8 -2.39395 5.40781 0
M  V30 16425 H 1496.73 -0.442234 0.610692 0
M  V30 16426 H 1499.38 -0.441088 1.7812 0
M  V30 16427 H 1497.76 -2.90545 2.69071 0
M  V30 16428 H 1498.94 -0.733012 4.54932 0
M  V30 16429 H 1497.25 -0.818084 4.08285 0
M  V30 16430 H 1499.85 -3.59653 3.95669 0
M  V30 16431 H 1500.19 -3.50473 2.24664 0
M  V30 16432 H 1500.72 -2.18919 3.32144 0
M  V30 16433 H 1497.46 -1.82255 6.29653 0
M  V30 16434 H 1496.98 -3.08766 5.14222 0
M  V30 16435 H 1498.66 -3.0035 5.73061 0
M  V30 16436 N 1498.79 -1.41931 -0.685074 0
M  V30 16437 C 1499.72 -1.47385 -1.81107 0
M  V30 16438 C 1500.7 -0.331433 -1.6684 0
M  V30 16439 O 1501.89 -0.544331 -1.86415 0
M  V30 16440 C 1499.02 -1.36555 -3.19327 0
M  V30 16441 C 1497.97 -2.48718 -3.48315 0
M  V30 16442 C 1497.3 -2.2295 -4.86002 0
M  V30 16443 C 1498.6 -3.91047 -3.46237 0
M  V30 16444 H 1500.29 -2.41624 -1.768 0
M  V30 16445 H 1497.84 -1.16297 -0.849178 0
M  V30 16446 H 1499.79 -1.38981 -3.97822 0
M  V30 16447 H 1498.52 -0.388063 -3.24286 0
M  V30 16448 H 1497.18 -2.45592 -2.72176 0
M  V30 16449 H 1496.82 -1.23518 -4.87598 0
M  V30 16450 H 1496.52 -2.98116 -5.0636 0
M  V30 16451 H 1498.05 -2.27108 -5.66793 0
M  V30 16452 H 1499.46 -3.95831 -4.14718 0
M  V30 16453 H 1497.86 -4.65981 -3.7813 0
M  V30 16454 H 1498.93 -4.1845 -2.45006 0
M  V30 16455 N 1500.27 0.920374 -1.27933 0
M  V30 16456 C 1501.52 1.66883 -1.147 0
M  V30 16457 C 1501.85 1.92082 0.305732 0
M  V30 16458 O 1501.1 1.51449 1.23942 0
M  V30 16459 C 1501.4 3.03725 -1.88377 0
M  V30 16460 C 1501.07 2.9821 -3.38203 0
M  V30 16461 C 1499.73 2.96413 -3.79068 0
M  V30 16462 C 1502.08 2.88952 -4.3377 0
M  V30 16463 C 1499.41 2.83151 -5.13851 0
M  V30 16464 C 1501.76 2.77231 -5.68618 0
M  V30 16465 C 1500.42 2.73788 -6.08766 0
M  V30 16466 H 1499.69 0.61067 -0.419718 0
M  V30 16467 H 1502.34 1.0728 -1.58629 0
M  V30 16468 H 1500.65 3.67075 -1.36978 0
M  V30 16469 H 1502.34 3.60527 -1.7556 0
M  V30 16470 H 1498.93 3.004 -3.05709 0
M  V30 16471 H 1503.12 2.89433 -4.03165 0
M  V30 16472 H 1498.37 2.78877 -5.44093 0
M  V30 16473 H 1502.55 2.69034 -6.42335 0
M  V30 16474 H 1500.17 2.63268 -7.13158 0
M  V30 16475 N 1501.75 1.10074 1.1279 0
M  V30 16476 C 1502.68 0.768146 2.20503 0
M  V30 16477 C 1503.66 -0.257199 1.68144 0
M  V30 16478 O 1504.85 -0.12379 1.93805 0
M  V30 16479 C 1501.98 0.195125 3.46751 0
M  V30 16480 C 1500.93 1.15074 4.1224 0
M  V30 16481 C 1500.26 0.439098 5.32894 0
M  V30 16482 C 1501.56 2.49584 4.58808 0
M  V30 16483 H 1503.25 1.66876 2.48581 0
M  V30 16484 H 1500.8 0.803806 1.19478 0
M  V30 16485 H 1502.75 -0.0496695 4.21371 0
M  V30 16486 H 1501.47 -0.740717 3.1809 0
M  V30 16487 H 1500.13 1.38092 3.39597 0
M  V30 16488 H 1499.78 -0.501096 5.00498 0
M  V30 16489 H 1499.48 1.07632 5.77658 0
M  V30 16490 H 1501 0.202761 6.10263 0
M  V30 16491 H 1502.42 2.30736 5.24818 0
M  V30 16492 H 1500.81 3.09157 5.14336 0
M  V30 16493 H 1501.88 3.09857 3.72984 0
M  V30 16494 N 1503.23 -1.30138 0.888926 0
M  V30 16495 C 1504.46 -2.00143 0.524437 0
M  V30 16496 C 1504.87 -1.66608 -0.888093 0
M  V30 16497 O 1504.23 -0.905326 -1.58462 0
M  V30 16498 C 1504.28 -3.54769 0.694327 0
M  V30 16499 O 1504 -3.87112 2.05125 0
M  V30 16500 C 1505.5 -4.42045 0.333354 0
M  V30 16501 H 1502.72 -0.639775 0.202309 0
M  V30 16502 H 1505.26 -1.65929 1.19531 0
M  V30 16503 H 1503.42 -3.87335 0.0707712 0
M  V30 16504 H 1503.83 -4.81807 2.07275 0
M  V30 16505 H 1505.31 -5.49702 0.503107 0
M  V30 16506 H 1505.78 -4.33109 -0.728893 0
M  V30 16507 H 1506.39 -4.14931 0.933398 0
M  V30 16508 N 1504.71 -0.650285 -1.43559 0
M  V30 16509 C 1505.93 -0.168483 -2.06715 0
M  V30 16510 C 1506.36 1.15576 -1.48404 0
M  V30 16511 O 1505.71 1.71333 -0.592842 0
M  V30 16512 C 1505.76 -0.0877095 -3.60493 0
M  V30 16513 O 1504.87 0.950915 -4.01287 0
M  V30 16514 H 1504.21 -0.0935281 -0.65738 0
M  V30 16515 H 1506.74 -0.892381 -1.84113 0
M  V30 16516 H 1506.75 0.0965825 -4.07886 0
M  V30 16517 H 1505.42 -1.05442 -4.02312 0
M  V30 16518 H 1504 0.739648 -3.65491 0
M  V30 16519 N 1506.18 1.52647 -0.392018 0
M  V30 16520 C 1507.43 2.01912 0.18958 0
M  V30 16521 C 1507.76 1.27786 1.46234 0
M  V30 16522 O 1507.04 0.379124 1.90769 0
M  V30 16523 C 1507.32 3.57217 0.454734 0
M  V30 16524 C 1507.17 4.4201 -0.833501 0
M  V30 16525 C 1508.49 4.22146 1.24421 0
M  V30 16526 H 1505.61 0.733909 0.0674281 0
M  V30 16527 H 1508.25 1.82685 -0.52212 0
M  V30 16528 H 1506.4 3.73731 1.06101 0
M  V30 16529 H 1508.08 4.37242 -1.47027 0
M  V30 16530 H 1506.32 4.08912 -1.44823 0
M  V30 16531 H 1506.99 5.48701 -0.602585 0
M  V30 16532 H 1509.47 4.09627 0.731093 0
M  V30 16533 H 1508.34 5.30786 1.39848 0
M  V30 16534 H 1508.6 3.7996 2.26016 0
M  V30 16535 N 1507.66 0.121921 1.57128 0
M  V30 16536 C 1508.57 -0.840825 2.19014 0
M  V30 16537 C 1509.59 -1.29051 1.16712 0
M  V30 16538 O 1510.76 -1.35289 1.49194 0
M  V30 16539 C 1507.83 -2.07204 2.7797 0
M  V30 16540 C 1506.89 -1.67399 3.95318 0
M  V30 16541 C 1506.12 -2.84652 4.51452 0
M  V30 16542 O 1506.35 -4.00161 4.06482 0
M  V30 16543 O 1505.28 -2.61568 5.42094 0
M  V30 16544 H 1509.11 -0.344146 3.01744 0
M  V30 16545 H 1506.69 -0.103841 1.49039 0
M  V30 16546 H 1508.57 -2.79307 3.1554 0
M  V30 16547 H 1507.25 -2.55872 1.9827 0
M  V30 16548 H 1506.16 -0.92395 3.62511 0
M  V30 16549 H 1507.49 -1.2347 4.76462 0
M  V30 16550 N 1509.14 -1.56867 -0.151857 0
M  V30 16551 C 1510.55 -1.72573 -0.712411 0
M  V30 16552 C 1510.9 -0.735557 -1.8189 0
M  V30 16553 O 1510.03 0.09888 -2.16174 0
M  V30 16554 C 1510.62 -3.12906 -1.29905 0
M  V30 16555 C 1509.18 -3.30231 -1.80623 0
M  V30 16556 C 1508.33 -2.68507 -0.692781 0
M  V30 16557 H 1511.28 -1.58528 0.0737603 0
M  V30 16558 H 1511.3 -3.12636 -2.16885 0
M  V30 16559 H 1510.81 -3.84949 -0.493509 0
M  V30 16560 H 1508.91 -2.63176 -2.6376 0
M  V30 16561 H 1509.03 -4.38141 -1.93828 0
M  V30 16562 H 1507.39 -2.28842 -1.11818 0
M  V30 16563 H 1508.17 -3.43151 0.10124 0
M  V30 16564 N 1510.62 0.421051 -1.51871 0
M  V30 16565 C 1511.55 1.51928 -1.77313 0
M  V30 16566 C 1512.53 1.58258 -0.623579 0
M  V30 16567 O 1513.71 1.73724 -0.867967 0
M  V30 16568 C 1510.84 2.89865 -1.913 0
M  V30 16569 C 1509.8 2.98391 -3.06834 0
M  V30 16570 C 1509.12 4.38466 -3.06026 0
M  V30 16571 C 1510.42 2.7097 -4.46511 0
M  V30 16572 H 1512.12 1.30889 -2.69274 0
M  V30 16573 H 1509.66 0.628229 -1.29573 0
M  V30 16574 H 1511.62 3.66669 -2.07682 0
M  V30 16575 H 1510.34 3.12172 -0.960011 0
M  V30 16576 H 1509 2.24029 -2.90184 0
M  V30 16577 H 1508.65 4.57764 -2.08472 0
M  V30 16578 H 1508.35 4.45097 -3.83618 0
M  V30 16579 H 1509.87 5.17221 -3.24522 0
M  V30 16580 H 1511.29 3.37501 -4.63428 0
M  V30 16581 H 1509.68 2.88992 -5.25931 0
M  V30 16582 H 1510.75 1.66476 -4.55427 0
M  V30 16583 N 1512.1 1.42293 0.677538 0
M  V30 16584 C 1513.34 1.42616 1.4376 0
M  V30 16585 C 1513.67 0.0416268 1.94455 0
M  V30 16586 O 1512.93 -0.949544 1.7112 0
M  V30 16587 C 1513.23 2.3951 2.65273 0
M  V30 16588 C 1512.89 3.85952 2.33135 0
M  V30 16589 C 1511.55 4.25842 2.24081 0
M  V30 16590 C 1513.91 4.78337 2.06987 0
M  V30 16591 C 1511.23 5.561 1.87001 0
M  V30 16592 C 1513.59 6.08934 1.71411 0
M  V30 16593 C 1512.25 6.47826 1.60865 0
M  V30 16594 H 1511.52 0.521869 0.526055 0
M  V30 16595 H 1514.17 1.75214 0.772797 0
M  V30 16596 H 1512.47 2.00229 3.36773 0
M  V30 16597 H 1514.17 2.37025 3.2345 0
M  V30 16598 H 1510.76 3.54369 2.41083 0
M  V30 16599 H 1514.94 4.48308 2.12916 0
M  V30 16600 H 1510.2 5.85097 1.77403 0
M  V30 16601 H 1514.37 6.80009 1.50203 0
M  V30 16602 H 1512 7.48669 1.31902 0
M  V30 16603 N 1513.57 -0.913576 1.28419 0
M  V30 16604 C 1514.99 -1.47782 1.14094 0
M  V30 16605 C 1515.34 -1.94347 -0.269004 0
M  V30 16606 O 1514.46 -1.82474 -1.16328 0
M  V30 16607 C 1515.06 -2.6859 2.06507 0
M  V30 16608 C 1513.62 -3.21193 1.96245 0
M  V30 16609 C 1512.76 -1.939 1.98238 0
M  V30 16610 H 1515.71 -0.726271 1.41106 0
M  V30 16611 H 1515.73 -3.43858 1.62916 0
M  V30 16612 H 1515.25 -2.34668 3.09116 0
M  V30 16613 H 1513.35 -3.5984 0.966737 0
M  V30 16614 H 1513.46 -3.8643 2.83211 0
M  V30 16615 H 1511.82 -2.11006 1.42648 0
M  V30 16616 H 1512.61 -1.62273 3.02527 0
M  V30 16617 N 1515.05 -1.1067 -1.12204 0
M  V30 16618 C 1516.47 -0.838988 -1.35769 0
M  V30 16619 C 1516.67 0.540345 -1.9412 0
M  V30 16620 O 1515.72 1.29274 -2.16897 0
M  V30 16621 C 1517.04 -1.94065 -2.29694 0
M  V30 16622 C 1518.59 -1.96938 -2.43279 0
M  V30 16623 C 1519.06 -3.06284 -3.4052 0
M  V30 16624 N 1520.55 -3.05607 -3.48079 0
M  V30 16625 C 1521.29 -3.86855 -4.23238 0
M  V30 16626 N 1520.78 -4.78046 -5.01442 0
M  V30 16627 N 1522.58 -3.75064 -4.18669 0
M  V30 16628 H 1514.73 -1.99575 -0.726878 0
M  V30 16629 H 1516.99 -0.867423 -0.382467 0
M  V30 16630 H 1516.7 -2.93356 -1.93997 0
M  V30 16631 H 1516.57 -1.82992 -3.29839 0
M  V30 16632 H 1518.96 -0.982774 -2.78254 0
M  V30 16633 H 1519.04 -2.12087 -1.43014 0
M  V30 16634 H 1518.68 -4.05165 -3.06273 0
M  V30 16635 H 1518.61 -2.88376 -4.40621 0
M  V30 16636 H 1521.1 -2.39531 -2.9229 0
M  V30 16637 H 1521.42 -5.36594 -5.56136 0
M  V30 16638 H 1519.76 -4.82073 -5.0063 0
M  V30 16639 H 1522.95 -3.03172 -3.56657 0
M  V30 16640 H 1523.12 -4.38618 -4.76988 0
M  V30 16641 N 1516.53 1.29665 -0.895815 0
M  V30 16642 C 1517.78 1.95716 -0.519752 0
M  V30 16643 C 1518.11 1.7065 0.933212 0
M  V30 16644 O 1517.36 1.01014 1.67615 0
M  V30 16645 C 1517.66 3.49355 -0.754025 0
M  V30 16646 C 1517.33 3.94491 -2.18375 0
M  V30 16647 C 1515.99 4.06526 -2.57468 0
M  V30 16648 C 1518.34 4.17874 -3.11498 0
M  V30 16649 C 1515.67 4.39311 -3.88874 0
M  V30 16650 C 1518.02 4.52132 -4.42447 0
M  V30 16651 C 1516.68 4.62376 -4.81419 0
M  V30 16652 H 1515.95 0.716176 -0.190191 0
M  V30 16653 H 1518.6 1.54333 -1.13373 0
M  V30 16654 H 1516.91 3.91758 -0.0570932 0
M  V30 16655 H 1518.6 3.98551 -0.442493 0
M  V30 16656 H 1515.19 3.85638 -1.87033 0
M  V30 16657 H 1519.38 4.08046 -2.8251 0
M  V30 16658 H 1514.63 4.45444 -4.18795 0
M  V30 16659 H 1518.81 4.69175 -5.14634 0
M  V30 16660 H 1516.43 4.87535 -5.83278 0
M  V30 16661 N 1518.01 0.657889 1.43212 0
M  V30 16662 C 1518.94 -0.0172114 2.33494 0
M  V30 16663 C 1519.92 -0.807087 1.49733 0
M  V30 16664 O 1521.1 -0.767631 1.78385 0
M  V30 16665 C 1518.23 -0.981029 3.33156 0
M  V30 16666 C 1517.19 -0.30094 4.26941 0
M  V30 16667 C 1516.51 -1.37653 5.16678 0
M  V30 16668 C 1517.81 0.809572 5.15988 0
M  V30 16669 H 1519.51 0.736749 2.90194 0
M  V30 16670 H 1517.05 0.355744 1.39537 0
M  V30 16671 H 1519.01 -1.46226 3.95216 0
M  V30 16672 H 1517.73 -1.76621 2.74723 0
M  V30 16673 H 1516.39 0.159893 3.66251 0
M  V30 16674 H 1516.04 -2.15326 4.54581 0
M  V30 16675 H 1515.74 -0.926704 5.80246 0
M  V30 16676 H 1517.26 -1.85903 5.81612 0
M  V30 16677 H 1518.68 0.410297 5.7183 0
M  V30 16678 H 1517.07 1.18415 5.88301 0
M  V30 16679 H 1518.14 1.66558 4.55397 0
M  V30 16680 N 1519.49 -1.52437 0.400108 0
M  V30 16681 C 1520.71 -2.0661 -0.180861 0
M  V30 16682 C 1521.14 -1.269 -1.38845 0
M  V30 16683 O 1520.49 -0.296862 -1.78853 0
M  V30 16684 C 1520.54 -3.56851 -0.518595 0
M  V30 16685 O 1519.65 -3.79634 -1.61095 0
M  V30 16686 H 1518.99 -0.663752 -0.0181348 0
M  V30 16687 H 1521.52 -1.96479 0.570702 0
M  V30 16688 H 1521.53 -4.00478 -0.779817 0
M  V30 16689 H 1520.2 -4.14302 0.364216 0
M  V30 16690 H 1518.78 -3.47892 -1.3426 0
M  V30 16691 N 1520.96 -0.130252 -1.57061 0
M  V30 16692 C 1521.87 0.829198 -2.19457 0
M  V30 16693 C 1522.89 1.2843 -1.17395 0
M  V30 16694 O 1524.07 1.34496 -1.49909 0
M  V30 16695 C 1521.13 2.05727 -2.79065 0
M  V30 16696 C 1520.19 1.65301 -3.962 0
M  V30 16697 C 1519.43 2.82253 -4.52956 0
M  V30 16698 O 1519.65 3.97999 -4.08598 0
M  V30 16699 O 1518.58 2.5869 -5.43473 0
M  V30 16700 H 1522.41 0.328139 -3.01922 0
M  V30 16701 H 1519.99 0.0959361 -1.49092 0
M  V30 16702 H 1521.88 2.7763 -3.17017 0
M  V30 16703 H 1520.55 2.54817 -1.99624 0
M  V30 16704 H 1519.46 0.904712 -3.62996 0
M  V30 16705 H 1520.79 1.20942 -4.7711 0
M  V30 16706 N 1522.44 1.56945 0.143535 0
M  V30 16707 C 1523.37 2.0156 1.17881 0
M  V30 16708 C 1524.35 0.895744 1.44604 0
M  V30 16709 O 1525.54 1.16379 1.55466 0
M  V30 16710 C 1522.67 2.39915 2.51114 0
M  V30 16711 C 1521.62 3.55117 2.38905 0
M  V30 16712 C 1520.95 3.79296 3.7688 0
M  V30 16713 C 1522.25 4.87668 1.87021 0
M  V30 16714 H 1523.94 2.88296 0.80783 0
M  V30 16715 H 1521.49 1.38698 0.387149 0
M  V30 16716 H 1523.44 2.69727 3.23767 0
M  V30 16717 H 1522.17 1.5012 2.90055 0
M  V30 16718 H 1520.83 3.25476 1.68703 0
M  V30 16719 H 1520.47 2.86747 4.13262 0
M  V30 16720 H 1520.17 4.56827 3.69571 0
M  V30 16721 H 1521.7 4.11537 4.51076 0
M  V30 16722 H 1523.11 5.16176 2.4947 0
M  V30 16723 H 1521.51 5.69029 1.90594 0
M  V30 16724 H 1522.58 4.77811 0.82611 0
M  V30 16725 N 1523.92 -0.412991 1.52093 0
M  V30 16726 C 1525.17 -1.1603 1.65962 0
M  V30 16727 C 1525.5 -1.90598 0.387652 0
M  V30 16728 O 1524.75 -1.85308 -0.629243 0
M  V30 16729 C 1525.05 -2.18321 2.82968 0
M  V30 16730 C 1524.72 -1.60589 4.21334 0
M  V30 16731 C 1523.38 -1.44568 4.5897 0
M  V30 16732 C 1525.73 -1.18388 5.07576 0
M  V30 16733 C 1523.06 -0.848584 5.80531 0
M  V30 16734 C 1525.41 -0.600985 6.29739 0
M  V30 16735 C 1524.07 -0.42788 6.66127 0
M  V30 16736 H 1523.34 -0.424583 0.607297 0
M  V30 16737 H 1525.99 -0.448028 1.86185 0
M  V30 16738 H 1524.3 -2.95678 2.57063 0
M  V30 16739 H 1525.99 -2.76009 2.90895 0
M  V30 16740 H 1522.58 -1.7404 3.91673 0
M  V30 16741 H 1526.77 -1.29576 4.79086 0
M  V30 16742 H 1522.02 -0.702447 6.07351 0
M  V30 16743 H 1526.2 -0.265583 6.95893 0
M  V30 16744 H 1523.82 0.0369013 7.60191 0
M  V30 16745 N 1525.4 -1.4265 -0.669982 0
M  V30 16746 C 1526.62 -1.46992 -1.46315 0
M  V30 16747 C 1527.05 -0.0840655 -1.87912 0
M  V30 16748 O 1526.41 0.918554 -1.56308 0
M  V30 16749 C 1526.46 -2.40663 -2.6854 0
M  V30 16750 O 1525.56 -1.88132 -3.66988 0
M  V30 16751 H 1524.9 -0.497844 -0.439372 0
M  V30 16752 H 1527.43 -1.8739 -0.821348 0
M  V30 16753 H 1527.44 -2.57405 -3.16554 0
M  V30 16754 H 1526.12 -3.41346 -2.37604 0
M  V30 16755 H 1524.69 -1.80969 -3.26044 0
M  V30 16756 N 1526.88 0.906753 -1.28902 0
M  V30 16757 C 1528.1 1.69547 -1.19452 0
M  V30 16758 C 1528.53 1.86531 0.242418 0
M  V30 16759 O 1527.89 1.38052 1.17521 0
M  V30 16760 C 1527.93 3.06139 -1.90556 0
M  V30 16761 O 1527.04 3.9401 -1.21779 0
M  V30 16762 H 1526.38 0.518902 -0.41429 0
M  V30 16763 H 1528.91 1.13327 -1.70347 0
M  V30 16764 H 1528.92 3.56326 -1.98736 0
M  V30 16765 H 1527.59 2.93094 -2.95074 0
M  V30 16766 H 1526.17 3.52444 -1.2181 0
M  V30 16767 N 1528.36 1.11264 1.11616 0
M  V30 16768 C 1529.58 0.88306 1.87661 0
M  V30 16769 C 1530.01 -0.561586 1.79521 0
M  V30 16770 O 1529.36 -1.3964 1.1563 0
M  V30 16771 C 1529.41 1.34698 3.34498 0
M  V30 16772 O 1528.52 0.517512 4.0914 0
M  V30 16773 H 1527.86 0.318233 0.582772 0
M  V30 16774 H 1530.39 1.48164 1.41098 0
M  V30 16775 H 1530.4 1.34068 3.85344 0
M  V30 16776 H 1529.07 2.39896 3.39739 0
M  V30 16777 H 1527.65 0.589751 3.68207 0
M  V30 16778 N 1529.83 -1.29188 0.902679 0
M  V30 16779 C 1531.08 -1.95438 0.530124 0
M  V30 16780 C 1531.41 -1.71142 -0.924149 0
M  V30 16781 O 1530.66 -1.01901 -1.67077 0
M  V30 16782 C 1530.96 -3.48951 0.772542 0
M  V30 16783 C 1530.63 -3.93328 2.20464 0
M  V30 16784 C 1529.29 -4.05155 2.59621 0
M  V30 16785 C 1531.64 -4.16216 3.13709 0
M  V30 16786 C 1528.97 -4.37242 3.91198 0
M  V30 16787 C 1531.32 -4.49779 4.44839 0
M  V30 16788 C 1529.99 -4.59817 4.83865 0
M  V30 16789 H 1529.26 -0.715158 0.193986 0
M  V30 16790 H 1531.9 -1.5373 1.1419 0
M  V30 16791 H 1530.21 -3.91723 0.0778683 0
M  V30 16792 H 1531.91 -3.98311 0.463623 0
M  V30 16793 H 1528.5 -3.84641 1.89075 0
M  V30 16794 H 1532.68 -4.06542 2.8467 0
M  V30 16795 H 1527.94 -4.43217 4.21152 0
M  V30 16796 H 1532.11 -4.66439 5.17115 0
M  V30 16797 H 1529.74 -4.84435 5.85856 0
M  V30 16798 N 1531.31 -0.665475 -1.42861 0
M  V30 16799 C 1532.24 0.00482845 -2.335 0
M  V30 16800 C 1533.22 0.799135 -1.50159 0
M  V30 16801 O 1534.41 0.75816 -1.78789 0
M  V30 16802 C 1531.54 0.963347 -3.33672 0
M  V30 16803 C 1530.49 0.278294 -4.27094 0
M  V30 16804 C 1529.82 1.34911 -5.174 0
M  V30 16805 C 1531.12 -0.836925 -5.15551 0
M  V30 16806 H 1532.81 -0.752129 -2.89799 0
M  V30 16807 H 1530.36 -0.363139 -1.39346 0
M  V30 16808 H 1532.31 1.44128 -3.95986 0
M  V30 16809 H 1531.03 1.75161 -2.75656 0
M  V30 16810 H 1529.69 -0.179314 -3.66161 0
M  V30 16811 H 1529.34 2.12912 -4.55716 0
M  V30 16812 H 1529.04 0.895919 -5.8073 0
M  V30 16813 H 1530.57 1.82816 -5.8259 0
M  V30 16814 H 1531.98 -0.440617 -5.71604 0
M  V30 16815 H 1530.38 -1.21533 -5.87665 0
M  V30 16816 H 1531.45 -1.6897 -4.54507 0
M  V30 16817 N 1532.79 1.52222 -0.408187 0
M  V30 16818 C 1534.04 2.01404 0.167574 0
M  V30 16819 C 1534.36 1.29572 1.45726 0
M  V30 16820 O 1533.63 0.421363 1.91315 0
M  V30 16821 H 1532.21 0.744174 0.0649156 0
M  V30 16822 H 1534.87 1.87148 -0.544212 0
M  V30 16823 H 1533.97 3.09966 0.36436 0
M  V30 16824 N 1534.27 0.138579 1.5699 0
M  V30 16825 C 1535.52 -0.514545 1.95026 0
M  V30 16826 C 1535.83 -1.66565 1.02544 0
M  V30 16827 O 1537.04 -2.38284 1.30126 0
M  V30 16828 C 1535.49 -0.966746 3.46673 0
M  V30 16829 C 1535.1 0.156969 4.47725 0
M  V30 16830 C 1536.84 -1.59014 3.93592 0
M  V30 16831 C 1534.75 -0.313031 5.90571 0
M  V30 16832 H 1533.68 -0.195991 0.728082 0
M  V30 16833 H 1536.33 0.221575 1.82157 0
M  V30 16834 H 1534.71 -1.75788 3.54845 0
M  V30 16835 H 1535.89 0.933728 4.51241 0
M  V30 16836 H 1534.2 0.688238 4.10673 0
M  V30 16837 H 1536.8 -1.95326 4.97747 0
M  V30 16838 H 1537.14 -2.47595 3.34668 0
M  V30 16839 H 1537.68 -0.864061 3.88302 0
M  V30 16840 H 1534.41 0.5372 6.53295 0
M  V30 16841 H 1533.93 -1.05585 5.90434 0
M  V30 16842 H 1535.61 -0.767826 6.42428 0
M  V30 16843 N 1535.75 -1.57019 -0.13521 0
M  V30 16844 C 1537.16 -1.73319 -0.694067 0
M  V30 16845 C 1537.51 -0.754808 -1.811 0
M  V30 16846 O 1536.63 0.0759463 -2.16267 0
M  V30 16847 C 1537.23 -3.14266 -1.26579 0
M  V30 16848 C 1535.79 -3.32128 -1.7711 0
M  V30 16849 C 1534.93 -2.69226 -0.664263 0
M  V30 16850 H 1537.88 -1.58441 0.0905702 0
M  V30 16851 H 1537.91 -3.14919 -2.13557 0
M  V30 16852 H 1537.42 -3.85451 -0.452652 0
M  V30 16853 H 1535.52 -2.65959 -2.60953 0
M  V30 16854 H 1535.63 -4.40172 -1.8917 0
M  V30 16855 H 1534 -2.30016 -1.09384 0
M  V30 16856 H 1534.78 -3.43024 0.13763 0
M  V30 16857 N 1537.22 0.404919 -1.52309 0
M  V30 16858 C 1538.13 1.51822 -1.7885 0
M  V30 16859 C 1539.15 1.60403 -0.674307 0
M  V30 16860 O 1540.33 1.77038 -0.960175 0
M  V30 16861 C 1537.39 2.87516 -1.9374 0
M  V30 16862 C 1536.45 2.88787 -3.17648 0
M  V30 16863 C 1535.69 4.18009 -3.31819 0
M  V30 16864 O 1535.91 5.12129 -2.51158 0
M  V30 16865 O 1534.84 4.26222 -4.24992 0
M  V30 16866 H 1538.67 1.32329 -2.73354 0
M  V30 16867 H 1536.25 0.591193 -1.37205 0
M  V30 16868 H 1538.14 3.6799 -2.05333 0
M  V30 16869 H 1536.81 3.07068 -1.02425 0
M  V30 16870 H 1535.72 2.07152 -3.11511 0
M  V30 16871 H 1537.05 2.74185 -4.08758 0
M  V30 16872 N 1538.7 1.43003 0.662408 0
M  V30 16873 C 1539.93 1.47766 1.45533 0
M  V30 16874 C 1540.35 0.0940298 1.87865 0
M  V30 16875 O 1539.71 -0.910252 1.56793 0
M  V30 16876 C 1539.76 2.42084 2.6726 0
M  V30 16877 O 1538.86 1.90076 3.65985 0
M  V30 16878 H 1538.2 0.500167 0.436725 0
M  V30 16879 H 1540.73 1.87823 0.811399 0
M  V30 16880 H 1540.74 2.5908 3.15185 0
M  V30 16881 H 1539.42 3.42601 2.3579 0
M  V30 16882 H 1538 1.82695 3.2508 0
M  V30 16883 N 1540.18 -0.899904 1.29381 0
M  V30 16884 C 1541.43 -1.64502 1.16713 0
M  V30 16885 C 1541.74 -1.93577 -0.280563 0
M  V30 16886 O 1542.95 -2.66305 -0.528563 0
M  V30 16887 C 1541.4 -2.96414 2.04125 0
M  V30 16888 C 1541.01 -2.74935 3.53716 0
M  V30 16889 C 1542.76 -3.74337 2.0018 0
M  V30 16890 C 1540.66 -4.02571 4.33232 0
M  V30 16891 H 1539.59 -0.617121 0.433218 0
M  V30 16892 H 1542.24 -0.997521 1.54019 0
M  V30 16893 H 1540.63 -3.62375 1.59687 0
M  V30 16894 H 1541.8 -2.17567 4.06203 0
M  V30 16895 H 1540.12 -2.10407 3.5933 0
M  V30 16896 H 1542.71 -4.6897 2.56849 0
M  V30 16897 H 1543.06 -4.04559 0.981735 0
M  V30 16898 H 1543.59 -3.15216 2.4266 0
M  V30 16899 H 1540.33 -3.77516 5.35875 0
M  V30 16900 H 1539.85 -4.59499 3.85514 0
M  V30 16901 H 1541.53 -4.70719 4.43884 0
M  V30 16902 N 1541.66 -1.11854 -1.11024 0
M  V30 16903 C 1542.91 -0.864814 -1.82219 0
M  V30 16904 C 1543.22 0.611349 -1.85801 0
M  V30 16905 O 1544.43 0.981475 -2.53139 0
M  V30 16906 C 1542.88 -1.49745 -3.27268 0
M  V30 16907 C 1542.49 -3.00796 -3.32003 0
M  V30 16908 C 1544.23 -1.32374 -4.03333 0
M  V30 16909 C 1542.14 -3.57023 -4.71475 0
M  V30 16910 H 1541.07 -0.319877 -0.682784 0
M  V30 16911 H 1543.72 -1.34431 -1.24903 0
M  V30 16912 H 1542.1 -0.94562 -3.84544 0
M  V30 16913 H 1543.28 -3.6242 -2.84585 0
M  V30 16914 H 1541.59 -3.17493 -2.6942 0
M  V30 16915 H 1544.19 -1.7181 -5.06345 0
M  V30 16916 H 1544.53 -0.26676 -4.15444 0
M  V30 16917 H 1545.07 -1.84444 -3.52456 0
M  V30 16918 H 1541.81 -4.62453 -4.64562 0
M  V30 16919 H 1541.33 -3.00172 -5.19285 0
M  V30 16920 H 1543 -3.5572 -5.40437 0
M  V30 16921 N 1543.14 1.28707 -0.909517 0
M  V30 16922 C 1544.38 1.94768 -0.539413 0
M  V30 16923 C 1544.71 1.7198 0.919133 0
M  V30 16924 O 1543.98 1.0571 1.64931 0
M  V30 16925 H 1542.56 0.720693 -0.196496 0
M  V30 16926 H 1545.22 1.56772 -1.15795 0
M  V30 16927 H 1544.31 3.03436 -0.730281 0
M  V30 16928 N 1544.61 0.673042 1.42506 0
M  V30 16929 C 1545.54 0.00755467 2.33499 0
M  V30 16930 C 1546.53 -0.791161 1.50581 0
M  V30 16931 O 1547.71 -0.748668 1.79189 0
M  V30 16932 C 1544.84 -0.945638 3.34178 0
M  V30 16933 C 1543.79 -0.25564 4.27236 0
M  V30 16934 C 1543.12 -1.32165 5.18109 0
M  V30 16935 C 1544.42 0.864254 5.151 0
M  V30 16936 H 1546.11 0.767487 2.89396 0
M  V30 16937 H 1543.66 0.370524 1.39151 0
M  V30 16938 H 1545.61 -1.42026 3.96745 0
M  V30 16939 H 1544.34 -1.73697 2.76581 0
M  V30 16940 H 1543 0.19873 3.66061 0
M  V30 16941 H 1542.64 -2.10492 4.56839 0
M  V30 16942 H 1542.34 -0.865109 5.81197 0
M  V30 16943 H 1543.87 -1.79724 5.83551 0
M  V30 16944 H 1545.28 0.470924 5.71363 0
M  V30 16945 H 1543.68 1.24648 5.87012 0
M  V30 16946 H 1544.75 1.71378 4.53605 0
M  V30 16947 N 1546.09 -1.52004 0.416254 0
M  V30 16948 C 1547.34 -2.01076 -0.158591 0
M  V30 16949 C 1547.65 -1.30598 -1.45614 0
M  V30 16950 O 1548.86 -1.70525 -2.11267 0
M  V30 16951 C 1547.32 -3.58354 -0.333179 0
M  V30 16952 C 1546.92 -4.37753 0.952696 0
M  V30 16953 C 1548.67 -4.15637 -0.86293 0
M  V30 16954 C 1546.58 -5.8669 0.744905 0
M  V30 16955 H 1545.51 -0.75136 -0.0630423 0
M  V30 16956 H 1548.16 -1.75288 0.542791 0
M  V30 16957 H 1546.54 -3.805 -1.09706 0
M  V30 16958 H 1547.71 -4.27364 1.72328 0
M  V30 16959 H 1546.03 -3.91823 1.40939 0
M  V30 16960 H 1548.62 -5.24596 -1.03454 0
M  V30 16961 H 1548.97 -3.73449 -1.8396 0
M  V30 16962 H 1549.5 -3.97486 -0.157918 0
M  V30 16963 H 1546.24 -6.3325 1.69334 0
M  V30 16964 H 1545.76 -5.99798 0.0137458 0
M  V30 16965 H 1547.44 -6.45824 0.389851 0
M  V30 16966 N 1547.57 -0.146903 -1.56914 0
M  V30 16967 C 1548.5 0.823803 -2.13883 0
M  V30 16968 C 1549.52 1.21081 -1.08826 0
M  V30 16969 O 1550.7 1.15491 -1.36103 0
M  V30 16970 C 1547.8 2.11686 -2.64655 0
M  V30 16971 C 1546.98 1.89723 -3.94112 0
M  V30 16972 C 1546.04 3.03016 -4.30195 0
M  V30 16973 O 1545.06 2.74711 -4.9852 0
M  V30 16974 N 1546.26 4.30187 -3.89768 0
M  V30 16975 H 1549.03 0.336904 -2.978 0
M  V30 16976 H 1546.59 0.0366704 -1.61858 0
M  V30 16977 H 1548.58 2.86525 -2.85807 0
M  V30 16978 H 1547.15 2.51639 -1.85464 0
M  V30 16979 H 1546.37 0.989208 -3.81587 0
M  V30 16980 H 1547.66 1.72387 -4.78707 0
M  V30 16981 H 1547.06 4.56051 -3.34715 0
M  V30 16982 H 1545.62 5.01807 -4.15972 0
M  V30 16983 N 1549.05 1.57088 0.126881 0
M  V30 16984 C 1550 2.00736 1.17506 0
M  V30 16985 C 1550.99 0.902986 1.43327 0
M  V30 16986 O 1552.2 1.08819 1.43382 0
M  V30 16987 H 1548.57 0.639285 0.396003 0
M  V30 16988 H 1550.54 2.88015 0.780373 0
M  V30 16989 C 1549.29 2.42096 2.49569 0
M  V30 16990 H 1548.61 3.26639 2.30536 0
M  V30 16991 H 1550.05 2.76442 3.2149 0
M  V30 16992 C 1548.51 1.28148 3.11576 0
M  V30 16993 O 1549.04 0.593145 3.97297 0
M  V30 16994 N 1547.25 1.04055 2.71332 0
M  V30 16995 H 1546.8 1.60208 2.0172 0
M  V30 16996 H 1546.75 0.280075 3.1315 0
M  V30 16997 N 1550.53 -0.396836 1.52522 0
M  V30 16998 C 1551.75 -1.16857 1.71345 0
M  V30 16999 C 1552.18 -1.83178 0.427465 0
M  V30 17000 O 1551.53 -1.7051 -0.616123 0
M  V30 17001 C 1551.58 -2.19817 2.85855 0
M  V30 17002 O 1550.69 -3.26233 2.52281 0
M  V30 17003 H 1550.03 -0.340554 0.570017 0
M  V30 17004 H 1552.56 -0.463532 1.9928 0
M  V30 17005 H 1552.57 -2.63944 3.11123 0
M  V30 17006 H 1551.24 -1.70931 3.79151 0
M  V30 17007 H 1549.82 -2.87299 2.37726 0
M  V30 17008 N 1552.01 -1.43353 -0.654814 0
M  V30 17009 C 1553.42 -1.26718 -0.970297 0
M  V30 17010 C 1553.62 -0.185747 -2.00642 0
M  V30 17011 O 1552.68 0.436357 -2.48701 0
M  V30 17012 C 1553.99 -2.63095 -1.45608 0
M  V30 17013 C 1555.54 -2.70613 -1.57281 0
M  V30 17014 C 1556.01 -4.07404 -2.0925 0
M  V30 17015 N 1557.5 -4.09461 -2.16555 0
M  V30 17016 C 1558.24 -5.12135 -2.57885 0
M  V30 17017 N 1557.74 -6.25185 -2.98523 0
M  V30 17018 N 1559.53 -4.9949 -2.57811 0
M  V30 17019 H 1551.68 -2.12378 0.0308331 0
M  V30 17020 H 1553.94 -0.946744 -0.0487843 0
M  V30 17021 H 1553.65 -3.43186 -0.769171 0
M  V30 17022 H 1553.52 -2.88381 -2.43138 0
M  V30 17023 H 1555.91 -1.90855 -2.25074 0
M  V30 17024 H 1555.99 -2.49094 -0.581879 0
M  V30 17025 H 1555.63 -4.87628 -1.4206 0
M  V30 17026 H 1555.56 -4.26287 -3.09172 0
M  V30 17027 H 1558.06 -3.27858 -1.87929 0
M  V30 17028 H 1558.37 -6.99362 -3.28804 0
M  V30 17029 H 1556.71 -6.28659 -2.96332 0
M  V30 17030 H 1559.9 -4.10238 -2.25438 0
M  V30 17031 H 1560.08 -5.79637 -2.89699 0
M  V30 17032 N 1553.48 0.89303 -1.29857 0
M  V30 17033 C 1554.71 1.67744 -1.21119 0
M  V30 17034 C 1555.13 1.87428 0.227198 0
M  V30 17035 O 1554.48 1.41605 1.15128 0
M  V30 17036 C 1554.53 3.05827 -1.92749 0
M  V30 17037 O 1554.26 2.87036 -3.30971 0
M  V30 17038 C 1555.76 4.00248 -1.9057 0
M  V30 17039 H 1552.98 0.523699 -0.4195 0
M  V30 17040 H 1555.52 1.1163 -1.71344 0
M  V30 17041 H 1553.68 3.58696 -1.46342 0
M  V30 17042 H 1554.09 3.74578 -3.6714 0
M  V30 17043 H 1555.56 4.9453 -2.45242 0
M  V30 17044 H 1556.04 4.30237 -0.882753 0
M  V30 17045 H 1556.65 3.53312 -2.36751 0
M  V30 17046 N 1554.96 1.12442 1.10429 0
M  V30 17047 C 1556.21 0.874466 1.81758 0
M  V30 17048 C 1556.52 -0.601487 1.86122 0
M  V30 17049 O 1557.73 -0.968037 2.53656 0
M  V30 17050 C 1556.19 1.51478 3.2647 0
M  V30 17051 C 1555.79 3.02552 3.30403 0
M  V30 17052 C 1557.54 1.34511 4.02625 0
M  V30 17053 C 1555.44 3.59518 4.69575 0
M  V30 17054 H 1554.37 0.323494 0.681078 0
M  V30 17055 H 1557.03 1.35091 1.24188 0
M  V30 17056 H 1555.41 0.966 3.84037 0
M  V30 17057 H 1556.58 3.63924 2.82659 0
M  V30 17058 H 1554.9 3.18917 2.67733 0
M  V30 17059 H 1557.49 1.74492 5.05427 0
M  V30 17060 H 1557.84 0.288788 4.15297 0
M  V30 17061 H 1558.37 1.86311 3.51473 0
M  V30 17062 H 1555.11 4.6491 4.62103 0
M  V30 17063 H 1554.63 3.02922 5.17686 0
M  V30 17064 H 1556.31 3.58581 5.38543 0
M  V30 17065 N 1556.44 -1.28223 0.91633 0
M  V30 17066 C 1557.86 -1.47281 0.614864 0
M  V30 17067 C 1558.06 -1.83197 -0.839111 0
M  V30 17068 O 1557.11 -1.9385 -1.61798 0
M  V30 17069 C 1558.42 -2.57373 1.55498 0
M  V30 17070 C 1559.97 -2.71241 1.56197 0
M  V30 17071 C 1560.45 -3.84479 2.48877 0
M  V30 17072 N 1561.94 -3.91837 2.47019 0
M  V30 17073 C 1562.67 -4.78846 3.15427 0
M  V30 17074 N 1562.17 -5.70427 3.93173 0
M  V30 17075 N 1563.96 -4.72478 3.04501 0
M  V30 17076 H 1556.11 -1.03191 1.85649 0
M  V30 17077 H 1558.38 -0.514213 0.796422 0
M  V30 17078 H 1558.08 -2.37747 2.5917 0
M  V30 17079 H 1557.96 -3.54527 1.28803 0
M  V30 17080 H 1560.34 -2.90254 0.532619 0
M  V30 17081 H 1560.42 -1.74609 1.86937 0
M  V30 17082 H 1560.07 -3.6622 3.51916 0
M  V30 17083 H 1560 -4.80514 2.15439 0
M  V30 17084 H 1562.49 -3.26344 1.90546 0
M  V30 17085 H 1562.8 -6.33653 4.42384 0
M  V30 17086 H 1561.15 -5.70259 3.97278 0
M  V30 17087 H 1564.34 -3.99925 2.43265 0
M  V30 17088 H 1564.51 -5.40073 3.58086 0
M  V30 17089 N 1557.92 -0.68059 -1.42147 0
M  V30 17090 C 1559.33 -0.350691 -1.55699 0
M  V30 17091 C 1559.53 1.1435 -1.6591 0
M  V30 17092 O 1558.59 1.92905 -1.62923 0
M  V30 17093 C 1559.9 -1.08608 -2.80401 0
M  V30 17094 C 1561.45 -1.06897 -2.9418 0
M  V30 17095 C 1561.93 -1.78581 -4.2175 0
M  V30 17096 N 1563.42 -1.75477 -4.28675 0
M  V30 17097 C 1564.15 -2.27794 -5.26211 0
M  V30 17098 N 1563.65 -2.88518 -6.29865 0
M  V30 17099 N 1565.44 -2.18135 -5.18048 0
M  V30 17100 H 1557.59 -1.64988 -1.33763 0
M  V30 17101 H 1559.85 -0.695411 -0.644289 0
M  V30 17102 H 1559.56 -2.14113 -2.79014 0
M  V30 17103 H 1559.43 -0.655022 -3.71469 0
M  V30 17104 H 1561.82 -0.0222464 -2.95092 0
M  V30 17105 H 1561.9 -1.53897 -2.04327 0
M  V30 17106 H 1561.55 -2.83225 -4.21599 0
M  V30 17107 H 1561.48 -1.29027 -5.10548 0
M  V30 17108 H 1563.97 -1.31191 -3.54397 0
M  V30 17109 H 1564.28 -3.26043 -7.00654 0
M  V30 17110 H 1562.63 -2.92589 -6.3041 0
M  V30 17111 H 1565.82 -1.7038 -4.35991 0
M  V30 17112 H 1565.99 -2.59213 -5.93896 0
M  V30 17113 N 1559.4 1.51781 -0.424309 0
M  V30 17114 C 1560.33 2.25144 0.429274 0
M  V30 17115 C 1561.34 1.2867 0.997389 0
M  V30 17116 O 1562.53 1.54514 0.893746 0
M  V30 17117 C 1559.63 2.98156 1.61109 0
M  V30 17118 C 1558.8 4.21623 1.16417 0
M  V30 17119 C 1557.86 4.77327 2.21462 0
M  V30 17120 O 1556.89 5.39511 1.8143 0
M  V30 17121 N 1558.09 4.60221 3.53803 0
M  V30 17122 H 1560.85 2.99036 -0.199438 0
M  V30 17123 H 1558.42 1.59919 -0.252492 0
M  V30 17124 H 1560.41 3.32312 2.30978 0
M  V30 17125 H 1558.98 2.27356 2.14541 0
M  V30 17126 H 1558.2 3.93109 0.293034 0
M  V30 17127 H 1559.49 5.01772 0.842767 0
M  V30 17128 H 1558.88 4.10661 3.89068 0
M  V30 17129 H 1557.44 4.98774 4.19604 0
M  V30 17130 N 1560.87 0.155222 1.56834 0
M  V30 17131 C 1562.12 -0.493826 1.96386 0
M  V30 17132 C 1562.45 -1.6433 1.04048 0
M  V30 17133 O 1561.7 -1.9557 0.0713123 0
M  V30 17134 C 1562 -1.03346 3.42132 0
M  V30 17135 C 1561.67 -0.00157215 4.509 0
M  V30 17136 C 1560.33 0.282068 4.80373 0
M  V30 17137 C 1562.68 0.699684 5.16482 0
M  V30 17138 C 1560.01 1.27263 5.72731 0
M  V30 17139 C 1562.36 1.67912 6.09908 0
M  V30 17140 C 1561.03 1.97037 6.37756 0
M  V30 17141 H 1560.3 -0.180704 0.718629 0
M  V30 17142 H 1562.94 0.243789 1.89942 0
M  V30 17143 H 1561.25 -1.84857 3.45449 0
M  V30 17144 H 1562.95 -1.54437 3.70068 0
M  V30 17145 H 1559.54 -0.232824 4.27967 0
M  V30 17146 H 1563.72 0.493751 4.93838 0
M  V30 17147 H 1558.98 1.50464 5.92597 0
M  V30 17148 H 1563.15 2.22796 6.59799 0
M  V30 17149 H 1560.78 2.73944 7.09125 0
M  V30 17150 N 1562.35 -1.57153 -0.118549 0
M  V30 17151 C 1563.77 -1.52458 -0.472096 0
M  V30 17152 C 1563.97 -0.868289 -1.81832 0
M  V30 17153 O 1563.02 -0.450817 -2.48443 0
M  V30 17154 C 1564.34 -2.9722 -0.456175 0
M  V30 17155 C 1565.88 -3.08312 -0.539694 0
M  V30 17156 C 1566.36 -4.54635 -0.554158 0
M  V30 17157 N 1567.85 -4.59091 -0.615584 0
M  V30 17158 C 1568.59 -5.69724 -0.64823 0
M  V30 17159 N 1568.08 -6.89852 -0.638494 0
M  V30 17160 N 1569.87 -5.57833 -0.691272 0
M  V30 17161 H 1562.03 -1.98202 0.76353 0
M  V30 17162 H 1564.29 -0.905179 0.281699 0
M  V30 17163 H 1563.99 -3.48608 0.465364 0
M  V30 17164 H 1563.87 -3.5468 -1.28381 0
M  V30 17165 H 1566.26 -2.56926 -1.45165 0
M  V30 17166 H 1566.34 -2.53845 0.315638 0
M  V30 17167 H 1565.98 -5.06667 0.353759 0
M  V30 17168 H 1565.91 -5.06914 -1.42638 0
M  V30 17169 H 1568.4 -3.72624 -0.629253 0
M  V30 17170 H 1568.71 -7.69925 -0.66604 0
M  V30 17171 H 1567.06 -6.92354 -0.605912 0
M  V30 17172 H 1570.25 -4.62893 -0.696244 0
M  V30 17173 H 1570.42 -6.44063 -0.713246 0
M  V30 17174 N 1563.83 0.388742 -1.5273 0
M  V30 17175 C 1564.78 1.47488 -1.77527 0
M  V30 17176 C 1565.75 1.54155 -0.618505 0
M  V30 17177 O 1566.93 1.70407 -0.858251 0
M  V30 17178 C 1564.07 2.84714 -1.95018 0
M  V30 17179 C 1563.18 2.87197 -3.2271 0
M  V30 17180 C 1562.32 4.15851 -3.30517 0
M  V30 17181 C 1561.36 4.12386 -4.52332 0
M  V30 17182 N 1560.5 5.32647 -4.57418 0
M  V30 17183 H 1565.34 1.25644 -2.70218 0
M  V30 17184 H 1562.87 0.609519 -1.33878 0
M  V30 17185 H 1564.83 3.64402 -2.03143 0
M  V30 17186 H 1563.46 3.05008 -1.05688 0
M  V30 17187 H 1562.51 1.99879 -3.23655 0
M  V30 17188 H 1563.82 2.80505 -4.12454 0
M  V30 17189 H 1562.98 5.03943 -3.37827 0
M  V30 17190 H 1561.72 4.25265 -2.38748 0
M  V30 17191 H 1560.72 3.22683 -4.45147 0
M  V30 17192 H 1561.95 4.04594 -5.45418 0
M  V30 17193 H 1559.89 5.42691 -3.68541 0
M  V30 17194 H 1559.81 5.28032 -5.41035 0
M  V30 17195 H 1561.08 6.22636 -4.68983 0
M  V30 17196 N 1565.31 1.43698 0.647203 0
M  V30 17197 C 1566.53 1.49301 1.43958 0
M  V30 17198 C 1566.96 0.11395 1.87755 0
M  V30 17199 O 1566.32 -0.893571 1.5775 0
M  V30 17200 C 1566.36 2.44905 2.64677 0
M  V30 17201 O 1565.47 1.93947 3.63948 0
M  V30 17202 H 1564.81 0.504771 0.431396 0
M  V30 17203 H 1567.34 1.88673 0.791432 0
M  V30 17204 H 1567.35 2.62409 3.12419 0
M  V30 17205 H 1566.02 3.45083 2.32143 0
M  V30 17206 H 1564.6 1.86133 3.23124 0
M  V30 17207 N 1566.79 -0.886131 1.30328 0
M  V30 17208 C 1567.72 -2.00793 1.19183 0
M  V30 17209 C 1568.7 -1.69899 0.08276 0
M  V30 17210 O 1569.88 -1.92389 0.264593 0
M  V30 17211 C 1567.01 -3.35922 0.881669 0
M  V30 17212 C 1565.97 -3.81072 1.94855 0
M  V30 17213 C 1565.29 -5.1348 1.4914 0
M  V30 17214 C 1566.59 -3.99923 3.35944 0
M  V30 17215 H 1568.29 -2.10375 2.13032 0
M  V30 17216 H 1565.83 -1.0108 1.02561 0
M  V30 17217 H 1567.79 -4.13922 0.790359 0
M  V30 17218 H 1566.51 -3.26469 -0.0925037 0
M  V30 17219 H 1565.17 -3.053 2.02947 0
M  V30 17220 H 1564.82 -5.00453 0.50553 0
M  V30 17221 H 1564.52 -5.44659 2.205 0
M  V30 17222 H 1566.04 -5.94005 1.41386 0
M  V30 17223 H 1567.45 -4.68364 3.30617 0
M  V30 17224 H 1565.85 -4.42477 4.05381 0
M  V30 17225 H 1566.92 -3.03816 3.77921 0
M  V30 17226 N 1568.26 -1.13026 -1.09832 0
M  V30 17227 C 1569.49 -0.912803 -1.86233 0
M  V30 17228 C 1569.91 0.532955 -1.80392 0
M  V30 17229 O 1569.27 1.37783 -1.17837 0
M  V30 17230 C 1569.32 -1.40002 -3.32313 0
M  V30 17231 O 1568.42 -0.582537 -4.08265 0
M  V30 17232 H 1567.77 -0.327464 -0.577636 0
M  V30 17233 H 1570.3 -1.5039 -1.38723 0
M  V30 17234 H 1570.31 -1.40182 -3.83162 0
M  V30 17235 H 1568.98 -2.4527 -3.3588 0
M  V30 17236 H 1567.56 -0.648255 -3.67222 0
M  V30 17237 N 1569.74 1.27735 -0.923117 0
M  V30 17238 C 1570.69 2.26997 -0.417254 0
M  V30 17239 C 1571.66 1.57968 0.513364 0
M  V30 17240 O 1572.84 1.8581 0.433521 0
M  V30 17241 C 1569.98 3.43537 0.328089 0
M  V30 17242 C 1569.1 4.27291 -0.636112 0
M  V30 17243 C 1568.23 5.31044 0.128614 0
M  V30 17244 C 1567.27 6.06466 -0.828592 0
M  V30 17245 N 1566.41 7.02033 -0.0967858 0
M  V30 17246 H 1571.25 2.69643 -1.26872 0
M  V30 17247 H 1568.79 1.32597 -0.6369 0
M  V30 17248 H 1570.74 4.0991 0.776504 0
M  V30 17249 H 1569.37 3.01855 1.14383 0
M  V30 17250 H 1568.43 3.60875 -1.20306 0
M  V30 17251 H 1569.74 4.79679 -1.36784 0
M  V30 17252 H 1568.89 6.03345 0.637159 0
M  V30 17253 H 1567.63 4.79448 0.893341 0
M  V30 17254 H 1566.64 5.33008 -1.34843 0
M  V30 17255 H 1567.86 6.60151 -1.59303 0
M  V30 17256 H 1565.81 6.52774 0.649779 0
M  V30 17257 H 1565.72 7.52087 -0.768171 0
M  V30 17258 H 1566.99 7.78517 0.391257 0
M  V30 17259 N 1571.22 0.688118 1.41784 0
M  V30 17260 C 1572.45 0.22475 2.05676 0
M  V30 17261 C 1572.86 -1.1232 1.51755 0
M  V30 17262 O 1572.22 -1.70041 0.662735 0
M  V30 17263 C 1572.27 0.165661 3.6112 0
M  V30 17264 O 1571.99 1.46035 4.13044 0
M  V30 17265 C 1573.49 -0.319599 4.42146 0
M  V30 17266 H 1570.71 0.106135 0.662553 0
M  V30 17267 H 1573.26 0.938605 1.81688 0
M  V30 17268 H 1571.41 -0.498968 3.84173 0
M  V30 17269 H 1571.83 1.34252 5.07027 0
M  V30 17270 H 1573.3 -0.30983 5.5113 0
M  V30 17271 H 1573.78 -1.3572 4.17704 0
M  V30 17272 H 1574.38 0.313764 4.24141 0
M  V30 17273 N 1572.7 -1.51554 0.432352 0
M  V30 17274 C 1573.63 -2.30514 -0.372243 0
M  V30 17275 C 1574.61 -1.35712 -1.02549 0
M  V30 17276 O 1575.79 -1.6463 -1.03009 0
M  V30 17277 C 1572.92 -3.14353 -1.47646 0
M  V30 17278 C 1571.88 -4.17392 -0.946974 0
M  V30 17279 C 1571.2 -4.89721 -2.14656 0
M  V30 17280 C 1572.5 -5.22298 0.0151377 0
M  V30 17281 H 1574.2 -2.98024 0.28668 0
M  V30 17282 H 1571.74 -1.43325 0.139315 0
M  V30 17283 H 1573.7 -3.68369 -2.04651 0
M  V30 17284 H 1572.42 -2.44654 -2.1636 0
M  V30 17285 H 1571.08 -3.6442 -0.399174 0
M  V30 17286 H 1570.73 -4.1653 -2.81978 0
M  V30 17287 H 1570.43 -5.59393 -1.79869 0
M  V30 17288 H 1571.95 -5.46559 -2.72224 0
M  V30 17289 H 1573.37 -5.71416 -0.464447 0
M  V30 17290 H 1571.76 -5.99468 0.275339 0
M  V30 17291 H 1572.83 -4.75436 0.953357 0
M  V30 17292 N 1574.18 -0.163538 -1.56749 0
M  V30 17293 C 1575.09 0.782461 -2.21167 0
M  V30 17294 C 1576.1 1.25911 -1.20093 0
M  V30 17295 O 1577.28 1.31286 -1.52728 0
M  V30 17296 C 1574.34 1.99761 -2.83366 0
M  V30 17297 C 1573.4 1.56859 -3.99617 0
M  V30 17298 C 1572.64 2.72582 -4.58841 0
M  V30 17299 O 1572.86 3.89243 -4.16949 0
M  V30 17300 O 1571.79 2.47104 -5.48838 0
M  V30 17301 H 1575.62 0.264023 -3.0255 0
M  V30 17302 H 1573.21 0.06429 -1.49262 0
M  V30 17303 H 1575.09 2.70843 -3.22835 0
M  V30 17304 H 1573.76 2.50526 -2.04984 0
M  V30 17305 H 1572.67 0.827511 -3.64833 0
M  V30 17306 H 1574 1.10794 -4.79568 0
M  V30 17307 N 1575.65 1.57214 0.110213 0
M  V30 17308 C 1576.56 2.04287 1.15342 0
M  V30 17309 C 1577.58 0.964895 1.44796 0
M  V30 17310 O 1578.76 1.27702 1.55737 0
M  V30 17311 C 1575.82 2.44518 2.45788 0
M  V30 17312 C 1574.88 3.66439 2.23653 0
M  V30 17313 C 1574.12 4.04742 3.47879 0
M  V30 17314 O 1574.34 3.43291 4.5553 0
M  V30 17315 O 1573.27 4.97791 3.38361 0
M  V30 17316 H 1577.1 2.93415 0.783656 0
M  V30 17317 H 1574.68 1.45897 0.321644 0
M  V30 17318 H 1576.57 2.71089 3.22628 0
M  V30 17319 H 1575.24 1.58533 2.82221 0
M  V30 17320 H 1574.15 3.45006 1.44643 0
M  V30 17321 H 1575.48 4.53156 1.9212 0
M  V30 17322 N 1577.13 -0.380637 1.52934 0
M  V30 17323 C 1578.36 -1.15033 1.72575 0
M  V30 17324 C 1578.78 -1.82715 0.446869 0
M  V30 17325 O 1578.14 -1.71154 -0.598004 0
M  V30 17326 C 1578.19 -2.16773 2.8817 0
M  V30 17327 O 1577.29 -3.23539 2.55727 0
M  V30 17328 H 1576.63 -0.334489 0.573597 0
M  V30 17329 H 1579.16 -0.442369 1.9976 0
M  V30 17330 H 1579.17 -2.60629 3.13905 0
M  V30 17331 H 1577.85 -1.669 3.80943 0
M  V30 17332 H 1576.43 -2.84761 2.4076 0
M  V30 17333 N 1578.61 -1.44039 -0.639573 0
M  V30 17334 C 1579.86 -1.46377 -1.39928 0
M  V30 17335 C 1580.19 -0.0931685 -1.94277 0
M  V30 17336 O 1579.44 0.903841 -1.73578 0
M  V30 17337 C 1579.74 -2.46459 -2.5883 0
M  V30 17338 C 1579.41 -3.91998 -2.2282 0
M  V30 17339 C 1578.07 -4.31633 -2.12712 0
M  V30 17340 C 1580.42 -4.83656 -1.94232 0
M  V30 17341 C 1577.75 -5.60863 -1.72191 0
M  V30 17342 C 1580.1 -6.13265 -1.55206 0
M  V30 17343 C 1578.76 -6.51863 -1.43633 0
M  V30 17344 H 1578.03 -0.535633 -0.512034 0
M  V30 17345 H 1580.68 -1.77202 -0.72607 0
M  V30 17346 H 1578.99 -2.09087 -3.31345 0
M  V30 17347 H 1580.68 -2.45518 -3.17052 0
M  V30 17348 H 1577.27 -3.60636 -2.31602 0
M  V30 17349 H 1581.46 -4.53796 -2.00955 0
M  V30 17350 H 1576.71 -5.89595 -1.61828 0
M  V30 17351 H 1580.89 -6.83752 -1.32121 0
M  V30 17352 H 1578.51 -7.51903 -1.12006 0
M  V30 17353 N 1580.09 0.879207 -1.30796 0
M  V30 17354 C 1581.32 1.66208 -1.22713 0
M  V30 17355 C 1581.73 1.88014 0.211506 0
M  V30 17356 O 1581.07 1.43183 1.15084 0
M  V30 17357 C 1581.13 3.05733 -1.89123 0
M  V30 17358 C 1580.8 3.07075 -3.38458 0
M  V30 17359 C 1581.79 2.85709 -4.34358 0
M  V30 17360 C 1579.48 3.28489 -3.8 0
M  V30 17361 C 1581.47 2.85722 -5.69773 0
M  V30 17362 C 1579.16 3.28131 -5.15532 0
M  V30 17363 C 1580.16 3.06773 -6.10229 0
M  V30 17364 O 1579.84 3.06243 -7.43283 0
M  V30 17365 H 1579.58 0.525224 -0.425577 0
M  V30 17366 H 1582.13 1.10636 -1.73057 0
M  V30 17367 H 1580.36 3.62993 -1.33316 0
M  V30 17368 H 1582.05 3.66199 -1.7508 0
M  V30 17369 H 1582.82 2.68956 -4.03593 0
M  V30 17370 H 1578.69 3.44147 -3.06731 0
M  V30 17371 H 1582.24 2.6897 -6.43662 0
M  V30 17372 H 1578.14 3.44422 -5.45934 0
M  V30 17373 H 1578.9 3.22369 -7.52343 0
M  V30 17374 N 1581.57 1.13606 1.09231 0
M  V30 17375 C 1582.52 0.810747 2.18013 0
M  V30 17376 C 1583.51 -0.207782 1.68121 0
M  V30 17377 O 1584.72 -0.0647274 1.79884 0
M  V30 17378 H 1581.09 0.244415 0.711172 0
M  V30 17379 H 1583.06 1.73632 2.42682 0
M  V30 17380 C 1581.81 0.295302 3.46444 0
M  V30 17381 H 1581.13 1.07037 3.85205 0
M  V30 17382 H 1582.57 0.106127 4.23867 0
M  V30 17383 C 1581.03 -0.979398 3.2235 0
M  V30 17384 O 1581.56 -2.05483 3.45166 0
M  V30 17385 N 1579.77 -0.911282 2.75942 0
M  V30 17386 H 1579.32 -0.035979 2.57575 0
M  V30 17387 H 1579.27 -1.76476 2.60199 0
M  V30 17388 N 1583.05 -1.27244 0.929878 0
M  V30 17389 C 1584.27 -1.98912 0.587277 0
M  V30 17390 C 1584.7 -1.68888 -0.828168 0
M  V30 17391 O 1584.05 -0.930394 -1.55606 0
M  V30 17392 C 1584.1 -3.51097 0.822399 0
M  V30 17393 O 1583.21 -4.12251 -0.110968 0
M  V30 17394 H 1582.55 -0.624404 0.225867 0
M  V30 17395 H 1585.08 -1.61997 1.24973 0
M  V30 17396 H 1585.09 -4.01255 0.738824 0
M  V30 17397 H 1583.76 -3.72282 1.85416 0
M  V30 17398 H 1582.34 -3.72893 0.0227053 0
M  V30 17399 N 1584.52 -0.695628 -1.41417 0
M  V30 17400 C 1585.43 -0.0308378 -2.3458 0
M  V30 17401 C 1586.45 0.766 -1.56232 0
M  V30 17402 O 1587.63 0.703548 -1.88712 0
M  V30 17403 C 1584.69 0.894162 -3.34971 0
M  V30 17404 C 1583.75 0.0895231 -4.29207 0
M  V30 17405 C 1582.98 0.970467 -5.24802 0
M  V30 17406 O 1583.21 2.20997 -5.25848 0
M  V30 17407 O 1582.14 0.420114 -6.00432 0
M  V30 17408 H 1585.97 -0.798775 -2.93007 0
M  V30 17409 H 1583.55 -0.455964 -1.42272 0
M  V30 17410 H 1585.43 1.42458 -3.9659 0
M  V30 17411 H 1584.11 1.64159 -2.78987 0
M  V30 17412 H 1583.02 -0.4855 -3.70936 0
M  V30 17413 H 1584.35 -0.619241 -4.88289 0
M  V30 17414 N 1586 1.51322 -0.440383 0
M  V30 17415 C 1587.25 2.01302 0.126581 0
M  V30 17416 C 1587.56 1.32898 1.43518 0
M  V30 17417 O 1588.77 1.73864 2.08527 0
M  V30 17418 C 1587.23 3.58839 0.276126 0
M  V30 17419 C 1586.83 4.36182 -1.02222 0
M  V30 17420 C 1588.58 4.16957 0.796697 0
M  V30 17421 C 1586.48 5.85431 -0.838148 0
M  V30 17422 H 1585.41 0.752268 0.0510809 0
M  V30 17423 H 1588.07 1.74403 -0.570609 0
M  V30 17424 H 1586.45 3.82198 1.03639 0
M  V30 17425 H 1587.62 4.24568 -1.79105 0
M  V30 17426 H 1585.94 3.89531 -1.47155 0
M  V30 17427 H 1588.53 5.26176 0.95095 0
M  V30 17428 H 1588.88 3.76329 1.77996 0
M  V30 17429 H 1589.41 3.97687 0.0946613 0
M  V30 17430 H 1586.15 6.30476 -1.79387 0
M  V30 17431 H 1585.67 5.99701 -0.109167 0
M  V30 17432 H 1587.35 6.45122 -0.492547 0
M  V30 17433 N 1587.48 0.171848 1.5666 0
M  V30 17434 C 1588.43 -0.770535 2.14585 0
M  V30 17435 C 1589.41 -1.19247 1.08023 0
M  V30 17436 O 1590.61 -1.15474 1.34144 0
M  V30 17437 C 1587.73 -1.99956 2.79057 0
M  V30 17438 C 1586.82 -1.59959 3.92777 0
M  V30 17439 N 1587.21 -0.909224 4.97561 0
M  V30 17440 C 1585.51 -1.89057 4.03947 0
M  V30 17441 C 1586.21 -0.7122 5.77324 0
M  V30 17442 N 1585.19 -1.25379 5.28943 0
M  V30 17443 H 1588.99 -0.234114 2.92966 0
M  V30 17444 H 1586.5 -0.0288117 1.62374 0
M  V30 17445 H 1588.5 -2.68492 3.18932 0
M  V30 17446 H 1587.16 -2.54092 2.02157 0
M  V30 17447 H 1588.17 -0.567214 5.14785 0
M  V30 17448 H 1584.85 -2.44868 3.38151 0
M  V30 17449 H 1586.24 -0.166225 6.71694 0
M  V30 17450 N 1588.96 -1.5727 -0.101874 0
M  V30 17451 C 1590.21 -1.85375 -0.805007 0
M  V30 17452 C 1590.53 -0.759564 -1.79599 0
M  V30 17453 O 1589.8 0.21484 -1.94718 0
M  V30 17454 H 1588.38 -0.683987 -0.300284 0
M  V30 17455 H 1591.04 -1.94714 -0.0851166 0
M  V30 17456 H 1590.13 -2.81881 -1.33976 0
M  V30 17457 N 1590.44 0.372521 -1.53134 0
M  V30 17458 C 1591.68 1.11316 -1.68201 0
M  V30 17459 C 1592 1.90662 -0.436714 0
M  V30 17460 O 1593.2 2.67439 -0.467802 0
M  V30 17461 C 1591.66 2.02808 -2.97317 0
M  V30 17462 C 1591.27 1.28806 -4.29084 0
M  V30 17463 C 1593.01 2.76906 -3.2175 0
M  V30 17464 C 1590.92 2.19159 -5.49294 0
M  V30 17465 H 1589.85 0.419264 -0.626685 0
M  V30 17466 H 1592.5 0.374677 -1.79634 0
M  V30 17467 H 1590.88 2.80359 -2.79669 0
M  V30 17468 H 1592.06 0.563661 -4.5734 0
M  V30 17469 H 1590.37 0.665989 -4.1104 0
M  V30 17470 H 1592.97 3.44721 -4.08744 0
M  V30 17471 H 1593.31 3.41894 -2.37517 0
M  V30 17472 H 1593.84 2.06441 -3.4004 0
M  V30 17473 H 1590.58 1.5876 -6.35984 0
M  V30 17474 H 1590.1 2.89468 -5.25327 0
M  V30 17475 H 1591.78 2.78874 -5.83814 0
M  V30 17476 N 1591.91 1.44376 0.631925 0
M  V30 17477 C 1593.14 1.5082 1.42366 0
M  V30 17478 C 1593.56 0.133858 1.87623 0
M  V30 17479 O 1592.92 -0.876789 1.58689 0
M  V30 17480 C 1592.97 2.47698 2.62065 0
M  V30 17481 O 1592.07 1.97796 3.61871 0
M  V30 17482 H 1591.41 0.509318 0.426018 0
M  V30 17483 H 1593.94 1.89502 0.771376 0
M  V30 17484 H 1593.95 2.65708 3.09618 0
M  V30 17485 H 1592.63 3.47526 2.2847 0
M  V30 17486 H 1591.21 1.89549 3.21131 0
M  V30 17487 N 1593.39 -0.872258 1.31261 0
M  V30 17488 C 1594.81 -1.15763 1.09868 0
M  V30 17489 C 1595.01 -2.01065 -0.132331 0
M  V30 17490 O 1594.06 -2.38735 -0.822317 0
M  V30 17491 C 1595.38 -1.85199 2.36901 0
M  V30 17492 C 1596.92 -1.9791 2.42489 0
M  V30 17493 C 1597.4 -2.70759 3.69396 0
M  V30 17494 N 1598.89 -2.78296 3.70278 0
M  V30 17495 C 1599.63 -3.3527 4.65168 0
M  V30 17496 N 1599.12 -3.93193 5.70413 0
M  V30 17497 N 1600.91 -3.33206 4.52692 0
M  V30 17498 H 1593.07 -0.303784 2.10216 0
M  V30 17499 H 1595.33 -0.197172 0.927269 0
M  V30 17500 H 1595.03 -1.29968 3.26804 0
M  V30 17501 H 1594.91 -2.85493 2.46523 0
M  V30 17502 H 1597.3 -2.52305 1.53056 0
M  V30 17503 H 1597.38 -0.966644 2.36833 0
M  V30 17504 H 1597.02 -2.17031 4.59195 0
M  V30 17505 H 1596.95 -3.72407 3.72318 0
M  V30 17506 H 1599.44 -2.37185 2.94197 0
M  V30 17507 H 1599.75 -4.34771 6.38901 0
M  V30 17508 H 1598.1 -3.91575 5.7419 0
M  V30 17509 H 1601.29 -2.87191 3.69647 0
M  V30 17510 H 1601.46 -3.7731 5.26822 0
M  V30 17511 N 1594.87 -1.14184 -1.08627 0
M  V30 17512 C 1595.8 -0.770338 -2.14805 0
M  V30 17513 C 1596.78 0.247269 -1.60709 0
M  V30 17514 O 1597.96 0.136851 -1.88003 0
M  V30 17515 C 1595.09 -0.143349 -3.38397 0
M  V30 17516 C 1594.14 -1.13077 -4.11237 0
M  V30 17517 S 1594.97 -2.667 -4.64361 0
M  V30 17518 C 1596.13 -2.05384 -5.91243 0
M  V30 17519 H 1596.36 -1.66968 -2.45986 0
M  V30 17520 H 1593.89 -0.962834 -1.20702 0
M  V30 17521 H 1595.85 0.211987 -4.09952 0
M  V30 17522 H 1594.51 0.733388 -3.05418 0
M  V30 17523 H 1593.7 -0.64004 -4.99919 0
M  V30 17524 H 1593.31 -1.42998 -3.45583 0
M  V30 17525 H 1595.6 -1.40791 -6.6271 0
M  V30 17526 H 1596.54 -2.92181 -6.45008 0
M  V30 17527 H 1596.95 -1.50209 -5.44149 0
M  V30 17528 N 1596.35 1.26749 -0.936613 0
M  V30 17529 C 1597.58 1.98059 -0.598357 0
M  V30 17530 C 1597.99 1.6979 0.825646 0
M  V30 17531 O 1597.35 0.963514 1.54992 0
M  V30 17532 C 1597.4 3.51948 -0.825519 0
M  V30 17533 O 1597.12 3.79232 -2.19351 0
M  V30 17534 C 1598.62 4.40503 -0.497186 0
M  V30 17535 H 1595.84 0.631826 -0.225914 0
M  V30 17536 H 1598.39 1.61379 -1.25607 0
M  V30 17537 H 1596.54 3.86806 -0.214479 0
M  V30 17538 H 1596.95 4.73782 -2.25014 0
M  V30 17539 H 1598.43 5.47457 -0.706779 0
M  V30 17540 H 1598.91 4.35516 0.567645 0
M  V30 17541 H 1599.51 4.11181 -1.08675 0
M  V30 17542 N 1597.83 0.703118 1.41046 0
M  V30 17543 C 1598.76 0.00331992 2.292 0
M  V30 17544 C 1599.77 -0.736648 1.4518 0
M  V30 17545 O 1600.96 -0.586097 1.68604 0
M  V30 17546 C 1598.06 -1.01948 3.23203 0
M  V30 17547 C 1597.23 -0.347591 4.36017 0
M  V30 17548 C 1596.29 -1.27404 5.10543 0
M  V30 17549 O 1595.32 -0.763558 5.64055 0
M  V30 17550 N 1596.52 -2.60596 5.1872 0
M  V30 17551 H 1599.29 0.760179 2.89899 0
M  V30 17552 H 1596.85 0.549747 1.52281 0
M  V30 17553 H 1598.84 -1.64115 3.6993 0
M  V30 17554 H 1597.41 -1.6778 2.63758 0
M  V30 17555 H 1596.63 0.454088 3.91576 0
M  V30 17556 H 1597.92 0.119295 5.0866 0
M  V30 17557 H 1597.31 -3.0458 4.76705 0
M  V30 17558 H 1595.87 -3.17939 5.68998 0
M  V30 17559 N 1599.3 -1.51086 0.448402 0
M  V30 17560 C 1600.53 -2.06593 -0.112695 0
M  V30 17561 C 1600.95 -1.31471 -1.35502 0
M  V30 17562 O 1600.3 -0.377406 -1.78555 0
M  V30 17563 C 1600.36 -3.59008 -0.423769 0
M  V30 17564 O 1600.08 -4.31293 0.769259 0
M  V30 17565 C 1601.58 -4.31064 -1.03433 0
M  V30 17566 H 1598.8 -0.670993 -0.00301626 0
M  V30 17567 H 1601.34 -1.94532 0.630667 0
M  V30 17568 H 1599.5 -3.70946 -1.11704 0
M  V30 17569 H 1599.91 -5.2211 0.500162 0
M  V30 17570 H 1601.38 -5.38756 -1.20191 0
M  V30 17571 H 1601.86 -3.90075 -2.01837 0
M  V30 17572 H 1602.47 -4.23598 -0.380115 0
M  V30 17573 N 1600.78 -0.180154 -1.56567 0
M  V30 17574 C 1602.19 0.335054 -1.83669 0
M  V30 17575 C 1602.54 1.62443 -1.1003 0
M  V30 17576 O 1601.67 2.13448 -0.356205 0
M  V30 17577 C 1602.26 0.61468 -3.33177 0
M  V30 17578 C 1600.82 1.0743 -3.60743 0
M  V30 17579 C 1599.97 0.114877 -2.77062 0
M  V30 17580 H 1602.92 -0.404245 -1.53465 0
M  V30 17581 H 1602.94 1.46574 -3.51136 0
M  V30 17582 H 1602.45 -0.323923 -3.86746 0
M  V30 17583 H 1600.56 2.0277 -3.12594 0
M  V30 17584 H 1600.67 0.977349 -4.69025 0
M  V30 17585 H 1599.03 0.613933 -2.4719 0
M  V30 17586 H 1599.82 -0.817904 -3.33414 0
M  V30 17587 N 1602.26 1.57322 0.0935319 0
M  V30 17588 C 1603.19 1.98861 1.13961 0
M  V30 17589 C 1604.21 0.891385 1.36228 0
M  V30 17590 O 1605.39 1.16949 1.34853 0
M  V30 17591 C 1602.49 2.29369 2.49485 0
M  V30 17592 C 1601.67 3.6066 2.47473 0
M  V30 17593 C 1600.73 3.79087 3.64937 0
M  V30 17594 O 1599.75 4.50923 3.47357 0
M  V30 17595 N 1600.95 3.19784 4.84478 0
M  V30 17596 H 1603.72 2.89208 0.786048 0
M  V30 17597 H 1601.28 1.59416 0.282491 0
M  V30 17598 H 1603.27 2.38889 3.26671 0
M  V30 17599 H 1601.84 1.45021 2.76925 0
M  V30 17600 H 1601.06 3.62095 1.55823 0
M  V30 17601 H 1602.35 4.46908 2.43209 0
M  V30 17602 H 1601.75 2.61436 5.01665 0
M  V30 17603 H 1600.31 3.34786 5.59251 0
M  V30 17604 N 1603.74 -0.364395 1.53329 0
M  V30 17605 C 1605.15 -0.706147 1.43128 0
M  V30 17606 C 1605.35 -1.93231 0.571307 0
M  V30 17607 O 1604.41 -2.52442 0.0542079 0
M  V30 17608 C 1605.72 -0.918245 2.86337 0
M  V30 17609 C 1607.27 -1.01818 2.95976 0
M  V30 17610 C 1607.75 -1.26274 4.40249 0
M  V30 17611 N 1609.24 -1.33042 4.43683 0
M  V30 17612 C 1609.97 -1.53677 5.52423 0
M  V30 17613 N 1609.47 -1.7162 6.71207 0
M  V30 17614 N 1611.26 -1.56056 5.40003 0
M  V30 17615 H 1603.41 0.442091 2.07748 0
M  V30 17616 H 1605.68 0.135735 0.938232 0
M  V30 17617 H 1605.38 -0.0890628 3.51587 0
M  V30 17618 H 1605.26 -1.826 3.30056 0
M  V30 17619 H 1607.64 -1.83791 2.30879 0
M  V30 17620 H 1607.72 -0.0877892 2.55649 0
M  V30 17621 H 1607.37 -0.448026 5.0592 0
M  V30 17622 H 1607.3 -2.20637 4.78149 0
M  V30 17623 H 1609.79 -1.20784 3.58078 0
M  V30 17624 H 1610.1 -1.86942 7.49848 0
M  V30 17625 H 1608.45 -1.68797 6.7419 0
M  V30 17626 H 1611.64 -1.41605 4.46168 0
M  V30 17627 H 1611.81 -1.71796 6.24812 0
M  V30 17628 N 1605.22 -1.44709 -0.62426 0
M  V30 17629 C 1606.46 -1.48072 -1.38573 0
M  V30 17630 C 1606.8 -0.115532 -1.93856 0
M  V30 17631 O 1606.07 0.867787 -1.74068 0
M  V30 17632 C 1606.35 -2.54662 -2.54596 0
M  V30 17633 C 1606.21 -4.00564 -2.04618 0
M  V30 17634 C 1607.53 -2.57689 -3.56769 0
M  V30 17635 H 1604.64 -0.539119 -0.502513 0
M  V30 17636 H 1607.29 -1.76427 -0.705225 0
M  V30 17637 H 1605.44 -2.30614 -3.12649 0
M  V30 17638 H 1607.11 -4.35767 -1.51343 0
M  V30 17639 H 1605.35 -4.12014 -1.35746 0
M  V30 17640 H 1606.02 -4.70804 -2.8818 0
M  V30 17641 H 1608.5 -2.79194 -3.08529 0
M  V30 17642 H 1607.37 -3.34161 -4.35462 0
M  V30 17643 H 1607.64 -1.62146 -4.11292 0
M  V30 17644 N 1606.69 0.865285 -1.31722 0
M  V30 17645 C 1607.94 1.61549 -1.21435 0
M  V30 17646 C 1608.26 1.9368 0.226501 0
M  V30 17647 O 1607.53 1.58705 1.14846 0
M  V30 17648 H 1606.11 0.598905 -0.446454 0
M  V30 17649 H 1608.78 1.03563 -1.65108 0
M  V30 17650 H 1607.87 2.55708 -1.78941 0
M  V30 17651 N 1608.17 1.14759 1.0802 0
M  V30 17652 C 1609.42 0.916435 1.80127 0
M  V30 17653 C 1609.74 -0.558281 1.86837 0
M  V30 17654 O 1609.01 -1.40579 1.36434 0
M  V30 17655 H 1607.59 0.336066 0.667135 0
M  V30 17656 H 1610.25 1.44693 1.30576 0
M  V30 17657 H 1609.35 1.31986 2.82818 0
M  V30 17658 N 1609.65 -1.26251 0.943322 0
M  V30 17659 C 1610.9 -1.93939 0.592909 0
M  V30 17660 C 1611.23 -1.73814 -0.866155 0
M  V30 17661 O 1610.5 -1.07645 -1.61997 0
M  V30 17662 C 1610.79 -3.47653 0.938601 0
M  V30 17663 C 1610.64 -3.77053 2.45257 0
M  V30 17664 C 1611.96 -4.37736 0.455546 0
M  V30 17665 H 1609.08 -0.704367 0.21688 0
M  V30 17666 H 1611.72 -1.4908 1.17793 0
M  V30 17667 H 1609.87 -3.85992 0.440756 0
M  V30 17668 H 1611.54 -3.48417 3.0233 0
M  V30 17669 H 1609.79 -3.23055 2.89513 0
M  V30 17670 H 1610.46 -4.84506 2.64495 0
M  V30 17671 H 1612.93 -4.06635 0.882435 0
M  V30 17672 H 1611.81 -5.44075 0.72623 0
M  V30 17673 H 1612.07 -4.37377 -0.644508 0
M  V30 17674 N 1611.13 -0.710588 -1.40671 0
M  V30 17675 C 1612.38 -0.257123 -2.01768 0
M  V30 17676 C 1612.73 1.13545 -1.55323 0
M  V30 17677 O 1612.02 1.75831 -0.761183 0
M  V30 17678 C 1612.22 -0.270478 -3.56375 0
M  V30 17679 C 1612.05 -1.66282 -4.17828 0
M  V30 17680 C 1610.82 -2.26928 -4.51478 0
M  V30 17681 C 1613.01 -2.61216 -4.43025 0
M  V30 17682 N 1611 -3.58569 -4.98298 0
M  V30 17683 C 1612.37 -3.77557 -4.91783 0
M  V30 17684 C 1614.42 -2.59291 -4.25056 0
M  V30 17685 C 1613.13 -4.92274 -5.24461 0
M  V30 17686 C 1615.15 -3.73132 -4.58831 0
M  V30 17687 C 1614.51 -4.88205 -5.07775 0
M  V30 17688 H 1610.61 -0.13981 -0.7694 0
M  V30 17689 H 1613.2 -0.931308 -1.70982 0
M  V30 17690 H 1611.37 0.373251 -3.86602 0
M  V30 17691 H 1613.1 0.199227 -4.04209 0
M  V30 17692 H 1609.85 -1.79072 -4.38441 0
M  V30 17693 H 1610.28 -4.26088 -5.26097 0
M  V30 17694 H 1614.92 -1.71533 -3.86441 0
M  V30 17695 H 1612.64 -5.80681 -5.61992 0
M  V30 17696 H 1616.22 -3.72912 -4.46573 0
M  V30 17697 H 1615.1 -5.74835 -5.33418 0
M  V30 17698 N 1612.61 1.50847 -0.456408 0
M  V30 17699 C 1614.02 1.867 0.00222532 0
M  V30 17700 C 1614.37 1.37229 1.40224 0
M  V30 17701 O 1613.49 0.731052 2.03678 0
M  V30 17702 C 1614.09 3.38798 0.0108142 0
M  V30 17703 C 1612.65 3.74117 0.413924 0
M  V30 17704 C 1611.8 2.74671 -0.380933 0
M  V30 17705 H 1614.75 1.43799 -0.671379 0
M  V30 17706 H 1614.77 3.71642 0.816217 0
M  V30 17707 H 1614.28 3.74774 -1.00826 0
M  V30 17708 H 1612.38 3.43737 1.43789 0
M  V30 17709 H 1612.49 4.78936 0.125471 0
M  V30 17710 H 1610.86 2.54175 0.163385 0
M  V30 17711 H 1611.64 3.1349 -1.39924 0
M  V30 17712 N 1614.09 0.188454 1.56469 0
M  V30 17713 C 1615.33 -0.454307 1.99287 0
M  V30 17714 C 1615.69 -1.59256 1.07245 0
M  V30 17715 O 1616.89 -2.29905 1.39273 0
M  V30 17716 C 1615.16 -0.908909 3.4565 0
M  V30 17717 S 1616.72 -1.55044 4.10496 0
M  V30 17718 H 1613.54 -0.145527 0.695948 0
M  V30 17719 H 1616.14 0.289956 1.93338 0
M  V30 17720 H 1614.84 -0.0703211 4.1034 0
M  V30 17721 H 1614.38 -1.6868 3.55402 0
M  V30 17722 H 1616.39 -2.83905 4.06955 0
M  V30 17723 N 1615.56 -1.5737 -0.0851874 0
M  V30 17724 C 1616.79 -1.91183 -0.803983 0
M  V30 17725 C 1617.21 -0.78365 -1.70999 0
M  V30 17726 O 1616.57 0.264266 -1.79364 0
M  V30 17727 C 1616.62 -3.239 -1.58496 0
M  V30 17728 O 1615.72 -3.12189 -2.69466 0
M  V30 17729 H 1615.06 -0.626413 -0.220233 0
M  V30 17730 H 1617.59 -2.04519 -0.0574426 0
M  V30 17731 H 1617.6 -3.5745 -1.96707 0
M  V30 17732 H 1616.28 -4.05594 -0.920111 0
M  V30 17733 H 1614.86 -2.90173 -2.3421 0
M  V30 17734 N 1617.04 0.356258 -1.53521 0
M  V30 17735 C 1618.27 1.12273 -1.74383 0
M  V30 17736 C 1618.69 1.81981 -0.475881 0
M  V30 17737 O 1618.05 1.72083 0.570699 0
M  V30 17738 C 1618.1 2.12161 -2.91582 0
M  V30 17739 O 1617.2 3.1943 -2.60842 0
M  V30 17740 H 1616.54 0.325321 -0.578845 0
M  V30 17741 H 1619.07 0.410533 -2.00439 0
M  V30 17742 H 1619.08 2.55602 -3.18012 0
M  V30 17743 H 1617.76 1.60818 -3.8355 0
M  V30 17744 H 1616.33 2.80895 -2.4526 0
M  V30 17745 N 1618.52 1.45038 0.616577 0
M  V30 17746 C 1619.43 1.55542 1.75624 0
M  V30 17747 C 1620.45 0.440304 1.68337 0
M  V30 17748 O 1621.62 0.699725 1.88854 0
M  V30 17749 C 1618.69 1.51062 3.1206 0
M  V30 17750 C 1617.75 2.7354 3.30869 0
M  V30 17751 C 1616.98 2.69264 4.60796 0
M  V30 17752 O 1617.2 1.76085 5.42541 0
M  V30 17753 O 1616.14 3.60335 4.82123 0
M  V30 17754 H 1619.96 2.51854 1.69715 0
M  V30 17755 H 1617.55 1.27448 0.779578 0
M  V30 17756 H 1619.43 1.51138 3.93364 0
M  V30 17757 H 1618.11 0.578976 3.1848 0
M  V30 17758 H 1617.01 2.79027 2.49188 0
M  V30 17759 H 1618.35 3.65799 3.2932 0
M  V30 17760 N 1620 -0.858287 1.32179 0
M  V30 17761 C 1621.41 -1.14591 1.1109 0
M  V30 17762 C 1621.61 -2.01194 -0.110998 0
M  V30 17763 O 1620.67 -2.39593 -0.79695 0
M  V30 17764 C 1621.98 -1.82675 2.38852 0
M  V30 17765 C 1623.53 -1.95326 2.44574 0
M  V30 17766 C 1624.01 -2.66826 3.72247 0
M  V30 17767 N 1625.5 -2.74353 3.73208 0
M  V30 17768 C 1626.23 -3.30317 4.68698 0
M  V30 17769 N 1625.73 -3.87121 5.74552 0
M  V30 17770 N 1627.52 -3.28386 4.562 0
M  V30 17771 H 1619.67 -0.281471 2.10527 0
M  V30 17772 H 1621.93 -0.187326 0.929308 0
M  V30 17773 H 1621.64 -1.26495 3.28165 0
M  V30 17774 H 1621.51 -2.82862 2.49537 0
M  V30 17775 H 1623.9 -2.50668 1.55723 0
M  V30 17776 H 1623.98 -0.94147 2.37844 0
M  V30 17777 H 1623.63 -2.12149 4.61471 0
M  V30 17778 H 1623.56 -3.68437 3.76247 0
M  V30 17779 H 1626.05 -2.34051 2.96696 0
M  V30 17780 H 1626.36 -4.2797 6.43476 0
M  V30 17781 H 1624.71 -3.85463 5.78311 0
M  V30 17782 H 1627.9 -2.83254 3.72672 0
M  V30 17783 H 1628.07 -3.71701 5.30794 0
M  V30 17784 N 1621.48 -1.1533 -1.07409 0
M  V30 17785 C 1622.44 -0.852155 -2.1277 0
M  V30 17786 C 1623.44 0.14782 -1.60119 0
M  V30 17787 O 1624.63 -0.0817436 -1.74008 0
M  V30 17788 C 1621.76 -0.272233 -3.39811 0
M  V30 17789 H 1622.95 -1.78604 -2.40917 0
M  V30 17790 H 1620.51 -0.960698 -1.23289 0
M  V30 17791 H 1621.24 0.669873 -3.17306 0
M  V30 17792 H 1621.03 -0.992629 -3.79327 0
M  V30 17793 H 1622.52 -0.0790986 -4.17525 0
M  V30 17794 N 1622.95 1.25748 -0.950004 0
M  V30 17795 C 1624.23 1.88566 -0.519839 0
M  V30 17796 C 1624.61 1.85761 1.00279 0
M  V30 17797 O 1623.96 1.31797 1.8666 0
M  V30 17798 C 1624.17 3.31502 -1.09121 0
M  V30 17799 C 1625.52 4.08298 -1.16524 0
M  V30 17800 O 1626.54 3.40605 -1.04243 0
M  V30 17801 O 1625.4 5.29375 -1.35735 0
M  V30 17802 H 1622.49 0.809175 -0.170777 0
M  V30 17803 H 1625.04 1.33853 -1.04314 0
M  V30 17804 H 1623.81 3.2795 -2.13458 0
M  V30 17805 H 1623.43 3.93765 -0.550881 0
M  V30 17806 N 1624.43 0.718038 1.40292 0
M  V30 17807 C 1625.36 0.0818367 2.33357 0
M  V30 17808 C 1626.34 -0.742854 1.53022 0
M  V30 17809 O 1627.53 -0.691281 1.8148 0
M  V30 17810 C 1624.66 -0.838843 3.37017 0
M  V30 17811 C 1623.61 -0.119589 4.27833 0
M  V30 17812 C 1622.94 -1.15615 5.22051 0
M  V30 17813 C 1624.24 1.02769 5.1209 0
M  V30 17814 H 1625.93 0.859167 2.86808 0
M  V30 17815 H 1623.48 0.414606 1.37902 0
M  V30 17816 H 1625.43 -1.29332 4.01063 0
M  V30 17817 H 1624.15 -1.6481 2.81967 0
M  V30 17818 H 1622.81 0.315088 3.65243 0
M  V30 17819 H 1622.46 -1.95852 4.63304 0
M  V30 17820 H 1622.16 -0.679767 5.83655 0
M  V30 17821 H 1623.69 -1.61068 5.88973 0
M  V30 17822 H 1625.1 0.652461 5.69575 0
M  V30 17823 H 1623.5 1.4326 5.82749 0
M  V30 17824 H 1624.57 1.85723 4.47923 0
M  V30 17825 N 1625.91 -1.50602 0.464402 0
M  V30 17826 C 1626.84 -2.31252 -0.323263 0
M  V30 17827 C 1627.82 -1.37856 -0.996476 0
M  V30 17828 O 1629.01 -1.66777 -0.994933 0
M  V30 17829 C 1626.14 -3.17414 -1.40945 0
M  V30 17830 C 1625.09 -4.19307 -0.858226 0
M  V30 17831 C 1624.42 -4.94164 -2.0422 0
M  V30 17832 C 1625.72 -5.22148 0.125921 0
M  V30 17833 H 1627.41 -2.97349 0.34983 0
M  V30 17834 H 1624.96 -1.42997 0.169685 0
M  V30 17835 H 1626.91 -3.72627 -1.96791 0
M  V30 17836 H 1625.63 -2.49189 -2.11122 0
M  V30 17837 H 1624.29 -3.65185 -0.321785 0
M  V30 17838 H 1623.94 -4.22417 -2.7308 0
M  V30 17839 H 1623.64 -5.63083 -1.67963 0
M  V30 17840 H 1625.16 -5.5221 -2.60569 0
M  V30 17841 H 1626.58 -5.72272 -0.343136 0
M  V30 17842 H 1624.98 -5.98749 0.402433 0
M  V30 17843 H 1626.05 -4.73307 1.05399 0
M  V30 17844 N 1627.39 -0.19675 -1.56367 0
M  V30 17845 C 1628.8 0.159068 -1.58805 0
M  V30 17846 C 1629 1.60902 -1.21297 0
M  V30 17847 O 1628.06 2.34491 -0.93649 0
M  V30 17848 C 1629.37 -0.144784 -3.00351 0
M  V30 17849 C 1630.92 -0.0850243 -3.12884 0
M  V30 17850 C 1631.4 -0.362209 -4.56565 0
M  V30 17851 N 1632.89 -0.310887 -4.62156 0
M  V30 17852 C 1633.62 -0.499187 -5.71223 0
M  V30 17853 N 1633.12 -0.747925 -6.88751 0
M  V30 17854 N 1634.91 -0.433329 -5.60427 0
M  V30 17855 H 1627.06 -1.1429 -1.79029 0
M  V30 17856 H 1629.33 -0.456298 -0.830961 0
M  V30 17857 H 1629.03 -1.15019 -3.3236 0
M  V30 17858 H 1628.91 0.551864 -3.73141 0
M  V30 17859 H 1631.29 0.910992 -2.80687 0
M  V30 17860 H 1631.37 -0.814774 -2.42477 0
M  V30 17861 H 1631.02 -1.35555 -4.89477 0
M  V30 17862 H 1630.95 0.388448 -5.25165 0
M  V30 17863 H 1633.44 -0.125318 -3.77692 0
M  V30 17864 H 1633.75 -0.880372 -7.67769 0
M  V30 17865 H 1632.1 -0.784838 -6.90554 0
M  V30 17866 H 1635.29 -0.239411 -4.67487 0
M  V30 17867 H 1635.46 -0.583495 -6.45368 0
M  V30 17868 N 1628.87 1.57413 0.0768405 0
M  V30 17869 C 1629.78 2.06688 1.10983 0
M  V30 17870 C 1630.79 0.995392 1.42716 0
M  V30 17871 O 1631.97 1.30977 1.52994 0
M  V30 17872 C 1629.03 2.49676 2.40546 0
M  V30 17873 C 1628.09 3.71101 2.1583 0
M  V30 17874 C 1627.33 4.1203 3.39216 0
M  V30 17875 O 1627.55 3.52877 4.48145 0
M  V30 17876 O 1626.48 5.04856 3.27726 0
M  V30 17877 H 1630.31 2.95012 0.721242 0
M  V30 17878 H 1627.9 1.46546 0.290624 0
M  V30 17879 H 1629.78 2.77871 3.16805 0
M  V30 17880 H 1628.45 1.64484 2.78795 0
M  V30 17881 H 1627.36 3.47996 1.37293 0
M  V30 17882 H 1628.69 4.5713 1.82465 0
M  V30 17883 N 1630.34 -0.348112 1.53707 0
M  V30 17884 C 1631.59 -1.08626 1.69951 0
M  V30 17885 C 1631.91 -1.89944 0.466992 0
M  V30 17886 O 1633.11 -2.66661 0.51029 0
M  V30 17887 C 1631.57 -1.98052 3.00505 0
M  V30 17888 C 1631.18 -1.21963 4.31079 0
M  V30 17889 C 1632.92 -2.71752 3.26115 0
M  V30 17890 C 1630.83 -2.10392 5.52711 0
M  V30 17891 H 1629.76 -0.409241 0.633275 0
M  V30 17892 H 1632.41 -0.346051 1.80207 0
M  V30 17893 H 1630.79 -2.75874 2.84094 0
M  V30 17894 H 1631.96 -0.490831 4.58178 0
M  V30 17895 H 1630.28 -0.600511 4.12047 0
M  V30 17896 H 1632.88 -3.38174 4.14177 0
M  V30 17897 H 1633.22 -3.38072 2.42926 0
M  V30 17898 H 1633.75 -2.01005 3.43281 0
M  V30 17899 H 1630.49 -1.48622 6.38429 0
M  V30 17900 H 1630.01 -2.81074 5.29866 0
M  V30 17901 H 1631.69 -2.69551 5.88176 0
M  V30 17902 N 1631.82 -1.45363 -0.608876 0
M  V30 17903 C 1633.05 -1.53066 -1.39949 0
M  V30 17904 C 1633.47 -0.16369 -1.87386 0
M  V30 17905 O 1632.83 0.851432 -1.60064 0
M  V30 17906 C 1632.88 -2.51836 -2.58091 0
M  V30 17907 O 1631.98 -2.03528 -3.58678 0
M  V30 17908 H 1631.32 -0.516031 -0.417861 0
M  V30 17909 H 1633.85 -1.90705 -0.74113 0
M  V30 17910 H 1633.86 -2.706 -3.05352 0
M  V30 17911 H 1632.54 -3.51117 -2.22912 0
M  V30 17912 H 1631.12 -1.94634 -3.18075 0
M  V30 17913 N 1633.3 0.851265 -1.32632 0
M  V30 17914 C 1634.55 1.60785 -1.24578 0
M  V30 17915 C 1634.9 1.91462 0.189803 0
M  V30 17916 O 1634.19 1.54839 1.12851 0
M  V30 17917 C 1634.39 2.93312 -2.04212 0
M  V30 17918 C 1634.22 2.75579 -3.55368 0
M  V30 17919 C 1632.99 2.73784 -4.247 0
M  V30 17920 C 1635.19 2.49095 -4.49951 0
M  V30 17921 N 1633.17 2.47298 -5.61887 0
M  V30 17922 C 1634.54 2.32046 -5.74939 0
M  V30 17923 C 1636.59 2.34591 -4.39171 0
M  V30 17924 C 1635.3 2.01965 -6.90364 0
M  V30 17925 C 1637.32 2.05902 -5.54399 0
M  V30 17926 C 1636.68 1.89655 -6.78388 0
M  V30 17927 H 1632.78 0.591922 -0.511031 0
M  V30 17928 H 1635.37 1.00037 -1.67035 0
M  V30 17929 H 1633.54 3.52033 -1.64095 0
M  V30 17930 H 1635.27 3.58369 -1.88026 0
M  V30 17931 H 1632.03 2.86845 -3.76851 0
M  V30 17932 H 1632.45 2.36973 -6.34171 0
M  V30 17933 H 1637.09 2.45871 -3.43959 0
M  V30 17934 H 1634.81 1.89423 -7.85585 0
M  V30 17935 H 1638.4 1.95452 -5.47987 0
M  V30 17936 H 1637.28 1.67772 -7.66043 0
M  V30 17937 N 1634.78 1.15898 1.06796 0
M  V30 17938 C 1636.03 0.935488 1.79145 0
M  V30 17939 C 1636.35 -0.538433 1.87419 0
M  V30 17940 O 1635.62 -1.39124 1.37917 0
M  V30 17941 H 1634.2 0.343123 0.663533 0
M  V30 17942 H 1636.86 1.4607 1.29034 0
M  V30 17943 H 1635.96 1.34978 2.81402 0
M  V30 17944 N 1636.26 -1.25243 0.956659 0
M  V30 17945 C 1637.67 -1.4525 0.661409 0
M  V30 17946 C 1637.87 -1.85774 -0.780404 0
M  V30 17947 O 1636.93 -1.98899 -1.55549 0
M  V30 17948 C 1638.24 -2.52296 1.63607 0
M  V30 17949 C 1639.79 -2.66134 1.64748 0
M  V30 17950 C 1640.26 -3.76366 2.60983 0
M  V30 17951 N 1641.76 -3.8378 2.5936 0
M  V30 17952 C 1642.49 -4.68569 3.30501 0
M  V30 17953 N 1641.99 -5.5763 4.11122 0
M  V30 17954 N 1643.78 -4.62551 3.19378 0
M  V30 17955 H 1635.93 -0.972321 1.88838 0
M  V30 17956 H 1638.19 -0.488615 0.812379 0
M  V30 17957 H 1637.9 -2.29382 2.66603 0
M  V30 17958 H 1637.77 -3.5025 1.40017 0
M  V30 17959 H 1640.16 -2.88412 0.624692 0
M  V30 17960 H 1640.24 -1.68573 1.92397 0
M  V30 17961 H 1639.89 -3.54839 3.63389 0
M  V30 17962 H 1639.82 -4.73417 2.30617 0
M  V30 17963 H 1642.31 -3.20117 2.00832 0
M  V30 17964 H 1642.62 -6.19258 4.62319 0
M  V30 17965 H 1640.96 -5.57331 4.15219 0
M  V30 17966 H 1644.16 -3.91983 2.55865 0
M  V30 17967 H 1644.33 -5.28407 3.75086 0
M  V30 17968 N 1637.73 -0.725468 -1.3991 0
M  V30 17969 C 1638.68 -0.0792833 -2.30664 0
M  V30 17970 C 1639.65 0.73984 -1.48713 0
M  V30 17971 O 1640.84 0.701762 -1.77426 0
M  V30 17972 C 1637.98 0.829164 -3.34991 0
M  V30 17973 C 1637.09 -0.00154779 -4.32 0
M  V30 17974 C 1636.22 0.907291 -5.23394 0
M  V30 17975 C 1635.26 0.0712573 -6.12059 0
M  V30 17976 N 1634.4 0.935508 -6.9584 0
M  V30 17977 H 1639.24 -0.858869 -2.85355 0
M  V30 17978 H 1636.78 -0.435214 -1.40514 0
M  V30 17979 H 1638.74 1.37021 -3.94057 0
M  V30 17980 H 1637.37 1.57483 -2.81778 0
M  V30 17981 H 1636.42 -0.659903 -3.74632 0
M  V30 17982 H 1637.73 -0.648387 -4.94568 0
M  V30 17983 H 1636.88 1.51652 -5.87441 0
M  V30 17984 H 1635.62 1.58793 -4.61125 0
M  V30 17985 H 1634.63 -0.550844 -5.47034 0
M  V30 17986 H 1635.85 -0.606025 -6.76391 0
M  V30 17987 H 1633.8 1.60162 -6.36148 0
M  V30 17988 H 1633.72 0.344932 -7.55213 0
M  V30 17989 H 1634.98 1.53061 -7.64325 0
M  V30 17990 N 1639.21 1.50354 -0.472382 0
M  V30 17991 C 1640.46 2.02633 0.0822846 0
M  V30 17992 C 1640.79 1.35358 1.39254 0
M  V30 17993 O 1640.07 0.479714 1.88491 0
M  V30 17994 C 1640.35 3.59126 0.264742 0
M  V30 17995 C 1640.2 4.3697 -1.06663 0
M  V30 17996 C 1641.52 4.28148 1.01869 0
M  V30 17997 H 1638.64 0.736451 0.0284304 0
M  V30 17998 H 1641.28 1.79661 -0.618224 0
M  V30 17999 H 1639.43 3.7883 0.86141 0
M  V30 18000 H 1641.1 4.28834 -1.69997 0
M  V30 18001 H 1639.35 4.0066 -1.66295 0
M  V30 18002 H 1640.02 5.44736 -0.892592 0
M  V30 18003 H 1642.49 4.12926 0.512931 0
M  V30 18004 H 1641.37 5.37453 1.11515 0
M  V30 18005 H 1641.63 3.91406 2.05557 0
M  V30 18006 N 1640.69 0.205039 1.56261 0
M  V30 18007 C 1641.94 -0.431735 1.98151 0
M  V30 18008 C 1642.27 -1.60579 1.09215 0
M  V30 18009 O 1641.55 -1.93949 0.146257 0
M  V30 18010 C 1641.83 -0.882278 3.49124 0
M  V30 18011 C 1641.68 0.294278 4.48836 0
M  V30 18012 C 1643 -1.7443 4.04057 0
M  V30 18013 H 1640.12 -0.155457 0.720418 0
M  V30 18014 H 1642.76 0.29796 1.87649 0
M  V30 18015 H 1640.91 -1.50404 3.58205 0
M  V30 18016 H 1642.58 0.932148 4.51784 0
M  V30 18017 H 1640.83 0.94444 4.23394 0
M  V30 18018 H 1641.5 -0.063639 5.51963 0
M  V30 18019 H 1643.97 -1.21983 3.97818 0
M  V30 18020 H 1642.85 -2.02848 5.10043 0
M  V30 18021 H 1643.11 -2.70195 3.49924 0
M  V30 18022 N 1642.17 -1.57451 -0.0684915 0
M  V30 18023 C 1643.42 -1.87041 -0.765505 0
M  V30 18024 C 1643.74 -0.797489 -1.77947 0
M  V30 18025 O 1643.01 0.17349 -1.9513 0
M  V30 18026 H 1641.59 -0.690203 -0.285708 0
M  V30 18027 H 1644.25 -1.94851 -0.0437957 0
M  V30 18028 H 1643.35 -2.8466 -1.27966 0
M  V30 18029 N 1643.65 0.339955 -1.5389 0
M  V30 18030 C 1644.88 1.09975 -1.75251 0
M  V30 18031 C 1645.29 1.8224 -0.493355 0
M  V30 18032 O 1644.65 1.74477 0.535173 0
M  V30 18033 C 1644.7 2.11048 -2.93498 0
M  V30 18034 O 1644.42 1.41721 -4.14544 0
M  V30 18035 C 1645.92 2.99375 -3.26939 0
M  V30 18036 H 1643.14 0.327811 -0.585475 0
M  V30 18037 H 1645.68 0.391068 -2.00726 0
M  V30 18038 H 1643.84 2.77476 -2.70344 0
M  V30 18039 H 1644.25 2.09271 -4.80943 0
M  V30 18040 H 1645.73 3.66223 -4.13019 0
M  V30 18041 H 1646.2 3.65588 -2.43397 0
M  V30 18042 H 1646.81 2.38531 -3.52112 0
M  V30 18043 N 1645.13 1.45684 0.601159 0
M  V30 18044 C 1646.35 1.53574 1.38646 0
M  V30 18045 C 1646.77 0.170511 1.88028 0
M  V30 18046 O 1646.13 -0.829061 1.62582 0
M  V30 18047 C 1646.18 2.52543 2.58658 0
M  V30 18048 O 1645.9 3.83761 2.11327 0
M  V30 18049 C 1647.4 2.70194 3.5144 0
M  V30 18050 H 1644.62 0.519907 0.424191 0
M  V30 18051 H 1647.16 1.90929 0.732559 0
M  V30 18052 H 1645.32 2.18242 3.20077 0
M  V30 18053 H 1645.73 4.37467 2.89349 0
M  V30 18054 H 1647.21 3.43405 4.32177 0
M  V30 18055 H 1647.68 1.76452 4.02196 0
M  V30 18056 H 1648.29 3.05517 2.95871 0
M  V30 18057 N 1646.6 -0.84422 1.33082 0
M  V30 18058 C 1647.85 -1.60149 1.24419 0
M  V30 18059 C 1648.18 -1.93259 -0.190992 0
M  V30 18060 O 1647.46 -1.58242 -1.13092 0
M  V30 18061 C 1647.74 -2.91502 2.11421 0
M  V30 18062 C 1647.59 -2.65108 3.6337 0
M  V30 18063 C 1648.91 -3.92878 1.98331 0
M  V30 18064 H 1646.03 -0.581096 0.453317 0
M  V30 18065 H 1648.67 -0.974093 1.6313 0
M  V30 18066 H 1646.82 -3.45046 1.78537 0
M  V30 18067 H 1648.5 -2.18037 4.06519 0
M  V30 18068 H 1646.74 -1.98896 3.85516 0
M  V30 18069 H 1647.41 -3.58682 4.19584 0
M  V30 18070 H 1649.89 -3.48623 2.27159 0
M  V30 18071 H 1648.76 -4.82625 2.61466 0
M  V30 18072 H 1649.02 -4.31685 0.953972 0
M  V30 18073 N 1648.08 -1.16463 -1.0618 0
M  V30 18074 C 1649.49 -0.95436 -1.60465 0
M  V30 18075 C 1649.84 0.501455 -1.89684 0
M  V30 18076 O 1648.97 1.37488 -1.67111 0
M  V30 18077 C 1649.56 -1.72603 -2.91537 0
M  V30 18078 C 1648.12 -1.56071 -3.42518 0
M  V30 18079 C 1647.27 -1.73403 -2.16395 0
M  V30 18080 H 1650.22 -1.31316 -0.891166 0
M  V30 18081 H 1650.24 -1.20252 -3.60998 0
M  V30 18082 H 1649.75 -2.78554 -2.70239 0
M  V30 18083 H 1647.85 -0.525652 -3.68874 0
M  V30 18084 H 1647.97 -2.34533 -4.17769 0
M  V30 18085 H 1646.33 -1.16155 -2.26672 0
M  V30 18086 H 1647.11 -2.80745 -1.97578 0
M  V30 18087 N 1649.56 1.24734 -0.963288 0
M  V30 18088 C 1650.51 2.2329 -0.461019 0
M  V30 18089 C 1651.49 1.54346 0.454536 0
M  V30 18090 O 1652.69 1.74671 0.286177 0
M  V30 18091 C 1649.81 3.42376 0.251738 0
M  V30 18092 C 1648.9 4.18574 -0.682388 0
M  V30 18093 N 1649.29 4.72008 -1.81775 0
M  V30 18094 C 1647.59 4.43275 -0.492294 0
M  V30 18095 C 1648.29 5.29806 -2.40168 0
M  V30 18096 N 1647.27 5.16751 -1.68729 0
M  V30 18097 H 1651.07 2.62217 -1.32738 0
M  V30 18098 H 1648.58 1.4007 -0.821834 0
M  V30 18099 H 1650.58 4.12131 0.628756 0
M  V30 18100 H 1649.24 3.0497 1.11459 0
M  V30 18101 H 1650.25 4.68878 -2.1994 0
M  V30 18102 H 1646.93 4.16218 0.326963 0
M  V30 18103 H 1648.32 5.8188 -3.35954 0
M  V30 18104 N 1651.04 0.732878 1.39523 0
M  V30 18105 C 1652.45 0.350145 1.83387 0
M  V30 18106 C 1652.8 -1.11807 1.61225 0
M  V30 18107 O 1651.92 -1.86222 1.10229 0
M  V30 18108 C 1652.52 0.628743 3.32915 0
M  V30 18109 C 1651.08 0.299529 3.75206 0
M  V30 18110 C 1650.23 0.892434 2.62547 0
M  V30 18111 H 1653.18 0.930687 1.28545 0
M  V30 18112 H 1653.2 -0.100206 3.80368 0
M  V30 18113 H 1652.71 1.6974 3.49013 0
M  V30 18114 H 1650.81 -0.763373 3.64696 0
M  V30 18115 H 1650.92 0.780607 4.72698 0
M  V30 18116 H 1649.29 0.319218 2.52692 0
M  V30 18117 H 1650.07 1.9657 2.81452 0
M  V30 18118 N 1652.52 -1.50101 0.480349 0
M  V30 18119 C 1653.74 -2.07278 -0.0710872 0
M  V30 18120 C 1654.17 -1.34082 -1.31923 0
M  V30 18121 O 1653.52 -0.391251 -1.77028 0
M  V30 18122 C 1653.57 -3.59099 -0.328706 0
M  V30 18123 O 1652.68 -3.8764 -1.40745 0
M  V30 18124 H 1652.02 -0.66378 0.0170748 0
M  V30 18125 H 1654.55 -1.93178 0.674049 0
M  V30 18126 H 1654.56 -4.04049 -0.566435 0
M  V30 18127 H 1653.23 -4.11789 0.583316 0
M  V30 18128 H 1651.81 -3.54519 -1.15631 0
M  V30 18129 N 1653.99 -0.213323 -1.5615 0
M  V30 18130 C 1654.9 0.711703 -2.23544 0
M  V30 18131 C 1655.92 1.22027 -1.24038 0
M  V30 18132 O 1657.1 1.26361 -1.56828 0
M  V30 18133 C 1654.16 1.90645 -2.89578 0
M  V30 18134 C 1653.22 1.44066 -4.04405 0
M  V30 18135 C 1652.45 2.57846 -4.6728 0
M  V30 18136 O 1652.68 3.75781 -4.29121 0
M  V30 18137 O 1651.61 2.29518 -5.56422 0
M  V30 18138 H 1655.44 0.167635 -3.03237 0
M  V30 18139 H 1653.02 0.016771 -1.49391 0
M  V30 18140 H 1654.9 2.60435 -3.31288 0
M  V30 18141 H 1653.58 2.43877 -2.12851 0
M  V30 18142 H 1652.49 0.711024 -3.67281 0
M  V30 18143 H 1653.82 0.954809 -4.8285 0
M  V30 18144 N 1655.47 1.57485 0.0601405 0
M  V30 18145 C 1656.41 1.99806 1.10239 0
M  V30 18146 C 1657.38 0.876931 1.36926 0
M  V30 18147 O 1658.57 1.14022 1.50104 0
M  V30 18148 C 1655.69 2.34471 2.4442 0
M  V30 18149 C 1654.74 3.56712 2.33793 0
M  V30 18150 S 1655.57 5.07095 1.7209 0
M  V30 18151 C 1656.73 5.44972 3.07825 0
M  V30 18152 H 1656.96 2.87897 0.74178 0
M  V30 18153 H 1654.5 1.52037 0.269081 0
M  V30 18154 H 1656.45 2.55116 3.21599 0
M  V30 18155 H 1655.11 1.46888 2.77638 0
M  V30 18156 H 1654.31 3.78521 3.32773 0
M  V30 18157 H 1653.91 3.35757 1.64752 0
M  V30 18158 H 1656.2 5.43756 4.04148 0
M  V30 18159 H 1657.14 6.4564 2.90783 0
M  V30 18160 H 1657.55 4.7244 3.08967 0
M  V30 18161 N 1656.95 -0.331789 1.54068 0
M  V30 18162 C 1657.88 -1.41332 1.8587 0
M  V30 18163 C 1658.86 -1.54353 0.714787 0
M  V30 18164 O 1660.05 -1.68368 0.967777 0
M  V30 18165 C 1657.18 -2.78218 2.07875 0
M  V30 18166 C 1656.13 -2.79994 3.23709 0
M  V30 18167 C 1655.46 -4.19878 3.31069 0
M  V30 18168 C 1656.76 -2.44476 4.6155 0
M  V30 18169 H 1658.45 -1.14966 2.76447 0
M  V30 18170 H 1656 -0.551615 1.33016 0
M  V30 18171 H 1657.95 -3.53937 2.28706 0
M  V30 18172 H 1656.67 -3.06044 1.14038 0
M  V30 18173 H 1655.33 -2.0673 3.02751 0
M  V30 18174 H 1654.98 -4.44831 2.34807 0
M  V30 18175 H 1654.68 -4.21974 4.08915 0
M  V30 18176 H 1656.2 -4.97421 3.54125 0
M  V30 18177 H 1657.62 -3.09908 4.82317 0
M  V30 18178 H 1656.02 -2.57837 5.41886 0
M  V30 18179 H 1657.09 -1.3964 4.64358 0
M  V30 18180 N 1658.43 -1.46001 -0.593424 0
M  V30 18181 C 1659.68 -1.50457 -1.34933 0
M  V30 18182 C 1660 -0.153383 -1.94396 0
M  V30 18183 O 1659.27 0.818894 -1.77963 0
M  V30 18184 H 1657.85 -0.554119 -0.50096 0
M  V30 18185 H 1660.51 -1.82057 -0.695798 0
M  V30 18186 H 1659.61 -2.25131 -2.16154 0
M  V30 18187 N 1659.91 0.83715 -1.33527 0
M  V30 18188 C 1660.84 1.96231 -1.26553 0
M  V30 18189 C 1661.82 1.69474 -0.14576 0
M  V30 18190 O 1663 1.91274 -0.335815 0
M  V30 18191 C 1660.13 3.32419 -1.00574 0
M  V30 18192 C 1659.09 3.73577 -2.08864 0
M  V30 18193 C 1658.41 5.07591 -1.68095 0
M  V30 18194 C 1659.71 3.87179 -3.50556 0
M  V30 18195 H 1661.41 2.02324 -2.20693 0
M  V30 18196 H 1658.95 0.972038 -1.06242 0
M  V30 18197 H 1660.91 4.10703 -0.943439 0
M  V30 18198 H 1659.63 3.26587 -0.0287268 0
M  V30 18199 H 1658.29 2.97557 -2.14139 0
M  V30 18200 H 1657.94 4.98232 -0.690922 0
M  V30 18201 H 1657.64 5.361 -2.40563 0
M  V30 18202 H 1659.16 5.88349 -1.63334 0
M  V30 18203 H 1660.57 4.55771 -3.47772 0
M  V30 18204 H 1658.97 4.27127 -4.21524 0
M  V30 18205 H 1660.04 2.8958 -3.88936 0
M  V30 18206 N 1661.38 1.17024 1.05561 0
M  V30 18207 C 1662.31 0.906823 2.15172 0
M  V30 18208 C 1663.3 -0.149745 1.6944 0
M  V30 18209 O 1664.48 -0.000287092 1.942 0
M  V30 18210 C 1661.61 0.415251 3.44809 0
M  V30 18211 C 1660.56 1.41058 4.04088 0
M  V30 18212 C 1659.89 0.777109 5.29023 0
M  V30 18213 C 1661.19 2.78258 4.42007 0
M  V30 18214 H 1662.88 1.82347 2.37466 0
M  V30 18215 H 1660.43 0.878162 1.14124 0
M  V30 18216 H 1662.38 0.218407 4.20834 0
M  V30 18217 H 1661.11 -0.536924 3.22156 0
M  V30 18218 H 1659.77 1.5941 3.30127 0
M  V30 18219 H 1659.41 -0.181784 5.02671 0
M  V30 18220 H 1659.11 1.44151 5.69644 0
M  V30 18221 H 1660.64 0.590455 6.07738 0
M  V30 18222 H 1662.05 2.63645 5.09082 0
M  V30 18223 H 1660.45 3.41241 4.93634 0
M  V30 18224 H 1661.52 3.3295 3.52523 0
M  V30 18225 N 1662.86 -1.24221 0.969889 0
M  V30 18226 C 1664.27 -1.74206 0.671494 0
M  V30 18227 C 1664.62 -1.78576 -0.81271 0
M  V30 18228 O 1663.75 -1.41664 -1.63586 0
M  V30 18229 C 1664.34 -3.16371 1.21222 0
M  V30 18230 C 1662.9 -3.63855 0.96368 0
M  V30 18231 C 1662.05 -2.42429 1.34623 0
M  V30 18232 H 1665 -1.09893 1.14496 0
M  V30 18233 H 1665.02 -3.7606 0.579552 0
M  V30 18234 H 1664.53 -3.13159 2.29245 0
M  V30 18235 H 1662.64 -3.72463 -0.100931 0
M  V30 18236 H 1662.75 -4.51207 1.61087 0
M  V30 18237 H 1661.11 -2.42952 0.764624 0
M  V30 18238 H 1661.9 -2.41896 2.436 0
M  V30 18239 N 1664.34 -0.740267 -1.39132 0
M  V30 18240 C 1665.29 -0.103744 -2.30567 0
M  V30 18241 C 1666.26 0.724026 -1.49489 0
M  V30 18242 O 1667.44 0.682904 -1.7816 0
M  V30 18243 C 1664.58 0.793587 -3.35851 0
M  V30 18244 C 1663.7 -0.0473671 -4.31974 0
M  V30 18245 C 1662.83 0.851726 -5.24327 0
M  V30 18246 C 1661.87 0.00633633 -6.121 0
M  V30 18247 N 1661.01 0.861652 -6.96793 0
M  V30 18248 H 1665.85 -0.889087 -2.84428 0
M  V30 18249 H 1663.38 -0.450093 -1.40045 0
M  V30 18250 H 1665.34 1.32834 -3.95488 0
M  V30 18251 H 1663.97 1.54485 -2.83433 0
M  V30 18252 H 1663.02 -0.699601 -3.73911 0
M  V30 18253 H 1664.34 -0.700806 -4.93852 0
M  V30 18254 H 1663.49 1.45413 -5.89016 0
M  V30 18255 H 1662.23 1.53893 -4.62783 0
M  V30 18256 H 1661.23 -0.608833 -5.46419 0
M  V30 18257 H 1662.46 -0.677731 -6.7571 0
M  V30 18258 H 1660.4 1.53405 -6.37811 0
M  V30 18259 H 1660.32 0.264812 -7.55536 0
M  V30 18260 H 1661.59 1.44945 -7.65905 0
M  V30 18261 N 1665.82 1.49844 -0.488302 0
M  V30 18262 C 1667.04 2.07313 0.0600937 0
M  V30 18263 C 1667.47 1.3478 1.3121 0
M  V30 18264 O 1666.83 0.400634 1.76818 0
M  V30 18265 C 1666.87 3.59268 0.309658 0
M  V30 18266 O 1665.98 3.88381 1.38688 0
M  V30 18267 H 1665.32 0.663681 -0.0205947 0
M  V30 18268 H 1667.85 1.92818 -0.684284 0
M  V30 18269 H 1667.86 4.04344 0.545 0
M  V30 18270 H 1666.53 4.11474 -0.605146 0
M  V30 18271 H 1665.11 3.55128 1.13749 0
M  V30 18272 N 1667.3 0.221601 1.56034 0
M  V30 18273 C 1668.52 -0.417979 2.03145 0
M  V30 18274 C 1668.95 -1.52556 1.10038 0
M  V30 18275 O 1668.3 -1.81084 0.0885729 0
M  V30 18276 C 1668.35 -0.926762 3.48487 0
M  V30 18277 O 1667.46 -2.03811 3.58518 0
M  V30 18278 H 1666.8 -0.0945778 0.65723 0
M  V30 18279 H 1669.33 0.340252 2.01751 0
M  V30 18280 H 1669.34 -1.23656 3.8881 0
M  V30 18281 H 1668.01 -0.116115 4.15738 0
M  V30 18282 H 1666.59 -1.73494 3.30082 0
M  V30 18283 N 1668.77 -1.57515 -0.0517878 0
M  V30 18284 C 1670.02 -1.87396 -0.746022 0
M  V30 18285 C 1670.34 -0.817053 -1.77718 0
M  V30 18286 O 1671.54 -1.00435 -2.5224 0
M  V30 18287 C 1670 -3.32481 -1.37783 0
M  V30 18288 C 1669.61 -4.46349 -0.384208 0
M  V30 18289 C 1671.35 -3.71539 -2.05327 0
M  V30 18290 C 1669.26 -5.82484 -1.02307 0
M  V30 18291 H 1668.19 -0.699127 -0.282379 0
M  V30 18292 H 1670.84 -1.835 0.000245524 0
M  V30 18293 H 1669.22 -3.31051 -2.17304 0
M  V30 18294 H 1670.39 -4.59209 0.382639 0
M  V30 18295 H 1668.71 -4.15976 0.187873 0
M  V30 18296 H 1671.31 -4.70553 -2.53936 0
M  V30 18297 H 1671.65 -3.02361 -2.86153 0
M  V30 18298 H 1672.18 -3.75046 -1.32611 0
M  V30 18299 H 1668.92 -6.55005 -0.254704 0
M  V30 18300 H 1668.44 -5.73388 -1.7603 0
M  V30 18301 H 1670.12 -6.28476 -1.5371 0
M  V30 18302 N 1670.25 0.323614 -1.54242 0
M  V30 18303 C 1671.48 1.08548 -1.76726 0
M  V30 18304 C 1671.9 1.8093 -0.514375 0
M  V30 18305 O 1671.26 1.73255 0.534069 0
M  V30 18306 C 1671.31 2.05928 -2.96017 0
M  V30 18307 O 1670.41 3.13825 -2.67559 0
M  V30 18308 H 1669.75 0.31297 -0.585616 0
M  V30 18309 H 1672.28 0.367925 -2.01265 0
M  V30 18310 H 1672.29 2.48799 -3.23362 0
M  V30 18311 H 1670.97 1.52646 -3.86875 0
M  V30 18312 H 1669.55 2.7563 -2.51163 0
M  V30 18313 N 1671.73 1.46313 0.585673 0
M  V30 18314 C 1672.97 1.53027 1.35507 0
M  V30 18315 C 1673.34 0.176473 1.91187 0
M  V30 18316 O 1674.54 0.118349 2.68539 0
M  V30 18317 C 1672.81 2.59609 2.45638 0
M  V30 18318 S 1674.37 2.85706 3.33043 0
M  V30 18319 H 1671.18 0.540697 0.461701 0
M  V30 18320 H 1673.79 1.8353 0.673585 0
M  V30 18321 H 1672.49 3.5661 2.03119 0
M  V30 18322 H 1672.02 2.30829 3.18562 0
M  V30 18323 H 1674.04 2.20751 4.44391 0
M  V30 18324 N 1673.21 -0.830057 1.33969 0
M  V30 18325 C 1674.44 -1.61774 1.28984 0
M  V30 18326 C 1674.85 -1.88299 -0.137515 0
M  V30 18327 O 1674.21 -1.46936 -1.0824 0
M  V30 18328 C 1674.26 -2.96282 2.07121 0
M  V30 18329 O 1673.98 -2.70918 3.44289 0
M  V30 18330 C 1675.48 -3.90699 2.09449 0
M  V30 18331 H 1672.7 -0.503088 0.444008 0
M  V30 18332 H 1675.25 -1.03328 1.76475 0
M  V30 18333 H 1673.4 -3.51305 1.63289 0
M  V30 18334 H 1673.82 -3.56635 3.84593 0
M  V30 18335 H 1675.29 -4.82266 2.68558 0
M  V30 18336 H 1675.77 -4.25536 1.08702 0
M  V30 18337 H 1676.37 -3.41614 2.53338 0
M  V30 18338 N 1674.69 -1.17582 -1.04939 0
M  V30 18339 C 1675.93 -0.976635 -1.79558 0
M  V30 18340 C 1676.29 0.48588 -1.8575 0
M  V30 18341 O 1677.49 0.804225 -2.56487 0
M  V30 18342 C 1675.76 -1.60316 -3.19427 0
M  V30 18343 S 1677.32 -1.55052 -4.10493 0
M  V30 18344 H 1674.14 -0.350907 -0.618373 0
M  V30 18345 H 1676.74 -1.49572 -1.25891 0
M  V30 18346 H 1675.45 -2.66002 -3.12524 0
M  V30 18347 H 1674.98 -1.08399 -3.78171 0
M  V30 18348 H 1676.99 -0.56028 -4.93027 0
M  V30 18349 N 1676.17 1.23705 -0.976463 0
M  V30 18350 C 1677.41 1.91635 -0.641897 0
M  V30 18351 C 1677.73 1.7661 0.826678 0
M  V30 18352 O 1677 1.14304 1.59096 0
M  V30 18353 H 1675.58 0.709264 -0.234422 0
M  V30 18354 H 1678.25 1.50414 -1.23943 0
M  V30 18355 H 1677.34 2.99138 -0.890099 0
M  V30 18356 N 1677.64 0.747635 1.38738 0
M  V30 18357 C 1678.61 0.124321 2.28863 0
M  V30 18358 C 1679.61 -0.653816 1.46908 0
M  V30 18359 O 1680.8 -0.480963 1.67429 0
M  V30 18360 C 1677.93 -0.832601 3.30576 0
M  V30 18361 H 1679.12 0.918492 2.85489 0
M  V30 18362 H 1676.67 0.514262 1.47598 0
M  V30 18363 H 1677.41 -1.65267 2.79029 0
M  V30 18364 H 1677.19 -0.277109 3.9112 0
M  V30 18365 H 1678.68 -1.2649 3.97982 0
M  V30 18366 N 1679.12 -1.49583 0.496242 0
M  V30 18367 C 1680.35 -2.06847 -0.0469118 0
M  V30 18368 C 1680.76 -1.35715 -1.31251 0
M  V30 18369 O 1680.12 -0.434021 -1.77264 0
M  V30 18370 C 1680.17 -3.60174 -0.309338 0
M  V30 18371 O 1679.89 -4.28628 0.906082 0
M  V30 18372 C 1681.39 -4.34137 -0.896664 0
M  V30 18373 H 1678.61 -0.67075 0.0183324 0
M  V30 18374 H 1681.16 -1.92427 0.692237 0
M  V30 18375 H 1679.31 -3.74312 -0.998459 0
M  V30 18376 H 1679.73 -5.20254 0.666014 0
M  V30 18377 H 1681.2 -5.42307 -1.0299 0
M  V30 18378 H 1681.68 -3.96299 -1.89325 0
M  V30 18379 H 1682.28 -4.24593 -0.245158 0
M  V30 18380 N 1680.6 -0.229873 -1.55915 0
M  V30 18381 C 1681.85 0.398775 -1.98127 0
M  V30 18382 C 1682.17 1.597 -1.11897 0
M  V30 18383 O 1681.44 1.94898 -0.197868 0
M  V30 18384 H 1680.02 0.150323 -0.731719 0
M  V30 18385 H 1682.68 -0.324704 -1.92176 0
M  V30 18386 H 1681.78 0.719475 -3.03694 0
M  V30 18387 N 1682.08 1.5754 0.0434337 0
M  V30 18388 C 1683.33 1.88235 0.735652 0
M  V30 18389 C 1683.65 0.825698 1.76656 0
M  V30 18390 O 1682.92 -0.142424 1.95382 0
M  V30 18391 H 1681.5 0.694661 0.274692 0
M  V30 18392 H 1684.16 1.94896 0.0127911 0
M  V30 18393 H 1683.25 2.86659 1.23421 0
M  V30 18394 N 1683.56 -0.31543 1.54411 0
M  V30 18395 C 1684.8 -1.05033 1.72663 0
M  V30 18396 C 1685.12 -1.8828 0.507504 0
M  V30 18397 O 1684.39 -1.89968 -0.478418 0
M  V30 18398 H 1682.97 -0.39077 0.636638 0
M  V30 18399 H 1685.64 -0.3499 1.91733 0
M  V30 18400 H 1684.73 -1.71171 2.60973 0
M  V30 18401 N 1685.03 -1.46622 -0.577906 0
M  V30 18402 C 1685.98 -1.57926 -1.70769 0
M  V30 18403 C 1686.98 -0.447509 -1.63382 0
M  V30 18404 O 1688.18 -0.624559 -1.68817 0
M  V30 18405 H 1684.56 -0.496618 -0.56469 0
M  V30 18406 H 1686.53 -2.52908 -1.58367 0
M  V30 18407 C 1685.28 -1.59124 -3.09152 0
M  V30 18408 H 1684.6 -2.45549 -3.15509 0
M  V30 18409 H 1686.04 -1.71087 -3.8795 0
M  V30 18410 C 1684.5 -0.320734 -3.3537 0
M  V30 18411 O 1685.03 0.586999 -3.97388 0
M  V30 18412 N 1683.24 -0.207156 -2.89861 0
M  V30 18413 H 1682.78 -0.946744 -2.39572 0
M  V30 18414 H 1682.74 0.642028 -3.07775 0
M  V30 18415 N 1686.51 0.822941 -1.34408 0
M  V30 18416 C 1687.92 1.39571 -1.24003 0
M  V30 18417 C 1688.27 1.95739 0.134483 0
M  V30 18418 O 1687.4 1.90054 1.03481 0
M  V30 18419 C 1687.99 2.53726 -2.24519 0
M  V30 18420 C 1686.55 3.06911 -2.17905 0
M  V30 18421 C 1685.7 1.79783 -2.11124 0
M  V30 18422 H 1688.65 0.62734 -1.45774 0
M  V30 18423 H 1688.67 3.31818 -1.86217 0
M  V30 18424 H 1688.18 2.12816 -3.24547 0
M  V30 18425 H 1686.29 3.52326 -1.21233 0
M  V30 18426 H 1686.4 3.66003 -3.09158 0
M  V30 18427 H 1684.76 2.00679 -1.56845 0
M  V30 18428 H 1685.55 1.41047 -3.12987 0
M  V30 18429 N 1687.99 1.18137 1.04314 0
M  V30 18430 C 1689.41 0.930523 1.29667 0
M  V30 18431 C 1689.61 -0.405336 1.97381 0
M  V30 18432 O 1688.66 -1.14025 2.25288 0
M  V30 18433 C 1689.98 2.09427 2.1578 0
M  V30 18434 C 1691.52 2.13229 2.29134 0
M  V30 18435 C 1692 3.29014 3.18612 0
M  V30 18436 N 1693.49 3.28859 3.26199 0
M  V30 18437 C 1694.22 4.15092 3.95583 0
M  V30 18438 N 1693.72 5.11453 4.67319 0
M  V30 18439 N 1695.51 4.03014 3.91837 0
M  V30 18440 H 1687.66 2.04108 0.587669 0
M  V30 18441 H 1689.93 0.89171 0.321804 0
M  V30 18442 H 1689.63 3.06023 1.73328 0
M  V30 18443 H 1689.51 2.0528 3.16449 0
M  V30 18444 H 1691.89 1.17212 2.70823 0
M  V30 18445 H 1691.98 2.21435 1.28064 0
M  V30 18446 H 1691.62 4.25302 2.77635 0
M  V30 18447 H 1691.55 3.18045 4.19708 0
M  V30 18448 H 1694.04 2.59097 2.75095 0
M  V30 18449 H 1694.35 5.7363 5.1785 0
M  V30 18450 H 1692.7 5.15415 4.66232 0
M  V30 18451 H 1695.89 3.27021 3.34925 0
M  V30 18452 H 1696.06 4.70435 4.4564 0
M  V30 18453 N 1689.47 -1.23186 0.98301 0
M  V30 18454 C 1690.71 -1.91955 0.65431 0
M  V30 18455 C 1691.05 -1.76482 -0.810419 0
M  V30 18456 O 1690.32 -1.12744 -1.5849 0
M  V30 18457 C 1690.61 -3.4449 1.04873 0
M  V30 18458 C 1690.46 -3.6906 2.57128 0
M  V30 18459 C 1691.78 -4.36065 0.594578 0
M  V30 18460 H 1688.9 -0.69711 0.239179 0
M  V30 18461 H 1691.54 -1.45257 1.22476 0
M  V30 18462 H 1689.69 -3.84394 0.563333 0
M  V30 18463 H 1691.36 -3.38622 3.13262 0
M  V30 18464 H 1689.6 -3.13681 2.99644 0
M  V30 18465 H 1690.27 -4.75846 2.79776 0
M  V30 18466 H 1692.75 -4.03622 1.01136 0
M  V30 18467 H 1691.63 -5.41489 0.898955 0
M  V30 18468 H 1691.89 -4.39206 -0.505033 0
M  V30 18469 N 1690.95 -0.754982 -1.38339 0
M  V30 18470 C 1692.17 -0.321355 -2.04895 0
M  V30 18471 C 1692.6 1.04249 -1.56569 0
M  V30 18472 O 1691.95 1.66464 -0.718299 0
M  V30 18473 C 1692 -0.354873 -3.5885 0
M  V30 18474 O 1691.11 0.65063 -4.07235 0
M  V30 18475 H 1690.45 -0.142033 -0.648631 0
M  V30 18476 H 1692.98 -1.02649 -1.76987 0
M  V30 18477 H 1692.99 -0.206243 -4.07478 0
M  V30 18478 H 1691.66 -1.34994 -3.93382 0
M  V30 18479 H 1690.24 0.466498 -3.69971 0
M  V30 18480 N 1692.42 1.49318 -0.504168 0
M  V30 18481 C 1693.67 2.02762 0.0392846 0
M  V30 18482 C 1694 1.38282 1.36352 0
M  V30 18483 O 1693.28 0.519587 1.87431 0
M  V30 18484 C 1693.56 3.59606 0.188507 0
M  V30 18485 C 1693.41 4.3461 -1.15908 0
M  V30 18486 C 1694.73 4.30213 0.927641 0
M  V30 18487 H 1691.85 0.736889 0.0128028 0
M  V30 18488 H 1694.49 1.78309 -0.656193 0
M  V30 18489 H 1692.64 3.80572 0.780861 0
M  V30 18490 H 1694.32 4.25132 -1.79055 0
M  V30 18491 H 1692.56 3.97043 -1.74756 0
M  V30 18492 H 1693.23 5.4272 -1.00794 0
M  V30 18493 H 1695.71 4.13922 0.425228 0
M  V30 18494 H 1694.58 5.39697 1.0009 0
M  V30 18495 H 1694.84 3.95678 1.97209 0
M  V30 18496 N 1693.9 0.238138 1.5579 0
M  V30 18497 C 1695.13 -0.396409 2.03576 0
M  V30 18498 C 1695.55 -1.5138 1.11649 0
M  V30 18499 O 1694.91 -1.80979 0.107774 0
M  V30 18500 C 1694.96 -0.889749 3.49451 0
M  V30 18501 O 1694.06 -1.99997 3.60659 0
M  V30 18502 H 1693.4 -0.0876017 0.658196 0
M  V30 18503 H 1695.93 0.361632 2.01379 0
M  V30 18504 H 1695.94 -1.19526 3.901 0
M  V30 18505 H 1694.62 -0.0720136 4.15838 0
M  V30 18506 H 1693.2 -1.69983 3.31904 0
M  V30 18507 N 1695.38 -1.57561 -0.0350783 0
M  V30 18508 C 1696.63 -1.89276 -0.728172 0
M  V30 18509 C 1696.96 -0.835137 -1.75326 0
M  V30 18510 O 1696.23 0.150516 -1.93917 0
M  V30 18511 C 1696.52 -3.31638 -1.40316 0
M  V30 18512 C 1696.37 -4.48089 -0.391996 0
M  V30 18513 C 1697.69 -3.72816 -2.33872 0
M  V30 18514 H 1694.81 -0.688381 -0.26325 0
M  V30 18515 H 1697.45 -1.89998 0.00900661 0
M  V30 18516 H 1695.6 -3.31153 -2.0315 0
M  V30 18517 H 1697.27 -4.60706 0.233965 0
M  V30 18518 H 1695.52 -4.32834 0.289305 0
M  V30 18519 H 1696.19 -5.4457 -0.902641 0
M  V30 18520 H 1698.66 -3.74629 -1.81086 0
M  V30 18521 H 1697.54 -4.73245 -2.78084 0
M  V30 18522 H 1697.8 -3.04744 -3.20287 0
M  V30 18523 N 1696.86 0.307236 -1.54576 0
M  V30 18524 C 1697.79 1.38357 -1.88095 0
M  V30 18525 C 1698.77 1.53196 -0.739253 0
M  V30 18526 O 1699.95 1.66807 -0.99444 0
M  V30 18527 C 1697.08 2.74876 -2.12274 0
M  V30 18528 C 1696.04 2.74809 -3.28122 0
M  V30 18529 C 1695.36 4.14557 -3.37707 0
M  V30 18530 C 1696.66 2.37103 -4.65381 0
M  V30 18531 H 1698.36 1.10554 -2.78241 0
M  V30 18532 H 1695.9 0.530383 -1.33877 0
M  V30 18533 H 1697.86 3.50254 -2.34308 0
M  V30 18534 H 1696.58 3.04191 -1.18893 0
M  V30 18535 H 1695.24 2.01887 -3.06002 0
M  V30 18536 H 1694.89 4.41039 -2.41854 0
M  V30 18537 H 1694.59 4.15415 -4.15577 0
M  V30 18538 H 1696.11 4.91724 -3.61994 0
M  V30 18539 H 1697.53 3.02196 -4.87186 0
M  V30 18540 H 1695.92 2.49184 -5.45919 0
M  V30 18541 H 1696.99 1.32235 -4.66521 0
M  V30 18542 N 1698.34 1.46926 0.570122 0
M  V30 18543 C 1699.75 1.469 1.15227 0
M  V30 18544 C 1700.1 0.216651 1.95 0
M  V30 18545 O 1699.22 -0.679388 2.05459 0
M  V30 18546 C 1699.82 2.66158 2.09632 0
M  V30 18547 C 1698.38 2.69133 2.63144 0
M  V30 18548 C 1697.52 2.39795 1.39262 0
M  V30 18549 H 1700.48 1.54623 0.35739 0
M  V30 18550 H 1700.5 2.42393 2.93302 0
M  V30 18551 H 1700.01 3.5729 1.51543 0
M  V30 18552 H 1698.11 1.82106 3.25066 0
M  V30 18553 H 1698.22 3.69459 3.05019 0
M  V30 18554 H 1696.59 1.9011 1.695 0
M  V30 18555 H 1697.37 3.33119 0.829855 0
M  V30 18556 N 1699.82 -0.815801 1.34842 0
M  V30 18557 C 1701.04 -1.60915 1.30848 0
M  V30 18558 C 1701.47 -1.87758 -0.113345 0
M  V30 18559 O 1700.82 -1.4582 -1.07732 0
M  V30 18560 C 1700.87 -2.92284 2.11192 0
M  V30 18561 O 1699.98 -3.84685 1.48632 0
M  V30 18562 H 1699.32 -0.48913 0.449052 0
M  V30 18563 H 1701.85 -1.01322 1.7775 0
M  V30 18564 H 1701.86 -3.41789 2.2281 0
M  V30 18565 H 1700.53 -2.72071 3.14563 0
M  V30 18566 H 1699.11 -3.43215 1.458 0
M  V30 18567 N 1701.29 -1.18689 -1.03686 0
M  V30 18568 C 1702.54 -0.984601 -1.76952 0
M  V30 18569 C 1702.87 0.485417 -1.88345 0
M  V30 18570 O 1702.12 1.37665 -1.39093 0
M  V30 18571 C 1702.42 -1.58911 -3.20128 0
M  V30 18572 C 1702.09 -3.0859 -3.2876 0
M  V30 18573 C 1700.75 -3.49442 -3.30823 0
M  V30 18574 C 1703.1 -4.04603 -3.28551 0
M  V30 18575 C 1700.43 -4.84875 -3.30323 0
M  V30 18576 C 1702.78 -5.39956 -3.29591 0
M  V30 18577 C 1701.45 -5.8025 -3.29948 0
M  V30 18578 H 1700.72 -0.360291 -0.647512 0
M  V30 18579 H 1703.36 -1.47811 -1.21754 0
M  V30 18580 H 1701.67 -1.0177 -3.78352 0
M  V30 18581 H 1703.37 -1.40797 -3.75469 0
M  V30 18582 H 1699.96 -2.76034 -3.27877 0
M  V30 18583 H 1704.14 -3.7409 -3.26145 0
M  V30 18584 H 1699.4 -5.15386 -3.28919 0
M  V30 18585 H 1703.57 -6.14117 -3.28379 0
M  V30 18586 H 1701.2 -6.85169 -3.29315 0
M  V30 18587 N 1702.77 1.22662 -0.989529 0
M  V30 18588 C 1704.05 1.86816 -0.579566 0
M  V30 18589 C 1704.43 1.88858 0.943188 0
M  V30 18590 O 1703.78 1.37668 1.82372 0
M  V30 18591 C 1703.99 3.27863 -1.19612 0
M  V30 18592 C 1705.33 4.04384 -1.29454 0
M  V30 18593 O 1706.36 3.37116 -1.15026 0
M  V30 18594 O 1705.22 5.24789 -1.52508 0
M  V30 18595 H 1702.31 0.803332 -0.196434 0
M  V30 18596 H 1704.86 1.30467 -1.08519 0
M  V30 18597 H 1703.63 3.20993 -2.23784 0
M  V30 18598 H 1703.25 3.91813 -0.675875 0
M  V30 18599 N 1704.25 0.762308 1.37937 0
M  V30 18600 C 1705.18 0.100528 2.28979 0
M  V30 18601 C 1706.19 -0.674409 1.48174 0
M  V30 18602 O 1707.38 -0.514059 1.70938 0
M  V30 18603 C 1704.48 -0.881478 3.27236 0
M  V30 18604 C 1703.66 -0.162349 4.37099 0
M  V30 18605 C 1702.72 -1.05636 5.15488 0
M  V30 18606 O 1701.74 -0.523636 5.66786 0
M  V30 18607 N 1702.94 -2.3836 5.29306 0
M  V30 18608 H 1705.71 0.882451 2.86414 0
M  V30 18609 H 1703.27 0.613839 1.49812 0
M  V30 18610 H 1705.26 -1.48278 3.76558 0
M  V30 18611 H 1703.83 -1.56443 2.70637 0
M  V30 18612 H 1703.05 0.61976 3.89298 0
M  V30 18613 H 1704.34 0.334928 5.07696 0
M  V30 18614 H 1703.74 -2.84087 4.89194 0
M  V30 18615 H 1702.29 -2.9352 5.8197 0
M  V30 18616 N 1705.73 -1.49049 0.51208 0
M  V30 18617 C 1706.95 -2.07382 -0.0271044 0
M  V30 18618 C 1707.38 -1.3685 -1.29049 0
M  V30 18619 O 1706.74 -0.428713 -1.76158 0
M  V30 18620 C 1706.78 -3.59715 -0.252462 0
M  V30 18621 O 1705.89 -3.90538 -1.32491 0
M  V30 18622 H 1705.23 -0.663269 0.0311507 0
M  V30 18623 H 1707.76 -1.91705 0.714873 0
M  V30 18624 H 1707.77 -4.05159 -0.480603 0
M  V30 18625 H 1706.44 -4.10459 0.670531 0
M  V30 18626 H 1705.02 -3.56892 -1.08085 0
M  V30 18627 N 1707.21 -0.246397 -1.55662 0
M  V30 18628 C 1708.45 0.378487 -1.98931 0
M  V30 18629 C 1708.78 1.57984 -1.13452 0
M  V30 18630 O 1708.04 1.94822 -0.185214 0
M  V30 18631 C 1708.33 0.832225 -3.47576 0
M  V30 18632 C 1708 -0.261318 -4.50142 0
M  V30 18633 C 1706.66 -0.56166 -4.77911 0
M  V30 18634 C 1709.01 -0.999618 -5.11524 0
M  V30 18635 C 1706.34 -1.60438 -5.64337 0
M  V30 18636 C 1708.69 -2.03186 -5.99081 0
M  V30 18637 C 1707.36 -2.33885 -6.25183 0
M  V30 18638 H 1706.63 0.138498 -0.727942 0
M  V30 18639 H 1709.28 -0.354116 -1.88197 0
M  V30 18640 H 1707.58 1.64402 -3.55639 0
M  V30 18641 H 1709.28 1.32598 -3.78442 0
M  V30 18642 H 1705.87 -0.0170894 -4.28597 0
M  V30 18643 H 1710.05 -0.780833 -4.90119 0
M  V30 18644 H 1705.31 -1.84758 -5.82816 0
M  V30 18645 H 1709.48 -2.60886 -6.45687 0
M  V30 18646 H 1707.11 -3.14822 -6.91947 0
M  V30 18647 N 1708.68 1.57577 0.026722 0
M  V30 18648 C 1709.93 1.89379 0.717062 0
M  V30 18649 C 1710.26 0.843976 1.75235 0
M  V30 18650 O 1709.51 -0.154755 1.95087 0
M  V30 18651 C 1709.81 3.27927 1.42121 0
M  V30 18652 C 1709.48 4.47872 0.521676 0
M  V30 18653 C 1708.14 4.8042 0.273926 0
M  V30 18654 C 1710.49 5.21105 -0.0992493 0
M  V30 18655 C 1707.82 5.83588 -0.603488 0
M  V30 18656 C 1710.17 6.25206 -0.964379 0
M  V30 18657 C 1708.84 6.56227 -1.22157 0
M  V30 18658 H 1708.11 0.692988 0.262391 0
M  V30 18659 H 1710.75 1.91486 -0.0230629 0
M  V30 18660 H 1709.06 3.2182 2.23471 0
M  V30 18661 H 1710.76 3.49783 1.96094 0
M  V30 18662 H 1707.35 4.22425 0.724931 0
M  V30 18663 H 1711.53 4.96237 0.0791882 0
M  V30 18664 H 1706.79 6.05997 -0.811031 0
M  V30 18665 H 1710.96 6.81094 -1.45201 0
M  V30 18666 H 1708.59 7.35991 -1.90317 0
M  V30 18667 N 1710.16 -0.299034 1.54737 0
M  V30 18668 C 1711.4 -1.04194 1.75849 0
M  V30 18669 C 1711.77 -1.84422 0.534101 0
M  V30 18670 O 1712.97 -2.61481 0.622996 0
M  V30 18671 C 1711.24 -1.92232 3.013 0
M  V30 18672 S 1712.8 -2.73142 3.43423 0
M  V30 18673 H 1709.61 -0.351367 0.618112 0
M  V30 18674 H 1712.22 -0.315134 1.92943 0
M  V30 18675 H 1710.92 -1.32172 3.88534 0
M  V30 18676 H 1710.45 -2.69277 2.86798 0
M  V30 18677 H 1712.47 -3.94747 3.00647 0
M  V30 18678 N 1711.64 -1.47227 -0.562322 0
M  V30 18679 C 1712.87 -1.57196 -1.34526 0
M  V30 18680 C 1713.28 -0.220303 -1.8751 0
M  V30 18681 O 1712.64 0.785664 -1.64723 0
M  V30 18682 C 1712.69 -2.59312 -2.51872 0
M  V30 18683 O 1712.41 -3.89229 -2.01078 0
M  V30 18684 C 1713.91 -2.79416 -3.44153 0
M  V30 18685 H 1711.13 -0.530971 -0.410257 0
M  V30 18686 H 1713.68 -1.92804 -0.68168 0
M  V30 18687 H 1711.83 -2.26652 -3.14178 0
M  V30 18688 H 1712.25 -4.44985 -2.77648 0
M  V30 18689 H 1713.72 -3.54743 -4.2292 0
M  V30 18690 H 1714.2 -1.87054 -3.97376 0
M  V30 18691 H 1714.8 -3.13254 -2.87667 0
M  V30 18692 N 1713.12 0.808639 -1.35273 0
M  V30 18693 C 1714.37 1.56253 -1.28177 0
M  V30 18694 C 1714.69 1.94466 0.144151 0
M  V30 18695 O 1713.96 1.63433 1.08011 0
M  V30 18696 H 1712.54 0.579431 -0.471454 0
M  V30 18697 H 1715.2 0.964675 -1.69352 0
M  V30 18698 H 1714.29 2.47888 -1.89625 0
M  V30 18699 N 1714.6 1.19237 1.03055 0
M  V30 18700 C 1716.01 0.996569 1.57878 0
M  V30 18701 C 1716.36 -0.450987 1.90946 0
M  V30 18702 O 1715.48 -1.33009 1.70697 0
M  V30 18703 C 1716.08 1.80272 2.86858 0
M  V30 18704 C 1714.64 1.65097 3.3826 0
M  V30 18705 C 1713.78 1.79079 2.11721 0
M  V30 18706 H 1716.74 1.33633 0.856037 0
M  V30 18707 H 1716.76 1.29781 3.57683 0
M  V30 18708 H 1716.27 2.85621 2.62759 0
M  V30 18709 H 1714.37 0.623267 3.6735 0
M  V30 18710 H 1714.48 2.45527 4.11404 0
M  V30 18711 H 1712.85 1.22124 2.23512 0
M  V30 18712 H 1713.63 2.85885 1.90065 0
M  V30 18713 N 1716.07 -1.22136 0.99602 0
M  V30 18714 C 1717 -2.26463 0.568909 0
M  V30 18715 C 1717.99 -1.65189 -0.405783 0
M  V30 18716 O 1719.17 -1.91935 -0.295735 0
M  V30 18717 C 1716.3 -3.47112 -0.114166 0
M  V30 18718 C 1715.25 -4.20844 0.779387 0
M  V30 18719 C 1714.58 -5.34687 -0.0367787 0
M  V30 18720 C 1715.88 -4.79195 2.07773 0
M  V30 18721 H 1717.57 -2.62443 1.44097 0
M  V30 18722 H 1715.12 -1.26156 0.694314 0
M  V30 18723 H 1717.07 -4.19258 -0.424381 0
M  V30 18724 H 1715.8 -3.10238 -1.02079 0
M  V30 18725 H 1714.46 -3.50537 1.07329 0
M  V30 18726 H 1714.1 -4.94054 -0.94442 0
M  V30 18727 H 1713.8 -5.84944 0.558092 0
M  V30 18728 H 1715.33 -6.09647 -0.341016 0
M  V30 18729 H 1716.74 -5.43266 1.83126 0
M  V30 18730 H 1715.14 -5.39803 2.62169 0
M  V30 18731 H 1716.21 -3.99073 2.75442 0
M  V30 18732 N 1717.55 -0.769612 -1.37531 0
M  V30 18733 C 1718.5 -0.152627 -2.30295 0
M  V30 18734 C 1719.47 0.692154 -1.50992 0
M  V30 18735 O 1720.65 0.64496 -1.79569 0
M  V30 18736 C 1717.79 0.72217 -3.37459 0
M  V30 18737 C 1716.91 -0.138985 -4.31776 0
M  V30 18738 C 1716.04 0.740317 -5.26016 0
M  V30 18739 C 1715.08 -0.1235 -6.11975 0
M  V30 18740 N 1714.22 0.713658 -6.98464 0
M  V30 18741 H 1719.06 -0.949218 -2.82478 0
M  V30 18742 H 1716.6 -0.479697 -1.39059 0
M  V30 18743 H 1718.55 1.24415 -3.98217 0
M  V30 18744 H 1717.18 1.48438 -2.86646 0
M  V30 18745 H 1716.24 -0.778756 -3.72343 0
M  V30 18746 H 1717.55 -0.805402 -4.92255 0
M  V30 18747 H 1716.7 1.32887 -5.91968 0
M  V30 18748 H 1715.44 1.44042 -4.65943 0
M  V30 18749 H 1714.45 -0.7246 -5.45004 0
M  V30 18750 H 1715.67 -0.820907 -6.7412 0
M  V30 18751 H 1713.62 1.39842 -6.40921 0
M  V30 18752 H 1713.53 0.104492 -7.55928 0
M  V30 18753 H 1714.8 1.28667 -7.68808 0
M  V30 18754 N 1719.03 1.48775 -0.519977 0
M  V30 18755 C 1720.28 2.02092 0.0177154 0
M  V30 18756 C 1720.6 1.40024 1.35714 0
M  V30 18757 O 1719.87 0.562115 1.87662 0
M  V30 18758 H 1718.45 0.746939 0.00953578 0
M  V30 18759 H 1721.11 1.82595 -0.681535 0
M  V30 18760 H 1720.21 3.11815 0.133431 0
M  V30 18761 N 1720.51 0.254649 1.55529 0
M  V30 18762 C 1721.74 -0.371317 2.03236 0
M  V30 18763 C 1722.15 -1.5152 1.13306 0
M  V30 18764 O 1721.49 -1.83154 0.141468 0
M  V30 18765 C 1721.55 -0.933614 3.47166 0
M  V30 18766 C 1721.22 0.0790139 4.56932 0
M  V30 18767 C 1722.21 0.891314 5.12203 0
M  V30 18768 C 1719.9 0.207343 5.01872 0
M  V30 18769 C 1721.89 1.81833 6.10914 0
M  V30 18770 C 1719.58 1.13785 6.00413 0
M  V30 18771 C 1720.58 1.94186 6.54813 0
M  V30 18772 O 1720.26 2.85667 7.51432 0
M  V30 18773 H 1720 -0.0914583 0.669785 0
M  V30 18774 H 1722.55 0.378413 2.01884 0
M  V30 18775 H 1720.78 -1.73305 3.45691 0
M  V30 18776 H 1722.47 -1.47048 3.78327 0
M  V30 18777 H 1723.24 0.802797 4.7831 0
M  V30 18778 H 1719.11 -0.408414 4.59187 0
M  V30 18779 H 1722.66 2.4463 6.53301 0
M  V30 18780 H 1718.56 1.22726 6.33726 0
M  V30 18781 H 1719.32 2.80116 7.69075 0
M  V30 18782 N 1721.99 -1.57589 -0.0183649 0
M  V30 18783 C 1722.92 -2.1029 -1.01492 0
M  V30 18784 C 1723.9 -1.00782 -1.37029 0
M  V30 18785 O 1725.08 -1.28365 -1.45726 0
M  V30 18786 C 1722.21 -2.59111 -2.31255 0
M  V30 18787 C 1721.17 -3.72979 -2.0993 0
M  V30 18788 C 1720.49 -4.08046 -3.45547 0
M  V30 18789 C 1721.79 -5.00988 -1.47677 0
M  V30 18790 H 1723.49 -2.93804 -0.57618 0
M  V30 18791 H 1721.03 -1.41336 -0.275708 0
M  V30 18792 H 1722.99 -2.94602 -3.0131 0
M  V30 18793 H 1721.71 -1.72694 -2.77208 0
M  V30 18794 H 1720.37 -3.37853 -1.42306 0
M  V30 18795 H 1720.02 -3.1868 -3.89169 0
M  V30 18796 H 1719.72 -4.8475 -3.32101 0
M  V30 18797 H 1721.24 -4.46081 -4.16947 0
M  V30 18798 H 1722.65 -5.34368 -2.07663 0
M  V30 18799 H 1721.05 -5.82375 -1.44774 0
M  V30 18800 H 1722.12 -4.82865 -0.443804 0
M  V30 18801 N 1723.46 0.290824 -1.54893 0
M  V30 18802 C 1724.71 1.02272 -1.74312 0
M  V30 18803 C 1725.03 1.87449 -0.537393 0
M  V30 18804 O 1724.3 1.90705 0.448135 0
M  V30 18805 H 1722.88 0.380592 -0.642774 0
M  V30 18806 H 1725.55 0.319353 -1.92266 0
M  V30 18807 H 1724.64 1.66997 -2.63663 0
M  V30 18808 N 1724.94 1.47523 0.554506 0
M  V30 18809 C 1726.17 1.58154 1.34172 0
M  V30 18810 C 1726.59 0.233124 1.8665 0
M  V30 18811 O 1725.95 -0.791439 1.63113 0
M  V30 18812 C 1726 2.61242 2.48566 0
M  V30 18813 O 1725.1 2.167 3.50877 0
M  V30 18814 H 1724.44 0.531184 0.398421 0
M  V30 18815 H 1726.97 1.93324 0.669841 0
M  V30 18816 H 1726.98 2.81746 2.95098 0
M  V30 18817 H 1725.66 3.59148 2.09727 0
M  V30 18818 H 1724.24 2.06305 3.10632 0
M  V30 18819 N 1726.42 -0.801453 1.357 0
M  V30 18820 C 1727.65 -1.59518 1.32547 0
M  V30 18821 C 1728.07 -1.87868 -0.0934243 0
M  V30 18822 O 1727.43 -1.46955 -1.06179 0
M  V30 18823 C 1727.48 -2.90028 2.14281 0
M  V30 18824 O 1726.58 -3.83086 1.52704 0
M  V30 18825 H 1725.92 -0.48434 0.454215 0
M  V30 18826 H 1728.45 -0.994315 1.78814 0
M  V30 18827 H 1728.46 -3.39406 2.26423 0
M  V30 18828 H 1727.14 -2.6872 3.17431 0
M  V30 18829 H 1725.71 -3.4165 1.49432 0
M  V30 18830 N 1727.9 -1.19782 -1.02421 0
M  V30 18831 C 1729.13 -1.02871 -1.79514 0
M  V30 18832 C 1729.54 0.422387 -1.84014 0
M  V30 18833 O 1728.9 1.29335 -1.28758 0
M  V30 18834 C 1728.95 -1.59634 -3.24344 0
M  V30 18835 O 1728.67 -2.99064 -3.20144 0
M  V30 18836 C 1730.17 -1.47571 -4.18016 0
M  V30 18837 H 1727.39 -0.362301 -0.564782 0
M  V30 18838 H 1729.94 -1.58701 -1.28974 0
M  V30 18839 H 1728.09 -1.07942 -3.72058 0
M  V30 18840 H 1728.5 -3.25859 -4.10994 0
M  V30 18841 H 1729.98 -1.92061 -5.1751 0
M  V30 18842 H 1730.46 -0.426967 -4.3712 0
M  V30 18843 H 1731.06 -1.98417 -3.76179 0
M  V30 18844 N 1729.38 1.21606 -1.00248 0
M  V30 18845 C 1730.6 1.95149 -0.702249 0
M  V30 18846 C 1731.03 1.73429 0.728293 0
M  V30 18847 O 1730.39 1.01953 1.49917 0
M  V30 18848 C 1730.43 3.45705 -1.0257 0
M  V30 18849 O 1729.54 4.12196 -0.129575 0
M  V30 18850 H 1728.88 0.610173 -0.261888 0
M  V30 18851 H 1731.41 1.54435 -1.34205 0
M  V30 18852 H 1731.42 3.96265 -0.97151 0
M  V30 18853 H 1730.09 3.60838 -2.06806 0
M  V30 18854 H 1728.67 3.72126 -0.240074 0
M  V30 18855 N 1730.86 0.776895 1.37121 0
M  V30 18856 C 1731.79 0.11287 2.27921 0
M  V30 18857 C 1732.77 -0.703619 1.46588 0
M  V30 18858 O 1733.95 -0.677283 1.75912 0
M  V30 18859 C 1731.08 -0.846221 3.27959 0
M  V30 18860 C 1730.12 -0.11309 4.2635 0
M  V30 18861 S 1730.96 1.20246 5.21825 0
M  V30 18862 C 1732.11 0.247048 6.25412 0
M  V30 18863 H 1732.35 0.882787 2.83891 0
M  V30 18864 H 1729.88 0.570523 1.43473 0
M  V30 18865 H 1731.84 -1.39416 3.861 0
M  V30 18866 H 1730.5 -1.58929 2.70925 0
M  V30 18867 H 1729.69 -0.840352 4.96945 0
M  V30 18868 H 1729.29 0.364002 3.72224 0
M  V30 18869 H 1731.58 -0.578684 6.75024 0
M  V30 18870 H 1732.53 0.921318 7.02081 0
M  V30 18871 H 1732.94 -0.144038 5.64316 0
M  V30 18872 N 1732.33 -1.48497 0.527859 0
M  V30 18873 C 1733.56 -2.07399 -0.00510725 0
M  V30 18874 C 1733.98 -1.38211 -1.2759 0
M  V30 18875 O 1733.34 -0.447373 -1.75694 0
M  V30 18876 C 1733.39 -3.59963 -0.214295 0
M  V30 18877 O 1732.49 -3.91921 -1.28342 0
M  V30 18878 H 1731.83 -0.662901 0.0381838 0
M  V30 18879 H 1734.36 -1.90936 0.735166 0
M  V30 18880 H 1734.37 -4.05646 -0.437604 0
M  V30 18881 H 1733.05 -4.09725 0.714028 0
M  V30 18882 H 1731.63 -3.58019 -1.04293 0
M  V30 18883 N 1733.81 -0.262893 -1.55392 0
M  V30 18884 C 1735.04 0.361057 -2.03725 0
M  V30 18885 C 1735.45 1.5037 -1.14168 0
M  V30 18886 O 1734.81 1.81804 -0.159284 0
M  V30 18887 C 1734.86 0.853697 -3.51275 0
M  V30 18888 O 1734.58 -0.243431 -4.37423 0
M  V30 18889 C 1736.08 1.54671 -4.15442 0
M  V30 18890 H 1733.3 0.0839272 -0.665731 0
M  V30 18891 H 1735.85 -0.391424 -2.00719 0
M  V30 18892 H 1734 1.55631 -3.54765 0
M  V30 18893 H 1734.42 0.133241 -5.24331 0
M  V30 18894 H 1735.89 1.84296 -5.20326 0
M  V30 18895 H 1736.37 2.47413 -3.62882 0
M  V30 18896 H 1736.97 0.888269 -4.15921 0
M  V30 18897 N 1735.29 1.57597 0.0100073 0
M  V30 18898 C 1736.22 2.04622 1.0326 0
M  V30 18899 C 1737.23 0.962343 1.31312 0
M  V30 18900 O 1738.42 1.23933 1.28464 0
M  V30 18901 C 1735.52 2.42271 2.36976 0
M  V30 18902 C 1734.7 3.73271 2.28008 0
M  V30 18903 C 1733.76 3.97899 3.4433 0
M  V30 18904 O 1732.78 4.68702 3.22966 0
M  V30 18905 N 1733.98 3.45015 4.66846 0
M  V30 18906 H 1736.75 2.92968 0.63164 0
M  V30 18907 H 1734.31 1.6069 0.197591 0
M  V30 18908 H 1736.3 2.55869 3.13549 0
M  V30 18909 H 1734.87 1.59496 2.68849 0
M  V30 18910 H 1734.09 3.69846 1.3641 0
M  V30 18911 H 1735.38 4.59172 2.19178 0
M  V30 18912 H 1734.78 2.87661 4.87101 0
M  V30 18913 H 1733.33 3.6396 5.40718 0
M  V30 18914 N 1736.77 -0.282606 1.55045 0
M  V30 18915 C 1737.7 -1.35347 1.90272 0
M  V30 18916 C 1738.68 -1.52001 0.763532 0
M  V30 18917 O 1739.86 -1.65204 1.02085 0
M  V30 18918 C 1736.99 -2.71464 2.16621 0
M  V30 18919 C 1735.95 -2.69554 3.32453 0
M  V30 18920 C 1735.27 -4.09132 3.4426 0
M  V30 18921 C 1736.57 -2.29669 4.69094 0
M  V30 18922 H 1738.27 -1.06113 2.79965 0
M  V30 18923 H 1735.81 -0.509018 1.34703 0
M  V30 18924 H 1737.77 -3.46482 2.39851 0
M  V30 18925 H 1736.49 -3.02261 1.23717 0
M  V30 18926 H 1735.15 -1.96993 3.09175 0
M  V30 18927 H 1734.8 -4.37136 2.4884 0
M  V30 18928 H 1734.5 -4.08751 4.22133 0
M  V30 18929 H 1736.02 -4.85903 3.69771 0
M  V30 18930 H 1737.44 -2.94407 4.91932 0
M  V30 18931 H 1735.83 -2.40467 5.49814 0
M  V30 18932 H 1736.9 -1.24796 4.68566 0
M  V30 18933 N 1738.25 -1.47815 -0.546675 0
M  V30 18934 C 1739.49 -1.5498 -1.30336 0
M  V30 18935 C 1739.82 -0.216533 -1.93291 0
M  V30 18936 O 1739.08 0.791622 -1.78974 0
M  V30 18937 C 1739.37 -2.6242 -2.42632 0
M  V30 18938 C 1739.04 -4.05375 -1.97439 0
M  V30 18939 C 1737.7 -4.44287 -1.84831 0
M  V30 18940 C 1740.05 -4.9503 -1.6308 0
M  V30 18941 C 1737.38 -5.70678 -1.36174 0
M  V30 18942 C 1739.73 -6.21894 -1.1589 0
M  V30 18943 C 1738.4 -6.59678 -1.01886 0
M  V30 18944 H 1737.67 -0.567112 -0.476933 0
M  V30 18945 H 1740.32 -1.81461 -0.611907 0
M  V30 18946 H 1738.62 -2.29736 -3.17378 0
M  V30 18947 H 1740.32 -2.65184 -3.00796 0
M  V30 18948 H 1736.91 -3.74635 -2.08199 0
M  V30 18949 H 1741.09 -4.65657 -1.71689 0
M  V30 18950 H 1736.35 -5.98693 -1.24004 0
M  V30 18951 H 1740.52 -6.9077 -0.883691 0
M  V30 18952 H 1738.15 -7.57504 -0.639614 0
M  V30 18953 N 1739.72 0.794246 -1.36123 0
M  V30 18954 C 1740.67 1.8963 -1.26588 0
M  V30 18955 C 1741.66 1.60118 -0.158415 0
M  V30 18956 O 1742.85 1.72632 -0.390783 0
M  V30 18957 C 1739.98 3.26767 -1.05255 0
M  V30 18958 C 1739.06 3.62304 -2.20447 0
M  V30 18959 N 1739.46 3.69185 -3.4574 0
M  V30 18960 C 1737.75 3.92336 -2.12106 0
M  V30 18961 C 1738.45 4.00822 -4.21565 0
M  V30 18962 N 1737.43 4.15553 -3.50453 0
M  V30 18963 H 1741.23 1.93169 -2.21501 0
M  V30 18964 H 1738.75 0.989508 -1.28773 0
M  V30 18965 H 1740.74 4.05575 -0.965108 0
M  V30 18966 H 1739.4 3.24505 -0.112374 0
M  V30 18967 H 1740.41 3.51951 -3.79935 0
M  V30 18968 H 1737.09 3.98028 -1.26016 0
M  V30 18969 H 1738.48 4.1311 -5.29896 0
M  V30 18970 N 1741.2 1.20323 1.01785 0
M  V30 18971 C 1742.16 0.9527 2.08462 0
M  V30 18972 C 1743.16 -0.0712564 1.60642 0
M  V30 18973 O 1744.35 0.164672 1.7342 0
M  V30 18974 C 1741.49 0.434052 3.38125 0
M  V30 18975 H 1742.68 1.89895 2.32121 0
M  V30 18976 H 1740.23 1.01843 1.18565 0
M  V30 18977 H 1740.97 -0.51772 3.20141 0
M  V30 18978 H 1740.75 1.17248 3.74159 0
M  V30 18979 H 1742.24 0.278215 4.16672 0
M  V30 18980 N 1742.68 -1.21073 1.00892 0
M  V30 18981 C 1743.93 -1.90807 0.704573 0
M  V30 18982 C 1744.28 -1.7689 -0.756804 0
M  V30 18983 O 1743.57 -1.13734 -1.54192 0
M  V30 18984 C 1743.77 -3.41148 1.0655 0
M  V30 18985 C 1743.6 -3.69693 2.56042 0
M  V30 18986 C 1742.37 -3.88832 3.22704 0
M  V30 18987 C 1744.56 -3.72879 3.54211 0
M  V30 18988 N 1742.55 -4.04828 4.61506 0
M  V30 18989 C 1743.92 -3.94207 4.7854 0
M  V30 18990 C 1745.97 -3.55805 3.48292 0
M  V30 18991 C 1744.68 -4.00231 5.97668 0
M  V30 18992 C 1746.7 -3.63096 4.66814 0
M  V30 18993 C 1746.06 -3.84889 5.89949 0
M  V30 18994 H 1742.16 -0.718205 0.309364 0
M  V30 18995 H 1744.75 -1.45639 1.29219 0
M  V30 18996 H 1742.92 -3.85086 0.506303 0
M  V30 18997 H 1744.65 -3.98325 0.715485 0
M  V30 18998 H 1741.4 -3.86898 2.73142 0
M  V30 18999 H 1741.83 -4.16719 5.33549 0
M  V30 19000 H 1746.47 -3.37928 2.54095 0
M  V30 19001 H 1744.19 -4.16906 6.92254 0
M  V30 19002 H 1747.77 -3.51202 4.63841 0
M  V30 19003 H 1746.65 -3.9038 6.80127 0
M  V30 19004 N 1744.16 -0.784156 -1.36707 0
M  V30 19005 C 1745.07 -0.179959 -2.33909 0
M  V30 19006 C 1746.08 0.665092 -1.60787 0
M  V30 19007 O 1747.26 0.582111 -1.92804 0
M  V30 19008 C 1744.33 0.679323 -3.3998 0
M  V30 19009 C 1743.39 -0.183618 -4.28907 0
M  V30 19010 C 1742.62 0.634747 -5.29912 0
M  V30 19011 O 1742.84 1.87107 -5.38839 0
M  V30 19012 O 1741.78 0.0374113 -6.01888 0
M  V30 19013 H 1745.6 -0.983499 -2.87334 0
M  V30 19014 H 1743.19 -0.545521 -1.39084 0
M  V30 19015 H 1745.07 1.16948 -4.04847 0
M  V30 19016 H 1743.74 1.46084 -2.88862 0
M  V30 19017 H 1742.65 -0.720419 -3.67098 0
M  V30 19018 H 1743.98 -0.928522 -4.83363 0
M  V30 19019 N 1745.64 1.48215 -0.535727 0
M  V30 19020 C 1746.58 2.29711 0.223891 0
M  V30 19021 C 1747.55 1.37727 0.928471 0
M  V30 19022 O 1748.74 1.66691 0.928375 0
M  V30 19023 C 1745.88 3.21224 1.26131 0
M  V30 19024 C 1744.99 4.2829 0.564985 0
M  V30 19025 C 1744.13 5.06976 1.58583 0
M  V30 19026 C 1743.17 6.05838 0.873288 0
M  V30 19027 N 1742.3 6.77562 1.83994 0
M  V30 19028 H 1747.14 2.94154 -0.477242 0
M  V30 19029 H 1744.68 1.45008 -0.247186 0
M  V30 19030 H 1746.64 3.72685 1.87514 0
M  V30 19031 H 1745.27 2.58693 1.93075 0
M  V30 19032 H 1744.32 3.80051 -0.162916 0
M  V30 19033 H 1745.63 4.988 0.00578231 0
M  V30 19034 H 1744.79 5.6248 2.27379 0
M  V30 19035 H 1743.52 4.36319 2.17893 0
M  V30 19036 H 1742.53 5.49533 0.171286 0
M  V30 19037 H 1743.75 6.78497 0.286219 0
M  V30 19038 H 1741.7 6.09651 2.42202 0
M  V30 19039 H 1741.62 7.44167 1.33233 0
M  V30 19040 H 1742.89 7.37652 2.51971 0
M  V30 19041 N 1747.11 0.27113 1.5525 0
M  V30 19042 C 1748.36 -0.347304 1.99804 0
M  V30 19043 C 1748.69 -1.55803 1.15928 0
M  V30 19044 O 1747.97 -1.93154 0.228386 0
M  V30 19045 C 1748.25 -0.733408 3.52552 0
M  V30 19046 C 1748.1 0.48438 4.47184 0
M  V30 19047 C 1749.42 -1.57136 4.11092 0
M  V30 19048 H 1746.54 -0.124762 0.726363 0
M  V30 19049 H 1749.18 0.37728 1.86217 0
M  V30 19050 H 1747.33 -1.35076 3.64262 0
M  V30 19051 H 1749.01 1.12293 4.47424 0
M  V30 19052 H 1747.25 1.12317 4.19008 0
M  V30 19053 H 1747.92 0.170525 5.51737 0
M  V30 19054 H 1750.4 -1.05001 4.02634 0
M  V30 19055 H 1749.27 -1.81033 5.18187 0
M  V30 19056 H 1749.53 -2.55111 3.61069 0
M  V30 19057 N 1748.59 -1.576 -0.00164943 0
M  V30 19058 C 1749.82 -1.94775 -0.697872 0
M  V30 19059 C 1750.24 -0.873094 -1.67399 0
M  V30 19060 O 1749.59 0.148119 -1.81898 0
M  V30 19061 C 1749.64 -3.31963 -1.43117 0
M  V30 19062 O 1749.36 -4.35304 -0.494203 0
M  V30 19063 C 1750.87 -3.83588 -2.22206 0
M  V30 19064 H 1748.09 -0.6422 -0.194474 0
M  V30 19065 H 1750.63 -2.04441 0.04898 0
M  V30 19066 H 1748.78 -3.2361 -2.12967 0
M  V30 19067 H 1749.2 -5.14656 -1.0114 0
M  V30 19068 H 1750.67 -4.82012 -2.69014 0
M  V30 19069 H 1751.15 -3.16208 -3.0481 0
M  V30 19070 H 1751.76 -3.95111 -1.57376 0
M  V30 19071 N 1750.07 0.274379 -1.55193 0
M  V30 19072 C 1751.02 1.35903 -1.88767 0
M  V30 19073 C 1752.01 1.512 -0.763874 0
M  V30 19074 O 1753.22 1.53 -0.948201 0
M  V30 19075 H 1749.59 0.454495 -0.599114 0
M  V30 19076 H 1751.56 1.04837 -2.79378 0
M  V30 19077 C 1750.31 2.71277 -2.17496 0
M  V30 19078 H 1749.64 2.60297 -3.03456 0
M  V30 19079 H 1751.08 3.46115 -2.44909 0
M  V30 19080 C 1749.54 3.22268 -0.982101 0
M  V30 19081 O 1750.07 4.01119 -0.216035 0
M  V30 19082 N 1748.27 2.79931 -0.780179 0
M  V30 19083 H 1747.82 2.15923 -1.40482 0
M  V30 19084 H 1747.78 3.14396 0.0163297 0
M  V30 19085 N 1751.55 1.48103 0.538828 0
M  V30 19086 C 1752.79 1.559 1.29704 0
M  V30 19087 C 1753.13 0.228359 1.92853 0
M  V30 19088 O 1752.4 -0.764825 1.78831 0
M  V30 19089 C 1752.69 2.69072 2.39316 0
M  V30 19090 C 1752.54 4.11812 1.80916 0
M  V30 19091 C 1753.86 2.78051 3.41138 0
M  V30 19092 H 1750.98 0.5675 0.470226 0
M  V30 19093 H 1753.62 1.80239 0.601163 0
M  V30 19094 H 1751.77 2.4845 2.98672 0
M  V30 19095 H 1753.44 4.4385 1.25679 0
M  V30 19096 H 1751.68 4.19227 1.11494 0
M  V30 19097 H 1752.35 4.86805 2.6024 0
M  V30 19098 H 1754.83 2.96707 2.91726 0
M  V30 19099 H 1753.71 3.58982 4.15239 0
M  V30 19100 H 1753.97 1.85849 4.01139 0
M  V30 19101 N 1753.03 -0.787016 1.36542 0
M  V30 19102 C 1753.98 -1.88956 1.27592 0
M  V30 19103 C 1754.96 -1.60032 0.166904 0
M  V30 19104 O 1756.15 -1.72423 0.399932 0
M  V30 19105 C 1753.28 -3.26204 1.06986 0
M  V30 19106 C 1752.37 -3.6113 2.22365 0
M  V30 19107 N 1752.76 -3.67346 3.47693 0
M  V30 19108 C 1751.06 -3.91205 2.14183 0
M  V30 19109 C 1751.76 -3.98581 4.23684 0
M  V30 19110 N 1750.73 -4.13688 3.52651 0
M  V30 19111 H 1754.54 -1.91992 2.22522 0
M  V30 19112 H 1752.05 -0.982664 1.29296 0
M  V30 19113 H 1754.05 -4.05058 0.986603 0
M  V30 19114 H 1752.71 -3.24441 0.129582 0
M  V30 19115 H 1753.72 -3.49931 3.81797 0
M  V30 19116 H 1750.39 -3.97354 1.28125 0
M  V30 19117 H 1751.78 -4.10294 5.32079 0
M  V30 19118 N 1754.5 -1.20861 -1.01145 0
M  V30 19119 C 1755.75 -1.02343 -1.75082 0
M  V30 19120 C 1756.08 0.44278 -1.89085 0
M  V30 19121 O 1755.36 1.32867 -1.42045 0
M  V30 19122 C 1755.64 -1.71368 -3.1671 0
M  V30 19123 C 1755.49 -3.25466 -3.1047 0
M  V30 19124 C 1756.81 -1.45097 -4.15494 0
M  V30 19125 H 1753.93 -0.373198 -0.635525 0
M  V30 19126 H 1756.57 -1.48947 -1.17961 0
M  V30 19127 H 1754.72 -1.31746 -3.6548 0
M  V30 19128 H 1756.4 -3.74415 -2.69464 0
M  V30 19129 H 1754.64 -3.56104 -2.47735 0
M  V30 19130 H 1755.31 -3.68924 -4.10608 0
M  V30 19131 H 1757.79 -1.7948 -3.75401 0
M  V30 19132 H 1756.66 -1.95917 -5.12745 0
M  V30 19133 H 1756.92 -0.379628 -4.40467 0
M  V30 19134 N 1755.98 1.20536 -1.01532 0
M  V30 19135 C 1757.23 1.90152 -0.704973 0
M  V30 19136 C 1757.56 1.78569 0.763343 0
M  V30 19137 O 1756.84 1.16906 1.55445 0
M  V30 19138 C 1757.12 3.41589 -1.1397 0
M  V30 19139 C 1756.97 3.62113 -2.66823 0
M  V30 19140 C 1758.29 4.34335 -0.709984 0
M  V30 19141 H 1755.41 0.690524 -0.257577 0
M  V30 19142 H 1758.05 1.41959 -1.26284 0
M  V30 19143 H 1756.2 3.82765 -0.66505 0
M  V30 19144 H 1757.87 3.30197 -3.2213 0
M  V30 19145 H 1756.12 3.05626 -3.07855 0
M  V30 19146 H 1756.79 4.68261 -2.92294 0
M  V30 19147 H 1759.26 4.00799 -1.11801 0
M  V30 19148 H 1758.14 5.38915 -1.04221 0
M  V30 19149 H 1758.4 4.40391 0.388408 0
M  V30 19150 N 1757.46 0.791395 1.36289 0
M  V30 19151 C 1758.41 0.189246 2.30023 0
M  V30 19152 C 1759.38 -0.668045 1.52074 0
M  V30 19153 O 1760.56 -0.61631 1.80572 0
M  V30 19154 C 1757.7 -0.668391 3.38565 0
M  V30 19155 C 1756.82 0.207659 4.31501 0
M  V30 19156 C 1755.95 -0.656539 5.27127 0
M  V30 19157 C 1754.99 0.220845 6.11701 0
M  V30 19158 N 1754.13 -0.602449 6.99511 0
M  V30 19159 H 1758.97 0.994038 2.80932 0
M  V30 19160 H 1756.5 0.501759 1.38278 0
M  V30 19161 H 1758.46 -1.18064 4.00146 0
M  V30 19162 H 1757.09 -1.43859 2.88971 0
M  V30 19163 H 1756.14 0.837894 3.71057 0
M  V30 19164 H 1757.46 0.883613 4.90911 0
M  V30 19165 H 1756.61 -1.23452 5.94007 0
M  V30 19166 H 1755.35 -1.36611 4.68176 0
M  V30 19167 H 1754.35 0.811214 5.43782 0
M  V30 19168 H 1755.58 0.928049 6.72729 0
M  V30 19169 H 1753.52 -1.29628 6.43065 0
M  V30 19170 H 1753.44 0.015783 7.55998 0
M  V30 19171 H 1754.71 -1.16419 7.70757 0
M  V30 19172 N 1758.94 -1.47929 0.54358 0
M  V30 19173 C 1760.36 -1.58312 0.202376 0
M  V30 19174 C 1760.56 -1.54394 -1.29479 0
M  V30 19175 O 1759.61 -1.44015 -2.07403 0
M  V30 19176 C 1760.92 -2.89389 0.816958 0
M  V30 19177 C 1762.47 -3.02946 0.786935 0
M  V30 19178 C 1762.95 -4.36704 1.38034 0
M  V30 19179 N 1764.44 -4.43306 1.34291 0
M  V30 19180 C 1765.17 -5.45339 1.77182 0
M  V30 19181 N 1764.67 -6.54255 2.27866 0
M  V30 19182 N 1766.46 -5.36302 1.68336 0
M  V30 19183 H 1758.61 -1.48719 1.51646 0
M  V30 19184 H 1760.88 -0.706966 0.631587 0
M  V30 19185 H 1760.58 -2.97953 1.86861 0
M  V30 19186 H 1760.46 -3.75989 0.30198 0
M  V30 19187 H 1762.84 -2.93988 -0.25599 0
M  V30 19188 H 1762.92 -2.17923 1.33953 0
M  V30 19189 H 1762.57 -4.46418 2.42226 0
M  V30 19190 H 1762.5 -5.20437 0.803308 0
M  V30 19191 H 1764.99 -3.65185 0.972033 0
M  V30 19192 H 1765.3 -7.28265 2.58552 0
M  V30 19193 H 1763.65 -6.55181 2.31868 0
M  V30 19194 H 1766.84 -4.50109 1.28527 0
M  V30 19195 H 1767.01 -6.15684 2.02082 0
M  V30 19196 N 1760.42 -0.27936 -1.55104 0
M  V30 19197 C 1761.38 0.593214 -2.2139 0
M  V30 19198 C 1762.38 1.07807 -1.19308 0
M  V30 19199 O 1763.57 0.97756 -1.44185 0
M  V30 19200 C 1760.7 1.81889 -2.88321 0
M  V30 19201 H 1761.9 0.0143941 -2.99897 0
M  V30 19202 H 1759.45 -0.0300083 -1.56271 0
M  V30 19203 H 1760.18 2.43811 -2.13838 0
M  V30 19204 H 1759.97 1.4791 -3.63132 0
M  V30 19205 H 1761.46 2.4393 -3.38951 0
M  V30 19206 N 1761.9 1.57599 -0.0067085 0
M  V30 19207 C 1762.83 2.11878 0.981331 0
M  V30 19208 C 1763.81 1.02949 1.35408 0
M  V30 19209 O 1764.99 1.30667 1.43665 0
M  V30 19210 C 1762.12 2.62757 2.27104 0
M  V30 19211 C 1761.08 3.76272 2.0397 0
M  V30 19212 C 1760.4 4.13491 3.39012 0
M  V30 19213 C 1761.7 5.03274 1.39688 0
M  V30 19214 H 1763.4 2.94683 0.529366 0
M  V30 19215 H 1760.94 1.41757 0.253187 0
M  V30 19216 H 1762.89 2.99359 2.96585 0
M  V30 19217 H 1761.62 1.77082 2.74426 0
M  V30 19218 H 1760.28 3.40074 1.36913 0
M  V30 19219 H 1759.93 3.24831 3.8405 0
M  V30 19220 H 1759.63 4.89972 3.24347 0
M  V30 19221 H 1761.15 4.52657 4.09797 0
M  V30 19222 H 1762.56 5.37604 1.99136 0
M  V30 19223 H 1760.96 5.84604 1.3549 0
M  V30 19224 H 1762.03 4.8351 0.366928 0
M  V30 19225 N 1763.37 -0.266145 1.55336 0
M  V30 19226 C 1764.6 -1.01915 1.80633 0
M  V30 19227 C 1765.02 -1.78897 0.581172 0
M  V30 19228 O 1764.38 -1.75118 -0.469399 0
M  V30 19229 C 1764.43 -1.948 3.03456 0
M  V30 19230 O 1763.53 -3.03678 2.79022 0
M  V30 19231 H 1762.87 -0.29102 0.596828 0
M  V30 19232 H 1765.4 -0.292973 2.02492 0
M  V30 19233 H 1765.41 -2.36626 3.32373 0
M  V30 19234 H 1764.09 -1.38182 3.92273 0
M  V30 19235 H 1762.67 -2.66118 2.61219 0
M  V30 19236 N 1764.85 -1.48386 -0.530967 0
M  V30 19237 C 1765.78 -1.6573 -1.64486 0
M  V30 19238 C 1766.76 -0.506198 -1.62393 0
M  V30 19239 O 1767.95 -0.738623 -1.79605 0
M  V30 19240 C 1765.08 -1.69594 -3.03076 0
M  V30 19241 C 1764.03 -2.84195 -3.20027 0
M  V30 19242 C 1763.36 -2.73148 -4.59668 0
M  V30 19243 C 1764.66 -4.25504 -3.02892 0
M  V30 19244 H 1766.35 -2.58983 -1.50227 0
M  V30 19245 H 1763.9 -1.24633 -0.721286 0
M  V30 19246 H 1765.85 -1.80316 -3.80873 0
M  V30 19247 H 1764.57 -0.729193 -3.18356 0
M  V30 19248 H 1763.23 -2.73027 -2.44647 0
M  V30 19249 H 1762.88 -1.74444 -4.71782 0
M  V30 19250 H 1762.58 -3.50047 -4.71954 0
M  V30 19251 H 1764.11 -2.85836 -5.39565 0
M  V30 19252 H 1765.52 -4.37511 -3.70482 0
M  V30 19253 H 1763.92 -5.03393 -3.26673 0
M  V30 19254 H 1764.99 -4.42036 -1.99329 0
M  V30 19255 N 1766.33 0.779763 -1.36958 0
M  V30 19256 C 1767.28 1.89278 -1.32071 0
M  V30 19257 C 1768.25 1.65037 -0.18766 0
M  V30 19258 O 1769.43 1.87064 -0.375736 0
M  V30 19259 C 1766.57 3.2623 -1.12552 0
M  V30 19260 C 1765.68 3.62479 -2.35017 0
M  V30 19261 C 1764.82 4.88599 -2.08434 0
M  V30 19262 C 1763.86 5.17555 -3.26808 0
M  V30 19263 N 1763 6.3486 -2.99828 0
M  V30 19264 H 1767.84 1.9279 -2.27235 0
M  V30 19265 H 1765.37 0.942656 -1.12927 0
M  V30 19266 H 1767.33 4.0522 -0.992595 0
M  V30 19267 H 1765.96 3.22114 -0.210387 0
M  V30 19268 H 1765.01 2.78536 -2.59079 0
M  V30 19269 H 1766.32 3.7982 -3.23324 0
M  V30 19270 H 1765.48 5.75476 -1.92127 0
M  V30 19271 H 1764.22 4.73346 -1.17453 0
M  V30 19272 H 1763.22 4.29156 -3.43664 0
M  V30 19273 H 1764.45 5.34721 -4.18629 0
M  V30 19274 H 1762.39 6.20981 -2.11468 0
M  V30 19275 H 1762.31 6.52579 -3.81676 0
M  V30 19276 H 1763.58 7.24695 -2.8712 0
M  V30 19277 N 1767.81 1.21396 1.00503 0
M  V30 19278 C 1768.72 0.989221 2.12724 0
M  V30 19279 C 1769.73 -0.0586646 1.73901 0
M  V30 19280 O 1770.91 0.131377 2.00971 0
M  V30 19281 C 1767.97 0.556731 3.42201 0
M  V30 19282 C 1767.04 1.67683 3.95197 0
M  V30 19283 C 1766.27 1.26488 5.18494 0
M  V30 19284 O 1766.49 0.13847 5.70232 0
M  V30 19285 O 1765.43 2.07678 5.64937 0
M  V30 19286 H 1769.25 1.92913 2.3456 0
M  V30 19287 H 1766.84 0.998837 1.11102 0
M  V30 19288 H 1768.72 0.325327 4.20142 0
M  V30 19289 H 1767.39 -0.354457 3.21753 0
M  V30 19290 H 1766.3 1.96263 3.18483 0
M  V30 19291 H 1767.63 2.56544 4.20055 0
M  V30 19292 N 1769.29 -1.19996 1.0217 0
M  V30 19293 C 1770.51 -1.94007 0.733207 0
M  V30 19294 C 1770.94 -1.74565 -0.70061 0
M  V30 19295 O 1770.29 -1.04326 -1.48276 0
M  V30 19296 C 1770.34 -3.44029 1.08057 0
M  V30 19297 O 1769.45 -4.11938 0.195135 0
M  V30 19298 H 1768.79 -0.605929 0.271562 0
M  V30 19299 H 1771.32 -1.5228 1.36645 0
M  V30 19300 H 1771.33 -3.94669 1.03443 0
M  V30 19301 H 1770 -3.57502 2.1252 0
M  V30 19302 H 1768.58 -3.71697 0.299246 0
M  V30 19303 N 1770.76 -0.798611 -1.35867 0
M  V30 19304 C 1772.01 -0.371795 -1.98244 0
M  V30 19305 C 1772.33 1.06474 -1.64081 0
M  V30 19306 O 1773.53 1.59428 -2.19761 0
M  V30 19307 C 1771.99 -0.613821 -3.54627 0
M  V30 19308 C 1771.6 -2.06237 -3.97706 0
M  V30 19309 C 1773.34 -0.251966 -4.23752 0
M  V30 19310 C 1771.25 -2.25057 -5.46903 0
M  V30 19311 H 1770.18 -0.135278 -0.741765 0
M  V30 19312 H 1772.83 -0.981544 -1.55042 0
M  V30 19313 H 1771.21 0.0657688 -3.95945 0
M  V30 19314 H 1772.38 -2.77912 -3.67562 0
M  V30 19315 H 1770.7 -2.38334 -3.41447 0
M  V30 19316 H 1773.3 -0.370736 -5.33413 0
M  V30 19317 H 1773.64 0.800968 -4.08522 0
M  V30 19318 H 1774.17 -0.885155 -3.87827 0
M  V30 19319 H 1770.91 -3.28767 -5.67091 0
M  V30 19320 H 1770.43 -1.57898 -5.78643 0
M  V30 19321 H 1772.11 -2.06219 -6.13256 0
M  V30 19322 N 1772.24 1.47639 -0.551417 0
M  V30 19323 C 1773.19 2.31626 0.212654 0
M  V30 19324 C 1774.18 1.42567 0.914925 0
M  V30 19325 O 1775.39 1.59363 0.836869 0
M  V30 19326 H 1771.76 0.746898 0.0874493 0
M  V30 19327 H 1773.74 2.93923 -0.514976 0
M  V30 19328 C 1772.48 3.25098 1.23316 0
M  V30 19329 H 1771.81 3.93585 0.702196 0
M  V30 19330 H 1773.25 3.86707 1.73878 0
M  V30 19331 C 1771.71 2.48209 2.27802 0
M  V30 19332 O 1772.24 2.22235 3.34626 0
M  V30 19333 N 1770.44 2.09321 2.01577 0
M  V30 19334 H 1769.99 2.30645 1.14719 0
M  V30 19335 H 1769.95 1.58191 2.71704 0
M  V30 19336 N 1773.72 0.287581 1.54954 0
M  V30 19337 C 1774.97 -0.319025 2.00883 0
M  V30 19338 C 1775.32 -1.52547 1.17248 0
M  V30 19339 O 1774.61 -1.90122 0.237546 0
M  V30 19340 C 1774.81 -0.739779 3.4966 0
M  V30 19341 C 1774.64 0.42435 4.47693 0
M  V30 19342 C 1773.41 0.91211 4.97 0
M  V30 19343 C 1775.61 1.26494 4.98502 0
M  V30 19344 N 1773.59 2.0444 5.78859 0
M  V30 19345 C 1774.96 2.24493 5.7793 0
M  V30 19346 C 1777.01 1.29685 4.80714 0
M  V30 19347 C 1775.72 3.25443 6.41467 0
M  V30 19348 C 1777.74 2.29487 5.45059 0
M  V30 19349 C 1777.1 3.26216 6.24309 0
M  V30 19350 H 1773.2 -0.0815675 0.777734 0
M  V30 19351 H 1775.79 0.414443 1.90238 0
M  V30 19352 H 1773.96 -1.44245 3.60622 0
M  V30 19353 H 1775.69 -1.32478 3.82402 0
M  V30 19354 H 1772.45 0.489318 4.71065 0
M  V30 19355 H 1772.87 2.61454 6.24476 0
M  V30 19356 H 1777.51 0.562778 4.19038 0
M  V30 19357 H 1775.23 3.99777 7.02285 0
M  V30 19358 H 1778.82 2.32713 5.33232 0
M  V30 19359 H 1777.7 4.02179 6.73218 0
M  V30 19360 N 1775.2 -1.57593 0.0150662 0
M  V30 19361 C 1776.45 -1.91214 -0.666599 0
M  V30 19362 C 1776.77 -0.890139 -1.72936 0
M  V30 19363 O 1776.03 0.102976 -1.95429 0
M  V30 19364 C 1776.33 -3.3158 -1.33376 0
M  V30 19365 C 1775.99 -4.49098 -0.402748 0
M  V30 19366 C 1774.66 -4.80977 -0.146455 0
M  V30 19367 C 1777.01 -5.20659 0.237376 0
M  V30 19368 C 1774.34 -5.81783 0.758003 0
M  V30 19369 C 1776.69 -6.22429 1.1298 0
M  V30 19370 C 1775.35 -6.52758 1.39513 0
M  V30 19371 H 1774.62 -0.699701 -0.243926 0
M  V30 19372 H 1777.27 -1.91358 0.073824 0
M  V30 19373 H 1775.57 -3.27632 -2.1486 0
M  V30 19374 H 1777.27 -3.54859 -1.86751 0
M  V30 19375 H 1773.86 -4.24198 -0.612678 0
M  V30 19376 H 1778.04 -4.96272 0.052408 0
M  V30 19377 H 1773.3 -6.03634 0.971415 0
M  V30 19378 H 1777.47 -6.77005 1.63208 0
M  V30 19379 H 1775.1 -7.30687 2.09764 0
M  V30 19380 N 1776.68 0.257904 -1.55475 0
M  V30 19381 C 1777.93 0.985329 -1.75995 0
M  V30 19382 C 1778.24 1.86898 -0.57694 0
M  V30 19383 O 1779.44 2.63233 -0.664893 0
M  V30 19384 C 1777.9 1.80195 -3.11541 0
M  V30 19385 C 1777.51 0.966227 -4.37456 0
M  V30 19386 C 1779.25 2.52277 -3.41404 0
M  V30 19387 C 1777.16 1.7781 -5.64037 0
M  V30 19388 H 1776.09 0.371623 -0.656058 0
M  V30 19389 H 1778.74 0.240396 -1.81919 0
M  V30 19390 H 1777.12 2.58841 -2.99695 0
M  V30 19391 H 1778.3 0.222865 -4.60261 0
M  V30 19392 H 1776.61 0.359255 -4.14847 0
M  V30 19393 H 1779.21 3.13451 -4.33189 0
M  V30 19394 H 1779.55 3.23333 -2.62224 0
M  V30 19395 H 1780.08 1.80649 -3.54416 0
M  V30 19396 H 1776.82 1.11147 -6.46008 0
M  V30 19397 H 1776.34 2.49703 -5.45352 0
M  V30 19398 H 1778.02 2.348 -6.02891 0
M  V30 19399 N 1778.15 1.48666 0.52309 0
M  V30 19400 C 1779.38 1.60707 1.30311 0
M  V30 19401 C 1779.8 0.269941 1.8686 0
M  V30 19402 O 1779.15 -0.741714 1.66748 0
M  V30 19403 C 1779.21 2.65899 2.44908 0
M  V30 19404 O 1778.93 3.94423 1.90688 0
M  V30 19405 C 1780.43 2.88443 3.36624 0
M  V30 19406 H 1777.65 0.541661 0.396035 0
M  V30 19407 H 1780.19 1.94544 0.630322 0
M  V30 19408 H 1778.35 2.34902 3.08058 0
M  V30 19409 H 1778.76 4.5219 2.65753 0
M  V30 19410 H 1780.23 3.65831 4.13366 0
M  V30 19411 H 1780.71 1.97524 3.92277 0
M  V30 19412 H 1781.32 3.20771 2.7926 0
M  V30 19413 N 1779.63 -0.772489 1.37369 0
M  V30 19414 C 1781.05 -1.07294 1.18153 0
M  V30 19415 C 1781.25 -2.01493 0.0171782 0
M  V30 19416 O 1780.3 -2.44177 -0.642964 0
M  V30 19417 C 1781.62 -1.67116 2.49986 0
M  V30 19418 C 1783.17 -1.79377 2.56501 0
M  V30 19419 C 1783.64 -2.42612 3.88463 0
M  V30 19420 N 1785.13 -2.50063 3.89901 0
M  V30 19421 C 1785.87 -2.99841 4.88756 0
M  V30 19422 N 1785.36 -3.49798 5.98008 0
M  V30 19423 N 1787.16 -2.98709 4.76161 0
M  V30 19424 H 1779.31 -0.147014 2.11891 0
M  V30 19425 H 1781.57 -0.127846 0.93934 0
M  V30 19426 H 1781.28 -1.05369 3.35545 0
M  V30 19427 H 1781.15 -2.6642 2.67021 0
M  V30 19428 H 1783.54 -2.40257 1.71349 0
M  V30 19429 H 1783.62 -0.788304 2.4335 0
M  V30 19430 H 1783.26 -1.82372 4.74029 0
M  V30 19431 H 1783.19 -3.43763 3.98917 0
M  V30 19432 H 1785.68 -2.14709 3.1098 0
M  V30 19433 H 1786 -3.86181 6.69391 0
M  V30 19434 H 1784.34 -3.47905 6.01654 0
M  V30 19435 H 1787.53 -2.5898 3.89932 0
M  V30 19436 H 1787.7 -3.37193 5.53358 0
M  V30 19437 N 1781.11 -1.21927 -0.998575 0
M  V30 19438 C 1782.39 -0.949034 -1.71034 0
M  V30 19439 C 1782.77 0.537429 -2.04144 0
M  V30 19440 O 1782.12 1.50398 -1.72026 0
M  V30 19441 C 1782.33 -1.84076 -2.96508 0
M  V30 19442 C 1783.67 -2.09345 -3.69405 0
M  V30 19443 O 1784.7 -1.81477 -3.06504 0
M  V30 19444 O 1783.56 -2.56513 -4.82559 0
M  V30 19445 H 1780.65 -0.356423 -0.746252 0
M  V30 19446 H 1783.2 -1.32886 -1.05543 0
M  V30 19447 H 1781.97 -2.84647 -2.68499 0
M  V30 19448 H 1781.59 -1.46215 -3.69739 0
M  V30 19449 N 1782.59 1.19452 -1.02805 0
M  V30 19450 C 1783.81 1.93616 -0.743485 0
M  V30 19451 C 1784.24 1.74934 0.691342 0
M  V30 19452 O 1783.6 1.05111 1.47721 0
M  V30 19453 C 1783.64 3.43451 -1.0988 0
M  V30 19454 O 1782.75 4.11829 -0.216978 0
M  V30 19455 H 1782.09 0.60448 -0.274771 0
M  V30 19456 H 1784.62 1.51554 -1.37451 0
M  V30 19457 H 1784.63 3.94115 -1.05535 0
M  V30 19458 H 1783.3 3.5637 -2.14413 0
M  V30 19459 H 1781.88 3.71533 -0.318954 0
M  V30 19460 N 1784.07 0.805805 1.35442 0
M  V30 19461 C 1785.01 0.203715 2.31706 0
M  V30 19462 C 1786.01 -0.646084 1.56595 0
M  V30 19463 O 1787.21 -0.539336 1.7173 0
M  V30 19464 H 1783.59 0.0471152 0.750523 0
M  V30 19465 H 1785.56 1.03076 2.80032 0
M  V30 19466 C 1784.31 -0.633791 3.41875 0
M  V30 19467 H 1783.63 0.0107715 3.99799 0
M  V30 19468 H 1785.07 -1.02147 4.11512 0
M  V30 19469 C 1783.53 -1.79899 2.84847 0
M  V30 19470 O 1784.06 -2.89643 2.78334 0
M  V30 19471 N 1782.27 -1.61027 2.41906 0
M  V30 19472 H 1781.81 -0.717599 2.47403 0
M  V30 19473 H 1781.77 -2.39147 2.04099 0
M  V30 19474 N 1785.54 -1.47344 0.559239 0
M  V30 19475 C 1786.47 -2.32839 -0.175542 0
M  V30 19476 C 1787.46 -1.43914 -0.906787 0
M  V30 19477 O 1788.64 -1.72767 -0.886855 0
M  V30 19478 C 1785.77 -3.25735 -1.20474 0
M  V30 19479 C 1784.72 -4.23916 -0.589825 0
M  V30 19480 C 1784.05 -5.06151 -1.7238 0
M  V30 19481 C 1785.35 -5.2029 0.457733 0
M  V30 19482 H 1787.04 -2.94522 0.538225 0
M  V30 19483 H 1784.59 -1.41628 0.260282 0
M  V30 19484 H 1786.54 -3.84388 -1.72695 0
M  V30 19485 H 1785.27 -2.62111 -1.94847 0
M  V30 19486 H 1783.93 -3.66492 -0.0888897 0
M  V30 19487 H 1783.57 -4.38929 -2.45663 0
M  V30 19488 H 1783.27 -5.72625 -1.31813 0
M  V30 19489 H 1784.8 -5.67663 -2.24923 0
M  V30 19490 H 1786.21 -5.73296 0.0215019 0
M  V30 19491 H 1784.61 -5.94978 0.7824 0
M  V30 19492 H 1785.68 -4.65645 1.35286 0
M  V30 19493 N 1787.02 -0.295795 -1.54799 0
M  V30 19494 C 1787.99 0.569699 -2.22007 0
M  V30 19495 C 1788.99 1.06535 -1.20445 0
M  V30 19496 O 1790.18 0.962212 -1.45214 0
M  V30 19497 C 1787.31 1.78821 -2.90234 0
M  V30 19498 H 1788.5 -0.0174148 -2.99895 0
M  V30 19499 H 1786.05 -0.0465813 -1.56231 0
M  V30 19500 H 1786.79 2.4153 -2.16412 0
M  V30 19501 H 1786.57 1.44051 -3.6468 0
M  V30 19502 H 1788.06 2.40321 -3.41519 0
M  V30 19503 N 1788.5 1.57583 -0.0234236 0
M  V30 19504 C 1789.43 2.06766 0.988961 0
M  V30 19505 C 1790.45 0.98998 1.29241 0
M  V30 19506 O 1791.64 1.2663 1.25806 0
M  V30 19507 C 1788.74 2.47244 2.31784 0
M  V30 19508 C 1787.91 3.78023 2.20039 0
M  V30 19509 C 1786.97 4.05113 3.35812 0
M  V30 19510 O 1785.99 4.75447 3.12952 0
M  V30 19511 N 1787.2 3.5484 4.59422 0
M  V30 19512 H 1789.96 2.94242 0.569355 0
M  V30 19513 H 1787.52 1.61073 0.163461 0
M  V30 19514 H 1789.51 2.62463 3.08051 0
M  V30 19515 H 1788.08 1.65163 2.65405 0
M  V30 19516 H 1787.3 3.72656 1.28534 0
M  V30 19517 H 1788.59 4.63717 2.09389 0
M  V30 19518 H 1787.99 2.97928 4.8089 0
M  V30 19519 H 1786.55 3.75348 5.32877 0
M  V30 19520 N 1789.98 -0.249655 1.5561 0
M  V30 19521 C 1791.21 -0.995707 1.81365 0
M  V30 19522 C 1791.62 -1.79054 0.598767 0
M  V30 19523 O 1790.98 -1.773 -0.432538 0
M  V30 19524 C 1791.03 -1.93577 3.05303 0
M  V30 19525 O 1790.75 -1.17311 4.22102 0
M  V30 19526 C 1792.25 -2.79804 3.43838 0
M  V30 19527 H 1789.47 -0.293118 0.603591 0
M  V30 19528 H 1792.02 -0.273374 2.02665 0
M  V30 19529 H 1790.17 -2.61242 2.86062 0
M  V30 19530 H 1790.59 -1.80875 4.92326 0
M  V30 19531 H 1792.06 -3.4152 4.33668 0
M  V30 19532 H 1792.54 -3.50776 2.64298 0
M  V30 19533 H 1793.14 -2.17596 3.6542 0
M  V30 19534 N 1791.46 -1.48941 -0.515198 0
M  V30 19535 C 1792.39 -1.67466 -1.62719 0
M  V30 19536 C 1793.37 -0.523393 -1.61847 0
M  V30 19537 O 1794.55 -0.757631 -1.78812 0
M  V30 19538 C 1791.68 -1.72799 -3.0126 0
M  V30 19539 C 1790.64 -2.87574 -3.16994 0
M  V30 19540 C 1789.96 -2.78008 -4.56745 0
M  V30 19541 C 1791.26 -4.28693 -2.98362 0
M  V30 19542 H 1792.96 -2.60562 -1.47471 0
M  V30 19543 H 1790.5 -1.25391 -0.708027 0
M  V30 19544 H 1792.46 -1.84346 -3.78939 0
M  V30 19545 H 1791.18 -0.762918 -3.17564 0
M  V30 19546 H 1789.84 -2.75606 -2.41737 0
M  V30 19547 H 1789.49 -1.79438 -4.69905 0
M  V30 19548 H 1789.19 -3.55033 -4.68215 0
M  V30 19549 H 1790.71 -2.91543 -5.36503 0
M  V30 19550 H 1792.13 -4.41416 -3.65821 0
M  V30 19551 H 1790.52 -5.0683 -3.21315 0
M  V30 19552 H 1791.59 -4.44125 -1.9463 0
M  V30 19553 N 1792.94 0.765193 -1.37777 0
M  V30 19554 C 1794.18 1.51928 -1.32668 0
M  V30 19555 C 1794.5 1.95418 0.0844172 0
M  V30 19556 O 1795.7 2.70271 0.258001 0
M  V30 19557 C 1794.16 2.74377 -2.32906 0
M  V30 19558 C 1793.77 2.37959 -3.79578 0
M  V30 19559 C 1795.51 3.52302 -2.3682 0
M  V30 19560 C 1793.42 3.5695 -4.7153 0
M  V30 19561 H 1792.35 0.570412 -0.493098 0
M  V30 19562 H 1795 0.837531 -1.63272 0
M  V30 19563 H 1793.38 3.44474 -1.95329 0
M  V30 19564 H 1794.56 1.75603 -4.26028 0
M  V30 19565 H 1792.87 1.73194 -3.78672 0
M  V30 19566 H 1795.47 4.40754 -3.02721 0
M  V30 19567 H 1795.81 3.92631 -1.38371 0
M  V30 19568 H 1796.34 2.89207 -2.73137 0
M  V30 19569 H 1793.08 3.21697 -5.71132 0
M  V30 19570 H 1792.6 4.18388 -4.2978 0
M  V30 19571 H 1794.28 4.2368 -4.88983 0
M  V30 19572 N 1794.41 1.22455 0.992094 0
M  V30 19573 C 1795.83 0.984682 1.25603 0
M  V30 19574 C 1796.03 -0.321255 1.98923 0
M  V30 19575 O 1795.09 -1.04367 2.29921 0
M  V30 19576 C 1796.4 2.1839 2.06703 0
M  V30 19577 C 1797.95 2.22755 2.19884 0
M  V30 19578 C 1798.42 3.42232 3.04371 0
M  V30 19579 N 1799.91 3.42398 3.11958 0
M  V30 19580 C 1800.65 4.31497 3.77622 0
M  V30 19581 N 1800.14 5.30814 4.45206 0
M  V30 19582 N 1801.94 4.1927 3.74391 0
M  V30 19583 H 1794.09 2.06417 0.50057 0
M  V30 19584 H 1796.35 0.904556 0.283693 0
M  V30 19585 H 1796.06 3.13099 1.60192 0
M  V30 19586 H 1795.93 2.18517 3.07458 0
M  V30 19587 H 1798.32 1.28593 2.65608 0
M  V30 19588 H 1798.4 2.26667 1.18557 0
M  V30 19589 H 1798.04 4.36694 2.59346 0
M  V30 19590 H 1797.97 3.3556 4.05841 0
M  V30 19591 H 1800.46 2.70531 2.63858 0
M  V30 19592 H 1800.78 5.95078 4.93054 0
M  V30 19593 H 1799.12 5.34726 4.43952 0
M  V30 19594 H 1802.31 3.40932 3.20753 0
M  V30 19595 H 1802.49 4.88913 4.25286 0
M  V30 19596 N 1795.89 -1.18905 1.03437 0
M  V30 19597 C 1796.84 -2.24362 0.613557 0
M  V30 19598 C 1797.83 -1.65605 -0.356541 0
M  V30 19599 O 1799.04 -1.78594 -0.22452 0
M  V30 19600 H 1795.41 -0.730098 0.18017 0
M  V30 19601 H 1797.39 -2.57168 1.51351 0
M  V30 19602 C 1796.13 -3.47697 -0.0141125 0
M  V30 19603 H 1795.46 -3.93201 0.723394 0
M  V30 19604 H 1796.9 -4.2313 -0.271424 0
M  V30 19605 C 1795.36 -3.12357 -1.26232 0
M  V30 19606 O 1795.89 -3.25515 -2.35378 0
M  V30 19607 N 1794.09 -2.6674 -1.15318 0
M  V30 19608 H 1793.64 -2.56233 -0.26501 0
M  V30 19609 H 1793.6 -2.43466 -1.98927 0
M  V30 19610 N 1797.37 -0.812977 -1.35013 0
M  V30 19611 C 1798.62 -0.392801 -1.97838 0
M  V30 19612 C 1798.93 1.04728 -1.65201 0
M  V30 19613 O 1800.14 1.57088 -2.2144 0
M  V30 19614 C 1798.59 -0.651399 -3.53956 0
M  V30 19615 C 1798.2 -2.10444 -3.95496 0
M  V30 19616 C 1799.95 -0.296897 -4.2346 0
M  V30 19617 C 1797.85 -2.30845 -5.44485 0
M  V30 19618 H 1796.78 -0.143138 -0.740289 0
M  V30 19619 H 1799.43 -0.997933 -1.53992 0
M  V30 19620 H 1797.82 0.0237698 -3.95993 0
M  V30 19621 H 1798.99 -2.81795 -3.64593 0
M  V30 19622 H 1797.3 -2.41942 -3.389 0
M  V30 19623 H 1799.9 -0.427291 -5.3299 0
M  V30 19624 H 1800.24 0.757594 -4.09349 0
M  V30 19625 H 1800.78 -0.92624 -3.86866 0
M  V30 19626 H 1797.52 -3.34763 -5.63572 0
M  V30 19627 H 1797.04 -1.64027 -5.76936 0
M  V30 19628 H 1798.72 -2.12712 -6.11034 0
M  V30 19629 N 1798.85 1.47045 -0.567045 0
M  V30 19630 C 1800.09 2.02746 -0.046749 0
M  V30 19631 C 1800.43 1.4394 1.30364 0
M  V30 19632 O 1799.7 0.598616 1.85059 0
M  V30 19633 C 1799.98 3.60082 0.0358156 0
M  V30 19634 C 1799.84 4.29302 -1.34237 0
M  V30 19635 C 1801.16 4.3376 0.744338 0
M  V30 19636 H 1798.28 0.736769 -0.0184627 0
M  V30 19637 H 1800.92 1.75365 -0.73123 0
M  V30 19638 H 1799.07 3.83541 0.618745 0
M  V30 19639 H 1800.74 4.17155 -1.96926 0
M  V30 19640 H 1798.98 3.89273 -1.91439 0
M  V30 19641 H 1799.65 5.37956 -1.23722 0
M  V30 19642 H 1802.13 4.15353 0.249287 0
M  V30 19643 H 1801.01 5.43457 0.771095 0
M  V30 19644 H 1801.27 4.03686 1.80249 0
M  V30 19645 N 1800.33 0.304 1.5464 0
M  V30 19646 C 1801.55 -0.309709 2.05075 0
M  V30 19647 C 1801.98 -1.46509 1.1797 0
M  V30 19648 O 1801.33 -1.80359 0.184437 0
M  V30 19649 C 1801.38 -0.740734 3.5291 0
M  V30 19650 O 1800.49 -1.8452 3.68817 0
M  V30 19651 H 1799.83 -0.0596065 0.661319 0
M  V30 19652 H 1802.36 0.446718 1.99664 0
M  V30 19653 H 1802.37 -1.02873 3.94818 0
M  V30 19654 H 1801.04 0.104422 4.15769 0
M  V30 19655 H 1799.62 -1.55753 3.38815 0
M  V30 19656 N 1801.8 -1.57568 0.0317802 0
M  V30 19657 C 1802.73 -2.13412 -0.947499 0
M  V30 19658 C 1803.71 -1.05091 -1.33753 0
M  V30 19659 O 1804.9 -1.32936 -1.41568 0
M  V30 19660 C 1802.03 -2.66337 -2.22895 0
M  V30 19661 C 1800.98 -3.79469 -1.97958 0
M  V30 19662 C 1800.31 -4.18833 -3.3239 0
M  V30 19663 C 1801.61 -5.05432 -1.31664 0
M  V30 19664 H 1803.3 -2.95488 -0.482417 0
M  V30 19665 H 1800.85 -1.42142 -0.230603 0
M  V30 19666 H 1802.8 -3.04039 -2.91784 0
M  V30 19667 H 1801.53 -1.81426 -2.71574 0
M  V30 19668 H 1800.19 -3.42209 -1.31485 0
M  V30 19669 H 1799.83 -3.30899 -3.78833 0
M  V30 19670 H 1799.53 -4.95071 -3.16511 0
M  V30 19671 H 1801.06 -4.5912 -4.02544 0
M  V30 19672 H 1802.47 -5.40704 -1.90558 0
M  V30 19673 H 1800.87 -5.86686 -1.26173 0
M  V30 19674 H 1801.94 -4.84032 -0.28996 0
M  V30 19675 N 1803.28 0.241399 -1.5574 0
M  V30 19676 C 1804.51 0.986075 -1.81891 0
M  V30 19677 C 1804.93 1.78734 -0.608254 0
M  V30 19678 O 1804.28 1.77527 0.423129 0
M  V30 19679 C 1804.33 1.91956 -3.06325 0
M  V30 19680 O 1804.05 1.15071 -4.22718 0
M  V30 19681 C 1805.56 2.77977 -3.45317 0
M  V30 19682 H 1802.78 0.289913 -0.605137 0
M  V30 19683 H 1805.32 0.262622 -2.02807 0
M  V30 19684 H 1803.47 2.59721 -2.87443 0
M  V30 19685 H 1803.89 1.78261 -4.93278 0
M  V30 19686 H 1805.36 3.39215 -4.35474 0
M  V30 19687 H 1805.84 3.49369 -2.66154 0
M  V30 19688 H 1806.45 2.15655 -3.66569 0
M  V30 19689 N 1804.76 1.49212 0.507292 0
M  V30 19690 C 1806.01 1.58068 1.25932 0
M  V30 19691 C 1806.33 0.266461 1.93171 0
M  V30 19692 O 1805.6 -0.713743 1.82435 0
M  V30 19693 H 1804.18 0.582384 0.467801 0
M  V30 19694 H 1806.84 1.85804 0.58847 0
M  V30 19695 H 1805.94 2.37351 2.0266 0
M  V30 19696 N 1806.24 -0.757876 1.38181 0
M  V30 19697 C 1807.65 -1.33496 1.30521 0
M  V30 19698 C 1808 -1.96157 -0.0409405 0
M  V30 19699 O 1807.13 -1.94775 -0.942957 0
M  V30 19700 C 1807.72 -2.42725 2.36369 0
M  V30 19701 C 1806.28 -2.96165 2.323 0
M  V30 19702 C 1805.43 -1.69505 2.19461 0
M  V30 19703 H 1808.38 -0.557075 1.48601 0
M  V30 19704 H 1808.4 -3.22556 2.01836 0
M  V30 19705 H 1807.91 -1.97089 3.34331 0
M  V30 19706 H 1806.01 -3.4614 1.37904 0
M  V30 19707 H 1806.12 -3.50836 3.26269 0
M  V30 19708 H 1804.49 -1.92967 1.66241 0
M  V30 19709 H 1805.27 -1.25954 3.1936 0
M  V30 19710 N 1807.72 -1.22979 -0.985586 0
M  V30 19711 C 1808.99 -0.967121 -1.70018 0
M  V30 19712 C 1809.37 0.515746 -2.04703 0
M  V30 19713 O 1808.72 1.48564 -1.73611 0
M  V30 19714 C 1808.93 -1.8721 -2.94539 0
M  V30 19715 C 1810.28 -2.13251 -3.67163 0
M  V30 19716 O 1811.3 -1.84718 -3.04562 0
M  V30 19717 O 1810.16 -2.61617 -4.79811 0
M  V30 19718 H 1807.26 -0.364318 -0.74243 0
M  V30 19719 H 1809.8 -1.33998 -1.04127 0
M  V30 19720 H 1808.57 -2.87478 -2.65465 0
M  V30 19721 H 1808.2 -1.50128 -3.68167 0
M  V30 19722 N 1809.19 1.18355 -1.04066 0
M  V30 19723 C 1810.44 1.88335 -0.744046 0
M  V30 19724 C 1810.77 1.80353 0.728219 0
M  V30 19725 O 1810.02 1.19839 1.54717 0
M  V30 19726 C 1810.32 3.38203 -1.15557 0
M  V30 19727 C 1809.99 3.66389 -2.62812 0
M  V30 19728 C 1808.65 3.73791 -3.03041 0
M  V30 19729 C 1811 3.78773 -3.58023 0
M  V30 19730 C 1808.33 3.91056 -4.37369 0
M  V30 19731 C 1810.68 3.97554 -4.92071 0
M  V30 19732 C 1809.35 4.03192 -5.3197 0
M  V30 19733 H 1808.62 0.689168 -0.272266 0
M  V30 19734 H 1811.26 1.40087 -1.30568 0
M  V30 19735 H 1809.57 3.8843 -0.512741 0
M  V30 19736 H 1811.27 3.90691 -0.903428 0
M  V30 19737 H 1807.86 3.61244 -2.30652 0
M  V30 19738 H 1812.04 3.72386 -3.28089 0
M  V30 19739 H 1807.3 3.93665 -4.67801 0
M  V30 19740 H 1811.47 4.06078 -5.65751 0
M  V30 19741 H 1809.1 4.16323 -6.36066 0
M  V30 19742 N 1810.67 0.820125 1.3458 0
M  V30 19743 C 1812.08 0.466064 1.80789 0
M  V30 19744 C 1812.43 -1.01327 1.6801 0
M  V30 19745 O 1811.56 -1.78835 1.21849 0
M  V30 19746 C 1812.15 0.839192 3.28242 0
M  V30 19747 C 1810.71 0.53754 3.72542 0
M  V30 19748 C 1809.86 1.0576 2.5634 0
M  V30 19749 H 1812.81 1.01055 1.22366 0
M  V30 19750 H 1812.83 0.141897 3.80235 0
M  V30 19751 H 1812.34 1.91592 3.37512 0
M  V30 19752 H 1810.45 -0.529895 3.68813 0
M  V30 19753 H 1810.56 1.07964 4.66777 0
M  V30 19754 H 1808.92 0.479275 2.5015 0
M  V30 19755 H 1809.71 2.14072 2.68381 0
M  V30 19756 N 1812.15 -1.46743 0.574835 0
M  V30 19757 C 1813.08 -2.33012 -0.150836 0
M  V30 19758 C 1814.06 -1.44868 -0.891472 0
M  V30 19759 O 1815.25 -1.73698 -0.868481 0
M  V30 19760 C 1812.38 -3.26995 -1.17012 0
M  V30 19761 C 1811.33 -4.24518 -0.544829 0
M  V30 19762 C 1810.66 -5.07951 -1.67002 0
M  V30 19763 C 1811.96 -5.19776 0.512891 0
M  V30 19764 H 1813.65 -2.93935 0.569433 0
M  V30 19765 H 1811.2 -1.41344 0.275289 0
M  V30 19766 H 1813.15 -3.86198 -1.68609 0
M  V30 19767 H 1811.87 -2.64163 -1.92056 0
M  V30 19768 H 1810.53 -3.66566 -0.0500133 0
M  V30 19769 H 1810.18 -4.4151 -2.40993 0
M  V30 19770 H 1809.88 -5.73991 -1.25732 0
M  V30 19771 H 1811.4 -5.70017 -2.1889 0
M  V30 19772 H 1812.82 -5.73241 0.0823064 0
M  V30 19773 H 1811.22 -5.94114 0.845462 0
M  V30 19774 H 1812.29 -4.64184 1.40217 0
M  V30 19775 N 1813.63 -0.312197 -1.54477 0
M  V30 19776 C 1814.54 0.568096 -2.27618 0
M  V30 19777 C 1815.55 1.13892 -1.31547 0
M  V30 19778 O 1816.73 1.16131 -1.64546 0
M  V30 19779 C 1813.8 1.71843 -3.01116 0
M  V30 19780 C 1812.86 1.18056 -4.12748 0
M  V30 19781 C 1812.09 2.27607 -4.82733 0
M  V30 19782 O 1812.31 3.4773 -4.52151 0
M  V30 19783 O 1811.25 1.93667 -5.69892 0
M  V30 19784 H 1815.07 -0.0255513 -3.03689 0
M  V30 19785 H 1812.66 -0.0782698 -1.49195 0
M  V30 19786 H 1814.54 2.38839 -3.4718 0
M  V30 19787 H 1813.21 2.29847 -2.2793 0
M  V30 19788 H 1812.12 0.476007 -3.71059 0
M  V30 19789 H 1813.45 0.645802 -4.87945 0
M  V30 19790 N 1815.11 1.57549 -0.040136 0
M  V30 19791 C 1816.02 2.14351 0.953457 0
M  V30 19792 C 1817.03 1.09851 1.3494 0
M  V30 19793 O 1818.21 1.41965 1.42857 0
M  V30 19794 C 1815.27 2.66832 2.21363 0
M  V30 19795 C 1814.33 3.86088 1.87708 0
M  V30 19796 C 1813.57 4.36057 3.07718 0
M  V30 19797 O 1813.79 3.85147 4.20735 0
M  V30 19798 O 1812.72 5.27775 2.89374 0
M  V30 19799 H 1816.55 2.99549 0.500423 0
M  V30 19800 H 1814.14 1.48298 0.18112 0
M  V30 19801 H 1816.02 3.00605 2.95321 0
M  V30 19802 H 1814.69 1.84711 2.65826 0
M  V30 19803 H 1813.6 3.57222 1.11101 0
M  V30 19804 H 1814.93 4.69405 1.48053 0
M  V30 19805 N 1816.58 -0.233136 1.55866 0
M  V30 19806 C 1817.55 -1.27227 1.90646 0
M  V30 19807 C 1818.55 -1.4039 0.784038 0
M  V30 19808 O 1819.74 -1.38854 1.05191 0
M  V30 19809 C 1816.87 -2.64791 2.14706 0
M  V30 19810 H 1818.06 -0.975986 2.83575 0
M  V30 19811 H 1815.62 -0.473045 1.4897 0
M  V30 19812 H 1816.35 -2.99537 1.24291 0
M  V30 19813 H 1816.14 -2.56615 2.96464 0
M  V30 19814 H 1817.63 -3.39797 2.4275 0
M  V30 19815 N 1818.06 -1.49479 -0.499372 0
M  V30 19816 C 1819.47 -1.52231 -1.08087 0
M  V30 19817 C 1819.83 -0.309442 -1.93744 0
M  V30 19818 O 1818.95 0.580587 -2.08466 0
M  V30 19819 C 1819.55 -2.75857 -1.96694 0
M  V30 19820 C 1818.1 -2.81381 -2.50003 0
M  V30 19821 C 1817.25 -2.46166 -1.27662 0
M  V30 19822 H 1820.2 -1.56153 -0.283211 0
M  V30 19823 H 1820.22 -2.56111 -2.81403 0
M  V30 19824 H 1819.74 -3.64114 -1.34324 0
M  V30 19825 H 1817.84 -1.97408 -3.16008 0
M  V30 19826 H 1817.95 -3.83591 -2.87045 0
M  V30 19827 H 1816.31 -1.97981 -1.60236 0
M  V30 19828 H 1817.1 -3.36699 -0.669974 0
M  V30 19829 N 1819.54 0.750537 -1.38581 0
M  V30 19830 C 1820.79 1.51198 -1.35156 0
M  V30 19831 C 1821.12 1.94115 0.0574068 0
M  V30 19832 O 1820.4 1.65657 1.01922 0
M  V30 19833 C 1820.68 2.76245 -2.30999 0
M  V30 19834 C 1820.53 2.39446 -3.8077 0
M  V30 19835 C 1821.85 3.78282 -2.24924 0
M  V30 19836 H 1818.97 0.548488 -0.492271 0
M  V30 19837 H 1821.61 0.859402 -1.69453 0
M  V30 19838 H 1819.76 3.31928 -2.01882 0
M  V30 19839 H 1821.43 1.89515 -4.20573 0
M  V30 19840 H 1819.68 1.71866 -3.98302 0
M  V30 19841 H 1820.35 3.28926 -4.43296 0
M  V30 19842 H 1822.82 3.32146 -2.50636 0
M  V30 19843 H 1821.7 4.63467 -2.94091 0
M  V30 19844 H 1821.96 4.24088 -1.24908 0
M  V30 19845 N 1821.02 1.235 0.979051 0
M  V30 19846 C 1822.27 1.06791 1.72052 0
M  V30 19847 C 1822.59 -0.395002 1.90447 0
M  V30 19848 O 1821.85 -1.30872 1.45503 0
M  V30 19849 C 1822.15 1.74004 3.12182 0
M  V30 19850 C 1821.81 3.23924 3.13662 0
M  V30 19851 C 1820.48 3.64828 3.13774 0
M  V30 19852 C 1822.83 4.19818 3.08872 0
M  V30 19853 C 1820.16 5.00083 3.06813 0
M  V30 19854 C 1822.51 5.55066 3.03454 0
M  V30 19855 C 1821.17 5.95332 3.01888 0
M  V30 19856 H 1820.44 0.390774 0.629584 0
M  V30 19857 H 1823.09 1.53452 1.14563 0
M  V30 19858 H 1821.39 1.19705 3.73066 0
M  V30 19859 H 1823.09 1.58551 3.68324 0
M  V30 19860 H 1819.68 2.91363 3.14334 0
M  V30 19861 H 1823.87 3.89225 3.07925 0
M  V30 19862 H 1819.12 5.30492 3.03954 0
M  V30 19863 H 1823.3 6.29085 2.98705 0
M  V30 19864 H 1820.92 7.001 2.96249 0
M  V30 19865 N 1822.5 -1.17802 1.04693 0
M  V30 19866 C 1823.44 -2.21648 0.643478 0
M  V30 19867 C 1824.41 -1.6233 -0.351858 0
M  V30 19868 O 1825.6 -1.89228 -0.244414 0
M  V30 19869 C 1822.74 -3.45095 0.019145 0
M  V30 19870 C 1821.85 -4.18725 1.06271 0
M  V30 19871 C 1820.99 -5.29644 0.406224 0
M  V30 19872 C 1820.03 -5.95055 1.43444 0
M  V30 19873 N 1819.16 -6.97499 0.802482 0
M  V30 19874 H 1824 -2.55513 1.53352 0
M  V30 19875 H 1821.54 -1.25518 0.767051 0
M  V30 19876 H 1823.5 -4.15642 -0.36023 0
M  V30 19877 H 1822.13 -3.1183 -0.834386 0
M  V30 19878 H 1821.18 -3.46943 1.55996 0
M  V30 19879 H 1822.49 -4.63486 1.84342 0
M  V30 19880 H 1821.65 -6.06694 -0.027012 0
M  V30 19881 H 1820.39 -4.86003 -0.406525 0
M  V30 19882 H 1819.39 -5.1674 1.87775 0
M  V30 19883 H 1820.62 -6.40778 2.249 0
M  V30 19884 H 1818.56 -6.55999 0.010153 0
M  V30 19885 H 1818.48 -7.40545 1.52081 0
M  V30 19886 H 1819.75 -7.78504 0.393852 0
M  V30 19887 N 1823.98 -0.827251 -1.34143 0
M  V30 19888 C 1825.39 -0.513554 -1.51112 0
M  V30 19889 C 1825.59 0.961434 -1.77084 0
M  V30 19890 O 1824.65 1.74573 -1.82429 0
M  V30 19891 C 1825.96 -1.37683 -2.67327 0
M  V30 19892 C 1827.51 -1.3744 -2.8121 0
M  V30 19893 C 1827.98 -2.22226 -4.00474 0
M  V30 19894 N 1829.47 -2.19873 -4.07689 0
M  V30 19895 C 1830.21 -2.82222 -4.99138 0
M  V30 19896 N 1829.71 -3.53578 -5.95781 0
M  V30 19897 N 1831.5 -2.71753 -4.92043 0
M  V30 19898 H 1823.65 -1.78222 -1.15545 0
M  V30 19899 H 1825.91 -0.759711 -0.567047 0
M  V30 19900 H 1825.62 -2.42448 -2.54778 0
M  V30 19901 H 1825.49 -1.0446 -3.62447 0
M  V30 19902 H 1827.88 -0.334525 -2.93198 0
M  V30 19903 H 1827.96 -1.74663 -1.86886 0
M  V30 19904 H 1827.6 -3.26266 -3.89246 0
M  V30 19905 H 1827.53 -1.82352 -4.9402 0
M  V30 19906 H 1830.03 -1.67972 -3.38517 0
M  V30 19907 H 1830.34 -3.98387 -6.62199 0
M  V30 19908 H 1828.68 -3.57685 -5.95892 0
M  V30 19909 H 1831.87 -2.15579 -4.15504 0
M  V30 19910 H 1832.05 -3.2063 -5.63117 0
M  V30 19911 N 1825.45 1.46436 -0.582609 0
M  V30 19912 C 1826.68 2.06768 -0.0737657 0
M  V30 19913 C 1827.1 1.43137 1.23115 0
M  V30 19914 O 1826.45 0.536633 1.74432 0
M  V30 19915 C 1826.5 3.61365 0.0988205 0
M  V30 19916 O 1826.23 4.22616 -1.15444 0
M  V30 19917 C 1827.73 4.38626 0.642025 0
M  V30 19918 H 1824.95 0.66854 -0.0574078 0
M  V30 19919 H 1827.49 1.88064 -0.80325 0
M  V30 19920 H 1825.65 3.79497 0.778526 0
M  V30 19921 H 1826.06 5.15486 -0.968204 0
M  V30 19922 H 1827.53 5.47389 0.711966 0
M  V30 19923 H 1828.01 4.06663 1.65897 0
M  V30 19924 H 1828.62 4.253 -0.00280852 0
M  V30 19925 N 1826.93 0.320385 1.54309 0
M  V30 19926 C 1828.18 -0.282584 2.00115 0
M  V30 19927 C 1828.5 -1.52904 1.21018 0
M  V30 19928 O 1827.77 -1.93413 0.311163 0
M  V30 19929 H 1826.35 -0.107406 0.739238 0
M  V30 19930 H 1829.01 0.436196 1.89956 0
M  V30 19931 H 1828.11 -0.541189 3.07372 0
M  V30 19932 N 1828.41 -1.57525 0.0484906 0
M  V30 19933 C 1829.63 -1.97309 -0.639062 0
M  V30 19934 C 1830.06 -0.925753 -1.63742 0
M  V30 19935 O 1829.42 0.111304 -1.80958 0
M  V30 19936 C 1829.47 -3.36168 -1.30475 0
M  V30 19937 O 1828.57 -3.33903 -2.42038 0
M  V30 19938 H 1827.91 -0.642824 -0.166351 0
M  V30 19939 H 1830.44 -2.0427 0.116095 0
M  V30 19940 H 1830.45 -3.72835 -1.65705 0
M  V30 19941 H 1829.13 -4.11933 -0.573057 0
M  V30 19942 H 1827.7 -3.08978 -2.08775 0
M  V30 19943 N 1829.89 0.224867 -1.55988 0
M  V30 19944 C 1830.85 1.26214 -1.91318 0
M  V30 19945 C 1831.85 1.39973 -0.791472 0
M  V30 19946 O 1833.04 1.38295 -1.05926 0
M  V30 19947 C 1830.17 2.63648 -2.16107 0
M  V30 19948 H 1831.37 0.960933 -2.84088 0
M  V30 19949 H 1828.92 0.465138 -1.49218 0
M  V30 19950 H 1829.65 2.98873 -1.25878 0
M  V30 19951 H 1829.44 2.5504 -2.97821 0
M  V30 19952 H 1830.93 3.38505 -2.44548 0
M  V30 19953 N 1831.37 1.49742 0.491438 0
M  V30 19954 C 1832.3 1.70033 1.60034 0
M  V30 19955 C 1833.28 0.549076 1.60994 0
M  V30 19956 O 1834.46 0.785983 1.77584 0
M  V30 19957 C 1831.59 1.7757 2.98473 0
M  V30 19958 C 1830.55 2.9258 3.12379 0
M  V30 19959 C 1829.87 2.85239 4.52264 0
M  V30 19960 C 1831.17 4.33385 2.91504 0
M  V30 19961 H 1832.87 2.62875 1.43307 0
M  V30 19962 H 1830.41 1.26502 0.687989 0
M  V30 19963 H 1832.36 1.90351 3.75958 0
M  V30 19964 H 1831.09 0.813343 3.1631 0
M  V30 19965 H 1829.75 2.79417 2.37322 0
M  V30 19966 H 1829.4 1.86892 4.66991 0
M  V30 19967 H 1829.1 3.62437 4.62508 0
M  V30 19968 H 1830.62 3.00041 5.31797 0
M  V30 19969 H 1832.03 4.4718 3.58752 0
M  V30 19970 H 1830.43 5.11878 3.13211 0
M  V30 19971 H 1831.5 4.47166 1.87539 0
M  V30 19972 N 1832.84 -0.743177 1.38977 0
M  V30 19973 C 1833.79 -1.84801 1.33539 0
M  V30 19974 C 1834.78 -1.5942 0.217733 0
M  V30 19975 O 1835.97 -1.71063 0.454585 0
M  V30 19976 C 1833.1 -3.22635 1.1731 0
M  V30 19977 C 1832.19 -3.53872 2.33741 0
M  V30 19978 N 1832.58 -3.56099 3.59204 0
M  V30 19979 C 1830.87 -3.84193 2.26521 0
M  V30 19980 C 1831.58 -3.849 4.3615 0
M  V30 19981 N 1830.55 -4.02259 3.65634 0
M  V30 19982 H 1834.35 -1.84816 2.28518 0
M  V30 19983 H 1831.87 -0.941033 1.32357 0
M  V30 19984 H 1833.86 -4.01714 1.11497 0
M  V30 19985 H 1832.52 -3.23865 0.232735 0
M  V30 19986 H 1833.54 -3.37607 3.92736 0
M  V30 19987 H 1830.21 -3.93077 1.40701 0
M  V30 19988 H 1831.6 -3.93158 5.44863 0
M  V30 19989 N 1834.32 -1.24018 -0.972487 0
M  V30 19990 C 1835.74 -1.00454 -1.24021 0
M  V30 19991 C 1835.94 0.289568 -1.99409 0
M  V30 19992 O 1834.99 1.00696 -2.31552 0
M  V30 19993 C 1836.31 -2.21651 -2.03202 0
M  V30 19994 C 1837.86 -2.26225 -2.16312 0
M  V30 19995 C 1838.33 -3.47031 -2.98888 0
M  V30 19996 N 1839.82 -3.47318 -3.06471 0
M  V30 19997 C 1840.56 -4.3745 -3.70709 0
M  V30 19998 N 1840.05 -5.37829 -4.36705 0
M  V30 19999 N 1841.85 -4.25173 -3.67674 0
M  V30 20000 H 1834 -2.07187 -0.467668 0
M  V30 20001 H 1836.26 -0.908955 -0.269267 0
M  V30 20002 H 1835.97 -3.15608 -1.55191 0
M  V30 20003 H 1835.84 -2.2338 -3.03943 0
M  V30 20004 H 1838.23 -1.32803 -2.63529 0
M  V30 20005 H 1838.31 -2.28525 -1.14936 0
M  V30 20006 H 1837.95 -4.40765 -2.52366 0
M  V30 20007 H 1837.88 -3.41974 -4.00452 0
M  V30 20008 H 1840.37 -2.74695 -2.59521 0
M  V30 20009 H 1840.69 -6.02846 -4.83525 0
M  V30 20010 H 1839.03 -5.41721 -4.35389 0
M  V30 20011 H 1842.22 -3.45992 -3.15289 0
M  V30 20012 H 1842.39 -4.95617 -4.17454 0
M  V30 20013 N 1835.8 1.17245 -1.05316 0
M  V30 20014 C 1837.05 1.87536 -0.76398 0
M  V30 20015 C 1837.38 1.81115 0.709049 0
M  V30 20016 O 1836.63 1.21473 1.53437 0
M  V30 20017 C 1836.93 3.36958 -1.19138 0
M  V30 20018 C 1836.6 3.63581 -2.66683 0
M  V30 20019 C 1835.26 3.70556 -3.06988 0
M  V30 20020 C 1837.61 3.74954 -3.62021 0
M  V30 20021 C 1834.94 3.86396 -4.41492 0
M  V30 20022 C 1837.29 3.92313 -4.9626 0
M  V30 20023 C 1835.95 3.97527 -5.36217 0
M  V30 20024 H 1835.22 0.686241 -0.27956 0
M  V30 20025 H 1837.87 1.38694 -1.32047 0
M  V30 20026 H 1836.18 3.87865 -0.55391 0
M  V30 20027 H 1837.87 3.8971 -0.944815 0
M  V30 20028 H 1834.46 3.58778 -2.34471 0
M  V30 20029 H 1838.65 3.68885 -3.3202 0
M  V30 20030 H 1833.9 3.88681 -4.7195 0
M  V30 20031 H 1838.08 4.00055 -5.70026 0
M  V30 20032 H 1835.7 4.09553 -6.40445 0
M  V30 20033 N 1837.28 0.834353 1.33702 0
M  V30 20034 C 1838.23 0.26233 2.29304 0
M  V30 20035 C 1839.2 -0.619326 1.54122 0
M  V30 20036 O 1840.38 -0.558551 1.82441 0
M  V30 20037 C 1837.52 -0.560341 3.4052 0
M  V30 20038 C 1836.63 0.344832 4.30622 0
M  V30 20039 C 1835.77 -0.488505 5.28949 0
M  V30 20040 C 1834.81 0.415341 6.10689 0
M  V30 20041 N 1833.94 -0.3796 7.01073 0
M  V30 20042 H 1838.78 1.08291 2.77628 0
M  V30 20043 H 1836.32 0.545497 1.36612 0
M  V30 20044 H 1838.28 -1.05274 4.03699 0
M  V30 20045 H 1836.91 -1.34593 2.93402 0
M  V30 20046 H 1835.96 0.955519 3.68204 0
M  V30 20047 H 1837.27 1.03935 4.87851 0
M  V30 20048 H 1836.43 -1.04492 5.97634 0
M  V30 20049 H 1835.17 -1.21648 4.72285 0
M  V30 20050 H 1834.17 0.983803 5.40926 0
M  V30 20051 H 1835.4 1.1416 6.69436 0
M  V30 20052 H 1833.34 -1.09103 6.46864 0
M  V30 20053 H 1833.26 0.25629 7.55565 0
M  V30 20054 H 1834.53 -0.918394 7.74071 0
M  V30 20055 N 1838.76 -1.46125 0.590367 0
M  V30 20056 C 1839.98 -2.07234 0.0828625 0
M  V30 20057 C 1840.41 -1.43498 -1.21614 0
M  V30 20058 O 1839.76 -0.521488 -1.73638 0
M  V30 20059 C 1839.81 -3.60548 -0.0614302 0
M  V30 20060 O 1838.92 -3.97012 -1.11603 0
M  V30 20061 H 1838.26 -0.660685 0.0662654 0
M  V30 20062 H 1840.79 -1.87646 0.815486 0
M  V30 20063 H 1840.8 -4.07137 -0.265161 0
M  V30 20064 H 1839.47 -4.06328 0.887164 0
M  V30 20065 H 1838.05 -3.6212 -0.890146 0
M  V30 20066 N 1840.23 -0.328564 -1.54137 0
M  V30 20067 C 1841.2 0.52248 -2.23165 0
M  V30 20068 C 1842.2 1.03956 -1.22677 0
M  V30 20069 O 1843.39 0.931193 -1.47222 0
M  V30 20070 C 1840.52 1.72624 -2.93962 0
M  V30 20071 H 1841.71 -0.081023 -2.99791 0
M  V30 20072 H 1839.27 -0.0797096 -1.56097 0
M  V30 20073 H 1840 2.36885 -2.21486 0
M  V30 20074 H 1839.79 1.36283 -3.67654 0
M  V30 20075 H 1841.28 2.33023 -3.4654 0
M  V30 20076 N 1841.71 1.57497 -0.0568439 0
M  V30 20077 C 1843.13 1.5676 0.299732 0
M  V30 20078 C 1843.33 1.065 1.71056 0
M  V30 20079 O 1842.38 0.72414 2.41893 0
M  V30 20080 C 1843.7 3.00448 0.123023 0
M  V30 20081 C 1845.25 3.124 0.193697 0
M  V30 20082 C 1845.72 4.57977 0.0454499 0
M  V30 20083 N 1847.21 4.63089 0.101543 0
M  V30 20084 C 1847.95 5.73399 0.0110306 0
M  V30 20085 N 1847.44 6.92674 -0.132152 0
M  V30 20086 N 1849.24 5.6206 0.0670216 0
M  V30 20087 H 1841.39 1.88488 -0.979078 0
M  V30 20088 H 1843.65 0.868264 -0.380554 0
M  V30 20089 H 1843.36 3.41276 -0.849919 0
M  V30 20090 H 1843.23 3.66751 0.881672 0
M  V30 20091 H 1845.62 2.71468 1.15712 0
M  V30 20092 H 1845.7 2.48765 -0.595802 0
M  V30 20093 H 1845.34 4.99596 -0.914669 0
M  V30 20094 H 1845.27 5.19626 0.854166 0
M  V30 20095 H 1847.76 3.77309 0.211226 0
M  V30 20096 H 1848.08 7.72557 -0.193769 0
M  V30 20097 H 1846.42 6.94799 -0.167314 0
M  V30 20098 H 1849.61 4.67763 0.177478 0
M  V30 20099 H 1849.78 6.48 -0.00697432 0
M  V30 20100 N 1843.19 -0.216591 1.56105 0
M  V30 20101 C 1844.42 -0.955625 1.8317 0
M  V30 20102 C 1844.83 -1.78247 0.634397 0
M  V30 20103 O 1844.17 -1.79148 -0.406391 0
M  V30 20104 C 1844.23 -1.91834 3.04039 0
M  V30 20105 C 1843.9 -1.27553 4.38838 0
M  V30 20106 C 1844.89 -0.662972 5.15656 0
M  V30 20107 C 1842.58 -1.28582 4.85564 0
M  V30 20108 C 1844.57 -0.0692674 6.37362 0
M  V30 20109 C 1842.26 -0.688269 6.07212 0
M  V30 20110 C 1843.26 -0.0810524 6.82952 0
M  V30 20111 O 1842.95 0.507186 8.02298 0
M  V30 20112 H 1842.68 -0.285405 0.612797 0
M  V30 20113 H 1845.23 -0.235419 2.04046 0
M  V30 20114 H 1843.46 -2.67767 2.78994 0
M  V30 20115 H 1845.15 -2.52334 3.17934 0
M  V30 20116 H 1845.92 -0.647319 4.80661 0
M  V30 20117 H 1841.8 -1.74784 4.26581 0
M  V30 20118 H 1845.34 0.405305 6.96422 0
M  V30 20119 H 1841.24 -0.701352 6.41679 0
M  V30 20120 H 1842.01 0.401989 8.17512 0
M  V30 20121 N 1844.67 -1.5 -0.48349 0
M  V30 20122 C 1845.89 -1.64376 -1.26473 0
M  V30 20123 C 1846.32 -0.321912 -1.85325 0
M  V30 20124 O 1845.68 0.712714 -1.66704 0
M  V30 20125 C 1845.72 -2.72803 -2.35819 0
M  V30 20126 O 1844.83 -2.33194 -3.40139 0
M  V30 20127 H 1844.17 -0.549589 -0.372624 0
M  V30 20128 H 1846.7 -1.963 -0.57684 0
M  V30 20129 H 1846.71 -2.95505 -2.8132 0
M  V30 20130 H 1845.38 -3.68745 -1.92353 0
M  V30 20131 H 1843.96 -2.20891 -3.00436 0
M  V30 20132 N 1846.15 0.735796 -1.39369 0
M  V30 20133 C 1847.06 1.88026 -1.40298 0
M  V30 20134 C 1848.07 1.71431 -0.297878 0
M  V30 20135 O 1849.25 1.94047 -0.539219 0
M  V30 20136 C 1846.31 3.23607 -1.24415 0
M  V30 20137 C 1845.37 3.52601 -2.4489 0
M  V30 20138 C 1844.61 4.81714 -2.29755 0
M  V30 20139 O 1844.83 5.55374 -1.30061 0
M  V30 20140 O 1843.76 5.10588 -3.18722 0
M  V30 20141 H 1847.59 1.90197 -2.36767 0
M  V30 20142 H 1845.18 0.883504 -1.20476 0
M  V30 20143 H 1847.06 4.04633 -1.17688 0
M  V30 20144 H 1845.73 3.22208 -0.310409 0
M  V30 20145 H 1844.64 2.71665 -2.57194 0
M  V30 20146 H 1845.97 3.58778 -3.36955 0
M  V30 20147 N 1847.63 1.24532 0.965897 0
M  V30 20148 C 1848.87 1.08395 1.70572 0
M  V30 20149 C 1849.19 -0.377657 1.91308 0
M  V30 20150 O 1848.46 -1.26935 1.49212 0
M  V30 20151 H 1847.04 0.398123 0.632066 0
M  V30 20152 H 1849.71 1.5648 1.1619 0
M  V30 20153 H 1848.8 1.58342 2.6895 0
M  V30 20154 N 1849.1 -1.16685 1.05936 0
M  V30 20155 C 1850.35 -1.86758 0.772386 0
M  V30 20156 C 1850.67 -1.81885 -0.703051 0
M  V30 20157 O 1849.94 -1.24992 -1.50844 0
M  V30 20158 H 1848.52 -0.69143 0.282725 0
M  V30 20159 H 1851.18 -1.41518 1.3401 0
M  V30 20160 H 1850.28 -2.92296 1.09405 0
M  V30 20161 N 1850.58 -0.841432 -1.33258 0
M  V30 20162 C 1851.81 -0.451287 -2.01611 0
M  V30 20163 C 1852.22 0.952858 -1.63454 0
M  V30 20164 O 1851.56 1.6311 -0.845039 0
M  V30 20165 C 1851.62 -0.495287 -3.56072 0
M  V30 20166 C 1851.29 -1.856 -4.17614 0
M  V30 20167 C 1852.29 -2.81959 -4.36801 0
M  V30 20168 C 1849.97 -2.14953 -4.53983 0
M  V30 20169 C 1851.96 -4.05832 -4.91507 0
M  V30 20170 C 1849.65 -3.39083 -5.08395 0
M  V30 20171 C 1850.65 -4.34339 -5.27104 0
M  V30 20172 O 1850.34 -5.56273 -5.80359 0
M  V30 20173 H 1850.07 -0.177188 -0.652365 0
M  V30 20174 H 1852.62 -1.13629 -1.71107 0
M  V30 20175 H 1850.85 0.246506 -3.85914 0
M  V30 20176 H 1852.54 -0.122606 -4.05715 0
M  V30 20177 H 1853.31 -2.60582 -4.0905 0
M  V30 20178 H 1849.19 -1.41602 -4.38714 0
M  V30 20179 H 1852.73 -4.80192 -5.06025 0
M  V30 20180 H 1848.63 -3.60316 -5.35577 0
M  V30 20181 H 1849.4 -5.58047 -5.9877 0
M  V30 20182 N 1852.06 1.4581 -0.598108 0
M  V30 20183 C 1853.28 2.07188 -0.0938515 0
M  V30 20184 C 1853.71 1.44141 1.20851 0
M  V30 20185 O 1853.07 0.530689 1.73359 0
M  V30 20186 C 1853.12 3.60575 0.0423086 0
M  V30 20187 O 1852.22 3.97598 1.09496 0
M  V30 20188 H 1851.56 0.660324 -0.0697682 0
M  V30 20189 H 1854.09 1.87211 -0.825426 0
M  V30 20190 H 1854.1 4.07272 0.243566 0
M  V30 20191 H 1852.78 4.05852 -0.9087 0
M  V30 20192 H 1851.35 3.62587 0.87093 0
M  V30 20193 N 1853.54 0.336733 1.53961 0
M  V30 20194 C 1854.76 -0.26614 2.05685 0
M  V30 20195 C 1855.19 -1.43973 1.21051 0
M  V30 20196 O 1854.55 -1.79928 0.222652 0
M  V30 20197 C 1854.59 -0.66571 3.54402 0
M  V30 20198 O 1853.7 -1.76656 3.72648 0
M  V30 20199 H 1853.04 -0.0455655 0.662435 0
M  V30 20200 H 1855.57 0.488969 1.98671 0
M  V30 20201 H 1855.58 -0.944748 3.96911 0
M  V30 20202 H 1854.25 0.192589 4.15454 0
M  V30 20203 H 1852.83 -1.48531 3.42042 0
M  V30 20204 N 1855.02 -1.57465 0.0651956 0
M  V30 20205 C 1856.26 -1.93524 -0.606325 0
M  V30 20206 C 1856.59 -0.944947 -1.6966 0
M  V30 20207 O 1855.87 0.0268871 -1.94481 0
M  V30 20208 C 1856.15 -3.3989 -1.18941 0
M  V30 20209 C 1856.01 -4.49675 -0.106235 0
M  V30 20210 C 1857.32 -3.86935 -2.09689 0
M  V30 20211 H 1854.44 -0.703729 -0.218939 0
M  V30 20212 H 1857.09 -1.89556 0.12982 0
M  V30 20213 H 1855.24 -3.43402 -1.81679 0
M  V30 20214 H 1856.91 -4.58286 0.526483 0
M  V30 20215 H 1855.15 -4.30118 0.563985 0
M  V30 20216 H 1855.82 -5.49208 -0.554488 0
M  V30 20217 H 1858.3 -3.85387 -1.56895 0
M  V30 20218 H 1857.17 -4.89972 -2.47424 0
M  V30 20219 H 1857.43 -3.24496 -3.00258 0
M  V30 20220 N 1856.49 0.20831 -1.56217 0
M  V30 20221 C 1857.73 0.937642 -1.81625 0
M  V30 20222 C 1858.1 1.80994 -0.640716 0
M  V30 20223 O 1859.3 2.57404 -0.774387 0
M  V30 20224 C 1857.57 1.74339 -3.11995 0
M  V30 20225 S 1859.13 2.52655 -3.58763 0
M  V30 20226 H 1855.95 0.314732 -0.637546 0
M  V30 20227 H 1858.55 0.202106 -1.94453 0
M  V30 20228 H 1857.25 1.09294 -3.95579 0
M  V30 20229 H 1856.78 2.52098 -3.0201 0
M  V30 20230 H 1858.8 3.76547 -3.23151 0
M  V30 20231 N 1857.97 1.50255 0.475528 0
M  V30 20232 C 1859.38 1.53931 1.05651 0
M  V30 20233 C 1859.73 0.340226 1.93228 0
M  V30 20234 O 1858.86 -0.547349 2.09363 0
M  V30 20235 C 1859.45 2.78951 1.92281 0
M  V30 20236 C 1858.01 2.85323 2.45495 0
M  V30 20237 C 1857.16 2.48166 1.2373 0
M  V30 20238 H 1860.11 1.56583 0.258332 0
M  V30 20239 H 1860.13 2.60555 2.77293 0
M  V30 20240 H 1859.64 3.66205 1.28514 0
M  V30 20241 H 1857.74 2.0241 3.12827 0
M  V30 20242 H 1857.86 3.88109 2.80906 0
M  V30 20243 H 1856.22 2.00505 1.57066 0
M  V30 20244 H 1857 3.37722 0.616324 0
M  V30 20245 N 1859.45 -0.728395 1.39758 0
M  V30 20246 C 1860.4 -1.8638 1.39158 0
M  V30 20247 C 1861.39 -1.67173 0.273806 0
M  V30 20248 O 1862.6 -1.74433 0.444184 0
M  V30 20249 H 1858.97 -0.61363 0.434698 0
M  V30 20250 H 1860.94 -1.84002 2.34917 0
M  V30 20251 C 1859.69 -3.24127 1.25845 0
M  V30 20252 H 1859.02 -3.39507 2.11129 0
M  V30 20253 H 1860.46 -4.03745 1.29484 0
M  V30 20254 C 1858.91 -3.36884 -0.0325277 0
M  V30 20255 O 1859.44 -3.89047 -1.00026 0
M  V30 20256 N 1857.65 -2.90435 -0.0977834 0
M  V30 20257 H 1857.2 -2.48175 0.690438 0
M  V30 20258 H 1857.16 -2.99351 -0.961066 0
M  V30 20259 N 1860.93 -1.25042 -0.959279 0
M  V30 20260 C 1861.86 -1.07494 -2.07285 0
M  V30 20261 C 1862.84 0.0146264 -1.70094 0
M  V30 20262 O 1864.02 -0.154035 -1.93588 0
M  V30 20263 C 1861.15 -0.68794 -3.40418 0
M  V30 20264 C 1860.11 -1.72722 -3.91601 0
M  V30 20265 C 1859.43 -1.19504 -5.21175 0
M  V30 20266 C 1860.73 -3.12502 -4.18497 0
M  V30 20267 H 1862.43 -2.00641 -2.22224 0
M  V30 20268 H 1859.97 -0.966074 -1.06785 0
M  V30 20269 H 1861.93 -0.552133 -4.17767 0
M  V30 20270 H 1860.65 0.279224 -3.25404 0
M  V30 20271 H 1859.31 -1.85139 -3.16416 0
M  V30 20272 H 1858.96 -0.218239 -5.02526 0
M  V30 20273 H 1858.66 -1.88962 -5.56387 0
M  V30 20274 H 1860.18 -1.07153 -6.01124 0
M  V30 20275 H 1861.6 -3.03266 -4.86521 0
M  V30 20276 H 1859.99 -3.79389 -4.64956 0
M  V30 20277 H 1861.06 -3.5991 -3.2495 0
M  V30 20278 N 1862.41 1.16121 -1.06553 0
M  V30 20279 C 1863.34 2.22761 -0.699976 0
M  V30 20280 C 1864.32 1.67274 0.308783 0
M  V30 20281 O 1865.5 1.93333 0.183328 0
M  V30 20282 C 1862.63 3.47187 -0.0884044 0
M  V30 20283 C 1861.59 4.15584 -1.02343 0
M  V30 20284 C 1860.91 5.33992 -0.275022 0
M  V30 20285 C 1862.21 4.66266 -2.35358 0
M  V30 20286 H 1863.91 2.53595 -1.59153 0
M  V30 20287 H 1861.45 1.21893 -0.766686 0
M  V30 20288 H 1863.41 4.21019 0.17922 0
M  V30 20289 H 1862.13 3.15661 0.838181 0
M  V30 20290 H 1860.79 3.43683 -1.27584 0
M  V30 20291 H 1860.44 4.9872 0.654765 0
M  V30 20292 H 1860.14 5.80695 -0.898181 0
M  V30 20293 H 1861.66 6.10598 -0.0150056 0
M  V30 20294 H 1863.07 5.31665 -2.14488 0
M  V30 20295 H 1861.47 5.236 -2.93195 0
M  V30 20296 H 1862.54 3.82335 -2.98241 0
M  V30 20297 N 1863.88 0.848487 1.3281 0
M  V30 20298 C 1865.11 0.46174 2.02195 0
M  V30 20299 C 1865.53 -0.932159 1.63378 0
M  V30 20300 O 1864.89 -1.6112 0.831266 0
M  V30 20301 C 1864.94 0.601234 3.55552 0
M  V30 20302 O 1864.04 -0.368549 4.1075 0
M  V30 20303 H 1863.39 0.186379 0.637306 0
M  V30 20304 H 1865.92 1.14598 1.69495 0
M  V30 20305 H 1865.93 0.486456 4.0509 0
M  V30 20306 H 1864.6 1.61773 3.83148 0
M  V30 20307 H 1863.18 -0.210525 3.72305 0
M  V30 20308 N 1865.36 -1.4549 0.605832 0
M  V30 20309 C 1866.31 -2.27597 -0.13542 0
M  V30 20310 C 1867.3 -1.37219 -0.840222 0
M  V30 20311 O 1868.49 -1.61222 -0.730501 0
M  V30 20312 C 1865.62 -3.24054 -1.1333 0
M  V30 20313 C 1864.7 -4.2192 -0.429427 0
M  V30 20314 N 1865.09 -5.03037 0.527952 0
M  V30 20315 C 1863.39 -4.40829 -0.677207 0
M  V30 20316 C 1864.09 -5.7403 0.941511 0
M  V30 20317 N 1863.07 -5.42849 0.28564 0
M  V30 20318 H 1866.87 -2.87712 0.599924 0
M  V30 20319 H 1864.39 -1.56621 0.429367 0
M  V30 20320 H 1866.38 -3.81608 -1.67872 0
M  V30 20321 H 1865.04 -2.655 -1.86922 0
M  V30 20322 H 1866.05 -5.09938 0.904614 0
M  V30 20323 H 1862.73 -3.93401 -1.39794 0
M  V30 20324 H 1864.12 -6.49219 1.73103 0
M  V30 20325 N 1866.84 -0.344893 -1.5378 0
M  V30 20326 C 1868.09 0.252216 -2.00117 0
M  V30 20327 C 1868.4 1.51548 -1.23663 0
M  V30 20328 O 1869.61 2.18991 -1.60484 0
M  V30 20329 C 1868.06 0.499983 -3.5641 0
M  V30 20330 C 1867.67 -0.747455 -4.41721 0
M  V30 20331 C 1869.42 1.05588 -4.11159 0
M  V30 20332 C 1867.32 -0.470414 -5.89526 0
M  V30 20333 H 1866.25 0.0980234 -0.747601 0
M  V30 20334 H 1868.9 -0.460431 -1.7763 0
M  V30 20335 H 1867.29 1.27337 -3.74969 0
M  V30 20336 H 1868.46 -1.52204 -4.34937 0
M  V30 20337 H 1866.78 -1.22508 -3.97971 0
M  V30 20338 H 1869.37 1.27813 -5.19199 0
M  V30 20339 H 1869.72 2.01181 -3.64461 0
M  V30 20340 H 1870.25 0.343167 -3.96317 0
M  V30 20341 H 1866.99 -1.3961 -6.4046 0
M  V30 20342 H 1866.51 0.266065 -5.9921 0
M  V30 20343 H 1868.19 -0.0881607 -6.4694 0
M  V30 20344 N 1868.32 1.57428 -0.0735454 0
M  V30 20345 C 1869.54 1.98301 0.607591 0
M  V30 20346 C 1869.97 0.951686 1.62248 0
M  V30 20347 O 1869.33 -0.0825008 1.81112 0
M  V30 20348 C 1869.37 3.38201 1.2511 0
M  V30 20349 O 1868.48 3.37711 2.36696 0
M  V30 20350 H 1867.82 0.64539 0.156104 0
M  V30 20351 H 1870.35 2.0406 -0.148578 0
M  V30 20352 H 1870.36 3.75424 1.59753 0
M  V30 20353 H 1869.03 4.12793 0.50745 0
M  V30 20354 H 1867.61 3.1226 2.03833 0
M  V30 20355 N 1869.8 -0.200022 1.56326 0
M  V30 20356 C 1871.04 -0.922539 1.80602 0
M  V30 20357 C 1871.38 -1.83113 0.646781 0
M  V30 20358 O 1870.65 -1.91271 -0.352928 0
M  V30 20359 C 1870.93 -1.74301 3.15105 0
M  V30 20360 C 1870.79 -0.859471 4.41512 0
M  V30 20361 C 1872.11 -2.71658 3.46251 0
M  V30 20362 H 1869.22 -0.333949 0.656999 0
M  V30 20363 H 1871.87 -0.190177 1.89046 0
M  V30 20364 H 1870.02 -2.36739 3.08037 0
M  V30 20365 H 1871.69 -0.250183 4.60621 0
M  V30 20366 H 1869.93 -0.165935 4.33483 0
M  V30 20367 H 1870.6 -1.46842 5.3211 0
M  V30 20368 H 1873.08 -2.19353 3.53586 0
M  V30 20369 H 1871.95 -3.26152 4.41493 0
M  V30 20370 H 1872.22 -3.50462 2.69497 0
M  V30 20371 N 1871.27 -1.50505 -0.467553 0
M  V30 20372 C 1872.5 -1.65708 -1.24722 0
M  V30 20373 C 1872.92 -0.34155 -1.84973 0
M  V30 20374 O 1872.28 0.694993 -1.6745 0
M  V30 20375 C 1872.33 -2.75289 -2.32912 0
M  V30 20376 O 1871.43 -2.36788 -3.37646 0
M  V30 20377 H 1870.78 -0.55351 -0.366774 0
M  V30 20378 H 1873.31 -1.96901 -0.555988 0
M  V30 20379 H 1873.32 -2.98472 -2.7817 0
M  V30 20380 H 1871.99 -3.70765 -1.88431 0
M  V30 20381 H 1870.57 -2.24065 -2.98076 0
M  V30 20382 N 1872.75 0.720973 -1.40142 0
M  V30 20383 C 1873.98 1.51012 -1.41431 0
M  V30 20384 C 1874.4 1.88796 -0.0125516 0
M  V30 20385 O 1873.75 1.55073 0.962217 0
M  V30 20386 C 1873.8 2.78886 -2.3001 0
M  V30 20387 O 1873.52 2.42703 -3.64729 0
M  V30 20388 C 1875.03 3.7282 -2.39834 0
M  V30 20389 H 1872.25 0.466214 -0.482582 0
M  V30 20390 H 1874.79 0.889777 -1.84128 0
M  V30 20391 H 1872.94 3.37219 -1.90689 0
M  V30 20392 H 1873.36 3.24945 -4.11717 0
M  V30 20393 H 1874.83 4.594 -3.06032 0
M  V30 20394 H 1875.31 4.15552 -1.42173 0
M  V30 20395 H 1875.92 3.20402 -2.79684 0
M  V30 20396 N 1874.23 1.25549 0.952634 0
M  V30 20397 C 1875.51 1.01186 1.67394 0
M  V30 20398 C 1875.89 -0.461292 2.05998 0
M  V30 20399 O 1875.24 -1.43909 1.77489 0
M  V30 20400 C 1875.45 1.94954 2.89472 0
M  V30 20401 C 1876.79 2.22911 3.6138 0
M  V30 20402 O 1877.82 1.92728 2.99557 0
M  V30 20403 O 1876.68 2.74246 4.72706 0
M  V30 20404 H 1873.77 0.383874 0.732509 0
M  V30 20405 H 1876.32 1.36712 1.00538 0
M  V30 20406 H 1875.09 2.94416 2.5775 0
M  V30 20407 H 1874.71 1.59837 3.64058 0
M  V30 20408 N 1875.71 -1.15554 1.07168 0
M  V30 20409 C 1876.94 -1.90182 0.81477 0
M  V30 20410 C 1877.35 -1.77914 -0.631829 0
M  V30 20411 O 1876.71 -1.1298 -1.43324 0
M  V30 20412 C 1876.76 -3.40593 1.21155 0
M  V30 20413 O 1876.48 -3.52504 2.60139 0
M  V30 20414 C 1877.98 -4.32248 0.983675 0
M  V30 20415 H 1875.2 -0.602804 0.294735 0
M  V30 20416 H 1877.75 -1.46419 1.42764 0
M  V30 20417 H 1875.9 -3.82026 0.643041 0
M  V30 20418 H 1876.31 -4.45839 2.76275 0
M  V30 20419 H 1877.79 -5.3621 1.31084 0
M  V30 20420 H 1878.27 -4.39127 -0.0801022 0
M  V30 20421 H 1878.87 -3.96556 1.537 0
M  V30 20422 N 1877.19 -0.855519 -1.32358 0
M  V30 20423 C 1878.12 -0.245562 -2.26875 0
M  V30 20424 C 1879.1 0.616957 -1.50441 0
M  V30 20425 O 1880.28 0.573569 -1.79562 0
M  V30 20426 C 1877.41 0.653572 -3.32334 0
M  V30 20427 C 1876.46 -0.135677 -4.26284 0
M  V30 20428 S 1877.29 -1.50466 -5.13926 0
M  V30 20429 C 1878.44 -0.611261 -6.22908 0
M  V30 20430 H 1878.68 -1.0468 -2.78261 0
M  V30 20431 H 1876.21 -0.653201 -1.39902 0
M  V30 20432 H 1878.17 1.16668 -3.93572 0
M  V30 20433 H 1876.83 1.42863 -2.7973 0
M  V30 20434 H 1876.02 0.549189 -5.00999 0
M  V30 20435 H 1875.62 -0.580401 -3.69469 0
M  V30 20436 H 1877.92 0.184141 -6.7725 0
M  V30 20437 H 1878.86 -1.32908 -6.95515 0
M  V30 20438 H 1879.27 -0.185219 -5.64196 0
M  V30 20439 N 1878.67 1.45167 -0.61354 0
M  V30 20440 C 1879.89 2.07076 -0.115821 0
M  V30 20441 C 1880.32 1.45415 1.19315 0
M  V30 20442 O 1879.67 0.549046 1.72786 0
M  V30 20443 C 1879.72 3.606 0.00406239 0
M  V30 20444 O 1878.83 3.98737 1.05273 0
M  V30 20445 H 1878.17 0.659547 -0.0767679 0
M  V30 20446 H 1880.7 1.86325 -0.845236 0
M  V30 20447 H 1880.71 4.07508 0.200356 0
M  V30 20448 H 1879.38 4.04865 -0.951695 0
M  V30 20449 H 1877.96 3.6349 0.832424 0
M  V30 20450 N 1880.14 0.353044 1.53595 0
M  V30 20451 C 1881.42 -0.296304 1.93343 0
M  V30 20452 C 1881.8 -1.67448 1.28548 0
M  V30 20453 O 1881.15 -2.24226 0.4399 0
M  V30 20454 C 1881.36 -0.359079 3.47148 0
M  V30 20455 C 1882.71 -0.605406 4.20262 0
M  V30 20456 O 1883.73 -0.440805 3.53462 0
M  V30 20457 O 1882.59 -0.92496 5.38616 0
M  V30 20458 H 1879.68 -0.174879 0.808298 0
M  V30 20459 H 1882.23 0.404914 1.64798 0
M  V30 20460 H 1881 0.607684 3.86553 0
M  V30 20461 H 1880.62 -1.1067 3.81887 0
M  V30 20462 N 1881.62 -1.57387 0.0818932 0
M  V30 20463 C 1882.55 -2.16318 -0.879124 0
M  V30 20464 C 1883.53 -1.09293 -1.30342 0
M  V30 20465 O 1884.72 -1.37373 -1.37267 0
M  V30 20466 C 1881.85 -2.73293 -2.14308 0
M  V30 20467 C 1880.8 -3.85575 -1.85785 0
M  V30 20468 C 1880.13 -4.29195 -3.18897 0
M  V30 20469 C 1881.43 -5.09365 -1.15517 0
M  V30 20470 H 1883.12 -2.96873 -0.388166 0
M  V30 20471 H 1880.67 -1.42803 -0.185265 0
M  V30 20472 H 1882.62 -3.13168 -2.81964 0
M  V30 20473 H 1881.34 -1.89974 -2.65664 0
M  V30 20474 H 1880 -3.46219 -1.20532 0
M  V30 20475 H 1879.65 -3.42784 -3.68114 0
M  V30 20476 H 1879.35 -5.04889 -3.006 0
M  V30 20477 H 1880.88 -4.71694 -3.87734 0
M  V30 20478 H 1882.29 -5.46493 -1.73259 0
M  V30 20479 H 1880.69 -5.90403 -1.07444 0
M  V30 20480 H 1881.76 -4.8471 -0.135822 0
M  V30 20481 N 1883.1 0.191729 -1.56429 0
M  V30 20482 C 1884.33 0.927708 -1.84936 0
M  V30 20483 C 1884.74 1.76708 -0.664809 0
M  V30 20484 O 1884.1 1.78783 0.366436 0
M  V30 20485 C 1884.15 1.82113 -3.12277 0
M  V30 20486 O 1883.87 1.01564 -4.26165 0
M  V30 20487 C 1885.37 2.6685 -3.53986 0
M  V30 20488 H 1882.59 0.270514 -0.614055 0
M  V30 20489 H 1885.14 0.197968 -2.0354 0
M  V30 20490 H 1883.29 2.50445 -2.9556 0
M  V30 20491 H 1883.71 1.62478 -4.987 0
M  V30 20492 H 1885.18 3.25189 -4.46045 0
M  V30 20493 H 1885.66 3.40725 -2.77134 0
M  V30 20494 H 1886.26 2.03884 -3.73245 0
M  V30 20495 N 1884.58 1.50751 0.459565 0
M  V30 20496 C 1885.51 1.66621 1.57385 0
M  V30 20497 C 1886.52 0.547358 1.53323 0
M  V30 20498 O 1887.71 0.820941 1.58502 0
M  V30 20499 C 1884.81 1.64524 2.96285 0
M  V30 20500 C 1883.98 2.92631 3.25093 0
M  V30 20501 C 1883.04 2.83021 4.43605 0
M  V30 20502 O 1882.07 3.56977 4.43347 0
M  V30 20503 N 1883.27 1.97358 5.45921 0
M  V30 20504 H 1886.04 2.62738 1.44184 0
M  V30 20505 H 1883.6 1.48359 0.64817 0
M  V30 20506 H 1885.59 1.55693 3.73553 0
M  V30 20507 H 1884.16 0.760945 3.03197 0
M  V30 20508 H 1883.38 3.15502 2.36331 0
M  V30 20509 H 1884.67 3.77477 3.41157 0
M  V30 20510 H 1884.07 1.36608 5.48958 0
M  V30 20511 H 1882.62 1.94422 6.22128 0
M  V30 20512 N 1886.06 -0.713531 1.40522 0
M  V30 20513 C 1887.33 -1.46672 1.29409 0
M  V30 20514 C 1887.71 -2.10922 -0.0866293 0
M  V30 20515 O 1887.06 -2.00303 -1.09959 0
M  V30 20516 C 1887.27 -2.50076 2.4344 0
M  V30 20517 C 1888.62 -3.15848 2.8377 0
M  V30 20518 O 1889.64 -2.60396 2.43048 0
M  V30 20519 O 1888.5 -4.16238 3.5413 0
M  V30 20520 H 1885.6 -0.652333 0.508322 0
M  V30 20521 H 1888.14 -0.745531 1.52446 0
M  V30 20522 H 1886.91 -2.01129 3.35653 0
M  V30 20523 H 1886.54 -3.29728 2.22183 0
M  V30 20524 N 1887.53 -1.26053 -0.945962 0
M  V30 20525 C 1888.78 -1.11095 -1.68826 0
M  V30 20526 C 1889.1 0.347174 -1.91885 0
M  V30 20527 O 1888.37 1.24545 -1.51213 0
M  V30 20528 H 1886.95 -0.408128 -0.625652 0
M  V30 20529 H 1889.61 -1.58309 -1.13686 0
M  V30 20530 H 1888.71 -1.626 -2.66397 0
M  V30 20531 N 1889.01 1.14984 -1.07779 0
M  V30 20532 C 1889.96 2.19864 -0.702018 0
M  V30 20533 C 1890.93 1.63206 0.308695 0
M  V30 20534 O 1892.11 1.8981 0.194157 0
M  V30 20535 C 1889.25 3.44923 -0.110634 0
M  V30 20536 C 1888.37 4.1576 -1.17335 0
M  V30 20537 C 1887.5 5.28381 -0.546508 0
M  V30 20538 C 1886.54 5.91042 -1.59171 0
M  V30 20539 N 1885.68 6.95126 -0.987129 0
M  V30 20540 H 1890.52 2.51358 -1.60073 0
M  V30 20541 H 1888.05 1.2344 -0.80006 0
M  V30 20542 H 1890.01 4.16451 0.249903 0
M  V30 20543 H 1888.64 3.13932 0.751416 0
M  V30 20544 H 1887.69 3.42685 -1.6514 0
M  V30 20545 H 1889.01 4.58436 -1.96566 0
M  V30 20546 H 1888.16 6.06552 -0.133852 0
M  V30 20547 H 1886.9 4.8691 0.277527 0
M  V30 20548 H 1885.9 5.1158 -2.01409 0
M  V30 20549 H 1887.13 6.3459 -2.4181 0
M  V30 20550 H 1885.08 6.55742 -0.184076 0
M  V30 20551 H 1884.99 7.36253 -1.71662 0
M  V30 20552 H 1886.26 7.77186 -0.60012 0
M  V30 20553 N 1890.49 0.862526 1.31902 0
M  V30 20554 C 1891.44 0.301807 2.30634 0
M  V30 20555 C 1892.43 -0.579086 1.59195 0
M  V30 20556 O 1893.64 -0.466014 1.73863 0
M  V30 20557 H 1890.01 0.078905 0.747849 0
M  V30 20558 H 1891.98 1.1486 2.75408 0
M  V30 20559 C 1890.73 -0.48822 3.44255 0
M  V30 20560 H 1890.06 0.18033 3.99393 0
M  V30 20561 H 1891.5 -0.846013 4.15474 0
M  V30 20562 C 1889.95 -1.67656 2.92221 0
M  V30 20563 O 1890.48 -2.77577 2.90369 0
M  V30 20564 N 1888.69 -1.50622 2.48518 0
M  V30 20565 H 1888.24 -0.612021 2.50224 0
M  V30 20566 H 1888.2 -2.30275 2.14058 0
M  V30 20567 N 1891.97 -1.4484 0.62123 0
M  V30 20568 C 1893.2 -2.06201 0.128374 0
M  V30 20569 C 1893.61 -1.46421 -1.19822 0
M  V30 20570 O 1892.95 -0.577812 -1.74376 0
M  V30 20571 C 1893.01 -3.59429 -0.0712601 0
M  V30 20572 C 1892.68 -4.41619 1.17564 0
M  V30 20573 C 1893.67 -4.75732 2.09703 0
M  V30 20574 C 1891.36 -4.82154 1.40828 0
M  V30 20575 C 1893.35 -5.49251 3.23423 0
M  V30 20576 C 1891.04 -5.55424 2.54848 0
M  V30 20577 C 1892.04 -5.88891 3.45972 0
M  V30 20578 O 1891.72 -6.60671 4.58006 0
M  V30 20579 H 1891.46 -0.672121 0.0723128 0
M  V30 20580 H 1894.01 -1.86857 0.852847 0
M  V30 20581 H 1892.24 -3.77225 -0.850773 0
M  V30 20582 H 1893.93 -4.02589 -0.517423 0
M  V30 20583 H 1894.7 -4.44963 1.92959 0
M  V30 20584 H 1890.57 -4.55532 0.707942 0
M  V30 20585 H 1894.12 -5.7529 3.94572 0
M  V30 20586 H 1890.02 -5.85608 2.71538 0
M  V30 20587 H 1890.78 -6.79132 4.56861 0
M  V30 20588 N 1893.45 -0.361184 -1.53405 0
M  V30 20589 C 1894.72 0.286047 -1.93497 0
M  V30 20590 C 1895.1 1.66764 -1.29434 0
M  V30 20591 O 1894.45 2.23989 -0.451785 0
M  V30 20592 C 1894.66 0.340663 -3.47333 0
M  V30 20593 C 1896.01 0.58311 -4.20577 0
M  V30 20594 O 1897.03 0.422054 -3.53691 0
M  V30 20595 O 1895.89 0.896383 -5.39099 0
M  V30 20596 H 1892.99 0.17059 -0.809215 0
M  V30 20597 H 1895.53 -0.413648 -1.64581 0
M  V30 20598 H 1894.3 -0.628175 -3.86225 0
M  V30 20599 H 1893.93 1.08643 -3.82469 0
M  V30 20600 N 1894.92 1.57341 -0.0902386 0
M  V30 20601 C 1896.17 1.94176 0.574609 0
M  V30 20602 C 1896.5 0.971636 1.68492 0
M  V30 20603 O 1895.75 -0.00961728 1.95698 0
M  V30 20604 C 1896.05 3.37566 1.17404 0
M  V30 20605 C 1895.72 4.50508 0.188019 0
M  V30 20606 C 1894.38 4.81128 -0.0831922 0
M  V30 20607 C 1896.73 5.18934 -0.485519 0
M  V30 20608 C 1894.06 5.77504 -1.03472 0
M  V30 20609 C 1896.41 6.1633 -1.42548 0
M  V30 20610 C 1895.08 6.45358 -1.70498 0
M  V30 20611 H 1894.35 0.710542 0.210264 0
M  V30 20612 H 1896.99 1.90788 -0.165039 0
M  V30 20613 H 1895.3 3.3751 1.98984 0
M  V30 20614 H 1897 3.63365 1.69607 0
M  V30 20615 H 1893.59 4.26638 0.40959 0
M  V30 20616 H 1897.77 4.95457 -0.289126 0
M  V30 20617 H 1893.03 5.98311 -1.25831 0
M  V30 20618 H 1897.2 6.68447 -1.95323 0
M  V30 20619 H 1894.83 7.19846 -2.44387 0
M  V30 20620 N 1896.4 -0.183431 1.56529 0
M  V30 20621 C 1897.34 -1.25565 1.90548 0
M  V30 20622 C 1898.31 -1.4338 0.766876 0
M  V30 20623 O 1899.5 -1.58582 1.01902 0
M  V30 20624 C 1896.62 -2.62051 2.14586 0
M  V30 20625 C 1895.67 -2.61041 3.37283 0
M  V30 20626 S 1896.5 -2.11319 4.92041 0
M  V30 20627 C 1897.66 -3.49606 5.1916 0
M  V30 20628 H 1897.89 -0.96522 2.81195 0
M  V30 20629 H 1895.43 -0.387456 1.49459 0
M  V30 20630 H 1897.38 -3.40611 2.29116 0
M  V30 20631 H 1896.04 -2.883 1.24668 0
M  V30 20632 H 1895.24 -3.61426 3.51265 0
M  V30 20633 H 1894.84 -1.90569 3.21806 0
M  V30 20634 H 1897.13 -4.45537 5.10395 0
M  V30 20635 H 1898.07 -3.40509 6.20854 0
M  V30 20636 H 1898.48 -3.45057 4.46761 0
M  V30 20637 N 1897.88 -1.50992 -0.451564 0
M  V30 20638 C 1899.13 -1.62955 -1.20216 0
M  V30 20639 C 1899.46 -0.33902 -1.91523 0
M  V30 20640 O 1898.71 0.676199 -1.83647 0
M  V30 20641 C 1899.01 -2.7732 -2.25452 0
M  V30 20642 C 1898.68 -4.1711 -1.71259 0
M  V30 20643 C 1897.34 -4.55142 -1.56202 0
M  V30 20644 C 1899.69 -5.04399 -1.31268 0
M  V30 20645 C 1897.02 -5.78183 -0.996051 0
M  V30 20646 C 1899.37 -6.28005 -0.761055 0
M  V30 20647 C 1898.03 -6.64823 -0.597267 0
M  V30 20648 H 1897.3 -0.596295 -0.439901 0
M  V30 20649 H 1899.95 -1.84985 -0.495266 0
M  V30 20650 H 1898.26 -2.49455 -3.02125 0
M  V30 20651 H 1899.95 -2.83777 -2.83323 0
M  V30 20652 H 1896.54 -3.87117 -1.83952 0
M  V30 20653 H 1900.73 -4.75633 -1.41727 0
M  V30 20654 H 1895.98 -6.05367 -0.856787 0
M  V30 20655 H 1900.16 -6.94992 -0.442598 0
M  V30 20656 H 1897.78 -7.60039 -0.156575 0
M  V30 20657 N 1899.36 0.706069 -1.40899 0
M  V30 20658 C 1900.29 1.83119 -1.37841 0
M  V30 20659 C 1901.3 1.60335 -0.282253 0
M  V30 20660 O 1902.49 1.70032 -0.543263 0
M  V30 20661 C 1899.59 3.19696 -1.12461 0
M  V30 20662 C 1898.77 3.69598 -2.33915 0
M  V30 20663 C 1897.82 4.84815 -2.04551 0
M  V30 20664 O 1896.85 4.96973 -2.775 0
M  V30 20665 N 1898.05 5.71302 -1.0293 0
M  V30 20666 H 1900.82 1.86237 -2.34811 0
M  V30 20667 H 1898.38 0.887984 -1.35375 0
M  V30 20668 H 1900.37 3.94386 -0.90786 0
M  V30 20669 H 1898.94 3.11668 -0.241258 0
M  V30 20670 H 1898.16 2.85933 -2.7136 0
M  V30 20671 H 1899.45 3.99674 -3.14862 0
M  V30 20672 H 1898.85 5.64099 -0.425314 0
M  V30 20673 H 1897.4 6.45935 -0.872446 0
M  V30 20674 N 1900.84 1.26553 0.939264 0
M  V30 20675 C 1902.25 1.11093 1.50051 0
M  V30 20676 C 1902.6 -0.308105 1.93766 0
M  V30 20677 O 1901.72 -1.19981 1.80093 0
M  V30 20678 C 1902.32 2.01053 2.72696 0
M  V30 20679 C 1900.88 1.89734 3.25082 0
M  V30 20680 C 1900.02 1.94291 1.97854 0
M  V30 20681 H 1902.98 1.39614 0.754553 0
M  V30 20682 H 1903 1.55955 3.47071 0
M  V30 20683 H 1902.51 3.04325 2.40848 0
M  V30 20684 H 1900.61 0.894042 3.61715 0
M  V30 20685 H 1900.72 2.75368 3.92058 0
M  V30 20686 H 1899.09 1.38367 2.13838 0
M  V30 20687 H 1899.87 2.99196 1.68335 0
M  V30 20688 N 1902.31 -1.14411 1.08387 0
M  V30 20689 C 1903.24 -2.21619 0.735327 0
M  V30 20690 C 1904.23 -1.67744 -0.282132 0
M  V30 20691 O 1905.41 -1.936 -0.152547 0
M  V30 20692 C 1902.54 -3.47003 0.143628 0
M  V30 20693 C 1901.49 -4.13903 1.08941 0
M  V30 20694 C 1900.82 -5.33487 0.359941 0
M  V30 20695 C 1902.12 -4.62463 2.42746 0
M  V30 20696 H 1903.81 -2.51031 1.63168 0
M  V30 20697 H 1901.36 -1.20658 0.785981 0
M  V30 20698 H 1903.31 -4.21251 -0.112217 0
M  V30 20699 H 1902.04 -3.16955 -0.787856 0
M  V30 20700 H 1900.7 -3.4161 1.33035 0
M  V30 20701 H 1900.34 -4.99699 -0.57534 0
M  V30 20702 H 1900.04 -5.79192 0.990451 0
M  V30 20703 H 1901.57 -6.10497 0.112145 0
M  V30 20704 H 1902.98 -5.28185 2.22919 0
M  V30 20705 H 1901.38 -5.18869 3.01488 0
M  V30 20706 H 1902.45 -3.77542 3.04286 0
M  V30 20707 N 1903.79 -0.869509 -1.31443 0
M  V30 20708 C 1904.73 -0.269612 -2.26602 0
M  V30 20709 C 1905.7 0.600966 -1.51087 0
M  V30 20710 O 1906.89 0.554491 -1.8016 0
M  V30 20711 C 1904.01 0.618287 -3.33009 0
M  V30 20712 C 1903.06 -0.180883 -4.26116 0
M  V30 20713 S 1903.89 -1.55908 -5.12302 0
M  V30 20714 C 1905.05 -0.677295 -6.22225 0
M  V30 20715 H 1905.28 -1.07626 -2.77135 0
M  V30 20716 H 1902.82 -0.668003 -1.39202 0
M  V30 20717 H 1904.77 1.12488 -3.94787 0
M  V30 20718 H 1903.43 1.39888 -2.8123 0
M  V30 20719 H 1902.63 0.496021 -5.01553 0
M  V30 20720 H 1902.23 -0.619555 -3.68833 0
M  V30 20721 H 1904.52 0.1123 -6.77407 0
M  V30 20722 H 1905.46 -1.40278 -6.94066 0
M  V30 20723 H 1905.87 -0.245049 -5.63968 0
M  V30 20724 N 1905.27 1.44508 -0.628902 0
M  V30 20725 C 1906.2 2.33412 0.0642512 0
M  V30 20726 C 1907.18 1.48077 0.837091 0
M  V30 20727 O 1908.37 1.76802 0.803415 0
M  V30 20728 C 1905.5 3.31112 1.04795 0
M  V30 20729 C 1904.45 4.26248 0.386897 0
M  V30 20730 C 1903.78 5.13799 1.48035 0
M  V30 20731 C 1905.08 5.17514 -0.705449 0
M  V30 20732 H 1906.77 2.91619 -0.678133 0
M  V30 20733 H 1904.32 1.40225 -0.327558 0
M  V30 20734 H 1906.27 3.9219 1.54159 0
M  V30 20735 H 1904.99 2.71109 1.8212 0
M  V30 20736 H 1903.65 3.66499 -0.0860697 0
M  V30 20737 H 1903.3 4.5015 2.24441 0
M  V30 20738 H 1903 5.78262 1.04342 0
M  V30 20739 H 1904.52 5.77748 1.97583 0
M  V30 20740 H 1905.94 5.7254 -0.295004 0
M  V30 20741 H 1904.34 5.90567 -1.06538 0
M  V30 20742 H 1905.41 4.5866 -1.57349 0
M  V30 20743 N 1906.75 0.369315 1.53212 0
M  V30 20744 C 1907.98 -0.219539 2.0543 0
M  V30 20745 C 1908.39 -1.42698 1.24233 0
M  V30 20746 O 1907.73 -1.81601 0.276938 0
M  V30 20747 C 1907.79 -0.673523 3.53134 0
M  V30 20748 C 1907.46 0.417737 4.55087 0
M  V30 20749 C 1908.45 1.2688 5.0418 0
M  V30 20750 C 1906.14 0.579049 4.98951 0
M  V30 20751 C 1908.13 2.26648 5.95743 0
M  V30 20752 C 1905.82 1.58009 5.90319 0
M  V30 20753 C 1906.82 2.42224 6.38605 0
M  V30 20754 O 1906.51 3.4062 7.28171 0
M  V30 20755 H 1906.24 -0.0415233 0.674724 0
M  V30 20756 H 1908.79 0.527123 1.98521 0
M  V30 20757 H 1907.02 -1.47185 3.57594 0
M  V30 20758 H 1908.71 -1.1858 3.88193 0
M  V30 20759 H 1909.48 1.15538 4.71037 0
M  V30 20760 H 1905.36 -0.0666753 4.60952 0
M  V30 20761 H 1908.9 2.92416 6.33355 0
M  V30 20762 H 1904.8 1.69397 6.22876 0
M  V30 20763 H 1905.56 3.36393 7.46178 0
M  V30 20764 N 1908.23 -1.57291 0.0985816 0
M  V30 20765 C 1909.19 -2.1307 -0.844628 0
M  V30 20766 C 1910.19 -1.06076 -1.20849 0
M  V30 20767 O 1911.38 -1.31947 -1.13735 0
M  V30 20768 C 1908.51 -2.65416 -2.13933 0
M  V30 20769 H 1909.71 -2.97729 -0.36023 0
M  V30 20770 H 1907.26 -1.55574 -0.150451 0
M  V30 20771 H 1907.99 -1.84287 -2.6685 0
M  V30 20772 H 1907.78 -3.43647 -1.88811 0
M  V30 20773 H 1909.27 -3.08551 -2.814 0
M  V30 20774 N 1909.71 0.175127 -1.56624 0
M  V30 20775 C 1910.64 1.24137 -1.92672 0
M  V30 20776 C 1911.65 1.40675 -0.819417 0
M  V30 20777 O 1912.84 1.40746 -1.09786 0
M  V30 20778 C 1909.94 2.61063 -2.161 0
M  V30 20779 C 1909.11 2.65874 -3.47318 0
M  V30 20780 C 1908.17 3.84136 -3.59619 0
M  V30 20781 O 1907.2 3.70311 -4.32271 0
M  V30 20782 N 1908.4 5.00435 -2.94186 0
M  V30 20783 H 1911.16 0.935217 -2.84735 0
M  V30 20784 H 1908.73 0.364919 -1.57734 0
M  V30 20785 H 1910.72 3.38639 -2.21597 0
M  V30 20786 H 1909.29 2.84085 -1.3044 0
M  V30 20787 H 1908.51 1.74422 -3.53512 0
M  V30 20788 H 1909.8 2.66096 -4.33671 0
M  V30 20789 H 1909.19 5.14568 -2.35024 0
M  V30 20790 H 1907.75 5.75886 -3.05284 0
M  V30 20791 N 1911.18 1.5123 0.44355 0
M  V30 20792 C 1912.41 1.67389 1.21609 0
M  V30 20793 C 1912.83 0.368612 1.85167 0
M  V30 20794 O 1912.18 -0.652282 1.70445 0
M  V30 20795 C 1912.23 2.78507 2.30469 0
M  V30 20796 O 1911.96 4.03977 1.69512 0
M  V30 20797 C 1913.46 3.05881 3.20861 0
M  V30 20798 H 1910.68 0.561893 0.366766 0
M  V30 20799 H 1913.22 1.97611 0.526312 0
M  V30 20800 H 1911.38 2.50901 2.95173 0
M  V30 20801 H 1911.79 4.65641 2.41409 0
M  V30 20802 H 1913.26 3.87229 3.93393 0
M  V30 20803 H 1913.74 2.1804 3.81255 0
M  V30 20804 H 1914.35 3.35123 2.61864 0
M  V30 20805 N 1912.66 -0.698586 1.41271 0
M  V30 20806 C 1913.91 -1.45944 1.41675 0
M  V30 20807 C 1914.26 -1.92385 0.0241608 0
M  V30 20808 O 1913.56 -1.66422 -0.949431 0
M  V30 20809 C 1913.75 -2.688 2.35545 0
M  V30 20810 C 1913.58 -2.34377 3.83794 0
M  V30 20811 C 1912.35 -2.24888 4.52497 0
M  V30 20812 C 1914.55 -1.97545 4.74848 0
M  V30 20813 N 1912.53 -1.83318 5.8589 0
M  V30 20814 C 1913.9 -1.66711 5.97166 0
M  V30 20815 C 1915.95 -1.84329 4.62523 0
M  V30 20816 C 1914.66 -1.23988 7.08533 0
M  V30 20817 C 1916.68 -1.43011 5.73848 0
M  V30 20818 C 1916.05 -1.13085 6.95263 0
M  V30 20819 H 1912.14 -0.531459 0.573651 0
M  V30 20820 H 1914.73 -0.808529 1.77118 0
M  V30 20821 H 1912.9 -3.31615 2.02202 0
M  V30 20822 H 1914.63 -3.35252 2.2669 0
M  V30 20823 H 1911.39 -2.43185 4.06396 0
M  V30 20824 H 1911.81 -1.65024 6.56579 0
M  V30 20825 H 1916.45 -2.0612 3.69153 0
M  V30 20826 H 1914.17 -1.00941 8.01771 0
M  V30 20827 H 1917.76 -1.33339 5.66314 0
M  V30 20828 H 1916.64 -0.815958 7.79943 0
M  V30 20829 N 1914.14 -1.27049 -0.93254 0
M  V30 20830 C 1915.37 -1.15903 -1.71389 0
M  V30 20831 C 1915.78 0.284726 -1.86641 0
M  V30 20832 O 1915.14 1.19428 -1.37997 0
M  V30 20833 C 1915.19 -1.83254 -3.11609 0
M  V30 20834 O 1914.91 -3.21988 -2.97078 0
M  V30 20835 C 1916.41 -1.78172 -4.05918 0
M  V30 20836 H 1913.63 -0.403197 -0.536352 0
M  V30 20837 H 1916.18 -1.67831 -1.16846 0
M  V30 20838 H 1914.33 -1.35243 -3.63026 0
M  V30 20839 H 1914.75 -3.55447 -3.85691 0
M  V30 20840 H 1916.22 -2.29919 -5.01838 0
M  V30 20841 H 1916.7 -0.750036 -4.32748 0
M  V30 20842 H 1917.3 -2.25774 -3.60425 0
M  V30 20843 N 1915.62 1.13835 -1.08993 0
M  V30 20844 C 1916.84 1.89402 -0.845071 0
M  V30 20845 C 1917.27 1.78353 0.597641 0
M  V30 20846 O 1916.63 1.12793 1.41942 0
M  V30 20847 C 1916.67 3.37144 -1.27931 0
M  V30 20848 O 1915.78 4.101 -0.434975 0
M  V30 20849 H 1915.12 0.589066 -0.306427 0
M  V30 20850 H 1917.65 1.44055 -1.45291 0
M  V30 20851 H 1917.66 3.87967 -1.26277 0
M  V30 20852 H 1916.33 3.44504 -2.33002 0
M  V30 20853 H 1914.91 3.6932 -0.515447 0
M  V30 20854 N 1917.1 0.876467 1.3098 0
M  V30 20855 C 1918.01 0.340667 2.32113 0
M  V30 20856 C 1919.02 -0.552749 1.64987 0
M  V30 20857 O 1920.2 -0.447909 1.96356 0
M  V30 20858 C 1917.26 -0.443504 3.43852 0
M  V30 20859 C 1916.32 0.478646 4.26623 0
M  V30 20860 C 1915.56 -0.268194 5.33026 0
M  V30 20861 O 1915.78 -1.49543 5.50448 0
M  V30 20862 O 1914.71 0.377306 6.00716 0
M  V30 20863 H 1918.54 1.1791 2.79877 0
M  V30 20864 H 1916.12 0.640037 1.34996 0
M  V30 20865 H 1918.01 -0.887816 4.11941 0
M  V30 20866 H 1916.68 -1.25838 2.98239 0
M  V30 20867 H 1915.59 0.971593 3.61263 0
M  V30 20868 H 1916.92 1.25929 4.75818 0
M  V30 20869 N 1918.57 -1.44173 0.636557 0
M  V30 20870 C 1919.5 -2.33442 -0.0518719 0
M  V30 20871 C 1920.48 -1.48519 -0.829226 0
M  V30 20872 O 1921.67 -1.77225 -0.794028 0
M  V30 20873 C 1918.8 -3.31663 -1.03038 0
M  V30 20874 C 1917.75 -4.26447 -0.364286 0
M  V30 20875 C 1917.08 -5.14577 -1.45308 0
M  V30 20876 C 1918.38 -5.17133 0.732884 0
M  V30 20877 H 1920.07 -2.91255 0.693589 0
M  V30 20878 H 1917.62 -1.40049 0.33499 0
M  V30 20879 H 1919.57 -3.93002 -1.52077 0
M  V30 20880 H 1918.3 -2.72071 -1.80679 0
M  V30 20881 H 1916.96 -3.66448 0.105505 0
M  V30 20882 H 1916.6 -4.51334 -2.22051 0
M  V30 20883 H 1916.3 -5.78807 -1.01274 0
M  V30 20884 H 1917.83 -5.78788 -1.94517 0
M  V30 20885 H 1919.24 -5.72376 0.325363 0
M  V30 20886 H 1917.64 -5.89994 1.09669 0
M  V30 20887 H 1918.71 -4.5782 1.59779 0
M  V30 20888 N 1920.05 -0.377435 -1.53014 0
M  V30 20889 C 1921.3 0.208838 -2.01722 0
M  V30 20890 C 1921.63 1.47446 -1.26385 0
M  V30 20891 O 1920.91 1.91122 -0.360903 0
M  V30 20892 C 1921.19 0.4888 -3.56767 0
M  V30 20893 C 1921.04 -0.791285 -4.42785 0
M  V30 20894 C 1922.36 1.28443 -4.2094 0
M  V30 20895 H 1919.48 0.0744281 -0.733232 0
M  V30 20896 H 1922.12 -0.504664 -1.83175 0
M  V30 20897 H 1920.27 1.09662 -3.72702 0
M  V30 20898 H 1921.94 -1.42848 -4.38625 0
M  V30 20899 H 1920.19 -1.40914 -4.10275 0
M  V30 20900 H 1920.86 -0.550199 -5.49251 0
M  V30 20901 H 1923.33 0.770147 -4.08911 0
M  V30 20902 H 1922.21 1.44906 -5.29427 0
M  V30 20903 H 1922.47 2.29631 -3.77786 0
M  V30 20904 N 1921.53 1.57237 -0.106922 0
M  V30 20905 C 1922.46 2.11718 0.877968 0
M  V30 20906 C 1923.48 1.0571 1.23812 0
M  V30 20907 O 1924.66 1.3312 1.18917 0
M  V30 20908 C 1921.76 2.59182 2.18352 0
M  V30 20909 C 1920.94 3.89156 1.99691 0
M  V30 20910 C 1920 4.22344 3.13866 0
M  V30 20911 O 1919.02 4.91367 2.87309 0
M  V30 20912 N 1920.22 3.78694 4.39967 0
M  V30 20913 H 1922.99 2.96846 0.412584 0
M  V30 20914 H 1920.55 1.61713 0.0778505 0
M  V30 20915 H 1922.54 2.78423 2.93706 0
M  V30 20916 H 1921.11 1.78999 2.56277 0
M  V30 20917 H 1920.33 3.78945 1.086 0
M  V30 20918 H 1921.62 4.74165 1.84514 0
M  V30 20919 H 1921.02 3.23 4.64422 0
M  V30 20920 H 1919.58 4.03067 5.12231 0
M  V30 20921 N 1923.01 -0.166818 1.56715 0
M  V30 20922 C 1924.42 -0.518754 1.50934 0
M  V30 20923 C 1924.62 -1.84416 0.811964 0
M  V30 20924 O 1923.68 -2.49712 0.374207 0
M  V30 20925 C 1924.99 -0.547356 2.95676 0
M  V30 20926 C 1926.54 -0.634247 3.06507 0
M  V30 20927 C 1927.02 -0.693699 4.52716 0
M  V30 20928 N 1928.51 -0.756466 4.56981 0
M  V30 20929 C 1929.24 -0.823116 5.67461 0
M  V30 20930 N 1928.74 -0.850325 6.87562 0
M  V30 20931 N 1930.53 -0.862482 5.55444 0
M  V30 20932 H 1922.68 0.70222 2.00456 0
M  V30 20933 H 1924.95 0.253731 0.913414 0
M  V30 20934 H 1924.65 0.357945 3.49874 0
M  V30 20935 H 1924.53 -1.39227 3.50565 0
M  V30 20936 H 1926.91 -1.52997 2.52341 0
M  V30 20937 H 1926.99 0.23743 2.54696 0
M  V30 20938 H 1926.64 0.197788 5.07515 0
M  V30 20939 H 1926.57 -1.58158 5.02288 0
M  V30 20940 H 1929.06 -0.74354 3.70513 0
M  V30 20941 H 1929.37 -0.902481 7.67512 0
M  V30 20942 H 1927.72 -0.818528 6.90163 0
M  V30 20943 H 1930.91 -0.838257 4.60533 0
M  V30 20944 H 1931.08 -0.910962 6.41565 0
M  V30 20945 N 1924.49 -1.51463 -0.435524 0
M  V30 20946 C 1925.76 -1.54763 -1.19615 0
M  V30 20947 C 1926.14 -0.312969 -2.08767 0
M  V30 20948 O 1925.49 0.701834 -2.17455 0
M  V30 20949 C 1925.7 -2.86259 -1.99642 0
M  V30 20950 C 1927.05 -3.38276 -2.56621 0
M  V30 20951 O 1928.07 -2.87821 -2.09851 0
M  V30 20952 O 1926.93 -4.26318 -3.41929 0
M  V30 20953 H 1924.03 -0.622293 -0.544684 0
M  V30 20954 H 1926.57 -1.63777 -0.444446 0
M  V30 20955 H 1925.34 -3.67578 -1.34173 0
M  V30 20956 H 1924.97 -2.80416 -2.81874 0
M  V30 20957 N 1925.96 0.691085 -1.4164 0
M  V30 20958 C 1927.19 1.47978 -1.44603 0
M  V30 20959 C 1927.61 1.88727 -0.0525951 0
M  V30 20960 O 1926.96 1.57079 0.929107 0
M  V30 20961 C 1927.02 2.73945 -2.35874 0
M  V30 20962 O 1926.74 2.34912 -3.69795 0
M  V30 20963 C 1928.24 3.67649 -2.47688 0
M  V30 20964 H 1925.46 0.455873 -0.492363 0
M  V30 20965 H 1928 0.850521 -1.85974 0
M  V30 20966 H 1926.16 3.33098 -1.97799 0
M  V30 20967 H 1926.57 3.16139 -4.18517 0
M  V30 20968 H 1928.04 4.52806 -3.15707 0
M  V30 20969 H 1928.52 4.12443 -1.50956 0
M  V30 20970 H 1929.13 3.14397 -2.86417 0
M  V30 20971 N 1927.44 1.27542 0.925789 0
M  V30 20972 C 1928.86 1.04988 1.20207 0
M  V30 20973 C 1929.06 -0.215359 2.00346 0
M  V30 20974 O 1928.11 -0.920331 2.3513 0
M  V30 20975 C 1929.43 2.2904 1.94836 0
M  V30 20976 C 1930.98 2.34098 2.07767 0
M  V30 20977 C 1931.45 3.57884 2.85802 0
M  V30 20978 N 1932.94 3.58453 2.93369 0
M  V30 20979 C 1933.68 4.50907 3.54218 0
M  V30 20980 N 1933.17 5.53667 4.16443 0
M  V30 20981 N 1934.97 4.38527 3.5164 0
M  V30 20982 H 1927.12 2.0878 0.390449 0
M  V30 20983 H 1929.38 0.918323 0.235346 0
M  V30 20984 H 1929.09 3.21151 1.4337 0
M  V30 20985 H 1928.96 2.34507 2.95442 0
M  V30 20986 H 1931.35 1.42492 2.58418 0
M  V30 20987 H 1931.43 2.32633 1.06375 0
M  V30 20988 H 1931.07 4.49828 2.35834 0
M  V30 20989 H 1931 3.56601 3.87484 0
M  V30 20990 H 1933.49 2.84138 2.49147 0
M  V30 20991 H 1933.81 6.20377 4.60817 0
M  V30 20992 H 1932.15 5.57507 4.14983 0
M  V30 20993 H 1935.34 3.57455 3.0223 0
M  V30 20994 H 1935.51 5.10769 3.98772 0
M  V30 20995 N 1928.92 -1.13255 1.09595 0
M  V30 20996 C 1929.85 -2.20827 0.758791 0
M  V30 20997 C 1930.83 -1.68034 -0.264325 0
M  V30 20998 O 1932.02 -1.93751 -0.132005 0
M  V30 20999 C 1929.15 -3.46831 0.180424 0
M  V30 21000 C 1928.1 -4.12724 1.13325 0
M  V30 21001 C 1927.43 -5.33075 0.416504 0
M  V30 21002 C 1928.73 -4.59862 2.47637 0
M  V30 21003 H 1930.42 -2.49287 1.65821 0
M  V30 21004 H 1927.97 -1.19818 0.798734 0
M  V30 21005 H 1929.92 -4.21346 -0.0675313 0
M  V30 21006 H 1928.64 -3.17773 -0.754194 0
M  V30 21007 H 1927.3 -3.40179 1.36651 0
M  V30 21008 H 1926.95 -5.00281 -0.522308 0
M  V30 21009 H 1926.65 -5.78109 1.05183 0
M  V30 21010 H 1928.17 -6.10344 0.17689 0
M  V30 21011 H 1929.59 -5.25791 2.28509 0
M  V30 21012 H 1927.99 -5.15642 3.06974 0
M  V30 21013 H 1929.06 -3.74294 3.08273 0
M  V30 21014 N 1930.4 -0.883401 -1.30514 0
M  V30 21015 C 1931.81 -0.577183 -1.48798 0
M  V30 21016 C 1932.01 0.885462 -1.81002 0
M  V30 21017 O 1931.07 1.66679 -1.89669 0
M  V30 21018 C 1932.38 -1.48898 -2.61247 0
M  V30 21019 C 1933.93 -1.49244 -2.75128 0
M  V30 21020 C 1934.41 -2.39012 -3.90688 0
M  V30 21021 N 1935.9 -2.36967 -3.97996 0
M  V30 21022 C 1936.63 -3.03138 -4.86718 0
M  V30 21023 N 1936.13 -3.78529 -5.80248 0
M  V30 21024 N 1937.92 -2.92378 -4.80074 0
M  V30 21025 H 1930.07 -1.82963 -1.07882 0
M  V30 21026 H 1932.34 -0.783078 -0.534315 0
M  V30 21027 H 1932.04 -2.53035 -2.44266 0
M  V30 21028 H 1931.92 -1.19739 -3.5769 0
M  V30 21029 H 1934.3 -0.458579 -2.91515 0
M  V30 21030 H 1934.38 -1.82432 -1.7931 0
M  V30 21031 H 1934.03 -3.42482 -3.75058 0
M  V30 21032 H 1933.96 -2.03141 -4.85841 0
M  V30 21033 H 1936.45 -1.82179 -3.31088 0
M  V30 21034 H 1936.76 -4.26115 -6.44706 0
M  V30 21035 H 1935.11 -3.82636 -5.80185 0
M  V30 21036 H 1938.3 -2.33008 -4.05986 0
M  V30 21037 H 1938.47 -3.44225 -5.49011 0
M  V30 21038 N 1931.88 1.43833 -0.644194 0
M  V30 21039 C 1933.15 1.95418 -0.0842511 0
M  V30 21040 C 1933.53 1.58579 1.39341 0
M  V30 21041 O 1932.88 0.866369 2.11439 0
M  V30 21042 C 1933.09 3.47521 -0.320928 0
M  V30 21043 C 1934.44 4.24024 -0.221059 0
M  V30 21044 O 1935.46 3.553 -0.252997 0
M  V30 21045 O 1934.32 5.46328 -0.137083 0
M  V30 21046 H 1931.42 0.826867 0.0148137 0
M  V30 21047 H 1933.96 1.53818 -0.716805 0
M  V30 21048 H 1932.73 3.67431 -1.34575 0
M  V30 21049 H 1932.36 3.96099 0.345133 0
M  V30 21050 N 1933.35 0.385544 1.52811 0
M  V30 21051 C 1934.58 -0.200568 2.06428 0
M  V30 21052 C 1935 -1.40049 1.2557 0
M  V30 21053 O 1934.36 -1.79128 0.279782 0
M  V30 21054 C 1934.41 -0.552623 3.5634 0
M  V30 21055 O 1933.51 -1.64711 3.7808 0
M  V30 21056 H 1932.86 -0.0244676 0.663549 0
M  V30 21057 H 1935.39 0.551927 1.97015 0
M  V30 21058 H 1935.4 -0.817996 3.99716 0
M  V30 21059 H 1934.07 0.324665 4.14631 0
M  V30 21060 H 1932.65 -1.37574 3.46595 0
M  V30 21061 N 1934.83 -1.57178 0.115259 0
M  V30 21062 C 1936.06 -1.99415 -0.55147 0
M  V30 21063 C 1936.48 -0.994862 -1.60462 0
M  V30 21064 O 1935.83 0.0127831 -1.82496 0
M  V30 21065 C 1935.88 -3.41665 -1.18099 0
M  V30 21066 O 1935.6 -4.3777 -0.169944 0
M  V30 21067 C 1937.11 -3.99014 -1.9314 0
M  V30 21068 H 1934.33 -0.654856 -0.146302 0
M  V30 21069 H 1936.87 -2.03515 0.200495 0
M  V30 21070 H 1935.02 -3.38516 -1.88376 0
M  V30 21071 H 1935.44 -5.20741 -0.626853 0
M  V30 21072 H 1936.91 -5.00639 -2.32519 0
M  V30 21073 H 1937.39 -3.37947 -2.80515 0
M  V30 21074 H 1938 -4.05697 -1.27634 0
M  V30 21075 N 1936.31 0.158505 -1.56801 0
M  V30 21076 C 1937.56 0.873038 -1.82714 0
M  V30 21077 C 1937.89 1.81683 -0.694361 0
M  V30 21078 O 1937.14 1.93108 0.31748 0
M  V30 21079 C 1937.44 1.69067 -3.14883 0
M  V30 21080 C 1937.11 0.894671 -4.41935 0
M  V30 21081 C 1935.77 0.675029 -4.76442 0
M  V30 21082 C 1938.12 0.337213 -5.20108 0
M  V30 21083 C 1935.45 -0.112965 -5.86591 0
M  V30 21084 C 1937.8 -0.43776 -6.31084 0
M  V30 21085 C 1936.46 -0.668085 -6.64148 0
M  V30 21086 H 1935.73 0.319467 -0.668597 0
M  V30 21087 H 1938.38 0.137273 -1.91007 0
M  V30 21088 H 1936.69 2.4962 -3.01988 0
M  V30 21089 H 1938.38 2.24679 -3.32145 0
M  V30 21090 H 1934.97 1.07592 -4.14876 0
M  V30 21091 H 1939.16 0.494212 -4.93833 0
M  V30 21092 H 1934.41 -0.301026 -6.10658 0
M  V30 21093 H 1938.59 -0.876909 -6.90857 0
M  V30 21094 H 1936.21 -1.28055 -7.49337 0
M  V30 21095 N 1937.79 1.51692 0.427485 0
M  V30 21096 C 1938.74 1.70099 1.51823 0
M  V30 21097 C 1939.72 0.554908 1.51028 0
M  V30 21098 O 1940.92 0.811233 1.57315 0
M  V30 21099 C 1938.04 1.8384 2.89927 0
M  V30 21100 C 1937.13 3.04263 2.9544 0
M  V30 21101 N 1937.52 4.27277 2.7068 0
M  V30 21102 C 1935.82 3.0372 3.26604 0
M  V30 21103 C 1936.52 5.08613 2.8229 0
M  V30 21104 N 1935.5 4.43468 3.14384 0
M  V30 21105 H 1939.3 2.62867 1.31447 0
M  V30 21106 H 1936.81 1.49473 0.63494 0
M  V30 21107 H 1938.81 1.95139 3.6841 0
M  V30 21108 H 1937.47 0.922599 3.11317 0
M  V30 21109 H 1938.48 4.56058 2.45421 0
M  V30 21110 H 1935.16 2.21808 3.53705 0
M  V30 21111 H 1936.55 6.16564 2.67017 0
M  V30 21112 N 1939.27 -0.683564 1.42004 0
M  V30 21113 C 1940.51 -1.44433 1.43215 0
M  V30 21114 C 1940.87 -1.92348 0.0445644 0
M  V30 21115 O 1940.16 -1.6742 -0.931726 0
M  V30 21116 C 1940.36 -2.66286 2.38383 0
M  V30 21117 C 1940.18 -2.30293 3.86258 0
M  V30 21118 C 1938.95 -2.20076 4.54857 0
M  V30 21119 C 1941.15 -1.92498 4.76916 0
M  V30 21120 N 1939.13 -1.77094 5.87802 0
M  V30 21121 C 1940.51 -1.60367 5.98901 0
M  V30 21122 C 1942.56 -1.79413 4.64452 0
M  V30 21123 C 1941.26 -1.16466 7.09809 0
M  V30 21124 C 1943.29 -1.36916 5.75333 0
M  V30 21125 C 1942.65 -1.05704 6.96424 0
M  V30 21126 H 1938.75 -0.525345 0.579255 0
M  V30 21127 H 1941.33 -0.789697 1.77966 0
M  V30 21128 H 1939.51 -3.29452 2.05708 0
M  V30 21129 H 1941.24 -3.32829 2.30233 0
M  V30 21130 H 1937.99 -2.38861 4.08953 0
M  V30 21131 H 1938.42 -1.58051 6.58292 0
M  V30 21132 H 1943.06 -2.02193 3.71319 0
M  V30 21133 H 1940.78 -0.924313 8.02796 0
M  V30 21134 H 1944.36 -1.27325 5.67697 0
M  V30 21135 H 1943.24 -0.733189 7.80765 0
M  V30 21136 N 1940.75 -1.28031 -0.919012 0
M  V30 21137 C 1941.7 -1.08151 -2.00717 0
M  V30 21138 C 1942.68 -0.00679124 -1.60899 0
M  V30 21139 O 1943.87 -0.226329 -1.75547 0
M  V30 21140 C 1941 -0.739868 -3.35233 0
M  V30 21141 C 1940.09 -1.85317 -3.81469 0
M  V30 21142 N 1940.48 -3.09403 -4.00129 0
M  V30 21143 C 1938.78 -1.74182 -4.10581 0
M  V30 21144 C 1939.48 -3.81909 -4.38772 0
M  V30 21145 N 1938.45 -3.09725 -4.46734 0
M  V30 21146 H 1942.25 -2.02308 -2.13187 0
M  V30 21147 H 1939.77 -1.18873 -1.10648 0
M  V30 21148 H 1941.77 -0.578538 -4.12866 0
M  V30 21149 H 1940.43 0.193987 -3.2412 0
M  V30 21150 H 1941.44 -3.45071 -3.86195 0
M  V30 21151 H 1938.11 -0.879386 -4.08134 0
M  V30 21152 H 1939.5 -4.886 -4.61216 0
M  V30 21153 N 1942.22 1.12672 -1.10194 0
M  V30 21154 C 1943.15 2.20422 -0.770492 0
M  V30 21155 C 1944.13 1.68172 0.25541 0
M  V30 21156 O 1945.32 1.93818 0.121728 0
M  V30 21157 C 1942.45 3.4673 -0.198815 0
M  V30 21158 C 1941.4 4.12118 -1.15512 0
M  V30 21159 C 1940.73 5.32847 -0.444768 0
M  V30 21160 C 1942.03 4.58542 -2.50073 0
M  V30 21161 H 1943.72 2.48404 -1.67141 0
M  V30 21162 H 1941.27 1.19392 -0.805077 0
M  V30 21163 H 1943.22 4.21376 0.0451853 0
M  V30 21164 H 1941.95 3.18168 0.737331 0
M  V30 21165 H 1940.61 3.3945 -1.38453 0
M  V30 21166 H 1940.25 5.00551 0.49577 0
M  V30 21167 H 1939.95 5.77543 -1.08247 0
M  V30 21168 H 1941.48 6.10241 -0.209255 0
M  V30 21169 H 1942.89 5.24572 -2.31294 0
M  V30 21170 H 1941.29 5.14007 -3.09704 0
M  V30 21171 H 1942.36 3.72654 -3.10254 0
M  V30 21172 N 1943.7 0.89031 1.30043 0
M  V30 21173 C 1944.63 0.31832 2.26979 0
M  V30 21174 C 1945.65 -0.530108 1.53928 0
M  V30 21175 O 1946.84 -0.348791 1.75059 0
M  V30 21176 C 1943.94 -0.565563 3.34148 0
M  V30 21177 C 1943.11 0.255006 4.36656 0
M  V30 21178 C 1942.17 -0.560216 5.23209 0
M  V30 21179 O 1941.19 0.0189739 5.69197 0
M  V30 21180 N 1942.4 -1.86825 5.49615 0
M  V30 21181 H 1945.16 1.15143 2.76699 0
M  V30 21182 H 1942.72 0.753836 1.43279 0
M  V30 21183 H 1944.71 -1.11711 3.88976 0
M  V30 21184 H 1943.28 -1.29935 2.84316 0
M  V30 21185 H 1942.5 0.987993 3.81618 0
M  V30 21186 H 1943.79 0.817308 5.02193 0
M  V30 21187 H 1943.19 -2.36167 5.14045 0
M  V30 21188 H 1941.75 -2.36713 6.07297 0
M  V30 21189 N 1945.18 -1.43489 0.651812 0
M  V30 21190 C 1946.42 -2.03707 0.168214 0
M  V30 21191 C 1946.78 -1.50302 -1.19471 0
M  V30 21192 O 1947.98 -2.02154 -1.77164 0
M  V30 21193 C 1946.26 -3.56964 0.176447 0
M  V30 21194 S 1947.81 -4.38146 -0.239511 0
M  V30 21195 H 1944.63 -0.70742 0.0712573 0
M  V30 21196 H 1947.23 -1.75577 0.859833 0
M  V30 21197 H 1945.94 -3.93335 1.17115 0
M  V30 21198 H 1945.47 -3.89735 -0.535755 0
M  V30 21199 H 1947.48 -4.73654 -1.47874 0
M  V30 21200 N 1946.66 -0.393643 -1.52605 0
M  V30 21201 C 1947.61 0.454246 -2.28121 0
M  V30 21202 C 1948.6 1.05931 -1.32193 0
M  V30 21203 O 1949.81 0.999286 -1.49714 0
M  V30 21204 H 1946.18 0.165249 -0.733619 0
M  V30 21205 H 1948.15 -0.204084 -2.97701 0
M  V30 21206 C 1946.9 1.5671 -3.10383 0
M  V30 21207 H 1946.22 1.11084 -3.84058 0
M  V30 21208 H 1947.66 2.13451 -3.66353 0
M  V30 21209 C 1946.12 2.52562 -2.22967 0
M  V30 21210 O 1946.65 3.56075 -1.85939 0
M  V30 21211 N 1944.86 2.22405 -1.87041 0
M  V30 21212 H 1944.41 1.38261 -2.17351 0
M  V30 21213 H 1944.36 2.86787 -1.28843 0
M  V30 21214 N 1948.14 1.57115 -0.123593 0
M  V30 21215 C 1949.55 1.5789 0.232975 0
M  V30 21216 C 1949.75 1.13659 1.66385 0
M  V30 21217 O 1948.81 0.826084 2.38604 0
M  V30 21218 C 1950.12 3.007 -0.0045178 0
M  V30 21219 C 1951.67 3.12941 0.0610235 0
M  V30 21220 C 1952.14 4.57758 -0.148835 0
M  V30 21221 N 1953.63 4.63103 -0.0949606 0
M  V30 21222 C 1954.37 5.7293 -0.232177 0
M  V30 21223 N 1953.87 6.9149 -0.42582 0
M  V30 21224 N 1955.66 5.61839 -0.171428 0
M  V30 21225 H 1947.81 1.84166 -1.05814 0
M  V30 21226 H 1950.07 0.851342 -0.417038 0
M  V30 21227 H 1949.78 3.37364 -0.993901 0
M  V30 21228 H 1949.65 3.70161 0.725327 0
M  V30 21229 H 1952.04 2.76131 1.04094 0
M  V30 21230 H 1952.12 2.46014 -0.700776 0
M  V30 21231 H 1951.76 4.95267 -1.12574 0
M  V30 21232 H 1951.69 5.22782 0.633006 0
M  V30 21233 H 1954.19 3.77866 0.0510058 0
M  V30 21234 H 1954.5 7.7104 -0.521263 0
M  V30 21235 H 1952.84 6.93464 -0.461851 0
M  V30 21236 H 1956.03 4.68095 -0.0210758 0
M  V30 21237 H 1956.21 6.47387 -0.281807 0
M  V30 21238 N 1949.61 -0.150187 1.56883 0
M  V30 21239 C 1950.85 -0.869587 1.8498 0
M  V30 21240 C 1951.22 -1.78491 0.707449 0
M  V30 21241 O 1952.42 -2.54352 0.869387 0
M  V30 21242 C 1950.69 -1.62639 3.1825 0
M  V30 21243 S 1952.25 -2.39165 3.67893 0
M  V30 21244 H 1949.07 -0.290853 0.648788 0
M  V30 21245 H 1951.67 -0.129797 1.95069 0
M  V30 21246 H 1950.37 -0.945372 3.99363 0
M  V30 21247 H 1949.9 -2.40715 3.11159 0
M  V30 21248 H 1951.92 -3.64294 3.36904 0
M  V30 21249 N 1951.09 -1.51916 -0.419434 0
M  V30 21250 C 1952.34 -1.65714 -1.16905 0
M  V30 21251 C 1952.67 -0.380888 -1.90428 0
M  V30 21252 O 1951.95 0.620297 -1.84344 0
M  V30 21253 C 1952.23 -2.87239 -2.17177 0
M  V30 21254 C 1952.08 -4.24887 -1.47619 0
M  V30 21255 C 1953.4 -3.04281 -3.17964 0
M  V30 21256 H 1950.52 -0.603072 -0.423643 0
M  V30 21257 H 1953.16 -1.84446 -0.456035 0
M  V30 21258 H 1951.31 -2.71398 -2.77984 0
M  V30 21259 H 1952.98 -4.52433 -0.900112 0
M  V30 21260 H 1951.23 -4.26761 -0.778273 0
M  V30 21261 H 1951.9 -5.05945 -2.20733 0
M  V30 21262 H 1954.37 -3.18951 -2.67226 0
M  V30 21263 H 1953.25 -3.90843 -3.85399 0
M  V30 21264 H 1953.51 -2.17138 -3.85102 0
M  V30 21265 N 1952.57 0.676023 -1.42365 0
M  V30 21266 C 1953.99 0.989001 -1.25263 0
M  V30 21267 C 1954.19 2.00896 -0.155941 0
M  V30 21268 O 1953.24 2.48026 0.473229 0
M  V30 21269 C 1954.56 1.49498 -2.60904 0
M  V30 21270 C 1956.1 1.61281 -2.68249 0
M  V30 21271 C 1956.58 2.15275 -4.04253 0
M  V30 21272 N 1958.07 2.2261 -4.06201 0
M  V30 21273 C 1958.8 2.6546 -5.08251 0
M  V30 21274 N 1958.3 3.07771 -6.20684 0
M  V30 21275 N 1960.09 2.65198 -4.95607 0
M  V30 21276 H 1952.24 0.000697929 -2.124 0
M  V30 21277 H 1954.51 0.0628334 -0.945915 0
M  V30 21278 H 1954.21 0.820033 -3.42006 0
M  V30 21279 H 1954.09 2.47392 -2.8474 0
M  V30 21280 H 1956.47 2.27882 -1.87493 0
M  V30 21281 H 1956.56 0.618793 -2.48203 0
M  V30 21282 H 1956.2 1.49284 -4.85466 0
M  V30 21283 H 1956.13 3.15466 -4.2165 0
M  V30 21284 H 1958.62 1.92776 -3.25032 0
M  V30 21285 H 1958.93 3.3915 -6.94404 0
M  V30 21286 H 1957.28 3.05631 -6.24191 0
M  V30 21287 H 1960.47 2.31504 -4.06846 0
M  V30 21288 H 1960.64 2.98272 -5.75272 0
M  V30 21289 N 1954.05 1.28517 0.912209 0
M  V30 21290 C 1955.46 1.14251 1.4766 0
M  V30 21291 C 1955.81 -0.266935 1.94376 0
M  V30 21292 O 1954.94 -1.16134 1.82598 0
M  V30 21293 C 1955.53 2.06792 2.6837 0
M  V30 21294 C 1954.09 1.96587 3.20984 0
M  V30 21295 C 1953.24 1.98444 1.93689 0
M  V30 21296 H 1956.19 1.41184 0.724769 0
M  V30 21297 H 1956.21 1.63282 3.43685 0
M  V30 21298 H 1955.72 3.09365 2.34339 0
M  V30 21299 H 1953.82 0.970565 3.59737 0
M  V30 21300 H 1953.93 2.83622 3.86129 0
M  V30 21301 H 1952.3 1.42872 2.10855 0
M  V30 21302 H 1953.08 3.02699 1.61951 0
M  V30 21303 N 1955.53 -1.12086 1.1079 0
M  V30 21304 C 1956.78 -1.83036 0.847387 0
M  V30 21305 C 1957.09 -1.85209 -0.629051 0
M  V30 21306 O 1958.29 -2.52191 -1.00559 0
M  V30 21307 C 1956.75 -3.28682 1.46615 0
M  V30 21308 C 1956.36 -3.34858 2.97614 0
M  V30 21309 C 1958.1 -4.04578 1.28519 0
M  V30 21310 C 1956.01 -4.7486 3.52508 0
M  V30 21311 H 1954.94 -0.685806 0.313347 0
M  V30 21312 H 1957.59 -1.2618 1.33233 0
M  V30 21313 H 1955.97 -3.85429 0.908883 0
M  V30 21314 H 1957.15 -2.8803 3.59688 0
M  V30 21315 H 1955.46 -2.72438 3.14907 0
M  V30 21316 H 1958.06 -5.07962 1.6697 0
M  V30 21317 H 1958.4 -4.1568 0.227105 0
M  V30 21318 H 1958.93 -3.542 1.81073 0
M  V30 21319 H 1955.67 -4.68954 4.57999 0
M  V30 21320 H 1955.19 -5.22125 2.95203 0
M  V30 21321 H 1956.87 -5.43807 3.50546 0
M  V30 21322 N 1957 -0.897194 -1.29569 0
M  V30 21323 C 1958.28 -0.441422 -1.90554 0
M  V30 21324 C 1958.66 1.07875 -1.81456 0
M  V30 21325 O 1958.01 1.9195 -1.23966 0
M  V30 21326 C 1958.22 -0.953195 -3.35731 0
M  V30 21327 C 1959.57 -0.995408 -4.12767 0
M  V30 21328 O 1960.59 -0.900693 -3.44624 0
M  V30 21329 O 1959.45 -1.13729 -5.34535 0
M  V30 21330 H 1956.54 -0.137172 -0.815545 0
M  V30 21331 H 1959.09 -0.986896 -1.38052 0
M  V30 21332 H 1957.86 -1.99715 -3.36496 0
M  V30 21333 H 1957.49 -0.387587 -3.95706 0
M  V30 21334 N 1958.48 1.43142 -0.659413 0
M  V30 21335 C 1959.76 1.95318 -0.104973 0
M  V30 21336 C 1960.14 1.60048 1.37651 0
M  V30 21337 O 1959.49 0.888746 2.10508 0
M  V30 21338 C 1959.7 3.47161 -0.357769 0
M  V30 21339 C 1961.05 4.23766 -0.26602 0
M  V30 21340 O 1962.07 3.55012 -0.290667 0
M  V30 21341 O 1960.93 5.46152 -0.195021 0
M  V30 21342 H 1958.02 0.826978 0.0060428 0
M  V30 21343 H 1960.57 1.53049 -0.733079 0
M  V30 21344 H 1959.34 3.65983 -1.38465 0
M  V30 21345 H 1958.96 3.96443 0.303102 0
M  V30 21346 N 1959.96 0.40173 1.52394 0
M  V30 21347 C 1961.21 -0.17672 2.02029 0
M  V30 21348 C 1961.54 -1.45417 1.28715 0
M  V30 21349 O 1960.81 -1.90524 0.391263 0
M  V30 21350 C 1961.1 -0.43198 3.575 0
M  V30 21351 C 1960.95 0.861628 4.4147 0
M  V30 21352 C 1962.27 -1.2173 4.2293 0
M  V30 21353 H 1959.39 -0.0627536 0.734323 0
M  V30 21354 H 1962.03 0.533742 1.82349 0
M  V30 21355 H 1960.18 -1.03719 3.74399 0
M  V30 21356 H 1961.85 1.49808 4.36297 0
M  V30 21357 H 1960.1 1.47424 4.07981 0
M  V30 21358 H 1960.77 0.637511 5.48306 0
M  V30 21359 H 1963.24 -0.704996 4.10084 0
M  V30 21360 H 1962.12 -1.36465 5.31666 0
M  V30 21361 H 1962.38 -2.23592 3.81391 0
M  V30 21362 N 1961.44 -1.57047 0.131923 0
M  V30 21363 C 1962.67 -1.99989 -0.530289 0
M  V30 21364 C 1963.08 -1.01182 -1.59397 0
M  V30 21365 O 1962.44 -0.00657368 -1.82499 0
M  V30 21366 C 1962.49 -3.42898 -1.14469 0
M  V30 21367 O 1962.21 -4.37926 -0.123503 0
M  V30 21368 C 1963.71 -4.0104 -1.88897 0
M  V30 21369 H 1960.93 -0.656371 -0.139348 0
M  V30 21370 H 1963.48 -2.03291 0.222069 0
M  V30 21371 H 1961.63 -3.40495 -1.84775 0
M  V30 21372 H 1962.04 -5.21376 -0.571587 0
M  V30 21373 H 1963.52 -5.03077 -2.27196 0
M  V30 21374 H 1964 -3.40903 -2.76915 0
M  V30 21375 H 1964.6 -4.07027 -1.23324 0
M  V30 21376 N 1962.92 0.141865 -1.5696 0
M  V30 21377 C 1963.85 1.17667 -2.01685 0
M  V30 21378 C 1964.83 1.44509 -0.897282 0
M  V30 21379 O 1966.01 1.55342 -1.16544 0
M  V30 21380 C 1963.14 2.50859 -2.40182 0
M  V30 21381 C 1962.1 2.38527 -3.55371 0
M  V30 21382 C 1961.42 3.76476 -3.79697 0
M  V30 21383 C 1962.72 1.86502 -4.87867 0
M  V30 21384 H 1964.42 0.804761 -2.88382 0
M  V30 21385 H 1961.96 0.385672 -1.38739 0
M  V30 21386 H 1963.92 3.2348 -2.70071 0
M  V30 21387 H 1962.64 2.89895 -1.50428 0
M  V30 21388 H 1961.3 1.68357 -3.25656 0
M  V30 21389 H 1960.95 4.12957 -2.87186 0
M  V30 21390 H 1960.65 3.69085 -4.5722 0
M  V30 21391 H 1962.17 4.50638 -4.12017 0
M  V30 21392 H 1963.58 2.48921 -5.16441 0
M  V30 21393 H 1961.98 1.89989 -5.69231 0
M  V30 21394 H 1963.05 0.821025 -4.77899 0
M  V30 21395 N 1964.39 1.52136 0.411372 0
M  V30 21396 C 1965.3 1.78205 1.52579 0
M  V30 21397 C 1966.32 0.667501 1.60687 0
M  V30 21398 O 1967.5 0.952661 1.77444 0
M  V30 21399 C 1964.56 1.9252 2.88335 0
M  V30 21400 C 1963.62 3.16421 2.90131 0
M  V30 21401 C 1962.86 3.30044 4.19412 0
M  V30 21402 O 1963.08 2.48985 5.13189 0
M  V30 21403 O 1962.01 4.23182 4.2802 0
M  V30 21404 H 1965.84 2.72791 1.33487 0
M  V30 21405 H 1963.42 1.36953 0.597004 0
M  V30 21406 H 1965.31 2.03771 3.68857 0
M  V30 21407 H 1963.98 1.01123 3.07499 0
M  V30 21408 H 1962.89 3.1063 2.08471 0
M  V30 21409 H 1964.22 4.07592 2.75916 0
M  V30 21410 N 1965.87 -0.668464 1.42721 0
M  V30 21411 C 1967.1 -1.45659 1.46939 0
M  V30 21412 C 1967.52 -1.88619 0.0826133 0
M  V30 21413 O 1966.87 -1.58537 -0.904 0
M  V30 21414 C 1966.92 -2.70158 2.40202 0
M  V30 21415 O 1966.65 -2.28999 3.73485 0
M  V30 21416 C 1968.15 -3.63662 2.53505 0
M  V30 21417 H 1965.37 -0.447982 0.499553 0
M  V30 21418 H 1967.91 -0.820826 1.87304 0
M  V30 21419 H 1966.07 -3.29909 2.03074 0
M  V30 21420 H 1966.48 -3.09441 4.23493 0
M  V30 21421 H 1967.95 -4.47726 3.22871 0
M  V30 21422 H 1968.43 -4.09989 1.57498 0
M  V30 21423 H 1969.04 -3.09801 2.91382 0
M  V30 21424 N 1967.35 -1.28999 -0.905381 0
M  V30 21425 C 1968.58 -1.19632 -1.69419 0
M  V30 21426 C 1969 0.240433 -1.86557 0
M  V30 21427 O 1968.36 1.17374 -1.38177 0
M  V30 21428 C 1968.41 -1.90881 -3.05936 0
M  V30 21429 O 1967.51 -1.22198 -3.9388 0
M  V30 21430 H 1966.85 -0.414842 -0.518461 0
M  V30 21431 H 1969.38 -1.70468 -1.13145 0
M  V30 21432 H 1969.39 -1.99115 -3.56114 0
M  V30 21433 H 1968.07 -2.95385 -2.9278 0
M  V30 21434 H 1966.64 -1.22185 -3.52314 0
M  V30 21435 N 1968.83 1.11497 -1.11383 0
M  V30 21436 C 1969.76 2.17283 -0.729431 0
M  V30 21437 C 1970.77 1.61041 0.238642 0
M  V30 21438 O 1971.96 1.78487 0.0216271 0
M  V30 21439 C 1969.06 3.38852 -0.057216 0
M  V30 21440 C 1968.24 4.24562 -1.05196 0
M  V30 21441 C 1967.3 5.24605 -0.40941 0
M  V30 21442 O 1966.32 5.59183 -1.06315 0
M  V30 21443 N 1967.52 5.74565 0.827957 0
M  V30 21444 H 1970.29 2.50871 -1.63963 0
M  V30 21445 H 1967.85 1.27013 -1.00396 0
M  V30 21446 H 1969.84 4.02871 0.384356 0
M  V30 21447 H 1968.41 3.03332 0.755551 0
M  V30 21448 H 1967.63 3.57008 -1.6715 0
M  V30 21449 H 1968.92 4.78667 -1.72498 0
M  V30 21450 H 1968.32 5.48653 1.37827 0
M  V30 21451 H 1966.87 6.40423 1.21252 0
M  V30 21452 N 1970.31 0.904053 1.29092 0
M  V30 21453 C 1971.56 0.528154 1.94662 0
M  V30 21454 C 1971.87 -0.930986 1.72023 0
M  V30 21455 O 1973.08 -1.4146 2.31735 0
M  V30 21456 C 1971.53 0.893684 3.48628 0
M  V30 21457 C 1971.14 2.37189 3.8006 0
M  V30 21458 C 1972.88 0.587904 4.20409 0
M  V30 21459 C 1970.79 2.67805 5.2729 0
M  V30 21460 H 1969.72 0.193795 0.72867 0
M  V30 21461 H 1972.37 1.10164 1.46752 0
M  V30 21462 H 1970.75 0.249078 3.95216 0
M  V30 21463 H 1971.93 3.06241 3.44315 0
M  V30 21464 H 1970.24 2.64714 3.21428 0
M  V30 21465 H 1972.84 0.793441 5.2878 0
M  V30 21466 H 1973.18 -0.473803 4.13595 0
M  V30 21467 H 1973.72 1.19054 3.79567 0
M  V30 21468 H 1970.45 3.72791 5.39172 0
M  V30 21469 H 1969.97 2.03381 5.64266 0
M  V30 21470 H 1971.65 2.543 5.94929 0
M  V30 21471 N 1971.79 -1.4279 0.666995 0
M  V30 21472 C 1973.03 -2.01644 0.18603 0
M  V30 21473 C 1973.36 -1.52694 -1.20477 0
M  V30 21474 O 1972.62 -0.716418 -1.82115 0
M  V30 21475 C 1972.91 -3.57038 0.160763 0
M  V30 21476 C 1972.58 -4.25389 1.49517 0
M  V30 21477 C 1971.24 -4.43775 1.86056 0
M  V30 21478 C 1973.59 -4.63976 2.37436 0
M  V30 21479 C 1970.92 -4.98018 3.10152 0
M  V30 21480 C 1973.27 -5.19596 3.60837 0
M  V30 21481 C 1971.94 -5.36197 3.97554 0
M  V30 21482 H 1971.21 -0.737867 0.0680731 0
M  V30 21483 H 1973.86 -1.71081 0.860435 0
M  V30 21484 H 1972.16 -3.87223 -0.597132 0
M  V30 21485 H 1973.86 -4.00349 -0.228461 0
M  V30 21486 H 1970.45 -4.11432 1.20091 0
M  V30 21487 H 1974.63 -4.49451 2.10494 0
M  V30 21488 H 1969.89 -5.09057 3.38632 0
M  V30 21489 H 1974.06 -5.4844 4.2917 0
M  V30 21490 H 1971.69 -5.77992 4.9379 0
M  V30 21491 N 1973.26 -0.409806 -1.52179 0
M  V30 21492 C 1974.17 0.42219 -2.3077 0
M  V30 21493 C 1975.19 1.05295 -1.38524 0
M  V30 21494 O 1976.37 1.05432 -1.71599 0
M  V30 21495 C 1973.43 1.52345 -3.11435 0
M  V30 21496 C 1972.49 0.91568 -4.19421 0
M  V30 21497 C 1971.72 1.96446 -4.9623 0
M  V30 21498 O 1971.95 3.18271 -4.7335 0
M  V30 21499 O 1970.88 1.57032 -5.81055 0
M  V30 21500 H 1974.71 -0.218635 -3.02912 0
M  V30 21501 H 1972.29 -0.172994 -1.48395 0
M  V30 21502 H 1974.17 2.16276 -3.61666 0
M  V30 21503 H 1972.85 2.14886 -2.42086 0
M  V30 21504 H 1971.76 0.239064 -3.73335 0
M  V30 21505 H 1973.09 0.33418 -4.91064 0
M  V30 21506 N 1974.74 1.56975 -0.14025 0
M  V30 21507 C 1975.99 1.95906 0.512543 0
M  V30 21508 C 1976.32 1.02475 1.65315 0
M  V30 21509 O 1975.57 0.0526473 1.95629 0
M  V30 21510 C 1975.87 3.4113 1.06606 0
M  V30 21511 C 1975.54 4.50878 0.044598 0
M  V30 21512 C 1974.2 4.8062 -0.236217 0
M  V30 21513 C 1976.55 5.17126 -0.650368 0
M  V30 21514 C 1973.88 5.73919 -1.21792 0
M  V30 21515 C 1976.23 6.11483 -1.62084 0
M  V30 21516 C 1974.89 6.39607 -1.90943 0
M  V30 21517 H 1974.16 0.716872 0.187553 0
M  V30 21518 H 1976.81 1.90166 -0.225653 0
M  V30 21519 H 1975.12 3.43669 1.88145 0
M  V30 21520 H 1976.81 3.68577 1.57961 0
M  V30 21521 H 1973.4 4.27726 0.273651 0
M  V30 21522 H 1977.59 4.94286 -0.446606 0
M  V30 21523 H 1972.84 5.94005 -1.44802 0
M  V30 21524 H 1977.02 6.61895 -2.1649 0
M  V30 21525 H 1974.64 7.11707 -2.67165 0
M  V30 21526 N 1976.22 -0.133539 1.57033 0
M  V30 21527 C 1977.63 -0.692222 1.73393 0
M  V30 21528 C 1977.98 -1.81019 0.756735 0
M  V30 21529 O 1977.11 -2.16275 -0.0736448 0
M  V30 21530 C 1977.7 -1.26245 3.144 0
M  V30 21531 C 1976.26 -1.76756 3.32316 0
M  V30 21532 C 1975.41 -0.661397 2.69297 0
M  V30 21533 H 1978.36 0.0922563 1.58432 0
M  V30 21534 H 1978.38 -2.13221 3.15146 0
M  V30 21535 H 1977.89 -0.44855 3.85499 0
M  V30 21536 H 1975.99 -2.6067 2.66236 0
M  V30 21537 H 1976.11 -1.88702 4.40373 0
M  V30 21538 H 1974.47 -1.0914 2.30132 0
M  V30 21539 H 1975.25 0.141281 3.43009 0
M  V30 21540 N 1977.7 -1.52352 -0.403298 0
M  V30 21541 C 1978.97 -1.57265 -1.16305 0
M  V30 21542 C 1979.35 -0.357181 -2.08056 0
M  V30 21543 O 1978.7 0.655551 -2.18894 0
M  V30 21544 C 1978.91 -2.90429 -1.93525 0
M  V30 21545 C 1980.26 -3.43643 -2.49388 0
M  V30 21546 O 1981.28 -2.92208 -2.03699 0
M  V30 21547 O 1980.14 -4.33474 -3.32809 0
M  V30 21548 H 1977.24 -0.633707 -0.531361 0
M  V30 21549 H 1979.78 -1.64682 -0.409607 0
M  V30 21550 H 1978.56 -3.70341 -1.26346 0
M  V30 21551 H 1978.18 -2.86331 -2.75862 0
M  V30 21552 N 1979.18 0.660885 -1.43074 0
M  V30 21553 C 1980.42 1.42296 -1.44498 0
M  V30 21554 C 1980.75 1.94087 -0.0661594 0
M  V30 21555 O 1980.03 1.71803 0.911806 0
M  V30 21556 C 1980.31 2.60995 -2.481 0
M  V30 21557 C 1980.17 2.14746 -3.95227 0
M  V30 21558 C 1981.48 3.63212 -2.48526 0
M  V30 21559 H 1978.6 0.516071 -0.526156 0
M  V30 21560 H 1981.25 0.749896 -1.74575 0
M  V30 21561 H 1979.4 3.18417 -2.22583 0
M  V30 21562 H 1981.07 1.62384 -4.31774 0
M  V30 21563 H 1979.31 1.46188 -4.08426 0
M  V30 21564 H 1979.98 3.00068 -4.63318 0
M  V30 21565 H 1982.46 3.15534 -2.71251 0
M  V30 21566 H 1981.33 4.43825 -3.22971 0
M  V30 21567 H 1981.59 4.15285 -1.51626 0
M  V30 21568 N 1980.65 1.29477 0.898527 0
M  V30 21569 C 1981.88 1.20529 1.68783 0
M  V30 21570 C 1982.3 -0.230536 1.86682 0
M  V30 21571 O 1981.66 -1.1664 1.38798 0
M  V30 21572 C 1981.71 1.92501 3.04919 0
M  V30 21573 O 1980.81 1.24286 3.93226 0
M  V30 21574 H 1980.16 0.417586 0.516254 0
M  V30 21575 H 1982.69 1.71066 1.1224 0
M  V30 21576 H 1982.7 2.01001 3.55053 0
M  V30 21577 H 1981.37 2.96934 2.9121 0
M  V30 21578 H 1979.95 1.24052 3.51661 0
M  V30 21579 N 1982.13 -1.10905 1.11972 0
M  V30 21580 C 1983.08 -2.17107 0.783135 0
M  V30 21581 C 1984.05 -1.6424 -0.24791 0
M  V30 21582 O 1985.23 -1.90399 -0.123577 0
M  V30 21583 C 1982.37 -3.44274 0.238574 0
M  V30 21584 C 1981.49 -4.11119 1.32685 0
M  V30 21585 C 1980.62 -5.25989 0.742236 0
M  V30 21586 C 1979.66 -5.84728 1.80997 0
M  V30 21587 N 1978.8 -6.90983 1.24444 0
M  V30 21588 H 1983.64 -2.45243 1.69292 0
M  V30 21589 H 1981.18 -1.20386 0.845323 0
M  V30 21590 H 1983.13 -4.17091 -0.0951679 0
M  V30 21591 H 1981.76 -3.16505 -0.634384 0
M  V30 21592 H 1980.82 -3.3632 1.77745 0
M  V30 21593 H 1982.13 -4.50824 2.13445 0
M  V30 21594 H 1981.28 -6.05638 0.358877 0
M  V30 21595 H 1980.02 -4.87604 -0.096622 0
M  V30 21596 H 1979.03 -5.03753 2.20258 0
M  V30 21597 H 1980.25 -6.25178 2.65196 0
M  V30 21598 H 1978.2 -6.54607 0.427323 0
M  V30 21599 H 1978.11 -7.29374 1.98869 0
M  V30 21600 H 1979.38 -7.74424 0.888154 0
M  V30 21601 N 1983.61 -0.910886 -1.2861 0
M  V30 21602 C 1985.03 -0.608615 -1.4754 0
M  V30 21603 C 1985.23 0.846869 -1.8284 0
M  V30 21604 O 1984.28 1.62618 -1.93162 0
M  V30 21605 C 1985.6 -1.54405 -2.5803 0
M  V30 21606 C 1987.14 -1.55046 -2.719 0
M  V30 21607 C 1987.62 -2.47245 -3.85531 0
M  V30 21608 N 1989.11 -2.45356 -3.9288 0
M  V30 21609 C 1989.84 -3.13394 -4.80179 0
M  V30 21610 N 1989.34 -3.90751 -5.72088 0
M  V30 21611 N 1991.13 -3.02495 -4.73765 0
M  V30 21612 H 1983.28 -1.8521 -1.03977 0
M  V30 21613 H 1985.55 -0.794235 -0.517585 0
M  V30 21614 H 1985.25 -2.5816 -2.38844 0
M  V30 21615 H 1985.13 -1.27299 -3.5507 0
M  V30 21616 H 1987.51 -0.520311 -2.90477 0
M  V30 21617 H 1987.6 -1.86195 -1.754 0
M  V30 21618 H 1987.24 -3.50361 -3.67709 0
M  V30 21619 H 1987.17 -2.134 -4.81423 0
M  V30 21620 H 1989.66 -1.89161 -3.27149 0
M  V30 21621 H 1989.97 -4.39694 -6.35523 0
M  V30 21622 H 1988.32 -3.94857 -5.71938 0
M  V30 21623 H 1991.51 -2.41567 -4.00953 0
M  V30 21624 H 1991.68 -3.55793 -5.41586 0
M  V30 21625 N 1985.09 1.42434 -0.674558 0
M  V30 21626 C 1986.34 2.00765 -0.193936 0
M  V30 21627 C 1986.65 1.53957 1.20651 0
M  V30 21628 O 1987.86 2.04705 1.78348 0
M  V30 21629 C 1986.31 3.58682 -0.295862 0
M  V30 21630 C 1985.92 4.14478 -1.70034 0
M  V30 21631 C 1987.66 4.24313 0.12606 0
M  V30 21632 C 1985.57 5.64758 -1.75505 0
M  V30 21633 H 1984.5 0.75086 -0.0687443 0
M  V30 21634 H 1987.15 1.6316 -0.839705 0
M  V30 21635 H 1985.53 3.9379 0.417795 0
M  V30 21636 H 1986.71 3.90831 -2.44106 0
M  V30 21637 H 1985.02 3.61298 -2.07009 0
M  V30 21638 H 1987.62 5.34596 0.105331 0
M  V30 21639 H 1987.96 3.99775 1.16127 0
M  V30 21640 H 1988.5 3.94164 -0.536581 0
M  V30 21641 H 1985.24 5.94094 -2.77007 0
M  V30 21642 H 1984.76 5.90397 -1.05788 0
M  V30 21643 H 1986.43 6.29172 -1.50838 0
M  V30 21644 N 1986.57 0.417871 1.51959 0
M  V30 21645 C 1987.79 -0.156736 2.06807 0
M  V30 21646 C 1988.22 -1.37354 1.28512 0
M  V30 21647 O 1987.57 -1.78494 0.317715 0
M  V30 21648 C 1987.62 -0.476913 3.57432 0
M  V30 21649 O 1986.73 -1.56654 3.81488 0
M  V30 21650 H 1986.07 -0.0103873 0.663919 0
M  V30 21651 H 1988.6 0.593593 1.958 0
M  V30 21652 H 1988.61 -0.733026 4.01361 0
M  V30 21653 H 1987.28 0.412542 4.13849 0
M  V30 21654 H 1985.86 -1.30191 3.49435 0
M  V30 21655 N 1988.04 -1.56898 0.148573 0
M  V30 21656 C 1989.46 -1.58241 -0.207826 0
M  V30 21657 C 1989.66 -1.16291 -1.64556 0
M  V30 21658 O 1988.72 -0.863939 -2.3726 0
M  V30 21659 C 1990.03 -3.00654 0.0523559 0
M  V30 21660 C 1991.58 -3.12998 -0.0112297 0
M  V30 21661 C 1992.05 -4.57463 0.221641 0
M  V30 21662 N 1993.54 -4.62893 0.168624 0
M  V30 21663 C 1994.28 -5.72488 0.323296 0
M  V30 21664 N 1993.77 -6.90725 0.535776 0
M  V30 21665 N 1995.57 -5.61495 0.26079 0
M  V30 21666 H 1987.72 -1.82459 1.08731 0
M  V30 21667 H 1989.98 -0.8446 0.430529 0
M  V30 21668 H 1989.69 -3.3574 1.04745 0
M  V30 21669 H 1989.56 -3.71268 -0.666346 0
M  V30 21670 H 1991.95 -2.77752 -0.996873 0
M  V30 21671 H 1992.03 -2.44868 0.739826 0
M  V30 21672 H 1991.67 -4.93413 1.20439 0
M  V30 21673 H 1991.6 -5.23722 -0.549756 0
M  V30 21674 H 1994.09 -3.77899 0.00911581 0
M  V30 21675 H 1994.41 -7.70113 0.643862 0
M  V30 21676 H 1992.75 -6.92641 0.572117 0
M  V30 21677 H 1995.94 -4.68002 0.095543 0
M  V30 21678 H 1996.12 -6.46857 0.384765 0
M  V30 21679 N 1989.52 0.125209 -1.57102 0
M  V30 21680 C 1990.46 1.18407 -1.95077 0
M  V30 21681 C 1991.43 1.40435 -0.819562 0
M  V30 21682 O 1992.62 1.54691 -1.07717 0
M  V30 21683 C 1989.74 2.53906 -2.24164 0
M  V30 21684 C 1988.79 2.48343 -3.46739 0
M  V30 21685 S 1989.62 1.92912 -4.99545 0
M  V30 21686 C 1990.78 3.30096 -5.31777 0
M  V30 21687 H 1991.01 0.860191 -2.84584 0
M  V30 21688 H 1988.55 0.331718 -1.50795 0
M  V30 21689 H 1990.5 3.31873 -2.416 0
M  V30 21690 H 1989.16 2.83474 -1.35282 0
M  V30 21691 H 1988.36 3.4814 -3.64437 0
M  V30 21692 H 1987.96 1.78494 -3.28658 0
M  V30 21693 H 1990.25 4.26287 -5.26579 0
M  V30 21694 H 1991.19 3.17232 -6.33064 0
M  V30 21695 H 1991.6 3.28238 -4.5926 0
M  V30 21696 N 1991 1.52564 0.395213 0
M  V30 21697 C 1992.25 1.67552 1.14254 0
M  V30 21698 C 1992.58 0.411135 1.89798 0
M  V30 21699 O 1991.85 -0.590891 1.85307 0
M  V30 21700 C 1992.14 2.90657 2.1258 0
M  V30 21701 C 1991.99 4.27181 1.40841 0
M  V30 21702 C 1993.31 3.09301 3.13083 0
M  V30 21703 H 1990.43 0.609735 0.413995 0
M  V30 21704 H 1993.07 1.85148 0.426634 0
M  V30 21705 H 1991.22 2.75787 2.73631 0
M  V30 21706 H 1992.89 4.53808 0.82802 0
M  V30 21707 H 1991.14 4.27946 0.71028 0
M  V30 21708 H 1991.81 5.09393 2.12656 0
M  V30 21709 H 1994.28 3.23162 2.62118 0
M  V30 21710 H 1993.16 3.96925 3.79133 0
M  V30 21711 H 1993.42 2.23237 3.81599 0
M  V30 21712 N 1992.48 -0.653289 1.43422 0
M  V30 21713 C 1993.7 -1.4459 1.4869 0
M  V30 21714 C 1994.13 -1.87801 0.10599 0
M  V30 21715 O 1993.49 -1.5737 -0.90025 0
M  V30 21716 C 1993.53 -2.65713 2.43781 0
M  V30 21717 O 1992.64 -3.64767 1.92402 0
M  V30 21718 H 1991.98 -0.433532 0.502938 0
M  V30 21719 H 1994.51 -0.799423 1.88336 0
M  V30 21720 H 1994.52 -3.13528 2.61082 0
M  V30 21721 H 1993.19 -2.33604 3.44096 0
M  V30 21722 H 1991.77 -3.2391 1.84761 0
M  V30 21723 N 1993.96 -1.29952 -0.891648 0
M  V30 21724 C 1995.2 -1.18155 -1.63963 0
M  V30 21725 C 1995.53 0.265477 -1.93184 0
M  V30 21726 O 1994.8 1.1802 -1.56359 0
M  V30 21727 H 1993.38 -0.434297 -0.607779 0
M  V30 21728 H 1996.04 -1.62988 -1.06869 0
M  V30 21729 H 1995.13 -1.73753 -2.59261 0
M  V30 21730 N 1995.44 1.1031 -1.12559 0
M  V30 21731 C 1996.4 2.14869 -0.79773 0
M  V30 21732 C 1997.4 1.59691 0.188521 0
M  V30 21733 O 1998.59 1.7416 -0.037433 0
M  V30 21734 C 1995.72 3.40394 -0.185665 0
M  V30 21735 H 1996.91 2.45384 -1.72415 0
M  V30 21736 H 1994.47 1.25694 -0.929011 0
M  V30 21737 H 1995.2 3.15499 0.750409 0
M  V30 21738 H 1994.99 3.81731 -0.895771 0
M  V30 21739 H 1996.48 4.17591 0.0271848 0
M  V30 21740 N 1996.91 0.917694 1.28125 0
M  V30 21741 C 1998.16 0.553715 1.95094 0
M  V30 21742 C 1998.49 -0.900999 1.72034 0
M  V30 21743 O 1997.77 -1.64132 1.04359 0
M  V30 21744 C 1998.05 0.868367 3.49473 0
M  V30 21745 C 1997.9 2.3761 3.81918 0
M  V30 21746 C 1999.22 0.367261 4.38565 0
M  V30 21747 H 1996.34 0.202644 0.708593 0
M  V30 21748 H 1998.98 1.14765 1.51423 0
M  V30 21749 H 1997.13 0.362898 3.86801 0
M  V30 21750 H 1998.81 2.95249 3.54437 0
M  V30 21751 H 1997.05 2.82945 3.28823 0
M  V30 21752 H 1997.72 2.5468 4.89737 0
M  V30 21753 H 2000.2 0.800328 4.08331 0
M  V30 21754 H 1999.07 0.616464 5.45427 0
M  V30 21755 H 1999.33 -0.732497 4.3599 0
M  V30 21756 N 1998.39 -1.42074 0.682102 0
M  V30 21757 C 1999.8 -1.8453 0.283805 0
M  V30 21758 C 2000.15 -1.5709 -1.17547 0
M  V30 21759 O 1999.28 -1.03444 -1.90075 0
M  V30 21760 C 1999.87 -3.34965 0.508316 0
M  V30 21761 C 1998.43 -3.76042 0.164069 0
M  V30 21762 C 1997.58 -2.65594 0.797204 0
M  V30 21763 H 2000.53 -1.31817 0.88374 0
M  V30 21764 H 2000.55 -3.7976 -0.237267 0
M  V30 21765 H 2000.06 -3.54905 1.57047 0
M  V30 21766 H 1998.16 -3.61707 -0.894353 0
M  V30 21767 H 1998.28 -4.75205 0.609688 0
M  V30 21768 H 1996.64 -2.53678 0.227913 0
M  V30 21769 H 1997.42 -2.88355 1.86296 0
M  V30 21770 N 1999.87 -0.425924 -1.51735 0
M  V30 21771 C 2000.82 0.408952 -2.24302 0
M  V30 21772 C 2001.8 0.999596 -1.26083 0
M  V30 21773 O 2003 0.919629 -1.51234 0
M  V30 21774 C 2000.12 1.51589 -3.08019 0
M  V30 21775 C 1999.21 0.935197 -4.1366 0
M  V30 21776 N 1999.6 0.0826482 -5.05732 0
M  V30 21777 C 1997.9 1.20398 -4.29442 0
M  V30 21778 C 1998.6 -0.242261 -5.81195 0
M  V30 21779 N 1997.58 0.371212 -5.42331 0
M  V30 21780 H 2001.38 -0.248516 -2.92847 0
M  V30 21781 H 1998.89 -0.237322 -1.60657 0
M  V30 21782 H 2000.89 2.12675 -3.58574 0
M  V30 21783 H 1999.55 2.17581 -2.41016 0
M  V30 21784 H 2000.56 -0.282939 -5.17127 0
M  V30 21785 H 1997.24 1.86224 -3.73667 0
M  V30 21786 H 1998.63 -0.935323 -6.65358 0
M  V30 21787 N 2001.35 1.56817 -0.156891 0
M  V30 21788 C 2002.59 1.96439 0.491735 0
M  V30 21789 C 2002.92 1.04222 1.64219 0
M  V30 21790 O 2002.18 0.0733934 1.95562 0
M  V30 21791 C 2002.48 3.42242 1.02981 0
M  V30 21792 C 2002.14 4.509 -0.00322619 0
M  V30 21793 C 2000.8 4.80342 -0.28718 0
M  V30 21794 C 2003.16 5.16407 -0.70518 0
M  V30 21795 C 2000.48 5.72595 -1.27872 0
M  V30 21796 C 2002.84 6.09729 -1.68561 0
M  V30 21797 C 2001.5 6.37546 -1.97716 0
M  V30 21798 H 2000.77 0.718821 0.179939 0
M  V30 21799 H 2003.42 1.89916 -0.24581 0
M  V30 21800 H 2001.72 3.45646 1.8449 0
M  V30 21801 H 2003.42 3.70232 1.54043 0
M  V30 21802 H 2000.01 4.27992 0.228269 0
M  V30 21803 H 2004.19 4.93785 -0.499006 0
M  V30 21804 H 1999.45 5.92436 -1.51094 0
M  V30 21805 H 2003.62 6.59562 -2.23498 0
M  V30 21806 H 2001.25 7.08833 -2.74698 0
M  V30 21807 N 2002.83 -0.116876 1.57166 0
M  V30 21808 C 2003.76 -1.16901 1.97147 0
M  V30 21809 C 2004.77 -1.37537 0.871063 0
M  V30 21810 O 2005.96 -1.36574 1.14934 0
M  V30 21811 C 2003.06 -2.52863 2.2564 0
M  V30 21812 C 2002.23 -2.528 3.56946 0
M  V30 21813 C 2001.29 -3.70525 3.73628 0
M  V30 21814 O 2000.32 -3.54013 4.45717 0
M  V30 21815 N 2001.52 -4.89172 3.12556 0
M  V30 21816 H 2004.28 -0.828895 2.88009 0
M  V30 21817 H 2001.85 -0.306125 1.5898 0
M  V30 21818 H 2003.84 -3.30182 2.34013 0
M  V30 21819 H 2002.41 -2.79048 1.40894 0
M  V30 21820 H 2001.63 -1.61181 3.59742 0
M  V30 21821 H 2002.92 -2.49817 4.43248 0
M  V30 21822 H 2002.31 -5.05491 2.5396 0
M  V30 21823 H 2000.87 -5.64159 3.26447 0
M  V30 21824 N 2004.3 -1.52772 -0.387116 0
M  V30 21825 C 2005.72 -1.42064 -0.727316 0
M  V30 21826 C 2005.92 -0.542559 -1.94058 0
M  V30 21827 O 2004.98 -0.0167267 -2.52494 0
M  V30 21828 C 2006.29 -2.84942 -0.960651 0
M  V30 21829 C 2007.84 -2.94432 -1.06201 0
M  V30 21830 C 2008.31 -4.38326 -1.32796 0
M  V30 21831 N 2009.8 -4.41659 -1.39613 0
M  V30 21832 C 2010.54 -5.50081 -1.6186 0
M  V30 21833 N 2010.03 -6.68585 -1.81566 0
M  V30 21834 N 2011.83 -5.37627 -1.64055 0
M  V30 21835 H 2003.98 -2.08382 0.411202 0
M  V30 21836 H 2006.24 -0.940144 0.121792 0
M  V30 21837 H 2005.95 -3.51416 -0.141246 0
M  V30 21838 H 2005.82 -3.27309 -1.87479 0
M  V30 21839 H 2008.21 -2.28125 -1.87198 0
M  V30 21840 H 2008.29 -2.55491 -0.125731 0
M  V30 21841 H 2007.93 -5.05199 -0.523081 0
M  V30 21842 H 2007.86 -4.74821 -2.27711 0
M  V30 21843 H 2010.35 -3.56245 -1.26086 0
M  V30 21844 H 2010.67 -7.4699 -1.98053 0
M  V30 21845 H 2009.01 -6.7161 -1.78786 0
M  V30 21846 H 2012.2 -4.44016 -1.48213 0
M  V30 21847 H 2012.38 -6.22193 -1.81053 0
M  V30 21848 N 2005.78 0.645673 -1.43767 0
M  V30 21849 C 2006.71 1.76974 -1.52324 0
M  V30 21850 C 2007.69 1.65862 -0.377316 0
M  V30 21851 O 2008.88 1.84843 -0.595532 0
M  V30 21852 C 2006.01 3.1544 -1.4531 0
M  V30 21853 C 2004.96 3.41324 -2.58229 0
M  V30 21854 C 2004.29 4.79669 -2.36267 0
M  V30 21855 C 2005.59 3.35321 -4.00446 0
M  V30 21856 H 2007.28 1.70069 -2.46408 0
M  V30 21857 H 2004.83 0.816784 -1.18594 0
M  V30 21858 H 2006.78 3.93838 -1.49899 0
M  V30 21859 H 2005.5 3.23093 -0.477344 0
M  V30 21860 H 2004.16 2.653 -2.53005 0
M  V30 21861 H 2003.81 4.84007 -1.36918 0
M  V30 21862 H 2003.51 4.97947 -3.11966 0
M  V30 21863 H 2005.04 5.60315 -2.42652 0
M  V30 21864 H 2006.45 4.03644 -4.07117 0
M  V30 21865 H 2004.85 3.65135 -4.76231 0
M  V30 21866 H 2005.92 2.33373 -4.25047 0
M  V30 21867 N 2007.26 1.30423 0.884744 0
M  V30 21868 C 2008.67 1.17357 1.45204 0
M  V30 21869 C 2009.02 -0.225645 1.94898 0
M  V30 21870 O 2008.15 -1.12234 1.8502 0
M  V30 21871 C 2008.74 2.12438 2.63923 0
M  V30 21872 C 2007.3 2.03351 3.16742 0
M  V30 21873 C 2006.45 2.02508 1.89436 0
M  V30 21874 H 2009.4 1.42689 0.694659 0
M  V30 21875 H 2009.42 1.70535 3.40144 0
M  V30 21876 H 2008.93 3.14267 2.27724 0
M  V30 21877 H 2007.03 1.04665 3.57597 0
M  V30 21878 H 2007.15 2.91748 3.80026 0
M  V30 21879 H 2005.51 1.47312 2.07777 0
M  V30 21880 H 2006.29 3.06066 1.55494 0
M  V30 21881 N 2008.74 -1.09711 1.13142 0
M  V30 21882 C 2010.01 -1.78377 0.802565 0
M  V30 21883 C 2010.39 -1.9893 -0.706392 0
M  V30 21884 O 2009.74 -1.58835 -1.64267 0
M  V30 21885 C 2009.95 -3.10873 1.58615 0
M  V30 21886 C 2011.3 -3.85629 1.77695 0
M  V30 21887 O 2012.32 -3.20616 1.55189 0
M  V30 21888 O 2011.18 -5.02334 2.15228 0
M  V30 21889 H 2008.28 -0.773463 0.292718 0
M  V30 21890 H 2010.82 -1.16294 1.23587 0
M  V30 21891 H 2009.6 -2.9138 2.61177 0
M  V30 21892 H 2009.22 -3.80679 1.14758 0
M  V30 21893 N 2010.22 -0.924476 -1.27637 0
M  V30 21894 C 2011.47 -0.559056 -1.93797 0
M  V30 21895 C 2011.78 0.903501 -1.73483 0
M  V30 21896 O 2012.98 1.37756 -2.33956 0
M  V30 21897 C 2011.44 -0.949035 -3.47162 0
M  V30 21898 C 2011.05 -2.43205 -3.76238 0
M  V30 21899 C 2012.79 -0.654714 -4.19421 0
M  V30 21900 C 2010.7 -2.7616 -5.22962 0
M  V30 21901 H 2009.63 -0.205363 -0.725494 0
M  V30 21902 H 2012.28 -1.12485 -1.4498 0
M  V30 21903 H 2010.66 -0.311922 -3.9477 0
M  V30 21904 H 2011.84 -3.1168 -3.39399 0
M  V30 21905 H 2010.15 -2.69794 -3.17176 0
M  V30 21906 H 2012.75 -0.877465 -5.27451 0
M  V30 21907 H 2013.09 0.407944 -4.14296 0
M  V30 21908 H 2013.62 -1.25078 -3.77625 0
M  V30 21909 H 2010.36 -3.81322 -5.33173 0
M  V30 21910 H 2009.88 -2.12332 -5.60959 0
M  V30 21911 H 2011.56 -2.63732 -5.90808 0
M  V30 21912 N 2011.69 1.41711 -0.689627 0
M  V30 21913 C 2013.11 1.55473 -0.360597 0
M  V30 21914 C 2013.31 1.66635 1.13292 0
M  V30 21915 O 2012.37 1.64148 1.91864 0
M  V30 21916 C 2013.68 2.79704 -1.10392 0
M  V30 21917 C 2015.23 2.93494 -1.08768 0
M  V30 21918 C 2015.7 4.20604 -1.81263 0
M  V30 21919 N 2017.19 4.27549 -1.78203 0
M  V30 21920 C 2017.93 5.24749 -2.3114 0
M  V30 21921 N 2017.42 6.28015 -2.92522 0
M  V30 21922 N 2019.22 5.16648 -2.21429 0
M  V30 21923 H 2011.37 1.3271 -1.65837 0
M  V30 21924 H 2013.63 0.639848 -0.699499 0
M  V30 21925 H 2013.34 2.77645 -2.15885 0
M  V30 21926 H 2013.21 3.71044 -0.678662 0
M  V30 21927 H 2015.6 2.95071 -0.0410356 0
M  V30 21928 H 2015.68 2.03343 -1.55195 0
M  V30 21929 H 2015.32 4.19788 -2.85904 0
M  V30 21930 H 2015.25 5.09716 -1.32275 0
M  V30 21931 H 2017.74 3.53555 -1.33445 0
M  V30 21932 H 2018.06 6.98563 -3.30498 0
M  V30 21933 H 2016.4 6.28534 -2.96598 0
M  V30 21934 H 2019.59 4.34898 -1.73152 0
M  V30 21935 H 2019.77 5.92234 -2.62989 0
M  V30 21936 N 2013.17 0.433965 1.51507 0
M  V30 21937 C 2014.1 -0.369789 2.30553 0
M  V30 21938 C 2015.08 -1.02405 1.35821 0
M  V30 21939 O 2016.27 -1.02833 1.64739 0
M  V30 21940 C 2013.4 -1.47312 3.1451 0
M  V30 21941 C 2012.35 -0.942531 4.17493 0
M  V30 21942 C 2011.68 -2.14135 4.89949 0
M  V30 21943 C 2012.98 0.0206958 5.22296 0
M  V30 21944 H 2014.67 0.289851 2.97994 0
M  V30 21945 H 2012.22 0.14084 1.4331 0
M  V30 21946 H 2014.17 -2.04259 3.68587 0
M  V30 21947 H 2012.9 -2.161 2.44884 0
M  V30 21948 H 2011.55 -0.395296 3.64463 0
M  V30 21949 H 2011.2 -2.81535 4.1683 0
M  V30 21950 H 2010.9 -1.79273 5.59584 0
M  V30 21951 H 2012.43 -2.71642 5.46848 0
M  V30 21952 H 2013.84 -0.458366 5.71465 0
M  V30 21953 H 2012.24 0.281718 5.99438 0
M  V30 21954 H 2013.31 0.958416 4.75334 0
M  V30 21955 N 2014.65 -1.56732 0.165206 0
M  V30 21956 C 2016.07 -1.58453 -0.191031 0
M  V30 21957 C 2016.27 -1.1803 -1.63313 0
M  V30 21958 O 2015.32 -0.889055 -2.3633 0
M  V30 21959 C 2016.64 -3.00582 0.0842414 0
M  V30 21960 C 2018.18 -3.12992 0.0219686 0
M  V30 21961 C 2018.66 -4.57203 0.270149 0
M  V30 21962 N 2020.15 -4.62688 0.217711 0
M  V30 21963 C 2020.88 -5.72113 0.383998 0
M  V30 21964 N 2020.38 -6.90118 0.609007 0
M  V30 21965 N 2022.17 -5.61187 0.320329 0
M  V30 21966 H 2014.32 -1.81296 1.1066 0
M  V30 21967 H 2016.59 -0.839986 0.439463 0
M  V30 21968 H 2016.29 -3.3461 1.083 0
M  V30 21969 H 2016.17 -3.71954 -0.62693 0
M  V30 21970 H 2018.55 -2.78794 -0.967358 0
M  V30 21971 H 2018.64 -2.44069 0.765755 0
M  V30 21972 H 2018.28 -4.92108 1.25666 0
M  V30 21973 H 2018.21 -5.24276 -0.494177 0
M  V30 21974 H 2020.7 -3.77868 0.0491965 0
M  V30 21975 H 2021.01 -7.69387 0.725507 0
M  V30 21976 H 2019.36 -6.91995 0.645549 0
M  V30 21977 H 2022.55 -4.67875 0.145176 0
M  V30 21978 H 2022.72 -6.46412 0.453351 0
M  V30 21979 N 2016.13 0.10854 -1.57226 0
M  V30 21980 C 2017.54 0.664549 -1.74472 0
M  V30 21981 C 2017.89 1.79792 -0.785438 0
M  V30 21982 O 2017.02 2.16364 0.0392281 0
M  V30 21983 C 2017.61 1.21227 -3.16369 0
M  V30 21984 C 2016.17 1.71447 -3.35086 0
M  V30 21985 C 2015.32 0.618471 -2.70315 0
M  V30 21986 H 2018.27 -0.11745 -1.58265 0
M  V30 21987 H 2018.29 2.08181 -3.18498 0
M  V30 21988 H 2017.8 0.387164 -3.86164 0
M  V30 21989 H 2015.9 2.56402 -2.7035 0
M  V30 21990 H 2016.01 1.81672 -4.4332 0
M  V30 21991 H 2014.38 1.05465 -2.31839 0
M  V30 21992 H 2015.16 -0.195832 -3.42741 0
M  V30 21993 N 2017.61 1.52975 0.379009 0
M  V30 21994 C 2018.85 1.68172 1.12082 0
M  V30 21995 C 2019.18 0.429215 1.90218 0
M  V30 21996 O 2018.45 -0.556561 1.87828 0
M  V30 21997 H 2017.03 0.619935 0.416761 0
M  V30 21998 H 2019.69 1.90123 0.428883 0
M  V30 21999 H 2018.78 2.53672 1.81815 0
M  V30 22000 N 2019.08 -0.63804 1.44107 0
M  V30 22001 C 2020.36 -1.39606 1.37002 0
M  V30 22002 C 2020.74 -2.11085 0.0252978 0
M  V30 22003 O 2020.09 -2.0585 -0.991871 0
M  V30 22004 C 2020.3 -2.3682 2.56353 0
M  V30 22005 C 2021.65 -3.00362 3.00113 0
M  V30 22006 O 2022.67 -2.47147 2.56509 0
M  V30 22007 O 2021.53 -3.96881 3.75696 0
M  V30 22008 H 2018.62 -0.624471 0.542186 0
M  V30 22009 H 2021.17 -0.663674 1.56184 0
M  V30 22010 H 2019.94 -1.83054 3.45842 0
M  V30 22011 H 2019.57 -3.17487 2.39349 0
M  V30 22012 N 2020.56 -1.3089 -0.877815 0
M  V30 22013 C 2021.81 -1.20125 -1.63022 0
M  V30 22014 C 2022.14 0.242414 -1.92983 0
M  V30 22015 O 2021.39 1.18896 -1.55442 0
M  V30 22016 C 2021.69 -1.98261 -2.97367 0
M  V30 22017 C 2021.36 -3.47825 -2.8693 0
M  V30 22018 C 2020.02 -3.88608 -2.8379 0
M  V30 22019 C 2022.37 -4.43035 -2.74535 0
M  V30 22020 C 2019.7 -5.22882 -2.66104 0
M  V30 22021 C 2022.05 -5.77425 -2.58386 0
M  V30 22022 C 2020.72 -6.17439 -2.53625 0
M  V30 22023 H 2019.99 -0.439569 -0.59654 0
M  V30 22024 H 2022.63 -1.6207 -1.02007 0
M  V30 22025 H 2020.94 -1.48972 -3.62373 0
M  V30 22026 H 2022.63 -1.87319 -3.5456 0
M  V30 22027 H 2019.22 -3.1542 -2.90187 0
M  V30 22028 H 2023.41 -4.12463 -2.76021 0
M  V30 22029 H 2018.66 -5.52968 -2.60837 0
M  V30 22030 H 2022.84 -6.50833 -2.4777 0
M  V30 22031 H 2020.47 -7.21428 -2.39679 0
M  V30 22032 N 2022.04 1.0911 -1.13723 0
M  V30 22033 C 2022.95 2.19388 -0.831037 0
M  V30 22034 C 2023.97 1.73007 0.185658 0
M  V30 22035 O 2025.14 2.01394 0.015917 0
M  V30 22036 C 2022.21 3.45355 -0.305036 0
M  V30 22037 C 2021.27 4.064 -1.38338 0
M  V30 22038 C 2020.5 5.26355 -0.882388 0
M  V30 22039 O 2020.72 5.69718 0.278833 0
M  V30 22040 O 2019.66 5.78609 -1.65816 0
M  V30 22041 H 2023.48 2.48037 -1.75246 0
M  V30 22042 H 2021.07 1.18108 -0.91493 0
M  V30 22043 H 2022.95 4.21396 -0.0172636 0
M  V30 22044 H 2021.63 3.18301 0.588762 0
M  V30 22045 H 2020.53 3.31981 -1.72452 0
M  V30 22046 H 2021.87 4.37688 -2.25144 0
M  V30 22047 N 2023.52 0.931232 1.27145 0
M  V30 22048 C 2024.74 0.589393 1.98849 0
M  V30 22049 C 2025.17 -0.82637 1.68976 0
M  V30 22050 O 2024.53 -1.55507 0.93205 0
M  V30 22051 C 2024.57 0.826135 3.51009 0
M  V30 22052 O 2023.68 -0.106581 4.12262 0
M  V30 22053 H 2023.02 0.226532 0.624163 0
M  V30 22054 H 2025.55 1.25145 1.61864 0
M  V30 22055 H 2025.56 0.743094 4.01176 0
M  V30 22056 H 2024.23 1.85812 3.72084 0
M  V30 22057 H 2022.81 0.0266735 3.7289 0
M  V30 22058 N 2025 -1.41343 0.697132 0
M  V30 22059 C 2025.93 -2.33452 0.0471857 0
M  V30 22060 C 2026.91 -1.51902 -0.765488 0
M  V30 22061 O 2028.09 -1.80434 -0.718146 0
M  V30 22062 C 2025.22 -3.35735 -0.888781 0
M  V30 22063 C 2024.18 -4.27608 -0.183088 0
M  V30 22064 C 2023.5 -5.20277 -1.23352 0
M  V30 22065 C 2024.8 -5.13559 0.951558 0
M  V30 22066 H 2026.5 -2.88052 0.816496 0
M  V30 22067 H 2024.04 -1.38502 0.394089 0
M  V30 22068 H 2026 -3.99098 -1.35272 0
M  V30 22069 H 2024.72 -2.79489 -1.68977 0
M  V30 22070 H 2023.38 -3.65671 0.260833 0
M  V30 22071 H 2023.03 -4.60346 -2.02708 0
M  V30 22072 H 2022.73 -5.82581 -0.766336 0
M  V30 22073 H 2024.25 -5.86517 -1.69793 0
M  V30 22074 H 2025.67 -5.70481 0.567835 0
M  V30 22075 H 2024.06 -5.84812 1.34593 0
M  V30 22076 H 2025.13 -4.50631 1.79053 0
M  V30 22077 N 2026.48 -0.441993 -1.51275 0
M  V30 22078 C 2027.7 0.123815 -2.0703 0
M  V30 22079 C 2028.13 1.35293 -1.30681 0
M  V30 22080 O 2027.48 1.77966 -0.346072 0
M  V30 22081 C 2027.53 0.419988 -3.58146 0
M  V30 22082 O 2026.64 1.50565 -3.83932 0
M  V30 22083 H 2025.98 -0.00017643 -0.664 0
M  V30 22084 H 2028.51 -0.624668 -1.94831 0
M  V30 22085 H 2028.52 0.66908 -4.02476 0
M  V30 22086 H 2027.19 -0.478329 -4.1314 0
M  V30 22087 H 2025.77 1.24615 -3.51462 0
M  V30 22088 N 2027.95 1.56642 -0.173515 0
M  V30 22089 C 2029.2 1.9656 0.469943 0
M  V30 22090 C 2029.52 1.06067 1.6363 0
M  V30 22091 O 2028.79 0.127477 1.95485 0
M  V30 22092 H 2027.37 0.725824 0.176604 0
M  V30 22093 H 2030.03 1.93222 -0.255212 0
M  V30 22094 H 2029.13 3.00903 0.828491 0
M  V30 22095 N 2029.43 -0.1002 1.57281 0
M  V30 22096 C 2030.85 -0.454271 1.52998 0
M  V30 22097 C 2031.05 -1.80807 0.889451 0
M  V30 22098 O 2030.1 -2.479 0.479781 0
M  V30 22099 C 2031.42 -0.421457 2.97732 0
M  V30 22100 C 2032.96 -0.503676 3.08921 0
M  V30 22101 C 2033.44 -0.501062 4.55251 0
M  V30 22102 N 2034.93 -0.561964 4.59778 0
M  V30 22103 C 2035.67 -0.581696 5.70442 0
M  V30 22104 N 2035.16 -0.557942 6.9055 0
M  V30 22105 N 2036.95 -0.626123 5.58602 0
M  V30 22106 H 2029.11 0.786609 1.97297 0
M  V30 22107 H 2031.37 0.292244 0.90183 0
M  V30 22108 H 2031.07 0.506016 3.48041 0
M  V30 22109 H 2030.95 -1.24233 3.56154 0
M  V30 22110 H 2033.34 -1.42157 2.58603 0
M  V30 22111 H 2033.42 0.345241 2.5346 0
M  V30 22112 H 2033.06 0.412865 5.06219 0
M  V30 22113 H 2032.99 -1.36712 5.08544 0
M  V30 22114 H 2035.48 -0.585723 3.73333 0
M  V30 22115 H 2035.79 -0.576141 7.70649 0
M  V30 22116 H 2034.14 -0.52507 6.93014 0
M  V30 22117 H 2037.33 -0.642175 4.63674 0
M  V30 22118 H 2037.5 -0.638033 6.44851 0
M  V30 22119 N 2030.91 -1.53174 -0.370891 0
M  V30 22120 C 2031.82 -1.82187 -1.478 0
M  V30 22121 C 2032.84 -0.70987 -1.58861 0
M  V30 22122 O 2034.01 -0.999372 -1.74856 0
M  V30 22123 C 2031.08 -2.00097 -2.83129 0
M  V30 22124 C 2030.14 -3.24002 -2.8164 0
M  V30 22125 C 2029.37 -3.41048 -4.10514 0
M  V30 22126 O 2029.59 -2.62503 -5.06407 0
M  V30 22127 O 2028.53 -4.34381 -4.16649 0
M  V30 22128 H 2032.35 -2.76234 -1.26207 0
M  V30 22129 H 2029.94 -1.38488 -0.560483 0
M  V30 22130 H 2031.82 -2.13479 -3.63324 0
M  V30 22131 H 2030.5 -1.0924 -3.0471 0
M  V30 22132 H 2029.4 -3.16048 -2.00162 0
M  V30 22133 H 2030.74 -4.14764 -2.65012 0
M  V30 22134 N 2032.39 0.630389 -1.44443 0
M  V30 22135 C 2033.33 1.74232 -1.51367 0
M  V30 22136 C 2034.3 1.62122 -0.361324 0
M  V30 22137 O 2035.49 1.82035 -0.571662 0
M  V30 22138 C 2032.63 3.12481 -1.46457 0
M  V30 22139 C 2031.74 3.35561 -2.72071 0
M  V30 22140 C 2030.88 4.63787 -2.58989 0
M  V30 22141 C 2029.92 4.80048 -3.79764 0
M  V30 22142 N 2029.05 5.99551 -3.65354 0
M  V30 22143 H 2033.89 1.6765 -2.46368 0
M  V30 22144 H 2031.43 0.817807 -1.22272 0
M  V30 22145 H 2033.39 3.92435 -1.41601 0
M  V30 22146 H 2032.02 3.18076 -0.550216 0
M  V30 22147 H 2031.07 2.49543 -2.8711 0
M  V30 22148 H 2032.38 3.43456 -3.61717 0
M  V30 22149 H 2031.54 5.51902 -2.51971 0
M  V30 22150 H 2030.28 4.58251 -1.66905 0
M  V30 22151 H 2029.28 3.90362 -3.87166 0
M  V30 22152 H 2030.51 4.87397 -4.72886 0
M  V30 22153 H 2028.45 5.95104 -2.76021 0
M  V30 22154 H 2028.37 6.08505 -4.48617 0
M  V30 22155 H 2029.64 6.90226 -3.62228 0
M  V30 22156 N 2033.87 1.31354 0.870861 0
M  V30 22157 C 2035.09 1.24082 1.66188 0
M  V30 22158 C 2035.52 -0.190886 1.87129 0
M  V30 22159 O 2034.87 -1.13669 1.41241 0
M  V30 22160 C 2034.92 1.98926 3.00767 0
M  V30 22161 O 2034.03 1.32599 3.90501 0
M  V30 22162 H 2033.37 0.428443 0.50728 0
M  V30 22163 H 2035.9 1.73408 1.08586 0
M  V30 22164 H 2035.91 2.08487 3.5071 0
M  V30 22165 H 2034.58 3.03044 2.84846 0
M  V30 22166 H 2033.16 1.31483 3.48951 0
M  V30 22167 N 2035.34 -1.08505 1.143 0
M  V30 22168 C 2036.29 -2.13593 0.797635 0
M  V30 22169 C 2037.28 -1.59488 -0.212729 0
M  V30 22170 O 2038.47 -1.76993 -0.0152218 0
M  V30 22171 C 2035.6 -3.42191 0.275716 0
M  V30 22172 C 2034.68 -4.0318 1.31554 0
M  V30 22173 N 2035.08 -4.38591 2.51936 0
M  V30 22174 C 2033.37 -4.30501 1.16553 0
M  V30 22175 C 2034.07 -4.86762 3.18494 0
M  V30 22176 N 2033.05 -4.84804 2.45898 0
M  V30 22177 H 2036.85 -2.38788 1.7134 0
M  V30 22178 H 2034.37 -1.25827 1.02671 0
M  V30 22179 H 2036.36 -4.16899 0.0100056 0
M  V30 22180 H 2035.02 -3.18445 -0.634256 0
M  V30 22181 H 2036.03 -4.29651 2.89171 0
M  V30 22182 H 2032.71 -4.16314 0.314497 0
M  V30 22183 H 2034.1 -5.23548 4.21126 0
M  V30 22184 N 2036.82 -0.937962 -1.26649 0
M  V30 22185 C 2037.77 -0.415938 -2.24174 0
M  V30 22186 C 2038.76 0.48554 -1.53399 0
M  V30 22187 O 2039.95 0.321311 -1.74059 0
M  V30 22188 C 2037.08 0.320667 -3.41799 0
M  V30 22189 C 2036.16 -0.597918 -4.19864 0
M  V30 22190 N 2036.55 -1.72229 -4.75574 0
M  V30 22191 C 2034.85 -0.402885 -4.44177 0
M  V30 22192 C 2035.55 -2.29445 -5.34537 0
M  V30 22193 N 2034.53 -1.58284 -5.20045 0
M  V30 22194 H 2038.33 -1.27428 -2.64838 0
M  V30 22195 H 2035.84 -0.793447 -1.41698 0
M  V30 22196 H 2037.84 0.711663 -4.10781 0
M  V30 22197 H 2036.5 1.17581 -3.02663 0
M  V30 22198 H 2037.51 -2.10449 -4.73214 0
M  V30 22199 H 2034.19 0.410754 -4.15474 0
M  V30 22200 H 2035.58 -3.24162 -5.88531 0
M  V30 22201 N 2038.3 1.40971 -0.704618 0
M  V30 22202 C 2039.55 2.00309 -0.236478 0
M  V30 22203 C 2039.86 1.56482 1.17358 0
M  V30 22204 O 2041.07 2.08442 1.73966 0
M  V30 22205 C 2039.52 3.57974 -0.371877 0
M  V30 22206 C 2039.13 4.10779 -1.78788 0
M  V30 22207 C 2040.88 4.24485 0.0360284 0
M  V30 22208 C 2038.78 5.60909 -1.87445 0
M  V30 22209 H 2037.71 0.749233 -0.0846557 0
M  V30 22210 H 2040.36 1.61342 -0.874125 0
M  V30 22211 H 2038.75 3.94587 0.334172 0
M  V30 22212 H 2039.92 3.85565 -2.52342 0
M  V30 22213 H 2038.23 3.56826 -2.14626 0
M  V30 22214 H 2040.83 5.34699 -0.00808813 0
M  V30 22215 H 2041.17 4.02149 1.07621 0
M  V30 22216 H 2041.71 3.92938 -0.620069 0
M  V30 22217 H 2038.45 5.88084 -2.89546 0
M  V30 22218 H 2037.97 5.88021 -1.18287 0
M  V30 22219 H 2039.65 6.25831 -1.6415 0
M  V30 22220 N 2039.78 0.45001 1.51039 0
M  V30 22221 C 2041.03 -0.111969 2.0179 0
M  V30 22222 C 2041.35 -1.42098 1.33541 0
M  V30 22223 O 2040.62 -1.9008 0.473962 0
M  V30 22224 H 2039.2 -0.0443688 0.745681 0
M  V30 22225 H 2041.86 0.595615 1.85576 0
M  V30 22226 H 2040.96 -0.278742 3.10853 0
M  V30 22227 N 2041.26 -1.56548 0.18182 0
M  V30 22228 C 2042.48 -2.02015 -0.469543 0
M  V30 22229 C 2042.91 -1.06119 -1.55307 0
M  V30 22230 O 2042.26 -0.0424595 -1.8125 0
M  V30 22231 C 2042.31 -3.46016 -1.01515 0
M  V30 22232 O 2041.42 -3.53215 -2.12869 0
M  V30 22233 H 2040.76 -0.65461 -0.111273 0
M  V30 22234 H 2043.29 -2.02552 0.288798 0
M  V30 22235 H 2043.3 -3.85537 -1.33511 0
M  V30 22236 H 2041.97 -4.15308 -0.22188 0
M  V30 22237 H 2040.55 -3.2556 -1.81838 0
M  V30 22238 N 2042.73 0.0918577 -1.57332 0
M  V30 22239 C 2043.7 1.09546 -2.01326 0
M  V30 22240 C 2044.7 1.32761 -0.907252 0
M  V30 22241 O 2045.89 1.2882 -1.17265 0
M  V30 22242 C 2043.02 2.44385 -2.37674 0
M  V30 22243 H 2044.21 0.71671 -2.9121 0
M  V30 22244 H 2041.77 0.337001 -1.52624 0
M  V30 22245 H 2042.5 2.8713 -1.50755 0
M  V30 22246 H 2042.29 2.28882 -3.18364 0
M  V30 22247 H 2043.78 3.16562 -2.72357 0
M  V30 22248 N 2044.21 1.53368 0.362763 0
M  V30 22249 C 2045.14 1.76293 1.4647 0
M  V30 22250 C 2046.16 0.643758 1.49531 0
M  V30 22251 O 2047.35 0.920081 1.5296 0
M  V30 22252 C 2044.45 1.83034 2.85222 0
M  V30 22253 C 2043.62 3.12714 3.05825 0
M  V30 22254 C 2042.68 3.1066 4.24708 0
M  V30 22255 O 2041.7 3.84449 4.19747 0
M  V30 22256 N 2042.91 2.31677 5.32265 0
M  V30 22257 H 2045.67 2.71376 1.27183 0
M  V30 22258 H 2043.23 1.52181 0.552508 0
M  V30 22259 H 2045.22 1.79134 3.62895 0
M  V30 22260 H 2043.79 0.952227 2.97744 0
M  V30 22261 H 2043.01 3.29893 2.15788 0
M  V30 22262 H 2044.3 3.98409 3.16461 0
M  V30 22263 H 2043.7 1.71243 5.39159 0
M  V30 22264 H 2042.26 2.33593 6.08504 0
M  V30 22265 N 2045.69 -0.62272 1.44776 0
M  V30 22266 C 2046.94 -1.37937 1.47708 0
M  V30 22267 C 2047.26 -1.94665 0.114186 0
M  V30 22268 O 2046.53 -1.76277 -0.854583 0
M  V30 22269 H 2045.11 -0.512023 0.543914 0
M  V30 22270 H 2047.77 -0.732336 1.80618 0
M  V30 22271 H 2046.87 -2.20646 2.2073 0
M  V30 22272 N 2047.17 -1.31814 -0.863883 0
M  V30 22273 C 2048.1 -1.22574 -1.98741 0
M  V30 22274 C 2049.08 -0.111585 -1.69734 0
M  V30 22275 O 2050.26 -0.29721 -1.91912 0
M  V30 22276 C 2047.39 -0.938559 -3.34378 0
M  V30 22277 C 2046.35 -2.01295 -3.7771 0
M  V30 22278 C 2045.67 -1.57834 -5.10874 0
M  V30 22279 C 2046.97 -3.42684 -3.94164 0
M  V30 22280 H 2048.67 -2.16572 -2.06729 0
M  V30 22281 H 2046.21 -1.04262 -0.993246 0
M  V30 22282 H 2048.17 -0.860501 -4.12521 0
M  V30 22283 H 2046.89 0.0370783 -3.26579 0
M  V30 22284 H 2045.55 -2.081 -3.01811 0
M  V30 22285 H 2045.2 -0.5904 -4.99523 0
M  V30 22286 H 2044.9 -2.29713 -5.40838 0
M  V30 22287 H 2046.42 -1.51448 -5.9152 0
M  V30 22288 H 2047.84 -3.38519 -4.62685 0
M  V30 22289 H 2046.23 -4.12833 -4.35533 0
M  V30 22290 H 2047.3 -3.83023 -2.97358 0
M  V30 22291 N 2048.65 1.07897 -1.14873 0
M  V30 22292 C 2049.58 2.16955 -0.863287 0
M  V30 22293 C 2050.56 1.69103 0.183853 0
M  V30 22294 O 2051.74 1.9416 0.0394136 0
M  V30 22295 C 2048.87 3.45575 -0.345696 0
M  V30 22296 C 2047.83 4.06847 -1.32888 0
M  V30 22297 C 2047.15 5.30481 -0.670367 0
M  V30 22298 C 2048.45 4.47523 -2.69296 0
M  V30 22299 H 2050.15 2.41091 -1.77526 0
M  V30 22300 H 2047.69 1.1587 -0.854991 0
M  V30 22301 H 2049.65 4.21188 -0.133575 0
M  V30 22302 H 2048.37 3.21009 0.601722 0
M  V30 22303 H 2047.03 3.33272 -1.52726 0
M  V30 22304 H 2046.68 5.02203 0.283023 0
M  V30 22305 H 2046.38 5.72433 -1.32645 0
M  V30 22306 H 2047.9 6.08805 -0.467891 0
M  V30 22307 H 2049.31 5.1429 -2.53335 0
M  V30 22308 H 2047.71 5.00409 -3.31226 0
M  V30 22309 H 2048.78 3.59159 -3.2578 0
M  V30 22310 N 2050.12 0.944665 1.2615 0
M  V30 22311 C 2051.35 0.61007 1.97387 0
M  V30 22312 C 2051.76 -0.819956 1.70509 0
M  V30 22313 O 2051.11 -1.55879 0.971982 0
M  V30 22314 C 2051.17 0.776673 3.5101 0
M  V30 22315 C 2050.83 2.18198 4.01545 0
M  V30 22316 C 2051.83 3.15777 4.13014 0
M  V30 22317 C 2049.51 2.5035 4.35466 0
M  V30 22318 C 2051.51 4.43607 4.57703 0
M  V30 22319 C 2049.19 3.7841 4.79842 0
M  V30 22320 C 2050.19 4.74852 4.90922 0
M  V30 22321 O 2049.88 6.00632 5.34319 0
M  V30 22322 H 2049.61 0.228468 0.636222 0
M  V30 22323 H 2052.17 1.26867 1.61536 0
M  V30 22324 H 2050.4 0.0609398 3.86652 0
M  V30 22325 H 2052.09 0.44462 4.03457 0
M  V30 22326 H 2052.85 2.92263 3.8705 0
M  V30 22327 H 2048.73 1.76017 4.26074 0
M  V30 22328 H 2052.27 5.18885 4.66266 0
M  V30 22329 H 2048.17 4.01736 5.05251 0
M  V30 22330 H 2048.94 6.03864 5.52531 0
M  V30 22331 N 2051.6 -1.40596 0.712085 0
M  V30 22332 C 2052.83 -2.05787 0.258197 0
M  V30 22333 C 2053.25 -1.53289 -1.09015 0
M  V30 22334 O 2052.61 -0.666771 -1.68594 0
M  V30 22335 C 2052.66 -3.59771 0.244357 0
M  V30 22336 O 2051.76 -4.05042 -0.77555 0
M  V30 22337 H 2051.1 -0.652692 0.12202 0
M  V30 22338 H 2053.63 -1.80059 0.971583 0
M  V30 22339 H 2053.64 -4.0792 0.0808437 0
M  V30 22340 H 2052.32 -3.97347 1.22834 0
M  V30 22341 H 2050.9 -3.68361 -0.580045 0
M  V30 22342 N 2053.08 -0.458013 -1.50798 0
M  V30 22343 C 2054.33 0.10308 -2.01436 0
M  V30 22344 C 2054.64 1.41957 -1.34564 0
M  V30 22345 O 2055.85 2.06484 -1.76286 0
M  V30 22346 C 2054.3 0.234229 -3.59137 0
M  V30 22347 C 2053.91 -1.07305 -4.34959 0
M  V30 22348 C 2055.66 0.747982 -4.17858 0
M  V30 22349 C 2053.56 -0.906414 -5.84413 0
M  V30 22350 H 2052.49 0.0422981 -0.752813 0
M  V30 22351 H 2055.14 -0.590924 -1.73725 0
M  V30 22352 H 2053.53 0.991716 -3.83381 0
M  V30 22353 H 2054.7 -1.84048 -4.22449 0
M  V30 22354 H 2053.02 -1.51691 -3.87787 0
M  V30 22355 H 2055.61 0.889478 -5.2725 0
M  V30 22356 H 2055.96 1.73592 -3.7838 0
M  V30 22357 H 2056.49 0.048243 -3.97771 0
M  V30 22358 H 2053.23 -1.86733 -6.2834 0
M  V30 22359 H 2052.75 -0.179147 -5.99532 0
M  V30 22360 H 2054.43 -0.567802 -6.44504 0
M  V30 22361 N 2054.56 1.56449 -0.190119 0
M  V30 22362 C 2055.49 2.21861 0.728019 0
M  V30 22363 C 2056.47 1.18012 1.22504 0
M  V30 22364 O 2057.66 1.46503 1.27478 0
M  V30 22365 C 2054.79 2.87407 1.94973 0
M  V30 22366 C 2053.74 3.97457 1.58782 0
M  V30 22367 C 2053.07 4.50144 2.88573 0
M  V30 22368 C 2054.37 5.16113 0.801535 0
M  V30 22369 H 2056.06 2.98842 0.182734 0
M  V30 22370 H 2053.61 1.4374 0.0864508 0
M  V30 22371 H 2055.56 3.31848 2.59721 0
M  V30 22372 H 2054.28 2.07824 2.51946 0
M  V30 22373 H 2052.94 3.537 0.96395 0
M  V30 22374 H 2052.59 3.67328 3.43626 0
M  V30 22375 H 2052.29 5.24398 2.65105 0
M  V30 22376 H 2053.81 4.97283 3.54318 0
M  V30 22377 H 2055.23 5.5713 1.35201 0
M  V30 22378 H 2053.62 5.96402 0.66517 0
M  V30 22379 H 2054.69 4.84494 -0.198407 0
M  V30 22380 N 2056.04 -0.0835127 1.57379 0
M  V30 22381 C 2057.28 -0.786031 1.86948 0
M  V30 22382 C 2057.62 -1.77811 0.780828 0
M  V30 22383 O 2056.89 -1.93362 -0.210075 0
M  V30 22384 C 2057.17 -1.50447 3.27166 0
M  V30 22385 C 2057.03 -0.529601 4.46671 0
M  V30 22386 C 2058.35 -2.45226 3.65448 0
M  V30 22387 H 2055.47 -0.284294 0.67996 0
M  V30 22388 H 2058.11 -0.0494231 1.89936 0
M  V30 22389 H 2056.26 -2.13237 3.24749 0
M  V30 22390 H 2057.93 0.0921842 4.61208 0
M  V30 22391 H 2056.17 0.156069 4.33519 0
M  V30 22392 H 2056.84 -1.06967 5.41537 0
M  V30 22393 H 2059.32 -1.92521 3.68883 0
M  V30 22394 H 2058.2 -2.92505 4.6447 0
M  V30 22395 H 2058.46 -3.29506 2.94751 0
M  V30 22396 N 2057.52 -1.53558 -0.354624 0
M  V30 22397 C 2058.48 -1.80084 -1.41783 0
M  V30 22398 C 2059.48 -0.671552 -1.46105 0
M  V30 22399 O 2060.67 -0.939801 -1.46674 0
M  V30 22400 C 2057.8 -1.93284 -2.8081 0
M  V30 22401 H 2058.99 -2.75049 -1.19532 0
M  V30 22402 H 2056.55 -1.44802 -0.588388 0
M  V30 22403 H 2057.28 -1.00423 -3.0836 0
M  V30 22404 H 2057.07 -2.75432 -2.7907 0
M  V30 22405 H 2058.56 -2.15361 -3.57784 0
M  V30 22406 N 2058.99 0.615033 -1.45104 0
M  V30 22407 C 2060.24 1.37029 -1.48007 0
M  V30 22408 C 2060.56 1.95213 -0.122939 0
M  V30 22409 O 2061.76 2.71484 -0.0295763 0
M  V30 22410 C 2060.22 2.48178 -2.60645 0
M  V30 22411 C 2059.83 1.96437 -4.02637 0
M  V30 22412 C 2061.57 3.25251 -2.72786 0
M  V30 22413 C 2059.48 3.05024 -5.0667 0
M  V30 22414 H 2058.41 0.515004 -0.550715 0
M  V30 22415 H 2061.06 0.659974 -1.71221 0
M  V30 22416 H 2059.44 3.2186 -2.307 0
M  V30 22417 H 2060.61 1.29514 -4.42225 0
M  V30 22418 H 2058.93 1.32132 -3.9488 0
M  V30 22419 H 2061.53 4.06229 -3.47681 0
M  V30 22420 H 2061.87 3.75776 -1.7916 0
M  V30 22421 H 2062.4 2.58666 -3.0222 0
M  V30 22422 H 2059.14 2.59425 -6.01979 0
M  V30 22423 H 2058.66 3.70538 -4.71658 0
M  V30 22424 H 2060.34 3.69532 -5.31089 0
M  V30 22425 N 2060.47 1.3227 0.85688 0
M  V30 22426 C 2061.42 1.17604 1.95329 0
M  V30 22427 C 2062.41 0.0835503 1.60683 0
M  V30 22428 O 2063.6 0.309827 1.74267 0
M  V30 22429 C 2060.73 0.89897 3.31321 0
M  V30 22430 C 2059.81 2.03306 3.72193 0
M  V30 22431 N 2060.2 3.28141 3.84911 0
M  V30 22432 C 2058.5 1.93573 4.01803 0
M  V30 22433 C 2059.2 4.02408 4.20051 0
M  V30 22434 N 2058.18 3.30686 4.31448 0
M  V30 22435 H 2061.98 2.12249 2.03292 0
M  V30 22436 H 2059.49 1.24017 1.0485 0
M  V30 22437 H 2061.49 0.774863 4.09636 0
M  V30 22438 H 2060.15 -0.0391247 3.24676 0
M  V30 22439 H 2061.16 3.63104 3.69291 0
M  V30 22440 H 2057.84 1.07311 4.03473 0
M  V30 22441 H 2059.23 5.10048 4.37379 0
M  V30 22442 N 2061.95 -1.07287 1.15444 0
M  V30 22443 C 2063.23 -1.76634 0.840221 0
M  V30 22444 C 2063.61 -2.00384 -0.664037 0
M  V30 22445 O 2062.95 -1.62284 -1.60861 0
M  V30 22446 C 2063.16 -3.07439 1.65174 0
M  V30 22447 C 2064.51 -3.81773 1.85835 0
M  V30 22448 O 2065.54 -3.17252 1.61955 0
M  V30 22449 O 2064.4 -4.97656 2.25834 0
M  V30 22450 H 2061.49 -0.76708 0.309059 0
M  V30 22451 H 2064.04 -1.13646 1.26026 0
M  V30 22452 H 2062.81 -2.85774 2.67299 0
M  V30 22453 H 2062.43 -3.78159 1.22807 0
M  V30 22454 N 2063.43 -0.951342 -1.25647 0
M  V30 22455 C 2064.65 -0.620954 -1.97886 0
M  V30 22456 C 2065.08 0.799383 -1.70269 0
M  V30 22457 O 2064.44 1.54005 -0.956672 0
M  V30 22458 C 2064.48 -0.881873 -3.4965 0
M  V30 22459 O 2063.59 0.0409801 -4.1238 0
M  V30 22460 H 2062.93 -0.236433 -0.62048 0
M  V30 22461 H 2065.46 -1.27704 -1.59852 0
M  V30 22462 H 2065.47 -0.806823 -3.99943 0
M  V30 22463 H 2064.14 -1.91708 -3.69081 0
M  V30 22464 H 2062.72 -0.0859938 -3.72801 0
M  V30 22465 N 2064.91 1.40216 -0.719531 0
M  V30 22466 C 2066.15 2.00418 -0.260225 0
M  V30 22467 C 2066.47 1.57349 1.15179 0
M  V30 22468 O 2065.74 0.814718 1.78155 0
M  V30 22469 H 2064.32 0.741161 -0.0932204 0
M  V30 22470 H 2066.99 1.71495 -0.926041 0
M  V30 22471 H 2066.08 3.10689 -0.29642 0
M  V30 22472 N 2066.38 0.466004 1.50553 0
M  V30 22473 C 2067.61 -0.0884484 2.06411 0
M  V30 22474 C 2068.02 -1.34509 1.33057 0
M  V30 22475 O 2067.36 -1.79472 0.391869 0
M  V30 22476 C 2067.43 -0.44758 3.56703 0
M  V30 22477 C 2067.09 0.70631 4.51509 0
M  V30 22478 C 2068.09 1.58687 4.9509 0
M  V30 22479 C 2065.77 0.895191 4.94259 0
M  V30 22480 C 2067.77 2.64076 5.80123 0
M  V30 22481 C 2065.45 1.95231 5.79075 0
M  V30 22482 C 2066.45 2.82346 6.21908 0
M  V30 22483 O 2066.14 3.86239 7.05035 0
M  V30 22484 H 2065.87 0.00147065 0.675998 0
M  V30 22485 H 2068.43 0.652308 1.94767 0
M  V30 22486 H 2066.66 -1.24145 3.66231 0
M  V30 22487 H 2068.34 -0.93652 3.94948 0
M  V30 22488 H 2069.11 1.45261 4.62736 0
M  V30 22489 H 2064.99 0.226608 4.60443 0
M  V30 22490 H 2068.53 3.32103 6.13476 0
M  V30 22491 H 2064.43 2.08666 6.10843 0
M  V30 22492 H 2065.2 3.83166 7.23275 0
M  V30 22493 N 2067.86 -1.56346 0.198413 0
M  V30 22494 C 2068.81 -2.20589 -0.737791 0
M  V30 22495 C 2069.8 -1.17807 -1.21729 0
M  V30 22496 O 2071.01 -1.35944 -1.1798 0
M  V30 22497 H 2067.38 -0.706982 -0.256282 0
M  V30 22498 H 2069.36 -2.97902 -0.172284 0
M  V30 22499 C 2068.1 -2.88187 -1.94534 0
M  V30 22500 H 2067.43 -3.6702 -1.58545 0
M  V30 22501 H 2068.87 -3.3657 -2.57869 0
M  V30 22502 C 2067.33 -1.89401 -2.7862 0
M  V30 22503 O 2067.86 -1.39638 -3.76649 0
M  V30 22504 N 2066.06 -1.57557 -2.4418 0
M  V30 22505 H 2065.61 -1.98218 -1.64521 0
M  V30 22506 H 2065.57 -0.917179 -3.00724 0
M  V30 22507 N 2069.34 0.0751653 -1.57421 0
M  V30 22508 C 2070.62 0.807768 -1.78142 0
M  V30 22509 C 2071 1.95956 -0.785139 0
M  V30 22510 O 2070.35 2.27771 0.182413 0
M  V30 22511 C 2070.56 1.28385 -3.24528 0
M  V30 22512 C 2071.9 1.71859 -3.88265 0
M  V30 22513 O 2072.93 1.3796 -3.28398 0
M  V30 22514 O 2071.79 2.3461 -4.93579 0
M  V30 22515 H 2068.88 0.386806 -0.730965 0
M  V30 22516 H 2071.43 0.0555021 -1.69609 0
M  V30 22517 H 2070.2 0.459543 -3.88592 0
M  V30 22518 H 2069.82 2.09753 -3.37771 0
M  V30 22519 N 2070.82 1.53744 0.346476 0
M  V30 22520 C 2072.07 1.70512 1.0849 0
M  V30 22521 C 2072.39 0.469467 1.89264 0
M  V30 22522 O 2071.66 -0.516594 1.88966 0
M  V30 22523 H 2070.24 0.628636 0.403517 0
M  V30 22524 H 2072.9 1.9099 0.388459 0
M  V30 22525 H 2072 2.57472 1.76394 0
M  V30 22526 N 2072.3 -0.607329 1.45428 0
M  V30 22527 C 2073.52 -1.39296 1.52984 0
M  V30 22528 C 2073.94 -1.88099 0.162539 0
M  V30 22529 O 2073.3 -1.62229 -0.835945 0
M  V30 22530 C 2073.35 -2.59727 2.51444 0
M  V30 22531 O 2073.07 -2.12952 3.82862 0
M  V30 22532 C 2074.57 -3.52583 2.68701 0
M  V30 22533 H 2071.79 -0.426391 0.518104 0
M  V30 22534 H 2074.33 -0.740646 1.90617 0
M  V30 22535 H 2072.49 -3.20999 2.16883 0
M  V30 22536 H 2072.9 -2.91201 4.36237 0
M  V30 22537 H 2074.38 -4.33629 3.4157 0
M  V30 22538 H 2074.85 -4.0294 1.74746 0
M  V30 22539 H 2075.46 -2.97163 3.0426 0
M  V30 22540 N 2073.77 -1.32722 -0.849853 0
M  V30 22541 C 2075.02 -1.22908 -1.59927 0
M  V30 22542 C 2075.34 0.206455 -1.94507 0
M  V30 22543 O 2076.54 0.426508 -2.68129 0
M  V30 22544 C 2075 -2.15292 -2.88405 0
M  V30 22545 C 2074.61 -3.63954 -2.6123 0
M  V30 22546 C 2076.35 -2.14325 -3.66422 0
M  V30 22547 C 2074.26 -4.48286 -3.85738 0
M  V30 22548 H 2073.19 -0.456463 -0.600132 0
M  V30 22549 H 2075.84 -1.57715 -0.937993 0
M  V30 22550 H 2074.22 -1.73406 -3.56015 0
M  V30 22551 H 2075.39 -4.14213 -2.01901 0
M  V30 22552 H 2073.71 -3.67101 -1.96535 0
M  V30 22553 H 2076.31 -2.74566 -4.58822 0
M  V30 22554 H 2076.65 -1.13547 -4.00516 0
M  V30 22555 H 2077.18 -2.54517 -3.05722 0
M  V30 22556 H 2073.92 -5.49897 -3.56782 0
M  V30 22557 H 2073.44 -4.02776 -4.44446 0
M  V30 22558 H 2075.12 -4.61531 -4.53429 0
M  V30 22559 N 2075.25 1.06673 -1.16011 0
M  V30 22560 C 2076.5 1.794 -0.939249 0
M  V30 22561 C 2076.83 1.87049 0.533193 0
M  V30 22562 O 2076.08 1.35544 1.4116 0
M  V30 22563 C 2076.38 3.24069 -1.50712 0
M  V30 22564 C 2076.05 3.36507 -3.00123 0
M  V30 22565 C 2074.71 3.39609 -3.4091 0
M  V30 22566 C 2077.06 3.38741 -3.96111 0
M  V30 22567 C 2074.39 3.42556 -4.76311 0
M  V30 22568 C 2076.74 3.43226 -5.31393 0
M  V30 22569 C 2075.41 3.44608 -5.71665 0
M  V30 22570 H 2074.68 0.656471 -0.343696 0
M  V30 22571 H 2077.32 1.25476 -1.44665 0
M  V30 22572 H 2075.63 3.80819 -0.921077 0
M  V30 22573 H 2077.32 3.78931 -1.31196 0
M  V30 22574 H 2073.91 3.34796 -2.676 0
M  V30 22575 H 2078.1 3.35559 -3.65669 0
M  V30 22576 H 2073.35 3.41928 -5.06848 0
M  V30 22577 H 2077.53 3.43902 -6.05561 0
M  V30 22578 H 2075.16 3.46645 -6.76566 0
M  V30 22579 N 2076.73 0.957992 1.25141 0
M  V30 22580 C 2078.14 0.65484 1.74839 0
M  V30 22581 C 2078.49 -0.829713 1.77793 0
M  V30 22582 O 2077.62 -1.6493 1.40096 0
M  V30 22583 C 2078.21 1.18197 3.17513 0
M  V30 22584 C 2076.77 0.928917 3.64758 0
M  V30 22585 C 2075.92 1.32303 2.43703 0
M  V30 22586 H 2078.87 1.13442 1.1098 0
M  V30 22587 H 2078.89 0.543641 3.76596 0
M  V30 22588 H 2078.4 2.26246 3.15332 0
M  V30 22589 H 2076.5 -0.136467 3.7235 0
M  V30 22590 H 2076.62 1.56774 4.52724 0
M  V30 22591 H 2074.98 0.741407 2.4367 0
M  V30 22592 H 2075.76 2.41281 2.4421 0
M  V30 22593 N 2078.21 -1.39832 0.726957 0
M  V30 22594 C 2079.45 -2.00971 0.271788 0
M  V30 22595 C 2079.79 -1.57537 -1.13559 0
M  V30 22596 O 2079.06 -0.800579 -1.7726 0
M  V30 22597 C 2079.35 -3.5825 0.364596 0
M  V30 22598 C 2079.2 -4.11724 1.81117 0
M  V30 22599 C 2080.52 -4.39345 -0.257652 0
M  V30 22600 H 2077.64 -0.730152 0.100232 0
M  V30 22601 H 2080.28 -1.66152 0.921599 0
M  V30 22602 H 2078.43 -3.88042 -0.18865 0
M  V30 22603 H 2080.1 -3.92684 2.42068 0
M  V30 22604 H 2078.34 -3.65585 2.33516 0
M  V30 22605 H 2079.01 -5.20873 1.82743 0
M  V30 22606 H 2081.49 -4.1555 0.213875 0
M  V30 22607 H 2080.37 -5.4866 -0.162327 0
M  V30 22608 H 2080.63 -4.21218 -1.34267 0
M  V30 22609 N 2079.69 -0.473982 -1.50304 0
M  V30 22610 C 2080.63 0.332685 -2.30209 0
M  V30 22611 C 2081.63 0.987746 -1.37622 0
M  V30 22612 O 2082.83 0.918521 -1.548 0
M  V30 22613 H 2079.21 0.126129 -0.741347 0
M  V30 22614 H 2081.18 -0.361602 -2.96201 0
M  V30 22615 C 2079.93 1.40037 -3.18253 0
M  V30 22616 H 2079.25 0.905697 -3.89406 0
M  V30 22617 H 2080.69 1.93731 -3.77153 0
M  V30 22618 C 2079.15 2.40388 -2.36041 0
M  V30 22619 O 2079.68 3.45718 -2.04553 0
M  V30 22620 N 2077.89 2.12178 -1.98567 0
M  V30 22621 H 2077.43 1.26545 -2.24375 0
M  V30 22622 H 2077.39 2.79554 -1.43864 0
M  V30 22623 N 2081.16 1.56239 -0.206702 0
M  V30 22624 C 2082.41 1.97079 0.429267 0
M  V30 22625 C 2082.73 1.09689 1.6195 0
M  V30 22626 O 2083.93 1.40363 2.32402 0
M  V30 22627 C 2082.39 3.50548 0.815111 0
M  V30 22628 C 2082 4.46619 -0.351476 0
M  V30 22629 C 2083.74 4.00133 1.41751 0
M  V30 22630 C 2081.65 5.91374 0.0559745 0
M  V30 22631 H 2080.58 0.735915 0.164151 0
M  V30 22632 H 2083.23 1.81022 -0.300562 0
M  V30 22633 H 2081.61 3.62152 1.60194 0
M  V30 22634 H 2082.78 4.46754 -1.12903 0
M  V30 22635 H 2081.1 4.07292 -0.866134 0
M  V30 22636 H 2083.7 5.05768 1.73501 0
M  V30 22637 H 2084.04 3.45116 2.3281 0
M  V30 22638 H 2084.57 3.91692 0.694423 0
M  V30 22639 H 2081.31 6.50342 -0.820723 0
M  V30 22640 H 2080.83 5.94466 0.798148 0
M  V30 22641 H 2082.51 6.45159 0.487795 0
M  V30 22642 N 2082.64 -0.0668159 1.57458 0
M  V30 22643 C 2083.87 -0.776687 1.91445 0
M  V30 22644 C 2084.28 -1.71389 0.801403 0
M  V30 22645 O 2083.62 -1.82206 -0.233788 0
M  V30 22646 C 2083.69 -1.61981 3.2094 0
M  V30 22647 C 2083.35 -0.851453 4.48998 0
M  V30 22648 C 2084.35 -0.168463 5.19627 0
M  V30 22649 C 2082.03 -0.817153 4.95609 0
M  V30 22650 C 2084.03 0.538543 6.35121 0
M  V30 22651 C 2081.71 -0.106378 6.11007 0
M  V30 22652 C 2082.71 0.570265 6.80615 0
M  V30 22653 O 2082.4 1.26958 7.93812 0
M  V30 22654 H 2082.13 -0.225698 0.63721 0
M  V30 22655 H 2084.68 -0.0398627 2.05361 0
M  V30 22656 H 2082.91 -2.39956 3.03246 0
M  V30 22657 H 2084.6 -2.20882 3.40538 0
M  V30 22658 H 2085.37 -0.186236 4.84642 0
M  V30 22659 H 2081.25 -1.33329 4.41299 0
M  V30 22660 H 2084.79 1.06725 6.89388 0
M  V30 22661 H 2080.69 -0.0865497 6.45442 0
M  V30 22662 H 2081.46 1.17936 8.09959 0
M  V30 22663 N 2084.12 -1.53926 -0.338317 0
M  V30 22664 C 2085.37 -1.71085 -1.07584 0
M  V30 22665 C 2085.69 -0.479497 -1.89013 0
M  V30 22666 O 2084.96 0.506566 -1.89237 0
M  V30 22667 H 2083.54 -0.630767 -0.400178 0
M  V30 22668 H 2086.2 -1.91193 -0.378324 0
M  V30 22669 H 2085.3 -2.58404 -1.75026 0
M  V30 22670 N 2085.6 0.599608 -1.45748 0
M  V30 22671 C 2086.55 1.70982 -1.55028 0
M  V30 22672 C 2087.52 1.61319 -0.395631 0
M  V30 22673 O 2088.7 1.80781 -0.610146 0
M  V30 22674 C 2085.84 3.09304 -1.53052 0
M  V30 22675 C 2084.95 3.29715 -2.79127 0
M  V30 22676 C 2084.09 4.58189 -2.68769 0
M  V30 22677 C 2083.13 4.71885 -3.89861 0
M  V30 22678 N 2082.27 5.91666 -3.77989 0
M  V30 22679 H 2087.11 1.62387 -2.49869 0
M  V30 22680 H 2084.64 0.791687 -1.23979 0
M  V30 22681 H 2086.6 3.89343 -1.49893 0
M  V30 22682 H 2085.23 3.16838 -0.617561 0
M  V30 22683 H 2084.28 2.43397 -2.92339 0
M  V30 22684 H 2085.59 3.35707 -3.68921 0
M  V30 22685 H 2084.75 5.46433 -2.63621 0
M  V30 22686 H 2083.49 4.54608 -1.76587 0
M  V30 22687 H 2082.49 3.82062 -3.95359 0
M  V30 22688 H 2083.72 4.77257 -4.83118 0
M  V30 22689 H 2081.66 5.89115 -2.88582 0
M  V30 22690 H 2081.58 5.98853 -4.61423 0
M  V30 22691 H 2082.85 6.82387 -3.76787 0
M  V30 22692 N 2087.08 1.33171 0.842803 0
M  V30 22693 C 2088.32 1.24589 1.60017 0
M  V30 22694 C 2088.66 -0.188935 1.93279 0
M  V30 22695 O 2087.93 -1.12923 1.58362 0
M  V30 22696 C 2088.21 2.11731 2.91277 0
M  V30 22697 C 2088.07 3.63652 2.64721 0
M  V30 22698 C 2089.39 1.98749 3.92666 0
M  V30 22699 H 2086.51 0.453935 0.580613 0
M  V30 22700 H 2089.15 1.63234 0.972356 0
M  V30 22701 H 2087.3 1.78904 3.44856 0
M  V30 22702 H 2088.97 4.06751 2.17604 0
M  V30 22703 H 2087.21 3.85728 1.98486 0
M  V30 22704 H 2087.88 4.19966 3.58236 0
M  V30 22705 H 2090.36 2.2753 3.48381 0
M  V30 22706 H 2089.24 2.61979 4.82347 0
M  V30 22707 H 2089.5 0.958565 4.31583 0
M  V30 22708 N 2088.56 -1.06056 1.16576 0
M  V30 22709 C 2089.78 -1.83131 0.973539 0
M  V30 22710 C 2090.21 -1.82047 -0.473358 0
M  V30 22711 O 2089.56 -1.22303 -1.33834 0
M  V30 22712 C 2089.61 -3.2753 1.50852 0
M  V30 22713 O 2088.72 -4.06129 0.716451 0
M  V30 22714 H 2088.06 -0.566557 0.346279 0
M  V30 22715 H 2090.59 -1.33704 1.54869 0
M  V30 22716 H 2090.6 -3.78346 1.52704 0
M  V30 22717 H 2089.27 -3.27634 2.56181 0
M  V30 22718 H 2087.85 -3.64892 0.768639 0
M  V30 22719 N 2090.03 -0.964615 -1.24631 0
M  V30 22720 C 2091.44 -0.664103 -1.74489 0
M  V30 22721 C 2091.8 0.820273 -1.7823 0
M  V30 22722 O 2090.92 1.64185 -1.40969 0
M  V30 22723 C 2091.52 -1.1988 -3.16882 0
M  V30 22724 C 2090.07 -0.948248 -3.6426 0
M  V30 22725 C 2089.22 -1.33594 -2.42998 0
M  V30 22726 H 2092.17 -1.14029 -1.10377 0
M  V30 22727 H 2092.19 -0.563605 -3.76303 0
M  V30 22728 H 2091.71 -2.27916 -3.14128 0
M  V30 22729 H 2089.81 0.116719 -3.72417 0
M  V30 22730 H 2089.92 -1.59173 -4.51886 0
M  V30 22731 H 2088.28 -0.754319 -2.43274 0
M  V30 22732 H 2089.07 -2.42573 -2.42927 0
M  V30 22733 N 2091.51 1.39445 -0.734362 0
M  V30 22734 C 2092.93 1.54247 -0.409878 0
M  V30 22735 C 2093.13 1.70155 1.07933 0
M  V30 22736 O 2092.18 1.70169 1.86545 0
M  V30 22737 C 2093.5 2.7605 -1.19234 0
M  V30 22738 C 2095.04 2.89885 -1.1805 0
M  V30 22739 C 2095.52 4.14625 -1.94552 0
M  V30 22740 N 2097.01 4.21663 -1.91715 0
M  V30 22741 C 2097.75 5.1713 -2.47717 0
M  V30 22742 N 2097.24 6.1839 -3.12354 0
M  V30 22743 N 2099.03 5.09342 -2.37754 0
M  V30 22744 H 2091.19 1.27367 -1.69975 0
M  V30 22745 H 2093.45 0.61727 -0.719501 0
M  V30 22746 H 2093.15 2.70636 -2.24609 0
M  V30 22747 H 2093.03 3.68698 -0.796363 0
M  V30 22748 H 2095.42 2.94792 -0.13489 0
M  V30 22749 H 2095.5 1.98302 -1.61585 0
M  V30 22750 H 2095.14 4.10479 -2.99114 0
M  V30 22751 H 2095.07 5.0525 -1.48424 0
M  V30 22752 H 2097.56 3.4913 -1.44625 0
M  V30 22753 H 2097.87 6.87695 -3.52555 0
M  V30 22754 H 2096.22 6.1878 -3.16444 0
M  V30 22755 H 2099.41 4.29169 -1.86901 0
M  V30 22756 H 2099.58 5.83567 -2.81698 0
M  V30 22757 N 2092.99 0.481946 1.5005 0
M  V30 22758 C 2094.27 -0.131379 1.95158 0
M  V30 22759 C 2094.65 -1.55951 1.42276 0
M  V30 22760 O 2093.99 -2.19691 0.62835 0
M  V30 22761 C 2094.2 -0.0635771 3.48942 0
M  V30 22762 C 2095.55 -0.247054 4.23881 0
M  V30 22763 O 2096.58 -0.139659 3.55926 0
M  V30 22764 O 2095.44 -0.465153 5.44517 0
M  V30 22765 H 2092.53 -0.105746 0.820211 0
M  V30 22766 H 2095.08 0.543125 1.60774 0
M  V30 22767 H 2093.85 0.933103 3.80012 0
M  V30 22768 H 2093.47 -0.779065 3.89893 0
M  V30 22769 N 2094.47 -1.56127 0.214985 0
M  V30 22770 C 2095.7 -2.02225 -0.422919 0
M  V30 22771 C 2096.11 -1.09413 -1.54355 0
M  V30 22772 O 2095.45 -0.0948108 -1.83455 0
M  V30 22773 C 2095.51 -3.44677 -1.02166 0
M  V30 22774 C 2095.17 -4.56985 -0.0372982 0
M  V30 22775 C 2096.17 -5.14305 0.760672 0
M  V30 22776 C 2093.86 -5.02237 0.0795528 0
M  V30 22777 C 2095.85 -6.15343 1.66226 0
M  V30 22778 C 2093.54 -6.03115 0.984683 0
M  V30 22779 C 2094.54 -6.59543 1.77459 0
M  V30 22780 O 2094.22 -7.58458 2.66451 0
M  V30 22781 H 2093.96 -0.66724 -0.108474 0
M  V30 22782 H 2096.51 -2.02782 0.326912 0
M  V30 22783 H 2094.74 -3.41169 -1.82046 0
M  V30 22784 H 2096.43 -3.74463 -1.56629 0
M  V30 22785 H 2097.19 -4.80198 0.68081 0
M  V30 22786 H 2093.07 -4.57999 -0.525143 0
M  V30 22787 H 2096.62 -6.59315 2.27925 0
M  V30 22788 H 2092.51 -6.36644 1.06559 0
M  V30 22789 H 2093.28 -7.75955 2.60453 0
M  V30 22790 N 2095.95 0.0584645 -1.57492 0
M  V30 22791 C 2096.88 1.0681 -2.07639 0
M  V30 22792 C 2097.86 1.3955 -0.972622 0
M  V30 22793 O 2099.04 1.48946 -1.24615 0
M  V30 22794 C 2096.17 2.37774 -2.53142 0
M  V30 22795 C 2095.13 2.19354 -3.67516 0
M  V30 22796 C 2094.45 3.5582 -3.9912 0
M  V30 22797 C 2095.75 1.60379 -4.97067 0
M  V30 22798 H 2097.45 0.650765 -2.92242 0
M  V30 22799 H 2094.99 0.311587 -1.40589 0
M  V30 22800 H 2096.94 3.08709 -2.86839 0
M  V30 22801 H 2095.67 2.81513 -1.65583 0
M  V30 22802 H 2094.33 1.50858 -3.34122 0
M  V30 22803 H 2093.98 3.97153 -3.08672 0
M  V30 22804 H 2093.68 3.4433 -4.76142 0
M  V30 22805 H 2095.2 4.28164 -4.35325 0
M  V30 22806 H 2096.61 2.21195 -5.2891 0
M  V30 22807 H 2095.01 1.59548 -5.78502 0
M  V30 22808 H 2096.08 0.566547 -4.81579 0
M  V30 22809 N 2097.42 1.54103 0.330149 0
M  V30 22810 C 2098.84 1.44666 0.674089 0
M  V30 22811 C 2099.04 0.614208 1.91911 0
M  V30 22812 O 2098.1 0.110427 2.52258 0
M  V30 22813 C 2099.41 2.88311 0.854235 0
M  V30 22814 C 2100.96 2.98171 0.951998 0
M  V30 22815 C 2101.43 4.42952 1.16436 0
M  V30 22816 N 2102.92 4.46536 1.23125 0
M  V30 22817 C 2103.66 5.55709 1.41333 0
M  V30 22818 N 2103.15 6.74863 1.56626 0
M  V30 22819 N 2104.95 5.43345 1.43988 0
M  V30 22820 H 2097.1 2.06712 -0.488258 0
M  V30 22821 H 2099.36 0.934976 -0.1566 0
M  V30 22822 H 2099.07 3.51698 0.0107232 0
M  V30 22823 H 2098.94 3.34042 1.75202 0
M  V30 22824 H 2101.33 2.34916 1.78602 0
M  V30 22825 H 2101.41 2.55781 0.0308205 0
M  V30 22826 H 2101.05 5.06793 0.335219 0
M  V30 22827 H 2100.98 4.82946 2.09931 0
M  V30 22828 H 2103.47 3.60679 1.12777 0
M  V30 22829 H 2103.79 7.53826 1.70193 0
M  V30 22830 H 2102.13 6.77783 1.53737 0
M  V30 22831 H 2105.32 4.49211 1.31632 0
M  V30 22832 H 2105.5 6.28484 1.57836 0
M  V30 22833 N 2098.9 -0.59187 1.46064 0
M  V30 22834 C 2100.15 -1.34773 1.50601 0
M  V30 22835 C 2100.47 -1.94379 0.155452 0
M  V30 22836 O 2099.74 -1.7805 -0.816999 0
M  V30 22837 H 2098.32 -0.50037 0.554652 0
M  V30 22838 H 2100.98 -0.69386 1.82131 0
M  V30 22839 H 2100.08 -2.15914 2.25361 0
M  V30 22840 N 2100.38 -1.33616 -0.835729 0
M  V30 22841 C 2101.31 -1.26762 -1.96096 0
M  V30 22842 C 2102.29 -0.147563 -1.69459 0
M  V30 22843 O 2103.48 -0.33785 -1.91239 0
M  V30 22844 C 2100.61 -1.00927 -3.32312 0
M  V30 22845 C 2099.56 -2.09261 -3.73355 0
M  V30 22846 C 2098.89 -1.68635 -5.07411 0
M  V30 22847 C 2100.19 -3.50968 -3.86806 0
M  V30 22848 H 2101.88 -2.20908 -2.02089 0
M  V30 22849 H 2099.43 -1.06346 -0.970907 0
M  V30 22850 H 2101.38 -0.947809 -4.10603 0
M  V30 22851 H 2100.1 -0.0322023 -3.26584 0
M  V30 22852 H 2098.76 -2.14455 -2.97329 0
M  V30 22853 H 2098.41 -0.696223 -4.98158 0
M  V30 22854 H 2098.11 -2.41134 -5.35844 0
M  V30 22855 H 2099.63 -1.63961 -5.88175 0
M  V30 22856 H 2101.05 -3.48257 -4.55401 0
M  V30 22857 H 2099.45 -4.21978 -4.26678 0
M  V30 22858 H 2100.52 -3.89244 -2.89166 0
M  V30 22859 N 2101.86 1.05436 -1.17136 0
M  V30 22860 C 2102.82 2.11293 -0.888146 0
M  V30 22861 C 2103.82 1.60347 0.120621 0
M  V30 22862 O 2105.01 1.73844 -0.111266 0
M  V30 22863 C 2102.14 3.393 -0.329871 0
M  V30 22864 H 2103.34 2.3785 -1.82667 0
M  V30 22865 H 2100.89 1.21641 -0.981486 0
M  V30 22866 H 2101.62 3.18397 0.61592 0
M  V30 22867 H 2101.41 3.77588 -1.05687 0
M  V30 22868 H 2102.9 4.17331 -0.149954 0
M  V30 22869 N 2103.34 0.971211 1.24118 0
M  V30 22870 C 2104.75 0.678316 1.44468 0
M  V30 22871 C 2104.95 -0.75867 1.86672 0
M  V30 22872 O 2104.01 -1.53217 2.00701 0
M  V30 22873 C 2105.32 1.66541 2.50369 0
M  V30 22874 C 2106.87 1.67842 2.64193 0
M  V30 22875 C 2107.34 2.65358 3.73295 0
M  V30 22876 N 2108.84 2.63821 3.80727 0
M  V30 22877 C 2109.57 3.35947 4.6468 0
M  V30 22878 N 2109.07 4.17602 5.52794 0
M  V30 22879 N 2110.86 3.24755 4.58793 0
M  V30 22880 H 2103.01 1.8996 0.950216 0
M  V30 22881 H 2105.27 0.818026 0.479101 0
M  V30 22882 H 2104.98 2.69261 2.26255 0
M  V30 22883 H 2104.85 1.44095 3.48592 0
M  V30 22884 H 2107.24 0.658308 2.87664 0
M  V30 22885 H 2107.32 1.94351 1.66316 0
M  V30 22886 H 2106.97 3.67505 3.50574 0
M  V30 22887 H 2106.9 2.36127 4.70693 0
M  V30 22888 H 2109.39 2.04554 3.17751 0
M  V30 22889 H 2109.7 4.69515 6.13821 0
M  V30 22890 H 2108.04 4.21695 5.52447 0
M  V30 22891 H 2111.24 2.60422 3.8897 0
M  V30 22892 H 2111.41 3.81228 5.23994 0
M  V30 22893 N 2104.81 -1.39054 0.741747 0
M  V30 22894 C 2106.06 -1.99978 0.292077 0
M  V30 22895 C 2106.38 -1.59162 -1.12662 0
M  V30 22896 O 2105.65 -0.842958 -1.76836 0
M  V30 22897 H 2104.23 -0.739584 0.105 0
M  V30 22898 H 2106.9 -1.7 0.953207 0
M  V30 22899 H 2105.99 -3.10178 0.34581 0
M  V30 22900 N 2106.29 -0.489897 -1.49792 0
M  V30 22901 C 2107.54 0.0586308 -2.02715 0
M  V30 22902 C 2107.87 1.37665 -1.36974 0
M  V30 22903 O 2107.15 1.87919 -0.501679 0
M  V30 22904 C 2107.43 0.222812 -3.5941 0
M  V30 22905 C 2107.28 -1.11755 -4.35696 0
M  V30 22906 C 2108.6 0.96865 -4.29308 0
M  V30 22907 H 2105.72 0.0198337 -0.736733 0
M  V30 22908 H 2108.36 -0.639149 -1.78927 0
M  V30 22909 H 2106.51 0.81714 -3.79809 0
M  V30 22910 H 2108.18 -1.74991 -4.26821 0
M  V30 22911 H 2106.43 -1.70959 -3.98692 0
M  V30 22912 H 2107.1 -0.956105 -5.43657 0
M  V30 22913 H 2109.57 0.464706 -4.13497 0
M  V30 22914 H 2108.45 1.05235 -5.38718 0
M  V30 22915 H 2108.71 2.00975 -3.93778 0
M  V30 22916 N 2107.77 1.56011 -0.223262 0
M  V30 22917 C 2108.7 2.23355 0.680795 0
M  V30 22918 C 2109.68 1.20584 1.19973 0
M  V30 22919 O 2110.87 1.49174 1.24342 0
M  V30 22920 C 2108 2.91478 1.88833 0
M  V30 22921 C 2106.95 4.00736 1.50316 0
M  V30 22922 C 2106.28 4.56164 2.7896 0
M  V30 22923 C 2107.58 5.17697 0.69188 0
M  V30 22924 H 2109.27 2.99162 0.119304 0
M  V30 22925 H 2106.82 1.43891 0.055942 0
M  V30 22926 H 2108.77 3.37282 2.52623 0
M  V30 22927 H 2107.49 2.13121 2.47481 0
M  V30 22928 H 2106.15 3.55665 0.888708 0
M  V30 22929 H 2105.8 3.74535 3.35757 0
M  V30 22930 H 2105.5 5.29903 2.53922 0
M  V30 22931 H 2107.02 5.04687 3.43691 0
M  V30 22932 H 2108.44 5.59872 1.23353 0
M  V30 22933 H 2106.84 5.97679 0.538515 0
M  V30 22934 H 2107.91 4.83964 -0.301131 0
M  V30 22935 N 2109.25 -0.0501116 1.5752 0
M  V30 22936 C 2110.5 -0.744028 1.87476 0
M  V30 22937 C 2110.81 -1.77631 0.818943 0
M  V30 22938 O 2112.02 -2.52133 1.00703 0
M  V30 22939 C 2110.47 -1.37429 3.32628 0
M  V30 22940 C 2110.08 -0.379458 4.4639 0
M  V30 22941 C 2111.82 -2.04931 3.71757 0
M  V30 22942 C 2109.73 -1.01687 5.82592 0
M  V30 22943 H 2108.66 -0.281635 0.699427 0
M  V30 22944 H 2111.31 0.00219827 1.835 0
M  V30 22945 H 2109.69 -2.16952 3.31282 0
M  V30 22946 H 2110.87 0.387526 4.59168 0
M  V30 22947 H 2109.18 0.1923 4.15956 0
M  V30 22948 H 2111.78 -2.53436 4.70823 0
M  V30 22949 H 2112.12 -2.85832 3.02665 0
M  V30 22950 H 2112.66 -1.32212 3.75186 0
M  V30 22951 H 2109.4 -0.247733 6.55032 0
M  V30 22952 H 2108.92 -1.7542 5.73575 0
M  V30 22953 H 2110.59 -1.53041 6.28639 0
M  V30 22954 N 2110.73 -1.54276 -0.321972 0
M  V30 22955 C 2111.97 -1.72216 -1.05764 0
M  V30 22956 C 2112.3 -0.499518 -1.88494 0
M  V30 22957 O 2111.57 0.486466 -1.89764 0
M  V30 22958 H 2110.15 -0.634976 -0.393465 0
M  V30 22959 H 2112.81 -1.91583 -0.358025 0
M  V30 22960 H 2111.9 -2.60245 -1.72275 0
M  V30 22961 N 2112.2 0.584116 -1.46376 0
M  V30 22962 C 2113.43 1.37331 -1.55419 0
M  V30 22963 C 2113.85 1.87082 -0.195472 0
M  V30 22964 O 2113.21 1.61486 0.824141 0
M  V30 22965 C 2113.26 2.53779 -2.56181 0
M  V30 22966 O 2112.36 3.55172 -2.09586 0
M  V30 22967 H 2111.71 0.409042 -0.523049 0
M  V30 22968 H 2114.24 0.708655 -1.91936 0
M  V30 22969 H 2114.25 3.00715 -2.75744 0
M  V30 22970 H 2112.92 2.16921 -3.5485 0
M  V30 22971 H 2111.5 3.14726 -2.00005 0
M  V30 22972 N 2113.68 1.34058 0.828631 0
M  V30 22973 C 2114.91 1.29306 1.62156 0
M  V30 22974 C 2115.33 -0.131256 1.87641 0
M  V30 22975 O 2114.69 -1.09118 1.44786 0
M  V30 22976 C 2114.74 2.08394 2.94286 0
M  V30 22977 O 2113.84 1.44955 3.86085 0
M  V30 22978 H 2113.18 0.444364 0.493393 0
M  V30 22979 H 2115.71 1.76775 1.03014 0
M  V30 22980 H 2115.72 2.19539 3.43899 0
M  V30 22981 H 2114.4 3.11953 2.7506 0
M  V30 22982 H 2112.98 1.42518 3.44591 0
M  V30 22983 N 2115.16 -1.04814 1.17694 0
M  V30 22984 C 2116.41 -1.77277 0.962076 0
M  V30 22985 C 2116.72 -1.88834 -0.509992 0
M  V30 22986 O 2117.93 -2.58075 -0.843166 0
M  V30 22987 C 2116.39 -3.18693 1.67221 0
M  V30 22988 C 2115.99 -3.15253 3.18308 0
M  V30 22989 C 2117.74 -3.95585 1.53988 0
M  V30 22990 C 2115.64 -4.51481 3.81993 0
M  V30 22991 H 2114.57 -0.66449 0.356328 0
M  V30 22992 H 2117.23 -1.17451 1.40988 0
M  V30 22993 H 2115.61 -3.78868 1.15216 0
M  V30 22994 H 2116.78 -2.64573 3.77277 0
M  V30 22995 H 2115.1 -2.51859 3.31596 0
M  V30 22996 H 2117.69 -4.96315 1.98937 0
M  V30 22997 H 2118.04 -4.13394 0.491003 0
M  V30 22998 H 2118.57 -3.41967 2.03232 0
M  V30 22999 H 2115.31 -4.38877 4.86895 0
M  V30 23000 H 2114.83 -5.02295 3.27811 0
M  V30 23001 H 2116.51 -5.20413 3.84421 0
M  V30 23002 N 2116.64 -0.977779 -1.23601 0
M  V30 23003 C 2117.88 -0.653202 -1.93682 0
M  V30 23004 C 2118.24 0.798165 -1.74623 0
M  V30 23005 O 2119.44 1.23345 -2.3883 0
M  V30 23006 C 2117.72 -1.02979 -3.42243 0
M  V30 23007 S 2119.27 -0.821283 -4.31046 0
M  V30 23008 H 2116.09 -0.239304 -0.669518 0
M  V30 23009 H 2118.69 -1.25687 -1.49744 0
M  V30 23010 H 2117.4 -2.08276 -3.53623 0
M  V30 23011 H 2116.93 -0.417303 -3.9118 0
M  V30 23012 H 2118.94 0.296175 -4.95315 0
M  V30 23013 N 2118.12 1.38658 -0.749111 0
M  V30 23014 C 2119.36 2.00216 -0.303277 0
M  V30 23015 C 2119.69 1.59459 1.1137 0
M  V30 23016 O 2118.95 0.821377 1.77628 0
M  V30 23017 C 2119.25 3.55494 -0.368653 0
M  V30 23018 C 2118.91 4.15948 -1.74064 0
M  V30 23019 C 2117.57 4.32173 -2.11613 0
M  V30 23020 C 2119.93 4.49344 -2.64083 0
M  V30 23021 C 2117.25 4.79088 -3.38661 0
M  V30 23022 C 2119.61 4.97674 -3.90517 0
M  V30 23023 C 2118.27 5.12106 -4.2814 0
M  V30 23024 H 2117.54 0.732643 -0.110977 0
M  V30 23025 H 2120.19 1.65774 -0.958716 0
M  V30 23026 H 2118.49 3.90046 0.370354 0
M  V30 23027 H 2120.19 4.01 -0.00534235 0
M  V30 23028 H 2116.78 4.0373 -1.43875 0
M  V30 23029 H 2120.96 4.36414 -2.3634 0
M  V30 23030 H 2116.22 4.88447 -3.67735 0
M  V30 23031 H 2120.39 5.22485 -4.60415 0
M  V30 23032 H 2118.02 5.4822 -5.26649 0
M  V30 23033 N 2119.6 0.497834 1.49531 0
M  V30 23034 C 2120.53 -0.271671 2.31914 0
M  V30 23035 C 2121.51 -0.965521 1.40042 0
M  V30 23036 O 2122.69 -0.957536 1.68952 0
M  V30 23037 C 2119.82 -1.3384 3.20475 0
M  V30 23038 C 2118.78 -0.76461 4.21115 0
M  V30 23039 C 2118.1 -1.93162 4.98591 0
M  V30 23040 C 2119.4 0.242201 5.21738 0
M  V30 23041 H 2121.1 0.415979 2.96496 0
M  V30 23042 H 2118.64 0.201496 1.42583 0
M  V30 23043 H 2120.59 -1.88442 3.76918 0
M  V30 23044 H 2119.32 -2.05519 2.5383 0
M  V30 23045 H 2117.98 -0.240359 3.65811 0
M  V30 23046 H 2117.63 -2.63602 4.28396 0
M  V30 23047 H 2117.33 -1.55378 5.66685 0
M  V30 23048 H 2118.85 -2.48204 5.57877 0
M  V30 23049 H 2120.26 -0.215575 5.72895 0
M  V30 23050 H 2118.66 0.535707 5.97704 0
M  V30 23051 H 2119.73 1.15916 4.70841 0
M  V30 23052 N 2121.07 -1.5589 0.231532 0
M  V30 23053 C 2122.3 -2.02956 -0.40203 0
M  V30 23054 C 2122.72 -1.11115 -1.5264 0
M  V30 23055 O 2122.07 -0.122623 -1.82088 0
M  V30 23056 C 2122.12 -3.49484 -0.924297 0
M  V30 23057 O 2121.85 -4.37825 0.155252 0
M  V30 23058 C 2123.35 -4.12241 -1.6301 0
M  V30 23059 H 2120.57 -0.663905 -0.097323 0
M  V30 23060 H 2123.11 -2.01467 0.350905 0
M  V30 23061 H 2121.27 -3.51557 -1.62747 0
M  V30 23062 H 2121.68 -5.23956 -0.238854 0
M  V30 23063 H 2123.15 -5.16507 -1.94742 0
M  V30 23064 H 2123.63 -3.57824 -2.54674 0
M  V30 23065 H 2124.24 -4.14046 -0.971887 0
M  V30 23066 N 2122.55 0.0417572 -1.57545 0
M  V30 23067 C 2123.97 0.397174 -1.54579 0
M  V30 23068 C 2124.17 1.77381 -0.955943 0
M  V30 23069 O 2123.22 2.45948 -0.571457 0
M  V30 23070 C 2124.54 0.310665 -2.99091 0
M  V30 23071 C 2126.08 0.388675 -3.10577 0
M  V30 23072 C 2126.56 0.331754 -4.56797 0
M  V30 23073 N 2128.05 0.390933 -4.61547 0
M  V30 23074 C 2128.79 0.36958 -5.72208 0
M  V30 23075 N 2128.28 0.301264 -6.92145 0
M  V30 23076 N 2130.07 0.41837 -5.60541 0
M  V30 23077 H 2122.23 -0.859292 -1.94242 0
M  V30 23078 H 2124.49 -0.325513 -0.890362 0
M  V30 23079 H 2124.19 -0.634841 -3.45923 0
M  V30 23080 H 2124.07 1.10929 -3.6052 0
M  V30 23081 H 2126.46 1.32461 -2.63701 0
M  V30 23082 H 2126.54 -0.439073 -2.52004 0
M  V30 23083 H 2126.18 -0.60046 -5.04338 0
M  V30 23084 H 2126.11 1.17744 -5.13268 0
M  V30 23085 H 2128.6 0.44676 -3.7525 0
M  V30 23086 H 2128.91 0.289723 -7.72257 0
M  V30 23087 H 2127.26 0.2675 -6.94485 0
M  V30 23088 H 2130.45 0.469643 -4.65738 0
M  V30 23089 H 2130.62 0.398261 -6.46775 0
M  V30 23090 N 2124.03 1.54445 0.313786 0
M  V30 23091 C 2124.96 1.79371 1.41072 0
M  V30 23092 C 2125.94 0.644191 1.49295 0
M  V30 23093 O 2127.12 0.882726 1.66554 0
M  V30 23094 C 2124.25 1.91902 2.7909 0
M  V30 23095 C 2123.3 3.14253 2.88352 0
M  V30 23096 S 2124.13 4.7263 2.51757 0
M  V30 23097 C 2125.29 4.8808 3.91828 0
M  V30 23098 H 2125.52 2.72131 1.19717 0
M  V30 23099 H 2123.05 1.45693 0.51118 0
M  V30 23100 H 2125.01 1.99807 3.58591 0
M  V30 23101 H 2123.67 1.00103 2.97722 0
M  V30 23102 H 2122.86 3.19785 3.89556 0
M  V30 23103 H 2122.47 3.04729 2.16833 0
M  V30 23104 H 2124.76 4.71317 4.86689 0
M  V30 23105 H 2125.7 5.90178 3.91274 0
M  V30 23106 H 2126.11 4.16316 3.81236 0
M  V30 23107 N 2125.51 -0.576345 1.46683 0
M  V30 23108 C 2126.74 -1.3602 1.55905 0
M  V30 23109 C 2127.15 -1.87712 0.202401 0
M  V30 23110 O 2126.51 -1.63966 -0.801346 0
M  V30 23111 C 2126.56 -2.54335 2.56897 0
M  V30 23112 O 2126.28 -2.04783 3.87293 0
M  V30 23113 C 2127.78 -3.46804 2.7612 0
M  V30 23114 H 2125 -0.415305 0.527032 0
M  V30 23115 H 2127.54 -0.700047 1.92145 0
M  V30 23116 H 2125.7 -3.16326 2.23644 0
M  V30 23117 H 2126.11 -2.81882 4.42315 0
M  V30 23118 H 2127.59 -4.26286 3.50691 0
M  V30 23119 H 2128.06 -3.99143 1.83253 0
M  V30 23120 H 2128.67 -2.90643 3.10495 0
M  V30 23121 N 2126.99 -1.34495 -0.82151 0
M  V30 23122 C 2127.93 -1.26196 -1.9539 0
M  V30 23123 C 2128.93 -0.159788 -1.68645 0
M  V30 23124 O 2130.13 -0.32485 -1.77044 0
M  V30 23125 H 2126.51 -0.392077 -0.6417 0
M  V30 23126 H 2128.48 -2.21896 -1.99511 0
M  V30 23127 C 2127.23 -1.03571 -3.31916 0
M  V30 23128 H 2126.55 -1.87615 -3.53045 0
M  V30 23129 H 2127.99 -1.01801 -4.11597 0
M  V30 23130 C 2126.45 0.260949 -3.35888 0
M  V30 23131 O 2126.98 1.26183 -3.81367 0
M  V30 23132 N 2125.19 0.29455 -2.89103 0
M  V30 23133 H 2124.73 -0.520521 -2.52286 0
M  V30 23134 H 2124.69 1.16189 -2.92143 0
M  V30 23135 N 2128.46 1.04188 -1.18248 0
M  V30 23136 C 2129.71 1.76764 -0.971464 0
M  V30 23137 C 2130.03 1.89102 0.49997 0
M  V30 23138 O 2131.23 2.58519 0.829468 0
M  V30 23139 C 2129.69 3.17801 -1.68909 0
M  V30 23140 C 2129.3 3.1356 -3.19975 0
M  V30 23141 C 2131.04 3.94763 -1.56084 0
M  V30 23142 C 2128.95 4.49449 -3.84382 0
M  V30 23143 H 2127.88 0.662591 -0.359847 0
M  V30 23144 H 2130.53 1.16702 -1.41608 0
M  V30 23145 H 2128.91 3.78252 -1.17224 0
M  V30 23146 H 2130.08 2.62568 -3.78675 0
M  V30 23147 H 2128.4 2.50097 -3.32927 0
M  V30 23148 H 2131 4.95253 -2.01566 0
M  V30 23149 H 2131.34 4.13128 -0.512919 0
M  V30 23150 H 2131.87 3.40885 -2.05043 0
M  V30 23151 H 2128.61 4.36289 -4.89216 0
M  V30 23152 H 2128.13 5.00549 -3.3047 0
M  V30 23153 H 2129.81 5.18367 -3.87175 0
M  V30 23154 N 2129.94 0.98432 1.23081 0
M  V30 23155 C 2130.89 0.520259 2.26707 0
M  V30 23156 C 2131.88 -0.424715 1.63989 0
M  V30 23157 O 2133.09 -0.298177 1.77513 0
M  V30 23158 H 2129.47 0.149826 0.736923 0
M  V30 23159 H 2131.44 1.40587 2.63207 0
M  V30 23160 C 2130.19 -0.157874 3.47341 0
M  V30 23161 H 2129.51 0.560186 3.95856 0
M  V30 23162 H 2130.95 -0.446157 4.21646 0
M  V30 23163 C 2129.41 -1.3904 3.0687 0
M  V30 23164 O 2129.94 -2.48637 3.15503 0
M  V30 23165 N 2128.14 -1.26249 2.61743 0
M  V30 23166 H 2127.69 -0.370736 2.54918 0
M  V30 23167 H 2127.65 -2.08824 2.35032 0
M  V30 23168 N 2131.42 -1.38259 0.756453 0
M  V30 23169 C 2132.67 -1.99293 0.310658 0
M  V30 23170 C 2132.98 -1.60729 -1.11469 0
M  V30 23171 O 2134.19 -2.14755 -1.6611 0
M  V30 23172 C 2132.64 -3.56347 0.50448 0
M  V30 23173 C 2132.25 -4.0386 1.9391 0
M  V30 23174 C 2134 -4.24326 0.121541 0
M  V30 23175 C 2131.9 -5.53565 2.08133 0
M  V30 23176 H 2130.83 -0.745574 0.112405 0
M  V30 23177 H 2133.48 -1.57987 0.933403 0
M  V30 23178 H 2131.87 -3.95556 -0.187493 0
M  V30 23179 H 2133.04 -3.75934 2.66478 0
M  V30 23180 H 2131.36 -3.48614 2.27722 0
M  V30 23181 H 2133.95 -5.34301 0.206533 0
M  V30 23182 H 2134.3 -4.05866 -0.926213 0
M  V30 23183 H 2134.83 -3.90366 0.765478 0
M  V30 23184 H 2131.57 -5.76933 3.11173 0
M  V30 23185 H 2131.09 -5.83225 1.4003 0
M  V30 23186 H 2132.77 -6.19307 1.87264 0
M  V30 23187 N 2132.9 -0.505757 -1.49264 0
M  V30 23188 C 2133.85 0.28378 -2.30862 0
M  V30 23189 C 2134.84 0.958332 -1.39687 0
M  V30 23190 O 2136.05 0.885479 -1.56714 0
M  V30 23191 H 2132.42 0.110376 -0.743856 0
M  V30 23192 H 2134.39 -0.424349 -2.95367 0
M  V30 23193 C 2133.14 1.33255 -3.21152 0
M  V30 23194 H 2132.46 0.822894 -3.9124 0
M  V30 23195 H 2133.9 1.85687 -3.81177 0
M  V30 23196 C 2132.36 2.35327 -2.41087 0
M  V30 23197 O 2132.89 3.41302 -2.1184 0
M  V30 23198 N 2131.1 2.07918 -2.03023 0
M  V30 23199 H 2130.65 1.21758 -2.27009 0
M  V30 23200 H 2130.6 2.7644 -1.49762 0
M  V30 23201 N 2134.38 1.55765 -0.239796 0
M  V30 23202 C 2135.79 1.59184 0.115214 0
M  V30 23203 C 2135.99 1.25688 1.57496 0
M  V30 23204 O 2135.05 1.0008 2.31819 0
M  V30 23205 C 2136.36 2.99838 -0.227557 0
M  V30 23206 C 2137.91 3.12531 -0.171276 0
M  V30 23207 C 2138.38 4.55393 -0.487979 0
M  V30 23208 N 2139.88 4.61122 -0.438217 0
M  V30 23209 C 2140.61 5.69629 -0.656523 0
M  V30 23210 N 2140.11 6.86426 -0.937578 0
M  V30 23211 N 2141.9 5.59019 -0.587713 0
M  V30 23212 H 2134.05 1.7581 -1.19184 0
M  V30 23213 H 2136.31 0.818062 -0.47904 0
M  V30 23214 H 2136.02 3.29062 -1.24141 0
M  V30 23215 H 2135.89 3.74521 0.448752 0
M  V30 23216 H 2138.28 2.83092 0.83324 0
M  V30 23217 H 2138.36 2.40138 -0.881332 0
M  V30 23218 H 2138.01 4.85552 -1.49002 0
M  V30 23219 H 2137.94 5.26037 0.243475 0
M  V30 23220 H 2140.43 3.77203 -0.229426 0
M  V30 23221 H 2140.74 7.65049 -1.09177 0
M  V30 23222 H 2139.08 6.88127 -0.974973 0
M  V30 23223 H 2142.28 4.66649 -0.368239 0
M  V30 23224 H 2142.45 6.43513 -0.761246 0
M  V30 23225 N 2135.85 -0.0334016 1.57565 0
M  V30 23226 C 2137.27 -0.580549 1.77444 0
M  V30 23227 C 2137.62 -1.7584 0.870324 0
M  V30 23228 O 2136.74 -2.16305 0.0640468 0
M  V30 23229 C 2137.34 -1.05995 3.21793 0
M  V30 23230 C 2135.9 -1.55265 3.42885 0
M  V30 23231 C 2135.04 -0.488796 2.72958 0
M  V30 23232 H 2137.99 0.192826 1.57524 0
M  V30 23233 H 2138.01 -1.92748 3.28068 0
M  V30 23234 H 2137.53 -0.202479 3.87571 0
M  V30 23235 H 2135.63 -2.43211 2.82275 0
M  V30 23236 H 2135.74 -1.60314 4.51482 0
M  V30 23237 H 2134.1 -0.942831 2.36607 0
M  V30 23238 H 2134.89 0.359136 3.41416 0
M  V30 23239 N 2137.33 -1.54609 -0.305591 0
M  V30 23240 C 2138.26 -1.88242 -1.38157 0
M  V30 23241 C 2139.24 -0.740883 -1.53117 0
M  V30 23242 O 2140.43 -0.996214 -1.66701 0
M  V30 23243 C 2137.56 -2.12567 -2.7465 0
M  V30 23244 C 2136.51 -3.28415 -2.74459 0
M  V30 23245 C 2135.84 -3.38148 -4.14198 0
M  V30 23246 C 2137.14 -4.65633 -2.36607 0
M  V30 23247 H 2138.83 -2.78359 -1.10258 0
M  V30 23248 H 2136.38 -1.33933 -0.528959 0
M  V30 23249 H 2138.33 -2.34681 -3.50004 0
M  V30 23250 H 2137.06 -1.19216 -3.04064 0
M  V30 23251 H 2135.71 -3.06217 -2.01561 0
M  V30 23252 H 2135.36 -2.42323 -4.40782 0
M  V30 23253 H 2135.06 -4.16019 -4.14973 0
M  V30 23254 H 2136.59 -3.62517 -4.91339 0
M  V30 23255 H 2138 -4.87508 -3.01677 0
M  V30 23256 H 2136.4 -5.46184 -2.48603 0
M  V30 23257 H 2137.47 -4.66662 -1.31738 0
M  V30 23258 N 2138.81 0.568558 -1.46987 0
M  V30 23259 C 2139.72 1.70416 -1.61232 0
M  V30 23260 C 2140.74 1.66798 -0.495411 0
M  V30 23261 O 2141.91 1.86451 -0.761438 0
M  V30 23262 C 2138.98 3.06924 -1.6124 0
M  V30 23263 C 2138.04 3.21697 -2.8427 0
M  V30 23264 C 2137.27 4.51694 -2.84268 0
M  V30 23265 O 2137.49 5.36458 -1.93827 0
M  V30 23266 O 2136.43 4.70015 -3.75991 0
M  V30 23267 H 2140.25 1.61343 -2.57298 0
M  V30 23268 H 2137.84 0.737255 -1.29942 0
M  V30 23269 H 2139.72 3.88182 -1.6399 0
M  V30 23270 H 2138.4 3.16404 -0.683373 0
M  V30 23271 H 2137.3 2.39879 -2.87069 0
M  V30 23272 H 2138.64 3.17115 -3.76429 0
M  V30 23273 N 2140.29 1.34929 0.814366 0
M  V30 23274 C 2141.22 1.29866 1.94055 0
M  V30 23275 C 2142.2 0.174504 1.69203 0
M  V30 23276 O 2143.38 0.368232 1.90677 0
M  V30 23277 C 2140.51 1.06201 3.30664 0
M  V30 23278 C 2139.47 2.15174 3.69978 0
M  V30 23279 C 2138.79 1.76686 5.04664 0
M  V30 23280 C 2140.09 3.57077 3.81174 0
M  V30 23281 H 2141.79 2.24095 1.98549 0
M  V30 23282 H 2139.33 1.07877 0.953865 0
M  V30 23283 H 2141.29 1.01301 4.09043 0
M  V30 23284 H 2140.01 0.0841549 3.26492 0
M  V30 23285 H 2138.67 2.19158 2.9388 0
M  V30 23286 H 2138.32 0.775388 4.96988 0
M  V30 23287 H 2138.02 2.49628 5.3194 0
M  V30 23288 H 2139.54 1.73297 5.85492 0
M  V30 23289 H 2140.96 3.55458 4.49803 0
M  V30 23290 H 2139.35 4.28713 4.19911 0
M  V30 23291 H 2140.42 3.93795 2.82937 0
M  V30 23292 N 2141.77 -1.0356 1.18799 0
M  V30 23293 C 2143.02 -1.76246 0.980824 0
M  V30 23294 C 2143.33 -1.89365 -0.489935 0
M  V30 23295 O 2144.53 -2.58955 -0.815746 0
M  V30 23296 C 2142.99 -3.16901 1.70592 0
M  V30 23297 C 2142.6 -3.11859 3.21633 0
M  V30 23298 C 2144.34 -3.9393 1.58175 0
M  V30 23299 C 2142.25 -4.47404 3.8676 0
M  V30 23300 H 2141.18 -0.660673 0.363355 0
M  V30 23301 H 2143.83 -1.15949 1.42225 0
M  V30 23302 H 2142.21 -3.77625 1.19228 0
M  V30 23303 H 2143.39 -2.60556 3.80062 0
M  V30 23304 H 2141.7 -2.48328 3.34249 0
M  V30 23305 H 2144.3 -4.94177 2.0419 0
M  V30 23306 H 2144.64 -4.1285 0.534821 0
M  V30 23307 H 2145.17 -3.39792 2.06848 0
M  V30 23308 H 2141.91 -4.33688 4.91523 0
M  V30 23309 H 2141.43 -4.9879 3.3312 0
M  V30 23310 H 2143.11 -5.16306 3.89919 0
M  V30 23311 N 2143.25 -0.990834 -1.22557 0
M  V30 23312 C 2144.47 -0.683595 -1.9581 0
M  V30 23313 C 2144.9 0.744808 -1.72726 0
M  V30 23314 O 2144.25 1.50883 -1.00518 0
M  V30 23315 C 2144.3 -0.992665 -3.46668 0
M  V30 23316 O 2143.41 -0.0902361 -4.12301 0
M  V30 23317 H 2142.75 -0.256053 -0.612644 0
M  V30 23318 H 2145.28 -1.32725 -1.55709 0
M  V30 23319 H 2145.29 -0.933654 -3.97174 0
M  V30 23320 H 2143.96 -2.03353 -3.62795 0
M  V30 23321 H 2142.54 -0.204554 -3.72339 0
M  V30 23322 N 2144.72 1.37856 -0.763775 0
M  V30 23323 C 2145.97 1.99488 -0.323855 0
M  V30 23324 C 2146.29 1.60934 1.10115 0
M  V30 23325 O 2145.56 0.870985 1.75473 0
M  V30 23326 H 2144.14 0.73782 -0.116753 0
M  V30 23327 H 2146.8 1.68462 -0.980132 0
M  V30 23328 H 2145.9 3.09589 -0.395113 0
M  V30 23329 N 2146.2 0.513665 1.48994 0
M  V30 23330 C 2147.45 -0.0263732 2.02783 0
M  V30 23331 C 2147.78 -1.35469 1.39147 0
M  V30 23332 O 2147.06 -1.87097 0.531511 0
M  V30 23333 C 2147.34 -0.165605 3.59719 0
M  V30 23334 C 2147.19 1.18673 4.33863 0
M  V30 23335 C 2148.51 -0.900228 4.30794 0
M  V30 23336 H 2145.63 -0.00811043 0.736955 0
M  V30 23337 H 2148.27 0.667534 1.77888 0
M  V30 23338 H 2146.42 -0.756613 3.81061 0
M  V30 23339 H 2148.09 1.81759 4.23983 0
M  V30 23340 H 2146.34 1.77281 3.95922 0
M  V30 23341 H 2147.01 1.04247 5.42067 0
M  V30 23342 H 2149.48 -0.398863 4.14184 0
M  V30 23343 H 2148.36 -0.966514 5.40324 0
M  V30 23344 H 2148.62 -1.94685 3.96926 0
M  V30 23345 N 2147.68 -1.55636 0.248053 0
M  V30 23346 C 2148.93 -1.98148 -0.376864 0
M  V30 23347 C 2149.24 -1.13944 -1.58984 0
M  V30 23348 O 2150.45 -1.46475 -2.28598 0
M  V30 23349 C 2148.9 -3.52586 -0.721883 0
M  V30 23350 C 2148.51 -4.4553 0.469765 0
M  V30 23351 C 2150.26 -4.03751 -1.31093 0
M  V30 23352 C 2148.16 -5.91314 0.100837 0
M  V30 23353 H 2147.09 -0.740008 -0.144582 0
M  V30 23354 H 2149.74 -1.80161 0.348451 0
M  V30 23355 H 2148.13 -3.66272 -1.50536 0
M  V30 23356 H 2149.3 -4.43604 1.24708 0
M  V30 23357 H 2147.61 -4.04853 0.973816 0
M  V30 23358 H 2150.21 -5.10191 -1.6003 0
M  V30 23359 H 2150.55 -3.51167 -2.23578 0
M  V30 23360 H 2151.09 -3.93395 -0.590329 0
M  V30 23361 H 2147.83 -6.47937 0.992861 0
M  V30 23362 H 2147.35 -5.96373 -0.640255 0
M  V30 23363 H 2149.03 -6.46225 -0.316571 0
M  V30 23364 N 2149.16 0.0250451 -1.5758 0
M  V30 23365 C 2150.38 0.730408 -1.94113 0
M  V30 23366 C 2150.81 1.67882 -0.848362 0
M  V30 23367 O 2150.17 1.80242 0.195596 0
M  V30 23368 C 2150.21 1.46014 -3.29715 0
M  V30 23369 O 2149.32 2.57351 -3.22249 0
M  V30 23370 H 2148.66 0.196157 -0.634365 0
M  V30 23371 H 2151.19 -0.0206802 -2.0459 0
M  V30 23372 H 2151.2 1.82917 -3.64699 0
M  V30 23373 H 2149.87 0.764593 -4.08811 0
M  V30 23374 H 2148.45 2.22961 -2.98903 0
M  V30 23375 N 2150.64 1.54769 0.297388 0
M  V30 23376 C 2151.87 1.77959 1.04948 0
M  V30 23377 C 2152.27 0.54095 1.81302 0
M  V30 23378 O 2151.62 -0.498902 1.76796 0
M  V30 23379 C 2151.68 2.93664 2.07368 0
M  V30 23380 C 2151.34 4.3162 1.50177 0
M  V30 23381 C 2152.34 5.11516 0.929935 0
M  V30 23382 C 2150.02 4.78229 1.53631 0
M  V30 23383 C 2152.02 6.36142 0.400253 0
M  V30 23384 C 2149.71 6.02817 1.00276 0
M  V30 23385 C 2150.7 6.81609 0.435703 0
M  V30 23386 O 2150.39 8.0385 -0.0897463 0
M  V30 23387 H 2150.12 0.597144 0.316852 0
M  V30 23388 H 2152.68 2.02548 0.341093 0
M  V30 23389 H 2150.91 2.64708 2.81898 0
M  V30 23390 H 2152.6 3.04398 2.68509 0
M  V30 23391 H 2153.36 4.76649 0.896125 0
M  V30 23392 H 2149.24 4.16926 1.96707 0
M  V30 23393 H 2152.79 6.97587 -0.0430005 0
M  V30 23394 H 2148.68 6.37169 1.03373 0
M  V30 23395 H 2149.45 8.18497 0.0232118 0
M  V30 23396 N 2152.11 -0.560755 1.47286 0
M  V30 23397 C 2153.36 -1.31441 1.52991 0
M  V30 23398 C 2153.68 -1.94622 0.195307 0
M  V30 23399 O 2154.88 -2.71187 0.130315 0
M  V30 23400 C 2153.34 -2.38334 2.69676 0
M  V30 23401 C 2152.95 -1.81358 4.0965 0
M  V30 23402 C 2154.69 -3.14902 2.8467 0
M  V30 23403 C 2152.6 -2.8601 5.17641 0
M  V30 23404 H 2151.53 -0.49421 0.569449 0
M  V30 23405 H 2154.18 -0.595972 1.73552 0
M  V30 23406 H 2152.56 -3.13075 2.42487 0
M  V30 23407 H 2153.73 -1.13012 4.46727 0
M  V30 23408 H 2152.05 -1.17385 3.99512 0
M  V30 23409 H 2154.65 -3.93045 3.62518 0
M  V30 23410 H 2154.99 -3.68868 1.92983 0
M  V30 23411 H 2155.52 -2.47271 3.11612 0
M  V30 23412 H 2152.26 -2.36904 6.11193 0
M  V30 23413 H 2151.78 -3.52777 4.85086 0
M  V30 23414 H 2153.46 -3.49566 5.44438 0
M  V30 23415 N 2153.59 -1.35359 -0.807199 0
M  V30 23416 C 2154.52 -1.30893 -1.93363 0
M  V30 23417 C 2155.5 -0.183475 -1.69108 0
M  V30 23418 O 2156.69 -0.378339 -1.90479 0
M  V30 23419 C 2153.82 -1.07954 -3.30096 0
M  V30 23420 C 2152.77 -2.17133 -3.68832 0
M  V30 23421 C 2152.1 -1.7936 -5.0372 0
M  V30 23422 C 2153.4 -3.59094 -3.79274 0
M  V30 23423 H 2155.09 -2.25145 -1.97357 0
M  V30 23424 H 2152.64 -1.08381 -0.948131 0
M  V30 23425 H 2154.59 -1.03469 -4.085 0
M  V30 23426 H 2153.31 -0.101468 -3.26442 0
M  V30 23427 H 2151.97 -2.20714 -2.92713 0
M  V30 23428 H 2151.62 -0.801733 -4.96569 0
M  V30 23429 H 2151.32 -2.52445 -5.30608 0
M  V30 23430 H 2152.85 -1.764 -5.84564 0
M  V30 23431 H 2154.26 -3.57839 -4.47911 0
M  V30 23432 H 2152.66 -4.30934 -4.17632 0
M  V30 23433 H 2153.73 -3.9529 -2.80845 0
M  V30 23434 N 2155.07 1.02928 -1.19346 0
M  V30 23435 C 2156 2.13099 -0.954528 0
M  V30 23436 C 2156.98 1.69731 0.111965 0
M  V30 23437 O 2158.17 1.94152 -0.0429718 0
M  V30 23438 C 2155.3 3.43798 -0.491955 0
M  V30 23439 C 2154.25 4.00845 -1.50024 0
M  V30 23440 C 2153.58 5.2716 -0.894759 0
M  V30 23441 C 2154.88 4.35699 -2.88035 0
M  V30 23442 H 2156.57 2.33345 -1.87592 0
M  V30 23443 H 2154.12 1.1214 -0.903366 0
M  V30 23444 H 2156.07 4.20243 -0.312095 0
M  V30 23445 H 2154.79 3.23272 0.46503 0
M  V30 23446 H 2153.45 3.26495 -1.66724 0
M  V30 23447 H 2153.1 5.02952 0.0697668 0
M  V30 23448 H 2152.8 5.66291 -1.56805 0
M  V30 23449 H 2154.32 6.06272 -0.725685 0
M  V30 23450 H 2155.74 5.03083 -2.7492 0
M  V30 23451 H 2154.13 4.8591 -3.52152 0
M  V30 23452 H 2155.2 3.45019 -3.4072 0
M  V30 23453 N 2156.55 0.997319 1.2203 0
M  V30 23454 C 2157.96 0.708807 1.42997 0
M  V30 23455 C 2158.16 -0.718903 1.88239 0
M  V30 23456 O 2157.22 -1.48925 2.03906 0
M  V30 23457 C 2158.53 1.71814 2.4678 0
M  V30 23458 C 2160.08 1.73408 2.60573 0
M  V30 23459 C 2160.56 2.73216 3.67582 0
M  V30 23460 N 2162.05 2.71837 3.75045 0
M  V30 23461 C 2162.78 3.45728 4.57449 0
M  V30 23462 N 2162.28 4.29233 5.43811 0
M  V30 23463 N 2164.07 3.34413 4.51801 0
M  V30 23464 H 2156.22 1.91932 0.909709 0
M  V30 23465 H 2158.48 0.828004 0.461642 0
M  V30 23466 H 2158.19 2.74 2.20492 0
M  V30 23467 H 2158.06 1.51457 3.45457 0
M  V30 23468 H 2160.45 0.719178 2.86202 0
M  V30 23469 H 2160.53 1.97835 1.62157 0
M  V30 23470 H 2160.18 3.74859 3.427 0
M  V30 23471 H 2160.11 2.46058 4.65578 0
M  V30 23472 H 2162.6 2.11248 3.13341 0
M  V30 23473 H 2162.91 4.82429 6.03723 0
M  V30 23474 H 2161.26 4.33319 5.43378 0
M  V30 23475 H 2164.45 2.68614 3.83359 0
M  V30 23476 H 2164.62 3.92257 5.15789 0
M  V30 23477 N 2158.03 -1.37449 0.771075 0
M  V30 23478 C 2158.96 -2.32874 0.170867 0
M  V30 23479 C 2159.94 -1.55746 -0.683892 0
M  V30 23480 O 2161.12 -1.83987 -0.621492 0
M  V30 23481 C 2158.25 -3.39974 -0.709566 0
M  V30 23482 C 2157.21 -4.27978 0.0438353 0
M  V30 23483 C 2156.53 -5.26084 -0.955998 0
M  V30 23484 C 2157.83 -5.07793 1.22245 0
M  V30 23485 H 2159.53 -2.83319 0.968038 0
M  V30 23486 H 2157.07 -1.36219 0.466952 0
M  V30 23487 H 2159.03 -4.05708 -1.13926 0
M  V30 23488 H 2157.75 -2.88053 -1.53925 0
M  V30 23489 H 2156.41 -3.63774 0.454301 0
M  V30 23490 H 2156.06 -4.70444 -1.78021 0
M  V30 23491 H 2155.76 -5.85824 -0.456445 0
M  V30 23492 H 2157.28 -5.94693 -1.38465 0
M  V30 23493 H 2158.69 -5.66669 0.869436 0
M  V30 23494 H 2157.09 -5.76855 1.65404 0
M  V30 23495 H 2158.16 -4.40506 2.02688 0
M  V30 23496 N 2159.5 -0.52156 -1.4872 0
M  V30 23497 C 2160.78 0.0795904 -1.95438 0
M  V30 23498 C 2161.16 1.52124 -1.46361 0
M  V30 23499 O 2160.51 2.17948 -0.686376 0
M  V30 23500 C 2160.72 -0.028961 -3.48988 0
M  V30 23501 C 2162.07 0.134582 -4.24387 0
M  V30 23502 O 2163.09 0.0452419 -3.56171 0
M  V30 23503 O 2161.95 0.32062 -5.45559 0
M  V30 23504 H 2159.04 0.0839623 -0.822727 0
M  V30 23505 H 2161.59 -0.58556 -1.59277 0
M  V30 23506 H 2160.36 -1.03353 -3.77404 0
M  V30 23507 H 2159.99 0.675418 -3.91821 0
M  V30 23508 N 2160.98 1.55502 -0.256304 0
M  V30 23509 C 2161.93 2.23175 0.655412 0
M  V30 23510 C 2162.92 1.22244 1.17272 0
M  V30 23511 O 2164.13 1.40229 1.12853 0
M  V30 23512 H 2160.51 0.716007 0.229866 0
M  V30 23513 H 2162.48 2.98336 0.0616012 0
M  V30 23514 C 2161.23 2.95209 1.83704 0
M  V30 23515 H 2160.55 3.72651 1.44814 0
M  V30 23516 H 2161.99 3.45909 2.452 0
M  V30 23517 C 2160.45 1.99611 2.71398 0
M  V30 23518 O 2160.98 1.53521 3.71207 0
M  V30 23519 N 2159.18 1.66511 2.38165 0
M  V30 23520 H 2158.73 2.04188 1.57051 0
M  V30 23521 H 2158.69 1.02816 2.97113 0
M  V30 23522 N 2162.46 -0.0166879 1.57591 0
M  V30 23523 C 2163.41 -1.02157 2.03833 0
M  V30 23524 C 2164.39 -1.31307 0.929912 0
M  V30 23525 O 2165.59 -1.30684 1.19376 0
M  V30 23526 C 2162.72 -2.31886 2.53148 0
M  V30 23527 C 2161.8 -2.05772 3.70835 0
M  V30 23528 N 2162.19 -1.49759 4.83121 0
M  V30 23529 C 2160.49 -2.35997 3.78446 0
M  V30 23530 C 2161.19 -1.39734 5.64667 0
M  V30 23531 N 2160.17 -1.87721 5.10159 0
M  V30 23532 H 2163.97 -0.582705 2.88066 0
M  V30 23533 H 2161.48 -0.22274 1.60865 0
M  V30 23534 H 2163.48 -3.04698 2.84543 0
M  V30 23535 H 2162.14 -2.76439 1.70327 0
M  V30 23536 H 2163.15 -1.17862 5.0431 0
M  V30 23537 H 2159.83 -2.83541 3.06449 0
M  V30 23538 H 2161.22 -0.968112 6.64889 0
M  V30 23539 N 2163.94 -1.54924 -0.289176 0
M  V30 23540 C 2165.35 -1.65642 -0.861368 0
M  V30 23541 C 2165.7 -0.572803 -1.87652 0
M  V30 23542 O 2164.83 0.288543 -2.14468 0
M  V30 23543 C 2165.42 -3.00274 -1.56911 0
M  V30 23544 C 2163.98 -3.13073 -2.08955 0
M  V30 23545 C 2163.13 -2.61377 -0.926152 0
M  V30 23546 H 2166.08 -1.58563 -0.0658933 0
M  V30 23547 H 2166.1 -2.92358 -2.4353 0
M  V30 23548 H 2165.61 -3.7912 -0.830021 0
M  V30 23549 H 2163.71 -2.38969 -2.85875 0
M  V30 23550 H 2163.82 -4.19404 -2.31596 0
M  V30 23551 H 2162.19 -2.18126 -1.31503 0
M  V30 23552 H 2162.97 -3.42712 -0.200828 0
M  V30 23553 N 2165.42 0.552936 -1.47582 0
M  V30 23554 C 2166.64 1.34003 -1.58297 0
M  V30 23555 C 2167.07 1.86625 -0.23511 0
M  V30 23556 O 2166.42 1.63197 0.789702 0
M  V30 23557 C 2166.47 2.48288 -2.61506 0
M  V30 23558 O 2165.58 3.50647 -2.17073 0
M  V30 23559 H 2164.92 0.397855 -0.531608 0
M  V30 23560 H 2167.45 0.667783 -1.93395 0
M  V30 23561 H 2167.46 2.94798 -2.8206 0
M  V30 23562 H 2166.13 2.09345 -3.59371 0
M  V30 23563 H 2164.71 3.10413 -2.06636 0
M  V30 23564 N 2166.89 1.35785 0.800009 0
M  V30 23565 C 2167.82 1.31917 1.92666 0
M  V30 23566 C 2168.81 0.19244 1.69008 0
M  V30 23567 O 2169.99 0.388435 1.90276 0
M  V30 23568 C 2167.12 1.09703 3.29519 0
M  V30 23569 C 2166.07 2.19086 3.67675 0
M  V30 23570 C 2165.4 1.82029 5.02762 0
M  V30 23571 C 2166.7 3.611 3.77365 0
M  V30 23572 H 2168.39 2.26189 1.96161 0
M  V30 23573 H 2165.94 1.08882 0.94237 0
M  V30 23574 H 2167.89 1.05634 4.07945 0
M  V30 23575 H 2166.62 0.118779 3.26384 0
M  V30 23576 H 2165.28 2.22263 2.91539 0
M  V30 23577 H 2164.92 0.828056 4.96137 0
M  V30 23578 H 2164.62 2.55256 5.29262 0
M  V30 23579 H 2166.15 1.79497 5.83621 0
M  V30 23580 H 2167.56 3.60209 4.46007 0
M  V30 23581 H 2165.96 4.33143 4.1534 0
M  V30 23582 H 2167.03 3.96774 2.78744 0
M  V30 23583 N 2168.37 -1.02294 1.19891 0
M  V30 23584 C 2169.6 -1.79144 1.02912 0
M  V30 23585 C 2170.01 -1.84365 -0.425007 0
M  V30 23586 O 2169.35 -1.29092 -1.30694 0
M  V30 23587 C 2169.42 -3.25345 1.52941 0
M  V30 23588 C 2169.08 -3.43746 3.01144 0
M  V30 23589 C 2170.08 -3.33481 3.98857 0
M  V30 23590 C 2167.76 -3.69768 3.39966 0
M  V30 23591 C 2169.76 -3.48971 5.33383 0
M  V30 23592 C 2167.44 -3.84903 4.7465 0
M  V30 23593 C 2168.44 -3.74508 5.71168 0
M  V30 23594 O 2168.13 -3.89189 7.03411 0
M  V30 23595 H 2167.86 -0.570423 0.362759 0
M  V30 23596 H 2170.41 -1.29691 1.59278 0
M  V30 23597 H 2168.64 -3.75851 0.90955 0
M  V30 23598 H 2170.33 -3.8381 1.32079 0
M  V30 23599 H 2171.1 -3.13321 3.70209 0
M  V30 23600 H 2166.98 -3.76949 2.65387 0
M  V30 23601 H 2170.52 -3.40774 6.08703 0
M  V30 23602 H 2166.42 -4.04561 5.02992 0
M  V30 23603 H 2167.19 -4.06244 7.10569 0
M  V30 23604 N 2169.85 -1.00378 -1.21499 0
M  V30 23605 C 2171.1 -0.681173 -1.8985 0
M  V30 23606 C 2171.41 0.791343 -1.78877 0
M  V30 23607 O 2172.62 1.22598 -2.42244 0
M  V30 23608 C 2171.07 -1.1679 -3.40424 0
M  V30 23609 C 2170.68 -2.6664 -3.6001 0
M  V30 23610 C 2172.43 -0.920124 -4.14408 0
M  V30 23611 C 2170.33 -3.0886 -5.04341 0
M  V30 23612 H 2169.26 -0.251086 -0.710965 0
M  V30 23613 H 2171.91 -1.21478 -1.37533 0
M  V30 23614 H 2170.3 -0.562349 -3.91987 0
M  V30 23615 H 2171.47 -3.32634 -3.18891 0
M  V30 23616 H 2169.79 -2.89419 -2.99376 0
M  V30 23617 H 2172.38 -1.21113 -5.20803 0
M  V30 23618 H 2172.73 0.143641 -4.16052 0
M  V30 23619 H 2173.26 -1.4884 -3.68906 0
M  V30 23620 H 2170 -4.14458 -5.07844 0
M  V30 23621 H 2169.52 -2.47577 -5.4632 0
M  V30 23622 H 2171.2 -3.00772 -5.7284 0
M  V30 23623 N 2171.33 1.37038 -0.778354 0
M  V30 23624 C 2172.26 2.27909 -0.115295 0
M  V30 23625 C 2173.24 1.46663 0.702059 0
M  V30 23626 O 2174.42 1.75984 0.67541 0
M  V30 23627 C 2171.55 3.28048 0.84273 0
M  V30 23628 C 2170.6 4.26362 0.108552 0
M  V30 23629 S 2171.43 5.21696 -1.20802 0
M  V30 23630 C 2172.59 6.25386 -0.253704 0
M  V30 23631 H 2172.82 2.83797 -0.885808 0
M  V30 23632 H 2170.35 1.43412 -0.572049 0
M  V30 23633 H 2172.31 3.86248 1.39005 0
M  V30 23634 H 2170.97 2.71094 1.5864 0
M  V30 23635 H 2170.16 4.97034 0.835063 0
M  V30 23636 H 2169.77 3.72185 -0.367963 0
M  V30 23637 H 2172.06 6.75085 0.5715 0
M  V30 23638 H 2173 7.01982 -0.928788 0
M  V30 23639 H 2173.41 5.64331 0.138033 0
M  V30 23640 N 2172.81 0.529439 1.48441 0
M  V30 23641 C 2173.74 -0.222417 2.32438 0
M  V30 23642 C 2174.72 -0.935598 1.42058 0
M  V30 23643 O 2175.9 -0.921483 1.70945 0
M  V30 23644 C 2173.03 -1.27012 3.23242 0
M  V30 23645 C 2171.99 -0.675114 4.22642 0
M  V30 23646 C 2171.31 -1.82543 5.02576 0
M  V30 23647 C 2172.61 0.352815 5.21107 0
M  V30 23648 H 2174.31 0.478777 2.95547 0
M  V30 23649 H 2171.85 0.231695 1.42124 0
M  V30 23650 H 2173.81 -1.80405 3.80831 0
M  V30 23651 H 2172.53 -2.00089 2.58132 0
M  V30 23652 H 2171.19 -0.162711 3.66239 0
M  V30 23653 H 2170.84 -2.54456 4.33891 0
M  V30 23654 H 2170.54 -1.43323 5.69853 0
M  V30 23655 H 2172.06 -2.36315 5.63017 0
M  V30 23656 H 2173.48 -0.0940075 5.73223 0
M  V30 23657 H 2171.87 0.662368 5.96433 0
M  V30 23658 H 2172.94 1.25877 4.68277 0
M  V30 23659 N 2174.29 -1.55364 0.264547 0
M  V30 23660 C 2175.7 -1.59347 -0.0898743 0
M  V30 23661 C 2175.9 -1.28177 -1.55476 0
M  V30 23662 O 2174.96 -1.03755 -2.30198 0
M  V30 23663 C 2176.27 -2.99438 0.27523 0
M  V30 23664 C 2177.82 -3.12219 0.220976 0
M  V30 23665 C 2178.29 -4.54559 0.560366 0
M  V30 23666 N 2179.78 -4.60367 0.511522 0
M  V30 23667 C 2180.52 -5.68513 0.747063 0
M  V30 23668 N 2180.02 -6.84848 1.04666 0
M  V30 23669 N 2181.81 -5.58013 0.676574 0
M  V30 23670 H 2173.96 -1.73891 1.21966 0
M  V30 23671 H 2176.22 -0.810337 0.491994 0
M  V30 23672 H 2175.93 -3.27046 1.2936 0
M  V30 23673 H 2175.8 -3.75188 -0.389113 0
M  V30 23674 H 2178.19 -2.84382 -0.788097 0
M  V30 23675 H 2178.27 -2.38705 0.919424 0
M  V30 23676 H 2177.91 -4.8312 1.56708 0
M  V30 23677 H 2177.84 -5.26358 -0.159757 0
M  V30 23678 H 2180.34 -3.7679 0.289407 0
M  V30 23679 H 2180.65 -7.63216 1.21334 0
M  V30 23680 H 2178.99 -6.86489 1.08433 0
M  V30 23681 H 2182.18 -4.66004 0.442433 0
M  V30 23682 H 2182.36 -6.42221 0.863527 0
M  V30 23683 N 2175.76 0.00833021 -1.57598 0
M  V30 23684 C 2176.67 1.01892 -2.11318 0
M  V30 23685 C 2177.69 1.38254 -1.0565 0
M  V30 23686 O 2178.87 1.47155 -1.37505 0
M  V30 23687 C 2175.93 2.29464 -2.59899 0
M  V30 23688 C 2174.99 1.99492 -3.80134 0
M  V30 23689 C 2174.22 3.20981 -4.26388 0
M  V30 23690 O 2174.45 4.3238 -3.72027 0
M  V30 23691 O 2173.38 3.05467 -5.18627 0
M  V30 23692 H 2177.21 0.592299 -2.97868 0
M  V30 23693 H 2174.79 0.226636 -1.47671 0
M  V30 23694 H 2176.67 3.04425 -2.91382 0
M  V30 23695 H 2175.35 2.7138 -1.76449 0
M  V30 23696 H 2174.26 1.22033 -3.53636 0
M  V30 23697 H 2175.59 1.62418 -4.6463 0
M  V30 23698 N 2177.24 1.55075 0.280956 0
M  V30 23699 C 2178.65 1.66097 0.852571 0
M  V30 23700 C 2179 0.582747 1.87346 0
M  V30 23701 O 2178.13 -0.277166 2.14618 0
M  V30 23702 C 2178.72 3.01102 1.55317 0
M  V30 23703 C 2177.28 3.14177 2.07292 0
M  V30 23704 C 2176.43 2.61864 0.912278 0
M  V30 23705 H 2179.38 1.58596 0.0574834 0
M  V30 23706 H 2179.4 2.93646 2.41976 0
M  V30 23707 H 2178.91 3.79555 0.809903 0
M  V30 23708 H 2177.01 2.40482 2.84604 0
M  V30 23709 H 2177.13 4.20627 2.29369 0
M  V30 23710 H 2175.49 2.1882 1.30345 0
M  V30 23711 H 2176.27 3.42814 0.18265 0
M  V30 23712 N 2178.72 -0.545102 1.47873 0
M  V30 23713 C 2179.94 -1.33162 1.59005 0
M  V30 23714 C 2180.37 -1.86498 0.245004 0
M  V30 23715 O 2179.73 -1.63614 -0.781037 0
M  V30 23716 C 2179.78 -2.46898 2.62819 0
M  V30 23717 O 2178.88 -3.49491 2.1893 0
M  V30 23718 H 2178.22 -0.395031 0.53371 0
M  V30 23719 H 2180.75 -0.657518 1.93747 0
M  V30 23720 H 2180.76 -2.93298 2.8362 0
M  V30 23721 H 2179.44 -2.07436 3.60476 0
M  V30 23722 H 2178.01 -3.09312 2.08279 0
M  V30 23723 N 2180.2 -1.36208 -0.792797 0
M  V30 23724 C 2181.44 -1.30249 -1.55053 0
M  V30 23725 C 2181.77 0.119193 -1.94134 0
M  V30 23726 O 2181.03 1.08769 -1.62689 0
M  V30 23727 C 2181.33 -2.16771 -2.84157 0
M  V30 23728 C 2180.99 -3.65368 -2.64229 0
M  V30 23729 C 2179.65 -4.0587 -2.58502 0
M  V30 23730 C 2182.01 -4.59598 -2.45804 0
M  V30 23731 C 2179.33 -5.38747 -2.32312 0
M  V30 23732 C 2181.69 -5.92688 -2.21141 0
M  V30 23733 C 2180.35 -6.32318 -2.13845 0
M  V30 23734 H 2179.62 -0.476617 -0.567378 0
M  V30 23735 H 2182.27 -1.6823 -0.914933 0
M  V30 23736 H 2180.57 -1.71716 -3.52166 0
M  V30 23737 H 2182.27 -2.09488 -3.41929 0
M  V30 23738 H 2178.86 -3.33236 -2.6954 0
M  V30 23739 H 2183.04 -4.29182 -2.49231 0
M  V30 23740 H 2178.3 -5.68437 -2.25143 0
M  V30 23741 H 2182.47 -6.65272 -2.05878 0
M  V30 23742 H 2180.1 -7.3521 -1.93314 0
M  V30 23743 N 2181.68 1.01656 -1.20431 0
M  V30 23744 C 2183.09 1.27562 -0.959176 0
M  V30 23745 C 2183.29 1.98235 0.361268 0
M  V30 23746 O 2182.35 2.27772 1.08979 0
M  V30 23747 C 2183.66 2.11061 -2.14181 0
M  V30 23748 C 2185.21 2.24327 -2.1828 0
M  V30 23749 C 2185.68 3.11204 -3.3603 0
M  V30 23750 N 2187.17 3.18793 -3.36044 0
M  V30 23751 C 2187.91 3.86239 -4.23801 0
M  V30 23752 N 2187.41 4.55811 -5.21736 0
M  V30 23753 N 2189.2 3.82763 -4.11642 0
M  V30 23754 H 2181.35 0.542057 -2.05367 0
M  V30 23755 H 2183.61 0.30186 -0.898657 0
M  V30 23756 H 2183.32 1.66468 -3.09808 0
M  V30 23757 H 2183.19 3.11798 -2.12278 0
M  V30 23758 H 2185.58 2.68145 -1.23216 0
M  V30 23759 H 2185.66 1.23099 -2.24232 0
M  V30 23760 H 2185.3 2.68092 -4.3138 0
M  V30 23761 H 2185.23 4.1252 -3.27315 0
M  V30 23762 H 2187.73 2.69255 -2.6516 0
M  V30 23763 H 2188.04 5.04944 -5.85023 0
M  V30 23764 H 2186.38 4.54635 -5.25673 0
M  V30 23765 H 2189.57 3.27557 -3.34401 0
M  V30 23766 H 2189.75 4.3505 -4.80245 0
M  V30 23767 N 2183.15 1.01021 1.20965 0
M  V30 23768 C 2184.06 0.584483 2.27202 0
M  V30 23769 C 2185.08 -0.374977 1.69912 0
M  V30 23770 O 2186.26 -0.237516 1.99995 0
M  V30 23771 C 2183.32 -0.0769879 3.46615 0
M  V30 23772 C 2182.38 0.927608 4.19159 0
M  V30 23773 C 2181.61 0.297609 5.3287 0
M  V30 23774 O 2181.84 -0.904289 5.63186 0
M  V30 23775 O 2180.77 1.01114 5.93346 0
M  V30 23776 H 2184.6 1.46877 2.65821 0
M  V30 23777 H 2182.18 0.779356 1.27461 0
M  V30 23778 H 2184.06 -0.446718 4.19026 0
M  V30 23779 H 2182.74 -0.935572 3.09885 0
M  V30 23780 H 2181.65 1.34859 3.48947 0
M  V30 23781 H 2182.98 1.75595 4.59812 0
M  V30 23782 N 2184.63 -1.36623 0.78561 0
M  V30 23783 C 2185.54 -2.33889 0.182448 0
M  V30 23784 C 2186.56 -1.60858 -0.66338 0
M  V30 23785 O 2187.73 -1.92866 -0.580058 0
M  V30 23786 C 2184.8 -3.40052 -0.675704 0
M  V30 23787 C 2183.86 -4.28887 0.188182 0
M  V30 23788 C 2183.09 -5.29979 -0.629108 0
M  V30 23789 O 2183.32 -5.39037 -1.86534 0
M  V30 23790 O 2182.25 -6.01892 -0.0310062 0
M  V30 23791 H 2186.08 -2.87229 0.986556 0
M  V30 23792 H 2183.66 -1.39026 0.547001 0
M  V30 23793 H 2185.54 -4.04971 -1.16518 0
M  V30 23794 H 2184.22 -2.89017 -1.45777 0
M  V30 23795 H 2183.12 -3.67021 0.724325 0
M  V30 23796 H 2184.46 -4.83263 0.933665 0
M  V30 23797 N 2186.11 -0.537304 -1.48158 0
M  V30 23798 C 2187.36 -0.00384223 -2.017 0
M  V30 23799 C 2187.67 1.34625 -1.419 0
M  V30 23800 O 2188.88 1.96849 -1.86983 0
M  V30 23801 C 2187.33 0.0435291 -3.59874 0
M  V30 23802 C 2186.94 -1.30211 -4.2866 0
M  V30 23803 C 2188.69 0.525433 -4.21236 0
M  V30 23804 C 2186.59 -1.21492 -5.78786 0
M  V30 23805 H 2185.52 0.00233368 -0.753996 0
M  V30 23806 H 2188.17 -0.682181 -1.70348 0
M  V30 23807 H 2186.56 0.7871 -3.88099 0
M  V30 23808 H 2187.73 -2.06182 -4.12099 0
M  V30 23809 H 2186.04 -1.72034 -3.79201 0
M  V30 23810 H 2188.64 0.608744 -5.31223 0
M  V30 23811 H 2188.98 1.5329 -3.8705 0
M  V30 23812 H 2189.52 -0.162674 -3.97467 0
M  V30 23813 H 2186.26 -2.19778 -6.17558 0
M  V30 23814 H 2185.78 -0.496694 -5.9774 0
M  V30 23815 H 2187.46 -0.908641 -6.40588 0
M  V30 23816 N 2187.59 1.55221 -0.272782 0
M  V30 23817 C 2188.84 1.99545 0.344667 0
M  V30 23818 C 2189.16 1.16117 1.56036 0
M  V30 23819 O 2188.42 0.218255 1.94479 0
M  V30 23820 C 2188.72 3.48938 0.773111 0
M  V30 23821 C 2188.38 4.49634 -0.337684 0
M  V30 23822 C 2187.05 4.76889 -0.642695 0
M  V30 23823 C 2189.4 5.09754 -1.0863 0
M  V30 23824 C 2186.73 5.61533 -1.69994 0
M  V30 23825 C 2189.08 5.95546 -2.13325 0
M  V30 23826 C 2187.74 6.21123 -2.44463 0
M  V30 23827 H 2187.01 0.730188 0.126123 0
M  V30 23828 H 2189.66 1.87569 -0.386008 0
M  V30 23829 H 2187.96 3.58378 1.58342 0
M  V30 23830 H 2189.66 3.80639 1.26156 0
M  V30 23831 H 2186.25 4.28506 -0.0898333 0
M  V30 23832 H 2190.43 4.88723 -0.863909 0
M  V30 23833 H 2185.69 5.79596 -1.94623 0
M  V30 23834 H 2189.86 6.41166 -2.71807 0
M  V30 23835 H 2187.49 6.86504 -3.26521 0
M  V30 23836 N 2189.07 2.77022e-05 1.576 0
M  V30 23837 C 2190.29 -0.699433 1.9525 0
M  V30 23838 C 2190.72 -1.66511 0.874964 0
M  V30 23839 O 2190.07 -1.8053 -0.166897 0
M  V30 23840 C 2190.12 -1.4075 3.31996 0
M  V30 23841 O 2189.23 -2.52192 3.26302 0
M  V30 23842 H 2188.57 -0.18604 0.637405 0
M  V30 23843 H 2191.1 0.053226 2.04531 0
M  V30 23844 H 2191.11 -1.77092 3.67563 0
M  V30 23845 H 2189.78 -0.699458 4.09976 0
M  V30 23846 H 2188.36 -2.18177 3.02412 0
M  V30 23847 N 2190.54 -1.55222 -0.272728 0
M  V30 23848 C 2191.79 -1.75047 -1.00208 0
M  V30 23849 C 2192.11 -0.559079 -1.8744 0
M  V30 23850 O 2193.31 -0.639745 -2.63855 0
M  V30 23851 C 2191.77 -3.09808 -1.83159 0
M  V30 23852 C 2191.38 -4.36514 -1.00793 0
M  V30 23853 C 2193.12 -3.38981 -2.55523 0
M  V30 23854 C 2191.03 -5.62315 -1.83184 0
M  V30 23855 H 2189.96 -0.652482 -0.377866 0
M  V30 23856 H 2192.61 -1.81681 -0.257744 0
M  V30 23857 H 2190.99 -2.97212 -2.61689 0
M  V30 23858 H 2192.16 -4.60027 -0.266774 0
M  V30 23859 H 2190.48 -4.14486 -0.398824 0
M  V30 23860 H 2193.08 -4.30178 -3.17571 0
M  V30 23861 H 2193.42 -2.59126 -3.25821 0
M  V30 23862 H 2193.95 -3.52676 -1.84022 0
M  V30 23863 H 2190.69 -6.44918 -1.17306 0
M  V30 23864 H 2190.21 -5.42944 -2.54896 0
M  V30 23865 H 2191.89 -6.00624 -2.40542 0
M  V30 23866 N 2192.02 0.537252 -1.4816 0
M  V30 23867 C 2193.43 1.11926 -1.49431 0
M  V30 23868 C 2193.78 1.94469 -0.260035 0
M  V30 23869 O 2192.91 2.06921 0.633453 0
M  V30 23870 C 2193.5 2.03651 -2.70762 0
M  V30 23871 C 2192.06 2.57083 -2.74927 0
M  V30 23872 C 2191.21 1.33885 -2.42837 0
M  V30 23873 H 2194.16 0.322859 -1.55381 0
M  V30 23874 H 2194.18 2.8783 -2.48866 0
M  V30 23875 H 2193.69 1.43547 -3.60577 0
M  V30 23876 H 2191.8 3.20929 -1.89302 0
M  V30 23877 H 2191.91 2.96714 -3.76162 0
M  V30 23878 H 2190.27 1.65223 -1.93839 0
M  V30 23879 H 2191.06 0.755445 -3.34885 0
M  V30 23880 N 2193.5 1.36626 0.785562 0
M  V30 23881 C 2194.43 1.27134 1.90708 0
M  V30 23882 C 2195.45 0.190014 1.61687 0
M  V30 23883 O 2196.63 0.445045 1.72863 0
M  V30 23884 C 2193.73 0.93977 3.25609 0
M  V30 23885 C 2192.91 2.12376 3.82381 0
M  V30 23886 C 2191.97 1.76464 4.95729 0
M  V30 23887 O 2190.99 2.48598 5.12043 0
M  V30 23888 N 2192.19 0.700594 5.76257 0
M  V30 23889 H 2194.96 2.23765 1.99372 0
M  V30 23890 H 2192.52 1.3007 0.964018 0
M  V30 23891 H 2194.51 0.680624 3.98936 0
M  V30 23892 H 2193.08 0.0624623 3.12538 0
M  V30 23893 H 2192.3 2.54548 3.00997 0
M  V30 23894 H 2193.59 2.91468 4.17042 0
M  V30 23895 H 2192.99 0.101724 5.65609 0
M  V30 23896 H 2191.55 0.501279 6.4987 0
M  V30 23897 N 2194.98 -1.01016 1.20969 0
M  V30 23898 C 2195.93 -2.09689 0.964317 0
M  V30 23899 C 2196.9 -1.6575 -0.107824 0
M  V30 23900 O 2198.08 -1.90762 0.0382323 0
M  V30 23901 C 2195.22 -3.41014 0.52949 0
M  V30 23902 C 2194.33 -3.98395 1.6705 0
M  V30 23903 C 2193.47 -5.17806 1.18534 0
M  V30 23904 C 2192.51 -5.67284 2.29902 0
M  V30 23905 N 2191.64 -6.77951 1.82558 0
M  V30 23906 H 2196.48 -2.30013 1.89467 0
M  V30 23907 H 2194.02 -1.12788 0.944309 0
M  V30 23908 H 2195.98 -4.16397 0.258662 0
M  V30 23909 H 2194.61 -3.20743 -0.363862 0
M  V30 23910 H 2193.66 -3.20046 2.05609 0
M  V30 23911 H 2194.97 -4.31113 2.50885 0
M  V30 23912 H 2194.13 -6.00417 0.870867 0
M  V30 23913 H 2192.87 -4.86669 0.316973 0
M  V30 23914 H 2191.87 -4.83273 2.62158 0
M  V30 23915 H 2193.1 -6.00453 3.17226 0
M  V30 23916 H 2191.04 -6.4863 0.980568 0
M  V30 23917 H 2190.96 -7.09896 2.59969 0
M  V30 23918 H 2192.23 -7.6411 1.54129 0
M  V30 23919 N 2196.46 -1.01661 -1.20428 0
M  V30 23920 C 2197.71 -0.70127 -1.89117 0
M  V30 23921 C 2198.02 0.772326 -1.79707 0
M  V30 23922 O 2199.22 1.20022 -2.4353 0
M  V30 23923 C 2197.68 -1.20394 -3.39166 0
M  V30 23924 C 2197.29 -2.70444 -3.57161 0
M  V30 23925 C 2199.03 -0.964026 -4.13409 0
M  V30 23926 C 2196.94 -3.14191 -5.01037 0
M  V30 23927 H 2195.87 -0.258613 -0.708262 0
M  V30 23928 H 2198.52 -1.2293 -1.36237 0
M  V30 23929 H 2196.9 -0.603893 -3.91368 0
M  V30 23930 H 2198.08 -3.35998 -3.15345 0
M  V30 23931 H 2196.39 -2.92578 -2.96289 0
M  V30 23932 H 2198.99 -1.2663 -5.19489 0
M  V30 23933 H 2199.33 0.0995048 -4.16181 0
M  V30 23934 H 2199.86 -1.52745 -3.67306 0
M  V30 23935 H 2196.6 -4.19821 -5.03419 0
M  V30 23936 H 2196.12 -2.53358 -5.43663 0
M  V30 23937 H 2197.8 -3.0683 -5.69618 0
M  V30 23938 N 2197.93 1.36205 -0.792844 0
M  V30 23939 C 2199.35 1.81692 -0.429545 0
M  V30 23940 C 2199.7 1.65934 1.04692 0
M  V30 23941 O 2198.82 1.18221 1.81253 0
M  V30 23942 C 2199.42 3.29866 -0.772889 0
M  V30 23943 C 2197.98 3.73549 -0.462373 0
M  V30 23944 C 2197.12 2.58419 -1.00574 0
M  V30 23945 H 2200.07 1.24378 -0.985694 0
M  V30 23946 H 2200.09 3.80444 -0.0652596 0
M  V30 23947 H 2199.61 3.41303 -1.84753 0
M  V30 23948 H 2197.71 3.6767 0.604094 0
M  V30 23949 H 2197.82 4.68857 -0.985382 0
M  V30 23950 H 2196.18 2.51065 -0.428778 0
M  V30 23951 H 2196.97 2.72639 -2.08621 0
M  V30 23952 N 2199.41 0.545154 1.47871 0
M  V30 23953 C 2200.38 -0.198677 2.28337 0
M  V30 23954 C 2201.38 -0.853864 1.36256 0
M  V30 23955 O 2202.57 -0.711578 1.59004 0
M  V30 23956 C 2199.7 -1.2891 3.15587 0
M  V30 23957 H 2200.89 0.507993 2.95566 0
M  V30 23958 H 2198.44 0.301643 1.53362 0
M  V30 23959 H 2199.18 -2.02855 2.53023 0
M  V30 23960 H 2198.96 -0.824241 3.83339 0
M  V30 23961 H 2200.45 -1.81187 3.76246 0
M  V30 23962 N 2200.89 -1.55074 0.28101 0
M  V30 23963 C 2201.85 -2.21453 -0.590858 0
M  V30 23964 C 2202.85 -1.19423 -1.07679 0
M  V30 23965 O 2204.04 -1.44289 -0.976025 0
M  V30 23966 C 2201.18 -2.88515 -1.81582 0
M  V30 23967 H 2202.37 -2.99898 -0.0112027 0
M  V30 23968 H 2199.92 -1.56268 0.0316713 0
M  V30 23969 H 2200.66 -2.14097 -2.43584 0
M  V30 23970 H 2200.44 -3.63289 -1.47524 0
M  V30 23971 H 2201.93 -3.39211 -2.43569 0
M  V30 23972 N 2202.37 -0.00838561 -1.57598 0
M  V30 23973 C 2203.6 0.684462 -1.94932 0
M  V30 23974 C 2204.01 1.6737 -0.882262 0
M  V30 23975 O 2203.35 1.83114 0.146589 0
M  V30 23976 C 2203.41 1.46485 -3.28302 0
M  V30 23977 C 2203.08 0.63626 -4.52549 0
M  V30 23978 C 2204.07 -0.07965 -5.19839 0
M  V30 23979 C 2201.76 0.579761 -4.98943 0
M  V30 23980 C 2203.75 -0.840954 -6.31828 0
M  V30 23981 C 2201.44 -0.185262 -6.10819 0
M  V30 23982 C 2202.44 -0.894346 -6.77119 0
M  V30 23983 O 2202.13 -1.64687 -7.8685 0
M  V30 23984 H 2201.86 0.195038 -0.647253 0
M  V30 23985 H 2204.41 -0.0581632 -2.05318 0
M  V30 23986 H 2202.64 2.25214 -3.14349 0
M  V30 23987 H 2204.33 2.04383 -3.50689 0
M  V30 23988 H 2205.1 -0.0452054 -4.84979 0
M  V30 23989 H 2200.98 1.12122 -4.47157 0
M  V30 23990 H 2204.52 -1.39495 -6.83511 0
M  V30 23991 H 2200.42 -0.221498 -6.4512 0
M  V30 23992 H 2201.18 -1.56446 -8.0341 0
M  V30 23993 N 2203.85 1.55365 0.264492 0
M  V30 23994 C 2205.26 1.66992 0.834906 0
M  V30 23995 C 2205.61 0.602585 1.86717 0
M  V30 23996 O 2204.73 -0.254387 2.149 0
M  V30 23997 C 2205.33 3.02732 1.52114 0
M  V30 23998 C 2203.89 3.16358 2.03948 0
M  V30 23999 C 2203.04 2.62817 0.884452 0
M  V30 24000 H 2205.99 1.58648 0.040659 0
M  V30 24001 H 2206.01 2.96196 2.38848 0
M  V30 24002 H 2205.52 3.80393 0.769601 0
M  V30 24003 H 2203.62 2.43487 2.82037 0
M  V30 24004 H 2203.73 4.23036 2.24894 0
M  V30 24005 H 2202.1 2.20191 1.28016 0
M  V30 24006 H 2202.88 3.42988 0.14628 0
M  V30 24007 N 2205.33 -0.529387 1.48443 0
M  V30 24008 C 2206.55 -1.30991 1.60153 0
M  V30 24009 C 2206.97 -1.86973 0.262017 0
M  V30 24010 O 2206.33 -1.66432 -0.748776 0
M  V30 24011 C 2206.38 -2.46033 2.64858 0
M  V30 24012 O 2206.1 -1.92358 3.93612 0
M  V30 24013 C 2207.6 -3.37844 2.87013 0
M  V30 24014 H 2204.82 -0.398328 0.539978 0
M  V30 24015 H 2207.36 -0.638563 1.94275 0
M  V30 24016 H 2205.52 -3.09051 2.33594 0
M  V30 24017 H 2205.93 -2.67667 4.51059 0
M  V30 24018 H 2207.41 -4.14913 3.64076 0
M  V30 24019 H 2207.88 -3.93111 1.95859 0
M  V30 24020 H 2208.49 -2.80617 3.19584 0
M  V30 24021 N 2206.8 -1.37041 -0.778305 0
M  V30 24022 C 2208.03 -1.35066 -1.56731 0
M  V30 24023 C 2208.45 0.0655266 -1.88686 0
M  V30 24024 O 2207.8 1.02552 -1.50962 0
M  V30 24025 C 2207.85 -2.18281 -2.88159 0
M  V30 24026 O 2207.58 -3.54381 -2.57577 0
M  V30 24027 C 2209.08 -2.24212 -3.82418 0
M  V30 24028 H 2206.3 -0.462891 -0.48577 0
M  V30 24029 H 2208.84 -1.80292 -0.965154 0
M  V30 24030 H 2207 -1.76582 -3.44815 0
M  V30 24031 H 2207.41 -3.97928 -3.41692 0
M  V30 24032 H 2208.88 -2.86774 -4.71662 0
M  V30 24033 H 2209.36 -1.24869 -4.21075 0
M  V30 24034 H 2209.97 -2.66196 -3.31693 0
M  V30 24035 N 2208.28 1.00373 -1.21503 0
M  V30 24036 C 2209.21 2.0889 -0.918706 0
M  V30 24037 C 2210.19 1.62045 0.134248 0
M  V30 24038 O 2211.38 1.88499 0.00500942 0
M  V30 24039 C 2208.5 3.36565 -0.379704 0
M  V30 24040 C 2207.55 4.0232 -1.41566 0
M  V30 24041 S 2208.38 4.44568 -2.98528 0
M  V30 24042 C 2209.54 5.75428 -2.46238 0
M  V30 24043 H 2209.77 2.33704 -1.83766 0
M  V30 24044 H 2207.3 1.13671 -1.04491 0
M  V30 24045 H 2209.26 4.10431 -0.0752917 0
M  V30 24046 H 2207.92 3.098 0.517954 0
M  V30 24047 H 2207.12 4.94218 -0.988163 0
M  V30 24048 H 2206.72 3.34734 -1.66821 0
M  V30 24049 H 2209.01 6.51238 -1.86803 0
M  V30 24050 H 2209.95 6.22991 -3.36583 0
M  V30 24051 H 2210.36 5.32309 -1.87904 0
M  V30 24052 N 2209.76 1.02298 1.19887 0
M  V30 24053 C 2210.71 0.598691 2.229 0
M  V30 24054 C 2211.68 -0.384492 1.61589 0
M  V30 24055 O 2212.86 -0.282489 1.88697 0
M  V30 24056 C 2210 -0.0503869 3.45063 0
M  V30 24057 C 2209.11 0.978127 4.20781 0
M  V30 24058 C 2208.25 0.299432 5.30355 0
M  V30 24059 C 2207.29 1.31426 5.97824 0
M  V30 24060 N 2206.43 0.66179 6.98974 0
M  V30 24061 H 2211.27 1.48173 2.58551 0
M  V30 24062 H 2208.8 0.741606 1.27038 0
M  V30 24063 H 2210.76 -0.443898 4.14832 0
M  V30 24064 H 2209.39 -0.897042 3.10085 0
M  V30 24065 H 2208.44 1.48975 3.50015 0
M  V30 24066 H 2209.75 1.74967 4.67106 0
M  V30 24067 H 2208.91 -0.14924 6.06516 0
M  V30 24068 H 2207.65 -0.50436 4.85085 0
M  V30 24069 H 2206.65 1.77326 5.20419 0
M  V30 24070 H 2207.88 2.11945 6.45179 0
M  V30 24071 H 2205.82 -0.122017 6.55887 0
M  V30 24072 H 2205.74 1.3713 7.43459 0
M  V30 24073 H 2207.01 0.236922 7.7914 0
M  V30 24074 N 2211.24 -1.35782 0.800057 0
M  V30 24075 C 2212.15 -2.33683 0.207245 0
M  V30 24076 C 2213.16 -1.61552 -0.646282 0
M  V30 24077 O 2214.34 -1.9347 -0.55957 0
M  V30 24078 C 2211.4 -3.40749 -0.639599 0
M  V30 24079 C 2210.47 -4.28664 0.23366 0
M  V30 24080 C 2209.7 -5.30617 -0.572861 0
M  V30 24081 O 2209.92 -5.40986 -1.80806 0
M  V30 24082 O 2208.86 -6.01891 0.0328343 0
M  V30 24083 H 2212.68 -2.86167 1.01697 0
M  V30 24084 H 2210.27 -1.38438 0.561715 0
M  V30 24085 H 2212.15 -4.06184 -1.12216 0
M  V30 24086 H 2210.82 -2.90547 -1.42703 0
M  V30 24087 H 2209.73 -3.66232 0.763212 0
M  V30 24088 H 2211.06 -4.82246 0.984869 0
M  V30 24089 N 2212.72 -0.552988 -1.4758 0
M  V30 24090 C 2213.96 -0.0273058 -2.02082 0
M  V30 24091 C 2214.28 1.32561 -1.43013 0
M  V30 24092 O 2213.55 1.86363 -0.603778 0
M  V30 24093 H 2212.13 -0.00710495 -0.746966 0
M  V30 24094 H 2214.8 -0.72204 -1.81032 0
M  V30 24095 H 2213.89 0.0639403 -3.12034 0
M  V30 24096 N 2214.19 1.54923 -0.28923 0
M  V30 24097 C 2215.14 2.24515 0.607926 0
M  V30 24098 C 2216.14 1.24704 1.14653 0
M  V30 24099 O 2217.34 1.42591 1.09853 0
M  V30 24100 H 2213.72 0.720721 0.214627 0
M  V30 24101 H 2215.69 2.984 -0.00169428 0
M  V30 24102 C 2214.44 2.99039 1.77401 0
M  V30 24103 H 2213.76 3.75639 1.36877 0
M  V30 24104 H 2215.2 3.51032 2.37807 0
M  V30 24105 C 2213.66 2.05323 2.67103 0
M  V30 24106 O 2214.19 1.6136 3.67867 0
M  V30 24107 N 2212.39 1.71526 2.34579 0
M  V30 24108 H 2211.94 2.07473 1.52685 0
M  V30 24109 H 2211.9 1.09095 2.94865 0
M  V30 24110 N 2215.67 0.0167433 1.57591 0
M  V30 24111 C 2217.09 -0.339529 1.55947 0
M  V30 24112 C 2217.29 -1.73711 1.02112 0
M  V30 24113 O 2216.34 -2.43658 0.662345 0
M  V30 24114 C 2217.66 -0.199446 3.00038 0
M  V30 24115 C 2219.2 -0.273139 3.11806 0
M  V30 24116 C 2219.68 -0.161988 4.57713 0
M  V30 24117 N 2221.17 -0.219363 4.6268 0
M  V30 24118 C 2221.91 -0.156954 5.73185 0
M  V30 24119 N 2221.4 -0.0441718 6.92786 0
M  V30 24120 N 2223.19 -0.210041 5.61707 0
M  V30 24121 H 2215.35 0.930792 1.90919 0
M  V30 24122 H 2217.61 0.358334 0.877668 0
M  V30 24123 H 2217.31 0.76279 3.43328 0
M  V30 24124 H 2217.19 -0.974722 3.64389 0
M  V30 24125 H 2219.58 -1.22583 2.68435 0
M  V30 24126 H 2219.66 0.5323 2.502 0
M  V30 24127 H 2219.3 0.787228 5.01762 0
M  V30 24128 H 2219.23 -0.986131 5.17284 0
M  V30 24129 H 2221.72 -0.30718 3.76649 0
M  V30 24130 H 2222.03 -0.00290485 7.728 0
M  V30 24131 H 2220.38 -0.00956241 6.94999 0
M  V30 24132 H 2223.57 -0.296464 4.6716 0
M  V30 24133 H 2223.74 -0.15794 6.47807 0
M  V30 24134 N 2217.15 -1.55503 -0.256249 0
M  V30 24135 C 2218.38 -1.81278 -1.00762 0
M  V30 24136 C 2218.8 -0.592551 -1.78523 0
M  V30 24137 O 2218.16 0.458239 -1.75413 0
M  V30 24138 C 2218.21 -3.0469 -1.92864 0
M  V30 24139 O 2217.31 -2.8095 -3.01896 0
M  V30 24140 H 2216.65 -0.598669 -0.287213 0
M  V30 24141 H 2219.18 -2.02674 -0.280074 0
M  V30 24142 H 2219.19 -3.33873 -2.34505 0
M  V30 24143 H 2217.87 -3.93145 -1.35682 0
M  V30 24144 H 2216.44 -2.62909 -2.64449 0
M  V30 24145 N 2218.63 0.521507 -1.48721 0
M  V30 24146 C 2219.88 1.27339 -1.56422 0
M  V30 24147 C 2220.19 1.94036 -0.246839 0
M  V30 24148 O 2221.4 2.70746 -0.20217 0
M  V30 24149 C 2219.85 2.311 -2.759 0
M  V30 24150 C 2219.46 1.70433 -4.14314 0
M  V30 24151 C 2221.2 3.07244 -2.92919 0
M  V30 24152 C 2219.11 2.72185 -5.25042 0
M  V30 24153 H 2218.04 0.478938 -0.582352 0
M  V30 24154 H 2220.69 0.549748 -1.75071 0
M  V30 24155 H 2219.07 3.06536 -2.50702 0
M  V30 24156 H 2220.25 1.01128 -4.49566 0
M  V30 24157 H 2218.56 1.06752 -4.02484 0
M  V30 24158 H 2221.16 3.83296 -3.72812 0
M  V30 24159 H 2221.5 3.63621 -2.02695 0
M  V30 24160 H 2222.04 2.38922 -3.18058 0
M  V30 24161 H 2218.78 2.20616 -6.17259 0
M  V30 24162 H 2218.3 3.39792 -4.94269 0
M  V30 24163 H 2219.97 3.35009 -5.53514 0
M  V30 24164 N 2220.11 1.37452 0.771027 0
M  V30 24165 C 2221.04 1.35974 1.89825 0
M  V30 24166 C 2222.02 0.228246 1.68562 0
M  V30 24167 O 2223.2 0.428708 1.89409 0
M  V30 24168 C 2220.33 1.16668 3.27118 0
M  V30 24169 C 2219.29 2.26836 3.62946 0
M  V30 24170 C 2218.61 1.92652 4.98788 0
M  V30 24171 C 2219.91 3.69023 3.6962 0
M  V30 24172 H 2221.61 2.30299 1.91319 0
M  V30 24173 H 2219.15 1.10857 0.919062 0
M  V30 24174 H 2221.11 1.14263 4.05613 0
M  V30 24175 H 2219.83 0.187983 3.26059 0
M  V30 24176 H 2218.49 2.28397 2.86759 0
M  V30 24177 H 2218.14 0.933108 4.94269 0
M  V30 24178 H 2217.84 2.66425 5.23729 0
M  V30 24179 H 2219.36 1.91836 5.79682 0
M  V30 24180 H 2220.77 3.69588 4.38266 0
M  V30 24181 H 2219.17 4.41855 4.06059 0
M  V30 24182 H 2220.24 4.02597 2.70266 0
M  V30 24183 N 2221.58 -0.997276 1.22033 0
M  V30 24184 C 2222.82 -1.75142 1.05378 0
M  V30 24185 C 2223.19 -1.87687 -0.404663 0
M  V30 24186 O 2224.39 -2.59741 -0.691953 0
M  V30 24187 C 2222.66 -3.12155 1.74052 0
M  V30 24188 S 2224.22 -4.03363 1.72753 0
M  V30 24189 H 2221.04 -0.602532 0.37746 0
M  V30 24190 H 2223.64 -1.19269 1.54904 0
M  V30 24191 H 2222.34 -3.00664 2.79338 0
M  V30 24192 H 2221.87 -3.731 1.24738 0
M  V30 24193 H 2223.89 -4.90125 0.774101 0
M  V30 24194 N 2223.06 -1.02932 -1.19343 0
M  V30 24195 C 2224.29 -0.744597 -1.92716 0
M  V30 24196 C 2224.7 0.700548 -1.75753 0
M  V30 24197 O 2224.04 1.48813 -1.07705 0
M  V30 24198 C 2224.11 -1.01663 -3.44826 0
M  V30 24199 C 2223.77 -2.45342 -3.8556 0
M  V30 24200 C 2224.77 -3.43479 -3.9028 0
M  V30 24201 C 2222.45 -2.79753 -4.17185 0
M  V30 24202 C 2224.45 -4.74083 -4.26056 0
M  V30 24203 C 2222.13 -4.10567 -4.52635 0
M  V30 24204 C 2223.13 -5.07542 -4.57045 0
M  V30 24205 O 2222.82 -6.36013 -4.91673 0
M  V30 24206 H 2222.55 -0.271753 -0.618972 0
M  V30 24207 H 2225.1 -1.37693 -1.52413 0
M  V30 24208 H 2223.33 -0.327151 -3.85314 0
M  V30 24209 H 2225.02 -0.721497 -3.99436 0
M  V30 24210 H 2225.79 -3.18231 -3.65997 0
M  V30 24211 H 2221.67 -2.0495 -4.12936 0
M  V30 24212 H 2225.21 -5.49773 -4.29414 0
M  V30 24213 H 2221.11 -4.35587 -4.76376 0
M  V30 24214 H 2221.88 -6.40492 -5.09619 0
M  V30 24215 N 2224.54 1.35356 -0.807246 0
M  V30 24216 C 2225.47 2.32339 -0.23255 0
M  V30 24217 C 2226.45 1.57505 0.642358 0
M  V30 24218 O 2227.64 1.8557 0.572493 0
M  V30 24219 C 2224.77 3.41736 0.619178 0
M  V30 24220 C 2223.72 4.27711 -0.157291 0
M  V30 24221 C 2223.05 5.28434 0.81618 0
M  V30 24222 C 2224.35 5.04373 -1.35665 0
M  V30 24223 H 2226.04 2.80652 -1.04281 0
M  V30 24224 H 2223.59 1.34933 -0.502904 0
M  V30 24225 H 2225.54 4.08586 1.03129 0
M  V30 24226 H 2224.26 2.92033 1.46233 0
M  V30 24227 H 2222.92 3.62442 -0.550589 0
M  V30 24228 H 2222.57 4.74998 1.65486 0
M  V30 24229 H 2222.27 5.86829 0.300964 0
M  V30 24230 H 2223.79 5.98155 1.22649 0
M  V30 24231 H 2225.21 5.64165 -1.01937 0
M  V30 24232 H 2223.61 5.72267 -1.8064 0
M  V30 24233 H 2224.68 4.34977 -2.14296 0
M  V30 24234 N 2226.02 0.560807 1.47284 0
M  V30 24235 C 2226.95 -0.222398 2.28118 0
M  V30 24236 C 2227.96 -0.876032 1.37221 0
M  V30 24237 O 2229.15 -0.749279 1.62013 0
M  V30 24238 C 2226.25 -1.33279 3.11592 0
M  V30 24239 C 2225.43 -0.775265 4.30475 0
M  V30 24240 C 2224.48 -1.7706 4.95516 0
M  V30 24241 O 2223.51 -1.31529 5.53795 0
M  V30 24242 N 2224.71 -3.10409 4.90537 0
M  V30 24243 H 2227.48 0.47101 2.95976 0
M  V30 24244 H 2225.04 0.397118 1.56954 0
M  V30 24245 H 2227.03 -1.99746 3.51971 0
M  V30 24246 H 2225.6 -1.92938 2.45954 0
M  V30 24247 H 2224.82 0.0662805 3.94144 0
M  V30 24248 H 2226.11 -0.382182 5.07363 0
M  V30 24249 H 2225.51 -3.50042 4.44395 0
M  V30 24250 H 2224.06 -3.72425 5.34923 0
M  V30 24251 N 2227.5 -1.54768 0.297442 0
M  V30 24252 C 2228.45 -2.20093 -0.595236 0
M  V30 24253 C 2229.43 -1.17275 -1.10161 0
M  V30 24254 O 2230.62 -1.43007 -1.04297 0
M  V30 24255 C 2227.75 -2.94252 -1.76835 0
M  V30 24256 C 2226.84 -4.04382 -1.27811 0
M  V30 24257 N 2227.23 -5.03267 -0.505606 0
M  V30 24258 C 2225.53 -4.17859 -1.55915 0
M  V30 24259 C 2226.23 -5.81184 -0.244992 0
M  V30 24260 N 2225.2 -5.37322 -0.823787 0
M  V30 24261 H 2229.01 -2.939 0.00256003 0
M  V30 24262 H 2226.52 -1.62079 0.102035 0
M  V30 24263 H 2228.52 -3.39517 -2.41938 0
M  V30 24264 H 2227.18 -2.21961 -2.36988 0
M  V30 24265 H 2228.19 -5.1768 -0.150837 0
M  V30 24266 H 2224.86 -3.56771 -2.16842 0
M  V30 24267 H 2226.25 -6.70852 0.375202 0
M  V30 24268 N 2228.97 -0.0251005 -1.5758 0
M  V30 24269 C 2230.22 0.65538 -1.91918 0
M  V30 24270 C 2230.55 1.7201 -0.901464 0
M  V30 24271 O 2229.83 1.9435 0.0763727 0
M  V30 24272 C 2230.11 1.27552 -3.36753 0
M  V30 24273 C 2229.96 0.22064 -4.49259 0
M  V30 24274 C 2231.28 2.19468 -3.81473 0
M  V30 24275 H 2228.4 0.236778 -0.697929 0
M  V30 24276 H 2231.04 -0.081537 -1.89825 0
M  V30 24277 H 2229.19 1.90359 -3.38667 0
M  V30 24278 H 2230.87 -0.409682 -4.59477 0
M  V30 24279 H 2229.11 -0.45434 -4.31414 0
M  V30 24280 H 2229.78 0.694079 -5.47619 0
M  V30 24281 H 2232.26 1.66652 -3.81269 0
M  V30 24282 H 2231.13 2.59813 -4.83516 0
M  V30 24283 H 2231.39 3.08419 -3.1675 0
M  V30 24284 N 2230.45 1.55637 0.247999 0
M  V30 24285 C 2231.38 1.9324 1.31075 0
M  V30 24286 C 2232.36 0.797201 1.50262 0
M  V30 24287 O 2233.55 1.0574 1.62889 0
M  V30 24288 C 2230.68 2.22614 2.66571 0
M  V30 24289 C 2229.63 3.38375 2.62081 0
M  V30 24290 C 2228.96 3.53288 4.01362 0
M  V30 24291 C 2230.26 4.74094 2.19163 0
M  V30 24292 H 2231.95 2.82259 0.998506 0
M  V30 24293 H 2229.5 1.35804 0.478886 0
M  V30 24294 H 2231.45 2.47509 3.41053 0
M  V30 24295 H 2230.18 1.30419 2.9943 0
M  V30 24296 H 2228.83 3.13487 1.90057 0
M  V30 24297 H 2228.48 2.58515 4.31484 0
M  V30 24298 H 2228.18 4.31134 3.99246 0
M  V30 24299 H 2229.71 3.80503 4.77546 0
M  V30 24300 H 2231.12 4.98368 2.83376 0
M  V30 24301 H 2229.52 5.55034 2.2816 0
M  V30 24302 H 2230.59 4.7123 1.14327 0
M  V30 24303 N 2231.93 -0.513613 1.48996 0
M  V30 24304 C 2233.35 -0.843658 1.35479 0
M  V30 24305 C 2233.55 -1.97918 0.378248 0
M  V30 24306 O 2232.6 -2.51749 -0.194645 0
M  V30 24307 C 2233.92 -1.19575 2.75903 0
M  V30 24308 C 2235.46 -1.30469 2.84512 0
M  V30 24309 C 2235.94 -1.69014 4.25674 0
M  V30 24310 N 2237.43 -1.76086 4.28425 0
M  V30 24311 C 2238.17 -2.07329 5.34605 0
M  V30 24312 N 2237.66 -2.36883 6.51044 0
M  V30 24313 N 2239.45 -2.08473 5.22011 0
M  V30 24314 H 2231.61 0.235365 2.11092 0
M  V30 24315 H 2233.87 0.0426835 0.947039 0
M  V30 24316 H 2233.57 -0.434852 3.49001 0
M  V30 24317 H 2233.45 -2.14214 3.10471 0
M  V30 24318 H 2235.84 -2.05633 2.11658 0
M  V30 24319 H 2235.92 -0.33911 2.53542 0
M  V30 24320 H 2235.56 -0.944047 4.99049 0
M  V30 24321 H 2235.49 -2.6665 4.54098 0
M  V30 24322 H 2237.98 -1.55458 3.44443 0
M  V30 24323 H 2238.29 -2.59874 7.27795 0
M  V30 24324 H 2236.64 -2.34366 6.54292 0
M  V30 24325 H 2239.83 -1.84853 4.30055 0
M  V30 24326 H 2240 -2.32489 6.04858 0
M  V30 24327 N 2233.41 -1.37859 -0.763727 0
M  V30 24328 C 2234.64 -1.36523 -1.55065 0
M  V30 24329 C 2235.05 0.0493894 -1.89136 0
M  V30 24330 O 2234.39 1.02372 -1.52531 0
M  V30 24331 C 2234.45 -2.14661 -2.88376 0
M  V30 24332 C 2234.12 -3.6356 -2.76899 0
M  V30 24333 C 2235.11 -4.57272 -2.47382 0
M  V30 24334 C 2232.8 -4.06787 -2.94669 0
M  V30 24335 C 2234.79 -5.9219 -2.35776 0
M  V30 24336 C 2232.48 -5.41787 -2.82683 0
M  V30 24337 C 2233.48 -6.34302 -2.53278 0
M  V30 24338 O 2233.17 -7.66821 -2.41332 0
M  V30 24339 H 2232.9 -0.469077 -0.486768 0
M  V30 24340 H 2235.45 -1.81913 -0.953781 0
M  V30 24341 H 2233.68 -1.63973 -3.50214 0
M  V30 24342 H 2235.37 -2.05858 -3.49824 0
M  V30 24343 H 2236.14 -4.25184 -2.33331 0
M  V30 24344 H 2232.02 -3.35131 -3.16557 0
M  V30 24345 H 2235.56 -6.64368 -2.12745 0
M  V30 24346 H 2231.46 -5.73475 -2.96304 0
M  V30 24347 H 2232.22 -7.77231 -2.56621 0
M  V30 24348 N 2234.89 0.990791 -1.22561 0
M  V30 24349 C 2235.8 2.11555 -1.01398 0
M  V30 24350 C 2236.81 1.73958 0.0383656 0
M  V30 24351 O 2237.99 2.00804 -0.154822 0
M  V30 24352 C 2235.05 3.41528 -0.596629 0
M  V30 24353 C 2234.12 3.93214 -1.72283 0
M  V30 24354 C 2233.35 5.16983 -1.3253 0
M  V30 24355 O 2233.57 5.70031 -0.205009 0
M  V30 24356 O 2232.51 5.62475 -2.14257 0
M  V30 24357 H 2236.33 2.32293 -1.95637 0
M  V30 24358 H 2233.92 1.09929 -1.01174 0
M  V30 24359 H 2235.8 4.19734 -0.374337 0
M  V30 24360 H 2234.47 3.22145 0.316883 0
M  V30 24361 H 2233.38 3.16171 -1.99967 0
M  V30 24362 H 2234.71 4.17032 -2.61429 0
M  V30 24363 N 2236.37 1.03564 1.18795 0
M  V30 24364 C 2237.78 0.753941 1.40669 0
M  V30 24365 C 2237.98 -0.658652 1.90431 0
M  V30 24366 O 2237.04 -1.42363 2.0854 0
M  V30 24367 C 2238.35 1.79578 2.41189 0
M  V30 24368 C 2239.9 1.81611 2.54925 0
M  V30 24369 C 2240.37 2.84772 3.58704 0
M  V30 24370 N 2241.86 2.83632 3.66207 0
M  V30 24371 C 2242.6 3.60106 4.46219 0
M  V30 24372 N 2242.1 4.46317 5.2988 0
M  V30 24373 N 2243.89 3.48618 4.40933 0
M  V30 24374 H 2236.04 1.94729 0.848187 0
M  V30 24375 H 2238.3 0.842272 0.435066 0
M  V30 24376 H 2238.01 2.80876 2.11664 0
M  V30 24377 H 2237.88 1.62371 3.40464 0
M  V30 24378 H 2240.27 0.809867 2.8377 0
M  V30 24379 H 2240.35 2.02894 1.55781 0
M  V30 24380 H 2239.99 3.85572 3.306 0
M  V30 24381 H 2239.92 2.60745 4.57515 0
M  V30 24382 H 2242.42 2.2111 3.06462 0
M  V30 24383 H 2242.73 5.01392 5.8807 0
M  V30 24384 H 2241.07 4.50386 5.29318 0
M  V30 24385 H 2244.26 2.80674 3.74619 0
M  V30 24386 H 2244.44 4.08467 5.03049 0
M  V30 24387 N 2237.84 -1.34926 0.814413 0
M  V30 24388 C 2238.75 -2.3345 0.232019 0
M  V30 24389 C 2239.77 -1.62229 -0.629111 0
M  V30 24390 O 2240.95 -1.94053 -0.539018 0
M  V30 24391 C 2238.01 -3.41408 -0.603422 0
M  V30 24392 C 2237.07 -4.28392 0.279113 0
M  V30 24393 C 2236.3 -5.31194 -0.51655 0
M  V30 24394 O 2236.53 -5.42873 -1.75058 0
M  V30 24395 O 2235.46 -6.01822 0.096671 0
M  V30 24396 H 2239.29 -2.85072 1.04726 0
M  V30 24397 H 2236.87 -1.37835 0.576367 0
M  V30 24398 H 2238.75 -4.07352 -1.07901 0
M  V30 24399 H 2237.43 -2.92044 -1.39613 0
M  V30 24400 H 2236.34 -3.65402 0.802013 0
M  V30 24401 H 2237.67 -4.81174 1.03596 0
M  V30 24402 N 2239.32 -0.56861 -1.46985 0
M  V30 24403 C 2240.57 -0.0489066 -2.02741 0
M  V30 24404 C 2240.9 1.30211 -1.44079 0
M  V30 24405 O 2240.18 1.84995 -0.600585 0
M  V30 24406 C 2240.46 0.0319837 -3.60086 0
M  V30 24407 C 2240.31 -1.34693 -4.29159 0
M  V30 24408 C 2241.63 0.739722 -4.33839 0
M  V30 24409 H 2238.75 -0.0192468 -0.736749 0
M  V30 24410 H 2241.39 -0.733096 -1.75287 0
M  V30 24411 H 2239.54 0.614663 -3.83607 0
M  V30 24412 H 2241.21 -1.97369 -4.16945 0
M  V30 24413 H 2239.46 -1.91853 -3.89069 0
M  V30 24414 H 2240.13 -1.24294 -5.37824 0
M  V30 24415 H 2242.6 0.244866 -4.15379 0
M  V30 24416 H 2241.48 0.765311 -5.43539 0
M  V30 24417 H 2241.74 1.79819 -4.03878 0
M  V30 24418 N 2240.8 1.54608 -0.305646 0
M  V30 24419 C 2242.05 1.9941 0.303063 0
M  V30 24420 C 2242.36 1.19767 1.54646 0
M  V30 24421 O 2243.57 1.54859 2.23005 0
M  V30 24422 C 2242.02 3.55022 0.590525 0
M  V30 24423 C 2241.63 4.4348 -0.634797 0
M  V30 24424 C 2243.38 4.08338 1.16017 0
M  V30 24425 C 2241.28 5.90532 -0.32023 0
M  V30 24426 H 2240.21 0.744864 0.117018 0
M  V30 24427 H 2242.86 1.78744 -0.415076 0
M  V30 24428 H 2241.25 3.71606 1.36838 0
M  V30 24429 H 2242.42 4.3867 -1.41086 0
M  V30 24430 H 2240.73 4.0096 -1.1234 0
M  V30 24431 H 2243.33 5.15778 1.40985 0
M  V30 24432 H 2243.67 3.59223 2.10391 0
M  V30 24433 H 2244.21 3.95315 0.443916 0
M  V30 24434 H 2240.95 6.43806 -1.23265 0
M  V30 24435 H 2240.47 5.98338 0.418474 0
M  V30 24436 H 2242.15 6.46955 0.0765103 0
M  V30 24437 N 2242.28 0.033457 1.57564 0
M  V30 24438 C 2243.51 -0.654312 1.96281 0
M  V30 24439 C 2243.92 -1.65413 0.910167 0
M  V30 24440 O 2243.28 -1.82183 -0.107563 0
M  V30 24441 C 2243.33 -1.35687 3.35069 0
M  V30 24442 O 2243.05 -0.397115 4.36296 0
M  V30 24443 C 2244.55 -2.13606 3.88442 0
M  V30 24444 H 2241.77 -0.180121 0.646373 0
M  V30 24445 H 2244.31 0.094508 2.04282 0
M  V30 24446 H 2242.47 -2.05706 3.28274 0
M  V30 24447 H 2242.88 -0.896506 5.16781 0
M  V30 24448 H 2244.36 -2.58211 4.87884 0
M  V30 24449 H 2244.83 -2.97691 3.22919 0
M  V30 24450 H 2245.44 -1.48536 3.98519 0
M  V30 24451 N 2243.76 -1.55766 -0.239741 0
M  V30 24452 C 2244.72 -1.90105 -1.28034 0
M  V30 24453 C 2245.72 -0.77808 -1.40722 0
M  V30 24454 O 2246.91 -1.04601 -1.39299 0
M  V30 24455 C 2244.04 -2.13581 -2.65699 0
M  V30 24456 H 2245.23 -2.83158 -0.987998 0
M  V30 24457 H 2242.79 -1.48768 -0.479356 0
M  V30 24458 H 2243.52 -1.2302 -3.00061 0
M  V30 24459 H 2243.31 -2.95374 -2.5787 0
M  V30 24460 H 2244.8 -2.41307 -3.40823 0
M  V30 24461 N 2245.23 0.505704 -1.49266 0
M  V30 24462 C 2246.46 1.28899 -1.6248 0
M  V30 24463 C 2246.88 1.85782 -0.294365 0
M  V30 24464 O 2246.24 1.65627 0.737383 0
M  V30 24465 C 2246.29 2.39843 -2.69273 0
M  V30 24466 O 2245.39 3.43563 -2.28119 0
M  V30 24467 H 2244.73 0.380741 -0.543996 0
M  V30 24468 H 2247.26 0.605918 -1.95422 0
M  V30 24469 H 2247.27 2.85676 -2.91296 0
M  V30 24470 H 2245.95 1.97806 -3.65849 0
M  V30 24471 H 2244.53 3.03682 -2.16407 0
M  V30 24472 N 2246.71 1.38262 0.756405 0
M  V30 24473 C 2248.12 1.30663 1.33357 0
M  V30 24474 C 2248.47 -0.038853 1.96162 0
M  V30 24475 O 2247.6 -0.940884 1.94875 0
M  V30 24476 C 2248.19 2.36627 2.42473 0
M  V30 24477 C 2246.75 2.32615 2.95917 0
M  V30 24478 C 2245.9 2.19642 1.69272 0
M  V30 24479 H 2248.85 1.48661 0.555494 0
M  V30 24480 H 2248.87 2.0218 3.22341 0
M  V30 24481 H 2248.38 3.34541 1.96733 0
M  V30 24482 H 2246.49 1.38273 3.45993 0
M  V30 24483 H 2246.6 3.26642 3.50488 0
M  V30 24484 H 2244.96 1.66446 1.9279 0
M  V30 24485 H 2245.75 3.19493 1.25614 0
M  V30 24486 N 2248.19 -0.984277 1.23084 0
M  V30 24487 C 2249.1 -2.11015 1.02518 0
M  V30 24488 C 2250.12 -1.73976 -0.0291397 0
M  V30 24489 O 2251.29 -2.00719 0.165469 0
M  V30 24490 C 2248.36 -3.41207 0.614733 0
M  V30 24491 C 2247.42 -3.92294 1.74366 0
M  V30 24492 C 2246.65 -5.16273 1.3527 0
M  V30 24493 O 2246.87 -5.69915 0.235236 0
M  V30 24494 O 2245.81 -5.6133 2.17237 0
M  V30 24495 H 2249.63 -2.31252 1.96866 0
M  V30 24496 H 2247.22 -1.0939 1.01755 0
M  V30 24497 H 2249.1 -4.1953 0.396591 0
M  V30 24498 H 2247.78 -3.22309 -0.299794 0
M  V30 24499 H 2246.68 -3.15106 2.01641 0
M  V30 24500 H 2248.02 -4.1564 2.63637 0
M  V30 24501 N 2249.67 -1.04192 -1.18244 0
M  V30 24502 C 2250.62 -0.627831 -2.23967 0
M  V30 24503 C 2251.61 0.345989 -1.65829 0
M  V30 24504 O 2252.82 0.213143 -1.78734 0
M  V30 24505 H 2249.19 -0.184815 -0.728936 0
M  V30 24506 H 2251.16 -1.52985 -2.56199 0
M  V30 24507 C 2249.91 -0.00802703 -3.47699 0
M  V30 24508 H 2249.23 -0.748416 -3.92732 0
M  V30 24509 H 2250.67 0.244476 -4.23295 0
M  V30 24510 C 2249.13 1.2424 -3.13155 0
M  V30 24511 O 2249.66 2.33301 -3.27007 0
M  V30 24512 N 2247.87 1.13618 -2.67469 0
M  V30 24513 H 2247.42 0.248689 -2.56397 0
M  V30 24514 H 2247.37 1.97372 -2.44727 0
M  V30 24515 N 2251.15 1.34492 -0.821557 0
M  V30 24516 C 2252.42 1.92768 -0.331624 0
M  V30 24517 C 2252.8 1.74983 1.18085 0
M  V30 24518 O 2252.15 1.12775 1.98731 0
M  V30 24519 C 2252.36 3.40637 -0.759458 0
M  V30 24520 C 2253.71 4.17788 -0.757507 0
M  V30 24521 O 2254.73 3.49215 -0.701951 0
M  V30 24522 O 2253.59 5.40169 -0.829456 0
M  V30 24523 H 2250.69 0.822059 -0.0902646 0
M  V30 24524 H 2253.23 1.43475 -0.906256 0
M  V30 24525 H 2252 3.47376 -1.80126 0
M  V30 24526 H 2251.63 3.97276 -0.160447 0
M  V30 24527 N 2252.62 0.576397 1.46681 0
M  V30 24528 C 2253.87 0.0679662 2.03286 0
M  V30 24529 C 2254.23 -1.27527 1.44065 0
M  V30 24530 O 2253.52 -1.8216 0.594005 0
M  V30 24531 C 2253.71 -0.0628232 3.57345 0
M  V30 24532 C 2253.54 1.26618 4.31507 0
M  V30 24533 C 2252.31 1.83864 4.70661 0
M  V30 24534 C 2254.51 2.18791 4.6544 0
M  V30 24535 N 2252.49 3.1057 5.29546 0
M  V30 24536 C 2253.86 3.30082 5.2483 0
M  V30 24537 C 2255.92 2.18549 4.47371 0
M  V30 24538 C 2254.62 4.41254 5.68056 0
M  V30 24539 C 2256.65 3.28747 4.91609 0
M  V30 24540 C 2256.01 4.38758 5.51063 0
M  V30 24541 H 2252.11 0.0674973 0.779082 0
M  V30 24542 H 2254.69 0.767908 1.78917 0
M  V30 24543 H 2252.86 -0.731921 3.81441 0
M  V30 24544 H 2254.59 -0.575063 4.00593 0
M  V30 24545 H 2251.35 1.37432 4.53221 0
M  V30 24546 H 2251.77 3.75205 5.63516 0
M  V30 24547 H 2256.42 1.34772 4.00745 0
M  V30 24548 H 2254.13 5.25779 6.13663 0
M  V30 24549 H 2257.72 3.29671 4.79383 0
M  V30 24550 H 2256.6 5.22621 5.84668 0
M  V30 24551 N 2254.1 -1.54444 0.313841 0
M  V30 24552 C 2255.03 -2.26944 -0.549415 0
M  V30 24553 C 2256.01 -1.27374 -1.12739 0
M  V30 24554 O 2257.2 -1.56169 -1.15433 0
M  V30 24555 C 2254.33 -3.01992 -1.71517 0
M  V30 24556 C 2253.28 -4.08818 -1.26696 0
M  V30 24557 C 2252.61 -4.71652 -2.5189 0
M  V30 24558 C 2253.91 -5.2085 -0.38887 0
M  V30 24559 H 2255.6 -2.99349 0.0553188 0
M  V30 24560 H 2253.15 -1.43973 0.028046 0
M  V30 24561 H 2255.1 -3.51437 -2.32529 0
M  V30 24562 H 2253.83 -2.27187 -2.34635 0
M  V30 24563 H 2252.48 -3.60241 -0.679833 0
M  V30 24564 H 2252.13 -3.93473 -3.13349 0
M  V30 24565 H 2251.83 -5.43806 -2.22595 0
M  V30 24566 H 2253.36 -5.23867 -3.13681 0
M  V30 24567 H 2254.77 -5.66112 -0.905007 0
M  V30 24568 H 2253.17 -5.99802 -0.189135 0
M  V30 24569 H 2254.24 -4.81385 0.582784 0
M  V30 24570 N 2255.58 -0.0418125 -1.57545 0
M  V30 24571 C 2256.83 0.629134 -1.93426 0
M  V30 24572 C 2257.18 1.69001 -0.919594 0
M  V30 24573 O 2256.47 1.91498 0.0625841 0
M  V30 24574 C 2256.67 1.27729 -3.33796 0
M  V30 24575 C 2256.5 0.280727 -4.48823 0
M  V30 24576 C 2255.27 -0.123957 -5.05148 0
M  V30 24577 C 2257.47 -0.470102 -5.12147 0
M  V30 24578 N 2255.45 -1.11436 -6.03701 0
M  V30 24579 C 2256.82 -1.31387 -6.05919 0
M  V30 24580 C 2258.87 -0.52943 -4.95077 0
M  V30 24581 C 2257.58 -2.21164 -6.84455 0
M  V30 24582 C 2259.6 -1.41458 -5.74233 0
M  V30 24583 C 2258.96 -2.2461 -6.6763 0
M  V30 24584 H 2255.06 0.202145 -0.755421 0
M  V30 24585 H 2257.65 -0.111957 -1.94378 0
M  V30 24586 H 2255.82 1.98846 -3.33639 0
M  V30 24587 H 2257.55 1.90629 -3.56991 0
M  V30 24588 H 2254.31 0.253095 -4.72923 0
M  V30 24589 H 2254.73 -1.60618 -6.57671 0
M  V30 24590 H 2259.37 0.0992055 -4.22684 0
M  V30 24591 H 2257.09 -2.85077 -7.56146 0
M  V30 24592 H 2260.68 -1.46494 -5.63055 0
M  V30 24593 H 2259.56 -2.91993 -7.27812 0
M  V30 24594 N 2257.06 1.55891 0.231477 0
M  V30 24595 C 2258.31 1.77642 0.955315 0
M  V30 24596 C 2258.62 0.608579 1.85892 0
M  V30 24597 O 2259.83 0.709476 2.62066 0
M  V30 24598 C 2258.28 3.14555 1.74881 0
M  V30 24599 C 2257.89 4.39033 0.891838 0
M  V30 24600 C 2259.63 3.45637 2.46445 0
M  V30 24601 C 2257.54 5.66974 1.68211 0
M  V30 24602 H 2256.47 0.662271 0.360434 0
M  V30 24603 H 2259.12 1.823 0.209484 0
M  V30 24604 H 2257.5 3.04045 2.53717 0
M  V30 24605 H 2258.68 4.60573 0.144712 0
M  V30 24606 H 2256.99 4.15397 0.28879 0
M  V30 24607 H 2259.59 4.38447 3.06053 0
M  V30 24608 H 2259.93 2.67674 3.18836 0
M  V30 24609 H 2260.47 3.57431 1.74607 0
M  V30 24610 H 2257.21 6.47802 1.00166 0
M  V30 24611 H 2256.73 5.49511 2.40411 0
M  V30 24612 H 2258.4 6.0679 2.24533 0
M  V30 24613 N 2258.54 -0.497781 1.49532 0
M  V30 24614 C 2259.78 -1.2517 1.59181 0
M  V30 24615 C 2260.11 -1.92475 0.279966 0
M  V30 24616 O 2259.37 -1.8148 -0.732351 0
M  V30 24617 C 2259.67 -2.33873 2.70256 0
M  V30 24618 C 2259.33 -1.84005 4.11647 0
M  V30 24619 C 2257.99 -1.70124 4.50124 0
M  V30 24620 C 2260.35 -1.46716 5.00124 0
M  V30 24621 C 2257.67 -1.17337 5.74847 0
M  V30 24622 C 2260.03 -0.95381 6.25368 0
M  V30 24623 C 2258.69 -0.801421 6.62671 0
M  V30 24624 H 2257.96 -0.45803 0.582486 0
M  V30 24625 H 2260.61 -0.551916 1.83374 0
M  V30 24626 H 2258.91 -3.09653 2.40047 0
M  V30 24627 H 2260.61 -2.91915 2.7493 0
M  V30 24628 H 2257.2 -1.95769 3.81278 0
M  V30 24629 H 2261.38 -1.56286 4.7105 0
M  V30 24630 H 2256.64 -1.04254 6.02446 0
M  V30 24631 H 2260.81 -0.656103 6.93302 0
M  V30 24632 H 2258.44 -0.390217 7.59198 0
M  V30 24633 N 2260.01 -1.38661 -0.749062 0
M  V30 24634 C 2261.24 -1.3854 -1.54342 0
M  V30 24635 C 2261.66 0.0216325 -1.88088 0
M  V30 24636 O 2261.02 1.00491 -1.50901 0
M  V30 24637 C 2261.07 -2.25197 -2.81636 0
M  V30 24638 O 2260.17 -1.67218 -3.76977 0
M  V30 24639 H 2259.52 -0.472375 -0.466646 0
M  V30 24640 H 2262.05 -1.8248 -0.925323 0
M  V30 24641 H 2262.06 -2.39215 -3.30515 0
M  V30 24642 H 2260.73 -3.27459 -2.56405 0
M  V30 24643 H 2259.31 -1.62366 -3.35696 0
M  V30 24644 N 2261.49 0.977736 -1.23605 0
M  V30 24645 C 2262.77 1.69399 -0.977927 0
M  V30 24646 C 2263.15 2.05027 0.502702 0
M  V30 24647 O 2262.5 1.74554 1.47456 0
M  V30 24648 C 2262.71 2.93341 -1.89082 0
M  V30 24649 C 2264.06 3.65798 -2.15585 0
M  V30 24650 O 2265.08 3.03379 -1.86653 0
M  V30 24651 O 2263.94 4.78136 -2.64666 0
M  V30 24652 H 2261.03 0.740095 -0.369038 0
M  V30 24653 H 2263.58 1.03272 -1.34659 0
M  V30 24654 H 2262.35 2.63629 -2.89163 0
M  V30 24655 H 2261.97 3.67204 -1.52469 0
M  V30 24656 N 2262.97 1.04818 1.1769 0
M  V30 24657 C 2264.22 0.756023 1.87858 0
M  V30 24658 C 2264.55 -0.71672 1.80813 0
M  V30 24659 O 2263.8 -1.5395 1.20821 0
M  V30 24660 C 2264.1 1.17709 3.3746 0
M  V30 24661 C 2263.77 2.65139 3.64708 0
M  V30 24662 C 2262.43 3.05415 3.71854 0
M  V30 24663 C 2264.78 3.60428 3.76485 0
M  V30 24664 C 2262.11 4.3985 3.88264 0
M  V30 24665 C 2264.46 4.94592 3.94413 0
M  V30 24666 C 2263.12 5.34527 3.99797 0
M  V30 24667 H 2262.39 0.276648 0.68742 0
M  V30 24668 H 2265.04 1.31457 1.39252 0
M  V30 24669 H 2263.35 0.537463 3.88096 0
M  V30 24670 H 2265.04 0.928286 3.90107 0
M  V30 24671 H 2261.63 2.32948 3.59768 0
M  V30 24672 H 2265.82 3.30454 3.70289 0
M  V30 24673 H 2261.07 4.70298 3.90678 0
M  V30 24674 H 2265.25 5.68325 4.02467 0
M  V30 24675 H 2262.87 6.38704 4.12264 0
M  V30 24676 N 2264.45 -1.34055 0.828678 0
M  V30 24677 C 2265.87 -1.51057 0.515161 0
M  V30 24678 C 2266.07 -1.77186 -0.959549 0
M  V30 24679 O 2265.12 -1.82615 -1.74379 0
M  V30 24680 C 2266.43 -2.67181 1.37968 0
M  V30 24681 C 2267.98 -2.81064 1.3774 0
M  V30 24682 C 2268.46 -4.00237 2.22653 0
M  V30 24683 N 2269.95 -4.07454 2.20307 0
M  V30 24684 C 2270.68 -4.98837 2.82753 0
M  V30 24685 N 2270.18 -5.95404 3.54212 0
M  V30 24686 N 2271.97 -4.91754 2.72277 0
M  V30 24687 H 2264.12 -1.15355 1.78345 0
M  V30 24688 H 2266.39 -0.566239 0.760314 0
M  V30 24689 H 2266.09 -2.5452 2.42719 0
M  V30 24690 H 2265.97 -3.62336 1.04846 0
M  V30 24691 H 2268.35 -2.93162 0.337645 0
M  V30 24692 H 2268.43 -1.867 1.74862 0
M  V30 24693 H 2268.08 -3.88899 3.26681 0
M  V30 24694 H 2268.01 -4.93825 1.82877 0
M  V30 24695 H 2270.5 -3.38338 1.68333 0
M  V30 24696 H 2270.81 -6.61775 3.99091 0
M  V30 24697 H 2269.16 -5.95511 3.58318 0
M  V30 24698 H 2272.35 -4.15274 2.16021 0
M  V30 24699 H 2272.52 -5.62775 3.21229 0
M  V30 24700 N 2265.93 -0.584167 -1.46374 0
M  V30 24701 C 2267.15 -0.0740769 -2.07268 0
M  V30 24702 C 2267.58 1.22221 -1.42981 0
M  V30 24703 O 2266.94 1.73858 -0.514123 0
M  V30 24704 C 2266.98 0.0767136 -3.60518 0
M  V30 24705 O 2266.09 1.13285 -3.96535 0
M  V30 24706 H 2265.43 -0.0634641 -0.66096 0
M  V30 24707 H 2267.96 -0.807525 -1.8799 0
M  V30 24708 H 2267.97 0.282418 -4.07021 0
M  V30 24709 H 2266.64 -0.869932 -4.067 0
M  V30 24710 H 2265.22 0.905489 -3.61739 0
M  V30 24711 N 2267.41 1.54275 -0.322027 0
M  V30 24712 C 2268.37 2.22942 0.531935 0
M  V30 24713 C 2269.37 1.22236 1.04475 0
M  V30 24714 O 2270.56 1.46826 0.937426 0
M  V30 24715 C 2267.69 2.93227 1.73869 0
M  V30 24716 H 2268.88 2.99822 -0.0683139 0
M  V30 24717 H 2266.44 1.56129 -0.0730918 0
M  V30 24718 H 2267.17 2.2048 2.37822 0
M  V30 24719 H 2266.96 3.67073 1.3784 0
M  V30 24720 H 2268.45 3.45549 2.3449 0
M  V30 24721 N 2268.88 0.0501669 1.5752 0
M  V30 24722 C 2269.83 -0.924566 2.11472 0
M  V30 24723 C 2270.8 -1.30949 1.02184 0
M  V30 24724 O 2271.99 -1.39914 1.29726 0
M  V30 24725 C 2269.13 -2.19446 2.66341 0
M  V30 24726 C 2268.24 -1.86411 3.89711 0
M  V30 24727 C 2267.37 -3.07851 4.32899 0
M  V30 24728 C 2266.41 -2.70733 5.48972 0
M  V30 24729 N 2265.55 -3.84863 5.87218 0
M  V30 24730 H 2270.39 -0.457588 2.94466 0
M  V30 24731 H 2267.93 -0.214241 1.45532 0
M  V30 24732 H 2269.88 -2.93753 2.96252 0
M  V30 24733 H 2268.51 -2.63723 1.86146 0
M  V30 24734 H 2267.57 -1.02257 3.66398 0
M  V30 24735 H 2268.88 -1.55088 4.74077 0
M  V30 24736 H 2268.03 -3.90458 4.64357 0
M  V30 24737 H 2266.77 -3.42352 3.47342 0
M  V30 24738 H 2265.78 -1.86542 5.17187 0
M  V30 24739 H 2267 -2.37425 6.36244 0
M  V30 24740 H 2264.95 -4.19166 5.04614 0
M  V30 24741 H 2264.86 -3.57235 6.66273 0
M  V30 24742 H 2266.13 -4.68113 6.2329 0
M  V30 24743 N 2270.36 -1.56011 -0.223207 0
M  V30 24744 C 2271.29 -1.87291 -1.30374 0
M  V30 24745 C 2272.27 -0.730138 -1.45285 0
M  V30 24746 O 2273.46 -0.97833 -1.61124 0
M  V30 24747 C 2270.58 -2.07847 -2.67427 0
M  V30 24748 C 2269.63 -3.30531 -2.6954 0
M  V30 24749 S 2270.46 -4.86504 -2.23773 0
M  V30 24750 C 2271.62 -5.10094 -3.62705 0
M  V30 24751 H 2271.85 -2.78648 -1.03647 0
M  V30 24752 H 2269.38 -1.48425 -0.425367 0
M  V30 24753 H 2271.34 -2.20374 -3.46332 0
M  V30 24754 H 2270 -1.1729 -2.91379 0
M  V30 24755 H 2269.2 -3.41953 -3.70248 0
M  V30 24756 H 2268.8 -3.16852 -1.98697 0
M  V30 24757 H 2271.09 -4.98891 -4.58382 0
M  V30 24758 H 2272.03 -6.11987 -3.56199 0
M  V30 24759 H 2272.44 -4.37835 -3.56316 0
M  V30 24760 N 2271.84 0.489844 -1.49794 0
M  V30 24761 C 2273.07 1.26699 -1.6357 0
M  V30 24762 C 2273.48 1.86213 -0.311498 0
M  V30 24763 O 2272.84 1.68359 0.704386 0
M  V30 24764 C 2272.89 2.38924 -2.71289 0
M  V30 24765 O 2272.61 1.81854 -3.98573 0
M  V30 24766 C 2274.11 3.30115 -2.9587 0
M  V30 24767 H 2271.33 0.383871 -0.550349 0
M  V30 24768 H 2273.88 0.58683 -1.95899 0
M  V30 24769 H 2272.03 3.02749 -2.41706 0
M  V30 24770 H 2272.45 2.55614 -4.57997 0
M  V30 24771 H 2273.92 4.05114 -3.74948 0
M  V30 24772 H 2274.4 3.87779 -2.06213 0
M  V30 24773 H 2275 2.72046 -3.26912 0
M  V30 24774 N 2273.32 1.39056 0.741698 0
M  V30 24775 C 2274.55 1.38972 1.52873 0
M  V30 24776 C 2274.96 -0.0192933 1.8919 0
M  V30 24777 O 2274.3 -0.999329 1.5414 0
M  V30 24778 C 2274.36 2.19221 2.84925 0
M  V30 24779 C 2274.02 3.67919 2.7108 0
M  V30 24780 C 2275.02 4.6115 2.40076 0
M  V30 24781 C 2272.71 4.11423 2.8816 0
M  V30 24782 C 2274.7 5.95866 2.26325 0
M  V30 24783 C 2272.39 5.46216 2.74028 0
M  V30 24784 C 2273.39 6.38252 2.43154 0
M  V30 24785 O 2273.07 7.70563 2.29102 0
M  V30 24786 H 2272.81 0.476762 0.479243 0
M  V30 24787 H 2275.36 1.83407 0.924719 0
M  V30 24788 H 2273.59 1.69524 3.47561 0
M  V30 24789 H 2275.28 2.11398 3.46505 0
M  V30 24790 H 2276.04 4.28842 2.26537 0
M  V30 24791 H 2271.92 3.40125 3.11185 0
M  V30 24792 H 2275.47 6.67669 2.02148 0
M  V30 24793 H 2271.36 5.78117 2.87143 0
M  V30 24794 H 2272.13 7.81215 2.44223 0
M  V30 24795 N 2274.8 -0.971167 1.24121 0
M  V30 24796 C 2275.73 -2.08302 1.05511 0
M  V30 24797 C 2276.71 -1.70072 -0.0308565 0
M  V30 24798 O 2277.89 -1.93726 0.135556 0
M  V30 24799 C 2275.02 -3.41059 0.655425 0
M  V30 24800 C 2273.98 -3.93231 1.68978 0
M  V30 24801 C 2273.3 -5.22291 1.14525 0
M  V30 24802 C 2274.6 -4.2146 3.08494 0
M  V30 24803 H 2276.3 -2.24129 1.98511 0
M  V30 24804 H 2273.84 -1.07702 0.95584 0
M  V30 24805 H 2275.79 -4.18275 0.512243 0
M  V30 24806 H 2274.52 -3.25123 -0.310263 0
M  V30 24807 H 2273.18 -3.18168 1.82111 0
M  V30 24808 H 2272.83 -5.02712 0.170277 0
M  V30 24809 H 2272.53 -5.58165 1.83645 0
M  V30 24810 H 2274.05 -6.0212 1.01412 0
M  V30 24811 H 2275.46 -4.89393 2.98609 0
M  V30 24812 H 2273.86 -4.68555 3.74935 0
M  V30 24813 H 2274.93 -3.2837 3.56793 0
M  V30 24814 N 2276.27 -1.05441 -1.17133 0
M  V30 24815 C 2277.5 -0.786447 -1.9137 0
M  V30 24816 C 2277.92 0.658171 -1.76956 0
M  V30 24817 O 2277.27 1.44985 -1.1084 0
M  V30 24818 C 2277.33 -1.16086 -3.42354 0
M  V30 24819 O 2277.05 -2.54878 -3.56327 0
M  V30 24820 C 2278.55 -0.919399 -4.33661 0
M  V30 24821 H 2275.77 -0.285754 -0.607113 0
M  V30 24822 H 2278.31 -1.40575 -1.48522 0
M  V30 24823 H 2276.47 -0.586258 -3.82938 0
M  V30 24824 H 2276.88 -2.69626 -4.49891 0
M  V30 24825 H 2278.35 -1.23109 -5.38097 0
M  V30 24826 H 2278.83 0.145282 -4.3896 0
M  V30 24827 H 2279.44 -1.47796 -3.98794 0
M  V30 24828 N 2277.75 1.33613 -0.835776 0
M  V30 24829 C 2278.68 2.31794 -0.28178 0
M  V30 24830 C 2279.66 1.58832 0.608805 0
M  V30 24831 O 2280.85 1.86742 0.533002 0
M  V30 24832 C 2277.98 3.42972 0.546552 0
M  V30 24833 C 2276.93 4.27281 -0.247979 0
M  V30 24834 C 2276.26 5.30046 0.703907 0
M  V30 24835 C 2277.56 5.01382 -1.46333 0
M  V30 24836 H 2279.25 2.78377 -1.10211 0
M  V30 24837 H 2276.8 1.33836 -0.531412 0
M  V30 24838 H 2278.75 4.10681 0.944395 0
M  V30 24839 H 2277.48 2.95069 1.40006 0
M  V30 24840 H 2276.13 3.61192 -0.627345 0
M  V30 24841 H 2275.78 4.78402 1.55373 0
M  V30 24842 H 2275.48 5.87335 0.176421 0
M  V30 24843 H 2277.01 6.00622 1.09933 0
M  V30 24844 H 2278.42 5.61875 -1.13881 0
M  V30 24845 H 2276.82 5.68306 -1.92738 0
M  V30 24846 H 2277.89 4.30334 -2.23474 0
M  V30 24847 N 2279.23 0.591922 1.46062 0
M  V30 24848 C 2280.48 0.0786991 2.01546 0
M  V30 24849 C 2280.79 -1.29265 1.46799 0
M  V30 24850 O 2282 -1.89773 1.9416 0
M  V30 24851 C 2280.45 0.0900656 3.59787 0
M  V30 24852 C 2280.06 1.4603 4.23532 0
M  V30 24853 C 2281.81 -0.368732 4.22896 0
M  V30 24854 C 2279.71 1.4289 5.73878 0
M  V30 24855 H 2278.64 0.025652 0.753564 0
M  V30 24856 H 2281.29 0.744935 1.67699 0
M  V30 24857 H 2279.68 -0.642517 3.90753 0
M  V30 24858 H 2280.85 2.21335 4.04163 0
M  V30 24859 H 2279.17 1.85989 3.72555 0
M  V30 24860 H 2281.76 -0.411164 5.33117 0
M  V30 24861 H 2282.11 -1.3882 3.92473 0
M  V30 24862 H 2282.64 0.31008 3.9659 0
M  V30 24863 H 2279.38 2.42546 6.08976 0
M  V30 24864 H 2278.9 0.718199 5.95485 0
M  V30 24865 H 2280.58 1.14577 6.36774 0
M  V30 24866 N 2280.71 -1.54102 0.330204 0
M  V30 24867 C 2281.94 -2.05102 -0.272143 0
M  V30 24868 C 2282.35 -1.20597 -1.45264 0
M  V30 24869 O 2281.71 -0.238175 -1.80939 0
M  V30 24870 C 2281.76 -3.54655 -0.700168 0
M  V30 24871 O 2281.48 -4.35951 0.433378 0
M  V30 24872 C 2282.98 -4.21773 -1.36463 0
M  V30 24873 H 2280.2 -0.66875 -0.0549041 0
M  V30 24874 H 2282.75 -1.98827 0.47832 0
M  V30 24875 H 2280.9 -3.61195 -1.40059 0
M  V30 24876 H 2281.31 -5.24414 0.0948461 0
M  V30 24877 H 2282.79 -5.27846 -1.615 0
M  V30 24878 H 2283.27 -3.73296 -2.31402 0
M  V30 24879 H 2283.87 -4.19389 -0.706601 0
M  V30 24880 N 2282.19 -0.0585199 -1.57491 0
M  V30 24881 C 2283.42 0.622099 -1.97011 0
M  V30 24882 C 2283.82 1.64479 -0.935063 0
M  V30 24883 O 2283.17 1.83488 0.0882581 0
M  V30 24884 C 2283.23 1.35966 -3.32797 0
M  V30 24885 C 2282.89 0.491963 -4.54344 0
M  V30 24886 C 2283.89 -0.244992 -5.19322 0
M  V30 24887 C 2281.58 0.420733 -5.00535 0
M  V30 24888 C 2283.57 -1.04154 -6.28833 0
M  V30 24889 C 2281.26 -0.379496 -6.09921 0
M  V30 24890 C 2282.25 -1.10931 -6.73931 0
M  V30 24891 O 2281.94 -1.89637 -7.81213 0
M  V30 24892 H 2281.67 0.174348 -0.65313 0
M  V30 24893 H 2284.23 -0.123454 -2.05029 0
M  V30 24894 H 2282.46 2.151 -3.21355 0
M  V30 24895 H 2284.15 1.93122 -3.57013 0
M  V30 24896 H 2284.91 -0.199475 -4.8459 0
M  V30 24897 H 2280.79 0.978395 -4.50498 0
M  V30 24898 H 2284.34 -1.61169 -6.78727 0
M  V30 24899 H 2280.23 -0.426625 -6.44089 0
M  V30 24900 H 2281 -1.81927 -7.98026 0
M  V30 24901 N 2283.66 1.56128 0.21493 0
M  V30 24902 C 2284.6 1.89451 1.29 0
M  V30 24903 C 2285.61 0.783351 1.42715 0
M  V30 24904 O 2286.8 1.06168 1.43494 0
M  V30 24905 C 2283.9 2.09386 2.66478 0
M  V30 24906 C 2283.07 3.40439 2.74627 0
M  V30 24907 C 2282.13 3.49726 3.93164 0
M  V30 24908 O 2281.16 4.22707 3.81193 0
M  V30 24909 N 2282.36 2.81355 5.0776 0
M  V30 24910 H 2285.12 2.82262 1.00738 0
M  V30 24911 H 2282.68 1.56754 0.404943 0
M  V30 24912 H 2284.68 2.12908 3.44169 0
M  V30 24913 H 2283.25 1.23168 2.87312 0
M  V30 24914 H 2282.47 3.48959 1.83362 0
M  V30 24915 H 2283.75 4.26759 2.77046 0
M  V30 24916 H 2283.15 2.21853 5.20383 0
M  V30 24917 H 2281.71 2.90529 5.83469 0
M  V30 24918 N 2285.14 -0.481893 1.50052 0
M  V30 24919 C 2286.37 -1.26298 1.6451 0
M  V30 24920 C 2286.79 -1.85291 0.323884 0
M  V30 24921 O 2286.15 -1.66779 -0.710939 0
M  V30 24922 C 2286.2 -2.35529 2.73054 0
M  V30 24923 O 2285.3 -3.3989 2.33556 0
M  V30 24924 H 2284.64 -0.372039 0.549985 0
M  V30 24925 H 2287.17 -0.574751 1.96361 0
M  V30 24926 H 2287.18 -2.81005 2.95804 0
M  V30 24927 H 2285.86 -1.91961 3.6895 0
M  V30 24928 H 2284.44 -3.002 2.21211 0
M  V30 24929 N 2286.62 -1.39448 -0.734313 0
M  V30 24930 C 2287.57 -1.34713 -1.83947 0
M  V30 24931 C 2288.55 -0.227879 -1.59278 0
M  V30 24932 O 2289.75 -0.465468 -1.7077 0
M  V30 24933 C 2286.88 -1.19362 -3.21881 0
M  V30 24934 C 2285.96 -2.3599 -3.52377 0
M  V30 24935 N 2286.35 -3.61464 -3.53805 0
M  V30 24936 C 2284.65 -2.28962 -3.82743 0
M  V30 24937 C 2285.35 -4.38592 -3.82115 0
M  V30 24938 N 2284.33 -3.68188 -3.99923 0
M  V30 24939 H 2288.13 -2.2969 -1.83357 0
M  V30 24940 H 2285.64 -1.32953 -0.932586 0
M  V30 24941 H 2287.64 -1.14053 -4.00996 0
M  V30 24942 H 2286.3 -0.253352 -3.2371 0
M  V30 24943 H 2287.31 -3.94878 -3.351 0
M  V30 24944 H 2283.99 -1.43201 -3.92173 0
M  V30 24945 H 2285.38 -5.47356 -3.89681 0
M  V30 24946 N 2288.1 0.964571 -1.24635 0
M  V30 24947 C 2289.03 2.07739 -1.06614 0
M  V30 24948 C 2290.01 1.70086 0.0218367 0
M  V30 24949 O 2291.19 1.93652 -0.145827 0
M  V30 24950 C 2288.32 3.40707 -0.673503 0
M  V30 24951 C 2287.28 3.92329 -1.71061 0
M  V30 24952 C 2286.6 5.21676 -1.17294 0
M  V30 24953 C 2287.9 4.19818 -3.10725 0
M  V30 24954 H 2289.6 2.23073 -1.99697 0
M  V30 24955 H 2287.14 1.07193 -0.961539 0
M  V30 24956 H 2289.1 4.17998 -0.534418 0
M  V30 24957 H 2287.82 3.25283 0.293016 0
M  V30 24958 H 2286.48 3.17198 -1.83796 0
M  V30 24959 H 2286.13 5.02614 -0.196935 0
M  V30 24960 H 2285.83 5.57183 -1.86602 0
M  V30 24961 H 2287.35 6.01573 -1.04604 0
M  V30 24962 H 2288.77 4.87802 -3.01201 0
M  V30 24963 H 2287.16 4.6656 -3.77414 0
M  V30 24964 H 2288.23 3.26473 -3.5853 0
M  V30 24965 N 2289.58 1.0606 1.16572 0
M  V30 24966 C 2290.51 0.690527 2.23056 0
M  V30 24967 C 2291.49 -0.315871 1.67141 0
M  V30 24968 O 2292.67 -0.191522 1.93253 0
M  V30 24969 C 2289.8 0.073686 3.47222 0
M  V30 24970 C 2288.76 1.0058 4.16014 0
M  V30 24971 C 2288.08 0.252383 5.34104 0
M  V30 24972 C 2289.38 2.33379 4.6726 0
M  V30 24973 H 2291.08 1.58077 2.54268 0
M  V30 24974 H 2288.62 0.761512 1.22217 0
M  V30 24975 H 2290.58 -0.197066 4.20939 0
M  V30 24976 H 2289.3 -0.851555 3.15303 0
M  V30 24977 H 2287.96 1.26126 3.44221 0
M  V30 24978 H 2287.61 -0.675901 4.98438 0
M  V30 24979 H 2287.31 0.873557 5.8107 0
M  V30 24980 H 2288.83 -0.0108784 6.10599 0
M  V30 24981 H 2290.24 2.12233 5.32569 0
M  V30 24982 H 2288.64 2.90973 5.24838 0
M  V30 24983 H 2289.71 2.96617 3.83596 0
M  V30 24984 N 2291.06 -1.33168 0.84285 0
M  V30 24985 C 2291.99 -2.31641 0.294069 0
M  V30 24986 C 2292.97 -1.59153 -0.600373 0
M  V30 24987 O 2294.15 -1.87022 -0.523091 0
M  V30 24988 C 2291.28 -3.43257 -0.528355 0
M  V30 24989 C 2290.24 -4.27143 0.270635 0
M  V30 24990 C 2289.56 -5.30412 -0.675788 0
M  V30 24991 C 2290.86 -5.00599 1.4899 0
M  V30 24992 H 2292.56 -2.77789 1.11686 0
M  V30 24993 H 2290.1 -1.33552 0.538502 0
M  V30 24994 H 2292.05 -4.11176 -0.922602 0
M  V30 24995 H 2290.78 -2.95808 -1.38439 0
M  V30 24996 H 2289.44 -3.60855 0.646491 0
M  V30 24997 H 2289.09 -4.79219 -1.52834 0
M  V30 24998 H 2288.79 -5.8742 -0.145271 0
M  V30 24999 H 2290.31 -6.01197 -1.06746 0
M  V30 25000 H 2291.72 -5.61264 1.16859 0
M  V30 25001 H 2290.12 -5.67276 1.95749 0
M  V30 25002 H 2291.19 -4.29143 2.25753 0
M  V30 25003 N 2292.53 -0.599659 -1.45746 0
M  V30 25004 C 2293.47 0.161838 -2.28628 0
M  V30 25005 C 2294.48 0.839343 -1.39495 0
M  V30 25006 O 2295.67 0.706061 -1.63942 0
M  V30 25007 C 2292.77 1.24971 -3.15017 0
M  V30 25008 C 2291.94 0.660859 -4.32379 0
M  V30 25009 C 2291 1.6386 -5.00036 0
M  V30 25010 O 2290.03 1.168 -5.57087 0
M  V30 25011 N 2291.23 2.97294 -4.98594 0
M  V30 25012 H 2293.99 -0.549317 -2.94623 0
M  V30 25013 H 2291.55 -0.438592 -1.55846 0
M  V30 25014 H 2293.55 1.90344 -3.57143 0
M  V30 25015 H 2292.12 1.86349 -2.50983 0
M  V30 25016 H 2291.34 -0.170758 -3.9383 0
M  V30 25017 H 2292.62 0.24753 -5.08198 0
M  V30 25018 H 2292.02 3.38137 -4.53519 0
M  V30 25019 H 2290.58 3.58111 -5.44609 0
M  V30 25020 N 2294.01 1.53925 -0.338371 0
M  V30 25021 C 2295.43 1.59594 0.0137455 0
M  V30 25022 C 2295.63 1.35449 1.49183 0
M  V30 25023 O 2294.68 1.1462 2.24985 0
M  V30 25024 C 2296 2.97784 -0.417782 0
M  V30 25025 C 2297.54 3.10809 -0.369688 0
M  V30 25026 C 2298.02 4.51368 -0.776604 0
M  V30 25027 N 2299.51 4.57402 -0.730587 0
M  V30 25028 C 2300.25 5.64301 -1.01746 0
M  V30 25029 N 2299.74 6.79074 -1.37222 0
M  V30 25030 N 2301.53 5.5415 -0.942039 0
M  V30 25031 H 2293.69 1.67874 -1.30123 0
M  V30 25032 H 2295.95 0.785941 -0.530096 0
M  V30 25033 H 2295.65 3.20501 -1.44817 0
M  V30 25034 H 2295.53 3.76617 0.209663 0
M  V30 25035 H 2297.92 2.87818 0.651517 0
M  V30 25036 H 2298 2.34047 -1.03227 0
M  V30 25037 H 2297.64 4.75093 -1.79579 0
M  V30 25038 H 2297.57 5.2652 -0.0915574 0
M  V30 25039 H 2300.06 3.7498 -0.468849 0
M  V30 25040 H 2300.37 7.56557 -1.5761 0
M  V30 25041 H 2298.72 6.80534 -1.41062 0
M  V30 25042 H 2301.91 4.63363 -0.664266 0
M  V30 25043 H 2302.08 6.37369 -1.16896 0
M  V30 25044 N 2295.49 0.0668712 1.57458 0
M  V30 25045 C 2296.74 -0.604266 1.93588 0
M  V30 25046 C 2297.07 -1.69559 0.946752 0
M  V30 25047 O 2296.34 -1.94484 -0.0248174 0
M  V30 25048 C 2296.63 -1.18579 3.40016 0
M  V30 25049 C 2296.48 -0.10145 4.49686 0
M  V30 25050 C 2297.8 -2.09277 3.87158 0
M  V30 25051 H 2294.92 -0.21819 0.703962 0
M  V30 25052 H 2297.56 0.131837 1.89542 0
M  V30 25053 H 2295.71 -1.81313 3.43595 0
M  V30 25054 H 2297.38 0.53136 4.58229 0
M  V30 25055 H 2295.62 0.568562 4.30058 0
M  V30 25056 H 2296.3 -0.548643 5.49267 0
M  V30 25057 H 2298.77 -1.56485 3.85554 0
M  V30 25058 H 2297.65 -2.46903 4.90235 0
M  V30 25059 H 2297.91 -2.99912 3.24816 0
M  V30 25060 N 2296.97 -1.56239 -0.206647 0
M  V30 25061 C 2297.88 -1.96811 -1.27682 0
M  V30 25062 C 2298.89 -0.874062 -1.50453 0
M  V30 25063 O 2300.07 -1.17887 -1.63293 0
M  V30 25064 C 2297.13 -2.28946 -2.60354 0
M  V30 25065 C 2296.2 -3.51998 -2.45756 0
M  V30 25066 C 2295.43 -3.82591 -3.72102 0
M  V30 25067 O 2295.65 -3.1464 -4.75771 0
M  V30 25068 O 2294.59 -4.76049 -3.68321 0
M  V30 25069 H 2298.41 -2.88043 -0.962543 0
M  V30 25070 H 2296 -1.43643 -0.410721 0
M  V30 25071 H 2297.88 -2.50743 -3.38682 0
M  V30 25072 H 2296.55 -1.40885 -2.91433 0
M  V30 25073 H 2295.46 -3.35462 -1.65578 0
M  V30 25074 H 2296.79 -4.40489 -2.19613 0
M  V30 25075 N 2298.45 0.473929 -1.50305 0
M  V30 25076 C 2299.86 0.807442 -1.37668 0
M  V30 25077 C 2300.06 1.96846 -0.430589 0
M  V30 25078 O 2299.12 2.52176 0.12783 0
M  V30 25079 C 2300.43 1.12218 -2.78976 0
M  V30 25080 C 2301.98 1.2288 -2.87871 0
M  V30 25081 C 2302.45 1.57668 -4.30006 0
M  V30 25082 N 2303.94 1.64665 -4.32943 0
M  V30 25083 C 2304.68 1.93082 -5.39914 0
M  V30 25084 N 2304.18 2.19538 -6.57096 0
M  V30 25085 N 2305.97 1.9456 -5.27355 0
M  V30 25086 H 2298.12 -0.291249 -2.10394 0
M  V30 25087 H 2300.38 -0.0677776 -0.945574 0
M  V30 25088 H 2300.09 0.342167 -3.50032 0
M  V30 25089 H 2299.96 2.05907 -3.16041 0
M  V30 25090 H 2302.35 1.99949 -2.17036 0
M  V30 25091 H 2302.43 0.271769 -2.54352 0
M  V30 25092 H 2302.07 0.811401 -5.01377 0
M  V30 25093 H 2302 2.54517 -4.61009 0
M  V30 25094 H 2304.5 1.46271 -3.48444 0
M  V30 25095 H 2304.81 2.40487 -7.34429 0
M  V30 25096 H 2303.15 2.16937 -6.60275 0
M  V30 25097 H 2306.34 1.73386 -4.34804 0
M  V30 25098 H 2306.52 2.16371 -6.10809 0
M  V30 25099 N 2299.92 1.39835 0.726907 0
M  V30 25100 C 2300.87 1.39357 1.86232 0
M  V30 25101 C 2301.87 0.275585 1.67143 0
M  V30 25102 O 2303.07 0.44604 1.74386 0
M  V30 25103 H 2299.45 0.435351 0.613167 0
M  V30 25104 H 2301.42 2.35113 1.83752 0
M  V30 25105 C 2300.17 1.2619 3.23993 0
M  V30 25106 H 2299.49 2.1149 3.39282 0
M  V30 25107 H 2300.93 1.29914 4.03607 0
M  V30 25108 C 2299.39 -0.0289426 3.36888 0
M  V30 25109 O 2299.92 -0.996122 3.89153 0
M  V30 25110 N 2298.12 -0.0946926 2.90446 0
M  V30 25111 H 2297.67 0.693079 2.48101 0
M  V30 25112 H 2297.63 -0.95788 2.99453 0
M  V30 25113 N 2301.4 -0.957948 1.25144 0
M  V30 25114 C 2302.33 -2.07171 1.07715 0
M  V30 25115 C 2303.31 -1.70095 -0.0128163 0
M  V30 25116 O 2304.5 -1.93572 0.156095 0
M  V30 25117 C 2301.63 -3.40345 0.691562 0
M  V30 25118 C 2300.58 -3.91416 1.73139 0
M  V30 25119 C 2299.91 -5.21047 1.20059 0
M  V30 25120 C 2301.21 -4.18164 3.12947 0
M  V30 25121 H 2302.9 -2.22011 2.00877 0
M  V30 25122 H 2300.45 -1.06682 0.96721 0
M  V30 25123 H 2302.4 -4.17708 0.556578 0
M  V30 25124 H 2301.12 -3.25434 -0.275761 0
M  V30 25125 H 2299.78 -3.16219 1.85476 0
M  V30 25126 H 2299.43 -5.02503 0.223587 0
M  V30 25127 H 2299.13 -5.56186 1.89554 0
M  V30 25128 H 2300.66 -6.0101 1.07792 0
M  V30 25129 H 2302.07 -4.86198 3.03783 0
M  V30 25130 H 2300.47 -4.64552 3.79883 0
M  V30 25131 H 2301.54 -3.24567 3.60256 0
M  V30 25132 N 2302.88 -1.06677 -1.16008 0
M  V30 25133 C 2304.1 -0.80674 -1.91067 0
M  V30 25134 C 2304.53 0.633454 -1.77113 0
M  V30 25135 O 2303.89 1.44185 -1.0991 0
M  V30 25136 C 2303.94 -1.21112 -3.39653 0
M  V30 25137 O 2303.04 -0.352262 -4.10893 0
M  V30 25138 H 2302.38 -0.294497 -0.59512 0
M  V30 25139 H 2304.91 -1.42359 -1.46953 0
M  V30 25140 H 2304.92 -1.18435 -3.90432 0
M  V30 25141 H 2303.6 -2.26014 -3.49128 0
M  V30 25142 H 2302.17 -0.440933 -3.70284 0
M  V30 25143 N 2304.36 1.32719 -0.8499 0
M  V30 25144 C 2305.3 2.28983 -0.289073 0
M  V30 25145 C 2306.27 1.54834 0.601297 0
M  V30 25146 O 2307.46 1.83081 0.537221 0
M  V30 25147 C 2304.6 3.41151 0.520563 0
M  V30 25148 C 2303.71 4.3019 -0.395064 0
M  V30 25149 C 2302.85 5.29483 0.426741 0
M  V30 25150 C 2301.89 6.10163 -0.486583 0
M  V30 25151 N 2301.02 7.01468 0.297755 0
M  V30 25152 H 2305.86 2.76345 -1.11524 0
M  V30 25153 H 2303.4 1.35966 -0.561403 0
M  V30 25154 H 2305.36 4.049 1.00556 0
M  V30 25155 H 2303.99 2.94952 1.3116 0
M  V30 25156 H 2303.04 3.67064 -0.998425 0
M  V30 25157 H 2304.35 4.86605 -1.09621 0
M  V30 25158 H 2303.51 5.98813 0.9751 0
M  V30 25159 H 2302.25 4.73673 1.16127 0
M  V30 25160 H 2301.25 5.39741 -1.04686 0
M  V30 25161 H 2302.48 6.68058 -1.21965 0
M  V30 25162 H 2300.42 6.48093 1.01547 0
M  V30 25163 H 2300.34 7.55215 -0.34445 0
M  V30 25164 H 2301.61 7.7509 0.827994 0
M  V30 25165 N 2305.84 0.60738 1.45426 0
M  V30 25166 C 2307.06 0.107042 2.07124 0
M  V30 25167 C 2307.49 -1.19931 1.44908 0
M  V30 25168 O 2306.84 -1.73018 0.541717 0
M  V30 25169 C 2306.89 -0.0193485 3.60595 0
M  V30 25170 O 2306 -1.06963 3.98287 0
M  V30 25171 H 2305.34 0.0739713 0.659867 0
M  V30 25172 H 2307.87 0.83733 1.86681 0
M  V30 25173 H 2307.88 -0.217629 4.07419 0
M  V30 25174 H 2306.55 0.934524 4.05265 0
M  V30 25175 H 2305.13 -0.847825 3.63134 0
M  V30 25176 N 2307.31 -1.53743 0.34653 0
M  V30 25177 C 2308.25 -2.21424 -0.551984 0
M  V30 25178 C 2309.23 -1.19931 -1.09796 0
M  V30 25179 O 2310.41 -1.48762 -1.15767 0
M  V30 25180 C 2307.54 -2.89401 -1.75967 0
M  V30 25181 C 2306.58 -4.04807 -1.34288 0
M  V30 25182 S 2307.42 -5.34287 -0.360169 0
M  V30 25183 C 2308.57 -6.05769 -1.57462 0
M  V30 25184 H 2308.8 -2.97291 0.0228641 0
M  V30 25185 H 2306.34 -1.53847 0.130606 0
M  V30 25186 H 2308.3 -3.29184 -2.45251 0
M  V30 25187 H 2306.96 -2.13294 -2.30574 0
M  V30 25188 H 2306.15 -4.51317 -2.24341 0
M  V30 25189 H 2305.75 -3.66817 -0.72949 0
M  V30 25190 H 2308.04 -6.29344 -2.50864 0
M  V30 25191 H 2308.99 -6.98678 -1.15126 0
M  V30 25192 H 2309.39 -5.35966 -1.77203 0
M  V30 25193 N 2308.79 -0.0752207 -1.5742 0
M  V30 25194 C 2310.21 0.281417 -1.57099 0
M  V30 25195 C 2310.41 1.69801 -1.08489 0
M  V30 25196 O 2309.46 2.41032 -0.752321 0
M  V30 25197 C 2310.78 0.0879513 -3.00571 0
M  V30 25198 C 2312.33 0.157226 -3.12605 0
M  V30 25199 C 2312.8 -0.00800121 -4.57999 0
M  V30 25200 N 2314.29 0.0474911 -4.63176 0
M  V30 25201 C 2315.03 -0.0558884 -5.73373 0
M  V30 25202 N 2314.52 -0.212982 -6.92473 0
M  V30 25203 N 2316.32 0.00142217 -5.621 0
M  V30 25204 H 2308.47 -1.00101 -1.87333 0
M  V30 25205 H 2310.73 -0.390662 -0.863764 0
M  V30 25206 H 2310.44 -0.889689 -3.40261 0
M  V30 25207 H 2310.31 0.83881 -3.67755 0
M  V30 25208 H 2312.7 1.12536 -2.728 0
M  V30 25209 H 2312.78 -0.624793 -2.48052 0
M  V30 25210 H 2312.42 -0.972912 -4.98495 0
M  V30 25211 H 2312.35 0.793465 -5.20588 0
M  V30 25212 H 2314.84 0.167178 -3.7753 0
M  V30 25213 H 2315.16 -0.283917 -7.72278 0
M  V30 25214 H 2313.5 -0.248389 -6.94556 0
M  V30 25215 H 2316.69 0.122876 -4.67939 0
M  V30 25216 H 2316.86 -0.0825983 -6.47947 0
M  V30 25217 N 2310.27 1.56347 0.198358 0
M  V30 25218 C 2311.55 1.7126 0.944952 0
M  V30 25219 C 2311.93 0.629084 2.01509 0
M  V30 25220 O 2311.28 -0.360433 2.25639 0
M  V30 25221 C 2311.49 3.13463 1.53434 0
M  V30 25222 C 2312.83 3.73595 2.01772 0
M  V30 25223 O 2313.86 3.16571 1.63283 0
M  V30 25224 O 2312.72 4.73666 2.72586 0
M  V30 25225 H 2309.81 0.698388 0.442926 0
M  V30 25226 H 2312.36 1.68652 0.188312 0
M  V30 25227 H 2311.13 3.83793 0.762802 0
M  V30 25228 H 2310.75 3.20286 2.3559 0
M  V30 25229 N 2311.75 -0.465951 1.50554 0
M  V30 25230 C 2312.7 -1.58403 1.70327 0
M  V30 25231 C 2313.69 -1.59552 0.569167 0
M  V30 25232 O 2314.9 -1.6364 0.749805 0
M  V30 25233 H 2311.27 -0.525724 0.537697 0
M  V30 25234 H 2313.24 -1.3889 2.64106 0
M  V30 25235 C 2311.99 -2.96303 1.81933 0
M  V30 25236 H 2311.31 -2.9614 2.68592 0
M  V30 25237 H 2312.75 -3.73978 1.99791 0
M  V30 25238 C 2311.21 -3.32006 0.572153 0
M  V30 25239 O 2311.74 -4.00678 -0.286346 0
M  V30 25240 N 2309.95 -2.8748 0.424656 0
M  V30 25241 H 2309.5 -2.31769 1.12431 0
M  V30 25242 H 2309.45 -3.11733 -0.408642 0
M  V30 25243 N 2313.23 -1.40218 -0.719481 0
M  V30 25244 C 2314.16 -1.42925 -1.84647 0
M  V30 25245 C 2315.14 -0.290649 -1.67598 0
M  V30 25246 O 2316.32 -0.49871 -1.87687 0
M  V30 25247 C 2313.45 -1.28728 -3.22562 0
M  V30 25248 C 2312.41 -2.4015 -3.54277 0
M  V30 25249 C 2311.73 -2.11032 -4.91294 0
M  V30 25250 C 2313.03 -3.82487 -3.5567 0
M  V30 25251 H 2314.73 -2.37241 -1.8264 0
M  V30 25252 H 2312.27 -1.14192 -0.877285 0
M  V30 25253 H 2314.23 -1.29239 -4.01093 0
M  V30 25254 H 2312.95 -0.308868 -3.25136 0
M  V30 25255 H 2311.61 -2.38882 -2.78084 0
M  V30 25256 H 2311.26 -1.11591 -4.90466 0
M  V30 25257 H 2310.96 -2.85679 -5.1348 0
M  V30 25258 H 2312.48 -2.13219 -5.72163 0
M  V30 25259 H 2313.89 -3.856 -4.24247 0
M  V30 25260 H 2312.29 -4.56621 -3.8938 0
M  V30 25261 H 2313.36 -4.12351 -2.55137 0
M  V30 25262 N 2314.7 0.951297 -1.25651 0
M  V30 25263 C 2316.12 1.22298 -1.02545 0
M  V30 25264 C 2316.32 1.99871 0.25568 0
M  V30 25265 O 2315.38 2.33228 0.967517 0
M  V30 25266 C 2316.69 1.99411 -2.25068 0
M  V30 25267 C 2318.24 2.12442 -2.29864 0
M  V30 25268 C 2318.71 2.92954 -3.52054 0
M  V30 25269 N 2320.2 3.00532 -3.5247 0
M  V30 25270 C 2320.94 3.63231 -4.43679 0
M  V30 25271 N 2320.43 4.27514 -5.45164 0
M  V30 25272 N 2322.23 3.60404 -4.31353 0
M  V30 25273 H 2314.38 0.432434 -2.07951 0
M  V30 25274 H 2316.64 0.2538 -0.913394 0
M  V30 25275 H 2316.35 1.49812 -3.18197 0
M  V30 25276 H 2316.22 3.00107 -2.28507 0
M  V30 25277 H 2318.61 2.61237 -1.37257 0
M  V30 25278 H 2318.69 1.1104 -2.30442 0
M  V30 25279 H 2318.33 2.44849 -4.44985 0
M  V30 25280 H 2318.26 3.9459 -3.48722 0
M  V30 25281 H 2320.75 2.54821 -2.7906 0
M  V30 25282 H 2321.07 4.73223 -6.10966 0
M  V30 25283 H 2319.41 4.26131 -5.49033 0
M  V30 25284 H 2322.6 3.09371 -3.51294 0
M  V30 25285 H 2322.78 4.08982 -5.02631 0
M  V30 25286 N 2316.18 1.07291 1.1544 0
M  V30 25287 C 2317.11 0.650624 2.19772 0
M  V30 25288 C 2318.13 -0.296544 1.60076 0
M  V30 25289 O 2319.32 -0.0859592 1.78293 0
M  V30 25290 C 2316.42 -0.0649803 3.38838 0
M  V30 25291 C 2315.59 0.898216 4.28078 0
M  V30 25292 C 2314.65 0.220019 5.2574 0
M  V30 25293 O 2313.67 0.860871 5.62652 0
M  V30 25294 N 2314.88 -1.03455 5.71207 0
M  V30 25295 H 2317.64 1.54812 2.56619 0
M  V30 25296 H 2315.2 0.957517 1.3055 0
M  V30 25297 H 2317.19 -0.529344 4.01223 0
M  V30 25298 H 2315.76 -0.864414 3.00411 0
M  V30 25299 H 2314.98 1.54171 3.62801 0
M  V30 25300 H 2316.27 1.55129 4.84574 0
M  V30 25301 H 2315.67 -1.57517 5.43328 0
M  V30 25302 H 2314.23 -1.44261 6.35635 0
M  V30 25303 N 2317.66 -1.32267 0.856927 0
M  V30 25304 C 2318.59 -2.31316 0.318621 0
M  V30 25305 C 2319.57 -1.5978 -0.583459 0
M  V30 25306 O 2320.76 -1.87567 -0.503226 0
M  V30 25307 C 2317.89 -3.43799 -0.491918 0
M  V30 25308 C 2316.84 -4.26832 0.315924 0
M  V30 25309 C 2316.17 -5.31099 -0.619492 0
M  V30 25310 C 2317.47 -4.98991 1.54291 0
M  V30 25311 H 2319.16 -2.76589 1.14626 0
M  V30 25312 H 2316.71 -1.32973 0.552637 0
M  V30 25313 H 2318.66 -4.12132 -0.878939 0
M  V30 25314 H 2317.38 -2.97259 -1.35294 0
M  V30 25315 H 2316.04 -3.60149 0.684728 0
M  V30 25316 H 2315.69 -4.80813 -1.47742 0
M  V30 25317 H 2315.39 -5.87541 -0.0829589 0
M  V30 25318 H 2316.91 -6.02295 -1.00364 0
M  V30 25319 H 2318.33 -5.59993 1.22806 0
M  V30 25320 H 2316.73 -5.65168 2.01755 0
M  V30 25321 H 2317.8 -4.26724 2.30292 0
M  V30 25322 N 2319.14 -0.615084 -1.45102 0
M  V30 25323 C 2320.36 -0.118025 -2.07064 0
M  V30 25324 C 2320.79 1.1916 -1.45542 0
M  V30 25325 O 2320.15 1.72728 -0.550885 0
M  V30 25326 C 2320.19 0.000225002 -3.606 0
M  V30 25327 O 2319.3 1.04849 -3.98849 0
M  V30 25328 H 2318.64 -0.0774697 -0.659465 0
M  V30 25329 H 2321.17 -0.847218 -1.86235 0
M  V30 25330 H 2321.18 0.196019 -4.07529 0
M  V30 25331 H 2319.85 -0.956003 -4.04763 0
M  V30 25332 H 2318.43 0.828555 -3.63579 0
M  V30 25333 N 2320.62 1.53557 -0.354678 0
M  V30 25334 C 2321.84 2.05982 0.242117 0
M  V30 25335 C 2322.27 1.22723 1.42551 0
M  V30 25336 O 2321.63 0.243635 1.79656 0
M  V30 25337 C 2321.67 3.55155 0.624304 0
M  V30 25338 O 2320.78 3.74684 1.72295 0
M  V30 25339 H 2320.12 0.662921 0.0378315 0
M  V30 25340 H 2322.65 1.98087 -0.512121 0
M  V30 25341 H 2322.66 3.97987 0.898363 0
M  V30 25342 H 2321.33 4.15201 -0.241062 0
M  V30 25343 H 2319.91 3.43753 1.44529 0
M  V30 25344 N 2322.1 0.083568 1.57378 0
M  V30 25345 C 2323.03 -0.876822 2.16412 0
M  V30 25346 C 2324.01 -1.30226 1.09431 0
M  V30 25347 O 2325.19 -1.37121 1.37519 0
M  V30 25348 C 2322.32 -2.14017 2.73521 0
M  V30 25349 C 2321.28 -1.85375 3.85772 0
M  V30 25350 C 2320.6 -3.1844 4.29534 0
M  V30 25351 C 2321.9 -1.14975 5.09488 0
M  V30 25352 H 2323.6 -0.385006 2.96914 0
M  V30 25353 H 2321.14 -0.183745 1.42823 0
M  V30 25354 H 2323.09 -2.81631 3.13468 0
M  V30 25355 H 2321.82 -2.65462 1.90257 0
M  V30 25356 H 2320.48 -1.20163 3.46347 0
M  V30 25357 H 2320.13 -3.67749 3.43176 0
M  V30 25358 H 2319.83 -3.00063 5.05209 0
M  V30 25359 H 2321.35 -3.87231 4.72106 0
M  V30 25360 H 2322.76 -1.72677 5.46677 0
M  V30 25361 H 2321.16 -1.06816 5.90517 0
M  V30 25362 H 2322.23 -0.130663 4.84724 0
M  V30 25363 N 2323.57 -1.5645 -0.190064 0
M  V30 25364 C 2324.51 -1.90014 -1.26372 0
M  V30 25365 C 2325.48 -0.760791 -1.43704 0
M  V30 25366 O 2326.67 -1.01229 -1.59013 0
M  V30 25367 C 2323.8 -2.13473 -2.62958 0
M  V30 25368 C 2322.84 -3.36174 -2.62468 0
M  V30 25369 S 2323.67 -4.91141 -2.13403 0
M  V30 25370 C 2324.83 -5.17673 -3.51803 0
M  V30 25371 H 2325.06 -2.80784 -0.977131 0
M  V30 25372 H 2322.6 -1.49294 -0.393788 0
M  V30 25373 H 2324.55 -2.2767 -3.41579 0
M  V30 25374 H 2323.22 -1.23444 -2.88826 0
M  V30 25375 H 2322.41 -3.4973 -3.62912 0
M  V30 25376 H 2322.01 -3.20996 -1.91932 0
M  V30 25377 H 2324.3 -5.08502 -4.47697 0
M  V30 25378 H 2325.25 -6.19405 -3.43138 0
M  V30 25379 H 2325.65 -4.45294 -3.46948 0
M  V30 25380 N 2325.05 0.45796 -1.50799 0
M  V30 25381 C 2326.47 0.792795 -1.38517 0
M  V30 25382 C 2326.67 1.96378 -0.451443 0
M  V30 25383 O 2325.72 2.52298 0.101076 0
M  V30 25384 C 2327.04 1.09253 -2.80151 0
M  V30 25385 C 2328.58 1.1982 -2.89158 0
M  V30 25386 C 2329.06 1.53098 -4.31654 0
M  V30 25387 N 2330.55 1.60064 -4.34665 0
M  V30 25388 C 2331.29 1.87345 -5.41931 0
M  V30 25389 N 2330.78 2.12556 -6.59387 0
M  V30 25390 N 2332.57 1.88956 -5.29388 0
M  V30 25391 H 2324.73 -0.313548 -2.10073 0
M  V30 25392 H 2326.99 -0.0778028 -0.944802 0
M  V30 25393 H 2326.69 0.305022 -3.50375 0
M  V30 25394 H 2326.57 2.02544 -3.18207 0
M  V30 25395 H 2328.96 1.97636 -2.19144 0
M  V30 25396 H 2329.04 0.244776 -2.54626 0
M  V30 25397 H 2328.68 0.758178 -5.02209 0
M  V30 25398 H 2328.61 2.49613 -4.63682 0
M  V30 25399 H 2331.1 1.42567 -3.49976 0
M  V30 25400 H 2331.41 2.32684 -7.36938 0
M  V30 25401 H 2329.76 2.09921 -6.62539 0
M  V30 25402 H 2332.95 1.68765 -4.36619 0
M  V30 25403 H 2333.12 2.0988 -6.1307 0
M  V30 25404 N 2326.53 1.40598 0.712035 0
M  V30 25405 C 2327.46 1.37064 1.83701 0
M  V30 25406 C 2328.47 0.275454 1.60453 0
M  V30 25407 O 2329.66 0.53605 1.70261 0
M  V30 25408 C 2326.76 1.11105 3.2017 0
M  V30 25409 C 2325.94 2.32347 3.70586 0
M  V30 25410 C 2325 2.02494 4.85678 0
M  V30 25411 O 2324.02 2.75391 4.98145 0
M  V30 25412 N 2325.22 1.00507 5.71733 0
M  V30 25413 H 2327.99 2.34019 1.8723 0
M  V30 25414 H 2325.55 1.34998 0.893715 0
M  V30 25415 H 2327.54 0.891134 3.94767 0
M  V30 25416 H 2326.11 0.228044 3.11767 0
M  V30 25417 H 2325.33 2.70145 2.8708 0
M  V30 25418 H 2326.62 3.13165 4.01006 0
M  V30 25419 H 2326.02 0.401397 5.64274 0
M  V30 25420 H 2324.57 0.845056 6.46299 0
M  V30 25421 N 2328.01 -0.94462 1.26153 0
M  V30 25422 C 2329.25 -1.69292 1.1166 0
M  V30 25423 C 2329.59 -1.91202 -0.339893 0
M  V30 25424 O 2328.86 -1.49021 -1.24992 0
M  V30 25425 C 2329.14 -3.06981 1.88242 0
M  V30 25426 C 2329 -2.92418 3.41777 0
M  V30 25427 C 2330.32 -4.0704 1.6735 0
M  V30 25428 H 2327.44 -0.614417 0.407015 0
M  V30 25429 H 2330.08 -1.09735 1.55108 0
M  V30 25430 H 2328.23 -3.57821 1.51315 0
M  V30 25431 H 2329.9 -2.48825 3.88438 0
M  V30 25432 H 2328.14 -2.28118 3.68978 0
M  V30 25433 H 2328.81 -3.9006 3.90586 0
M  V30 25434 H 2331.29 -3.65148 1.99515 0
M  V30 25435 H 2330.17 -5.01402 2.23354 0
M  V30 25436 H 2330.43 -4.3777 0.617235 0
M  V30 25437 N 2329.49 -1.07901 -1.1487 0
M  V30 25438 C 2330.42 -0.725926 -2.21929 0
M  V30 25439 C 2331.4 0.289241 -1.67623 0
M  V30 25440 O 2332.58 0.160753 -1.93534 0
M  V30 25441 C 2329.71 -0.128917 -3.47061 0
M  V30 25442 C 2328.67 -1.07186 -4.14361 0
M  V30 25443 C 2327.99 -0.337322 -5.33635 0
M  V30 25444 C 2329.29 -2.40783 -4.63488 0
M  V30 25445 H 2330.99 -1.62102 -2.51721 0
M  V30 25446 H 2328.53 -0.780859 -1.2099 0
M  V30 25447 H 2330.48 0.130073 -4.21199 0
M  V30 25448 H 2329.21 0.801285 -3.16618 0
M  V30 25449 H 2327.87 -1.31586 -3.42171 0
M  V30 25450 H 2327.52 0.596518 -4.9945 0
M  V30 25451 H 2327.22 -0.96589 -5.79607 0
M  V30 25452 H 2328.74 -0.086264 -6.10539 0
M  V30 25453 H 2330.15 -2.20678 -5.29126 0
M  V30 25454 H 2328.55 -2.99285 -5.20143 0
M  V30 25455 H 2329.62 -3.02683 -3.78829 0
M  V30 25456 N 2330.96 1.31811 -0.863929 0
M  V30 25457 C 2332.21 1.96536 -0.470938 0
M  V30 25458 C 2332.53 1.68658 0.978741 0
M  V30 25459 O 2331.8 0.998746 1.68529 0
M  V30 25460 H 2330.38 0.727127 -0.171161 0
M  V30 25461 H 2333.04 1.60727 -1.10239 0
M  V30 25462 H 2332.14 3.05805 -0.62367 0
M  V30 25463 N 2332.44 0.62277 1.44773 0
M  V30 25464 C 2333.69 0.12369 2.01721 0
M  V30 25465 C 2334.01 -1.25587 1.49174 0
M  V30 25466 O 2333.28 -1.83271 0.692006 0
M  V30 25467 H 2331.86 0.0427356 0.745777 0
M  V30 25468 H 2334.52 0.80759 1.77381 0
M  V30 25469 H 2333.62 0.0850082 3.11984 0
M  V30 25470 N 2333.92 -1.53367 0.362817 0
M  V30 25471 C 2334.87 -2.2242 -0.501352 0
M  V30 25472 C 2335.85 -1.21842 -1.05088 0
M  V30 25473 O 2337.05 -1.47302 -0.981378 0
M  V30 25474 C 2334.17 -3.01487 -1.64196 0
M  V30 25475 C 2333.26 -4.09439 -1.10545 0
M  V30 25476 N 2333.65 -5.04958 -0.291699 0
M  V30 25477 C 2331.95 -4.24096 -1.38052 0
M  V30 25478 C 2332.65 -5.817 0.0017288 0
M  V30 25479 N 2331.63 -5.40332 -0.595149 0
M  V30 25480 H 2335.43 -2.93625 0.127211 0
M  V30 25481 H 2332.94 -1.61501 0.170687 0
M  V30 25482 H 2334.94 -3.49473 -2.2732 0
M  V30 25483 H 2333.6 -2.31813 -2.27361 0
M  V30 25484 H 2334.61 -5.17854 0.0688642 0
M  V30 25485 H 2331.29 -3.65647 -2.01515 0
M  V30 25486 H 2332.68 -6.68657 0.659396 0
M  V30 25487 N 2335.4 -0.091913 -1.57332 0
M  V30 25488 C 2336.65 0.571412 -1.93854 0
M  V30 25489 C 2336.97 1.68919 -0.974242 0
M  V30 25490 O 2336.24 1.95883 -0.0257598 0
M  V30 25491 H 2334.82 0.214069 -0.71567 0
M  V30 25492 H 2337.48 -0.154498 -1.94287 0
M  V30 25493 H 2336.58 0.983677 -2.96193 0
M  V30 25494 N 2336.88 1.56548 0.181765 0
M  V30 25495 C 2337.79 1.98817 1.24535 0
M  V30 25496 C 2338.8 0.897887 1.49044 0
M  V30 25497 O 2339.98 1.2047 1.61397 0
M  V30 25498 C 2337.04 2.33059 2.56679 0
M  V30 25499 C 2336.1 3.55863 2.40125 0
M  V30 25500 C 2335.34 3.88463 3.65968 0
M  V30 25501 O 2335.56 3.22169 4.70705 0
M  V30 25502 O 2334.49 4.81849 3.60701 0
M  V30 25503 H 2338.32 2.89538 0.916596 0
M  V30 25504 H 2335.91 1.44279 0.387817 0
M  V30 25505 H 2337.79 2.561 3.3465 0
M  V30 25506 H 2336.46 1.45503 2.89155 0
M  V30 25507 H 2335.37 3.38054 1.6022 0
M  V30 25508 H 2336.7 4.43928 2.12578 0
M  V30 25509 N 2338.35 -0.449957 1.5104 0
M  V30 25510 C 2339.63 -1.21086 1.53615 0
M  V30 25511 C 2340.01 -2.09056 0.293034 0
M  V30 25512 O 2339.36 -2.16775 -0.722552 0
M  V30 25513 C 2339.57 -2.02365 2.84341 0
M  V30 25514 C 2340.92 -2.59837 3.35812 0
M  V30 25515 O 2341.94 -2.12588 2.85806 0
M  V30 25516 O 2340.8 -3.45982 4.23035 0
M  V30 25517 H 2337.89 -0.550597 0.617067 0
M  V30 25518 H 2340.44 -0.460054 1.63345 0
M  V30 25519 H 2339.21 -1.37674 3.66281 0
M  V30 25520 H 2338.84 -2.84537 2.77713 0
M  V30 25521 N 2339.83 -1.40974 -0.704569 0
M  V30 25522 C 2341.06 -1.43184 -1.49352 0
M  V30 25523 C 2341.48 -0.034584 -1.88768 0
M  V30 25524 O 2340.83 0.944054 -1.56185 0
M  V30 25525 C 2340.88 -2.33249 -2.76183 0
M  V30 25526 O 2340.6 -3.67536 -2.3843 0
M  V30 25527 C 2342.11 -2.44168 -3.69996 0
M  V30 25528 H 2339.33 -0.48799 -0.46055 0
M  V30 25529 H 2341.87 -1.85154 -0.868228 0
M  V30 25530 H 2340.02 -1.94612 -3.3497 0
M  V30 25531 H 2340.44 -4.15481 -3.20118 0
M  V30 25532 H 2341.91 -3.11372 -4.55797 0
M  V30 25533 H 2342.39 -1.47013 -4.13864 0
M  V30 25534 H 2343 -2.83404 -3.17116 0
M  V30 25535 N 2341.31 0.937917 -1.26653 0
M  V30 25536 C 2342.24 2.05431 -1.10997 0
M  V30 25537 C 2343.22 1.70094 -0.014246 0
M  V30 25538 O 2344.41 1.93299 -0.186871 0
M  V30 25539 C 2341.54 3.39202 -0.745621 0
M  V30 25540 C 2340.49 3.88612 -1.79344 0
M  V30 25541 C 2339.82 5.19071 -1.28333 0
M  V30 25542 C 2341.12 4.13133 -3.1956 0
M  V30 25543 H 2342.81 2.18787 -2.04384 0
M  V30 25544 H 2340.36 1.0513 -0.98406 0
M  V30 25545 H 2342.31 4.1677 -0.622961 0
M  V30 25546 H 2341.03 3.25831 0.223953 0
M  V30 25547 H 2339.69 3.13228 -1.90483 0
M  V30 25548 H 2339.34 5.02084 -0.303503 0
M  V30 25549 H 2339.04 5.531 -1.98379 0
M  V30 25550 H 2340.56 5.99219 -1.1734 0
M  V30 25551 H 2341.98 4.81304 -3.1148 0
M  V30 25552 H 2340.38 4.5845 -3.87226 0
M  V30 25553 H 2341.45 3.18794 -3.65374 0
M  V30 25554 N 2342.79 1.08509 1.14296 0
M  V30 25555 C 2343.7 0.727792 2.23025 0
M  V30 25556 C 2344.71 -0.26616 1.71952 0
M  V30 25557 O 2345.89 -0.109846 2.011 0
M  V30 25558 C 2342.96 0.143602 3.46402 0
M  V30 25559 C 2342.02 1.1923 4.12411 0
M  V30 25560 C 2341.25 0.635892 5.29898 0
M  V30 25561 O 2341.47 -0.544293 5.67797 0
M  V30 25562 O 2340.41 1.38644 5.85714 0
M  V30 25563 H 2344.23 1.63485 2.55942 0
M  V30 25564 H 2341.82 0.858839 1.22247 0
M  V30 25565 H 2343.7 -0.17933 4.21018 0
M  V30 25566 H 2342.37 -0.736603 3.15208 0
M  V30 25567 H 2341.28 1.56778 3.39664 0
M  V30 25568 H 2342.61 2.04482 4.47714 0
M  V30 25569 N 2344.27 -1.31351 0.870907 0
M  V30 25570 C 2345.49 -2.01382 0.495992 0
M  V30 25571 C 2345.92 -1.64937 -0.904295 0
M  V30 25572 O 2345.27 -0.858494 -1.59686 0
M  V30 25573 C 2345.32 -3.54481 0.661496 0
M  V30 25574 O 2344.43 -4.11316 -0.298778 0
M  V30 25575 H 2343.77 -0.634051 0.197169 0
M  V30 25576 H 2346.3 -1.67525 1.17458 0
M  V30 25577 H 2346.31 -4.04206 0.555143 0
M  V30 25578 H 2344.98 -3.80347 1.68253 0
M  V30 25579 H 2343.56 -3.72609 -0.147303 0
M  V30 25580 N 2345.74 -0.630439 -1.44441 0
M  V30 25581 C 2347.02 -0.0656 -1.9549 0
M  V30 25582 C 2347.4 1.40848 -1.57242 0
M  V30 25583 O 2346.75 2.12256 -0.846154 0
M  V30 25584 C 2346.96 -0.287752 -3.47812 0
M  V30 25585 C 2348.31 -0.180588 -4.24216 0
M  V30 25586 O 2349.33 -0.219082 -3.55526 0
M  V30 25587 O 2348.19 -0.0849453 -5.46434 0
M  V30 25588 H 2345.28 0.0227031 -0.826688 0
M  V30 25589 H 2347.83 -0.702095 -1.54495 0
M  V30 25590 H 2346.6 -1.31063 -3.68698 0
M  V30 25591 H 2346.23 0.382914 -3.95752 0
M  V30 25592 N 2347.22 1.53172 -0.370945 0
M  V30 25593 C 2348.5 1.93675 0.27372 0
M  V30 25594 C 2348.88 1.30493 1.65936 0
M  V30 25595 O 2348.23 0.466039 2.23697 0
M  V30 25596 C 2348.44 3.47543 0.31854 0
M  V30 25597 C 2349.79 4.2094 0.556318 0
M  V30 25598 O 2350.81 3.53952 0.399525 0
M  V30 25599 O 2349.67 5.39658 0.862038 0
M  V30 25600 H 2346.76 0.810284 0.165434 0
M  V30 25601 H 2349.31 1.64315 -0.424119 0
M  V30 25602 H 2348.08 3.85817 -0.652755 0
M  V30 25603 H 2347.7 3.83153 1.06206 0
M  V30 25604 N 2348.7 0.100255 1.57281 0
M  V30 25605 C 2349.65 -0.87429 2.15543 0
M  V30 25606 C 2350.64 -1.28857 1.09964 0
M  V30 25607 O 2351.85 -1.2625 1.283 0
M  V30 25608 H 2348.22 -0.299991 0.689572 0
M  V30 25609 H 2350.19 -0.358238 2.96242 0
M  V30 25610 C 2348.94 -2.12175 2.75458 0
M  V30 25611 H 2348.27 -1.81186 3.56387 0
M  V30 25612 H 2349.71 -2.78412 3.19786 0
M  V30 25613 C 2348.17 -2.89918 1.71607 0
M  V30 25614 O 2348.7 -3.84644 1.15811 0
M  V30 25615 N 2346.9 -2.53555 1.41979 0
M  V30 25616 H 2346.45 -1.76595 1.87542 0
M  V30 25617 H 2346.41 -3.05871 0.727328 0
M  V30 25618 N 2350.18 -1.56643 -0.17346 0
M  V30 25619 C 2351.43 -1.81065 -0.888726 0
M  V30 25620 C 2351.74 -0.677152 -1.83505 0
M  V30 25621 O 2352.95 -0.806252 -2.59252 0
M  V30 25622 C 2351.4 -3.20829 -1.63086 0
M  V30 25623 C 2351.01 -4.42041 -0.728279 0
M  V30 25624 C 2352.76 -3.54545 -2.33448 0
M  V30 25625 C 2350.66 -5.72826 -1.47052 0
M  V30 25626 H 2349.59 -0.675192 -0.335606 0
M  V30 25627 H 2352.24 -1.82952 -0.14168 0
M  V30 25628 H 2350.63 -3.13252 -2.42258 0
M  V30 25629 H 2351.8 -4.60792 0.0263259 0
M  V30 25630 H 2350.11 -4.16183 -0.134419 0
M  V30 25631 H 2352.71 -4.49503 -2.8957 0
M  V30 25632 H 2353.05 -2.79323 -3.08682 0
M  V30 25633 H 2353.59 -3.63666 -1.61221 0
M  V30 25634 H 2350.33 -6.51073 -0.760544 0
M  V30 25635 H 2349.85 -5.58055 -2.1985 0
M  V30 25636 H 2351.53 -6.14705 -2.01858 0
M  V30 25637 N 2351.66 0.44194 -1.51277 0
M  V30 25638 C 2352.59 1.5543 -1.68446 0
M  V30 25639 C 2353.6 1.52673 -0.565214 0
M  V30 25640 O 2354.79 1.57533 -0.839383 0
M  V30 25641 C 2351.89 2.94345 -1.67971 0
M  V30 25642 C 2351.06 3.21656 -2.96405 0
M  V30 25643 C 2350.12 4.40272 -2.88179 0
M  V30 25644 O 2349.15 4.39151 -3.62126 0
M  V30 25645 N 2350.35 5.43581 -2.03716 0
M  V30 25646 H 2353.12 1.41108 -2.64403 0
M  V30 25647 H 2350.68 0.630812 -1.49105 0
M  V30 25648 H 2352.67 3.71711 -1.60042 0
M  V30 25649 H 2351.24 3.02288 -0.796278 0
M  V30 25650 H 2350.46 2.32633 -3.18238 0
M  V30 25651 H 2351.75 3.36729 -3.81433 0
M  V30 25652 H 2351.15 5.47326 -1.43005 0
M  V30 25653 H 2349.7 6.19817 -2.01669 0
M  V30 25654 N 2353.14 1.41345 0.697083 0
M  V30 25655 C 2354.55 1.23781 1.00749 0
M  V30 25656 C 2354.75 0.126101 2.01105 0
M  V30 25657 O 2353.81 -0.509996 2.47296 0
M  V30 25658 C 2355.12 2.58656 1.53354 0
M  V30 25659 C 2356.67 2.65825 1.65246 0
M  V30 25660 C 2357.14 4.01013 2.21253 0
M  V30 25661 N 2358.63 4.02851 2.28615 0
M  V30 25662 C 2359.37 5.04254 2.72975 0
M  V30 25663 N 2358.87 6.16047 3.16951 0
M  V30 25664 N 2360.66 4.91616 2.72526 0
M  V30 25665 H 2352.81 2.12376 0.0322288 0
M  V30 25666 H 2355.07 0.944878 0.0768687 0
M  V30 25667 H 2354.78 3.40751 0.870713 0
M  V30 25668 H 2354.65 2.81036 2.51592 0
M  V30 25669 H 2357.04 1.8409 2.3064 0
M  V30 25670 H 2357.12 2.47257 0.65557 0
M  V30 25671 H 2356.76 4.83196 1.56474 0
M  V30 25672 H 2356.69 4.16921 3.2169 0
M  V30 25673 H 2359.19 3.22135 1.9758 0
M  V30 25674 H 2359.5 6.89293 3.49421 0
M  V30 25675 H 2357.84 6.19585 3.14864 0
M  V30 25676 H 2361.03 4.03365 2.37518 0
M  V30 25677 H 2361.21 5.70781 3.06779 0
M  V30 25678 N 2354.61 -0.931187 1.27148 0
M  V30 25679 C 2355.54 -2.0484 1.12085 0
M  V30 25680 C 2356.52 -1.70084 0.0232663 0
M  V30 25681 O 2357.71 -1.93197 0.197119 0
M  V30 25682 C 2354.84 -3.38801 0.763599 0
M  V30 25683 C 2353.79 -3.87656 1.81403 0
M  V30 25684 C 2353.12 -5.18383 1.31084 0
M  V30 25685 C 2354.42 -4.11432 3.21747 0
M  V30 25686 H 2356.11 -2.177 2.05541 0
M  V30 25687 H 2353.66 -1.04606 0.989621 0
M  V30 25688 H 2355.61 -4.16434 0.645055 0
M  V30 25689 H 2354.34 -3.25945 -0.20667 0
M  V30 25690 H 2353 -3.12213 1.92141 0
M  V30 25691 H 2352.64 -5.01916 0.330125 0
M  V30 25692 H 2352.34 -5.5204 2.01309 0
M  V30 25693 H 2353.87 -5.98588 1.20517 0
M  V30 25694 H 2355.28 -4.79645 3.14028 0
M  V30 25695 H 2353.68 -4.5639 3.89652 0
M  V30 25696 H 2354.75 -3.16852 3.67059 0
M  V30 25697 N 2356.09 -1.09114 -1.13719 0
M  V30 25698 C 2357.02 -0.749423 -2.21147 0
M  V30 25699 C 2358 0.271446 -1.6792 0
M  V30 25700 O 2359.19 0.140217 -1.93693 0
M  V30 25701 C 2356.32 -0.16572 -3.46904 0
M  V30 25702 C 2355.27 -1.11574 -4.13201 0
M  V30 25703 C 2354.6 -0.393903 -5.33247 0
M  V30 25704 C 2355.9 -2.45686 -4.60908 0
M  V30 25705 H 2357.59 -1.64763 -2.49987 0
M  V30 25706 H 2355.14 -0.793647 -1.20155 0
M  V30 25707 H 2357.09 0.0853919 -4.21313 0
M  V30 25708 H 2355.81 0.767658 -3.1745 0
M  V30 25709 H 2354.47 -1.35208 -3.40756 0
M  V30 25710 H 2354.12 0.543511 -5.00055 0
M  V30 25711 H 2353.82 -1.02731 -5.7855 0
M  V30 25712 H 2355.35 -0.151015 -6.10413 0
M  V30 25713 H 2356.76 -2.26278 -5.26755 0
M  V30 25714 H 2355.16 -3.04785 -5.16939 0
M  V30 25715 H 2356.23 -3.06684 -3.75597 0
M  V30 25716 N 2357.57 1.30887 -0.877861 0
M  V30 25717 C 2358.52 2.28318 -0.337578 0
M  V30 25718 C 2359.49 1.56075 0.568319 0
M  V30 25719 O 2360.67 1.84179 0.498266 0
M  V30 25720 C 2357.81 3.42179 0.448082 0
M  V30 25721 C 2356.92 4.29255 -0.486225 0
M  V30 25722 C 2356.06 5.30269 0.314334 0
M  V30 25723 C 2355.1 6.08994 -0.615898 0
M  V30 25724 N 2354.24 7.01942 0.148897 0
M  V30 25725 H 2359.08 2.73917 -1.1736 0
M  V30 25726 H 2356.61 1.34744 -0.590117 0
M  V30 25727 H 2358.57 4.06942 0.919445 0
M  V30 25728 H 2357.2 2.97668 1.24874 0
M  V30 25729 H 2356.25 3.64863 -1.07606 0
M  V30 25730 H 2357.56 4.84171 -1.19918 0
M  V30 25731 H 2356.72 6.00746 0.847863 0
M  V30 25732 H 2355.46 4.76029 1.06054 0
M  V30 25733 H 2354.46 5.37399 -1.16112 0
M  V30 25734 H 2355.69 6.6532 -1.36108 0
M  V30 25735 H 2353.63 6.50101 0.87777 0
M  V30 25736 H 2353.55 7.54314 -0.504565 0
M  V30 25737 H 2354.82 7.76672 0.6634 0
M  V30 25738 N 2359.05 0.638091 1.44105 0
M  V30 25739 C 2360.32 0.0759664 1.95452 0
M  V30 25740 C 2360.7 -1.40012 1.57987 0
M  V30 25741 O 2360.05 -2.11804 0.857398 0
M  V30 25742 C 2360.26 0.306193 3.47654 0
M  V30 25743 C 2361.61 0.203083 4.24114 0
M  V30 25744 O 2362.63 0.237933 3.55404 0
M  V30 25745 O 2361.49 0.113923 5.46381 0
M  V30 25746 H 2358.59 -0.0183187 0.826797 0
M  V30 25747 H 2361.13 0.710278 1.54121 0
M  V30 25748 H 2359.91 1.33016 3.67998 0
M  V30 25749 H 2359.53 -0.361921 3.95949 0
M  V30 25750 N 2360.53 -1.52973 0.379063 0
M  V30 25751 C 2361.75 -2.06341 -0.209317 0
M  V30 25752 C 2362.18 -1.24975 -1.4058 0
M  V30 25753 O 2361.53 -0.272186 -1.79245 0
M  V30 25754 C 2361.58 -3.56103 -0.567723 0
M  V30 25755 O 2360.69 -3.77378 -1.66312 0
M  V30 25756 H 2360.03 -0.663439 -0.0272802 0
M  V30 25757 H 2362.56 -1.97247 0.54357 0
M  V30 25758 H 2362.57 -3.99366 -0.834933 0
M  V30 25759 H 2361.24 -4.14765 0.307086 0
M  V30 25760 H 2359.82 -3.46008 -1.39042 0
M  V30 25761 N 2362 -0.108595 -1.57225 0
M  V30 25762 C 2362.93 0.842282 -2.17779 0
M  V30 25763 C 2363.91 1.28469 -1.11489 0
M  V30 25764 O 2365.1 1.34916 -1.39683 0
M  V30 25765 C 2362.23 2.09639 -2.76891 0
M  V30 25766 C 2361.18 1.79214 -3.88673 0
M  V30 25767 C 2360.51 3.11567 -4.34546 0
M  V30 25768 C 2361.81 1.06855 -5.11253 0
M  V30 25769 H 2363.5 0.337721 -2.97489 0
M  V30 25770 H 2361.05 0.161 -1.43097 0
M  V30 25771 H 2363 2.76608 -3.17909 0
M  V30 25772 H 2361.73 2.62401 -1.94456 0
M  V30 25773 H 2360.39 1.14638 -3.48215 0
M  V30 25774 H 2360.03 3.62243 -3.48983 0
M  V30 25775 H 2359.73 2.91987 -5.09919 0
M  V30 25776 H 2361.26 3.79672 -4.78207 0
M  V30 25777 H 2362.67 1.63958 -5.49355 0
M  V30 25778 H 2361.07 0.974074 -5.92142 0
M  V30 25779 H 2362.14 0.0535316 -4.8487 0
M  V30 25780 N 2363.48 1.56732 0.16515 0
M  V30 25781 C 2364.9 1.50989 0.517148 0
M  V30 25782 C 2365.1 0.813926 1.8433 0
M  V30 25783 O 2364.15 0.376864 2.49672 0
M  V30 25784 C 2365.47 2.95734 0.544209 0
M  V30 25785 C 2367.01 3.06574 0.630985 0
M  V30 25786 C 2367.49 4.5279 0.688881 0
M  V30 25787 N 2368.98 4.57061 0.751602 0
M  V30 25788 C 2369.72 5.67549 0.817077 0
M  V30 25789 N 2369.21 6.87652 0.843008 0
M  V30 25790 N 2371 5.55535 0.856571 0
M  V30 25791 H 2363.16 2.00381 -0.704353 0
M  V30 25792 H 2365.42 0.913143 -0.254703 0
M  V30 25793 H 2365.12 3.49835 -0.361668 0
M  V30 25794 H 2365 3.50713 1.38854 0
M  V30 25795 H 2367.39 2.52503 1.52729 0
M  V30 25796 H 2367.47 2.5467 -0.24014 0
M  V30 25797 H 2367.11 5.07493 -0.203189 0
M  V30 25798 H 2367.04 5.02456 1.57624 0
M  V30 25799 H 2369.53 3.70592 0.739596 0
M  V30 25800 H 2369.84 7.67608 0.894313 0
M  V30 25801 H 2368.19 6.9025 0.811183 0
M  V30 25802 H 2371.38 4.60622 0.833356 0
M  V30 25803 H 2371.55 6.41661 0.904134 0
M  V30 25804 N 2364.96 -0.433911 1.51509 0
M  V30 25805 C 2366.38 -0.770658 1.39761 0
M  V30 25806 C 2366.58 -1.95635 0.482628 0
M  V30 25807 O 2365.63 -2.52426 -0.0609248 0
M  V30 25808 C 2366.95 -1.04782 2.81853 0
M  V30 25809 C 2368.49 -1.15204 2.91027 0
M  V30 25810 C 2368.97 -1.46212 4.34035 0
M  V30 25811 N 2370.46 -1.53129 4.37157 0
M  V30 25812 C 2371.19 -1.78699 5.44843 0
M  V30 25813 N 2370.69 -2.02039 6.62685 0
M  V30 25814 N 2372.48 -1.8051 5.32328 0
M  V30 25815 H 2364.63 0.346929 2.09548 0
M  V30 25816 H 2366.9 0.092824 0.943445 0
M  V30 25817 H 2366.6 -0.249242 3.50816 0
M  V30 25818 H 2366.48 -1.97456 3.21389 0
M  V30 25819 H 2368.86 -1.94124 2.22261 0
M  V30 25820 H 2368.95 -0.204236 2.54983 0
M  V30 25821 H 2368.59 -0.678185 5.03352 0
M  V30 25822 H 2368.52 -2.42204 4.67595 0
M  V30 25823 H 2371.01 -1.36981 3.522 0
M  V30 25824 H 2371.32 -2.2093 7.40547 0
M  V30 25825 H 2369.67 -1.99354 6.65795 0
M  V30 25826 H 2372.86 -1.61797 4.39249 0
M  V30 25827 H 2373.03 -2.001 6.16331 0
M  V30 25828 N 2366.44 -1.41713 -0.689577 0
M  V30 25829 C 2367.67 -1.4476 -1.47825 0
M  V30 25830 C 2368.08 -0.0546035 -1.88721 0
M  V30 25831 O 2367.44 0.927435 -1.57178 0
M  V30 25832 C 2367.49 -2.36165 -2.73694 0
M  V30 25833 O 2367.21 -3.70045 -2.34518 0
M  V30 25834 C 2368.71 -2.48079 -3.67385 0
M  V30 25835 H 2365.93 -0.492848 -0.455349 0
M  V30 25836 H 2368.48 -1.86065 -0.848541 0
M  V30 25837 H 2366.63 -1.98154 -3.32887 0
M  V30 25838 H 2367.04 -4.18853 -3.15694 0
M  V30 25839 H 2368.52 -3.16189 -4.52469 0
M  V30 25840 H 2369 -1.51395 -4.12282 0
M  V30 25841 H 2369.6 -2.86751 -3.14092 0
M  V30 25842 N 2367.92 0.924431 -1.2764 0
M  V30 25843 C 2369.33 1.20095 -1.05116 0
M  V30 25844 C 2369.53 2.00369 0.213227 0
M  V30 25845 O 2368.59 2.35228 0.917828 0
M  V30 25846 C 2369.9 1.94592 -2.29247 0
M  V30 25847 C 2371.45 2.07518 -2.34319 0
M  V30 25848 C 2371.92 2.85421 -3.58188 0
M  V30 25849 N 2373.42 2.92988 -3.58765 0
M  V30 25850 C 2374.15 3.53738 -4.51284 0
M  V30 25851 N 2373.65 4.15854 -5.5411 0
M  V30 25852 N 2375.44 3.51173 -4.389 0
M  V30 25853 H 2367.59 0.388227 -2.08822 0
M  V30 25854 H 2369.85 0.234369 -0.918572 0
M  V30 25855 H 2369.56 1.43029 -3.21303 0
M  V30 25856 H 2369.43 2.95193 -2.34821 0
M  V30 25857 H 2371.82 2.58267 -1.42767 0
M  V30 25858 H 2371.9 1.06127 -2.32746 0
M  V30 25859 H 2371.55 2.35355 -4.50078 0
M  V30 25860 H 2371.48 3.87104 -3.57013 0
M  V30 25861 H 2373.97 2.48845 -2.84403 0
M  V30 25862 H 2374.28 4.60157 -6.20867 0
M  V30 25863 H 2372.62 4.1439 -5.57948 0
M  V30 25864 H 2375.82 3.0185 -3.57777 0
M  V30 25865 H 2375.99 3.98228 -5.11193 0
M  V30 25866 N 2369.39 1.09715 1.13139 0
M  V30 25867 C 2370.64 0.846136 1.84965 0
M  V30 25868 C 2371 -0.621569 1.82083 0
M  V30 25869 O 2370.29 -1.45198 1.25013 0
M  V30 25870 C 2370.48 1.31916 3.32164 0
M  V30 25871 C 2370.31 2.83131 3.49381 0
M  V30 25872 C 2369.08 3.51045 3.6345 0
M  V30 25873 C 2371.28 3.81262 3.45172 0
M  V30 25874 N 2369.26 4.90657 3.68957 0
M  V30 25875 C 2370.63 5.06843 3.57085 0
M  V30 25876 C 2372.69 3.74075 3.28591 0
M  V30 25877 C 2371.39 6.26087 3.54129 0
M  V30 25878 C 2373.42 4.9281 3.26945 0
M  V30 25879 C 2372.78 6.17235 3.39411 0
M  V30 25880 H 2368.88 0.362524 0.692893 0
M  V30 25881 H 2371.46 1.3981 1.35504 0
M  V30 25882 H 2369.63 0.794602 3.80185 0
M  V30 25883 H 2371.36 1.01315 3.91813 0
M  V30 25884 H 2368.12 3.01478 3.65251 0
M  V30 25885 H 2368.54 5.6339 3.75394 0
M  V30 25886 H 2373.19 2.788 3.17853 0
M  V30 25887 H 2370.9 7.21659 3.6364 0
M  V30 25888 H 2374.49 4.8895 3.15308 0
M  V30 25889 H 2373.37 7.07571 3.38102 0
M  V30 25890 N 2370.87 -1.30419 0.88479 0
M  V30 25891 C 2372.12 -1.9644 0.503885 0
M  V30 25892 C 2372.45 -1.69685 -0.944488 0
M  V30 25893 O 2371.73 -1.00148 -1.66735 0
M  V30 25894 C 2372.01 -3.5157 0.779147 0
M  V30 25895 C 2371.86 -3.87842 2.27813 0
M  V30 25896 C 2373.18 -4.39358 0.255529 0
M  V30 25897 H 2370.3 -0.713521 0.184545 0
M  V30 25898 H 2372.94 -1.54295 1.10875 0
M  V30 25899 H 2371.09 -3.876 0.264342 0
M  V30 25900 H 2372.76 -3.61836 2.86133 0
M  V30 25901 H 2371.01 -3.35917 2.74485 0
M  V30 25902 H 2371.68 -4.9606 2.42134 0
M  V30 25903 H 2374.15 -4.10235 0.696151 0
M  V30 25904 H 2373.03 -5.46819 0.477457 0
M  V30 25905 H 2373.29 -4.33984 -0.843217 0
M  V30 25906 N 2372.35 -0.645724 -1.43764 0
M  V30 25907 C 2373.63 -0.0863307 -1.95409 0
M  V30 25908 C 2374.01 1.39172 -1.58727 0
M  V30 25909 O 2373.36 2.11346 -0.868619 0
M  V30 25910 C 2373.57 -0.324626 -3.47487 0
M  V30 25911 C 2374.91 -0.225572 -4.24 0
M  V30 25912 O 2375.94 -0.256778 -3.55273 0
M  V30 25913 O 2374.8 -0.142897 -5.46313 0
M  V30 25914 H 2371.89 0.0139337 -0.826883 0
M  V30 25915 H 2374.44 -0.718442 -1.53742 0
M  V30 25916 H 2373.21 -1.34966 -3.67287 0
M  V30 25917 H 2372.83 0.340918 -3.96136 0
M  V30 25918 N 2373.83 1.5277 -0.38717 0
M  V30 25919 C 2374.76 2.2403 0.484049 0
M  V30 25920 C 2375.77 1.262 1.02847 0
M  V30 25921 O 2376.96 1.52288 0.931159 0
M  V30 25922 C 2374.06 2.94139 1.68332 0
M  V30 25923 C 2373.24 4.18658 1.26664 0
M  V30 25924 C 2372.29 4.71784 2.33036 0
M  V30 25925 O 2371.32 5.34926 1.94532 0
M  V30 25926 N 2372.52 4.51457 3.64921 0
M  V30 25927 H 2375.29 2.99433 -0.126457 0
M  V30 25928 H 2372.85 1.60487 -0.21342 0
M  V30 25929 H 2374.84 3.26581 2.39013 0
M  V30 25930 H 2373.41 2.22057 2.20021 0
M  V30 25931 H 2372.63 3.92278 0.388809 0
M  V30 25932 H 2373.92 4.99567 0.964876 0
M  V30 25933 H 2373.32 4.01051 3.98967 0
M  V30 25934 H 2371.87 4.88393 4.31643 0
M  V30 25935 N 2375.31 0.116931 1.57166 0
M  V30 25936 C 2376.22 -0.847774 2.18746 0
M  V30 25937 C 2377.23 -1.29421 1.16302 0
M  V30 25938 O 2378.41 -1.35762 1.48763 0
M  V30 25939 C 2375.47 -2.08085 2.77311 0
M  V30 25940 C 2374.53 -1.68654 3.94784 0
M  V30 25941 C 2373.77 -2.86083 4.50546 0
M  V30 25942 O 2373.99 -4.01449 4.05209 0
M  V30 25943 O 2372.92 -2.63288 5.41261 0
M  V30 25944 H 2376.75 -0.353725 3.01633 0
M  V30 25945 H 2374.34 -0.108573 1.49005 0
M  V30 25946 H 2376.22 -2.80307 3.14652 0
M  V30 25947 H 2374.89 -2.56501 1.97457 0
M  V30 25948 H 2373.8 -0.935454 3.62215 0
M  V30 25949 H 2375.13 -1.24982 4.76068 0
M  V30 25950 N 2376.78 -1.56818 -0.156836 0
M  V30 25951 C 2378.03 -1.83077 -0.872383 0
M  V30 25952 C 2378.36 -0.697033 -1.8126 0
M  V30 25953 O 2377.64 0.300046 -1.92172 0
M  V30 25954 C 2377.92 -3.19792 -1.65545 0
M  V30 25955 C 2377.77 -4.43715 -0.737389 0
M  V30 25956 C 2379.09 -3.53611 -2.62006 0
M  V30 25957 H 2376.21 -0.665958 -0.315704 0
M  V30 25958 H 2378.85 -1.89498 -0.137971 0
M  V30 25959 H 2377 -3.14449 -2.28154 0
M  V30 25960 H 2378.68 -4.61136 -0.123062 0
M  V30 25961 H 2376.92 -4.33775 -0.0463305 0
M  V30 25962 H 2377.59 -5.35957 -1.32113 0
M  V30 25963 H 2380.07 -3.59501 -2.09519 0
M  V30 25964 H 2378.94 -4.50319 -3.13853 0
M  V30 25965 H 2379.2 -2.79059 -3.42897 0
M  V30 25966 N 2378.26 0.425871 -1.51737 0
M  V30 25967 C 2379.68 0.763235 -1.40167 0
M  V30 25968 C 2379.88 1.95376 -0.492996 0
M  V30 25969 O 2378.93 2.52455 0.0475371 0
M  V30 25970 C 2380.25 1.03286 -2.82405 0
M  V30 25971 C 2381.8 1.13659 -2.91634 0
M  V30 25972 C 2382.27 1.43908 -4.34804 0
M  V30 25973 N 2383.76 1.50808 -4.37962 0
M  V30 25974 C 2384.5 1.75807 -5.45783 0
M  V30 25975 N 2383.99 1.98522 -6.63748 0
M  V30 25976 N 2385.79 1.77684 -5.33277 0
M  V30 25977 H 2377.94 -0.358037 -2.09361 0
M  V30 25978 H 2380.2 -0.097826 -0.942939 0
M  V30 25979 H 2379.91 0.230634 -3.50943 0
M  V30 25980 H 2379.78 1.95749 -3.22432 0
M  V30 25981 H 2382.17 1.92943 -2.23287 0
M  V30 25982 H 2382.25 0.190711 -2.55088 0
M  V30 25983 H 2381.89 0.651482 -5.03704 0
M  V30 25984 H 2381.82 2.39721 -4.68872 0
M  V30 25985 H 2384.31 1.35111 -3.52921 0
M  V30 25986 H 2384.63 2.17 -7.41708 0
M  V30 25987 H 2382.97 1.95821 -6.66843 0
M  V30 25988 H 2386.16 1.59465 -4.401 0
M  V30 25989 H 2386.33 1.96829 -6.17384 0
M  V30 25990 N 2379.74 1.42077 0.682052 0
M  V30 25991 C 2380.69 1.41447 1.78821 0
M  V30 25992 C 2381.67 0.286837 1.58323 0
M  V30 25993 O 2382.87 0.528527 1.68925 0
M  V30 25994 C 2380 1.31226 3.1723 0
M  V30 25995 C 2379.08 2.48906 3.43376 0
M  V30 25996 N 2379.47 3.74346 3.40145 0
M  V30 25997 C 2377.77 2.4301 3.73981 0
M  V30 25998 C 2378.47 4.52472 3.65573 0
M  V30 25999 N 2377.45 3.82777 3.85983 0
M  V30 26000 H 2381.25 2.36337 1.74706 0
M  V30 26001 H 2378.76 1.36323 0.882598 0
M  V30 26002 H 2380.76 1.28857 3.96487 0
M  V30 26003 H 2379.42 0.37332 3.22547 0
M  V30 26004 H 2380.43 4.07043 3.20213 0
M  V30 26005 H 2377.11 1.57658 3.86588 0
M  V30 26006 H 2378.5 5.61441 3.69098 0
M  V30 26007 N 2381.22 -0.917649 1.28129 0
M  V30 26008 C 2382.18 -2.00113 1.11747 0
M  V30 26009 C 2383.18 -1.60694 0.0583334 0
M  V30 26010 O 2384.37 -1.71531 0.303785 0
M  V30 26011 C 2381.5 -3.33532 0.704921 0
M  V30 26012 H 2382.7 -2.16076 2.0797 0
M  V30 26013 H 2380.25 -1.09979 1.1106 0
M  V30 26014 H 2380.99 -3.2327 -0.258242 0
M  V30 26015 H 2380.77 -3.63503 1.46997 0
M  V30 26016 H 2382.26 -4.13079 0.612841 0
M  V30 26017 N 2382.7 -1.10314 -1.12555 0
M  V30 26018 C 2383.66 -0.754278 -2.16433 0
M  V30 26019 C 2384.66 0.220657 -1.59279 0
M  V30 26020 O 2385.85 -0.00233653 -1.742 0
M  V30 26021 C 2382.98 -0.117046 -3.40699 0
M  V30 26022 H 2384.18 -1.67436 -2.48808 0
M  V30 26023 H 2381.73 -0.903498 -1.27541 0
M  V30 26024 H 2382.46 0.813822 -3.13923 0
M  V30 26025 H 2382.25 -0.81868 -3.83458 0
M  V30 26026 H 2383.74 0.111314 -4.17452 0
M  V30 26027 N 2384.18 1.29948 -0.891694 0
M  V30 26028 C 2385.59 1.48427 -0.586646 0
M  V30 26029 C 2385.79 1.81562 0.873919 0
M  V30 26030 O 2384.85 1.90727 1.65468 0
M  V30 26031 C 2386.16 2.60294 -1.50558 0
M  V30 26032 C 2387.71 2.74172 -1.50993 0
M  V30 26033 C 2388.18 3.89158 -2.41495 0
M  V30 26034 N 2389.67 3.96479 -2.39496 0
M  V30 26035 C 2390.41 4.84778 -3.06231 0
M  V30 26036 N 2389.91 5.77826 -3.82216 0
M  V30 26037 N 2391.7 4.78203 -2.95429 0
M  V30 26038 H 2383.85 1.06715 -1.83646 0
M  V30 26039 H 2386.11 0.529318 -0.786464 0
M  V30 26040 H 2385.82 2.4265 -2.54586 0
M  V30 26041 H 2385.69 3.56921 -1.22014 0
M  V30 26042 H 2388.08 2.91217 -0.477132 0
M  V30 26043 H 2388.16 1.78145 -1.83571 0
M  V30 26044 H 2387.8 3.7287 -3.44863 0
M  V30 26045 H 2387.73 4.84538 -2.0623 0
M  V30 26046 H 2390.23 3.29921 -1.84283 0
M  V30 26047 H 2390.54 6.4198 -4.30211 0
M  V30 26048 H 2388.88 5.77737 -3.86323 0
M  V30 26049 H 2392.07 4.04494 -2.35588 0
M  V30 26050 H 2392.25 5.46808 -3.47714 0
M  V30 26051 N 2385.65 0.653339 1.4342 0
M  V30 26052 C 2386.88 0.174528 2.06163 0
M  V30 26053 C 2387.3 -1.15987 1.48971 0
M  V30 26054 O 2386.65 -1.71607 0.621072 0
M  V30 26055 C 2386.7 0.0775501 3.61417 0
M  V30 26056 O 2386.43 1.3592 4.16482 0
M  V30 26057 C 2387.93 -0.427324 4.41236 0
M  V30 26058 H 2385.15 0.089947 0.664944 0
M  V30 26059 H 2387.69 0.894021 1.83923 0
M  V30 26060 H 2385.85 -0.592503 3.82842 0
M  V30 26061 H 2386.26 1.21848 5.1015 0
M  V30 26062 H 2387.73 -0.444134 5.5021 0
M  V30 26063 H 2388.21 -1.45865 4.1427 0
M  V30 26064 H 2388.82 0.210242 4.2478 0
M  V30 26065 N 2387.13 -1.52563 0.395266 0
M  V30 26066 C 2388.06 -2.23068 -0.481261 0
M  V30 26067 C 2389.04 -1.23364 -1.05925 0
M  V30 26068 O 2390.23 -1.5237 -1.10976 0
M  V30 26069 C 2387.35 -2.94853 -1.66671 0
M  V30 26070 C 2386.4 -4.08875 -1.21341 0
M  V30 26071 S 2387.23 -5.35163 -0.190008 0
M  V30 26072 C 2388.39 -6.10472 -1.3811 0
M  V30 26073 H 2388.62 -2.97068 0.117433 0
M  V30 26074 H 2386.15 -1.53353 0.179485 0
M  V30 26075 H 2388.11 -3.3682 -2.34654 0
M  V30 26076 H 2386.77 -2.20522 -2.23672 0
M  V30 26077 H 2385.97 -4.58226 -2.09869 0
M  V30 26078 H 2385.57 -3.68952 -0.612421 0
M  V30 26079 H 2387.86 -6.37006 -2.30715 0
M  V30 26080 H 2388.8 -7.01987 -0.928398 0
M  V30 26081 H 2389.21 -5.41332 -1.60062 0
M  V30 26082 N 2388.61 -0.125265 -1.57101 0
M  V30 26083 C 2389.84 0.538761 -1.99762 0
M  V30 26084 C 2390.25 1.59825 -1.00506 0
M  V30 26085 O 2389.61 1.825 0.00116266 0
M  V30 26086 C 2389.66 1.15921 -3.4241 0
M  V30 26087 O 2389.38 0.142066 -4.3787 0
M  V30 26088 C 2390.88 1.90595 -4.00235 0
M  V30 26089 H 2388.1 0.142129 -0.655775 0
M  V30 26090 H 2390.65 -0.213449 -2.03383 0
M  V30 26091 H 2388.8 1.86217 -3.39709 0
M  V30 26092 H 2389.22 0.593683 -5.21129 0
M  V30 26093 H 2390.69 2.29326 -5.02109 0
M  V30 26094 H 2391.17 2.78357 -3.39726 0
M  V30 26095 H 2391.77 1.25048 -4.06501 0
M  V30 26096 N 2390.09 1.56899 0.148518 0
M  V30 26097 C 2391.34 1.82904 0.859684 0
M  V30 26098 C 2391.66 0.705912 1.81774 0
M  V30 26099 O 2390.93 -0.272552 1.93995 0
M  V30 26100 H 2389.51 0.674771 0.320457 0
M  V30 26101 H 2392.17 1.94376 0.142884 0
M  V30 26102 H 2391.26 2.7778 1.42285 0
M  V30 26103 N 2391.57 -0.417818 1.51961 0
M  V30 26104 C 2392.84 -1.17801 1.56148 0
M  V30 26105 C 2393.22 -2.08388 0.337312 0
M  V30 26106 O 2392.57 -2.18259 -0.676408 0
M  V30 26107 C 2392.78 -1.96288 2.88569 0
M  V30 26108 C 2394.13 -2.52656 3.41248 0
M  V30 26109 O 2395.15 -2.06478 2.90251 0
M  V30 26110 O 2394.01 -3.36931 4.30279 0
M  V30 26111 H 2391.11 -0.537384 0.628607 0
M  V30 26112 H 2393.65 -0.425302 1.64284 0
M  V30 26113 H 2392.42 -1.29874 3.69119 0
M  V30 26114 H 2392.05 -2.78582 2.83686 0
M  V30 26115 N 2393.04 -1.42436 -0.674508 0
M  V30 26116 C 2394.27 -1.46108 -1.46069 0
M  V30 26117 C 2394.68 -0.0709937 -1.89067 0
M  V30 26118 O 2394.02 0.924649 -1.58732 0
M  V30 26119 C 2394.09 -2.32566 -2.74141 0
M  V30 26120 C 2393.75 -3.80434 -2.53217 0
M  V30 26121 C 2394.75 -4.72079 -2.17801 0
M  V30 26122 C 2392.43 -4.24703 -2.68203 0
M  V30 26123 C 2394.43 -6.05985 -1.97637 0
M  V30 26124 C 2392.11 -5.58668 -2.47655 0
M  V30 26125 C 2393.11 -6.49126 -2.12426 0
M  V30 26126 O 2392.8 -7.80616 -1.92076 0
M  V30 26127 H 2392.53 -0.499084 -0.455951 0
M  V30 26128 H 2395.09 -1.8761 -0.83616 0
M  V30 26129 H 2393.32 -1.85914 -3.39077 0
M  V30 26130 H 2395 -2.27689 -3.36024 0
M  V30 26131 H 2395.77 -4.39162 -2.05819 0
M  V30 26132 H 2391.65 -3.54585 -2.94603 0
M  V30 26133 H 2395.19 -6.76553 -1.70063 0
M  V30 26134 H 2391.09 -5.91158 -2.59233 0
M  V30 26135 H 2391.86 -7.91978 -2.06672 0
M  V30 26136 N 2394.52 0.910841 -1.28614 0
M  V30 26137 C 2395.75 1.69925 -1.18913 0
M  V30 26138 C 2396.17 1.86453 0.248339 0
M  V30 26139 O 2395.53 1.37679 1.17959 0
M  V30 26140 C 2395.58 3.06742 -1.89583 0
M  V30 26141 O 2394.68 3.94394 -1.20528 0
M  V30 26142 H 2394.02 0.520215 -0.412641 0
M  V30 26143 H 2396.55 1.13867 -1.69987 0
M  V30 26144 H 2396.56 3.56955 -1.97603 0
M  V30 26145 H 2395.24 2.9403 -2.94142 0
M  V30 26146 H 2393.81 3.52829 -1.2069 0
M  V30 26147 N 2396 1.10909 1.11969 0
M  V30 26148 C 2397.41 0.871475 1.65113 0
M  V30 26149 C 2397.76 -0.597321 1.86886 0
M  V30 26150 O 2396.89 -1.45813 1.59899 0
M  V30 26151 C 2397.48 1.57545 2.99942 0
M  V30 26152 C 2396.04 1.38441 3.50016 0
M  V30 26153 C 2395.19 1.62168 2.24938 0
M  V30 26154 H 2398.14 1.26612 0.956829 0
M  V30 26155 H 2398.16 1.01728 3.66649 0
M  V30 26156 H 2397.67 2.64443 2.84062 0
M  V30 26157 H 2395.77 0.337279 3.7107 0
M  V30 26158 H 2395.89 2.12972 4.29162 0
M  V30 26159 H 2394.25 1.04471 2.32288 0
M  V30 26160 H 2395.03 2.70328 2.11607 0
M  V30 26161 N 2397.48 -1.29474 0.898573 0
M  V30 26162 C 2398.43 -2.29714 0.365294 0
M  V30 26163 C 2399.42 -1.60731 -0.534964 0
M  V30 26164 O 2400.63 -1.75082 -0.41789 0
M  V30 26165 H 2397 -0.745389 0.0994984 0
M  V30 26166 H 2398.97 -2.72136 1.22411 0
M  V30 26167 C 2397.72 -3.45471 -0.393099 0
M  V30 26168 H 2397.04 -3.98744 0.290402 0
M  V30 26169 H 2398.48 -4.17649 -0.731116 0
M  V30 26170 C 2396.94 -2.96733 -1.59534 0
M  V30 26171 O 2397.47 -2.97913 -2.69464 0
M  V30 26172 N 2395.68 -2.52577 -1.43712 0
M  V30 26173 H 2395.23 -2.51817 -0.542784 0
M  V30 26174 H 2395.18 -2.20327 -2.24284 0
M  V30 26175 N 2398.96 -0.660936 -1.43071 0
M  V30 26176 C 2399.9 0.0259478 -2.30785 0
M  V30 26177 C 2400.87 0.806862 -1.45186 0
M  V30 26178 O 2402.06 0.781912 -1.74042 0
M  V30 26179 C 2399.2 0.981009 -3.30863 0
M  V30 26180 C 2398.31 0.195382 -4.31558 0
M  V30 26181 C 2397.45 1.14494 -5.18714 0
M  V30 26182 C 2396.49 0.350192 -6.11097 0
M  V30 26183 N 2395.62 1.25174 -6.90852 0
M  V30 26184 H 2400.46 -0.727897 -2.88973 0
M  V30 26185 H 2398 -0.370707 -1.42352 0
M  V30 26186 H 2399.96 1.54842 -3.87401 0
M  V30 26187 H 2398.59 1.70164 -2.74307 0
M  V30 26188 H 2397.64 -0.48844 -3.77251 0
M  V30 26189 H 2398.95 -0.422263 -4.97009 0
M  V30 26190 H 2398.11 1.78273 -5.79917 0
M  V30 26191 H 2396.84 1.79648 -4.53407 0
M  V30 26192 H 2395.85 -0.300905 -5.48976 0
M  V30 26193 H 2397.07 -0.29706 -6.7845 0
M  V30 26194 H 2395.02 1.88994 -6.28186 0
M  V30 26195 H 2394.94 0.688839 -7.52855 0
M  V30 26196 H 2396.21 1.87744 -7.56553 0
M  V30 26197 N 2400.43 1.52351 -0.403352 0
M  V30 26198 C 2401.38 2.26854 0.424972 0
M  V30 26199 C 2402.35 1.29031 1.04596 0
M  V30 26200 O 2403.54 1.57884 1.07132 0
M  V30 26201 C 2400.68 3.08892 1.53882 0
M  V30 26202 C 2399.79 4.21664 0.939322 0
M  V30 26203 C 2398.92 4.91072 2.02539 0
M  V30 26204 C 2397.96 5.95815 1.40252 0
M  V30 26205 N 2397.1 6.58763 2.42849 0
M  V30 26206 H 2401.94 2.9721 -0.216793 0
M  V30 26207 H 2399.48 1.4662 -0.118747 0
M  V30 26208 H 2401.44 3.54757 2.19552 0
M  V30 26209 H 2400.07 2.40717 2.1507 0
M  V30 26210 H 2399.12 3.80012 0.171831 0
M  V30 26211 H 2400.43 4.96818 0.444273 0
M  V30 26212 H 2399.58 5.40312 2.75948 0
M  V30 26213 H 2398.32 4.15473 2.55408 0
M  V30 26214 H 2397.33 5.459 0.653737 0
M  V30 26215 H 2398.55 6.73353 0.881601 0
M  V30 26216 H 2396.5 5.85998 2.94861 0
M  V30 26217 H 2396.42 7.29573 1.98139 0
M  V30 26218 H 2397.68 7.12644 3.15845 0
M  V30 26219 N 2401.91 0.133594 1.57033 0
M  V30 26220 C 2403.16 -0.521614 1.95977 0
M  V30 26221 C 2403.49 -1.65391 1.01782 0
M  V30 26222 O 2402.77 -1.94414 0.0576923 0
M  V30 26223 C 2403.05 -1.04051 3.4474 0
M  V30 26224 C 2402.9 0.0893688 4.49711 0
M  V30 26225 C 2404.22 -1.92668 3.95686 0
M  V30 26226 H 2401.34 -0.188136 0.712582 0
M  V30 26227 H 2403.98 0.21211 1.88812 0
M  V30 26228 H 2402.13 -1.66577 3.50976 0
M  V30 26229 H 2403.8 0.725232 4.55563 0
M  V30 26230 H 2402.05 0.750453 4.27259 0
M  V30 26231 H 2402.72 -0.315187 5.51099 0
M  V30 26232 H 2405.19 -1.39991 3.91844 0
M  V30 26233 H 2404.07 -2.25888 5.00266 0
M  V30 26234 H 2404.33 -2.85866 3.37244 0
M  V30 26235 N 2403.39 -1.56975 -0.140195 0
M  V30 26236 C 2404.62 -1.88253 -0.870381 0
M  V30 26237 C 2405.04 -0.723342 -1.73636 0
M  V30 26238 O 2404.4 0.326859 -1.78329 0
M  V30 26239 C 2404.45 -3.18157 -1.69731 0
M  V30 26240 O 2403.55 -3.0257 -2.80224 0
M  V30 26241 H 2402.89 -0.618324 -0.242014 0
M  V30 26242 H 2405.42 -2.04193 -0.128963 0
M  V30 26243 H 2405.43 -3.50349 -2.09093 0
M  V30 26244 H 2404.11 -4.02127 -1.06145 0
M  V30 26245 H 2402.68 -2.81801 -2.44219 0
M  V30 26246 N 2404.87 0.409753 -1.5218 0
M  V30 26247 C 2406.28 0.748326 -1.40969 0
M  V30 26248 C 2406.48 1.94842 -0.513691 0
M  V30 26249 O 2405.54 2.52491 0.0207582 0
M  V30 26250 C 2406.85 1.00285 -2.83485 0
M  V30 26251 C 2408.4 1.1056 -2.92823 0
M  V30 26252 C 2408.88 1.39288 -4.36306 0
M  V30 26253 N 2410.37 1.46155 -4.39537 0
M  V30 26254 C 2411.1 1.70009 -5.47617 0
M  V30 26255 N 2410.6 1.91471 -6.65816 0
M  V30 26256 N 2412.39 1.72018 -5.35132 0
M  V30 26257 H 2404.54 -0.380222 -2.08969 0
M  V30 26258 H 2406.81 -0.107822 -0.941848 0
M  V30 26259 H 2406.51 0.193399 -3.51168 0
M  V30 26260 H 2406.39 1.92318 -3.2449 0
M  V30 26261 H 2408.77 1.90564 -2.25321 0
M  V30 26262 H 2408.85 0.163645 -2.55276 0
M  V30 26263 H 2408.5 0.59802 -5.04367 0
M  V30 26264 H 2408.43 2.34735 -4.71389 0
M  V30 26265 H 2410.92 1.31361 -3.54334 0
M  V30 26266 H 2411.23 2.09121 -7.43968 0
M  V30 26267 H 2409.58 1.88737 -6.68882 0
M  V30 26268 H 2412.77 1.54788 -4.41767 0
M  V30 26269 H 2412.94 1.90269 -6.19436 0
M  V30 26270 N 2406.35 1.42792 0.666944 0
M  V30 26271 C 2407.29 1.46883 1.78028 0
M  V30 26272 C 2408.26 0.319948 1.62989 0
M  V30 26273 O 2409.45 0.52515 1.83431 0
M  V30 26274 C 2406.59 1.38457 3.16107 0
M  V30 26275 C 2405.7 2.63443 3.42377 0
M  V30 26276 C 2404.84 2.47102 4.70227 0
M  V30 26277 C 2403.88 3.67424 4.89557 0
M  V30 26278 N 2403.01 3.49977 6.08655 0
M  V30 26279 H 2407.85 2.42022 1.73866 0
M  V30 26280 H 2405.39 1.20151 0.848659 0
M  V30 26281 H 2407.35 1.31568 3.95911 0
M  V30 26282 H 2405.98 0.469089 3.19373 0
M  V30 26283 H 2405.03 2.80667 2.56769 0
M  V30 26284 H 2406.34 3.52859 3.52551 0
M  V30 26285 H 2405.5 2.37843 5.58136 0
M  V30 26286 H 2404.23 1.55188 4.6235 0
M  V30 26287 H 2403.24 3.77106 4.00089 0
M  V30 26288 H 2404.46 4.60328 4.99274 0
M  V30 26289 H 2402.41 2.60787 6.01935 0
M  V30 26290 H 2402.33 4.32986 6.19725 0
M  V30 26291 H 2403.6 3.44545 6.9922 0
M  V30 26292 N 2407.82 -0.904008 1.29095 0
M  V30 26293 C 2409.07 -1.65654 1.16989 0
M  V30 26294 C 2409.4 -1.92187 -0.278891 0
M  V30 26295 O 2408.68 -1.52922 -1.20188 0
M  V30 26296 C 2408.96 -3.00836 1.97913 0
M  V30 26297 C 2408.81 -2.81396 3.50908 0
M  V30 26298 C 2410.13 -4.0151 1.80215 0
M  V30 26299 H 2407.25 -0.601157 0.426356 0
M  V30 26300 H 2409.89 -1.04744 1.5852 0
M  V30 26301 H 2408.04 -3.52826 1.62622 0
M  V30 26302 H 2409.72 -2.36341 3.96157 0
M  V30 26303 H 2407.96 -2.16263 3.76049 0
M  V30 26304 H 2408.63 -3.77436 4.02798 0
M  V30 26305 H 2411.11 -3.58615 2.11031 0
M  V30 26306 H 2409.98 -4.94042 2.39193 0
M  V30 26307 H 2410.24 -4.35585 0.756196 0
M  V30 26308 N 2409.3 -1.11501 -1.11379 0
M  V30 26309 C 2410.55 -0.862556 -1.82769 0
M  V30 26310 C 2410.87 0.613501 -1.85098 0
M  V30 26311 O 2410.14 1.44568 -1.32201 0
M  V30 26312 H 2408.72 -0.316112 -0.676817 0
M  V30 26313 H 2411.38 -1.40753 -1.34813 0
M  V30 26314 H 2410.48 -1.23532 -2.86612 0
M  V30 26315 N 2410.78 1.28995 -0.905426 0
M  V30 26316 C 2412.02 1.97103 -0.541266 0
M  V30 26317 C 2412.39 1.69768 0.896811 0
M  V30 26318 O 2413.59 2.31378 1.36813 0
M  V30 26319 C 2411.86 3.47576 -0.832195 0
M  V30 26320 S 2413.42 4.3504 -0.573203 0
M  V30 26321 H 2410.23 0.682118 -0.200588 0
M  V30 26322 H 2412.84 1.56692 -1.16909 0
M  V30 26323 H 2411.54 3.64965 -1.87693 0
M  V30 26324 H 2411.07 3.92928 -0.192705 0
M  V30 26325 H 2413.09 4.92808 0.57921 0
M  V30 26326 N 2412.26 0.668514 1.42719 0
M  V30 26327 C 2413.48 0.194794 2.06483 0
M  V30 26328 C 2413.91 -1.13677 1.49864 0
M  V30 26329 O 2413.27 -1.70564 0.614612 0
M  V30 26330 C 2413.32 0.133609 3.60352 0
M  V30 26331 O 2412.42 -0.899736 4.02466 0
M  V30 26332 H 2411.76 0.101892 0.656136 0
M  V30 26333 H 2414.29 0.915754 1.82962 0
M  V30 26334 H 2414.3 -0.0446324 4.07976 0
M  V30 26335 H 2412.98 1.10557 4.00936 0
M  V30 26336 H 2411.55 -0.693044 3.66403 0
M  V30 26337 N 2413.74 -1.52135 0.411426 0
M  V30 26338 C 2414.65 -2.30815 -0.419734 0
M  V30 26339 C 2415.66 -1.38636 -1.05148 0
M  V30 26340 O 2416.84 -1.71711 -1.05249 0
M  V30 26341 C 2413.9 -3.11597 -1.52014 0
M  V30 26342 C 2412.97 -4.19518 -0.911216 0
M  V30 26343 C 2412.2 -4.96439 -1.95918 0
M  V30 26344 O 2412.42 -4.73688 -3.17767 0
M  V30 26345 O 2411.36 -5.81222 -1.56413 0
M  V30 26346 H 2415.18 -3.02889 0.221858 0
M  V30 26347 H 2412.77 -1.48377 0.174573 0
M  V30 26348 H 2414.65 -3.61896 -2.15891 0
M  V30 26349 H 2413.32 -2.42314 -2.14629 0
M  V30 26350 H 2412.23 -3.73361 -0.235091 0
M  V30 26351 H 2413.56 -4.911 -0.328954 0
M  V30 26352 N 2415.22 -0.14192 -1.5696 0
M  V30 26353 C 2416.46 0.504849 -1.97035 0
M  V30 26354 C 2416.82 1.6281 -1.02521 0
M  V30 26355 O 2416.11 1.91508 -0.059328 0
M  V30 26356 C 2416.3 1.06243 -3.41244 0
M  V30 26357 C 2416.13 -0.00527558 -4.497 0
M  V30 26358 C 2414.9 -0.444962 -5.03337 0
M  V30 26359 C 2417.1 -0.794857 -5.08121 0
M  V30 26360 N 2415.08 -1.49604 -5.95392 0
M  V30 26361 C 2416.45 -1.69655 -5.96336 0
M  V30 26362 C 2418.51 -0.843209 -4.90708 0
M  V30 26363 C 2417.21 -2.64245 -6.69005 0
M  V30 26364 C 2419.24 -1.77691 -5.64074 0
M  V30 26365 C 2418.6 -2.66614 -6.51994 0
M  V30 26366 H 2414.7 0.153694 -0.766748 0
M  V30 26367 H 2417.28 -0.235347 -1.93272 0
M  V30 26368 H 2415.45 1.77225 -3.45609 0
M  V30 26369 H 2417.19 1.6754 -3.68392 0
M  V30 26370 H 2413.94 -0.0481791 -4.73575 0
M  V30 26371 H 2414.36 -2.02118 -6.46125 0
M  V30 26372 H 2419.01 -0.169806 -4.22459 0
M  V30 26373 H 2416.72 -3.32588 -7.36486 0
M  V30 26374 H 2420.31 -1.82006 -5.52599 0
M  V30 26375 H 2419.19 -3.37688 -7.07769 0
M  V30 26376 N 2416.69 1.57047 0.131868 0
M  V30 26377 C 2417.94 1.84442 0.843147 0
M  V30 26378 C 2418.27 0.725781 1.80128 0
M  V30 26379 O 2417.55 -0.269436 1.92625 0
M  V30 26380 C 2417.83 3.22385 1.60437 0
M  V30 26381 C 2417.68 4.44832 0.666704 0
M  V30 26382 C 2419 3.57735 2.56347 0
M  V30 26383 H 2416.12 0.670896 0.305069 0
M  V30 26384 H 2418.76 1.89694 0.107806 0
M  V30 26385 H 2416.91 3.18039 2.23122 0
M  V30 26386 H 2418.59 4.61273 0.0496835 0
M  V30 26387 H 2416.83 4.33794 -0.0226853 0
M  V30 26388 H 2417.5 5.37991 1.23569 0
M  V30 26389 H 2419.98 3.62789 2.03773 0
M  V30 26390 H 2418.85 4.55256 3.06649 0
M  V30 26391 H 2419.11 2.84479 3.38414 0
M  V30 26392 N 2418.17 -0.401677 1.52395 0
M  V30 26393 C 2419.41 -1.15702 1.68501 0
M  V30 26394 C 2419.78 -1.87576 0.409781 0
M  V30 26395 O 2420.98 -2.65057 0.44703 0
M  V30 26396 C 2419.25 -2.11919 2.87793 0
M  V30 26397 S 2420.81 -2.95461 3.2442 0
M  V30 26398 H 2417.62 -0.391851 0.593274 0
M  V30 26399 H 2420.23 -0.443248 1.90409 0
M  V30 26400 H 2418.93 -1.57817 3.78843 0
M  V30 26401 H 2418.46 -2.87824 2.6818 0
M  V30 26402 H 2420.48 -4.13939 2.73621 0
M  V30 26403 N 2419.65 -1.43144 -0.659362 0
M  V30 26404 C 2420.87 -1.48075 -1.45219 0
M  V30 26405 C 2421.3 -0.098028 -1.87844 0
M  V30 26406 O 2420.66 0.906913 -1.56987 0
M  V30 26407 C 2420.71 -2.42652 -2.66744 0
M  V30 26408 O 2419.81 -1.90854 -3.6558 0
M  V30 26409 H 2419.15 -0.501095 -0.43566 0
M  V30 26410 H 2421.68 -1.87995 -0.807399 0
M  V30 26411 H 2421.69 -2.59751 -3.14632 0
M  V30 26412 H 2420.37 -3.43103 -2.35061 0
M  V30 26413 H 2418.94 -1.83387 -3.2469 0
M  V30 26414 N 2421.13 0.897149 -1.29572 0
M  V30 26415 C 2422.09 1.9831 -1.14917 0
M  V30 26416 C 2423.09 1.60581 -0.0838911 0
M  V30 26417 O 2424.28 1.71026 -0.331036 0
M  V30 26418 C 2421.41 3.32368 -0.757893 0
M  V30 26419 H 2422.61 2.1274 -2.11381 0
M  V30 26420 H 2420.16 1.08199 -1.12795 0
M  V30 26421 H 2420.89 3.2364 0.20678 0
M  V30 26422 H 2420.68 3.61118 -1.52761 0
M  V30 26423 H 2422.17 4.12051 -0.67848 0
M  V30 26424 N 2422.61 1.1209 1.10786 0
M  V30 26425 C 2423.54 0.743251 2.16814 0
M  V30 26426 C 2424.55 -0.228383 1.6119 0
M  V30 26427 O 2425.74 -0.0102617 1.78497 0
M  V30 26428 C 2422.84 0.0787909 3.38808 0
M  V30 26429 C 2422.01 1.07897 4.23883 0
M  V30 26430 C 2421.07 0.442805 5.24334 0
M  V30 26431 O 2420.1 1.09874 5.58495 0
M  V30 26432 N 2421.3 -0.791356 5.75081 0
M  V30 26433 H 2424.06 1.65557 2.49822 0
M  V30 26434 H 2421.63 1.01203 1.26371 0
M  V30 26435 H 2423.62 -0.358696 4.03107 0
M  V30 26436 H 2422.19 -0.736221 3.03807 0
M  V30 26437 H 2421.41 1.6942 3.55936 0
M  V30 26438 H 2422.7 1.75542 4.77559 0
M  V30 26439 H 2422.09 -1.3433 5.4952 0
M  V30 26440 H 2420.65 -1.17172 6.41182 0
M  V30 26441 N 2424.08 -1.28513 0.912254 0
M  V30 26442 C 2425.02 -2.26406 0.3568 0
M  V30 26443 C 2426.03 -1.54805 -0.503905 0
M  V30 26444 O 2427.22 -1.75626 -0.319028 0
M  V30 26445 C 2424.32 -3.35059 -0.508767 0
M  V30 26446 C 2423.49 -4.3616 0.329083 0
M  V30 26447 C 2422.55 -5.24085 -0.47133 0
M  V30 26448 O 2421.58 -5.69083 0.115582 0
M  V30 26449 N 2422.78 -5.52707 -1.77469 0
M  V30 26450 H 2425.54 -2.74705 1.19822 0
M  V30 26451 H 2423.1 -1.41979 0.778047 0
M  V30 26452 H 2425.1 -3.90816 -1.05093 0
M  V30 26453 H 2423.67 -2.86481 -1.2509 0
M  V30 26454 H 2422.89 -3.79886 1.05262 0
M  V30 26455 H 2424.17 -5.00733 0.902428 0
M  V30 26456 H 2423.57 -5.17979 -2.27408 0
M  V30 26457 H 2422.13 -6.11228 -2.26372 0
M  V30 26458 N 2425.56 -0.676073 -1.42362 0
M  V30 26459 C 2426.81 -0.19916 -2.0182 0
M  V30 26460 C 2427.14 1.19165 -1.53341 0
M  V30 26461 O 2426.42 1.80031 -0.736155 0
M  V30 26462 C 2426.7 -0.235207 -3.59331 0
M  V30 26463 C 2426.55 -1.66156 -4.17986 0
M  V30 26464 C 2427.87 0.415873 -4.38131 0
M  V30 26465 H 2424.99 -0.073844 -0.733291 0
M  V30 26466 H 2427.63 -0.8611 -1.69367 0
M  V30 26467 H 2425.78 0.328419 -3.87109 0
M  V30 26468 H 2427.45 -2.27754 -4.01156 0
M  V30 26469 H 2425.7 -2.20184 -3.73766 0
M  V30 26470 H 2426.37 -1.63846 -5.27123 0
M  V30 26471 H 2428.84 -0.063926 -4.16051 0
M  V30 26472 H 2427.72 0.360019 -5.47718 0
M  V30 26473 H 2427.98 1.49365 -4.16104 0
M  V30 26474 N 2427.04 1.51915 -0.419488 0
M  V30 26475 C 2428 2.25874 0.389076 0
M  V30 26476 C 2429 1.28632 0.964901 0
M  V30 26477 O 2430.19 1.52491 0.842152 0
M  V30 26478 C 2427.33 3.03691 1.54869 0
M  V30 26479 H 2428.52 2.98781 -0.258851 0
M  V30 26480 H 2426.07 1.55348 -0.172236 0
M  V30 26481 H 2426.81 2.35158 2.23318 0
M  V30 26482 H 2426.59 3.75096 1.14217 0
M  V30 26483 H 2428.08 3.59762 2.1204 0
M  V30 26484 N 2428.52 0.150242 1.56882 0
M  V30 26485 C 2429.76 -0.500799 1.96519 0
M  V30 26486 C 2430.1 -1.64302 1.0353 0
M  V30 26487 O 2429.37 -1.94342 0.0783093 0
M  V30 26488 C 2429.66 -1.00389 3.45824 0
M  V30 26489 C 2429.51 0.137062 4.49591 0
M  V30 26490 C 2430.83 -1.8846 3.97707 0
M  V30 26491 H 2427.95 -0.180568 0.714538 0
M  V30 26492 H 2430.59 0.232124 1.88577 0
M  V30 26493 H 2428.74 -1.62845 3.52723 0
M  V30 26494 H 2430.41 0.77351 4.54769 0
M  V30 26495 H 2428.65 0.795727 4.26439 0
M  V30 26496 H 2429.32 -0.256718 5.51403 0
M  V30 26497 H 2431.8 -1.35827 3.93307 0
M  V30 26498 H 2430.68 -2.20569 5.02634 0
M  V30 26499 H 2430.94 -2.82273 3.40257 0
M  V30 26500 N 2430 -1.57115 -0.123538 0
M  V30 26501 C 2431.22 -1.89165 -0.850365 0
M  V30 26502 C 2431.65 -0.741718 -1.72859 0
M  V30 26503 O 2431 0.307926 -1.78666 0
M  V30 26504 C 2431.05 -3.19939 -1.66347 0
M  V30 26505 O 2430.16 -3.05525 -2.76999 0
M  V30 26506 H 2429.5 -0.620856 -0.235443 0
M  V30 26507 H 2432.03 -2.04318 -0.107299 0
M  V30 26508 H 2432.04 -3.52547 -2.05365 0
M  V30 26509 H 2430.71 -4.0323 -1.01874 0
M  V30 26510 H 2429.29 -2.84375 -2.41216 0
M  V30 26511 N 2431.47 0.393589 -1.52606 0
M  V30 26512 C 2432.7 1.1604 -1.71296 0
M  V30 26513 C 2433.12 1.83855 -0.429292 0
M  V30 26514 O 2432.47 1.72498 0.595891 0
M  V30 26515 C 2432.53 2.21188 -2.85934 0
M  V30 26516 O 2432.25 1.56138 -4.09332 0
M  V30 26517 C 2433.75 3.10631 -3.16265 0
M  V30 26518 H 2430.97 0.348094 -0.573647 0
M  V30 26519 H 2433.51 0.461057 -1.99235 0
M  V30 26520 H 2431.67 2.86765 -2.6047 0
M  V30 26521 H 2432.08 2.2597 -4.73326 0
M  V30 26522 H 2433.55 3.80449 -3.99953 0
M  V30 26523 H 2434.03 3.7388 -2.30457 0
M  V30 26524 H 2434.64 2.50704 -3.43551 0
M  V30 26525 N 2432.95 1.43492 0.651762 0
M  V30 26526 C 2434.18 1.48843 1.44431 0
M  V30 26527 C 2434.6 0.107988 1.8779 0
M  V30 26528 O 2433.96 -0.898574 1.57465 0
M  V30 26529 C 2434.01 2.44063 2.65453 0
M  V30 26530 O 2433.11 1.9279 3.64562 0
M  V30 26531 H 2432.45 0.503399 0.432996 0
M  V30 26532 H 2434.98 1.88421 0.797418 0
M  V30 26533 H 2434.99 2.61416 3.1325 0
M  V30 26534 H 2433.67 3.44344 2.33238 0
M  V30 26535 H 2432.25 1.85106 3.23713 0
M  V30 26536 N 2434.43 -0.890264 1.30046 0
M  V30 26537 C 2435.39 -1.97698 1.15967 0
M  V30 26538 C 2436.39 -1.60534 0.0924059 0
M  V30 26539 O 2437.58 -1.70848 0.340101 0
M  V30 26540 C 2434.72 -3.31962 0.775509 0
M  V30 26541 H 2435.91 -2.11616 2.12506 0
M  V30 26542 H 2433.46 -1.07599 1.13367 0
M  V30 26543 H 2434.2 -3.23745 -0.189614 0
M  V30 26544 H 2433.98 -3.60303 1.54674 0
M  V30 26545 H 2435.47 -4.11686 0.700323 0
M  V30 26546 N 2435.91 -1.12676 -1.1019 0
M  V30 26547 C 2436.86 -0.792234 -2.18692 0
M  V30 26548 C 2437.85 0.222028 -1.67939 0
M  V30 26549 O 2439.06 0.0799758 -1.79822 0
M  V30 26550 H 2435.43 -0.238377 -0.713218 0
M  V30 26551 H 2437.4 -1.71568 -2.44146 0
M  V30 26552 C 2436.15 -0.26592 -3.46682 0
M  V30 26553 H 2435.47 -1.03767 -3.86099 0
M  V30 26554 H 2436.91 -0.0701873 -4.23942 0
M  V30 26555 C 2435.37 1.00669 -3.21508 0
M  V30 26556 O 2435.9 2.08402 -3.43412 0
M  V30 26557 N 2434.11 0.934644 -2.7516 0
M  V30 26558 H 2433.66 0.0578151 -2.57535 0
M  V30 26559 H 2433.61 1.78675 -2.58694 0
M  V30 26560 N 2437.39 1.28028 -0.919057 0
M  V30 26561 C 2438.8 1.7677 -0.600766 0
M  V30 26562 C 2439.15 1.75157 0.883993 0
M  V30 26563 O 2438.27 1.34958 1.6916 0
M  V30 26564 C 2438.87 3.20998 -1.08378 0
M  V30 26565 C 2437.43 3.67442 -0.816312 0
M  V30 26566 C 2436.57 2.47656 -1.24747 0
M  V30 26567 H 2439.53 1.14416 -1.09976 0
M  V30 26568 H 2439.55 3.7809 -0.427579 0
M  V30 26569 H 2439.06 3.2214 -2.16443 0
M  V30 26570 H 2437.16 3.71754 0.250903 0
M  V30 26571 H 2437.27 4.57331 -1.42778 0
M  V30 26572 H 2435.64 2.45835 -0.666126 0
M  V30 26573 H 2436.42 2.51514 -2.33657 0
M  V30 26574 N 2438.86 0.683613 1.42002 0
M  V30 26575 C 2439.83 0.0198645 2.29191 0
M  V30 26576 C 2440.83 -0.720105 1.43775 0
M  V30 26577 O 2442.02 -0.556786 1.65062 0
M  V30 26578 C 2439.15 -0.98243 3.26437 0
M  V30 26579 H 2440.34 0.787396 2.89379 0
M  V30 26580 H 2437.9 0.446445 1.49788 0
M  V30 26581 H 2438.63 -1.77814 2.71206 0
M  V30 26582 H 2438.42 -0.455113 3.8945 0
M  V30 26583 H 2439.91 -1.44501 3.91803 0
M  V30 26584 N 2440.34 -1.5169 0.427538 0
M  V30 26585 C 2441.75 -1.86662 -0.0378539 0
M  V30 26586 C 2442.11 -1.34528 -1.42817 0
M  V30 26587 O 2441.23 -0.69205 -2.05036 0
M  V30 26588 C 2441.83 -3.38716 -0.0754671 0
M  V30 26589 C 2440.38 -3.73259 -0.485243 0
M  V30 26590 C 2439.53 -2.75348 0.328447 0
M  V30 26591 H 2442.48 -1.45054 0.643815 0
M  V30 26592 H 2442.5 -3.70017 -0.886991 0
M  V30 26593 H 2442.02 -3.7663 0.936554 0
M  V30 26594 H 2440.12 -3.40931 -1.50323 0
M  V30 26595 H 2440.23 -4.78609 -0.216846 0
M  V30 26596 H 2438.59 -2.53817 -0.211861 0
M  V30 26597 H 2439.38 -3.16103 1.33916 0
M  V30 26598 N 2441.82 -0.15856 -1.568 0
M  V30 26599 C 2443.07 0.49037 -1.96782 0
M  V30 26600 C 2443.4 1.63751 -1.044 0
M  V30 26601 O 2442.68 1.94298 -0.0886146 0
M  V30 26602 C 2442.96 0.985533 -3.46351 0
M  V30 26603 C 2442.81 -0.160903 -4.49512 0
M  V30 26604 C 2444.13 1.86348 -3.98701 0
M  V30 26605 H 2441.25 0.176776 -0.715485 0
M  V30 26606 H 2443.89 -0.242121 -1.88451 0
M  V30 26607 H 2442.04 1.60972 -3.53582 0
M  V30 26608 H 2443.71 -0.797617 -4.54352 0
M  V30 26609 H 2441.96 -0.818331 -4.26011 0
M  V30 26610 H 2442.63 0.227472 -5.51531 0
M  V30 26611 H 2445.1 1.3374 -3.94021 0
M  V30 26612 H 2443.98 2.179 -5.03796 0
M  V30 26613 H 2444.24 2.80464 -3.41749 0
M  V30 26614 N 2443.3 1.57178 0.115204 0
M  V30 26615 C 2444.52 1.89614 0.840321 0
M  V30 26616 C 2444.95 0.750875 1.72463 0
M  V30 26617 O 2444.31 -0.298447 1.78827 0
M  V30 26618 C 2444.36 3.20817 1.64648 0
M  V30 26619 O 2443.46 3.0699 2.75375 0
M  V30 26620 H 2442.8 0.622096 0.232147 0
M  V30 26621 H 2445.33 2.04372 0.0964618 0
M  V30 26622 H 2445.34 3.53631 2.03493 0
M  V30 26623 H 2444.02 4.03765 0.997345 0
M  V30 26624 H 2442.59 2.8565 2.39705 0
M  V30 26625 N 2444.78 -0.38549 1.52813 0
M  V30 26626 C 2445.69 -1.49532 1.80769 0
M  V30 26627 C 2446.7 -1.59531 0.694679 0
M  V30 26628 O 2447.88 -1.75801 0.982642 0
M  V30 26629 C 2444.94 -2.85026 1.97386 0
M  V30 26630 C 2444.01 -2.84719 3.213 0
M  V30 26631 C 2443.24 -4.1375 3.37115 0
M  V30 26632 O 2443.46 -5.08889 2.57659 0
M  V30 26633 O 2442.4 -4.20775 4.30386 0
M  V30 26634 H 2446.22 -1.28838 2.75017 0
M  V30 26635 H 2443.81 -0.573673 1.37947 0
M  V30 26636 H 2445.69 -3.65345 2.10003 0
M  V30 26637 H 2444.36 -3.05739 1.06327 0
M  V30 26638 H 2443.27 -2.03168 3.14123 0
M  V30 26639 H 2444.6 -2.68958 4.12217 0
M  V30 26640 N 2446.26 -1.43835 -0.644143 0
M  V30 26641 C 2447.19 -1.52512 -1.76812 0
M  V30 26642 C 2448.17 -0.379081 -1.65822 0
M  V30 26643 O 2449.35 -0.597498 -1.8478 0
M  V30 26644 C 2446.48 -1.45645 -3.15285 0
M  V30 26645 C 2445.44 -2.58592 -3.41049 0
M  V30 26646 C 2444.76 -2.36778 -4.79417 0
M  V30 26647 C 2446.06 -4.00803 -3.34895 0
M  V30 26648 H 2447.76 -2.46588 -1.69807 0
M  V30 26649 H 2445.3 -1.18681 -0.815521 0
M  V30 26650 H 2447.25 -1.50318 -3.93678 0
M  V30 26651 H 2445.98 -0.480781 -3.23042 0
M  V30 26652 H 2444.64 -2.53287 -2.65031 0
M  V30 26653 H 2444.29 -1.37433 -4.83861 0
M  V30 26654 H 2443.99 -3.12496 -4.97614 0
M  V30 26655 H 2445.51 -2.43248 -5.60056 0
M  V30 26656 H 2446.92 -4.07546 -4.03211 0
M  V30 26657 H 2445.32 -4.76619 -3.64628 0
M  V30 26658 H 2446.39 -4.25295 -2.32921 0
M  V30 26659 N 2447.73 0.883355 -1.30517 0
M  V30 26660 C 2449.01 1.61678 -1.10089 0
M  V30 26661 C 2449.39 2.08191 0.349233 0
M  V30 26662 O 2448.74 1.85011 1.34102 0
M  V30 26663 C 2448.95 2.78507 -2.1032 0
M  V30 26664 C 2450.3 3.48799 -2.42125 0
M  V30 26665 O 2451.32 2.88698 -2.08643 0
M  V30 26666 O 2450.18 4.57186 -2.99404 0
M  V30 26667 H 2447.27 0.710682 -0.422919 0
M  V30 26668 H 2449.82 0.92999 -1.41948 0
M  V30 26669 H 2448.59 2.41454 -3.07922 0
M  V30 26670 H 2448.21 3.54883 -1.79288 0
M  V30 26671 N 2449.21 1.13259 1.09591 0
M  V30 26672 C 2450.46 0.887949 1.81103 0
M  V30 26673 C 2450.77 -0.587639 1.86564 0
M  V30 26674 O 2451.98 -0.94916 2.54368 0
M  V30 26675 C 2450.44 1.539 3.25335 0
M  V30 26676 C 2450.04 3.05 3.28145 0
M  V30 26677 C 2451.79 1.37499 4.01615 0
M  V30 26678 C 2449.69 3.62998 4.6689 0
M  V30 26679 H 2448.62 0.328546 0.678656 0
M  V30 26680 H 2451.28 1.3601 1.2318 0
M  V30 26681 H 2449.66 0.994514 3.83309 0
M  V30 26682 H 2450.83 3.66014 2.79947 0
M  V30 26683 H 2449.15 3.20898 2.65355 0
M  V30 26684 H 2451.74 1.78244 5.04116 0
M  V30 26685 H 2452.09 0.319643 4.15071 0
M  V30 26686 H 2452.62 1.88918 3.50078 0
M  V30 26687 H 2449.36 4.68331 4.58635 0
M  V30 26688 H 2448.88 3.06761 5.1542 0
M  V30 26689 H 2450.56 3.62573 5.35864 0
M  V30 26690 N 2450.69 -1.27539 0.925834 0
M  V30 26691 C 2452.11 -1.4682 0.625793 0
M  V30 26692 C 2452.31 -1.83816 -0.825474 0
M  V30 26693 O 2451.36 -1.95047 -1.60353 0
M  V30 26694 C 2452.67 -2.5621 1.57406 0
M  V30 26695 C 2454.22 -2.70072 1.58209 0
M  V30 26696 C 2454.7 -3.82619 2.51728 0
M  V30 26697 N 2456.19 -3.8999 2.49924 0
M  V30 26698 C 2456.92 -4.76489 3.18976 0
M  V30 26699 N 2456.42 -5.67489 3.97401 0
M  V30 26700 N 2458.21 -4.70202 3.08004 0
M  V30 26701 H 2450.36 -1.01808 1.86411 0
M  V30 26702 H 2452.63 -0.50828 0.800222 0
M  V30 26703 H 2452.33 -2.35815 2.6093 0
M  V30 26704 H 2452.21 -3.5356 1.31434 0
M  V30 26705 H 2454.59 -2.8985 0.554175 0
M  V30 26706 H 2454.67 -1.73215 1.88229 0
M  V30 26707 H 2454.32 -3.63595 3.54628 0
M  V30 26708 H 2454.25 -4.78899 2.19004 0
M  V30 26709 H 2456.74 -3.24919 1.92966 0
M  V30 26710 H 2457.05 -6.30348 4.47081 0
M  V30 26711 H 2455.4 -5.67291 4.01505 0
M  V30 26712 H 2458.59 -3.98106 2.4623 0
M  V30 26713 H 2458.76 -5.37397 3.62089 0
M  V30 26714 N 2452.17 -0.691135 -1.41637 0
M  V30 26715 C 2453.13 -0.0320188 -2.29178 0
M  V30 26716 C 2454.13 0.71247 -1.44154 0
M  V30 26717 O 2455.32 0.548024 -1.65355 0
M  V30 26718 C 2452.45 0.965104 -3.26953 0
M  V30 26719 H 2453.65 -0.802732 -2.88957 0
M  V30 26720 H 2451.2 -0.454382 -1.4955 0
M  V30 26721 H 2451.93 1.76374 -2.72145 0
M  V30 26722 H 2451.72 0.434454 -3.89686 0
M  V30 26723 H 2453.21 1.42421 -3.92563 0
M  V30 26724 N 2453.65 1.51461 -0.435577 0
M  V30 26725 C 2454.58 2.30592 0.367336 0
M  V30 26726 C 2455.56 1.3593 1.0226 0
M  V30 26727 O 2456.74 1.64848 1.02658 0
M  V30 26728 C 2453.87 3.14667 1.46977 0
M  V30 26729 C 2452.83 4.17593 0.938088 0
M  V30 26730 C 2452.15 4.90177 2.13614 0
M  V30 26731 C 2453.45 5.22293 -0.0262539 0
M  V30 26732 H 2455.15 2.97963 -0.293022 0
M  V30 26733 H 2452.69 1.43295 -0.142365 0
M  V30 26734 H 2454.64 3.68804 2.03867 0
M  V30 26735 H 2453.37 2.45114 2.15839 0
M  V30 26736 H 2452.03 3.64504 0.391417 0
M  V30 26737 H 2451.68 4.17129 2.81091 0
M  V30 26738 H 2451.38 5.59775 1.78678 0
M  V30 26739 H 2452.9 5.47137 2.7106 0
M  V30 26740 H 2454.31 5.71513 0.452284 0
M  V30 26741 H 2452.71 5.99408 -0.288097 0
M  V30 26742 H 2453.78 4.75232 -0.963474 0
M  V30 26743 N 2455.12 0.166873 1.56714 0
M  V30 26744 C 2456.35 -0.488798 2.01558 0
M  V30 26745 C 2456.77 -1.56313 1.04633 0
M  V30 26746 O 2456.13 -1.81283 0.0251623 0
M  V30 26747 C 2456.18 -1.04812 3.45032 0
M  V30 26748 O 2455.28 -2.1623 3.51167 0
M  V30 26749 H 2454.63 -0.117515 0.653518 0
M  V30 26750 H 2457.16 0.269457 2.02818 0
M  V30 26751 H 2457.17 -1.37184 3.84245 0
M  V30 26752 H 2455.84 -0.261499 4.15077 0
M  V30 26753 H 2454.42 -1.84936 3.2381 0
M  V30 26754 N 2456.6 -1.57237 -0.106866 0
M  V30 26755 C 2457.55 -2.01219 -1.13046 0
M  V30 26756 C 2458.52 -0.886428 -1.40469 0
M  V30 26757 O 2459.7 -1.15156 -1.52131 0
M  V30 26758 C 2456.84 -2.43176 -2.44866 0
M  V30 26759 C 2455.96 -3.69222 -2.24275 0
M  V30 26760 C 2455.09 -4.00108 -3.4941 0
M  V30 26761 C 2454.13 -5.19299 -3.24029 0
M  V30 26762 N 2453.27 -5.45995 -4.414 0
M  V30 26763 H 2458.11 -2.88449 -0.748406 0
M  V30 26764 H 2455.65 -1.42676 -0.358029 0
M  V30 26765 H 2457.6 -2.65543 -3.21781 0
M  V30 26766 H 2456.23 -1.58972 -2.80941 0
M  V30 26767 H 2455.29 -3.54401 -1.38218 0
M  V30 26768 H 2456.6 -4.56287 -2.01504 0
M  V30 26769 H 2455.75 -4.23188 -4.34738 0
M  V30 26770 H 2454.49 -3.11542 -3.75224 0
M  V30 26771 H 2453.5 -4.96051 -2.37093 0
M  V30 26772 H 2454.72 -6.09453 -2.99573 0
M  V30 26773 H 2452.67 -4.60388 -4.67311 0
M  V30 26774 H 2452.58 -6.27407 -4.21777 0
M  V30 26775 H 2453.85 -5.73603 -5.27826 0
M  V30 26776 N 2458.08 0.377381 -1.53015 0
M  V30 26777 C 2459.5 0.718256 -1.42525 0
M  V30 26778 C 2459.7 1.93709 -0.554904 0
M  V30 26779 O 2458.75 2.52479 -0.0328037 0
M  V30 26780 C 2460.07 0.942488 -2.85548 0
M  V30 26781 C 2461.61 1.04324 -2.95103 0
M  V30 26782 C 2462.09 1.30002 -4.39162 0
M  V30 26783 N 2463.58 1.36798 -4.42539 0
M  V30 26784 C 2464.31 1.58355 -5.511 0
M  V30 26785 N 2463.81 1.77305 -6.69727 0
M  V30 26786 N 2465.6 1.60628 -5.3866 0
M  V30 26787 H 2457.75 -0.424462 -2.08116 0
M  V30 26788 H 2460.02 -0.127775 -0.939349 0
M  V30 26789 H 2459.72 0.118867 -3.51499 0
M  V30 26790 H 2459.6 1.85392 -3.28496 0
M  V30 26791 H 2461.98 1.85741 -2.29312 0
M  V30 26792 H 2462.07 0.10946 -2.55566 0
M  V30 26793 H 2461.71 0.490902 -5.05522 0
M  V30 26794 H 2461.64 2.24683 -4.76262 0
M  V30 26795 H 2464.13 1.23815 -3.57041 0
M  V30 26796 H 2464.44 1.93293 -7.48236 0
M  V30 26797 H 2462.79 1.74506 -6.72735 0
M  V30 26798 H 2465.98 1.45383 -4.44951 0
M  V30 26799 H 2466.15 1.77087 -6.23333 0
M  V30 26800 N 2459.56 1.44175 0.636506 0
M  V30 26801 C 2460.81 1.46675 1.39616 0
M  V30 26802 C 2461.13 0.0973032 1.94256 0
M  V30 26803 O 2460.39 -0.900145 1.7377 0
M  V30 26804 C 2460.69 2.47009 2.58305 0
M  V30 26805 C 2460.35 3.92471 2.21985 0
M  V30 26806 C 2459.02 4.32085 2.11793 0
M  V30 26807 C 2461.37 4.84069 1.93202 0
M  V30 26808 C 2458.7 5.61228 1.70997 0
M  V30 26809 C 2461.05 6.13594 1.539 0
M  V30 26810 C 2459.71 6.52168 1.42245 0
M  V30 26811 H 2458.98 0.536721 0.510892 0
M  V30 26812 H 2461.63 1.77356 0.722297 0
M  V30 26813 H 2459.93 2.09792 3.309 0
M  V30 26814 H 2461.63 2.46192 3.16529 0
M  V30 26815 H 2458.22 3.61128 2.30834 0
M  V30 26816 H 2462.4 4.54223 1.99989 0
M  V30 26817 H 2457.66 5.89938 1.60573 0
M  V30 26818 H 2461.83 6.84032 1.30665 0
M  V30 26819 H 2459.46 7.5214 1.10406 0
M  V30 26820 N 2461.04 -0.876421 1.30983 0
M  V30 26821 C 2461.97 -1.98892 1.13906 0
M  V30 26822 C 2462.98 -1.62604 0.0799101 0
M  V30 26823 O 2464.17 -1.75483 0.326773 0
M  V30 26824 C 2461.27 -3.31234 0.716757 0
M  V30 26825 C 2460.44 -3.95905 1.85951 0
M  V30 26826 C 2459.5 -5.06556 1.42434 0
M  V30 26827 O 2458.53 -5.27725 2.13296 0
M  V30 26828 N 2459.73 -5.79682 0.308127 0
M  V30 26829 H 2462.5 -2.1409 2.09727 0
M  V30 26830 H 2460.06 -1.05002 1.23232 0
M  V30 26831 H 2462.05 -4.02633 0.408473 0
M  V30 26832 H 2460.62 -3.12242 -0.149664 0
M  V30 26833 H 2459.84 -3.17569 2.33546 0
M  V30 26834 H 2461.13 -4.35851 2.6251 0
M  V30 26835 H 2460.52 -5.64996 -0.282141 0
M  V30 26836 H 2459.08 -6.51773 0.0593428 0
M  V30 26837 N 2462.51 -1.13839 -1.08989 0
M  V30 26838 C 2463.46 -0.815385 -2.1784 0
M  V30 26839 C 2464.46 0.204204 -1.68165 0
M  V30 26840 O 2465.66 0.0608988 -1.79897 0
M  V30 26841 H 2462.04 -0.245928 -0.71065 0
M  V30 26842 H 2464.01 -1.74148 -2.42312 0
M  V30 26843 C 2462.76 -0.302675 -3.4638 0
M  V30 26844 H 2462.08 -1.07857 -3.84977 0
M  V30 26845 H 2463.52 -0.115148 -4.23844 0
M  V30 26846 C 2461.98 0.972535 -3.22558 0
M  V30 26847 O 2462.51 2.04748 -3.45603 0
M  V30 26848 N 2460.72 0.905407 -2.76135 0
M  V30 26849 H 2460.26 0.0304968 -2.57582 0
M  V30 26850 H 2460.22 1.75922 -2.60574 0
M  V30 26851 N 2463.99 1.27046 -0.932584 0
M  V30 26852 C 2465.4 1.76123 -0.619482 0
M  V30 26853 C 2465.75 1.76085 0.865366 0
M  V30 26854 O 2464.88 1.36745 1.67719 0
M  V30 26855 C 2465.47 3.1983 -1.11776 0
M  V30 26856 C 2464.03 3.66555 -0.855238 0
M  V30 26857 C 2463.18 2.46319 -1.27366 0
M  V30 26858 H 2466.13 1.13243 -1.11183 0
M  V30 26859 H 2466.15 3.77615 -0.467656 0
M  V30 26860 H 2465.66 3.19826 -2.19847 0
M  V30 26861 H 2463.77 3.71999 0.211459 0
M  V30 26862 H 2463.88 4.5579 -1.47621 0
M  V30 26863 H 2462.24 2.45115 -0.692163 0
M  V30 26864 H 2463.03 2.49021 -2.36312 0
M  V30 26865 N 2465.47 0.698636 1.41269 0
M  V30 26866 C 2466.4 0.04967 2.33447 0
M  V30 26867 C 2467.38 -0.763871 1.51984 0
M  V30 26868 O 2468.57 -0.716225 1.8051 0
M  V30 26869 C 2465.7 -0.885208 3.35829 0
M  V30 26870 C 2464.65 -0.178537 4.27627 0
M  V30 26871 C 2463.98 -1.22798 5.20408 0
M  V30 26872 C 2465.28 0.957023 5.13457 0
M  V30 26873 H 2466.97 0.819561 2.87965 0
M  V30 26874 H 2464.52 0.395562 1.3846 0
M  V30 26875 H 2466.47 -1.34847 3.99242 0
M  V30 26876 H 2465.19 -1.6868 2.79669 0
M  V30 26877 H 2463.85 0.264724 3.65643 0
M  V30 26878 H 2463.5 -2.02218 4.60561 0
M  V30 26879 H 2463.2 -0.760136 5.82663 0
M  V30 26880 H 2464.72 -1.69169 5.86698 0
M  V30 26881 H 2466.14 0.573905 5.7042 0
M  V30 26882 H 2464.54 1.35216 5.84668 0
M  V30 26883 H 2465.61 1.79532 4.5044 0
M  V30 26884 N 2466.95 -1.51228 0.443603 0
M  V30 26885 C 2468.2 -2.01329 -0.122297 0
M  V30 26886 C 2468.51 -1.33203 -1.43235 0
M  V30 26887 O 2469.72 -1.74308 -2.08156 0
M  V30 26888 C 2468.17 -3.58897 -0.268488 0
M  V30 26889 C 2467.78 -4.35963 1.0315 0
M  V30 26890 C 2469.52 -4.17125 -0.787821 0
M  V30 26891 C 2467.43 -5.85251 0.850607 0
M  V30 26892 H 2466.36 -0.752375 -0.0494797 0
M  V30 26893 H 2469.01 -1.74281 0.57432 0
M  V30 26894 H 2467.39 -3.82417 -1.02825 0
M  V30 26895 H 2468.57 -4.24186 1.80008 0
M  V30 26896 H 2466.88 -3.89217 1.47984 0
M  V30 26897 H 2469.48 -5.26377 -0.939749 0
M  V30 26898 H 2469.82 -3.76707 -1.77194 0
M  V30 26899 H 2470.36 -3.97707 -0.086197 0
M  V30 26900 H 2467.1 -6.30093 1.80729 0
M  V30 26901 H 2466.62 -5.99676 0.12193 0
M  V30 26902 H 2468.29 -6.45016 0.506276 0
M  V30 26903 N 2468.43 -0.175182 -1.56623 0
M  V30 26904 C 2469.65 0.478102 -2.01814 0
M  V30 26905 C 2470.08 1.55755 -1.0546 0
M  V30 26906 O 2469.43 1.81267 -0.0347758 0
M  V30 26907 C 2469.48 1.02981 -3.45583 0
M  V30 26908 O 2468.59 2.14364 -3.52309 0
M  V30 26909 H 2467.93 0.114047 -0.654132 0
M  V30 26910 H 2470.46 -0.280209 -2.02672 0
M  V30 26911 H 2470.47 1.35145 -3.84967 0
M  V30 26912 H 2469.14 0.239483 -4.1521 0
M  V30 26913 H 2467.72 1.83216 -3.24786 0
M  V30 26914 N 2469.91 1.57292 0.0985263 0
M  V30 26915 C 2471.15 1.85546 0.80106 0
M  V30 26916 C 2471.47 0.763385 1.79436 0
M  V30 26917 O 2470.74 -0.210696 1.94764 0
M  V30 26918 H 2469.32 0.684625 0.298828 0
M  V30 26919 H 2471.99 1.94732 0.0809722 0
M  V30 26920 H 2471.08 2.82166 1.33375 0
M  V30 26921 N 2471.38 -0.369261 1.53213 0
M  V30 26922 C 2472.31 -1.45823 1.82368 0
M  V30 26923 C 2473.29 -1.5605 0.676935 0
M  V30 26924 O 2474.48 -1.70678 0.926431 0
M  V30 26925 C 2471.61 -2.83205 2.01028 0
M  V30 26926 C 2470.56 -2.87805 3.16785 0
M  V30 26927 C 2469.89 -4.27826 3.20732 0
M  V30 26928 C 2471.19 -2.55659 4.55451 0
M  V30 26929 H 2472.88 -1.21674 2.73562 0
M  V30 26930 H 2470.43 -0.583888 1.31631 0
M  V30 26931 H 2472.38 -3.59409 2.20007 0
M  V30 26932 H 2471.11 -3.08734 1.06541 0
M  V30 26933 H 2469.77 -2.14051 2.9762 0
M  V30 26934 H 2469.41 -4.50425 2.23889 0
M  V30 26935 H 2469.11 -4.3182 3.98504 0
M  V30 26936 H 2470.64 -5.05909 3.4189 0
M  V30 26937 H 2472.05 -3.21578 4.74616 0
M  V30 26938 H 2470.45 -2.70975 5.35437 0
M  V30 26939 H 2471.52 -1.50922 4.60815 0
M  V30 26940 N 2472.86 -1.4451 -0.628851 0
M  V30 26941 C 2474.28 -1.28447 -0.947283 0
M  V30 26942 C 2474.48 -0.221907 -2.00274 0
M  V30 26943 O 2473.53 0.391427 -2.49448 0
M  V30 26944 C 2474.85 -2.65678 -1.40839 0
M  V30 26945 C 2476.39 -2.73406 -1.52374 0
M  V30 26946 C 2476.87 -4.11112 -2.01868 0
M  V30 26947 N 2478.36 -4.133 -2.09134 0
M  V30 26948 C 2479.1 -5.16704 -2.48606 0
M  V30 26949 N 2478.59 -6.30467 -2.87198 0
M  V30 26950 N 2480.38 -5.04059 -2.4876 0
M  V30 26951 H 2472.54 -2.12287 0.069135 0
M  V30 26952 H 2474.8 -0.94747 -0.0316998 0
M  V30 26953 H 2474.5 -3.44518 -0.707145 0
M  V30 26954 H 2474.38 -2.9272 -2.37897 0
M  V30 26955 H 2476.77 -1.94884 -2.21595 0
M  V30 26956 H 2476.85 -2.50103 -0.536855 0
M  V30 26957 H 2476.49 -4.90111 -1.33242 0
M  V30 26958 H 2476.42 -4.31794 -3.01432 0
M  V30 26959 H 2478.91 -3.31195 -1.81985 0
M  V30 26960 H 2479.22 -7.05179 -3.16136 0
M  V30 26961 H 2477.57 -6.33902 -2.84944 0
M  V30 26962 H 2480.76 -4.14237 -2.18002 0
M  V30 26963 H 2480.93 -5.84768 -2.79197 0
M  V30 26964 N 2474.34 0.869463 -1.31446 0
M  V30 26965 C 2475.59 1.62494 -1.2134 0
M  V30 26966 C 2475.92 1.92859 0.227838 0
M  V30 26967 O 2475.19 1.56055 1.16091 0
M  V30 26968 C 2475.48 2.95483 -2.05819 0
M  V30 26969 C 2475.33 2.71994 -3.58245 0
M  V30 26970 C 2476.65 3.96591 -1.90797 0
M  V30 26971 H 2473.77 0.589641 -0.442145 0
M  V30 26972 H 2476.41 1.00505 -1.61241 0
M  V30 26973 H 2474.56 3.48391 -1.71919 0
M  V30 26974 H 2476.23 2.25755 -4.02284 0
M  V30 26975 H 2474.47 2.06217 -3.8165 0
M  V30 26976 H 2475.15 3.66624 -4.12663 0
M  V30 26977 H 2477.62 3.52894 -2.20465 0
M  V30 26978 H 2476.5 4.87527 -2.52208 0
M  V30 26979 H 2476.76 4.33427 -0.871417 0
M  V30 26980 N 2475.82 1.14415 1.08383 0
M  V30 26981 C 2477.06 0.913865 1.81042 0
M  V30 26982 C 2477.4 -0.558177 1.86005 0
M  V30 26983 O 2476.67 -1.41347 1.33609 0
M  V30 26984 C 2476.95 1.51575 3.26645 0
M  V30 26985 C 2476.81 3.05766 3.2989 0
M  V30 26986 C 2478.13 1.19281 4.23627 0
M  V30 26987 H 2475.25 0.333425 0.657265 0
M  V30 26988 H 2477.89 1.41414 1.26894 0
M  V30 26989 H 2476.04 1.0903 3.72887 0
M  V30 26990 H 2477.71 3.57143 2.91971 0
M  V30 26991 H 2475.95 3.40202 2.69157 0
M  V30 26992 H 2476.62 3.42985 4.3251 0
M  V30 26993 H 2479.1 1.56063 3.85725 0
M  V30 26994 H 2477.98 1.64027 5.23819 0
M  V30 26995 H 2478.24 0.108145 4.41968 0
M  V30 26996 N 2477.3 -1.26549 0.939309 0
M  V30 26997 C 2478.23 -2.25598 0.404743 0
M  V30 26998 C 2479.24 -1.55839 -0.470955 0
M  V30 26999 O 2480.43 -1.76263 -0.281703 0
M  V30 27000 C 2477.53 -3.36063 -0.437581 0
M  V30 27001 C 2476.7 -4.35364 0.421525 0
M  V30 27002 C 2475.76 -5.24967 -0.360058 0
M  V30 27003 O 2474.79 -5.68709 0.236267 0
M  V30 27004 N 2475.99 -5.56347 -1.65706 0
M  V30 27005 H 2478.75 -2.72101 1.25622 0
M  V30 27006 H 2476.32 -1.40297 0.807988 0
M  V30 27007 H 2478.31 -3.92958 -0.967797 0
M  V30 27008 H 2476.88 -2.8907 -1.18986 0
M  V30 27009 H 2476.1 -3.77568 1.13297 0
M  V30 27010 H 2477.39 -4.98706 1.00844 0
M  V30 27011 H 2476.78 -5.22686 -2.16369 0
M  V30 27012 H 2475.34 -6.15892 -2.13356 0
M  V30 27013 N 2478.77 -0.706118 -1.40896 0
M  V30 27014 C 2480.02 -0.250716 -2.01849 0
M  V30 27015 C 2480.37 1.14038 -1.54962 0
M  V30 27016 O 2479.67 1.76072 -0.755597 0
M  V30 27017 C 2479.86 -0.259162 -3.56459 0
M  V30 27018 C 2479.69 -1.64954 -4.18354 0
M  V30 27019 C 2478.46 -2.25493 -4.52196 0
M  V30 27020 C 2480.66 -2.59808 -4.43852 0
M  V30 27021 N 2478.64 -3.56986 -4.99434 0
M  V30 27022 C 2480.01 -3.75993 -4.9298 0
M  V30 27023 C 2482.07 -2.5794 -4.25877 0
M  V30 27024 C 2480.77 -4.90606 -5.26021 0
M  V30 27025 C 2482.8 -3.71674 -4.60014 0
M  V30 27026 C 2482.16 -4.8659 -5.09322 0
M  V30 27027 H 2478.26 -0.137367 -0.769841 0
M  V30 27028 H 2480.84 -0.925875 -1.71277 0
M  V30 27029 H 2479.01 0.385524 -3.86482 0
M  V30 27030 H 2480.74 0.212059 -4.04144 0
M  V30 27031 H 2477.5 -1.77679 -4.39007 0
M  V30 27032 H 2477.92 -4.24416 -5.27447 0
M  V30 27033 H 2482.56 -1.70305 -3.86983 0
M  V30 27034 H 2480.28 -5.78894 -5.63833 0
M  V30 27035 H 2483.87 -3.71492 -4.47755 0
M  V30 27036 H 2482.75 -5.73138 -5.3524 0
M  V30 27037 N 2480.25 1.50991 -0.451617 0
M  V30 27038 C 2481.21 2.26648 0.341077 0
M  V30 27039 C 2482.21 1.3065 0.937399 0
M  V30 27040 O 2483.4 1.54243 0.809617 0
M  V30 27041 C 2480.54 3.06908 1.48392 0
M  V30 27042 H 2481.73 2.98165 -0.322169 0
M  V30 27043 H 2479.28 1.54948 -0.205149 0
M  V30 27044 H 2480.02 2.39842 2.1828 0
M  V30 27045 H 2479.8 3.77434 1.06235 0
M  V30 27046 H 2481.29 3.64179 2.04361 0
M  V30 27047 N 2481.73 0.183486 1.56528 0
M  V30 27048 C 2482.96 -0.46425 2.01624 0
M  V30 27049 C 2483.37 -1.55985 1.06368 0
M  V30 27050 O 2482.73 -1.82379 0.0665718 0
M  V30 27051 C 2482.78 -1.03133 3.46476 0
M  V30 27052 O 2482.5 0.0205445 4.38095 0
M  V30 27053 C 2484 -1.75609 4.07033 0
M  V30 27054 H 2481.22 -0.117692 0.660598 0
M  V30 27055 H 2483.77 0.288786 2.02451 0
M  V30 27056 H 2481.92 -1.7348 3.46386 0
M  V30 27057 H 2482.34 -0.39986 5.22974 0
M  V30 27058 H 2483.81 -2.10533 5.10274 0
M  V30 27059 H 2484.29 -2.65557 3.49823 0
M  V30 27060 H 2484.89 -1.09875 4.10862 0
M  V30 27061 N 2483.21 -1.57342 -0.0901833 0
M  V30 27062 C 2484.46 -1.85969 -0.791209 0
M  V30 27063 C 2484.78 -0.77289 -1.79029 0
M  V30 27064 O 2484.05 0.200364 -1.94873 0
M  V30 27065 H 2482.63 -0.6862 -0.295193 0
M  V30 27066 H 2485.29 -1.94772 -0.070644 0
M  V30 27067 H 2484.38 -2.82869 -1.31877 0
M  V30 27068 N 2484.69 0.36113 -1.53407 0
M  V30 27069 C 2485.65 1.42545 -1.79481 0
M  V30 27070 C 2486.65 1.46389 -0.665353 0
M  V30 27071 O 2487.84 1.47071 -0.933575 0
M  V30 27072 C 2484.97 2.81626 -1.92092 0
M  V30 27073 H 2486.16 1.20696 -2.7454 0
M  V30 27074 H 2483.72 0.594521 -1.44552 0
M  V30 27075 H 2484.45 3.08783 -0.991153 0
M  V30 27076 H 2484.24 2.80235 -2.74246 0
M  V30 27077 H 2485.73 3.58694 -2.13842 0
M  V30 27078 N 2486.16 1.44842 0.621179 0
M  V30 27079 C 2487.11 1.48904 1.7266 0
M  V30 27080 C 2488.1 0.353729 1.56964 0
M  V30 27081 O 2489.29 0.599699 1.66531 0
M  V30 27082 C 2486.42 1.44563 3.11378 0
M  V30 27083 C 2485.51 2.63245 3.3251 0
M  V30 27084 N 2485.9 3.88436 3.23962 0
M  V30 27085 C 2484.19 2.58653 3.63338 0
M  V30 27086 C 2484.9 4.6757 3.46053 0
M  V30 27087 N 2483.87 3.98804 3.694 0
M  V30 27088 H 2487.67 2.43534 1.64525 0
M  V30 27089 H 2485.19 1.39944 0.823985 0
M  V30 27090 H 2487.18 1.45557 3.90664 0
M  V30 27091 H 2485.84 0.509787 3.20673 0
M  V30 27092 H 2486.86 4.20258 3.02661 0
M  V30 27093 H 2483.53 1.73913 3.79553 0
M  V30 27094 H 2484.92 5.76591 3.44953 0
M  V30 27095 N 2487.64 -0.862479 1.31905 0
M  V30 27096 C 2488.87 -1.64632 1.24819 0
M  V30 27097 C 2489.28 -1.88268 -0.187546 0
M  V30 27098 O 2488.62 -1.44637 -1.13251 0
M  V30 27099 C 2488.69 -3.033 1.93001 0
M  V30 27100 C 2488.35 -3.0274 3.42341 0
M  V30 27101 C 2489.35 -2.80154 4.37961 0
M  V30 27102 C 2487.03 -3.23623 3.84153 0
M  V30 27103 C 2489.03 -2.78443 5.73366 0
M  V30 27104 C 2486.71 -3.2154 5.19669 0
M  V30 27105 C 2487.71 -2.98977 6.14086 0
M  V30 27106 O 2487.4 -2.96753 7.47123 0
M  V30 27107 H 2487.13 -0.519762 0.432231 0
M  V30 27108 H 2489.68 -1.08424 1.74452 0
M  V30 27109 H 2487.91 -3.61266 1.37928 0
M  V30 27110 H 2489.6 -3.6394 1.7973 0
M  V30 27111 H 2490.37 -2.63795 4.06986 0
M  V30 27112 H 2486.25 -3.40213 3.11089 0
M  V30 27113 H 2489.79 -2.60752 6.47035 0
M  V30 27114 H 2485.69 -3.37442 5.50276 0
M  V30 27115 H 2486.46 -3.12762 7.56388 0
M  V30 27116 N 2489.12 -1.14988 -1.07775 0
M  V30 27117 C 2490.07 -0.842709 -2.14865 0
M  V30 27118 C 2491.04 0.202523 -1.64861 0
M  V30 27119 O 2492.22 0.0710233 -1.90668 0
M  V30 27120 C 2489.36 -0.333423 -3.43486 0
M  V30 27121 C 2488.48 -1.43972 -4.07304 0
M  V30 27122 C 2487.61 -0.887006 -5.23742 0
M  V30 27123 C 2486.65 -1.97053 -5.79514 0
M  V30 27124 N 2485.79 -1.43452 -6.87289 0
M  V30 27125 H 2490.63 -1.7599 -2.40482 0
M  V30 27126 H 2488.16 -0.8782 -1.18009 0
M  V30 27127 H 2490.12 -0.0198897 -4.17195 0
M  V30 27128 H 2488.75 0.546861 -3.18134 0
M  V30 27129 H 2487.8 -1.86952 -3.3129 0
M  V30 27130 H 2489.12 -2.25796 -4.44767 0
M  V30 27131 H 2488.27 -0.525758 -6.04418 0
M  V30 27132 H 2487.01 -0.0378814 -4.87685 0
M  V30 27133 H 2486.01 -2.34066 -4.97487 0
M  V30 27134 H 2487.24 -2.82336 -6.17627 0
M  V30 27135 H 2485.18 -0.607682 -6.53179 0
M  V30 27136 H 2485.1 -2.18908 -7.23613 0
M  V30 27137 H 2486.37 -1.10138 -7.7168 0
M  V30 27138 N 2490.6 1.26049 -0.946007 0
M  V30 27139 C 2491.53 2.28572 -0.477212 0
M  V30 27140 C 2492.51 1.6342 0.472003 0
M  V30 27141 O 2493.69 1.90588 0.372819 0
M  V30 27142 C 2490.82 3.46371 0.253914 0
M  V30 27143 C 2489.78 4.23642 -0.60921 0
M  V30 27144 C 2489.1 5.34105 0.252158 0
M  V30 27145 C 2490.4 4.87176 -1.88299 0
M  V30 27146 H 2492.1 2.68035 -1.33407 0
M  V30 27147 H 2489.64 1.28851 -0.642926 0
M  V30 27148 H 2491.6 4.17208 0.592942 0
M  V30 27149 H 2490.32 3.05873 1.14495 0
M  V30 27150 H 2488.98 3.54576 -0.9312 0
M  V30 27151 H 2488.63 4.89848 1.14269 0
M  V30 27152 H 2488.33 5.86717 -0.321983 0
M  V30 27153 H 2489.85 6.07778 0.586347 0
M  V30 27154 H 2491.27 5.50202 -1.61091 0
M  V30 27155 H 2489.66 5.49927 -2.40209 0
M  V30 27156 H 2490.73 4.09846 -2.59141 0
M  V30 27157 N 2492.08 0.71358 1.4052 0
M  V30 27158 C 2493.02 0.0597246 2.30723 0
M  V30 27159 C 2493.99 -0.752422 1.4808 0
M  V30 27160 O 2495.18 -0.716779 1.76825 0
M  V30 27161 C 2492.32 -0.857535 3.34276 0
M  V30 27162 C 2491.43 -0.0350776 4.31986 0
M  V30 27163 C 2490.57 -0.951632 5.22606 0
M  V30 27164 C 2489.61 -0.123146 6.11976 0
M  V30 27165 N 2488.74 -0.994468 6.95021 0
M  V30 27166 H 2493.58 0.834646 2.86073 0
M  V30 27167 H 2491.12 0.423285 1.40878 0
M  V30 27168 H 2493.08 -1.40357 3.92881 0
M  V30 27169 H 2491.71 -1.59866 2.80433 0
M  V30 27170 H 2490.76 0.628118 3.75178 0
M  V30 27171 H 2492.07 0.606434 4.951 0
M  V30 27172 H 2491.23 -1.56627 5.86134 0
M  V30 27173 H 2489.96 -1.62697 4.59762 0
M  V30 27174 H 2488.97 0.504446 5.47481 0
M  V30 27175 H 2490.19 0.548658 6.7688 0
M  V30 27176 H 2488.14 -1.65549 6.34767 0
M  V30 27177 H 2488.06 -0.408947 7.54893 0
M  V30 27178 H 2489.33 -1.59535 7.63 0
M  V30 27179 N 2493.55 -1.50749 0.459618 0
M  V30 27180 C 2494.97 -1.867 0.00174828 0
M  V30 27181 C 2495.32 -1.37527 -1.39931 0
M  V30 27182 O 2494.44 -0.735385 -2.03522 0
M  V30 27183 C 2495.04 -3.388 -0.00360343 0
M  V30 27184 C 2493.6 -3.74204 -0.40596 0
M  V30 27185 C 2492.74 -2.74589 0.386778 0
M  V30 27186 H 2495.69 -1.43656 0.674438 0
M  V30 27187 H 2495.71 -3.71815 -0.808306 0
M  V30 27188 H 2495.23 -3.74559 1.01623 0
M  V30 27189 H 2493.33 -3.44043 -1.43057 0
M  V30 27190 H 2493.44 -4.78961 -0.115278 0
M  V30 27191 H 2491.8 -2.5421 -0.157974 0
M  V30 27192 H 2492.59 -3.13192 1.40591 0
M  V30 27193 N 2495.03 -0.191784 -1.56429 0
M  V30 27194 C 2496.28 0.448053 -1.96661 0
M  V30 27195 C 2496.59 1.62989 -1.08139 0
M  V30 27196 O 2497.8 2.3373 -1.38139 0
M  V30 27197 C 2496.26 0.848524 -3.49754 0
M  V30 27198 C 2495.86 -0.308842 -4.46934 0
M  V30 27199 C 2497.61 1.45563 -3.98763 0
M  V30 27200 C 2495.52 0.112402 -5.91293 0
M  V30 27201 H 2494.45 0.171166 -0.734315 0
M  V30 27202 H 2497.1 -0.283274 -1.813 0
M  V30 27203 H 2495.48 1.63642 -3.60607 0
M  V30 27204 H 2496.65 -1.08635 -4.47811 0
M  V30 27205 H 2494.97 -0.827229 -4.081 0
M  V30 27206 H 2497.56 1.78319 -5.0409 0
M  V30 27207 H 2497.91 2.36093 -3.42879 0
M  V30 27208 H 2498.44 0.731768 -3.91012 0
M  V30 27209 H 2495.18 -0.758629 -6.51095 0
M  V30 27210 H 2494.7 0.854837 -5.93677 0
M  V30 27211 H 2496.38 0.549335 -6.44664 0
M  V30 27212 N 2496.51 1.57387 0.0818378 0
M  V30 27213 C 2497.44 2.0603 1.09881 0
M  V30 27214 C 2498.42 0.951798 1.40978 0
M  V30 27215 O 2499.61 1.2239 1.50779 0
M  V30 27216 C 2496.74 2.49584 2.41506 0
M  V30 27217 C 2495.69 3.64219 2.24786 0
M  V30 27218 C 2495.02 3.93793 3.61705 0
M  V30 27219 C 2496.32 4.94632 1.6774 0
M  V30 27220 H 2498.01 2.91244 0.694077 0
M  V30 27221 H 2495.56 1.4011 0.332424 0
M  V30 27222 H 2497.51 2.82224 3.12934 0
M  V30 27223 H 2496.23 1.61386 2.8394 0
M  V30 27224 H 2494.89 3.31846 1.55801 0
M  V30 27225 H 2494.54 3.02743 4.01691 0
M  V30 27226 H 2494.24 4.70978 3.5136 0
M  V30 27227 H 2495.76 4.28921 4.34579 0
M  V30 27228 H 2497.18 5.25568 2.29023 0
M  V30 27229 H 2495.58 5.7607 1.68118 0
M  V30 27230 H 2496.65 4.80685 0.637975 0
M  V30 27231 N 2497.99 -0.35299 1.53596 0
M  V30 27232 C 2499.27 -1.11072 1.61004 0
M  V30 27233 C 2499.65 -2.06769 0.425393 0
M  V30 27234 O 2498.99 -2.20931 -0.583229 0
M  V30 27235 C 2499.2 -1.83872 2.96635 0
M  V30 27236 C 2500.55 -2.37955 3.51657 0
M  V30 27237 O 2501.58 -1.93981 2.98747 0
M  V30 27238 O 2500.43 -3.18378 4.44182 0
M  V30 27239 H 2497.53 -0.510239 0.650834 0
M  V30 27240 H 2500.07 -0.355241 1.6594 0
M  V30 27241 H 2498.85 -1.14101 3.74295 0
M  V30 27242 H 2498.47 -2.66299 2.95246 0
M  V30 27243 N 2499.47 -1.45169 -0.613489 0
M  V30 27244 C 2500.74 -1.39352 -1.37261 0
M  V30 27245 C 2501.12 -0.0611219 -2.11011 0
M  V30 27246 O 2500.47 0.956789 -2.07504 0
M  V30 27247 C 2500.68 -2.60336 -2.32435 0
M  V30 27248 C 2502.03 -3.05168 -2.95225 0
M  V30 27249 O 2503.05 -2.60667 -2.42758 0
M  V30 27250 O 2501.91 -3.82378 -3.90447 0
M  V30 27251 H 2499.01 -0.552707 -0.615178 0
M  V30 27252 H 2501.55 -1.57288 -0.637069 0
M  V30 27253 H 2500.33 -3.48899 -1.77158 0
M  V30 27254 H 2499.95 -2.44703 -3.13378 0
M  V30 27255 N 2500.95 0.855472 -1.32361 0
M  V30 27256 C 2501.88 1.97956 -1.23837 0
M  V30 27257 C 2502.86 1.69659 -0.122391 0
M  V30 27258 O 2504.04 1.91719 -0.309424 0
M  V30 27259 C 2501.17 3.33773 -0.959831 0
M  V30 27260 C 2500.13 3.7642 -2.03695 0
M  V30 27261 C 2499.45 5.09859 -1.61084 0
M  V30 27262 C 2500.75 3.91974 -3.45187 0
M  V30 27263 H 2502.45 2.05346 -2.17884 0
M  V30 27264 H 2499.99 0.986587 -1.04893 0
M  V30 27265 H 2501.94 4.11964 -0.88675 0
M  V30 27266 H 2500.67 3.26596 0.016283 0
M  V30 27267 H 2499.33 3.0048 -2.10018 0
M  V30 27268 H 2498.98 4.99137 -0.622195 0
M  V30 27269 H 2498.68 5.39364 -2.33152 0
M  V30 27270 H 2500.2 5.90544 -1.55211 0
M  V30 27271 H 2501.61 4.6052 -3.41458 0
M  V30 27272 H 2500.01 4.32896 -4.15598 0
M  V30 27273 H 2501.08 2.94913 -3.84908 0
M  V30 27274 N 2502.42 1.15558 1.07164 0
M  V30 27275 C 2503.37 0.849938 2.16515 0
M  V30 27276 C 2504.37 -0.177424 1.68468 0
M  V30 27277 O 2505.57 -0.032271 1.79971 0
M  V30 27278 H 2501.95 0.257203 0.706648 0
M  V30 27279 H 2503.92 1.77981 2.39511 0
M  V30 27280 C 2502.67 0.357743 3.45855 0
M  V30 27281 H 2501.99 1.13968 3.83212 0
M  V30 27282 H 2503.43 0.182563 4.23607 0
M  V30 27283 C 2501.89 -0.921096 3.24064 0
M  V30 27284 O 2502.42 -1.99223 3.48816 0
M  V30 27285 N 2500.62 -0.861361 2.77541 0
M  V30 27286 H 2500.17 0.0104861 2.57598 0
M  V30 27287 H 2500.13 -1.71754 2.6334 0
M  V30 27288 N 2503.9 -1.25546 0.952678 0
M  V30 27289 C 2505.15 -1.93493 0.607306 0
M  V30 27290 C 2505.48 -1.74453 -0.853214 0
M  V30 27291 O 2504.76 -1.08845 -1.61192 0
M  V30 27292 C 2505.04 -3.46945 0.964411 0
M  V30 27293 C 2504.89 -3.7522 2.48052 0
M  V30 27294 C 2506.21 -4.37385 0.488064 0
M  V30 27295 H 2503.33 -0.702735 0.222108 0
M  V30 27296 H 2505.97 -1.482 1.18898 0
M  V30 27297 H 2504.12 -3.85653 0.469429 0
M  V30 27298 H 2505.79 -3.4616 3.04911 0
M  V30 27299 H 2504.04 -3.20895 2.91906 0
M  V30 27300 H 2504.71 -4.82527 2.68089 0
M  V30 27301 H 2507.18 -4.05968 0.912629 0
M  V30 27302 H 2506.06 -5.4352 0.766643 0
M  V30 27303 H 2506.32 -4.37844 -0.611986 0
M  V30 27304 N 2505.38 -0.721022 -1.40139 0
M  V30 27305 C 2506.63 -0.262877 -2.00786 0
M  V30 27306 C 2506.95 1.1456 -1.57182 0
M  V30 27307 O 2506.21 1.79247 -0.785423 0
M  V30 27308 C 2506.51 -0.296955 -3.56164 0
M  V30 27309 C 2506.17 -1.65649 -4.1937 0
M  V30 27310 C 2504.84 -2.02863 -4.36349 0
M  V30 27311 C 2507.19 -2.54976 -4.54573 0
M  V30 27312 C 2504.52 -3.2894 -4.85814 0
M  V30 27313 C 2506.87 -3.80411 -5.05441 0
M  V30 27314 C 2505.53 -4.17735 -5.20628 0
M  V30 27315 H 2504.8 -0.0961936 -0.73473 0
M  V30 27316 H 2507.45 -0.925122 -1.67672 0
M  V30 27317 H 2505.75 0.448864 -3.8922 0
M  V30 27318 H 2507.45 0.0754503 -4.00929 0
M  V30 27319 H 2504.04 -1.35711 -4.06547 0
M  V30 27320 H 2508.23 -2.27499 -4.41087 0
M  V30 27321 H 2503.48 -3.57819 -4.95757 0
M  V30 27322 H 2507.66 -4.49795 -5.31655 0
M  V30 27323 H 2505.28 -5.15497 -5.58719 0
M  V30 27324 N 2506.86 1.50503 -0.467606 0
M  V30 27325 C 2508.27 1.86696 -0.0116494 0
M  V30 27326 C 2508.62 1.38267 1.392 0
M  V30 27327 O 2507.74 0.746168 2.03129 0
M  V30 27328 C 2508.34 3.38797 -0.014364 0
M  V30 27329 C 2506.9 3.74414 0.386109 0
M  V30 27330 C 2506.05 2.7438 -0.401335 0
M  V30 27331 H 2509 1.43296 -0.682047 0
M  V30 27332 H 2509.02 3.72239 0.788576 0
M  V30 27333 H 2508.53 3.74015 -1.03608 0
M  V30 27334 H 2506.63 3.44796 1.41231 0
M  V30 27335 H 2506.74 4.79016 0.0898754 0
M  V30 27336 H 2505.11 2.5429 0.144491 0
M  V30 27337 H 2505.89 3.12442 -1.4225 0
M  V30 27338 N 2508.34 0.200077 1.56325 0
M  V30 27339 C 2509.56 -0.445935 2.02549 0
M  V30 27340 C 2509.99 -1.54058 1.07925 0
M  V30 27341 O 2509.34 -1.81188 0.0636093 0
M  V30 27342 C 2509.39 -0.9747 3.47177 0
M  V30 27343 O 2508.5 -2.08732 3.55675 0
M  V30 27344 H 2507.84 -0.103626 0.655864 0
M  V30 27345 H 2510.37 0.312417 2.02201 0
M  V30 27346 H 2510.38 -1.29003 3.87069 0
M  V30 27347 H 2509.05 -0.173397 4.15538 0
M  V30 27348 H 2507.63 -1.78026 3.2766 0
M  V30 27349 N 2509.81 -1.57429 -0.0734901 0
M  V30 27350 C 2510.74 -2.0661 -1.08787 0
M  V30 27351 C 2511.72 -0.959261 -1.40471 0
M  V30 27352 O 2512.91 -1.23188 -1.50128 0
M  V30 27353 C 2510.04 -2.50861 -2.40179 0
M  V30 27354 C 2508.99 -3.65406 -2.22851 0
M  V30 27355 C 2508.32 -3.95706 -3.59612 0
M  V30 27356 C 2509.62 -4.95514 -1.65115 0
M  V30 27357 H 2511.31 -2.91608 -0.678622 0
M  V30 27358 H 2508.86 -1.40285 -0.324989 0
M  V30 27359 H 2510.81 -2.8388 -3.11432 0
M  V30 27360 H 2509.54 -1.6289 -2.8308 0
M  V30 27361 H 2508.2 -3.32667 -1.54039 0
M  V30 27362 H 2507.84 -3.04869 -4.0008 0
M  V30 27363 H 2507.54 -4.72834 -3.48857 0
M  V30 27364 H 2509.07 -4.3122 -4.32299 0
M  V30 27365 H 2510.48 -5.26775 -2.26232 0
M  V30 27366 H 2508.88 -5.76953 -1.65061 0
M  V30 27367 H 2509.95 -4.81016 -0.612474 0
M  V30 27368 N 2511.29 0.344839 -1.53781 0
M  V30 27369 C 2512.53 1.09368 -1.72679 0
M  V30 27370 C 2512.9 1.85926 -0.479116 0
M  V30 27371 O 2514.1 2.63215 -0.545096 0
M  V30 27372 C 2512.37 2.01092 -2.9546 0
M  V30 27373 S 2513.93 2.83216 -3.35162 0
M  V30 27374 H 2510.74 0.369562 -0.607408 0
M  V30 27375 H 2513.35 0.372274 -1.91923 0
M  V30 27376 H 2512.05 1.43648 -3.84439 0
M  V30 27377 H 2511.58 2.77673 -2.78678 0
M  V30 27378 H 2513.6 4.03499 -2.88796 0
M  V30 27379 N 2512.77 1.45492 0.605781 0
M  V30 27380 C 2513.7 1.57146 1.72706 0
M  V30 27381 C 2514.68 0.422913 1.64759 0
M  V30 27382 O 2515.87 0.646279 1.83131 0
M  V30 27383 C 2513 1.53953 3.11313 0
M  V30 27384 C 2511.95 2.67543 3.34073 0
M  V30 27385 C 2511.28 2.49405 4.72971 0
M  V30 27386 C 2512.58 4.09541 3.24151 0
M  V30 27387 H 2514.27 2.51004 1.6321 0
M  V30 27388 H 2511.82 1.20802 0.783769 0
M  V30 27389 H 2513.77 1.60703 3.89554 0
M  V30 27390 H 2512.49 0.566261 3.21654 0
M  V30 27391 H 2511.15 2.60225 2.58222 0
M  V30 27392 H 2510.8 1.50213 4.80047 0
M  V30 27393 H 2510.5 3.25579 4.89154 0
M  V30 27394 H 2512.02 2.58011 5.5341 0
M  V30 27395 H 2513.44 4.18093 3.92264 0
M  V30 27396 H 2511.83 4.86119 3.51863 0
M  V30 27397 H 2512.9 4.31321 2.21563 0
M  V30 27398 N 2514.25 -0.848441 1.32813 0
M  V30 27399 C 2515.49 -1.60543 1.2391 0
M  V30 27400 C 2515.83 -1.93197 -0.197127 0
M  V30 27401 O 2515.1 -1.57882 -1.13593 0
M  V30 27402 C 2515.39 -2.92172 2.10494 0
M  V30 27403 C 2515.24 -2.6626 3.62527 0
M  V30 27404 C 2516.56 -3.93505 1.97082 0
M  V30 27405 H 2513.68 -0.582532 0.45147 0
M  V30 27406 H 2516.32 -0.979267 1.6282 0
M  V30 27407 H 2514.47 -3.45611 1.7744 0
M  V30 27408 H 2516.14 -2.19326 4.05825 0
M  V30 27409 H 2514.38 -2.00119 3.84883 0
M  V30 27410 H 2515.05 -3.60013 4.18443 0
M  V30 27411 H 2517.53 -3.49342 2.26051 0
M  V30 27412 H 2516.41 -4.83453 2.59932 0
M  V30 27413 H 2516.67 -4.31986 0.940262 0
M  V30 27414 N 2515.73 -1.16125 -1.06549 0
M  V30 27415 C 2516.97 -0.942552 -1.79566 0
M  V30 27416 C 2517.31 0.528514 -1.8687 0
M  V30 27417 O 2516.58 1.39204 -1.3584 0
M  V30 27418 C 2516.86 -1.56752 -3.24192 0
M  V30 27419 C 2516.72 -3.10975 -3.24984 0
M  V30 27420 C 2518.04 -1.26005 -4.21676 0
M  V30 27421 H 2515.15 -0.343839 -0.651877 0
M  V30 27422 H 2517.8 -1.43415 -1.24628 0
M  V30 27423 H 2515.95 -1.14948 -3.71105 0
M  V30 27424 H 2517.62 -3.61742 -2.86252 0
M  V30 27425 H 2515.86 -3.44441 -2.6371 0
M  V30 27426 H 2516.53 -3.49823 -4.26999 0
M  V30 27427 H 2519.01 -1.6218 -3.83193 0
M  V30 27428 H 2517.88 -1.72339 -5.21143 0
M  V30 27429 H 2518.15 -0.178445 -4.4174 0
M  V30 27430 N 2517.2 1.25039 -0.959323 0
M  V30 27431 C 2518.45 1.92502 -0.615427 0
M  V30 27432 C 2518.77 1.75454 0.850938 0
M  V30 27433 O 2518.04 1.12101 1.60656 0
M  V30 27434 H 2516.62 0.712427 -0.224626 0
M  V30 27435 H 2519.29 1.52107 -1.21858 0
M  V30 27436 H 2518.38 3.00336 -0.84879 0
M  V30 27437 N 2518.68 0.728444 1.39755 0
M  V30 27438 C 2519.96 0.200113 1.94574 0
M  V30 27439 C 2520.34 -1.29681 1.66571 0
M  V30 27440 O 2519.69 -2.05923 0.990362 0
M  V30 27441 C 2519.9 0.526669 3.45003 0
M  V30 27442 C 2521.25 0.472392 4.21964 0
M  V30 27443 O 2522.27 0.463475 3.53172 0
M  V30 27444 O 2521.13 0.46117 5.44551 0
M  V30 27445 H 2518.22 0.0342996 0.826288 0
M  V30 27446 H 2520.77 0.806855 1.49291 0
M  V30 27447 H 2519.54 1.5615 3.58793 0
M  V30 27448 H 2519.16 -0.109379 3.9745 0
M  V30 27449 N 2520.16 -1.50253 0.475581 0
M  V30 27450 C 2521.41 -2.01951 -0.0777025 0
M  V30 27451 C 2521.73 -1.35934 -1.39811 0
M  V30 27452 O 2521 -0.506156 -1.89248 0
M  V30 27453 H 2519.58 -0.746327 -0.0317059 0
M  V30 27454 H 2522.24 -1.84538 0.627028 0
M  V30 27455 H 2521.34 -3.11281 -0.225941 0
M  V30 27456 N 2521.64 -0.208365 -1.56217 0
M  V30 27457 C 2522.86 0.435187 -2.02783 0
M  V30 27458 C 2523.29 1.53483 -1.0874 0
M  V30 27459 O 2522.65 1.81152 -0.0732173 0
M  V30 27460 C 2522.69 0.956274 -3.47689 0
M  V30 27461 O 2521.8 2.06843 -3.56777 0
M  V30 27462 H 2521.14 0.100146 -0.656404 0
M  V30 27463 H 2523.67 -0.323135 -2.02032 0
M  V30 27464 H 2523.68 1.26948 -3.87747 0
M  V30 27465 H 2522.35 0.151357 -4.15624 0
M  V30 27466 H 2520.93 1.76286 -3.286 0
M  V30 27467 N 2523.12 1.57465 0.0651402 0
M  V30 27468 C 2524.36 1.87204 0.761522 0
M  V30 27469 C 2524.69 0.801274 1.77777 0
M  V30 27470 O 2523.96 -0.169336 1.95167 0
M  V30 27471 H 2522.54 0.690809 0.284239 0
M  V30 27472 H 2525.2 1.9486 0.0396485 0
M  V30 27473 H 2524.29 2.84931 1.2736 0
M  V30 27474 N 2524.59 -0.336679 1.53962 0
M  V30 27475 C 2525.84 -1.07402 1.71199 0
M  V30 27476 C 2526.16 -1.88962 0.481509 0
M  V30 27477 O 2525.43 -1.89291 -0.504552 0
M  V30 27478 H 2524.01 -0.399506 0.631192 0
M  V30 27479 H 2526.68 -0.37629 1.91233 0
M  V30 27480 H 2525.77 -1.74751 2.5859 0
M  V30 27481 N 2526.07 -1.45812 -0.598057 0
M  V30 27482 C 2527.32 -1.49596 -1.35292 0
M  V30 27483 C 2527.63 -0.145713 -1.95056 0
M  V30 27484 O 2528.84 -0.0612576 -2.71431 0
M  V30 27485 C 2527.3 -2.63523 -2.45119 0
M  V30 27486 C 2526.9 -4.04902 -1.91725 0
M  V30 27487 C 2528.65 -2.76563 -3.22045 0
M  V30 27488 C 2526.56 -5.10195 -2.99091 0
M  V30 27489 H 2525.49 -0.556687 -0.508542 0
M  V30 27490 H 2528.14 -1.71979 -0.639947 0
M  V30 27491 H 2526.52 -2.3444 -3.19145 0
M  V30 27492 H 2527.69 -4.43706 -1.24344 0
M  V30 27493 H 2526.01 -3.96395 -1.27515 0
M  V30 27494 H 2528.6 -3.52398 -4.02144 0
M  V30 27495 H 2528.95 -1.83533 -3.73659 0
M  V30 27496 H 2529.48 -3.05218 -2.55121 0
M  V30 27497 H 2526.22 -6.04966 -2.52382 0
M  V30 27498 H 2525.74 -4.75951 -3.65008 0
M  V30 27499 H 2527.42 -5.35365 -3.63309 0
M  V30 27500 N 2527.55 0.841385 -1.33261 0
M  V30 27501 C 2528.78 1.63383 -1.27753 0
M  V30 27502 C 2529.2 1.87508 0.149155 0
M  V30 27503 O 2528.56 1.43738 1.10495 0
M  V30 27504 C 2528.61 2.96261 -2.05576 0
M  V30 27505 O 2527.71 3.87451 -1.41264 0
M  V30 27506 H 2527.05 0.49761 -0.439636 0
M  V30 27507 H 2529.58 1.04696 -1.75784 0
M  V30 27508 H 2529.59 3.45979 -2.16247 0
M  V30 27509 H 2528.27 2.78025 -3.09314 0
M  V30 27510 H 2526.84 3.45935 -1.39223 0
M  V30 27511 N 2529.03 1.16688 1.05932 0
M  V30 27512 C 2530.45 0.912565 1.30937 0
M  V30 27513 C 2530.65 -0.432499 1.96804 0
M  V30 27514 O 2529.7 -1.17119 2.23695 0
M  V30 27515 C 2531.01 2.06433 2.18645 0
M  V30 27516 C 2532.56 2.10051 2.32051 0
M  V30 27517 C 2533.04 3.24592 3.23116 0
M  V30 27518 N 2534.53 3.24333 3.307 0
M  V30 27519 C 2535.26 4.09601 4.01266 0
M  V30 27520 N 2534.76 5.04965 4.74323 0
M  V30 27521 N 2536.55 3.97576 3.97354 0
M  V30 27522 H 2528.7 2.03279 0.615741 0
M  V30 27523 H 2530.97 0.88719 0.334062 0
M  V30 27524 H 2530.67 3.03606 1.77529 0
M  V30 27525 H 2530.55 2.00899 3.19248 0
M  V30 27526 H 2532.93 1.13469 2.72413 0
M  V30 27527 H 2533.01 2.19649 1.31103 0
M  V30 27528 H 2532.66 4.21435 2.83469 0
M  V30 27529 H 2532.59 3.1223 4.24052 0
M  V30 27530 H 2535.08 2.55281 2.78639 0
M  V30 27531 H 2535.39 5.66439 5.25706 0
M  V30 27532 H 2533.74 5.08941 4.73291 0
M  V30 27533 H 2536.93 3.22375 3.394 0
M  V30 27534 H 2537.1 4.64249 4.5208 0
M  V30 27535 N 2530.51 -1.24529 0.96594 0
M  V30 27536 C 2531.47 -2.23689 0.499586 0
M  V30 27537 C 2532.47 -1.5567 -0.402913 0
M  V30 27538 O 2533.66 -1.73064 -0.198619 0
M  V30 27539 C 2530.79 -3.39775 -0.276732 0
M  V30 27540 H 2531.99 -2.66461 1.37618 0
M  V30 27541 H 2529.54 -1.37111 0.750348 0
M  V30 27542 H 2530.27 -3.0244 -1.1705 0
M  V30 27543 H 2530.06 -3.90342 0.370895 0
M  V30 27544 H 2531.55 -4.13381 -0.592103 0
M  V30 27545 N 2531.99 -0.735845 -1.39367 0
M  V30 27546 C 2533.23 -0.28458 -2.00793 0
M  V30 27547 C 2533.56 1.12554 -1.58257 0
M  V30 27548 O 2532.84 1.76746 -0.81185 0
M  V30 27549 C 2533.12 -0.3874 -3.5801 0
M  V30 27550 C 2532.98 -1.83735 -4.10562 0
M  V30 27551 C 2534.29 0.229672 -4.395 0
M  V30 27552 H 2531.41 -0.104879 -0.729499 0
M  V30 27553 H 2534.06 -0.932159 -1.65562 0
M  V30 27554 H 2532.21 0.163938 -3.88154 0
M  V30 27555 H 2533.88 -2.44563 -3.91135 0
M  V30 27556 H 2532.12 -2.35839 -3.64091 0
M  V30 27557 H 2532.79 -1.86056 -5.19699 0
M  V30 27558 H 2535.27 -0.24033 -4.15405 0
M  V30 27559 H 2534.14 0.127389 -5.48752 0
M  V30 27560 H 2534.4 1.31583 -4.22064 0
M  V30 27561 N 2533.46 1.49999 -0.483543 0
M  V30 27562 C 2534.39 2.31644 0.293788 0
M  V30 27563 C 2535.37 1.39114 0.97884 0
M  V30 27564 O 2536.56 1.68031 0.973614 0
M  V30 27565 C 2533.69 3.19183 1.36892 0
M  V30 27566 C 2532.64 4.20366 0.804759 0
M  V30 27567 C 2531.97 4.96725 1.97911 0
M  V30 27568 C 2533.27 5.21945 -0.192404 0
M  V30 27569 H 2534.96 2.9688 -0.387668 0
M  V30 27570 H 2532.51 1.42769 -0.187881 0
M  V30 27571 H 2534.46 3.75103 1.9203 0
M  V30 27572 H 2533.19 2.51857 2.07932 0
M  V30 27573 H 2531.85 3.65565 0.275254 0
M  V30 27574 H 2531.49 4.25861 2.67678 0
M  V30 27575 H 2531.19 5.65176 1.60779 0
M  V30 27576 H 2532.72 5.55483 2.53516 0
M  V30 27577 H 2534.13 5.72663 0.270232 0
M  V30 27578 H 2532.53 5.98188 -0.478648 0
M  V30 27579 H 2533.6 4.71926 -1.11418 0
M  V30 27580 N 2534.94 0.216646 1.56104 0
M  V30 27581 C 2535.89 -0.711997 2.21435 0
M  V30 27582 C 2536.88 -1.20345 1.1922 0
M  V30 27583 O 2538.09 -1.16385 1.37312 0
M  V30 27584 H 2534.46 -0.248014 0.709925 0
M  V30 27585 H 2536.44 -0.137506 2.98083 0
M  V30 27586 C 2535.18 -1.91158 2.90438 0
M  V30 27587 H 2534.51 -1.54251 3.68845 0
M  V30 27588 H 2535.95 -2.53924 3.39557 0
M  V30 27589 C 2534.41 -2.7639 1.9264 0
M  V30 27590 O 2534.94 -3.74993 1.44024 0
M  V30 27591 N 2533.14 -2.42325 1.60396 0
M  V30 27592 H 2532.69 -1.62197 2.00125 0
M  V30 27593 H 2532.65 -2.99634 0.952212 0
M  V30 27594 N 2536.42 -1.57498 -0.0567885 0
M  V30 27595 C 2537.35 -2.00041 -1.09813 0
M  V30 27596 C 2538.33 -0.879843 -1.36739 0
M  V30 27597 O 2539.51 -1.14341 -1.49861 0
M  V30 27598 C 2536.64 -2.34991 -2.4392 0
M  V30 27599 C 2535.69 -3.57208 -2.33033 0
M  V30 27600 S 2536.52 -5.0746 -1.71011 0
M  V30 27601 C 2537.68 -5.45626 -3.06664 0
M  V30 27602 H 2537.91 -2.88055 -0.73565 0
M  V30 27603 H 2535.44 -1.52094 -0.265844 0
M  V30 27604 H 2537.4 -2.558 -3.21055 0
M  V30 27605 H 2536.06 -1.47478 -2.77325 0
M  V30 27606 H 2535.25 -3.79229 -3.31966 0
M  V30 27607 H 2534.86 -3.36107 -1.64037 0
M  V30 27608 H 2537.15 -5.44615 -4.0299 0
M  V30 27609 H 2538.09 -6.46257 -2.89408 0
M  V30 27610 H 2538.5 -4.73096 -3.07961 0
M  V30 27611 N 2537.9 0.328509 -1.54138 0
M  V30 27612 C 2539.14 1.06703 -1.72106 0
M  V30 27613 C 2539.47 1.88171 -0.492145 0
M  V30 27614 O 2538.73 1.88495 0.52612 0
M  V30 27615 C 2539.03 2.02388 -2.94574 0
M  V30 27616 C 2538.69 1.37115 -4.29547 0
M  V30 27617 C 2537.35 1.19044 -4.66242 0
M  V30 27618 C 2539.71 0.902241 -5.13331 0
M  V30 27619 C 2537.03 0.527229 -5.84326 0
M  V30 27620 C 2539.39 0.252876 -6.32094 0
M  V30 27621 C 2538.05 0.0599727 -6.67473 0
M  V30 27622 H 2537.32 0.390455 -0.629782 0
M  V30 27623 H 2539.97 0.344697 -1.88372 0
M  V30 27624 H 2538.27 2.81056 -2.72974 0
M  V30 27625 H 2539.97 2.59551 -3.0567 0
M  V30 27626 H 2536.56 1.52181 -4.00673 0
M  V30 27627 H 2540.74 1.02966 -4.85502 0
M  V30 27628 H 2536 0.366527 -6.103 0
M  V30 27629 H 2540.17 -0.118488 -6.96299 0
M  V30 27630 H 2537.8 -0.455962 -7.58831 0
M  V30 27631 N 2539.38 1.46127 0.590316 0
M  V30 27632 C 2540.79 1.45299 1.1724 0
M  V30 27633 C 2541.14 0.189758 1.9528 0
M  V30 27634 O 2540.26 -0.707638 2.04503 0
M  V30 27635 C 2540.86 2.63244 2.1328 0
M  V30 27636 C 2539.42 2.65481 2.66828 0
M  V30 27637 C 2538.56 2.37853 1.42553 0
M  V30 27638 H 2541.51 1.54116 0.378665 0
M  V30 27639 H 2541.54 2.38328 2.96614 0
M  V30 27640 H 2541.05 3.55168 1.56453 0
M  V30 27641 H 2539.15 1.77609 3.27545 0
M  V30 27642 H 2539.26 3.65221 3.10082 0
M  V30 27643 H 2537.63 1.87756 1.72104 0
M  V30 27644 H 2538.41 3.31944 0.875683 0
M  V30 27645 N 2540.85 -0.834306 1.33705 0
M  V30 27646 C 2542.13 -1.57481 1.16014 0
M  V30 27647 C 2542.51 -2.09344 -0.271723 0
M  V30 27648 O 2541.86 -1.8986 -1.27143 0
M  V30 27649 C 2542.07 -2.7051 2.20512 0
M  V30 27650 C 2543.42 -3.39572 2.54904 0
M  V30 27651 O 2544.44 -2.80755 2.19214 0
M  V30 27652 O 2543.3 -4.45759 3.16166 0
M  V30 27653 H 2540.39 -0.694495 0.449004 0
M  V30 27654 H 2542.94 -0.876666 1.45302 0
M  V30 27655 H 2541.71 -2.29859 3.16671 0
M  V30 27656 H 2541.33 -3.47984 1.92335 0
M  V30 27657 N 2542.33 -1.17248 -1.05312 0
M  V30 27658 C 2543.29 -0.890394 -2.11198 0
M  V30 27659 C 2544.29 0.118915 -1.6036 0
M  V30 27660 O 2545.48 -0.113116 -1.73832 0
M  V30 27661 C 2542.62 -0.333481 -3.39265 0
M  V30 27662 H 2543.81 -1.8292 -2.37656 0
M  V30 27663 H 2541.36 -0.98278 -1.21537 0
M  V30 27664 H 2542.1 0.612531 -3.18463 0
M  V30 27665 H 2541.88 -1.06089 -3.77475 0
M  V30 27666 H 2543.37 -0.154395 -4.17314 0
M  V30 27667 N 2543.81 1.24015 -0.972531 0
M  V30 27668 C 2544.76 2.25185 -0.506009 0
M  V30 27669 C 2545.73 1.5986 0.450981 0
M  V30 27670 O 2546.91 1.87368 0.360274 0
M  V30 27671 C 2544.05 3.4456 0.193028 0
M  V30 27672 C 2543.17 4.24466 -0.803296 0
M  V30 27673 C 2542.3 5.3114 -0.0798726 0
M  V30 27674 C 2541.34 6.02747 -1.06594 0
M  V30 27675 N 2540.48 7.01113 -0.372197 0
M  V30 27676 H 2545.32 2.64457 -1.37356 0
M  V30 27677 H 2542.85 1.29996 -0.688442 0
M  V30 27678 H 2544.81 4.12641 0.615052 0
M  V30 27679 H 2543.44 3.06111 1.0245 0
M  V30 27680 H 2542.49 3.55876 -1.34374 0
M  V30 27681 H 2543.81 4.73941 -1.55502 0
M  V30 27682 H 2542.96 6.05381 0.399908 0
M  V30 27683 H 2541.7 4.82585 0.704512 0
M  V30 27684 H 2540.7 5.27306 -1.55655 0
M  V30 27685 H 2541.93 6.53391 -1.85085 0
M  V30 27686 H 2539.87 6.54821 0.393123 0
M  V30 27687 H 2539.79 7.48494 -1.06271 0
M  V30 27688 H 2541.06 7.79453 0.0854562 0
M  V30 27689 N 2545.29 0.743226 1.38974 0
M  V30 27690 C 2546.22 0.123914 2.33171 0
M  V30 27691 C 2547.2 -0.715132 1.54337 0
M  V30 27692 O 2548.38 -0.658435 1.82697 0
M  V30 27693 C 2545.51 -0.777918 3.38476 0
M  V30 27694 C 2544.47 -0.0424006 4.27979 0
M  V30 27695 C 2543.79 -1.0618 5.24051 0
M  V30 27696 C 2545.09 1.11989 5.10153 0
M  V30 27697 H 2546.79 0.91076 2.85211 0
M  V30 27698 H 2544.33 0.439412 1.37132 0
M  V30 27699 H 2546.29 -1.22077 4.0333 0
M  V30 27700 H 2545.01 -1.59697 2.84894 0
M  V30 27701 H 2543.67 0.380917 3.64616 0
M  V30 27702 H 2543.32 -1.87463 4.66762 0
M  V30 27703 H 2543.02 -0.574382 5.84786 0
M  V30 27704 H 2544.54 -1.50418 5.91783 0
M  V30 27705 H 2545.96 0.75509 5.68306 0
M  V30 27706 H 2544.35 1.53748 5.8007 0
M  V30 27707 H 2545.42 1.93772 4.445 0
M  V30 27708 N 2546.77 -1.4974 0.491491 0
M  V30 27709 C 2548.01 -2.02721 -0.0564735 0
M  V30 27710 C 2548.35 -1.37121 -1.37519 0
M  V30 27711 O 2547.62 -0.503678 -1.87865 0
M  V30 27712 C 2547.9 -3.59434 -0.218988 0
M  V30 27713 C 2547.76 -4.35577 1.12219 0
M  V30 27714 C 2549.08 -4.29411 -0.964081 0
M  V30 27715 H 2546.19 -0.736754 -0.0190497 0
M  V30 27716 H 2548.84 -1.78859 0.641053 0
M  V30 27717 H 2546.99 -3.79896 -0.813098 0
M  V30 27718 H 2548.66 -4.26634 1.75445 0
M  V30 27719 H 2546.9 -3.9851 1.71384 0
M  V30 27720 H 2547.57 -5.43555 0.961889 0
M  V30 27721 H 2550.05 -4.13546 -0.460305 0
M  V30 27722 H 2548.92 -5.38829 -1.04662 0
M  V30 27723 H 2549.19 -3.93992 -2.00556 0
M  V30 27724 N 2548.24 -0.224922 -1.55987 0
M  V30 27725 C 2549.49 0.405866 -1.98391 0
M  V30 27726 C 2549.82 1.59533 -1.11264 0
M  V30 27727 O 2549.07 1.95058 -0.158348 0
M  V30 27728 C 2549.37 0.880046 -3.46396 0
M  V30 27729 C 2549.04 -0.199259 -4.5046 0
M  V30 27730 C 2547.7 -0.495745 -4.7864 0
M  V30 27731 C 2550.05 -0.929029 -5.12853 0
M  V30 27732 C 2547.38 -1.52646 -5.66495 0
M  V30 27733 C 2549.73 -1.9491 -6.01824 0
M  V30 27734 C 2548.4 -2.25247 -6.28347 0
M  V30 27735 H 2547.67 0.148517 -0.725964 0
M  V30 27736 H 2550.31 -0.328147 -1.88668 0
M  V30 27737 H 2548.62 1.69288 -3.5334 0
M  V30 27738 H 2550.32 1.37801 -3.76579 0
M  V30 27739 H 2546.91 0.0419772 -4.28579 0
M  V30 27740 H 2551.09 -0.713216 -4.91149 0
M  V30 27741 H 2546.35 -1.76708 -5.85307 0
M  V30 27742 H 2550.52 -2.51963 -6.49221 0
M  V30 27743 H 2548.15 -3.05256 -6.9622 0
M  V30 27744 N 2549.72 1.57526 0.0484352 0
M  V30 27745 C 2550.67 2.06343 1.07356 0
M  V30 27746 C 2551.66 0.973294 1.38648 0
M  V30 27747 O 2552.87 1.1583 1.37781 0
M  V30 27748 H 2549.25 0.658227 0.363651 0
M  V30 27749 H 2551.22 2.91546 0.635864 0
M  V30 27750 C 2549.97 2.54233 2.37193 0
M  V30 27751 H 2549.29 3.37723 2.13971 0
M  V30 27752 H 2550.73 2.92121 3.07313 0
M  V30 27753 C 2549.19 1.43517 3.04802 0
M  V30 27754 O 2549.72 0.79041 3.93847 0
M  V30 27755 N 2547.92 1.17448 2.65809 0
M  V30 27756 H 2547.47 1.70062 1.93485 0
M  V30 27757 H 2547.43 0.435792 3.11365 0
M  V30 27758 N 2551.2 -0.32033 1.5431 0
M  V30 27759 C 2552.43 -1.08172 1.76956 0
M  V30 27760 C 2552.85 -1.8082 0.518225 0
M  V30 27761 O 2552.21 -1.73369 -0.530381 0
M  V30 27762 C 2552.26 -2.05298 2.96454 0
M  V30 27763 O 2551.36 -3.13255 2.68226 0
M  V30 27764 H 2550.7 -0.311723 0.586281 0
M  V30 27765 H 2553.23 -0.36364 2.01343 0
M  V30 27766 H 2553.24 -2.4811 3.23891 0
M  V30 27767 H 2551.92 -1.51822 3.87199 0
M  V30 27768 H 2550.49 -2.75094 2.51749 0
M  V30 27769 N 2552.68 -1.46438 -0.582558 0
M  V30 27770 C 2553.61 -1.59874 -1.70184 0
M  V30 27771 C 2554.59 -0.449071 -1.64065 0
M  V30 27772 O 2555.77 -0.675332 -1.82079 0
M  V30 27773 C 2552.9 -1.58886 -3.08824 0
M  V30 27774 C 2551.86 -2.72824 -3.29774 0
M  V30 27775 C 2551.18 -2.56898 -4.68943 0
M  V30 27776 C 2552.48 -4.14646 -3.17594 0
M  V30 27777 H 2554.18 -2.53569 -1.59196 0
M  V30 27778 H 2551.72 -1.22033 -0.764451 0
M  V30 27779 H 2553.68 -1.6688 -3.86948 0
M  V30 27780 H 2552.4 -0.617362 -3.20712 0
M  V30 27781 H 2551.06 -2.643 -2.54049 0
M  V30 27782 H 2550.71 -1.57831 -4.77596 0
M  V30 27783 H 2550.41 -3.3332 -4.83913 0
M  V30 27784 H 2551.93 -2.66783 -5.49235 0
M  V30 27785 H 2553.35 -4.24281 -3.85563 0
M  V30 27786 H 2551.74 -4.91656 -3.44085 0
M  V30 27787 H 2552.81 -4.34791 -2.14673 0
M  V30 27788 N 2554.16 0.827204 -1.34146 0
M  V30 27789 C 2555.09 1.95285 -1.28008 0
M  V30 27790 C 2556.07 1.69361 -0.15835 0
M  V30 27791 O 2557.25 1.9102 -0.35002 0
M  V30 27792 C 2554.38 3.31662 -1.03041 0
M  V30 27793 C 2553.34 3.72015 -2.11634 0
M  V30 27794 C 2552.66 5.06327 -1.71863 0
M  V30 27795 C 2553.96 3.84563 -3.53424 0
M  V30 27796 H 2555.66 2.00678 -2.22191 0
M  V30 27797 H 2553.2 0.964116 -1.06962 0
M  V30 27798 H 2555.16 4.09991 -0.973935 0
M  V30 27799 H 2553.88 3.26557 -0.0529965 0
M  V30 27800 H 2552.54 2.95958 -2.16344 0
M  V30 27801 H 2552.19 4.97705 -0.727929 0
M  V30 27802 H 2551.89 5.34297 -2.44541 0
M  V30 27803 H 2553.41 5.87119 -1.67702 0
M  V30 27804 H 2554.82 4.53174 -3.5115 0
M  V30 27805 H 2553.22 4.23983 -4.24687 0
M  V30 27806 H 2554.29 2.86682 -3.91077 0
M  V30 27807 N 2555.63 1.17805 1.04688 0
M  V30 27808 C 2556.54 0.914189 2.16055 0
M  V30 27809 C 2557.56 -0.119472 1.73589 0
M  V30 27810 O 2558.74 0.0609822 2.01308 0
M  V30 27811 C 2555.8 0.436663 3.43939 0
M  V30 27812 C 2554.86 1.53753 4.00822 0
M  V30 27813 C 2554.1 1.0827 5.22603 0
M  V30 27814 O 2554.32 -0.0611242 5.70367 0
M  V30 27815 O 2553.25 1.87785 5.71857 0
M  V30 27816 H 2557.08 1.84588 2.41166 0
M  V30 27817 H 2554.66 0.959354 1.14528 0
M  V30 27818 H 2556.55 0.178131 4.21023 0
M  V30 27819 H 2555.22 -0.466813 3.20316 0
M  V30 27820 H 2554.13 1.85 3.25155 0
M  V30 27821 H 2555.46 2.4169 4.28774 0
M  V30 27822 N 2557.11 -1.23497 0.979094 0
M  V30 27823 C 2558.36 -1.92162 0.648212 0
M  V30 27824 C 2558.69 -1.76224 -0.816018 0
M  V30 27825 O 2557.97 -1.1224 -1.58847 0
M  V30 27826 C 2558.25 -3.44822 1.03779 0
M  V30 27827 C 2558.1 -3.69874 2.55955 0
M  V30 27828 C 2559.42 -4.36252 0.58073 0
M  V30 27829 H 2556.54 -0.697866 0.236964 0
M  V30 27830 H 2559.18 -1.45645 1.22014 0
M  V30 27831 H 2557.33 -3.84571 0.551126 0
M  V30 27832 H 2559 -3.39615 3.12185 0
M  V30 27833 H 2557.25 -3.14631 2.98647 0
M  V30 27834 H 2557.92 -4.76732 2.78263 0
M  V30 27835 H 2560.39 -4.03941 0.998536 0
M  V30 27836 H 2559.27 -5.41771 0.881759 0
M  V30 27837 H 2559.53 -4.39043 -0.518975 0
M  V30 27838 N 2558.59 -0.750586 -1.38578 0
M  V30 27839 C 2559.54 -0.110203 -2.32339 0
M  V30 27840 C 2560.53 0.708647 -1.53865 0
M  V30 27841 O 2561.74 0.608082 -1.69418 0
M  V30 27842 H 2558.11 -0.0168407 -0.751811 0
M  V30 27843 H 2560.09 -0.917102 -2.83957 0
M  V30 27844 C 2558.83 0.771007 -3.39044 0
M  V30 27845 H 2558.16 0.150304 -3.99517 0
M  V30 27846 H 2559.6 1.18642 -4.07063 0
M  V30 27847 C 2558.06 1.91229 -2.77368 0
M  V30 27848 O 2558.59 3.00621 -2.66439 0
M  V30 27849 N 2556.79 1.70642 -2.35222 0
M  V30 27850 H 2556.34 0.816687 -2.44311 0
M  V30 27851 H 2556.3 2.47175 -1.94298 0
M  V30 27852 N 2560.07 1.49477 -0.499425 0
M  V30 27853 C 2561.35 1.95298 0.108595 0
M  V30 27854 C 2561.73 1.44087 1.5428 0
M  V30 27855 O 2561.07 0.653946 2.18942 0
M  V30 27856 C 2561.28 3.48993 0.0228497 0
M  V30 27857 C 2562.63 4.2414 0.197568 0
M  V30 27858 O 2563.66 3.56065 0.0981109 0
M  V30 27859 O 2562.52 5.45023 0.401573 0
M  V30 27860 H 2559.61 0.82139 0.0961665 0
M  V30 27861 H 2562.16 1.60129 -0.561851 0
M  V30 27862 H 2560.93 3.78897 -0.977388 0
M  V30 27863 H 2560.55 3.90775 0.73351 0
M  V30 27864 N 2561.55 0.233191 1.55865 0
M  V30 27865 C 2562.48 -0.666559 2.23784 0
M  V30 27866 C 2563.46 -1.19203 1.21345 0
M  V30 27867 O 2564.64 -1.23389 1.49962 0
M  V30 27868 C 2561.77 -1.86973 2.92675 0
M  V30 27869 C 2560.73 -1.47761 4.01685 0
M  V30 27870 C 2560.05 -2.7605 4.57931 0
M  V30 27871 C 2561.35 -0.658902 5.18127 0
M  V30 27872 H 2563.05 -0.100253 2.99232 0
M  V30 27873 H 2560.59 -0.0467787 1.43924 0
M  V30 27874 H 2562.55 -2.50471 3.38884 0
M  V30 27875 H 2561.27 -2.46119 2.14693 0
M  V30 27876 H 2559.93 -0.866043 3.56224 0
M  V30 27877 H 2559.58 -3.33365 3.76665 0
M  V30 27878 H 2559.28 -2.50543 5.31509 0
M  V30 27879 H 2560.8 -3.4047 5.06865 0
M  V30 27880 H 2562.22 -1.19785 5.60646 0
M  V30 27881 H 2560.61 -0.500447 5.9801 0
M  V30 27882 H 2561.68 0.331941 4.83763 0
M  V30 27883 N 2563.03 -1.57549 -0.0400806 0
M  V30 27884 C 2563.96 -2.01194 -1.07686 0
M  V30 27885 C 2564.94 -0.894297 -1.35798 0
M  V30 27886 O 2566.12 -1.15924 -1.4864 0
M  V30 27887 C 2563.25 -2.37565 -2.41414 0
M  V30 27888 C 2562.29 -3.5966 -2.29231 0
M  V30 27889 S 2563.13 -5.09245 -1.65619 0
M  V30 27890 C 2564.28 -5.48848 -3.0086 0
M  V30 27891 H 2564.52 -2.88819 -0.705057 0
M  V30 27892 H 2562.05 -1.52368 -0.249698 0
M  V30 27893 H 2564.01 -2.59191 -3.18324 0
M  V30 27894 H 2562.67 -1.50412 -2.75745 0
M  V30 27895 H 2561.86 -3.82728 -3.27925 0
M  V30 27896 H 2561.46 -3.37828 -1.60463 0
M  V30 27897 H 2563.75 -5.48858 -3.97191 0
M  V30 27898 H 2564.7 -6.49291 -2.82537 0
M  V30 27899 H 2565.11 -4.76336 -3.02926 0
M  V30 27900 N 2564.5 0.312142 -1.54478 0
M  V30 27901 C 2565.47 1.36763 -1.83925 0
M  V30 27902 C 2566.47 1.44198 -0.711588 0
M  V30 27903 O 2567.66 1.44027 -0.979892 0
M  V30 27904 C 2564.79 2.75373 -2.00955 0
M  V30 27905 H 2565.98 1.11901 -2.78241 0
M  V30 27906 H 2563.53 0.548232 -1.4637 0
M  V30 27907 H 2564.27 3.05473 -1.08889 0
M  V30 27908 H 2564.05 2.71368 -2.83023 0
M  V30 27909 H 2565.54 3.51709 -2.25146 0
M  V30 27910 N 2565.98 1.46745 0.574784 0
M  V30 27911 C 2567.21 1.5629 1.36338 0
M  V30 27912 C 2567.63 0.20738 1.86953 0
M  V30 27913 O 2566.99 -0.813842 1.62007 0
M  V30 27914 C 2567.04 2.57791 2.52143 0
M  V30 27915 O 2566.14 2.11844 3.5383 0
M  V30 27916 H 2565.48 0.525643 0.405703 0
M  V30 27917 H 2568.01 1.92383 0.696419 0
M  V30 27918 H 2568.02 2.77653 2.98953 0
M  V30 27919 H 2566.7 3.56224 2.14657 0
M  V30 27920 H 2565.27 2.02005 3.13446 0
M  V30 27921 N 2567.46 -0.820078 1.34583 0
M  V30 27922 C 2568.71 -1.57334 1.26848 0
M  V30 27923 C 2569.03 -1.94337 -0.160633 0
M  V30 27924 O 2568.3 -1.62512 -1.09393 0
M  V30 27925 H 2566.88 -0.583407 0.466525 0
M  V30 27926 H 2569.54 -0.978998 1.68528 0
M  V30 27927 H 2568.64 -2.49487 1.87517 0
M  V30 27928 N 2568.94 -1.18359 -1.04062 0
M  V30 27929 C 2570.17 -1.00387 -1.80915 0
M  V30 27930 C 2570.58 0.447706 -1.83415 0
M  V30 27931 O 2569.94 1.31097 -1.26964 0
M  V30 27932 C 2569.99 -1.55149 -3.26513 0
M  V30 27933 O 2569.71 -2.94624 -3.24235 0
M  V30 27934 C 2571.21 -1.41796 -4.2001 0
M  V30 27935 H 2568.43 -0.354484 -0.569721 0
M  V30 27936 H 2570.97 -1.56909 -1.31149 0
M  V30 27937 H 2569.13 -1.02804 -3.7351 0
M  V30 27938 H 2569.54 -3.20164 -4.15446 0
M  V30 27939 H 2571.02 -1.84911 -5.20108 0
M  V30 27940 H 2571.49 -0.366687 -4.37667 0
M  V30 27941 H 2572.1 -1.93214 -3.78878 0
M  V30 27942 N 2570.42 1.22976 -0.98563 0
M  V30 27943 C 2571.37 2.22423 -0.501219 0
M  V30 27944 C 2572.35 1.55141 0.426622 0
M  V30 27945 O 2573.54 1.75159 0.254625 0
M  V30 27946 C 2570.67 3.42774 0.189942 0
M  V30 27947 C 2569.76 4.17275 -0.757776 0
M  V30 27948 N 2570.15 4.68652 -1.90259 0
M  V30 27949 C 2568.45 4.42315 -0.572168 0
M  V30 27950 C 2569.15 5.25388 -2.49685 0
M  V30 27951 N 2568.12 5.13623 -1.78022 0
M  V30 27952 H 2571.92 2.5978 -1.37446 0
M  V30 27953 H 2569.44 1.38565 -0.846965 0
M  V30 27954 H 2571.44 4.13198 0.554317 0
M  V30 27955 H 2570.1 3.06931 1.0594 0
M  V30 27956 H 2571.11 4.64835 -2.28362 0
M  V30 27957 H 2567.78 4.1674 0.251836 0
M  V30 27958 H 2569.17 5.75726 -3.46395 0
M  V30 27959 N 2571.89 0.757924 1.38178 0
M  V30 27960 C 2573.3 0.383166 1.82726 0
M  V30 27961 C 2573.66 -1.08881 1.63216 0
M  V30 27962 O 2572.78 -1.84203 1.1357 0
M  V30 27963 C 2573.38 0.688689 3.31727 0
M  V30 27964 C 2571.93 0.367157 3.74605 0
M  V30 27965 C 2571.08 0.939645 2.60895 0
M  V30 27966 H 2574.03 0.953721 1.26846 0
M  V30 27967 H 2574.05 -0.0315823 3.80487 0
M  V30 27968 H 2573.57 1.76007 3.45895 0
M  V30 27969 H 2571.67 -0.697468 3.66014 0
M  V30 27970 H 2571.78 0.865741 4.71213 0
M  V30 27971 H 2570.14 0.364745 2.52075 0
M  V30 27972 H 2570.93 2.01615 2.7786 0
M  V30 27973 N 2573.37 -1.4921 0.507345 0
M  V30 27974 C 2574.3 -2.32082 -0.256899 0
M  V30 27975 C 2575.28 -1.40654 -0.956584 0
M  V30 27976 O 2576.47 -1.69559 -0.946759 0
M  V30 27977 C 2573.6 -3.21321 -1.31797 0
M  V30 27978 C 2572.55 -4.21593 -0.737781 0
M  V30 27979 C 2571.88 -4.9981 -1.89983 0
M  V30 27980 C 2573.18 -5.21573 0.275417 0
M  V30 27981 H 2574.87 -2.96225 0.43485 0
M  V30 27982 H 2572.42 -1.42452 0.210571 0
M  V30 27983 H 2574.37 -3.78111 -1.86038 0
M  V30 27984 H 2573.1 -2.55133 -2.03899 0
M  V30 27985 H 2571.75 -3.65957 -0.217061 0
M  V30 27986 H 2571.4 -4.30065 -2.60869 0
M  V30 27987 H 2571.1 -5.67662 -1.51767 0
M  V30 27988 H 2572.63 -5.59446 -2.44647 0
M  V30 27989 H 2574.04 -5.7302 -0.179093 0
M  V30 27990 H 2572.44 -5.97351 0.573754 0
M  V30 27991 H 2573.51 -4.70094 1.18912 0
M  V30 27992 N 2574.85 -0.241454 -1.55739 0
M  V30 27993 C 2576.26 0.262722 -1.84842 0
M  V30 27994 C 2576.61 1.58001 -1.1632 0
M  V30 27995 O 2575.74 2.11886 -0.43969 0
M  V30 27996 C 2576.33 0.483464 -3.35333 0
M  V30 27997 C 2574.89 0.931913 -3.64681 0
M  V30 27998 C 2574.04 0.00606635 -2.77299 0
M  V30 27999 H 2576.99 -0.464155 -1.51761 0
M  V30 28000 H 2577.01 1.32682 -3.56617 0
M  V30 28001 H 2576.52 -0.475437 -3.85177 0
M  V30 28002 H 2574.62 1.90347 -3.2031 0
M  V30 28003 H 2574.74 0.792545 -4.72499 0
M  V30 28004 H 2573.1 0.51646 -2.49409 0
M  V30 28005 H 2573.88 -0.94811 -3.29948 0
M  V30 28006 N 2576.33 1.57568 0.0317248 0
M  V30 28007 C 2577.74 1.77506 0.57866 0
M  V30 28008 C 2578.09 0.872195 1.75748 0
M  V30 28009 O 2577.22 0.0663487 2.16298 0
M  V30 28010 C 2577.81 3.21905 1.05652 0
M  V30 28011 C 2576.37 3.4305 1.549 0
M  V30 28012 C 2575.52 2.7301 0.485891 0
M  V30 28013 H 2578.47 1.57504 -0.194502 0
M  V30 28014 H 2578.49 3.28273 1.92399 0
M  V30 28015 H 2578 3.87593 0.198354 0
M  V30 28016 H 2576.1 2.82534 2.4291 0
M  V30 28017 H 2576.21 4.51653 1.59833 0
M  V30 28018 H 2574.58 2.36707 0.940313 0
M  V30 28019 H 2575.36 3.41378 -0.362769 0
M  V30 28020 N 2577.81 -0.303946 1.54641 0
M  V30 28021 C 2579.03 -1.06289 1.78094 0
M  V30 28022 C 2579.46 -1.80261 0.537374 0
M  V30 28023 O 2578.81 -1.73921 -0.511963 0
M  V30 28024 C 2578.86 -2.02142 2.98615 0
M  V30 28025 O 2577.97 -3.10392 2.71534 0
M  V30 28026 H 2577.31 -0.305487 0.589554 0
M  V30 28027 H 2579.84 -0.342265 2.01717 0
M  V30 28028 H 2579.85 -2.44661 3.26504 0
M  V30 28029 H 2578.52 -1.47707 3.88787 0
M  V30 28030 H 2577.1 -2.72409 2.54652 0
M  V30 28031 N 2579.28 -1.47047 -0.566994 0
M  V30 28032 C 2580.25 -1.58362 -1.65693 0
M  V30 28033 C 2581.25 -0.459469 -1.54096 0
M  V30 28034 O 2582.44 -0.724253 -1.5843 0
M  V30 28035 C 2579.57 -1.51885 -3.05195 0
M  V30 28036 H 2580.76 -2.55512 -1.57014 0
M  V30 28037 H 2578.32 -1.35092 -0.786125 0
M  V30 28038 H 2579.05 -0.560729 -3.19416 0
M  V30 28039 H 2578.84 -2.33461 -3.15021 0
M  V30 28040 H 2580.33 -1.6292 -3.84508 0
M  V30 28041 N 2580.76 0.812929 -1.35016 0
M  V30 28042 C 2582.01 1.56476 -1.27272 0
M  V30 28043 C 2582.32 1.95003 0.152737 0
M  V30 28044 O 2583.53 2.69203 0.352404 0
M  V30 28045 C 2581.99 2.82358 -2.23164 0
M  V30 28046 C 2581.59 2.51094 -3.7102 0
M  V30 28047 C 2583.34 3.60372 -2.24349 0
M  V30 28048 C 2581.25 3.73229 -4.58753 0
M  V30 28049 H 2580.18 0.587315 -0.472839 0
M  V30 28050 H 2582.83 0.894143 -1.60241 0
M  V30 28051 H 2581.21 3.51097 -1.83157 0
M  V30 28052 H 2582.38 1.90401 -4.19624 0
M  V30 28053 H 2580.7 1.86337 -3.72381 0
M  V30 28054 H 2583.29 4.51076 -2.87115 0
M  V30 28055 H 2583.64 3.97232 -1.24549 0
M  V30 28056 H 2584.17 2.98587 -2.62851 0
M  V30 28057 H 2580.91 3.41482 -5.59527 0
M  V30 28058 H 2580.43 4.33169 -4.14879 0
M  V30 28059 H 2582.11 4.40529 -4.7386 0
M  V30 28060 N 2582.24 1.18909 1.03433 0
M  V30 28061 C 2583.17 0.865247 2.1116 0
M  V30 28062 C 2584.15 -0.175444 1.61651 0
M  V30 28063 O 2585.34 -0.0529798 1.88426 0
M  V30 28064 C 2582.46 0.293927 3.37422 0
M  V30 28065 C 2581.51 1.31281 4.05793 0
M  V30 28066 S 2582.34 2.87118 4.52022 0
M  V30 28067 C 2583.5 2.31514 5.81508 0
M  V30 28068 H 2583.73 1.77758 2.38305 0
M  V30 28069 H 2581.26 1.01564 1.16293 0
M  V30 28070 H 2583.22 -0.029185 4.1049 0
M  V30 28071 H 2581.88 -0.596628 3.08382 0
M  V30 28072 H 2581.08 0.862067 4.96573 0
M  V30 28073 H 2580.68 1.58248 3.38871 0
M  V30 28074 H 2582.97 1.70169 6.55781 0
M  V30 28075 H 2583.91 3.2062 6.31355 0
M  V30 28076 H 2584.32 1.74296 5.36918 0
M  V30 28077 N 2583.72 -1.22452 0.992137 0
M  V30 28078 C 2585.13 -1.43296 0.702739 0
M  V30 28079 C 2585.33 -1.87933 -0.726876 0
M  V30 28080 O 2584.39 -2.03273 -1.49788 0
M  V30 28081 C 2585.7 -2.47506 1.70766 0
M  V30 28082 C 2587.25 -2.61306 1.72302 0
M  V30 28083 C 2587.73 -3.68737 2.71656 0
M  V30 28084 N 2589.22 -3.76194 2.70245 0
M  V30 28085 C 2589.95 -4.58911 3.43786 0
M  V30 28086 N 2589.45 -5.45626 4.26924 0
M  V30 28087 N 2591.24 -4.53214 3.32495 0
M  V30 28088 H 2583.39 -0.917837 1.91545 0
M  V30 28089 H 2585.66 -0.465148 0.82604 0
M  V30 28090 H 2585.36 -2.21652 2.73063 0
M  V30 28091 H 2585.24 -3.46096 1.49991 0
M  V30 28092 H 2587.62 -2.86505 0.707039 0
M  V30 28093 H 2587.7 -1.62994 1.97146 0
M  V30 28094 H 2587.35 -3.44286 3.73403 0
M  V30 28095 H 2587.28 -4.66617 2.44082 0
M  V30 28096 H 2589.77 -3.14234 2.09918 0
M  V30 28097 H 2590.08 -6.05763 4.79866 0
M  V30 28098 H 2588.43 -5.4521 4.31011 0
M  V30 28099 H 2591.62 -3.84494 2.66987 0
M  V30 28100 H 2591.79 -5.17448 3.90067 0
M  V30 28101 N 2585.2 -0.765242 -1.37774 0
M  V30 28102 C 2586.44 -0.325978 -1.99454 0
M  V30 28103 C 2586.77 1.09944 -1.61051 0
M  V30 28104 O 2586.04 1.7538 -0.872851 0
M  V30 28105 H 2584.62 -0.117538 -0.737695 0
M  V30 28106 H 2587.28 -0.981924 -1.68358 0
M  V30 28107 H 2586.37 -0.398407 -3.09547 0
M  V30 28108 N 2586.67 1.48939 -0.515251 0
M  V30 28109 C 2587.92 2.02086 0.0241316 0
M  V30 28110 C 2588.24 1.39593 1.36157 0
M  V30 28111 O 2587.51 0.556154 1.8784 0
M  V30 28112 H 2586.09 0.746905 0.0119072 0
M  V30 28113 H 2588.76 1.82811 -0.675734 0
M  V30 28114 H 2587.85 3.11771 0.143331 0
M  V30 28115 N 2588.15 0.249709 1.55609 0
M  V30 28116 C 2589.1 -0.664867 2.22895 0
M  V30 28117 C 2590.1 -1.1779 1.21746 0
M  V30 28118 O 2591.3 -1.13446 1.3975 0
M  V30 28119 H 2587.68 -0.232899 0.715026 0
M  V30 28120 H 2589.65 -0.0742473 2.98308 0
M  V30 28121 C 2588.4 -1.84954 2.94427 0
M  V30 28122 H 2587.72 -1.46393 3.72034 0
M  V30 28123 H 2589.16 -2.46664 3.44866 0
M  V30 28124 C 2587.62 -2.72242 1.98459 0
M  V30 28125 O 2588.15 -3.71854 1.51946 0
M  V30 28126 N 2586.35 -2.38868 1.655 0
M  V30 28127 H 2585.9 -1.57915 2.0352 0
M  V30 28128 H 2585.86 -2.97546 1.01555 0
M  V30 28129 N 2589.63 -1.57583 -0.0233682 0
M  V30 28130 C 2590.91 -1.80701 -0.748762 0
M  V30 28131 C 2591.29 -0.84914 -1.93269 0
M  V30 28132 O 2590.64 0.107428 -2.28247 0
M  V30 28133 C 2590.85 -3.28573 -1.17646 0
M  V30 28134 C 2592.19 -3.93705 -1.59001 0
M  V30 28135 O 2593.22 -3.32757 -1.27088 0
M  V30 28136 O 2592.08 -5.01026 -2.18255 0
M  V30 28137 H 2589.17 -0.743287 -0.362564 0
M  V30 28138 H 2591.72 -1.697 0.000291787 0
M  V30 28139 H 2590.49 -3.89893 -0.331534 0
M  V30 28140 H 2590.11 -3.44485 -1.98535 0
M  V30 28141 N 2591.11 0.29574 -1.548 0
M  V30 28142 C 2592.36 1.02795 -1.7354 0
M  V30 28143 C 2592.67 1.88249 -0.531192 0
M  V30 28144 O 2593.88 2.64776 -0.600505 0
M  V30 28145 C 2592.33 1.87738 -3.07054 0
M  V30 28146 C 2591.94 1.07262 -4.3497 0
M  V30 28147 C 2593.69 2.60527 -3.35151 0
M  V30 28148 C 2591.59 1.91511 -5.59533 0
M  V30 28149 H 2590.52 0.387511 -0.646801 0
M  V30 28150 H 2593.17 0.284687 -1.81278 0
M  V30 28151 H 2591.56 2.66073 -2.93294 0
M  V30 28152 H 2592.73 0.335036 -4.5958 0
M  V30 28153 H 2591.04 0.460311 -4.13848 0
M  V30 28154 H 2593.64 3.23922 -4.25416 0
M  V30 28155 H 2593.98 3.29632 -2.54261 0
M  V30 28156 H 2594.52 1.89238 -3.49906 0
M  V30 28157 H 2591.26 1.26867 -6.43106 0
M  V30 28158 H 2590.78 2.62928 -5.391 0
M  V30 28159 H 2592.46 2.49432 -5.96986 0
M  V30 28160 N 2592.59 1.47346 0.559187 0
M  V30 28161 C 2593.83 1.54097 1.3184 0
M  V30 28162 C 2594.17 0.20176 1.93149 0
M  V30 28163 O 2593.44 -0.789397 1.7776 0
M  V30 28164 C 2593.72 2.65749 2.43001 0
M  V30 28165 C 2593.58 4.0928 1.86574 0
M  V30 28166 C 2594.9 2.73324 3.44938 0
M  V30 28167 H 2592.02 0.560966 0.478002 0
M  V30 28168 H 2594.66 1.79393 0.625945 0
M  V30 28169 H 2592.81 2.44311 3.02067 0
M  V30 28170 H 2594.48 4.42075 1.31784 0
M  V30 28171 H 2592.72 4.17651 1.17261 0
M  V30 28172 H 2593.39 4.83172 2.66924 0
M  V30 28173 H 2595.87 2.92659 2.95787 0
M  V30 28174 H 2594.75 3.53225 4.20147 0
M  V30 28175 H 2595.01 1.80304 4.03662 0
M  V30 28176 N 2594.07 -0.805758 1.35445 0
M  V30 28177 C 2595.29 -1.59938 1.3204 0
M  V30 28178 C 2595.72 -1.87837 -0.0993885 0
M  V30 28179 O 2595.07 -1.46617 -1.06645 0
M  V30 28180 C 2595.12 -2.90707 2.13359 0
M  V30 28181 O 2594.23 -3.83569 1.51487 0
M  V30 28182 H 2593.57 -0.485779 0.452675 0
M  V30 28183 H 2596.1 -0.999987 1.78498 0
M  V30 28184 H 2596.11 -3.40124 2.25344 0
M  V30 28185 H 2594.78 -2.69726 3.16577 0
M  V30 28186 H 2593.36 -3.42122 1.48346 0
M  V30 28187 N 2595.54 -1.19456 -1.02801 0
M  V30 28188 C 2596.96 -0.94696 -1.28471 0
M  V30 28189 C 2597.16 0.380168 -1.97881 0
M  V30 28190 O 2596.22 1.11147 -2.26721 0
M  V30 28191 C 2597.53 -2.12158 -2.13095 0
M  V30 28192 C 2599.08 -2.1613 -2.264 0
M  V30 28193 C 2599.55 -3.33045 -3.14396 0
M  V30 28194 N 2601.04 -3.32986 -3.21985 0
M  V30 28195 C 2601.78 -4.20096 -3.90265 0
M  V30 28196 N 2601.27 -5.17363 -4.60768 0
M  V30 28197 N 2603.07 -4.07971 -3.86673 0
M  V30 28198 H 2595.22 -2.0484 -0.561629 0
M  V30 28199 H 2597.48 -0.895736 -0.310422 0
M  V30 28200 H 2597.19 -3.08206 -1.69417 0
M  V30 28201 H 2597.06 -2.09293 -3.13809 0
M  V30 28202 H 2599.45 -1.20652 -2.69309 0
M  V30 28203 H 2599.53 -2.23048 -1.25233 0
M  V30 28204 H 2599.17 -4.28803 -2.72196 0
M  V30 28205 H 2599.1 -3.23364 -4.15624 0
M  V30 28206 H 2601.59 -2.62579 -2.71773 0
M  V30 28207 H 2601.91 -5.80178 -5.10503 0
M  V30 28208 H 2600.25 -5.2131 -4.59631 0
M  V30 28209 H 2603.44 -3.3126 -3.30733 0
M  V30 28210 H 2603.62 -4.76072 -4.39613 0
M  V30 28211 N 2597.02 1.21924 -0.998617 0
M  V30 28212 C 2598.27 1.91106 -0.678701 0
M  V30 28213 C 2598.6 1.775 0.787879 0
M  V30 28214 O 2597.88 1.14753 1.57041 0
M  V30 28215 C 2598.16 3.43127 -1.09251 0
M  V30 28216 C 2598.01 3.65756 -2.61807 0
M  V30 28217 C 2599.33 4.35273 -0.650061 0
M  V30 28218 H 2596.45 0.694008 -0.248037 0
M  V30 28219 H 2599.09 1.43686 -1.24316 0
M  V30 28220 H 2597.24 3.83646 -0.612238 0
M  V30 28221 H 2598.91 3.34605 -3.17549 0
M  V30 28222 H 2597.16 3.0984 -3.03614 0
M  V30 28223 H 2597.83 4.72245 -2.85813 0
M  V30 28224 H 2600.3 4.02301 -1.06267 0
M  V30 28225 H 2599.18 5.403 -0.967838 0
M  V30 28226 H 2599.44 4.39813 0.449061 0
M  V30 28227 N 2598.5 0.772537 1.37367 0
M  V30 28228 C 2599.75 0.333896 1.98917 0
M  V30 28229 C 2600.06 -1.09586 1.62019 0
M  V30 28230 O 2601.27 -1.63593 2.16679 0
M  V30 28231 C 2599.72 0.546033 3.55734 0
M  V30 28232 C 2599.33 1.9861 4.01569 0
M  V30 28233 C 2601.08 0.171054 4.24155 0
M  V30 28234 C 2598.98 2.14579 5.51099 0
M  V30 28235 H 2597.91 0.121098 0.744212 0
M  V30 28236 H 2600.56 0.951778 1.56887 0
M  V30 28237 H 2598.95 -0.141317 3.95748 0
M  V30 28238 H 2600.12 2.70847 3.72798 0
M  V30 28239 H 2598.43 2.31775 3.45933 0
M  V30 28240 H 2601.03 0.268874 5.34024 0
M  V30 28241 H 2601.37 -0.878783 4.06919 0
M  V30 28242 H 2601.91 0.810983 3.89446 0
M  V30 28243 H 2598.65 3.17885 5.73262 0
M  V30 28244 H 2598.17 1.46827 5.81551 0
M  V30 28245 H 2599.85 1.94479 6.17079 0
M  V30 28246 N 2599.98 -1.48664 0.523142 0
M  V30 28247 C 2601.25 -1.95446 -0.0775105 0
M  V30 28248 C 2601.63 -1.46523 -1.51968 0
M  V30 28249 O 2600.98 -0.688695 -2.17874 0
M  V30 28250 C 2601.19 -3.48985 0.0326748 0
M  V30 28251 C 2602.54 -4.24401 -0.130066 0
M  V30 28252 O 2603.56 -3.56176 -0.0414516 0
M  V30 28253 O 2602.42 -5.45592 -0.314814 0
M  V30 28254 H 2599.52 -0.822816 -0.0830868 0
M  V30 28255 H 2602.06 -1.59215 0.587255 0
M  V30 28256 H 2600.84 -3.77294 1.03754 0
M  V30 28257 H 2600.46 -3.91893 -0.671248 0
M  V30 28258 N 2601.46 -0.257958 -1.55475 0
M  V30 28259 C 2602.7 0.363693 -1.99207 0
M  V30 28260 C 2603.03 1.57137 -1.14622 0
M  V30 28261 O 2602.29 1.94679 -0.199687 0
M  V30 28262 C 2602.58 0.806372 -3.48184 0
M  V30 28263 C 2602.25 -0.294763 -4.49936 0
M  V30 28264 C 2600.91 -0.59716 -4.7748 0
M  V30 28265 C 2603.26 -1.0376 -5.10767 0
M  V30 28266 C 2600.59 -1.64628 -5.63129 0
M  V30 28267 C 2602.94 -2.07632 -5.97555 0
M  V30 28268 C 2601.61 -2.38525 -6.23428 0
M  V30 28269 H 2600.88 0.133085 -0.728951 0
M  V30 28270 H 2603.53 -0.368092 -1.87929 0
M  V30 28271 H 2601.83 1.61755 -3.56851 0
M  V30 28272 H 2603.53 1.29782 -3.79417 0
M  V30 28273 H 2600.12 -0.0489403 -4.28572 0
M  V30 28274 H 2604.3 -0.817235 -4.89525 0
M  V30 28275 H 2599.56 -1.89084 -5.81427 0
M  V30 28276 H 2603.73 -2.65677 -6.4373 0
M  V30 28277 H 2601.36 -3.19956 -6.89589 0
M  V30 28278 N 2602.93 1.57593 0.0150108 0
M  V30 28279 C 2604.21 1.81096 0.739168 0
M  V30 28280 C 2604.59 0.859378 1.92816 0
M  V30 28281 O 2603.94 -0.0953219 2.28301 0
M  V30 28282 C 2604.15 3.29193 1.15901 0
M  V30 28283 C 2605.5 3.94543 1.56911 0
M  V30 28284 O 2606.52 3.33426 1.25322 0
M  V30 28285 O 2605.38 5.02176 2.15595 0
M  V30 28286 H 2602.47 0.7452 0.358618 0
M  V30 28287 H 2605.02 1.69697 -0.00929139 0
M  V30 28288 H 2603.79 3.90063 0.310853 0
M  V30 28289 H 2603.42 3.45533 1.96705 0
M  V30 28290 N 2604.41 -0.287527 1.54955 0
M  V30 28291 C 2605.64 -1.04394 1.79211 0
M  V30 28292 C 2606.06 -1.79681 0.556463 0
M  V30 28293 O 2605.42 -1.74455 -0.493487 0
M  V30 28294 C 2605.47 -1.98963 3.00742 0
M  V30 28295 O 2604.57 -3.07495 2.7481 0
M  V30 28296 H 2603.91 -0.299217 0.592761 0
M  V30 28297 H 2606.44 -0.320851 2.02069 0
M  V30 28298 H 2606.45 -2.41184 3.29081 0
M  V30 28299 H 2605.13 -1.43575 3.90332 0
M  V30 28300 H 2603.71 -2.69693 2.57527 0
M  V30 28301 N 2605.89 -1.47641 -0.551365 0
M  V30 28302 C 2607.14 -1.53824 -1.30464 0
M  V30 28303 C 2607.45 -0.207695 -1.94494 0
M  V30 28304 O 2608.66 -0.14758 -2.71099 0
M  V30 28305 C 2607.11 -2.71188 -2.36612 0
M  V30 28306 C 2606.72 -4.10796 -1.78746 0
M  V30 28307 C 2608.47 -2.86669 -3.13083 0
M  V30 28308 C 2606.37 -5.19452 -2.82708 0
M  V30 28309 H 2605.3 -0.572585 -0.490574 0
M  V30 28310 H 2607.95 -1.73928 -0.584909 0
M  V30 28311 H 2606.34 -2.44475 -3.11525 0
M  V30 28312 H 2607.51 -4.47437 -1.10165 0
M  V30 28313 H 2605.83 -4.00251 -1.14839 0
M  V30 28314 H 2608.42 -3.65013 -3.90729 0
M  V30 28315 H 2608.77 -1.95328 -3.67631 0
M  V30 28316 H 2609.3 -3.1318 -2.45282 0
M  V30 28317 H 2606.04 -6.12689 -2.33008 0
M  V30 28318 H 2605.56 -4.87322 -3.49681 0
M  V30 28319 H 2607.24 -5.46652 -3.46093 0
M  V30 28320 N 2607.37 0.798563 -1.3587 0
M  V30 28321 C 2608.61 1.55773 -1.30791 0
M  V30 28322 C 2608.97 1.92059 0.114525 0
M  V30 28323 O 2608.26 1.59149 1.06688 0
M  V30 28324 C 2608.46 2.85073 -2.15565 0
M  V30 28325 C 2608.29 2.61422 -3.65908 0
M  V30 28326 C 2607.06 2.56908 -4.35117 0
M  V30 28327 C 2609.25 2.31247 -4.59379 0
M  V30 28328 N 2607.24 2.25058 -5.71159 0
M  V30 28329 C 2608.61 2.09306 -5.83602 0
M  V30 28330 C 2610.66 2.17177 -4.48039 0
M  V30 28331 C 2609.36 1.74719 -6.97758 0
M  V30 28332 C 2611.39 1.83988 -5.62052 0
M  V30 28333 C 2610.75 1.62888 -6.85308 0
M  V30 28334 H 2606.85 0.571412 -0.533865 0
M  V30 28335 H 2609.44 0.934049 -1.70832 0
M  V30 28336 H 2607.61 3.45323 -1.77782 0
M  V30 28337 H 2609.34 3.50715 -2.01944 0
M  V30 28338 H 2606.09 2.71836 -3.87817 0
M  V30 28339 H 2606.52 2.11905 -6.42982 0
M  V30 28340 H 2611.16 2.32184 -3.53342 0
M  V30 28341 H 2608.88 1.5845 -7.92414 0
M  V30 28342 H 2612.46 1.73798 -5.55235 0
M  V30 28343 H 2611.34 1.37582 -7.72037 0
M  V30 28344 N 2608.85 1.19999 1.02166 0
M  V30 28345 C 2609.76 0.959811 2.14067 0
M  V30 28346 C 2610.77 -0.0826244 1.73804 0
M  V30 28347 O 2611.95 0.103669 2.01133 0
M  V30 28348 C 2609.01 0.509519 3.42936 0
M  V30 28349 C 2608.07 1.6222 3.97471 0
M  V30 28350 C 2607.31 1.1933 5.20188 0
M  V30 28351 O 2607.53 0.0598729 5.70369 0
M  V30 28352 O 2606.46 1.99873 5.67745 0
M  V30 28353 H 2610.29 1.89662 2.37196 0
M  V30 28354 H 2607.88 0.983431 1.12468 0
M  V30 28355 H 2609.76 0.267396 4.20551 0
M  V30 28356 H 2608.43 -0.398764 3.21234 0
M  V30 28357 H 2607.34 1.91856 3.21158 0
M  V30 28358 H 2608.67 2.50731 4.2355 0
M  V30 28359 N 2610.32 -1.21392 1.00507 0
M  V30 28360 C 2611.27 -2.23764 0.565535 0
M  V30 28361 C 2612.24 -1.61 -0.408438 0
M  V30 28362 O 2613.43 -1.88257 -0.31047 0
M  V30 28363 C 2610.57 -3.4495 -0.101606 0
M  V30 28364 C 2609.68 -4.22187 0.915554 0
M  V30 28365 C 2608.81 -5.30741 0.220667 0
M  V30 28366 C 2607.85 -5.99709 1.22537 0
M  V30 28367 N 2606.99 -6.99879 0.557954 0
M  V30 28368 H 2611.83 -2.60722 1.44319 0
M  V30 28369 H 2609.37 -1.28125 0.722666 0
M  V30 28370 H 2611.33 -4.14127 -0.505432 0
M  V30 28371 H 2609.96 -3.0872 -0.942976 0
M  V30 28372 H 2609.01 -3.52188 1.43762 0
M  V30 28373 H 2610.32 -4.69652 1.68013 0
M  V30 28374 H 2609.47 -6.06228 -0.239262 0
M  V30 28375 H 2608.21 -4.84283 -0.576315 0
M  V30 28376 H 2607.22 -5.22994 1.69581 0
M  V30 28377 H 2608.44 -6.48255 2.02344 0
M  V30 28378 H 2606.39 -6.55633 -0.21937 0
M  V30 28379 H 2606.31 -7.45413 1.26078 0
M  V30 28380 H 2607.57 -7.79406 0.121232 0
M  V30 28381 N 2611.8 -0.779811 -1.36955 0
M  V30 28382 C 2613.21 -0.412188 -1.82093 0
M  V30 28383 C 2613.56 1.0627 -1.64927 0
M  V30 28384 O 2612.69 1.82373 -1.16486 0
M  V30 28385 C 2613.28 -0.741377 -3.30589 0
M  V30 28386 C 2611.84 -0.426707 -3.73973 0
M  V30 28387 C 2610.99 -0.981032 -2.59367 0
M  V30 28388 H 2613.94 -0.97378 -1.25312 0
M  V30 28389 H 2613.96 -0.0289539 -3.80489 0
M  V30 28390 H 2613.47 -1.81488 -3.43051 0
M  V30 28391 H 2611.58 0.63915 -3.67077 0
M  V30 28392 H 2611.69 -0.940597 -4.69776 0
M  V30 28393 H 2610.05 -0.404802 -2.51463 0
M  V30 28394 H 2610.84 -2.0601 -2.74618 0
M  V30 28395 N 2613.28 1.48384 -0.531019 0
M  V30 28396 C 2614.51 2.074 0.000693079 0
M  V30 28397 C 2614.93 1.38482 1.27296 0
M  V30 28398 O 2614.29 0.451111 1.75598 0
M  V30 28399 C 2614.34 3.60007 0.206634 0
M  V30 28400 O 2613.44 3.92193 1.27507 0
M  V30 28401 H 2612.78 0.662818 -0.0395946 0
M  V30 28402 H 2615.31 1.90779 -0.739228 0
M  V30 28403 H 2615.32 4.05739 0.428969 0
M  V30 28404 H 2614 4.09572 -0.722747 0
M  V30 28405 H 2612.57 3.5824 1.03531 0
M  V30 28406 N 2614.76 0.2662 1.55336 0
M  V30 28407 C 2616.04 -0.404452 1.91373 0
M  V30 28408 C 2616.42 -1.74405 1.18938 0
M  V30 28409 O 2615.76 -2.26343 0.31324 0
M  V30 28410 C 2615.97 -0.553532 3.44582 0
M  V30 28411 C 2617.32 -0.840545 4.16197 0
M  V30 28412 O 2618.35 -0.638677 3.50427 0
M  V30 28413 O 2617.2 -1.22608 5.32569 0
M  V30 28414 H 2614.3 -0.220011 0.797198 0
M  V30 28415 H 2616.84 0.311694 1.66813 0
M  V30 28416 H 2615.62 0.389566 3.89356 0
M  V30 28417 H 2615.24 -1.31949 3.75067 0
M  V30 28418 N 2616.24 -1.57599 -0.0066531 0
M  V30 28419 C 2617.17 -2.11038 -0.999259 0
M  V30 28420 C 2618.15 -1.01798 -1.36276 0
M  V30 28421 O 2619.33 -1.29445 -1.44768 0
M  V30 28422 C 2616.46 -2.60822 -2.29323 0
M  V30 28423 C 2615.42 -3.74529 -2.07153 0
M  V30 28424 C 2614.74 -4.10602 -3.42505 0
M  V30 28425 C 2616.04 -5.02071 -1.4395 0
M  V30 28426 H 2617.74 -2.94224 -0.55433 0
M  V30 28427 H 2615.28 -1.41537 -0.265197 0
M  V30 28428 H 2617.24 -2.96833 -2.99112 0
M  V30 28429 H 2615.96 -1.7475 -2.75917 0
M  V30 28430 H 2614.62 -3.38901 -1.39791 0
M  V30 28431 H 2614.27 -3.21563 -3.8679 0
M  V30 28432 H 2613.97 -4.87205 -3.28489 0
M  V30 28433 H 2615.49 -4.49167 -4.1362 0
M  V30 28434 H 2616.9 -5.35896 -2.03686 0
M  V30 28435 H 2615.3 -5.83435 -1.40442 0
M  V30 28436 H 2616.37 -4.83181 -0.407908 0
M  V30 28437 N 2617.72 0.279305 -1.55105 0
M  V30 28438 C 2619.13 0.626161 -1.46804 0
M  V30 28439 C 2619.33 1.89788 -0.676972 0
M  V30 28440 O 2618.39 2.51759 -0.193304 0
M  V30 28441 C 2619.7 0.758983 -2.90964 0
M  V30 28442 C 2621.25 0.853451 -3.0114 0
M  V30 28443 C 2621.72 1.0181 -4.46541 0
M  V30 28444 N 2623.21 1.08378 -4.50343 0
M  V30 28445 C 2623.95 1.22986 -5.60055 0
M  V30 28446 N 2623.45 1.34354 -6.79648 0
M  V30 28447 N 2625.24 1.26046 -5.47785 0
M  V30 28448 H 2617.39 -0.555957 -2.04995 0
M  V30 28449 H 2619.65 -0.187256 -0.929322 0
M  V30 28450 H 2619.36 -0.104913 -3.51543 0
M  V30 28451 H 2619.23 1.64125 -3.39622 0
M  V30 28452 H 2621.62 1.70782 -2.40661 0
M  V30 28453 H 2621.7 -0.0532916 -2.55744 0
M  V30 28454 H 2621.34 0.168415 -5.07621 0
M  V30 28455 H 2621.27 1.9394 -4.89587 0
M  V30 28456 H 2623.77 1.00858 -3.64192 0
M  V30 28457 H 2624.08 1.45317 -7.59014 0
M  V30 28458 H 2622.42 1.3137 -6.82471 0
M  V30 28459 H 2625.61 1.16792 -4.53296 0
M  V30 28460 H 2625.79 1.37087 -6.33333 0
M  V30 28461 N 2619.19 1.47931 0.543528 0
M  V30 28462 C 2620.14 1.61869 1.67037 0
M  V30 28463 C 2621.14 0.485519 1.62293 0
M  V30 28464 O 2622.34 0.663789 1.67314 0
M  V30 28465 H 2618.72 0.509662 0.552945 0
M  V30 28466 H 2620.69 2.56535 1.52421 0
M  V30 28467 C 2619.44 1.66296 3.05354 0
M  V30 28468 H 2618.76 2.52846 3.09692 0
M  V30 28469 H 2620.2 1.80095 3.83851 0
M  V30 28470 C 2618.66 0.39892 3.3453 0
M  V30 28471 O 2619.19 -0.494092 3.9865 0
M  V30 28472 N 2617.39 0.274751 2.89298 0
M  V30 28473 H 2616.94 1.0024 2.37297 0
M  V30 28474 H 2616.9 -0.570021 3.09189 0
M  V30 28475 N 2620.67 -0.791347 1.36292 0
M  V30 28476 C 2621.6 -1.91822 1.33141 0
M  V30 28477 C 2622.58 -1.68882 0.203198 0
M  V30 28478 O 2623.77 -1.90024 0.400543 0
M  V30 28479 C 2620.9 -3.28814 1.11799 0
M  V30 28480 C 2619.85 -3.66273 2.21423 0
M  V30 28481 C 2619.18 -5.01593 1.85227 0
M  V30 28482 C 2620.48 -3.75058 3.63495 0
M  V30 28483 H 2622.17 -1.94716 2.27433 0
M  V30 28484 H 2619.72 -0.935418 1.0948 0
M  V30 28485 H 2621.67 -4.07264 1.08229 0
M  V30 28486 H 2620.39 -3.26302 0.139559 0
M  V30 28487 H 2619.05 -2.90118 2.24115 0
M  V30 28488 H 2618.7 -4.956 0.859631 0
M  V30 28489 H 2618.4 -5.27626 2.58621 0
M  V30 28490 H 2619.93 -5.82466 1.8321 0
M  V30 28491 H 2621.34 -4.43705 3.63042 0
M  V30 28492 H 2619.74 -4.12574 4.35778 0
M  V30 28493 H 2620.81 -2.76212 3.98541 0
M  V30 28494 N 2622.15 -1.2054 -1.01528 0
M  V30 28495 C 2623.11 -0.957134 -2.08258 0
M  V30 28496 C 2624.11 0.0678373 -1.60657 0
M  V30 28497 O 2625.3 -0.168363 -1.73384 0
M  V30 28498 C 2622.43 -0.441247 -3.38032 0
M  V30 28499 H 2623.63 -1.90388 -2.31716 0
M  V30 28500 H 2621.18 -1.02095 -1.18348 0
M  V30 28501 H 2621.92 0.510905 -3.2025 0
M  V30 28502 H 2621.7 -1.18044 -3.73909 0
M  V30 28503 H 2623.19 -0.287083 -4.16612 0
M  V30 28504 N 2623.63 1.20858 -1.01149 0
M  V30 28505 C 2624.86 1.94081 -0.716945 0
M  V30 28506 C 2625.27 1.74469 0.721537 0
M  V30 28507 O 2624.63 1.05541 1.48887 0
M  V30 28508 C 2624.68 3.46317 -1.03668 0
M  V30 28509 O 2624.4 3.65284 -2.41866 0
M  V30 28510 C 2625.9 4.36694 -0.762462 0
M  V30 28511 H 2623.12 0.61702 -0.263681 0
M  V30 28512 H 2625.66 1.53494 -1.35129 0
M  V30 28513 H 2623.82 3.84803 -0.447824 0
M  V30 28514 H 2624.23 4.59319 -2.53232 0
M  V30 28515 H 2625.71 5.42185 -1.0363 0
M  V30 28516 H 2626.18 4.38151 0.303437 0
M  V30 28517 H 2626.79 4.03863 -1.33323 0
M  V30 28518 N 2625.11 0.787064 1.3654 0
M  V30 28519 C 2626.35 0.367973 2.00044 0
M  V30 28520 C 2626.71 -1.04809 1.61347 0
M  V30 28521 O 2626 -1.71367 0.856967 0
M  V30 28522 C 2626.19 0.466547 3.54342 0
M  V30 28523 C 2626.02 1.89065 4.08025 0
M  V30 28524 C 2624.79 2.51474 4.3828 0
M  V30 28525 C 2626.99 2.85244 4.27949 0
M  V30 28526 N 2624.97 3.85497 4.77771 0
M  V30 28527 C 2626.34 4.04096 4.7022 0
M  V30 28528 C 2628.4 2.82331 4.10114 0
M  V30 28529 C 2627.1 5.2044 4.96522 0
M  V30 28530 C 2629.13 3.97861 4.37562 0
M  V30 28531 C 2628.49 5.15458 4.80086 0
M  V30 28532 H 2624.59 0.182017 0.760522 0
M  V30 28533 H 2627.17 1.02416 1.65587 0
M  V30 28534 H 2625.34 -0.159538 3.88072 0
M  V30 28535 H 2627.08 0.0239288 4.04693 0
M  V30 28536 H 2623.83 2.02972 4.27901 0
M  V30 28537 H 2624.25 4.54446 5.01805 0
M  V30 28538 H 2628.9 1.92577 3.76396 0
M  V30 28539 H 2626.61 6.10782 5.29123 0
M  V30 28540 H 2630.2 3.96966 4.25334 0
M  V30 28541 H 2629.08 6.03369 5.00914 0
M  V30 28542 N 2626.58 -1.48101 0.53888 0
M  V30 28543 C 2627.53 -2.29759 -0.219001 0
M  V30 28544 C 2628.5 -1.37924 -0.925538 0
M  V30 28545 O 2629.69 -1.66888 -0.924826 0
M  V30 28546 C 2626.83 -3.21492 -1.25447 0
M  V30 28547 C 2625.94 -4.28409 -0.555868 0
M  V30 28548 C 2625.07 -5.07313 -1.57503 0
M  V30 28549 C 2624.11 -6.06023 -0.860391 0
M  V30 28550 N 2623.25 -6.77952 -1.82552 0
M  V30 28551 H 2628.09 -2.94051 0.483501 0
M  V30 28552 H 2625.63 -1.44955 0.250272 0
M  V30 28553 H 2627.58 -3.73083 -1.86721 0
M  V30 28554 H 2626.21 -2.59103 -1.92524 0
M  V30 28555 H 2625.27 -3.80015 0.171005 0
M  V30 28556 H 2626.58 -4.988 0.00483384 0
M  V30 28557 H 2625.73 -5.62963 -2.26181 0
M  V30 28558 H 2624.47 -4.36781 -2.16964 0
M  V30 28559 H 2623.48 -5.49568 -0.15959 0
M  V30 28560 H 2624.7 -6.78556 -0.271777 0
M  V30 28561 H 2622.65 -6.10165 -2.40904 0
M  V30 28562 H 2622.56 -7.44449 -1.31649 0
M  V30 28563 H 2623.83 -7.38187 -2.50401 0
M  V30 28564 N 2628.06 -0.274434 -1.55192 0
M  V30 28565 C 2629.29 0.345406 -2.03692 0
M  V30 28566 C 2629.7 1.50065 -1.15226 0
M  V30 28567 O 2629.04 1.82959 -0.164781 0
M  V30 28568 C 2629.1 0.889329 -3.48326 0
M  V30 28569 C 2628.77 -0.137196 -4.56794 0
M  V30 28570 C 2629.77 -0.956468 -5.11026 0
M  V30 28571 C 2627.45 -0.271238 -5.01567 0
M  V30 28572 C 2629.44 -1.89598 -6.08549 0
M  V30 28573 C 2627.13 -1.21422 -5.98916 0
M  V30 28574 C 2628.13 -2.02509 -6.52288 0
M  V30 28575 O 2627.82 -2.95213 -7.47733 0
M  V30 28576 H 2627.55 0.0829214 -0.670895 0
M  V30 28577 H 2630.1 -0.404091 -2.01386 0
M  V30 28578 H 2628.33 1.68888 -3.4787 0
M  V30 28579 H 2630.02 1.42218 -3.80169 0
M  V30 28580 H 2630.79 -0.863643 -4.77249 0
M  V30 28581 H 2626.67 0.349906 -4.5967 0
M  V30 28582 H 2630.21 -2.5293 -6.50133 0
M  V30 28583 H 2626.11 -1.30787 -6.32112 0
M  V30 28584 H 2626.88 -2.89887 -7.65446 0
M  V30 28585 N 2629.54 1.576 -0.00170483 0
M  V30 28586 C 2630.79 1.90642 0.682786 0
M  V30 28587 C 2631.11 0.875446 1.73684 0
M  V30 28588 O 2630.37 -0.119541 1.95335 0
M  V30 28589 C 2630.67 3.30438 1.36183 0
M  V30 28590 C 2630.33 4.4874 0.440808 0
M  V30 28591 C 2629 4.80836 0.187227 0
M  V30 28592 C 2631.35 5.20842 -0.193226 0
M  V30 28593 C 2628.68 5.82405 -0.708652 0
M  V30 28594 C 2631.03 6.23365 -1.07699 0
M  V30 28595 C 2629.69 6.53917 -1.33973 0
M  V30 28596 H 2628.96 0.697608 0.249849 0
M  V30 28597 H 2631.61 1.91413 -0.0575979 0
M  V30 28598 H 2629.91 3.25798 2.1763 0
M  V30 28599 H 2631.61 3.53263 1.89753 0
M  V30 28600 H 2628.2 4.23664 0.64862 0
M  V30 28601 H 2632.39 4.96299 -0.0103317 0
M  V30 28602 H 2627.64 6.04435 -0.920204 0
M  V30 28603 H 2631.82 6.78365 -1.57463 0
M  V30 28604 H 2629.44 7.32439 -2.03562 0
M  V30 28605 N 2631.02 -0.271076 1.55251 0
M  V30 28606 C 2631.95 -1.35746 1.84677 0
M  V30 28607 C 2632.96 -1.45446 0.731392 0
M  V30 28608 O 2634.15 -1.47228 1.00926 0
M  V30 28609 C 2631.25 -2.73854 1.99643 0
M  V30 28610 C 2630.42 -2.86721 3.30317 0
M  V30 28611 C 2629.48 -4.05517 3.35325 0
M  V30 28612 O 2628.51 -3.96184 4.08689 0
M  V30 28613 N 2629.71 -5.17573 2.62867 0
M  V30 28614 H 2632.48 -1.10848 2.78447 0
M  V30 28615 H 2630.04 -0.461191 1.55192 0
M  V30 28616 H 2632.03 -3.51621 2.00362 0
M  V30 28617 H 2630.6 -2.91566 1.1273 0
M  V30 28618 H 2629.82 -1.95823 3.42121 0
M  V30 28619 H 2631.11 -2.92251 4.16493 0
M  V30 28620 H 2630.51 -5.28042 2.02948 0
M  V30 28621 H 2629.06 -5.93564 2.69305 0
M  V30 28622 N 2632.5 -1.48217 -0.535675 0
M  V30 28623 C 2633.72 -1.5985 -1.32147 0
M  V30 28624 C 2634.15 -0.256874 -1.86338 0
M  V30 28625 O 2633.5 0.770603 -1.64108 0
M  V30 28626 C 2633.55 -2.64386 -2.45219 0
M  V30 28627 O 2632.66 -2.2115 -3.48089 0
M  V30 28628 H 2632 -0.536215 -0.391624 0
M  V30 28629 H 2634.53 -1.94162 -0.645168 0
M  V30 28630 H 2634.54 -2.85481 -2.91486 0
M  V30 28631 H 2633.21 -3.6179 -2.05137 0
M  V30 28632 H 2631.79 -2.10244 -3.0798 0
M  V30 28633 N 2633.97 0.784108 -1.3671 0
M  V30 28634 C 2635.22 1.54449 -1.31429 0
M  V30 28635 C 2635.55 1.93917 0.104726 0
M  V30 28636 O 2634.83 1.63122 1.05931 0
M  V30 28637 C 2635.11 2.81796 -2.24194 0
M  V30 28638 C 2634.96 2.4866 -3.74817 0
M  V30 28639 C 2636.28 3.83654 -2.15633 0
M  V30 28640 H 2633.4 0.560329 -0.478749 0
M  V30 28641 H 2636.04 0.900468 -1.67307 0
M  V30 28642 H 2634.19 3.36752 -1.93728 0
M  V30 28643 H 2635.87 1.99714 -4.15827 0
M  V30 28644 H 2634.11 1.81528 -3.93992 0
M  V30 28645 H 2634.78 3.39638 -4.35144 0
M  V30 28646 H 2637.26 3.38159 -2.42461 0
M  V30 28647 H 2636.13 4.70501 -2.82702 0
M  V30 28648 H 2636.39 4.27007 -1.1453 0
M  V30 28649 N 2635.45 1.21076 1.00888 0
M  V30 28650 C 2636.38 0.924328 2.09735 0
M  V30 28651 C 2637.4 -0.0909523 1.62546 0
M  V30 28652 O 2638.59 0.141052 1.77942 0
M  V30 28653 C 2635.69 0.365649 3.36922 0
M  V30 28654 C 2634.86 1.43433 4.13214 0
M  V30 28655 C 2633.92 0.885587 5.18694 0
M  V30 28656 O 2632.94 1.56811 5.47174 0
M  V30 28657 N 2634.15 -0.301125 5.79718 0
M  V30 28658 H 2636.91 1.86134 2.34892 0
M  V30 28659 H 2634.47 1.11549 1.17339 0
M  V30 28660 H 2636.46 -0.0157696 4.04697 0
M  V30 28661 H 2635.03 -0.476095 3.08953 0
M  V30 28662 H 2634.25 1.98976 3.40297 0
M  V30 28663 H 2635.54 2.15384 4.60963 0
M  V30 28664 H 2634.94 -0.87275 5.58927 0
M  V30 28665 H 2633.5 -0.624097 6.48805 0
M  V30 28666 N 2636.93 -1.2032 1.01789 0
M  V30 28667 C 2637.88 -2.23152 0.589236 0
M  V30 28668 C 2638.85 -1.61424 -0.391339 0
M  V30 28669 O 2640.03 -1.88576 -0.290485 0
M  V30 28670 C 2637.17 -3.45039 -0.065014 0
M  V30 28671 C 2636.29 -4.21192 0.960281 0
M  V30 28672 C 2635.42 -5.30478 0.276947 0
M  V30 28673 C 2634.46 -5.98376 1.28891 0
M  V30 28674 N 2633.6 -6.99248 0.632154 0
M  V30 28675 H 2638.44 -2.59177 1.47076 0
M  V30 28676 H 2635.97 -1.27351 0.736214 0
M  V30 28677 H 2637.93 -4.1464 -0.461479 0
M  V30 28678 H 2636.56 -3.09702 -0.910179 0
M  V30 28679 H 2635.61 -3.50644 1.4749 0
M  V30 28680 H 2636.93 -4.67844 1.72985 0
M  V30 28681 H 2636.08 -6.06448 -0.17495 0
M  V30 28682 H 2634.82 -4.84867 -0.524918 0
M  V30 28683 H 2633.82 -5.21166 1.75118 0
M  V30 28684 H 2635.05 -6.46072 2.09208 0
M  V30 28685 H 2632.99 -6.55829 -0.149819 0
M  V30 28686 H 2632.91 -7.44034 1.33977 0
M  V30 28687 H 2634.18 -7.79233 0.203892 0
M  V30 28688 N 2638.41 -0.794293 -1.3612 0
M  V30 28689 C 2639.34 -0.153943 -2.28682 0
M  V30 28690 C 2640.35 0.639643 -1.49708 0
M  V30 28691 O 2641.54 0.474023 -1.72091 0
M  V30 28692 C 2638.64 0.804863 -3.29204 0
M  V30 28693 C 2637.82 0.0602892 -4.37358 0
M  V30 28694 C 2636.87 0.935758 -5.17813 0
M  V30 28695 O 2635.9 0.39121 -5.67854 0
M  V30 28696 N 2637.1 2.25942 -5.34725 0
M  V30 28697 H 2639.87 -0.949058 -2.84276 0
M  V30 28698 H 2637.43 -0.648637 -1.48338 0
M  V30 28699 H 2639.42 1.39449 -3.79916 0
M  V30 28700 H 2637.99 1.50083 -2.74215 0
M  V30 28701 H 2637.21 -0.71045 -3.87745 0
M  V30 28702 H 2638.5 -0.453329 -5.06776 0
M  V30 28703 H 2637.9 2.72592 -4.95691 0
M  V30 28704 H 2636.45 2.79857 -5.88662 0
M  V30 28705 N 2639.89 1.47813 -0.546727 0
M  V30 28706 C 2641.13 2.02791 -0.0188041 0
M  V30 28707 C 2641.47 1.4213 1.32336 0
M  V30 28708 O 2640.74 0.573056 1.85866 0
M  V30 28709 C 2641.02 3.59999 0.0854352 0
M  V30 28710 C 2640.88 4.31112 -1.28308 0
M  V30 28711 C 2642.2 4.32693 0.804044 0
M  V30 28712 H 2639.31 0.736953 -0.00830755 0
M  V30 28713 H 2641.96 1.76356 -0.706993 0
M  V30 28714 H 2640.11 3.82652 0.671542 0
M  V30 28715 H 2641.78 4.19829 -1.91158 0
M  V30 28716 H 2640.02 3.91875 -1.86056 0
M  V30 28717 H 2640.69 5.3961 -1.16296 0
M  V30 28718 H 2643.17 4.1497 0.306503 0
M  V30 28719 H 2642.04 5.42343 0.845915 0
M  V30 28720 H 2642.31 4.01164 1.85795 0
M  V30 28721 N 2641.36 0.28266 1.55044 0
M  V30 28722 C 2642.31 -0.617438 2.24255 0
M  V30 28723 C 2643.31 -1.15181 1.24217 0
M  V30 28724 O 2644.51 -1.10456 1.42124 0
M  V30 28725 H 2640.89 -0.21768 0.719805 0
M  V30 28726 H 2642.86 -0.0109552 2.98398 0
M  V30 28727 C 2641.61 -1.78667 2.98284 0
M  V30 28728 H 2640.93 -1.38468 3.75055 0
M  V30 28729 H 2642.37 -2.39293 3.50021 0
M  V30 28730 C 2640.83 -2.67971 2.04189 0
M  V30 28731 O 2641.36 -3.68547 1.59799 0
M  V30 28732 N 2639.57 -2.35304 1.7053 0
M  V30 28733 H 2639.11 -1.53563 2.06824 0
M  V30 28734 H 2639.07 -2.95325 1.07844 0
M  V30 28735 N 2642.84 -1.57597 0.0100627 0
M  V30 28736 C 2643.78 -2.04518 -1.0123 0
M  V30 28737 C 2644.75 -0.937047 -1.32884 0
M  V30 28738 O 2645.94 -1.20594 -1.44877 0
M  V30 28739 C 2643.06 -2.45125 -2.33734 0
M  V30 28740 C 2642.11 -3.66771 -2.17673 0
M  V30 28741 S 2642.94 -5.14256 -1.49334 0
M  V30 28742 C 2644.1 -5.58142 -2.83247 0
M  V30 28743 H 2644.33 -2.90916 -0.612815 0
M  V30 28744 H 2641.87 -1.53085 -0.201097 0
M  V30 28745 H 2643.82 -2.69187 -3.09917 0
M  V30 28746 H 2642.48 -1.59108 -2.7082 0
M  V30 28747 H 2641.68 -3.92967 -3.15583 0
M  V30 28748 H 2641.28 -3.42762 -1.49634 0
M  V30 28749 H 2643.57 -5.61217 -3.79529 0
M  V30 28750 H 2644.51 -6.57951 -2.61738 0
M  V30 28751 H 2644.92 -4.85732 -2.87618 0
M  V30 28752 N 2644.32 0.262839 -1.55393 0
M  V30 28753 C 2645.55 1.0153 -1.80849 0
M  V30 28754 C 2645.97 1.78773 -0.584978 0
M  V30 28755 O 2645.33 1.75218 0.465671 0
M  V30 28756 C 2645.38 1.94154 -3.0387 0
M  V30 28757 O 2644.48 3.03084 -2.79668 0
M  V30 28758 H 2643.82 0.289749 -0.597446 0
M  V30 28759 H 2646.35 0.288663 -2.02553 0
M  V30 28760 H 2646.36 2.35918 -3.32876 0
M  V30 28761 H 2645.04 1.37347 -3.92567 0
M  V30 28762 H 2643.61 2.65561 -2.61785 0
M  V30 28763 N 2645.8 1.48499 0.527807 0
M  V30 28764 C 2647.03 1.6006 1.30631 0
M  V30 28765 C 2647.44 0.260819 1.87394 0
M  V30 28766 O 2646.78 -0.760287 1.67228 0
M  V30 28767 C 2646.84 2.58963 2.49356 0
M  V30 28768 C 2646.51 4.03976 2.13664 0
M  V30 28769 C 2647.5 4.91594 1.69209 0
M  V30 28770 C 2645.19 4.49528 2.24121 0
M  V30 28771 C 2647.18 6.22792 1.35678 0
M  V30 28772 C 2644.87 5.80747 1.90202 0
M  V30 28773 C 2645.87 6.67202 1.46051 0
M  V30 28774 O 2645.55 7.95978 1.12579 0
M  V30 28775 H 2645.29 0.542418 0.403434 0
M  V30 28776 H 2647.84 1.9507 0.643199 0
M  V30 28777 H 2646.07 2.19079 3.18656 0
M  V30 28778 H 2647.76 2.60336 3.11416 0
M  V30 28779 H 2648.53 4.57639 1.60599 0
M  V30 28780 H 2644.4 3.82421 2.5744 0
M  V30 28781 H 2647.95 6.90229 1.01145 0
M  V30 28782 H 2643.85 6.14237 1.98453 0
M  V30 28783 H 2644.61 8.0875 1.25958 0
M  V30 28784 N 2647.28 -0.776847 1.37123 0
M  V30 28785 C 2648.55 -1.52419 1.22588 0
M  V30 28786 C 2648.93 -2.10308 -0.182689 0
M  V30 28787 O 2648.28 -1.95082 -1.18976 0
M  V30 28788 C 2648.49 -2.60914 2.31787 0
M  V30 28789 C 2649.84 -3.28455 2.69077 0
M  V30 28790 O 2650.86 -2.71205 2.30925 0
M  V30 28791 O 2649.72 -4.31948 3.34788 0
M  V30 28792 H 2646.82 -0.674827 0.478056 0
M  V30 28793 H 2649.36 -0.814249 1.48889 0
M  V30 28794 H 2648.14 -2.16221 3.26135 0
M  V30 28795 H 2647.76 -3.39513 2.06922 0
M  V30 28796 N 2648.76 -1.2161 -1.00244 0
M  V30 28797 C 2649.69 -1.00176 -2.10919 0
M  V30 28798 C 2650.67 0.0741288 -1.69938 0
M  V30 28799 O 2651.85 -0.0862094 -1.94009 0
M  V30 28800 C 2648.98 -0.568416 -3.42617 0
M  V30 28801 C 2647.94 -1.58916 -3.97404 0
M  V30 28802 C 2647.26 -1.01196 -5.25037 0
M  V30 28803 C 2648.56 -2.97668 -4.29175 0
M  V30 28804 H 2650.26 -1.92743 -2.29108 0
M  V30 28805 H 2647.8 -0.928121 -1.101 0
M  V30 28806 H 2649.75 -0.405629 -4.19443 0
M  V30 28807 H 2648.48 0.392904 -3.24228 0
M  V30 28808 H 2647.14 -1.73955 -3.227 0
M  V30 28809 H 2646.79 -0.0422849 -5.02982 0
M  V30 28810 H 2646.49 -1.6938 -5.62658 0
M  V30 28811 H 2648.01 -0.860554 -6.04505 0
M  V30 28812 H 2649.42 -2.86058 -4.96834 0
M  V30 28813 H 2647.82 -3.62889 -4.77945 0
M  V30 28814 H 2648.89 -3.48321 -3.37343 0
M  V30 28815 N 2650.23 1.19778 -1.02425 0
M  V30 28816 C 2651.48 1.88666 -0.713298 0
M  V30 28817 C 2651.8 1.80195 0.760868 0
M  V30 28818 O 2653 2.4429 1.18469 0
M  V30 28819 C 2651.46 3.38392 -1.22551 0
M  V30 28820 C 2651.07 3.55432 -2.72713 0
M  V30 28821 C 2652.81 4.12787 -0.99033 0
M  V30 28822 C 2650.72 4.99026 -3.17375 0
M  V30 28823 H 2649.65 0.706601 -0.263117 0
M  V30 28824 H 2652.3 1.35452 -1.23795 0
M  V30 28825 H 2650.68 3.90976 -0.628801 0
M  V30 28826 H 2651.85 3.13199 -3.37999 0
M  V30 28827 H 2650.17 2.9442 -2.94458 0
M  V30 28828 H 2652.77 5.18672 -1.29935 0
M  V30 28829 H 2653.11 4.16236 0.0730029 0
M  V30 28830 H 2653.64 3.66326 -1.5508 0
M  V30 28831 H 2650.38 5.00736 -4.23018 0
M  V30 28832 H 2649.9 5.42039 -2.56814 0
M  V30 28833 H 2651.58 5.67652 -3.10451 0
M  V30 28834 N 2651.71 0.801501 1.35697 0
M  V30 28835 C 2652.96 0.376014 1.98164 0
M  V30 28836 C 2653.27 -1.06125 1.64307 0
M  V30 28837 O 2654.48 -1.5896 2.201 0
M  V30 28838 C 2652.94 0.621367 3.54495 0
M  V30 28839 C 2652.54 2.07083 3.97266 0
M  V30 28840 C 2654.29 0.260985 4.23697 0
M  V30 28841 C 2652.19 2.26221 5.46423 0
M  V30 28842 H 2651.12 0.136857 0.741476 0
M  V30 28843 H 2653.78 0.984842 1.54833 0
M  V30 28844 H 2652.16 -0.0573416 3.95958 0
M  V30 28845 H 2653.33 2.78694 3.66969 0
M  V30 28846 H 2651.65 2.3906 3.40939 0
M  V30 28847 H 2654.24 0.382088 5.33333 0
M  V30 28848 H 2654.59 -0.792272 4.08691 0
M  V30 28849 H 2655.12 0.893408 3.87638 0
M  V30 28850 H 2651.86 3.29973 5.6639 0
M  V30 28851 H 2651.38 1.59129 5.78306 0
M  V30 28852 H 2653.06 2.07524 6.12815 0
M  V30 28853 N 2653.19 -1.47521 0.554558 0
M  V30 28854 C 2654.43 -2.04375 0.0318353 0
M  V30 28855 C 2654.79 -1.4199 -1.2924 0
M  V30 28856 O 2655.99 -1.89875 -1.90265 0
M  V30 28857 C 2654.27 -3.57346 -0.0622716 0
M  V30 28858 S 2655.82 -4.35569 -0.531502 0
M  V30 28859 H 2652.64 -0.710599 0.0238678 0
M  V30 28860 H 2655.24 -1.80925 0.740692 0
M  V30 28861 H 2653.95 -4.00276 0.905927 0
M  V30 28862 H 2653.48 -3.85288 -0.794763 0
M  V30 28863 H 2655.49 -4.62724 -1.79167 0
M  V30 28864 N 2654.67 -0.290879 -1.54892 0
M  V30 28865 C 2655.94 0.373955 -1.91992 0
M  V30 28866 C 2656.32 1.7249 -1.21697 0
M  V30 28867 O 2655.67 2.25816 -0.34921 0
M  V30 28868 C 2655.88 0.498642 -3.45419 0
M  V30 28869 C 2657.23 0.774225 -4.17482 0
M  V30 28870 O 2658.25 0.582846 -3.51399 0
M  V30 28871 O 2657.11 1.1412 -5.34452 0
M  V30 28872 H 2654.21 0.207301 -0.800597 0
M  V30 28873 H 2656.75 -0.338193 -1.66296 0
M  V30 28874 H 2655.53 -0.45146 -3.88687 0
M  V30 28875 H 2655.15 1.25965 -3.77119 0
M  V30 28876 N 2656.15 1.57589 -0.0184203 0
M  V30 28877 C 2657.11 2.08496 0.951949 0
M  V30 28878 C 2658.11 0.997896 1.2609 0
M  V30 28879 O 2659.3 1.25989 1.20302 0
M  V30 28880 C 2656.43 2.54186 2.27161 0
M  V30 28881 H 2657.62 2.9551 0.511255 0
M  V30 28882 H 2655.18 1.54607 0.229416 0
M  V30 28883 H 2655.91 1.7047 2.75881 0
M  V30 28884 H 2655.7 3.33594 2.06052 0
M  V30 28885 H 2657.19 2.93833 2.96735 0
M  V30 28886 N 2657.62 -0.254594 1.5553 0
M  V30 28887 C 2658.53 -1.33674 1.92791 0
M  V30 28888 C 2659.55 -1.5307 0.827383 0
M  V30 28889 O 2660.73 -1.66841 1.1281 0
M  V30 28890 C 2657.79 -2.67272 2.20832 0
M  V30 28891 C 2656.85 -2.56464 3.44274 0
M  V30 28892 C 2656.08 -3.83691 3.70968 0
M  V30 28893 O 2656.31 -4.85221 2.99861 0
M  V30 28894 O 2655.24 -3.82786 4.64498 0
M  V30 28895 H 2659.07 -1.05066 2.84947 0
M  V30 28896 H 2656.65 -0.454698 1.42313 0
M  V30 28897 H 2658.53 -3.46233 2.4021 0
M  V30 28898 H 2657.21 -2.95627 1.31856 0
M  V30 28899 H 2656.12 -1.75815 3.30212 0
M  V30 28900 H 2657.45 -2.33055 4.33528 0
M  V30 28901 N 2659.1 -1.48777 -0.519925 0
M  V30 28902 C 2660.35 -1.57539 -1.27708 0
M  V30 28903 C 2660.68 -0.2529 -1.92546 0
M  V30 28904 O 2659.96 0.741989 -1.79791 0
M  V30 28905 C 2660.24 -2.72098 -2.3587 0
M  V30 28906 C 2660.09 -4.14083 -1.75657 0
M  V30 28907 C 2661.41 -2.82373 -3.3757 0
M  V30 28908 H 2658.53 -0.573442 -0.462961 0
M  V30 28909 H 2661.17 -1.8099 -0.578162 0
M  V30 28910 H 2659.32 -2.52233 -2.95484 0
M  V30 28911 H 2660.99 -4.45414 -1.20017 0
M  V30 28912 H 2659.24 -4.20613 -1.06146 0
M  V30 28913 H 2659.91 -4.90079 -2.5402 0
M  V30 28914 H 2662.38 -3.00398 -2.87924 0
M  V30 28915 H 2661.26 -3.6424 -4.10634 0
M  V30 28916 H 2661.52 -1.90943 -3.9874 0
M  V30 28917 N 2660.58 0.769564 -1.37534 0
M  V30 28918 C 2661.81 1.55868 -1.36061 0
M  V30 28919 C 2662.22 1.88724 0.0535109 0
M  V30 28920 O 2661.58 1.51611 1.01588 0
M  V30 28921 C 2661.63 2.86763 -2.20112 0
M  V30 28922 O 2661.35 2.55315 -3.56014 0
M  V30 28923 C 2662.85 3.80983 -2.26643 0
M  V30 28924 H 2660.07 0.482813 -0.465975 0
M  V30 28925 H 2662.62 0.953654 -1.80902 0
M  V30 28926 H 2660.77 3.43684 -1.78774 0
M  V30 28927 H 2661.19 3.39151 -4.00096 0
M  V30 28928 H 2662.66 4.69826 -2.89771 0
M  V30 28929 H 2663.14 4.20272 -1.27547 0
M  V30 28930 H 2663.74 3.29991 -2.68302 0
M  V30 28931 N 2662.06 1.22139 0.995977 0
M  V30 28932 C 2663.34 0.952672 1.70832 0
M  V30 28933 C 2663.72 -0.533083 2.04258 0
M  V30 28934 O 2663.06 -1.50031 1.72345 0
M  V30 28935 C 2663.27 1.84706 2.96116 0
M  V30 28936 C 2664.62 2.10131 3.68958 0
M  V30 28937 O 2665.65 1.82129 3.06117 0
M  V30 28938 O 2664.5 2.57539 4.82012 0
M  V30 28939 H 2661.6 0.35801 0.745492 0
M  V30 28940 H 2664.14 1.33111 1.0526 0
M  V30 28941 H 2662.92 2.85218 2.67893 0
M  V30 28942 H 2662.54 1.47002 3.69427 0
M  V30 28943 N 2663.54 -1.19233 1.03059 0
M  V30 28944 C 2664.79 -1.88285 0.723293 0
M  V30 28945 C 2665.1 -1.80596 -0.751301 0
M  V30 28946 O 2666.3 -2.44914 -1.17172 0
M  V30 28947 C 2664.76 -3.37738 1.24344 0
M  V30 28948 C 2664.37 -3.53981 2.74594 0
M  V30 28949 C 2666.11 -4.12256 1.01221 0
M  V30 28950 C 2664.02 -4.97336 3.20017 0
M  V30 28951 H 2662.95 -0.705196 0.266861 0
M  V30 28952 H 2665.6 -1.34793 1.24511 0
M  V30 28953 H 2663.98 -3.90637 0.649526 0
M  V30 28954 H 2665.16 -3.11402 3.39655 0
M  V30 28955 H 2663.47 -2.92854 2.96016 0
M  V30 28956 H 2666.07 -5.17976 1.32684 0
M  V30 28957 H 2666.41 -4.16269 -0.0509279 0
M  V30 28958 H 2666.94 -3.65499 1.57021 0
M  V30 28959 H 2663.68 -4.98485 4.25667 0
M  V30 28960 H 2663.2 -5.4067 2.59685 0
M  V30 28961 H 2664.88 -5.65998 3.13457 0
M  V30 28962 N 2665.01 -0.808686 -1.3527 0
M  V30 28963 C 2665.98 -0.226133 -2.28082 0
M  V30 28964 C 2666.98 0.587735 -1.49674 0
M  V30 28965 O 2668.17 0.405913 -1.69405 0
M  V30 28966 C 2665.3 0.684537 -3.33956 0
M  V30 28967 H 2666.49 -1.04474 -2.81114 0
M  V30 28968 H 2664.05 -0.579491 -1.45161 0
M  V30 28969 H 2664.78 1.52675 -2.86113 0
M  V30 28970 H 2664.57 0.10263 -3.91966 0
M  V30 28971 H 2666.06 1.08639 -4.03221 0
M  V30 28972 N 2666.49 1.47225 -0.562374 0
M  V30 28973 C 2667.72 2.07355 -0.0432997 0
M  V30 28974 C 2668.14 1.41151 1.2433 0
M  V30 28975 O 2667.5 0.488257 1.74602 0
M  V30 28976 C 2667.55 3.60365 0.130224 0
M  V30 28977 O 2666.65 3.9481 1.1916 0
M  V30 28978 H 2665.99 0.661829 -0.0536451 0
M  V30 28979 H 2668.52 1.89168 -0.779528 0
M  V30 28980 H 2668.53 4.06557 0.342809 0
M  V30 28981 H 2667.21 4.07947 -0.809461 0
M  V30 28982 H 2665.79 3.60355 0.95909 0
M  V30 28983 N 2667.97 0.299089 1.54736 0
M  V30 28984 C 2669.22 -0.311514 1.9928 0
M  V30 28985 C 2669.53 -1.55152 1.1911 0
M  V30 28986 O 2670.74 -2.23659 1.53912 0
M  V30 28987 C 2669.19 -0.60557 3.54769 0
M  V30 28988 C 2668.8 0.615992 4.43745 0
M  V30 28989 C 2670.55 -1.17747 4.07843 0
M  V30 28990 C 2668.45 0.295194 5.90663 0
M  V30 28991 H 2667.38 -0.120174 0.744362 0
M  V30 28992 H 2670.03 0.407495 1.78918 0
M  V30 28993 H 2668.42 -1.38412 3.71023 0
M  V30 28994 H 2669.59 1.39225 4.39264 0
M  V30 28995 H 2667.91 1.1064 4.01432 0
M  V30 28996 H 2670.5 -1.4317 5.15176 0
M  V30 28997 H 2670.85 -2.11912 3.58328 0
M  V30 28998 H 2671.38 -0.46067 3.95124 0
M  V30 28999 H 2668.12 1.20535 6.44323 0
M  V30 29000 H 2667.64 -0.443834 5.98156 0
M  V30 29001 H 2669.32 -0.103935 6.46917 0
M  V30 29002 N 2669.45 -1.57577 0.0267774 0
M  V30 29003 C 2670.4 -2.1123 -0.973886 0
M  V30 29004 C 2671.39 -1.03834 -1.33847 0
M  V30 29005 O 2672.6 -1.22271 -1.32097 0
M  V30 29006 H 2668.97 -0.674827 -0.331832 0
M  V30 29007 H 2670.94 -2.94248 -0.49604 0
M  V30 29008 C 2669.69 -2.65261 -2.24794 0
M  V30 29009 H 2669.01 -3.47547 -1.97614 0
M  V30 29010 H 2670.45 -3.0645 -2.93026 0
M  V30 29011 C 2668.91 -1.57896 -2.97608 0
M  V30 29012 O 2669.44 -0.977419 -3.89627 0
M  V30 29013 N 2667.65 -1.29997 -2.59902 0
M  V30 29014 H 2667.2 -1.791 -1.85151 0
M  V30 29015 H 2667.15 -0.583852 -3.08931 0
M  V30 29016 N 2670.93 0.246342 -1.55663 0
M  V30 29017 C 2672.34 0.594881 -1.48099 0
M  V30 29018 C 2672.54 1.88309 -0.717077 0
M  V30 29019 O 2671.6 2.51292 -0.246663 0
M  V30 29020 C 2672.91 0.697094 -2.92508 0
M  V30 29021 C 2674.46 0.789383 -3.02882 0
M  V30 29022 C 2674.93 0.923153 -4.486 0
M  V30 29023 N 2676.43 0.988009 -4.5254 0
M  V30 29024 C 2677.16 1.11079 -5.62538 0
M  V30 29025 N 2676.66 1.19907 -6.82345 0
M  V30 29026 N 2678.45 1.14399 -5.50336 0
M  V30 29027 H 2670.6 -0.599314 -2.03769 0
M  V30 29028 H 2672.86 -0.206926 -0.925141 0
M  V30 29029 H 2672.57 -0.179457 -3.51242 0
M  V30 29030 H 2672.44 1.56884 -3.43026 0
M  V30 29031 H 2674.83 1.65639 -2.44229 0
M  V30 29032 H 2674.91 -0.107527 -2.55574 0
M  V30 29033 H 2674.56 0.0607034 -5.07864 0
M  V30 29034 H 2674.49 1.83511 -4.9359 0
M  V30 29035 H 2676.98 0.931102 -3.6625 0
M  V30 29036 H 2677.29 1.29184 -7.61926 0
M  V30 29037 H 2675.63 1.16864 -6.85104 0
M  V30 29038 H 2678.83 1.0715 -4.55671 0
M  V30 29039 H 2679 1.23623 -6.36099 0
M  V30 29040 N 2672.4 1.4905 0.512027 0
M  V30 29041 C 2673.65 1.57229 1.2634 0
M  V30 29042 C 2673.97 0.259189 1.93875 0
M  V30 29043 O 2675.17 0.219405 2.70612 0
M  V30 29044 C 2673.63 2.77366 2.29338 0
M  V30 29045 C 2673.24 4.15391 1.67792 0
M  V30 29046 C 2674.98 2.94869 3.05373 0
M  V30 29047 C 2672.89 5.26765 2.68836 0
M  V30 29048 H 2671.82 0.58539 0.475221 0
M  V30 29049 H 2674.47 1.75418 0.53859 0
M  V30 29050 H 2672.85 2.52649 3.04934 0
M  V30 29051 H 2674.02 4.50201 0.982636 0
M  V30 29052 H 2672.34 4.03155 1.04187 0
M  V30 29053 H 2674.94 3.75245 3.80914 0
M  V30 29054 H 2675.28 2.05006 3.62323 0
M  V30 29055 H 2675.81 3.19573 2.36892 0
M  V30 29056 H 2672.55 6.18651 2.16681 0
M  V30 29057 H 2672.07 4.96422 3.36638 0
M  V30 29058 H 2673.75 5.55636 3.31478 0
M  V30 29059 N 2673.88 -0.762259 1.3794 0
M  V30 29060 C 2675.11 -1.55145 1.36886 0
M  V30 29061 C 2675.53 -1.8875 -0.0435016 0
M  V30 29062 O 2674.88 -1.52148 -1.00783 0
M  V30 29063 C 2674.93 -2.85592 2.21629 0
M  V30 29064 O 2674.65 -2.53423 3.57363 0
M  V30 29065 C 2676.16 -3.79776 2.2866 0
M  V30 29066 H 2673.38 -0.480335 0.468529 0
M  V30 29067 H 2675.92 -0.944047 1.81406 0
M  V30 29068 H 2674.07 -3.42731 1.80594 0
M  V30 29069 H 2674.49 -3.37025 4.01889 0
M  V30 29070 H 2675.96 -4.68283 2.92259 0
M  V30 29071 H 2676.44 -4.19589 1.29774 0
M  V30 29072 H 2677.05 -3.28563 2.70049 0
M  V30 29073 N 2675.36 -1.22666 -0.989486 0
M  V30 29074 C 2676.29 -1.02407 -2.09845 0
M  V30 29075 C 2677.27 0.0561004 -1.70007 0
M  V30 29076 O 2678.46 -0.106782 -1.93906 0
M  V30 29077 C 2675.59 -0.604723 -3.41995 0
M  V30 29078 C 2674.54 -1.63122 -3.95696 0
M  V30 29079 C 2673.87 -1.06759 -5.23934 0
M  V30 29080 C 2675.17 -3.02204 -4.25993 0
M  V30 29081 H 2676.86 -1.95162 -2.27051 0
M  V30 29082 H 2674.41 -0.939747 -1.09109 0
M  V30 29083 H 2676.36 -0.450093 -4.18989 0
M  V30 29084 H 2675.08 0.358493 -3.24627 0
M  V30 29085 H 2673.74 -1.77368 -3.20837 0
M  V30 29086 H 2673.39 -0.0956306 -5.02909 0
M  V30 29087 H 2673.09 -1.75338 -5.6083 0
M  V30 29088 H 2674.61 -0.924622 -6.03559 0
M  V30 29089 H 2676.03 -2.91311 -4.93772 0
M  V30 29090 H 2674.43 -3.67938 -4.74069 0
M  V30 29091 H 2675.5 -3.51879 -3.3363 0
M  V30 29092 N 2676.84 1.18685 -1.0369 0
M  V30 29093 C 2677.77 2.24402 -0.645446 0
M  V30 29094 C 2678.75 1.66471 0.349482 0
M  V30 29095 O 2679.94 1.92828 0.230419 0
M  V30 29096 C 2677.07 3.473 -0.00371441 0
M  V30 29097 C 2676.02 4.17956 -0.921779 0
M  V30 29098 C 2675.35 5.34504 -0.144723 0
M  V30 29099 C 2676.65 4.71867 -2.23918 0
M  V30 29100 H 2678.34 2.57401 -1.52922 0
M  V30 29101 H 2675.89 1.23726 -0.736733 0
M  V30 29102 H 2677.84 4.20456 0.281835 0
M  V30 29103 H 2676.56 3.13524 0.914908 0
M  V30 29104 H 2675.22 3.46692 -1.19165 0
M  V30 29105 H 2674.87 4.96975 0.776186 0
M  V30 29106 H 2674.57 5.82712 -0.756308 0
M  V30 29107 H 2676.09 6.10453 0.133897 0
M  V30 29108 H 2677.51 5.36737 -2.01459 0
M  V30 29109 H 2675.9 5.30594 -2.80339 0
M  V30 29110 H 2676.97 3.89495 -2.88829 0
M  V30 29111 N 2678.32 0.815849 1.34839 0
M  V30 29112 C 2679.25 0.178102 2.27504 0
M  V30 29113 C 2680.23 -0.661347 1.48543 0
M  V30 29114 O 2681.41 -0.626622 1.7778 0
M  V30 29115 C 2678.54 -0.751944 3.30248 0
M  V30 29116 C 2677.59 0.00906669 4.26499 0
M  V30 29117 S 2678.42 1.35143 5.18167 0
M  V30 29118 C 2679.57 0.42607 6.24448 0
M  V30 29119 H 2679.81 0.963734 2.81246 0
M  V30 29120 H 2677.34 0.61138 1.4178 0
M  V30 29121 H 2679.3 -1.28301 3.89935 0
M  V30 29122 H 2677.96 -1.51104 2.75366 0
M  V30 29123 H 2677.15 -0.697678 4.99148 0
M  V30 29124 H 2676.75 0.470461 3.71029 0
M  V30 29125 H 2679.05 -0.385115 6.76405 0
M  V30 29126 H 2679.99 1.12202 6.99154 0
M  V30 29127 H 2680.4 0.0176453 5.64497 0
M  V30 29128 N 2679.8 -1.46924 0.570174 0
M  V30 29129 C 2681.02 -2.07329 0.0542956 0
M  V30 29130 C 2681.45 -1.41809 -1.2358 0
M  V30 29131 O 2680.8 -0.49751 -1.7434 0
M  V30 29132 C 2680.85 -3.60429 -0.111112 0
M  V30 29133 O 2679.96 -3.95436 -1.17064 0
M  V30 29134 H 2679.3 -0.661536 0.0571541 0
M  V30 29135 H 2681.83 -1.88752 0.789549 0
M  V30 29136 H 2681.84 -4.06733 -0.321244 0
M  V30 29137 H 2680.51 -4.07512 0.831084 0
M  V30 29138 H 2679.09 -3.60859 -0.939966 0
M  V30 29139 N 2681.27 -0.307291 -1.54575 0
M  V30 29140 C 2682.55 0.353571 -1.92378 0
M  V30 29141 C 2682.93 1.7119 -1.2352 0
M  V30 29142 O 2682.28 2.25433 -0.373141 0
M  V30 29143 C 2682.49 0.461978 -3.45929 0
M  V30 29144 C 2683.84 0.729902 -4.18279 0
M  V30 29145 O 2684.86 0.545543 -3.51998 0
M  V30 29146 O 2683.72 1.08445 -5.35632 0
M  V30 29147 H 2680.81 0.198798 -0.802751 0
M  V30 29148 H 2683.36 -0.355812 -1.65928 0
M  V30 29149 H 2682.13 -0.49266 -3.88186 0
M  V30 29150 H 2681.75 1.21958 -3.78434 0
M  V30 29151 N 2682.75 1.57561 -0.0351337 0
M  V30 29152 C 2684 1.92047 0.642195 0
M  V30 29153 C 2684.33 0.91209 1.71788 0
M  V30 29154 O 2683.58 -0.0780809 1.95544 0
M  V30 29155 C 2683.88 3.33252 1.29143 0
M  V30 29156 C 2683.55 4.49574 0.345525 0
M  V30 29157 C 2682.21 4.81125 0.0851929 0
M  V30 29158 C 2684.56 5.20315 -0.303661 0
M  V30 29159 C 2681.89 5.8077 -0.832029 0
M  V30 29160 C 2684.24 6.2094 -1.20897 0
M  V30 29161 C 2682.9 6.50928 -1.47814 0
M  V30 29162 H 2682.17 0.70275 0.234996 0
M  V30 29163 H 2684.82 1.91248 -0.0981865 0
M  V30 29164 H 2683.13 3.30341 2.1067 0
M  V30 29165 H 2684.82 3.57209 1.82217 0
M  V30 29166 H 2681.41 4.24944 0.558609 0
M  V30 29167 H 2685.6 4.96165 -0.115602 0
M  V30 29168 H 2680.85 6.02348 -1.04821 0
M  V30 29169 H 2685.03 6.74872 -1.71816 0
M  V30 29170 H 2682.65 7.27956 -2.19052 0
M  V30 29171 N 2684.23 -0.238084 1.55791 0
M  V30 29172 C 2685.19 -1.27832 1.90241 0
M  V30 29173 C 2686.19 -1.40639 0.779577 0
M  V30 29174 O 2687.38 -1.39188 1.04749 0
M  V30 29175 C 2684.51 -2.65471 2.13864 0
M  V30 29176 H 2685.71 -0.984984 2.83263 0
M  V30 29177 H 2683.26 -0.477772 1.48819 0
M  V30 29178 H 2684 -2.9993 1.23339 0
M  V30 29179 H 2683.78 -2.57555 2.95648 0
M  V30 29180 H 2685.27 -3.40566 2.4167 0
M  V30 29181 N 2685.71 -1.4932 -0.504115 0
M  V30 29182 C 2686.64 -1.6867 -1.6147 0
M  V30 29183 C 2687.62 -0.535407 -1.61454 0
M  V30 29184 O 2688.8 -0.770899 -1.78244 0
M  V30 29185 C 2685.93 -1.75033 -2.99968 0
M  V30 29186 C 2684.89 -2.89921 -3.14849 0
M  V30 29187 C 2684.21 -2.81395 -4.54666 0
M  V30 29188 C 2685.51 -4.30898 -2.95168 0
M  V30 29189 H 2687.21 -2.61651 -1.45531 0
M  V30 29190 H 2684.75 -1.25914 -0.698689 0
M  V30 29191 H 2686.71 -1.87157 -3.77558 0
M  V30 29192 H 2685.43 -0.786496 -3.16989 0
M  V30 29193 H 2684.09 -2.77395 -2.39682 0
M  V30 29194 H 2683.74 -1.82926 -4.68559 0
M  V30 29195 H 2683.44 -3.58503 -4.65564 0
M  V30 29196 H 2684.96 -2.95522 -5.34321 0
M  V30 29197 H 2686.38 -4.44122 -3.62531 0
M  V30 29198 H 2684.77 -5.09204 -3.1754 0
M  V30 29199 H 2685.84 -4.45559 -1.91324 0
M  V30 29200 N 2687.19 0.754933 -1.38342 0
M  V30 29201 C 2688.41 1.54928 -1.37885 0
M  V30 29202 C 2688.84 1.88077 0.0296055 0
M  V30 29203 O 2688.19 1.50474 1.0113 0
M  V30 29204 C 2688.24 2.82588 -2.24001 0
M  V30 29205 O 2687.35 3.77683 -1.65619 0
M  V30 29206 H 2686.69 0.468644 -0.470392 0
M  V30 29207 H 2689.22 0.93305 -1.82086 0
M  V30 29208 H 2689.23 3.31526 -2.37812 0
M  V30 29209 H 2687.9 2.57791 -3.26369 0
M  V30 29210 H 2686.48 3.36381 -1.60942 0
M  V30 29211 N 2688.66 1.23189 0.982967 0
M  V30 29212 C 2689.91 1.05652 1.71815 0
M  V30 29213 C 2690.23 -0.407142 1.91316 0
M  V30 29214 O 2691.43 -0.70239 2.62257 0
M  V30 29215 C 2689.89 1.84208 3.09185 0
M  V30 29216 C 2689.5 3.34888 2.97581 0
M  V30 29217 C 2691.24 1.75153 3.86681 0
M  V30 29218 C 2689.15 4.05846 4.30166 0
M  V30 29219 H 2688.08 0.391736 0.644251 0
M  V30 29220 H 2690.73 1.47132 1.09656 0
M  V30 29221 H 2689.11 1.35533 3.72084 0
M  V30 29222 H 2690.28 3.91031 2.43786 0
M  V30 29223 H 2688.6 3.44729 2.33561 0
M  V30 29224 H 2691.2 2.25482 4.84832 0
M  V30 29225 H 2691.54 0.713809 4.10135 0
M  V30 29226 H 2692.07 2.21425 3.30478 0
M  V30 29227 H 2688.81 5.09913 4.11909 0
M  V30 29228 H 2688.33 3.54491 4.83835 0
M  V30 29229 H 2690.01 4.11997 4.98866 0
M  V30 29230 N 2690.14 -1.18133 1.04318 0
M  V30 29231 C 2691.42 -1.8405 0.662199 0
M  V30 29232 C 2691.8 -1.92871 -0.858135 0
M  V30 29233 O 2691.15 -1.45655 -1.7606 0
M  V30 29234 C 2691.36 -3.2221 1.34096 0
M  V30 29235 C 2692.7 -3.98217 1.47337 0
M  V30 29236 O 2693.73 -3.31659 1.29927 0
M  V30 29237 O 2692.59 -5.17476 1.75731 0
M  V30 29238 H 2689.68 -0.793786 0.232019 0
M  V30 29239 H 2692.23 -1.25504 1.14223 0
M  V30 29240 H 2691 -3.10707 2.37859 0
M  V30 29241 H 2690.62 -3.88414 0.849717 0
M  V30 29242 N 2691.62 -0.822988 -1.34405 0
M  V30 29243 C 2692.87 -0.41028 -1.97892 0
M  V30 29244 C 2693.19 1.03014 -1.65569 0
M  V30 29245 O 2692.46 1.7152 -0.946451 0
M  V30 29246 H 2691.04 -0.14872 -0.732046 0
M  V30 29247 H 2693.7 -1.05245 -1.64041 0
M  V30 29248 H 2692.8 -0.529338 -3.07578 0
M  V30 29249 N 2693.1 1.4662 -0.577957 0
M  V30 29250 C 2694.51 1.86096 -0.150104 0
M  V30 29251 C 2694.86 1.48212 1.2856 0
M  V30 29252 O 2693.99 0.894788 1.97034 0
M  V30 29253 C 2694.58 3.37757 -0.265636 0
M  V30 29254 C 2693.14 3.76247 0.107314 0
M  V30 29255 C 2692.29 2.70647 -0.603758 0
M  V30 29256 H 2695.24 1.37842 -0.786462 0
M  V30 29257 H 2695.26 3.77063 0.510286 0
M  V30 29258 H 2694.77 3.65299 -1.31066 0
M  V30 29259 H 2692.87 3.54323 1.15266 0
M  V30 29260 H 2692.98 4.78363 -0.265694 0
M  V30 29261 H 2691.35 2.54661 -0.0445331 0
M  V30 29262 H 2692.13 3.01029 -1.65034 0
M  V30 29263 N 2694.58 0.315484 1.5441 0
M  V30 29264 C 2695.51 -0.546999 2.27003 0
M  V30 29265 C 2696.49 -1.12603 1.27494 0
M  V30 29266 O 2697.67 -1.15267 1.56292 0
M  V30 29267 C 2694.8 -1.71196 3.02174 0
M  V30 29268 C 2693.76 -1.26261 4.08952 0
M  V30 29269 C 2693.08 -2.51388 4.7192 0
M  V30 29270 C 2694.38 -0.383327 5.20891 0
M  V30 29271 H 2696.08 0.0585043 2.99343 0
M  V30 29272 H 2693.62 0.0295781 1.4397 0
M  V30 29273 H 2695.58 -2.32155 3.51685 0
M  V30 29274 H 2694.3 -2.34393 2.27437 0
M  V30 29275 H 2692.96 -0.675999 3.60313 0
M  V30 29276 H 2692.61 -3.12931 3.93806 0
M  V30 29277 H 2692.31 -2.22017 5.44043 0
M  V30 29278 H 2693.83 -3.13124 5.242 0
M  V30 29279 H 2695.24 -0.898983 5.66208 0
M  V30 29280 H 2693.64 -0.182752 5.99822 0
M  V30 29281 H 2694.71 0.587906 4.81323 0
M  V30 29282 N 2696.05 -1.5754 0.0434891 0
M  V30 29283 C 2697.28 -1.96409 -0.64087 0
M  V30 29284 C 2697.69 -0.919326 -1.65363 0
M  V30 29285 O 2697.04 0.105763 -1.83395 0
M  V30 29286 C 2697.1 -3.31484 -1.39135 0
M  V30 29287 C 2696.76 -4.53854 -0.535295 0
M  V30 29288 C 2697.76 -5.19533 0.195426 0
M  V30 29289 C 2695.44 -5.00111 -0.468476 0
M  V30 29290 C 2697.44 -6.29798 0.981488 0
M  V30 29291 C 2695.12 -6.10255 0.321279 0
M  V30 29292 C 2696.12 -6.74959 1.04495 0
M  V30 29293 O 2695.81 -7.82987 1.82174 0
M  V30 29294 H 2695.54 -0.651437 -0.180572 0
M  V30 29295 H 2698.1 -2.05137 0.103884 0
M  V30 29296 H 2696.33 -3.19288 -2.18156 0
M  V30 29297 H 2698.02 -3.55154 -1.9652 0
M  V30 29298 H 2698.78 -4.84758 0.153225 0
M  V30 29299 H 2694.66 -4.49544 -1.02134 0
M  V30 29300 H 2698.2 -6.80234 1.54686 0
M  V30 29301 H 2694.1 -6.44466 0.365146 0
M  V30 29302 H 2694.87 -7.99725 1.74303 0
M  V30 29303 N 2697.53 0.229818 -1.55915 0
M  V30 29304 C 2698.46 1.28811 -1.94756 0
M  V30 29305 C 2699.44 1.49322 -0.814683 0
M  V30 29306 O 2700.63 1.61644 -1.07634 0
M  V30 29307 C 2697.76 2.63955 -2.2571 0
M  V30 29308 C 2696.71 2.58114 -3.4141 0
M  V30 29309 C 2696.04 3.97212 -3.57948 0
M  V30 29310 C 2697.34 2.13615 -4.76619 0
M  V30 29311 H 2699.03 0.965497 -2.83405 0
M  V30 29312 H 2696.58 0.463004 -1.36353 0
M  V30 29313 H 2698.53 3.38141 -2.51472 0
M  V30 29314 H 2697.26 2.97888 -1.33905 0
M  V30 29315 H 2695.91 1.86386 -3.15683 0
M  V30 29316 H 2695.56 4.28438 -2.63534 0
M  V30 29317 H 2695.26 3.94188 -4.35764 0
M  V30 29318 H 2696.79 4.73072 -3.8605 0
M  V30 29319 H 2698.2 2.7754 -5.01642 0
M  V30 29320 H 2696.6 2.21667 -5.57659 0
M  V30 29321 H 2697.67 1.0882 -4.72532 0
M  V30 29322 N 2699.01 1.49585 0.49619 0
M  V30 29323 C 2700.26 1.59551 1.25186 0
M  V30 29324 C 2700.59 0.2835 1.9212 0
M  V30 29325 O 2699.86 -0.713292 1.80949 0
M  V30 29326 C 2700.15 2.75816 2.31511 0
M  V30 29327 C 2700 4.16825 1.69047 0
M  V30 29328 C 2701.32 2.87708 3.33035 0
M  V30 29329 H 2698.44 0.580735 0.45378 0
M  V30 29330 H 2701.08 1.81887 0.549295 0
M  V30 29331 H 2699.23 2.56902 2.91433 0
M  V30 29332 H 2700.9 4.47267 1.12915 0
M  V30 29333 H 2699.15 4.22249 0.994411 0
M  V30 29334 H 2699.82 4.94059 2.46191 0
M  V30 29335 H 2702.29 3.04941 2.83109 0
M  V30 29336 H 2701.17 3.70727 4.04787 0
M  V30 29337 H 2701.43 1.97262 3.95652 0
M  V30 29338 N 2700.49 -0.747586 1.3874 0
M  V30 29339 C 2701.74 -1.50687 1.35277 0
M  V30 29340 C 2702.06 -1.94421 -0.0553017 0
M  V30 29341 O 2701.32 -1.66177 -1.03362 0
M  V30 29342 C 2701.62 -2.76876 2.25996 0
M  V30 29343 C 2701.28 -2.52073 3.73858 0
M  V30 29344 C 2699.95 -2.45018 4.14149 0
M  V30 29345 C 2702.3 -2.3056 4.67431 0
M  V30 29346 C 2699.63 -2.14473 5.46093 0
M  V30 29347 C 2701.98 -2.01535 5.99639 0
M  V30 29348 C 2700.64 -1.9294 6.39007 0
M  V30 29349 H 2699.91 -0.551401 0.495013 0
M  V30 29350 H 2702.56 -0.859128 1.71147 0
M  V30 29351 H 2700.86 -3.4633 1.83202 0
M  V30 29352 H 2702.56 -3.34857 2.20617 0
M  V30 29353 H 2699.15 -2.58438 3.41918 0
M  V30 29354 H 2703.33 -2.34986 4.37144 0
M  V30 29355 H 2698.59 -2.06332 5.75532 0
M  V30 29356 H 2702.76 -1.83894 6.71681 0
M  V30 29357 H 2700.39 -1.69037 7.41168 0
M  V30 29358 N 2701.97 -1.23709 -0.97642 0
M  V30 29359 C 2702.91 -1.02178 -2.0695 0
M  V30 29360 C 2703.88 0.0620742 -1.65984 0
M  V30 29361 O 2705.07 -0.0908241 -1.90584 0
M  V30 29362 C 2702.21 -0.62333 -3.39424 0
M  V30 29363 C 2701.32 -1.77973 -3.93636 0
M  V30 29364 C 2700.46 -1.32769 -5.1434 0
M  V30 29365 C 2699.5 -2.45459 -5.60729 0
M  V30 29366 N 2698.63 -2.01184 -6.72658 0
M  V30 29367 H 2703.47 -1.95738 -2.24701 0
M  V30 29368 H 2701.01 -0.975053 -1.10141 0
M  V30 29369 H 2702.97 -0.373393 -4.15526 0
M  V30 29370 H 2701.6 0.275273 -3.21624 0
M  V30 29371 H 2700.65 -2.14356 -3.14254 0
M  V30 29372 H 2701.96 -2.62678 -4.2403 0
M  V30 29373 H 2701.12 -1.03611 -5.97787 0
M  V30 29374 H 2699.85 -0.451061 -4.8561 0
M  V30 29375 H 2698.86 -2.75386 -4.7586 0
M  V30 29376 H 2700.08 -3.33664 -5.91477 0
M  V30 29377 H 2698.03 -1.15907 -6.45679 0
M  V30 29378 H 2697.95 -2.79447 -7.02457 0
M  V30 29379 H 2699.22 -1.75142 -7.59569 0
M  V30 29380 N 2703.44 1.17579 -1.04943 0
M  V30 29381 C 2704.67 1.91702 -0.778328 0
M  V30 29382 C 2705.09 1.76676 0.665666 0
M  V30 29383 O 2704.44 1.10224 1.45454 0
M  V30 29384 C 2704.5 3.42843 -1.14634 0
M  V30 29385 O 2704.22 3.57404 -2.53365 0
M  V30 29386 C 2705.72 4.34047 -0.901007 0
M  V30 29387 H 2702.94 0.608318 -0.283178 0
M  V30 29388 H 2705.48 1.49117 -1.39944 0
M  V30 29389 H 2703.64 3.83183 -0.57002 0
M  V30 29390 H 2704.05 4.5103 -2.67717 0
M  V30 29391 H 2705.52 5.38614 -1.20827 0
M  V30 29392 H 2706 4.38894 0.163889 0
M  V30 29393 H 2706.61 3.99417 -1.46104 0
M  V30 29394 N 2704.92 0.830104 1.33967 0
M  V30 29395 C 2706.15 0.434178 2.01986 0
M  V30 29396 C 2706.56 -0.966682 1.6264 0
M  V30 29397 O 2705.9 -1.6382 0.83118 0
M  V30 29398 C 2705.97 0.465081 3.56479 0
M  V30 29399 C 2705.63 1.82052 4.19173 0
M  V30 29400 C 2706.63 2.78245 4.39176 0
M  V30 29401 C 2704.31 2.11097 4.55789 0
M  V30 29402 C 2706.31 4.01651 4.9493 0
M  V30 29403 C 2703.99 3.34761 5.11252 0
M  V30 29404 C 2704.99 4.29854 5.30767 0
M  V30 29405 O 2704.68 5.51332 5.85054 0
M  V30 29406 H 2704.41 0.171651 0.653844 0
M  V30 29407 H 2706.96 1.12174 1.72064 0
M  V30 29408 H 2705.19 -0.279216 3.85691 0
M  V30 29409 H 2706.88 0.0882048 4.05804 0
M  V30 29410 H 2707.65 2.57104 4.11245 0
M  V30 29411 H 2703.53 1.37878 4.39899 0
M  V30 29412 H 2707.07 4.75885 5.10078 0
M  V30 29413 H 2702.97 3.55762 5.38613 0
M  V30 29414 H 2703.74 5.52951 6.0348 0
M  V30 29415 N 2706.4 -1.46311 0.585725 0
M  V30 29416 C 2707.65 -2.01971 0.0723135 0
M  V30 29417 C 2707.97 -1.4593 -1.29342 0
M  V30 29418 O 2707.24 -0.645141 -1.84972 0
M  V30 29419 H 2705.82 -0.746623 0.0237422 0
M  V30 29420 H 2708.48 -1.79379 0.762186 0
M  V30 29421 H 2707.58 -3.121 0.00558253 0
M  V30 29422 N 2707.88 -0.323668 -1.54241 0
M  V30 29423 C 2709.11 0.280835 -2.04985 0
M  V30 29424 C 2709.52 1.45774 -1.1998 0
M  V30 29425 O 2708.88 1.81038 -0.230503 0
M  V30 29426 C 2708.93 0.715195 -3.54355 0
M  V30 29427 O 2708.65 -0.414893 -4.36131 0
M  V30 29428 C 2710.15 1.3825 -4.21191 0
M  V30 29429 H 2707.37 0.0577385 -0.668511 0
M  V30 29430 H 2709.92 -0.469887 -1.99028 0
M  V30 29431 H 2708.07 1.41589 -3.60598 0
M  V30 29432 H 2708.49 -0.0726148 -5.2445 0
M  V30 29433 H 2709.96 1.63736 -5.27157 0
M  V30 29434 H 2710.44 2.32982 -3.72311 0
M  V30 29435 H 2711.04 0.724373 -4.19086 0
M  V30 29436 N 2709.36 1.57515 -0.0518432 0
M  V30 29437 C 2710.29 2.0713 0.957722 0
M  V30 29438 C 2711.27 0.971949 1.30353 0
M  V30 29439 O 2712.45 1.24393 1.41629 0
M  V30 29440 C 2709.58 2.51236 2.27153 0
M  V30 29441 C 2708.63 3.72413 2.07872 0
M  V30 29442 S 2709.46 5.18035 1.35647 0
M  V30 29443 C 2710.61 5.65455 2.68349 0
M  V30 29444 H 2710.85 2.92438 0.535468 0
M  V30 29445 H 2708.38 1.53564 0.160438 0
M  V30 29446 H 2710.34 2.77309 3.02671 0
M  V30 29447 H 2709 1.66232 2.66506 0
M  V30 29448 H 2708.19 4.01196 3.05054 0
M  V30 29449 H 2707.79 3.46609 1.40493 0
M  V30 29450 H 2710.09 5.71082 3.64516 0
M  V30 29451 H 2711.03 6.64659 2.44201 0
M  V30 29452 H 2711.44 4.93187 2.74639 0
M  V30 29453 N 2710.84 -0.221546 1.56035 0
M  V30 29454 C 2711.77 -1.27776 1.95436 0
M  V30 29455 C 2712.75 -1.48887 0.82259 0
M  V30 29456 O 2713.93 -1.61071 1.08489 0
M  V30 29457 C 2711.06 -2.62755 2.27106 0
M  V30 29458 C 2710.02 -2.563 3.42774 0
M  V30 29459 C 2709.34 -3.95308 3.60049 0
M  V30 29460 C 2710.64 -2.11084 4.77745 0
M  V30 29461 H 2712.34 -0.950454 2.83913 0
M  V30 29462 H 2709.88 -0.455767 1.36597 0
M  V30 29463 H 2711.83 -3.36803 2.53262 0
M  V30 29464 H 2710.56 -2.97173 1.35483 0
M  V30 29465 H 2709.22 -1.84709 3.16667 0
M  V30 29466 H 2708.87 -4.27034 2.65802 0
M  V30 29467 H 2708.57 -3.91871 4.37848 0
M  V30 29468 H 2710.09 -4.71018 3.88554 0
M  V30 29469 H 2711.5 -2.74876 5.03106 0
M  V30 29470 H 2709.9 -2.18707 5.58827 0
M  V30 29471 H 2710.97 -1.06313 4.73102 0
M  V30 29472 N 2712.31 -1.49846 -0.48825 0
M  V30 29473 C 2713.56 -1.60212 -1.24338 0
M  V30 29474 C 2713.89 -0.293685 -1.91966 0
M  V30 29475 O 2713.17 0.703686 -1.81324 0
M  V30 29476 C 2713.45 -2.7704 -2.30045 0
M  V30 29477 C 2713.3 -4.17716 -1.66834 0
M  V30 29478 C 2714.62 -2.8947 -3.31504 0
M  V30 29479 H 2711.74 -0.583133 -0.450694 0
M  V30 29480 H 2714.38 -1.82175 -0.539641 0
M  V30 29481 H 2712.53 -2.58444 -2.90067 0
M  V30 29482 H 2714.21 -4.4786 -1.10542 0
M  V30 29483 H 2712.45 -4.2277 -0.972004 0
M  V30 29484 H 2713.12 -4.95357 -2.43567 0
M  V30 29485 H 2715.6 -3.06438 -2.81487 0
M  V30 29486 H 2714.47 -3.72869 -4.02815 0
M  V30 29487 H 2714.73 -1.99357 -3.946 0
M  V30 29488 N 2713.79 0.740218 -1.39135 0
M  V30 29489 C 2714.74 1.87554 -1.37573 0
M  V30 29490 C 2715.73 1.67399 -0.259623 0
M  V30 29491 O 2716.94 1.74804 -0.42938 0
M  V30 29492 H 2713.31 0.617293 -0.42948 0
M  V30 29493 H 2715.29 1.85987 -2.33349 0
M  V30 29494 C 2714.03 3.25182 -1.23093 0
M  V30 29495 H 2713.36 3.41284 -2.08243 0
M  V30 29496 H 2714.8 4.04828 -1.26056 0
M  V30 29497 C 2713.26 3.36845 0.0610879 0
M  V30 29498 O 2713.79 3.88185 1.03321 0
M  V30 29499 N 2711.99 2.90342 0.122403 0
M  V30 29500 H 2711.54 2.48751 -0.669373 0
M  V30 29501 H 2711.5 2.98525 0.98641 0
M  V30 29502 N 2715.27 1.24225 0.969846 0
M  V30 29503 C 2716.68 1.07401 1.52715 0
M  V30 29504 C 2717.03 -0.355265 1.92957 0
M  V30 29505 O 2716.16 -1.24337 1.77114 0
M  V30 29506 C 2716.75 1.94344 2.77517 0
M  V30 29507 C 2715.31 1.8175 3.29612 0
M  V30 29508 C 2714.46 1.89408 2.02533 0
M  V30 29509 H 2717.41 1.37733 0.788374 0
M  V30 29510 H 2717.43 1.47445 3.50771 0
M  V30 29511 H 2716.94 2.98361 2.48198 0
M  V30 29512 H 2715.04 0.805569 3.63787 0
M  V30 29513 H 2715.16 2.65725 3.98656 0
M  V30 29514 H 2713.52 1.33112 2.17148 0
M  V30 29515 H 2714.3 2.95002 1.75581 0
M  V30 29516 N 2716.75 -1.1702 1.05565 0
M  V30 29517 C 2717.7 -2.23219 0.653926 0
M  V30 29518 C 2718.69 -1.66222 -0.326613 0
M  V30 29519 O 2719.9 -1.7897 -0.19227 0
M  V30 29520 H 2716.27 -0.726729 0.19331 0
M  V30 29521 H 2718.24 -2.54397 1.55965 0
M  V30 29522 C 2716.99 -3.47666 0.0486045 0
M  V30 29523 H 2716.31 -3.91832 0.794199 0
M  V30 29524 H 2717.75 -4.23551 -0.195059 0
M  V30 29525 C 2716.21 -3.14583 -1.20577 0
M  V30 29526 O 2716.74 -3.29707 -2.29469 0
M  V30 29527 N 2714.95 -2.68776 -1.10488 0
M  V30 29528 H 2714.5 -2.5667 -0.21875 0
M  V30 29529 H 2714.45 -2.47014 -1.94503 0
M  V30 29530 N 2718.23 -0.837197 -1.33524 0
M  V30 29531 C 2719.46 -0.444884 -2.01753 0
M  V30 29532 C 2719.86 0.958043 -1.63151 0
M  V30 29533 O 2719.21 1.63377 -0.839856 0
M  V30 29534 C 2719.27 -0.483979 -3.56227 0
M  V30 29535 C 2718.93 -1.84273 -4.18202 0
M  V30 29536 C 2719.93 -2.8057 -4.37694 0
M  V30 29537 C 2717.61 -2.13511 -4.54663 0
M  V30 29538 C 2719.61 -4.0427 -4.92793 0
M  V30 29539 C 2717.3 -3.37467 -5.09469 0
M  V30 29540 C 2718.29 -4.32663 -5.2848 0
M  V30 29541 O 2717.98 -5.54427 -5.82122 0
M  V30 29542 H 2717.71 -0.175116 -0.652925 0
M  V30 29543 H 2720.27 -1.13085 -1.71467 0
M  V30 29544 H 2718.5 0.258758 -3.85833 0
M  V30 29545 H 2720.19 -0.109724 -4.05752 0
M  V30 29546 H 2720.95 -2.59282 -4.09876 0
M  V30 29547 H 2716.83 -1.40209 -4.39161 0
M  V30 29548 H 2720.38 -4.78583 -5.07547 0
M  V30 29549 H 2716.27 -3.58614 -5.36718 0
M  V30 29550 H 2717.04 -5.56144 -6.00539 0
M  V30 29551 N 2719.7 1.45999 -0.593476 0
M  V30 29552 C 2720.65 2.30413 0.133577 0
M  V30 29553 C 2721.62 1.41264 0.873711 0
M  V30 29554 O 2722.81 1.70205 0.862249 0
M  V30 29555 C 2719.95 3.25926 1.13428 0
M  V30 29556 C 2719.06 4.30177 0.396484 0
M  V30 29557 C 2718.19 5.12809 1.38566 0
M  V30 29558 C 2717.23 6.08799 0.634877 0
M  V30 29559 N 2716.37 6.8426 1.57264 0
M  V30 29560 H 2721.21 2.92054 -0.592303 0
M  V30 29561 H 2718.75 1.43927 -0.303899 0
M  V30 29562 H 2720.7 3.79756 1.72745 0
M  V30 29563 H 2719.33 2.6607 1.82775 0
M  V30 29564 H 2718.39 3.79119 -0.311927 0
M  V30 29565 H 2719.7 4.98438 -0.189957 0
M  V30 29566 H 2718.85 5.70969 2.05131 0
M  V30 29567 H 2717.59 4.44533 2.00604 0
M  V30 29568 H 2716.6 5.49782 -0.0444892 0
M  V30 29569 H 2717.82 6.79097 0.0197484 0
M  V30 29570 H 2715.77 6.18686 2.18092 0
M  V30 29571 H 2715.68 7.48822 1.03928 0
M  V30 29572 H 2716.95 7.46972 2.22831 0
M  V30 29573 N 2721.18 0.331843 1.54067 0
M  V30 29574 C 2722.15 -0.517729 2.23276 0
M  V30 29575 C 2723.15 -1.03695 1.22898 0
M  V30 29576 O 2724.34 -0.928058 1.4742 0
M  V30 29577 C 2721.47 -1.71998 2.94329 0
M  V30 29578 H 2722.66 0.0874034 2.99773 0
M  V30 29579 H 2720.21 0.0830317 1.56079 0
M  V30 29580 H 2720.95 -2.36413 2.2199 0
M  V30 29581 H 2720.73 -1.355 3.67943 0
M  V30 29582 H 2722.22 -2.32285 3.47035 0
M  V30 29583 N 2722.66 -1.57485 0.0601958 0
M  V30 29584 C 2723.91 -1.92221 -0.611067 0
M  V30 29585 C 2724.22 -0.941189 -1.71467 0
M  V30 29586 O 2725.43 -1.18093 -2.44471 0
M  V30 29587 C 2723.88 -3.41426 -1.13826 0
M  V30 29588 C 2723.49 -4.47951 -0.0662809 0
M  V30 29589 C 2725.24 -3.85182 -1.78425 0
M  V30 29590 C 2723.14 -5.88278 -0.606862 0
M  V30 29591 H 2722.07 -0.717414 -0.232021 0
M  V30 29592 H 2724.72 -1.83035 0.13055 0
M  V30 29593 H 2723.11 -3.45646 -1.93247 0
M  V30 29594 H 2724.28 -4.55332 0.707762 0
M  V30 29595 H 2722.6 -4.13592 0.482788 0
M  V30 29596 H 2725.19 -4.87398 -2.19881 0
M  V30 29597 H 2725.54 -3.21917 -2.6396 0
M  V30 29598 H 2726.07 -3.83516 -1.05644 0
M  V30 29599 H 2722.81 -6.5516 0.211065 0
M  V30 29600 H 2722.33 -5.8444 -1.34869 0
M  V30 29601 H 2724.01 -6.37805 -1.08693 0
M  V30 29602 N 2724.14 0.213268 -1.5615 0
M  V30 29603 C 2725.07 1.28799 -1.89588 0
M  V30 29604 C 2726.08 1.42631 -0.784869 0
M  V30 29605 O 2727.27 1.43381 -1.06321 0
M  V30 29606 C 2724.37 2.66255 -2.0967 0
M  V30 29607 C 2723.55 2.74264 -3.40731 0
M  V30 29608 C 2722.6 3.92792 -3.50144 0
M  V30 29609 O 2721.63 3.80743 -4.23112 0
M  V30 29610 N 2722.83 5.0746 -2.81895 0
M  V30 29611 H 2725.6 1.00437 -2.82369 0
M  V30 29612 H 2723.16 0.403274 -1.56797 0
M  V30 29613 H 2725.15 3.43942 -2.13274 0
M  V30 29614 H 2723.72 2.87181 -1.23474 0
M  V30 29615 H 2722.94 1.8299 -3.49153 0
M  V30 29616 H 2724.23 2.76592 -4.27053 0
M  V30 29617 H 2723.63 5.20146 -2.22406 0
M  V30 29618 H 2722.18 5.8316 -2.9115 0
M  V30 29619 N 2725.62 1.50103 0.480296 0
M  V30 29620 C 2726.57 1.64683 1.57682 0
M  V30 29621 C 2727.55 0.501727 1.52877 0
M  V30 29622 O 2728.74 0.755696 1.60057 0
M  V30 29623 C 2725.87 1.73583 2.96182 0
M  V30 29624 C 2724.96 2.9374 3.05905 0
M  V30 29625 N 2725.35 4.17545 2.85464 0
M  V30 29626 C 2723.65 2.92107 3.37031 0
M  V30 29627 C 2724.35 4.98425 2.99912 0
M  V30 29628 N 2723.32 4.32197 3.29707 0
M  V30 29629 H 2727.13 2.58107 1.40563 0
M  V30 29630 H 2724.64 1.4716 0.686848 0
M  V30 29631 H 2726.64 1.8213 3.75012 0
M  V30 29632 H 2725.3 0.813112 3.14354 0
M  V30 29633 H 2726.31 4.47192 2.61227 0
M  V30 29634 H 2722.98 2.09297 3.61249 0
M  V30 29635 H 2724.37 6.06845 2.88426 0
M  V30 29636 N 2727.09 -0.732829 1.39526 0
M  V30 29637 C 2728.02 -1.86003 1.41157 0
M  V30 29638 C 2729.01 -1.67868 0.274644 0
M  V30 29639 O 2730.19 -1.88155 0.480778 0
M  V30 29640 C 2727.32 -3.23776 1.25644 0
M  V30 29641 C 2726.27 -3.56552 2.36759 0
M  V30 29642 C 2725.6 -4.93285 2.06334 0
M  V30 29643 C 2726.9 -3.59303 3.79076 0
M  V30 29644 H 2728.59 -1.84895 2.35487 0
M  V30 29645 H 2726.14 -0.888142 1.13349 0
M  V30 29646 H 2728.09 -4.02308 1.25405 0
M  V30 29647 H 2726.82 -3.25416 0.277829 0
M  V30 29648 H 2725.48 -2.80351 2.36218 0
M  V30 29649 H 2725.12 -4.91508 1.06906 0
M  V30 29650 H 2724.82 -5.16182 2.80766 0
M  V30 29651 H 2726.35 -5.74171 2.07749 0
M  V30 29652 H 2727.76 -4.27907 3.81534 0
M  V30 29653 H 2726.16 -3.9372 4.52885 0
M  V30 29654 H 2727.23 -2.5906 4.09897 0
M  V30 29655 N 2728.57 -1.24737 -0.963244 0
M  V30 29656 C 2729.8 -1.11785 -1.74697 0
M  V30 29657 C 2730.22 0.325226 -1.85267 0
M  V30 29658 O 2729.58 1.23551 -1.32683 0
M  V30 29659 C 2729.63 -1.76737 -3.14319 0
M  V30 29660 O 2728.73 -1.04116 -3.99041 0
M  V30 29661 H 2728.07 -0.390777 -0.536833 0
M  V30 29662 H 2730.6 -1.65133 -1.20798 0
M  V30 29663 H 2730.61 -1.82674 -3.64821 0
M  V30 29664 H 2729.29 -2.81732 -3.05941 0
M  V30 29665 H 2727.87 -1.05998 -3.57518 0
M  V30 29666 N 2730.05 1.16459 -1.06184 0
M  V30 29667 C 2731.47 1.38955 -0.785089 0
M  V30 29668 C 2731.67 1.91851 0.61607 0
M  V30 29669 O 2730.72 2.1166 1.37682 0
M  V30 29670 C 2732.04 2.37129 -1.84906 0
M  V30 29671 C 2733.58 2.50816 -1.87244 0
M  V30 29672 C 2734.06 3.52272 -2.92692 0
M  V30 29673 N 2735.55 3.59798 -2.91719 0
M  V30 29674 C 2736.28 4.38086 -3.69957 0
M  V30 29675 N 2735.78 5.19807 -4.58009 0
M  V30 29676 N 2737.57 4.33058 -3.58353 0
M  V30 29677 H 2729.72 0.8046 -1.9657 0
M  V30 29678 H 2731.99 0.416196 -0.851754 0
M  V30 29679 H 2731.69 2.05355 -2.85521 0
M  V30 29680 H 2731.57 3.36763 -1.69914 0
M  V30 29681 H 2733.95 2.81895 -0.872877 0
M  V30 29682 H 2734.04 1.51222 -2.06314 0
M  V30 29683 H 2733.68 3.2193 -3.92841 0
M  V30 29684 H 2733.61 4.51593 -2.70872 0
M  V30 29685 H 2736.1 3.0146 -2.27882 0
M  V30 29686 H 2736.41 5.76755 -5.14367 0
M  V30 29687 H 2734.76 5.19154 -4.62065 0
M  V30 29688 H 2737.95 3.68274 -2.88949 0
M  V30 29689 H 2738.12 4.93825 -4.19572 0
M  V30 29690 N 2731.53 0.844266 1.33079 0
M  V30 29691 C 2732.49 0.286525 2.27402 0
M  V30 29692 C 2733.49 -0.547845 1.5118 0
M  V30 29693 O 2734.68 -0.360856 1.70421 0
M  V30 29694 C 2731.81 -0.595754 3.35654 0
M  V30 29695 H 2733.01 1.1189 2.78246 0
M  V30 29696 H 2730.56 0.617774 1.43573 0
M  V30 29697 H 2731.29 -1.45035 2.90061 0
M  V30 29698 H 2731.08 0.00132887 3.921 0
M  V30 29699 H 2732.57 -0.979097 4.0596 0
M  V30 29700 N 2733.01 -1.45682 0.60121 0
M  V30 29701 C 2734.25 -2.02282 0.0939167 0
M  V30 29702 C 2734.58 -1.47043 -1.27313 0
M  V30 29703 O 2733.84 -0.632655 -1.85192 0
M  V30 29704 C 2734.14 -3.574 -0.00216142 0
M  V30 29705 C 2733.8 -4.31762 1.2997 0
M  V30 29706 C 2732.46 -4.51795 1.65633 0
M  V30 29707 C 2734.82 -4.74317 2.16038 0
M  V30 29708 C 2732.14 -5.11639 2.87128 0
M  V30 29709 C 2734.5 -5.35504 3.36776 0
M  V30 29710 C 2733.16 -5.53762 3.72698 0
M  V30 29711 H 2732.43 -0.740203 0.0343665 0
M  V30 29712 H 2735.08 -1.74826 0.781552 0
M  V30 29713 H 2733.38 -3.84098 -0.773028 0
M  V30 29714 H 2735.08 -3.98891 -0.410724 0
M  V30 29715 H 2731.67 -4.16478 1.01211 0
M  V30 29716 H 2735.85 -4.58579 1.89786 0
M  V30 29717 H 2731.11 -5.23964 3.15074 0
M  V30 29718 H 2735.28 -5.67434 4.03723 0
M  V30 29719 H 2732.91 -5.99901 4.66929 0
M  V30 29720 N 2734.48 -0.340009 -1.53889 0
M  V30 29721 C 2735.9 0.144638 -1.86139 0
M  V30 29722 C 2736.25 1.50283 -1.26132 0
M  V30 29723 O 2735.37 2.08661 -0.573552 0
M  V30 29724 C 2735.97 0.269226 -3.37729 0
M  V30 29725 C 2734.53 0.698103 -3.6987 0
M  V30 29726 C 2733.67 -0.170298 -2.76777 0
M  V30 29727 H 2736.62 -0.55973 -1.48502 0
M  V30 29728 H 2736.64 1.09734 -3.64333 0
M  V30 29729 H 2736.16 -0.719433 -3.81374 0
M  V30 29730 H 2734.26 1.69591 -3.31767 0
M  V30 29731 H 2734.37 0.490449 -4.76583 0
M  V30 29732 H 2732.73 0.356799 -2.52188 0
M  V30 29733 H 2733.52 -1.15603 -3.23251 0
M  V30 29734 N 2735.96 1.57451 -0.0685468 0
M  V30 29735 C 2737.19 1.98107 0.613884 0
M  V30 29736 C 2737.61 0.94653 1.6255 0
M  V30 29737 O 2736.97 -0.0882506 1.81085 0
M  V30 29738 C 2737.02 3.37802 1.26183 0
M  V30 29739 O 2736.12 3.36958 2.37767 0
M  V30 29740 H 2735.46 0.644891 0.158152 0
M  V30 29741 H 2737.99 2.04106 -0.142099 0
M  V30 29742 H 2738 3.74915 1.60944 0
M  V30 29743 H 2736.68 4.12629 0.520553 0
M  V30 29744 H 2735.26 3.11612 2.04823 0
M  V30 29745 N 2737.44 -0.204984 1.56261 0
M  V30 29746 C 2738.69 -0.928268 1.80308 0
M  V30 29747 C 2739.02 -1.83317 0.640964 0
M  V30 29748 O 2738.3 -1.91158 -0.358998 0
M  V30 29749 C 2738.58 -1.75301 3.1455 0
M  V30 29750 C 2738.43 -0.873485 4.41237 0
M  V30 29751 C 2739.75 -2.72756 3.45387 0
M  V30 29752 H 2736.87 -0.336033 0.655935 0
M  V30 29753 H 2739.51 -0.196178 1.88985 0
M  V30 29754 H 2737.66 -2.37716 3.07284 0
M  V30 29755 H 2739.33 -0.264806 4.60539 0
M  V30 29756 H 2737.58 -0.179697 4.33428 0
M  V30 29757 H 2738.25 -1.48531 5.31641 0
M  V30 29758 H 2740.72 -2.20475 3.52888 0
M  V30 29759 H 2739.6 -3.27552 4.40455 0
M  V30 29760 H 2739.86 -3.51316 2.68383 0
M  V30 29761 N 2738.92 -1.50356 -0.472329 0
M  V30 29762 C 2740.15 -1.65037 -1.24781 0
M  V30 29763 C 2740.56 -0.333209 -1.85836 0
M  V30 29764 O 2739.92 0.68469 -1.69169 0
M  V30 29765 C 2739.97 -2.74058 -2.35742 0
M  V30 29766 O 2739.69 -4.00668 -1.7719 0
M  V30 29767 C 2741.19 -2.99702 -3.2664 0
M  V30 29768 H 2738.41 -0.554791 -0.377423 0
M  V30 29769 H 2740.96 -1.96571 -0.563928 0
M  V30 29770 H 2739.11 -2.45223 -2.99908 0
M  V30 29771 H 2739.53 -4.60949 -2.50252 0
M  V30 29772 H 2741 -3.79651 -4.00711 0
M  V30 29773 H 2741.48 -2.10724 -3.85346 0
M  V30 29774 H 2742.08 -3.30064 -2.68212 0
M  V30 29775 N 2740.4 0.725419 -1.39912 0
M  V30 29776 C 2741.65 1.48222 -1.37385 0
M  V30 29777 C 2741.97 1.94982 0.0263765 0
M  V30 29778 O 2741.24 1.69661 0.979378 0
M  V30 29779 H 2739.82 0.549883 -0.505606 0
M  V30 29780 H 2742.48 0.860577 -1.74872 0
M  V30 29781 H 2741.57 2.35977 -2.04258 0
M  V30 29782 N 2741.88 1.25246 0.956615 0
M  V30 29783 C 2743.12 1.09877 1.70098 0
M  V30 29784 C 2743.45 -0.360587 1.91128 0
M  V30 29785 O 2742.71 -1.28226 1.4784 0
M  V30 29786 C 2743 1.79606 3.08992 0
M  V30 29787 C 2742.67 3.29529 3.07769 0
M  V30 29788 C 2741.33 3.70428 3.07142 0
M  V30 29789 C 2743.68 4.25321 3.0125 0
M  V30 29790 C 2741.01 5.05535 2.97743 0
M  V30 29791 C 2743.36 5.60449 2.93393 0
M  V30 29792 C 2742.03 6.0068 2.91101 0
M  V30 29793 H 2741.3 0.402067 0.622433 0
M  V30 29794 H 2743.95 1.55493 1.11777 0
M  V30 29795 H 2742.25 1.26415 3.70846 0
M  V30 29796 H 2743.95 1.65169 3.65404 0
M  V30 29797 H 2740.54 2.96985 3.09027 0
M  V30 29798 H 2744.72 3.94716 3.00854 0
M  V30 29799 H 2739.98 5.35888 2.94336 0
M  V30 29800 H 2744.15 6.34371 2.87309 0
M  V30 29801 H 2741.78 7.0533 2.83573 0
M  V30 29802 N 2743.35 -1.15894 1.068 0
M  V30 29803 C 2744.6 -1.85889 0.782829 0
M  V30 29804 C 2744.92 -1.82895 -0.693466 0
M  V30 29805 O 2746.12 -2.48518 -1.0932 0
M  V30 29806 C 2744.58 -3.33611 1.35026 0
M  V30 29807 C 2744.19 -3.45066 2.85716 0
M  V30 29808 C 2745.93 -4.08827 1.14285 0
M  V30 29809 C 2743.84 -4.86903 3.35678 0
M  V30 29810 H 2742.77 -0.696349 0.289161 0
M  V30 29811 H 2745.42 -1.30764 1.28736 0
M  V30 29812 H 2743.8 -3.88373 0.773475 0
M  V30 29813 H 2744.97 -3.00439 3.4939 0
M  V30 29814 H 2743.29 -2.83289 3.05183 0
M  V30 29815 H 2745.89 -5.13493 1.49096 0
M  V30 29816 H 2746.23 -4.1622 0.0815307 0
M  V30 29817 H 2746.76 -3.60318 1.68569 0
M  V30 29818 H 2743.5 -4.84691 4.41311 0
M  V30 29819 H 2743.02 -5.32134 2.76755 0
M  V30 29820 H 2744.7 -5.55739 3.31305 0
M  V30 29821 N 2744.83 -0.851312 -1.32629 0
M  V30 29822 C 2746.06 -0.466934 -2.01562 0
M  V30 29823 C 2746.47 0.935418 -1.63998 0
M  V30 29824 O 2745.83 1.60988 -0.859598 0
M  V30 29825 C 2745.88 -0.592496 -3.56611 0
M  V30 29826 O 2745.6 -1.9396 -3.92824 0
M  V30 29827 C 2747.1 -0.20669 -4.42818 0
M  V30 29828 H 2744.32 -0.183914 -0.645304 0
M  V30 29829 H 2746.87 -1.14733 -1.69283 0
M  V30 29830 H 2745.02 0.0401255 -3.87379 0
M  V30 29831 H 2745.44 -1.93399 -4.87542 0
M  V30 29832 H 2746.91 -0.345559 -5.50917 0
M  V30 29833 H 2747.39 0.852564 -4.30846 0
M  V30 29834 H 2747.99 -0.814249 -4.17433 0
M  V30 29835 N 2746.31 1.45361 -0.608928 0
M  V30 29836 C 2747.24 2.28726 0.147277 0
M  V30 29837 C 2748.25 1.40027 0.830443 0
M  V30 29838 O 2749.44 1.64388 0.695607 0
M  V30 29839 C 2746.54 3.15806 1.22963 0
M  V30 29840 C 2745.72 4.32791 0.633315 0
M  V30 29841 C 2744.78 5.0107 1.60673 0
M  V30 29842 O 2743.8 5.5782 1.13251 0
M  V30 29843 N 2745 5.00477 2.94114 0
M  V30 29844 H 2747.77 2.94267 -0.568066 0
M  V30 29845 H 2745.33 1.55564 -0.448507 0
M  V30 29846 H 2747.32 3.58348 1.88066 0
M  V30 29847 H 2745.89 2.52165 1.84747 0
M  V30 29848 H 2745.11 3.93713 -0.195831 0
M  V30 29849 H 2746.4 5.08345 0.215166 0
M  V30 29850 H 2745.8 4.55663 3.35242 0
M  V30 29851 H 2744.35 5.46879 3.54636 0
M  V30 29852 N 2747.79 0.348166 1.53706 0
M  V30 29853 C 2749.03 -0.247296 2.01287 0
M  V30 29854 C 2749.37 -1.49831 1.23548 0
M  V30 29855 O 2748.64 -1.91776 0.324364 0
M  V30 29856 C 2748.92 -0.556795 3.55769 0
M  V30 29857 C 2748.78 0.706642 4.44215 0
M  V30 29858 C 2750.1 -1.36453 4.18412 0
M  V30 29859 H 2747.22 -0.0884073 0.731678 0
M  V30 29860 H 2749.86 0.469616 1.84105 0
M  V30 29861 H 2748.01 -1.16755 3.70541 0
M  V30 29862 H 2749.68 1.34451 4.41271 0
M  V30 29863 H 2747.92 1.33059 4.12889 0
M  V30 29864 H 2748.59 0.445282 5.50201 0
M  V30 29865 H 2751.07 -0.848042 4.07366 0
M  V30 29866 H 2749.95 -1.54983 5.26566 0
M  V30 29867 H 2750.21 -2.36799 3.73335 0
M  V30 29868 N 2749.27 -1.57412 0.0768958 0
M  V30 29869 C 2750.49 -1.98011 -0.599935 0
M  V30 29870 C 2750.91 -0.955436 -1.6284 0
M  V30 29871 O 2750.27 0.0572819 -1.8241 0
M  V30 29872 C 2750.32 -3.38683 -1.26396 0
M  V30 29873 O 2750.04 -4.37226 -0.276646 0
M  V30 29874 C 2751.54 -3.94185 -2.02813 0
M  V30 29875 H 2748.76 -0.651094 -0.162227 0
M  V30 29876 H 2751.3 -2.03943 0.150807 0
M  V30 29877 H 2749.46 -3.33822 -1.96575 0
M  V30 29878 H 2749.87 -5.19057 -0.753653 0
M  V30 29879 H 2751.35 -4.9482 -2.44658 0
M  V30 29880 H 2751.82 -3.31006 -2.88672 0
M  V30 29881 H 2752.43 -4.02463 -1.37489 0
M  V30 29882 N 2750.74 0.196695 -1.56368 0
M  V30 29883 C 2751.97 0.937682 -1.84993 0
M  V30 29884 C 2752.39 1.76131 -0.660275 0
M  V30 29885 O 2751.75 1.77035 0.390936 0
M  V30 29886 C 2751.8 1.81091 -3.11831 0
M  V30 29887 O 2750.9 2.90949 -2.92271 0
M  V30 29888 H 2750.25 0.264148 -0.609198 0
M  V30 29889 H 2752.78 0.202493 -2.03595 0
M  V30 29890 H 2752.79 2.21587 -3.42583 0
M  V30 29891 H 2751.46 1.20573 -3.98039 0
M  V30 29892 H 2750.04 2.54219 -2.72813 0
M  V30 29893 N 2752.22 1.50604 0.464349 0
M  V30 29894 C 2753.45 1.65973 1.24369 0
M  V30 29895 C 2753.87 0.345486 1.849 0
M  V30 29896 O 2753.23 -0.691427 1.67598 0
M  V30 29897 C 2753.28 2.75784 2.32326 0
M  V30 29898 O 2752.38 2.37506 3.37142 0
M  V30 29899 H 2751.72 0.554289 0.365595 0
M  V30 29900 H 2754.25 1.97019 0.551796 0
M  V30 29901 H 2754.26 2.99064 2.77534 0
M  V30 29902 H 2752.94 3.71165 1.87642 0
M  V30 29903 H 2751.52 2.24699 2.97598 0
M  V30 29904 N 2753.7 -0.717989 1.40295 0
M  V30 29905 C 2754.95 -1.47783 1.38443 0
M  V30 29906 C 2755.28 -1.94495 -0.0140497 0
M  V30 29907 O 2754.53 -1.68332 -0.998135 0
M  V30 29908 C 2754.83 -2.7202 2.31819 0
M  V30 29909 C 2754.5 -2.44086 3.79121 0
M  V30 29910 C 2753.16 -2.36178 4.19253 0
M  V30 29911 C 2755.51 -2.20593 4.72216 0
M  V30 29912 C 2752.84 -2.02842 5.5052 0
M  V30 29913 C 2755.19 -1.8877 6.03779 0
M  V30 29914 C 2753.85 -1.79342 6.42956 0
M  V30 29915 H 2753.12 -0.540777 0.506598 0
M  V30 29916 H 2755.77 -0.822632 1.72931 0
M  V30 29917 H 2754.08 -3.42366 1.90507 0
M  V30 29918 H 2755.77 -3.30102 2.2767 0
M  V30 29919 H 2752.36 -2.51127 3.47323 0
M  V30 29920 H 2756.55 -2.25661 4.4203 0
M  V30 29921 H 2751.8 -1.94078 5.79779 0
M  V30 29922 H 2755.98 -1.69605 6.75431 0
M  V30 29923 H 2753.6 -1.53278 7.44587 0
M  V30 29924 N 2755.18 -1.25752 -0.94996 0
M  V30 29925 C 2756.4 -1.13631 -1.73501 0
M  V30 29926 C 2756.83 0.305557 -1.85602 0
M  V30 29927 O 2756.19 1.22137 -1.33986 0
M  V30 29928 C 2756.23 -1.80061 -3.12427 0
M  V30 29929 O 2755.34 -1.08343 -3.97914 0
M  V30 29930 H 2754.68 -0.396449 -0.532658 0
M  V30 29931 H 2757.21 -1.66405 -1.1904 0
M  V30 29932 H 2757.22 -1.86533 -3.62863 0
M  V30 29933 H 2755.89 -2.84961 -3.02936 0
M  V30 29934 H 2754.47 -1.09784 -3.56373 0
M  V30 29935 N 2756.66 1.15326 -1.07413 0
M  V30 29936 C 2757.88 1.90549 -0.818889 0
M  V30 29937 C 2758.31 1.77513 0.622163 0
M  V30 29938 O 2757.66 1.10826 1.43482 0
M  V30 29939 C 2757.71 3.38875 -1.23273 0
M  V30 29940 O 2756.82 4.1066 -0.378418 0
M  V30 29941 H 2756.16 0.593233 -0.29828 0
M  V30 29942 H 2758.69 1.46043 -1.43292 0
M  V30 29943 H 2758.7 3.8967 -1.20919 0
M  V30 29944 H 2757.37 3.47682 -2.28232 0
M  V30 29945 H 2755.95 3.69996 -0.464502 0
M  V30 29946 N 2758.13 0.858334 1.32176 0
M  V30 29947 C 2759.04 0.308647 2.32561 0
M  V30 29948 C 2760.06 -0.575433 1.6421 0
M  V30 29949 O 2761.24 -0.474926 1.9572 0
M  V30 29950 C 2758.3 -0.490848 3.43208 0
M  V30 29951 C 2757.36 0.419808 4.27242 0
M  V30 29952 C 2756.6 -0.341625 5.32605 0
M  V30 29953 O 2756.82 -1.57115 5.48335 0
M  V30 29954 O 2755.75 0.294485 6.01179 0
M  V30 29955 H 2759.58 1.14042 2.81475 0
M  V30 29956 H 2757.16 0.621373 1.35865 0
M  V30 29957 H 2759.05 -0.944502 4.10679 0
M  V30 29958 H 2757.72 -1.29936 2.96476 0
M  V30 29959 H 2756.63 0.921715 3.62568 0
M  V30 29960 H 2757.96 1.1936 4.77508 0
M  V30 29961 N 2759.61 -1.45036 0.616628 0
M  V30 29962 C 2760.54 -2.33349 -0.0840377 0
M  V30 29963 C 2761.52 -1.47362 -0.849615 0
M  V30 29964 O 2762.71 -1.76114 -0.818376 0
M  V30 29965 C 2759.84 -3.30212 -1.07599 0
M  V30 29966 C 2758.79 -4.25904 -0.423021 0
M  V30 29967 C 2758.12 -5.12526 -1.52385 0
M  V30 29968 C 2759.42 -5.18093 0.661549 0
M  V30 29969 H 2761.11 -2.92184 0.653385 0
M  V30 29970 H 2758.66 -1.40498 0.315658 0
M  V30 29971 H 2760.61 -3.90869 -1.57479 0
M  V30 29972 H 2759.34 -2.69555 -1.84412 0
M  V30 29973 H 2757.99 -3.66559 0.0549944 0
M  V30 29974 H 2757.64 -4.48231 -2.28249 0
M  V30 29975 H 2757.34 -5.77356 -1.09241 0
M  V30 29976 H 2758.87 -5.76052 -2.02474 0
M  V30 29977 H 2760.28 -5.7277 0.246453 0
M  V30 29978 H 2758.68 -5.91449 1.01527 0
M  V30 29979 H 2759.75 -4.59978 1.53454 0
M  V30 29980 N 2761.09 -0.356312 -1.53519 0
M  V30 29981 C 2762.32 0.236947 -2.05237 0
M  V30 29982 C 2762.73 1.43746 -1.23019 0
M  V30 29983 O 2762.07 1.81829 -0.261532 0
M  V30 29984 C 2762.13 0.703438 -3.52551 0
M  V30 29985 C 2761.8 -0.379139 -4.55425 0
M  V30 29986 C 2762.79 -1.22601 -5.05238 0
M  V30 29987 C 2760.48 -0.536726 -4.99424 0
M  V30 29988 C 2762.47 -2.21589 -5.97643 0
M  V30 29989 C 2760.16 -1.52999 -5.91637 0
M  V30 29990 C 2761.16 -2.36801 -6.40636 0
M  V30 29991 O 2760.85 -3.34434 -7.31033 0
M  V30 29992 H 2760.58 0.0472422 -0.674347 0
M  V30 29993 H 2763.13 -0.510273 -1.98961 0
M  V30 29994 H 2761.36 1.50211 -3.56333 0
M  V30 29995 H 2763.05 1.21867 -3.87174 0
M  V30 29996 H 2763.82 -1.11541 -4.72 0
M  V30 29997 H 2759.7 0.105753 -4.60879 0
M  V30 29998 H 2763.24 -2.87036 -6.35811 0
M  V30 29999 H 2759.14 -1.6411 -6.2429 0
M  V30 30000 H 2759.91 -3.30054 -7.49004 0
M  V30 30001 N 2762.57 1.57369 -0.0852427 0
M  V30 30002 C 2763.5 2.16505 0.874518 0
M  V30 30003 C 2764.48 1.0957 1.30109 0
M  V30 30004 O 2765.66 1.37665 1.36975 0
M  V30 30005 C 2762.79 2.73749 2.13726 0
M  V30 30006 C 2761.75 3.85969 1.84964 0
M  V30 30007 C 2761.07 4.29873 3.17983 0
M  V30 30008 C 2762.37 5.0961 1.14433 0
M  V30 30009 H 2764.07 2.96955 0.381847 0
M  V30 30010 H 2761.61 1.42842 0.182225 0
M  V30 30011 H 2763.57 3.13768 2.81297 0
M  V30 30012 H 2762.29 1.90539 2.65259 0
M  V30 30013 H 2760.95 3.46475 1.19794 0
M  V30 30014 H 2760.6 3.43567 3.67384 0
M  V30 30015 H 2760.3 5.05528 2.99525 0
M  V30 30016 H 2761.82 4.72518 3.86729 0
M  V30 30017 H 2763.24 5.4686 1.72096 0
M  V30 30018 H 2761.63 5.9063 1.06187 0
M  V30 30019 H 2762.7 4.84738 0.125505 0
M  V30 30020 N 2764.05 -0.188399 1.5647 0
M  V30 30021 C 2765.46 -0.539505 1.50205 0
M  V30 30022 C 2765.66 -1.85518 0.786472 0
M  V30 30023 O 2764.72 -2.50204 0.339758 0
M  V30 30024 C 2766.03 -0.588051 2.94894 0
M  V30 30025 C 2767.58 -0.676426 3.05603 0
M  V30 30026 C 2768.05 -0.756022 4.51717 0
M  V30 30027 N 2769.55 -0.819371 4.55895 0
M  V30 30028 C 2770.28 -0.90124 5.66273 0
M  V30 30029 N 2769.78 -0.944998 6.86325 0
M  V30 30030 N 2771.57 -0.938946 5.54202 0
M  V30 30031 H 2763.72 0.674529 2.01405 0
M  V30 30032 H 2765.98 0.241119 0.916824 0
M  V30 30033 H 2765.69 0.309695 3.50334 0
M  V30 30034 H 2765.56 -1.44045 3.48613 0
M  V30 30035 H 2767.95 -1.5646 2.50208 0
M  V30 30036 H 2768.03 0.202307 2.54999 0
M  V30 30037 H 2767.68 0.127829 5.07739 0
M  V30 30038 H 2767.61 -1.65065 5.00061 0
M  V30 30039 H 2770.1 -0.794529 3.69453 0
M  V30 30040 H 2770.41 -1.00817 7.66196 0
M  V30 30041 H 2768.75 -0.913562 6.8897 0
M  V30 30042 H 2771.95 -0.901644 4.59334 0
M  V30 30043 H 2772.12 -0.99929 6.40249 0
M  V30 30044 N 2765.53 -1.50848 -0.456355 0
M  V30 30045 C 2766.77 -1.62573 -1.20733 0
M  V30 30046 C 2767.1 -0.332938 -1.91629 0
M  V30 30047 O 2766.36 0.682026 -1.83431 0
M  V30 30048 C 2766.65 -2.76603 -2.26331 0
M  V30 30049 C 2766.32 -4.16565 -1.72583 0
M  V30 30050 C 2764.98 -4.54644 -1.57646 0
M  V30 30051 C 2767.33 -5.0398 -1.32868 0
M  V30 30052 C 2764.66 -5.77864 -1.0144 0
M  V30 30053 C 2767.01 -6.27761 -0.78099 0
M  V30 30054 C 2765.68 -6.6463 -0.618371 0
M  V30 30055 H 2764.95 -0.594896 -0.441792 0
M  V30 30056 H 2767.6 -1.84827 -0.501137 0
M  V30 30057 H 2765.9 -2.48495 -3.02915 0
M  V30 30058 H 2767.6 -2.82876 -2.84222 0
M  V30 30059 H 2764.19 -3.86531 -1.8518 0
M  V30 30060 H 2768.37 -4.75181 -1.43236 0
M  V30 30061 H 2763.63 -6.05092 -0.876002 0
M  V30 30062 H 2767.8 -6.94848 -0.464661 0
M  V30 30063 H 2765.43 -7.59985 -0.180705 0
M  V30 30064 N 2767 0.710538 -1.40674 0
M  V30 30065 C 2768.23 1.50462 -1.42744 0
M  V30 30066 C 2768.65 1.88076 -0.0302447 0
M  V30 30067 O 2768.01 1.53615 0.962918 0
M  V30 30068 C 2768.06 2.75318 -2.32878 0
M  V30 30069 O 2767.16 3.72222 -1.77551 0
M  V30 30070 H 2766.5 0.453441 -0.485064 0
M  V30 30071 H 2769.03 0.874648 -1.84962 0
M  V30 30072 H 2769.04 3.23792 -2.48239 0
M  V30 30073 H 2767.72 2.47277 -3.34405 0
M  V30 30074 H 2766.3 3.3109 -1.71562 0
M  V30 30075 N 2768.48 1.26254 0.943277 0
M  V30 30076 C 2769.43 1.07629 2.04168 0
M  V30 30077 C 2770.4 -0.0180446 1.6609 0
M  V30 30078 O 2771.58 0.141322 1.90276 0
M  V30 30079 C 2768.72 0.713103 3.37652 0
M  V30 30080 C 2767.84 1.88347 3.88779 0
M  V30 30081 C 2766.97 1.46359 5.10639 0
M  V30 30082 C 2766.01 2.60239 5.54024 0
M  V30 30083 N 2765.15 2.18948 6.67088 0
M  V30 30084 H 2769.99 2.01627 2.19432 0
M  V30 30085 H 2767.52 1.00391 1.07517 0
M  V30 30086 H 2769.48 0.483431 4.1439 0
M  V30 30087 H 2768.11 -0.189903 3.22241 0
M  V30 30088 H 2767.16 2.22613 3.0846 0
M  V30 30089 H 2768.48 2.73828 4.16917 0
M  V30 30090 H 2767.63 1.19424 5.9483 0
M  V30 30091 H 2766.37 0.579653 4.84243 0
M  V30 30092 H 2765.37 2.87906 4.68391 0
M  V30 30093 H 2766.6 3.49229 5.82422 0
M  V30 30094 H 2764.55 1.32985 6.42379 0
M  V30 30095 H 2764.46 2.97973 6.94801 0
M  V30 30096 H 2765.73 1.95219 7.54659 0
M  V30 30097 N 2769.96 -1.14755 1.08024 0
M  V30 30098 C 2771.38 -1.37688 0.807096 0
M  V30 30099 C 2771.58 -1.92807 -0.58547 0
M  V30 30100 O 2770.63 -2.13824 -1.34297 0
M  V30 30101 C 2771.94 -2.34158 1.88655 0
M  V30 30102 C 2773.49 -2.47805 1.91211 0
M  V30 30103 C 2773.97 -3.47571 2.98259 0
M  V30 30104 N 2775.46 -3.55111 2.97406 0
M  V30 30105 C 2776.19 -4.32145 3.76879 0
M  V30 30106 N 2775.69 -5.12455 4.66221 0
M  V30 30107 N 2777.48 -4.27302 3.65198 0
M  V30 30108 H 2769.63 -0.773225 1.97826 0
M  V30 30109 H 2771.9 -0.402593 0.858267 0
M  V30 30110 H 2771.6 -2.00786 2.88752 0
M  V30 30111 H 2771.48 -3.34017 1.7525 0
M  V30 30112 H 2773.86 -2.80471 0.917613 0
M  V30 30113 H 2773.94 -1.47921 2.08694 0
M  V30 30114 H 2773.59 -3.15639 3.97912 0
M  V30 30115 H 2773.52 -4.47226 2.78022 0
M  V30 30116 H 2776.01 -2.97797 2.32649 0
M  V30 30117 H 2776.32 -5.68499 5.23478 0
M  V30 30118 H 2774.67 -5.11737 4.70266 0
M  V30 30119 H 2777.86 -3.63631 2.94772 0
M  V30 30120 H 2778.03 -4.87088 4.27375 0
M  V30 30121 N 2771.44 -0.865331 -1.31719 0
M  V30 30122 C 2772.69 -0.47303 -1.96486 0
M  V30 30123 C 2773.01 0.976946 -1.68762 0
M  V30 30124 O 2772.28 1.68422 -1.00054 0
M  V30 30125 H 2770.86 -0.171934 -0.726944 0
M  V30 30126 H 2773.52 -1.1041 -1.6061 0
M  V30 30127 H 2772.61 -0.626924 -3.05739 0
M  V30 30128 N 2772.92 1.44707 -0.624311 0
M  V30 30129 C 2773.86 2.30645 0.084673 0
M  V30 30130 C 2774.83 1.43085 0.84355 0
M  V30 30131 O 2776.02 1.71996 0.825952 0
M  V30 30132 C 2773.16 3.28259 1.06489 0
M  V30 30133 C 2772.27 4.30921 0.305148 0
M  V30 30134 C 2771.41 5.15633 1.27658 0
M  V30 30135 C 2770.44 6.10008 0.505599 0
M  V30 30136 N 2769.58 6.87442 1.42715 0
M  V30 30137 H 2774.42 2.90732 -0.654119 0
M  V30 30138 H 2771.96 1.4325 -0.334359 0
M  V30 30139 H 2773.92 3.83335 1.64651 0
M  V30 30140 H 2772.55 2.69887 1.7709 0
M  V30 30141 H 2771.6 3.78372 -0.392274 0
M  V30 30142 H 2772.91 4.97923 -0.29564 0
M  V30 30143 H 2772.06 5.75192 1.92974 0
M  V30 30144 H 2770.8 4.48688 1.91129 0
M  V30 30145 H 2769.81 5.49564 -0.161096 0
M  V30 30146 H 2771.03 6.78986 -0.124303 0
M  V30 30147 H 2768.98 6.23172 2.0492 0
M  V30 30148 H 2768.9 7.50858 0.880213 0
M  V30 30149 H 2770.16 7.5153 2.06937 0
M  V30 30150 N 2774.39 0.364449 1.53328 0
M  V30 30151 C 2775.64 -0.225599 2.01239 0
M  V30 30152 C 2775.97 -1.48867 1.25175 0
M  V30 30153 O 2775.22 -1.9284 0.333323 0
M  V30 30154 C 2775.52 -0.564599 3.52912 0
M  V30 30155 C 2775.19 0.604014 4.46836 0
M  V30 30156 C 2773.85 0.924668 4.72232 0
M  V30 30157 C 2776.2 1.387 5.02406 0
M  V30 30158 C 2773.53 2.0303 5.50451 0
M  V30 30159 C 2775.88 2.48303 5.81832 0
M  V30 30160 C 2774.55 2.80905 6.05515 0
M  V30 30161 H 2773.82 -0.0825525 0.736387 0
M  V30 30162 H 2776.46 0.496678 1.84947 0
M  V30 30163 H 2774.77 -1.36788 3.67146 0
M  V30 30164 H 2776.47 -1.03337 3.87456 0
M  V30 30165 H 2773.06 0.344058 4.27217 0
M  V30 30166 H 2777.24 1.15252 4.82733 0
M  V30 30167 H 2772.5 2.28688 5.6702 0
M  V30 30168 H 2776.67 3.09391 6.23899 0
M  V30 30169 H 2774.3 3.667 6.65909 0
M  V30 30170 N 2775.87 -1.57322 0.0935872 0
M  V30 30171 C 2777.12 -1.94298 -0.570475 0
M  V30 30172 C 2777.45 -0.975219 -1.68285 0
M  V30 30173 O 2776.7 0.00545215 -1.95699 0
M  V30 30174 C 2777 -3.37815 -1.16686 0
M  V30 30175 C 2776.67 -4.50547 -0.17843 0
M  V30 30176 C 2775.33 -4.81109 0.0934321 0
M  V30 30177 C 2777.68 -5.18829 0.496563 0
M  V30 30178 C 2775.01 -5.77282 1.04701 0
M  V30 30179 C 2777.36 -6.16025 1.4386 0
M  V30 30180 C 2776.02 -6.44994 1.71871 0
M  V30 30181 H 2775.29 -0.710988 -0.208752 0
M  V30 30182 H 2777.94 -1.90752 0.169099 0
M  V30 30183 H 2776.25 -3.37932 -1.98265 0
M  V30 30184 H 2777.94 -3.63725 -1.68834 0
M  V30 30185 H 2774.53 -4.26725 -0.400509 0
M  V30 30186 H 2778.72 -4.95394 0.299671 0
M  V30 30187 H 2773.97 -5.98042 1.27104 0
M  V30 30188 H 2778.15 -6.6803 1.96745 0
M  V30 30189 H 2775.77 -7.19325 2.45919 0
M  V30 30190 N 2777.35 0.180099 -1.56568 0
M  V30 30191 C 2778.77 0.531532 -1.50489 0
M  V30 30192 C 2778.97 1.85098 -0.7963 0
M  V30 30193 O 2778.02 2.5002 -0.353022 0
M  V30 30194 C 2779.33 0.572404 -2.95202 0
M  V30 30195 C 2780.88 0.66021 -3.05958 0
M  V30 30196 C 2781.36 0.732056 -4.52112 0
M  V30 30197 N 2782.85 0.795182 -4.56323 0
M  V30 30198 C 2783.58 0.871197 -5.66743 0
M  V30 30199 N 2783.08 0.908587 -6.86816 0
M  V30 30200 N 2784.87 0.909542 -5.54692 0
M  V30 30201 H 2777.02 -0.6852 -2.01044 0
M  V30 30202 H 2779.29 -0.245978 -0.915532 0
M  V30 30203 H 2778.99 -0.32827 -3.50165 0
M  V30 30204 H 2778.87 1.42194 -3.49372 0
M  V30 30205 H 2781.25 1.55131 -2.51035 0
M  V30 30206 H 2781.33 -0.215828 -2.54888 0
M  V30 30207 H 2780.98 -0.154754 -5.07664 0
M  V30 30208 H 2780.91 1.62411 -5.00929 0
M  V30 30209 H 2783.4 0.774925 -3.69869 0
M  V30 30210 H 2783.71 0.967519 -7.6672 0
M  V30 30211 H 2782.06 0.877011 -6.89444 0
M  V30 30212 H 2785.25 0.877272 -4.59806 0
M  V30 30213 H 2785.42 0.965322 -6.40769 0
M  V30 30214 N 2778.83 1.51088 0.448349 0
M  V30 30215 C 2780.1 1.53743 1.20923 0
M  V30 30216 C 2780.48 0.295258 2.09025 0
M  V30 30217 O 2779.83 -0.720245 2.16852 0
M  V30 30218 C 2780.04 2.84556 2.02062 0
M  V30 30219 C 2781.39 3.36088 2.5948 0
M  V30 30220 O 2782.41 2.86032 2.12284 0
M  V30 30221 O 2781.27 4.23403 3.45531 0
M  V30 30222 H 2778.37 0.617653 0.54994 0
M  V30 30223 H 2780.91 1.63394 0.458315 0
M  V30 30224 H 2779.69 3.66427 1.37284 0
M  V30 30225 H 2779.31 2.78016 2.84241 0
M  V30 30226 N 2780.31 -0.703068 1.41049 0
M  V30 30227 C 2781.27 -1.79882 1.42039 0
M  V30 30228 C 2782.27 -1.57741 0.312181 0
M  V30 30229 O 2783.46 -1.64552 0.571701 0
M  V30 30230 C 2780.59 -3.18152 1.22443 0
M  V30 30231 H 2781.78 -1.80398 2.39575 0
M  V30 30232 H 2779.34 -0.909955 1.27081 0
M  V30 30233 H 2780.07 -3.23279 0.257169 0
M  V30 30234 H 2779.86 -3.35624 2.02729 0
M  V30 30235 H 2781.35 -3.98153 1.25953 0
M  V30 30236 N 2781.78 -1.26752 -0.936569 0
M  V30 30237 C 2782.69 -1.105 -2.06947 0
M  V30 30238 C 2783.71 -0.0373016 -1.7396 0
M  V30 30239 O 2784.89 -0.241979 -1.99941 0
M  V30 30240 C 2781.95 -0.74455 -3.38611 0
M  V30 30241 C 2781.01 -1.89216 -3.85352 0
M  V30 30242 C 2780.25 -1.54882 -5.10732 0
M  V30 30243 O 2780.47 -0.452645 -5.68601 0
M  V30 30244 O 2779.4 -2.38509 -5.52628 0
M  V30 30245 H 2783.23 -2.05551 -2.23567 0
M  V30 30246 H 2780.81 -1.05857 -1.05426 0
M  V30 30247 H 2782.7 -0.556469 -4.1771 0
M  V30 30248 H 2781.37 0.176525 -3.23218 0
M  V30 30249 H 2780.28 -2.13524 -3.07178 0
M  V30 30250 H 2781.61 -2.79313 -4.05272 0
M  V30 30251 N 2783.26 1.1418 -1.08631 0
M  V30 30252 C 2784.49 1.88855 -0.837706 0
M  V30 30253 C 2784.9 1.7896 0.613992 0
M  V30 30254 O 2784.24 1.14836 1.43382 0
M  V30 30255 C 2784.31 3.39457 -1.18361 0
M  V30 30256 C 2783.97 3.73135 -2.63855 0
M  V30 30257 C 2784.97 3.73062 -3.62106 0
M  V30 30258 C 2782.65 4.03044 -2.99768 0
M  V30 30259 C 2784.65 4.02426 -4.94299 0
M  V30 30260 C 2782.33 4.32071 -4.32155 0
M  V30 30261 C 2783.33 4.31746 -5.2923 0
M  V30 30262 O 2783.02 4.60067 -6.59237 0
M  V30 30263 H 2782.75 0.604981 -0.30162 0
M  V30 30264 H 2785.3 1.45516 -1.44963 0
M  V30 30265 H 2783.53 3.83259 -0.514696 0
M  V30 30266 H 2785.22 3.95442 -0.91546 0
M  V30 30267 H 2785.99 3.5004 -3.35704 0
M  V30 30268 H 2781.87 4.02449 -2.24847 0
M  V30 30269 H 2785.41 4.02088 -5.70062 0
M  V30 30270 H 2781.31 4.54563 -4.58304 0
M  V30 30271 H 2782.08 4.77773 -6.64586 0
M  V30 30272 N 2784.74 0.872304 1.31258 0
M  V30 30273 C 2785.67 0.345595 2.30928 0
M  V30 30274 C 2786.65 -0.564772 1.6045 0
M  V30 30275 O 2787.84 -0.481301 1.88141 0
M  V30 30276 C 2784.97 -0.451762 3.44349 0
M  V30 30277 C 2783.92 0.365716 4.26435 0
M  V30 30278 C 2783.25 -0.557469 5.31786 0
M  V30 30279 C 2784.55 1.60104 4.97156 0
M  V30 30280 H 2786.24 1.17846 2.75232 0
M  V30 30281 H 2783.79 0.568117 1.32319 0
M  V30 30282 H 2785.74 -0.830782 4.13129 0
M  V30 30283 H 2784.46 -1.31816 2.98818 0
M  V30 30284 H 2783.12 0.726712 3.59325 0
M  V30 30285 H 2782.77 -1.42121 4.82505 0
M  V30 30286 H 2782.47 -0.0143845 5.87598 0
M  V30 30287 H 2783.99 -0.933281 6.03425 0
M  V30 30288 H 2785.41 1.29333 5.58521 0
M  V30 30289 H 2783.81 2.08337 5.62775 0
M  V30 30290 H 2784.88 2.35257 4.24007 0
M  V30 30291 N 2786.22 -1.44374 0.631976 0
M  V30 30292 C 2787.45 -2.06399 0.143903 0
M  V30 30293 C 2787.86 -1.47233 -1.18186 0
M  V30 30294 O 2787.22 -0.595528 -1.7251 0
M  V30 30295 C 2787.27 -3.61492 0.0238889 0
M  V30 30296 O 2786.99 -4.18454 1.29722 0
M  V30 30297 C 2788.49 -4.40553 -0.492779 0
M  V30 30298 H 2785.71 -0.666206 0.0800659 0
M  V30 30299 H 2788.26 -1.8523 0.866619 0
M  V30 30300 H 2786.41 -3.8192 -0.649271 0
M  V30 30301 H 2786.82 -5.11903 1.14261 0
M  V30 30302 H 2788.3 -5.4949 -0.525764 0
M  V30 30303 H 2788.78 -4.12059 -1.51999 0
M  V30 30304 H 2789.38 -4.25045 0.14716 0
M  V30 30305 N 2787.7 -0.372575 -1.53133 0
M  V30 30306 C 2788.92 0.218062 -2.0625 0
M  V30 30307 C 2789.35 1.41109 -1.24378 0
M  V30 30308 O 2788.7 1.79359 -0.264585 0
M  V30 30309 C 2788.75 0.582814 -3.55859 0
M  V30 30310 O 2787.86 1.6791 -3.7667 0
M  V30 30311 H 2787.2 0.0300924 -0.663318 0
M  V30 30312 H 2789.73 -0.535204 -1.97476 0
M  V30 30313 H 2789.74 0.851855 -3.99008 0
M  V30 30314 H 2788.41 -0.289501 -4.14891 0
M  V30 30315 H 2786.99 1.40507 -3.45416 0
M  V30 30316 N 2789.17 1.5727 -0.101929 0
M  V30 30317 C 2790.4 1.99364 0.571724 0
M  V30 30318 C 2790.82 0.980796 1.60505 0
M  V30 30319 O 2790.18 -0.0498199 1.81232 0
M  V30 30320 C 2790.23 3.40402 1.1899 0
M  V30 30321 O 2789.33 3.41926 2.30566 0
M  V30 30322 H 2788.68 0.6481 0.144437 0
M  V30 30323 H 2791.21 2.03759 -0.185361 0
M  V30 30324 H 2791.22 3.78244 1.52955 0
M  V30 30325 H 2789.89 4.13641 0.432911 0
M  V30 30326 H 2788.47 3.15886 1.98167 0
M  V30 30327 N 2790.65 -0.171793 1.56661 0
M  V30 30328 C 2791.88 -0.904082 1.86102 0
M  V30 30329 C 2792.3 -1.75847 0.687258 0
M  V30 30330 O 2791.65 -1.79236 -0.343639 0
M  V30 30331 C 2791.7 -1.78121 3.14571 0
M  V30 30332 O 2791.42 -0.961291 4.27423 0
M  V30 30333 C 2792.93 -2.62321 3.57355 0
M  V30 30334 H 2790.15 -0.262673 0.61745 0
M  V30 30335 H 2792.69 -0.172032 2.03775 0
M  V30 30336 H 2790.84 -2.46661 2.98726 0
M  V30 30337 H 2791.26 -1.56114 5.00728 0
M  V30 30338 H 2792.73 -3.19482 4.5015 0
M  V30 30339 H 2793.21 -3.37168 2.81451 0
M  V30 30340 H 2793.82 -1.99114 3.75811 0
M  V30 30341 N 2792.13 -1.51324 -0.44033 0
M  V30 30342 C 2793.06 -1.75367 -1.54171 0
M  V30 30343 C 2794.04 -0.603403 -1.59038 0
M  V30 30344 O 2795.23 -0.845804 -1.74814 0
M  V30 30345 C 2792.36 -1.87598 -2.92274 0
M  V30 30346 C 2791.31 -3.03014 -3.02269 0
M  V30 30347 C 2790.64 -3.00425 -4.42322 0
M  V30 30348 C 2791.94 -4.43029 -2.76627 0
M  V30 30349 H 2793.63 -2.67588 -1.34302 0
M  V30 30350 H 2791.18 -1.28764 -0.644656 0
M  V30 30351 H 2793.13 -2.03002 -3.69281 0
M  V30 30352 H 2791.85 -0.920234 -3.13368 0
M  V30 30353 H 2790.51 -2.87311 -2.27701 0
M  V30 30354 H 2790.16 -2.02634 -4.60379 0
M  V30 30355 H 2789.86 -3.77926 -4.49939 0
M  V30 30356 H 2791.38 -3.17918 -5.21306 0
M  V30 30357 H 2792.8 -4.59099 -3.43368 0
M  V30 30358 H 2791.2 -5.22213 -2.95657 0
M  V30 30359 H 2792.27 -4.53273 -1.72254 0
M  V30 30360 N 2793.61 0.695578 -1.41419 0
M  V30 30361 C 2795.02 1.00617 -1.23889 0
M  V30 30362 C 2795.22 2.01092 -0.128241 0
M  V30 30363 O 2794.28 2.4735 0.507364 0
M  V30 30364 C 2795.59 1.53079 -2.58819 0
M  V30 30365 C 2797.14 1.64963 -2.66001 0
M  V30 30366 C 2797.62 2.20826 -4.01248 0
M  V30 30367 N 2799.11 2.28187 -4.03094 0
M  V30 30368 C 2799.84 2.72439 -5.04544 0
M  V30 30369 N 2799.34 3.16296 -6.16384 0
M  V30 30370 N 2801.13 2.72002 -4.91906 0
M  V30 30371 H 2793.28 0.0299688 -2.12379 0
M  V30 30372 H 2795.55 0.0758631 -0.94496 0
M  V30 30373 H 2795.25 0.867087 -3.40844 0
M  V30 30374 H 2795.13 2.51293 -2.81304 0
M  V30 30375 H 2797.51 2.30444 -1.84335 0
M  V30 30376 H 2797.59 0.652939 -2.47326 0
M  V30 30377 H 2797.24 1.5596 -4.83362 0
M  V30 30378 H 2797.17 3.21247 -4.17263 0
M  V30 30379 H 2799.66 1.97237 -3.22345 0
M  V30 30380 H 2799.97 3.48688 -6.89664 0
M  V30 30381 H 2798.32 3.14204 -6.1992 0
M  V30 30382 H 2801.51 2.37088 -4.03617 0
M  V30 30383 H 2801.68 3.06171 -5.71107 0
M  V30 30384 N 2795.09 1.27247 0.929833 0
M  V30 30385 C 2796 1.11596 2.06358 0
M  V30 30386 C 2797.01 0.0465266 1.73938 0
M  V30 30387 O 2798.19 0.252579 1.9981 0
M  V30 30388 C 2795.25 0.762497 3.38211 0
M  V30 30389 C 2794.32 1.91257 3.84343 0
M  V30 30390 C 2793.55 1.57588 5.09904 0
M  V30 30391 O 2793.77 0.482793 5.68353 0
M  V30 30392 O 2792.71 2.41436 5.51355 0
M  V30 30393 H 2796.53 2.06734 2.22474 0
M  V30 30394 H 2794.12 1.06415 1.04863 0
M  V30 30395 H 2796 0.578614 4.17409 0
M  V30 30396 H 2794.67 -0.159382 3.23307 0
M  V30 30397 H 2793.58 2.1515 3.06041 0
M  V30 30398 H 2794.91 2.81458 4.03785 0
M  V30 30399 N 2796.57 -1.13603 1.09235 0
M  V30 30400 C 2797.5 -2.18021 0.673939 0
M  V30 30401 C 2798.48 -1.59449 -0.318575 0
M  V30 30402 O 2799.66 -1.87207 -0.220419 0
M  V30 30403 C 2796.79 -3.38699 -0.00745504 0
M  V30 30404 C 2795.83 -4.15864 0.946554 0
M  V30 30405 S 2796.67 -4.75775 2.45761 0
M  V30 30406 C 2797.82 -5.99801 1.78857 0
M  V30 30407 H 2798.06 -2.53176 1.55851 0
M  V30 30408 H 2795.59 -1.24869 0.90814 0
M  V30 30409 H 2797.55 -4.08602 -0.394297 0
M  V30 30410 H 2796.21 -3.0185 -0.86864 0
M  V30 30411 H 2795.4 -5.02273 0.41683 0
M  V30 30412 H 2795 -3.51607 1.2747 0
M  V30 30413 H 2797.29 -6.68321 1.11147 0
M  V30 30414 H 2798.24 -6.57377 2.63174 0
M  V30 30415 H 2798.65 -5.50297 1.25833 0
M  V30 30416 N 2798.04 -0.879253 -1.30793 0
M  V30 30417 C 2799.27 -0.508805 -2.01062 0
M  V30 30418 C 2799.69 0.893774 -1.65509 0
M  V30 30419 O 2799.05 1.59136 -0.868644 0
M  V30 30420 C 2799.1 -0.684053 -3.54052 0
M  V30 30421 O 2798.2 0.272582 -4.11498 0
M  V30 30422 H 2797.54 -0.201202 -0.632782 0
M  V30 30423 H 2800.07 -1.18522 -1.66774 0
M  V30 30424 H 2800.08 -0.580869 -4.03844 0
M  V30 30425 H 2798.76 -1.70671 -3.79268 0
M  V30 30426 H 2797.34 0.123574 -3.72695 0
M  V30 30427 N 2799.52 1.44037 -0.639624 0
M  V30 30428 C 2800.45 2.33453 0.0469033 0
M  V30 30429 C 2801.43 1.48695 0.826064 0
M  V30 30430 O 2802.62 1.77394 0.790254 0
M  V30 30431 C 2799.75 3.31882 1.02332 0
M  V30 30432 C 2798.7 4.26523 0.355209 0
M  V30 30433 C 2798.03 5.14885 1.44212 0
M  V30 30434 C 2799.33 5.16975 -0.743889 0
M  V30 30435 H 2801.02 2.91107 -0.699786 0
M  V30 30436 H 2798.57 1.39978 -0.33797 0
M  V30 30437 H 2800.52 3.93325 1.5124 0
M  V30 30438 H 2799.24 2.72455 1.801 0
M  V30 30439 H 2797.9 3.66425 -0.113304 0
M  V30 30440 H 2797.55 4.51806 2.21089 0
M  V30 30441 H 2797.25 5.79021 1.00042 0
M  V30 30442 H 2798.78 5.79201 1.93284 0
M  V30 30443 H 2800.19 5.72305 -0.337545 0
M  V30 30444 H 2798.59 5.89759 -1.10924 0
M  V30 30445 H 2799.66 4.57478 -1.60753 0
M  V30 30446 N 2801 0.380691 1.52933 0
M  V30 30447 C 2802.25 -0.204545 2.01766 0
M  V30 30448 C 2802.58 -1.47177 1.26699 0
M  V30 30449 O 2801.85 -1.91045 0.36497 0
M  V30 30450 C 2802.14 -0.481206 3.5687 0
M  V30 30451 C 2801.99 0.800707 4.42616 0
M  V30 30452 C 2803.31 -1.27547 4.21212 0
M  V30 30453 H 2800.43 -0.0728674 0.733389 0
M  V30 30454 H 2803.07 0.508562 1.83067 0
M  V30 30455 H 2801.22 -1.08869 3.72934 0
M  V30 30456 H 2802.89 1.43781 4.3832 0
M  V30 30457 H 2801.13 1.41787 4.09974 0
M  V30 30458 H 2801.81 0.561888 5.49133 0
M  V30 30459 H 2804.28 -0.761442 4.09074 0
M  V30 30460 H 2803.16 -1.43779 5.29735 0
M  V30 30461 H 2803.42 -2.28827 3.78273 0
M  V30 30462 N 2802.48 -1.57214 0.110268 0
M  V30 30463 C 2803.41 -2.17869 -0.839964 0
M  V30 30464 C 2804.39 -1.11626 -1.2835 0
M  V30 30465 O 2805.57 -1.39826 -1.34767 0
M  V30 30466 C 2802.7 -2.77114 -2.09344 0
M  V30 30467 C 2801.66 -3.88863 -1.788 0
M  V30 30468 C 2800.98 -4.34877 -3.11104 0
M  V30 30469 C 2802.28 -5.11366 -1.06311 0
M  V30 30470 H 2803.98 -2.97525 -0.334555 0
M  V30 30471 H 2801.52 -1.43114 -0.159477 0
M  V30 30472 H 2803.48 -3.18203 -2.76269 0
M  V30 30473 H 2802.2 -1.94735 -2.62194 0
M  V30 30474 H 2800.86 -3.48337 -1.14267 0
M  V30 30475 H 2800.51 -3.49368 -3.61871 0
M  V30 30476 H 2800.21 -5.10229 -2.91444 0
M  V30 30477 H 2801.73 -4.78611 -3.79162 0
M  V30 30478 H 2803.15 -5.49529 -1.63374 0
M  V30 30479 H 2801.54 -5.92245 -0.967772 0
M  V30 30480 H 2802.61 -4.84876 -0.0483717 0
M  V30 30481 N 2803.96 0.163482 -1.5675 0
M  V30 30482 C 2805.2 0.878834 -1.82436 0
M  V30 30483 C 2805.53 1.81903 -0.688589 0
M  V30 30484 O 2804.79 1.93006 0.32361 0
M  V30 30485 C 2805.08 1.70065 -3.14345 0
M  V30 30486 C 2804.75 0.908698 -4.41649 0
M  V30 30487 C 2803.41 0.690152 -4.76225 0
M  V30 30488 C 2805.76 0.353724 -5.19998 0
M  V30 30489 C 2803.09 -0.0943406 -5.86624 0
M  V30 30490 C 2805.44 -0.417721 -6.31219 0
M  V30 30491 C 2804.11 -0.646995 -6.64357 0
M  V30 30492 H 2803.38 0.321588 -0.667579 0
M  V30 30493 H 2806.03 0.143337 -1.90963 0
M  V30 30494 H 2804.33 2.50578 -3.01194 0
M  V30 30495 H 2806.03 2.25733 -3.3143 0
M  V30 30496 H 2802.62 1.08908 -4.14532 0
M  V30 30497 H 2806.8 0.509888 -4.93674 0
M  V30 30498 H 2802.06 -0.281637 -6.10751 0
M  V30 30499 H 2806.23 -0.854971 -6.91132 0
M  V30 30500 H 2803.86 -1.25675 -7.4974 0
M  V30 30501 N 2805.43 1.51555 0.432299 0
M  V30 30502 C 2806.38 1.73813 1.54569 0
M  V30 30503 C 2807.38 0.604566 1.58245 0
M  V30 30504 O 2808.58 0.78607 1.61929 0
M  V30 30505 H 2804.96 0.549274 0.513617 0
M  V30 30506 H 2806.93 2.67135 1.32972 0
M  V30 30507 C 2805.68 1.88488 2.92177 0
M  V30 30508 H 2805 2.75121 2.90083 0
M  V30 30509 H 2806.44 2.08072 3.69435 0
M  V30 30510 C 2804.9 0.645967 3.30649 0
M  V30 30511 O 2805.43 -0.197022 4.01217 0
M  V30 30512 N 2803.63 0.488588 2.86463 0
M  V30 30513 H 2803.18 1.17566 2.29207 0
M  V30 30514 H 2803.14 -0.339101 3.12566 0
M  V30 30515 N 2806.91 -0.688069 1.41786 0
M  V30 30516 C 2808.15 -1.46029 1.4302 0
M  V30 30517 C 2808.52 -1.91958 0.040297 0
M  V30 30518 O 2809.72 -2.68702 -0.0725953 0
M  V30 30519 C 2807.99 -2.63449 2.41515 0
M  V30 30520 S 2809.55 -3.52486 2.61341 0
M  V30 30521 H 2806.36 -0.498922 0.506555 0
M  V30 30522 H 2808.97 -0.802179 1.78284 0
M  V30 30523 H 2807.67 -2.27923 3.4129 0
M  V30 30524 H 2807.2 -3.34146 2.0763 0
M  V30 30525 H 2809.22 -4.58942 1.88645 0
M  V30 30526 N 2808.39 -1.27739 -0.923072 0
M  V30 30527 C 2809.61 -1.17286 -1.71052 0
M  V30 30528 C 2810.04 0.26612 -1.86208 0
M  V30 30529 O 2809.4 1.19267 -1.36547 0
M  V30 30530 C 2809.45 -1.86647 -3.08537 0
M  V30 30531 O 2808.55 -1.16759 -3.95526 0
M  V30 30532 H 2807.89 -0.407658 -0.524129 0
M  V30 30533 H 2810.42 -1.68892 -1.15484 0
M  V30 30534 H 2810.43 -1.94188 -3.58824 0
M  V30 30535 H 2809.11 -2.91323 -2.96823 0
M  V30 30536 H 2807.68 -1.17318 -3.53965 0
M  V30 30537 N 2809.87 1.13022 -1.09836 0
M  V30 30538 C 2811.09 1.88769 -0.859123 0
M  V30 30539 C 2811.52 1.78792 0.58437 0
M  V30 30540 O 2810.88 1.13845 1.41099 0
M  V30 30541 C 2810.92 3.36184 -1.30433 0
M  V30 30542 O 2810.03 4.09765 -0.46544 0
M  V30 30543 H 2809.37 0.586772 -0.310797 0
M  V30 30544 H 2811.9 1.42971 -1.46357 0
M  V30 30545 H 2811.91 3.87017 -1.29157 0
M  V30 30546 H 2810.58 3.42763 -2.35556 0
M  V30 30547 H 2809.16 3.68927 -0.542879 0
M  V30 30548 N 2811.35 0.886177 1.30325 0
M  V30 30549 C 2812.76 0.555585 1.78242 0
M  V30 30550 C 2813.11 -0.928283 1.72851 0
M  V30 30551 O 2812.23 -1.7254 1.3061 0
M  V30 30552 C 2812.83 1.00174 3.23652 0
M  V30 30553 C 2811.39 0.722536 3.694 0
M  V30 30554 C 2810.53 1.18404 2.50751 0
M  V30 30555 H 2813.49 1.07028 1.17178 0
M  V30 30556 H 2813.51 0.331218 3.79056 0
M  V30 30557 H 2813.02 2.08174 3.27544 0
M  V30 30558 H 2811.12 -0.345431 3.70995 0
M  V30 30559 H 2811.23 1.31093 4.60816 0
M  V30 30560 H 2809.6 0.603347 2.47451 0
M  V30 30561 H 2810.38 2.27181 2.57379 0
M  V30 30562 N 2812.82 -1.43695 0.647253 0
M  V30 30563 C 2813.77 -2.3075 -0.0479687 0
M  V30 30564 C 2814.74 -1.44409 -0.82068 0
M  V30 30565 O 2815.93 -1.73288 -0.798484 0
M  V30 30566 C 2813.07 -3.29912 -1.01254 0
M  V30 30567 C 2812.18 -4.31352 -0.236553 0
M  V30 30568 C 2811.31 -5.17598 -1.19438 0
M  V30 30569 C 2810.35 -6.10735 -0.408488 0
M  V30 30570 N 2809.49 -6.89626 -1.3176 0
M  V30 30571 H 2814.33 -2.89655 0.700289 0
M  V30 30572 H 2811.87 -1.427 0.357107 0
M  V30 30573 H 2813.83 -3.85906 -1.58532 0
M  V30 30574 H 2812.46 -2.7267 -1.72774 0
M  V30 30575 H 2811.51 -3.777 0.45242 0
M  V30 30576 H 2812.82 -4.9739 0.374818 0
M  V30 30577 H 2811.97 -5.78189 -1.83799 0
M  V30 30578 H 2810.71 -4.51672 -1.83967 0
M  V30 30579 H 2809.72 -5.49238 0.248507 0
M  V30 30580 H 2810.94 -6.78703 0.232308 0
M  V30 30581 H 2808.89 -6.26354 -1.9498 0
M  V30 30582 H 2808.81 -7.52164 -0.760647 0
M  V30 30583 H 2810.07 -7.54727 -1.94954 0
M  V30 30584 N 2814.3 -0.388796 -1.52729 0
M  V30 30585 C 2815.53 0.196174 -2.0647 0
M  V30 30586 C 2815.95 1.39782 -1.25868 0
M  V30 30587 O 2815.31 1.79068 -0.283594 0
M  V30 30588 C 2815.36 0.545037 -3.56457 0
M  V30 30589 O 2814.46 1.63906 -3.78429 0
M  V30 30590 H 2813.8 0.0230553 -0.6636 0
M  V30 30591 H 2816.33 -0.556119 -1.96897 0
M  V30 30592 H 2816.34 0.809487 -3.99889 0
M  V30 30593 H 2815.02 -0.333489 -4.14561 0
M  V30 30594 H 2813.6 1.36836 -3.46887 0
M  V30 30595 N 2815.78 1.57153 -0.118604 0
M  V30 30596 C 2816.69 2.18836 0.845446 0
M  V30 30597 C 2817.71 1.1644 1.29297 0
M  V30 30598 O 2818.88 1.48908 1.35604 0
M  V30 30599 C 2815.95 2.77532 2.0779 0
M  V30 30600 C 2815.01 3.94963 1.68233 0
M  V30 30601 C 2814.24 4.5085 2.85604 0
M  V30 30602 O 2814.46 4.05636 4.01018 0
M  V30 30603 O 2813.4 5.4154 2.62712 0
M  V30 30604 H 2817.22 3.0167 0.350515 0
M  V30 30605 H 2814.81 1.49016 0.106987 0
M  V30 30606 H 2816.69 3.1495 2.79972 0
M  V30 30607 H 2815.37 1.9773 2.5629 0
M  V30 30608 H 2814.27 3.62315 0.931599 0
M  V30 30609 H 2815.61 4.762 1.24475 0
M  V30 30610 N 2817.26 -0.155167 1.56834 0
M  V30 30611 C 2818.19 -1.22108 1.92782 0
M  V30 30612 C 2819.17 -1.41973 0.792613 0
M  V30 30613 O 2820.35 -1.56718 1.04746 0
M  V30 30614 C 2817.48 -2.58138 2.19277 0
M  V30 30615 C 2816.53 -2.54915 3.41937 0
M  V30 30616 S 2817.36 -2.0241 4.95773 0
M  V30 30617 C 2818.52 -3.40185 5.25381 0
M  V30 30618 H 2818.75 -0.914343 2.82891 0
M  V30 30619 H 2816.28 -0.360435 1.50134 0
M  V30 30620 H 2818.24 -3.36423 2.35223 0
M  V30 30621 H 2816.9 -2.86004 1.29848 0
M  V30 30622 H 2816.09 -3.55031 3.57727 0
M  V30 30623 H 2815.7 -1.84734 3.25191 0
M  V30 30624 H 2817.99 -4.36259 5.18348 0
M  V30 30625 H 2818.93 -3.29255 6.26895 0
M  V30 30626 H 2819.34 -3.36943 4.52912 0
M  V30 30627 N 2818.74 -1.51782 -0.424256 0
M  V30 30628 C 2819.67 -1.70249 -1.53454 0
M  V30 30629 C 2820.68 -0.582993 -1.52003 0
M  V30 30630 O 2821.87 -0.857711 -1.56543 0
M  V30 30631 C 2818.97 -1.71394 -2.92365 0
M  V30 30632 C 2818.14 -3.00139 -3.18175 0
M  V30 30633 C 2817.2 -2.93298 -4.36879 0
M  V30 30634 O 2816.23 -3.67227 -4.34894 0
M  V30 30635 N 2817.43 -2.10046 -5.41166 0
M  V30 30636 H 2820.2 -2.66031 -1.38012 0
M  V30 30637 H 2817.76 -1.49831 -0.613368 0
M  V30 30638 H 2819.75 -1.64369 -3.69818 0
M  V30 30639 H 2818.32 -0.831502 -3.01338 0
M  V30 30640 H 2817.54 -3.20932 -2.28903 0
M  V30 30641 H 2818.83 -3.85337 -3.32254 0
M  V30 30642 H 2818.22 -1.49383 -5.4562 0
M  V30 30643 H 2816.78 -2.08889 -6.17421 0
M  V30 30644 N 2820.21 0.68054 -1.42149 0
M  V30 30645 C 2821.63 0.992973 -1.24949 0
M  V30 30646 C 2821.83 2.00944 -0.149562 0
M  V30 30647 O 2820.89 2.47874 0.481101 0
M  V30 30648 C 2822.2 1.50325 -2.60428 0
M  V30 30649 C 2823.75 1.62132 -2.67735 0
M  V30 30650 C 2824.22 2.16558 -4.03568 0
M  V30 30651 N 2825.71 2.23898 -4.05492 0
M  V30 30652 C 2826.45 2.67072 -5.07405 0
M  V30 30653 N 2825.94 3.0974 -6.19704 0
M  V30 30654 N 2827.74 2.6677 -4.94763 0
M  V30 30655 H 2819.89 0.00744146 -2.12399 0
M  V30 30656 H 2822.15 0.0658363 -0.945711 0
M  V30 30657 H 2821.86 0.830887 -3.41744 0
M  V30 30658 H 2821.73 2.48295 -2.83953 0
M  V30 30659 H 2824.12 2.28476 -1.86769 0
M  V30 30660 H 2824.2 0.62667 -2.48005 0
M  V30 30661 H 2823.84 1.50824 -4.84989 0
M  V30 30662 H 2823.77 3.16803 -4.20646 0
M  V30 30663 H 2826.26 1.93807 -3.24419 0
M  V30 30664 H 2826.58 3.41353 -6.93324 0
M  V30 30665 H 2824.92 3.07612 -6.23218 0
M  V30 30666 H 2828.11 2.32794 -4.06109 0
M  V30 30667 H 2828.29 3.00097 -5.74322 0
M  V30 30668 N 2821.69 1.28226 0.916285 0
M  V30 30669 C 2822.66 1.1196 1.99994 0
M  V30 30670 C 2823.66 0.0600434 1.60688 0
M  V30 30671 O 2824.85 0.30561 1.71498 0
M  V30 30672 C 2821.98 0.70847 3.33457 0
M  V30 30673 H 2823.17 2.08199 2.15854 0
M  V30 30674 H 2820.72 1.11177 1.09861 0
M  V30 30675 H 2821.46 -0.254802 3.23297 0
M  V30 30676 H 2821.24 1.47384 3.63346 0
M  V30 30677 H 2822.73 0.617236 4.13013 0
M  V30 30678 N 2823.17 -1.12438 1.10433 0
M  V30 30679 C 2824.59 -1.35946 0.83612 0
M  V30 30680 C 2824.79 -1.94005 -0.544441 0
M  V30 30681 O 2823.84 -2.16624 -1.29732 0
M  V30 30682 C 2825.16 -2.30103 1.93579 0
M  V30 30683 C 2826.7 -2.43694 1.96424 0
M  V30 30684 C 2827.18 -3.41166 3.05565 0
M  V30 30685 N 2828.67 -3.48723 3.04871 0
M  V30 30686 C 2829.4 -4.24054 3.85961 0
M  V30 30687 N 2828.9 -5.0245 4.76986 0
M  V30 30688 N 2830.69 -4.1946 3.74179 0
M  V30 30689 H 2822.84 -0.731089 1.99421 0
M  V30 30690 H 2825.11 -0.384297 0.866614 0
M  V30 30691 H 2824.81 -1.94616 2.92946 0
M  V30 30692 H 2824.69 -3.30224 1.82296 0
M  V30 30693 H 2827.07 -2.78461 0.976899 0
M  V30 30694 H 2827.16 -1.43461 2.11784 0
M  V30 30695 H 2826.8 -3.07128 4.04518 0
M  V30 30696 H 2826.73 -4.41229 2.87446 0
M  V30 30697 H 2829.22 -2.92795 2.38913 0
M  V30 30698 H 2829.53 -5.57267 5.35419 0
M  V30 30699 H 2827.88 -5.01647 4.81015 0
M  V30 30700 H 2831.07 -3.57296 3.02419 0
M  V30 30701 H 2831.24 -4.77913 4.37611 0
M  V30 30702 N 2824.65 -0.893076 -1.29853 0
M  V30 30703 C 2825.87 -0.530101 -2.00511 0
M  V30 30704 C 2826.3 0.876169 -1.66448 0
M  V30 30705 O 2825.66 1.58206 -0.885474 0
M  V30 30706 C 2825.71 -0.721567 -3.53307 0
M  V30 30707 O 2824.81 0.228922 -4.11764 0
M  V30 30708 H 2824.15 -0.207902 -0.630613 0
M  V30 30709 H 2826.68 -1.20285 -1.65508 0
M  V30 30710 H 2826.69 -0.623669 -4.03205 0
M  V30 30711 H 2825.37 -1.74684 -3.77436 0
M  V30 30712 H 2823.94 0.0840379 -3.72805 0
M  V30 30713 N 2826.13 1.4335 -0.654865 0
M  V30 30714 C 2827.06 2.3349 0.0221399 0
M  V30 30715 C 2828.04 1.49563 0.810246 0
M  V30 30716 O 2829.22 1.78222 0.771395 0
M  V30 30717 C 2826.35 3.32948 0.988059 0
M  V30 30718 C 2825.31 4.26876 0.309951 0
M  V30 30719 C 2824.63 5.16386 1.38743 0
M  V30 30720 C 2825.93 5.16157 -0.798679 0
M  V30 30721 H 2827.63 2.90349 -0.730622 0
M  V30 30722 H 2825.17 1.39611 -0.352798 0
M  V30 30723 H 2827.13 3.94907 1.4706 0
M  V30 30724 H 2825.85 2.7435 1.772 0
M  V30 30725 H 2824.51 3.66284 -0.152162 0
M  V30 30726 H 2824.16 4.54125 2.16285 0
M  V30 30727 H 2823.86 5.8005 0.938949 0
M  V30 30728 H 2825.38 5.81218 1.8713 0
M  V30 30729 H 2826.8 5.71915 -0.398226 0
M  V30 30730 H 2825.19 5.8855 -1.17173 0
M  V30 30731 H 2826.26 4.55748 -1.65596 0
M  V30 30732 N 2827.61 0.39689 1.52521 0
M  V30 30733 C 2828.55 -0.44939 2.28218 0
M  V30 30734 C 2829.55 -1.05649 1.32418 0
M  V30 30735 O 2830.75 -0.996097 1.49926 0
M  V30 30736 H 2827.13 -0.163687 0.733969 0
M  V30 30737 H 2829.1 0.210419 2.97657 0
M  V30 30738 C 2827.85 -1.56049 3.10715 0
M  V30 30739 H 2827.17 -1.10266 3.84293 0
M  V30 30740 H 2828.61 -2.1267 3.66807 0
M  V30 30741 C 2827.07 -2.52087 2.23504 0
M  V30 30742 O 2827.6 -3.55679 1.86697 0
M  V30 30743 N 2825.81 -2.22006 1.87514 0
M  V30 30744 H 2825.35 -1.37798 2.17645 0
M  V30 30745 H 2825.31 -2.86512 1.29453 0
M  V30 30746 N 2829.08 -1.57088 0.126936 0
M  V30 30747 C 2830.31 -1.9953 -0.535857 0
M  V30 30748 C 2830.72 -1.00569 -1.60258 0
M  V30 30749 O 2830.06 0.0084004 -1.83698 0
M  V30 30750 C 2830.13 -3.38393 -1.21368 0
M  V30 30751 C 2829.79 -4.56054 -0.293964 0
M  V30 30752 C 2830.79 -5.17766 0.470545 0
M  V30 30753 C 2828.47 -5.01891 -0.20272 0
M  V30 30754 C 2830.47 -6.2371 1.31395 0
M  V30 30755 C 2828.15 -6.07694 0.64431 0
M  V30 30756 C 2829.15 -6.68471 1.40127 0
M  V30 30757 O 2828.84 -7.72229 2.23422 0
M  V30 30758 H 2828.57 -0.660092 -0.145787 0
M  V30 30759 H 2831.13 -2.04298 0.212477 0
M  V30 30760 H 2829.36 -3.30403 -2.00925 0
M  V30 30761 H 2831.04 -3.65072 -1.77418 0
M  V30 30762 H 2831.81 -4.83264 0.409969 0
M  V30 30763 H 2827.69 -4.54326 -0.781608 0
M  V30 30764 H 2831.23 -6.71078 1.90526 0
M  V30 30765 H 2827.13 -6.41625 0.70625 0
M  V30 30766 H 2827.9 -7.89362 2.1645 0
M  V30 30767 N 2830.56 0.146848 -1.56914 0
M  V30 30768 C 2831.49 1.20642 -1.9488 0
M  V30 30769 C 2832.51 1.39174 -0.844658 0
M  V30 30770 O 2833.7 1.38742 -1.12307 0
M  V30 30771 C 2830.8 2.57123 -2.20774 0
M  V30 30772 C 2829.97 2.59566 -3.52057 0
M  V30 30773 C 2829.03 3.77587 -3.66489 0
M  V30 30774 O 2828.05 3.62454 -4.3888 0
M  V30 30775 N 2829.26 4.95047 -3.03164 0
M  V30 30776 H 2832.02 0.883707 -2.86375 0
M  V30 30777 H 2829.58 0.336409 -1.58366 0
M  V30 30778 H 2831.57 3.34587 -2.2767 0
M  V30 30779 H 2830.14 2.81686 -1.35543 0
M  V30 30780 H 2829.36 1.68017 -3.56601 0
M  V30 30781 H 2830.65 2.5823 -4.384 0
M  V30 30782 H 2830.05 5.10245 -2.44267 0
M  V30 30783 H 2828.61 5.70286 -3.15621 0
M  V30 30784 N 2832.04 1.52005 0.4162 0
M  V30 30785 C 2833.32 1.56274 1.17635 0
M  V30 30786 C 2833.7 0.339529 2.08352 0
M  V30 30787 O 2833.04 -0.674085 2.18331 0
M  V30 30788 C 2833.25 2.88778 1.95981 0
M  V30 30789 C 2834.6 3.41517 2.52293 0
M  V30 30790 O 2835.63 2.9047 2.06169 0
M  V30 30791 O 2834.49 4.30637 3.36473 0
M  V30 30792 H 2831.58 0.629179 0.536715 0
M  V30 30793 H 2834.13 1.64329 0.423554 0
M  V30 30794 H 2832.9 3.69257 1.29481 0
M  V30 30795 H 2832.52 2.83982 2.7828 0
M  V30 30796 N 2833.52 -0.672992 1.42508 0
M  V30 30797 C 2834.45 -1.79848 1.48919 0
M  V30 30798 C 2835.43 -1.66552 0.345595 0
M  V30 30799 O 2836.61 -1.85946 0.560148 0
M  V30 30800 C 2833.74 -3.18156 1.39263 0
M  V30 30801 C 2832.7 -3.46189 2.51668 0
M  V30 30802 C 2832.02 -4.8409 2.2707 0
M  V30 30803 C 2833.32 -3.42902 3.93974 0
M  V30 30804 H 2835.02 -1.74741 2.43117 0
M  V30 30805 H 2832.56 -0.839267 1.17014 0
M  V30 30806 H 2834.52 -3.96627 1.42356 0
M  V30 30807 H 2833.24 -3.23945 0.415599 0
M  V30 30808 H 2831.9 -2.7008 2.47896 0
M  V30 30809 H 2831.55 -4.86532 1.27656 0
M  V30 30810 H 2831.25 -5.03809 3.02407 0
M  V30 30811 H 2832.77 -5.64843 2.31915 0
M  V30 30812 H 2834.19 -4.1134 3.9934 0
M  V30 30813 H 2832.58 -3.74157 4.69176 0
M  V30 30814 H 2833.65 -2.41442 4.20516 0
M  V30 30815 N 2835 -1.2871 -0.909472 0
M  V30 30816 C 2836.24 -1.16286 -1.66149 0
M  V30 30817 C 2836.57 0.287036 -1.92067 0
M  V30 30818 O 2835.85 1.20835 -1.52411 0
M  V30 30819 C 2836.13 -1.96636 -3.01673 0
M  V30 30820 C 2835.99 -3.49711 -2.82881 0
M  V30 30821 C 2837.3 -1.78511 -4.02271 0
M  V30 30822 H 2834.42 -0.423804 -0.602959 0
M  V30 30823 H 2837.07 -1.58075 -1.05415 0
M  V30 30824 H 2835.22 -1.61125 -3.53512 0
M  V30 30825 H 2836.89 -3.95152 -2.38019 0
M  V30 30826 H 2835.13 -3.75129 -2.17855 0
M  V30 30827 H 2835.8 -4.01194 -3.7914 0
M  V30 30828 H 2838.28 -2.09509 -3.59507 0
M  V30 30829 H 2837.15 -2.37097 -4.95052 0
M  V30 30830 H 2837.41 -0.737724 -4.35901 0
M  V30 30831 N 2836.47 1.1185 -1.11028 0
M  V30 30832 C 2837.89 1.355 -0.843318 0
M  V30 30833 C 2838.09 1.94291 0.534145 0
M  V30 30834 O 2837.15 2.17309 1.28581 0
M  V30 30835 C 2838.46 2.29073 -1.94797 0
M  V30 30836 C 2840.01 2.42649 -1.97713 0
M  V30 30837 C 2840.48 3.39541 -3.0737 0
M  V30 30838 N 2841.97 3.47101 -3.06716 0
M  V30 30839 C 2842.71 4.22001 -3.88204 0
M  V30 30840 N 2842.2 4.99913 -4.79644 0
M  V30 30841 N 2844 4.17469 -3.76398 0
M  V30 30842 H 2836.15 0.720503 -1.99806 0
M  V30 30843 H 2838.41 0.379696 -0.86864 0
M  V30 30844 H 2838.12 1.9306 -2.93974 0
M  V30 30845 H 2837.99 3.29253 -1.84045 0
M  V30 30846 H 2840.38 2.77939 -0.991653 0
M  V30 30847 H 2840.46 1.42336 -2.12542 0
M  V30 30848 H 2840.1 3.04978 -4.06141 0
M  V30 30849 H 2840.03 4.39698 -2.89781 0
M  V30 30850 H 2842.52 2.91524 -2.40462 0
M  V30 30851 H 2842.84 5.5442 -5.38366 0
M  V30 30852 H 2841.18 4.99089 -4.83669 0
M  V30 30853 H 2844.37 3.55687 -3.04309 0
M  V30 30854 H 2844.55 4.75586 -4.40139 0
M  V30 30855 N 2837.95 0.89995 1.29378 0
M  V30 30856 C 2839.2 0.524958 1.95163 0
M  V30 30857 C 2839.52 -0.931858 1.71293 0
M  V30 30858 O 2838.79 -1.6571 1.04484 0
M  V30 30859 H 2837.37 0.191148 0.72213 0
M  V30 30860 H 2840.03 1.1463 1.57626 0
M  V30 30861 H 2839.13 0.707765 3.03969 0
M  V30 30862 N 2839.43 -1.43001 0.662458 0
M  V30 30863 C 2840.68 -2.01702 0.179627 0
M  V30 30864 C 2841.01 -1.52311 -1.20961 0
M  V30 30865 O 2840.26 -0.710632 -1.82342 0
M  V30 30866 C 2840.56 -3.57087 0.149426 0
M  V30 30867 C 2840.23 -4.25861 1.48166 0
M  V30 30868 C 2838.89 -4.44364 1.84646 0
M  V30 30869 C 2841.24 -4.64728 2.35961 0
M  V30 30870 C 2838.57 -4.99001 3.0857 0
M  V30 30871 C 2840.92 -5.20739 3.59185 0
M  V30 30872 C 2839.58 -5.37456 3.9585 0
M  V30 30873 H 2838.85 -0.738079 0.0657301 0
M  V30 30874 H 2841.5 -1.71354 0.854999 0
M  V30 30875 H 2839.81 -3.87031 -0.609423 0
M  V30 30876 H 2841.5 -4.00274 -0.241171 0
M  V30 30877 H 2838.09 -4.11811 1.18784 0
M  V30 30878 H 2842.28 -4.50117 2.09066 0
M  V30 30879 H 2837.53 -5.10129 3.37014 0
M  V30 30880 H 2841.71 -5.498 4.27426 0
M  V30 30881 H 2839.33 -5.79557 4.91953 0
M  V30 30882 N 2840.91 -0.404973 -1.52308 0
M  V30 30883 C 2842.32 0.0655598 -1.86585 0
M  V30 30884 C 2842.67 1.44798 -1.32393 0
M  V30 30885 O 2841.8 2.0604 -0.661536 0
M  V30 30886 C 2842.39 0.125741 -3.38567 0
M  V30 30887 C 2840.95 0.5406 -3.72498 0
M  V30 30888 C 2840.1 -0.287535 -2.75805 0
M  V30 30889 H 2843.05 -0.622211 -1.45994 0
M  V30 30890 H 2843.07 0.941823 -3.6866 0
M  V30 30891 H 2842.58 -0.880539 -3.77979 0
M  V30 30892 H 2840.68 1.55367 -3.38662 0
M  V30 30893 H 2840.79 0.287872 -4.78234 0
M  V30 30894 H 2839.16 0.249517 -2.53475 0
M  V30 30895 H 2839.94 -1.29209 -3.18057 0
M  V30 30896 N 2842.39 1.57018 -0.135265 0
M  V30 30897 C 2843.3 2.19721 0.822187 0
M  V30 30898 C 2844.31 1.17805 1.28055 0
M  V30 30899 O 2845.49 1.50338 1.34017 0
M  V30 30900 C 2842.55 2.79721 2.04835 0
M  V30 30901 C 2841.61 3.96725 1.64035 0
M  V30 30902 C 2840.85 4.53854 2.80806 0
M  V30 30903 O 2841.07 4.09867 3.96693 0
M  V30 30904 O 2840 5.44296 2.56953 0
M  V30 30905 H 2843.83 3.02025 0.318499 0
M  V30 30906 H 2841.42 1.49122 0.0911759 0
M  V30 30907 H 2843.3 3.17902 2.76616 0
M  V30 30908 H 2841.97 2.00437 2.54179 0
M  V30 30909 H 2840.88 3.63283 0.893119 0
M  V30 30910 H 2842.21 4.77494 1.19418 0
M  V30 30911 N 2843.86 -0.138524 1.5699 0
M  V30 30912 C 2844.77 -1.19005 2.02176 0
M  V30 30913 C 2845.79 -1.46511 0.938647 0
M  V30 30914 O 2846.97 -1.58013 1.24875 0
M  V30 30915 C 2844.03 -2.50154 2.40049 0
M  V30 30916 C 2843.09 -2.3022 3.6235 0
M  V30 30917 C 2842.33 -3.55116 3.98407 0
M  V30 30918 O 2842.55 -4.61642 3.35027 0
M  V30 30919 O 2841.48 -3.47276 4.91613 0
M  V30 30920 H 2845.31 -0.836401 2.91956 0
M  V30 30921 H 2842.89 -0.347881 1.45293 0
M  V30 30922 H 2844.78 -3.27461 2.65231 0
M  V30 30923 H 2843.45 -2.85032 1.53422 0
M  V30 30924 H 2842.36 -1.50837 3.42344 0
M  V30 30925 H 2843.69 -2.00255 4.49621 0
M  V30 30926 N 2845.34 -1.52224 -0.408133 0
M  V30 30927 C 2846.59 -1.65559 -1.15209 0
M  V30 30928 C 2846.9 -0.39213 -1.91629 0
M  V30 30929 O 2848.11 -0.405303 -2.68458 0
M  V30 30930 C 2846.57 -2.92506 -2.09686 0
M  V30 30931 C 2846.17 -4.25963 -1.38778 0
M  V30 30932 C 2847.92 -3.15205 -2.84334 0
M  V30 30933 C 2845.83 -5.44033 -2.3191 0
M  V30 30934 H 2844.76 -0.616736 -0.433765 0
M  V30 30935 H 2847.41 -1.78711 -0.416468 0
M  V30 30936 H 2845.79 -2.73055 -2.86805 0
M  V30 30937 H 2846.96 -4.55901 -0.670168 0
M  V30 30938 H 2845.28 -4.09375 -0.761669 0
M  V30 30939 H 2847.87 -4.00594 -3.54159 0
M  V30 30940 H 2848.22 -2.29479 -3.4734 0
M  V30 30941 H 2848.75 -3.35133 -2.14315 0
M  V30 30942 H 2845.49 -6.32108 -1.73549 0
M  V30 30943 H 2845.01 -5.18433 -3.01641 0
M  V30 30944 H 2846.69 -5.77151 -2.92413 0
M  V30 30945 N 2846.82 0.665425 -1.42863 0
M  V30 30946 C 2848.07 1.42123 -1.43122 0
M  V30 30947 C 2848.38 1.95524 -0.054564 0
M  V30 30948 O 2849.59 2.71421 0.065427 0
M  V30 30949 C 2848.04 2.57145 -2.51802 0
M  V30 30950 C 2847.65 2.10404 -3.95517 0
M  V30 30951 C 2849.4 3.34596 -2.61239 0
M  V30 30952 C 2847.3 3.22565 -4.95687 0
M  V30 30953 H 2846.23 0.533957 -0.532359 0
M  V30 30954 H 2848.88 0.719476 -1.68807 0
M  V30 30955 H 2847.27 3.29734 -2.19298 0
M  V30 30956 H 2848.44 1.44907 -4.37423 0
M  V30 30957 H 2846.76 1.45867 -3.90015 0
M  V30 30958 H 2849.35 4.18145 -3.33255 0
M  V30 30959 H 2849.7 3.81814 -1.65903 0
M  V30 30960 H 2850.23 2.69082 -2.92984 0
M  V30 30961 H 2846.97 2.80328 -5.92534 0
M  V30 30962 H 2846.49 3.86813 -4.58406 0
M  V30 30963 H 2848.17 3.87887 -5.17834 0
M  V30 30964 N 2848.3 1.29191 0.902633 0
M  V30 30965 C 2849.52 1.19992 1.69164 0
M  V30 30966 C 2849.95 -0.236462 1.86608 0
M  V30 30967 O 2849.31 -1.1708 1.38427 0
M  V30 30968 C 2849.35 1.91532 3.05529 0
M  V30 30969 O 2848.46 1.23036 3.93619 0
M  V30 30970 H 2847.8 0.415945 0.517577 0
M  V30 30971 H 2850.33 1.70708 1.12782 0
M  V30 30972 H 2850.34 1.99872 3.5569 0
M  V30 30973 H 2849.01 2.96008 2.92151 0
M  V30 30974 H 2847.59 1.22935 3.52053 0
M  V30 30975 N 2849.78 -1.1126 1.1162 0
M  V30 30976 C 2850.72 -2.19439 0.77133 0
M  V30 30977 C 2851.72 -1.67719 -0.238043 0
M  V30 30978 O 2852.92 -1.79738 -0.0971312 0
M  V30 30979 H 2849.3 -0.715461 0.23156 0
M  V30 30980 H 2851.27 -2.45772 1.6923 0
M  V30 30981 C 2850.02 -3.4692 0.232826 0
M  V30 30982 H 2849.34 -3.87072 1.00078 0
M  V30 30983 H 2850.78 -4.2399 0.0297306 0
M  V30 30984 C 2849.24 -3.20533 -1.03732 0
M  V30 30985 O 2849.77 -3.41408 -2.11669 0
M  V30 30986 N 2847.98 -2.74255 -0.960857 0
M  V30 30987 H 2847.52 -2.57468 -0.0823871 0
M  V30 30988 H 2847.48 -2.56977 -1.81136 0
M  V30 30989 N 2851.25 -0.906798 -1.28899 0
M  V30 30990 C 2852.67 -0.583871 -1.77335 0
M  V30 30991 C 2853.02 0.900667 -1.74306 0
M  V30 30992 O 2852.14 1.7044 -1.33338 0
M  V30 30993 C 2852.74 -1.0531 -3.22017 0
M  V30 30994 C 2851.3 -0.781213 -3.68204 0
M  V30 30995 C 2850.44 -1.22378 -2.48835 0
M  V30 30996 H 2853.39 -1.08879 -1.1546 0
M  V30 30997 H 2853.41 -0.391481 -3.78481 0
M  V30 30998 H 2852.93 -2.13359 -3.24191 0
M  V30 30999 H 2851.03 0.286365 -3.71498 0
M  V30 31000 H 2851.14 -1.38408 -4.58672 0
M  V30 31001 H 2849.5 -0.642637 -2.46459 0
M  V30 31002 H 2850.29 -2.31247 -2.53732 0
M  V30 31003 N 2852.73 1.42648 -0.670032 0
M  V30 31004 C 2853.96 2.05646 -0.198288 0
M  V30 31005 C 2854.37 1.50404 1.14784 0
M  V30 31006 O 2853.71 0.636665 1.72314 0
M  V30 31007 C 2853.78 3.59464 -0.0507764 0
M  V30 31008 C 2853.44 4.37375 -1.32485 0
M  V30 31009 C 2854.44 4.6834 -2.25729 0
M  V30 31010 C 2852.12 4.77096 -1.57112 0
M  V30 31011 C 2854.12 5.37957 -3.41879 0
M  V30 31012 C 2851.8 5.46454 -2.73553 0
M  V30 31013 C 2852.8 5.76808 -3.65761 0
M  V30 31014 O 2852.49 6.44745 -4.80166 0
M  V30 31015 H 2852.22 0.66928 -0.0950839 0
M  V30 31016 H 2854.77 1.83855 -0.915778 0
M  V30 31017 H 2853 3.79895 0.722248 0
M  V30 31018 H 2854.69 4.04113 0.380481 0
M  V30 31019 H 2855.46 4.38157 -2.07951 0
M  V30 31020 H 2851.34 4.52866 -0.862148 0
M  V30 31021 H 2854.88 5.61566 -4.13871 0
M  V30 31022 H 2850.78 5.76055 -2.91258 0
M  V30 31023 H 2851.55 6.63234 -4.79648 0
M  V30 31024 N 2854.21 0.413044 1.52091 0
M  V30 31025 C 2855.16 -0.425159 2.28681 0
M  V30 31026 C 2856.15 -1.04239 1.33531 0
M  V30 31027 O 2857.36 -0.980139 1.50974 0
M  V30 31028 H 2853.73 -0.155893 0.735664 0
M  V30 31029 H 2855.71 0.241978 2.97417 0
M  V30 31030 C 2854.45 -1.52745 3.12353 0
M  V30 31031 H 2853.78 -1.06184 3.85441 0
M  V30 31032 H 2855.22 -2.08768 3.69042 0
M  V30 31033 C 2853.68 -2.49702 2.26165 0
M  V30 31034 O 2854.21 -3.53678 1.90459 0
M  V30 31035 N 2852.41 -2.20005 1.89858 0
M  V30 31036 H 2851.96 -1.35482 2.19095 0
M  V30 31037 H 2851.92 -2.85123 1.32485 0
M  V30 31038 N 2855.69 -1.56945 0.143591 0
M  V30 31039 C 2856.6 -2.20154 -0.810524 0
M  V30 31040 C 2857.62 -1.18482 -1.27428 0
M  V30 31041 O 2858.79 -1.51046 -1.33218 0
M  V30 31042 C 2855.86 -2.80803 -2.03349 0
M  V30 31043 C 2854.92 -3.9759 -1.61929 0
M  V30 31044 C 2854.15 -4.55337 -2.78395 0
M  V30 31045 O 2854.37 -4.11965 -3.94514 0
M  V30 31046 O 2853.31 -5.45651 -2.54063 0
M  V30 31047 H 2857.13 -3.0219 -0.302477 0
M  V30 31048 H 2854.72 -1.49168 -0.0832663 0
M  V30 31049 H 2856.6 -3.19364 -2.74926 0
M  V30 31050 H 2855.28 -2.01782 -2.53112 0
M  V30 31051 H 2854.18 -3.63751 -0.87384 0
M  V30 31052 H 2855.52 -4.7812 -1.16884 0
M  V30 31053 N 2857.17 0.130197 -1.57061 0
M  V30 31054 C 2858.1 1.19025 -1.947 0
M  V30 31055 C 2859.08 1.40694 -0.815099 0
M  V30 31056 O 2860.26 1.55032 -1.07226 0
M  V30 31057 C 2857.39 2.54617 -2.23356 0
M  V30 31058 C 2856.44 2.49442 -3.45949 0
M  V30 31059 S 2857.27 1.94497 -4.9893 0
M  V30 31060 C 2858.42 3.31783 -5.30727 0
M  V30 31061 H 2858.66 0.869222 -2.84309 0
M  V30 31062 H 2856.19 0.336504 -1.50688 0
M  V30 31063 H 2858.15 3.32638 -2.40545 0
M  V30 31064 H 2856.81 2.83902 -1.34381 0
M  V30 31065 H 2856 3.49295 -3.6333 0
M  V30 31066 H 2855.6 1.79537 -3.28089 0
M  V30 31067 H 2857.9 4.27957 -5.25223 0
M  V30 31068 H 2858.84 3.1924 -6.32053 0
M  V30 31069 H 2859.25 3.29695 -4.58216 0
M  V30 31070 N 2858.65 1.52438 0.400055 0
M  V30 31071 C 2859.89 1.66168 1.14329 0
M  V30 31072 C 2860.21 0.402287 1.91418 0
M  V30 31073 O 2861.41 0.419534 2.68239 0
M  V30 31074 C 2859.87 2.93614 2.08132 0
M  V30 31075 C 2859.48 4.26693 1.36517 0
M  V30 31076 C 2861.22 3.16708 2.82659 0
M  V30 31077 C 2859.13 5.45255 2.29021 0
M  V30 31078 H 2858.06 0.619028 0.430489 0
M  V30 31079 H 2860.71 1.7893 0.406985 0
M  V30 31080 H 2859.09 2.74572 2.85353 0
M  V30 31081 H 2860.27 4.5625 0.645981 0
M  V30 31082 H 2858.58 4.09773 0.739948 0
M  V30 31083 H 2861.18 4.02466 3.5203 0
M  V30 31084 H 2861.52 2.31318 3.46118 0
M  V30 31085 H 2862.05 3.36265 2.12535 0
M  V30 31086 H 2858.79 6.3302 1.70194 0
M  V30 31087 H 2858.31 5.20025 2.98887 0
M  V30 31088 H 2859.99 5.78694 2.89349 0
M  V30 31089 N 2860.12 -0.657839 1.43214 0
M  V30 31090 C 2861.37 -1.41362 1.43874 0
M  V30 31091 C 2861.69 -1.95492 0.0649324 0
M  V30 31092 O 2862.89 -2.71452 -0.0510319 0
M  V30 31093 C 2861.35 -2.55806 2.53162 0
M  V30 31094 C 2860.96 -2.08304 3.96628 0
M  V30 31095 C 2862.7 -3.33206 2.6301 0
M  V30 31096 C 2860.61 -3.19932 4.97391 0
M  V30 31097 H 2859.54 -0.531126 0.535183 0
M  V30 31098 H 2862.19 -0.710514 1.69186 0
M  V30 31099 H 2860.57 -3.28566 2.21043 0
M  V30 31100 H 2861.74 -1.42585 4.38185 0
M  V30 31101 H 2860.06 -1.43797 3.90783 0
M  V30 31102 H 2862.66 -4.16372 3.35468 0
M  V30 31103 H 2863 -3.80929 1.67925 0
M  V30 31104 H 2863.53 -2.67524 2.94407 0
M  V30 31105 H 2860.27 -2.77182 5.94012 0
M  V30 31106 H 2859.79 -3.84377 4.6045 0
M  V30 31107 H 2861.47 -3.85136 5.19884 0
M  V30 31108 N 2861.6 -1.29668 -0.895769 0
M  V30 31109 C 2862.83 -1.20764 -1.67999 0
M  V30 31110 C 2863.24 0.231154 -1.8738 0
M  V30 31111 O 2862.6 1.15426 -1.41361 0
M  V30 31112 C 2862.65 -1.92103 -3.06233 0
M  V30 31113 O 2862.37 -3.30364 -2.87734 0
M  V30 31114 C 2863.87 -1.89724 -4.00649 0
M  V30 31115 H 2861.09 -0.418393 -0.524584 0
M  V30 31116 H 2863.64 -1.71108 -1.11992 0
M  V30 31117 H 2861.79 -1.45585 -3.59004 0
M  V30 31118 H 2862.21 -3.66348 -3.75352 0
M  V30 31119 H 2863.68 -2.44198 -4.95047 0
M  V30 31120 H 2864.16 -0.87367 -4.30423 0
M  V30 31121 H 2864.76 -2.36005 -3.53811 0
M  V30 31122 N 2863.08 1.10667 -1.12208 0
M  V30 31123 C 2864.01 2.18996 -0.810124 0
M  V30 31124 C 2864.99 1.68605 0.225035 0
M  V30 31125 O 2866.18 1.94006 0.0867489 0
M  V30 31126 C 2863.31 3.46315 -0.261323 0
M  V30 31127 C 2862.26 4.09967 -1.22927 0
M  V30 31128 C 2861.59 5.31958 -0.540806 0
M  V30 31129 C 2862.89 4.53957 -2.58303 0
M  V30 31130 H 2864.58 2.45349 -1.71594 0
M  V30 31131 H 2862.13 1.17921 -0.826481 0
M  V30 31132 H 2864.08 4.21389 -0.0308262 0
M  V30 31133 H 2862.8 3.19446 0.679823 0
M  V30 31134 H 2861.46 3.36897 -1.44553 0
M  V30 31135 H 2861.11 5.01364 0.405404 0
M  V30 31136 H 2860.81 5.75497 -1.18647 0
M  V30 31137 H 2862.33 6.09765 -0.319291 0
M  V30 31138 H 2863.75 5.20315 -2.40718 0
M  V30 31139 H 2862.14 5.08337 -3.18925 0
M  V30 31140 H 2863.21 3.66997 -3.16925 0
M  V30 31141 N 2864.56 0.913621 1.28416 0
M  V30 31142 C 2865.81 0.542606 1.94264 0
M  V30 31143 C 2866.12 -0.918176 1.7271 0
M  V30 31144 O 2867.33 -1.39734 2.3278 0
M  V30 31145 C 2865.78 0.919568 3.47954 0
M  V30 31146 C 2865.39 2.40007 3.78287 0
M  V30 31147 C 2867.13 0.619131 4.19961 0
M  V30 31148 C 2865.04 2.71716 5.25285 0
M  V30 31149 H 2863.97 0.199205 0.727209 0
M  V30 31150 H 2866.62 1.11252 1.45929 0
M  V30 31151 H 2865 0.278442 3.9502 0
M  V30 31152 H 2866.18 3.08792 3.4203 0
M  V30 31153 H 2864.49 2.67095 3.19452 0
M  V30 31154 H 2867.09 0.832716 5.28176 0
M  V30 31155 H 2867.43 -0.443053 4.13936 0
M  V30 31156 H 2867.97 1.21872 3.78671 0
M  V30 31157 H 2864.7 3.76788 5.36387 0
M  V30 31158 H 2864.22 2.07569 5.62739 0
M  V30 31159 H 2865.9 2.58714 5.93023 0
M  V30 31160 N 2866.04 -1.4229 0.677588 0
M  V30 31161 C 2867.31 -1.95169 0.129837 0
M  V30 31162 C 2867.69 -1.61788 -1.35602 0
M  V30 31163 O 2867.04 -0.915481 -2.09359 0
M  V30 31164 C 2867.25 -3.46678 0.401949 0
M  V30 31165 C 2868.6 -4.23393 0.319963 0
M  V30 31166 O 2869.62 -3.54613 0.335853 0
M  V30 31167 O 2868.48 -5.45859 0.264555 0
M  V30 31168 H 2865.58 -0.826988 0.00448886 0
M  V30 31169 H 2868.12 -1.52103 0.75251 0
M  V30 31170 H 2866.89 -3.6419 1.43114 0
M  V30 31171 H 2866.52 -3.96797 -0.252592 0
M  V30 31172 N 2867.51 -0.421104 -1.5187 0
M  V30 31173 C 2868.74 0.152334 -2.0684 0
M  V30 31174 C 2869.16 1.37081 -1.28804 0
M  V30 31175 O 2868.52 1.78426 -0.321513 0
M  V30 31176 C 2868.57 0.469305 -3.57533 0
M  V30 31177 O 2867.67 1.55842 -3.81821 0
M  V30 31178 H 2867.01 0.00897419 -0.663939 0
M  V30 31179 H 2869.54 -0.597759 -1.95673 0
M  V30 31180 H 2869.55 0.724482 -4.01516 0
M  V30 31181 H 2868.23 -0.421349 -4.1376 0
M  V30 31182 H 2866.81 1.29447 -3.49711 0
M  V30 31183 N 2868.99 1.56866 -0.151912 0
M  V30 31184 C 2870.27 1.87903 0.543295 0
M  V30 31185 C 2870.65 1.05868 1.82634 0
M  V30 31186 O 2870 0.146908 2.28027 0
M  V30 31187 C 2870.21 3.39613 0.803997 0
M  V30 31188 C 2871.56 4.08937 1.1426 0
M  V30 31189 O 2872.58 3.4482 0.893187 0
M  V30 31190 O 2871.44 5.22179 1.6122 0
M  V30 31191 H 2868.53 0.778977 0.277711 0
M  V30 31192 H 2871.08 1.68645 -0.188892 0
M  V30 31193 H 2869.85 3.91162 -0.103841 0
M  V30 31194 H 2869.47 3.64416 1.59019 0
M  V30 31195 N 2870.47 -0.121866 1.57128 0
M  V30 31196 C 2871.72 -0.831386 1.84975 0
M  V30 31197 C 2872.05 -1.79662 0.737236 0
M  V30 31198 O 2871.32 -1.92792 -0.257165 0
M  V30 31199 C 2871.61 -1.58381 3.234 0
M  V30 31200 C 2871.46 -0.638367 4.45247 0
M  V30 31201 C 2872.78 -2.54064 3.5936 0
M  V30 31202 H 2869.9 -0.300791 0.672825 0
M  V30 31203 H 2872.54 -0.0957254 1.89759 0
M  V30 31204 H 2870.69 -2.21093 3.19453 0
M  V30 31205 H 2872.36 -0.0203115 4.61296 0
M  V30 31206 H 2870.61 0.0503062 4.33771 0
M  V30 31207 H 2871.28 -1.20141 5.38767 0
M  V30 31208 H 2873.75 -2.01459 3.64079 0
M  V30 31209 H 2872.63 -3.03744 4.57199 0
M  V30 31210 H 2872.89 -3.36596 2.86628 0
M  V30 31211 N 2871.95 -1.52648 -0.391965 0
M  V30 31212 C 2872.86 -1.80133 -1.50297 0
M  V30 31213 C 2873.87 -0.68791 -1.59824 0
M  V30 31214 O 2875.05 -0.97518 -1.76216 0
M  V30 31215 C 2872.12 -1.96176 -2.8586 0
M  V30 31216 C 2871.18 -3.2009 -2.86078 0
M  V30 31217 C 2870.41 -3.35358 -4.15175 0
M  V30 31218 O 2870.63 -2.555 -5.09977 0
M  V30 31219 O 2869.57 -4.28598 -4.22596 0
M  V30 31220 H 2873.39 -2.74469 -1.30002 0
M  V30 31221 H 2870.98 -1.37703 -0.579515 0
M  V30 31222 H 2872.86 -2.08452 -3.66232 0
M  V30 31223 H 2871.53 -1.0503 -3.06187 0
M  V30 31224 H 2870.44 -3.13259 -2.04498 0
M  V30 31225 H 2871.77 -4.11073 -2.70703 0
M  V30 31226 N 2873.43 0.650235 -1.43561 0
M  V30 31227 C 2874.65 1.44273 -1.48997 0
M  V30 31228 C 2875.08 1.87778 -0.109987 0
M  V30 31229 O 2874.43 1.57561 0.896898 0
M  V30 31230 C 2874.48 2.65193 -2.44346 0
M  V30 31231 O 2873.59 3.64357 -1.93178 0
M  V30 31232 H 2872.93 0.43246 -0.503859 0
M  V30 31233 H 2875.46 0.795413 -1.88506 0
M  V30 31234 H 2875.47 3.12972 -2.61749 0
M  V30 31235 H 2874.14 2.32871 -3.44592 0
M  V30 31236 H 2872.72 3.23516 -1.8545 0
M  V30 31237 N 2874.9 1.30141 0.88888 0
M  V30 31238 C 2876.15 1.18739 1.64035 0
M  V30 31239 C 2876.48 -0.258767 1.92771 0
M  V30 31240 O 2875.73 -1.20209 1.54429 0
M  V30 31241 C 2876.03 1.95733 2.99037 0
M  V30 31242 C 2875.7 3.4538 2.89868 0
M  V30 31243 C 2874.36 3.86188 2.87075 0
M  V30 31244 C 2876.71 4.40692 2.78281 0
M  V30 31245 C 2874.04 5.20607 2.70527 0
M  V30 31246 C 2876.39 5.75214 2.63272 0
M  V30 31247 C 2875.06 6.15266 2.58851 0
M  V30 31248 H 2874.33 0.434495 0.600246 0
M  V30 31249 H 2876.97 1.612 1.03377 0
M  V30 31250 H 2875.28 1.45895 3.63623 0
M  V30 31251 H 2876.98 1.84306 3.56135 0
M  V30 31252 H 2873.57 3.12948 2.9285 0
M  V30 31253 H 2877.75 4.10108 2.79508 0
M  V30 31254 H 2873.01 5.50737 2.65516 0
M  V30 31255 H 2877.18 6.48709 2.53279 0
M  V30 31256 H 2874.81 7.1937 2.45787 0
M  V30 31257 N 2876.38 -1.1007 1.12794 0
M  V30 31258 C 2877.31 -2.18563 0.821727 0
M  V30 31259 C 2878.29 -1.68722 -0.21609 0
M  V30 31260 O 2879.48 -1.94049 -0.076459 0
M  V30 31261 C 2876.61 -3.46172 0.279685 0
M  V30 31262 C 2875.56 -4.09309 1.25099 0
M  V30 31263 C 2874.89 -5.31664 0.56901 0
M  V30 31264 C 2876.19 -4.52581 2.60706 0
M  V30 31265 H 2877.88 -2.44435 1.72893 0
M  V30 31266 H 2875.43 -1.17481 0.832723 0
M  V30 31267 H 2877.38 -4.21366 0.0531731 0
M  V30 31268 H 2876.11 -3.19802 -0.662872 0
M  V30 31269 H 2874.76 -3.36126 1.46338 0
M  V30 31270 H 2874.41 -5.01572 -0.37881 0
M  V30 31271 H 2874.11 -5.7486 1.21697 0
M  V30 31272 H 2875.64 -6.09587 0.351624 0
M  V30 31273 H 2877.05 -5.19031 2.43474 0
M  V30 31274 H 2875.45 -5.06639 3.21616 0
M  V30 31275 H 2876.52 -3.65311 3.18867 0
M  V30 31276 N 2877.86 -0.920419 -1.2793 0
M  V30 31277 C 2879.11 -0.557866 -1.94976 0
M  V30 31278 C 2879.44 0.897335 -1.72225 0
M  V30 31279 O 2878.71 1.6391 -1.04708 0
M  V30 31280 C 2879 -0.875803 -3.49287 0
M  V30 31281 C 2878.85 -2.38422 -3.81412 0
M  V30 31282 C 2880.17 -0.376594 -4.38486 0
M  V30 31283 H 2877.29 -0.204152 -0.70816 0
M  V30 31284 H 2879.93 -1.15087 -1.51178 0
M  V30 31285 H 2878.08 -0.37113 -3.86723 0
M  V30 31286 H 2879.75 -2.96003 -3.53808 0
M  V30 31287 H 2878 -2.83644 -3.2822 0
M  V30 31288 H 2878.67 -2.55722 -4.89194 0
M  V30 31289 H 2881.14 -0.809017 -4.08159 0
M  V30 31290 H 2880.02 -0.628072 -5.45295 0
M  V30 31291 H 2880.28 0.723216 -4.36144 0
M  V30 31292 N 2879.34 1.41929 -0.685124 0
M  V30 31293 C 2880.29 2.27998 0.00973287 0
M  V30 31294 C 2881.27 1.41643 0.76329 0
M  V30 31295 O 2882.46 1.65005 0.640503 0
M  V30 31296 C 2879.59 3.2981 0.952914 0
M  V30 31297 C 2878.68 4.23646 0.196156 0
M  V30 31298 N 2879.07 4.99361 -0.804489 0
M  V30 31299 C 2877.37 4.43892 0.433135 0
M  V30 31300 C 2878.07 5.67966 -1.25656 0
M  V30 31301 N 2877.05 5.40449 -0.584495 0
M  V30 31302 H 2880.85 2.83967 -0.757636 0
M  V30 31303 H 2878.36 1.54016 -0.515064 0
M  V30 31304 H 2880.36 3.90283 1.46578 0
M  V30 31305 H 2879.02 2.75402 1.72 0
M  V30 31306 H 2880.03 5.04175 -1.18438 0
M  V30 31307 H 2876.71 4.00509 1.17892 0
M  V30 31308 H 2878.1 6.38688 -2.08633 0
M  V30 31309 N 2880.82 0.429152 1.51644 0
M  V30 31310 C 2881.76 -0.386406 2.27542 0
M  V30 31311 C 2882.73 -1.02391 1.30788 0
M  V30 31312 O 2883.92 -1.04437 1.59679 0
M  V30 31313 C 2881.06 -1.48617 3.11459 0
M  V30 31314 C 2880.17 -0.867617 4.23198 0
M  V30 31315 C 2879.31 -1.94175 4.94439 0
M  V30 31316 C 2878.35 -1.30119 5.9811 0
M  V30 31317 N 2877.48 -2.31633 6.6279 0
M  V30 31318 H 2882.32 0.267207 2.968 0
M  V30 31319 H 2879.86 0.143616 1.46397 0
M  V30 31320 H 2881.82 -2.13499 3.58433 0
M  V30 31321 H 2880.45 -2.10953 2.44333 0
M  V30 31322 H 2879.5 -0.107306 3.80249 0
M  V30 31323 H 2880.81 -0.359883 4.975 0
M  V30 31324 H 2879.97 -2.66738 5.44918 0
M  V30 31325 H 2878.7 -2.48319 4.19749 0
M  V30 31326 H 2877.71 -0.560986 5.46931 0
M  V30 31327 H 2878.93 -0.767185 6.74753 0
M  V30 31328 H 2876.88 -2.84872 5.90918 0
M  V30 31329 H 2876.8 -1.85728 7.32831 0
M  V30 31330 H 2878.07 -3.03704 7.17903 0
M  V30 31331 N 2882.29 -1.56783 0.160229 0
M  V30 31332 C 2883.23 -2.13236 -0.812759 0
M  V30 31333 C 2884.21 -1.05944 -1.23348 0
M  V30 31334 O 2885.39 -1.33854 -1.32723 0
M  V30 31335 C 2882.52 -2.66287 -2.09306 0
M  V30 31336 C 2881.56 -3.85848 -1.81723 0
M  V30 31337 S 2882.4 -5.26149 -0.996381 0
M  V30 31338 C 2883.55 -5.82598 -2.28758 0
M  V30 31339 H 2883.78 -2.95432 -0.332742 0
M  V30 31340 H 2881.32 -1.54305 -0.0542699 0
M  V30 31341 H 2883.28 -2.97501 -2.82849 0
M  V30 31342 H 2881.94 -1.84197 -2.54422 0
M  V30 31343 H 2881.13 -4.21258 -2.76691 0
M  V30 31344 H 2880.73 -3.55464 -1.16282 0
M  V30 31345 H 2883.02 -5.94836 -3.24309 0
M  V30 31346 H 2883.97 -6.79902 -1.97834 0
M  V30 31347 H 2884.37 -5.10935 -2.40012 0
M  V30 31348 N 2883.77 0.113531 -1.57191 0
M  V30 31349 C 2885.02 0.821564 -1.85413 0
M  V30 31350 C 2885.35 1.79269 -0.746753 0
M  V30 31351 O 2884.63 1.92926 0.246937 0
M  V30 31352 C 2884.91 1.56663 -3.24235 0
M  V30 31353 C 2884.76 0.614745 -4.45579 0
M  V30 31354 C 2886.08 2.52155 -3.60702 0
M  V30 31355 H 2883.2 0.297218 -0.674411 0
M  V30 31356 H 2885.84 0.0856606 -1.89807 0
M  V30 31357 H 2883.99 2.19396 -3.20621 0
M  V30 31358 H 2885.67 -0.00415246 -4.613 0
M  V30 31359 H 2883.91 -0.0733094 -4.33738 0
M  V30 31360 H 2884.58 1.17282 -5.39397 0
M  V30 31361 H 2887.06 1.99525 -3.65142 0
M  V30 31362 H 2885.93 3.01315 -4.58803 0
M  V30 31363 H 2886.19 3.35071 -2.88409 0
M  V30 31364 N 2885.25 1.52854 0.383864 0
M  V30 31365 C 2886.53 1.58734 1.14293 0
M  V30 31366 C 2886.91 0.383647 2.07585 0
M  V30 31367 O 2886.26 -0.627622 2.19712 0
M  V30 31368 C 2886.47 2.9287 1.89811 0
M  V30 31369 C 2887.81 3.46791 2.44992 0
M  V30 31370 O 2888.84 2.94778 1.99961 0
M  V30 31371 O 2887.7 4.37677 3.27262 0
M  V30 31372 H 2884.79 0.640422 0.523248 0
M  V30 31373 H 2887.34 1.65191 0.388602 0
M  V30 31374 H 2886.11 3.7192 1.21619 0
M  V30 31375 H 2885.73 2.89821 2.72194 0
M  V30 31376 N 2886.73 -0.642612 1.43904 0
M  V30 31377 C 2888.01 -1.4004 1.36558 0
M  V30 31378 C 2888.39 -2.11092 0.0185959 0
M  V30 31379 O 2887.73 -2.05534 -0.998402 0
M  V30 31380 C 2887.94 -2.37633 2.556 0
M  V30 31381 C 2889.29 -3.01313 2.99158 0
M  V30 31382 O 2890.32 -2.4796 2.55723 0
M  V30 31383 O 2889.18 -3.98072 3.74434 0
M  V30 31384 H 2886.27 -0.626189 0.5402 0
M  V30 31385 H 2888.82 -0.66863 1.55973 0
M  V30 31386 H 2887.59 -1.84151 3.45259 0
M  V30 31387 H 2887.21 -3.18245 2.3834 0
M  V30 31388 N 2888.21 -1.30611 -0.881966 0
M  V30 31389 C 2889.14 -1.19823 -2.00411 0
M  V30 31390 C 2890.12 -0.0881836 -1.69871 0
M  V30 31391 O 2891.3 -0.270734 -1.92304 0
M  V30 31392 C 2888.43 -0.892389 -3.35639 0
M  V30 31393 C 2887.39 -1.9607 -3.80448 0
M  V30 31394 C 2886.71 -1.50779 -5.13001 0
M  V30 31395 C 2888.01 -3.3722 -3.98849 0
M  V30 31396 H 2889.71 -2.13703 -2.09694 0
M  V30 31397 H 2887.25 -1.02884 -1.00752 0
M  V30 31398 H 2889.21 -0.80357 -4.13667 0
M  V30 31399 H 2887.93 0.0820807 -3.26497 0
M  V30 31400 H 2886.59 -2.03921 -3.0465 0
M  V30 31401 H 2886.24 -0.521504 -5.00289 0
M  V30 31402 H 2885.94 -2.22238 -5.43952 0
M  V30 31403 H 2887.46 -1.43281 -5.93551 0
M  V30 31404 H 2888.88 -3.32111 -4.67306 0
M  V30 31405 H 2887.27 -4.06792 -4.41181 0
M  V30 31406 H 2888.34 -3.78889 -3.02608 0
M  V30 31407 N 2889.69 1.0947 -1.13376 0
M  V30 31408 C 2890.6 2.1965 -0.824068 0
M  V30 31409 C 2891.61 1.72947 0.191149 0
M  V30 31410 O 2892.79 2.01388 0.022311 0
M  V30 31411 C 2889.85 3.45451 -0.29407 0
M  V30 31412 C 2888.91 4.06837 -1.37047 0
M  V30 31413 C 2888.15 5.26633 -0.865672 0
M  V30 31414 O 2888.37 5.69627 0.29692 0
M  V30 31415 O 2887.3 5.79133 -1.63978 0
M  V30 31416 H 2891.13 2.48592 -1.74458 0
M  V30 31417 H 2888.71 1.18397 -0.911176 0
M  V30 31418 H 2890.6 4.214 -0.00388446 0
M  V30 31419 H 2889.27 3.18112 0.598865 0
M  V30 31420 H 2888.18 3.32527 -1.71397 0
M  V30 31421 H 2889.51 4.38401 -2.23754 0
M  V30 31422 N 2891.16 0.92719 1.2744 0
M  V30 31423 C 2892.09 0.443228 2.29255 0
M  V30 31424 C 2893.07 -0.496211 1.62701 0
M  V30 31425 O 2894.26 -0.401071 1.90013 0
M  V30 31426 C 2891.39 -0.305305 3.45955 0
M  V30 31427 C 2890.34 0.546252 4.245 0
M  V30 31428 C 2889.67 -0.331418 5.33672 0
M  V30 31429 C 2890.97 1.81046 4.89918 0
M  V30 31430 H 2892.66 1.29413 2.69986 0
M  V30 31431 H 2890.21 0.623727 1.29791 0
M  V30 31432 H 2892.16 -0.654812 4.16281 0
M  V30 31433 H 2890.89 -1.19023 3.0414 0
M  V30 31434 H 2889.55 0.87846 3.55919 0
M  V30 31435 H 2889.19 -1.21528 4.88098 0
M  V30 31436 H 2888.89 0.234849 5.8713 0
M  V30 31437 H 2890.42 -0.676508 6.06841 0
M  V30 31438 H 2891.83 1.52905 5.52533 0
M  V30 31439 H 2890.23 2.32019 5.53432 0
M  V30 31440 H 2891.3 2.53028 4.13648 0
M  V30 31441 N 2892.64 -1.41564 0.692641 0
M  V30 31442 C 2893.57 -2.29196 -0.013673 0
M  V30 31443 C 2894.59 -1.4463 -0.747391 0
M  V30 31444 O 2895.78 -1.68164 -0.598581 0
M  V30 31445 C 2892.88 -3.22438 -1.04341 0
M  V30 31446 C 2892.05 -4.35747 -0.379908 0
M  V30 31447 C 2891.11 -5.09585 -1.31186 0
M  V30 31448 O 2890.13 -5.63474 -0.805356 0
M  V30 31449 N 2891.34 -5.16773 -2.64434 0
M  V30 31450 H 2894.1 -2.90455 0.738666 0
M  V30 31451 H 2891.66 -1.52684 0.538442 0
M  V30 31452 H 2893.65 -3.68703 -1.66854 0
M  V30 31453 H 2892.22 -2.62507 -1.69731 0
M  V30 31454 H 2891.44 -3.91902 0.425044 0
M  V30 31455 H 2892.73 -5.08735 0.0815798 0
M  V30 31456 H 2892.13 -4.74434 -3.08106 0
M  V30 31457 H 2890.69 -5.66625 -3.22149 0
M  V30 31458 N 2894.12 -0.437188 -1.51415 0
M  V30 31459 C 2895.54 -0.0894739 -1.59349 0
M  V30 31460 C 2895.74 1.40113 -1.44812 0
M  V30 31461 O 2894.79 2.17104 -1.28928 0
M  V30 31462 C 2896.1 -0.609449 -2.94459 0
M  V30 31463 C 2897.65 -0.569878 -3.07768 0
M  V30 31464 C 2898.13 -1.06683 -4.45402 0
M  V30 31465 N 2899.62 -1.02481 -4.51721 0
M  V30 31466 C 2900.35 -1.38019 -5.56541 0
M  V30 31467 N 2899.85 -1.80843 -6.68781 0
M  V30 31468 N 2901.64 -1.29837 -5.46899 0
M  V30 31469 H 2893.79 -1.40705 -1.59109 0
M  V30 31470 H 2896.06 -0.579804 -0.750021 0
M  V30 31471 H 2895.76 -1.65237 -3.10467 0
M  V30 31472 H 2895.64 -0.0342899 -3.77184 0
M  V30 31473 H 2898.02 0.464056 -2.91428 0
M  V30 31474 H 2898.1 -1.18144 -2.26883 0
M  V30 31475 H 2897.75 -2.09922 -4.62488 0
M  V30 31476 H 2897.68 -0.431805 -5.24827 0
M  V30 31477 H 2900.17 -0.710323 -3.71164 0
M  V30 31478 H 2900.48 -2.06198 -7.44783 0
M  V30 31479 H 2898.83 -1.84769 -6.69989 0
M  V30 31480 H 2902.02 -0.962478 -4.58098 0
M  V30 31481 H 2902.19 -1.57862 -6.28477 0
M  V30 31482 N 2895.6 1.56696 -0.168541 0
M  V30 31483 C 2896.85 1.9641 0.476181 0
M  V30 31484 C 2897.17 1.05547 1.63966 0
M  V30 31485 O 2896.44 0.12127 1.95524 0
M  V30 31486 H 2895.02 0.725259 0.178908 0
M  V30 31487 H 2897.68 1.93302 -0.249076 0
M  V30 31488 H 2896.77 3.00638 0.838041 0
M  V30 31489 N 2897.08 -0.105193 1.57249 0
M  V30 31490 C 2898.3 -0.824337 1.89769 0
M  V30 31491 C 2898.72 -1.72774 0.761222 0
M  V30 31492 O 2898.08 -1.80532 -0.26731 0
M  V30 31493 C 2898.13 -1.64619 3.21843 0
M  V30 31494 O 2897.85 -0.779141 4.31116 0
M  V30 31495 C 2899.35 -2.46928 3.68159 0
M  V30 31496 H 2896.57 -0.236248 0.628035 0
M  V30 31497 H 2899.11 -0.0854491 2.04321 0
M  V30 31498 H 2897.27 -2.33769 3.08919 0
M  V30 31499 H 2897.68 -1.34736 5.06899 0
M  V30 31500 H 2899.16 -3.00103 4.63295 0
M  V30 31501 H 2899.63 -3.24927 2.95498 0
M  V30 31502 H 2900.24 -1.82996 3.83918 0
M  V30 31503 N 2898.55 -1.53055 -0.375752 0
M  V30 31504 C 2899.48 -1.81748 -1.46594 0
M  V30 31505 C 2900.47 -0.670314 -1.56336 0
M  V30 31506 O 2901.65 -0.919188 -1.71069 0
M  V30 31507 C 2898.78 -1.99826 -2.84054 0
M  V30 31508 C 2897.73 -3.15562 -2.89145 0
M  V30 31509 C 2897.06 -3.18915 -4.29182 0
M  V30 31510 C 2898.36 -4.54363 -2.57587 0
M  V30 31511 H 2900.05 -2.73043 -1.22832 0
M  V30 31512 H 2897.6 -1.31382 -0.589462 0
M  V30 31513 H 2899.55 -2.18482 -3.60338 0
M  V30 31514 H 2898.28 -1.05232 -3.09183 0
M  V30 31515 H 2896.94 -2.9671 -2.15311 0
M  V30 31516 H 2896.58 -2.21978 -4.5137 0
M  V30 31517 H 2896.28 -3.9667 -4.33505 0
M  V30 31518 H 2897.81 -3.39742 -5.07353 0
M  V30 31519 H 2899.22 -4.73249 -3.23587 0
M  V30 31520 H 2897.62 -5.34283 -2.73242 0
M  V30 31521 H 2898.69 -4.60171 -1.52874 0
M  V30 31522 N 2900.03 0.634971 -1.44242 0
M  V30 31523 C 2901.26 1.42684 -1.50519 0
M  V30 31524 C 2901.68 1.87651 -0.129897 0
M  V30 31525 O 2901.04 1.58503 0.880136 0
M  V30 31526 C 2901.09 2.62587 -2.47145 0
M  V30 31527 O 2900.19 3.62288 -1.97032 0
M  V30 31528 H 2899.53 0.427092 -0.508418 0
M  V30 31529 H 2902.06 0.775374 -1.89339 0
M  V30 31530 H 2902.07 3.10178 -2.65054 0
M  V30 31531 H 2900.75 2.29203 -3.47043 0
M  V30 31532 H 2899.33 3.21531 -1.88871 0
M  V30 31533 N 2901.51 1.31076 0.875027 0
M  V30 31534 C 2902.46 1.183 1.98176 0
M  V30 31535 C 2903.43 0.0700215 1.65952 0
M  V30 31536 O 2904.61 0.241984 1.89259 0
M  V30 31537 C 2901.75 0.891082 3.33397 0
M  V30 31538 C 2900.87 2.0869 3.78249 0
M  V30 31539 C 2900 1.73221 5.02163 0
M  V30 31540 C 2899.04 2.89241 5.3945 0
M  V30 31541 N 2898.18 2.54001 6.54544 0
M  V30 31542 H 2903.02 2.12975 2.08436 0
M  V30 31543 H 2900.55 1.05949 1.02045 0
M  V30 31544 H 2902.51 0.70241 4.11244 0
M  V30 31545 H 2901.14 -0.0188232 3.22795 0
M  V30 31546 H 2900.19 2.38651 2.96226 0
M  V30 31547 H 2901.51 2.95543 4.01816 0
M  V30 31548 H 2900.66 1.50787 5.87663 0
M  V30 31549 H 2899.4 0.835525 4.8049 0
M  V30 31550 H 2898.4 3.12329 4.52471 0
M  V30 31551 H 2899.63 3.79611 5.63092 0
M  V30 31552 H 2897.57 1.66849 6.34427 0
M  V30 31553 H 2897.49 3.34384 6.78029 0
M  V30 31554 H 2898.76 2.34947 7.4325 0
M  V30 31555 N 2902.99 -1.08867 1.13955 0
M  V30 31556 C 2904.23 -1.81428 0.906183 0
M  V30 31557 C 2904.57 -1.85767 -0.566057 0
M  V30 31558 O 2903.84 -1.33008 -1.41912 0
M  V30 31559 C 2904.13 -3.27285 1.50189 0
M  V30 31560 C 2903.98 -3.31183 3.04364 0
M  V30 31561 C 2905.3 -4.24129 1.17484 0
M  V30 31562 H 2902.42 -0.658672 0.330636 0
M  V30 31563 H 2905.06 -1.27492 1.40875 0
M  V30 31564 H 2903.21 -3.73346 1.07448 0
M  V30 31565 H 2904.88 -2.93482 3.55902 0
M  V30 31566 H 2903.12 -2.70596 3.39058 0
M  V30 31567 H 2903.79 -4.3396 3.41149 0
M  V30 31568 H 2906.27 -3.86383 1.54427 0
M  V30 31569 H 2905.15 -5.2451 1.61805 0
M  V30 31570 H 2905.41 -4.4201 0.0894089 0
M  V30 31571 N 2904.47 -0.933936 -1.26946 0
M  V30 31572 C 2905.43 -0.442497 -2.24888 0
M  V30 31573 C 2906.43 0.442399 -1.54595 0
M  V30 31574 O 2907.62 0.242599 -1.72502 0
M  V30 31575 C 2904.75 0.363114 -3.38961 0
M  V30 31576 H 2905.94 -1.30792 -2.69877 0
M  V30 31577 H 2903.5 -0.715211 -1.38976 0
M  V30 31578 H 2904.23 1.24709 -2.99363 0
M  V30 31579 H 2904.02 -0.271435 -3.91159 0
M  V30 31580 H 2905.51 0.697114 -4.1174 0
M  V30 31581 N 2905.94 1.41194 -0.700139 0
M  V30 31582 C 2907.19 2.00383 -0.230117 0
M  V30 31583 C 2907.51 1.56108 1.17854 0
M  V30 31584 O 2908.71 2.07888 1.74627 0
M  V30 31585 C 2907.17 3.5809 -0.36051 0
M  V30 31586 C 2906.78 4.11344 -1.77482 0
M  V30 31587 C 2908.52 4.24471 0.0495053 0
M  V30 31588 C 2906.43 5.61501 -1.85663 0
M  V30 31589 H 2905.36 0.749498 -0.0822765 0
M  V30 31590 H 2908.01 1.61619 -0.868998 0
M  V30 31591 H 2906.39 3.94479 0.346698 0
M  V30 31592 H 2907.56 3.86364 -2.51116 0
M  V30 31593 H 2905.88 3.57505 -2.13492 0
M  V30 31594 H 2908.48 5.34699 0.00888821 0
M  V30 31595 H 2908.82 4.01805 1.08897 0
M  V30 31596 H 2909.35 3.93133 -0.60759 0
M  V30 31597 H 2906.09 5.89001 -2.87678 0
M  V30 31598 H 2905.61 5.88393 -1.1642 0
M  V30 31599 H 2907.29 6.26349 -1.62162 0
M  V30 31600 N 2907.42 0.445212 1.51181 0
M  V30 31601 C 2908.67 -0.120154 2.01342 0
M  V30 31602 C 2908.98 -1.43093 1.33356 0
M  V30 31603 O 2910.19 -2.07971 1.74529 0
M  V30 31604 C 2908.65 -0.264669 3.58926 0
M  V30 31605 C 2908.25 1.03614 4.35853 0
M  V30 31606 C 2910 -0.783381 4.17209 0
M  V30 31607 C 2907.91 0.856834 5.8516 0
M  V30 31608 H 2906.84 -0.048679 0.752427 0
M  V30 31609 H 2909.49 0.576174 1.7422 0
M  V30 31610 H 2907.87 -1.02418 3.82526 0
M  V30 31611 H 2909.04 1.8046 4.23994 0
M  V30 31612 H 2907.36 1.48398 3.89059 0
M  V30 31613 H 2909.95 -0.934147 5.26477 0
M  V30 31614 H 2910.3 -1.76793 3.76895 0
M  V30 31615 H 2910.83 -0.0819647 3.97716 0
M  V30 31616 H 2907.57 1.81399 6.299 0
M  V30 31617 H 2907.09 0.128312 5.99663 0
M  V30 31618 H 2908.77 0.51314 6.44962 0
M  V30 31619 N 2908.9 -1.56605 0.176849 0
M  V30 31620 C 2910.15 -1.96224 -0.466799 0
M  V30 31621 C 2910.46 -1.06579 -1.64013 0
M  V30 31622 O 2911.67 -1.35902 -2.35038 0
M  V30 31623 C 2910.12 -3.48929 -0.881859 0
M  V30 31624 C 2909.73 -4.47209 0.266181 0
M  V30 31625 C 2911.48 -3.97356 -1.49361 0
M  V30 31626 C 2909.38 -5.91159 -0.16882 0
M  V30 31627 H 2908.31 -0.732648 -0.178165 0
M  V30 31628 H 2910.96 -1.81562 0.265961 0
M  V30 31629 H 2909.35 -3.59029 -1.67076 0
M  V30 31630 H 2910.52 -4.48828 1.04357 0
M  V30 31631 H 2908.84 -4.08871 0.78825 0
M  V30 31632 H 2911.43 -5.02365 -1.83121 0
M  V30 31633 H 2911.78 -3.4061 -2.39354 0
M  V30 31634 H 2912.31 -3.90295 -0.769046 0
M  V30 31635 H 2909.05 -6.5179 0.696465 0
M  V30 31636 H 2908.57 -5.92834 -0.911448 0
M  V30 31637 H 2910.25 -6.4411 -0.610825 0
M  V30 31638 N 2910.38 0.0968524 -1.57302 0
M  V30 31639 C 2911.34 1.10185 -2.00978 0
M  V30 31640 C 2912.34 1.33049 -0.903033 0
M  V30 31641 O 2913.53 1.29192 -1.16855 0
M  V30 31642 C 2910.66 2.45138 -2.36897 0
M  V30 31643 H 2911.86 0.725952 -2.90981 0
M  V30 31644 H 2909.41 0.341845 -1.52516 0
M  V30 31645 H 2910.14 2.87607 -1.49842 0
M  V30 31646 H 2909.93 2.29891 -3.17636 0
M  V30 31647 H 2911.42 3.17425 -2.71351 0
M  V30 31648 N 2911.86 1.53252 0.36763 0
M  V30 31649 C 2913.11 1.68556 1.10779 0
M  V30 31650 C 2913.42 0.442799 1.90522 0
M  V30 31651 O 2914.62 0.476337 2.67289 0
M  V30 31652 C 2913.08 2.97962 2.01857 0
M  V30 31653 C 2912.69 4.29493 1.27435 0
M  V30 31654 C 2914.43 3.22633 2.75877 0
M  V30 31655 C 2912.34 5.4999 2.17404 0
M  V30 31656 H 2911.27 0.62802 0.417261 0
M  V30 31657 H 2913.92 1.79753 0.36894 0
M  V30 31658 H 2912.3 2.80563 2.79465 0
M  V30 31659 H 2913.48 4.57517 0.549058 0
M  V30 31660 H 2911.79 4.1125 0.652863 0
M  V30 31661 H 2914.39 4.09843 3.43414 0
M  V30 31662 H 2914.73 2.38607 3.41134 0
M  V30 31663 H 2915.26 3.40697 2.05354 0
M  V30 31664 H 2912 6.36487 1.56729 0
M  V30 31665 H 2911.52 5.26248 2.87789 0
M  V30 31666 H 2913.2 5.84701 2.77009 0
M  V30 31667 N 2913.34 -0.627313 1.44577 0
M  V30 31668 C 2914.27 -1.75209 1.46209 0
M  V30 31669 C 2915.25 -1.5941 0.320511 0
M  V30 31670 O 2916.43 -1.81241 0.51806 0
M  V30 31671 C 2913.56 -3.12825 1.29839 0
M  V30 31672 C 2912.6 -3.47264 2.47609 0
M  V30 31673 S 2913.44 -3.44315 4.10131 0
M  V30 31674 C 2914.59 -4.84544 3.96191 0
M  V30 31675 H 2914.83 -1.73559 2.41381 0
M  V30 31676 H 2912.36 -0.80226 1.31921 0
M  V30 31677 H 2914.32 -3.92236 1.21082 0
M  V30 31678 H 2912.98 -3.1201 0.361716 0
M  V30 31679 H 2912.17 -4.47414 2.32028 0
M  V30 31680 H 2911.77 -2.75324 2.53126 0
M  V30 31681 H 2914.06 -5.73866 3.60117 0
M  V30 31682 H 2915.01 -5.0518 4.96185 0
M  V30 31683 H 2915.42 -4.59298 3.28185 0
M  V30 31684 N 2914.81 -1.31539 -0.868063 0
M  V30 31685 C 2916.06 -1.20692 -1.61605 0
M  V30 31686 C 2916.38 0.23324 -1.94204 0
M  V30 31687 O 2917.58 0.463418 -2.67516 0
M  V30 31688 C 2916.04 -2.11297 -2.91344 0
M  V30 31689 C 2915.65 -3.6032 -2.66221 0
M  V30 31690 C 2917.39 -2.09255 -3.69341 0
M  V30 31691 C 2915.3 -4.42927 -3.91879 0
M  V30 31692 H 2914.23 -0.448149 -0.606365 0
M  V30 31693 H 2916.88 -1.56407 -0.959638 0
M  V30 31694 H 2915.26 -1.68483 -3.58371 0
M  V30 31695 H 2916.43 -4.11392 -2.0759 0
M  V30 31696 H 2914.75 -3.64357 -2.01576 0
M  V30 31697 H 2917.35 -2.68217 -4.62562 0
M  V30 31698 H 2917.69 -1.08017 -4.02042 0
M  V30 31699 H 2918.22 -2.5028 -3.092 0
M  V30 31700 H 2914.96 -5.44928 -3.64327 0
M  V30 31701 H 2914.48 -3.96612 -4.49954 0
M  V30 31702 H 2916.16 -4.55239 -4.59746 0
M  V30 31703 N 2916.29 1.08262 -1.1453 0
M  V30 31704 C 2917.54 1.80945 -0.915791 0
M  V30 31705 C 2917.87 1.86065 0.556197 0
M  V30 31706 O 2917.15 1.33759 1.41205 0
M  V30 31707 C 2917.43 3.26484 -1.51922 0
M  V30 31708 C 2917.28 3.29565 -3.06116 0
M  V30 31709 C 2918.6 4.235 -1.19732 0
M  V30 31710 H 2915.72 0.656909 -0.334124 0
M  V30 31711 H 2918.36 1.26743 -1.41549 0
M  V30 31712 H 2916.51 3.72771 -1.09427 0
M  V30 31713 H 2918.18 2.9159 -3.57453 0
M  V30 31714 H 2916.43 2.68794 -3.40488 0
M  V30 31715 H 2917.1 4.32145 -3.43445 0
M  V30 31716 H 2919.57 3.85558 -1.56474 0
M  V30 31717 H 2918.45 5.23644 -1.64584 0
M  V30 31718 H 2918.71 4.41956 -0.112849 0
M  V30 31719 N 2917.77 0.940655 1.26449 0
M  V30 31720 C 2919.02 0.587943 1.93777 0
M  V30 31721 C 2919.34 -0.872904 1.73812 0
M  V30 31722 O 2918.6 -1.63976 1.06819 0
M  V30 31723 C 2918.9 0.875855 3.46502 0
M  V30 31724 C 2918.56 2.3205 3.86605 0
M  V30 31725 C 2917.23 2.71541 3.97264 0
M  V30 31726 C 2919.58 3.25934 4.06714 0
M  V30 31727 C 2916.91 4.04014 4.25429 0
M  V30 31728 C 2919.26 4.58003 4.36367 0
M  V30 31729 C 2917.92 4.9731 4.45241 0
M  V30 31730 H 2917.19 0.215144 0.70908 0
M  V30 31731 H 2919.84 1.18706 1.5027 0
M  V30 31732 H 2918.14 0.194193 3.91318 0
M  V30 31733 H 2919.84 0.581734 3.96758 0
M  V30 31734 H 2916.43 2.00418 3.78855 0
M  V30 31735 H 2920.62 2.96621 3.97907 0
M  V30 31736 H 2915.87 4.34131 4.30511 0
M  V30 31737 H 2920.05 5.30742 4.50872 0
M  V30 31738 H 2917.67 5.99987 4.66819 0
M  V30 31739 N 2919.25 -1.40821 0.707617 0
M  V30 31740 C 2920.47 -2.05867 0.251662 0
M  V30 31741 C 2920.9 -1.52942 -1.09501 0
M  V30 31742 O 2920.26 -0.661415 -1.68805 0
M  V30 31743 C 2920.3 -3.59847 0.232933 0
M  V30 31744 O 2919.41 -4.04794 -0.788405 0
M  V30 31745 H 2918.75 -0.653076 0.119947 0
M  V30 31746 H 2921.28 -1.80367 0.965862 0
M  V30 31747 H 2921.29 -4.07944 0.0678921 0
M  V30 31748 H 2919.96 -3.97735 1.21572 0
M  V30 31749 H 2918.54 -3.68175 -0.591738 0
M  V30 31750 N 2920.73 -0.453223 -1.50943 0
M  V30 31751 C 2921.67 0.364379 -2.29728 0
M  V30 31752 C 2922.67 1.00662 -1.36248 0
M  V30 31753 O 2923.87 0.939767 -1.5352 0
M  V30 31754 H 2920.25 0.136334 -0.739538 0
M  V30 31755 H 2922.22 -0.320748 -2.96671 0
M  V30 31756 C 2920.97 1.44409 -3.16293 0
M  V30 31757 H 2920.29 0.959275 -3.88121 0
M  V30 31758 H 2921.73 1.9891 -3.74447 0
M  V30 31759 C 2920.19 2.43618 -2.32706 0
M  V30 31760 O 2920.72 3.48504 -1.99769 0
M  V30 31761 N 2918.93 2.14894 -1.95625 0
M  V30 31762 H 2918.47 1.29625 -2.2261 0
M  V30 31763 H 2918.43 2.8151 -1.39998 0
M  V30 31764 N 2922.2 1.56509 -0.185151 0
M  V30 31765 C 2923.62 1.58683 0.170837 0
M  V30 31766 C 2923.82 1.201 1.61797 0
M  V30 31767 O 2922.88 0.919079 2.35179 0
M  V30 31768 C 2924.19 3.0045 -0.122512 0
M  V30 31769 C 2925.74 3.12939 -0.0618249 0
M  V30 31770 C 2926.21 4.56821 -0.32835 0
M  V30 31771 N 2927.7 4.62373 -0.276614 0
M  V30 31772 C 2928.44 5.71577 -0.456823 0
M  V30 31773 N 2927.93 6.89287 -0.696841 0
M  V30 31774 N 2929.73 5.60733 -0.391767 0
M  V30 31775 H 2921.88 1.79872 -1.1296 0
M  V30 31776 H 2924.14 0.834321 -0.450124 0
M  V30 31777 H 2923.85 3.33204 -1.12552 0
M  V30 31778 H 2923.72 3.72722 0.579513 0
M  V30 31779 H 2926.11 2.80003 0.931776 0
M  V30 31780 H 2926.19 2.43074 -0.796774 0
M  V30 31781 H 2925.83 4.90468 -1.31922 0
M  V30 31782 H 2925.76 5.24863 0.427373 0
M  V30 31783 H 2928.25 3.77775 -0.0973123 0
M  V30 31784 H 2928.57 7.68401 -0.823426 0
M  V30 31785 H 2926.91 6.91117 -0.733619 0
M  V30 31786 H 2930.1 4.67652 -0.204745 0
M  V30 31787 H 2930.28 6.45782 -0.535632 0
M  V30 31788 N 2923.68 -0.0885089 1.57351 0
M  V30 31789 C 2924.93 -0.791963 1.86697 0
M  V30 31790 C 2925.26 -1.78058 0.775179 0
M  V30 31791 O 2924.54 -1.93295 -0.216213 0
M  V30 31792 C 2924.82 -1.51485 3.26687 0
M  V30 31793 C 2924.67 -0.543779 4.46501 0
M  V30 31794 C 2925.99 -2.46385 3.64668 0
M  V30 31795 H 2923.11 -0.286451 0.679054 0
M  V30 31796 H 2925.75 -0.0554532 1.89919 0
M  V30 31797 H 2923.9 -2.14267 3.24071 0
M  V30 31798 H 2925.57 0.0775407 4.61235 0
M  V30 31799 H 2923.82 0.142304 4.33567 0
M  V30 31800 H 2924.49 -1.08686 5.41194 0
M  V30 31801 H 2926.96 -1.93691 3.6827 0
M  V30 31802 H 2925.84 -2.93978 4.63539 0
M  V30 31803 H 2926.1 -3.3044 2.93703 0
M  V30 31804 N 2925.16 -1.53445 -0.359498 0
M  V30 31805 C 2926.41 -1.69922 -1.10149 0
M  V30 31806 C 2926.73 -0.454133 -1.89124 0
M  V30 31807 O 2925.99 0.56399 -1.87397 0
M  V30 31808 C 2926.29 -2.90436 -2.08282 0
M  V30 31809 C 2925.95 -4.26697 -1.45741 0
M  V30 31810 C 2924.62 -4.63749 -1.28413 0
M  V30 31811 C 2926.97 -5.11409 -1.00548 0
M  V30 31812 C 2924.3 -5.83145 -0.644849 0
M  V30 31813 C 2926.65 -6.31457 -0.380177 0
M  V30 31814 C 2925.31 -6.67217 -0.19444 0
M  V30 31815 H 2924.58 -0.621788 -0.403065 0
M  V30 31816 H 2927.23 -1.87639 -0.382579 0
M  V30 31817 H 2925.53 -2.67256 -2.86499 0
M  V30 31818 H 2927.23 -3.00379 -2.65657 0
M  V30 31819 H 2923.82 -3.97526 -1.60223 0
M  V30 31820 H 2928.01 -4.83328 -1.12727 0
M  V30 31821 H 2923.26 -6.09438 -0.489413 0
M  V30 31822 H 2927.44 -6.96397 -0.0218231 0
M  V30 31823 H 2925.06 -7.59596 0.302983 0
M  V30 31824 N 2926.64 0.619637 -1.44908 0
M  V30 31825 C 2927.59 1.75219 -1.52974 0
M  V30 31826 C 2928.58 1.64596 -0.40056 0
M  V30 31827 O 2929.79 1.70536 -0.575982 0
M  V30 31828 H 2926.16 0.578673 -0.480251 0
M  V30 31829 H 2928.13 1.65541 -2.48271 0
M  V30 31830 C 2926.88 3.1358 -1.50209 0
M  V30 31831 H 2926.2 3.22408 -2.36418 0
M  V30 31832 H 2927.64 3.92688 -1.59912 0
M  V30 31833 C 2926.1 3.3615 -0.224609 0
M  V30 31834 O 2926.63 3.95545 0.700504 0
M  V30 31835 N 2924.84 2.90335 -0.124104 0
M  V30 31836 H 2924.39 2.42183 -0.877783 0
M  V30 31837 H 2924.34 3.05811 0.72986 0
M  V30 31838 N 2928.12 1.31997 0.861075 0
M  V30 31839 C 2929.36 1.22372 1.61718 0
M  V30 31840 C 2929.7 -0.215553 1.93 0
M  V30 31841 O 2928.97 -1.15095 1.56791 0
M  V30 31842 C 2929.25 2.07697 2.94167 0
M  V30 31843 C 2929.11 3.5997 2.69707 0
M  V30 31844 C 2930.43 1.93319 3.95368 0
M  V30 31845 H 2927.54 0.445891 0.586814 0
M  V30 31846 H 2930.19 1.61878 0.994759 0
M  V30 31847 H 2928.34 1.74134 3.47289 0
M  V30 31848 H 2930.01 4.03713 2.23189 0
M  V30 31849 H 2928.25 3.82956 2.03783 0
M  V30 31850 H 2928.92 4.14989 3.63989 0
M  V30 31851 H 2931.4 2.22708 3.51483 0
M  V30 31852 H 2930.27 2.55307 4.85911 0
M  V30 31853 H 2930.54 0.898998 4.32863 0
M  V30 31854 N 2929.59 -1.07653 1.15103 0
M  V30 31855 C 2930.82 -1.84455 0.948209 0
M  V30 31856 C 2931.24 -1.81377 -0.498401 0
M  V30 31857 O 2930.6 -1.20447 -1.35507 0
M  V30 31858 C 2930.65 -3.29578 1.46324 0
M  V30 31859 O 2929.75 -4.07078 0.660414 0
M  V30 31860 H 2929.1 -0.571275 0.338438 0
M  V30 31861 H 2931.63 -1.35825 1.53012 0
M  V30 31862 H 2931.64 -3.80414 1.47475 0
M  V30 31863 H 2930.31 -3.31134 2.51641 0
M  V30 31864 H 2928.89 -3.65917 0.718281 0
M  V30 31865 N 2931.07 -0.947348 -1.25949 0
M  V30 31866 C 2932.02 -0.460537 -2.26159 0
M  V30 31867 C 2932.99 0.483097 -1.58919 0
M  V30 31868 O 2934.17 0.397951 -1.86604 0
M  V30 31869 C 2931.31 0.262409 -3.44101 0
M  V30 31870 C 2930.43 -0.717614 -4.25998 0
M  V30 31871 C 2929.56 0.0271552 -5.31193 0
M  V30 31872 C 2928.6 -0.944283 -6.04772 0
M  V30 31873 N 2927.74 -0.230865 -7.0172 0
M  V30 31874 H 2932.58 -1.32 -2.67171 0
M  V30 31875 H 2930.12 -0.662111 -1.31356 0
M  V30 31876 H 2932.07 0.698065 -4.11318 0
M  V30 31877 H 2930.7 1.08596 -3.03985 0
M  V30 31878 H 2929.76 -1.27177 -3.58511 0
M  V30 31879 H 2931.07 -1.45922 -4.76978 0
M  V30 31880 H 2930.22 0.521796 -6.04452 0
M  V30 31881 H 2928.96 0.801598 -4.81067 0
M  V30 31882 H 2927.97 -1.44999 -5.30335 0
M  V30 31883 H 2929.19 -1.71883 -6.56988 0
M  V30 31884 H 2927.14 0.524973 -6.53896 0
M  V30 31885 H 2927.05 -0.911688 -7.50483 0
M  V30 31886 H 2928.32 0.242479 -7.79123 0
M  V30 31887 N 2932.55 1.40444 -0.715075 0
M  V30 31888 C 2933.96 1.83818 -0.326796 0
M  V30 31889 C 2934.31 1.59791 1.13848 0
M  V30 31890 O 2933.44 1.07852 1.87609 0
M  V30 31891 C 2934.03 3.33687 -0.586356 0
M  V30 31892 C 2932.59 3.75557 -0.25179 0
M  V30 31893 C 2931.74 2.63661 -0.858974 0
M  V30 31894 H 2934.69 1.29719 -0.914264 0
M  V30 31895 H 2934.71 3.8021 0.148569 0
M  V30 31896 H 2934.22 3.51143 -1.65288 0
M  V30 31897 H 2932.32 3.63696 0.80969 0
M  V30 31898 H 2932.44 4.73652 -0.720431 0
M  V30 31899 H 2930.8 2.53077 -0.287058 0
M  V30 31900 H 2931.58 2.83929 -1.92975 0
M  V30 31901 N 2934.03 0.461222 1.507 0
M  V30 31902 C 2934.96 -0.328144 2.31183 0
M  V30 31903 C 2935.94 -0.999384 1.37646 0
M  V30 31904 O 2937.12 -0.998451 1.66567 0
M  V30 31905 C 2934.25 -1.41615 3.17116 0
M  V30 31906 C 2933.21 -0.867074 4.19125 0
M  V30 31907 C 2932.53 -2.05263 4.93732 0
M  V30 31908 C 2933.83 0.1149 5.22174 0
M  V30 31909 H 2935.53 0.343553 2.97422 0
M  V30 31910 H 2933.07 0.166666 1.43032 0
M  V30 31911 H 2935.03 -1.97578 3.72211 0
M  V30 31912 H 2933.75 -2.11648 2.48742 0
M  V30 31913 H 2932.41 -0.329493 3.65116 0
M  V30 31914 H 2932.06 -2.73971 4.2184 0
M  V30 31915 H 2931.76 -1.69151 5.62727 0
M  V30 31916 H 2933.28 -2.61734 5.51659 0
M  V30 31917 H 2934.7 -0.355215 5.72198 0
M  V30 31918 H 2933.09 0.389794 5.98833 0
M  V30 31919 H 2934.16 1.044 4.73528 0
M  V30 31920 N 2935.51 -1.56408 0.193449 0
M  V30 31921 C 2936.73 -2.01916 -0.451402 0
M  V30 31922 C 2937.15 -1.07359 -1.55304 0
M  V30 31923 O 2936.51 -0.0781832 -1.82332 0
M  V30 31924 C 2936.56 -3.47126 -1.00925 0
M  V30 31925 O 2936.28 -4.38073 0.0484393 0
M  V30 31926 C 2937.78 -4.08143 -1.73014 0
M  V30 31927 H 2935 -0.661334 -0.113484 0
M  V30 31928 H 2937.54 -2.02263 0.301671 0
M  V30 31929 H 2935.7 -3.47484 -1.71271 0
M  V30 31930 H 2936.11 -5.23218 -0.366552 0
M  V30 31931 H 2937.59 -5.11605 -2.0728 0
M  V30 31932 H 2938.06 -3.51507 -2.63324 0
M  V30 31933 H 2938.67 -4.11553 -1.07257 0
M  V30 31934 N 2936.98 0.0801629 -1.57396 0
M  V30 31935 C 2938.26 0.81342 -1.77884 0
M  V30 31936 C 2938.64 1.96204 -0.778913 0
M  V30 31937 O 2937.99 2.27712 0.189643 0
M  V30 31938 C 2938.2 1.29415 -3.24119 0
M  V30 31939 C 2939.55 1.73091 -3.87717 0
M  V30 31940 O 2940.57 1.39002 -3.27959 0
M  V30 31941 O 2939.43 2.36176 -4.92832 0
M  V30 31942 H 2936.52 0.389125 -0.729733 0
M  V30 31943 H 2939.07 0.0608868 -1.69591 0
M  V30 31944 H 2937.84 0.471879 -3.88444 0
M  V30 31945 H 2937.47 2.10824 -3.37104 0
M  V30 31946 N 2938.46 1.53634 0.351355 0
M  V30 31947 C 2939.87 1.62038 0.9274 0
M  V30 31948 C 2940.22 0.496739 1.89808 0
M  V30 31949 O 2939.35 -0.374712 2.13131 0
M  V30 31950 C 2939.94 2.93709 1.68881 0
M  V30 31951 C 2938.5 3.04401 2.21398 0
M  V30 31952 C 2937.65 2.57433 1.0307 0
M  V30 31953 H 2940.6 1.58169 0.12972 0
M  V30 31954 H 2940.62 2.8231 2.55111 0
M  V30 31955 H 2940.13 3.75469 0.982083 0
M  V30 31956 H 2938.24 2.27258 2.9527 0
M  V30 31957 H 2938.35 4.09734 2.48305 0
M  V30 31958 H 2936.71 2.12651 1.40184 0
M  V30 31959 H 2937.5 3.41625 0.338733 0
M  V30 31960 N 2939.94 -0.611943 1.45234 0
M  V30 31961 C 2940.87 -1.73371 1.56413 0
M  V30 31962 C 2941.85 -1.64937 0.415925 0
M  V30 31963 O 2943.04 -1.83403 0.63851 0
M  V30 31964 C 2940.17 -3.11963 1.52632 0
M  V30 31965 C 2939.12 -3.35204 2.66125 0
M  V30 31966 C 2938.45 -4.74024 2.47398 0
M  V30 31967 C 2939.75 -3.25884 4.08163 0
M  V30 31968 H 2941.44 -1.64272 2.5031 0
M  V30 31969 H 2938.99 -0.788882 1.20468 0
M  V30 31970 H 2940.94 -3.90232 1.5905 0
M  V30 31971 H 2939.66 -3.21891 0.552621 0
M  V30 31972 H 2938.32 -2.59323 2.59128 0
M  V30 31973 H 2937.97 -4.80679 1.48177 0
M  V30 31974 H 2937.67 -4.9053 3.23503 0
M  V30 31975 H 2939.19 -5.54499 2.55663 0
M  V30 31976 H 2940.61 -3.94033 4.16427 0
M  V30 31977 H 2939.01 -3.53921 4.84623 0
M  V30 31978 H 2940.08 -2.23389 4.30378 0
M  V30 31979 N 2941.42 -1.32452 -0.854063 0
M  V30 31980 C 2942.67 -1.23046 -1.60829 0
M  V30 31981 C 2942.99 0.207566 -1.93389 0
M  V30 31982 O 2942.25 1.16072 -1.57562 0
M  V30 31983 C 2942.55 -2.03592 -2.93743 0
M  V30 31984 C 2942.21 -3.52944 -2.80609 0
M  V30 31985 C 2940.88 -3.93664 -2.76735 0
M  V30 31986 C 2943.23 -4.47915 -2.66499 0
M  V30 31987 C 2940.56 -5.27597 -2.56629 0
M  V30 31988 C 2942.91 -5.81992 -2.47929 0
M  V30 31989 C 2941.57 -6.21913 -2.42447 0
M  V30 31990 H 2940.84 -0.450257 -0.588515 0
M  V30 31991 H 2943.49 -1.63884 -0.99067 0
M  V30 31992 H 2941.79 -1.55484 -3.59627 0
M  V30 31993 H 2943.49 -1.93683 -3.51124 0
M  V30 31994 H 2940.08 -3.20603 -2.8445 0
M  V30 31995 H 2944.26 -4.17375 -2.68537 0
M  V30 31996 H 2939.52 -5.57583 -2.50821 0
M  V30 31997 H 2943.69 -6.55196 -2.35991 0
M  V30 31998 H 2941.32 -7.25634 -2.26627 0
M  V30 31999 N 2942.9 1.07041 -1.15672 0
M  V30 32000 C 2944.13 1.83145 -0.956115 0
M  V30 32001 C 2944.54 1.82503 0.498937 0
M  V30 32002 O 2943.88 1.23722 1.35789 0
M  V30 32003 C 2943.94 3.31242 -1.39709 0
M  V30 32004 C 2943.6 3.55599 -2.87051 0
M  V30 32005 C 2944.6 3.49279 -3.85098 0
M  V30 32006 C 2942.29 3.83164 -3.24793 0
M  V30 32007 C 2944.28 3.70176 -5.18891 0
M  V30 32008 C 2941.97 4.03713 -4.58758 0
M  V30 32009 C 2942.97 3.97215 -5.55616 0
M  V30 32010 O 2942.65 4.17211 -6.87161 0
M  V30 32011 H 2942.39 0.584574 -0.339484 0
M  V30 32012 H 2944.94 1.36002 -1.53924 0
M  V30 32013 H 2943.17 3.7921 -0.757393 0
M  V30 32014 H 2944.86 3.88819 -1.16509 0
M  V30 32015 H 2945.62 3.27982 -3.57286 0
M  V30 32016 H 2941.5 3.87335 -2.49986 0
M  V30 32017 H 2945.05 3.6502 -5.9448 0
M  V30 32018 H 2940.94 4.24497 -4.86285 0
M  V30 32019 H 2941.71 4.34541 -6.93625 0
M  V30 32020 N 2944.38 0.954014 1.25445 0
M  V30 32021 C 2945.79 0.649286 1.75046 0
M  V30 32022 C 2946.14 -0.835354 1.77528 0
M  V30 32023 O 2945.26 -1.65374 1.39572 0
M  V30 32024 C 2945.86 1.17189 3.17887 0
M  V30 32025 C 2944.42 0.917331 3.65051 0
M  V30 32026 C 2943.56 1.31529 2.44122 0
M  V30 32027 H 2946.51 1.13089 1.1134 0
M  V30 32028 H 2946.54 0.531682 3.76767 0
M  V30 32029 H 2946.05 2.25244 3.16049 0
M  V30 32030 H 2944.15 -0.148288 3.72305 0
M  V30 32031 H 2944.26 1.55336 4.53219 0
M  V30 32032 H 2942.63 0.733667 2.43905 0
M  V30 32033 H 2943.41 2.40505 2.44974 0
M  V30 32034 N 2945.85 -1.40063 0.722513 0
M  V30 32035 C 2947.26 -1.83642 0.336539 0
M  V30 32036 C 2947.62 -1.60392 -1.12999 0
M  V30 32037 O 2946.74 -1.08845 -1.87034 0
M  V30 32038 C 2947.34 -3.33372 0.604044 0
M  V30 32039 C 2945.89 -3.75418 0.271703 0
M  V30 32040 C 2945.04 -2.63201 0.872945 0
M  V30 32041 H 2947.99 -1.29232 0.921131 0
M  V30 32042 H 2948.01 -3.80283 -0.128404 0
M  V30 32043 H 2947.53 -3.50262 1.67147 0
M  V30 32044 H 2945.63 -3.6412 -0.790391 0
M  V30 32045 H 2945.74 -4.73264 0.74554 0
M  V30 32046 H 2944.1 -2.52921 0.300475 0
M  V30 32047 H 2944.89 -2.82901 1.94478 0
M  V30 32048 N 2947.33 -0.469207 -1.50453 0
M  V30 32049 C 2948.56 0.0864528 -2.0722 0
M  V30 32050 C 2948.98 1.32913 -1.331 0
M  V30 32051 O 2948.34 1.77313 -0.378115 0
M  V30 32052 C 2948.39 0.355321 -3.58845 0
M  V30 32053 O 2947.49 1.43615 -3.86586 0
M  V30 32054 H 2946.83 -0.0121531 -0.663889 0
M  V30 32055 H 2949.36 -0.659708 -1.93672 0
M  V30 32056 H 2949.37 0.596376 -4.03618 0
M  V30 32057 H 2948.05 -0.55277 -4.1221 0
M  V30 32058 H 2946.62 1.18256 -3.53652 0
M  V30 32059 N 2948.81 1.56303 -0.201741 0
M  V30 32060 C 2950.09 1.89537 0.48324 0
M  V30 32061 C 2950.47 1.11624 1.79174 0
M  V30 32062 O 2949.81 0.219379 2.27444 0
M  V30 32063 C 2950.02 3.41999 0.695544 0
M  V30 32064 C 2951.37 4.12365 1.01192 0
M  V30 32065 O 2952.4 3.47487 0.783033 0
M  V30 32066 O 2951.26 5.27043 1.44525 0
M  V30 32067 H 2948.35 0.787418 0.252787 0
M  V30 32068 H 2950.9 1.67959 -0.24245 0
M  V30 32069 H 2949.67 3.90634 -0.228234 0
M  V30 32070 H 2949.29 3.6929 1.47345 0
M  V30 32071 N 2950.29 -0.0718147 1.57436 0
M  V30 32072 C 2951.7 -0.623647 1.75976 0
M  V30 32073 C 2952.05 -1.7791 0.827186 0
M  V30 32074 O 2951.17 -2.16397 0.0112805 0
M  V30 32075 C 2951.77 -1.1381 3.19112 0
M  V30 32076 C 2950.33 -1.6358 3.38996 0
M  V30 32077 C 2949.48 -0.555213 2.71685 0
M  V30 32078 H 2952.43 0.154356 1.57948 0
M  V30 32079 H 2952.45 -2.00691 3.2327 0
M  V30 32080 H 2951.96 -0.29693 3.86962 0
M  V30 32081 H 2950.06 -2.50022 2.7626 0
M  V30 32082 H 2950.17 -1.71276 4.47439 0
M  V30 32083 H 2948.54 -1.00025 2.34237 0
M  V30 32084 H 2949.32 0.275772 3.42191 0
M  V30 32085 N 2951.77 -1.53818 -0.343203 0
M  V30 32086 C 2952.71 -1.8183 -1.4215 0
M  V30 32087 C 2953.68 -0.664023 -1.5225 0
M  V30 32088 O 2954.87 -0.908491 -1.67783 0
M  V30 32089 C 2952.01 -2.03389 -2.78796 0
M  V30 32090 C 2951.12 -3.31099 -2.77484 0
M  V30 32091 C 2950.26 -3.42724 -4.0585 0
M  V30 32092 C 2949.29 -4.64382 -3.98768 0
M  V30 32093 N 2948.43 -4.73038 -5.18825 0
M  V30 32094 H 2953.27 -2.73831 -1.17562 0
M  V30 32095 H 2950.81 -1.35629 -0.569482 0
M  V30 32096 H 2952.77 -2.13878 -3.58207 0
M  V30 32097 H 2951.4 -1.14701 -3.01734 0
M  V30 32098 H 2950.45 -3.2945 -1.90176 0
M  V30 32099 H 2951.76 -4.20605 -2.68129 0
M  V30 32100 H 2950.91 -3.52647 -4.93685 0
M  V30 32101 H 2949.65 -2.51275 -4.17986 0
M  V30 32102 H 2948.66 -4.54536 -3.09317 0
M  V30 32103 H 2949.88 -5.57195 -3.88214 0
M  V30 32104 H 2947.83 -3.84499 -5.31504 0
M  V30 32105 H 2947.75 -5.56481 -5.11728 0
M  V30 32106 H 2949.01 -4.87271 -6.0843 0
M  V30 32107 N 2953.24 0.604233 -1.45557 0
M  V30 32108 C 2954.49 1.35925 -1.49021 0
M  V30 32109 C 2954.81 1.95117 -0.137443 0
M  V30 32110 O 2956.01 2.71454 -0.0497509 0
M  V30 32111 C 2954.47 2.46234 -2.62482 0
M  V30 32112 C 2954.08 1.9344 -4.04085 0
M  V30 32113 C 2955.82 3.23215 -2.75196 0
M  V30 32114 C 2953.73 3.01251 -5.08922 0
M  V30 32115 H 2952.66 0.510897 -0.554527 0
M  V30 32116 H 2955.31 0.647232 -1.71707 0
M  V30 32117 H 2953.69 3.20136 -2.33085 0
M  V30 32118 H 2954.86 1.26224 -4.43175 0
M  V30 32119 H 2953.18 1.29194 -3.95851 0
M  V30 32120 H 2955.78 4.03634 -3.5069 0
M  V30 32121 H 2956.12 3.74434 -1.81947 0
M  V30 32122 H 2956.65 2.56413 -3.04134 0
M  V30 32123 H 2953.39 2.54944 -6.0389 0
M  V30 32124 H 2952.91 3.67022 -4.74399 0
M  V30 32125 H 2954.59 3.65575 -5.3382 0
M  V30 32126 N 2954.72 1.32903 0.847027 0
M  V30 32127 C 2955.65 1.25095 1.97164 0
M  V30 32128 C 2956.63 0.133191 1.69578 0
M  V30 32129 O 2957.82 0.321625 1.91518 0
M  V30 32130 C 2954.95 0.981064 3.33155 0
M  V30 32131 C 2953.9 2.06088 3.75116 0
M  V30 32132 C 2953.23 1.64327 5.08823 0
M  V30 32133 C 2954.53 3.47676 3.89768 0
M  V30 32134 H 2956.22 2.19187 2.03954 0
M  V30 32135 H 2953.77 1.05519 0.979888 0
M  V30 32136 H 2955.72 0.912964 4.11391 0
M  V30 32137 H 2954.44 0.00451299 3.266 0
M  V30 32138 H 2953.1 2.11927 2.99137 0
M  V30 32139 H 2952.75 0.653964 4.98731 0
M  V30 32140 H 2952.45 2.36582 5.37869 0
M  V30 32141 H 2953.98 1.58968 5.89543 0
M  V30 32142 H 2955.39 3.44384 4.58337 0
M  V30 32143 H 2953.79 4.18346 4.30241 0
M  V30 32144 H 2954.86 3.86778 2.92456 0
M  V30 32145 N 2956.2 -1.06426 1.16238 0
M  V30 32146 C 2957.62 -1.31322 0.907007 0
M  V30 32147 C 2957.82 -1.96619 -0.440837 0
M  V30 32148 O 2956.87 -2.23196 -1.18066 0
M  V30 32149 C 2958.18 -2.19518 2.05505 0
M  V30 32150 C 2959.73 -2.32939 2.09065 0
M  V30 32151 C 2960.21 -3.24489 3.2322 0
M  V30 32152 N 2961.7 -3.32072 3.22928 0
M  V30 32153 C 2962.43 -4.02999 4.07897 0
M  V30 32154 N 2961.93 -4.7646 5.02949 0
M  V30 32155 N 2963.72 -3.99036 3.95888 0
M  V30 32156 H 2955.87 -0.624353 2.03016 0
M  V30 32157 H 2958.14 -0.33782 0.885766 0
M  V30 32158 H 2957.84 -1.78814 3.0285 0
M  V30 32159 H 2957.72 -3.20097 1.99544 0
M  V30 32160 H 2960.1 -2.72891 1.12313 0
M  V30 32161 H 2960.18 -1.32033 2.19091 0
M  V30 32162 H 2959.83 -2.85253 4.2023 0
M  V30 32163 H 2959.76 -4.25371 3.1043 0
M  V30 32164 H 2962.25 -2.79719 2.54098 0
M  V30 32165 H 2962.56 -5.28102 5.64205 0
M  V30 32166 H 2960.91 -4.75444 5.0693 0
M  V30 32167 H 2964.1 -3.40763 3.20933 0
M  V30 32168 H 2964.27 -4.54044 4.62329 0
M  V30 32169 N 2957.68 -0.960653 -1.24937 0
M  V30 32170 C 2958.63 -0.456305 -2.23387 0
M  V30 32171 C 2959.61 0.457792 -1.5425 0
M  V30 32172 O 2960.8 0.289863 -1.7461 0
M  V30 32173 C 2957.93 0.258964 -3.42322 0
M  V30 32174 C 2957.02 -0.673552 -4.18717 0
M  V30 32175 N 2957.41 -1.80779 -4.7239 0
M  V30 32176 C 2955.71 -0.482937 -4.43378 0
M  V30 32177 C 2956.41 -2.39049 -5.30312 0
M  V30 32178 N 2955.39 -1.67638 -5.17106 0
M  V30 32179 H 2959.19 -1.32184 -2.62497 0
M  V30 32180 H 2956.7 -0.818876 -1.40243 0
M  V30 32181 H 2958.7 0.637454 -4.11998 0
M  V30 32182 H 2957.36 1.12103 -3.04734 0
M  V30 32183 H 2958.37 -2.1895 -4.69341 0
M  V30 32184 H 2955.05 0.335748 -4.16148 0
M  V30 32185 H 2956.44 -3.34725 -5.82588 0
M  V30 32186 N 2959.16 1.39677 -0.729931 0
M  V30 32187 C 2960.4 2.00615 -0.275657 0
M  V30 32188 C 2960.73 1.57909 1.13557 0
M  V30 32189 O 2959.99 0.79682 1.78744 0
M  V30 32190 C 2960.29 3.55968 -0.319627 0
M  V30 32191 C 2959.95 4.18307 -1.68316 0
M  V30 32192 C 2958.61 4.35048 -2.05637 0
M  V30 32193 C 2960.97 4.5294 -2.57865 0
M  V30 32194 C 2958.29 4.8371 -3.32026 0
M  V30 32195 C 2960.65 5.03008 -3.83621 0
M  V30 32196 C 2959.31 5.17957 -4.21042 0
M  V30 32197 H 2958.58 0.734102 -0.10087 0
M  V30 32198 H 2961.23 1.67079 -0.93578 0
M  V30 32199 H 2959.53 3.89498 0.424072 0
M  V30 32200 H 2961.23 4.00969 0.04992 0
M  V30 32201 H 2957.82 4.05675 -1.38297 0
M  V30 32202 H 2962 4.3963 -2.30303 0
M  V30 32203 H 2957.26 4.93469 -3.60969 0
M  V30 32204 H 2961.43 5.28781 -4.53171 0
M  V30 32205 H 2959.06 5.55426 -5.19044 0
M  V30 32206 N 2960.63 0.47718 1.50202 0
M  V30 32207 C 2961.58 -0.327785 2.30279 0
M  V30 32208 C 2962.58 -0.984815 1.37832 0
M  V30 32209 O 2963.78 -0.915224 1.54996 0
M  V30 32210 H 2960.16 -0.124551 0.741614 0
M  V30 32211 H 2962.13 0.367905 2.96123 0
M  V30 32212 C 2960.88 -1.39359 3.1855 0
M  V30 32213 H 2960.2 -0.897407 3.89598 0
M  V30 32214 H 2961.64 -1.92928 3.77564 0
M  V30 32215 C 2960.1 -2.39885 2.36552 0
M  V30 32216 O 2960.63 -3.45282 2.05288 0
M  V30 32217 N 2958.84 -2.11754 1.99019 0
M  V30 32218 H 2958.38 -1.26067 2.24644 0
M  V30 32219 H 2958.34 -2.79247 1.44459 0
M  V30 32220 N 2962.11 -1.56194 0.210027 0
M  V30 32221 C 2963.36 -1.9717 -0.425072 0
M  V30 32222 C 2963.67 -1.10034 -1.61716 0
M  V30 32223 O 2964.88 -1.40857 -2.32102 0
M  V30 32224 C 2963.34 -3.50721 -0.807648 0
M  V30 32225 C 2962.94 -4.46543 0.36098 0
M  V30 32226 C 2964.69 -4.00434 -1.40899 0
M  V30 32227 C 2962.6 -5.91384 -0.043388 0
M  V30 32228 H 2961.53 -0.736262 -0.162585 0
M  V30 32229 H 2964.18 -1.80957 0.304414 0
M  V30 32230 H 2962.56 -3.62492 -1.59423 0
M  V30 32231 H 2963.73 -4.46513 1.13853 0
M  V30 32232 H 2962.05 -4.07107 0.8748 0
M  V30 32233 H 2964.64 -5.06136 -1.72424 0
M  V30 32234 H 2964.99 -3.45611 -2.32075 0
M  V30 32235 H 2965.52 -3.91839 -0.686085 0
M  V30 32236 H 2962.26 -6.50166 0.834563 0
M  V30 32237 H 2961.78 -5.94634 -0.785494 0
M  V30 32238 H 2963.46 -6.45261 -0.474062 0
M  V30 32239 N 2963.59 0.0634645 -1.57472 0
M  V30 32240 C 2964.83 0.766279 -1.89493 0
M  V30 32241 C 2965.19 1.74319 -0.804781 0
M  V30 32242 O 2966.4 2.49172 -1.0083 0
M  V30 32243 C 2964.67 1.44845 -3.26733 0
M  V30 32244 S 2966.23 2.18518 -3.8052 0
M  V30 32245 H 2963.04 0.254641 -0.663837 0
M  V30 32246 H 2965.65 0.0220524 -1.95488 0
M  V30 32247 H 2964.35 0.723753 -4.03968 0
M  V30 32248 H 2963.88 2.23194 -3.23957 0
M  V30 32249 H 2965.9 3.45166 -3.56476 0
M  V30 32250 N 2965.07 1.53998 0.33504 0
M  V30 32251 C 2966.31 1.73372 1.08267 0
M  V30 32252 C 2966.67 0.490945 1.85617 0
M  V30 32253 O 2967.87 0.561845 2.62863 0
M  V30 32254 C 2966.14 2.96735 1.99207 0
M  V30 32255 S 2967.7 3.36959 2.81077 0
M  V30 32256 H 2964.52 0.609749 0.365687 0
M  V30 32257 H 2967.12 1.92156 0.360046 0
M  V30 32258 H 2965.83 3.85346 1.41197 0
M  V30 32259 H 2965.36 2.8044 2.75893 0
M  V30 32260 H 2967.37 2.91359 4.01652 0
M  V30 32261 N 2966.55 -0.596505 1.45875 0
M  V30 32262 C 2967.77 -1.38643 1.54249 0
M  V30 32263 C 2968.2 -1.87241 0.179604 0
M  V30 32264 O 2967.55 -1.60781 -0.837803 0
M  V30 32265 C 2967.6 -2.55942 2.5402 0
M  V30 32266 O 2966.71 -3.56936 2.06568 0
M  V30 32267 H 2966.05 -0.413462 0.519563 0
M  V30 32268 H 2968.58 -0.724902 1.91328 0
M  V30 32269 H 2968.59 -3.03042 2.73184 0
M  V30 32270 H 2967.26 -2.19921 3.52998 0
M  V30 32271 H 2965.84 -3.1641 1.9733 0
M  V30 32272 N 2968.02 -1.3335 -0.839967 0
M  V30 32273 C 2969.25 -1.27781 -1.62726 0
M  V30 32274 C 2969.67 0.151472 -1.88191 0
M  V30 32275 O 2969.02 1.09327 -1.4613 0
M  V30 32276 C 2969.08 -2.04919 -2.9781 0
M  V30 32277 O 2968.8 -3.42271 -2.73463 0
M  V30 32278 C 2970.3 -2.06547 -3.92241 0
M  V30 32279 H 2967.52 -0.440266 -0.506366 0
M  V30 32280 H 2970.06 -1.75704 -1.04634 0
M  V30 32281 H 2968.22 -1.6068 -3.52506 0
M  V30 32282 H 2968.63 -3.81938 -3.59476 0
M  V30 32283 H 2970.1 -2.64975 -4.84244 0
M  V30 32284 H 2970.58 -1.05544 -4.2633 0
M  V30 32285 H 2971.19 -2.50799 -3.43482 0
M  V30 32286 N 2969.5 1.05808 -1.16801 0
M  V30 32287 C 2970.44 2.12861 -0.822528 0
M  V30 32288 C 2971.41 1.61264 0.207977 0
M  V30 32289 O 2972.6 1.88281 0.0909321 0
M  V30 32290 C 2969.72 3.37946 -0.225885 0
M  V30 32291 C 2968.77 4.08355 -1.23079 0
M  V30 32292 S 2969.6 4.57715 -2.77952 0
M  V30 32293 C 2970.76 5.86055 -2.19751 0
M  V30 32294 H 2970.99 2.41838 -1.72921 0
M  V30 32295 H 2968.53 1.18316 -0.992002 0
M  V30 32296 H 2970.48 4.10348 0.111883 0
M  V30 32297 H 2969.14 3.07117 0.658638 0
M  V30 32298 H 2968.34 4.98209 -0.761845 0
M  V30 32299 H 2967.94 3.4199 -1.51389 0
M  V30 32300 H 2970.23 6.59076 -1.56922 0
M  V30 32301 H 2971.17 6.37686 -3.07834 0
M  V30 32302 H 2971.58 5.40321 -1.63443 0
M  V30 32303 N 2970.98 0.967265 1.24426 0
M  V30 32304 C 2971.91 0.441722 2.23884 0
M  V30 32305 C 2972.89 -0.483936 1.55232 0
M  V30 32306 O 2974.08 -0.415413 1.83866 0
M  V30 32307 C 2971.2 -0.362399 3.36756 0
M  V30 32308 C 2970.25 0.505481 4.23494 0
M  V30 32309 S 2971.08 1.94542 4.98912 0
M  V30 32310 C 2972.24 1.15008 6.15243 0
M  V30 32311 H 2972.47 1.28457 2.68116 0
M  V30 32312 H 2970 0.772266 1.33699 0
M  V30 32313 H 2971.96 -0.820374 4.02219 0
M  V30 32314 H 2970.62 -1.18022 2.91084 0
M  V30 32315 H 2969.82 -0.11189 5.03876 0
M  V30 32316 H 2969.42 0.899168 3.6303 0
M  V30 32317 H 2971.71 0.404888 6.76289 0
M  V30 32318 H 2972.65 1.92826 6.8134 0
M  V30 32319 H 2973.06 0.674642 5.60454 0
M  V30 32320 N 2972.46 -1.39288 0.737328 0
M  V30 32321 C 2973.69 -2.04466 0.296178 0
M  V30 32322 C 2974.1 -1.55709 -1.07477 0
M  V30 32323 O 2973.44 -0.718153 -1.69081 0
M  V30 32324 C 2973.5 -3.58813 0.222224 0
M  V30 32325 C 2973.17 -4.30556 1.53202 0
M  V30 32326 C 2974.16 -4.57037 2.47817 0
M  V30 32327 C 2971.85 -4.69057 1.79696 0
M  V30 32328 C 2973.84 -5.21032 3.67157 0
M  V30 32329 C 2971.53 -5.3278 2.99313 0
M  V30 32330 C 2972.53 -5.58701 3.92865 0
M  V30 32331 O 2972.22 -6.21101 5.10381 0
M  V30 32332 H 2971.95 -0.663981 0.126908 0
M  V30 32333 H 2974.5 -1.79276 1.00245 0
M  V30 32334 H 2972.73 -3.82909 -0.540172 0
M  V30 32335 H 2974.42 -4.05468 -0.18724 0
M  V30 32336 H 2975.19 -4.27736 2.28619 0
M  V30 32337 H 2971.07 -4.48237 1.07723 0
M  V30 32338 H 2974.61 -5.41181 4.40192 0
M  V30 32339 H 2970.51 -5.61502 3.18411 0
M  V30 32340 H 2971.27 -6.39594 5.10746 0
M  V30 32341 N 2973.94 -0.485139 -1.49947 0
M  V30 32342 C 2974.87 0.291323 -2.31676 0
M  V30 32343 C 2975.85 0.977359 -1.39218 0
M  V30 32344 O 2977.03 0.971825 -1.68134 0
M  V30 32345 C 2974.16 1.36552 -3.19329 0
M  V30 32346 C 2973.12 0.800285 -4.20451 0
M  V30 32347 C 2972.44 1.97382 -4.96935 0
M  V30 32348 C 2973.74 -0.197959 -5.21925 0
M  V30 32349 H 2975.44 -0.390827 -2.96838 0
M  V30 32350 H 2972.98 -0.189401 -1.42749 0
M  V30 32351 H 2974.94 1.91631 -3.75307 0
M  V30 32352 H 2973.66 2.07664 -2.52078 0
M  V30 32353 H 2972.32 0.271364 -3.65594 0
M  V30 32354 H 2971.97 2.67225 -4.26145 0
M  V30 32355 H 2971.67 1.60177 -5.65347 0
M  V30 32356 H 2973.19 2.52925 -5.55753 0
M  V30 32357 H 2974.61 0.264138 -5.72691 0
M  V30 32358 H 2973 -0.485014 -5.98137 0
M  V30 32359 H 2974.07 -1.1192 -4.71807 0
M  V30 32360 N 2975.42 1.56081 -0.218307 0
M  V30 32361 C 2976.64 2.03056 0.422266 0
M  V30 32362 C 2977.07 1.09715 1.52788 0
M  V30 32363 O 2976.42 0.0847505 1.81102 0
M  V30 32364 C 2976.47 3.48291 0.934116 0
M  V30 32365 O 2975.58 3.58087 2.04567 0
M  V30 32366 H 2974.92 0.657029 0.0959648 0
M  V30 32367 H 2977.45 2.01822 -0.335993 0
M  V30 32368 H 2977.46 3.88548 1.24477 0
M  V30 32369 H 2976.13 4.15712 0.12489 0
M  V30 32370 H 2974.71 3.29715 1.7419 0
M  V30 32371 N 2976.89 -0.0551124 1.57504 0
M  V30 32372 C 2978.12 -0.763546 1.92296 0
M  V30 32373 C 2978.54 -1.70265 0.815804 0
M  V30 32374 O 2977.89 -1.81291 -0.20974 0
M  V30 32375 C 2977.94 -1.54297 3.26917 0
M  V30 32376 O 2977.67 -0.64159 4.33377 0
M  V30 32377 C 2979.17 -2.3509 3.75829 0
M  V30 32378 H 2976.39 -0.216148 0.635233 0
M  V30 32379 H 2978.93 -0.0204025 2.0449 0
M  V30 32380 H 2977.09 -2.23823 3.162 0
M  V30 32381 H 2977.5 -1.18541 5.10929 0
M  V30 32382 H 2978.97 -2.85211 4.72608 0
M  V30 32383 H 2979.45 -3.15362 3.05686 0
M  V30 32384 H 2980.06 -1.70689 3.89545 0
M  V30 32385 N 2978.37 -1.54173 -0.326869 0
M  V30 32386 C 2979.33 -1.82612 -1.38512 0
M  V30 32387 C 2980.33 -0.697796 -1.4487 0
M  V30 32388 O 2981.52 -0.966104 -1.44955 0
M  V30 32389 C 2978.66 -1.98318 -2.77278 0
M  V30 32390 H 2979.85 -2.77161 -1.14551 0
M  V30 32391 H 2977.4 -1.4584 -0.562174 0
M  V30 32392 H 2978.14 -1.05969 -3.06498 0
M  V30 32393 H 2977.92 -2.8042 -2.74056 0
M  V30 32394 H 2979.41 -2.21779 -3.53841 0
M  V30 32395 N 2979.85 0.58876 -1.4619 0
M  V30 32396 C 2980.78 1.7086 -1.59151 0
M  V30 32397 C 2981.76 1.64254 -0.442112 0
M  V30 32398 O 2982.95 1.82364 -0.667608 0
M  V30 32399 C 2980.08 3.09495 -1.57576 0
M  V30 32400 C 2979.03 3.30928 -2.71424 0
M  V30 32401 C 2978.36 4.70028 -2.54908 0
M  V30 32402 C 2979.66 3.19349 -4.13296 0
M  V30 32403 H 2981.35 1.60269 -2.52892 0
M  V30 32404 H 2978.9 0.769617 -1.21708 0
M  V30 32405 H 2980.85 3.87652 -1.65238 0
M  V30 32406 H 2979.57 3.20971 -0.603761 0
M  V30 32407 H 2978.23 2.55167 -2.63221 0
M  V30 32408 H 2977.88 4.78261 -1.55805 0
M  V30 32409 H 2977.58 4.85321 -3.31266 0
M  V30 32410 H 2979.1 5.50361 -2.64452 0
M  V30 32411 H 2980.52 3.87358 -4.22643 0
M  V30 32412 H 2978.91 3.46166 -4.90193 0
M  V30 32413 H 2979.98 2.16514 -4.33877 0
M  V30 32414 N 2981.33 1.33794 0.832883 0
M  V30 32415 C 2982.58 1.25341 1.58537 0
M  V30 32416 C 2982.9 -0.17917 1.94175 0
M  V30 32417 O 2982.17 -1.10938 1.6146 0
M  V30 32418 H 2980.75 0.460936 0.587832 0
M  V30 32419 H 2983.41 1.67586 0.995035 0
M  V30 32420 H 2982.5 1.85128 2.51265 0
M  V30 32421 N 2982.81 -1.05187 1.1736 0
M  V30 32422 C 2984.08 -1.7509 0.871944 0
M  V30 32423 C 2984.46 -2.01549 -0.627785 0
M  V30 32424 O 2983.81 -1.65159 -1.57907 0
M  V30 32425 C 2984.02 -3.0441 1.70692 0
M  V30 32426 C 2985.37 -3.78359 1.92691 0
M  V30 32427 O 2986.39 -3.14279 1.67651 0
M  V30 32428 O 2985.25 -4.93501 2.34774 0
M  V30 32429 H 2982.35 -0.761381 0.322845 0
M  V30 32430 H 2984.89 -1.11355 1.28056 0
M  V30 32431 H 2983.66 -2.80906 2.7241 0
M  V30 32432 H 2983.29 -3.75882 1.29608 0
M  V30 32433 N 2984.28 -0.97385 -1.23911 0
M  V30 32434 C 2985.53 -0.64006 -1.92435 0
M  V30 32435 C 2985.86 0.823481 -1.75876 0
M  V30 32436 O 2985.14 1.59321 -1.11566 0
M  V30 32437 C 2985.42 -1.02316 -3.45259 0
M  V30 32438 C 2985.27 -2.54385 -3.70956 0
M  V30 32439 C 2986.59 -0.562232 -4.36494 0
M  V30 32440 H 2983.71 -0.234004 -0.698864 0
M  V30 32441 H 2986.35 -1.21396 -1.46161 0
M  V30 32442 H 2984.5 -0.534819 -3.84801 0
M  V30 32443 H 2986.18 -3.10743 -3.40935 0
M  V30 32444 H 2984.42 -2.9731 -3.15894 0
M  V30 32445 H 2985.09 -2.7624 -4.77907 0
M  V30 32446 H 2987.57 -0.981404 -4.04361 0
M  V30 32447 H 2986.44 -0.858785 -5.4214 0
M  V30 32448 H 2986.7 0.537582 -4.38819 0
M  V30 32449 N 2985.76 1.38895 -0.744705 0
M  V30 32450 C 2987.17 1.83083 -0.365713 0
M  V30 32451 C 2987.52 1.62169 1.10433 0
M  V30 32452 O 2986.65 1.11807 1.85279 0
M  V30 32453 C 2987.24 3.32369 -0.657004 0
M  V30 32454 C 2985.8 3.74938 -0.331395 0
M  V30 32455 C 2984.95 2.61779 -0.914707 0
M  V30 32456 H 2987.9 1.2775 -0.941574 0
M  V30 32457 H 2987.92 3.80439 0.0678878 0
M  V30 32458 H 2987.43 3.47558 -1.72699 0
M  V30 32459 H 2985.53 3.65332 0.732362 0
M  V30 32460 H 2985.65 4.72018 -0.820738 0
M  V30 32461 H 2984.01 2.52411 -0.340675 0
M  V30 32462 H 2984.79 2.79772 -1.98954 0
M  V30 32463 N 2987.24 0.493084 1.49688 0
M  V30 32464 C 2988.47 -0.053475 2.07331 0
M  V30 32465 C 2988.89 -1.30779 1.35198 0
M  V30 32466 O 2988.25 -1.76689 0.406277 0
M  V30 32467 C 2988.3 -0.298187 3.59365 0
M  V30 32468 O 2987.4 -1.37447 3.88821 0
M  V30 32469 H 2986.74 0.0227134 0.663611 0
M  V30 32470 H 2989.27 0.690436 1.92598 0
M  V30 32471 H 2989.28 -0.532088 4.04516 0
M  V30 32472 H 2987.96 0.618279 4.11279 0
M  V30 32473 H 2986.53 -1.12615 3.55489 0
M  V30 32474 N 2988.72 -1.55963 0.226582 0
M  V30 32475 C 2989.97 -1.98434 -0.403754 0
M  V30 32476 C 2990.29 -1.11433 -1.59414 0
M  V30 32477 O 2989.55 -0.160424 -1.95041 0
M  V30 32478 C 2989.85 -3.46489 -0.876359 0
M  V30 32479 C 2989.51 -4.50438 0.204053 0
M  V30 32480 C 2988.18 -4.78587 0.500838 0
M  V30 32481 C 2990.53 -5.12754 0.934487 0
M  V30 32482 C 2987.86 -5.66332 1.53249 0
M  V30 32483 C 2990.21 -6.01617 1.95551 0
M  V30 32484 C 2988.87 -6.28107 2.25916 0
M  V30 32485 H 2988.14 -0.726122 -0.147744 0
M  V30 32486 H 2990.79 -1.88633 0.330154 0
M  V30 32487 H 2989.09 -3.5352 -1.68912 0
M  V30 32488 H 2990.79 -3.76726 -1.374 0
M  V30 32489 H 2987.38 -4.28584 -0.0374164 0
M  V30 32490 H 2991.56 -4.91072 0.718442 0
M  V30 32491 H 2986.82 -5.85118 1.77331 0
M  V30 32492 H 2990.99 -6.48952 2.52653 0
M  V30 32493 H 2988.62 -6.95895 3.05997 0
M  V30 32494 N 2990.2 0.0467589 -1.57531 0
M  V30 32495 C 2991.16 1.03735 -2.04381 0
M  V30 32496 C 2992.16 1.30108 -0.944904 0
M  V30 32497 O 2993.35 1.25408 -1.20906 0
M  V30 32498 C 2990.48 2.37477 -2.44576 0
M  V30 32499 H 2991.67 0.633011 -2.93143 0
M  V30 32500 H 2989.23 0.29315 -1.53526 0
M  V30 32501 H 2989.96 2.82694 -1.58916 0
M  V30 32502 H 2989.75 2.1967 -3.24789 0
M  V30 32503 H 2991.24 3.08631 -2.81312 0
M  V30 32504 N 2991.67 1.54344 0.318688 0
M  V30 32505 C 2993.09 1.45163 0.663319 0
M  V30 32506 C 2993.29 0.628453 1.91449 0
M  V30 32507 O 2992.35 0.12917 2.52169 0
M  V30 32508 C 2993.66 2.88938 0.832785 0
M  V30 32509 C 2995.21 2.9887 0.929813 0
M  V30 32510 C 2995.68 4.43805 1.13141 0
M  V30 32511 N 2997.17 4.47439 1.19804 0
M  V30 32512 C 2997.91 5.56744 1.37199 0
M  V30 32513 N 2997.4 6.76008 1.51607 0
M  V30 32514 N 2999.2 5.444 1.39946 0
M  V30 32515 H 2991.35 2.06343 -0.503607 0
M  V30 32516 H 2993.61 0.933786 -0.163544 0
M  V30 32517 H 2993.32 3.51697 -0.0154137 0
M  V30 32518 H 2993.19 3.35335 1.72715 0
M  V30 32519 H 2995.58 2.36236 1.76851 0
M  V30 32520 H 2995.66 2.55797 0.0118112 0
M  V30 32521 H 2995.3 5.07028 0.297547 0
M  V30 32522 H 2995.23 4.84492 2.06336 0
M  V30 32523 H 2997.72 3.61508 1.10094 0
M  V30 32524 H 2998.04 7.5507 1.64586 0
M  V30 32525 H 2996.38 6.78907 1.48696 0
M  V30 32526 H 2999.57 4.50177 1.2829 0
M  V30 32527 H 2999.75 6.29639 1.53161 0
M  V30 32528 N 2993.15 -0.580999 1.465 0
M  V30 32529 C 2994.08 -1.70014 1.60055 0
M  V30 32530 C 2995.06 -1.64017 0.450816 0
M  V30 32531 O 2996.25 -1.82007 0.677269 0
M  V30 32532 C 2993.38 -3.08655 1.59215 0
M  V30 32533 C 2992.33 -3.29483 2.73175 0
M  V30 32534 C 2991.66 -4.68669 2.57397 0
M  V30 32535 C 2992.96 -3.17153 4.14984 0
M  V30 32536 H 2994.65 -1.58926 2.53738 0
M  V30 32537 H 2992.2 -0.763152 1.22115 0
M  V30 32538 H 2994.15 -3.86771 1.67292 0
M  V30 32539 H 2992.88 -3.20646 0.620775 0
M  V30 32540 H 2991.53 -2.53768 2.6457 0
M  V30 32541 H 2991.18 -4.77428 1.58339 0
M  V30 32542 H 2990.88 -4.83558 3.33835 0
M  V30 32543 H 2992.41 -5.48951 2.67367 0
M  V30 32544 H 2993.82 -3.85111 4.24691 0
M  V30 32545 H 2992.22 -3.43562 4.92022 0
M  V30 32546 H 2993.29 -2.1421 4.3502 0
M  V30 32547 N 2994.63 -1.34234 -0.825776 0
M  V30 32548 C 2995.58 -1.22131 -1.92531 0
M  V30 32549 C 2996.56 -0.12103 -1.60444 0
M  V30 32550 O 2997.76 -0.350416 -1.73497 0
M  V30 32551 C 2994.89 -0.976053 -3.29132 0
M  V30 32552 C 2993.97 -2.11937 -3.67346 0
M  V30 32553 N 2994.36 -3.37036 -3.77148 0
M  V30 32554 C 2992.66 -2.02898 -3.97176 0
M  V30 32555 C 2993.36 -4.12102 -4.10544 0
M  V30 32556 N 2992.34 -3.40666 -4.23613 0
M  V30 32557 H 2996.14 -2.16936 -1.98283 0
M  V30 32558 H 2993.65 -1.2643 -1.01927 0
M  V30 32559 H 2995.65 -0.870258 -4.07716 0
M  V30 32560 H 2994.31 -0.0366631 -3.24679 0
M  V30 32561 H 2995.32 -3.71624 -3.60716 0
M  V30 32562 H 2992 -1.16699 -4.00859 0
M  V30 32563 H 2993.39 -5.20118 -4.25356 0
M  V30 32564 N 2996.11 1.04563 -1.17917 0
M  V30 32565 C 2997.39 1.74625 -0.881218 0
M  V30 32566 C 2997.77 2.01879 0.617088 0
M  V30 32567 O 2997.11 1.65994 1.57029 0
M  V30 32568 C 2997.32 3.035 -1.72304 0
M  V30 32569 C 2998.67 3.77332 -1.94695 0
M  V30 32570 O 2999.7 3.13386 -1.69315 0
M  V30 32571 O 2998.55 4.92249 -2.37388 0
M  V30 32572 H 2995.65 0.759658 -0.326878 0
M  V30 32573 H 2998.19 1.10674 -1.28644 0
M  V30 32574 H 2996.97 2.79458 -2.73896 0
M  V30 32575 H 2996.59 3.7519 -1.316 0
M  V30 32576 N 2997.59 0.980408 1.23393 0
M  V30 32577 C 2998.52 0.540064 2.27169 0
M  V30 32578 C 2999.5 -0.426758 1.6466 0
M  V30 32579 O 3000.68 -0.320119 1.91543 0
M  V30 32580 C 2997.81 -0.158299 3.46939 0
M  V30 32581 C 2996.77 0.725806 4.21801 0
M  V30 32582 C 2996.09 -0.104772 5.34597 0
M  V30 32583 C 2997.39 2.01662 4.81798 0
M  V30 32584 H 2999.09 1.40748 2.64254 0
M  V30 32585 H 2996.63 0.678215 1.27029 0
M  V30 32586 H 2998.59 -0.477664 4.18684 0
M  V30 32587 H 2997.31 -1.06017 3.08914 0
M  V30 32588 H 2995.97 1.02863 3.51873 0
M  V30 32589 H 2995.62 -1.00717 4.92813 0
M  V30 32590 H 2995.32 0.48366 5.85606 0
M  V30 32591 H 2996.84 -0.418517 6.09164 0
M  V30 32592 H 2998.25 1.76202 5.45551 0
M  V30 32593 H 2996.65 2.55283 5.43094 0
M  V30 32594 H 2997.72 2.70345 4.02544 0
M  V30 32595 N 2999.06 -1.38498 0.75206 0
M  V30 32596 C 3000.29 -2.0414 0.317848 0
M  V30 32597 C 3000.7 -1.5684 -1.05819 0
M  V30 32598 O 3000.05 -0.736046 -1.68309 0
M  V30 32599 C 3000.11 -3.58557 0.260268 0
M  V30 32600 C 2999.77 -4.28906 1.5776 0
M  V30 32601 C 3000.77 -4.54383 2.5265 0
M  V30 32602 C 2998.45 -4.67125 1.84661 0
M  V30 32603 C 3000.45 -5.17109 3.72662 0
M  V30 32604 C 2998.13 -5.29576 3.04947 0
M  V30 32605 C 2999.13 -5.54502 3.98768 0
M  V30 32606 O 2998.82 -6.15653 5.16939 0
M  V30 32607 H 2998.55 -0.662597 0.133943 0
M  V30 32608 H 3001.11 -1.78203 1.02141 0
M  V30 32609 H 2999.34 -3.8346 -0.499529 0
M  V30 32610 H 3001.03 -4.05644 -0.144224 0
M  V30 32611 H 3001.79 -4.25287 2.33143 0
M  V30 32612 H 2997.67 -4.4707 1.12472 0
M  V30 32613 H 3001.21 -5.36481 4.45908 0
M  V30 32614 H 2997.11 -5.58093 3.24348 0
M  V30 32615 H 2997.88 -6.34141 5.17501 0
M  V30 32616 N 3000.54 -0.501015 -1.49424 0
M  V30 32617 C 3001.49 0.291108 -2.30771 0
M  V30 32618 C 3002.48 0.962763 -1.39382 0
M  V30 32619 O 3003.69 0.89045 -1.56432 0
M  V30 32620 H 3000.07 0.112737 -0.743501 0
M  V30 32621 H 3002.04 -0.414969 -2.95501 0
M  V30 32622 C 3000.79 1.34274 -3.20727 0
M  V30 32623 H 3000.11 0.835311 -3.90976 0
M  V30 32624 H 3001.55 1.86897 -3.80586 0
M  V30 32625 C 3000.01 2.36091 -2.40339 0
M  V30 32626 O 3000.54 3.41972 -2.10755 0
M  V30 32627 N 2998.74 2.08561 -2.02362 0
M  V30 32628 H 2998.29 1.22478 -2.26621 0
M  V30 32629 H 2998.25 2.76914 -1.48883 0
M  V30 32630 N 3002.02 1.5584 -0.234849 0
M  V30 32631 C 3003.44 1.59146 0.120267 0
M  V30 32632 C 3003.64 1.25187 1.57894 0
M  V30 32633 O 3002.69 0.993434 2.32136 0
M  V30 32634 C 3004.01 2.99908 -0.218036 0
M  V30 32635 C 3005.55 3.12584 -0.161353 0
M  V30 32636 C 3006.03 4.55546 -0.473518 0
M  V30 32637 N 3007.52 4.61259 -0.423575 0
M  V30 32638 C 3008.26 5.69835 -0.638434 0
M  V30 32639 N 3007.75 6.86721 -0.915779 0
M  V30 32640 N 3009.54 5.59203 -0.569962 0
M  V30 32641 H 3001.7 1.76187 -1.18625 0
M  V30 32642 H 3003.96 0.819579 -0.47644 0
M  V30 32643 H 3003.66 3.29455 -1.23096 0
M  V30 32644 H 3003.54 3.74377 0.460641 0
M  V30 32645 H 3005.93 2.82826 0.842224 0
M  V30 32646 H 3006.01 2.40416 -0.873703 0
M  V30 32647 H 3005.65 4.86023 -1.47459 0
M  V30 32648 H 3005.58 5.25957 0.260175 0
M  V30 32649 H 3008.07 3.77274 -0.217449 0
M  V30 32650 H 3008.38 7.65392 -1.06747 0
M  V30 32651 H 3006.73 6.88433 -0.953121 0
M  V30 32652 H 3009.92 4.66764 -0.353422 0
M  V30 32653 H 3010.09 6.43751 -0.740811 0
M  V30 32654 N 3003.5 -0.038404 1.57553 0
M  V30 32655 C 3004.91 -0.58618 1.77259 0
M  V30 32656 C 3005.26 -1.76116 0.864737 0
M  V30 32657 O 3004.39 -2.16324 0.057179 0
M  V30 32658 C 3004.98 -1.07016 3.21455 0
M  V30 32659 C 3003.54 -1.56352 3.4239 0
M  V30 32660 C 3002.69 -0.49746 2.72801 0
M  V30 32661 H 3005.64 0.187824 1.57585 0
M  V30 32662 H 3005.66 -1.93788 3.27454 0
M  V30 32663 H 3005.17 -0.214783 3.87505 0
M  V30 32664 H 3003.27 -2.44106 2.81501 0
M  V30 32665 H 3003.39 -1.61746 4.50971 0
M  V30 32666 H 3001.75 -0.950339 2.36306 0
M  V30 32667 H 3002.53 0.348294 3.41529 0
M  V30 32668 N 3004.98 -1.54511 -0.310498 0
M  V30 32669 C 3006.23 -1.72551 -1.04447 0
M  V30 32670 C 3006.54 -0.513205 -1.88747 0
M  V30 32671 O 3007.75 -0.575212 -2.65337 0
M  V30 32672 C 3006.2 -3.05249 -1.9066 0
M  V30 32673 C 3005.81 -4.33927 -1.11407 0
M  V30 32674 C 3007.55 -3.32649 -2.63713 0
M  V30 32675 C 3005.46 -5.5768 -1.96842 0
M  V30 32676 H 3004.39 -0.643074 -0.393665 0
M  V30 32677 H 3007.04 -1.80998 -0.301972 0
M  V30 32678 H 3005.42 -2.90742 -2.68859 0
M  V30 32679 H 3006.6 -4.5924 -0.378875 0
M  V30 32680 H 3004.91 -4.1339 -0.49978 0
M  V30 32681 H 3007.51 -4.22306 -3.27966 0
M  V30 32682 H 3007.85 -2.51104 -3.32043 0
M  V30 32683 H 3008.39 -3.48084 -1.92568 0
M  V30 32684 H 3005.12 -6.41866 -1.32998 0
M  V30 32685 H 3004.64 -5.36567 -2.6806 0
M  V30 32686 H 3006.32 -5.94579 -2.55117 0
M  V30 32687 N 3006.46 0.573222 -1.46806 0
M  V30 32688 C 3007.68 1.35688 -1.56194 0
M  V30 32689 C 3008.1 1.87668 -0.206395 0
M  V30 32690 O 3007.46 1.64136 0.797855 0
M  V30 32691 C 3007.51 2.53787 -2.57438 0
M  V30 32692 O 3007.23 2.03958 -3.87728 0
M  V30 32693 C 3008.73 3.46215 -2.76857 0
M  V30 32694 H 3005.95 0.414183 -0.527914 0
M  V30 32695 H 3008.49 0.695956 -1.92293 0
M  V30 32696 H 3006.65 3.1585 -2.24316 0
M  V30 32697 H 3007.06 2.8094 -4.42914 0
M  V30 32698 H 3008.54 4.25539 -3.51598 0
M  V30 32699 H 3009.01 3.98752 -1.84103 0
M  V30 32700 H 3009.62 2.89981 -3.11113 0
M  V30 32701 N 3007.93 1.3467 0.818645 0
M  V30 32702 C 3009.16 1.30165 1.60439 0
M  V30 32703 C 3009.57 -0.125546 1.88783 0
M  V30 32704 O 3008.91 -1.08434 1.48282 0
M  V30 32705 C 3008.98 2.02869 2.9679 0
M  V30 32706 C 3008.64 3.5211 2.91321 0
M  V30 32707 C 3009.64 4.46935 2.65604 0
M  V30 32708 C 3007.32 3.94585 3.10818 0
M  V30 32709 C 3009.32 5.8221 2.59442 0
M  V30 32710 C 3007 5.29959 3.0428 0
M  V30 32711 C 3008 6.23584 2.78626 0
M  V30 32712 O 3007.69 7.56476 2.72029 0
M  V30 32713 H 3007.42 0.449086 0.50527 0
M  V30 32714 H 3009.98 1.77922 1.02629 0
M  V30 32715 H 3008.21 1.49731 3.56535 0
M  V30 32716 H 3009.89 1.91598 3.57834 0
M  V30 32717 H 3010.66 4.15439 2.50271 0
M  V30 32718 H 3006.54 3.22106 3.29801 0
M  V30 32719 H 3010.08 6.55258 2.39338 0
M  V30 32720 H 3005.98 5.61073 3.19167 0
M  V30 32721 H 3006.75 7.66262 2.87725 0
M  V30 32722 N 3009.41 -1.03936 1.1847 0
M  V30 32723 C 3010.64 -1.80545 1.00434 0
M  V30 32724 C 3011.05 -1.83761 -0.450374 0
M  V30 32725 O 3010.39 -1.27278 -1.32461 0
M  V30 32726 C 3010.45 -3.27422 1.48443 0
M  V30 32727 C 3010.12 -3.47864 2.96378 0
M  V30 32728 C 3011.12 -3.38946 3.94223 0
M  V30 32729 C 3008.8 -3.74418 3.34838 0
M  V30 32730 C 3010.79 -3.56289 5.28524 0
M  V30 32731 C 3008.48 -3.91408 4.69301 0
M  V30 32732 C 3009.48 -3.82344 5.65952 0
M  V30 32733 O 3009.17 -3.98845 6.97981 0
M  V30 32734 H 3008.9 -0.575368 0.354863 0
M  V30 32735 H 3011.45 -1.31873 1.57476 0
M  V30 32736 H 3009.68 -3.77069 0.857667 0
M  V30 32737 H 3011.37 -3.85593 1.26777 0
M  V30 32738 H 3012.14 -3.18394 3.65856 0
M  V30 32739 H 3008.02 -3.8057 2.60167 0
M  V30 32740 H 3011.56 -3.4913 6.03949 0
M  V30 32741 H 3007.46 -4.11455 4.97368 0
M  V30 32742 H 3008.23 -4.15998 7.04903 0
M  V30 32743 N 3010.89 -0.986938 -1.22871 0
M  V30 32744 C 3012.14 -0.659457 -1.91461 0
M  V30 32745 C 3012.46 0.807794 -1.76932 0
M  V30 32746 O 3011.72 1.59899 -1.12831 0
M  V30 32747 C 3012.02 -1.00385 -3.43012 0
M  V30 32748 C 3011.68 -2.46239 -3.77726 0
M  V30 32749 C 3010.35 -2.86098 -3.86913 0
M  V30 32750 C 3012.7 -3.40805 -3.94337 0
M  V30 32751 C 3010.03 -4.19525 -4.10141 0
M  V30 32752 C 3012.38 -4.73883 -4.19068 0
M  V30 32753 C 3011.04 -5.13492 -4.26477 0
M  V30 32754 H 3010.31 -0.241313 -0.700606 0
M  V30 32755 H 3012.96 -1.24202 -1.45761 0
M  V30 32756 H 3011.26 -0.339295 -3.90328 0
M  V30 32757 H 3012.96 -0.728588 -3.94325 0
M  V30 32758 H 3009.55 -2.1434 -3.71155 0
M  V30 32759 H 3013.74 -3.11184 -3.86624 0
M  V30 32760 H 3008.99 -4.4981 -4.14102 0
M  V30 32761 H 3013.17 -5.4711 -4.30864 0
M  V30 32762 H 3010.79 -6.16899 -4.44229 0
M  V30 32763 N 3012.37 1.38098 -0.759394 0
M  V30 32764 C 3013.78 1.53483 -0.437633 0
M  V30 32765 C 3013.98 1.72074 1.04846 0
M  V30 32766 O 3013.04 1.73506 1.83445 0
M  V30 32767 C 3014.35 2.73855 -1.24194 0
M  V30 32768 C 3015.9 2.87708 -1.2326 0
M  V30 32769 C 3016.38 4.11048 -2.01999 0
M  V30 32770 N 3017.87 4.18136 -1.99289 0
M  V30 32771 C 3018.6 5.12578 -2.57005 0
M  V30 32772 N 3018.1 6.12656 -3.23457 0
M  V30 32773 N 3019.89 5.04971 -2.46903 0
M  V30 32774 H 3012.04 1.2428 -1.72245 0
M  V30 32775 H 3014.3 0.604192 -0.730518 0
M  V30 32776 H 3014.01 2.66541 -2.29454 0
M  V30 32777 H 3013.88 3.67201 -0.862736 0
M  V30 32778 H 3016.27 2.945 -0.18804 0
M  V30 32779 H 3016.35 1.95356 -1.65136 0
M  V30 32780 H 3016 4.05017 -3.06469 0
M  V30 32781 H 3015.93 5.02491 -1.57513 0
M  V30 32782 H 3018.42 3.46465 -1.50899 0
M  V30 32783 H 3018.73 6.81224 -3.64902 0
M  V30 32784 H 3017.08 6.12971 -3.27553 0
M  V30 32785 H 3020.27 4.25728 -1.94611 0
M  V30 32786 H 3020.44 5.78391 -2.92178 0
M  V30 32787 N 3013.85 0.508932 1.49156 0
M  V30 32788 C 3014.79 -0.265248 2.29271 0
M  V30 32789 C 3015.76 -0.953138 1.36031 0
M  V30 32790 O 3016.95 -0.958262 1.64991 0
M  V30 32791 C 3014.09 -1.31898 3.18899 0
M  V30 32792 C 3013.2 -0.642069 4.27202 0
M  V30 32793 C 3012.34 -1.67693 5.04036 0
M  V30 32794 C 3011.37 -0.982315 6.04166 0
M  V30 32795 N 3010.51 -1.96174 6.74137 0
M  V30 32796 H 3015.35 0.424159 2.94966 0
M  V30 32797 H 3012.89 0.221016 1.4543 0
M  V30 32798 H 3014.85 -1.94199 3.69246 0
M  V30 32799 H 3013.48 -1.97705 2.55172 0
M  V30 32800 H 3012.53 0.0944063 3.80283 0
M  V30 32801 H 3013.84 -0.095663 4.98708 0
M  V30 32802 H 3012.99 -2.37478 5.58291 0
M  V30 32803 H 3011.73 -2.2572 4.32321 0
M  V30 32804 H 3010.74 -0.270282 5.49135 0
M  V30 32805 H 3011.96 -0.408434 6.77871 0
M  V30 32806 H 3009.91 -2.53148 6.05188 0
M  V30 32807 H 3009.83 -1.46621 7.41646 0
M  V30 32808 H 3011.09 -2.65223 7.32992 0
M  V30 32809 N 3015.32 -1.55714 0.243111 0
M  V30 32810 C 3016.26 -2.18544 -0.690728 0
M  V30 32811 C 3017.27 -1.16066 -1.1416 0
M  V30 32812 O 3018.46 -1.42947 -1.06903 0
M  V30 32813 C 3015.56 -2.77171 -1.95011 0
M  V30 32814 C 3014.73 -4.05032 -1.6513 0
M  V30 32815 C 3013.79 -4.48013 -2.7599 0
M  V30 32816 O 3012.82 -5.14469 -2.43538 0
M  V30 32817 N 3014.02 -4.15483 -4.05406 0
M  V30 32818 H 3016.78 -2.99308 -0.15315 0
M  V30 32819 H 3014.34 -1.61778 0.0629252 0
M  V30 32820 H 3016.34 -3.02885 -2.68408 0
M  V30 32821 H 3014.91 -2.00586 -2.39758 0
M  V30 32822 H 3014.13 -3.86947 -0.7527 0
M  V30 32823 H 3015.41 -4.88401 -1.42625 0
M  V30 32824 H 3014.81 -3.62124 -4.34606 0
M  V30 32825 H 3013.37 -4.46041 -4.7528 0
M  V30 32826 N 3016.8 0.030048 -1.57571 0
M  V30 32827 C 3018.05 0.722126 -1.89508 0
M  V30 32828 C 3018.38 1.75058 -0.84073 0
M  V30 32829 O 3017.66 1.93964 0.144324 0
M  V30 32830 C 3017.94 1.39256 -3.32084 0
M  V30 32831 C 3017.79 0.377689 -4.48212 0
M  V30 32832 C 3019.11 2.3268 -3.73561 0
M  V30 32833 H 3016.23 0.261051 -0.689218 0
M  V30 32834 H 3018.87 -0.0150722 -1.89994 0
M  V30 32835 H 3017.02 2.02092 -3.318 0
M  V30 32836 H 3018.69 -0.248672 -4.60629 0
M  V30 32837 H 3016.94 -0.303121 -4.3274 0
M  V30 32838 H 3017.61 0.885251 -5.44855 0
M  V30 32839 H 3020.08 1.7989 -3.75205 0
M  V30 32840 H 3018.96 2.76571 -4.7413 0
M  V30 32841 H 3019.22 3.19312 -3.05765 0
M  V30 32842 N 3018.28 1.54674 0.3023 0
M  V30 32843 C 3019.53 1.73102 1.0353 0
M  V30 32844 C 3019.84 0.523207 1.88473 0
M  V30 32845 O 3021.05 0.589275 2.65028 0
M  V30 32846 C 3019.5 3.06256 1.89038 0
M  V30 32847 C 3019.11 4.34511 1.09105 0
M  V30 32848 C 3020.86 3.34043 2.61945 0
M  V30 32849 C 3018.76 5.58716 1.93882 0
M  V30 32850 H 3017.69 0.645152 0.390249 0
M  V30 32851 H 3020.34 1.81156 0.292369 0
M  V30 32852 H 3018.73 2.92163 2.67313 0
M  V30 32853 H 3019.9 4.59434 0.354515 0
M  V30 32854 H 3018.22 4.13649 0.47785 0
M  V30 32855 H 3020.81 4.24039 3.25722 0
M  V30 32856 H 3021.16 2.52861 3.30707 0
M  V30 32857 H 3021.69 3.491 1.90719 0
M  V30 32858 H 3018.43 6.42562 1.29592 0
M  V30 32859 H 3017.95 5.37981 2.6521 0
M  V30 32860 H 3019.63 5.95924 2.5196 0
M  V30 32861 N 3019.76 -0.565428 1.47108 0
M  V30 32862 C 3020.69 -1.68307 1.61849 0
M  V30 32863 C 3021.67 -1.6353 0.468187 0
M  V30 32864 O 3022.85 -1.81279 0.696536 0
M  V30 32865 C 3019.98 -3.06949 1.6248 0
M  V30 32866 C 3018.94 -3.26568 2.76654 0
M  V30 32867 C 3018.26 -4.65913 2.62353 0
M  V30 32868 C 3019.56 -3.12733 4.18324 0
M  V30 32869 H 3021.26 -1.56226 2.55409 0
M  V30 32870 H 3018.8 -0.750157 1.22917 0
M  V30 32871 H 3020.76 -3.84974 1.71385 0
M  V30 32872 H 3019.48 -3.1997 0.654748 0
M  V30 32873 H 3018.14 -2.50948 2.67247 0
M  V30 32874 H 3017.79 -4.75722 1.63394 0
M  V30 32875 H 3017.49 -4.7999 3.38945 0
M  V30 32876 H 3019.01 -5.46084 2.73175 0
M  V30 32877 H 3020.43 -3.80585 4.28752 0
M  V30 32878 H 3018.82 -3.38324 4.95638 0
M  V30 32879 H 3019.89 -2.09584 4.37267 0
M  V30 32880 N 3021.24 -1.35102 -0.811492 0
M  V30 32881 C 3022.48 -1.27847 -1.56523 0
M  V30 32882 C 3022.81 0.148255 -1.94436 0
M  V30 32883 O 3022.08 1.08356 -1.63205 0
M  V30 32884 H 3020.66 -0.47023 -0.580425 0
M  V30 32885 H 3023.32 -1.69148 -0.968247 0
M  V30 32886 H 3022.41 -1.89102 -2.48288 0
M  V30 32887 N 3022.71 1.03306 -1.19019 0
M  V30 32888 C 3023.66 2.13604 -0.920664 0
M  V30 32889 C 3024.66 1.68961 0.12194 0
M  V30 32890 O 3025.86 1.7998 -0.0269171 0
M  V30 32891 H 3022.24 0.697809 -0.280297 0
M  V30 32892 H 3024.21 2.3353 -1.85759 0
M  V30 32893 C 3022.96 3.44492 -0.471259 0
M  V30 32894 H 3022.28 3.79258 -1.26505 0
M  V30 32895 H 3023.72 4.22778 -0.321737 0
M  V30 32896 C 3022.18 3.26917 0.814052 0
M  V30 32897 O 3022.71 3.55178 1.87647 0
M  V30 32898 N 3020.92 2.80223 0.769646 0
M  V30 32899 H 3020.46 2.57424 -0.0951731 0
M  V30 32900 H 3020.42 2.68845 1.63003 0
M  V30 32901 N 3024.19 0.99344 1.22346 0
M  V30 32902 C 3025.44 0.670594 1.91392 0
M  V30 32903 C 3025.77 -0.795397 1.77164 0
M  V30 32904 O 3025.05 -1.57526 1.14086 0
M  V30 32905 C 3025.33 1.07796 3.43587 0
M  V30 32906 C 3025.18 2.60254 3.66862 0
M  V30 32907 C 3026.5 0.631603 4.35544 0
M  V30 32908 H 3023.62 0.245093 0.695053 0
M  V30 32909 H 3026.26 1.23706 1.44211 0
M  V30 32910 H 3024.41 0.595969 3.83902 0
M  V30 32911 H 3026.08 3.16127 3.35948 0
M  V30 32912 H 3024.33 3.02298 3.11124 0
M  V30 32913 H 3025 2.83808 4.73452 0
M  V30 32914 H 3027.47 1.04561 4.02748 0
M  V30 32915 H 3026.35 0.944926 5.40705 0
M  V30 32916 H 3026.61 -0.467701 4.39619 0
M  V30 32917 N 3025.67 -1.37693 0.766707 0
M  V30 32918 C 3026.9 -2.03792 0.339482 0
M  V30 32919 C 3027.31 -1.57954 -1.0415 0
M  V30 32920 O 3026.65 -0.753856 -1.67519 0
M  V30 32921 C 3026.71 -3.5826 0.298283 0
M  V30 32922 C 3026.38 -4.27209 1.623 0
M  V30 32923 C 3027.37 -4.51678 2.57455 0
M  V30 32924 C 3025.06 -4.6514 1.89605 0
M  V30 32925 C 3027.05 -5.13127 3.78126 0
M  V30 32926 C 3024.74 -5.26311 3.10547 0
M  V30 32927 C 3025.74 -5.50242 4.04627 0
M  V30 32928 O 3025.43 -6.10136 5.2344 0
M  V30 32929 H 3025.16 -0.661139 0.140963 0
M  V30 32930 H 3027.71 -1.7711 1.04026 0
M  V30 32931 H 3025.94 -3.83968 -0.45883 0
M  V30 32932 H 3027.63 -4.05774 -0.101192 0
M  V30 32933 H 3028.4 -4.22791 2.3764 0
M  V30 32934 H 3024.28 -4.45851 1.17207 0
M  V30 32935 H 3027.82 -5.31722 4.51573 0
M  V30 32936 H 3023.72 -5.54622 3.3025 0
M  V30 32937 H 3024.49 -6.28617 5.24198 0
M  V30 32938 N 3027.15 -0.516835 -1.48884 0
M  V30 32939 C 3028.08 0.242116 -2.32241 0
M  V30 32940 C 3029.06 0.947609 -1.4126 0
M  V30 32941 O 3030.24 0.935943 -1.70158 0
M  V30 32942 C 3027.37 1.29748 -3.22153 0
M  V30 32943 C 3026.33 0.710921 -4.22054 0
M  V30 32944 C 3025.65 1.86797 -5.0101 0
M  V30 32945 C 3026.95 -0.308622 -5.21387 0
M  V30 32946 H 3028.65 -0.453703 -2.95942 0
M  V30 32947 H 3026.19 -0.219637 -1.42315 0
M  V30 32948 H 3028.15 1.83627 -3.79288 0
M  V30 32949 H 3026.87 2.0227 -2.56426 0
M  V30 32950 H 3025.53 0.193755 -3.66088 0
M  V30 32951 H 3025.18 2.58126 -4.31718 0
M  V30 32952 H 3024.88 1.48149 -5.68617 0
M  V30 32953 H 3026.4 2.4108 -5.60993 0
M  V30 32954 H 3027.82 0.142603 -5.73123 0
M  V30 32955 H 3026.21 -0.611778 -5.96973 0
M  V30 32956 H 3027.28 -1.21902 -4.69327 0
M  V30 32957 N 3028.63 1.55583 -0.251365 0
M  V30 32958 C 3029.85 2.03906 0.3791 0
M  V30 32959 C 3030.28 1.12931 1.50426 0
M  V30 32960 O 3029.63 0.123146 1.80881 0
M  V30 32961 C 3029.68 3.50194 0.860028 0
M  V30 32962 O 3028.79 3.62345 1.96926 0
M  V30 32963 H 3028.13 0.658916 0.0820067 0
M  V30 32964 H 3030.66 2.01064 -0.378727 0
M  V30 32965 H 3030.67 3.91101 1.16207 0
M  V30 32966 H 3029.34 4.15884 0.0366828 0
M  V30 32967 H 3027.92 3.33336 1.67157 0
M  V30 32968 N 3030.1 -0.0216912 1.57585 0
M  V30 32969 C 3031.35 -0.706548 1.90734 0
M  V30 32970 C 3031.71 -1.72568 0.850762 0
M  V30 32971 O 3031 -1.9109 -0.139682 0
M  V30 32972 C 3031.19 -1.41073 3.2838 0
M  V30 32973 C 3031.02 -0.461316 4.47328 0
M  V30 32974 C 3029.79 -0.0796516 5.05237 0
M  V30 32975 C 3031.99 0.263392 5.13625 0
M  V30 32976 N 3029.97 0.870246 6.07701 0
M  V30 32977 C 3031.34 1.0687 6.1072 0
M  V30 32978 C 3033.4 0.329549 4.96808 0
M  V30 32979 C 3032.1 1.9341 6.9281 0
M  V30 32980 C 3034.13 1.18209 5.79466 0
M  V30 32981 C 3033.49 1.97531 6.76137 0
M  V30 32982 H 3029.59 -0.232414 0.746664 0
M  V30 32983 H 3032.17 0.033557 1.94671 0
M  V30 32984 H 3030.34 -2.12125 3.25357 0
M  V30 32985 H 3032.07 -2.04856 3.49022 0
M  V30 32986 H 3028.83 -0.443415 4.7152 0
M  V30 32987 H 3029.25 1.33992 6.63608 0
M  V30 32988 H 3033.9 -0.269411 4.21941 0
M  V30 32989 H 3031.61 2.54382 7.67017 0
M  V30 32990 H 3035.2 1.23691 5.685 0
M  V30 32991 H 3034.08 2.62434 7.38984 0
M  V30 32992 N 3031.58 -1.54832 -0.294093 0
M  V30 32993 C 3032.81 -1.78767 -1.05153 0
M  V30 32994 C 3033.23 -0.548841 -1.79915 0
M  V30 32995 O 3032.59 0.500878 -1.74244 0
M  V30 32996 C 3032.64 -2.99896 -2.00236 0
M  V30 32997 O 3031.74 -2.73504 -3.08657 0
M  V30 32998 H 3031.08 -0.591487 -0.301727 0
M  V30 32999 H 3033.61 -2.01931 -0.329414 0
M  V30 33000 H 3033.62 -3.28056 -2.42577 0
M  V30 33001 H 3032.3 -3.8972 -1.45229 0
M  V30 33002 H 3030.88 -2.56382 -2.70782 0
M  V30 33003 N 3033.06 0.557619 -1.47405 0
M  V30 33004 C 3034.31 1.31446 -1.55221 0
M  V30 33005 C 3034.66 1.91234 -0.211491 0
M  V30 33006 O 3033.96 1.74881 0.782764 0
M  V30 33007 C 3034.15 2.44571 -2.60614 0
M  V30 33008 C 3033.98 1.95868 -4.04804 0
M  V30 33009 C 3032.75 1.7973 -4.72256 0
M  V30 33010 C 3034.95 1.5034 -4.91836 0
M  V30 33011 N 3032.93 1.25361 -6.00964 0
M  V30 33012 C 3034.3 1.07734 -6.10568 0
M  V30 33013 C 3036.35 1.38387 -4.78282 0
M  V30 33014 C 3035.06 0.54364 -7.17243 0
M  V30 33015 C 3037.08 0.86419 -5.85052 0
M  V30 33016 C 3036.45 0.448057 -7.02974 0
M  V30 33017 H 3032.54 0.473039 -0.622703 0
M  V30 33018 H 3035.13 0.632111 -1.84153 0
M  V30 33019 H 3033.3 3.10336 -2.33551 0
M  V30 33020 H 3035.03 3.1157 -2.58276 0
M  V30 33021 H 3031.79 2.02432 -4.28157 0
M  V30 33022 H 3032.21 1.00267 -6.69534 0
M  V30 33023 H 3036.85 1.69172 -3.8748 0
M  V30 33024 H 3034.57 0.223421 -8.07791 0
M  V30 33025 H 3038.16 0.77527 -5.76611 0
M  V30 33026 H 3037.04 0.0521586 -7.84183 0
M  V30 33027 N 3034.54 1.35531 0.804316 0
M  V30 33028 C 3035.76 1.3221 1.59798 0
M  V30 33029 C 3036.19 -0.0973896 1.87848 0
M  V30 33030 O 3035.55 -1.06489 1.4673 0
M  V30 33031 C 3035.6 2.13668 2.9048 0
M  V30 33032 O 3034.7 1.51895 3.83408 0
M  V30 33033 H 3034.04 0.453192 0.485297 0
M  V30 33034 H 3036.57 1.78604 0.998087 0
M  V30 33035 H 3036.58 2.25706 3.39884 0
M  V30 33036 H 3035.26 3.16863 2.69389 0
M  V30 33037 H 3033.83 1.4871 3.41964 0
M  V30 33038 N 3036.02 -1.02674 1.19565 0
M  V30 33039 C 3036.97 -2.13112 0.931979 0
M  V30 33040 C 3037.96 -1.69023 -0.112977 0
M  V30 33041 O 3039.17 -1.79963 0.0364614 0
M  V30 33042 H 3035.54 -0.696313 0.283993 0
M  V30 33043 H 3037.51 -2.32541 1.86995 0
M  V30 33044 C 3036.26 -3.44237 0.489521 0
M  V30 33045 H 3035.58 -3.78582 1.28515 0
M  V30 33046 H 3037.02 -4.22601 0.344154 0
M  V30 33047 C 3035.48 -3.27344 -0.796704 0
M  V30 33048 O 3036.01 -3.56168 -1.85761 0
M  V30 33049 N 3034.22 -2.80627 -0.754774 0
M  V30 33050 H 3033.77 -2.5737 0.108824 0
M  V30 33051 H 3033.72 -2.69705 -1.61575 0
M  V30 33052 N 3037.5 -0.999914 -1.21817 0
M  V30 33053 C 3038.77 -0.595417 -1.86317 0
M  V30 33054 C 3039.15 0.927109 -1.89652 0
M  V30 33055 O 3038.5 1.81196 -1.39213 0
M  V30 33056 C 3038.71 -1.22393 -3.26835 0
M  V30 33057 C 3040.06 -1.32885 -4.0327 0
M  V30 33058 O 3041.08 -1.17886 -3.36127 0
M  V30 33059 O 3039.94 -1.56961 -5.23474 0
M  V30 33060 H 3037.04 -0.203252 -0.801634 0
M  V30 33061 H 3039.58 -1.09624 -1.2954 0
M  V30 33062 H 3038.35 -2.26503 -3.1908 0
M  V30 33063 H 3037.98 -0.709138 -3.91225 0
M  V30 33064 N 3038.97 1.37284 -0.773999 0
M  V30 33065 C 3040.2 2.03905 -0.350794 0
M  V30 33066 C 3040.62 1.58375 1.02776 0
M  V30 33067 O 3039.97 0.766039 1.65644 0
M  V30 33068 C 3040.02 3.59418 -0.387399 0
M  V30 33069 O 3039.75 4.03283 -1.71157 0
M  V30 33070 C 3041.25 4.43275 0.0471201 0
M  V30 33071 H 3038.47 0.654773 -0.146675 0
M  V30 33072 H 3041.01 1.75573 -1.04855 0
M  V30 33073 H 3039.17 3.86514 0.261797 0
M  V30 33074 H 3039.58 4.97813 -1.65175 0
M  V30 33075 H 3041.05 5.51992 -0.0296445 0
M  V30 33076 H 3041.53 4.25259 1.09778 0
M  V30 33077 H 3042.14 4.21409 -0.573974 0
M  V30 33078 N 3040.45 0.524724 1.48608 0
M  V30 33079 C 3041.68 -0.00948494 2.07398 0
M  V30 33080 C 3042.1 -1.27882 1.37941 0
M  V30 33081 O 3041.46 -1.75788 0.443664 0
M  V30 33082 C 3041.51 -0.221893 3.59917 0
M  V30 33083 O 3040.61 -1.29169 3.91649 0
M  V30 33084 H 3039.95 0.0367845 0.66298 0
M  V30 33085 H 3042.48 0.731134 1.91091 0
M  V30 33086 H 3042.49 -0.446165 4.05553 0
M  V30 33087 H 3041.17 0.705378 4.09875 0
M  V30 33088 H 3039.74 -1.05049 3.57798 0
M  V30 33089 N 3041.93 -1.55447 0.259613 0
M  V30 33090 C 3043.18 -1.99541 -0.362108 0
M  V30 33091 C 3043.51 -1.14769 -1.56658 0
M  V30 33092 O 3042.78 -0.214059 -1.93318 0
M  V30 33093 C 3043.07 -3.51999 -0.759526 0
M  V30 33094 C 3042.92 -4.47531 0.451213 0
M  V30 33095 C 3044.24 -4.09915 -1.60179 0
M  V30 33096 H 3041.36 -0.725418 -0.130144 0
M  V30 33097 H 3044 -1.86491 0.363464 0
M  V30 33098 H 3042.15 -3.6325 -1.37773 0
M  V30 33099 H 3043.82 -4.48244 1.08972 0
M  V30 33100 H 3042.06 -4.19829 1.09207 0
M  V30 33101 H 3042.74 -5.51848 0.129615 0
M  V30 33102 H 3045.21 -4.01844 -1.07983 0
M  V30 33103 H 3044.09 -5.16831 -1.8487 0
M  V30 33104 H 3044.35 -3.59168 -2.5778 0
M  V30 33105 N 3043.41 0.0133338 -1.57594 0
M  V30 33106 C 3044.65 0.700947 -1.89982 0
M  V30 33107 C 3044.98 1.74512 -0.858833 0
M  V30 33108 O 3044.24 1.95212 0.138175 0
M  V30 33109 C 3044.54 1.3933 -3.29123 0
M  V30 33110 C 3044.2 0.483608 -4.48299 0
M  V30 33111 C 3042.86 0.233101 -4.80635 0
M  V30 33112 C 3045.22 -0.143517 -5.21002 0
M  V30 33113 C 3042.54 -0.653045 -5.83054 0
M  V30 33114 C 3044.9 -1.01746 -6.24364 0
M  V30 33115 C 3043.56 -1.27727 -6.55166 0
M  V30 33116 H 3042.83 0.256495 -0.695192 0
M  V30 33117 H 3045.48 -0.0393301 -1.9146 0
M  V30 33118 H 3043.78 2.20729 -3.23707 0
M  V30 33119 H 3045.48 1.93115 -3.51436 0
M  V30 33120 H 3042.07 0.689017 -4.23025 0
M  V30 33121 H 3046.25 0.0370267 -4.96286 0
M  V30 33122 H 3041.51 -0.862485 -6.05286 0
M  V30 33123 H 3045.68 -1.50982 -6.79836 0
M  V30 33124 H 3043.31 -1.96563 -7.34348 0
M  V30 33125 N 3044.89 1.54985 0.285878 0
M  V30 33126 C 3045.83 1.8698 1.35303 0
M  V30 33127 C 3046.8 0.720072 1.4968 0
M  V30 33128 O 3047.99 0.970136 1.64295 0
M  V30 33129 C 3045.13 2.13596 2.71055 0
M  V30 33130 C 3044.24 3.4117 2.65004 0
M  V30 33131 C 3043.38 3.57551 3.9285 0
M  V30 33132 C 3042.41 4.78862 3.81258 0
M  V30 33133 N 3041.55 4.91968 5.00911 0
M  V30 33134 H 3046.39 2.78005 1.07318 0
M  V30 33135 H 3043.93 1.37649 0.518752 0
M  V30 33136 H 3045.89 2.27025 3.50022 0
M  V30 33137 H 3044.52 1.25821 2.97269 0
M  V30 33138 H 3043.57 3.36281 1.77818 0
M  V30 33139 H 3044.88 4.30266 2.52334 0
M  V30 33140 H 3044.03 3.70727 4.80257 0
M  V30 33141 H 3042.77 2.66615 4.08372 0
M  V30 33142 H 3041.78 4.65703 2.92234 0
M  V30 33143 H 3043 5.7122 3.67267 0
M  V30 33144 H 3040.95 4.0396 5.16868 0
M  V30 33145 H 3040.87 5.7509 4.90722 0
M  V30 33146 H 3042.13 5.09517 5.89926 0
M  V30 33147 N 3046.36 -0.549794 1.47699 0
M  V30 33148 C 3047.78 -0.876445 1.33381 0
M  V30 33149 C 3047.98 -1.98782 0.329872 0
M  V30 33150 O 3047.04 -2.51199 -0.255977 0
M  V30 33151 C 3048.35 -1.26267 2.72905 0
M  V30 33152 C 3049.9 -1.37368 2.81245 0
M  V30 33153 C 3050.37 -1.79344 4.21426 0
M  V30 33154 N 3051.86 -1.86481 4.24004 0
M  V30 33155 C 3052.6 -2.20304 5.2939 0
M  V30 33156 N 3052.09 -2.52688 6.45074 0
M  V30 33157 N 3053.89 -2.21141 5.16772 0
M  V30 33158 H 3046.04 0.183819 2.11603 0
M  V30 33159 H 3048.3 0.0195767 0.947798 0
M  V30 33160 H 3048.01 -0.519828 3.47837 0
M  V30 33161 H 3047.88 -2.21722 3.05155 0
M  V30 33162 H 3050.27 -2.10733 2.06581 0
M  V30 33163 H 3050.35 -0.400837 2.5264 0
M  V30 33164 H 3049.99 -1.06546 4.96599 0
M  V30 33165 H 3049.92 -2.77644 4.47461 0
M  V30 33166 H 3052.41 -1.63811 3.4055 0
M  V30 33167 H 3052.73 -2.77545 7.21241 0
M  V30 33168 H 3051.07 -2.50252 6.48382 0
M  V30 33169 H 3054.26 -1.95285 4.25419 0
M  V30 33170 H 3054.44 -2.4717 5.99008 0
M  V30 33171 N 3047.84 -1.35955 -0.797117 0
M  V30 33172 C 3049.09 -1.29949 -1.55696 0
M  V30 33173 C 3049.42 0.123225 -1.93809 0
M  V30 33174 O 3048.7 1.07483 -1.62104 0
M  V30 33175 C 3048.98 -2.21495 -2.83922 0
M  V30 33176 C 3048.83 -3.72428 -2.52225 0
M  V30 33177 C 3050.15 -2.11962 -3.85694 0
M  V30 33178 H 3047.27 -0.47338 -0.564872 0
M  V30 33179 H 3049.91 -1.6644 -0.916392 0
M  V30 33180 H 3048.06 -1.90506 -3.38585 0
M  V30 33181 H 3049.73 -4.13902 -2.03673 0
M  V30 33182 H 3047.98 -3.92242 -1.85279 0
M  V30 33183 H 3048.65 -4.31883 -3.43775 0
M  V30 33184 H 3051.12 -2.39224 -3.40457 0
M  V30 33185 H 3050 -2.782 -4.73177 0
M  V30 33186 H 3050.26 -1.1045 -4.28081 0
M  V30 33187 N 3049.32 1.02038 -1.20108 0
M  V30 33188 C 3050.28 2.08662 -0.948298 0
M  V30 33189 C 3051.28 1.60627 0.0746471 0
M  V30 33190 O 3052.47 1.73454 -0.161011 0
M  V30 33191 C 3049.61 3.38216 -0.426914 0
M  V30 33192 H 3050.8 2.32521 -1.89404 0
M  V30 33193 H 3048.35 1.1878 -1.01592 0
M  V30 33194 H 3049.09 3.20031 0.524476 0
M  V30 33195 H 3048.87 3.74406 -1.16458 0
M  V30 33196 H 3050.36 4.1673 -0.26942 0
M  V30 33197 N 3050.8 1.00636 1.21285 0
M  V30 33198 C 3052.04 0.698228 1.92105 0
M  V30 33199 C 3052.4 -0.757191 1.76439 0
M  V30 33200 O 3053.6 -1.17737 2.41643 0
M  V30 33201 C 3051.87 1.10938 3.39746 0
M  V30 33202 S 3053.43 0.921662 4.29011 0
M  V30 33203 H 3050.25 0.254865 0.663751 0
M  V30 33204 H 3052.85 1.29147 1.46769 0
M  V30 33205 H 3051.56 2.16473 3.48666 0
M  V30 33206 H 3051.09 0.508488 3.901 0
M  V30 33207 H 3053.1 -0.180491 4.95872 0
M  V30 33208 N 3052.28 -1.36872 0.781268 0
M  V30 33209 C 3053.22 -2.32036 0.16193 0
M  V30 33210 C 3054.22 -1.55406 -0.674197 0
M  V30 33211 O 3055.42 -1.7073 -0.570193 0
M  V30 33212 H 3051.8 -0.75125 0.0335834 0
M  V30 33213 H 3053.77 -2.81844 0.980128 0
M  V30 33214 C 3052.52 -3.40677 -0.695292 0
M  V30 33215 H 3051.84 -3.99753 -0.0612723 0
M  V30 33216 H 3053.28 -4.09604 -1.09546 0
M  V30 33217 C 3051.74 -2.81559 -1.85003 0
M  V30 33218 O 3052.27 -2.7307 -2.94611 0
M  V30 33219 N 3050.48 -2.38965 -1.6536 0
M  V30 33220 H 3050.02 -2.4607 -0.762063 0
M  V30 33221 H 3049.98 -1.99756 -2.42786 0
M  V30 33222 N 3053.75 -0.532597 -1.48328 0
M  V30 33223 C 3054.98 -0.00151401 -2.074 0
M  V30 33224 C 3055.4 1.27149 -1.38618 0
M  V30 33225 O 3054.76 1.7555 -0.45298 0
M  V30 33226 C 3054.81 0.202803 -3.60029 0
M  V30 33227 O 3053.91 1.2709 -3.92329 0
M  V30 33228 H 3053.26 -0.0402999 -0.662776 0
M  V30 33229 H 3055.79 -0.741257 -1.907 0
M  V30 33230 H 3055.8 0.424651 -4.05784 0
M  V30 33231 H 3054.47 -0.727105 -4.09495 0
M  V30 33232 H 3053.05 1.0315 -3.5835 0
M  V30 33233 N 3055.23 1.55307 -0.267853 0
M  V30 33234 C 3056.46 2.04296 0.357451 0
M  V30 33235 C 3056.88 1.14521 1.4922 0
M  V30 33236 O 3056.24 0.142324 1.80741 0
M  V30 33237 C 3056.29 3.51087 0.822837 0
M  V30 33238 O 3055.39 3.64413 1.93071 0
M  V30 33239 H 3054.73 0.659749 0.0750134 0
M  V30 33240 H 3057.26 2.00651 -0.400031 0
M  V30 33241 H 3057.27 3.92311 1.12052 0
M  V30 33242 H 3055.95 4.15899 -0.0074293 0
M  V30 33243 H 3054.53 3.3509 1.63612 0
M  V30 33244 N 3056.71 -0.00497598 1.57599 0
M  V30 33245 C 3057.64 -0.997013 2.11144 0
M  V30 33246 C 3058.62 -1.36168 1.01943 0
M  V30 33247 O 3059.81 -1.4463 1.29599 0
M  V30 33248 C 3056.94 -2.29045 2.61066 0
M  V30 33249 C 3055.89 -2.06754 3.74749 0
M  V30 33250 C 3055.22 -3.42068 4.10967 0
M  V30 33251 C 3056.52 -1.43415 5.02224 0
M  V30 33252 H 3058.21 -0.551199 2.94282 0
M  V30 33253 H 3055.76 -0.26369 1.41565 0
M  V30 33254 H 3057.71 -2.98796 2.97151 0
M  V30 33255 H 3056.43 -2.75731 1.75043 0
M  V30 33256 H 3055.09 -1.3943 3.3905 0
M  V30 33257 H 3054.74 -3.86447 3.21974 0
M  V30 33258 H 3054.44 -3.2797 4.87554 0
M  V30 33259 H 3055.96 -4.13142 4.49607 0
M  V30 33260 H 3057.38 -2.03116 5.36113 0
M  V30 33261 H 3055.78 -1.39821 5.83584 0
M  V30 33262 H 3056.85 -0.402765 4.83224 0
M  V30 33263 N 3058.19 -1.55135 -0.277654 0
M  V30 33264 C 3059.41 -1.79872 -1.03251 0
M  V30 33265 C 3059.84 -0.567892 -1.79323 0
M  V30 33266 O 3059.2 0.482369 -1.74765 0
M  V30 33267 C 3059.24 -3.02003 -1.97044 0
M  V30 33268 O 3058.35 -2.76763 -3.05739 0
M  V30 33269 H 3057.69 -0.594654 -0.295436 0
M  V30 33270 H 3060.22 -2.02269 -0.307978 0
M  V30 33271 H 3060.23 -3.3061 -2.39084 0
M  V30 33272 H 3058.9 -3.91238 -1.41087 0
M  V30 33273 H 3057.48 -2.59239 -2.68047 0
M  V30 33274 N 3059.67 0.541953 -1.47989 0
M  V30 33275 C 3060.6 1.6571 -1.64506 0
M  V30 33276 C 3061.58 1.62764 -0.494144 0
M  V30 33277 O 3062.76 1.80148 -0.725287 0
M  V30 33278 C 3059.89 3.04325 -1.67343 0
M  V30 33279 C 3058.85 3.22125 -2.81815 0
M  V30 33280 C 3058.17 4.6168 -2.69733 0
M  V30 33281 C 3059.47 3.06039 -4.23247 0
M  V30 33282 H 3061.17 1.52142 -2.57862 0
M  V30 33283 H 3058.71 0.730507 -1.24095 0
M  V30 33284 H 3060.67 3.82199 -1.77487 0
M  V30 33285 H 3059.39 3.18888 -0.70557 0
M  V30 33286 H 3058.05 2.46664 -2.71205 0
M  V30 33287 H 3057.7 4.73062 -1.70942 0
M  V30 33288 H 3057.4 4.74537 -3.46538 0
M  V30 33289 H 3058.92 5.41669 -2.81828 0
M  V30 33290 H 3060.33 3.73716 -4.34752 0
M  V30 33291 H 3058.73 3.30396 -5.00958 0
M  V30 33292 H 3059.8 2.02601 -4.40546 0
M  V30 33293 N 3061.15 1.36376 0.789896 0
M  V30 33294 C 3062.37 1.33897 1.58386 0
M  V30 33295 C 3062.8 -0.0774603 1.8794 0
M  V30 33296 O 3062.15 -1.04927 1.47851 0
M  V30 33297 C 3062.2 2.16737 2.88197 0
M  V30 33298 O 3061.31 1.55953 3.81775 0
M  V30 33299 H 3060.65 0.458313 0.480463 0
M  V30 33300 H 3063.18 1.79653 0.979088 0
M  V30 33301 H 3063.19 2.29298 3.37471 0
M  V30 33302 H 3061.86 3.19703 2.66013 0
M  V30 33303 H 3060.44 1.52329 3.40368 0
M  V30 33304 N 3062.62 -1.014 1.20647 0
M  V30 33305 C 3063.85 -1.7917 1.04465 0
M  V30 33306 C 3064.27 -1.83764 -0.401556 0
M  V30 33307 O 3063.63 -1.27461 -1.28932 0
M  V30 33308 C 3063.68 -3.21358 1.63589 0
M  V30 33309 O 3062.78 -4.03005 0.875268 0
M  V30 33310 H 3062.12 -0.552532 0.368245 0
M  V30 33311 H 3064.65 -1.27523 1.59997 0
M  V30 33312 H 3064.66 -3.72062 1.67433 0
M  V30 33313 H 3063.34 -3.17329 2.6884 0
M  V30 33314 H 3061.92 -3.61595 0.911235 0
M  V30 33315 N 3064.1 -1.01278 -1.2075 0
M  V30 33316 C 3065.05 -0.550641 -2.21251 0
M  V30 33317 C 3066.04 0.391958 -1.56053 0
M  V30 33318 O 3067.23 0.215544 -1.75683 0
M  V30 33319 C 3064.36 0.113541 -3.43112 0
M  V30 33320 C 3063.44 -0.850538 -4.15484 0
M  V30 33321 N 3063.83 -2.00652 -4.64298 0
M  V30 33322 C 3062.13 -0.670554 -4.4093 0
M  V30 33323 C 3062.83 -2.61326 -5.19696 0
M  V30 33324 N 3061.81 -1.89419 -5.0953 0
M  V30 33325 H 3065.61 -1.43198 -2.56654 0
M  V30 33326 H 3063.12 -0.877621 -1.36644 0
M  V30 33327 H 3065.12 0.462138 -4.14331 0
M  V30 33328 H 3063.78 0.990771 -3.09215 0
M  V30 33329 H 3064.79 -2.38659 -4.59633 0
M  V30 33330 H 3061.47 0.158943 -4.17197 0
M  V30 33331 H 3062.86 -3.59133 -5.67867 0
M  V30 33332 N 3065.58 1.36456 -0.788516 0
M  V30 33333 C 3066.83 2.00005 -0.370102 0
M  V30 33334 C 3067.18 1.61458 1.04638 0
M  V30 33335 O 3066.47 0.85879 1.71276 0
M  V30 33336 C 3066.67 3.54292 -0.470317 0
M  V30 33337 C 3066.5 4.07824 -1.89499 0
M  V30 33338 C 3065.27 4.38012 -2.5194 0
M  V30 33339 C 3067.46 4.27645 -2.85699 0
M  V30 33340 N 3065.45 4.77361 -3.86005 0
M  V30 33341 C 3066.82 4.69789 -4.04596 0
M  V30 33342 C 3068.87 4.09813 -2.82768 0
M  V30 33343 C 3067.58 4.95968 -5.20968 0
M  V30 33344 C 3069.6 4.37138 -3.98327 0
M  V30 33345 C 3068.96 4.79538 -5.15968 0
M  V30 33346 H 3065.06 0.760328 -0.182826 0
M  V30 33347 H 3067.65 1.65478 -1.02592 0
M  V30 33348 H 3065.82 3.88089 0.155408 0
M  V30 33349 H 3067.55 4.0469 -0.0282354 0
M  V30 33350 H 3064.3 4.27685 -2.03427 0
M  V30 33351 H 3064.73 5.01321 -4.54979 0
M  V30 33352 H 3069.37 3.76191 -1.92978 0
M  V30 33353 H 3067.09 5.28473 -6.11345 0
M  V30 33354 H 3070.67 4.24912 -3.97418 0
M  V30 33355 H 3069.55 5.00272 -6.03902 0
M  V30 33356 N 3067.06 0.540456 1.48043 0
M  V30 33357 C 3068.31 0.00813507 2.01698 0
M  V30 33358 C 3068.62 -1.34322 1.42186 0
M  V30 33359 O 3069.83 -1.9645 1.87402 0
M  V30 33360 C 3068.28 -0.0358697 3.59882 0
M  V30 33361 C 3067.89 1.31123 4.28382 0
M  V30 33362 C 3069.63 -0.516466 4.21347 0
M  V30 33363 C 3067.54 1.22724 5.78526 0
M  V30 33364 H 3066.47 -0.00072892 0.754 0
M  V30 33365 H 3069.12 0.685805 1.70203 0
M  V30 33366 H 3067.5 -0.778838 3.88266 0
M  V30 33367 H 3068.68 2.07059 4.11659 0
M  V30 33368 H 3066.99 1.7284 3.78834 0
M  V30 33369 H 3069.59 -0.597436 5.31352 0
M  V30 33370 H 3069.93 -1.52466 3.87375 0
M  V30 33371 H 3070.47 0.171133 3.97432 0
M  V30 33372 H 3067.2 2.21091 6.17089 0
M  V30 33373 H 3066.72 0.509415 5.97633 0
M  V30 33374 H 3068.4 0.922273 6.40393 0
M  V30 33375 N 3068.54 -1.55163 0.276085 0
M  V30 33376 C 3069.95 -1.59409 -0.0780299 0
M  V30 33377 C 3070.15 -1.29329 -1.54519 0
M  V30 33378 O 3069.21 -1.05463 -2.29421 0
M  V30 33379 C 3070.52 -2.99225 0.297475 0
M  V30 33380 C 3072.07 -3.12046 0.244172 0
M  V30 33381 C 3072.54 -4.5413 0.594131 0
M  V30 33382 N 3074.03 -4.59974 0.545721 0
M  V30 33383 C 3074.77 -5.67942 0.789292 0
M  V30 33384 N 3074.27 -6.84051 1.09753 0
M  V30 33385 N 3076.06 -5.57495 0.718024 0
M  V30 33386 H 3068.21 -1.7298 1.23254 0
M  V30 33387 H 3070.47 -0.806658 0.498002 0
M  V30 33388 H 3070.18 -3.26075 1.31787 0
M  V30 33389 H 3070.05 -3.75466 -0.36122 0
M  V30 33390 H 3072.44 -2.8496 -0.766941 0
M  V30 33391 H 3072.52 -2.38015 0.937138 0
M  V30 33392 H 3072.16 -4.81942 1.60294 0
M  V30 33393 H 3072.09 -5.26462 -0.120636 0
M  V30 33394 H 3074.59 -3.76565 0.3174 0
M  V30 33395 H 3074.9 -7.62293 1.27002 0
M  V30 33396 H 3073.24 -6.85664 1.13531 0
M  V30 33397 H 3076.43 -4.65663 0.477052 0
M  V30 33398 H 3076.61 -6.41561 0.91123 0
M  V30 33399 N 3070.01 -0.00338196 -1.576 0
M  V30 33400 C 3070.94 0.985801 -2.1167 0
M  V30 33401 C 3071.92 1.35625 -1.02663 0
M  V30 33402 O 3073.11 1.43941 -1.30364 0
M  V30 33403 C 3070.24 2.27658 -2.62277 0
M  V30 33404 C 3069.19 2.04764 -3.7584 0
M  V30 33405 C 3068.52 3.39884 -4.12775 0
M  V30 33406 C 3069.82 1.4075 -5.02978 0
M  V30 33407 H 3071.51 0.535585 -2.94571 0
M  V30 33408 H 3069.06 0.256179 -1.41703 0
M  V30 33409 H 3071.01 2.97216 -2.98732 0
M  V30 33410 H 3069.74 2.74799 -1.76503 0
M  V30 33411 H 3068.4 1.3763 -3.39784 0
M  V30 33412 H 3068.04 3.84734 -3.24019 0
M  V30 33413 H 3067.74 3.2538 -4.89287 0
M  V30 33414 H 3069.27 4.10752 -4.51791 0
M  V30 33415 H 3070.68 2.0027 -5.37182 0
M  V30 33416 H 3069.08 1.36724 -5.84317 0
M  V30 33417 H 3070.15 0.377133 -4.83431 0
M  V30 33418 N 3071.49 1.5528 0.269423 0
M  V30 33419 C 3072.74 1.75259 0.99835 0
M  V30 33420 C 3073.05 0.563067 1.8732 0
M  V30 33421 O 3074.26 0.645359 2.63718 0
M  V30 33422 C 3072.72 3.10197 1.82499 0
M  V30 33423 C 3072.32 4.36728 0.998633 0
M  V30 33424 C 3074.07 3.39524 2.54801 0
M  V30 33425 C 3071.97 5.62703 1.81987 0
M  V30 33426 H 3070.9 0.653285 0.376477 0
M  V30 33427 H 3073.56 1.81735 0.253877 0
M  V30 33428 H 3071.94 2.97768 2.61056 0
M  V30 33429 H 3073.11 4.60083 0.256983 0
M  V30 33430 H 3071.43 4.1457 0.390001 0
M  V30 33431 H 3074.02 4.30853 3.16654 0
M  V30 33432 H 3074.37 2.59819 3.25269 0
M  V30 33433 H 3074.9 3.53067 1.83271 0
M  V30 33434 H 3071.64 6.45166 1.15933 0
M  V30 33435 H 3071.16 5.43485 2.53739 0
M  V30 33436 H 3072.84 6.01134 2.39263 0
M  V30 33437 N 3072.97 -0.534097 1.48274 0
M  V30 33438 C 3074.2 -1.31308 1.59505 0
M  V30 33439 C 3074.61 -1.87503 0.252873 0
M  V30 33440 O 3073.95 -1.66905 -0.767369 0
M  V30 33441 C 3074.01 -2.50452 2.57903 0
M  V30 33442 C 3073.68 -2.15375 4.03067 0
M  V30 33443 C 3074.67 -1.71291 4.90872 0
M  V30 33444 C 3072.36 -2.26024 4.48574 0
M  V30 33445 C 3074.35 -1.38317 6.22212 0
M  V30 33446 C 3072.04 -1.92662 5.79935 0
M  V30 33447 C 3073.04 -1.48878 6.66576 0
M  V30 33448 O 3072.73 -1.15952 7.95494 0
M  V30 33449 H 3072.46 -0.40573 0.540703 0
M  V30 33450 H 3075.01 -0.651462 1.94795 0
M  V30 33451 H 3073.24 -3.19581 2.17726 0
M  V30 33452 H 3074.93 -3.12517 2.59013 0
M  V30 33453 H 3075.7 -1.62537 4.56954 0
M  V30 33454 H 3071.58 -2.59059 3.81326 0
M  V30 33455 H 3075.12 -1.0407 6.89794 0
M  V30 33456 H 3071.02 -2.01055 6.1339 0
M  V30 33457 H 3071.78 -1.29385 8.08209 0
M  V30 33458 N 3074.45 -1.36793 -0.782652 0
M  V30 33459 C 3075.39 -1.31671 -1.89556 0
M  V30 33460 C 3076.36 -0.184176 -1.65076 0
M  V30 33461 O 3077.55 -0.371786 -1.87143 0
M  V30 33462 C 3074.69 -1.11864 -3.26467 0
M  V30 33463 C 3073.8 -2.34251 -3.62974 0
M  V30 33464 C 3072.94 -2.07403 -4.89037 0
M  V30 33465 C 3071.98 -3.25715 -5.18243 0
M  V30 33466 N 3071.11 -2.98487 -6.35492 0
M  V30 33467 H 3075.95 -2.26828 -1.9327 0
M  V30 33468 H 3073.49 -1.12727 -0.945037 0
M  V30 33469 H 3075.45 -0.984039 -4.05429 0
M  V30 33470 H 3074.08 -0.203588 -3.22157 0
M  V30 33471 H 3073.13 -2.5849 -2.79082 0
M  V30 33472 H 3074.44 -3.22521 -3.80502 0
M  V30 33473 H 3073.6 -1.90912 -5.7588 0
M  V30 33474 H 3072.34 -1.16454 -4.73592 0
M  V30 33475 H 3071.34 -3.42757 -4.29881 0
M  V30 33476 H 3072.57 -4.17499 -5.35603 0
M  V30 33477 H 3070.51 -2.10157 -6.21426 0
M  V30 33478 H 3070.43 -3.80297 -6.53383 0
M  V30 33479 H 3071.7 -2.8559 -7.25299 0
M  V30 33480 N 3075.93 1.00759 -1.21184 0
M  V30 33481 C 3077.18 1.73909 -1.02169 0
M  V30 33482 C 3077.49 1.90457 0.445605 0
M  V30 33483 O 3078.69 2.60789 0.755086 0
M  V30 33484 C 3077.15 3.12833 -1.77942 0
M  V30 33485 C 3076.76 3.04267 -3.28824 0
M  V30 33486 C 3078.5 3.90131 -1.67326 0
M  V30 33487 C 3076.41 4.38255 -3.97097 0
M  V30 33488 H 3075.34 0.652013 -0.378676 0
M  V30 33489 H 3077.99 1.12598 -1.44893 0
M  V30 33490 H 3076.37 3.74739 -1.28009 0
M  V30 33491 H 3077.55 2.51615 -3.8604 0
M  V30 33492 H 3075.86 2.40459 -3.39953 0
M  V30 33493 H 3078.46 4.89277 -2.15668 0
M  V30 33494 H 3078.8 4.1149 -0.631032 0
M  V30 33495 H 3079.33 3.34872 -2.14722 0
M  V30 33496 H 3076.07 4.22099 -5.01511 0
M  V30 33497 H 3075.59 4.90879 -3.44671 0
M  V30 33498 H 3077.27 5.07065 -4.01863 0
M  V30 33499 N 3077.4 1.01917 1.20211 0
M  V30 33500 C 3078.65 0.71104 1.89926 0
M  V30 33501 C 3078.98 -0.757638 1.78811 0
M  V30 33502 O 3078.26 -1.55071 1.17402 0
M  V30 33503 C 3078.54 1.15059 3.41223 0
M  V30 33504 C 3078.39 2.67977 3.61259 0
M  V30 33505 C 3079.71 0.723846 4.34107 0
M  V30 33506 H 3076.83 0.259781 0.689698 0
M  V30 33507 H 3079.47 1.26737 1.41555 0
M  V30 33508 H 3077.62 0.677267 3.82551 0
M  V30 33509 H 3079.3 3.23182 3.29167 0
M  V30 33510 H 3077.54 3.08829 3.04642 0
M  V30 33511 H 3078.21 2.93787 4.67326 0
M  V30 33512 H 3080.69 1.1308 4.0044 0
M  V30 33513 H 3079.56 1.0594 5.38579 0
M  V30 33514 H 3079.82 -0.374346 4.40512 0
M  V30 33515 N 3078.88 -1.36036 0.795742 0
M  V30 33516 C 3079.83 -2.29961 0.196588 0
M  V30 33517 C 3080.8 -1.52286 -0.663186 0
M  V30 33518 O 3081.98 -1.80768 -0.610542 0
M  V30 33519 C 3079.12 -3.38777 -0.657579 0
M  V30 33520 C 3078.24 -4.31432 0.221433 0
M  V30 33521 C 3077.37 -5.27334 -0.639707 0
M  V30 33522 C 3076.41 -6.11628 0.240372 0
M  V30 33523 N 3075.55 -6.99699 -0.580114 0
M  V30 33524 H 3080.39 -2.80613 1.003 0
M  V30 33525 H 3077.93 -1.38117 0.506171 0
M  V30 33526 H 3079.88 -4.00521 -1.16786 0
M  V30 33527 H 3078.51 -2.89429 -1.42936 0
M  V30 33528 H 3077.57 -3.70788 0.849736 0
M  V30 33529 H 3078.88 -4.90627 0.899281 0
M  V30 33530 H 3078.03 -5.94398 -1.21555 0
M  V30 33531 H 3076.77 -4.6861 -1.35116 0
M  V30 33532 H 3075.78 -5.43521 0.82857 0
M  V30 33533 H 3077 -6.72429 0.949521 0
M  V30 33534 H 3074.95 -6.43476 -1.27574 0
M  V30 33535 H 3074.86 -7.55989 0.0399182 0
M  V30 33536 H 3076.13 -7.71125 -1.13958 0
M  V30 33537 N 3080.36 -0.5483 -1.47755 0
M  V30 33538 C 3081.59 -0.0255236 -2.06884 0
M  V30 33539 C 3082 1.2642 -1.40227 0
M  V30 33540 O 3081.36 1.75636 -0.495807 0
M  V30 33541 C 3081.41 0.18307 -3.61036 0
M  V30 33542 O 3081.13 -1.05557 -4.25193 0
M  V30 33543 C 3082.63 0.744145 -4.3701 0
M  V30 33544 H 3079.85 -0.0418007 -0.669697 0
M  V30 33545 H 3082.4 -0.759171 -1.89886 0
M  V30 33546 H 3080.55 0.866819 -3.77578 0
M  V30 33547 H 3080.97 -0.84772 -5.17604 0
M  V30 33548 H 3082.44 0.839433 -5.4558 0
M  V30 33549 H 3082.92 1.75336 -4.02683 0
M  V30 33550 H 3083.52 0.0963795 -4.25191 0
M  V30 33551 N 3081.84 1.55014 -0.28431 0
M  V30 33552 C 3083.07 2.04204 0.332912 0
M  V30 33553 C 3083.48 1.16232 1.48781 0
M  V30 33554 O 3082.84 0.184355 1.81566 0
M  V30 33555 C 3082.89 3.5242 0.805145 0
M  V30 33556 O 3082.61 4.37046 -0.303766 0
M  V30 33557 C 3084.11 4.17536 1.48924 0
M  V30 33558 H 3081.33 0.666825 0.074733 0
M  V30 33559 H 3083.88 2.0016 -0.419083 0
M  V30 33560 H 3082.03 3.56878 1.5072 0
M  V30 33561 H 3082.44 5.24465 0.0608781 0
M  V30 33562 H 3083.92 5.22819 1.77099 0
M  V30 33563 H 3084.4 3.66262 2.42382 0
M  V30 33564 H 3085 4.17107 0.830794 0
M  V30 33565 N 3083.32 0.0117398 1.57596 0
M  V30 33566 C 3084.73 -0.344479 1.55838 0
M  V30 33567 C 3084.93 -1.74034 1.0156 0
M  V30 33568 O 3083.99 -2.43867 0.654606 0
M  V30 33569 C 3085.3 -0.208971 2.99973 0
M  V30 33570 C 3086.85 -0.283037 3.11718 0
M  V30 33571 C 3087.32 -0.176519 4.5766 0
M  V30 33572 N 3088.82 -0.234052 4.62608 0
M  V30 33573 C 3089.55 -0.175151 5.73132 0
M  V30 33574 N 3089.05 -0.066167 6.92768 0
M  V30 33575 N 3090.84 -0.227874 5.61638 0
M  V30 33576 H 3082.99 0.924726 1.91213 0
M  V30 33577 H 3085.25 0.355546 0.878801 0
M  V30 33578 H 3084.96 0.751886 3.43569 0
M  V30 33579 H 3084.83 -0.986286 3.64077 0
M  V30 33580 H 3087.22 -1.23434 2.68045 0
M  V30 33581 H 3087.3 0.524354 2.50368 0
M  V30 33582 H 3086.95 0.771294 5.02009 0
M  V30 33583 H 3086.88 -1.00255 5.16969 0
M  V30 33584 H 3089.37 -0.319137 3.7655 0
M  V30 33585 H 3089.68 -0.0274407 7.72795 0
M  V30 33586 H 3088.02 -0.0316281 6.94993 0
M  V30 33587 H 3091.22 -0.311294 4.67064 0
M  V30 33588 H 3091.39 -0.178507 6.47754 0
M  V30 33589 N 3084.79 -1.55421 -0.261185 0
M  V30 33590 C 3085.72 -1.92121 -1.32709 0
M  V30 33591 C 3086.71 -0.784433 -1.50933 0
M  V30 33592 O 3087.89 -1.04355 -1.63779 0
M  V30 33593 C 3085.02 -2.20346 -2.68449 0
M  V30 33594 C 3083.97 -3.36141 -2.64941 0
M  V30 33595 C 3083.3 -3.49872 -4.04343 0
M  V30 33596 C 3084.6 -4.72219 -2.23174 0
M  V30 33597 H 3086.29 -2.81402 -1.0224 0
M  V30 33598 H 3083.84 -1.35393 -0.490382 0
M  V30 33599 H 3085.79 -2.44609 -3.43139 0
M  V30 33600 H 3084.52 -1.27876 -3.00525 0
M  V30 33601 H 3083.18 -3.11864 -1.92708 0
M  V30 33602 H 3082.82 -2.54848 -4.33661 0
M  V30 33603 H 3082.52 -4.27733 -4.02887 0
M  V30 33604 H 3084.05 -3.76441 -4.80754 0
M  V30 33605 H 3085.46 -4.95948 -2.87591 0
M  V30 33606 H 3083.86 -5.5308 -2.32858 0
M  V30 33607 H 3084.93 -4.70243 -1.18318 0
M  V30 33608 N 3086.27 0.526227 -1.48555 0
M  V30 33609 C 3087.52 1.28375 -1.56996 0
M  V30 33610 C 3087.85 1.92652 -0.244735 0
M  V30 33611 O 3087.13 1.79475 0.749604 0
M  V30 33612 C 3087.41 2.37021 -2.71096 0
M  V30 33613 C 3087.26 1.77411 -4.13335 0
M  V30 33614 C 3088.58 3.38764 -2.8094 0
M  V30 33615 H 3085.7 0.465388 -0.571474 0
M  V30 33616 H 3088.34 0.585829 -1.80743 0
M  V30 33617 H 3086.49 2.9655 -2.50979 0
M  V30 33618 H 3088.16 1.21904 -4.44901 0
M  V30 33619 H 3086.41 1.07928 -4.20159 0
M  V30 33620 H 3087.08 2.56095 -4.88998 0
M  V30 33621 H 3089.55 2.89195 -2.99175 0
M  V30 33622 H 3088.43 4.12174 -3.62496 0
M  V30 33623 H 3088.69 3.99546 -1.89251 0
M  V30 33624 N 3087.75 1.37206 0.775387 0
M  V30 33625 C 3089 1.31952 1.53078 0
M  V30 33626 C 3089.32 -0.0966521 1.9476 0
M  V30 33627 O 3088.59 -1.03991 1.6602 0
M  V30 33628 H 3087.17 0.485454 0.567753 0
M  V30 33629 H 3089.83 1.71655 0.92306 0
M  V30 33630 H 3088.93 1.95618 2.43187 0
M  V30 33631 N 3089.23 -1.00115 1.21716 0
M  V30 33632 C 3090.45 -1.78052 1.0636 0
M  V30 33633 C 3090.88 -1.84179 -0.382043 0
M  V30 33634 O 3090.24 -1.28821 -1.27573 0
M  V30 33635 C 3090.28 -3.19605 1.66988 0
M  V30 33636 O 3089.39 -4.02054 0.917963 0
M  V30 33637 H 3088.73 -0.548596 0.374084 0
M  V30 33638 H 3091.26 -1.25819 1.6134 0
M  V30 33639 H 3091.27 -3.70265 1.71369 0
M  V30 33640 H 3089.94 -3.1446 2.72191 0
M  V30 33641 H 3088.52 -3.60608 0.949536 0
M  V30 33642 N 3090.71 -1.02553 -1.19669 0
M  V30 33643 C 3091.96 -0.715305 -1.8859 0
M  V30 33644 C 3092.27 0.75895 -1.80276 0
M  V30 33645 O 3093.48 1.18209 -2.44416 0
M  V30 33646 C 3091.93 -1.22911 -3.38262 0
M  V30 33647 C 3091.54 -2.73091 -3.55142 0
M  V30 33648 C 3093.28 -0.994722 -4.12681 0
M  V30 33649 C 3091.19 -3.17906 -4.98688 0
M  V30 33650 H 3090.12 -0.263869 -0.706321 0
M  V30 33651 H 3092.77 -1.23939 -1.3532 0
M  V30 33652 H 3091.15 -0.632961 -3.90909 0
M  V30 33653 H 3092.33 -3.38332 -3.12839 0
M  V30 33654 H 3090.64 -2.94771 -2.94107 0
M  V30 33655 H 3093.24 -1.30487 -5.18534 0
M  V30 33656 H 3093.58 0.0685734 -4.16244 0
M  V30 33657 H 3094.12 -1.5547 -3.66161 0
M  V30 33658 H 3090.85 -4.2355 -5.00285 0
M  V30 33659 H 3090.37 -2.57391 -5.41766 0
M  V30 33660 H 3092.05 -3.11055 -5.67322 0
M  V30 33661 N 3092.19 1.35612 -0.802945 0
M  V30 33662 C 3093.13 2.29854 -0.208781 0
M  V30 33663 C 3094.1 1.52636 0.655101 0
M  V30 33664 O 3095.29 1.81089 0.600947 0
M  V30 33665 C 3092.43 3.39121 0.639604 0
M  V30 33666 C 3091.54 4.31309 -0.24431 0
M  V30 33667 C 3090.68 5.27666 0.611732 0
M  V30 33668 C 3089.71 6.11492 -0.272805 0
M  V30 33669 N 3088.85 6.99997 0.542999 0
M  V30 33670 H 3093.69 2.80078 -1.01787 0
M  V30 33671 H 3091.23 1.37847 -0.513489 0
M  V30 33672 H 3093.19 4.01134 1.14661 0
M  V30 33673 H 3091.82 2.90183 1.41399 0
M  V30 33674 H 3090.87 3.70332 -0.869387 0
M  V30 33675 H 3092.18 4.90143 -0.925288 0
M  V30 33676 H 3091.33 5.95034 1.18401 0
M  V30 33677 H 3090.07 4.6932 1.32629 0
M  V30 33678 H 3089.08 5.43074 -0.857382 0
M  V30 33679 H 3090.3 6.71916 -0.985169 0
M  V30 33680 H 3088.25 6.44143 1.2416 0
M  V30 33681 H 3088.17 7.55958 -0.0800095 0
M  V30 33682 H 3089.43 7.71719 1.09867 0
M  V30 33683 N 3093.66 0.556128 1.47462 0
M  V30 33684 C 3094.94 -0.0339548 1.95571 0
M  V30 33685 C 3095.32 -1.48666 1.49872 0
M  V30 33686 O 3094.67 -2.16286 0.737057 0
M  V30 33687 C 3094.88 0.110404 3.48825 0
M  V30 33688 C 3096.23 -0.035497 4.24585 0
M  V30 33689 O 3097.25 0.0378982 3.5618 0
M  V30 33690 O 3096.11 -0.193203 5.46158 0
M  V30 33691 H 3093.2 -0.0647376 0.824462 0
M  V30 33692 H 3095.75 0.622575 1.57867 0
M  V30 33693 H 3094.52 1.12133 3.74889 0
M  V30 33694 H 3094.14 -0.583786 3.93291 0
M  V30 33695 N 3095.14 -1.54861 0.292527 0
M  V30 33696 C 3096.07 -2.26166 -0.580638 0
M  V30 33697 C 3097.05 -1.25808 -1.14483 0
M  V30 33698 O 3098.24 -1.54564 -1.17574 0
M  V30 33699 C 3095.37 -2.996 -1.75663 0
M  V30 33700 C 3094.32 -4.07033 -1.32318 0
M  V30 33701 C 3093.65 -4.68136 -2.58366 0
M  V30 33702 C 3094.95 -5.20265 -0.460612 0
M  V30 33703 H 3096.64 -2.99397 0.0140601 0
M  V30 33704 H 3094.19 -1.43998 0.00820238 0
M  V30 33705 H 3096.14 -3.482 -2.3735 0
M  V30 33706 H 3094.86 -2.23932 -2.37743 0
M  V30 33707 H 3093.52 -3.5927 -0.729414 0
M  V30 33708 H 3093.17 -3.89118 -3.18742 0
M  V30 33709 H 3092.87 -5.40687 -2.30069 0
M  V30 33710 H 3094.4 -5.19494 -3.20871 0
M  V30 33711 H 3095.81 -5.64811 -0.982938 0
M  V30 33712 H 3094.21 -5.99484 -0.271776 0
M  V30 33713 H 3095.28 -4.82143 0.516388 0
M  V30 33714 N 3096.62 -0.0200973 -1.57587 0
M  V30 33715 C 3097.84 0.674513 -1.96125 0
M  V30 33716 C 3098.27 1.65384 -0.896097 0
M  V30 33717 O 3097.63 1.80728 0.143894 0
M  V30 33718 C 3097.68 1.36511 -3.33762 0
M  V30 33719 O 3096.78 2.48016 -3.29487 0
M  V30 33720 H 3096.12 0.177908 -0.639722 0
M  V30 33721 H 3098.65 -0.0792677 -2.04446 0
M  V30 33722 H 3098.66 1.72397 -3.69788 0
M  V30 33723 H 3097.34 0.647193 -4.10834 0
M  V30 33724 H 3095.91 2.14309 -3.05166 0
M  V30 33725 N 3098.1 1.55557 0.252939 0
M  V30 33726 C 3099.35 1.76756 0.979881 0
M  V30 33727 C 3099.67 0.582977 1.86082 0
M  V30 33728 O 3098.94 -0.401463 1.91742 0
M  V30 33729 H 3097.52 0.65187 0.364793 0
M  V30 33730 H 3100.18 1.92988 0.272339 0
M  V30 33731 H 3099.27 2.6766 1.60513 0
M  V30 33732 N 3099.58 -0.518341 1.48832 0
M  V30 33733 C 3100.49 -1.64845 1.66923 0
M  V30 33734 C 3101.5 -1.65021 0.55174 0
M  V30 33735 O 3102.68 -1.83759 0.824284 0
M  V30 33736 C 3099.74 -3.01275 1.71564 0
M  V30 33737 C 3098.8 -3.11863 2.95025 0
M  V30 33738 C 3098.04 -4.41785 2.99436 0
M  V30 33739 O 3098.26 -5.2957 2.11923 0
M  V30 33740 O 3097.19 -4.56983 3.91727 0
M  V30 33741 H 3101.02 -1.52517 2.62626 0
M  V30 33742 H 3098.6 -0.692726 1.32369 0
M  V30 33743 H 3100.49 -3.82392 1.77071 0
M  V30 33744 H 3099.16 -3.13903 0.790371 0
M  V30 33745 H 3098.07 -2.29997 2.95046 0
M  V30 33746 H 3099.4 -3.04156 3.86976 0
M  V30 33747 N 3101.05 -1.37615 -0.7681 0
M  V30 33748 C 3102.3 -1.33222 -1.52904 0
M  V30 33749 C 3102.63 0.0820876 -1.94026 0
M  V30 33750 O 3101.91 1.0402 -1.64347 0
M  V30 33751 C 3102.19 -2.27468 -2.7916 0
M  V30 33752 C 3102.04 -3.77694 -2.44269 0
M  V30 33753 C 3103.36 -2.20095 -3.81112 0
M  V30 33754 H 3100.48 -0.485256 -0.554703 0
M  V30 33755 H 3103.12 -1.68346 -0.880882 0
M  V30 33756 H 3101.27 -1.97645 -3.34468 0
M  V30 33757 H 3102.95 -4.18129 -1.94848 0
M  V30 33758 H 3101.19 -3.96084 -1.76918 0
M  V30 33759 H 3101.86 -4.39078 -3.34537 0
M  V30 33760 H 3104.34 -2.46391 -3.35307 0
M  V30 33761 H 3103.21 -2.88174 -4.67169 0
M  V30 33762 H 3103.47 -1.19505 -4.25642 0
M  V30 33763 N 3102.53 0.994677 -1.22245 0
M  V30 33764 C 3103.44 2.11876 -1.00726 0
M  V30 33765 C 3104.46 1.73945 0.0438884 0
M  V30 33766 O 3105.63 2.00852 -0.148446 0
M  V30 33767 C 3102.7 3.41715 -0.585783 0
M  V30 33768 C 3101.76 3.93759 -1.71034 0
M  V30 33769 C 3100.99 5.17401 -1.30888 0
M  V30 33770 O 3101.22 5.70094 -0.18691 0
M  V30 33771 O 3100.15 5.63152 -2.1247 0
M  V30 33772 H 3103.98 2.32913 -1.94899 0
M  V30 33773 H 3101.56 1.10249 -1.00824 0
M  V30 33774 H 3103.44 4.19851 -0.361009 0
M  V30 33775 H 3102.12 3.22043 0.327109 0
M  V30 33776 H 3101.02 3.16804 -1.98962 0
M  V30 33777 H 3102.36 4.1786 -2.60103 0
M  V30 33778 N 3104.01 1.03186 1.19123 0
M  V30 33779 C 3105.43 0.749471 1.40908 0
M  V30 33780 C 3105.63 -0.664695 1.90221 0
M  V30 33781 O 3104.68 -1.43024 2.08087 0
M  V30 33782 C 3105.99 1.78811 2.41758 0
M  V30 33783 C 3107.54 1.808 2.555 0
M  V30 33784 C 3108.02 2.83632 3.59607 0
M  V30 33785 N 3109.51 2.82468 3.67105 0
M  V30 33786 C 3110.24 3.58688 4.4736 0
M  V30 33787 N 3109.74 4.44632 5.31295 0
M  V30 33788 N 3111.53 3.47216 4.42038 0
M  V30 33789 H 3103.68 1.94459 0.854365 0
M  V30 33790 H 3105.95 0.840886 0.437738 0
M  V30 33791 H 3105.65 2.80203 2.12554 0
M  V30 33792 H 3105.53 1.61289 3.40978 0
M  V30 33793 H 3107.91 0.800853 2.84025 0
M  V30 33794 H 3107.99 2.02399 1.56424 0
M  V30 33795 H 3107.64 3.8452 3.31823 0
M  V30 33796 H 3107.57 2.59291 4.5834 0
M  V30 33797 H 3110.06 2.20136 3.07162 0
M  V30 33798 H 3110.37 4.99522 5.89659 0
M  V30 33799 H 3108.72 4.48704 5.30745 0
M  V30 33800 H 3111.91 2.79484 3.75508 0
M  V30 33801 H 3112.08 4.06868 5.04343 0
M  V30 33802 N 3105.49 -1.35184 0.810125 0
M  V30 33803 C 3106.44 -2.2716 0.195581 0
M  V30 33804 C 3107.42 -1.4794 -0.632665 0
M  V30 33805 O 3108.61 -1.70101 -0.489342 0
M  V30 33806 C 3105.74 -3.3705 -0.652105 0
M  V30 33807 C 3104.83 -4.23692 0.186064 0
M  V30 33808 N 3105.22 -4.9009 1.25081 0
M  V30 33809 C 3103.52 -4.45989 -0.0317249 0
M  V30 33810 C 3104.22 -5.54346 1.76282 0
M  V30 33811 N 3103.2 -5.32991 1.06871 0
M  V30 33812 H 3107 -2.75992 1.01022 0
M  V30 33813 H 3104.51 -1.48753 0.651638 0
M  V30 33814 H 3106.51 -4.01895 -1.10844 0
M  V30 33815 H 3105.17 -2.89769 -1.46506 0
M  V30 33816 H 3106.18 -4.91464 1.6335 0
M  V30 33817 H 3102.86 -4.09497 -0.813535 0
M  V30 33818 H 3104.25 -6.1731 2.65289 0
M  V30 33819 N 3106.97 -0.56394 -1.47165 0
M  V30 33820 C 3107.9 0.168107 -2.32894 0
M  V30 33821 C 3108.88 0.902188 -1.44203 0
M  V30 33822 O 3110.06 0.881335 -1.7305 0
M  V30 33823 C 3107.19 1.19433 -3.26118 0
M  V30 33824 C 3106.15 0.576288 -4.24102 0
M  V30 33825 C 3105.47 1.70763 -5.06699 0
M  V30 33826 C 3106.77 -0.474341 -5.20142 0
M  V30 33827 H 3108.47 -0.547625 -2.94349 0
M  V30 33828 H 3106.01 -0.264802 -1.41544 0
M  V30 33829 H 3107.97 1.71467 -3.84938 0
M  V30 33830 H 3106.69 1.9401 -2.62732 0
M  V30 33831 H 3105.35 0.077189 -3.66519 0
M  V30 33832 H 3105 2.4426 -4.39711 0
M  V30 33833 H 3104.7 1.29984 -5.73043 0
M  V30 33834 H 3106.22 2.2311 -5.68379 0
M  V30 33835 H 3107.63 -0.0398043 -5.73286 0
M  V30 33836 H 3106.03 -0.801391 -5.94725 0
M  V30 33837 H 3107.1 -1.36772 -4.65211 0
M  V30 33838 N 3108.44 1.54704 -0.300735 0
M  V30 33839 C 3109.39 2.20219 0.590551 0
M  V30 33840 C 3110.38 1.17509 1.09911 0
M  V30 33841 O 3111.57 1.43229 1.03992 0
M  V30 33842 C 3108.7 2.94628 1.76209 0
M  V30 33843 C 3107.79 4.04654 1.2695 0
M  V30 33844 N 3108.18 5.03373 0.494894 0
M  V30 33845 C 3106.47 4.1819 1.55026 0
M  V30 33846 C 3107.18 5.81235 0.232621 0
M  V30 33847 N 3106.15 5.37496 0.812349 0
M  V30 33848 H 3109.95 2.93899 -0.0088152 0
M  V30 33849 H 3107.47 1.62057 -0.105485 0
M  V30 33850 H 3109.46 3.40031 2.41215 0
M  V30 33851 H 3108.12 2.22465 2.36515 0
M  V30 33852 H 3109.14 5.17711 0.139819 0
M  V30 33853 H 3105.81 3.57232 2.16083 0
M  V30 33854 H 3107.2 6.7077 -0.389479 0
M  V30 33855 N 3109.92 0.0284543 1.57574 0
M  V30 33856 C 3111.34 -0.327931 1.56195 0
M  V30 33857 C 3111.54 -1.72947 1.034 0
M  V30 33858 O 3110.59 -2.43159 0.680435 0
M  V30 33859 C 3111.91 -0.177143 3.00178 0
M  V30 33860 C 3113.46 -0.249959 3.12 0
M  V30 33861 C 3113.93 -0.127968 4.57821 0
M  V30 33862 N 3115.42 -0.184973 4.62831 0
M  V30 33863 C 3116.16 -0.114353 5.73286 0
M  V30 33864 N 3115.65 0.00731402 6.928 0
M  V30 33865 N 3117.45 -0.168292 5.61848 0
M  V30 33866 H 3109.6 0.944955 1.90222 0
M  V30 33867 H 3111.86 0.364847 0.87498 0
M  V30 33868 H 3111.57 0.788284 3.42752 0
M  V30 33869 H 3111.44 -0.947616 3.65103 0
M  V30 33870 H 3113.83 -1.20584 2.69339 0
M  V30 33871 H 3113.91 0.550879 2.49798 0
M  V30 33872 H 3113.55 0.824495 5.01163 0
M  V30 33873 H 3113.48 -0.947662 5.18003 0
M  V30 33874 H 3115.97 -0.279181 3.76867 0
M  V30 33875 H 3116.29 0.0545261 7.72781 0
M  V30 33876 H 3114.63 0.042087 6.94987 0
M  V30 33877 H 3117.82 -0.261739 4.67368 0
M  V30 33878 H 3117.99 -0.109794 6.47907 0
M  V30 33879 N 3111.4 -1.55689 -0.244686 0
M  V30 33880 C 3112.63 -1.81419 -0.988476 0
M  V30 33881 C 3113.04 -0.602175 -1.79361 0
M  V30 33882 O 3112.38 0.438607 -1.78387 0
M  V30 33883 C 3112.44 -3.00533 -1.97282 0
M  V30 33884 C 3112.11 -4.36469 -1.3544 0
M  V30 33885 C 3113.1 -5.14377 -0.755784 0
M  V30 33886 C 3110.79 -4.83168 -1.3731 0
M  V30 33887 C 3112.78 -6.37134 -0.184106 0
M  V30 33888 C 3110.47 -6.05873 -0.797574 0
M  V30 33889 C 3111.47 -6.82695 -0.204104 0
M  V30 33890 O 3111.16 -8.03082 0.362533 0
M  V30 33891 H 3110.89 -0.607554 -0.296401 0
M  V30 33892 H 3113.44 -2.03589 -0.272149 0
M  V30 33893 H 3111.67 -2.74124 -2.72751 0
M  V30 33894 H 3113.36 -3.13336 -2.58022 0
M  V30 33895 H 3114.13 -4.79416 -0.733827 0
M  V30 33896 H 3110.01 -4.23363 -1.82442 0
M  V30 33897 H 3113.55 -6.97039 0.279747 0
M  V30 33898 H 3109.45 -6.40311 -0.816866 0
M  V30 33899 H 3110.22 -8.18104 0.254611 0
M  V30 33900 N 3112.88 0.510441 -1.49105 0
M  V30 33901 C 3113.83 1.63389 -1.6555 0
M  V30 33902 C 3114.82 1.61171 -0.52155 0
M  V30 33903 O 3116.03 1.65793 -0.700894 0
M  V30 33904 H 3112.4 0.541455 -0.521853 0
M  V30 33905 H 3114.37 1.46669 -2.59867 0
M  V30 33906 C 3113.12 3.01574 -1.73056 0
M  V30 33907 H 3112.44 3.03983 -2.59682 0
M  V30 33908 H 3113.88 3.79744 -1.886 0
M  V30 33909 C 3112.34 3.33558 -0.473339 0
M  V30 33910 O 3112.87 3.99651 0.405169 0
M  V30 33911 N 3111.08 2.88614 -0.339125 0
M  V30 33912 H 3110.63 2.35005 -1.05501 0
M  V30 33913 H 3110.58 3.10382 0.501006 0
M  V30 33914 N 3114.36 1.38021 0.760791 0
M  V30 33915 C 3115.77 1.1906 1.06287 0
M  V30 33916 C 3115.97 0.0342957 2.01471 0
M  V30 33917 O 3115.03 -0.622197 2.44714 0
M  V30 33918 C 3116.34 2.51396 1.64986 0
M  V30 33919 C 3117.89 2.58016 1.77191 0
M  V30 33920 C 3118.36 3.9051 2.39303 0
M  V30 33921 N 3119.86 3.92011 2.46742 0
M  V30 33922 C 3120.59 4.91286 2.95678 0
M  V30 33923 N 3120.09 6.00958 3.44705 0
M  V30 33924 N 3121.88 4.78682 2.94653 0
M  V30 33925 H 3114.03 2.12008 0.129007 0
M  V30 33926 H 3116.29 0.940392 0.119861 0
M  V30 33927 H 3116 3.36428 1.02514 0
M  V30 33928 H 3115.87 2.69275 2.64142 0
M  V30 33929 H 3118.26 1.73384 2.38793 0
M  V30 33930 H 3118.34 2.44011 0.767602 0
M  V30 33931 H 3117.99 4.75561 1.78338 0
M  V30 33932 H 3117.92 4.01823 3.40362 0
M  V30 33933 H 3120.41 3.12793 2.12059 0
M  V30 33934 H 3120.72 6.72648 3.8048 0
M  V30 33935 H 3119.06 6.04588 3.42781 0
M  V30 33936 H 3122.26 3.92118 2.55658 0
M  V30 33937 H 3122.43 5.56203 3.32479 0
M  V30 33938 N 3115.83 -0.98818 1.22771 0
M  V30 33939 C 3117.08 -1.73182 1.06675 0
M  V30 33940 C 3117.44 -1.88335 -0.393401 0
M  V30 33941 O 3116.73 -1.41887 -1.28758 0
M  V30 33942 C 3116.92 -3.13463 1.71684 0
M  V30 33943 C 3116.75 -3.11991 3.2387 0
M  V30 33944 C 3115.52 -3.17619 3.92997 0
M  V30 33945 C 3117.72 -2.95771 4.20742 0
M  V30 33946 N 3115.7 -3.0595 5.32229 0
M  V30 33947 C 3117.07 -2.92181 5.46836 0
M  V30 33948 C 3119.13 -2.80197 4.11575 0
M  V30 33949 C 3117.83 -2.74613 6.64816 0
M  V30 33950 C 3119.86 -2.63991 5.2921 0
M  V30 33951 C 3119.22 -2.61093 6.54225 0
M  V30 33952 H 3115.32 -0.643162 0.444822 0
M  V30 33953 H 3117.9 -1.17321 1.55383 0
M  V30 33954 H 3116.07 -3.67559 1.25519 0
M  V30 33955 H 3117.8 -3.76417 1.48636 0
M  V30 33956 H 3114.56 -3.25489 3.44026 0
M  V30 33957 H 3114.98 -3.03412 6.05202 0
M  V30 33958 H 3119.63 -2.81233 3.15702 0
M  V30 33959 H 3117.34 -2.72322 7.60833 0
M  V30 33960 H 3120.93 -2.52916 5.23951 0
M  V30 33961 H 3119.81 -2.48706 7.43717 0
M  V30 33962 N 3117.31 -1.03816 -1.18575 0
M  V30 33963 C 3118.56 -0.735268 -1.87821 0
M  V30 33964 C 3118.87 0.739787 -1.8107 0
M  V30 33965 O 3120.08 1.1561 -2.45656 0
M  V30 33966 C 3118.54 -1.26492 -3.36939 0
M  V30 33967 C 3118.14 -2.76842 -3.52225 0
M  V30 33968 C 3119.89 -1.03844 -4.11603 0
M  V30 33969 C 3117.8 -3.23178 -4.95288 0
M  V30 33970 H 3116.73 -0.271346 -0.703482 0
M  V30 33971 H 3119.38 -1.25367 -1.33998 0
M  V30 33972 H 3117.76 -0.674386 -3.90215 0
M  V30 33973 H 3118.93 -3.41631 -3.09233 0
M  V30 33974 H 3117.25 -2.97874 -2.90964 0
M  V30 33975 H 3119.84 -1.35979 -5.17121 0
M  V30 33976 H 3120.19 0.0244213 -4.16293 0
M  V30 33977 H 3120.72 -1.59345 -3.64492 0
M  V30 33978 H 3117.46 -4.28833 -4.95765 0
M  V30 33979 H 3116.98 -2.63123 -5.39005 0
M  V30 33980 H 3118.66 -3.17055 -5.6399 0
M  V30 33981 N 3118.79 1.34753 -0.817283 0
M  V30 33982 C 3120.02 2.02685 -0.415487 0
M  V30 33983 C 3120.43 1.61564 0.976851 0
M  V30 33984 O 3119.79 0.818349 1.63124 0
M  V30 33985 C 3119.84 3.58004 -0.501549 0
M  V30 33986 O 3119.56 3.97633 -1.839 0
M  V30 33987 C 3121.06 4.432 -0.0939283 0
M  V30 33988 H 3118.28 0.649775 -0.167431 0
M  V30 33989 H 3120.83 1.72148 -1.10387 0
M  V30 33990 H 3118.98 3.87152 0.138698 0
M  V30 33991 H 3119.4 4.92306 -1.80928 0
M  V30 33992 H 3120.87 5.51618 -0.205242 0
M  V30 33993 H 3121.35 4.28536 0.961936 0
M  V30 33994 H 3121.95 4.1937 -0.707751 0
M  V30 33995 N 3120.27 0.571737 1.46864 0
M  V30 33996 C 3121.2 -0.155754 2.3298 0
M  V30 33997 C 3122.18 -0.894528 1.4468 0
M  V30 33998 O 3123.37 -0.872145 1.73514 0
M  V30 33999 C 3120.5 -1.17702 3.26747 0
M  V30 34000 C 3119.45 -0.553789 4.24402 0
M  V30 34001 C 3118.78 -1.68074 5.07598 0
M  V30 34002 C 3120.08 0.501919 5.19883 0
M  V30 34003 H 3121.77 0.563228 2.94055 0
M  V30 34004 H 3119.32 0.272305 1.41402 0
M  V30 34005 H 3121.27 -1.69423 3.85841 0
M  V30 34006 H 3119.99 -1.92614 2.63757 0
M  V30 34007 H 3118.65 -0.0577506 3.66555 0
M  V30 34008 H 3118.3 -2.41925 4.41 0
M  V30 34009 H 3118 -1.26943 5.73724 0
M  V30 34010 H 3119.52 -2.20093 5.69554 0
M  V30 34011 H 3120.94 0.0702065 5.73257 0
M  V30 34012 H 3119.33 0.832919 5.94292 0
M  V30 34013 H 3120.4 1.39237 4.64479 0
M  V30 34014 N 3121.75 -1.54542 0.308935 0
M  V30 34015 C 3122.66 -2.27497 -0.572899 0
M  V30 34016 C 3123.67 -1.31307 -1.14169 0
M  V30 34017 O 3124.85 -1.64301 -1.16478 0
M  V30 34018 C 3121.91 -3.00753 -1.72478 0
M  V30 34019 C 3120.98 -4.12498 -1.18927 0
M  V30 34020 C 3120.21 -4.82251 -2.28626 0
M  V30 34021 O 3120.43 -4.51416 -3.48683 0
M  V30 34022 O 3119.37 -5.69482 -1.94869 0
M  V30 34023 H 3123.19 -3.03694 0.0191411 0
M  V30 34024 H 3120.78 -1.49211 0.0751205 0
M  V30 34025 H 3122.66 -3.46675 -2.39571 0
M  V30 34026 H 3121.33 -2.27444 -2.30328 0
M  V30 34027 H 3120.24 -3.70958 -0.483839 0
M  V30 34028 H 3121.57 -4.87808 -0.6561 0
M  V30 34029 N 3123.23 -0.0368104 -1.57557 0
M  V30 34030 C 3124.17 0.960416 -2.11846 0
M  V30 34031 C 3125.17 1.33183 -1.04684 0
M  V30 34032 O 3126.37 1.31316 -1.2311 0
M  V30 34033 H 3122.75 0.327528 -0.676926 0
M  V30 34034 H 3124.72 0.477294 -2.94558 0
M  V30 34035 C 3123.47 2.231 -2.66687 0
M  V30 34036 H 3122.79 1.95397 -3.48798 0
M  V30 34037 H 3124.23 2.91069 -3.0831 0
M  V30 34038 C 3122.69 2.96597 -1.59788 0
M  V30 34039 O 3123.22 3.88997 -1.00221 0
M  V30 34040 N 3121.43 2.59069 -1.31649 0
M  V30 34041 H 3120.97 1.84007 -1.80275 0
M  V30 34042 H 3120.93 3.08553 -0.603511 0
M  V30 34043 N 3124.7 1.55817 0.236426 0
M  V30 34044 C 3125.95 1.77338 0.96095 0
M  V30 34045 C 3126.27 0.602674 1.86084 0
M  V30 34046 O 3127.47 0.701152 2.6229 0
M  V30 34047 C 3125.93 3.13998 1.75879 0
M  V30 34048 C 3125.54 4.38748 0.905772 0
M  V30 34049 C 3127.28 3.44853 2.47542 0
M  V30 34050 C 3125.19 5.66437 1.7001 0
M  V30 34051 H 3124.12 0.661124 0.362535 0
M  V30 34052 H 3126.77 1.82233 0.215271 0
M  V30 34053 H 3125.15 3.03238 2.54681 0
M  V30 34054 H 3126.32 4.60524 0.159334 0
M  V30 34055 H 3124.64 4.15304 0.301977 0
M  V30 34056 H 3127.24 4.37473 3.07444 0
M  V30 34057 H 3127.58 2.6666 3.19684 0
M  V30 34058 H 3128.11 3.56875 1.75741 0
M  V30 34059 H 3124.85 6.4748 1.02222 0
M  V30 34060 H 3124.37 5.48745 2.42154 0
M  V30 34061 H 3126.05 6.06074 2.26458 0
M  V30 34062 N 3126.18 -0.502526 1.49373 0
M  V30 34063 C 3127.6 -0.833567 1.36102 0
M  V30 34064 C 3127.8 -1.97631 0.392946 0
M  V30 34065 O 3126.85 -2.51886 -0.175931 0
M  V30 34066 C 3128.17 -1.17521 2.76784 0
M  V30 34067 C 3129.71 -1.28351 2.85473 0
M  V30 34068 C 3130.19 -1.65845 4.26918 0
M  V30 34069 N 3131.68 -1.72897 4.29722 0
M  V30 34070 C 3132.42 -2.0335 5.36131 0
M  V30 34071 N 3131.91 -2.32038 6.52787 0
M  V30 34072 N 3133.7 -2.04588 5.23546 0
M  V30 34073 H 3125.86 0.251046 2.10911 0
M  V30 34074 H 3128.12 0.0497203 0.946695 0
M  V30 34075 H 3127.82 -0.408903 3.49315 0
M  V30 34076 H 3127.7 -2.11901 3.12054 0
M  V30 34077 H 3130.09 -2.04054 2.1318 0
M  V30 34078 H 3130.17 -0.320259 2.53787 0
M  V30 34079 H 3129.81 -0.906934 4.99737 0
M  V30 34080 H 3129.74 -2.63268 4.56068 0
M  V30 34081 H 3132.23 -1.52894 3.45589 0
M  V30 34082 H 3132.54 -2.54458 7.29706 0
M  V30 34083 H 3130.89 -2.29497 6.56015 0
M  V30 34084 H 3134.08 -1.81652 4.31416 0
M  V30 34085 H 3134.25 -2.27988 6.06569 0
M  V30 34086 N 3127.66 -1.38422 -0.75346 0
M  V30 34087 C 3128.88 -1.3805 -1.54781 0
M  V30 34088 C 3129.31 0.027604 -1.8808 0
M  V30 34089 O 3128.67 1.0097 -1.50581 0
M  V30 34090 C 3128.72 -2.24302 -2.82349 0
M  V30 34091 O 3127.82 -1.6602 -3.77506 0
M  V30 34092 H 3127.16 -0.470891 -0.468143 0
M  V30 34093 H 3129.69 -1.82185 -0.931112 0
M  V30 34094 H 3129.7 -2.38165 -3.31273 0
M  V30 34095 H 3128.38 -3.26643 -2.57443 0
M  V30 34096 H 3126.95 -1.613 -3.3621 0
M  V30 34097 N 3129.14 0.981655 -1.23294 0
M  V30 34098 C 3130.55 1.24762 -0.995317 0
M  V30 34099 C 3130.75 1.99188 0.304344 0
M  V30 34100 O 3129.81 2.30799 1.0241 0
M  V30 34101 C 3131.12 2.0484 -2.20139 0
M  V30 34102 C 3132.67 2.17984 -2.24615 0
M  V30 34103 C 3133.15 3.01452 -3.44805 0
M  V30 34104 N 3134.64 3.09037 -3.45036 0
M  V30 34105 C 3135.37 3.73942 -4.34689 0
M  V30 34106 N 3134.87 4.40681 -5.34577 0
M  V30 34107 N 3136.66 3.70816 -4.22436 0
M  V30 34108 H 3128.81 0.483016 -2.06835 0
M  V30 34109 H 3131.07 0.275998 -0.906934 0
M  V30 34110 H 3130.78 1.57527 -3.14449 0
M  V30 34111 H 3130.65 3.0559 -2.21121 0
M  V30 34112 H 3133.04 2.64506 -1.30845 0
M  V30 34113 H 3133.12 1.16627 -2.27666 0
M  V30 34114 H 3132.77 2.55627 -4.38882 0
M  V30 34115 H 3132.7 4.02976 -3.38996 0
M  V30 34116 H 3135.19 2.6155 -2.72763 0
M  V30 34117 H 3135.5 4.87981 -5.99245 0
M  V30 34118 H 3133.85 4.39393 -5.38478 0
M  V30 34119 H 3137.04 3.17845 -3.43645 0
M  V30 34120 H 3137.21 4.21117 -4.92508 0
M  V30 34121 N 3130.62 1.04444 1.18022 0
M  V30 34122 C 3131.84 0.770131 1.92571 0
M  V30 34123 C 3132.27 -0.667138 1.75872 0
M  V30 34124 O 3131.62 -1.46256 1.07139 0
M  V30 34125 C 3131.67 1.14608 3.41902 0
M  V30 34126 O 3130.78 0.273784 4.1149 0
M  V30 34127 H 3130.12 0.283086 0.600631 0
M  V30 34128 H 3132.65 1.39529 1.49643 0
M  V30 34129 H 3132.66 1.10963 3.92621 0
M  V30 34130 H 3131.33 2.1931 3.53378 0
M  V30 34131 H 3129.91 0.37019 3.71058 0
M  V30 34132 N 3132.09 -1.34317 0.824418 0
M  V30 34133 C 3133.32 -2.02994 0.42523 0
M  V30 34134 C 3133.74 -1.61672 -0.961448 0
M  V30 34135 O 3133.1 -0.802098 -1.62592 0
M  V30 34136 C 3133.15 -3.56578 0.537067 0
M  V30 34137 O 3132.25 -4.10019 -0.442504 0
M  V30 34138 H 3131.59 -0.640561 0.174864 0
M  V30 34139 H 3134.12 -1.71532 1.11525 0
M  V30 34140 H 3134.13 -4.059 0.413382 0
M  V30 34141 H 3132.81 -3.86001 1.54842 0
M  V30 34142 H 3131.39 -3.71865 -0.277579 0
M  V30 34143 N 3133.57 -0.579517 -1.46558 0
M  V30 34144 C 3134.5 0.143396 -2.33059 0
M  V30 34145 C 3135.48 0.886843 -1.45152 0
M  V30 34146 O 3136.67 0.862931 -1.73975 0
M  V30 34147 C 3133.8 1.15968 -3.27366 0
M  V30 34148 C 3132.75 0.531274 -4.2469 0
M  V30 34149 C 3132.08 1.65379 -5.08482 0
M  V30 34150 C 3133.38 -0.529482 -5.19609 0
M  V30 34151 H 3135.07 -0.578814 -2.93752 0
M  V30 34152 H 3132.62 -0.2798 -1.41256 0
M  V30 34153 H 3134.57 1.67375 -3.86735 0
M  V30 34154 H 3133.29 1.91212 -2.64774 0
M  V30 34155 H 3131.95 0.0383105 -3.6658 0
M  V30 34156 H 3131.6 2.39583 -4.42277 0
M  V30 34157 H 3131.3 1.23899 -5.74389 0
M  V30 34158 H 3132.83 2.17069 -5.70713 0
M  V30 34159 H 3134.24 -0.100607 -5.73212 0
M  V30 34160 H 3132.64 -0.864425 -5.93841 0
M  V30 34161 H 3133.71 -1.41699 -4.63734 0
M  V30 34162 N 3135.05 1.54376 -0.317127 0
M  V30 34163 C 3135.98 2.27061 0.544583 0
M  V30 34164 C 3136.96 1.27613 1.12467 0
M  V30 34165 O 3138.15 1.56415 1.151 0
M  V30 34166 C 3135.28 3.02356 1.70874 0
M  V30 34167 C 3134.23 4.09087 1.25826 0
M  V30 34168 C 3133.56 4.72187 2.50886 0
M  V30 34169 C 3134.86 5.20932 0.377784 0
M  V30 34170 H 3136.55 2.99336 -0.0616898 0
M  V30 34171 H 3134.1 1.43966 -0.0311101 0
M  V30 34172 H 3136.05 3.51931 2.3178 0
M  V30 34173 H 3134.77 2.27686 2.34151 0
M  V30 34174 H 3133.43 3.60385 0.672164 0
M  V30 34175 H 3133.08 3.94139 3.12511 0
M  V30 34176 H 3132.78 5.44279 2.21438 0
M  V30 34177 H 3134.3 5.24533 3.12566 0
M  V30 34178 H 3135.72 5.66303 0.892957 0
M  V30 34179 H 3134.12 5.99841 0.176368 0
M  V30 34180 H 3135.19 4.8126 -0.593028 0
M  V30 34181 N 3136.53 0.0451655 1.57535 0
M  V30 34182 C 3137.81 -0.669491 1.83786 0
M  V30 34183 C 3138.19 -1.89394 0.932364 0
M  V30 34184 O 3137.53 -2.28499 -0.00809212 0
M  V30 34185 C 3137.74 -1.03249 3.33378 0
M  V30 34186 C 3139.09 -1.41734 4.00246 0
M  V30 34187 O 3140.12 -1.12501 3.37967 0
M  V30 34188 O 3138.97 -1.96266 5.10041 0
M  V30 34189 H 3136.07 -0.329906 0.758348 0
M  V30 34190 H 3138.61 0.0740713 1.69538 0
M  V30 34191 H 3137.39 -0.161709 3.90966 0
M  V30 34192 H 3137.01 -1.8337 3.52791 0
M  V30 34193 N 3138.01 -1.5594 -0.228159 0
M  V30 34194 C 3139.24 -1.82457 -0.969179 0
M  V30 34195 C 3139.64 -0.621164 -1.78713 0
M  V30 34196 O 3138.99 0.419662 -1.78842 0
M  V30 34197 C 3139.05 -3.02609 -1.94083 0
M  V30 34198 C 3138.71 -4.37881 -1.30803 0
M  V30 34199 C 3139.71 -5.1515 -0.701185 0
M  V30 34200 C 3137.4 -4.84597 -1.32178 0
M  V30 34201 C 3139.39 -6.37293 -0.116519 0
M  V30 34202 C 3137.08 -6.06685 -0.733269 0
M  V30 34203 C 3138.07 -6.82873 -0.131684 0
M  V30 34204 O 3137.76 -8.02652 0.44769 0
M  V30 34205 H 3137.49 -0.610664 -0.28994 0
M  V30 34206 H 3140.05 -2.03866 -0.250541 0
M  V30 34207 H 3138.28 -2.77001 -2.69828 0
M  V30 34208 H 3139.97 -3.16055 -2.54684 0
M  V30 34209 H 3140.73 -4.80168 -0.682938 0
M  V30 34210 H 3136.61 -4.25274 -1.77942 0
M  V30 34211 H 3140.16 -6.96703 0.353661 0
M  V30 34212 H 3136.05 -6.41141 -0.748906 0
M  V30 34213 H 3136.82 -8.17788 0.341368 0
M  V30 34214 N 3139.48 0.494597 -1.49638 0
M  V30 34215 C 3140.71 1.27688 -1.63433 0
M  V30 34216 C 3141.13 1.85559 -0.308163 0
M  V30 34217 O 3140.49 1.66171 0.725054 0
M  V30 34218 C 3140.54 2.37835 -2.71048 0
M  V30 34219 O 3139.64 3.41858 -2.30666 0
M  V30 34220 H 3138.99 0.376688 -0.546811 0
M  V30 34221 H 3141.52 0.591378 -1.95867 0
M  V30 34222 H 3141.53 2.83503 -2.93411 0
M  V30 34223 H 3140.2 1.95082 -3.67309 0
M  V30 34224 H 3138.78 3.02065 -2.18658 0
M  V30 34225 N 3140.96 1.3882 0.746109 0
M  V30 34226 C 3142.2 1.3686 1.51818 0
M  V30 34227 C 3142.57 -0.0391124 1.9196 0
M  V30 34228 O 3143.77 -0.183642 2.68172 0
M  V30 34229 C 3142.04 2.30415 2.7321 0
M  V30 34230 S 3143.6 2.46542 3.62991 0
M  V30 34231 H 3140.42 0.485491 0.519441 0
M  V30 34232 H 3143.02 1.74815 0.875214 0
M  V30 34233 H 3141.72 3.31574 2.41841 0
M  V30 34234 H 3141.25 1.93636 3.42445 0
M  V30 34235 H 3143.27 1.69506 4.6635 0
M  V30 34236 N 3142.44 -0.975103 1.23812 0
M  V30 34237 C 3143.37 -2.08636 1.04849 0
M  V30 34238 C 3144.35 -1.70061 -0.036256 0
M  V30 34239 O 3145.54 -1.93768 0.129404 0
M  V30 34240 C 3142.67 -3.41266 0.644594 0
M  V30 34241 C 3141.62 -3.93765 1.67728 0
M  V30 34242 C 3140.95 -5.22652 1.12867 0
M  V30 34243 C 3142.25 -4.22437 3.07155 0
M  V30 34244 H 3143.94 -2.24758 1.97799 0
M  V30 34245 H 3141.49 -1.08005 0.952416 0
M  V30 34246 H 3143.44 -4.18436 0.498961 0
M  V30 34247 H 3142.16 -3.25023 -0.320583 0
M  V30 34248 H 3140.82 -3.18745 1.811 0
M  V30 34249 H 3140.47 -5.02763 0.154316 0
M  V30 34250 H 3140.17 -5.58745 1.81872 0
M  V30 34251 H 3141.69 -6.02439 0.994997 0
M  V30 34252 H 3143.11 -4.90338 2.97054 0
M  V30 34253 H 3141.51 -4.69743 3.73445 0
M  V30 34254 H 3142.58 -3.29501 3.55749 0
M  V30 34255 N 3143.92 -1.05068 -1.17467 0
M  V30 34256 C 3145.16 -0.769045 -1.89381 0
M  V30 34257 C 3145.52 0.691185 -1.79127 0
M  V30 34258 O 3146.72 1.08687 -2.45847 0
M  V30 34259 C 3144.99 -1.23471 -3.35395 0
M  V30 34260 S 3146.55 -1.08025 -4.25295 0
M  V30 34261 H 3143.37 -0.279324 -0.653834 0
M  V30 34262 H 3145.97 -1.34506 -1.41875 0
M  V30 34263 H 3144.68 -2.29264 -3.40391 0
M  V30 34264 H 3144.21 -0.652921 -3.87944 0
M  V30 34265 H 3146.22 -0.00367295 -4.962 0
M  V30 34266 N 3145.4 1.33878 -0.831529 0
M  V30 34267 C 3146.65 1.97277 -0.420062 0
M  V30 34268 C 3146.96 1.66631 1.02438 0
M  V30 34269 O 3148.16 2.23586 1.54017 0
M  V30 34270 C 3146.62 3.53023 -0.700178 0
M  V30 34271 C 3146.23 3.92555 -2.15881 0
M  V30 34272 C 3147.97 4.2301 -0.3553 0
M  V30 34273 C 3145.88 5.41248 -2.38336 0
M  V30 34274 H 3144.81 0.738243 -0.153339 0
M  V30 34275 H 3147.46 1.526 -1.01909 0
M  V30 34276 H 3145.84 3.95988 -0.030874 0
M  V30 34277 H 3147.02 3.6067 -2.86799 0
M  V30 34278 H 3145.33 3.35529 -2.46596 0
M  V30 34279 H 3147.93 5.3235 -0.500795 0
M  V30 34280 H 3148.27 4.10355 0.701038 0
M  V30 34281 H 3148.8 3.85552 -0.979534 0
M  V30 34282 H 3145.54 5.589 -3.42508 0
M  V30 34283 H 3145.06 5.74618 -1.71972 0
M  V30 34284 H 3146.74 6.08041 -2.21123 0
M  V30 34285 N 3146.87 0.587281 1.46249 0
M  V30 34286 C 3148.12 0.0744628 2.01963 0
M  V30 34287 C 3148.44 -1.29187 1.46068 0
M  V30 34288 O 3147.71 -1.84904 0.647109 0
M  V30 34289 H 3146.29 0.0245367 0.746597 0
M  V30 34290 H 3148.96 0.764095 1.79298 0
M  V30 34291 H 3148.05 0.00890379 3.12099 0
M  V30 34292 N 3148.35 -1.54206 0.325309 0
M  V30 34293 C 3149.58 -2.04718 -0.278249 0
M  V30 34294 C 3149.99 -1.20098 -1.46196 0
M  V30 34295 O 3149.33 -0.224845 -1.82319 0
M  V30 34296 C 3149.4 -3.51062 -0.774326 0
M  V30 34297 C 3149.06 -4.56096 0.287305 0
M  V30 34298 C 3150.06 -5.07605 1.12397 0
M  V30 34299 C 3147.74 -5.00404 0.435996 0
M  V30 34300 C 3149.74 -6.01986 2.09503 0
M  V30 34301 C 3147.42 -5.946 1.41047 0
M  V30 34302 C 3148.42 -6.45277 2.23846 0
M  V30 34303 O 3148.11 -7.37623 3.19638 0
M  V30 34304 H 3147.84 -0.673259 -0.060819 0
M  V30 34305 H 3150.39 -1.99948 0.470084 0
M  V30 34306 H 3148.62 -3.53235 -1.5736 0
M  V30 34307 H 3150.31 -3.8464 -1.29642 0
M  V30 34308 H 3151.08 -4.74151 1.02008 0
M  V30 34309 H 3146.96 -4.60572 -0.198587 0
M  V30 34310 H 3150.5 -6.41465 2.74168 0
M  V30 34311 H 3146.4 -6.2747 1.51498 0
M  V30 34312 H 3147.17 -7.55501 3.14897 0
M  V30 34313 N 3149.83 -0.0535194 -1.57509 0
M  V30 34314 C 3151.06 0.63276 -1.97512 0
M  V30 34315 C 3151.48 1.63446 -0.930976 0
M  V30 34316 O 3150.84 1.80993 0.105526 0
M  V30 34317 C 3150.89 1.29401 -3.36582 0
M  V30 34318 O 3149.99 2.40971 -3.34674 0
M  V30 34319 H 3149.33 0.164298 -0.643352 0
M  V30 34320 H 3151.86 -0.122616 -2.04232 0
M  V30 34321 H 3151.87 1.64514 -3.73362 0
M  V30 34322 H 3150.55 0.559903 -4.12114 0
M  V30 34323 H 3149.12 2.07787 -3.09643 0
M  V30 34324 N 3151.31 1.56059 0.219886 0
M  V30 34325 C 3152.56 1.80323 0.941023 0
M  V30 34326 C 3152.91 0.626767 1.81905 0
M  V30 34327 O 3152.2 -0.379114 1.87812 0
M  V30 34328 C 3152.4 3.08009 1.81287 0
M  V30 34329 C 3152.23 4.37962 1.02074 0
M  V30 34330 C 3151 5.00216 0.715008 0
M  V30 34331 C 3153.19 5.12855 0.385251 0
M  V30 34332 N 3151.18 6.13821 -0.0983539 0
M  V30 34333 C 3152.55 6.19315 -0.291428 0
M  V30 34334 C 3154.6 4.97005 0.298452 0
M  V30 34335 C 3153.31 7.11645 -1.04661 0
M  V30 34336 C 3155.33 5.89736 -0.443263 0
M  V30 34337 C 3154.69 6.95624 -1.10848 0
M  V30 34338 H 3150.79 0.711469 0.324555 0
M  V30 34339 H 3153.38 1.93545 0.211761 0
M  V30 34340 H 3151.55 2.96067 2.51394 0
M  V30 34341 H 3153.28 3.20458 2.47161 0
M  V30 34342 H 3150.03 4.62187 1.03343 0
M  V30 34343 H 3150.46 6.75196 -0.493919 0
M  V30 34344 H 3155.1 4.15193 0.798405 0
M  V30 34345 H 3152.82 7.92937 -1.55807 0
M  V30 34346 H 3156.4 5.79548 -0.51145 0
M  V30 34347 H 3155.28 7.66141 -1.67324 0
M  V30 34348 N 3152.79 -0.486655 1.49898 0
M  V30 34349 C 3153.73 -1.58655 1.67622 0
M  V30 34350 C 3154.7 -1.57831 0.517565 0
M  V30 34351 O 3155.89 -1.75599 0.746303 0
M  V30 34352 C 3153.03 -2.96725 1.76206 0
M  V30 34353 C 3152.14 -3.07456 3.03471 0
M  V30 34354 C 3151.28 -4.36346 3.02945 0
M  V30 34355 C 3150.32 -4.40763 4.24729 0
M  V30 34356 N 3149.45 -5.61101 4.22031 0
M  V30 34357 H 3154.29 -1.42848 2.61531 0
M  V30 34358 H 3151.83 -0.694784 1.29658 0
M  V30 34359 H 3153.79 -3.76771 1.79163 0
M  V30 34360 H 3152.42 -3.11202 0.857507 0
M  V30 34361 H 3151.47 -2.20382 3.10058 0
M  V30 34362 H 3152.78 -3.06579 3.9346 0
M  V30 34363 H 3151.94 -5.24726 3.04545 0
M  V30 34364 H 3150.68 -4.39809 2.10759 0
M  V30 34365 H 3149.68 -3.50782 4.23358 0
M  V30 34366 H 3150.91 -4.39004 5.18124 0
M  V30 34367 H 3148.85 -5.65379 3.3269 0
M  V30 34368 H 3148.77 -5.619 5.05771 0
M  V30 34369 H 3150.04 -6.51649 4.27755 0
M  V30 34370 N 3154.27 -1.39214 -0.738737 0
M  V30 34371 C 3155.68 -1.32351 -1.31682 0
M  V30 34372 C 3156.03 0.0138696 -1.96195 0
M  V30 34373 O 3155.15 0.915991 -1.96058 0
M  V30 34374 C 3155.75 -2.39695 -2.3944 0
M  V30 34375 C 3154.31 -2.36365 -2.92931 0
M  V30 34376 C 3153.45 -2.21779 -1.66461 0
M  V30 34377 H 3156.4 -1.49356 -0.536517 0
M  V30 34378 H 3156.43 -2.06268 -3.1974 0
M  V30 34379 H 3155.94 -3.37019 -1.92457 0
M  V30 34380 H 3154.04 -1.42668 -3.44204 0
M  V30 34381 H 3154.15 -3.31079 -3.463 0
M  V30 34382 H 3152.52 -1.68887 -1.90654 0
M  V30 34383 H 3153.3 -3.21067 -1.21535 0
M  V30 34384 N 3155.74 0.968523 -1.24328 0
M  V30 34385 C 3156.71 2.04452 -1.03595 0
M  V30 34386 C 3157.71 1.60799 0.00645263 0
M  V30 34387 O 3158.9 1.72615 -0.234434 0
M  V30 34388 C 3156.03 3.36101 -0.569979 0
M  V30 34389 H 3157.22 2.24279 -1.99096 0
M  V30 34390 H 3154.77 1.14364 -1.06539 0
M  V30 34391 H 3155.51 3.21967 0.388268 0
M  V30 34392 H 3155.29 3.6913 -1.32233 0
M  V30 34393 H 3156.78 4.15212 -0.445927 0
M  V30 34394 N 3157.22 1.0569 1.16908 0
M  V30 34395 C 3158.17 0.632377 2.19055 0
M  V30 34396 C 3159.16 -0.33377 1.574 0
M  V30 34397 O 3160.35 -0.150192 1.76362 0
M  V30 34398 C 3157.48 0.0138812 3.43297 0
M  V30 34399 C 3156.56 1.00416 4.12041 0
M  V30 34400 N 3156.95 2.17745 4.56531 0
M  V30 34401 C 3155.25 0.83374 4.38138 0
M  V30 34402 C 3155.95 2.80434 5.09639 0
M  V30 34403 N 3154.93 2.082 5.02149 0
M  V30 34404 H 3158.73 1.52625 2.51163 0
M  V30 34405 H 3156.24 0.927731 1.33293 0
M  V30 34406 H 3158.24 -0.308044 4.1576 0
M  V30 34407 H 3156.9 -0.875325 3.12679 0
M  V30 34408 H 3157.91 2.55554 4.50458 0
M  V30 34409 H 3154.59 -0.00399345 4.175 0
M  V30 34410 H 3155.98 3.79962 5.54147 0
M  V30 34411 N 3158.7 -1.33435 0.838617 0
M  V30 34412 C 3159.66 -2.27521 0.276883 0
M  V30 34413 C 3160.66 -1.50946 -0.554249 0
M  V30 34414 O 3161.85 -1.70267 -0.368077 0
M  V30 34415 C 3158.98 -3.35398 -0.609977 0
M  V30 34416 H 3160.18 -2.78717 1.1071 0
M  V30 34417 H 3157.73 -1.43834 0.611682 0
M  V30 34418 H 3158.47 -2.89443 -1.46264 0
M  V30 34419 H 3158.25 -3.92097 -0.0152926 0
M  V30 34420 H 3159.74 -4.05541 -0.996297 0
M  V30 34421 N 3160.18 -0.595029 -1.45935 0
M  V30 34422 C 3161.12 0.131125 -2.30427 0
M  V30 34423 C 3162.09 0.872207 -1.41357 0
M  V30 34424 O 3163.28 0.860437 -1.70297 0
M  V30 34425 C 3160.42 1.13081 -3.26047 0
M  V30 34426 C 3159.53 0.391906 -4.30219 0
M  V30 34427 C 3158.67 1.38021 -5.12956 0
M  V30 34428 C 3157.71 0.628398 -6.08866 0
M  V30 34429 N 3156.84 1.56536 -6.84427 0
M  V30 34430 H 3161.68 -0.595411 -2.91991 0
M  V30 34431 H 3159.22 -0.30543 -1.43894 0
M  V30 34432 H 3161.18 1.72341 -3.7994 0
M  V30 34433 H 3159.81 1.82491 -2.66264 0
M  V30 34434 H 3158.86 -0.315962 -3.79086 0
M  V30 34435 H 3160.17 -0.195261 -4.98418 0
M  V30 34436 H 3159.33 2.04524 -5.71187 0
M  V30 34437 H 3158.07 2.0013 -4.44746 0
M  V30 34438 H 3157.07 -0.0503397 -5.49777 0
M  V30 34439 H 3158.3 0.0125217 -6.79099 0
M  V30 34440 H 3156.24 2.17434 -6.18917 0
M  V30 34441 H 3156.16 1.03131 -7.48933 0
M  V30 34442 H 3157.43 2.22036 -7.47208 0
M  V30 34443 N 3161.66 1.54031 -0.333483 0
M  V30 34444 C 3162.88 2.0516 0.267777 0
M  V30 34445 C 3163.3 1.20906 1.45007 0
M  V30 34446 O 3162.66 0.242026 1.80888 0
M  V30 34447 C 3162.71 3.54803 0.692618 0
M  V30 34448 O 3162.43 4.35858 -0.442655 0
M  V30 34449 C 3163.93 4.22063 1.35565 0
M  V30 34450 H 3161.15 0.668865 0.0534807 0
M  V30 34451 H 3163.69 1.98725 -0.48255 0
M  V30 34452 H 3161.85 3.61493 1.3929 0
M  V30 34453 H 3162.26 5.24393 -0.106007 0
M  V30 34454 H 3163.74 5.28189 1.60376 0
M  V30 34455 H 3164.21 3.73787 2.30607 0
M  V30 34456 H 3164.82 4.19539 0.697674 0
M  V30 34457 N 3163.13 0.0618717 1.57479 0
M  V30 34458 C 3164.06 -0.906562 2.15183 0
M  V30 34459 C 3165.04 -1.31722 1.07626 0
M  V30 34460 O 3166.23 -1.39003 1.35616 0
M  V30 34461 C 3163.36 -2.17767 2.70546 0
M  V30 34462 C 3162.31 -1.90673 3.83181 0
M  V30 34463 C 3161.64 -3.2433 4.25105 0
M  V30 34464 C 3162.94 -1.21985 5.07855 0
M  V30 34465 H 3164.63 -0.425888 2.96355 0
M  V30 34466 H 3162.18 -0.20341 1.42556 0
M  V30 34467 H 3164.13 -2.85924 3.09557 0
M  V30 34468 H 3162.86 -2.68059 1.8658 0
M  V30 34469 H 3161.52 -1.24925 3.44658 0
M  V30 34470 H 3161.16 -3.72443 3.38075 0
M  V30 34471 H 3160.86 -3.06996 5.01026 0
M  V30 34472 H 3162.39 -3.93701 4.66725 0
M  V30 34473 H 3163.8 -1.80195 5.44245 0
M  V30 34474 H 3162.2 -1.14943 5.88989 0
M  V30 34475 H 3163.27 -0.197451 4.84498 0
M  V30 34476 N 3164.61 -1.56173 -0.211607 0
M  V30 34477 C 3165.86 -1.79913 -0.935903 0
M  V30 34478 C 3166.19 -0.633188 -1.83588 0
M  V30 34479 O 3165.47 0.367099 -1.91004 0
M  V30 34480 C 3165.75 -3.13804 -1.76633 0
M  V30 34481 C 3165.6 -4.40863 -0.892181 0
M  V30 34482 C 3166.92 -3.44228 -2.74218 0
M  V30 34483 H 3164.04 -0.654505 -0.33881 0
M  V30 34484 H 3166.68 -1.889 -0.204187 0
M  V30 34485 H 3164.83 -3.06274 -2.39016 0
M  V30 34486 H 3166.5 -4.60423 -0.284326 0
M  V30 34487 H 3164.75 -4.33348 -0.198069 0
M  V30 34488 H 3165.42 -5.31007 -1.50783 0
M  V30 34489 H 3167.89 -3.5195 -2.21969 0
M  V30 34490 H 3166.77 -4.39063 -3.29416 0
M  V30 34491 H 3167.03 -2.66891 -3.52451 0
M  V30 34492 O 3166.13 0.356976 -1.57505 0
M  V30 34493 H 3166.82 1.00729 -1.65449 0
M  V30 END ATOM
M  V30 BEGIN BOND
M  V30 END BOND
M  V30 END CTAB
M  END
$$$$
