drugbank_target|P11349 Respiratory nitrate reductase 1 beta chain (DB04464; DB07349)
 OpenBabel12092120423D

  0  0  0     0  0            999 V3000
M  V30 BEGIN CTAB
M  V30 COUNTS 8084 8183 0 0 0
M  V30 BEGIN ATOM
M  V30 1 H -0.908 1.98254 -0.117106 0
M  V30 2 N 0 1.576 0 0
M  V30 3 C 0.933 2.03868 1.02534 0
M  V30 4 C 1.911 0.928543 1.3348 0
M  V30 5 O 3.095 1.19667 1.45644 0
M  V30 6 C 0.222 2.43627 2.35294 0
M  V30 7 C -0.732 3.65373 2.2001 0
M  V30 8 S 0.101 5.13292 1.52614 0
M  V30 9 C 1.257 5.56322 2.86805 0
M  V30 10 H 1.49 2.90518 0.631377 0
M  V30 11 H -0.977 1.52953 0.210867 0
M  V30 12 H 0.981 2.67203 3.11629 0
M  V30 13 H -0.358 1.57376 2.7183 0
M  V30 14 H -1.165 3.90944 3.18086 0
M  V30 15 H -1.563 3.418 1.51819 0
M  V30 16 H 0.729 5.58782 3.83104 0
M  V30 17 H 1.672 6.56266 2.65933 0
M  V30 18 H 2.08 4.83886 2.90714 0
M  V30 19 N 1.4781 -0.272755 1.55222 0
M  V30 20 C 2.4251 -1.33716 1.88119 0
M  V30 21 C 3.3951 -1.49066 0.73271 0
M  V30 22 O 4.5801 -1.63469 0.984002 0
M  V30 23 C 1.7201 -2.69238 2.15882 0
M  V30 24 C 0.8331 -2.62108 3.43399 0
M  V30 25 C -0.0319 -3.89811 3.60861 0
M  V30 26 C -0.9929 -3.77193 4.8207 0
M  V30 27 N -1.8559 -4.9673 4.96189 0
M  V30 28 H 2.9841 -1.04962 2.78903 0
M  V30 29 H 0.5211 -0.507088 1.38083 0
M  V30 30 H 2.4791 -3.48089 2.29978 0
M  V30 31 H 1.1091 -2.96194 1.28331 0
M  V30 32 H 0.1611 -1.74967 3.37773 0
M  V30 33 H 1.4731 -2.48685 4.32386 0
M  V30 34 H 0.6271 -4.77103 3.74777 0
M  V30 35 H -0.6339 -4.06102 2.7006 0
M  V30 36 H -1.6289 -2.88284 4.68159 0
M  V30 37 H -0.4039 -3.62421 5.74307 0
M  V30 38 H -2.4579 -5.13431 4.08319 0
M  V30 39 H -2.5409 -4.85839 5.79221 0
M  V30 40 H -1.2729 -5.85594 5.1449 0
M  V30 41 N 2.9562 -1.48159 -0.537278 0
M  V30 42 C 4.2052 -1.5506 -1.28993 0
M  V30 43 C 4.5182 -0.226211 -1.94288 0
M  V30 44 O 5.7242 -0.173395 -2.70946 0
M  V30 45 C 4.1802 -2.73429 -2.34018 0
M  V30 46 C 3.7882 -4.1248 -1.74825 0
M  V30 47 C 5.5322 -2.89638 -3.10339 0
M  V30 48 C 3.4392 -5.22121 -2.77747 0
M  V30 49 H 2.3692 -0.577231 -0.485098 0
M  V30 50 H 5.0202 -1.74478 -0.568317 0
M  V30 51 H 3.4022 -2.47431 -3.09182 0
M  V30 52 H 4.5762 -4.48466 -1.05899 0
M  V30 53 H 2.8912 -4.01327 -1.11022 0
M  V30 54 H 5.4882 -3.68718 -3.87235 0
M  V30 55 H 5.8312 -1.9882 -3.65754 0
M  V30 56 H 6.3642 -3.15502 -2.42288 0
M  V30 57 H 3.1032 -6.1488 -2.27161 0
M  V30 58 H 2.6232 -4.90631 -3.45024 0
M  V30 59 H 4.3022 -5.49924 -3.4087 0
M  V30 60 N 4.4343 0.785586 -1.36625 0
M  V30 61 C 5.8503 1.08419 -1.17122 0
M  V30 62 C 6.0503 2.015 0.00208491 0
M  V30 63 O 5.1063 2.43551 0.666278 0
M  V30 64 C 6.4193 1.69498 -2.48377 0
M  V30 65 C 7.9673 1.81821 -2.54775 0
M  V30 66 C 8.4423 2.46315 -3.86126 0
M  V30 67 N 9.9333 2.53779 -3.87492 0
M  V30 68 C 10.6683 3.045 -4.85868 0
M  V30 69 N 10.1643 3.55499 -5.94637 0
M  V30 70 N 11.9573 3.03247 -4.73284 0
M  V30 71 H 4.1083 0.167264 -2.1174 0
M  V30 72 H 6.3713 0.13682 -0.938075 0
M  V30 73 H 6.0773 1.08571 -3.34522 0
M  V30 74 H 5.9513 2.6896 -2.64462 0
M  V30 75 H 8.3383 2.41884 -1.69045 0
M  V30 76 H 8.4193 0.811532 -2.42586 0
M  V30 77 H 8.0633 1.86895 -4.72263 0
M  V30 78 H 7.9933 3.47561 -3.95612 0
M  V30 79 H 10.4843 2.17672 -3.08913 0
M  V30 80 H 10.7973 3.92562 -6.65669 0
M  V30 81 H 9.1423 3.5364 -5.98301 0
M  V30 82 H 12.3333 2.62696 -3.87438 0
M  V30 83 H 12.5063 3.42467 -5.50109 0
M  V30 84 N 5.9124 1.20967 1.01018 0
M  V30 85 C 7.1374 1.0503 1.78839 0
M  V30 86 C 7.5624 -0.395752 1.8389 0
M  V30 87 O 6.9204 -1.28529 1.27867 0
M  V30 88 C 6.9684 1.64602 3.2084 0
M  V30 89 O 6.0724 0.887988 4.02726 0
M  V30 90 H 5.4134 0.369987 0.551367 0
M  V30 91 H 7.9434 1.60399 1.27018 0
M  V30 92 H 7.9534 1.68607 3.71532 0
M  V30 93 H 6.6284 2.69841 3.16479 0
M  V30 94 H 5.2054 0.922648 3.61305 0
M  V30 95 N 7.3905 -1.2043 1.01659 0
M  V30 96 C 8.3225 -2.22626 0.544988 0
M  V30 97 C 9.3355 -1.58479 -0.372609 0
M  V30 98 O 10.5245 -1.77679 -0.170958 0
M  V30 99 C 7.6245 -3.38141 -0.22663 0
M  V30 100 C 6.7975 -4.31877 0.692876 0
M  V30 101 C 5.8565 -5.26191 -0.0311616 0
M  V30 102 O 4.8825 -5.6612 0.591343 0
M  V30 103 N 6.0845 -5.65618 -1.30601 0
M  V30 104 H 8.8495 -2.63716 1.42388 0
M  V30 105 H 6.4105 -1.34971 0.894116 0
M  V30 106 H 8.4025 -3.98239 -0.72024 0
M  V30 107 H 6.9725 -2.95943 -1.00681 0
M  V30 108 H 6.1925 -3.69746 1.36679 0
M  V30 109 H 7.4805 -4.91426 1.31824 0
M  V30 110 H 6.8785 -5.3519 -1.83269 0
M  V30 111 H 5.4355 -6.28025 -1.74435 0
M  V30 112 N 8.8686 -0.792821 -1.36206 0
M  V30 113 C 10.1146 -0.36733 -1.99446 0
M  V30 114 C 10.4476 1.05917 -1.62774 0
M  V30 115 O 9.7226 1.7324 -0.88421 0
M  V30 116 C 10.0056 -0.535044 -3.56103 0
M  V30 117 C 9.8586 -2.00548 -4.02617 0
M  V30 118 C 11.1776 0.0478191 -4.40074 0
M  V30 119 H 8.2966 -0.134941 -0.724541 0
M  V30 120 H 10.9386 -0.999794 -1.61568 0
M  V30 121 H 9.0886 0.00336329 -3.885 0
M  V30 122 H 10.7606 -2.60521 -3.80692 0
M  V30 123 H 9.0036 -2.50686 -3.54032 0
M  V30 124 H 9.6746 -2.07377 -5.11565 0
M  V30 125 H 12.1506 -0.411822 -4.14057 0
M  V30 126 H 11.0266 -0.0995336 -5.4881 0
M  V30 127 H 11.2876 1.14025 -4.27142 0
M  V30 128 N 10.3467 1.47872 -0.545128 0
M  V30 129 C 11.5947 2.02093 -0.016553 0
M  V30 130 C 11.9157 1.42305 1.3332 0
M  V30 131 O 11.1857 0.593853 1.86682 0
M  V30 132 H 9.7657 0.746993 -0.00313038 0
M  V30 133 H 12.4277 1.81414 -0.712397 0
M  V30 134 H 11.5237 3.11996 0.0805422 0
M  V30 135 N 11.8248 0.280983 1.55075 0
M  V30 136 C 12.7578 -0.645439 2.18882 0
M  V30 137 C 13.7358 -1.14786 1.15165 0
M  V30 138 O 14.9198 -1.21975 1.43716 0
M  V30 139 C 12.0468 -1.88088 2.81674 0
M  V30 140 C 11.0928 -1.51343 3.98745 0
M  V30 141 S 11.9258 -0.586548 5.32278 0
M  V30 142 C 13.0818 -1.83024 5.98543 0
M  V30 143 H 13.3148 -0.1033 2.9712 0
M  V30 144 H 10.8478 0.0652099 1.54262 0
M  V30 145 H 12.8058 -2.58997 3.18482 0
M  V30 146 H 11.4668 -2.39417 2.03318 0
M  V30 147 H 10.6598 -2.43289 4.41392 0
M  V30 148 H 10.2618 -0.884477 3.63391 0
M  V30 149 H 12.5538 -2.77342 6.18133 0
M  V30 150 H 13.4968 -1.44668 6.93164 0
M  V30 151 H 13.9048 -1.99785 5.27964 0
M  V30 152 N 13.3029 -1.57598 0.00835791 0
M  V30 153 C 14.5489 -1.91211 -0.675732 0
M  V30 154 C 14.8819 -0.883139 -1.72958 0
M  V30 155 O 14.1569 0.097016 -1.94258 0
M  V30 156 C 14.4399 -3.35379 -1.31123 0
M  V30 157 C 14.2929 -4.48999 -0.268356 0
M  V30 158 C 15.6119 -3.7912 -2.23508 0
M  V30 159 H 12.7309 -0.695374 -0.244179 0
M  V30 160 H 15.3729 -1.89901 0.0613655 0
M  V30 161 H 13.5229 -3.36626 -1.93946 0
M  V30 162 H 15.1949 -4.59887 0.360844 0
M  V30 163 H 13.4379 -4.31873 0.408482 0
M  V30 164 H 14.1089 -5.46851 -0.752218 0
M  V30 165 H 16.5849 -3.79477 -1.70693 0
M  V30 166 H 15.4609 -4.80729 -2.64936 0
M  V30 167 H 15.7219 -3.13455 -3.11766 0
M  V30 168 N 14.781 0.264519 -1.55364 0
M  V30 169 C 15.711 1.33121 -1.91836 0
M  V30 170 C 16.692 1.51101 -0.781192 0
M  V30 171 O 17.877 1.64003 -1.04003 0
M  V30 172 C 15.007 2.68921 -2.19769 0
M  V30 173 C 13.961 2.65661 -3.35571 0
M  V30 174 C 13.287 4.05093 -3.49004 0
M  V30 175 C 14.587 2.24187 -4.71739 0
M  V30 176 H 16.281 1.02844 -2.81182 0
M  V30 177 H 13.827 0.493286 -1.35287 0
M  V30 178 H 15.78 3.43663 -2.43872 0
M  V30 179 H 14.504 3.00799 -1.27231 0
M  V30 180 H 13.163 1.93377 -3.1145 0
M  V30 181 H 12.811 4.34206 -2.53917 0
M  V30 182 H 12.511 4.03804 -4.26868 0
M  V30 183 H 14.035 4.81561 -3.75408 0
M  V30 184 H 15.449 2.88654 -4.9533 0
M  V30 185 H 13.846 2.34044 -5.52579 0
M  V30 186 H 14.916 1.19327 -4.69988 0
M  V30 187 N 16.2591 1.48442 0.529413 0
M  V30 188 C 17.2071 1.63452 1.65487 0
M  V30 189 C 18.2011 0.500955 1.61823 0
M  V30 190 O 19.4071 0.679695 1.66674 0
M  V30 191 H 15.7821 0.514905 0.548066 0
M  V30 192 H 17.7531 2.57975 1.49971 0
M  V30 193 C 16.5021 1.69196 3.03756 0
M  V30 194 H 15.8251 2.55784 3.07269 0
M  V30 195 H 17.2651 1.83743 3.82119 0
M  V30 196 C 15.7241 0.430765 3.34135 0
M  V30 197 O 16.2541 -0.4561 3.99102 0
M  V30 198 N 14.4601 0.302293 2.89023 0
M  V30 199 H 14.0071 1.02496 2.36331 0
M  V30 200 H 13.9651 -0.540546 3.09718 0
M  V30 201 N 17.7372 -0.778329 1.37039 0
M  V30 202 C 18.6672 -1.90546 1.34962 0
M  V30 203 C 19.6482 -1.68681 0.219274 0
M  V30 204 O 20.8332 -1.89634 0.418624 0
M  V30 205 C 17.9632 -3.27734 1.14925 0
M  V30 206 C 16.9172 -3.64147 2.24902 0
M  V30 207 C 16.2432 -4.99806 1.89996 0
M  V30 208 C 17.5432 -3.71579 3.67051 0
M  V30 209 H 19.2372 -1.92541 2.29277 0
M  V30 210 H 16.7832 -0.924948 1.10366 0
M  V30 211 H 18.7362 -4.06215 1.12104 0
M  V30 212 H 17.4602 -3.26154 0.170631 0
M  V30 213 H 16.1192 -2.8797 2.26868 0
M  V30 214 H 15.7672 -4.94759 0.906796 0
M  V30 215 H 15.4672 -5.25139 2.63634 0
M  V30 216 H 16.9912 -5.80694 1.88749 0
M  V30 217 H 18.4052 -4.40227 3.67251 0
M  V30 218 H 16.8022 -4.08405 4.39688 0
M  V30 219 H 17.8722 -2.72404 4.01154 0
M  V30 220 N 19.2153 -1.21501 -1.00376 0
M  V30 221 C 20.4923 -0.941745 -1.71437 0
M  V30 222 C 20.8723 0.546114 -2.03914 0
M  V30 223 O 20.2203 1.51128 -1.71384 0
M  V30 224 C 20.4303 -1.82812 -2.97289 0
M  V30 225 C 21.7783 -2.07771 -3.70292 0
M  V30 226 O 22.8023 -1.80171 -3.07273 0
M  V30 227 O 21.6613 -2.54456 -4.83647 0
M  V30 228 H 18.7553 -0.353243 -0.747762 0
M  V30 229 H 21.3013 -1.32436 -1.06108 0
M  V30 230 H 20.0733 -2.83501 -2.69709 0
M  V30 231 H 19.6963 -1.4464 -3.70358 0
M  V30 232 N 20.6934 1.19889 -1.02296 0
M  V30 233 C 21.6404 2.22901 -0.598651 0
M  V30 234 C 22.6104 1.61588 0.384521 0
M  V30 235 O 23.7954 1.88697 0.282522 0
M  V30 236 C 20.9354 3.45063 0.0504476 0
M  V30 237 C 20.0484 4.20783 -0.978053 0
M  V30 238 C 19.1834 5.30356 -0.299338 0
M  V30 239 C 18.2224 5.97826 -1.31416 0
M  V30 240 N 17.3594 6.98975 -0.661667 0
M  V30 241 H 22.1994 2.58554 -1.48169 0
M  V30 242 H 19.7364 1.27039 -0.741584 0
M  V30 243 H 21.6944 4.14831 0.443971 0
M  V30 244 H 20.3244 3.10084 0.897097 0
M  V30 245 H 19.3764 3.50018 -1.48969 0
M  V30 246 H 20.6884 4.67109 -1.74958 0
M  V30 247 H 19.8424 6.06516 0.149347 0
M  V30 248 H 18.5814 4.85084 0.504445 0
M  V30 249 H 17.5864 5.20422 -1.77317 0
M  V30 250 H 18.8114 6.45183 -2.11933 0
M  V30 251 H 16.7574 6.55886 0.122132 0
M  V30 252 H 16.6744 7.43461 -1.37117 0
M  V30 253 H 17.9424 7.7914 -0.236785 0
M  V30 254 N 22.1715 0.800033 1.35784 0
M  V30 255 C 23.4115 0.382891 2.00782 0
M  V30 256 C 23.7755 -1.02891 1.62103 0
M  V30 257 O 24.9765 -1.54771 2.19771 0
M  V30 258 C 23.2475 0.553299 3.53091 0
M  V30 259 S 24.8065 0.225608 4.3822 0
M  V30 260 H 21.6245 0.145737 0.695904 0
M  V30 261 H 24.2265 1.04085 1.65489 0
M  V30 262 H 22.9305 1.58091 3.78729 0
M  V30 263 H 22.4615 -0.120214 3.93216 0
M  V30 264 H 24.4765 -0.969074 4.86645 0
M  V30 265 N 23.6496 -1.47581 0.552962 0
M  V30 266 C 24.8986 -2.01684 0.0251995 0
M  V30 267 C 25.2116 -1.43317 -1.33115 0
M  V30 268 O 26.4176 -1.89057 -1.94858 0
M  V30 269 C 24.8736 -3.599 -0.00542052 0
M  V30 270 C 24.4816 -4.27257 1.34742 0
M  V30 271 C 26.2256 -4.21768 -0.4808 0
M  V30 272 C 24.1326 -5.77467 1.27614 0
M  V30 273 H 23.0626 -0.753979 0.00565033 0
M  V30 274 H 25.7136 -1.69616 0.70018 0
M  V30 275 H 24.0956 -3.88911 -0.745961 0
M  V30 276 H 25.2696 -4.09893 2.10534 0
M  V30 277 H 23.5846 -3.77358 1.76039 0
M  V30 278 H 26.1816 -5.31838 -0.55246 0
M  V30 279 H 26.5246 -3.88651 -1.49184 0
M  V30 280 H 27.0576 -3.97273 0.204752 0
M  V30 281 H 23.7966 -6.15196 2.26304 0
M  V30 282 H 23.3166 -5.9718 0.55996 0
M  V30 283 H 24.9956 -6.3959 0.976421 0
M  V30 284 N 25.1277 -0.289203 -1.54924 0
M  V30 285 C 26.3757 0.322879 -1.99504 0
M  V30 286 C 26.6967 1.55313 -1.1791 0
M  V30 287 O 25.9667 1.94001 -0.272097 0
M  V30 288 H 24.5467 0.122291 -0.736922 0
M  V30 289 H 27.2087 -0.397802 -1.90797 0
M  V30 290 H 26.3047 0.603061 -3.06218 0
M  V30 291 N 26.6058 1.57591 -0.0167156 0
M  V30 292 C 27.8458 1.93145 0.668902 0
M  V30 293 C 28.2098 0.892406 1.7 0
M  V30 294 O 29.4108 1.13373 2.43721 0
M  V30 295 C 27.6818 3.33678 1.28039 0
M  V30 296 S 29.2408 3.91142 1.9888 0
M  V30 297 H 26.0588 0.67593 0.220545 0
M  V30 298 H 28.6608 1.95347 -0.0774105 0
M  V30 299 H 27.3648 4.07126 0.517339 0
M  V30 300 H 26.8958 3.3489 2.06427 0
M  V30 301 H 28.9108 3.73571 3.26587 0
M  V30 302 N 28.0839 -0.256276 1.55502 0
M  V30 303 C 29.0339 -1.31981 1.85916 0
M  V30 304 C 30.0179 -1.43927 0.719296 0
M  V30 305 O 31.2099 -1.47326 0.981019 0
M  V30 306 C 28.3389 -2.67703 2.14918 0
M  V30 307 C 27.4249 -2.59801 3.35208 0
M  V30 308 N 27.8159 -2.21524 4.54709 0
M  V30 309 C 26.1139 -2.90832 3.38131 0
M  V30 310 C 26.8149 -2.24024 5.36832 0
M  V30 311 N 25.7909 -2.63158 4.75656 0
M  V30 312 H 29.5929 -1.01423 2.75845 0
M  V30 313 H 27.1069 -0.464911 1.55603 0
M  V30 314 H 29.1039 -3.44445 2.34869 0
M  V30 315 H 27.7639 -2.99137 1.26282 0
M  V30 316 H 28.7749 -1.93223 4.80505 0
M  V30 317 H 25.4519 -3.26867 2.59739 0
M  V30 318 H 26.8419 -1.9685 6.42417 0
M  V30 319 N 29.562 -1.4872 -0.521534 0
M  V30 320 C 30.79 -1.60843 -1.30142 0
M  V30 321 C 31.205 -0.271897 -1.86832 0
M  V30 322 O 30.562 0.739969 -1.66825 0
M  V30 323 C 30.613 -2.66155 -2.4463 0
M  V30 324 O 30.334 -3.94623 -1.90275 0
M  V30 325 C 31.835 -2.88795 -3.36322 0
M  V30 326 H 29.055 -0.542075 -0.395468 0
M  V30 327 H 31.599 -1.94609 -0.628285 0
M  V30 328 H 29.754 -2.35224 -3.07812 0
M  V30 329 H 30.168 -4.52468 -2.65279 0
M  V30 330 H 31.642 -3.66264 -4.12983 0
M  V30 331 H 32.119 -1.97934 -3.9207 0
M  V30 332 H 32.725 -3.21063 -2.78924 0
M  V30 333 N 31.0401 0.771051 -1.3745 0
M  V30 334 C 32.2801 1.54264 -1.34096 0
M  V30 335 C 32.6441 1.91858 0.0737639 0
M  V30 336 O 33.8451 2.67797 0.23203 0
M  V30 337 C 32.1161 2.77326 -2.25445 0
M  V30 338 S 33.6751 3.67383 -2.39948 0
M  V30 339 H 30.4931 0.528122 -0.476034 0
M  V30 340 H 33.0951 0.906633 -1.73206 0
M  V30 341 H 31.7991 2.47788 -3.27153 0
M  V30 342 H 31.3301 3.45886 -1.87421 0
M  V30 343 H 33.3451 4.69334 -1.61059 0
M  V30 344 N 32.5182 1.22032 0.997298 0
M  V30 345 C 33.7432 1.06921 1.77715 0
M  V30 346 C 34.1682 -0.376226 1.84299 0
M  V30 347 O 33.5262 -1.27165 1.29223 0
M  V30 348 C 33.5742 1.67996 3.19076 0
M  V30 349 O 32.6782 0.930653 4.01762 0
M  V30 350 H 32.0192 0.375814 0.547412 0
M  V30 351 H 34.5492 1.61737 1.25309 0
M  V30 352 H 34.5592 1.72538 3.69723 0
M  V30 353 H 33.2342 2.73182 3.13599 0
M  V30 354 H 31.8112 0.960917 3.60307 0
M  V30 355 N 33.9963 -1.19345 1.0293 0
M  V30 356 C 35.2423 -1.89318 0.727083 0
M  V30 357 C 35.5753 -1.79446 -0.742483 0
M  V30 358 O 34.8503 -1.1871 -1.54072 0
M  V30 359 C 35.1333 -3.40238 1.17942 0
M  V30 360 C 34.9863 -3.58979 2.71024 0
M  V30 361 C 36.3053 -4.33479 0.760548 0
M  V30 362 H 33.4243 -0.687475 0.265606 0
M  V30 363 H 36.0663 -1.40477 1.2793 0
M  V30 364 H 34.2163 -3.81964 0.709608 0
M  V30 365 H 35.8883 -3.26421 3.25955 0
M  V30 366 H 34.1313 -3.02018 3.11396 0
M  V30 367 H 34.8023 -4.64823 2.9773 0
M  V30 368 H 37.2783 -3.99469 1.16464 0
M  V30 369 H 36.1543 -5.37664 1.10493 0
M  V30 370 H 36.4153 -4.40813 -0.337063 0
M  V30 371 N 35.4744 -0.807222 -1.35358 0
M  V30 372 C 36.7024 -0.400377 -2.02989 0
M  V30 373 C 37.1174 0.988859 -1.60832 0
M  V30 374 O 36.4744 1.63729 -0.806175 0
M  V30 375 C 36.5254 -0.474867 -3.58368 0
M  V30 376 O 36.2464 -1.80933 -3.98992 0
M  V30 377 C 37.7474 -0.0609112 -4.43258 0
M  V30 378 H 34.9674 -0.162587 -0.651004 0
M  V30 379 H 37.5114 -1.09102 -1.72965 0
M  V30 380 H 35.6664 0.167534 -3.87038 0
M  V30 381 H 36.0804 -1.77256 -4.9364 0
M  V30 382 H 37.5544 -0.164145 -5.51756 0
M  V30 383 H 38.0314 0.993831 -4.27808 0
M  V30 384 H 38.6374 -0.676492 -4.19885 0
M  V30 385 N 36.9525 1.47285 -0.560781 0
M  V30 386 C 38.1925 2.0436 -0.0404627 0
M  V30 387 C 38.5565 1.42534 1.28639 0
M  V30 388 O 39.7575 1.90677 1.89462 0
M  V30 389 C 38.0285 3.57369 0.0471856 0
M  V30 390 S 39.5875 4.3579 0.513109 0
M  V30 391 H 36.4055 0.710492 -0.0268674 0
M  V30 392 H 39.0075 1.80611 -0.748323 0
M  V30 393 H 37.7115 3.9989 -0.922817 0
M  V30 394 H 37.2425 3.8562 0.778491 0
M  V30 395 H 39.2575 4.63476 1.77212 0
M  V30 396 N 38.4306 0.297415 1.54768 0
M  V30 397 C 39.3776 -0.580276 2.23386 0
M  V30 398 C 40.3476 -1.13238 1.21517 0
M  V30 399 O 41.5326 -1.17757 1.50126 0
M  V30 400 C 38.6726 -1.74801 2.97555 0
M  V30 401 C 37.7856 -1.22764 4.1419 0
M  V30 402 C 36.9206 -2.35895 4.75949 0
M  V30 403 C 35.9596 -1.80974 5.84735 0
M  V30 404 N 35.0966 -2.87664 6.40464 0
M  V30 405 H 39.9366 0.0114833 2.97998 0
M  V30 406 H 37.4736 0.0174361 1.4709 0
M  V30 407 H 39.4316 -2.43475 3.38786 0
M  V30 408 H 38.0616 -2.31145 2.25326 0
M  V30 409 H 37.1136 -0.433271 3.77924 0
M  V30 410 H 38.4256 -0.785551 4.92575 0
M  V30 411 H 37.5796 -3.12523 5.20014 0
M  V30 412 H 36.3186 -2.83429 3.96887 0
M  V30 413 H 35.3236 -1.02834 5.40097 0
M  V30 414 H 36.5486 -1.34348 6.65678 0
M  V30 415 H 34.4946 -3.34538 5.64287 0
M  V30 416 H 34.4116 -2.4794 7.14186 0
M  V30 417 H 35.6796 -3.642 6.89187 0
M  V30 418 N 39.9087 -1.5758 0.0250728 0
M  V30 419 C 40.8567 -2.11125 -0.97617 0
M  V30 420 C 41.8507 -1.03689 -1.33959 0
M  V30 421 O 43.0567 -1.22128 -1.3223 0
M  V30 422 H 39.4317 -0.674468 -0.332561 0
M  V30 423 H 41.4027 -2.94194 -0.499223 0
M  V30 424 C 40.1517 -2.65017 -2.2508 0
M  V30 425 H 39.4747 -3.47333 -1.9799 0
M  V30 426 H 40.9147 -3.06133 -2.93357 0
M  V30 427 C 39.3737 -1.57574 -2.97779 0
M  V30 428 O 39.9037 -0.973203 -3.89733 0
M  V30 429 N 38.1097 -1.29716 -2.60043 0
M  V30 430 H 37.6567 -1.789 -1.85345 0
M  V30 431 H 37.6147 -0.58051 -3.08994 0
M  V30 432 N 41.3868 0.248026 -1.55636 0
M  V30 433 C 42.6328 0.97767 -1.77678 0
M  V30 434 C 42.9658 1.85016 -0.590135 0
M  V30 435 O 42.2408 1.90095 0.411611 0
M  V30 436 C 42.5238 1.83914 -3.09593 0
M  V30 437 C 42.3768 0.99491 -4.38659 0
M  V30 438 C 43.6958 2.82183 -3.37729 0
M  V30 439 H 40.8148 0.354005 -0.646413 0
M  V30 440 H 43.4568 0.248253 -1.88371 0
M  V30 441 H 41.6068 2.46104 -3.00608 0
M  V30 442 H 43.2788 0.391789 -4.59633 0
M  V30 443 H 41.5218 0.299231 -4.32767 0
M  V30 444 H 42.1928 1.63145 -5.2734 0
M  V30 445 H 44.6688 2.30129 -3.4667 0
M  V30 446 H 43.5448 3.39582 -4.31249 0
M  V30 447 H 43.8058 3.58588 -2.58586 0
M  V30 448 N 42.8649 1.48995 0.513639 0
M  V30 449 C 44.1109 1.59053 1.26783 0
M  V30 450 C 44.4659 0.268136 1.90522 0
M  V30 451 O 43.7589 -0.730534 1.77126 0
M  V30 452 C 43.9529 2.67756 2.36731 0
M  V30 453 C 43.7819 4.10437 1.83771 0
M  V30 454 C 42.5519 4.7738 1.65639 0
M  V30 455 C 44.7499 4.9608 1.35681 0
M  V30 456 N 42.7319 6.04419 1.07476 0
M  V30 457 C 44.1029 6.13496 0.895715 0
M  V30 458 C 46.1579 4.82177 1.24136 0
M  V30 459 C 44.8609 7.1854 0.3306 0
M  V30 460 C 46.8869 5.87358 0.690229 0
M  V30 461 C 46.2489 7.03993 0.239292 0
M  V30 462 H 42.3479 0.636463 0.454355 0
M  V30 463 H 44.9319 1.85948 0.577196 0
M  V30 464 H 43.1029 2.42655 3.03271 0
M  V30 465 H 44.8349 2.67406 3.0377 0
M  V30 466 H 41.5899 4.33974 1.8964 0
M  V30 467 H 42.0139 6.72214 0.803579 0
M  V30 468 H 46.6559 3.92329 1.57601 0
M  V30 469 H 44.3739 8.08098 -0.0163435 0
M  V30 470 H 47.9599 5.78658 0.603852 0
M  V30 471 H 46.8399 7.83992 -0.180526 0
M  V30 472 N 44.343 -0.763751 1.37857 0
M  V30 473 C 45.571 -1.55293 1.36718 0
M  V30 474 C 45.986 -1.88745 -0.0455434 0
M  V30 475 O 45.343 -1.52039 -1.00947 0
M  V30 476 C 45.394 -2.85831 2.2132 0
M  V30 477 O 45.115 -2.5381 3.57089 0
M  V30 478 C 46.616 -3.80023 2.28249 0
M  V30 479 H 43.836 -0.480841 0.468009 0
M  V30 480 H 46.38 -0.946009 1.81303 0
M  V30 481 H 44.535 -3.42926 1.80223 0
M  V30 482 H 44.949 -3.37459 4.01524 0
M  V30 483 H 46.423 -4.68599 2.91752 0
M  V30 484 H 46.9 -4.1973 1.2932 0
M  V30 485 H 47.506 -3.28855 2.69693 0
M  V30 486 N 45.8211 -1.22559 -0.990812 0
M  V30 487 C 47.0461 -1.07862 -1.77145 0
M  V30 488 C 47.4711 0.366447 -1.84496 0
M  V30 489 O 46.8291 1.26478 -1.29896 0
M  V30 490 C 46.8771 -1.69686 -3.18181 0
M  V30 491 O 45.9811 -0.951946 -4.01263 0
M  V30 492 H 45.3221 -0.378712 -0.545411 0
M  V30 493 H 47.8521 -1.62399 -1.2445 0
M  V30 494 H 47.8621 -1.74496 -3.68802 0
M  V30 495 H 46.5371 -2.74841 -3.12146 0
M  V30 496 H 45.1141 -0.980011 -3.59792 0
M  V30 497 N 47.2992 1.18797 -1.03562 0
M  V30 498 C 48.7152 1.40671 -0.753917 0
M  V30 499 C 48.9152 1.9043 0.658686 0
M  V30 500 O 47.9712 2.08538 1.42366 0
M  V30 501 C 49.2842 2.41192 -1.79574 0
M  V30 502 C 50.8322 2.54928 -1.81606 0
M  V30 503 C 51.3072 3.58709 -2.84766 0
M  V30 504 N 52.7982 3.66212 -2.83625 0
M  V30 505 C 53.5332 4.46225 -3.60098 0
M  V30 506 N 53.0292 5.29888 -4.46308 0
M  V30 507 N 54.8222 4.40939 -3.4861 0
M  V30 508 H 46.9732 0.848221 -1.94728 0
M  V30 509 H 49.2362 0.435081 -0.842264 0
M  V30 510 H 48.9422 2.11669 -2.80872 0
M  V30 511 H 48.8162 3.40467 -1.62365 0
M  V30 512 H 51.2032 2.83771 -0.809817 0
M  V30 513 H 51.2842 1.55784 -2.02891 0
M  V30 514 H 50.9282 3.30607 -3.85566 0
M  V30 515 H 50.8582 4.57519 -2.60737 0
M  V30 516 H 53.3492 3.06466 -2.21105 0
M  V30 517 H 53.6622 5.88078 -5.01382 0
M  V30 518 H 52.0072 5.29326 -4.50377 0
M  V30 519 H 55.1982 3.74624 -2.80668 0
M  V30 520 H 55.3712 5.03056 -4.08459 0
M  V30 521 N 48.7773 0.814389 1.34928 0
M  V30 522 C 49.6873 0.231978 2.3345 0
M  V30 523 C 50.7033 -0.629139 1.62228 0
M  V30 524 O 51.8793 -0.539052 1.94052 0
M  V30 525 C 48.9443 -0.603482 3.41407 0
M  V30 526 C 48.0053 0.279037 4.28392 0
M  V30 527 C 47.2383 -0.516643 5.31193 0
M  V30 528 O 47.4613 -1.75068 5.4287 0
M  V30 529 O 46.3953 0.0965652 6.01823 0
M  V30 530 H 50.2213 1.04721 2.85074 0
M  V30 531 H 47.8063 0.576343 1.37836 0
M  V30 532 H 49.6883 -1.07908 4.0735 0
M  V30 533 H 48.3633 -1.39618 2.92042 0
M  V30 534 H 47.2703 0.801948 3.65403 0
M  V30 535 H 48.6033 1.03588 4.81176 0
M  V30 536 N 50.2554 -1.46986 0.568584 0
M  V30 537 C 51.5034 -2.02041 0.0487022 0
M  V30 538 C 51.8244 -1.44408 -1.31039 0
M  V30 539 O 51.0944 -0.623477 -1.85714 0
M  V30 540 H 49.6744 -0.746849 0.015014 0
M  V30 541 H 52.3364 -1.80257 0.741168 0
M  V30 542 H 51.4324 -3.12085 -0.0308961 0
M  V30 543 N 51.7335 -0.305618 -1.54608 0
M  V30 544 C 52.9795 0.302746 -2.00528 0
M  V30 545 C 53.3125 1.53184 -1.19367 0
M  V30 546 O 52.5875 1.92598 -0.271321 0
M  V30 547 C 52.8705 0.654756 -3.54097 0
M  V30 548 C 52.7235 -0.583793 -4.45995 0
M  V30 549 C 54.0425 1.47947 -4.14487 0
M  V30 550 H 51.1615 0.108564 -0.72896 0
M  V30 551 H 53.8035 -0.418634 -1.85331 0
M  V30 552 H 51.9535 1.26935 -3.67178 0
M  V30 553 H 53.6255 -1.22224 -4.44814 0
M  V30 554 H 51.8685 -1.21615 -4.16404 0
M  V30 555 H 52.5395 -0.293287 -5.5122 0
M  V30 556 H 55.0155 0.96013 -4.04871 0
M  V30 557 H 53.8915 1.69454 -5.22088 0
M  V30 558 H 54.1525 2.47011 -3.66658 0
M  V30 559 N 53.2116 1.57565 -0.0334293 0
M  V30 560 C 54.1216 2.13943 0.962572 0
M  V30 561 C 55.1376 1.09276 1.35406 0
M  V30 562 O 56.3136 1.41355 1.4346 0
M  V30 563 C 53.3786 2.65887 2.22497 0
M  V30 564 C 52.4396 3.85286 1.8935 0
M  V30 565 C 51.6726 4.34743 3.09571 0
M  V30 566 O 51.8956 3.83352 4.22371 0
M  V30 567 O 50.8296 5.26538 2.91618 0
M  V30 568 H 54.6556 2.99333 0.513169 0
M  V30 569 H 52.2406 1.4822 0.18743 0
M  V30 570 H 54.1226 2.99346 2.96598 0
M  V30 571 H 52.7976 1.83578 2.6661 0
M  V30 572 H 51.7046 3.56746 1.1262 0
M  V30 573 H 53.0376 4.68771 1.5005 0
M  V30 574 N 54.6897 -0.239769 1.55765 0
M  V30 575 C 55.9197 -0.982743 1.8173 0
M  V30 576 C 56.3277 -1.7917 0.607835 0
M  V30 577 O 55.6707 -1.78525 -0.432973 0
M  V30 578 C 55.7327 -1.96332 3.01155 0
M  V30 579 C 55.3967 -1.34062 4.36894 0
M  V30 580 C 56.3937 -0.739539 5.14613 0
M  V30 581 C 54.0787 -1.35784 4.83599 0
M  V30 582 C 56.0727 -0.163989 6.37189 0
M  V30 583 C 53.7597 -0.778441 6.06122 0
M  V30 584 C 54.7577 -0.182548 6.82756 0
M  V30 585 O 54.4457 0.387887 8.02964 0
M  V30 586 H 54.1777 -0.294481 0.608487 0
M  V30 587 H 56.7317 -0.26572 2.03674 0
M  V30 588 H 54.9617 -2.71884 2.74984 0
M  V30 589 H 56.6507 -2.57032 3.14149 0
M  V30 590 H 57.4167 -0.718687 4.79646 0
M  V30 591 H 53.2957 -1.81105 4.23936 0
M  V30 592 H 56.8397 0.301753 6.96947 0
M  V30 593 H 52.7367 -0.796645 6.40565 0
M  V30 594 H 53.5047 0.28044 8.18019 0
M  V30 595 N 56.1678 -1.49265 -0.50573 0
M  V30 596 C 57.1308 -1.65075 -1.59006 0
M  V30 597 C 58.1308 -0.522768 -1.52065 0
M  V30 598 O 59.3208 -0.789117 -1.55302 0
M  V30 599 C 56.4528 -1.64369 -2.98656 0
M  V30 600 H 57.6458 -2.61784 -1.46319 0
M  V30 601 H 55.1988 -1.38226 -0.729616 0
M  V30 602 H 55.9338 -0.692272 -3.16825 0
M  V30 603 H 55.7188 -2.46282 -3.05103 0
M  V30 604 H 57.2088 -1.78674 -3.77446 0
M  V30 605 N 57.6459 0.756429 -1.3826 0
M  V30 606 C 58.8919 1.5168 -1.35517 0
M  V30 607 C 59.2469 1.9232 0.0554451 0
M  V30 608 O 58.5399 1.62352 1.01746 0
M  V30 609 C 58.7339 2.78313 -2.24224 0
M  V30 610 C 58.5629 2.50053 -3.7377 0
M  V30 611 C 57.3329 2.43414 -4.42807 0
M  V30 612 C 59.5309 2.1702 -4.66269 0
M  V30 613 N 57.5129 2.07398 -5.77805 0
M  V30 614 C 58.8839 1.91271 -5.89759 0
M  V30 615 C 60.9389 2.03305 -4.54501 0
M  V30 616 C 59.6419 1.53192 -7.02798 0
M  V30 617 C 61.6679 1.66627 -5.67441 0
M  V30 618 C 61.0299 1.4175 -6.8999 0
M  V30 619 H 57.1289 0.554735 -0.551174 0
M  V30 620 H 59.7129 0.881106 -1.73622 0
M  V30 621 H 57.8839 3.39696 -1.88311 0
M  V30 622 H 59.6159 3.44343 -2.12627 0
M  V30 623 H 56.3709 2.59789 -3.95988 0
M  V30 624 H 56.7949 1.92044 -6.4919 0
M  V30 625 H 61.4369 2.21215 -3.60311 0
M  V30 626 H 59.1549 1.34022 -7.96909 0
M  V30 627 H 62.7409 1.56652 -5.60314 0
M  V30 628 H 61.6209 1.1379 -7.759 0
M  V30 629 N 59.124 1.23083 0.984299 0
M  V30 630 C 60.371 1.06057 1.72505 0
M  V30 631 C 60.699 -0.403105 1.90277 0
M  V30 632 O 59.954 -1.3149 1.44944 0
M  V30 633 C 60.253 1.72673 3.1292 0
M  V30 634 C 59.919 3.22586 3.15038 0
M  V30 635 C 58.581 3.63489 3.15324 0
M  V30 636 C 60.933 4.185 3.10657 0
M  V30 637 C 58.261 4.98772 3.08939 0
M  V30 638 C 60.613 5.53769 3.05814 0
M  V30 639 C 59.277 5.94041 3.04419 0
M  V30 640 H 58.547 0.388091 0.631242 0
M  V30 641 H 61.194 1.52963 1.15215 0
M  V30 642 H 59.499 1.18116 3.73572 0
M  V30 643 H 61.196 1.56982 3.68996 0
M  V30 644 H 57.786 2.90022 3.15571 0
M  V30 645 H 61.97 3.87911 3.09579 0
M  V30 646 H 57.226 5.29193 3.0621 0
M  V30 647 H 61.4 6.27808 3.0138 0
M  V30 648 H 59.027 6.98833 2.99227 0
M  V30 649 N 60.6021 -1.18246 1.0419 0
M  V30 650 C 61.5501 -2.23968 0.627792 0
M  V30 651 C 62.5441 -1.65828 -0.346019 0
M  V30 652 O 63.7501 -1.78733 -0.213175 0
M  V30 653 H 60.1251 -0.728939 0.184802 0
M  V30 654 H 62.0961 -2.56202 1.52981 0
M  V30 655 C 60.8451 -3.47699 0.00796591 0
M  V30 656 H 60.1681 -3.92734 0.748347 0
M  V30 657 H 61.6081 -4.23294 -0.24455 0
M  V30 658 C 60.0671 -3.13153 -1.24246 0
M  V30 659 O 60.5971 -3.27003 -2.33307 0
M  V30 660 N 58.8031 -2.67467 -1.13622 0
M  V30 661 H 58.3501 -2.56396 -0.248734 0
M  V30 662 H 58.3081 -2.44724 -1.97377 0
M  V30 663 N 62.0802 -0.821533 -1.34494 0
M  V30 664 C 63.0282 -0.230702 -2.31453 0
M  V30 665 C 64.0222 0.627793 -1.57338 0
M  V30 666 O 65.2282 0.519288 -1.72347 0
M  V30 667 H 61.6032 -0.0558577 -0.749923 0
M  V30 668 H 63.5742 -1.06332 -2.78812 0
M  V30 669 C 62.3232 0.59391 -3.4259 0
M  V30 670 H 61.6462 -0.0573588 -3.99759 0
M  V30 671 H 63.0862 0.973446 -4.12674 0
M  V30 672 C 61.5452 1.76568 -2.86924 0
M  V30 673 O 62.0752 2.8638 -2.81691 0
M  V30 674 N 60.2812 1.58198 -2.43766 0
M  V30 675 H 59.8282 0.68872 -2.48222 0
M  V30 676 H 59.7862 2.36752 -2.06871 0
M  V30 677 N 63.5583 1.46682 -0.576371 0
M  V30 678 C 64.8043 2.02712 -0.0596221 0
M  V30 679 C 65.1373 1.44765 1.29448 0
M  V30 680 O 64.4123 0.610355 1.84675 0
M  V30 681 C 64.6953 3.60098 0.0129503 0
M  V30 682 C 64.5483 4.28441 -1.3696 0
M  V30 683 C 65.8673 4.34224 0.71678 0
M  V30 684 H 62.9863 0.736637 -0.0231407 0
M  V30 685 H 65.6283 1.74898 -0.742351 0
M  V30 686 H 63.7783 3.83926 0.594378 0
M  V30 687 H 65.4503 4.15896 -1.9957 0
M  V30 688 H 63.6933 3.8805 -1.93907 0
M  V30 689 H 64.3643 5.3716 -1.27135 0
M  V30 690 H 66.8403 4.15503 0.222908 0
M  V30 691 H 65.7163 5.43936 0.73657 0
M  V30 692 H 65.9773 4.04823 1.77682 0
M  V30 693 N 65.0364 0.313813 1.54444 0
M  V30 694 C 65.9464 -0.565714 2.27677 0
M  V30 695 C 66.9624 -1.13754 1.31666 0
M  V30 696 O 68.1384 -1.15959 1.64668 0
M  V30 697 C 65.2034 -1.71528 3.01296 0
M  V30 698 C 64.2644 -1.17624 4.12872 0
M  V30 699 C 63.4974 -2.27102 4.8297 0
M  V30 700 O 63.7204 -3.47256 4.52514 0
M  V30 701 O 62.6544 -1.9307 5.70094 0
M  V30 702 H 66.4804 0.0287296 3.03686 0
M  V30 703 H 64.0654 0.0798312 1.49187 0
M  V30 704 H 65.9474 -2.38476 3.4743 0
M  V30 705 H 64.6224 -2.29608 2.2817 0
M  V30 706 H 63.5294 -0.472124 3.71109 0
M  V30 707 H 64.8624 -0.640695 4.88012 0
M  V30 708 N 66.5145 -1.57545 0.0417849 0
M  V30 709 C 67.7425 -1.96624 -0.643928 0
M  V30 710 C 68.1575 -0.918897 -1.64929 0
M  V30 711 O 67.5145 0.0979323 -1.82237 0
M  V30 712 C 67.5655 -3.35781 -1.33914 0
M  V30 713 O 67.2865 -4.365 -0.374048 0
M  V30 714 C 68.7875 -3.89566 -2.1155 0
M  V30 715 H 66.0075 -0.647316 -0.176702 0
M  V30 716 H 68.5515 -2.04229 0.105304 0
M  V30 717 H 66.7065 -3.29357 -2.03968 0
M  V30 718 H 67.1205 -5.17248 -0.869179 0
M  V30 719 H 68.5945 -4.89242 -2.55628 0
M  V30 720 H 69.0715 -3.24488 -2.9598 0
M  V30 721 H 69.6775 -3.99298 -1.46427 0
M  V30 722 N 67.9926 0.231505 -1.5589 0
M  V30 723 C 68.9396 1.28682 -1.91598 0
M  V30 724 C 69.9096 1.47071 -0.771974 0
M  V30 725 O 71.0946 1.60802 -1.027 0
M  V30 726 C 68.2346 2.6342 -2.22944 0
M  V30 727 C 67.3476 2.52912 -3.50228 0
M  V30 728 C 66.4826 3.80106 -3.7107 0
M  V30 729 C 65.5216 3.64279 -4.91902 0
M  V30 730 N 64.6586 4.834 -5.09184 0
M  V30 731 H 69.4986 0.975305 -2.81588 0
M  V30 732 H 67.0356 0.470299 -1.39379 0
M  V30 733 H 68.9936 3.41869 -2.39126 0
M  V30 734 H 67.6236 2.92687 -1.36139 0
M  V30 735 H 66.6756 1.6595 -3.42294 0
M  V30 736 H 67.9876 2.37133 -4.38827 0
M  V30 737 H 67.1416 4.66999 -3.87295 0
M  V30 738 H 65.8806 3.98799 -2.80733 0
M  V30 739 H 64.8856 2.7577 -4.75637 0
M  V30 740 H 66.1106 3.47067 -5.83714 0
M  V30 741 H 64.0566 5.02425 -4.21788 0
M  V30 742 H 63.9736 4.70311 -5.91898 0
M  V30 743 H 65.2416 5.71747 -5.29835 0
M  V30 744 N 69.4707 1.49531 0.497807 0
M  V30 745 C 70.8817 1.52344 1.07927 0
M  V30 746 C 71.2327 0.311469 1.93712 0
M  V30 747 O 70.3577 -0.578405 2.08527 0
M  V30 748 C 70.9527 2.76062 1.96405 0
M  V30 749 C 69.5117 2.81643 2.49709 0
M  V30 750 C 68.6587 2.46299 1.27404 0
M  V30 751 H 71.6097 1.56182 0.281576 0
M  V30 752 H 71.6307 2.56405 2.81135 0
M  V30 753 H 71.1427 3.64254 1.33943 0
M  V30 754 H 69.2437 1.97739 3.15801 0
M  V30 755 H 69.3567 3.83891 2.86643 0
M  V30 756 H 67.7207 1.98148 1.60029 0
M  V30 757 H 68.5037 3.36769 0.66645 0
M  V30 758 N 70.9488 -0.749086 1.3866 0
M  V30 759 C 72.1968 -1.50535 1.34847 0
M  V30 760 C 72.5178 -1.94909 -0.0595016 0
M  V30 761 O 71.7878 -1.67973 -1.00806 0
M  V30 762 H 70.3678 -0.558395 0.49619 0
M  V30 763 H 73.0298 -0.890165 1.73384 0
M  V30 764 H 72.1258 -2.39413 2.00219 0
M  V30 765 N 72.4269 -1.23603 -0.977757 0
M  V30 766 C 73.3589 -0.977369 -2.07317 0
M  V30 767 C 74.3719 0.0495845 -1.62724 0
M  V30 768 O 75.5609 -0.186261 -1.77526 0
M  V30 769 C 72.6609 -0.451216 -3.35883 0
M  V30 770 C 71.8339 -1.53896 -4.09432 0
M  V30 771 C 70.8929 -1.01721 -5.16274 0
M  V30 772 O 69.9189 -1.70676 -5.43009 0
M  V30 773 N 71.1209 0.153594 -5.80297 0
M  V30 774 H 73.8859 -1.92047 -2.30082 0
M  V30 775 H 71.4469 -1.14497 -1.14465 0
M  V30 776 H 73.4389 -0.0871574 -4.04606 0
M  V30 777 H 72.0089 0.397368 -3.10064 0
M  V30 778 H 71.2289 -2.07566 -3.35127 0
M  V30 779 H 72.5169 -2.27037 -4.55337 0
M  V30 780 H 71.9149 0.730323 -5.60966 0
M  V30 781 H 70.4719 0.458892 -6.50183 0
M  V30 782 N 73.905 1.17692 -1.04816 0
M  V30 783 C 75.153 1.87488 -0.754497 0
M  V30 784 C 75.474 1.81205 0.720407 0
M  V30 785 O 74.744 1.23544 1.52032 0
M  V30 786 H 73.324 0.694101 -0.276102 0
M  V30 787 H 75.986 1.42793 -1.32651 0
M  V30 788 H 75.082 2.93328 -1.06606 0
M  V30 789 N 75.3831 0.828654 1.34056 0
M  V30 790 C 76.6301 0.419458 1.98108 0
M  V30 791 C 76.9581 -1.01886 1.65679 0
M  V30 792 O 76.2131 -1.72539 0.923512 0
M  V30 793 C 76.5121 0.575226 3.52741 0
M  V30 794 C 76.1781 1.98012 4.05095 0
M  V30 795 C 74.8401 2.36442 4.19104 0
M  V30 796 C 77.1921 2.89824 4.33188 0
M  V30 797 C 74.5201 3.66009 4.58535 0
M  V30 798 C 76.8721 4.1886 4.74066 0
M  V30 799 C 75.5361 4.5726 4.86281 0
M  V30 800 H 74.8061 0.153491 0.724929 0
M  V30 801 H 77.4531 1.05371 1.59904 0
M  V30 802 H 75.7581 -0.142385 3.91541 0
M  V30 803 H 77.4551 0.239057 4.00287 0
M  V30 804 H 74.0451 1.67162 3.94658 0
M  V30 805 H 78.2291 2.61375 4.21897 0
M  V30 806 H 73.4851 3.95579 4.66184 0
M  V30 807 H 77.6591 4.90086 4.94761 0
M  V30 808 H 75.2861 5.57707 5.16592 0
M  V30 809 N 76.8612 -1.46375 0.584142 0
M  V30 810 C 78.2722 -1.86031 0.157959 0
M  V30 811 C 78.6232 -1.48753 -1.27933 0
M  V30 812 O 77.7482 -0.903098 -1.96655 0
M  V30 813 C 78.3432 -3.37642 0.279892 0
M  V30 814 C 76.9022 -3.76289 -0.09143 0
M  V30 815 C 76.0492 -2.7039 0.615178 0
M  V30 816 H 79.0002 -1.37509 0.792274 0
M  V30 817 H 79.0212 -3.77275 -0.494364 0
M  V30 818 H 78.5332 -3.64742 1.32607 0
M  V30 819 H 76.6342 -3.54806 -1.13769 0
M  V30 820 H 76.7472 -4.78246 0.285886 0
M  V30 821 H 75.1112 -2.5464 0.0552833 0
M  V30 822 H 75.8942 -3.0033 1.66303 0
M  V30 823 N 78.3393 -0.321999 -1.54275 0
M  V30 824 C 79.5673 0.283052 -2.04955 0
M  V30 825 C 79.9823 1.45904 -1.19823 0
M  V30 826 O 79.3393 1.81063 -0.228545 0
M  V30 827 C 79.3903 0.719028 -3.54277 0
M  V30 828 O 79.1113 -0.410175 -4.36176 0
M  V30 829 C 80.6123 1.38705 -4.21041 0
M  V30 830 H 77.8323 0.0584616 -0.668448 0
M  V30 831 H 80.3763 -0.467734 -1.99079 0
M  V30 832 H 78.5313 1.41979 -3.60445 0
M  V30 833 H 78.9453 -0.0669416 -5.24457 0
M  V30 834 H 80.4193 1.64306 -5.2698 0
M  V30 835 H 80.8963 2.33385 -3.72059 0
M  V30 836 H 81.5023 0.728906 -4.19007 0
M  V30 837 N 79.8174 1.5752 -0.0501392 0
M  V30 838 C 81.0944 1.83996 0.663685 0
M  V30 839 C 81.4744 0.938339 1.89099 0
M  V30 840 O 80.8224 -0.00087759 2.285 0
M  V30 841 C 81.0324 3.33702 1.02196 0
M  V30 842 C 82.3804 4.00691 1.40469 0
M  V30 843 O 83.4044 3.38321 1.11433 0
M  V30 844 O 82.2634 5.10658 1.94654 0
M  V30 845 H 79.3574 0.759385 0.32751 0
M  V30 846 H 81.9034 1.69514 -0.0794238 0
M  V30 847 H 80.6754 3.91015 0.149364 0
M  V30 848 H 80.2984 3.53368 1.82255 0
M  V30 849 N 81.2955 -0.223234 1.56011 0
M  V30 850 C 82.5415 -0.944891 1.8012 0
M  V30 851 C 82.8965 -1.82039 0.622862 0
M  V30 852 O 82.1895 -1.8773 -0.383143 0
M  V30 853 C 82.3835 -1.81948 3.0762 0
M  V30 854 C 82.2125 -1.03014 4.37742 0
M  V30 855 C 80.9825 -0.72574 5.00061 0
M  V30 856 C 83.1805 -0.396256 5.12771 0
M  V30 857 N 81.1625 0.0851816 6.13841 0
M  V30 858 C 82.5335 0.278137 6.19376 0
M  V30 859 C 84.5885 -0.309117 4.9694 0
M  V30 860 C 83.2915 1.03133 7.11868 0
M  V30 861 C 85.3175 0.430607 5.8983 0
M  V30 862 C 84.6795 1.09355 6.9586 0
M  V30 863 H 80.7785 -0.326081 0.710771 0
M  V30 864 H 83.3625 -0.215914 1.93499 0
M  V30 865 H 81.5335 -2.52029 2.95527 0
M  V30 866 H 83.2655 -2.47848 3.19927 0
M  V30 867 H 80.0205 -1.04335 4.61964 0
M  V30 868 H 80.4445 0.479428 6.753 0
M  V30 869 H 85.0865 -0.807313 4.15021 0
M  V30 870 H 82.8045 1.54105 7.9327 0
M  V30 871 H 86.3905 0.499012 5.79656 0
M  V30 872 H 85.2705 1.65679 7.66499 0
M  V30 873 N 82.7736 -1.49793 -0.48987 0
M  V30 874 C 83.6836 -1.70036 -1.61632 0
M  V30 875 C 84.6996 -0.583102 -1.63939 0
M  V30 876 O 85.8756 -0.859169 -1.82154 0
M  V30 877 C 82.9406 -1.77277 -2.97949 0
M  V30 878 C 82.0016 -3.00918 -3.06181 0
M  V30 879 C 81.2346 -3.07804 -4.35996 0
M  V30 880 O 81.4576 -2.21982 -5.25433 0
M  V30 881 O 80.3916 -4.00369 -4.49431 0
M  V30 882 H 84.2176 -2.65486 -1.47482 0
M  V30 883 H 81.8026 -1.33666 -0.667362 0
M  V30 884 H 83.6846 -1.84329 -3.78947 0
M  V30 885 H 82.3596 -0.850076 -3.12339 0
M  V30 886 H 81.2666 -2.99377 -2.2433 0
M  V30 887 H 82.5996 -3.92704 -2.96723 0
M  V30 888 N 84.2517 0.741722 -1.39055 0
M  V30 889 C 85.1997 1.87702 -1.3737 0
M  V30 890 C 86.1937 1.67427 -0.257812 0
M  V30 891 O 87.3997 1.7485 -0.427489 0
M  V30 892 H 83.7747 0.617757 -0.428812 0
M  V30 893 H 85.7457 1.86239 -2.33147 0
M  V30 894 C 84.4947 3.25315 -1.22741 0
M  V30 895 H 83.8177 3.41509 -2.07873 0
M  V30 896 H 85.2577 4.04964 -1.25618 0
M  V30 897 C 83.7167 3.36838 0.0647316 0
M  V30 898 O 84.2467 3.88073 1.03741 0
M  V30 899 N 82.4527 2.90329 0.125544 0
M  V30 900 H 81.9997 2.48823 -0.666682 0
M  V30 901 H 81.9577 2.98418 0.989639 0
M  V30 902 N 85.7298 1.2412 0.971189 0
M  V30 903 C 86.6618 0.988349 2.06795 0
M  V30 904 C 87.6748 -0.0409541 1.62748 0
M  V30 905 O 88.8638 0.195673 1.77424 0
M  V30 906 C 85.9638 0.469023 3.35639 0
M  V30 907 C 85.1368 1.56065 4.08611 0
M  V30 908 C 84.1958 1.04458 5.15728 0
M  V30 909 O 83.2218 1.73553 5.42096 0
M  V30 910 N 84.4238 -0.122817 5.8037 0
M  V30 911 H 87.1888 1.93265 2.29061 0
M  V30 912 H 84.7498 1.15102 1.13856 0
M  V30 913 H 86.7418 0.108613 4.04554 0
M  V30 914 H 85.3118 -0.380919 3.1027 0
M  V30 915 H 84.5318 2.09341 3.34021 0
M  V30 916 H 85.8198 2.29449 4.54126 0
M  V30 917 H 85.2178 -0.700563 5.61345 0
M  V30 918 H 83.7748 -0.424404 6.50417 0
M  V30 919 N 87.2079 -1.17134 1.05439 0
M  V30 920 C 88.1179 -2.24878 0.668365 0
M  V30 921 C 89.1339 -1.71186 -0.311687 0
M  V30 922 O 90.3099 -2.00738 -0.163161 0
M  V30 923 C 87.3749 -3.46662 0.051648 0
M  V30 924 C 86.4359 -4.15429 1.08246 0
M  V30 925 C 85.6689 -5.31399 0.495082 0
M  V30 926 O 85.8919 -5.66153 -0.694743 0
M  V30 927 O 84.8259 -5.89187 1.23056 0
M  V30 928 H 88.6519 -2.60189 1.56637 0
M  V30 929 H 86.2369 -1.24482 0.826104 0
M  V30 930 H 88.1189 -4.20394 -0.290966 0
M  V30 931 H 86.7939 -3.13142 -0.819971 0
M  V30 932 H 85.7009 -3.43704 1.47711 0
M  V30 933 H 87.0339 -4.52982 1.92532 0
M  V30 934 N 88.686 -0.835752 -1.33615 0
M  V30 935 C 89.633 -0.26473 -2.29277 0
M  V30 936 C 90.603 0.617712 -1.54187 0
M  V30 937 O 91.788 0.556641 -1.825 0
M  V30 938 C 88.928 0.556777 -3.40579 0
M  V30 939 C 88.041 -0.349339 -4.30585 0
M  V30 940 C 87.176 0.482969 -5.29 0
M  V30 941 C 86.215 -0.421732 -6.10645 0
M  V30 942 N 85.352 0.372262 -7.01112 0
M  V30 943 H 90.192 -1.08582 -2.77514 0
M  V30 944 H 87.729 -0.546927 -1.36554 0
M  V30 945 H 89.687 1.04852 -4.03809 0
M  V30 946 H 88.317 1.34286 -2.93542 0
M  V30 947 H 87.369 -0.959372 -3.68104 0
M  V30 948 H 88.681 -1.04445 -4.87742 0
M  V30 949 H 87.835 1.03866 -5.97743 0
M  V30 950 H 86.574 1.21153 -4.72412 0
M  V30 951 H 85.579 -0.989464 -5.40823 0
M  V30 952 H 86.804 -1.14861 -6.69316 0
M  V30 953 H 84.75 1.08426 -6.46977 0
M  V30 954 H 84.667 -0.264198 -7.55538 0
M  V30 955 H 85.935 0.910293 -7.74167 0
M  V30 956 N 90.1641 1.46063 -0.591896 0
M  V30 957 C 91.3941 2.06418 -0.0867676 0
M  V30 958 C 91.8021 1.43975 1.22751 0
M  V30 959 O 91.1451 0.542531 1.75506 0
M  V30 960 C 91.2071 3.59213 0.143725 0
M  V30 961 C 90.8711 4.439 -1.08635 0
M  V30 962 C 91.8681 4.79864 -2.00067 0
M  V30 963 C 89.5531 4.84896 -1.31077 0
M  V30 964 C 91.5471 5.55661 -3.12282 0
M  V30 965 C 89.2341 5.6045 -2.43596 0
M  V30 966 C 90.2321 5.95747 -3.34027 0
M  V30 967 O 89.9201 6.69772 -4.4459 0
M  V30 968 H 89.6521 0.673443 -0.0587447 0
M  V30 969 H 92.2061 1.88539 -0.814994 0
M  V30 970 H 90.4361 3.75433 0.926668 0
M  V30 971 H 92.1251 4.01463 0.5985 0
M  V30 972 H 92.8911 4.48763 -1.83947 0
M  V30 973 H 88.7701 4.56867 -0.61594 0
M  V30 974 H 92.3141 5.8313 -3.82891 0
M  V30 975 H 88.2111 5.90965 -2.59674 0
M  V30 976 H 88.9791 6.88207 -4.43073 0
M  V30 977 N 91.6422 0.330177 1.54103 0
M  V30 978 C 92.5892 -0.532762 2.24567 0
M  V30 979 C 93.5592 -1.10635 1.23892 0
M  V30 980 O 94.7442 -1.14546 1.5259 0
M  V30 981 C 91.8842 -1.6845 3.01195 0
M  V30 982 C 90.9972 -1.13951 4.167 0
M  V30 983 C 90.1322 -2.25746 4.80845 0
M  V30 984 C 89.1712 -1.6853 5.88442 0
M  V30 985 N 88.3082 -2.74014 6.46421 0
M  V30 986 H 93.1482 0.0746905 2.97906 0
M  V30 987 H 90.6852 0.048632 1.4702 0
M  V30 988 H 92.6432 -2.36234 3.43874 0
M  V30 989 H 91.2732 -2.26314 2.30178 0
M  V30 990 H 90.3252 -0.35301 3.78758 0
M  V30 991 H 91.6372 -0.680892 4.94131 0
M  V30 992 H 90.7912 -3.01422 5.26526 0
M  V30 993 H 89.5302 -2.74947 4.0281 0
M  V30 994 H 88.5352 -0.913543 5.42157 0
M  V30 995 H 89.7602 -1.20198 6.68378 0
M  V30 996 H 87.7062 -3.22494 5.71256 0
M  V30 997 H 87.6232 -2.32735 7.19285 0
M  V30 998 H 88.8912 -3.49499 6.96757 0
M  V30 999 N 93.1203 -1.57491 0.0584922 0
M  V30 1000 C 94.3683 -1.92597 -0.612436 0
M  V30 1001 C 94.6893 -0.938162 -1.70949 0
M  V30 1002 O 93.9593 0.0158301 -1.95894 0
M  V30 1003 H 92.5393 -0.710964 -0.229214 0
M  V30 1004 H 95.2013 -1.94571 0.113218 0
M  V30 1005 H 94.2973 -2.94038 -1.04633 0
M  V30 1006 N 94.5984 0.214957 -1.56127 0
M  V30 1007 C 95.8464 0.936518 -1.79091 0
M  V30 1008 C 96.1674 1.84606 -0.628148 0
M  V30 1009 O 95.4374 1.92664 0.35462 0
M  V30 1010 H 94.0174 0.3488 -0.660566 0
M  V30 1011 H 96.6794 0.22523 -1.93594 0
M  V30 1012 H 95.7754 1.53943 -2.71492 0
M  V30 1013 N 96.0765 1.50051 0.48192 0
M  V30 1014 C 97.3225 1.61706 1.2338 0
M  V30 1015 C 97.6775 0.308488 1.89911 0
M  V30 1016 O 96.9705 -0.692798 1.78636 0
M  V30 1017 C 97.1645 2.72717 2.30998 0
M  V30 1018 C 96.9935 4.14242 1.75024 0
M  V30 1019 C 95.7635 4.80786 1.55476 0
M  V30 1020 C 97.9615 4.98846 1.25128 0
M  V30 1021 N 95.9435 6.06563 0.946311 0
M  V30 1022 C 97.3145 6.15258 0.765382 0
M  V30 1023 C 99.3695 4.84702 1.13881 0
M  V30 1024 C 98.0725 7.19079 0.178113 0
M  V30 1025 C 100.098 5.8869 0.565486 0
M  V30 1026 C 99.4605 7.04343 0.0899105 0
M  V30 1027 H 95.5595 0.645958 0.440753 0
M  V30 1028 H 98.1435 1.8713 0.537624 0
M  V30 1029 H 96.3145 2.49033 2.98055 0
M  V30 1030 H 98.0465 2.73789 2.9803 0
M  V30 1031 H 94.8015 4.37899 1.80392 0
M  V30 1032 H 95.2255 6.73767 0.660812 0
M  V30 1033 H 99.8675 3.95583 1.49244 0
M  V30 1034 H 97.5855 8.07882 -0.187749 0
M  V30 1035 H 101.171 5.79808 0.480974 0
M  V30 1036 H 100.051 7.83433 -0.346782 0
M  V30 1037 N 97.5546 -0.734337 1.39446 0
M  V30 1038 C 98.8036 -1.48937 1.36017 0
M  V30 1039 C 99.1166 -1.95557 -0.0409005 0
M  V30 1040 O 100.323 -2.70779 -0.19778 0
M  V30 1041 C 98.7786 -2.69125 2.38955 0
M  V30 1042 C 98.3866 -2.29452 3.8478 0
M  V30 1043 C 100.131 -3.46944 2.44603 0
M  V30 1044 C 98.0376 -3.46366 4.79358 0
M  V30 1045 H 96.9676 -0.559296 0.505672 0
M  V30 1046 H 99.6186 -0.800983 1.65095 0
M  V30 1047 H 98.0006 -3.40041 2.02948 0
M  V30 1048 H 99.1746 -1.66077 4.29831 0
M  V30 1049 H 97.4896 -1.64723 3.82433 0
M  V30 1050 H 100.087 -4.33907 3.12456 0
M  V30 1051 H 100.43 -3.89454 1.47076 0
M  V30 1052 H 100.963 -2.83056 2.79507 0
M  V30 1053 H 97.7016 -3.08905 5.78151 0
M  V30 1054 H 97.2216 -4.08719 4.38986 0
M  V30 1055 H 98.9006 -4.12691 4.98292 0
M  V30 1056 N 99.0327 -1.24633 -0.964593 0
M  V30 1057 C 100.449 -1.01239 -1.2338 0
M  V30 1058 C 100.649 0.2769 -1.99588 0
M  V30 1059 O 99.7047 0.992241 -2.32187 0
M  V30 1060 C 101.018 -2.22937 -2.01791 0
M  V30 1061 C 102.566 -2.27594 -2.14872 0
M  V30 1062 C 103.041 -3.48921 -2.96678 0
M  V30 1063 N 104.532 -3.49257 -3.04259 0
M  V30 1064 C 105.267 -4.39795 -3.67924 0
M  V30 1065 N 104.763 -5.40591 -4.33281 0
M  V30 1066 N 106.556 -4.275 -3.64966 0
M  V30 1067 H 98.7067 -2.0748 -0.454502 0
M  V30 1068 H 100.97 -0.910647 -0.26349 0
M  V30 1069 H 100.676 -3.16587 -1.53184 0
M  V30 1070 H 100.55 -2.25306 -3.02518 0
M  V30 1071 H 102.937 -1.34473 -2.6268 0
M  V30 1072 H 103.018 -2.2925 -1.13482 0
M  V30 1073 H 102.662 -4.42359 -2.49562 0
M  V30 1074 H 102.592 -3.4451 -3.98272 0
M  V30 1075 H 105.083 -2.76337 -2.57771 0
M  V30 1076 H 105.396 -6.05904 -4.79687 0
M  V30 1077 H 103.741 -5.44475 -4.3194 0
M  V30 1078 H 106.932 -3.47987 -3.13086 0
M  V30 1079 H 107.105 -4.98258 -4.14298 0
M  V30 1080 N 100.511 1.16574 -1.06058 0
M  V30 1081 C 101.458 2.20883 -0.669263 0
M  V30 1082 C 102.428 1.62729 0.332918 0
M  V30 1083 O 103.613 1.895 0.222346 0
M  V30 1084 C 100.753 3.45049 -0.0593572 0
M  V30 1085 C 99.8658 4.17458 -1.11143 0
M  V30 1086 C 99.0008 5.29135 -0.467916 0
M  V30 1087 C 98.0398 5.93343 -1.50369 0
M  V30 1088 N 97.1768 6.96516 -0.883706 0
M  V30 1089 H 102.017 2.53709 -1.5632 0
M  V30 1090 H 99.5538 1.24616 -0.781625 0
M  V30 1091 H 101.512 4.16033 0.311771 0
M  V30 1092 H 100.142 3.12781 0.797992 0
M  V30 1093 H 99.1938 3.45101 -1.60029 0
M  V30 1094 H 100.506 4.61307 -1.89731 0
M  V30 1095 H 99.6598 6.06684 -0.0436871 0
M  V30 1096 H 98.3988 4.86443 0.349864 0
M  V30 1097 H 97.4038 5.14517 -1.93784 0
M  V30 1098 H 98.6288 6.38114 -2.32352 0
M  V30 1099 H 96.5748 6.55943 -0.086595 0
M  V30 1100 H 96.4918 7.38723 -1.607 0
M  V30 1101 H 97.7598 7.77993 -0.484543 0
M  V30 1102 N 101.989 0.842826 1.3317 0
M  V30 1103 C 103.238 0.436738 1.96915 0
M  V30 1104 C 103.551 -1.01025 1.67491 0
M  V30 1105 O 104.757 -1.5212 2.24881 0
M  V30 1106 C 103.213 0.730021 3.52418 0
M  V30 1107 C 102.821 2.19195 3.90714 0
M  V30 1108 C 104.565 0.391076 4.22695 0
M  V30 1109 C 102.472 2.42907 5.39212 0
M  V30 1110 H 101.402 0.15958 0.736919 0
M  V30 1111 H 104.053 1.03196 1.51733 0
M  V30 1112 H 102.435 0.0643755 3.95948 0
M  V30 1113 H 103.609 2.8984 3.58231 0
M  V30 1114 H 101.924 2.49425 3.33431 0
M  V30 1115 H 104.521 0.545817 5.31907 0
M  V30 1116 H 104.864 -0.666294 4.10933 0
M  V30 1117 H 105.397 1.01212 3.84709 0
M  V30 1118 H 102.136 3.47224 5.55982 0
M  V30 1119 H 101.656 1.76827 5.73142 0
M  V30 1120 H 103.335 2.2626 6.06148 0
M  V30 1121 N 103.467 -1.45747 0.599634 0
M  V30 1122 C 104.415 -2.322 -0.136426 0
M  V30 1123 C 105.409 -1.45497 -0.867583 0
M  V30 1124 O 106.615 -1.62027 -0.78405 0
M  V30 1125 H 102.99 -0.749368 -0.0628588 0
M  V30 1126 H 104.961 -2.92072 0.611281 0
M  V30 1127 C 103.71 -3.28974 -1.12567 0
M  V30 1128 H 103.033 -3.9568 -0.572484 0
M  V30 1129 H 104.473 -3.92212 -1.61077 0
M  V30 1130 C 102.932 -2.55561 -2.19523 0
M  V30 1131 O 103.462 -2.33111 -3.27143 0
M  V30 1132 N 101.668 -2.15832 -1.94589 0
M  V30 1133 H 101.215 -2.3429 -1.07078 0
M  V30 1134 H 101.173 -1.67034 -2.66359 0
M  V30 1135 N 104.945 -0.338344 -1.53925 0
M  V30 1136 C 106.193 0.259245 -2.0043 0
M  V30 1137 C 106.514 1.51484 -1.22791 0
M  V30 1138 O 105.784 1.93037 -0.33368 0
M  V30 1139 H 104.364 0.0987845 -0.740439 0
M  V30 1140 H 107.026 -0.458302 -1.89435 0
M  V30 1141 H 106.122 0.505334 -3.07982 0
M  V30 1142 N 106.423 1.57458 -0.0668435 0
M  V30 1143 C 107.37 2.12439 0.902122 0
M  V30 1144 C 108.34 1.03565 1.2986 0
M  V30 1145 O 109.525 1.312 1.38532 0
M  V30 1146 C 106.665 2.6865 2.16614 0
M  V30 1147 C 105.778 3.91663 1.82274 0
M  V30 1148 C 104.913 4.36134 3.0325 0
M  V30 1149 C 103.952 5.51808 2.64904 0
M  V30 1150 N 103.089 5.9126 3.78624 0
M  V30 1151 H 107.929 2.94934 0.426382 0
M  V30 1152 H 105.466 1.4575 0.198819 0
M  V30 1153 H 107.424 2.99346 2.90599 0
M  V30 1154 H 106.054 1.88928 2.61737 0
M  V30 1155 H 105.106 3.6746 0.983719 0
M  V30 1156 H 106.418 4.75693 1.50059 0
M  V30 1157 H 105.572 4.68465 3.85519 0
M  V30 1158 H 104.311 3.50948 3.38655 0
M  V30 1159 H 103.316 5.19133 1.81055 0
M  V30 1160 H 104.541 6.38722 2.30675 0
M  V30 1161 H 102.487 5.09024 4.138 0
M  V30 1162 H 102.404 6.70018 3.5016 0
M  V30 1163 H 103.672 6.28212 4.61486 0
M  V30 1164 N 107.901 -0.206675 1.56239 0
M  V30 1165 C 108.831 -1.25909 1.96645 0
M  V30 1166 C 109.812 -1.48097 0.836734 0
M  V30 1167 O 110.997 -1.6003 1.10019 0
M  V30 1168 C 108.127 -2.6058 2.29599 0
M  V30 1169 C 107.081 -2.53024 3.452 0
M  V30 1170 C 106.407 -3.91861 3.63798 0
M  V30 1171 C 107.707 -2.06524 4.79734 0
M  V30 1172 H 109.401 -0.923369 2.84806 0
M  V30 1173 H 106.947 -0.442735 1.37025 0
M  V30 1174 H 108.9 -3.34375 2.56459 0
M  V30 1175 H 107.624 -2.95869 1.38307 0
M  V30 1176 H 106.283 -1.81684 3.18412 0
M  V30 1177 H 105.931 -4.24483 2.69857 0
M  V30 1178 H 105.631 -3.87683 4.4156 0
M  V30 1179 H 107.155 -4.67296 3.93022 0
M  V30 1180 H 108.569 -2.70072 5.05702 0
M  V30 1181 H 106.966 -2.13374 5.60885 0
M  V30 1182 H 108.036 -1.01802 4.74093 0
M  V30 1183 N 109.379 -1.50304 -0.473955 0
M  V30 1184 C 110.311 -1.65109 -1.58971 0
M  V30 1185 C 111.324 -0.532676 -1.53839 0
M  V30 1186 O 112.513 -0.805751 -1.59279 0
M  V30 1187 C 109.613 -1.61684 -2.97845 0
M  V30 1188 C 108.786 -2.8951 -3.27876 0
M  V30 1189 C 107.845 -2.78768 -4.4629 0
M  V30 1190 O 106.871 -3.52722 -4.46739 0
M  V30 1191 N 108.073 -1.9213 -5.47783 0
M  V30 1192 H 110.838 -2.61347 -1.46689 0
M  V30 1193 H 108.399 -1.47732 -0.662324 0
M  V30 1194 H 110.391 -1.52114 -3.75024 0
M  V30 1195 H 108.961 -0.731925 -3.03911 0
M  V30 1196 H 108.181 -3.13228 -2.39336 0
M  V30 1197 H 109.469 -3.74199 -3.4475 0
M  V30 1198 H 108.867 -1.31353 -5.50239 0
M  V30 1199 H 107.424 -1.88466 -6.23958 0
M  V30 1200 N 110.857 0.726932 -1.39834 0
M  V30 1201 C 112.268 1.30558 -1.3346 0
M  V30 1202 C 112.619 1.962 -0.00273003 0
M  V30 1203 O 111.744 1.96826 0.899371 0
M  V30 1204 C 112.339 2.37404 -2.41713 0
M  V30 1205 C 110.898 2.90921 -2.38835 0
M  V30 1206 C 110.045 1.64578 -2.2318 0
M  V30 1207 H 112.996 0.523862 -1.49804 0
M  V30 1208 H 113.017 3.17984 -2.08966 0
M  V30 1209 H 112.529 1.89599 -3.38635 0
M  V30 1210 H 110.63 3.42985 -1.45575 0
M  V30 1211 H 110.743 3.43487 -3.33997 0
M  V30 1212 H 109.107 1.89219 -1.70494 0
M  V30 1213 H 109.89 1.18814 -3.22084 0
M  V30 1214 N 112.336 1.25143 0.95797 0
M  V30 1215 C 113.752 1.01892 1.22842 0
M  V30 1216 C 113.952 -0.266311 1.99732 0
M  V30 1217 O 113.008 -0.979913 2.3271 0
M  V30 1218 C 114.321 2.24004 2.00606 0
M  V30 1219 C 115.869 2.28731 2.13662 0
M  V30 1220 C 116.344 3.5049 2.94823 0
M  V30 1221 N 117.835 3.50866 3.02403 0
M  V30 1222 C 118.57 4.4174 3.65586 0
M  V30 1223 N 118.066 5.42882 4.30408 0
M  V30 1224 N 119.859 4.29429 3.62694 0
M  V30 1225 H 112.01 2.07718 0.443493 0
M  V30 1226 H 114.273 0.912031 0.258657 0
M  V30 1227 H 113.979 3.17395 1.51503 0
M  V30 1228 H 113.853 2.26907 3.01319 0
M  V30 1229 H 116.24 1.35865 2.61963 0
M  V30 1230 H 116.321 2.29848 1.12265 0
M  V30 1231 H 115.965 4.43676 2.47213 0
M  V30 1232 H 115.895 3.46617 3.96439 0
M  V30 1233 H 118.386 2.777 2.56302 0
M  V30 1234 H 118.699 6.0844 4.76467 0
M  V30 1235 H 117.044 5.46758 4.29047 0
M  V30 1236 H 120.235 3.49643 3.11236 0
M  V30 1237 H 120.408 5.00448 4.1165 0
M  V30 1238 N 113.814 -1.1601 1.06675 0
M  V30 1239 C 114.747 -2.1947 0.625168 0
M  V30 1240 C 115.725 -1.58699 -0.354041 0
M  V30 1241 O 116.909 -1.86669 -0.262098 0
M  V30 1242 C 114.036 -3.38598 -0.0829593 0
M  V30 1243 C 113.082 -4.1787 0.853611 0
M  V30 1244 S 113.915 -4.81135 2.35094 0
M  V30 1245 C 115.071 -6.03639 1.65441 0
M  V30 1246 H 115.304 -2.56587 1.50168 0
M  V30 1247 H 112.837 -1.26862 0.880078 0
M  V30 1248 H 114.795 -4.07621 -0.485288 0
M  V30 1249 H 113.456 -2.99839 -0.935716 0
M  V30 1250 H 112.649 -5.03078 0.304755 0
M  V30 1251 H 112.251 -3.54361 1.196 0
M  V30 1252 H 114.543 -6.70632 0.962201 0
M  V30 1253 H 115.486 -6.63081 2.48454 0
M  V30 1254 H 115.894 -5.52965 1.13534 0
M  V30 1255 N 115.292 -0.849877 -1.32721 0
M  V30 1256 C 116.54 -0.450032 -1.97026 0
M  V30 1257 C 116.861 0.996604 -1.67609 0
M  V30 1258 O 116.131 1.6958 -0.980786 0
M  V30 1259 H 114.711 -0.163426 -0.728904 0
M  V30 1260 H 117.373 -1.08526 -1.6189 0
M  V30 1261 H 116.469 -0.591146 -3.0645 0
M  V30 1262 N 116.77 1.45427 -0.607355 0
M  V30 1263 C 117.718 2.32269 0.12411 0
M  V30 1264 C 118.712 1.45955 0.859854 0
M  V30 1265 O 119.918 1.6244 0.775447 0
M  V30 1266 H 116.293 0.749691 0.0588839 0
M  V30 1267 H 118.264 2.91743 -0.626762 0
M  V30 1268 C 117.013 3.29567 1.1082 0
M  V30 1269 H 116.336 3.95978 0.551492 0
M  V30 1270 H 117.776 3.93061 1.58995 0
M  V30 1271 C 116.235 2.56722 2.18164 0
M  V30 1272 O 116.765 2.34842 3.25902 0
M  V30 1273 N 114.971 2.16861 1.93442 0
M  V30 1274 H 114.518 2.34855 1.05834 0
M  V30 1275 H 114.476 1.68444 2.65469 0
M  V30 1276 N 118.248 0.346503 1.53744 0
M  V30 1277 C 119.664 -0.00530975 1.59599 0
M  V30 1278 C 119.864 -1.48465 1.36236 0
M  V30 1279 O 118.92 -2.24376 1.15808 0
M  V30 1280 C 120.233 0.433516 2.97559 0
M  V30 1281 C 121.781 0.386111 3.10609 0
M  V30 1282 C 122.256 0.800451 4.50951 0
M  V30 1283 N 123.747 0.754753 4.5701 0
M  V30 1284 C 124.482 1.04727 5.63755 0
M  V30 1285 N 123.978 1.4081 6.7834 0
M  V30 1286 N 125.771 0.971316 5.53644 0
M  V30 1287 H 117.922 1.31009 1.67184 0
M  V30 1288 H 120.185 0.534242 0.783128 0
M  V30 1289 H 119.891 1.46509 3.19731 0
M  V30 1290 H 119.765 -0.189753 3.76722 0
M  V30 1291 H 122.152 -0.636295 2.88158 0
M  V30 1292 H 122.233 1.04462 2.33498 0
M  V30 1293 H 121.877 1.82088 4.74137 0
M  V30 1294 H 121.807 0.119386 5.26465 0
M  V30 1295 H 124.298 0.488662 3.74727 0
M  V30 1296 H 124.611 1.61607 7.55714 0
M  V30 1297 H 122.956 1.44657 6.79779 0
M  V30 1298 H 126.147 0.688748 4.63005 0
M  V30 1299 H 126.32 1.20263 6.36742 0
M  V30 1300 N 119.726 -1.57421 0.075193 0
M  V30 1301 C 120.689 -2.11791 -0.876203 0
M  V30 1302 C 121.689 -1.04268 -1.22412 0
M  V30 1303 O 122.879 -1.30242 -1.15684 0
M  V30 1304 C 120.011 -2.62207 -2.17854 0
M  V30 1305 H 121.204 -2.9716 -0.40444 0
M  V30 1306 H 118.757 -1.55333 -0.173557 0
M  V30 1307 H 119.492 -1.803 -2.6956 0
M  V30 1308 H 119.277 -3.40802 -1.93897 0
M  V30 1309 H 120.767 -3.04335 -2.85955 0
M  V30 1310 N 121.204 0.198386 -1.56346 0
M  V30 1311 C 122.137 1.27381 -1.89339 0
M  V30 1312 C 123.115 1.44106 -0.753134 0
M  V30 1313 O 124.299 1.59549 -1.00381 0
M  V30 1314 C 121.426 2.6409 -2.12071 0
M  V30 1315 C 120.472 2.64253 -3.34772 0
M  V30 1316 S 121.305 2.16013 -4.89999 0
M  V30 1317 C 122.461 3.54553 -5.15794 0
M  V30 1318 H 122.694 0.992058 -2.8026 0
M  V30 1319 H 120.227 0.401726 -1.49082 0
M  V30 1320 H 122.185 3.42786 -2.2585 0
M  V30 1321 H 120.846 2.89478 -1.21906 0
M  V30 1322 H 120.039 3.64768 -3.47794 0
M  V30 1323 H 119.641 1.93637 -3.1997 0
M  V30 1324 H 121.933 4.50396 -5.06112 0
M  V30 1325 H 122.876 3.46428 -6.1757 0
M  V30 1326 H 123.284 3.49313 -4.43442 0
M  V30 1327 N 122.682 1.50554 0.465978 0
M  V30 1328 C 123.612 1.72722 1.57128 0
M  V30 1329 C 124.593 0.576294 1.6004 0
M  V30 1330 O 125.778 0.81598 1.76225 0
M  V30 1331 C 122.908 1.82605 2.95419 0
M  V30 1332 C 121.862 2.97835 3.07373 0
M  V30 1333 C 121.188 2.92867 4.47363 0
M  V30 1334 C 122.488 4.38265 2.84114 0
M  V30 1335 H 124.182 2.65267 1.38829 0
M  V30 1336 H 121.728 1.2765 0.666441 0
M  V30 1337 H 123.681 1.96698 3.72677 0
M  V30 1338 H 122.405 0.866858 3.14886 0
M  V30 1339 H 121.064 2.83401 2.3255 0
M  V30 1340 H 120.712 1.94783 4.63755 0
M  V30 1341 H 120.412 3.70227 4.56296 0
M  V30 1342 H 121.936 3.09015 5.26633 0
M  V30 1343 H 123.35 4.53198 3.51118 0
M  V30 1344 H 121.747 5.17115 3.04487 0
M  V30 1345 H 122.817 4.50281 1.7993 0
M  V30 1346 N 124.16 -0.719506 1.40217 0
M  V30 1347 C 125.09 -1.8465 1.42922 0
M  V30 1348 C 126.071 -1.67599 0.29062 0
M  V30 1349 O 127.256 -1.87688 0.498677 0
M  V30 1350 C 124.386 -3.22565 1.28722 0
M  V30 1351 C 123.34 -3.54281 2.40144 0
M  V30 1352 C 122.666 -4.91298 2.11023 0
M  V30 1353 C 123.966 -3.55676 3.82481 0
M  V30 1354 H 125.66 -1.82644 2.37237 0
M  V30 1355 H 123.206 -0.877305 1.1419 0
M  V30 1356 H 125.159 -4.01095 1.29232 0
M  V30 1357 H 123.883 -3.25137 0.308811 0
M  V30 1358 H 122.542 -2.78088 2.38877 0
M  V30 1359 H 122.19 -4.90468 1.11582 0
M  V30 1360 H 121.89 -5.13485 2.8567 0
M  V30 1361 H 123.414 -5.72166 2.13209 0
M  V30 1362 H 124.828 -4.24254 3.85592 0
M  V30 1363 H 123.225 -3.89388 4.56614 0
M  V30 1364 H 124.295 -2.55144 4.12346 0
M  V30 1365 N 125.638 -1.25649 -0.95132 0
M  V30 1366 C 126.886 -1.10375 -1.69298 0
M  V30 1367 C 127.207 0.355339 -1.91735 0
M  V30 1368 O 126.477 1.25188 -1.50681 0
M  V30 1369 H 125.057 -0.405461 -0.627384 0
M  V30 1370 H 127.719 -1.57823 -1.14358 0
M  V30 1371 H 126.815 -1.61465 -2.67087 0
M  V30 1372 N 127.117 1.15442 -1.07289 0
M  V30 1373 C 128.064 2.20161 -0.692653 0
M  V30 1374 C 129.034 1.63073 0.31564 0
M  V30 1375 O 130.219 1.89725 0.202235 0
M  V30 1376 C 127.359 3.44967 -0.0959509 0
M  V30 1377 C 126.472 4.16256 -1.15564 0
M  V30 1378 C 125.607 5.28609 -0.524011 0
M  V30 1379 C 124.646 5.91715 -1.56653 0
M  V30 1380 N 123.783 6.9554 -0.957531 0
M  V30 1381 H 128.623 2.52037 -1.59002 0
M  V30 1382 H 126.16 1.2378 -0.794798 0
M  V30 1383 H 128.118 4.16341 0.267628 0
M  V30 1384 H 126.748 3.1361 0.764772 0
M  V30 1385 H 125.8 3.43385 -1.6368 0
M  V30 1386 H 127.112 4.59268 -1.94613 0
M  V30 1387 H 126.266 6.06604 -0.108032 0
M  V30 1388 H 125.005 4.86787 0.29825 0
M  V30 1389 H 124.01 5.12433 -1.9923 0
M  V30 1390 H 125.235 6.35614 -2.39107 0
M  V30 1391 H 123.181 6.55814 -0.156162 0
M  V30 1392 H 123.098 7.36977 -1.68526 0
M  V30 1393 H 124.366 7.77435 -0.567032 0
M  V30 1394 N 128.595 0.856903 1.32268 0
M  V30 1395 C 129.844 0.457599 1.96441 0
M  V30 1396 C 130.157 -0.992426 1.68553 0
M  V30 1397 O 131.363 -1.49727 2.26482 0
M  V30 1398 C 129.819 0.767358 3.51624 0
M  V30 1399 C 129.427 2.23326 3.88367 0
M  V30 1400 C 131.171 0.435887 4.22256 0
M  V30 1401 C 129.078 2.48613 5.36606 0
M  V30 1402 H 128.008 0.167387 0.735185 0
M  V30 1403 H 130.659 1.048 1.5063 0
M  V30 1404 H 129.041 0.106367 3.95857 0
M  V30 1405 H 130.215 2.93623 3.55137 0
M  V30 1406 H 128.53 2.52948 3.30766 0
M  V30 1407 H 131.127 0.602202 5.31298 0
M  V30 1408 H 131.47 -0.622672 4.11617 0
M  V30 1409 H 132.003 1.05286 3.83614 0
M  V30 1410 H 128.742 3.53101 5.52268 0
M  V30 1411 H 128.262 1.82896 5.71235 0
M  V30 1412 H 129.941 2.32676 6.03714 0
M  V30 1413 N 130.073 -1.45103 0.615059 0
M  V30 1414 C 131.32 -2.02183 0.113179 0
M  V30 1415 C 131.648 -1.48249 -1.25906 0
M  V30 1416 O 130.903 -0.650265 -1.84581 0
M  V30 1417 C 131.202 -3.57386 0.0318797 0
M  V30 1418 C 130.868 -4.30505 1.34077 0
M  V30 1419 C 129.53 -4.50197 1.69929 0
M  V30 1420 C 131.882 -4.72238 2.20546 0
M  V30 1421 C 129.21 -5.08881 2.91988 0
M  V30 1422 C 131.562 -5.32272 3.41861 0
M  V30 1423 C 130.226 -5.50187 3.77956 0
M  V30 1424 H 129.496 -0.739842 0.0414151 0
M  V30 1425 H 132.143 -1.74073 0.798168 0
M  V30 1426 H 130.448 -3.84817 -0.736409 0
M  V30 1427 H 132.145 -3.99264 -0.372712 0
M  V30 1428 H 128.735 -4.15496 1.05173 0
M  V30 1429 H 132.919 -4.56751 1.94146 0
M  V30 1430 H 128.175 -5.20939 3.2005 0
M  V30 1431 H 132.349 -5.63563 4.09109 0
M  V30 1432 H 129.976 -5.95427 4.72622 0
M  V30 1433 N 131.551 -0.354651 -1.53558 0
M  V30 1434 C 132.514 0.484566 -2.24019 0
M  V30 1435 C 133.514 1.01861 -1.24422 0
M  V30 1436 O 134.704 0.906097 -1.4878 0
M  V30 1437 C 131.836 1.67615 -2.96847 0
M  V30 1438 H 133.029 -0.131843 -2.9961 0
M  V30 1439 H 130.582 -0.106165 -1.55939 0
M  V30 1440 H 131.317 2.33095 -2.25471 0
M  V30 1441 H 131.102 1.30029 -3.69912 0
M  V30 1442 H 132.592 2.27114 -3.50441 0
M  V30 1443 N 133.029 1.57378 -0.0835403 0
M  V30 1444 C 133.977 2.14602 0.89714 0
M  V30 1445 C 134.971 1.08589 1.30018 0
M  V30 1446 O 136.177 1.26952 1.27606 0
M  V30 1447 H 132.552 0.686346 0.3073 0
M  V30 1448 H 134.523 2.95845 0.38969 0
M  V30 1449 C 133.272 2.73188 2.15089 0
M  V30 1450 H 132.595 3.54442 1.84962 0
M  V30 1451 H 134.035 3.1681 2.81793 0
M  V30 1452 C 132.494 1.68517 2.91725 0
M  V30 1453 O 133.024 1.11718 3.85852 0
M  V30 1454 N 131.23 1.39277 2.55049 0
M  V30 1455 H 130.777 1.85655 1.78577 0
M  V30 1456 H 130.735 0.694791 3.06627 0
M  V30 1457 N 134.507 -0.190092 1.56449 0
M  V30 1458 C 135.918 -0.754312 1.70784 0
M  V30 1459 C 136.269 -1.83631 0.690951 0
M  V30 1460 O 135.394 -2.15868 -0.151604 0
M  V30 1461 C 135.989 -1.37503 3.09642 0
M  V30 1462 C 134.548 -1.88628 3.25725 0
M  V30 1463 C 133.695 -0.758098 2.66736 0
M  V30 1464 H 136.646 0.0350524 1.58661 0
M  V30 1465 H 136.667 -2.2445 3.0725 0
M  V30 1466 H 136.179 -0.587302 3.83631 0
M  V30 1467 H 134.28 -2.70103 2.56661 0
M  V30 1468 H 134.393 -2.04462 4.3328 0
M  V30 1469 H 132.757 -1.17369 2.26046 0
M  V30 1470 H 133.54 0.0174705 3.43296 0
M  V30 1471 N 135.985 -1.50799 -0.457987 0
M  V30 1472 C 136.935 -1.67003 -1.55222 0
M  V30 1473 C 137.919 -0.52434 -1.52117 0
M  V30 1474 O 139.111 -0.779345 -1.58919 0
M  V30 1475 C 136.24 -1.77956 -2.93576 0
M  V30 1476 C 135.326 -2.98243 -3.01516 0
M  V30 1477 N 135.717 -4.21732 -2.79241 0
M  V30 1478 C 134.015 -2.97072 -3.32662 0
M  V30 1479 C 134.716 -5.02817 -2.92489 0
M  V30 1480 N 133.692 -4.37038 -3.23262 0
M  V30 1481 H 137.494 -2.60163 -1.36721 0
M  V30 1482 H 135.008 -1.48163 -0.664952 0
M  V30 1483 H 137.005 -1.87671 -3.72271 0
M  V30 1484 H 135.665 -0.859634 -3.13114 0
M  V30 1485 H 136.676 -4.51016 -2.54567 0
M  V30 1486 H 133.353 -2.14631 -3.58106 0
M  V30 1487 H 134.743 -6.11054 -2.79396 0
M  V30 1488 N 137.463 0.71206 -1.40597 0
M  V30 1489 C 138.393 1.83889 -1.43899 0
M  V30 1490 C 139.374 1.67442 -0.299504 0
M  V30 1491 O 140.559 1.87421 -0.508624 0
M  V30 1492 C 137.689 3.21877 -1.30431 0
M  V30 1493 C 136.643 3.53002 -2.42019 0
M  V30 1494 C 135.969 4.90172 -2.13626 0
M  V30 1495 C 137.269 3.53643 -3.84362 0
M  V30 1496 H 138.963 1.81383 -2.38203 0
M  V30 1497 H 136.509 0.871237 -1.14654 0
M  V30 1498 H 138.462 4.00404 -1.31357 0
M  V30 1499 H 137.186 3.24968 -0.326049 0
M  V30 1500 H 135.845 2.76818 -2.40349 0
M  V30 1501 H 135.493 4.89869 -1.14182 0
M  V30 1502 H 135.193 5.11962 -2.88389 0
M  V30 1503 H 136.717 5.71028 -2.1624 0
M  V30 1504 H 138.131 4.22203 -3.87837 0
M  V30 1505 H 136.528 3.86961 -4.58673 0
M  V30 1506 H 137.598 2.52954 -4.13693 0
M  V30 1507 N 138.941 1.26152 0.944643 0
M  V30 1508 C 140.352 1.10454 1.50522 0
M  V30 1509 C 140.703 -0.31635 1.93633 0
M  V30 1510 O 139.828 -1.20746 1.79581 0
M  V30 1511 C 140.423 1.99891 2.73549 0
M  V30 1512 C 138.982 1.88348 3.25886 0
M  V30 1513 C 138.129 1.93447 1.9868 0
M  V30 1514 H 141.08 1.39292 0.760489 0
M  V30 1515 H 141.101 1.54477 3.47732 0
M  V30 1516 H 140.613 3.03297 2.42141 0
M  V30 1517 H 138.714 0.878636 3.62092 0
M  V30 1518 H 138.827 2.73696 3.93227 0
M  V30 1519 H 137.191 1.37456 2.14425 0
M  V30 1520 H 137.974 2.98476 1.69607 0
M  V30 1521 N 140.419 -1.14872 1.07899 0
M  V30 1522 C 141.667 -1.85422 0.803941 0
M  V30 1523 C 141.988 -1.83051 -0.67211 0
M  V30 1524 O 141.258 -1.27532 -1.48703 0
M  V30 1525 H 139.838 -0.686537 0.294408 0
M  V30 1526 H 142.5 -1.39226 1.3639 0
M  V30 1527 H 141.596 -2.90399 1.14346 0
M  V30 1528 N 141.898 -0.863906 -1.31812 0
M  V30 1529 C 143.147 -0.46801 -1.96195 0
M  V30 1530 C 143.46 0.983474 -1.69077 0
M  V30 1531 O 144.666 1.48523 -2.27273 0
M  V30 1532 C 143.122 -0.785995 -3.51212 0
M  V30 1533 C 142.73 -2.25383 -3.87178 0
M  V30 1534 C 144.474 -0.458274 -4.22019 0
M  V30 1535 C 142.381 -2.51455 -5.3528 0
M  V30 1536 H 141.311 -0.171283 -0.734287 0
M  V30 1537 H 143.962 -1.05597 -1.50072 0
M  V30 1538 H 142.344 -0.127359 -3.95795 0
M  V30 1539 H 143.518 -2.95502 -3.53575 0
M  V30 1540 H 141.833 -2.54698 -3.2942 0
M  V30 1541 H 144.43 -0.630369 -5.30971 0
M  V30 1542 H 144.773 0.600834 -4.11941 0
M  V30 1543 H 145.306 -1.07319 -3.8305 0
M  V30 1544 H 142.045 -3.56025 -5.50387 0
M  V30 1545 H 141.565 -1.85923 -5.70257 0
M  V30 1546 H 143.244 -2.35874 -6.02472 0
M  V30 1547 N 143.376 1.44774 -0.622745 0
M  V30 1548 C 144.653 1.95522 -0.0551974 0
M  V30 1549 C 145.033 1.5649 1.41683 0
M  V30 1550 O 144.381 0.834848 2.12703 0
M  V30 1551 C 144.591 3.4796 -0.269242 0
M  V30 1552 C 145.939 4.24306 -0.158014 0
M  V30 1553 O 146.963 3.55637 -0.200162 0
M  V30 1554 O 145.822 5.46471 -0.0558693 0
M  V30 1555 H 142.916 0.826556 0.0271015 0
M  V30 1556 H 145.462 1.54866 -0.693864 0
M  V30 1557 H 144.234 3.6939 -1.29099 0
M  V30 1558 H 143.857 3.95543 0.403966 0
M  V30 1559 N 144.854 0.36279 1.53368 0
M  V30 1560 C 146.131 -0.284021 1.93527 0
M  V30 1561 C 146.511 -1.66628 1.29608 0
M  V30 1562 O 145.859 -2.23942 0.45413 0
M  V30 1563 C 146.069 -0.337028 3.47369 0
M  V30 1564 C 147.417 -0.578708 4.20638 0
M  V30 1565 O 148.441 -0.418352 3.53735 0
M  V30 1566 O 147.3 -0.89074 5.39192 0
M  V30 1567 H 144.394 -0.169743 0.809393 0
M  V30 1568 H 146.94 0.41537 1.64538 0
M  V30 1569 H 145.712 0.632217 3.86159 0
M  V30 1570 H 145.335 -1.08243 3.82582 0
M  V30 1571 N 146.332 -1.57332 0.0918853 0
M  V30 1572 C 147.562 -1.98286 -0.580205 0
M  V30 1573 C 147.97 -0.969713 -1.6246 0
M  V30 1574 O 147.313 0.0493501 -1.83634 0
M  V30 1575 C 147.375 -3.35603 -1.28882 0
M  V30 1576 C 147.039 -4.55285 -0.395559 0
M  V30 1577 C 148.036 -5.18687 0.355002 0
M  V30 1578 C 145.721 -5.01314 -0.314556 0
M  V30 1579 C 147.715 -6.26484 1.17458 0
M  V30 1580 C 145.402 -6.08979 0.508677 0
M  V30 1581 C 146.4 -6.71429 1.2519 0
M  V30 1582 O 146.088 -7.77018 2.06151 0
M  V30 1583 H 145.82 -0.656678 -0.160466 0
M  V30 1584 H 148.374 -2.04721 0.16688 0
M  V30 1585 H 146.604 -3.25842 -2.08241 0
M  V30 1586 H 148.293 -3.61026 -1.85512 0
M  V30 1587 H 149.059 -4.84058 0.302134 0
M  V30 1588 H 144.938 -4.5247 -0.882697 0
M  V30 1589 H 148.482 -6.75159 1.75518 0
M  V30 1590 H 144.379 -6.4304 0.563037 0
M  V30 1591 H 145.147 -7.93991 1.98799 0
M  V30 1592 N 147.81 0.181792 -1.56548 0
M  V30 1593 C 149.04 0.914618 -1.85252 0
M  V30 1594 C 149.448 1.76791 -0.673914 0
M  V30 1595 O 148.791 1.80009 0.366416 0
M  V30 1596 C 148.853 1.85019 -3.08234 0
M  V30 1597 C 148.517 1.17754 -4.41569 0
M  V30 1598 C 149.514 0.548035 -5.17003 0
M  V30 1599 C 147.199 1.17742 -4.88305 0
M  V30 1600 C 149.193 -0.0726128 -6.37359 0
M  V30 1601 C 146.88 0.552946 -6.08593 0
M  V30 1602 C 147.878 -0.070978 -6.82963 0
M  V30 1603 O 147.566 -0.685635 -8.00971 0
M  V30 1604 H 147.298 0.271695 -0.618998 0
M  V30 1605 H 149.852 0.189944 -2.0452 0
M  V30 1606 H 148.082 2.61491 -2.84885 0
M  V30 1607 H 149.771 2.45195 -3.23472 0
M  V30 1608 H 150.537 0.540174 -4.81982 0
M  V30 1609 H 146.416 1.65246 -4.30366 0
M  V30 1610 H 149.96 -0.560213 -6.95347 0
M  V30 1611 H 145.857 0.558354 -6.43081 0
M  V30 1612 H 146.625 -0.58385 -8.16415 0
M  V30 1613 N 149.288 1.51039 0.449983 0
M  V30 1614 C 150.198 1.74261 1.57067 0
M  V30 1615 C 151.214 0.626363 1.62335 0
M  V30 1616 O 152.39 0.907162 1.79812 0
M  V30 1617 C 149.455 1.85114 2.93144 0
M  V30 1618 C 148.516 3.0893 2.98095 0
M  V30 1619 C 147.749 3.19256 4.27681 0
M  V30 1620 O 147.972 2.35835 5.19363 0
M  V30 1621 O 146.906 4.12144 4.38658 0
M  V30 1622 H 150.732 2.69303 1.40391 0
M  V30 1623 H 148.317 1.35389 0.631688 0
M  V30 1624 H 150.199 1.94311 3.73926 0
M  V30 1625 H 148.874 0.932588 3.09975 0
M  V30 1626 H 147.781 3.0522 2.16314 0
M  V30 1627 H 149.114 4.00433 2.86206 0
M  V30 1628 N 150.766 -0.704594 1.40972 0
M  V30 1629 C 152.177 -1.28418 1.3552 0
M  V30 1630 C 152.528 -1.96171 0.0339434 0
M  V30 1631 O 151.653 -1.98231 -0.867944 0
M  V30 1632 C 152.248 -2.33528 2.45459 0
M  V30 1633 C 150.807 -2.87085 2.43433 0
M  V30 1634 C 149.954 -1.61007 2.2577 0
M  V30 1635 H 152.905 -0.499963 1.50619 0
M  V30 1636 H 152.926 -3.14619 2.13998 0
M  V30 1637 H 152.438 -1.84187 3.41609 0
M  V30 1638 H 150.539 -3.40626 1.51013 0
M  V30 1639 H 150.652 -3.3813 3.39419 0
M  V30 1640 H 149.016 -1.86482 1.73483 0
M  V30 1641 H 149.799 -1.13675 3.23933 0
M  V30 1642 N 152.244 -1.26651 -0.937939 0
M  V30 1643 C 153.491 -1.12387 -1.6845 0
M  V30 1644 C 153.819 0.332208 -1.91642 0
M  V30 1645 O 153.074 1.2602 -1.49725 0
M  V30 1646 C 153.373 -1.84168 -3.06295 0
M  V30 1647 C 153.039 -3.34056 -3.02849 0
M  V30 1648 C 151.701 -3.74942 -3.01616 0
M  V30 1649 C 154.053 -4.29741 -2.9491 0
M  V30 1650 C 151.381 -5.09894 -2.90215 0
M  V30 1651 C 153.733 -5.64738 -2.8505 0
M  V30 1652 C 152.397 -6.0493 -2.82162 0
M  V30 1653 H 151.667 -0.411252 -0.616403 0
M  V30 1654 H 154.314 -1.57134 -1.09459 0
M  V30 1655 H 152.619 -1.319 -3.6893 0
M  V30 1656 H 154.316 -1.70569 -3.62915 0
M  V30 1657 H 150.906 -3.01534 -3.0459 0
M  V30 1658 H 155.09 -3.99133 -2.94969 0
M  V30 1659 H 150.346 -5.40194 -2.86358 0
M  V30 1660 H 154.52 -6.38561 -2.77872 0
M  V30 1661 H 152.147 -7.09457 -2.73084 0
M  V30 1662 N 153.722 1.14298 -1.08507 0
M  V30 1663 C 154.999 1.81544 -0.728088 0
M  V30 1664 C 155.379 1.95838 0.78808 0
M  V30 1665 O 154.727 1.51904 1.70697 0
M  V30 1666 C 154.937 3.17169 -1.45619 0
M  V30 1667 C 156.285 3.9265 -1.61591 0
M  V30 1668 O 157.309 3.26762 -1.41793 0
M  V30 1669 O 156.168 5.10807 -1.94263 0
M  V30 1670 H 153.262 0.78491 -0.260471 0
M  V30 1671 H 155.808 1.21307 -1.18671 0
M  V30 1672 H 154.58 3.01934 -2.489 0
M  V30 1673 H 154.203 3.851 -0.989124 0
M  V30 1674 N 155.201 0.870884 1.31352 0
M  V30 1675 C 156.448 0.482273 1.96673 0
M  V30 1676 C 156.776 -0.965638 1.68836 0
M  V30 1677 O 156.031 -1.69514 0.977937 0
M  V30 1678 C 156.33 0.687157 3.50732 0
M  V30 1679 C 155.996 2.108 3.9859 0
M  V30 1680 C 154.658 2.49656 4.1137 0
M  V30 1681 C 157.01 3.03459 4.23748 0
M  V30 1682 C 154.338 3.80412 4.46659 0
M  V30 1683 C 156.69 4.3373 4.60501 0
M  V30 1684 C 155.354 4.725 4.71487 0
M  V30 1685 H 154.624 0.176476 0.719679 0
M  V30 1686 H 157.271 1.10405 1.56471 0
M  V30 1687 H 155.576 -0.0177476 3.91796 0
M  V30 1688 H 157.273 0.366284 3.99324 0
M  V30 1689 H 153.863 1.79633 3.8914 0
M  V30 1690 H 158.047 2.74665 4.13368 0
M  V30 1691 H 153.303 4.1021 4.53362 0
M  V30 1692 H 157.477 5.05578 4.78919 0
M  V30 1693 H 155.104 5.73859 4.98588 0
M  V30 1694 N 156.679 -1.44442 0.630414 0
M  V30 1695 C 157.956 -1.9549 0.0655657 0
M  V30 1696 C 158.336 -1.5724 -1.40851 0
M  V30 1697 O 157.684 -0.846116 -2.12257 0
M  V30 1698 C 157.894 -3.47812 0.287691 0
M  V30 1699 C 159.242 -4.24216 0.180513 0
M  V30 1700 O 160.266 -3.55526 0.219019 0
M  V30 1701 O 159.125 -5.46434 0.0848493 0
M  V30 1702 H 156.219 -0.826688 -0.0227177 0
M  V30 1703 H 158.765 -1.54496 0.702068 0
M  V30 1704 H 157.537 -3.687 1.31056 0
M  V30 1705 H 157.16 -3.95751 -0.382984 0
M  V30 1706 N 158.157 -0.370918 -1.53173 0
M  V30 1707 C 159.387 0.217389 -2.05453 0
M  V30 1708 C 159.795 1.42568 -1.24382 0
M  V30 1709 O 159.138 1.81571 -0.278839 0
M  V30 1710 C 159.2 0.669827 -3.53205 0
M  V30 1711 C 158.864 -0.4225 -4.55043 0
M  V30 1712 C 159.861 -1.27407 -5.04047 0
M  V30 1713 C 157.546 -0.58427 -4.9889 0
M  V30 1714 C 159.54 -2.27271 -5.95505 0
M  V30 1715 C 157.227 -1.58627 -5.90153 0
M  V30 1716 C 158.225 -2.42892 -6.38351 0
M  V30 1717 O 157.913 -3.41382 -7.27814 0
M  V30 1718 H 157.645 0.0408171 -0.674767 0
M  V30 1719 H 160.199 -0.5292 -1.98466 0
M  V30 1720 H 158.429 1.4681 -3.57748 0
M  V30 1721 H 160.118 1.18173 -3.88317 0
M  V30 1722 H 160.884 -1.16031 -4.70916 0
M  V30 1723 H 156.763 0.061851 -4.60959 0
M  V30 1724 H 160.307 -2.93079 -6.33049 0
M  V30 1725 H 156.204 -1.70048 -6.22699 0
M  V30 1726 H 156.972 -3.37173 -7.45826 0
M  V30 1727 N 159.635 1.57281 -0.100228 0
M  V30 1728 C 160.567 2.11342 0.886972 0
M  V30 1729 C 161.58 1.05182 1.24261 0
M  V30 1730 O 162.769 1.32613 1.19483 0
M  V30 1731 C 159.869 2.5825 2.19454 0
M  V30 1732 C 159.042 3.88302 2.01346 0
M  V30 1733 C 158.101 4.21004 3.15661 0
M  V30 1734 O 157.127 4.9014 2.89398 0
M  V30 1735 N 158.329 3.76818 4.41575 0
M  V30 1736 H 161.094 2.96668 0.425216 0
M  V30 1737 H 158.655 1.61678 0.0847334 0
M  V30 1738 H 160.647 2.7717 2.94888 0
M  V30 1739 H 159.217 1.77907 2.57037 0
M  V30 1740 H 158.437 3.7848 1.10212 0
M  V30 1741 H 159.725 4.73375 1.8653 0
M  V30 1742 H 159.123 3.2102 4.65792 0
M  V30 1743 H 157.68 4.00882 5.13942 0
M  V30 1744 N 161.113 -0.173488 1.56642 0
M  V30 1745 C 162.061 -1.23417 1.97157 0
M  V30 1746 C 163.055 -1.45946 0.860013 0
M  V30 1747 O 164.261 -1.46551 1.04512 0
M  V30 1748 H 160.636 -0.414818 0.62724 0
M  V30 1749 H 162.607 -0.865582 2.8557 0
M  V30 1750 C 161.356 -2.5665 2.34576 0
M  V30 1751 H 160.679 -2.40137 3.19647 0
M  V30 1752 H 162.119 -3.2956 2.6677 0
M  V30 1753 C 160.578 -3.15245 1.18836 0
M  V30 1754 O 161.108 -3.98883 0.474869 0
M  V30 1755 N 159.314 -2.74303 0.959497 0
M  V30 1756 H 158.861 -2.0639 1.54146 0
M  V30 1757 H 158.819 -3.13844 0.186932 0
M  V30 1758 N 162.591 -1.51276 -0.441967 0
M  V30 1759 C 163.521 -1.752 -1.54361 0
M  V30 1760 C 164.502 -0.601682 -1.59103 0
M  V30 1761 O 165.687 -0.843913 -1.74905 0
M  V30 1762 C 162.817 -1.87282 -2.92477 0
M  V30 1763 C 161.771 -3.02687 -3.02596 0
M  V30 1764 C 161.097 -2.99947 -4.42647 0
M  V30 1765 C 162.397 -4.4273 -2.77106 0
M  V30 1766 H 164.091 -2.67442 -1.34592 0
M  V30 1767 H 161.637 -1.28694 -0.646048 0
M  V30 1768 H 163.59 -2.02602 -3.695 0
M  V30 1769 H 162.314 -0.916844 -3.13467 0
M  V30 1770 H 160.973 -2.87065 -2.28012 0
M  V30 1771 H 160.621 -2.02136 -4.60597 0
M  V30 1772 H 160.321 -3.77439 -4.50348 0
M  V30 1773 H 161.845 -3.17354 -5.2165 0
M  V30 1774 H 163.259 -4.58727 -3.43864 0
M  V30 1775 H 161.656 -5.21893 -2.96222 0
M  V30 1776 H 162.726 -4.53087 -1.72744 0
M  V30 1777 N 164.069 0.697108 -1.41344 0
M  V30 1778 C 165.019 1.80313 -1.39539 0
M  V30 1779 C 166.003 1.58618 -0.270001 0
M  V30 1780 O 167.195 1.69477 -0.510551 0
M  V30 1781 C 164.324 3.18606 -1.27848 0
M  V30 1782 C 163.41 3.46001 -2.45244 0
M  V30 1783 N 163.801 3.44103 -3.70711 0
M  V30 1784 C 162.099 3.76542 -2.39023 0
M  V30 1785 C 162.8 3.7036 -4.48563 0
M  V30 1786 N 161.776 3.90027 -3.78655 0
M  V30 1787 H 165.578 1.77207 -2.34468 0
M  V30 1788 H 163.092 0.897031 -1.35378 0
M  V30 1789 H 165.089 3.97833 -1.24637 0
M  V30 1790 H 163.749 3.22925 -0.339032 0
M  V30 1791 H 164.76 3.2452 -4.03618 0
M  V30 1792 H 161.437 3.88241 -1.53542 0
M  V30 1793 H 162.827 3.75042 -5.57488 0
M  V30 1794 N 165.547 1.27147 0.931209 0
M  V30 1795 C 166.775 1.16082 1.71267 0
M  V30 1796 C 167.19 -0.282772 1.8667 0
M  V30 1797 O 166.547 -1.19283 1.38122 0
M  V30 1798 C 166.598 1.8358 3.11417 0
M  V30 1799 O 166.319 3.22299 2.96741 0
M  V30 1800 C 167.82 1.78597 4.05732 0
M  V30 1801 H 165.04 0.403758 0.535929 0
M  V30 1802 H 167.584 1.67953 1.16671 0
M  V30 1803 H 165.739 1.35623 3.62885 0
M  V30 1804 H 166.153 3.55851 3.85319 0
M  V30 1805 H 167.627 2.30444 5.01597 0
M  V30 1806 H 168.104 0.754564 4.3267 0
M  V30 1807 H 168.71 2.26152 3.60188 0
M  V30 1808 N 167.025 -1.13721 1.09112 0
M  V30 1809 C 167.988 -2.17222 0.731241 0
M  V30 1810 C 168.988 -1.59035 -0.237566 0
M  V30 1811 O 170.178 -1.74192 -0.0161704 0
M  V30 1812 C 167.31 -3.40804 0.0808443 0
M  V30 1813 H 168.503 -2.50573 1.64783 0
M  V30 1814 H 166.056 -1.28493 0.889897 0
M  V30 1815 H 166.791 -3.1304 -0.847127 0
M  V30 1816 H 166.576 -3.84306 0.777896 0
M  V30 1817 H 168.066 -4.1731 -0.155657 0
M  V30 1818 N 168.503 -0.877838 -1.30888 0
M  V30 1819 C 169.914 -0.544193 -1.78593 0
M  V30 1820 C 170.265 0.939301 -1.72254 0
M  V30 1821 O 169.39 1.7337 -1.29505 0
M  V30 1822 C 169.985 -0.98105 -3.24285 0
M  V30 1823 C 168.544 -0.698935 -3.69854 0
M  V30 1824 C 167.691 -1.168 -2.51502 0
M  V30 1825 H 170.642 -1.06278 -1.17859 0
M  V30 1826 H 170.663 -0.307009 -3.79259 0
M  V30 1827 H 170.175 -2.06079 -3.28866 0
M  V30 1828 H 168.276 0.369112 -3.70767 0
M  V30 1829 H 168.389 -1.28148 -4.61644 0
M  V30 1830 H 166.753 -0.587535 -2.47831 0
M  V30 1831 H 167.536 -2.25533 -2.58824 0
M  V30 1832 N 169.982 1.44106 -0.638065 0
M  V30 1833 C 170.892 2.34513 0.0637334 0
M  V30 1834 C 171.908 1.53018 0.828346 0
M  V30 1835 O 173.084 1.85723 0.779036 0
M  V30 1836 C 170.149 3.31095 1.02844 0
M  V30 1837 C 169.21 4.28497 0.26244 0
M  V30 1838 C 168.443 5.20465 1.1812 0
M  V30 1839 O 168.666 5.16514 2.42011 0
M  V30 1840 O 167.6 5.98251 0.661774 0
M  V30 1841 H 171.426 2.95989 -0.68003 0
M  V30 1842 H 169.011 1.43994 -0.398252 0
M  V30 1843 H 170.893 3.90526 1.58327 0
M  V30 1844 H 169.568 2.72144 1.7527 0
M  V30 1845 H 168.475 3.72592 -0.335602 0
M  V30 1846 H 169.808 4.90388 -0.421936 0
M  V30 1847 N 171.46 0.379036 1.52974 0
M  V30 1848 C 172.708 -0.206014 2.01047 0
M  V30 1849 C 173.029 -1.48175 1.26765 0
M  V30 1850 O 172.299 -1.92085 0.384743 0
M  V30 1851 H 170.879 -0.0791184 0.742798 0
M  V30 1852 H 173.541 0.508366 1.88153 0
M  V30 1853 H 172.637 -0.423501 3.09213 0
M  V30 1854 N 172.938 -1.57226 0.108567 0
M  V30 1855 C 174.163 -1.99604 -0.563303 0
M  V30 1856 C 174.588 -0.987563 -1.6009 0
M  V30 1857 O 173.946 0.0421687 -1.81251 0
M  V30 1858 C 173.994 -3.40902 -1.17552 0
M  V30 1859 O 173.098 -3.42896 -2.2912 0
M  V30 1860 H 172.439 -0.648704 -0.1417 0
M  V30 1861 H 174.969 -2.03679 0.193961 0
M  V30 1862 H 174.979 -3.78886 -1.51357 0
M  V30 1863 H 173.654 -4.1382 -0.415445 0
M  V30 1864 H 172.231 -3.1672 -1.96832 0
M  V30 1865 N 174.416 0.165178 -1.56732 0
M  V30 1866 C 175.363 1.2044 -1.96883 0
M  V30 1867 C 176.333 1.43664 -0.833657 0
M  V30 1868 O 177.518 1.56302 -1.09427 0
M  V30 1869 C 174.658 2.53727 -2.33916 0
M  V30 1870 C 173.771 2.3783 -3.6064 0
M  V30 1871 C 172.906 3.64026 -3.86857 0
M  V30 1872 C 171.945 3.43088 -5.06909 0
M  V30 1873 N 171.082 4.61369 -5.29229 0
M  V30 1874 H 175.922 0.854996 -2.85471 0
M  V30 1875 H 173.459 0.41076 -1.41249 0
M  V30 1876 H 175.417 3.31419 -2.53411 0
M  V30 1877 H 174.047 2.8665 -1.48431 0
M  V30 1878 H 173.099 1.51282 -3.49024 0
M  V30 1879 H 174.411 2.18308 -4.4849 0
M  V30 1880 H 173.565 4.50152 -4.06753 0
M  V30 1881 H 172.304 3.86533 -2.97394 0
M  V30 1882 H 171.309 2.55349 -4.86906 0
M  V30 1883 H 172.534 3.21997 -5.97909 0
M  V30 1884 H 170.48 4.84084 -4.42718 0
M  V30 1885 H 170.397 4.44783 -6.11313 0
M  V30 1886 H 171.665 5.48761 -5.53608 0
M  V30 1887 N 175.894 1.51508 0.433938 0
M  V30 1888 C 177.119 1.68443 1.21003 0
M  V30 1889 C 177.544 0.382636 1.84167 0
M  V30 1890 O 176.902 -0.65755 1.68956 0
M  V30 1891 C 176.95 2.80405 2.26727 0
M  V30 1892 O 176.054 2.44245 3.32292 0
M  V30 1893 H 175.395 0.561536 0.354363 0
M  V30 1894 H 177.925 1.9809 0.512024 0
M  V30 1895 H 177.935 3.0459 2.71457 0
M  V30 1896 H 176.61 3.74867 1.80132 0
M  V30 1897 H 175.187 2.30644 2.93015 0
M  V30 1898 N 177.372 -0.689602 1.41712 0
M  V30 1899 C 178.304 -1.815 1.39966 0
M  V30 1900 C 179.317 -1.59995 0.300917 0
M  V30 1901 O 180.506 -1.69387 0.563039 0
M  V30 1902 C 177.606 -3.18364 1.16179 0
M  V30 1903 C 176.779 -3.66847 2.38206 0
M  V30 1904 C 175.838 -4.82398 2.10186 0
M  V30 1905 O 174.864 -4.93706 2.83272 0
M  V30 1906 N 176.066 -5.70064 1.0958 0
M  V30 1907 H 178.831 -1.83488 2.36965 0
M  V30 1908 H 176.392 -0.872149 1.36401 0
M  V30 1909 H 178.384 -3.93301 0.953756 0
M  V30 1910 H 176.954 -3.11365 0.27756 0
M  V30 1911 H 176.174 -2.82751 2.74673 0
M  V30 1912 H 177.462 -3.95978 3.19498 0
M  V30 1913 H 176.86 -5.63565 0.491019 0
M  V30 1914 H 175.417 -6.44874 0.947656 0
M  V30 1915 N 178.85 -1.27639 -0.924453 0
M  V30 1916 C 180.261 -1.12834 -1.48746 0
M  V30 1917 C 180.612 0.285505 -1.94112 0
M  V30 1918 O 179.737 1.17874 -1.81479 0
M  V30 1919 C 180.332 -2.04217 -2.70334 0
M  V30 1920 C 178.891 -1.93509 -3.22848 0
M  V30 1921 C 178.038 -1.96583 -1.95577 0
M  V30 1922 H 180.989 -1.40484 -0.738233 0
M  V30 1923 H 181.01 -1.59989 -3.4523 0
M  V30 1924 H 180.522 -3.07111 -2.37285 0
M  V30 1925 H 178.623 -0.936131 -3.60649 0
M  V30 1926 H 178.736 -2.79917 -3.88823 0
M  V30 1927 H 177.1 -1.4085 -2.12211 0
M  V30 1928 H 177.883 -3.01137 -1.64837 0
M  V30 1929 N 180.328 1.1314 -1.09713 0
M  V30 1930 C 181.577 1.83838 -0.829851 0
M  V30 1931 C 181.89 1.84599 0.646728 0
M  V30 1932 O 183.096 2.51218 1.02965 0
M  V30 1933 C 181.552 3.30069 -1.43466 0
M  V30 1934 C 181.16 3.37688 -2.94399 0
M  V30 1935 C 182.904 4.05788 -1.24645 0
M  V30 1936 C 180.811 4.78209 -3.47952 0
M  V30 1937 H 179.741 0.68877 -0.306777 0
M  V30 1938 H 182.392 1.27448 -1.3202 0
M  V30 1939 H 180.774 3.8628 -0.871996 0
M  V30 1940 H 181.948 2.91456 -3.56918 0
M  V30 1941 H 180.263 2.75436 -3.12289 0
M  V30 1942 H 182.86 5.09535 -1.62107 0
M  V30 1943 H 183.203 4.15878 -0.187357 0
M  V30 1944 H 183.736 3.55915 -1.77678 0
M  V30 1945 H 180.475 4.73311 -4.53495 0
M  V30 1946 H 179.995 5.24924 -2.90198 0
M  V30 1947 H 181.674 5.47133 -3.45332 0
M  V30 1948 N 181.806 0.884767 1.30421 0
M  V30 1949 C 182.769 0.356277 2.26414 0
M  V30 1950 C 183.769 -0.501124 1.52792 0
M  V30 1951 O 184.959 -0.30831 1.7145 0
M  V30 1952 C 182.091 -0.492316 3.37326 0
M  V30 1953 H 183.284 1.20389 2.74675 0
M  V30 1954 H 180.837 0.661607 1.41607 0
M  V30 1955 H 181.572 -1.36052 2.94381 0
M  V30 1956 H 181.357 0.121832 3.91911 0
M  V30 1957 H 182.847 -0.853871 4.08777 0
M  V30 1958 N 183.284 -1.43765 0.645699 0
M  V30 1959 C 184.7 -1.56509 0.312591 0
M  V30 1960 C 184.9 -1.6307 -1.18365 0
M  V30 1961 O 183.956 -1.58167 -1.96824 0
M  V30 1962 C 185.269 -2.82968 1.01733 0
M  V30 1963 C 186.817 -2.96701 0.996865 0
M  V30 1964 C 187.292 -4.25982 1.68236 0
M  V30 1965 N 188.783 -4.32829 1.64964 0
M  V30 1966 C 189.518 -5.31613 2.14885 0
M  V30 1967 N 189.014 -6.36718 2.73061 0
M  V30 1968 N 190.807 -5.23217 2.05428 0
M  V30 1969 H 182.958 -1.3775 1.61675 0
M  V30 1970 H 185.221 -0.661067 0.679481 0
M  V30 1971 H 184.927 -2.84156 2.0724 0
M  V30 1972 H 184.801 -3.72957 0.564177 0
M  V30 1973 H 187.188 -2.95058 -0.0497719 0
M  V30 1974 H 187.269 -2.08022 1.48865 0
M  V30 1975 H 186.913 -4.28386 2.72852 0
M  V30 1976 H 186.843 -5.13545 1.16529 0
M  V30 1977 H 189.334 -3.57493 1.22503 0
M  V30 1978 H 189.647 -7.08401 3.08848 0
M  V30 1979 H 187.992 -6.37362 2.77118 0
M  V30 1980 H 191.183 -4.40019 1.59689 0
M  V30 1981 H 191.356 -6.00045 2.44643 0
M  V30 1982 N 184.763 -0.387143 -1.52771 0
M  V30 1983 C 186.174 0.0873634 -1.86495 0
M  V30 1984 C 186.525 1.46336 -1.30691 0
M  V30 1985 O 185.65 2.068 -0.637409 0
M  V30 1986 C 186.245 0.165305 -3.38396 0
M  V30 1987 C 184.804 0.584101 -3.7184 0
M  V30 1988 C 183.951 -0.255279 -2.76122 0
M  V30 1989 H 186.902 -0.605104 -1.46711 0
M  V30 1990 H 186.923 0.984848 -3.67534 0
M  V30 1991 H 186.435 -0.836301 -3.78982 0
M  V30 1992 H 184.536 1.59315 -3.36823 0
M  V30 1993 H 184.649 0.343749 -4.77865 0
M  V30 1994 H 183.013 0.279126 -2.53166 0
M  V30 1995 H 183.796 -1.25482 -3.19545 0
M  V30 1996 N 186.241 1.57166 -0.116904 0
M  V30 1997 C 187.657 1.5779 0.239693 0
M  V30 1998 C 187.857 1.1295 1.66867 0
M  V30 1999 O 186.913 0.81592 2.38954 0
M  V30 2000 C 188.226 3.00699 0.00828202 0
M  V30 2001 C 189.774 3.12912 0.0743438 0
M  V30 2002 C 190.249 4.57817 -0.129348 0
M  V30 2003 N 191.74 4.63139 -0.075247 0
M  V30 2004 C 192.475 5.73023 -0.207788 0
M  V30 2005 N 191.971 6.91665 -0.396382 0
M  V30 2006 N 193.764 5.61906 -0.14751 0
M  V30 2007 H 185.915 1.84615 -1.05029 0
M  V30 2008 H 188.178 0.85311 -0.41341 0
M  V30 2009 H 187.884 3.37784 -0.979531 0
M  V30 2010 H 187.758 3.69848 0.741077 0
M  V30 2011 H 190.145 2.75686 1.05268 0
M  V30 2012 H 190.226 2.4631 -0.690297 0
M  V30 2013 H 189.87 4.95742 -1.10465 0
M  V30 2014 H 189.8 5.22507 0.655253 0
M  V30 2015 H 192.291 3.7784 0.0670898 0
M  V30 2016 H 192.604 7.71255 -0.488437 0
M  V30 2017 H 190.949 6.93654 -0.432329 0
M  V30 2018 H 194.14 4.681 -0.00115036 0
M  V30 2019 H 194.313 6.47501 -0.254247 0
M  V30 2020 N 187.719 -0.156864 1.56817 0
M  V30 2021 C 188.944 -0.890331 1.87318 0
M  V30 2022 C 189.369 -1.74394 0.704855 0
M  V30 2023 O 188.727 -1.77972 -0.345786 0
M  V30 2024 C 188.775 -1.73102 3.16336 0
M  V30 2025 O 187.879 -2.83422 2.99576 0
M  V30 2026 H 187.22 -0.24857 0.615718 0
M  V30 2027 H 189.75 -0.150649 2.04045 0
M  V30 2028 H 189.76 -2.12803 3.48107 0
M  V30 2029 H 188.435 -1.10412 4.00976 0
M  V30 2030 H 187.012 -2.47199 2.7919 0
M  V30 2031 N 189.197 -1.51736 -0.425897 0
M  V30 2032 C 190.127 -1.76827 -1.52494 0
M  V30 2033 C 191.108 -0.618524 -1.58456 0
M  V30 2034 O 192.293 -0.862416 -1.74 0
M  V30 2035 C 189.423 -1.90374 -2.90474 0
M  V30 2036 C 188.377 -3.0588 -2.99369 0
M  V30 2037 C 187.703 -3.04625 -4.3944 0
M  V30 2038 C 189.003 -4.45644 -2.72394 0
M  V30 2039 H 190.697 -2.68855 -1.31748 0
M  V30 2040 H 188.243 -1.29372 -0.632362 0
M  V30 2041 H 190.196 -2.0651 -3.6733 0
M  V30 2042 H 188.92 -0.95004 -3.12477 0
M  V30 2043 H 187.579 -2.89467 -2.24954 0
M  V30 2044 H 187.227 -2.0701 -4.58428 0
M  V30 2045 H 186.927 -3.82195 -4.46319 0
M  V30 2046 H 188.451 -3.22869 -5.18255 0
M  V30 2047 H 189.865 -4.62348 -3.38979 0
M  V30 2048 H 188.262 -5.25006 -2.9067 0
M  V30 2049 H 189.332 -4.54893 -1.67929 0
M  V30 2050 N 190.675 0.682077 -1.42076 0
M  V30 2051 C 191.924 1.43786 -1.41451 0
M  V30 2052 C 192.237 1.95574 -0.0317074 0
M  V30 2053 O 193.443 2.71326 0.0971462 0
M  V30 2054 C 191.899 2.60071 -2.48779 0
M  V30 2055 C 191.507 2.15013 -3.93031 0
M  V30 2056 C 193.251 3.37626 -2.57311 0
M  V30 2057 C 191.158 3.28336 -4.91883 0
M  V30 2058 H 190.088 0.540143 -0.526082 0
M  V30 2059 H 192.739 0.739157 -1.67955 0
M  V30 2060 H 191.121 3.32275 -2.15429 0
M  V30 2061 H 192.295 1.5001 -4.35699 0
M  V30 2062 H 190.61 1.50416 -3.88284 0
M  V30 2063 H 193.207 4.22012 -3.28345 0
M  V30 2064 H 193.55 3.83727 -1.61429 0
M  V30 2065 H 194.083 2.72488 -2.89819 0
M  V30 2066 H 190.822 2.87234 -5.89217 0
M  V30 2067 H 190.342 3.92145 -4.53853 0
M  V30 2068 H 192.021 3.93913 -5.13265 0
M  V30 2069 N 192.153 1.28127 0.917671 0
M  V30 2070 C 193.381 1.17892 1.70026 0
M  V30 2071 C 193.796 -0.262958 1.8696 0
M  V30 2072 O 193.153 -1.17811 1.3938 0
M  V30 2073 C 193.204 1.86872 3.09453 0
M  V30 2074 O 192.925 3.25428 2.93306 0
M  V30 2075 C 194.426 1.8289 4.03815 0
M  V30 2076 H 191.646 0.40942 0.531617 0
M  V30 2077 H 194.19 1.69181 1.14883 0
M  V30 2078 H 192.345 1.39464 3.61426 0
M  V30 2079 H 192.759 3.59918 3.81523 0
M  V30 2080 H 194.233 2.35751 4.99125 0
M  V30 2081 H 194.71 0.800412 4.31845 0
M  V30 2082 H 195.316 2.29959 3.57769 0
M  V30 2083 N 193.631 -1.12557 1.10312 0
M  V30 2084 C 194.879 -1.83675 0.843091 0
M  V30 2085 C 195.2 -1.84435 -0.633131 0
M  V30 2086 O 194.47 -1.30657 -1.45964 0
M  V30 2087 H 193.05 -0.680138 0.308904 0
M  V30 2088 H 195.712 -1.36301 1.39313 0
M  V30 2089 H 194.808 -2.87908 1.2048 0
M  V30 2090 N 195.109 -0.891671 -1.2995 0
M  V30 2091 C 196.019 -0.367691 -2.31701 0
M  V30 2092 C 197.035 0.533486 -1.6562 0
M  V30 2093 O 198.211 0.424997 -1.96865 0
M  V30 2094 C 195.276 0.403406 -3.44345 0
M  V30 2095 C 194.337 -0.528328 -4.26037 0
M  V30 2096 C 193.57 0.206063 -5.33302 0
M  V30 2097 O 193.793 1.43119 -5.52153 0
M  V30 2098 O 192.727 -0.447281 -6.00236 0
M  V30 2099 H 196.553 -1.21163 -2.78484 0
M  V30 2100 H 194.138 -0.655725 -1.34241 0
M  V30 2101 H 196.02 0.839753 -4.12948 0
M  V30 2102 H 194.695 1.22354 -2.99685 0
M  V30 2103 H 193.602 -1.01362 -3.60106 0
M  V30 2104 H 194.935 -1.31465 -4.74318 0
M  V30 2105 N 196.587 1.43421 -0.653314 0
M  V30 2106 C 198.003 1.56341 -0.320886 0
M  V30 2107 C 198.203 1.63696 1.17499 0
M  V30 2108 O 197.259 1.59208 1.95982 0
M  V30 2109 C 198.572 2.82424 -1.03233 0
M  V30 2110 C 200.12 2.96168 -1.01259 0
M  V30 2111 C 200.595 4.25084 -1.70492 0
M  V30 2112 N 202.086 4.31948 -1.67257 0
M  V30 2113 C 202.821 5.30466 -2.17701 0
M  V30 2114 N 202.317 6.35261 -2.76434 0
M  V30 2115 N 204.11 5.2212 -2.082 0
M  V30 2116 H 196.261 1.3689 -1.62403 0
M  V30 2117 H 198.524 0.657455 -0.682977 0
M  V30 2118 H 198.23 2.83053 -2.08744 0
M  V30 2119 H 198.104 3.72653 -0.583948 0
M  V30 2120 H 200.491 2.9508 0.0341235 0
M  V30 2121 H 200.572 2.07229 -1.49966 0
M  V30 2122 H 200.216 4.26932 -2.7512 0
M  V30 2123 H 200.146 5.1292 -1.19251 0
M  V30 2124 H 202.637 3.56838 -1.24398 0
M  V30 2125 H 202.95 7.06754 -3.12601 0
M  V30 2126 H 201.295 6.35884 -2.80495 0
M  V30 2127 H 204.486 4.39166 -1.62021 0
M  V30 2128 H 204.659 5.98739 -2.47822 0
M  V30 2129 N 198.065 0.39524 1.52563 0
M  V30 2130 C 198.998 -0.4813 2.23067 0
M  V30 2131 C 199.976 -1.05927 1.23362 0
M  V30 2132 O 201.16 -1.10979 1.52368 0
M  V30 2133 C 198.287 -1.66676 2.9485 0
M  V30 2134 C 197.333 -1.21348 4.08873 0
M  V30 2135 S 198.166 -0.190102 5.35162 0
M  V30 2136 C 199.322 -1.38121 6.1047 0
M  V30 2137 H 199.555 0.117381 2.97068 0
M  V30 2138 H 197.088 0.179458 1.53354 0
M  V30 2139 H 199.046 -2.3466 3.36816 0
M  V30 2140 H 197.707 -2.23676 2.20518 0
M  V30 2141 H 196.9 -2.09877 4.58222 0
M  V30 2142 H 196.502 -0.612486 3.68951 0
M  V30 2143 H 198.794 -2.30726 6.37002 0
M  V30 2144 H 199.737 -0.928521 7.01986 0
M  V30 2145 H 200.145 -1.60071 5.41329 0
M  V30 2146 N 199.544 -1.57102 0.125237 0
M  V30 2147 C 200.507 -2.14471 -0.80838 0
M  V30 2148 C 201.507 -1.0811 -1.19033 0
M  V30 2149 O 202.697 -1.33856 -1.11482 0
M  V30 2150 C 199.829 -2.69005 -2.09402 0
M  V30 2151 H 201.022 -2.98297 -0.309696 0
M  V30 2152 H 198.575 -1.55807 -0.124051 0
M  V30 2153 H 199.31 -1.88785 -2.63687 0
M  V30 2154 H 199.095 -3.46799 -1.82957 0
M  V30 2155 H 200.585 -3.13278 -2.76128 0
M  V30 2156 N 201.022 0.148545 -1.56898 0
M  V30 2157 C 201.969 1.18345 -1.98149 0
M  V30 2158 C 202.939 1.42772 -0.848848 0
M  V30 2159 O 204.124 1.55132 -1.11079 0
M  V30 2160 C 201.264 2.51231 -2.36594 0
M  V30 2161 C 200.377 2.33991 -3.63142 0
M  V30 2162 C 199.512 3.59902 -3.90697 0
M  V30 2163 C 198.551 3.37692 -5.1052 0
M  V30 2164 N 197.688 4.5573 -5.34092 0
M  V30 2165 H 202.528 0.82467 -2.86362 0
M  V30 2166 H 200.065 0.395756 -1.41676 0
M  V30 2167 H 202.023 3.28713 -2.56912 0
M  V30 2168 H 200.653 2.85059 -1.51463 0
M  V30 2169 H 199.705 1.47572 -3.50609 0
M  V30 2170 H 201.017 2.13539 -4.5078 0
M  V30 2171 H 200.171 4.45813 -4.11505 0
M  V30 2172 H 198.91 3.83357 -3.01477 0
M  V30 2173 H 197.915 2.5017 -4.89587 0
M  V30 2174 H 199.14 3.15637 -6.0129 0
M  V30 2175 H 197.086 4.79361 -4.47827 0
M  V30 2176 H 197.003 4.38274 -6.15996 0
M  V30 2177 H 198.271 5.42858 -5.59397 0
M  V30 2178 N 202.5 1.5196 0.417844 0
M  V30 2179 C 203.749 1.6482 1.16264 0
M  V30 2180 C 204.062 0.379886 1.91876 0
M  V30 2181 O 205.268 0.388154 2.68711 0
M  V30 2182 C 203.724 2.91161 2.1155 0
M  V30 2183 C 203.332 4.25068 1.41495 0
M  V30 2184 C 205.076 3.13383 2.86341 0
M  V30 2185 C 202.983 5.42541 2.35379 0
M  V30 2186 H 201.913 0.613954 0.437694 0
M  V30 2187 H 204.564 1.78442 0.427871 0
M  V30 2188 H 202.946 2.71218 2.88543 0
M  V30 2189 H 204.12 4.55463 0.699263 0
M  V30 2190 H 202.435 4.0888 0.787792 0
M  V30 2191 H 205.032 3.98324 3.5671 0
M  V30 2192 H 205.375 2.27256 3.48798 0
M  V30 2193 H 205.908 3.33757 2.1645 0
M  V30 2194 H 202.647 6.30987 1.77582 0
M  V30 2195 H 202.167 5.16497 3.04945 0
M  V30 2196 H 203.846 5.75272 2.96093 0
M  V30 2197 N 203.978 -0.674533 1.42435 0
M  V30 2198 C 204.888 -1.81751 1.48337 0
M  V30 2199 C 205.904 -1.69975 0.372099 0
M  V30 2200 O 207.08 -1.91521 0.62304 0
M  V30 2201 C 204.145 -3.17895 1.38361 0
M  V30 2202 C 203.206 -3.41625 2.59982 0
M  V30 2203 C 202.439 -4.71274 2.50473 0
M  V30 2204 O 202.662 -5.49197 1.54075 0
M  V30 2205 O 201.596 -4.96254 3.4061 0
M  V30 2206 H 205.422 -1.79728 2.44809 0
M  V30 2207 H 203.007 -0.830312 1.24202 0
M  V30 2208 H 204.889 -3.99136 1.35161 0
M  V30 2209 H 203.564 -3.20555 0.450144 0
M  V30 2210 H 202.471 -2.60231 2.68757 0
M  V30 2211 H 203.804 -3.43796 3.52229 0
M  V30 2212 N 205.456 -1.28612 -0.910864 0
M  V30 2213 C 206.403 -1.12786 -2.01365 0
M  V30 2214 C 207.373 -0.024201 -1.66082 0
M  V30 2215 O 208.558 -0.189667 -1.89855 0
M  V30 2216 C 205.698 -0.798743 -3.35729 0
M  V30 2217 C 204.811 -1.98173 -3.83864 0
M  V30 2218 C 203.946 -1.59298 -5.06752 0
M  V30 2219 C 202.985 -2.74245 -5.47226 0
M  V30 2220 N 202.122 -2.35842 -6.61304 0
M  V30 2221 H 206.962 -2.07142 -2.14234 0
M  V30 2222 H 204.499 -1.03093 -1.0493 0
M  V30 2223 H 206.457 -0.588662 -4.13026 0
M  V30 2224 H 205.087 0.10789 -3.2262 0
M  V30 2225 H 204.139 -2.30386 -3.02699 0
M  V30 2226 H 205.451 -2.84343 -4.09818 0
M  V30 2227 H 204.605 -1.34513 -5.916 0
M  V30 2228 H 203.344 -0.702618 -4.82612 0
M  V30 2229 H 202.349 -2.99725 -4.60918 0
M  V30 2230 H 203.574 -3.63928 -5.73353 0
M  V30 2231 H 201.52 -1.49279 -6.38789 0
M  V30 2232 H 201.437 -3.15546 -6.86998 0
M  V30 2233 H 202.705 -2.14348 -7.4945 0
M  V30 2234 N 206.934 1.1197 -1.10907 0
M  V30 2235 C 208.182 1.83225 -0.852819 0
M  V30 2236 C 208.503 1.84769 0.623341 0
M  V30 2237 O 207.773 1.3143 1.45269 0
M  V30 2238 H 206.353 0.67849 -0.312507 0
M  V30 2239 H 209.015 1.3556 -1.40033 0
M  V30 2240 H 208.111 2.87265 -1.22005 0
M  V30 2241 N 208.412 0.89855 1.29475 0
M  V30 2242 C 209.823 0.572537 1.77705 0
M  V30 2243 C 210.174 -0.911778 1.73727 0
M  V30 2244 O 209.299 -1.71288 1.32247 0
M  V30 2245 C 209.894 1.03252 3.22683 0
M  V30 2246 C 208.453 0.757687 3.68695 0
M  V30 2247 C 207.6 1.20787 2.49612 0
M  V30 2248 H 210.551 1.08139 1.16153 0
M  V30 2249 H 210.572 0.367307 3.78723 0
M  V30 2250 H 210.084 2.11285 3.25546 0
M  V30 2251 H 208.185 -0.310079 3.71308 0
M  V30 2252 H 208.298 1.35476 4.59547 0
M  V30 2253 H 206.662 0.626888 2.46865 0
M  V30 2254 H 207.445 2.29622 2.55203 0
M  V30 2255 N 209.89 -1.43072 0.660911 0
M  V30 2256 C 210.838 -2.32569 -0.0378199 0
M  V30 2257 C 211.832 -1.49046 -0.805092 0
M  V30 2258 O 213.038 -1.65206 -0.714624 0
M  V30 2259 H 209.413 -0.75136 -0.031019 0
M  V30 2260 H 211.384 -2.89216 0.734609 0
M  V30 2261 C 210.133 -3.33453 -0.985124 0
M  V30 2262 H 209.456 -3.97752 -0.404147 0
M  V30 2263 H 210.896 -3.98691 -1.44297 0
M  V30 2264 C 209.355 -2.64642 -2.08486 0
M  V30 2265 O 209.885 -2.46776 -3.16961 0
M  V30 2266 N 208.091 -2.23891 -1.8526 0
M  V30 2267 H 207.638 -2.38621 -0.970449 0
M  V30 2268 H 207.596 -1.78181 -2.59034 0
M  V30 2269 N 211.368 -0.403325 -1.52352 0
M  V30 2270 C 212.614 0.167015 -2.02713 0
M  V30 2271 C 212.969 1.43296 -1.28391 0
M  V30 2272 O 212.262 1.87796 -0.379885 0
M  V30 2273 C 212.456 0.474665 -3.54234 0
M  V30 2274 C 212.285 -0.759909 -4.43233 0
M  V30 2275 C 211.055 -1.28338 -4.88731 0
M  V30 2276 C 213.253 -1.63634 -4.87574 0
M  V30 2277 N 211.235 -2.47404 -5.6184 0
M  V30 2278 C 212.606 -2.67329 -5.59406 0
M  V30 2279 C 214.661 -1.65478 -4.69597 0
M  V30 2280 C 213.364 -3.72773 -6.15169 0
M  V30 2281 C 215.39 -2.69837 -5.26253 0
M  V30 2282 C 214.752 -3.72253 -5.98002 0
M  V30 2283 H 210.851 0.0228343 -0.781667 0
M  V30 2284 H 213.435 -0.556368 -1.86581 0
M  V30 2285 H 211.606 1.16709 -3.7045 0
M  V30 2286 H 213.338 1.03338 -3.91284 0
M  V30 2287 H 210.093 -0.842273 -4.6605 0
M  V30 2288 H 210.517 -3.07688 -6.0304 0
M  V30 2289 H 215.159 -0.876389 -4.13617 0
M  V30 2290 H 212.877 -4.51471 -6.70223 0
M  V30 2291 H 216.463 -2.72164 -5.14216 0
M  V30 2292 H 215.343 -4.51679 -6.41058 0
M  V30 2293 N 212.846 1.57033 -0.133567 0
M  V30 2294 C 213.756 2.19632 0.824564 0
M  V30 2295 C 214.772 1.17666 1.28182 0
M  V30 2296 O 215.948 1.50193 1.3418 0
M  V30 2297 C 213.013 2.79499 2.05137 0
M  V30 2298 C 212.074 3.96548 1.64464 0
M  V30 2299 C 211.307 4.5355 2.81297 0
M  V30 2300 O 211.53 4.09438 3.97136 0
M  V30 2301 O 210.464 5.44018 2.57542 0
M  V30 2302 H 214.29 3.01991 0.321766 0
M  V30 2303 H 211.875 1.49112 0.0927889 0
M  V30 2304 H 213.757 3.17602 2.7696 0
M  V30 2305 H 212.432 2.00162 2.54395 0
M  V30 2306 H 211.339 3.63186 0.897048 0
M  V30 2307 H 212.672 4.77364 1.19934 0
M  V30 2308 N 214.325 -0.140222 1.56975 0
M  V30 2309 C 215.602 -0.880769 1.74648 0
M  V30 2310 C 215.982 -1.99036 0.703404 0
M  V30 2311 O 215.33 -2.26821 -0.27648 0
M  V30 2312 C 215.54 -1.417 3.18939 0
M  V30 2313 C 216.888 -1.87774 3.80823 0
M  V30 2314 O 217.912 -1.51427 3.2241 0
M  V30 2315 O 216.771 -2.54827 4.83452 0
M  V30 2316 H 213.865 -0.416713 0.714338 0
M  V30 2317 H 216.411 -0.125618 1.69234 0
M  V30 2318 H 215.183 -0.619902 3.86359 0
M  V30 2319 H 214.806 -2.23546 3.28805 0
M  V30 2320 N 215.803 -1.52179 -0.40978 0
M  V30 2321 C 217.08 -1.56769 -1.16974 0
M  V30 2322 C 217.46 -0.348322 -2.08206 0
M  V30 2323 O 216.808 0.664862 -2.18613 0
M  V30 2324 C 217.018 -2.89603 -1.9476 0
M  V30 2325 C 218.366 -3.42579 -2.50849 0
M  V30 2326 O 219.39 -2.91338 -2.04941 0
M  V30 2327 O 218.249 -4.32054 -3.34652 0
M  V30 2328 H 215.343 -0.631439 -0.534054 0
M  V30 2329 H 217.889 -1.64507 -0.416613 0
M  V30 2330 H 216.661 -3.698 -1.27921 0
M  V30 2331 H 216.284 -2.85155 -2.77079 0
M  V30 2332 N 217.281 0.66697 -1.42791 0
M  V30 2333 C 218.211 1.79218 -1.49677 0
M  V30 2334 C 219.192 1.66405 -0.352623 0
M  V30 2335 O 220.377 1.85708 -0.567993 0
M  V30 2336 C 217.507 3.17565 -1.40605 0
M  V30 2337 C 216.461 3.45124 -2.53127 0
M  V30 2338 C 215.787 4.83127 -2.29112 0
M  V30 2339 C 217.087 3.41236 -3.95418 0
M  V30 2340 H 218.781 1.73713 -2.43853 0
M  V30 2341 H 216.327 0.83432 -1.17367 0
M  V30 2342 H 218.28 3.96022 -1.44029 0
M  V30 2343 H 217.004 3.23767 -0.429271 0
M  V30 2344 H 215.663 2.69031 -2.49034 0
M  V30 2345 H 215.311 4.85988 -1.29709 0
M  V30 2346 H 215.011 5.02528 -3.04531 0
M  V30 2347 H 216.535 5.63859 -2.34297 0
M  V30 2348 H 217.949 4.09651 -4.01073 0
M  V30 2349 H 216.346 3.72173 -4.70752 0
M  V30 2350 H 217.416 2.39665 -4.21532 0
M  V30 2351 N 218.759 1.29093 0.90403 0
M  V30 2352 C 220.007 1.16583 1.65085 0
M  V30 2353 C 220.328 -0.283933 1.92922 0
M  V30 2354 O 219.598 -1.19509 1.55224 0
M  V30 2355 H 218.178 0.428467 0.611903 0
M  V30 2356 H 220.84 1.61959 1.08422 0
M  V30 2357 H 219.936 1.71266 2.6091 0
M  V30 2358 N 220.237 -1.11381 1.11499 0
M  V30 2359 C 221.485 -1.8277 0.862524 0
M  V30 2360 C 221.806 -1.85097 -0.613534 0
M  V30 2361 O 221.076 -1.32198 -1.4457 0
M  V30 2362 H 219.656 -0.676823 0.316101 0
M  V30 2363 H 222.318 -1.34816 1.4075 0
M  V30 2364 H 221.414 -2.86614 1.23527 0
M  V30 2365 N 221.715 -0.905404 -1.28997 0
M  V30 2366 C 222.625 -0.392246 -2.31298 0
M  V30 2367 C 223.641 0.515889 -1.66176 0
M  V30 2368 O 224.817 0.404093 -1.97304 0
M  V30 2369 C 221.882 0.36686 -3.44754 0
M  V30 2370 C 220.943 -0.573485 -4.25452 0
M  V30 2371 C 220.176 0.149488 -5.33491 0
M  V30 2372 O 220.399 1.37255 -5.5364 0
M  V30 2373 O 219.333 -0.510919 -5.99728 0
M  V30 2374 H 223.159 -1.2411 -2.77183 0
M  V30 2375 H 220.744 -0.669926 -1.33538 0
M  V30 2376 H 222.626 0.795907 -4.13816 0
M  V30 2377 H 221.301 1.19169 -3.00966 0
M  V30 2378 H 220.208 -1.05176 -3.59011 0
M  V30 2379 H 221.541 -1.36489 -4.72897 0
M  V30 2380 N 223.193 1.4272 -0.668489 0
M  V30 2381 C 224.44 2.01624 -0.18814 0
M  V30 2382 C 224.768 1.5282 1.20317 0
M  V30 2383 O 224.023 0.718323 1.8204 0
M  V30 2384 C 224.322 3.57021 -0.164499 0
M  V30 2385 C 223.988 4.25232 -1.49962 0
M  V30 2386 C 222.65 4.4358 -1.8652 0
M  V30 2387 C 225.002 4.63727 -2.37921 0
M  V30 2388 C 222.33 4.97694 -3.10674 0
M  V30 2389 C 224.682 5.19218 -3.6138 0
M  V30 2390 C 223.346 5.3578 -3.98115 0
M  V30 2391 H 222.616 0.737795 -0.0688454 0
M  V30 2392 H 225.263 1.70991 -0.862225 0
M  V30 2393 H 223.568 3.87285 0.593079 0
M  V30 2394 H 225.265 4.00372 0.224271 0
M  V30 2395 H 221.855 4.11306 -1.20522 0
M  V30 2396 H 226.039 4.4923 -2.10964 0
M  V30 2397 H 221.295 5.08702 -3.39164 0
M  V30 2398 H 225.469 5.4799 -4.29743 0
M  V30 2399 H 223.096 5.77475 -4.94395 0
M  V30 2400 N 224.671 0.411399 1.52136 0
M  V30 2401 C 225.948 -0.222308 1.94333 0
M  V30 2402 C 226.328 -1.6242 1.34844 0
M  V30 2403 O 225.676 -2.22384 0.525145 0
M  V30 2404 C 225.886 -0.226345 3.48265 0
M  V30 2405 C 227.234 -0.444592 4.22266 0
M  V30 2406 O 228.258 -0.305602 3.54887 0
M  V30 2407 O 227.117 -0.718749 5.41753 0
M  V30 2408 H 224.211 -0.143907 0.814383 0
M  V30 2409 H 226.757 0.467506 1.63133 0
M  V30 2410 H 225.529 0.75475 3.83952 0
M  V30 2411 H 225.152 -0.960163 3.85832 0
M  V30 2412 N 226.149 -1.5696 0.141893 0
M  V30 2413 C 227.096 -2.16501 -0.799737 0
M  V30 2414 C 228.066 -1.09643 -1.24771 0
M  V30 2415 O 229.251 -1.3766 -1.32115 0
M  V30 2416 C 226.391 -2.78679 -2.03549 0
M  V30 2417 C 225.504 -3.99914 -1.6338 0
M  V30 2418 C 224.639 -4.50106 -2.82096 0
M  V30 2419 C 223.678 -5.63819 -2.38275 0
M  V30 2420 N 222.815 -6.08651 -3.49983 0
M  V30 2421 H 227.655 -2.96632 -0.285179 0
M  V30 2422 H 225.192 -1.46533 -0.129053 0
M  V30 2423 H 227.15 -3.1287 -2.75986 0
M  V30 2424 H 225.78 -2.012 -2.52425 0
M  V30 2425 H 224.832 -3.71735 -0.807279 0
M  V30 2426 H 226.144 -4.82311 -1.27192 0
M  V30 2427 H 225.298 -4.86325 -3.62729 0
M  V30 2428 H 224.037 -3.66706 -3.21525 0
M  V30 2429 H 223.042 -5.2718 -1.56081 0
M  V30 2430 H 224.267 -6.49 -1.99938 0
M  V30 2431 H 222.213 -5.28188 -3.89042 0
M  V30 2432 H 222.13 -6.85961 -3.17794 0
M  V30 2433 H 223.398 -6.49515 -4.30988 0
M  V30 2434 N 227.627 0.131896 -1.57047 0
M  V30 2435 C 228.557 1.16384 -2.02428 0
M  V30 2436 C 229.538 1.43936 -0.90644 0
M  V30 2437 O 230.723 1.54599 -1.17528 0
M  V30 2438 C 227.853 2.49328 -2.4177 0
M  V30 2439 C 226.807 2.36266 -3.56879 0
M  V30 2440 C 226.133 3.74057 -3.8208 0
M  V30 2441 C 227.433 1.834 -4.89042 0
M  V30 2442 H 229.127 0.786433 -2.88887 0
M  V30 2443 H 226.673 0.376855 -1.38981 0
M  V30 2444 H 228.626 3.21759 -2.7212 0
M  V30 2445 H 227.35 2.88934 -1.52266 0
M  V30 2446 H 226.009 1.66286 -3.26718 0
M  V30 2447 H 225.657 4.11125 -2.89803 0
M  V30 2448 H 225.357 3.66174 -4.59554 0
M  V30 2449 H 226.881 4.48012 -4.1487 0
M  V30 2450 H 228.295 2.45636 -5.18011 0
M  V30 2451 H 226.692 1.8637 -5.70426 0
M  V30 2452 H 227.762 0.790662 -4.7841 0
M  V30 2453 N 229.106 1.52395 0.401703 0
M  V30 2454 C 230.069 1.75636 1.47257 0
M  V30 2455 C 231.069 0.62628 1.48103 0
M  V30 2456 O 232.259 0.894227 1.49497 0
M  V30 2457 C 229.391 1.84553 2.86624 0
M  V30 2458 H 230.584 2.71241 1.27938 0
M  V30 2459 H 228.137 1.42923 0.632662 0
M  V30 2460 H 228.872 0.908882 3.11303 0
M  V30 2461 H 228.657 2.66715 2.87412 0
M  V30 2462 H 230.147 2.04251 3.64241 0
M  V30 2463 N 230.584 -0.659388 1.43143 0
M  V30 2464 C 231.531 -1.77249 1.47822 0
M  V30 2465 C 232.501 -1.62818 0.328558 0
M  V30 2466 O 233.686 -1.83151 0.534838 0
M  V30 2467 C 230.826 -3.15371 1.40126 0
M  V30 2468 C 229.939 -3.4098 2.65249 0
M  V30 2469 C 229.074 -4.68915 2.49584 0
M  V30 2470 C 228.113 -4.87608 3.70006 0
M  V30 2471 N 227.25 -6.06796 3.53189 0
M  V30 2472 H 232.09 -1.72584 2.42938 0
M  V30 2473 H 229.627 -0.842297 1.20598 0
M  V30 2474 H 231.585 -3.9521 1.33659 0
M  V30 2475 H 230.215 -3.19121 0.485964 0
M  V30 2476 H 229.267 -2.55282 2.8202 0
M  V30 2477 H 230.579 -3.50681 3.54717 0
M  V30 2478 H 229.733 -5.56871 2.4079 0
M  V30 2479 H 228.472 -4.61524 1.5763 0
M  V30 2480 H 227.477 -3.9809 3.79215 0
M  V30 2481 H 228.702 -4.96834 4.62961 0
M  V30 2482 H 226.648 -6.00549 2.63965 0
M  V30 2483 H 226.565 -6.17428 4.36255 0
M  V30 2484 H 227.833 -6.9739 3.48236 0
M  V30 2485 N 232.062 -1.29571 -0.897171 0
M  V30 2486 C 233.339 -1.08365 -1.62839 0
M  V30 2487 C 233.719 0.371331 -2.07808 0
M  V30 2488 O 233.067 1.3606 -1.83576 0
M  V30 2489 C 233.277 -2.0735 -2.80726 0
M  V30 2490 C 234.625 -2.38406 -3.51351 0
M  V30 2491 O 235.649 -2.05564 -2.90898 0
M  V30 2492 O 234.508 -2.9453 -4.60341 0
M  V30 2493 H 231.602 -0.415345 -0.715134 0
M  V30 2494 H 234.148 -1.40952 -0.945018 0
M  V30 2495 H 232.92 -3.05339 -2.44711 0
M  V30 2496 H 232.543 -1.75507 -3.56767 0
M  V30 2497 N 233.54 1.10788 -1.12088 0
M  V30 2498 C 234.487 2.17025 -0.785407 0
M  V30 2499 C 235.457 1.64265 0.246191 0
M  V30 2500 O 236.642 1.90412 0.121584 0
M  V30 2501 C 233.782 3.44249 -0.242177 0
M  V30 2502 C 232.895 4.1098 -1.33115 0
M  V30 2503 C 232.03 5.25911 -0.747741 0
M  V30 2504 C 231.069 5.84538 -1.81609 0
M  V30 2505 N 230.206 6.90853 -1.25167 0
M  V30 2506 H 235.046 2.45066 -1.69548 0
M  V30 2507 H 232.583 1.20297 -0.846582 0
M  V30 2508 H 234.541 4.17101 0.0908026 0
M  V30 2509 H 233.171 3.16571 0.631072 0
M  V30 2510 H 232.223 3.36133 -1.78097 0
M  V30 2511 H 233.535 4.50601 -2.13917 0
M  V30 2512 H 232.689 6.056 -0.365216 0
M  V30 2513 H 231.428 4.87614 0.0915188 0
M  V30 2514 H 230.433 5.03522 -2.20785 0
M  V30 2515 H 231.658 6.249 -2.6585 0
M  V30 2516 H 229.604 6.54562 -0.434174 0
M  V30 2517 H 229.521 7.29166 -1.99633 0
M  V30 2518 H 230.789 7.7433 -0.896259 0
M  V30 2519 N 235.018 0.912232 1.28515 0
M  V30 2520 C 235.966 0.389597 2.29314 0
M  V30 2521 C 236.96 -0.517915 1.61289 0
M  V30 2522 O 238.166 -0.399328 1.75515 0
M  V30 2523 H 234.541 0.107386 0.744293 0
M  V30 2524 H 236.512 1.25286 2.70825 0
M  V30 2525 C 235.261 -0.356496 3.45868 0
M  V30 2526 H 234.584 0.332608 3.98414 0
M  V30 2527 H 236.024 -0.686851 4.184 0
M  V30 2528 C 234.483 -1.56383 2.98406 0
M  V30 2529 O 235.013 -2.66294 3.00749 0
M  V30 2530 N 233.219 -1.41029 2.54085 0
M  V30 2531 H 232.766 -0.516089 2.52377 0
M  V30 2532 H 232.724 -2.21939 2.22689 0
M  V30 2533 N 236.496 -1.42363 0.676048 0
M  V30 2534 C 237.743 -2.01522 0.19883 0
M  V30 2535 C 238.071 -1.53456 -1.19505 0
M  V30 2536 O 237.326 -0.727967 -1.81657 0
M  V30 2537 C 237.625 -3.56929 0.183431 0
M  V30 2538 C 237.291 -4.24431 1.52215 0
M  V30 2539 C 235.953 -4.42585 1.8887 0
M  V30 2540 C 238.305 -4.62459 2.40377 0
M  V30 2541 C 235.633 -4.96039 3.13309 0
M  V30 2542 C 237.985 -5.17294 3.64129 0
M  V30 2543 C 236.649 -5.33661 4.00951 0
M  V30 2544 H 235.919 -0.737419 0.0727571 0
M  V30 2545 H 238.566 -1.70531 0.871281 0
M  V30 2546 H 236.871 -3.87594 -0.572532 0
M  V30 2547 H 238.568 -4.00486 -0.203035 0
M  V30 2548 H 235.158 -4.10661 1.22701 0
M  V30 2549 H 239.342 -4.48105 2.13343 0
M  V30 2550 H 234.598 -5.06896 3.41857 0
M  V30 2551 H 238.772 -5.45704 4.32644 0
M  V30 2552 H 236.399 -5.74845 4.9745 0
M  V30 2553 N 237.974 -0.419461 -1.51915 0
M  V30 2554 C 239.251 0.211999 -1.94448 0
M  V30 2555 C 239.631 1.61703 -1.35703 0
M  V30 2556 O 238.979 2.22102 -0.536931 0
M  V30 2557 C 239.189 0.207872 -3.4838 0
M  V30 2558 C 240.537 0.422192 -4.22496 0
M  V30 2559 O 241.561 0.286778 -3.55044 0
M  V30 2560 O 240.42 0.690009 -5.42126 0
M  V30 2561 H 237.514 0.139586 -0.815135 0
M  V30 2562 H 240.06 -0.476151 -1.62883 0
M  V30 2563 H 238.832 -0.775102 -3.83546 0
M  V30 2564 H 238.455 0.939688 -3.86336 0
M  V30 2565 N 239.452 1.56882 -0.150215 0
M  V30 2566 C 240.4 2.18214 0.805313 0
M  V30 2567 C 241.394 1.14006 1.25296 0
M  V30 2568 O 242.6 1.3225 1.22107 0
M  V30 2569 H 238.975 0.698762 0.277913 0
M  V30 2570 H 240.946 2.97231 0.263862 0
M  V30 2571 C 239.695 2.82065 2.03309 0
M  V30 2572 H 239.018 3.61968 1.69763 0
M  V30 2573 H 240.458 3.28477 2.68103 0
M  V30 2574 C 238.917 1.80739 2.84315 0
M  V30 2575 O 239.447 1.27983 3.80767 0
M  V30 2576 N 237.653 1.4997 2.48913 0
M  V30 2577 H 237.2 1.93062 1.70542 0
M  V30 2578 H 237.158 0.824217 3.03404 0
M  V30 2579 N 240.93 -0.123565 1.57115 0
M  V30 2580 C 242.179 -0.830704 1.83799 0
M  V30 2581 C 242.492 -1.81259 0.735158 0
M  V30 2582 O 243.698 -2.56558 0.888278 0
M  V30 2583 C 242.154 -1.52802 3.25852 0
M  V30 2584 C 241.762 -0.587356 4.44133 0
M  V30 2585 C 243.506 -2.22056 3.61789 0
M  V30 2586 C 241.413 -1.28764 5.77212 0
M  V30 2587 H 240.343 -0.313967 0.685522 0
M  V30 2588 H 242.994 -0.0834359 1.8331 0
M  V30 2589 H 241.376 -2.32175 3.20797 0
M  V30 2590 H 242.55 0.172829 4.60476 0
M  V30 2591 H 240.865 -0.00201892 4.164 0
M  V30 2592 H 243.462 -2.75131 4.58483 0
M  V30 2593 H 243.805 -2.99644 2.88997 0
M  V30 2594 H 244.338 -1.49576 3.68608 0
M  V30 2595 H 241.077 -0.55314 6.53162 0
M  V30 2596 H 240.597 -2.01995 5.64764 0
M  V30 2597 H 242.276 -1.8221 6.20813 0
M  V30 2598 N 242.408 -1.52605 -0.393616 0
M  V30 2599 C 243.34 -1.73303 -1.49995 0
M  V30 2600 C 244.353 -0.613473 -1.50799 0
M  V30 2601 O 245.542 -0.889049 -1.54784 0
M  V30 2602 C 242.642 -1.77245 -2.88855 0
M  V30 2603 C 241.815 -3.06483 -3.12069 0
M  V30 2604 C 240.874 -3.02033 -4.30886 0
M  V30 2605 O 239.9 -3.75907 -4.27414 0
M  V30 2606 N 241.102 -2.20897 -5.36828 0
M  V30 2607 H 243.867 -2.68756 -1.32629 0
M  V30 2608 H 241.428 -1.51036 -0.583083 0
M  V30 2609 H 243.42 -1.7178 -3.66434 0
M  V30 2610 H 241.99 -0.891993 -2.99603 0
M  V30 2611 H 241.21 -3.25474 -2.22396 0
M  V30 2612 H 242.498 -3.91947 -3.2443 0
M  V30 2613 H 241.896 -1.60336 -5.42502 0
M  V30 2614 H 240.453 -2.21275 -6.13091 0
M  V30 2615 N 243.887 0.651787 -1.4349 0
M  V30 2616 C 244.834 1.76462 -1.4876 0
M  V30 2617 C 245.804 1.62641 -0.337189 0
M  V30 2618 O 246.989 1.82864 -0.544544 0
M  V30 2619 C 244.129 3.14623 -1.41796 0
M  V30 2620 C 243.242 3.39568 -2.67053 0
M  V30 2621 C 242.377 4.67585 -2.52068 0
M  V30 2622 C 241.416 4.85639 -3.72587 0
M  V30 2623 N 240.553 6.04915 -3.56402 0
M  V30 2624 H 245.393 1.71293 -2.43849 0
M  V30 2625 H 242.93 0.835889 -1.21043 0
M  V30 2626 H 244.888 3.94496 -1.35753 0
M  V30 2627 H 243.518 3.18859 -0.50288 0
M  V30 2628 H 242.57 2.53783 -2.8337 0
M  V30 2629 H 243.882 3.48795 -3.56572 0
M  V30 2630 H 243.036 5.55586 -2.4374 0
M  V30 2631 H 241.775 4.60681 -1.60075 0
M  V30 2632 H 240.78 3.96073 -3.81321 0
M  V30 2633 H 242.005 4.94372 -4.65589 0
M  V30 2634 H 239.951 5.9914 -2.67146 0
M  V30 2635 H 239.868 6.15106 -4.39524 0
M  V30 2636 H 241.136 6.95533 -3.51929 0
M  V30 2637 N 245.365 1.30045 0.890287 0
M  V30 2638 C 246.328 1.15963 1.977 0
M  V30 2639 C 247.328 0.0923777 1.60534 0
M  V30 2640 O 248.518 0.340071 1.70848 0
M  V30 2641 C 245.65 0.775451 3.31963 0
M  V30 2642 H 246.843 2.12502 2.11619 0
M  V30 2643 H 244.396 1.13366 1.07601 0
M  V30 2644 H 245.131 -0.189671 3.23745 0
M  V30 2645 H 244.916 1.54668 3.60306 0
M  V30 2646 H 246.406 0.700251 4.11687 0
M  V30 2647 N 246.843 -1.10192 1.12674 0
M  V30 2648 C 247.776 -2.15847 0.740625 0
M  V30 2649 C 248.754 -1.60352 -0.269421 0
M  V30 2650 O 249.938 -1.87796 -0.16278 0
M  V30 2651 C 247.065 -3.38562 0.096641 0
M  V30 2652 C 246.111 -4.12758 1.07391 0
M  V30 2653 S 246.944 -4.67997 2.60267 0
M  V30 2654 C 248.1 -5.94021 1.97206 0
M  V30 2655 H 248.333 -2.48266 1.63558 0
M  V30 2656 H 245.866 -1.22019 0.946087 0
M  V30 2657 H 247.824 -4.09621 -0.268535 0
M  V30 2658 H 246.485 -3.04377 -0.775462 0
M  V30 2659 H 245.678 -5.00755 0.570997 0
M  V30 2660 H 245.28 -3.47523 1.38216 0
M  V30 2661 H 247.572 -6.64589 1.31634 0
M  V30 2662 H 248.515 -6.48979 2.83253 0
M  V30 2663 H 248.923 -5.46169 1.42686 0
M  V30 2664 N 248.321 -0.919034 -1.28029 0
M  V30 2665 C 249.551 -0.570143 -1.98577 0
M  V30 2666 C 249.959 0.854172 -1.68821 0
M  V30 2667 O 249.302 1.57807 -0.940351 0
M  V30 2668 C 249.364 -0.705734 -3.52505 0
M  V30 2669 C 249.028 -2.10057 -4.05863 0
M  V30 2670 C 250.025 -3.07385 -4.19298 0
M  V30 2671 C 247.71 -2.41517 -4.40426 0
M  V30 2672 C 249.704 -4.34287 -4.66555 0
M  V30 2673 C 247.391 -3.68657 -4.87376 0
M  V30 2674 C 248.389 -4.64856 -5.00398 0
M  V30 2675 O 248.077 -5.89735 -5.46322 0
M  V30 2676 H 247.809 -0.215592 -0.6407 0
M  V30 2677 H 250.363 -1.23583 -1.64062 0
M  V30 2678 H 248.593 0.0170414 -3.86696 0
M  V30 2679 H 250.282 -0.363172 -4.04272 0
M  V30 2680 H 251.048 -2.84398 -3.92865 0
M  V30 2681 H 246.927 -1.67389 -4.29537 0
M  V30 2682 H 250.471 -5.09377 -4.76635 0
M  V30 2683 H 246.368 -3.91466 -5.13249 0
M  V30 2684 H 247.136 -5.92599 -5.64596 0
M  V30 2685 N 249.799 1.42003 -0.683588 0
M  V30 2686 C 251.024 2.06265 -0.216647 0
M  V30 2687 C 251.449 1.51059 1.12083 0
M  V30 2688 O 250.807 0.632638 1.69904 0
M  V30 2689 C 250.855 3.60191 -0.171759 0
M  V30 2690 O 249.959 4.03396 0.857069 0
M  V30 2691 H 249.3 0.65502 -0.108834 0
M  V30 2692 H 251.83 1.81982 -0.935077 0
M  V30 2693 H 251.84 4.08 0.0014303 0
M  V30 2694 H 250.515 3.99743 -1.14796 0
M  V30 2695 H 249.092 3.67117 0.654208 0
M  V30 2696 N 251.277 0.427512 1.51691 0
M  V30 2697 C 252.209 -0.424521 2.25234 0
M  V30 2698 C 253.222 -0.994671 1.2888 0
M  V30 2699 O 254.411 -0.890483 1.54702 0
M  V30 2700 C 251.511 -1.60479 2.98496 0
M  V30 2701 C 250.684 -1.15527 4.21868 0
M  V30 2702 C 249.743 -2.20454 4.77793 0
M  V30 2703 O 248.769 -1.8029 5.39893 0
M  V30 2704 N 249.971 -3.52831 4.60967 0
M  V30 2705 H 252.736 0.205749 2.98993 0
M  V30 2706 H 250.297 0.255867 1.59865 0
M  V30 2707 H 252.289 -2.30276 3.32799 0
M  V30 2708 H 250.859 -2.14061 2.27809 0
M  V30 2709 H 250.079 -0.284736 3.9317 0
M  V30 2710 H 251.367 -0.832173 5.01949 0
M  V30 2711 H 250.765 -3.88201 4.11481 0
M  V30 2712 H 249.322 -4.18551 4.99658 0
M  V30 2713 N 252.755 -1.56801 0.158532 0
M  V30 2714 C 254.002 -1.9649 -0.489679 0
M  V30 2715 C 254.33 -1.04394 -1.6411 0
M  V30 2716 O 253.585 -0.0754401 -1.95555 0
M  V30 2717 C 253.884 -3.4235 -1.02623 0
M  V30 2718 C 253.55 -4.50899 0.00794526 0
M  V30 2719 C 252.212 -4.80312 0.292207 0
M  V30 2720 C 254.564 -5.16333 0.710584 0
M  V30 2721 C 251.892 -5.72461 1.28472 0
M  V30 2722 C 254.244 -6.09553 1.69199 0
M  V30 2723 C 252.908 -6.37339 1.98383 0
M  V30 2724 H 252.178 -0.719009 -0.179186 0
M  V30 2725 H 254.825 -1.8989 0.247798 0
M  V30 2726 H 253.13 -3.45838 -1.84128 0
M  V30 2727 H 254.827 -3.70393 -1.53656 0
M  V30 2728 H 251.417 -4.28015 -0.22379 0
M  V30 2729 H 255.601 -4.93732 0.504174 0
M  V30 2730 H 250.857 -5.92278 1.51714 0
M  V30 2731 H 255.031 -6.59327 2.24189 0
M  V30 2732 H 252.658 -7.08546 2.7544 0
M  V30 2733 N 254.233 0.115231 -1.57178 0
M  V30 2734 C 255.143 1.15994 -2.03918 0
M  V30 2735 C 256.159 1.45103 -0.960268 0
M  V30 2736 O 257.335 1.56144 -1.27204 0
M  V30 2737 C 254.4 2.46568 -2.43732 0
M  V30 2738 C 253.461 2.24822 -3.65723 0
M  V30 2739 C 252.694 3.4917 -4.03629 0
M  V30 2740 O 252.917 4.56623 -3.41835 0
M  V30 2741 O 251.851 3.39949 -4.96708 0
M  V30 2742 H 255.677 0.793019 -2.93164 0
M  V30 2743 H 253.262 0.3263 -1.45793 0
M  V30 2744 H 255.144 3.23492 -2.70057 0
M  V30 2745 H 253.819 2.82726 -1.57631 0
M  V30 2746 H 252.726 1.45744 -3.44542 0
M  V30 2747 H 254.059 1.93566 -4.52541 0
M  V30 2748 N 255.711 1.52812 0.385517 0
M  V30 2749 C 256.659 1.78482 1.49155 0
M  V30 2750 C 257.653 0.652914 1.56312 0
M  V30 2751 O 258.859 0.835464 1.59436 0
M  V30 2752 H 255.234 0.5648 0.496493 0
M  V30 2753 H 257.205 2.71095 1.24699 0
M  V30 2754 C 255.954 1.97378 2.86247 0
M  V30 2755 H 255.277 2.83907 2.81491 0
M  V30 2756 H 256.717 2.19327 3.62866 0
M  V30 2757 C 255.176 0.74728 3.28508 0
M  V30 2758 O 255.706 -0.0736232 4.01633 0
M  V30 2759 N 253.912 0.576396 2.84826 0
M  V30 2760 H 253.459 1.24555 2.25486 0
M  V30 2761 H 253.417 -0.24288 3.1346 0
M  V30 2762 N 257.189 -0.644168 1.43834 0
M  V30 2763 C 258.417 -1.43147 1.49387 0
M  V30 2764 C 258.832 -1.88452 0.114583 0
M  V30 2765 O 258.189 -1.60047 -0.876989 0
M  V30 2766 C 258.24 -2.66046 2.44748 0
M  V30 2767 O 257.961 -2.22633 3.77314 0
M  V30 2768 C 259.462 -3.59311 2.59635 0
M  V30 2769 H 256.682 -0.439447 0.507077 0
M  V30 2770 H 259.226 -0.78895 1.88669 0
M  V30 2771 H 257.381 -3.26418 2.08638 0
M  V30 2772 H 257.795 -3.02216 4.28679 0
M  V30 2773 H 259.269 -4.42187 3.30416 0
M  V30 2774 H 259.746 -4.07259 1.64427 0
M  V30 2775 H 260.352 -3.04816 2.96593 0
M  V30 2776 N 258.668 -1.30515 -0.883378 0
M  V30 2777 C 259.915 -1.1943 -1.63532 0
M  V30 2778 C 260.243 0.250627 -1.92878 0
M  V30 2779 O 259.498 1.19556 -1.54935 0
M  V30 2780 C 259.797 -1.96994 -2.98209 0
M  V30 2781 C 259.463 -3.466 -2.88408 0
M  V30 2782 C 258.125 -3.87397 -2.85442 0
M  V30 2783 C 260.477 -4.41863 -2.76418 0
M  V30 2784 C 257.805 -5.21745 -2.68327 0
M  V30 2785 C 260.157 -5.7632 -2.60841 0
M  V30 2786 C 258.821 -6.16354 -2.56251 0
M  V30 2787 H 258.091 -0.437025 -0.598406 0
M  V30 2788 H 260.738 -1.61635 -1.02696 0
M  V30 2789 H 259.043 -1.47429 -3.63004 0
M  V30 2790 H 260.74 -1.85808 -3.55354 0
M  V30 2791 H 257.33 -3.14182 -2.91527 0
M  V30 2792 H 261.514 -4.11285 -2.77775 0
M  V30 2793 H 256.77 -5.51853 -2.63189 0
M  V30 2794 H 260.944 -6.49772 -2.50538 0
M  V30 2795 H 258.571 -7.20401 -2.42748 0
M  V30 2796 N 260.146 1.09593 -1.13257 0
M  V30 2797 C 261.079 2.15451 -0.752061 0
M  V30 2798 C 262.057 1.60493 0.260913 0
M  V30 2799 O 263.241 1.8788 0.152819 0
M  V30 2800 C 260.368 3.38506 -0.114594 0
M  V30 2801 C 259.414 4.12183 -1.09579 0
M  V30 2802 S 260.247 4.6661 -2.62745 0
M  V30 2803 C 261.403 5.92966 -2.00354 0
M  V30 2804 H 261.636 2.47395 -1.64872 0
M  V30 2805 H 259.169 1.21515 -0.952545 0
M  V30 2806 H 261.127 4.09757 0.246808 0
M  V30 2807 H 259.788 3.04784 0.759309 0
M  V30 2808 H 258.981 5.00445 -0.597545 0
M  V30 2809 H 258.583 3.46785 -1.40057 0
M  V30 2810 H 260.875 6.63882 -1.35156 0
M  V30 2811 H 261.818 6.47467 -2.86691 0
M  V30 2812 H 262.226 5.45405 -1.4558 0
M  V30 2813 N 261.624 0.925811 1.2754 0
M  V30 2814 C 262.557 0.367836 2.25216 0
M  V30 2815 C 263.535 -0.534738 1.53556 0
M  V30 2816 O 264.719 -0.475672 1.824 0
M  V30 2817 C 261.846 -0.47298 3.35381 0
M  V30 2818 C 260.892 0.365898 4.24928 0
M  V30 2819 S 261.725 1.78025 5.05042 0
M  V30 2820 C 262.881 0.947068 6.18693 0
M  V30 2821 H 263.114 1.19568 2.72196 0
M  V30 2822 H 260.647 0.727867 1.36167 0
M  V30 2823 H 262.605 -0.952242 3.99303 0
M  V30 2824 H 261.266 -1.27533 2.87044 0
M  V30 2825 H 260.459 -0.277582 5.03235 0
M  V30 2826 H 260.061 0.779261 3.65792 0
M  V30 2827 H 262.353 0.182201 6.77255 0
M  V30 2828 H 263.296 1.70309 6.87314 0
M  V30 2829 H 263.704 0.489913 5.6237 0
M  V30 2830 N 263.102 -1.41638 0.69111 0
M  V30 2831 C 264.332 -2.0533 0.228758 0
M  V30 2832 C 264.74 -1.52089 -1.12541 0
M  V30 2833 O 264.083 -0.662145 -1.71351 0
M  V30 2834 C 264.145 -3.59349 0.10407 0
M  V30 2835 C 263.809 -4.35362 1.38956 0
M  V30 2836 C 264.806 -4.64942 2.32648 0
M  V30 2837 C 262.491 -4.74714 1.64169 0
M  V30 2838 C 264.485 -5.32828 3.49818 0
M  V30 2839 C 262.172 -5.42338 2.81625 0
M  V30 2840 C 263.17 -5.71322 3.74273 0
M  V30 2841 O 262.858 -6.37554 4.89673 0
M  V30 2842 H 262.59 -0.667796 0.104997 0
M  V30 2843 H 265.144 -1.82477 0.942938 0
M  V30 2844 H 263.374 -3.80924 -0.665839 0
M  V30 2845 H 265.063 -4.04633 -0.320519 0
M  V30 2846 H 265.829 -4.35025 2.14425 0
M  V30 2847 H 261.708 -4.51538 0.929202 0
M  V30 2848 H 265.252 -5.55368 4.22152 0
M  V30 2849 H 261.149 -5.71673 2.99768 0
M  V30 2850 H 261.917 -6.56049 4.8943 0
M  V30 2851 N 264.58 -0.43555 -1.51462 0
M  V30 2852 C 265.51 0.367376 -2.30592 0
M  V30 2853 C 266.491 1.02263 -1.35928 0
M  V30 2854 O 267.676 1.02661 -1.64847 0
M  V30 2855 C 264.806 1.46983 -3.14664 0
M  V30 2856 C 263.76 0.938161 -4.17591 0
M  V30 2857 C 263.086 2.13622 -4.90173 0
M  V30 2858 C 264.386 -0.0261621 -5.22293 0
M  V30 2859 H 266.08 -0.292969 -2.97963 0
M  V30 2860 H 263.626 -0.14234 -1.43295 0
M  V30 2861 H 265.579 2.03873 -3.688 0
M  V30 2862 H 264.303 2.15843 -2.4511 0
M  V30 2863 H 262.962 0.391481 -3.64504 0
M  V30 2864 H 262.61 2.81098 -4.17124 0
M  V30 2865 H 262.31 1.78688 -5.59772 0
M  V30 2866 H 263.834 2.7107 -5.47132 0
M  V30 2867 H 265.248 0.452384 -5.71512 0
M  V30 2868 H 263.645 -0.287992 -5.99409 0
M  V30 2869 H 264.715 -0.963391 -4.75233 0
M  V30 2870 N 266.058 1.56714 -0.166846 0
M  V30 2871 C 267.469 1.83378 0.350646 0
M  V30 2872 C 267.82 1.08646 1.63372 0
M  V30 2873 O 266.945 0.338058 2.13743 0
M  V30 2874 C 267.54 3.32643 0.642963 0
M  V30 2875 C 266.099 3.59818 1.10491 0
M  V30 2876 C 265.246 2.76954 0.138411 0
M  V30 2877 H 268.197 1.53803 -0.391193 0
M  V30 2878 H 268.218 3.49878 1.49551 0
M  V30 2879 H 267.73 3.87007 -0.291055 0
M  V30 2880 H 265.831 3.1086 2.05418 0
M  V30 2881 H 265.944 4.68178 1.01716 0
M  V30 2882 H 264.308 2.4666 0.634911 0
M  V30 2883 H 265.091 3.34097 -0.789549 0
M  V30 2884 N 267.536 -0.106894 1.57237 0
M  V30 2885 C 268.952 -0.46078 1.52804 0
M  V30 2886 C 269.152 -1.81184 0.881746 0
M  V30 2887 O 268.208 -2.48102 0.469224 0
M  V30 2888 C 269.521 -0.434127 2.9755 0
M  V30 2889 C 271.069 -0.516821 3.08704 0
M  V30 2890 C 271.544 -0.520436 4.55033 0
M  V30 2891 N 273.035 -0.58153 4.59535 0
M  V30 2892 C 273.77 -0.605973 5.70189 0
M  V30 2893 N 273.266 -0.587331 6.90306 0
M  V30 2894 N 275.059 -0.649895 5.5833 0
M  V30 2895 H 267.21 0.778203 1.9763 0
M  V30 2896 H 269.473 0.288403 0.903066 0
M  V30 2897 H 269.179 0.491197 3.48253 0
M  V30 2898 H 269.053 -1.25748 3.55622 0
M  V30 2899 H 271.44 -1.43256 2.57995 0
M  V30 2900 H 271.521 0.334449 2.53604 0
M  V30 2901 H 271.165 0.391313 5.0639 0
M  V30 2902 H 271.095 -1.38876 5.07958 0
M  V30 2903 H 273.586 -0.60161 3.73081 0
M  V30 2904 H 273.899 -0.60894 7.70397 0
M  V30 2905 H 272.244 -0.554564 6.92784 0
M  V30 2906 H 275.435 -0.661907 4.63397 0
M  V30 2907 H 275.608 -0.665476 6.44574 0
M  V30 2908 N 269.014 -1.53014 -0.377408 0
M  V30 2909 C 269.944 -1.81589 -1.46791 0
M  V30 2910 C 270.925 -0.668622 -1.56408 0
M  V30 2911 O 272.11 -0.917337 -1.71168 0
M  V30 2912 C 269.24 -1.99519 -2.8427 0
M  V30 2913 C 268.194 -3.15249 -2.89486 0
M  V30 2914 C 267.52 -3.18451 -4.29527 0
M  V30 2915 C 268.82 -4.54084 -2.58079 0
M  V30 2916 H 270.514 -2.7291 -1.23127 0
M  V30 2917 H 268.06 -1.31319 -0.590883 0
M  V30 2918 H 270.013 -2.18092 -3.60575 0
M  V30 2919 H 268.737 -1.04897 -3.09296 0
M  V30 2920 H 267.396 -2.96477 -2.15631 0
M  V30 2921 H 267.044 -2.2149 -4.5161 0
M  V30 2922 H 266.744 -3.962 -4.33934 0
M  V30 2923 H 268.268 -3.39193 -5.07721 0
M  V30 2924 H 269.682 -4.72899 -3.24098 0
M  V30 2925 H 268.079 -5.33987 -2.7382 0
M  V30 2926 H 269.149 -4.60006 -1.53372 0
M  V30 2927 N 270.492 0.636531 -1.44174 0
M  V30 2928 C 271.732 1.40781 -1.48189 0
M  V30 2929 C 272.096 1.91688 -0.10944 0
M  V30 2930 O 273.297 2.68789 -0.0242741 0
M  V30 2931 C 271.568 2.54575 -2.50851 0
M  V30 2932 S 273.127 3.4284 -2.73873 0
M  V30 2933 H 269.945 0.480345 -0.524204 0
M  V30 2934 H 272.547 0.737416 -1.81059 0
M  V30 2935 H 271.251 2.15478 -3.49281 0
M  V30 2936 H 270.782 3.26447 -2.19536 0
M  V30 2937 H 272.797 4.51846 -2.05059 0
M  V30 2938 N 271.97 1.30982 0.876444 0
M  V30 2939 C 272.88 1.2003 2.01569 0
M  V30 2940 C 273.896 0.11838 1.73597 0
M  V30 2941 O 275.072 0.33495 1.98595 0
M  V30 2942 C 272.137 0.901637 3.34771 0
M  V30 2943 C 271.198 2.06979 3.76109 0
M  V30 2944 C 270.431 1.78529 5.02954 0
M  V30 2945 O 270.654 0.717296 5.65872 0
M  V30 2946 O 269.588 2.64019 5.40905 0
M  V30 2947 H 273.414 2.15753 2.13739 0
M  V30 2948 H 270.999 1.10658 1.00375 0
M  V30 2949 H 272.881 0.750645 4.1466 0
M  V30 2950 H 271.556 -0.0256141 3.2369 0
M  V30 2951 H 270.463 2.27616 2.96887 0
M  V30 2952 H 271.796 2.97907 3.91807 0
M  V30 2953 N 273.449 -1.08991 1.13837 0
M  V30 2954 C 274.399 -2.1393 0.788535 0
M  V30 2955 C 275.383 -1.59396 -0.219516 0
M  V30 2956 O 276.575 -1.76985 -0.0227557 0
M  V30 2957 C 273.704 -3.42305 0.261147 0
M  V30 2958 C 272.79 -4.03736 1.29837 0
M  V30 2959 N 273.181 -4.39659 2.50067 0
M  V30 2960 C 271.479 -4.30993 1.1472 0
M  V30 2961 C 272.18 -4.88113 3.16419 0
M  V30 2962 N 271.156 -4.85846 2.43832 0
M  V30 2963 H 274.958 -2.39516 1.70322 0
M  V30 2964 H 272.472 -1.26263 1.02134 0
M  V30 2965 H 274.469 -4.16899 -0.0077405 0
M  V30 2966 H 273.129 -3.18172 -0.647805 0
M  V30 2967 H 274.14 -4.30878 2.8734 0
M  V30 2968 H 270.817 -4.16444 0.296773 0
M  V30 2969 H 272.207 -5.25336 4.18894 0
M  V30 2970 N 274.927 -0.932562 -1.27047 0
M  V30 2971 C 276.167 -0.582919 -1.95912 0
M  V30 2972 C 276.531 0.860629 -1.71631 0
M  V30 2973 O 277.732 1.31878 -2.34225 0
M  V30 2974 C 276.003 -0.905673 -3.45734 0
M  V30 2975 S 277.562 -0.665277 -4.33727 0
M  V30 2976 H 274.38 -0.215 -0.677714 0
M  V30 2977 H 276.982 -1.20204 -1.54179 0
M  V30 2978 H 275.686 -1.95386 -3.60905 0
M  V30 2979 H 275.217 -0.275939 -3.92431 0
M  V30 2980 H 277.232 0.474635 -4.93925 0
M  V30 2981 N 276.405 1.4127 -0.698611 0
M  V30 2982 C 277.335 2.33447 -0.049629 0
M  V30 2983 C 278.316 1.51982 0.763898 0
M  V30 2984 O 279.501 1.80509 0.716257 0
M  V30 2985 C 276.631 3.35828 0.885267 0
M  V30 2986 C 275.585 4.27627 0.178613 0
M  V30 2987 C 274.911 5.20406 1.22807 0
M  V30 2988 C 276.211 5.13459 -0.956933 0
M  V30 2989 H 277.905 2.87966 -0.81951 0
M  V30 2990 H 275.451 1.38461 -0.395538 0
M  V30 2991 H 277.404 3.9924 1.34854 0
M  V30 2992 H 276.128 2.79666 1.68685 0
M  V30 2993 H 274.787 3.65643 -0.26466 0
M  V30 2994 H 274.435 4.60558 2.02226 0
M  V30 2995 H 274.135 5.82661 0.760239 0
M  V30 2996 H 275.659 5.86695 1.69179 0
M  V30 2997 H 277.073 5.70421 -0.573805 0
M  V30 2998 H 275.47 5.8467 -1.35205 0
M  V30 2999 H 276.54 4.50443 -1.79524 0
M  V30 3000 N 277.883 0.443576 1.51229 0
M  V30 3001 C 278.831 -0.37904 2.29491 0
M  V30 3002 C 279.825 -1.0153 1.35603 0
M  V30 3003 O 281.031 -0.94955 1.52917 0
M  V30 3004 H 277.406 -0.141053 0.738653 0
M  V30 3005 H 279.377 0.301799 2.9687 0
M  V30 3006 C 278.126 -1.46426 3.15364 0
M  V30 3007 H 277.449 -0.984037 3.87501 0
M  V30 3008 H 278.889 -2.01297 3.7317 0
M  V30 3009 C 277.348 -2.45099 2.31146 0
M  V30 3010 O 277.878 -3.49773 1.9754 0
M  V30 3011 N 276.084 -2.16139 1.94249 0
M  V30 3012 H 275.631 -1.31044 2.21777 0
M  V30 3013 H 275.589 -2.82398 1.38198 0
M  V30 3014 N 279.361 -1.56624 0.175154 0
M  V30 3015 C 280.772 -1.83561 -0.340916 0
M  V30 3016 C 281.123 -1.09511 -1.62794 0
M  V30 3017 O 280.248 -0.349389 -2.13561 0
M  V30 3018 C 280.843 -3.32979 -0.625313 0
M  V30 3019 C 279.402 -3.60399 -1.08581 0
M  V30 3020 C 278.549 -2.77024 -0.123722 0
M  V30 3021 H 281.5 -1.53593 0.399344 0
M  V30 3022 H 281.521 -3.50666 -1.47694 0
M  V30 3023 H 281.033 -3.86847 0.311575 0
M  V30 3024 H 279.134 -3.11945 -2.03767 0
M  V30 3025 H 279.247 -4.68711 -0.992317 0
M  V30 3026 H 277.611 -2.46993 -0.621821 0
M  V30 3027 H 278.394 -3.33674 0.807256 0
M  V30 3028 N 280.839 0.0985539 -1.57292 0
M  V30 3029 C 281.802 1.10402 -2.00858 0
M  V30 3030 C 282.802 1.33146 -0.901593 0
M  V30 3031 O 283.992 1.29318 -1.16716 0
M  V30 3032 C 281.124 2.45394 -2.36632 0
M  V30 3033 H 282.317 0.729099 -2.90902 0
M  V30 3034 H 279.87 0.343495 -1.52479 0
M  V30 3035 H 280.605 2.87769 -1.49531 0
M  V30 3036 H 280.39 2.30235 -3.17387 0
M  V30 3037 H 281.88 3.17718 -2.71007 0
M  V30 3038 N 282.317 1.53212 0.369288 0
M  V30 3039 C 283.557 1.70915 1.12105 0
M  V30 3040 C 283.921 0.449444 1.86665 0
M  V30 3041 O 285.122 0.503105 2.6405 0
M  V30 3042 C 283.393 2.9222 2.05772 0
M  V30 3043 S 284.952 3.30609 2.88519 0
M  V30 3044 H 281.77 0.601445 0.379189 0
M  V30 3045 H 284.372 1.91306 0.402794 0
M  V30 3046 H 283.076 3.82103 1.49752 0
M  V30 3047 H 282.607 2.7422 2.82076 0
M  V30 3048 H 284.622 2.82333 4.08047 0
M  V30 3049 N 283.795 -0.628877 1.44509 0
M  V30 3050 C 285.041 -1.39045 1.47629 0
M  V30 3051 C 285.374 -1.93892 0.109343 0
M  V30 3052 O 284.649 -1.7379 -0.87334 0
M  V30 3053 C 284.932 -2.55408 2.53848 0
M  V30 3054 C 284.785 -2.05896 3.99909 0
M  V30 3055 C 286.104 -3.5759 2.56549 0
M  V30 3056 H 283.223 -0.504232 0.537512 0
M  V30 3057 H 285.865 -0.710854 1.76201 0
M  V30 3058 H 284.015 -3.13384 2.29615 0
M  V30 3059 H 285.687 -1.52734 4.35282 0
M  V30 3060 H 283.93 -1.37061 4.11578 0
M  V30 3061 H 284.601 -2.89681 4.69882 0
M  V30 3062 H 287.077 -3.09419 2.78207 0
M  V30 3063 H 285.953 -4.36527 3.32769 0
M  V30 3064 H 286.214 -4.11808 1.60832 0
M  V30 3065 N 285.273 -1.31445 -0.869486 0
M  V30 3066 C 286.236 -1.19094 -1.9583 0
M  V30 3067 C 287.236 -0.117906 -1.60367 0
M  V30 3068 O 288.426 -0.367208 -1.70286 0
M  V30 3069 C 285.558 -0.828165 -3.30688 0
M  V30 3070 H 286.751 -2.15842 -2.08212 0
M  V30 3071 H 284.304 -1.15063 -1.05784 0
M  V30 3072 H 285.039 0.138142 -3.24006 0
M  V30 3073 H 284.824 -1.6038 -3.578 0
M  V30 3074 H 286.314 -0.765658 -4.10521 0
M  V30 3075 N 286.751 1.08385 -1.14413 0
M  V30 3076 C 287.979 1.84517 -0.936001 0
M  V30 3077 C 288.394 1.81626 0.515503 0
M  V30 3078 O 287.751 1.22008 1.35721 0
M  V30 3079 C 287.802 3.32049 -1.42918 0
M  V30 3080 O 287.523 3.34951 -2.82381 0
M  V30 3081 C 289.024 4.24986 -1.26103 0
M  V30 3082 H 286.244 0.582491 -0.333084 0
M  V30 3083 H 288.788 1.36885 -1.5193 0
M  V30 3084 H 286.943 3.7707 -0.888641 0
M  V30 3085 H 287.357 4.27048 -3.04517 0
M  V30 3086 H 288.831 5.26615 -1.6547 0
M  V30 3087 H 289.308 4.38726 -0.20392 0
M  V30 3088 H 289.914 3.85791 -1.79012 0
M  V30 3089 N 288.23 0.939286 1.26551 0
M  V30 3090 C 289.47 0.5933 1.956 0
M  V30 3091 C 289.834 -0.851515 1.72085 0
M  V30 3092 O 291.035 -1.30634 2.34921 0
M  V30 3093 C 289.306 0.923996 3.45249 0
M  V30 3094 S 290.865 0.688269 4.33369 0
M  V30 3095 H 287.683 0.218591 0.676564 0
M  V30 3096 H 290.285 1.2102 1.5354 0
M  V30 3097 H 288.989 1.97297 3.59864 0
M  V30 3098 H 288.52 0.296746 3.92279 0
M  V30 3099 H 290.535 -0.448434 4.9417 0
M  V30 3100 N 289.708 -1.40897 0.706093 0
M  V30 3101 C 291.119 -1.84023 0.315052 0
M  V30 3102 C 291.47 -1.5906 -1.14866 0
M  V30 3103 O 290.595 -1.06651 -1.88293 0
M  V30 3104 C 291.19 -3.34055 0.565038 0
M  V30 3105 C 289.749 -3.7571 0.227806 0
M  V30 3106 C 288.896 -2.64204 0.842122 0
M  V30 3107 H 291.847 -1.303 0.905963 0
M  V30 3108 H 291.868 -3.80107 -0.172843 0
M  V30 3109 H 291.38 -3.52192 1.63042 0
M  V30 3110 H 289.481 -3.63172 -0.832895 0
M  V30 3111 H 289.594 -4.74103 0.690174 0
M  V30 3112 H 287.958 -2.53255 0.270893 0
M  V30 3113 H 288.741 -2.85155 1.91158 0
M  V30 3114 N 291.186 -0.45159 -1.50991 0
M  V30 3115 C 292.411 0.110667 -2.07105 0
M  V30 3116 C 292.836 1.3446 -1.31538 0
M  V30 3117 O 292.194 1.77743 -0.357365 0
M  V30 3118 C 292.242 0.397238 -3.58405 0
M  V30 3119 O 291.346 1.48124 -3.84881 0
M  V30 3120 H 290.687 -0.00439271 -0.663985 0
M  V30 3121 H 293.217 -0.637026 -1.9443 0
M  V30 3122 H 293.227 0.64351 -4.02893 0
M  V30 3123 H 291.902 -0.504553 -4.12828 0
M  V30 3124 H 290.479 1.22381 -3.52246 0
M  V30 3125 N 292.664 1.56529 -0.183458 0
M  V30 3126 C 293.912 1.96855 0.457452 0
M  V30 3127 C 294.233 1.07104 1.62953 0
M  V30 3128 O 293.503 0.139887 1.954 0
M  V30 3129 H 292.083 0.72693 0.171992 0
M  V30 3130 H 294.745 1.93056 -0.267476 0
M  V30 3131 H 293.841 3.01423 0.809368 0
M  V30 3132 N 294.142 -0.090211 1.57342 0
M  V30 3133 C 295.105 -1.09335 2.01441 0
M  V30 3134 C 296.105 -1.32666 0.908641 0
M  V30 3135 O 297.295 -1.28697 1.174 0
M  V30 3136 C 294.427 -2.44136 2.3793 0
M  V30 3137 H 295.62 -0.713662 2.91285 0
M  V30 3138 H 293.173 -0.335404 1.52659 0
M  V30 3139 H 293.908 -2.86972 1.51055 0
M  V30 3140 H 293.693 -2.28548 3.18603 0
M  V30 3141 H 295.183 -3.16277 2.72688 0
M  V30 3142 N 295.62 -1.53406 -0.361157 0
M  V30 3143 C 296.869 -1.69022 -1.10066 0
M  V30 3144 C 297.182 -0.450838 -1.90333 0
M  V30 3145 O 298.388 -0.487617 -2.67085 0
M  V30 3146 C 296.844 -2.98812 -2.00598 0
M  V30 3147 C 296.452 -4.30027 -1.25621 0
M  V30 3148 C 298.196 -3.23795 -2.74513 0
M  V30 3149 C 296.103 -5.50903 -2.1508 0
M  V30 3150 H 295.033 -0.629776 -0.414606 0
M  V30 3151 H 297.684 -1.79907 -0.361348 0
M  V30 3152 H 296.066 -2.8174 -2.78278 0
M  V30 3153 H 297.24 -4.57745 -0.529739 0
M  V30 3154 H 295.555 -4.11522 -0.635496 0
M  V30 3155 H 298.152 -4.11289 -3.41681 0
M  V30 3156 H 298.495 -2.40045 -3.40123 0
M  V30 3157 H 299.028 -3.41561 -2.03914 0
M  V30 3158 H 295.767 -6.37143 -1.54041 0
M  V30 3159 H 295.287 -5.27459 -2.85565 0
M  V30 3160 H 296.966 -5.85865 -2.74538 0
M  V30 3161 N 297.098 0.621204 -1.44841 0
M  V30 3162 C 298.328 1.40548 -1.51426 0
M  V30 3163 C 298.736 1.88673 -0.141083 0
M  V30 3164 O 298.079 1.62053 0.865128 0
M  V30 3165 C 298.141 2.65325 -2.42576 0
M  V30 3166 C 297.805 2.3893 -3.89566 0
M  V30 3167 C 298.802 2.00138 -4.79834 0
M  V30 3168 C 296.487 2.52263 -4.3436 0
M  V30 3169 C 298.481 1.75021 -6.129 0
M  V30 3170 C 296.168 2.2676 -5.67471 0
M  V30 3171 C 297.166 1.88199 -6.56559 0
M  V30 3172 O 296.854 1.62986 -7.87204 0
M  V30 3173 H 296.586 0.437122 -0.515655 0
M  V30 3174 H 299.14 0.765987 -1.90583 0
M  V30 3175 H 297.37 3.31947 -1.98364 0
M  V30 3176 H 299.059 3.27347 -2.39998 0
M  V30 3177 H 299.825 1.89386 -4.46495 0
M  V30 3178 H 295.704 2.81246 -3.65269 0
M  V30 3179 H 299.248 1.44848 -6.82396 0
M  V30 3180 H 295.145 2.37125 -6.00368 0
M  V30 3181 H 295.913 1.7715 -7.991 0
M  V30 3182 N 298.576 1.31904 0.862503 0
M  V30 3183 C 299.523 1.20182 1.9704 0
M  V30 3184 C 300.493 0.0858247 1.65878 0
M  V30 3185 O 301.678 0.26 1.8902 0
M  V30 3186 C 298.818 0.922797 3.32533 0
M  V30 3187 C 297.931 2.12284 3.76244 0
M  V30 3188 C 297.066 1.77996 5.00491 0
M  V30 3189 C 296.105 2.94366 5.36671 0
M  V30 3190 N 295.242 2.60223 6.52095 0
M  V30 3191 H 300.082 2.14951 2.06398 0
M  V30 3192 H 297.619 1.06917 1.01031 0
M  V30 3193 H 299.577 0.741548 4.10557 0
M  V30 3194 H 298.207 0.0119227 3.22798 0
M  V30 3195 H 297.259 2.41461 2.9394 0
M  V30 3196 H 298.571 2.99357 3.98982 0
M  V30 3197 H 297.725 1.56377 5.862 0
M  V30 3198 H 296.464 0.881252 4.79672 0
M  V30 3199 H 295.469 3.16625 4.49476 0
M  V30 3200 H 296.694 3.84957 5.59451 0
M  V30 3201 H 294.64 1.72884 6.32809 0
M  V30 3202 H 294.557 3.40827 6.74814 0
M  V30 3203 H 295.825 2.42016 7.40978 0
M  V30 3204 N 300.054 -1.07777 1.14986 0
M  V30 3205 C 301.47 -1.32373 0.891596 0
M  V30 3206 C 301.67 -1.9609 -0.463788 0
M  V30 3207 O 300.726 -2.21801 -1.20667 0
M  V30 3208 C 302.039 -2.21905 2.02925 0
M  V30 3209 C 303.587 -2.35367 2.06329 0
M  V30 3210 C 304.062 -3.28245 3.19405 0
M  V30 3211 N 305.553 -3.35824 3.19024 0
M  V30 3212 C 306.288 -4.07739 4.03158 0
M  V30 3213 N 305.784 -4.82306 4.97346 0
M  V30 3214 N 307.577 -4.03635 3.91197 0
M  V30 3215 H 299.728 -0.648039 2.02273 0
M  V30 3216 H 301.991 -0.348149 0.881757 0
M  V30 3217 H 301.697 -1.82342 3.0074 0
M  V30 3218 H 301.571 -3.22407 1.95789 0
M  V30 3219 H 303.958 -2.74186 1.09116 0
M  V30 3220 H 304.039 -1.34585 2.17533 0
M  V30 3221 H 303.683 -2.90146 4.16867 0
M  V30 3222 H 303.613 -4.28971 3.05437 0
M  V30 3223 H 306.104 -2.8267 2.50811 0
M  V30 3224 H 306.417 -5.34661 5.57994 0
M  V30 3225 H 304.762 -4.81337 5.01338 0
M  V30 3226 H 307.953 -3.44491 3.16928 0
M  V30 3227 H 308.126 -4.59417 4.5699 0
M  V30 3228 N 301.532 -0.945985 -1.26051 0
M  V30 3229 C 302.442 -0.465633 -2.29933 0
M  V30 3230 C 303.458 0.462761 -1.67733 0
M  V30 3231 O 304.634 0.341118 -1.9849 0
M  V30 3232 C 301.699 0.256994 -3.45746 0
M  V30 3233 C 300.76 -0.708549 -4.23412 0
M  V30 3234 C 299.993 -0.0203135 -5.33696 0
M  V30 3235 O 300.216 1.19571 -5.57726 0
M  V30 3236 O 299.15 -0.701459 -5.97799 0
M  V30 3237 H 302.976 -1.32866 -2.73094 0
M  V30 3238 H 300.561 -0.712071 -1.31339 0
M  V30 3239 H 302.443 0.663852 -4.16138 0
M  V30 3240 H 301.118 1.09533 -3.04605 0
M  V30 3241 H 300.025 -1.16545 -3.55483 0
M  V30 3242 H 301.358 -1.51465 -4.68315 0
M  V30 3243 N 303.011 1.40521 -0.713556 0
M  V30 3244 C 303.921 2.34522 -0.0606667 0
M  V30 3245 C 304.937 1.57193 0.74607 0
M  V30 3246 O 306.113 1.89591 0.679493 0
M  V30 3247 C 303.178 3.36081 0.851491 0
M  V30 3248 C 302.239 4.29286 0.0349339 0
M  V30 3249 C 301.472 5.25994 0.903649 0
M  V30 3250 O 301.695 5.28616 2.14292 0
M  V30 3251 O 300.629 6.00918 0.343723 0
M  V30 3252 H 304.455 2.91968 -0.835972 0
M  V30 3253 H 302.04 1.41681 -0.47402 0
M  V30 3254 H 303.922 3.98369 1.37404 0
M  V30 3255 H 302.597 2.81052 1.60598 0
M  V30 3256 H 301.504 3.70289 -0.532633 0
M  V30 3257 H 302.837 4.87462 -0.681287 0
M  V30 3258 N 304.489 0.459591 1.5075 0
M  V30 3259 C 305.766 -0.160371 1.94941 0
M  V30 3260 C 306.146 -1.58048 1.39943 0
M  V30 3261 O 305.494 -2.206 0.595629 0
M  V30 3262 C 305.704 -0.115432 3.48809 0
M  V30 3263 C 307.052 -0.310026 4.23467 0
M  V30 3264 O 308.076 -0.192543 3.55679 0
M  V30 3265 O 306.935 -0.546031 5.43765 0
M  V30 3266 H 304.029 -0.117925 0.818549 0
M  V30 3267 H 306.575 0.519169 1.61563 0
M  V30 3268 H 305.347 0.87652 3.81357 0
M  V30 3269 H 304.97 -0.836928 3.88692 0
M  V30 3270 N 305.967 -1.56429 0.191757 0
M  V30 3271 C 307.215 -1.97095 -0.447006 0
M  V30 3272 C 307.536 -1.07967 -1.62383 0
M  V30 3273 O 306.806 -0.150248 -1.95323 0
M  V30 3274 H 305.386 -0.727832 -0.168135 0
M  V30 3275 H 308.048 -1.92911 0.27771 0
M  V30 3276 H 307.144 -3.01848 -0.793371 0
M  V30 3277 N 307.445 0.0818655 -1.57387 0
M  V30 3278 C 308.694 0.781681 -1.85937 0
M  V30 3279 C 309.007 1.79246 -0.782957 0
M  V30 3280 O 310.213 2.54112 -0.955987 0
M  V30 3281 C 308.669 1.44109 -3.29789 0
M  V30 3282 C 308.277 0.469396 -4.45534 0
M  V30 3283 C 310.021 2.12386 -3.67549 0
M  V30 3284 C 307.928 1.13415 -5.80423 0
M  V30 3285 H 306.858 0.295682 -0.693605 0
M  V30 3286 H 309.509 0.0348051 -1.83467 0
M  V30 3287 H 307.891 2.23588 -3.2684 0
M  V30 3288 H 309.065 -0.294856 -4.59856 0
M  V30 3289 H 307.38 -0.108383 -4.16259 0
M  V30 3290 H 309.977 2.62878 -4.65617 0
M  V30 3291 H 310.32 2.91877 -2.96839 0
M  V30 3292 H 310.853 1.39751 -3.72444 0
M  V30 3293 H 307.592 0.379771 -6.54399 0
M  V30 3294 H 307.112 1.8695 -5.69921 0
M  V30 3295 H 308.791 1.65686 -6.25426 0
M  V30 3296 N 308.923 1.53595 0.353017 0
M  V30 3297 C 310.169 1.70638 1.09593 0
M  V30 3298 C 310.502 0.463286 1.88593 0
M  V30 3299 O 309.777 -0.539597 1.86865 0
M  V30 3300 C 310.06 2.96406 2.04489 0
M  V30 3301 C 309.913 4.30901 1.29014 0
M  V30 3302 C 311.232 3.17812 3.0444 0
M  V30 3303 H 308.351 0.620913 0.397034 0
M  V30 3304 H 310.993 1.86254 0.375446 0
M  V30 3305 H 309.143 2.83223 2.65927 0
M  V30 3306 H 310.815 4.55917 0.702638 0
M  V30 3307 H 309.058 4.29741 0.592071 0
M  V30 3308 H 309.729 5.1506 1.98537 0
M  V30 3309 H 312.205 3.30263 2.53112 0
M  V30 3310 H 311.081 4.07223 3.6805 0
M  V30 3311 H 311.342 2.33669 3.75301 0
M  V30 3312 N 310.401 -0.613514 1.45168 0
M  V30 3313 C 311.331 -1.7354 1.56225 0
M  V30 3314 C 312.312 -1.64981 0.41414 0
M  V30 3315 O 313.497 -1.83472 0.636526 0
M  V30 3316 C 310.627 -3.12128 1.52295 0
M  V30 3317 C 309.581 -3.35491 2.65762 0
M  V30 3318 C 308.907 -4.74291 2.46885 0
M  V30 3319 C 310.207 -3.26325 4.0781 0
M  V30 3320 H 311.901 -1.64543 2.50132 0
M  V30 3321 H 309.447 -0.790185 1.20383 0
M  V30 3322 H 311.4 -3.90404 1.58628 0
M  V30 3323 H 310.124 -3.2195 0.549139 0
M  V30 3324 H 308.783 -2.59603 2.58847 0
M  V30 3325 H 308.431 -4.80839 1.47657 0
M  V30 3326 H 308.131 -4.9088 3.22972 0
M  V30 3327 H 309.655 -5.54775 2.55063 0
M  V30 3328 H 311.069 -3.94483 4.16 0
M  V30 3329 H 309.466 -3.54445 4.8424 0
M  V30 3330 H 310.536 -2.23855 4.30136 0
M  V30 3331 N 311.879 -1.3236 -0.855495 0
M  V30 3332 C 313.128 -1.22226 -1.60448 0
M  V30 3333 C 313.441 0.214733 -1.94418 0
M  V30 3334 O 314.647 0.437917 -2.67945 0
M  V30 3335 C 313.103 -2.14063 -2.89318 0
M  V30 3336 C 312.711 -3.62839 -2.62777 0
M  V30 3337 C 314.455 -2.12764 -3.67331 0
M  V30 3338 C 312.362 -4.4664 -3.87643 0
M  V30 3339 H 311.292 -0.453904 -0.602069 0
M  V30 3340 H 313.943 -1.57314 -0.944698 0
M  V30 3341 H 312.325 -1.71889 -3.5675 0
M  V30 3342 H 313.499 -4.1335 -2.03662 0
M  V30 3343 H 311.814 -3.66261 -1.98096 0
M  V30 3344 H 314.411 -2.72611 -4.59987 0
M  V30 3345 H 314.754 -1.11841 -4.00995 0
M  V30 3346 H 315.287 -2.53214 -3.06802 0
M  V30 3347 H 312.026 -5.48373 -3.5912 0
M  V30 3348 H 311.546 -4.0088 -4.46156 0
M  V30 3349 H 313.225 -4.59597 -4.55389 0
M  V30 3350 N 313.357 1.07166 -1.15556 0
M  V30 3351 C 314.634 1.76546 -0.842069 0
M  V30 3352 C 315.014 2.00453 0.661939 0
M  V30 3353 O 314.362 1.62452 1.60691 0
M  V30 3354 C 314.572 3.07266 -1.65495 0
M  V30 3355 C 315.92 3.81578 -1.86234 0
M  V30 3356 O 316.944 3.17083 -1.62287 0
M  V30 3357 O 315.803 4.97419 -2.26355 0
M  V30 3358 H 312.897 0.766756 -0.309862 0
M  V30 3359 H 315.443 1.13514 -1.26145 0
M  V30 3360 H 314.215 2.85494 -2.67598 0
M  V30 3361 H 313.838 3.7803 -1.23203 0
M  V30 3362 N 314.835 0.952656 1.25548 0
M  V30 3363 C 315.767 0.428609 2.25157 0
M  V30 3364 C 316.78 -0.454428 1.56329 0
M  V30 3365 O 317.969 -0.263023 1.76552 0
M  V30 3366 C 315.069 -0.401972 3.36508 0
M  V30 3367 C 314.242 0.467601 4.34893 0
M  V30 3368 C 313.301 -0.30445 5.25319 0
M  V30 3369 O 312.327 0.296473 5.68427 0
M  V30 3370 N 313.529 -1.59805 5.5807 0
M  V30 3371 H 316.294 1.28497 2.70756 0
M  V30 3372 H 313.855 0.822798 1.39433 0
M  V30 3373 H 315.847 -0.926134 3.9396 0
M  V30 3374 H 314.417 -1.15918 2.90313 0
M  V30 3375 H 313.637 1.17288 3.76347 0
M  V30 3376 H 314.925 1.06119 4.97611 0
M  V30 3377 H 314.323 -2.10823 5.24948 0
M  V30 3378 H 312.88 -2.06822 6.18116 0
M  V30 3379 N 316.313 -1.40141 0.720998 0
M  V30 3380 C 317.59 -1.94677 0.189757 0
M  V30 3381 C 317.97 -1.65879 -1.30566 0
M  V30 3382 O 317.318 -0.979391 -2.06447 0
M  V30 3383 C 317.528 -3.45279 0.508304 0
M  V30 3384 C 318.876 -4.22209 0.449934 0
M  V30 3385 O 319.9 -3.53413 0.444677 0
M  V30 3386 O 318.759 -5.44788 0.432189 0
M  V30 3387 H 315.853 -0.826459 0.0299026 0
M  V30 3388 H 318.399 -1.49719 0.7989 0
M  V30 3389 H 317.171 -3.59619 1.54239 0
M  V30 3390 H 316.794 -3.97386 -0.130525 0
M  V30 3391 N 317.792 -0.46758 -1.50504 0
M  V30 3392 C 318.739 0.328413 -2.28452 0
M  V30 3393 C 319.709 0.990313 -1.33349 0
M  V30 3394 O 320.894 1.00343 -1.62284 0
M  V30 3395 C 318.034 1.40648 -3.15138 0
M  V30 3396 C 317.147 0.759709 -4.25267 0
M  V30 3397 C 316.282 1.81537 -4.99217 0
M  V30 3398 C 315.321 1.14866 -6.01226 0
M  V30 3399 N 314.458 2.14702 -6.68467 0
M  V30 3400 H 319.298 -0.342603 -2.96024 0
M  V30 3401 H 316.835 -0.180801 -1.45985 0
M  V30 3402 H 318.793 2.04315 -3.63746 0
M  V30 3403 H 317.423 2.04671 -2.49619 0
M  V30 3404 H 316.475 0.0105671 -3.80399 0
M  V30 3405 H 317.787 0.233243 -4.98254 0
M  V30 3406 H 316.941 2.52793 -5.51526 0
M  V30 3407 H 315.68 2.37564 -4.25928 0
M  V30 3408 H 314.685 0.42171 -5.4818 0
M  V30 3409 H 315.91 0.595334 -6.76485 0
M  V30 3410 H 313.856 2.69752 -5.97972 0
M  V30 3411 H 313.773 1.6703 -7.37317 0
M  V30 3412 H 315.041 2.85348 -7.25394 0
M  V30 3413 N 319.27 1.56325 -0.20005 0
M  V30 3414 C 320.51 1.99619 0.439519 0
M  V30 3415 C 320.874 1.08423 1.58456 0
M  V30 3416 O 322.075 1.40973 2.28867 0
M  V30 3417 C 320.346 3.46314 0.883258 0
M  V30 3418 S 321.905 4.11634 1.51997 0
M  V30 3419 H 318.723 0.697007 0.140363 0
M  V30 3420 H 321.325 1.93118 -0.304282 0
M  V30 3421 H 320.029 4.10381 0.0398967 0
M  V30 3422 H 319.56 3.56643 1.6604 0
M  V30 3423 H 321.575 4.09049 2.8088 0
M  V30 3424 N 320.748 -0.0735177 1.57428 0
M  V30 3425 C 322.164 -0.428264 1.53747 0
M  V30 3426 C 322.364 -1.79272 0.91998 0
M  V30 3427 O 321.42 -2.47051 0.521745 0
M  V30 3428 C 322.733 -0.370914 2.98404 0
M  V30 3429 C 324.281 -0.451224 3.0973 0
M  V30 3430 C 324.756 -0.4238 4.56035 0
M  V30 3431 N 326.247 -0.483925 4.60665 0
M  V30 3432 C 326.982 -0.484891 5.71346 0
M  V30 3433 N 326.478 -0.440775 6.91396 0
M  V30 3434 N 328.271 -0.531319 5.59583 0
M  V30 3435 H 320.422 0.819949 1.95935 0
M  V30 3436 H 322.685 0.307493 0.896745 0
M  V30 3437 H 322.391 0.564956 3.47133 0
M  V30 3438 H 322.265 -1.18176 3.5821 0
M  V30 3439 H 324.652 -1.37752 2.60976 0
M  V30 3440 H 324.733 0.388167 2.52838 0
M  V30 3441 H 324.377 0.498638 5.05446 0
M  V30 3442 H 324.307 -1.2807 5.10789 0
M  V30 3443 H 326.798 -0.522338 3.74273 0
M  V30 3444 H 327.111 -0.44539 7.71515 0
M  V30 3445 H 325.456 -0.40749 6.93804 0
M  V30 3446 H 328.647 -0.563464 4.64696 0
M  V30 3447 H 328.82 -0.528603 6.4584 0
M  V30 3448 N 322.226 -1.5378 -0.344866 0
M  V30 3449 C 323.474 -1.70625 -1.08311 0
M  V30 3450 C 323.795 -0.471447 -1.89215 0
M  V30 3451 O 323.065 0.514616 -1.8902 0
M  V30 3452 H 321.645 -0.629058 -0.402859 0
M  V30 3453 H 324.307 -1.9103 -0.386459 0
M  V30 3454 H 323.403 -2.57656 -1.76124 0
M  V30 3455 N 323.704 0.605807 -1.45491 0
M  V30 3456 C 324.95 1.36481 -1.50813 0
M  V30 3457 C 325.305 1.91826 -0.148469 0
M  V30 3458 O 324.598 1.72211 0.839869 0
M  V30 3459 C 324.792 2.53012 -2.52428 0
M  V30 3460 C 324.621 2.09078 -3.98141 0
M  V30 3461 C 323.391 1.95167 -4.66088 0
M  V30 3462 C 325.589 1.66438 -4.86624 0
M  V30 3463 N 323.571 1.45062 -5.96515 0
M  V30 3464 C 324.942 1.27761 -6.06694 0
M  V30 3465 C 326.997 1.54046 -4.7347 0
M  V30 3466 C 325.7 0.779286 -7.15066 0
M  V30 3467 C 327.726 1.05618 -5.81892 0
M  V30 3468 C 327.088 0.67906 -7.01119 0
M  V30 3469 H 323.187 0.493267 -0.606805 0
M  V30 3470 H 325.771 0.692347 -1.81974 0
M  V30 3471 H 323.942 3.17851 -2.23215 0
M  V30 3472 H 325.674 3.19897 -2.47887 0
M  V30 3473 H 322.429 2.16407 -4.21266 0
M  V30 3474 H 322.853 1.22237 -6.65873 0
M  V30 3475 H 327.495 1.81827 -3.81705 0
M  V30 3476 H 325.213 0.489026 -8.06619 0
M  V30 3477 H 328.799 0.964529 -5.73749 0
M  V30 3478 H 327.679 0.310091 -7.83587 0
M  V30 3479 N 325.182 1.32811 0.848464 0
M  V30 3480 C 326.598 1.11937 1.13764 0
M  V30 3481 C 326.798 -0.0960789 2.01271 0
M  V30 3482 O 325.854 -0.779165 2.40178 0
M  V30 3483 C 327.167 2.402 1.809 0
M  V30 3484 C 328.715 2.46016 1.93508 0
M  V30 3485 C 329.19 3.74215 2.64059 0
M  V30 3486 N 330.681 3.75232 2.71579 0
M  V30 3487 C 331.416 4.71134 3.26833 0
M  V30 3488 N 330.912 5.77406 3.8285 0
M  V30 3489 N 332.705 4.58623 3.24995 0
M  V30 3490 H 324.856 2.1073 0.265855 0
M  V30 3491 H 327.119 0.930671 0.180431 0
M  V30 3492 H 326.825 3.29093 1.24058 0
M  V30 3493 H 326.699 2.51628 2.81004 0
M  V30 3494 H 329.086 1.57577 2.49506 0
M  V30 3495 H 329.167 2.38536 0.923811 0
M  V30 3496 H 328.811 4.63031 2.08722 0
M  V30 3497 H 328.741 3.78968 3.65637 0
M  V30 3498 H 331.232 2.98423 2.31845 0
M  V30 3499 H 331.545 6.46632 4.23187 0
M  V30 3500 H 329.89 5.81152 3.81165 0
M  V30 3501 H 333.081 3.74762 2.80484 0
M  V30 3502 H 333.254 5.33535 3.67756 0
M  V30 3503 N 326.66 -1.06551 1.16123 0
M  V30 3504 C 327.593 -2.13382 0.80892 0
M  V30 3505 C 328.571 -1.61128 -0.21827 0
M  V30 3506 O 329.755 -1.88219 -0.102952 0
M  V30 3507 C 326.882 -3.38083 0.204303 0
M  V30 3508 C 325.928 -4.09133 1.20469 0
M  V30 3509 S 326.761 -4.5948 2.75024 0
M  V30 3510 C 327.917 -5.87446 2.16005 0
M  V30 3511 H 328.15 -2.42937 1.71373 0
M  V30 3512 H 325.683 -1.18947 0.984428 0
M  V30 3513 H 327.641 -4.10268 -0.138081 0
M  V30 3514 H 326.302 -3.0669 -0.678234 0
M  V30 3515 H 325.495 -4.98685 0.730019 0
M  V30 3516 H 325.097 -3.4295 1.49202 0
M  V30 3517 H 327.389 -6.60065 1.5271 0
M  V30 3518 H 328.332 -6.39639 3.03756 0
M  V30 3519 H 328.74 -5.41354 1.59989 0
M  V30 3520 N 328.138 -0.959301 -1.25041 0
M  V30 3521 C 329.378 -0.624343 -1.94631 0
M  V30 3522 C 329.742 0.82403 -1.73418 0
M  V30 3523 O 330.943 1.26881 -2.3697 0
M  V30 3524 C 329.214 -0.978805 -3.43736 0
M  V30 3525 S 330.773 -0.757127 -4.32219 0
M  V30 3526 H 327.591 -0.229327 -0.673001 0
M  V30 3527 H 330.193 -1.23447 -1.51595 0
M  V30 3528 H 328.897 -2.02997 -3.56679 0
M  V30 3529 H 328.428 -0.359117 -3.91757 0
M  V30 3530 H 330.443 0.369759 -4.9482 0
M  V30 3531 N 329.616 1.39756 -0.72842 0
M  V30 3532 C 330.865 1.99879 -0.270407 0
M  V30 3533 C 331.178 1.58449 1.14688 0
M  V30 3534 O 332.384 2.11362 1.70407 0
M  V30 3535 C 330.84 3.57292 -0.43252 0
M  V30 3536 C 330.448 4.07688 -1.85727 0
M  V30 3537 C 332.192 4.24485 -0.0359507 0
M  V30 3538 C 330.099 5.5765 -1.96928 0
M  V30 3539 H 329.029 0.747689 -0.0973472 0
M  V30 3540 H 331.68 1.59837 -0.901355 0
M  V30 3541 H 330.062 3.95097 0.267219 0
M  V30 3542 H 331.236 3.81231 -2.58843 0
M  V30 3543 H 329.551 3.53135 -2.20646 0
M  V30 3544 H 332.148 5.34609 -0.0987484 0
M  V30 3545 H 332.491 4.03915 1.00787 0
M  V30 3546 H 333.024 3.9183 -0.686604 0
M  V30 3547 H 329.763 5.8309 -2.99476 0
M  V30 3548 H 329.283 5.8593 -1.28241 0
M  V30 3549 H 330.962 6.22957 -1.74737 0
M  V30 3550 N 331.094 0.475555 1.50254 0
M  V30 3551 C 332.322 -0.0754493 2.06762 0
M  V30 3552 C 332.737 -1.33111 1.33891 0
M  V30 3553 O 332.094 -1.77846 0.40952 0
M  V30 3554 C 332.145 -0.359008 3.59713 0
M  V30 3555 O 331.866 0.846851 4.29837 0
M  V30 3556 C 333.367 -0.956484 4.32858 0
M  V30 3557 H 330.587 0.00907525 0.670939 0
M  V30 3558 H 333.131 0.665618 1.93364 0
M  V30 3559 H 331.286 -1.05001 3.72899 0
M  V30 3560 H 331.7 0.594162 5.21124 0
M  V30 3561 H 333.174 -1.10463 5.40834 0
M  V30 3562 H 333.651 -1.94775 3.93649 0
M  V30 3563 H 334.257 -0.303723 4.24214 0
M  V30 3564 N 332.573 -1.56217 0.208337 0
M  V30 3565 C 333.821 -1.97558 -0.426076 0
M  V30 3566 C 334.142 -1.09683 -1.61229 0
M  V30 3567 O 333.412 -0.170956 -1.95153 0
M  V30 3568 H 331.992 -0.729575 -0.160405 0
M  V30 3569 H 334.654 -1.92606 0.298155 0
M  V30 3570 H 333.75 -3.02672 -0.761312 0
M  V30 3571 N 334.051 0.0651679 -1.57465 0
M  V30 3572 C 335.291 0.768329 -1.8941 0
M  V30 3573 C 335.655 1.74406 -0.802894 0
M  V30 3574 O 336.856 2.49281 -1.0056 0
M  V30 3575 C 335.127 1.45199 -3.26576 0
M  V30 3576 S 336.686 2.1893 -3.80283 0
M  V30 3577 H 333.504 0.255359 -0.663561 0
M  V30 3578 H 336.106 0.024167 -1.95485 0
M  V30 3579 H 334.81 0.728123 -4.03889 0
M  V30 3580 H 334.341 2.23545 -3.23715 0
M  V30 3581 H 336.356 3.45551 -3.56102 0
M  V30 3582 N 335.529 1.53961 0.336706 0
M  V30 3583 C 336.94 1.62914 0.911925 0
M  V30 3584 C 337.291 0.514795 1.89326 0
M  V30 3585 O 336.416 -0.354395 2.13478 0
M  V30 3586 C 337.011 2.95304 1.66076 0
M  V30 3587 C 335.57 3.06496 2.18489 0
M  V30 3588 C 334.717 2.58403 1.00613 0
M  V30 3589 H 337.668 1.58285 0.114649 0
M  V30 3590 H 337.689 2.84727 2.5241 0
M  V30 3591 H 337.201 3.76387 0.946276 0
M  V30 3592 H 335.302 2.3006 2.93092 0
M  V30 3593 H 335.415 4.1208 2.44391 0
M  V30 3594 H 333.779 2.13977 1.38152 0
M  V30 3595 H 334.562 3.41932 0.306179 0
M  V30 3596 N 337.007 -0.598083 1.45811 0
M  V30 3597 C 338.237 -1.38121 1.53643 0
M  V30 3598 C 338.645 -1.88425 0.171081 0
M  V30 3599 O 337.988 -1.63409 -0.839237 0
M  V30 3600 C 338.05 -2.61432 2.46766 0
M  V30 3601 C 337.714 -2.32702 3.93318 0
M  V30 3602 C 338.711 -1.92479 4.82957 0
M  V30 3603 C 336.396 -2.45321 4.38318 0
M  V30 3604 C 338.39 -1.65248 6.15607 0
M  V30 3605 C 336.077 -2.17703 5.71007 0
M  V30 3606 C 337.075 -1.7773 6.5947 0
M  V30 3607 O 336.763 -1.50441 7.89698 0
M  V30 3608 H 336.495 -0.428863 0.522544 0
M  V30 3609 H 339.049 -0.73557 1.91777 0
M  V30 3610 H 337.279 -3.28749 2.0362 0
M  V30 3611 H 338.968 -3.23487 2.45175 0
M  V30 3612 H 339.734 -1.82258 4.49452 0
M  V30 3613 H 335.613 -2.75399 3.69697 0
M  V30 3614 H 339.157 -1.33973 6.84614 0
M  V30 3615 H 335.054 -2.27544 6.04065 0
M  V30 3616 H 335.822 -1.64415 8.01817 0
M  V30 3617 N 338.485 -1.33259 -0.841409 0
M  V30 3618 C 339.432 -1.23302 -1.95103 0
M  V30 3619 C 340.402 -0.112204 -1.65721 0
M  V30 3620 O 341.587 -0.290038 -1.88583 0
M  V30 3621 C 338.727 -0.975583 -3.31023 0
M  V30 3622 C 337.84 -2.18243 -3.72819 0
M  V30 3623 C 336.975 -1.85936 -4.97595 0
M  V30 3624 C 336.014 -3.02866 -5.3192 0
M  V30 3625 N 335.151 -2.70565 -6.47873 0
M  V30 3626 H 339.991 -2.18207 -2.02952 0
M  V30 3627 H 337.528 -1.0851 -0.993173 0
M  V30 3628 H 339.486 -0.80677 -4.09325 0
M  V30 3629 H 338.116 -0.0632755 -3.22738 0
M  V30 3630 H 337.168 -2.46107 -2.90061 0
M  V30 3631 H 338.48 -3.05666 -3.94169 0
M  V30 3632 H 337.634 -1.65684 -5.83638 0
M  V30 3633 H 336.373 -0.957452 -4.78209 0
M  V30 3634 H 335.378 -3.23736 -4.44382 0
M  V30 3635 H 336.603 -3.93809 -5.53255 0
M  V30 3636 H 334.549 -1.8293 -6.29978 0
M  V30 3637 H 334.466 -3.51519 -6.69306 0
M  V30 3638 H 335.734 -2.53774 -7.37034 0
M  V30 3639 N 339.963 1.05934 -1.16686 0
M  V30 3640 C 340.91 2.13499 -0.876748 0
M  V30 3641 C 341.88 1.65162 0.176299 0
M  V30 3642 O 343.065 1.90757 0.0407143 0
M  V30 3643 C 340.205 3.42912 -0.387967 0
M  V30 3644 C 339.318 4.04964 -1.50426 0
M  V30 3645 C 338.453 5.22266 -0.970125 0
M  V30 3646 C 337.492 5.76309 -2.06238 0
M  V30 3647 N 336.629 6.84922 -1.54356 0
M  V30 3648 H 341.469 2.37654 -1.7979 0
M  V30 3649 H 339.006 1.16598 -0.896843 0
M  V30 3650 H 340.964 4.17111 -0.086186 0
M  V30 3651 H 339.594 3.18963 0.496235 0
M  V30 3652 H 338.646 3.28277 -1.92193 0
M  V30 3653 H 339.958 4.41122 -2.32836 0
M  V30 3654 H 339.112 6.03506 -0.621743 0
M  V30 3655 H 337.851 4.87564 -0.115377 0
M  V30 3656 H 336.856 4.93704 -2.41942 0
M  V30 3657 H 338.081 6.13062 -2.92115 0
M  V30 3658 H 336.027 6.52131 -0.711406 0
M  V30 3659 H 335.944 7.20043 -2.30379 0
M  V30 3660 H 337.212 7.69832 -1.22387 0
M  V30 3661 N 341.441 0.965919 1.2453 0
M  V30 3662 C 342.69 0.622437 1.91856 0
M  V30 3663 C 343.003 -0.846006 1.76358 0
M  V30 3664 O 344.209 -1.29993 2.38357 0
M  V30 3665 C 342.665 1.0626 3.43856 0
M  V30 3666 C 342.273 2.55437 3.68043 0
M  V30 3667 C 344.017 0.792183 4.17043 0
M  V30 3668 C 341.924 2.93196 5.13605 0
M  V30 3669 H 340.854 0.229092 0.718354 0
M  V30 3670 H 343.505 1.17189 1.41206 0
M  V30 3671 H 341.887 0.441476 3.93531 0
M  V30 3672 H 343.061 3.22665 3.28974 0
M  V30 3673 H 341.376 2.8007 3.08139 0
M  V30 3674 H 343.973 1.05031 5.24283 0
M  V30 3675 H 344.316 -0.271584 4.15413 0
M  V30 3676 H 344.849 1.37419 3.73311 0
M  V30 3677 H 341.588 3.98636 5.20355 0
M  V30 3678 H 341.108 2.30651 5.53679 0
M  V30 3679 H 342.787 2.83004 5.81823 0
M  V30 3680 N 342.919 -1.39368 0.735821 0
M  V30 3681 C 344.149 -2.04498 0.293967 0
M  V30 3682 C 344.557 -1.55593 -1.07645 0
M  V30 3683 O 343.9 -0.716324 -1.69158 0
M  V30 3684 C 343.962 -3.58836 0.218342 0
M  V30 3685 C 343.626 -4.30721 1.52736 0
M  V30 3686 C 344.623 -4.57305 2.47322 0
M  V30 3687 C 342.308 -4.69251 1.79189 0
M  V30 3688 C 344.302 -5.21429 3.66593 0
M  V30 3689 C 341.989 -5.33104 2.98737 0
M  V30 3690 C 342.987 -5.59125 3.9226 0
M  V30 3691 O 342.675 -6.21653 5.09708 0
M  V30 3692 H 342.407 -0.664118 0.126189 0
M  V30 3693 H 344.961 -1.79385 1.00051 0
M  V30 3694 H 343.191 -3.8285 -0.544314 0
M  V30 3695 H 344.88 -4.05447 -0.191626 0
M  V30 3696 H 345.646 -4.27983 2.28156 0
M  V30 3697 H 341.525 -4.48354 1.07239 0
M  V30 3698 H 345.069 -5.41656 4.39607 0
M  V30 3699 H 340.966 -5.61846 3.17803 0
M  V30 3700 H 341.734 -6.40146 5.10054 0
M  V30 3701 N 344.397 -0.483516 -1.5 0
M  V30 3702 C 345.644 0.0671597 -2.02389 0
M  V30 3703 C 345.972 1.38597 -1.36459 0
M  V30 3704 O 345.227 1.89634 -0.483458 0
M  V30 3705 C 345.526 0.286226 -3.56252 0
M  V30 3706 C 345.192 -0.952416 -4.40726 0
M  V30 3707 C 343.854 -1.29199 -4.63531 0
M  V30 3708 C 346.206 -1.77655 -4.89988 0
M  V30 3709 C 343.534 -2.45553 -5.32842 0
M  V30 3710 C 345.886 -2.93147 -5.60578 0
M  V30 3711 C 344.55 -3.27505 -5.81633 0
M  V30 3712 H 343.82 0.0245755 -0.740592 0
M  V30 3713 H 346.467 -0.640124 -1.80485 0
M  V30 3714 H 344.772 1.07587 -3.76739 0
M  V30 3715 H 346.469 0.726473 -3.94365 0
M  V30 3716 H 343.059 -0.677881 -4.23205 0
M  V30 3717 H 347.243 -1.52737 -4.72213 0
M  V30 3718 H 342.499 -2.72431 -5.47349 0
M  V30 3719 H 346.673 -3.57344 -5.97727 0
M  V30 3720 H 344.3 -4.1777 -6.35116 0
M  V30 3721 N 345.875 1.56104 -0.216619 0
M  V30 3722 C 346.823 2.21434 0.712036 0
M  V30 3723 C 347.817 1.19218 1.20348 0
M  V30 3724 O 349.023 1.3731 1.16387 0
M  V30 3725 H 345.398 0.70992 0.248026 0
M  V30 3726 H 347.369 2.98083 0.137558 0
M  V30 3727 C 346.118 2.90434 1.91163 0
M  V30 3728 H 345.441 3.68842 1.54258 0
M  V30 3729 H 346.881 3.39552 2.5393 0
M  V30 3730 C 345.34 1.92635 2.76394 0
M  V30 3731 O 345.87 1.44017 3.74996 0
M  V30 3732 N 344.076 1.60392 2.42328 0
M  V30 3733 H 343.623 2.00122 1.622 0
M  V30 3734 H 343.581 0.952159 2.99635 0
M  V30 3735 N 347.353 -0.0568162 1.57498 0
M  V30 3736 C 348.599 -0.748893 1.89111 0
M  V30 3737 C 348.954 -1.74422 0.81208 0
M  V30 3738 O 348.247 -1.90731 -0.182247 0
M  V30 3739 C 348.441 -1.48359 3.25153 0
M  V30 3740 C 348.27 -0.560924 4.46188 0
M  V30 3741 C 347.04 -0.192264 5.04934 0
M  V30 3742 C 349.238 0.148824 5.14085 0
M  V30 3743 N 347.22 0.734555 6.0949 0
M  V30 3744 C 348.591 0.932286 6.12951 0
M  V30 3745 C 350.646 0.218713 4.97419 0
M  V30 3746 C 349.349 1.77917 6.96949 0
M  V30 3747 C 351.375 1.05262 5.81957 0
M  V30 3748 C 350.737 1.82409 6.80372 0
M  V30 3749 H 346.836 -0.249002 0.741298 0
M  V30 3750 H 349.42 -0.00984926 1.94698 0
M  V30 3751 H 347.591 -2.19326 3.20547 0
M  V30 3752 H 349.323 -2.12586 3.44368 0
M  V30 3753 H 346.078 -0.548421 4.70414 0
M  V30 3754 H 346.502 1.19165 6.6643 0
M  V30 3755 H 351.144 -0.363407 4.21235 0
M  V30 3756 H 348.862 2.3722 7.72497 0
M  V30 3757 H 352.448 1.10987 5.71116 0
M  V30 3758 H 351.328 2.45895 7.44651 0
M  V30 3759 N 348.832 -1.54138 -0.328536 0
M  V30 3760 C 349.779 -1.83176 -1.40411 0
M  V30 3761 C 350.749 -0.678494 -1.5161 0
M  V30 3762 O 351.934 -0.92443 -1.6691 0
M  V30 3763 C 349.074 -2.06035 -2.76846 0
M  V30 3764 C 348.187 -3.33727 -2.74318 0
M  V30 3765 C 347.322 -3.46574 -4.02567 0
M  V30 3766 C 346.361 -4.68159 -3.94327 0
M  V30 3767 N 345.498 -4.77959 -5.14296 0
M  V30 3768 H 350.338 -2.74938 -1.14948 0
M  V30 3769 H 347.875 -1.36166 -0.556538 0
M  V30 3770 H 349.833 -2.1728 -3.56153 0
M  V30 3771 H 348.463 -1.1757 -3.00628 0
M  V30 3772 H 347.515 -3.31246 -1.8703 0
M  V30 3773 H 348.827 -4.23139 -2.64111 0
M  V30 3774 H 347.981 -3.57333 -4.90304 0
M  V30 3775 H 346.72 -2.55245 -4.15574 0
M  V30 3776 H 345.725 -4.57461 -3.04974 0
M  V30 3777 H 346.95 -5.60868 -3.82889 0
M  V30 3778 H 344.896 -3.89544 -5.27818 0
M  V30 3779 H 344.813 -5.6133 -5.06404 0
M  V30 3780 H 346.081 -4.93044 -6.03761 0
M  V30 3781 N 350.31 0.590341 -1.46126 0
M  V30 3782 C 351.535 1.37991 -1.54833 0
M  V30 3783 C 351.96 1.87163 -0.187506 0
M  V30 3784 O 351.318 1.61133 0.831008 0
M  V30 3785 C 351.366 2.54867 -2.55098 0
M  V30 3786 O 350.47 3.56061 -2.08073 0
M  V30 3787 H 349.811 0.411265 -0.521303 0
M  V30 3788 H 352.341 0.716819 -1.91632 0
M  V30 3789 H 352.351 3.01886 -2.74461 0
M  V30 3790 H 351.026 2.18429 -3.53923 0
M  V30 3791 H 349.603 3.15574 -1.98664 0
M  V30 3792 N 351.788 1.33704 0.83433 0
M  V30 3793 C 353.036 1.25169 1.58673 0
M  V30 3794 C 353.357 -0.18127 1.94156 0
M  V30 3795 O 352.627 -1.11113 1.6134 0
M  V30 3796 H 351.207 0.4603 0.58833 0
M  V30 3797 H 353.869 1.67478 0.996847 0
M  V30 3798 H 352.965 1.84856 2.51465 0
M  V30 3799 N 353.266 -1.05314 1.17247 0
M  V30 3800 C 354.213 -2.13031 0.888058 0
M  V30 3801 C 355.183 -1.65253 -0.167537 0
M  V30 3802 O 356.368 -1.90775 -0.0305974 0
M  V30 3803 C 353.508 -3.42702 0.406147 0
M  V30 3804 C 352.621 -4.04161 1.52572 0
M  V30 3805 C 351.756 -5.21744 0.997808 0
M  V30 3806 C 350.795 -5.75207 2.09291 0
M  V30 3807 N 349.932 -6.84094 1.57986 0
M  V30 3808 H 354.772 -2.36698 1.81048 0
M  V30 3809 H 352.309 -1.16121 0.903013 0
M  V30 3810 H 354.267 -4.17059 0.108305 0
M  V30 3811 H 352.897 -3.19222 -0.479313 0
M  V30 3812 H 351.949 -3.27253 1.93931 0
M  V30 3813 H 353.261 -4.39881 2.35172 0
M  V30 3814 H 352.415 -6.03168 0.653739 0
M  V30 3815 H 351.154 -4.87495 0.141232 0
M  V30 3816 H 350.159 -4.92414 2.44557 0
M  V30 3817 H 351.384 -6.11505 2.95362 0
M  V30 3818 H 349.33 -6.51745 0.74598 0
M  V30 3819 H 349.247 -7.18811 2.34195 0
M  V30 3820 H 350.515 -7.69172 1.26468 0
M  V30 3821 N 354.744 -0.972509 -1.24016 0
M  V30 3822 C 355.969 -0.654417 -1.96805 0
M  V30 3823 C 356.394 0.770398 -1.716 0
M  V30 3824 O 355.752 1.52361 -0.982647 0
M  V30 3825 C 355.8 -0.941031 -3.48105 0
M  V30 3826 O 354.904 -0.0289472 -4.1239 0
M  V30 3827 H 354.245 -0.24692 -0.616382 0
M  V30 3828 H 356.775 -1.30396 -1.57664 0
M  V30 3829 H 356.785 -0.87452 -3.98517 0
M  V30 3830 H 355.46 -1.97939 -3.65777 0
M  V30 3831 H 354.037 -0.149192 -3.72601 0
M  V30 3832 N 356.222 1.38976 -0.743202 0
M  V30 3833 C 357.132 2.3434 -0.110399 0
M  V30 3834 C 358.148 1.58741 0.712559 0
M  V30 3835 O 359.324 1.9099 0.639125 0
M  V30 3836 C 356.389 3.37812 0.780012 0
M  V30 3837 C 355.45 4.29263 -0.0561319 0
M  V30 3838 C 354.683 5.27793 0.791875 0
M  V30 3839 O 354.906 5.33043 2.03031 0
M  V30 3840 O 353.84 6.01512 0.216183 0
M  V30 3841 H 357.666 2.90129 -0.897714 0
M  V30 3842 H 355.251 1.40643 -0.503966 0
M  V30 3843 H 357.133 4.01194 1.28923 0
M  V30 3844 H 355.808 2.84395 1.546 0
M  V30 3845 H 354.715 3.69076 -0.611056 0
M  V30 3846 H 356.048 4.85907 -0.784531 0
M  V30 3847 N 357.7 0.491464 1.49741 0
M  V30 3848 C 358.647 -0.292027 2.28945 0
M  V30 3849 C 359.617 -0.968973 1.34908 0
M  V30 3850 O 360.802 -0.97748 1.6386 0
M  V30 3851 C 357.942 -1.35617 3.17336 0
M  V30 3852 C 357.055 -0.691957 4.26422 0
M  V30 3853 C 356.19 -1.73572 5.02042 0
M  V30 3854 C 355.229 -1.05286 6.02977 0
M  V30 3855 N 354.366 -2.0404 6.71798 0
M  V30 3856 H 359.206 0.389654 2.95442 0
M  V30 3857 H 356.743 0.204003 1.45679 0
M  V30 3858 H 358.701 -1.98502 3.66951 0
M  V30 3859 H 357.331 -2.00674 2.52844 0
M  V30 3860 H 356.383 0.0499523 3.80367 0
M  V30 3861 H 357.695 -0.153946 4.98562 0
M  V30 3862 H 356.849 -2.43987 5.55478 0
M  V30 3863 H 355.588 -2.30757 4.29654 0
M  V30 3864 H 354.593 -0.334446 5.48782 0
M  V30 3865 H 355.818 -0.487636 6.77347 0
M  V30 3866 H 353.764 -2.60205 6.02187 0
M  V30 3867 H 353.681 -1.55279 7.39881 0
M  V30 3868 H 354.949 -2.73772 7.29842 0
M  V30 3869 N 359.178 -1.55987 0.224894 0
M  V30 3870 C 360.418 -2.00293 -0.407706 0
M  V30 3871 C 360.782 -1.1093 -1.56711 0
M  V30 3872 O 361.983 -1.44597 -2.26595 0
M  V30 3873 C 360.254 -3.47675 -0.82805 0
M  V30 3874 S 361.813 -4.14 -1.45429 0
M  V30 3875 H 358.631 -0.699152 -0.129256 0
M  V30 3876 H 361.233 -1.92609 0.334967 0
M  V30 3877 H 359.937 -4.10392 0.0253964 0
M  V30 3878 H 359.468 -3.59239 -1.60345 0
M  V30 3879 H 361.483 -4.13465 -2.74337 0
M  V30 3880 N 360.656 0.0484629 -1.57525 0
M  V30 3881 C 361.905 0.742065 -1.87553 0
M  V30 3882 C 362.218 1.77545 -0.820802 0
M  V30 3883 O 363.424 2.52027 -1.00967 0
M  V30 3884 C 361.88 1.37081 -3.32771 0
M  V30 3885 C 361.488 0.374786 -4.4643 0
M  V30 3886 C 363.232 2.04542 -3.71972 0
M  V30 3887 C 361.139 1.01077 -5.82698 0
M  V30 3888 H 360.069 0.280903 -0.699721 0
M  V30 3889 H 362.72 -0.00411877 -1.835 0
M  V30 3890 H 361.102 2.16605 -3.31509 0
M  V30 3891 H 362.276 -0.392331 -4.59127 0
M  V30 3892 H 360.591 -0.196653 -4.15935 0
M  V30 3893 H 363.188 2.52943 -4.71088 0
M  V30 3894 H 363.531 2.85515 -3.02964 0
M  V30 3895 H 364.064 1.31819 -3.75325 0
M  V30 3896 H 360.803 0.240878 -6.55057 0
M  V30 3897 H 360.323 1.74819 -5.73758 0
M  V30 3898 H 362.002 1.52383 -6.28799 0
M  V30 3899 N 362.134 1.5431 0.320358 0
M  V30 3900 C 363.381 1.72668 1.05792 0
M  V30 3901 C 363.709 0.502084 1.87908 0
M  V30 3902 O 362.964 -0.516149 1.88771 0
M  V30 3903 C 363.263 2.95639 2.00828 0
M  V30 3904 C 362.929 4.30265 1.34843 0
M  V30 3905 C 361.591 4.66865 1.16578 0
M  V30 3906 C 363.943 5.13801 0.875095 0
M  V30 3907 C 361.271 5.84597 0.496336 0
M  V30 3908 C 363.623 6.32219 0.219463 0
M  V30 3909 C 362.287 6.67495 0.0246915 0
M  V30 3910 H 361.557 0.631837 0.387121 0
M  V30 3911 H 364.204 1.88552 0.334735 0
M  V30 3912 H 362.509 2.74456 2.79609 0
M  V30 3913 H 364.206 3.07038 2.57932 0
M  V30 3914 H 360.796 4.01472 1.50061 0
M  V30 3915 H 364.98 4.86039 1.00398 0
M  V30 3916 H 360.236 6.10486 0.334264 0
M  V30 3917 H 364.41 6.96227 -0.155291 0
M  V30 3918 H 362.037 7.5858 -0.496065 0
M  V30 3919 N 363.613 -0.582584 1.46437 0
M  V30 3920 C 364.853 -1.35184 1.53312 0
M  V30 3921 C 365.217 -1.9115 0.180508 0
M  V30 3922 O 366.418 -2.68514 0.124017 0
M  V30 3923 C 364.689 -2.45089 2.60127 0
M  V30 3924 S 366.248 -3.32439 2.86408 0
M  V30 3925 H 363.066 -0.460559 0.54167 0
M  V30 3926 H 365.668 -0.669709 1.83671 0
M  V30 3927 H 364.372 -2.02366 3.57038 0
M  V30 3928 H 363.903 -3.18074 2.315 0
M  V30 3929 H 365.918 -4.43924 2.21688 0
M  V30 3930 N 365.091 -1.34144 -0.827227 0
M  V30 3931 C 366.321 -1.29138 -1.61267 0
M  V30 3932 C 366.729 0.137597 -1.88699 0
M  V30 3933 O 366.072 1.09379 -1.47587 0
M  V30 3934 C 366.134 -2.0097 -2.9808 0
M  V30 3935 C 365.798 -3.50242 -2.93563 0
M  V30 3936 C 366.795 -4.4523 -2.68452 0
M  V30 3937 C 364.48 -3.92592 -3.13331 0
M  V30 3938 C 366.474 -5.80542 -2.63154 0
M  V30 3939 C 364.161 -5.28005 -3.07658 0
M  V30 3940 C 365.159 -6.21792 -2.82602 0
M  V30 3941 O 364.847 -7.54723 -2.76853 0
M  V30 3942 H 364.579 -0.445851 -0.508127 0
M  V30 3943 H 367.133 -1.77263 -1.03763 0
M  V30 3944 H 365.363 -1.47451 -3.57484 0
M  V30 3945 H 367.052 -1.89309 -3.5905 0
M  V30 3946 H 367.818 -4.13832 -2.52919 0
M  V30 3947 H 363.697 -3.19994 -3.31851 0
M  V30 3948 H 367.241 -6.53717 -2.43516 0
M  V30 3949 H 363.138 -5.59023 -3.22743 0
M  V30 3950 H 363.906 -7.64409 -2.92611 0
M  V30 3951 N 366.569 1.04691 -1.17803 0
M  V30 3952 C 367.98 1.59238 -0.974689 0
M  V30 3953 C 368.331 1.90306 0.477292 0
M  V30 3954 O 367.456 1.68846 1.35352 0
M  V30 3955 C 368.051 2.89318 -1.76296 0
M  V30 3956 C 366.61 3.40506 -1.60414 0
M  V30 3957 C 365.757 2.14172 -1.76141 0
M  V30 3958 H 368.708 0.874395 -1.32439 0
M  V30 3959 H 368.729 3.5944 -1.24833 0
M  V30 3960 H 368.241 2.66675 -2.81968 0
M  V30 3961 H 366.342 3.68175 -0.572519 0
M  V30 3962 H 366.455 4.14753 -2.39827 0
M  V30 3963 H 364.819 2.25176 -1.19028 0
M  V30 3964 H 365.602 1.93992 -2.83235 0
M  V30 3965 N 368.047 0.979072 1.23499 0
M  V30 3966 C 369.463 0.687475 1.44034 0
M  V30 3967 C 369.663 -0.746801 1.8715 0
M  V30 3968 O 368.719 -1.51939 2.0167 0
M  V30 3969 C 370.032 1.68127 2.49307 0
M  V30 3970 C 371.58 1.69516 2.63122 0
M  V30 3971 C 372.055 2.67723 3.71603 0
M  V30 3972 N 373.546 2.66233 3.79044 0
M  V30 3973 C 374.281 3.38891 4.62537 0
M  V30 3974 N 373.777 4.21103 5.50131 0
M  V30 3975 N 375.57 3.27661 4.56721 0
M  V30 3976 H 367.721 1.90559 0.938135 0
M  V30 3977 H 369.984 0.821051 0.473897 0
M  V30 3978 H 369.69 2.70693 2.2454 0
M  V30 3979 H 369.564 1.46306 3.4767 0
M  V30 3980 H 371.951 0.676561 2.8724 0
M  V30 3981 H 372.032 1.95404 1.65079 0
M  V30 3982 H 371.676 3.69724 3.48233 0
M  V30 3983 H 371.606 2.39111 4.69184 0
M  V30 3984 H 374.097 2.06568 3.16446 0
M  V30 3985 H 374.41 4.73403 6.10827 0
M  V30 3986 H 372.755 4.25195 5.49759 0
M  V30 3987 H 375.946 2.62887 3.87309 0
M  V30 3988 H 376.119 3.84547 5.21562 0
M  V30 3989 N 369.525 -1.3858 0.750561 0
M  V30 3990 C 370.774 -1.99424 0.302172 0
M  V30 3991 C 371.087 -1.60254 -1.12152 0
M  V30 3992 O 372.293 -2.14046 -1.67023 0
M  V30 3993 C 370.749 -3.56558 0.489307 0
M  V30 3994 C 370.357 -4.04682 1.92189 0
M  V30 3995 C 372.101 -4.24374 0.103478 0
M  V30 3996 C 370.008 -5.54446 2.05775 0
M  V30 3997 H 368.938 -0.746046 0.10923 0
M  V30 3998 H 371.589 -1.58383 0.92667 0
M  V30 3999 H 369.971 -3.95472 -0.204329 0
M  V30 4000 H 371.145 -3.77065 2.64875 0
M  V30 4001 H 369.46 -3.4958 2.26236 0
M  V30 4002 H 372.057 -5.34384 0.183787 0
M  V30 4003 H 372.4 -4.05468 -0.943481 0
M  V30 4004 H 372.933 -3.90688 0.748854 0
M  V30 4005 H 369.672 -5.78252 3.08714 0
M  V30 4006 H 369.192 -5.83816 1.37546 0
M  V30 4007 H 370.871 -6.20099 1.84626 0
M  V30 4008 N 371.003 -0.499398 -1.49478 0
M  V30 4009 C 371.913 0.284489 -2.32869 0
M  V30 4010 C 372.929 0.968885 -1.44529 0
M  V30 4011 O 374.105 0.95062 -1.77553 0
M  V30 4012 C 371.17 1.33594 -3.19928 0
M  V30 4013 C 370.231 0.665149 -4.24116 0
M  V30 4014 C 369.464 1.6665 -5.07014 0
M  V30 4015 O 369.687 2.89618 -4.91404 0
M  V30 4016 O 368.621 1.22271 -5.8935 0
M  V30 4017 H 372.447 -0.39802 -3.01081 0
M  V30 4018 H 370.032 -0.260758 -1.47107 0
M  V30 4019 H 371.914 1.94431 -3.73864 0
M  V30 4020 H 370.589 2.0014 -2.54412 0
M  V30 4021 H 369.496 0.0170769 -3.74096 0
M  V30 4022 H 370.829 0.0421555 -4.92182 0
M  V30 4023 N 372.481 1.55866 -0.233164 0
M  V30 4024 C 373.444 2.1953 0.658715 0
M  V30 4025 C 374.444 1.16053 1.11303 0
M  V30 4026 O 375.634 1.41218 1.01996 0
M  V30 4027 C 372.766 2.82791 1.90373 0
M  V30 4028 H 373.959 2.99721 0.10347 0
M  V30 4029 H 371.512 1.56291 0.0164245 0
M  V30 4030 H 372.247 2.06501 2.50056 0
M  V30 4031 H 372.032 3.58578 1.58632 0
M  V30 4032 H 373.522 3.31556 2.53891 0
M  V30 4033 N 373.959 -0.0401083 1.57549 0
M  V30 4034 C 375.207 -0.731677 1.8839 0
M  V30 4035 C 375.528 -1.76481 0.829425 0
M  V30 4036 O 374.798 -1.95411 -0.1383 0
M  V30 4037 H 373.378 -0.273225 0.695239 0
M  V30 4038 H 376.04 -0.00867725 1.94898 0
M  V30 4039 H 375.136 -1.22816 2.86919 0
M  V30 4040 N 375.437 -1.54477 -0.31217 0
M  V30 4041 C 376.369 -1.81011 -1.40598 0
M  V30 4042 C 377.382 -0.692546 -1.47335 0
M  V30 4043 O 378.571 -0.969847 -1.49854 0
M  V30 4044 C 375.671 -1.92307 -2.79054 0
M  V30 4045 C 374.844 -3.22594 -2.95384 0
M  V30 4046 C 373.903 -3.24448 -4.1427 0
M  V30 4047 O 372.929 -3.98035 -4.06887 0
M  V30 4048 N 374.131 -2.49042 -5.24365 0
M  V30 4049 H 376.896 -2.75408 -1.18196 0
M  V30 4050 H 374.457 -1.53914 -0.502202 0
M  V30 4051 H 376.449 -1.90962 -3.56813 0
M  V30 4052 H 375.019 -1.04955 -2.94454 0
M  V30 4053 H 374.239 -3.36806 -2.04831 0
M  V30 4054 H 375.527 -4.08593 -3.03198 0
M  V30 4055 H 374.925 -1.88867 -5.33241 0
M  V30 4056 H 373.482 -2.53463 -6.005 0
M  V30 4057 N 376.915 0.57481 -1.46744 0
M  V30 4058 C 378.326 1.15695 -1.46532 0
M  V30 4059 C 378.677 1.95068 -0.210425 0
M  V30 4060 O 377.802 2.05241 0.685944 0
M  V30 4061 C 378.397 2.1048 -2.65487 0
M  V30 4062 C 376.956 2.64002 -2.68291 0
M  V30 4063 C 376.103 1.40026 -2.39349 0
M  V30 4064 H 379.054 0.362325 -1.54509 0
M  V30 4065 H 379.075 2.94074 -2.41455 0
M  V30 4066 H 378.587 1.52683 -3.56805 0
M  V30 4067 H 376.688 3.25646 -1.81067 0
M  V30 4068 H 376.801 3.06197 -3.68483 0
M  V30 4069 H 375.165 1.70106 -1.89568 0
M  V30 4070 H 375.948 0.840485 -3.32852 0
M  V30 4071 N 378.394 1.34581 0.820102 0
M  V30 4072 C 379.622 1.3018 1.60813 0
M  V30 4073 C 380.037 -0.123551 1.88395 0
M  V30 4074 O 379.394 -1.07148 1.47735 0
M  V30 4075 C 379.445 2.09312 2.94739 0
M  V30 4076 O 379.166 3.46288 2.68358 0
M  V30 4077 C 380.667 2.1234 3.89136 0
M  V30 4078 H 377.887 0.447726 0.499782 0
M  V30 4079 H 380.431 1.77237 1.02017 0
M  V30 4080 H 378.586 1.65889 3.50085 0
M  V30 4081 H 379 3.87227 3.53774 0
M  V30 4082 H 380.474 2.72126 4.80262 0
M  V30 4083 H 380.951 1.11854 4.24718 0
M  V30 4084 H 381.557 2.55864 3.39726 0
M  V30 4085 N 379.872 -1.04064 1.18357 0
M  V30 4086 C 381.118 -1.77528 0.980397 0
M  V30 4087 C 381.451 -1.87948 -0.48879 0
M  V30 4088 O 380.726 -1.3876 -1.36293 0
M  V30 4089 C 381.009 -3.20797 1.63588 0
M  V30 4090 C 380.862 -3.1832 3.17793 0
M  V30 4091 C 382.181 -4.18911 1.34914 0
M  V30 4092 H 379.3 -0.644443 0.357578 0
M  V30 4093 H 381.942 -1.2156 1.46024 0
M  V30 4094 H 380.092 -3.68586 1.22788 0
M  V30 4095 H 381.764 -2.78521 3.67728 0
M  V30 4096 H 380.007 -2.56351 3.49952 0
M  V30 4097 H 380.678 -4.19489 3.58794 0
M  V30 4098 H 383.154 -3.7967 1.70265 0
M  V30 4099 H 382.03 -5.17374 1.83346 0
M  V30 4100 H 382.291 -4.41262 0.272027 0
M  V30 4101 N 381.35 -0.985608 -1.22978 0
M  V30 4102 C 382.59 -0.665487 -1.93263 0
M  V30 4103 C 382.954 0.78706 -1.75127 0
M  V30 4104 O 384.155 1.21826 -2.39608 0
M  V30 4105 C 382.426 -1.0515 -3.41582 0
M  V30 4106 S 383.985 -0.848637 -4.30516 0
M  V30 4107 H 380.803 -0.24355 -0.667985 0
M  V30 4108 H 383.405 -1.26635 -1.48942 0
M  V30 4109 H 382.109 -2.10517 -3.52293 0
M  V30 4110 H 381.64 -0.442134 -3.90908 0
M  V30 4111 H 383.655 0.264717 -4.95493 0
M  V30 4112 N 382.828 1.3818 -0.7579 0
M  V30 4113 C 384.053 2.04827 -0.325679 0
M  V30 4114 C 384.478 1.56788 1.03919 0
M  V30 4115 O 383.836 0.721811 1.66312 0
M  V30 4116 C 383.884 3.58774 -0.362447 0
M  V30 4117 O 382.988 4.07372 0.642033 0
M  V30 4118 H 382.329 0.64833 -0.143402 0
M  V30 4119 H 384.859 1.7677 -1.03023 0
M  V30 4120 H 384.869 4.07434 -0.214844 0
M  V30 4121 H 383.544 3.93096 -1.35824 0
M  V30 4122 H 382.121 3.70068 0.458688 0
M  V30 4123 N 384.306 0.507319 1.49211 0
M  V30 4124 C 385.216 -0.272136 2.33016 0
M  V30 4125 C 386.232 -0.961206 1.45041 0
M  V30 4126 O 387.408 -0.941191 1.78055 0
M  V30 4127 C 384.473 -1.31895 3.20631 0
M  V30 4128 C 383.534 -0.642648 4.24463 0
M  V30 4129 C 382.767 -1.63959 5.07891 0
M  V30 4130 O 382.99 -2.87007 4.92933 0
M  V30 4131 O 381.924 -1.19143 5.8999 0
M  V30 4132 H 385.75 0.413982 3.00865 0
M  V30 4133 H 383.335 0.268556 1.46966 0
M  V30 4134 H 385.217 -1.92446 3.7489 0
M  V30 4135 H 383.892 -1.98788 2.5547 0
M  V30 4136 H 382.799 0.00276252 3.741 0
M  V30 4137 H 384.132 -0.0160534 4.92197 0
M  V30 4138 N 385.784 -1.5574 0.241426 0
M  V30 4139 C 387.012 -2.03208 -0.389134 0
M  V30 4140 C 387.427 -1.12082 -1.51931 0
M  V30 4141 O 386.784 -0.134183 -1.82006 0
M  V30 4142 C 386.835 -3.50064 -0.902087 0
M  V30 4143 O 386.556 -4.37717 0.18305 0
M  V30 4144 C 388.057 -4.13268 -1.60389 0
M  V30 4145 H 385.277 -0.664509 -0.0931053 0
M  V30 4146 H 387.821 -2.0124 0.36369 0
M  V30 4147 H 385.976 -3.52583 -1.60511 0
M  V30 4148 H 386.39 -5.24097 -0.205579 0
M  V30 4149 H 387.864 -5.17733 -1.91458 0
M  V30 4150 H 388.341 -3.59434 -2.52397 0
M  V30 4151 H 388.947 -4.14655 -0.945576 0
M  V30 4152 N 387.262 0.0317525 -1.57568 0
M  V30 4153 C 388.502 0.727979 -1.90997 0
M  V30 4154 C 388.866 1.72664 -0.839708 0
M  V30 4155 O 390.067 2.47092 -1.05825 0
M  V30 4156 C 388.338 1.38239 -3.29583 0
M  V30 4157 S 389.897 2.10814 -3.84841 0
M  V30 4158 H 386.715 0.241226 -0.668828 0
M  V30 4159 H 389.317 -0.0173037 -1.95492 0
M  V30 4160 H 388.021 0.642288 -4.05343 0
M  V30 4161 H 387.552 2.16628 -3.28384 0
M  V30 4162 H 389.567 3.3792 -3.63352 0
M  V30 4163 N 388.74 1.54641 0.303973 0
M  V30 4164 C 389.986 1.74038 1.04109 0
M  V30 4165 C 390.319 0.523051 1.87024 0
M  V30 4166 O 389.594 -0.479874 1.88487 0
M  V30 4167 C 389.877 3.02761 1.94955 0
M  V30 4168 C 389.73 4.34787 1.1524 0
M  V30 4169 C 391.049 3.27336 2.94175 0
M  V30 4170 H 388.168 0.63323 0.377079 0
M  V30 4171 H 390.81 1.87354 0.316001 0
M  V30 4172 H 388.96 2.9154 2.56782 0
M  V30 4173 H 390.632 4.57922 0.557236 0
M  V30 4174 H 388.875 4.31407 0.455053 0
M  V30 4175 H 389.546 5.21116 1.8205 0
M  V30 4176 H 392.022 3.38148 2.42477 0
M  V30 4177 H 390.898 4.18726 3.54908 0
M  V30 4178 H 391.159 2.45491 3.67677 0
M  V30 4179 N 390.218 -0.567019 1.47046 0
M  V30 4180 C 391.466 -1.322 1.52864 0
M  V30 4181 C 391.787 -1.94088 0.188388 0
M  V30 4182 O 391.057 -1.7941 -0.786693 0
M  V30 4183 H 389.637 -0.490894 0.563056 0
M  V30 4184 H 392.299 -0.662879 1.83281 0
M  V30 4185 H 391.395 -2.12062 2.2899 0
M  V30 4186 N 391.696 -1.35014 -0.812953 0
M  V30 4187 C 393.112 -1.14914 -1.10757 0
M  V30 4188 C 393.312 0.0426818 -2.01455 0
M  V30 4189 O 392.368 0.715212 -2.42159 0
M  V30 4190 C 393.681 -2.44911 -1.74468 0
M  V30 4191 C 395.229 -2.5106 -1.86917 0
M  V30 4192 C 395.704 -3.81085 -2.54044 0
M  V30 4193 N 397.195 -3.82301 -2.61535 0
M  V30 4194 C 397.93 -4.79634 -3.14227 0
M  V30 4195 N 397.426 -5.87353 -3.67407 0
M  V30 4196 N 399.219 -4.67078 -3.12721 0
M  V30 4197 H 391.37 -2.1136 -0.20989 0
M  V30 4198 H 393.633 -0.935128 -0.155692 0
M  V30 4199 H 393.339 -3.32267 -1.15289 0
M  V30 4200 H 393.213 -2.58989 -2.74234 0
M  V30 4201 H 395.6 -1.64137 -2.45241 0
M  V30 4202 H 395.681 -2.40901 -0.860242 0
M  V30 4203 H 395.325 -4.68402 -1.96372 0
M  V30 4204 H 395.255 -3.88529 -3.55461 0
M  V30 4205 H 397.746 -3.04465 -2.23851 0
M  V30 4206 H 398.059 -6.57624 -4.05894 0
M  V30 4207 H 396.404 -5.91054 -3.65623 0
M  V30 4208 H 399.595 -3.82067 -2.70449 0
M  V30 4209 H 399.768 -5.43098 -3.53481 0
M  V30 4210 N 393.175 1.03435 -1.18907 0
M  V30 4211 C 394.424 1.76143 -0.982669 0
M  V30 4212 C 394.737 1.89416 0.487953 0
M  V30 4213 O 395.943 2.59041 0.813036 0
M  V30 4214 C 394.399 3.16722 -1.70924 0
M  V30 4215 C 394.007 3.11522 -3.21959 0
M  V30 4216 C 395.751 3.93764 -1.58588 0
M  V30 4217 C 393.658 4.46999 -3.87228 0
M  V30 4218 H 392.588 0.660292 -0.364047 0
M  V30 4219 H 395.239 1.158 -1.42347 0
M  V30 4220 H 393.621 3.775 -1.19623 0
M  V30 4221 H 394.795 2.60158 -3.80335 0
M  V30 4222 H 393.11 2.47978 -3.34508 0
M  V30 4223 H 395.707 4.93963 -2.04707 0
M  V30 4224 H 396.05 4.12794 -0.539142 0
M  V30 4225 H 396.583 3.39576 -2.07203 0
M  V30 4226 H 393.322 4.33174 -4.91976 0
M  V30 4227 H 392.842 4.98441 -3.33642 0
M  V30 4228 H 394.521 5.15898 -3.90459 0
M  V30 4229 N 394.653 0.992116 1.22453 0
M  V30 4230 C 396.069 0.702713 1.43297 0
M  V30 4231 C 396.269 -0.726909 1.87932 0
M  V30 4232 O 395.325 -1.49792 2.0327 0
M  V30 4233 C 396.638 1.70762 2.47509 0
M  V30 4234 C 398.186 1.72298 2.61309 0
M  V30 4235 C 398.661 2.71649 3.68742 0
M  V30 4236 N 400.152 2.70239 3.76199 0
M  V30 4237 C 400.887 3.43778 4.58917 0
M  V30 4238 N 400.383 4.26914 5.45633 0
M  V30 4239 N 402.176 3.32487 4.5322 0
M  V30 4240 H 394.327 1.91543 0.917871 0
M  V30 4241 H 396.59 0.826031 0.465162 0
M  V30 4242 H 396.296 2.73059 2.21657 0
M  V30 4243 H 396.17 1.49985 3.46099 0
M  V30 4244 H 398.557 0.706989 2.86506 0
M  V30 4245 H 398.638 1.97143 1.62997 0
M  V30 4246 H 398.282 3.73397 3.44292 0
M  V30 4247 H 398.212 2.44074 4.66622 0
M  V30 4248 H 400.703 2.09912 3.14237 0
M  V30 4249 H 401.016 4.79855 6.05771 0
M  V30 4250 H 399.361 4.31002 5.45218 0
M  V30 4251 H 402.552 2.6698 3.84499 0
M  V30 4252 H 402.725 3.90058 5.17454 0
M  V30 4253 N 396.131 -1.37776 0.765217 0
M  V30 4254 C 397.361 -2.03828 0.337277 0
M  V30 4255 C 397.769 -1.57841 -1.04321 0
M  V30 4256 O 397.112 -0.752043 -1.67601 0
M  V30 4257 C 397.174 -3.58292 0.294407 0
M  V30 4258 C 396.838 -4.27384 1.61838 0
M  V30 4259 C 397.835 -4.51956 2.56967 0
M  V30 4260 C 395.52 -4.65345 1.89102 0
M  V30 4261 C 397.514 -5.13536 3.77571 0
M  V30 4262 C 395.201 -5.26647 3.09978 0
M  V30 4263 C 396.199 -5.50679 4.04032 0
M  V30 4264 O 395.887 -6.10702 5.2278 0
M  V30 4265 H 395.619 -0.661292 0.140248 0
M  V30 4266 H 398.173 -1.77222 1.03834 0
M  V30 4267 H 396.403 -3.83918 -0.462983 0
M  V30 4268 H 398.092 -4.05763 -0.105581 0
M  V30 4269 H 398.858 -4.23048 2.37183 0
M  V30 4270 H 394.737 -4.45978 1.16725 0
M  V30 4271 H 398.281 -5.3221 4.50997 0
M  V30 4272 H 394.178 -5.54979 3.29649 0
M  V30 4273 H 394.946 -6.29183 5.23517 0
M  V30 4274 N 397.609 -0.515225 -1.4894 0
M  V30 4275 C 398.539 0.244628 -2.32215 0
M  V30 4276 C 399.52 0.949136 -1.41157 0
M  V30 4277 O 400.705 0.937783 -1.70057 0
M  V30 4278 C 397.835 1.30096 -3.22013 0
M  V30 4279 C 396.789 0.715486 -4.21977 0
M  V30 4280 C 396.115 1.87339 -5.00808 0
M  V30 4281 C 397.415 -0.302982 -5.2142 0
M  V30 4282 H 399.109 -0.450501 -2.95991 0
M  V30 4283 H 396.655 -0.218098 -1.42339 0
M  V30 4284 H 398.608 1.84037 -3.79089 0
M  V30 4285 H 397.332 2.02547 -2.56207 0
M  V30 4286 H 395.991 0.197715 -3.66066 0
M  V30 4287 H 395.639 2.58592 -4.31438 0
M  V30 4288 H 395.339 1.48764 -5.68457 0
M  V30 4289 H 396.863 2.41686 -5.60732 0
M  V30 4290 H 398.277 0.148802 -5.73107 0
M  V30 4291 H 396.674 -0.60532 -5.97039 0
M  V30 4292 H 397.744 -1.21395 -4.69459 0
M  V30 4293 N 399.087 1.5561 -0.249682 0
M  V30 4294 C 400.335 1.98618 0.373548 0
M  V30 4295 C 400.656 1.13919 1.58264 0
M  V30 4296 O 399.926 0.222637 1.94631 0
M  V30 4297 H 398.506 0.733571 0.141006 0
M  V30 4298 H 401.168 1.91748 -0.349117 0
M  V30 4299 H 400.264 3.04584 0.680796 0
M  V30 4300 N 400.565 -0.0233959 1.57583 0
M  V30 4301 C 401.811 -0.714119 1.89811 0
M  V30 4302 C 402.144 -1.74702 0.848113 0
M  V30 4303 O 401.419 -1.94023 -0.136135 0
M  V30 4304 C 401.702 -1.37853 3.32669 0
M  V30 4305 C 401.555 -0.358764 4.48367 0
M  V30 4306 C 402.874 -2.31101 3.7454 0
M  V30 4307 H 399.993 -0.25814 0.690314 0
M  V30 4308 H 402.635 0.0230927 1.89986 0
M  V30 4309 H 400.785 -2.00689 3.3265 0
M  V30 4310 H 402.457 0.268115 4.6052 0
M  V30 4311 H 400.7 0.321387 4.32608 0
M  V30 4312 H 401.371 -0.862242 5.45224 0
M  V30 4313 H 403.847 -1.78304 3.75961 0
M  V30 4314 H 402.723 -2.74567 4.75294 0
M  V30 4315 H 402.984 -3.18018 3.0711 0
M  V30 4316 N 402.043 -1.548 -0.295768 0
M  V30 4317 C 402.973 -1.89115 -1.36959 0
M  V30 4318 C 403.954 -0.75059 -1.52644 0
M  V30 4319 O 405.139 -1.00678 -1.66065 0
M  V30 4320 C 402.269 -2.14307 -2.73295 0
M  V30 4321 C 401.223 -3.30151 -2.72368 0
M  V30 4322 C 400.549 -3.40772 -4.12042 0
M  V30 4323 C 401.849 -4.67126 -2.33646 0
M  V30 4324 H 403.543 -2.79053 -1.08488 0
M  V30 4325 H 401.089 -1.34266 -0.520443 0
M  V30 4326 H 403.042 -2.36898 -3.48507 0
M  V30 4327 H 401.766 -1.21145 -3.03301 0
M  V30 4328 H 400.425 -3.0749 -1.99613 0
M  V30 4329 H 400.073 -2.45117 -4.39234 0
M  V30 4330 H 399.773 -4.18645 -4.12322 0
M  V30 4331 H 401.297 -3.6563 -4.89027 0
M  V30 4332 H 402.711 -4.89414 -2.98575 0
M  V30 4333 H 401.108 -5.47751 -2.45129 0
M  V30 4334 H 402.178 -4.67489 -1.28772 0
M  V30 4335 N 403.521 0.559213 -1.47345 0
M  V30 4336 C 404.451 1.67622 -1.62558 0
M  V30 4337 C 405.432 1.63331 -0.475087 0
M  V30 4338 O 406.617 1.80983 -0.704182 0
M  V30 4339 C 403.747 3.0626 -1.63774 0
M  V30 4340 C 402.701 3.25397 -2.7803 0
M  V30 4341 C 402.027 4.64801 -2.64318 0
M  V30 4342 C 403.327 3.10965 -4.19641 0
M  V30 4343 H 405.021 1.55146 -2.56067 0
M  V30 4344 H 402.567 0.744961 -1.23233 0
M  V30 4345 H 404.52 3.84247 -1.73008 0
M  V30 4346 H 403.244 3.1969 -0.66825 0
M  V30 4347 H 401.903 2.49817 -2.68304 0
M  V30 4348 H 401.551 4.75028 -1.65401 0
M  V30 4349 H 401.251 4.78555 -3.40968 0
M  V30 4350 H 402.775 5.44926 -2.75478 0
M  V30 4351 H 404.189 3.78772 -4.30354 0
M  V30 4352 H 402.586 3.36229 -4.97062 0
M  V30 4353 H 403.656 2.07736 -4.38148 0
M  V30 4354 N 404.999 1.35443 0.805782 0
M  V30 4355 C 406.229 1.31687 1.59192 0
M  V30 4356 C 406.637 -0.10756 1.88894 0
M  V30 4357 O 405.98 -1.07017 1.49309 0
M  V30 4358 C 406.042 2.05686 2.94845 0
M  V30 4359 C 405.706 3.54868 2.87954 0
M  V30 4360 C 406.703 4.49444 2.61335 0
M  V30 4361 C 404.388 3.97528 3.07046 0
M  V30 4362 C 406.382 5.84655 2.53885 0
M  V30 4363 C 404.069 5.32833 2.99219 0
M  V30 4364 C 405.067 6.26209 2.72674 0
M  V30 4365 O 404.755 7.59032 2.64811 0
M  V30 4366 H 404.487 0.453878 0.50097 0
M  V30 4367 H 407.041 1.78892 1.0093 0
M  V30 4368 H 405.271 1.5312 3.55093 0
M  V30 4369 H 406.96 1.94998 3.55993 0
M  V30 4370 H 407.726 4.17804 2.46303 0
M  V30 4371 H 403.605 3.25233 3.26718 0
M  V30 4372 H 407.149 6.57508 2.33086 0
M  V30 4373 H 403.046 5.64087 3.13809 0
M  V30 4374 H 403.814 7.68967 2.80413 0
M  V30 4375 N 406.477 -1.02803 1.19454 0
M  V30 4376 C 407.754 -1.73299 0.907013 0
M  V30 4377 C 408.134 -2.02772 -0.587086 0
M  V30 4378 O 407.482 -1.68304 -1.54551 0
M  V30 4379 C 407.692 -3.00912 1.76785 0
M  V30 4380 C 409.04 -3.74403 2.00268 0
M  V30 4381 O 410.064 -3.10841 1.73943 0
M  V30 4382 O 408.923 -4.88675 2.4466 0
M  V30 4383 H 406.017 -0.754727 0.338106 0
M  V30 4384 H 408.563 -1.08754 1.30271 0
M  V30 4385 H 407.335 -2.75366 2.7801 0
M  V30 4386 H 406.958 -3.73197 1.37149 0
M  V30 4387 N 407.956 -0.998596 -1.21925 0
M  V30 4388 C 408.919 -0.558679 -2.22287 0
M  V30 4389 C 409.919 0.361525 -1.56683 0
M  V30 4390 O 411.109 0.152695 -1.73529 0
M  V30 4391 C 408.241 0.18661 -3.40389 0
M  V30 4392 H 409.434 -1.4463 -2.62721 0
M  V30 4393 H 406.987 -0.786413 -1.35075 0
M  V30 4394 H 407.722 1.08996 -3.05435 0
M  V30 4395 H 407.507 -0.474188 -3.89222 0
M  V30 4396 H 408.997 0.482367 -4.14805 0
M  V30 4397 N 409.434 1.37368 -0.772513 0
M  V30 4398 C 410.711 1.93839 -0.26188 0
M  V30 4399 C 411.091 1.7061 1.24319 0
M  V30 4400 O 410.439 1.05534 2.02669 0
M  V30 4401 C 410.649 3.43154 -0.636102 0
M  V30 4402 C 411.997 4.20249 -0.606324 0
M  V30 4403 O 413.021 3.5152 -0.575538 0
M  V30 4404 O 411.88 5.42809 -0.634086 0
M  V30 4405 H 408.974 0.82478 -0.0605555 0
M  V30 4406 H 411.52 1.4665 -0.853917 0
M  V30 4407 H 410.292 3.53647 -1.6748 0
M  V30 4408 H 409.915 3.97596 -0.0170516 0
M  V30 4409 N 410.912 0.523116 1.48665 0
M  V30 4410 C 411.875 -0.232592 2.28017 0
M  V30 4411 C 412.875 -0.874021 1.34972 0
M  V30 4412 O 414.065 -0.735132 1.57929 0
M  V30 4413 C 411.197 -1.33586 3.13636 0
M  V30 4414 H 412.39 0.464008 2.96289 0
M  V30 4415 H 409.943 0.278816 1.53793 0
M  V30 4416 H 410.678 -2.06593 2.4998 0
M  V30 4417 H 410.463 -0.881125 3.82071 0
M  V30 4418 H 411.953 -1.86759 3.73511 0
M  V30 4419 N 412.39 -1.55475 0.257931 0
M  V30 4420 C 413.639 -1.98383 -0.364275 0
M  V30 4421 C 413.952 -1.14952 -1.58258 0
M  V30 4422 O 415.158 -1.47924 -2.27664 0
M  V30 4423 C 413.614 -3.53037 -0.699479 0
M  V30 4424 C 413.222 -4.45223 0.498046 0
M  V30 4425 C 414.966 -4.04575 -1.28526 0
M  V30 4426 C 412.873 -5.91238 0.138383 0
M  V30 4427 H 411.803 -0.740911 -0.13988 0
M  V30 4428 H 414.454 -1.79936 0.359883 0
M  V30 4429 H 412.836 -3.6722 -1.48207 0
M  V30 4430 H 414.01 -4.42803 1.27522 0
M  V30 4431 H 412.325 -4.04226 0.999503 0
M  V30 4432 H 414.922 -5.11196 -1.56788 0
M  V30 4433 H 415.265 -3.5258 -2.21344 0
M  V30 4434 H 415.798 -3.93762 -0.565337 0
M  V30 4435 H 412.537 -6.47294 1.03398 0
M  V30 4436 H 412.057 -5.96768 -0.602374 0
M  V30 4437 H 413.736 -6.46413 -0.27553 0
M  V30 4438 N 413.868 0.0150385 -1.57593 0
M  V30 4439 C 414.778 1.02791 -2.10882 0
M  V30 4440 C 415.794 1.38702 -1.0506 0
M  V30 4441 O 416.97 1.47739 -1.36877 0
M  V30 4442 C 414.035 2.30568 -2.58919 0
M  V30 4443 C 413.096 2.01108 -3.79281 0
M  V30 4444 C 412.329 3.22794 -4.25018 0
M  V30 4445 O 412.552 4.33959 -3.70183 0
M  V30 4446 O 411.486 3.07672 -5.17322 0
M  V30 4447 H 415.312 0.604973 -2.97613 0
M  V30 4448 H 412.897 0.23292 -1.47573 0
M  V30 4449 H 414.779 3.05662 -2.90084 0
M  V30 4450 H 413.454 2.72129 -1.75293 0
M  V30 4451 H 412.361 1.23537 -3.53114 0
M  V30 4452 H 413.694 1.64394 -4.63935 0
M  V30 4453 N 415.346 1.54954 0.287554 0
M  V30 4454 C 416.762 1.46469 0.633964 0
M  V30 4455 C 416.962 0.666865 1.90145 0
M  V30 4456 O 416.018 0.179906 2.51858 0
M  V30 4457 C 417.331 2.90556 0.774454 0
M  V30 4458 C 418.879 3.00681 0.869462 0
M  V30 4459 C 419.354 4.45993 1.04184 0
M  V30 4460 N 420.845 4.4976 1.10772 0
M  V30 4461 C 421.58 5.59393 1.25964 0
M  V30 4462 N 421.076 6.78923 1.37968 0
M  V30 4463 N 422.869 5.47107 1.28959 0
M  V30 4464 H 415.02 2.05288 -0.545041 0
M  V30 4465 H 417.283 0.930305 -0.182308 0
M  V30 4466 H 416.989 3.51594 -0.086207 0
M  V30 4467 H 416.863 3.38743 1.6593 0
M  V30 4468 H 419.25 2.39749 1.7206 0
M  V30 4469 H 419.331 2.55769 -0.0396831 0
M  V30 4470 H 418.975 5.07524 0.195422 0
M  V30 4471 H 418.905 4.88548 1.96542 0
M  V30 4472 H 421.396 3.63651 1.02794 0
M  V30 4473 H 421.709 7.58231 1.49353 0
M  V30 4474 H 420.054 6.81763 1.34999 0
M  V30 4475 H 423.245 4.52668 1.19202 0
M  V30 4476 H 423.418 6.32595 1.40455 0
M  V30 4477 N 416.824 -0.551391 1.4764 0
M  V30 4478 C 417.787 -1.64007 1.60107 0
M  V30 4479 C 418.787 -1.53601 0.47576 0
M  V30 4480 O 419.977 -1.57655 0.740988 0
M  V30 4481 C 417.109 -3.03569 1.55108 0
M  V30 4482 H 418.302 -1.543 2.57161 0
M  V30 4483 H 415.855 -0.771776 1.35917 0
M  V30 4484 H 416.59 -3.18804 0.594519 0
M  V30 4485 H 416.375 -3.12532 2.36783 0
M  V30 4486 H 417.865 -3.82762 1.66982 0
M  V30 4487 N 418.302 -1.35869 -0.798587 0
M  V30 4488 C 419.265 -1.29307 -1.89242 0
M  V30 4489 C 420.265 -0.202747 -1.59517 0
M  V30 4490 O 421.455 -0.456957 -1.681 0
M  V30 4491 C 418.587 -1.00229 -3.25833 0
M  V30 4492 H 419.78 -2.26576 -1.96478 0
M  V30 4493 H 417.333 -1.20509 -0.995358 0
M  V30 4494 H 418.068 -0.033801 -3.24282 0
M  V30 4495 H 417.853 -1.79121 -3.48795 0
M  V30 4496 H 419.343 -0.98219 -4.05885 0
M  V30 4497 N 419.78 1.02168 -1.19998 0
M  V30 4498 C 421.005 1.79833 -1.03319 0
M  V30 4499 C 421.43 1.83504 0.413281 0
M  V30 4500 O 420.788 1.26635 1.29743 0
M  V30 4501 C 420.836 3.22396 -1.61533 0
M  V30 4502 O 419.94 4.03555 -0.849519 0
M  V30 4503 H 419.281 0.554872 -0.364709 0
M  V30 4504 H 421.811 1.28542 -1.59179 0
M  V30 4505 H 421.821 3.73124 -1.65054 0
M  V30 4506 H 420.496 3.19039 -2.66809 0
M  V30 4507 H 419.073 3.62169 -0.888129 0
M  V30 4508 N 421.258 1.00505 1.21394 0
M  V30 4509 C 422.486 0.706609 1.9446 0
M  V30 4510 C 422.901 -0.73081 1.74082 0
M  V30 4511 O 422.258 -1.49446 1.04747 0
M  V30 4512 C 422.309 1.01824 3.46863 0
M  V30 4513 O 422.03 2.39919 3.66566 0
M  V30 4514 C 423.531 0.739216 4.37093 0
M  V30 4515 H 420.751 0.260394 0.618414 0
M  V30 4516 H 423.295 1.34311 1.54211 0
M  V30 4517 H 421.45 0.427343 3.85036 0
M  V30 4518 H 421.864 2.50784 4.6066 0
M  V30 4519 H 423.338 1.00744 5.42729 0
M  V30 4520 H 423.815 -0.326746 4.37983 0
M  V30 4521 H 424.421 1.31173 4.04566 0
M  V30 4522 N 422.737 -1.36956 0.779787 0
M  V30 4523 C 423.647 -2.33965 0.172491 0
M  V30 4524 C 424.663 -1.60574 -0.670222 0
M  V30 4525 O 425.839 -1.92617 -0.588263 0
M  V30 4526 C 422.904 -3.39761 -0.690173 0
M  V30 4527 C 421.965 -4.28964 0.169924 0
M  V30 4528 C 421.198 -5.29707 -0.651662 0
M  V30 4529 O 421.421 -5.38238 -1.88827 0
M  V30 4530 O 420.355 -6.01873 -0.0566264 0
M  V30 4531 H 424.181 -2.87647 0.974321 0
M  V30 4532 H 421.766 -1.39258 0.541078 0
M  V30 4533 H 423.648 -4.04471 -1.1824 0
M  V30 4534 H 422.323 -2.88394 -1.47006 0
M  V30 4535 H 421.23 -3.67326 0.708696 0
M  V30 4536 H 422.563 -4.83656 0.913085 0
M  V30 4537 N 424.215 -0.530993 -1.48385 0
M  V30 4538 C 425.163 0.244595 -2.3131 0
M  V30 4539 C 426.157 0.93451 -1.41291 0
M  V30 4540 O 427.363 0.85878 -1.58193 0
M  V30 4541 H 423.738 0.0977472 -0.74562 0
M  V30 4542 H 425.709 -0.474369 -2.94605 0
M  V30 4543 C 424.458 1.2779 -3.23365 0
M  V30 4544 H 423.781 0.756439 -3.92579 0
M  V30 4545 H 425.221 1.79198 -3.84271 0
M  V30 4546 C 423.68 2.31205 -2.45042 0
M  V30 4547 O 424.21 3.37661 -2.17596 0
M  V30 4548 N 422.416 2.04446 -2.0652 0
M  V30 4549 H 421.963 1.17891 -2.2904 0
M  V30 4550 H 421.921 2.73861 -1.54427 0
M  V30 4551 N 425.693 1.55336 -0.266172 0
M  V30 4552 C 426.603 2.2583 0.635458 0
M  V30 4553 C 427.619 1.28106 1.17749 0
M  V30 4554 O 428.795 1.61024 1.20968 0
M  V30 4555 C 425.86 2.95879 1.80712 0
M  V30 4556 C 424.921 4.09059 1.30265 0
M  V30 4557 C 424.154 4.75759 2.41846 0
M  V30 4558 O 424.377 4.41622 3.61007 0
M  V30 4559 O 423.311 5.63888 2.1051 0
M  V30 4560 H 427.137 3.03631 0.0646693 0
M  V30 4561 H 424.722 1.49361 -0.0339177 0
M  V30 4562 H 426.604 3.39932 2.49047 0
M  V30 4563 H 425.279 2.21002 2.36516 0
M  V30 4564 H 424.186 3.69482 0.586019 0
M  V30 4565 H 425.519 4.85811 0.790458 0
M  V30 4566 N 427.171 -0.0066808 1.57599 0
M  V30 4567 C 428.118 -1.00024 2.08 0
M  V30 4568 C 429.088 -1.34549 0.973943 0
M  V30 4569 O 430.273 -1.44502 1.24595 0
M  V30 4570 C 427.413 -2.2891 2.58252 0
M  V30 4571 C 426.526 -2.00346 3.82734 0
M  V30 4572 C 425.661 -3.23265 4.21513 0
M  V30 4573 C 424.7 -2.90357 5.3885 0
M  V30 4574 N 423.837 -4.05793 5.72954 0
M  V30 4575 H 428.677 -0.563499 2.92624 0
M  V30 4576 H 426.214 -0.266592 1.44664 0
M  V30 4577 H 428.172 -3.04247 2.85464 0
M  V30 4578 H 426.802 -2.70265 1.76512 0
M  V30 4579 H 425.854 -1.15406 3.62471 0
M  V30 4580 H 427.166 -1.72086 4.68175 0
M  V30 4581 H 426.32 -4.06953 4.49971 0
M  V30 4582 H 425.059 -3.54657 3.34768 0
M  V30 4583 H 424.064 -2.05075 5.10122 0
M  V30 4584 H 425.289 -2.60219 6.27266 0
M  V30 4585 H 423.235 -4.37094 4.89167 0
M  V30 4586 H 423.152 -3.81034 6.52954 0
M  V30 4587 H 424.42 -4.90289 6.06001 0
M  V30 4588 N 428.649 -1.55105 -0.279332 0
M  V30 4589 C 429.926 -1.66119 -1.03267 0
M  V30 4590 C 430.306 -0.523525 -2.04505 0
M  V30 4591 O 429.654 0.477194 -2.23462 0
M  V30 4592 C 429.864 -3.05067 -1.69515 0
M  V30 4593 C 431.212 -3.62606 -2.20912 0
M  V30 4594 O 432.236 -3.07659 -1.79512 0
M  V30 4595 O 431.095 -4.58861 -2.96831 0
M  V30 4596 H 428.189 -0.674429 -0.478618 0
M  V30 4597 H 430.735 -1.67446 -0.275694 0
M  V30 4598 H 429.507 -3.79311 -0.9612 0
M  V30 4599 H 429.13 -3.07611 -2.51915 0
M  V30 4600 N 430.127 0.543554 -1.4793 0
M  V30 4601 C 431.057 1.65888 -1.64327 0
M  V30 4602 C 432.038 1.62818 -0.492383 0
M  V30 4603 O 433.223 1.80226 -0.723338 0
M  V30 4604 C 430.353 3.04506 -1.67013 0
M  V30 4605 C 429.307 3.2243 -2.81466 0
M  V30 4606 C 428.633 4.61972 -2.69233 0
M  V30 4607 C 429.933 3.06496 -4.22915 0
M  V30 4608 H 431.627 1.52421 -2.57698 0
M  V30 4609 H 429.173 0.731849 -1.24016 0
M  V30 4610 H 431.126 3.82391 -1.77074 0
M  V30 4611 H 429.85 3.18964 -0.70212 0
M  V30 4612 H 428.509 2.46957 -2.70938 0
M  V30 4613 H 428.157 4.73247 -1.7043 0
M  V30 4614 H 427.857 4.74911 -3.46025 0
M  V30 4615 H 429.381 5.41974 -2.81242 0
M  V30 4616 H 430.795 3.74186 -4.34348 0
M  V30 4617 H 429.192 3.30938 -5.006 0
M  V30 4618 H 430.262 2.03077 -4.40327 0
M  V30 4619 N 431.605 1.3629 0.791371 0
M  V30 4620 C 432.835 1.33368 1.57786 0
M  V30 4621 C 433.243 -0.0875188 1.88997 0
M  V30 4622 O 432.586 -1.05427 1.50435 0
M  V30 4623 C 432.648 2.08802 2.92646 0
M  V30 4624 C 432.312 3.57903 2.84174 0
M  V30 4625 C 433.309 4.52191 2.56553 0
M  V30 4626 C 430.994 4.00762 3.02812 0
M  V30 4627 C 432.988 5.87315 2.47669 0
M  V30 4628 C 430.675 5.35977 2.93551 0
M  V30 4629 C 431.673 6.29066 2.66017 0
M  V30 4630 O 431.361 7.61798 2.56746 0
M  V30 4631 H 431.093 0.459166 0.496128 0
M  V30 4632 H 433.647 1.79952 0.990269 0
M  V30 4633 H 431.877 1.56878 3.53449 0
M  V30 4634 H 433.566 1.98762 3.53904 0
M  V30 4635 H 434.332 4.20393 2.41858 0
M  V30 4636 H 430.211 3.2868 3.2325 0
M  V30 4637 H 433.755 6.59943 2.26099 0
M  V30 4638 H 429.652 5.67384 3.07808 0
M  V30 4639 H 430.42 7.71898 2.72242 0
M  V30 4640 N 433.083 -1.0153 1.20538 0
M  V30 4641 C 434.015 -2.10224 0.913155 0
M  V30 4642 C 435.028 -1.62495 -0.0995998 0
M  V30 4643 O 436.217 -1.78014 0.131582 0
M  V30 4644 C 433.317 -3.37111 0.347717 0
M  V30 4645 C 432.49 -4.13971 1.41233 0
M  V30 4646 C 431.549 -5.19158 0.857976 0
M  V30 4647 O 430.575 -5.48 1.53897 0
M  V30 4648 N 431.777 -5.7955 -0.331966 0
M  V30 4649 H 434.542 -2.35879 1.84881 0
M  V30 4650 H 432.103 -1.17931 1.10923 0
M  V30 4651 H 434.095 -4.04683 -0.0373026 0
M  V30 4652 H 432.665 -3.08696 -0.492527 0
M  V30 4653 H 431.885 -3.41351 1.97163 0
M  V30 4654 H 433.173 -4.62103 2.12928 0
M  V30 4655 H 432.571 -5.58455 -0.902478 0
M  V30 4656 H 431.128 -6.48464 -0.65861 0
M  V30 4657 N 434.561 -1.01147 -1.20859 0
M  V30 4658 C 435.977 -0.725422 -1.42161 0
M  V30 4659 C 436.177 0.696919 -1.89064 0
M  V30 4660 O 435.233 1.46539 -2.05627 0
M  V30 4661 C 436.546 -1.74678 -2.44761 0
M  V30 4662 C 438.094 -1.76433 -2.58535 0
M  V30 4663 C 438.569 -2.77481 -3.64374 0
M  V30 4664 N 440.06 -2.76189 -3.71852 0
M  V30 4665 C 440.795 -3.51035 -4.53389 0
M  V30 4666 N 440.291 -4.35541 -5.38773 0
M  V30 4667 N 442.084 -3.39655 -4.47873 0
M  V30 4668 H 434.235 -1.92979 -0.887282 0
M  V30 4669 H 436.498 -0.833327 -0.451962 0
M  V30 4670 H 436.204 -2.76551 -2.17285 0
M  V30 4671 H 436.078 -1.55472 -3.43669 0
M  V30 4672 H 438.465 -0.75248 -2.85345 0
M  V30 4673 H 438.546 -1.99712 -1.5984 0
M  V30 4674 H 438.19 -3.78827 -3.38308 0
M  V30 4675 H 438.12 -2.51466 -4.6268 0
M  V30 4676 H 440.611 -2.14885 -3.10858 0
M  V30 4677 H 440.924 -4.89432 -5.98061 0
M  V30 4678 H 439.269 -4.39621 -5.38292 0
M  V30 4679 H 442.46 -2.73063 -3.80203 0
M  V30 4680 H 442.633 -3.9824 -5.11184 0
M  V30 4681 N 436.039 1.36541 -0.78704 0
M  V30 4682 C 436.971 2.28761 -0.141773 0
M  V30 4683 C 437.984 1.49365 0.647599 0
M  V30 4684 O 439.173 1.71836 0.483173 0
M  V30 4685 C 436.273 3.28771 0.822368 0
M  V30 4686 C 435.446 4.3732 0.0835594 0
M  V30 4687 C 434.505 5.17307 0.963296 0
M  V30 4688 O 433.531 5.67638 0.421419 0
M  V30 4689 N 434.733 5.33515 2.28784 0
M  V30 4690 H 437.498 2.84777 -0.933919 0
M  V30 4691 H 435.059 1.48682 -0.640735 0
M  V30 4692 H 437.051 3.79169 1.41468 0
M  V30 4693 H 435.621 2.73412 1.5154 0
M  V30 4694 H 434.841 3.88118 -0.689809 0
M  V30 4695 H 436.129 5.0701 -0.426358 0
M  V30 4696 H 435.527 4.94234 2.75226 0
M  V30 4697 H 434.084 5.87165 2.82985 0
M  V30 4698 N 437.518 0.538854 1.48102 0
M  V30 4699 C 438.448 -0.207654 2.32575 0
M  V30 4700 C 439.429 -0.926559 1.4265 0
M  V30 4701 O 440.614 -0.91061 1.71527 0
M  V30 4702 C 437.744 -1.24957 3.24042 0
M  V30 4703 C 436.698 -0.648263 4.23062 0
M  V30 4704 C 436.024 -1.79348 5.03725 0
M  V30 4705 C 437.324 0.385897 5.20872 0
M  V30 4706 H 439.018 0.497534 2.95237 0
M  V30 4707 H 436.564 0.240715 1.41974 0
M  V30 4708 H 438.517 -1.77983 3.81969 0
M  V30 4709 H 437.241 -1.98446 2.59397 0
M  V30 4710 H 435.9 -0.139452 3.66335 0
M  V30 4711 H 435.548 -2.51696 4.35498 0
M  V30 4712 H 435.248 -1.39702 5.70751 0
M  V30 4713 H 436.772 -2.32735 5.64506 0
M  V30 4714 H 438.186 -0.057607 5.73271 0
M  V30 4715 H 436.583 0.700227 5.96001 0
M  V30 4716 H 437.653 1.28848 4.67468 0
M  V30 4717 N 438.996 -1.55193 0.274407 0
M  V30 4718 C 440.273 -1.91584 -0.394331 0
M  V30 4719 C 440.653 -1.19858 -1.73774 0
M  V30 4720 O 440.001 -0.3252 -2.26174 0
M  V30 4721 C 440.211 -3.4487 -0.535311 0
M  V30 4722 C 441.559 -4.16636 -0.818534 0
M  V30 4723 O 442.583 -3.5076 -0.620146 0
M  V30 4724 O 441.442 -5.33209 -1.19792 0
M  V30 4725 H 438.536 -0.798349 -0.215794 0
M  V30 4726 H 441.082 -1.66646 0.320507 0
M  V30 4727 H 439.854 -3.89145 0.410141 0
M  V30 4728 H 439.477 -3.75759 -1.29964 0
M  V30 4729 N 440.474 -0.00167713 -1.576 0
M  V30 4730 C 441.72 0.683832 -1.90923 0
M  V30 4731 C 442.053 1.7333 -0.875799 0
M  V30 4732 O 441.328 1.94215 0.10525 0
M  V30 4733 C 441.611 1.32543 -3.3482 0
M  V30 4734 C 441.464 0.287387 -4.48881 0
M  V30 4735 C 442.783 2.25114 -3.78169 0
M  V30 4736 H 439.902 0.247125 -0.694333 0
M  V30 4737 H 442.544 -0.0533149 -1.89925 0
M  V30 4738 H 440.694 1.95372 -3.35801 0
M  V30 4739 H 442.366 -0.341346 -4.60035 0
M  V30 4740 H 440.609 -0.39017 -4.32042 0
M  V30 4741 H 441.28 0.775393 -5.46527 0
M  V30 4742 H 443.756 1.723 -3.7875 0
M  V30 4743 H 442.632 2.66971 -4.79602 0
M  V30 4744 H 442.893 3.13092 -3.12131 0
M  V30 4745 N 441.952 1.55251 0.271103 0
M  V30 4746 C 443.199 1.75946 1.00245 0
M  V30 4747 C 443.527 0.561611 1.86215 0
M  V30 4748 O 442.782 -0.455832 1.90317 0
M  V30 4749 C 443.081 3.01879 1.91321 0
M  V30 4750 C 442.747 4.34337 1.21086 0
M  V30 4751 C 441.409 4.70338 1.01666 0
M  V30 4752 C 443.761 5.16325 0.71119 0
M  V30 4753 C 441.089 5.8588 0.310099 0
M  V30 4754 C 443.441 6.32597 0.0182157 0
M  V30 4755 C 442.105 6.67236 -0.18768 0
M  V30 4756 H 441.375 0.643833 0.366824 0
M  V30 4757 H 444.022 1.89521 0.27458 0
M  V30 4758 H 442.327 2.83212 2.70736 0
M  V30 4759 H 444.024 3.15088 2.48033 0
M  V30 4760 H 440.614 4.06043 1.37213 0
M  V30 4761 H 444.798 4.88987 0.848844 0
M  V30 4762 H 440.054 6.1124 0.139873 0
M  V30 4763 H 444.228 6.9538 -0.376711 0
M  V30 4764 H 441.855 7.56618 -0.73715 0
M  V30 4765 N 443.43 -0.535701 1.48216 0
M  V30 4766 C 444.36 -1.65014 1.65204 0
M  V30 4767 C 445.341 -1.62554 0.501011 0
M  V30 4768 O 446.526 -1.7984 0.732886 0
M  V30 4769 C 443.656 -3.03616 1.68626 0
M  V30 4770 C 442.61 -3.20932 2.83172 0
M  V30 4771 C 441.936 -4.60537 2.71679 0
M  V30 4772 C 443.236 -3.04249 4.24535 0
M  V30 4773 H 444.93 -1.51053 2.58502 0
M  V30 4774 H 442.476 -0.725262 1.24402 0
M  V30 4775 H 444.429 -3.81446 1.79099 0
M  V30 4776 H 443.153 -3.18587 0.719026 0
M  V30 4777 H 441.812 -2.45517 2.72244 0
M  V30 4778 H 441.46 -4.72336 1.72937 0
M  V30 4779 H 441.16 -4.73069 3.48538 0
M  V30 4780 H 442.684 -5.40475 2.84112 0
M  V30 4781 H 444.098 -3.71877 4.36326 0
M  V30 4782 H 442.495 -3.28278 5.02348 0
M  V30 4783 H 443.565 -2.00739 4.41397 0
M  V30 4784 N 444.908 -1.36708 -0.784132 0
M  V30 4785 C 446.185 -1.21776 -1.53069 0
M  V30 4786 C 446.565 0.193876 -2.10208 0
M  V30 4787 O 445.913 1.20012 -1.94446 0
M  V30 4788 C 446.123 -2.30395 -2.62143 0
M  V30 4789 C 447.471 -2.67325 -3.29882 0
M  V30 4790 O 448.495 -2.29478 -2.7243 0
M  V30 4791 O 447.354 -3.32485 -4.33724 0
M  V30 4792 H 444.448 -0.474459 -0.677361 0
M  V30 4793 H 446.994 -1.48454 -0.82216 0
M  V30 4794 H 445.766 -3.2498 -2.17953 0
M  V30 4795 H 445.389 -2.05112 -3.40609 0
M  V30 4796 N 446.386 1.0089 -1.21074 0
M  V30 4797 C 447.797 1.56056 -1.02486 0
M  V30 4798 C 448.148 1.91728 0.416506 0
M  V30 4799 O 447.273 1.73066 1.29912 0
M  V30 4800 C 447.868 2.83563 -1.85411 0
M  V30 4801 C 446.427 3.3523 -1.71166 0
M  V30 4802 C 445.574 2.0846 -1.82865 0
M  V30 4803 H 448.525 0.831818 -1.35154 0
M  V30 4804 H 448.546 3.55286 -1.36205 0
M  V30 4805 H 448.058 2.57569 -2.9031 0
M  V30 4806 H 446.159 3.66167 -0.689361 0
M  V30 4807 H 446.272 4.06913 -2.52901 0
M  V30 4808 H 444.636 2.21275 -1.26132 0
M  V30 4809 H 445.419 1.84883 -2.89263 0
M  V30 4810 N 447.864 1.01787 1.20321 0
M  V30 4811 C 448.812 0.58254 2.25187 0
M  V30 4812 C 449.806 -0.379359 1.65098 0
M  V30 4813 O 451.012 -0.249142 1.78267 0
M  V30 4814 H 447.387 0.170078 0.732514 0
M  V30 4815 H 449.358 1.47788 2.59232 0
M  V30 4816 C 448.107 -0.0620885 3.47645 0
M  V30 4817 H 447.43 0.669069 3.94162 0
M  V30 4818 H 448.87 -0.329784 4.22716 0
M  V30 4819 C 447.329 -1.3053 3.10586 0
M  V30 4820 O 447.859 -2.39848 3.22236 0
M  V30 4821 N 446.065 -1.18988 2.65123 0
M  V30 4822 H 445.612 -0.300341 2.55843 0
M  V30 4823 H 445.57 -2.02267 2.40698 0
M  V30 4824 N 449.342 -1.36122 0.79427 0
M  V30 4825 C 450.619 -1.93398 0.292685 0
M  V30 4826 C 450.999 -1.72567 -1.21589 0
M  V30 4827 O 450.347 -1.08745 -2.00965 0
M  V30 4828 C 450.557 -3.42099 0.690614 0
M  V30 4829 C 451.905 -4.19231 0.673105 0
M  V30 4830 O 452.929 -3.50559 0.631389 0
M  V30 4831 O 451.788 -5.41732 0.720362 0
M  V30 4832 H 448.882 -0.823712 0.0736693 0
M  V30 4833 H 451.428 -1.45273 0.87714 0
M  V30 4834 H 450.2 -3.50938 1.73085 0
M  V30 4835 H 449.823 -3.97519 0.0803036 0
M  V30 4836 N 450.82 -0.546701 -1.47814 0
M  V30 4837 C 452.231 -0.110564 -1.86372 0
M  V30 4838 C 452.582 1.31678 -1.45449 0
M  V30 4839 O 451.707 1.98889 -0.852758 0
M  V30 4840 C 452.302 -0.193873 -3.38245 0
M  V30 4841 C 450.861 0.187164 -3.75934 0
M  V30 4842 C 450.008 -0.546166 -2.71868 0
M  V30 4843 H 452.959 -0.757022 -1.39481 0
M  V30 4844 H 452.98 0.590218 -3.75895 0
M  V30 4845 H 452.492 -1.23282 -3.67999 0
M  V30 4846 H 450.593 1.22762 -3.51796 0
M  V30 4847 H 450.706 -0.164083 -4.78819 0
M  V30 4848 H 449.07 0.00953904 -2.54698 0
M  V30 4849 H 449.853 -1.58606 -3.04465 0
M  V30 4850 N 452.299 1.55045 -0.282633 0
M  V30 4851 C 453.246 2.22822 0.601566 0
M  V30 4852 C 454.216 1.20431 1.14392 0
M  V30 4853 O 455.401 1.48996 1.19184 0
M  V30 4854 C 452.541 2.95873 1.77632 0
M  V30 4855 C 451.654 4.12999 1.26711 0
M  V30 4856 C 450.789 4.73676 2.40426 0
M  V30 4857 C 449.828 5.82981 1.86545 0
M  V30 4858 N 448.965 6.3769 2.93762 0
M  V30 4859 H 453.805 2.97995 0.0169528 0
M  V30 4860 H 451.342 1.471 -0.00339964 0
M  V30 4861 H 453.3 3.36447 2.46697 0
M  V30 4862 H 451.93 2.2311 2.33285 0
M  V30 4863 H 450.982 3.77494 0.469314 0
M  V30 4864 H 452.294 4.91803 0.832518 0
M  V30 4865 H 451.448 5.17008 3.17471 0
M  V30 4866 H 450.187 3.94164 2.87203 0
M  V30 4867 H 449.192 5.39092 1.07983 0
M  V30 4868 H 450.417 6.64366 1.40694 0
M  V30 4869 H 448.363 5.61069 3.39908 0
M  V30 4870 H 448.28 7.11788 2.54744 0
M  V30 4871 H 449.548 6.8568 3.7076 0
M  V30 4872 N 453.777 0.010035 1.57597 0
M  V30 4873 C 455.023 -0.673697 1.91283 0
M  V30 4874 C 455.356 -1.72863 0.884979 0
M  V30 4875 O 454.631 -1.94268 -0.0949487 0
M  V30 4876 C 454.914 -1.30766 3.35518 0
M  V30 4877 C 454.767 -0.263578 4.49027 0
M  V30 4878 C 456.086 -2.23105 3.79358 0
M  V30 4879 H 453.205 -0.243439 0.695634 0
M  V30 4880 H 455.847 0.0633864 1.89894 0
M  V30 4881 H 453.997 -1.93588 3.36832 0
M  V30 4882 H 455.669 0.365738 4.59848 0
M  V30 4883 H 453.912 0.413077 4.31829 0
M  V30 4884 H 454.583 -0.746398 5.4693 0
M  V30 4885 H 457.059 -1.70289 3.79659 0
M  V30 4886 H 455.935 -2.64424 4.81011 0
M  V30 4887 H 456.196 -3.11433 3.13787 0
M  V30 4888 N 455.255 -1.55392 -0.262866 0
M  V30 4889 C 456.504 -1.75679 -0.990943 0
M  V30 4890 C 456.817 -0.57097 -1.87081 0
M  V30 4891 O 458.023 -0.656486 -2.63444 0
M  V30 4892 C 456.479 -3.10964 -1.81188 0
M  V30 4893 C 456.087 -4.37146 -0.980188 0
M  V30 4894 C 457.831 -3.40597 -2.53365 0
M  V30 4895 C 455.738 -5.63466 -1.7961 0
M  V30 4896 H 454.668 -0.654868 -0.373716 0
M  V30 4897 H 457.319 -1.81841 -0.246203 0
M  V30 4898 H 455.701 -2.98867 -2.59797 0
M  V30 4899 H 456.875 -4.60187 -0.237558 0
M  V30 4900 H 455.19 -4.14731 -0.372497 0
M  V30 4901 H 457.787 -4.32186 -3.14833 0
M  V30 4902 H 458.13 -2.6119 -3.24169 0
M  V30 4903 H 458.663 -3.53838 -1.81779 0
M  V30 4904 H 455.402 -6.4565 -1.13209 0
M  V30 4905 H 454.922 -5.44552 -2.51443 0
M  V30 4906 H 456.601 -6.02139 -2.36723 0
M  V30 4907 N 456.733 0.527833 -1.48498 0
M  V30 4908 C 457.643 1.65907 -1.65867 0
M  V30 4909 C 458.659 1.6537 -0.541192 0
M  V30 4910 O 459.835 1.84282 -0.812534 0
M  V30 4911 C 456.9 3.02364 -1.69637 0
M  V30 4912 C 455.961 3.1374 -2.93028 0
M  V30 4913 C 455.194 4.43688 -2.96609 0
M  V30 4914 O 455.417 5.30913 -2.08538 0
M  V30 4915 O 454.351 4.59475 -3.88802 0
M  V30 4916 H 458.177 1.5419 -2.61647 0
M  V30 4917 H 455.762 0.701163 -1.31924 0
M  V30 4918 H 457.644 3.83515 -1.74625 0
M  V30 4919 H 456.319 3.14401 -0.770312 0
M  V30 4920 H 455.226 2.31877 -2.93571 0
M  V30 4921 H 456.559 3.06621 -3.85026 0
M  V30 4922 N 458.211 1.37122 0.776871 0
M  V30 4923 C 459.143 1.28342 1.89897 0
M  V30 4924 C 460.156 0.200277 1.61563 0
M  V30 4925 O 461.345 0.456012 1.72577 0
M  V30 4926 C 458.445 0.960427 3.25006 0
M  V30 4927 C 457.618 2.148 3.81025 0
M  V30 4928 C 456.677 1.79608 4.94598 0
M  V30 4929 O 455.703 2.51845 5.10454 0
M  V30 4930 N 456.905 0.737171 5.758 0
M  V30 4931 H 459.67 2.25027 1.97947 0
M  V30 4932 H 457.231 1.3068 0.955739 0
M  V30 4933 H 459.223 0.705942 3.98495 0
M  V30 4934 H 457.793 0.0823066 3.12492 0
M  V30 4935 H 457.013 2.56454 2.99374 0
M  V30 4936 H 458.301 2.9411 4.15183 0
M  V30 4937 H 457.699 0.137637 5.65533 0
M  V30 4938 H 456.256 0.542534 6.49538 0
M  V30 4939 N 459.689 -1.00246 1.21608 0
M  V30 4940 C 460.652 -2.07233 0.979133 0
M  V30 4941 C 461.652 -1.6072 -0.0508219 0
M  V30 4942 O 462.842 -1.73196 0.186712 0
M  V30 4943 C 459.974 -3.37546 0.477016 0
M  V30 4944 H 461.167 -2.29687 1.92831 0
M  V30 4945 H 458.72 -1.17261 1.03342 0
M  V30 4946 H 459.455 -3.20773 -0.476966 0
M  V30 4947 H 459.24 -3.72638 1.21997 0
M  V30 4948 H 460.73 -4.16285 0.331181 0
M  V30 4949 N 461.167 -1.02423 -1.1978 0
M  V30 4950 C 462.416 -0.713265 -1.88667 0
M  V30 4951 C 462.729 0.7609 -1.80193 0
M  V30 4952 O 463.935 1.18473 -2.44288 0
M  V30 4953 C 462.391 -1.22545 -3.38394 0
M  V30 4954 C 461.999 -2.72706 -3.55437 0
M  V30 4955 C 463.743 -0.990257 -4.12788 0
M  V30 4956 C 461.65 -3.17367 -4.99031 0
M  V30 4957 H 460.58 -0.263105 -0.706606 0
M  V30 4958 H 463.231 -1.23792 -1.35454 0
M  V30 4959 H 461.613 -0.628732 -3.90977 0
M  V30 4960 H 462.787 -3.37993 -3.13205 0
M  V30 4961 H 461.102 -2.94453 -2.94425 0
M  V30 4962 H 463.699 -1.29926 -5.18675 0
M  V30 4963 H 464.042 0.0730761 -4.16236 0
M  V30 4964 H 464.575 -1.55074 -3.66329 0
M  V30 4965 H 461.314 -4.23009 -5.00743 0
M  V30 4966 H 460.834 -2.56805 -5.42044 0
M  V30 4967 H 462.513 -3.10441 -5.67658 0
M  V30 4968 N 462.645 1.35699 -0.801477 0
M  V30 4969 C 463.592 2.29876 -0.206294 0
M  V30 4970 C 464.562 1.52565 0.656752 0
M  V30 4971 O 465.747 1.81024 0.602906 0
M  V30 4972 C 462.887 3.39052 0.643272 0
M  V30 4973 C 462 4.31335 -0.239644 0
M  V30 4974 C 461.135 5.27599 0.61744 0
M  V30 4975 C 460.174 6.11521 -0.26619 0
M  V30 4976 N 459.311 6.99938 0.550571 0
M  V30 4977 H 464.151 2.80187 -1.01484 0
M  V30 4978 H 461.688 1.37902 -0.511997 0
M  V30 4979 H 463.646 4.0101 1.15094 0
M  V30 4980 H 462.276 2.9003 1.41713 0
M  V30 4981 H 461.328 3.70426 -0.865381 0
M  V30 4982 H 462.64 4.90243 -0.919985 0
M  V30 4983 H 461.794 5.94906 1.19045 0
M  V30 4984 H 460.533 4.69176 1.33137 0
M  V30 4985 H 459.538 5.43166 -0.851507 0
M  V30 4986 H 460.763 6.72022 -0.9779 0
M  V30 4987 H 458.709 6.44008 1.24856 0
M  V30 4988 H 458.626 7.55966 -0.071832 0
M  V30 4989 H 459.894 7.71599 1.10702 0
M  V30 4990 N 464.123 0.554532 1.47522 0
M  V30 4991 C 465.4 -0.0360704 1.95567 0
M  V30 4992 C 465.78 -1.48828 1.49711 0
M  V30 4993 O 465.128 -2.16366 0.734717 0
M  V30 4994 C 465.338 0.106631 3.48837 0
M  V30 4995 C 466.686 -0.0400899 4.24581 0
M  V30 4996 O 467.71 0.0340453 3.56184 0
M  V30 4997 O 466.569 -0.199111 5.46137 0
M  V30 4998 H 463.663 -0.0656294 0.824392 0
M  V30 4999 H 466.209 0.620867 1.57935 0
M  V30 5000 H 464.981 1.11727 3.7501 0
M  V30 5001 H 464.604 -0.58804 3.93227 0
M  V30 5002 N 465.601 -1.54893 0.290851 0
M  V30 5003 C 466.849 -1.99538 -0.320756 0
M  V30 5004 C 467.17 -1.18075 -1.55188 0
M  V30 5005 O 466.44 -0.274162 -1.93972 0
M  V30 5006 H 465.02 -0.737052 -0.121507 0
M  V30 5007 H 467.682 -1.90755 0.399832 0
M  V30 5008 H 466.778 -3.06282 -0.599802 0
M  V30 5009 N 467.08 -0.0183926 -1.57589 0
M  V30 5010 C 468.329 0.66185 -1.90532 0
M  V30 5011 C 468.642 1.73904 -0.895366 0
M  V30 5012 O 469.848 2.47518 -1.11566 0
M  V30 5013 C 468.304 1.22844 -3.38286 0
M  V30 5014 C 467.912 0.185103 -4.47617 0
M  V30 5015 C 469.656 1.88581 -3.80312 0
M  V30 5016 C 467.563 0.762723 -5.86461 0
M  V30 5017 H 466.493 0.250972 -0.711006 0
M  V30 5018 H 469.144 -0.0819435 -1.83317 0
M  V30 5019 H 467.526 2.0235 -3.40398 0
M  V30 5020 H 468.7 -0.58671 -4.5705 0
M  V30 5021 H 467.015 -0.372889 -4.14727 0
M  V30 5022 H 469.612 2.32735 -4.81392 0
M  V30 5023 H 469.955 2.72408 -3.14801 0
M  V30 5024 H 470.488 1.15782 -3.80578 0
M  V30 5025 H 467.227 -0.0371713 -6.55489 0
M  V30 5026 H 466.747 1.50327 -5.80656 0
M  V30 5027 H 468.426 1.25576 -6.34697 0
M  V30 5028 N 468.558 1.5553 0.254621 0
M  V30 5029 C 469.969 1.67518 0.824286 0
M  V30 5030 C 470.32 0.614429 1.86331 0
M  V30 5031 O 469.445 -0.240736 2.15057 0
M  V30 5032 C 470.04 3.03692 1.50189 0
M  V30 5033 C 468.599 3.17646 2.01935 0
M  V30 5034 C 467.746 2.63373 0.867746 0
M  V30 5035 H 470.697 1.58671 0.0305843 0
M  V30 5036 H 470.718 2.97706 2.36962 0
M  V30 5037 H 470.23 3.80874 0.745431 0
M  V30 5038 H 468.331 2.45273 2.80485 0
M  V30 5039 H 468.444 4.24455 2.22204 0
M  V30 5040 H 466.808 2.20999 1.26616 0
M  V30 5041 H 467.591 3.43074 0.124498 0
M  V30 5042 N 470.036 -0.519951 1.48776 0
M  V30 5043 C 470.966 -1.63253 1.66945 0
M  V30 5044 C 471.947 -1.62014 0.518224 0
M  V30 5045 O 473.132 -1.79053 0.751919 0
M  V30 5046 C 470.262 -3.0181 1.71836 0
M  V30 5047 C 469.216 -3.17911 2.8656 0
M  V30 5048 C 468.542 -4.5763 2.76548 0
M  V30 5049 C 469.842 -2.99729 4.27738 0
M  V30 5050 H 471.536 -1.48302 2.6009 0
M  V30 5051 H 469.082 -0.712026 1.25165 0
M  V30 5052 H 471.035 -3.79525 1.83135 0
M  V30 5053 H 469.759 -3.17806 0.752775 0
M  V30 5054 H 468.418 -2.42616 2.74833 0
M  V30 5055 H 468.066 -4.70476 1.77937 0
M  V30 5056 H 467.766 -4.69346 3.53536 0
M  V30 5057 H 469.29 -5.37431 2.89828 0
M  V30 5058 H 470.704 -3.67228 4.40246 0
M  V30 5059 H 469.101 -3.22932 5.05801 0
M  V30 5060 H 470.171 -1.96047 4.43502 0
M  V30 5061 N 471.514 -1.37532 -0.769588 0
M  V30 5062 C 472.739 -1.36231 -1.56384 0
M  V30 5063 C 473.164 0.0495849 -1.88035 0
M  V30 5064 O 472.522 1.02723 -1.49391 0
M  V30 5065 C 472.57 -2.20986 -2.84952 0
M  V30 5066 O 471.674 -1.61597 -3.79421 0
M  V30 5067 H 471.015 -0.465387 -0.473615 0
M  V30 5068 H 473.545 -1.81085 -0.952342 0
M  V30 5069 H 473.555 -2.34277 -3.34034 0
M  V30 5070 H 472.23 -3.23612 -2.61243 0
M  V30 5071 H 470.807 -1.57359 -3.38072 0
M  V30 5072 N 472.992 0.995999 -1.22138 0
M  V30 5073 C 474.238 1.73767 -1.04561 0
M  V30 5074 C 474.571 1.89633 0.418698 0
M  V30 5075 O 473.846 1.43723 1.3105 0
M  V30 5076 C 474.129 3.14505 -1.75382 0
M  V30 5077 C 473.982 3.06306 -3.29388 0
M  V30 5078 C 475.301 4.13615 -1.50369 0
M  V30 5079 H 472.42 0.630728 -0.38125 0
M  V30 5080 H 475.062 1.16057 -1.50435 0
M  V30 5081 H 473.212 3.63775 -1.36383 0
M  V30 5082 H 474.884 2.64681 -3.77812 0
M  V30 5083 H 473.127 2.43186 -3.59226 0
M  V30 5084 H 473.798 4.05884 -3.74116 0
M  V30 5085 H 476.274 3.73089 -1.84239 0
M  V30 5086 H 475.15 5.10212 -2.02421 0
M  V30 5087 H 475.411 4.39949 -0.435611 0
M  V30 5088 N 474.47 1.03057 1.19235 0
M  V30 5089 C 475.719 0.72326 1.88287 0
M  V30 5090 C 476.032 -0.751333 1.80594 0
M  V30 5091 O 477.238 -1.17176 2.44912 0
M  V30 5092 C 475.694 1.24338 3.3774 0
M  V30 5093 C 475.302 2.74587 3.53986 0
M  V30 5094 C 477.046 1.01213 4.12257 0
M  V30 5095 C 474.953 3.20009 4.97341 0
M  V30 5096 H 473.883 0.266848 0.705201 0
M  V30 5097 H 476.534 1.24509 1.34795 0
M  V30 5098 H 474.916 0.649457 3.90638 0
M  V30 5099 H 476.09 3.39649 3.11408 0
M  V30 5100 H 474.405 2.9601 2.9286 0
M  V30 5101 H 477.002 1.32675 5.17978 0
M  V30 5102 H 477.345 -0.051001 4.16269 0
M  V30 5103 H 477.878 1.57014 3.65501 0
M  V30 5104 H 474.617 4.25659 4.98493 0
M  V30 5105 H 474.137 2.59676 5.40674 0
M  V30 5106 H 475.816 3.13447 5.66003 0
M  V30 5107 N 475.948 -1.35272 0.808662 0
M  V30 5108 C 476.858 -2.33546 0.222079 0
M  V30 5109 C 477.874 -1.6196 -0.636011 0
M  V30 5110 O 479.05 -1.93822 -0.547274 0
M  V30 5111 C 476.115 -3.41148 -0.61795 0
M  V30 5112 C 475.176 -4.28507 0.260875 0
M  V30 5113 C 474.409 -5.3097 -0.539156 0
M  V30 5114 O 474.632 -5.42123 -1.77367 0
M  V30 5115 O 473.566 -6.01858 0.0710526 0
M  V30 5116 H 477.392 -2.85515 1.03512 0
M  V30 5117 H 474.977 -1.38079 0.570495 0
M  V30 5118 H 476.859 -4.06889 -1.09634 0
M  V30 5119 H 475.534 -2.91447 -1.40855 0
M  V30 5120 H 474.441 -3.6574 0.786451 0
M  V30 5121 H 475.774 -4.81611 1.01547 0
M  V30 5122 N 477.426 -0.562348 -1.47226 0
M  V30 5123 C 478.389 0.172056 -2.28553 0
M  V30 5124 C 479.389 0.837928 -1.37242 0
M  V30 5125 O 480.579 0.693001 -1.59822 0
M  V30 5126 C 477.711 1.25223 -3.17068 0
M  V30 5127 H 478.904 -0.542401 -2.94954 0
M  V30 5128 H 476.457 -0.319493 -1.53 0
M  V30 5129 H 477.192 1.99892 -2.55369 0
M  V30 5130 H 476.977 0.779515 -3.84273 0
M  V30 5131 H 478.467 1.76791 -3.78332 0
M  V30 5132 N 478.904 1.54736 -0.299062 0
M  V30 5133 C 479.867 2.22127 0.565012 0
M  V30 5134 C 480.867 1.20669 1.06281 0
M  V30 5135 O 482.057 1.45417 0.959145 0
M  V30 5136 C 479.189 2.90611 1.78208 0
M  V30 5137 H 480.382 2.99891 -0.0237448 0
M  V30 5138 H 477.935 1.5622 -0.0498788 0
M  V30 5139 H 478.67 2.16921 2.41072 0
M  V30 5140 H 478.455 3.64984 1.43281 0
M  V30 5141 H 479.945 3.42026 2.396 0
M  V30 5142 N 480.382 0.0267497 1.57577 0
M  V30 5143 C 481.314 -0.984594 2.06974 0
M  V30 5144 C 482.327 -1.29032 0.992705 0
M  V30 5145 O 483.516 -1.25539 1.26895 0
M  V30 5146 C 480.616 -2.31262 2.47732 0
M  V30 5147 C 479.789 -2.1924 3.78487 0
M  V30 5148 C 478.848 -3.34956 4.05821 0
M  V30 5149 O 477.874 -3.11948 4.76106 0
M  V30 5150 N 479.076 -4.58672 3.55809 0
M  V30 5151 H 481.841 -0.563143 2.94362 0
M  V30 5152 H 479.402 -0.160061 1.61107 0
M  V30 5153 H 481.394 -3.07496 2.63112 0
M  V30 5154 H 479.964 -2.65056 1.65723 0
M  V30 5155 H 479.184 -1.27747 3.72927 0
M  V30 5156 H 480.472 -2.08409 4.64158 0
M  V30 5157 H 479.87 -4.8026 2.98942 0
M  V30 5158 H 478.427 -5.32083 3.76472 0
M  V30 5159 N 481.861 -1.55662 -0.24637 0
M  V30 5160 C 482.793 -1.86811 -1.32794 0
M  V30 5161 C 483.806 -0.754413 -1.44265 0
M  V30 5162 O 484.995 -1.03253 -1.45606 0
M  V30 5163 C 482.095 -2.0397 -2.70646 0
M  V30 5164 C 481.268 -3.34832 -2.81436 0
M  V30 5165 C 480.327 -3.41727 -4.00136 0
M  V30 5166 O 479.353 -4.14934 -3.89639 0
M  V30 5167 N 480.555 -2.71058 -5.1333 0
M  V30 5168 H 483.32 -2.80174 -1.06409 0
M  V30 5169 H 480.881 -1.55906 -0.43647 0
M  V30 5170 H 482.873 -2.05924 -3.48393 0
M  V30 5171 H 481.443 -1.1735 -2.89738 0
M  V30 5172 H 480.663 -3.4519 -1.90361 0
M  V30 5173 H 481.951 -4.21085 -2.85595 0
M  V30 5174 H 481.349 -2.11314 -5.2475 0
M  V30 5175 H 479.906 -2.78704 -5.89209 0
M  V30 5176 N 483.339 0.512053 -1.4905 0
M  V30 5177 C 484.564 1.2959 -1.6193 0
M  V30 5178 C 484.989 1.85906 -0.286454 0
M  V30 5179 O 484.347 1.65312 0.744426 0
M  V30 5180 C 484.395 2.40987 -2.68249 0
M  V30 5181 O 483.499 3.44531 -2.26654 0
M  V30 5182 H 482.84 0.383053 -0.542371 0
M  V30 5183 H 485.37 0.614231 -1.95162 0
M  V30 5184 H 485.38 2.86913 -2.90078 0
M  V30 5185 H 484.055 1.99361 -3.65004 0
M  V30 5186 H 482.632 3.046 -2.15112 0
M  V30 5187 N 484.817 1.37938 0.762283 0
M  V30 5188 C 486.228 1.30094 1.33912 0
M  V30 5189 C 486.579 -0.0472026 1.96143 0
M  V30 5190 O 485.704 -0.94917 1.94473 0
M  V30 5191 C 486.299 2.35592 2.43478 0
M  V30 5192 C 484.858 2.31353 2.96905 0
M  V30 5193 C 484.005 2.18919 1.70205 0
M  V30 5194 H 486.956 1.48423 0.561816 0
M  V30 5195 H 486.977 2.00806 3.23199 0
M  V30 5196 H 486.489 3.33701 1.98155 0
M  V30 5197 H 484.59 1.36799 3.46579 0
M  V30 5198 H 484.703 3.25147 3.51875 0
M  V30 5199 H 483.067 1.65624 1.93496 0
M  V30 5200 H 483.85 3.18956 1.26973 0
M  V30 5201 N 486.295 -0.989507 1.22664 0
M  V30 5202 C 487.541 -1.7321 1.05481 0
M  V30 5203 C 487.874 -1.89852 -0.408635 0
M  V30 5204 O 487.149 -1.44416 -1.30285 0
M  V30 5205 C 487.432 -3.1357 1.77047 0
M  V30 5206 C 487.285 -3.04555 3.31008 0
M  V30 5207 C 488.604 -4.12812 1.5256 0
M  V30 5208 H 485.723 -0.628697 0.384589 0
M  V30 5209 H 488.365 -1.15258 1.51049 0
M  V30 5210 H 486.515 -3.63046 1.3831 0
M  V30 5211 H 488.187 -2.62674 3.7921 0
M  V30 5212 H 486.43 -2.41278 3.6051 0
M  V30 5213 H 487.101 -4.03894 3.76263 0
M  V30 5214 H 489.577 -3.72106 1.86215 0
M  V30 5215 H 488.453 -5.09132 2.05124 0
M  V30 5216 H 488.714 -4.39711 0.458936 0
M  V30 5217 N 487.773 -1.03688 -1.18687 0
M  V30 5218 C 489.003 -0.756819 -1.92239 0
M  V30 5219 C 489.411 0.689374 -1.76194 0
M  V30 5220 O 488.754 1.48126 -1.08648 0
M  V30 5221 C 488.816 -1.03851 -3.44173 0
M  V30 5222 C 488.48 -2.47785 -3.83994 0
M  V30 5223 C 489.477 -3.4595 -3.88091 0
M  V30 5224 C 487.162 -2.82397 -4.154 0
M  V30 5225 C 489.156 -4.76779 -4.23038 0
M  V30 5226 C 486.843 -4.13433 -4.50018 0
M  V30 5227 C 487.841 -5.10434 -4.53813 0
M  V30 5228 O 487.529 -6.39122 -4.87625 0
M  V30 5229 H 487.261 -0.275678 -0.617234 0
M  V30 5230 H 489.815 -1.38658 -1.51536 0
M  V30 5231 H 488.045 -0.351612 -3.85098 0
M  V30 5232 H 489.734 -0.746846 -3.9897 0
M  V30 5233 H 490.5 -3.20549 -3.63969 0
M  V30 5234 H 486.379 -2.07568 -4.11627 0
M  V30 5235 H 489.923 -5.52488 -4.25914 0
M  V30 5236 H 485.82 -4.38604 -4.736 0
M  V30 5237 H 486.588 -6.43715 -5.05542 0
M  V30 5238 N 489.251 1.34841 -0.815825 0
M  V30 5239 C 490.198 2.29644 -0.230664 0
M  V30 5240 C 491.168 1.53253 0.640533 0
M  V30 5241 O 492.353 1.81653 0.583672 0
M  V30 5242 C 489.493 3.39715 0.607275 0
M  V30 5243 C 488.606 4.31056 -0.28538 0
M  V30 5244 C 487.741 5.28225 0.561446 0
M  V30 5245 C 486.78 6.11204 -0.331035 0
M  V30 5246 N 485.917 7.00483 0.476302 0
M  V30 5247 H 490.757 2.79095 -1.0445 0
M  V30 5248 H 488.294 1.37351 -0.526595 0
M  V30 5249 H 490.252 4.02208 1.10835 0
M  V30 5250 H 488.882 2.91517 1.38629 0
M  V30 5251 H 487.934 3.69487 -0.904621 0
M  V30 5252 H 489.246 4.89239 -0.97193 0
M  V30 5253 H 488.4 5.96135 1.12728 0
M  V30 5254 H 487.139 4.70562 1.28153 0
M  V30 5255 H 486.144 5.42232 -0.909069 0
M  V30 5256 H 487.369 6.70947 -1.04912 0
M  V30 5257 H 485.315 6.45296 1.18019 0
M  V30 5258 H 485.232 7.55847 -0.152008 0
M  V30 5259 H 486.5 7.7273 1.02512 0
M  V30 5260 N 490.729 0.570148 1.46925 0
M  V30 5261 C 491.662 -0.218362 2.27153 0
M  V30 5262 C 492.64 -0.90847 1.34854 0
M  V30 5263 O 493.824 -0.924875 1.64251 0
M  V30 5264 C 490.951 -1.3122 3.12248 0
M  V30 5265 C 489.997 -0.729277 4.20219 0
M  V30 5266 S 490.83 0.434159 5.33737 0
M  V30 5267 C 491.986 -0.661188 6.22398 0
M  V30 5268 H 492.219 0.462393 2.93682 0
M  V30 5269 H 489.752 0.356753 1.50222 0
M  V30 5270 H 491.71 -1.93856 3.61842 0
M  V30 5271 H 490.371 -1.96485 2.45056 0
M  V30 5272 H 489.564 -1.5511 4.79538 0
M  V30 5273 H 489.166 -0.178836 3.73572 0
M  V30 5274 H 491.458 -1.55006 6.5953 0
M  V30 5275 H 492.401 -0.105046 7.08022 0
M  V30 5276 H 492.809 -0.959682 5.56283 0
M  V30 5277 N 492.207 -1.54576 0.307264 0
M  V30 5278 C 493.17 -2.22423 -0.553224 0
M  V30 5279 C 494.17 -1.21231 -1.05639 0
M  V30 5280 O 495.36 -1.45923 -0.951419 0
M  V30 5281 C 492.492 -2.91552 -1.76664 0
M  V30 5282 H 493.685 -2.99874 0.0396484 0
M  V30 5283 H 491.238 -1.56192 0.0581629 0
M  V30 5284 H 491.973 -2.18196 -2.39918 0
M  V30 5285 H 491.758 -3.65738 -1.41343 0
M  V30 5286 H 493.248 -3.43292 -2.37783 0
M  V30 5287 N 493.685 -0.035106 -1.57561 0
M  V30 5288 C 494.618 0.979673 -2.06101 0
M  V30 5289 C 495.596 1.31378 -0.958046 0
M  V30 5290 O 496.78 1.42942 -1.22881 0
M  V30 5291 C 493.907 2.29809 -2.48808 0
M  V30 5292 C 492.953 2.11817 -3.70184 0
M  V30 5293 S 493.786 1.41143 -5.16565 0
M  V30 5294 C 494.942 2.74341 -5.62572 0
M  V30 5295 H 495.175 0.566506 -2.91853 0
M  V30 5296 H 492.708 0.176744 -1.53385 0
M  V30 5297 H 494.666 3.056 -2.74078 0
M  V30 5298 H 493.327 2.68257 -1.63392 0
M  V30 5299 H 492.52 3.09299 -3.97933 0
M  V30 5300 H 492.122 1.44168 -3.45097 0
M  V30 5301 H 494.414 3.70562 -5.67177 0
M  V30 5302 H 495.357 2.51249 -6.62027 0
M  V30 5303 H 495.765 2.79863 -4.90242 0
M  V30 5304 N 495.163 1.55791 0.238111 0
M  V30 5305 C 496.073 1.94196 1.31625 0
M  V30 5306 C 497.089 0.843545 1.52185 0
M  V30 5307 O 498.265 1.1457 1.65637 0
M  V30 5308 C 495.33 2.2365 2.64918 0
M  V30 5309 C 494.391 3.46971 2.52804 0
M  V30 5310 C 493.624 3.7501 3.79741 0
M  V30 5311 O 493.847 3.04982 4.82019 0
M  V30 5312 O 492.781 4.68525 3.77846 0
M  V30 5313 H 496.607 2.86044 1.02043 0
M  V30 5314 H 494.192 1.42786 0.439603 0
M  V30 5315 H 496.074 2.43863 3.4367 0
M  V30 5316 H 494.749 1.34979 2.94215 0
M  V30 5317 H 493.656 3.32055 1.72309 0
M  V30 5318 H 494.989 4.35971 2.28451 0
M  V30 5319 N 496.642 -0.504142 1.49319 0
M  V30 5320 C 497.888 -1.25767 1.59857 0
M  V30 5321 C 498.243 -1.90348 0.280262 0
M  V30 5322 O 497.536 -1.77588 -0.719241 0
M  V30 5323 C 497.73 -2.35021 2.69258 0
M  V30 5324 C 497.559 -1.81154 4.11598 0
M  V30 5325 C 496.329 -1.62596 4.78425 0
M  V30 5326 C 498.527 -1.3252 4.96934 0
M  V30 5327 N 496.509 -1.03625 6.05091 0
M  V30 5328 C 497.88 -0.856633 6.14054 0
M  V30 5329 C 499.935 -1.21063 4.82958 0
M  V30 5330 C 498.638 -0.284841 7.18736 0
M  V30 5331 C 500.664 -0.652815 5.87786 0
M  V30 5332 C 500.026 -0.194461 7.04132 0
M  V30 5333 H 496.125 -0.450293 0.639343 0
M  V30 5334 H 498.709 -0.565344 1.86311 0
M  V30 5335 H 496.88 -3.01719 2.44581 0
M  V30 5336 H 498.612 -3.02061 2.69335 0
M  V30 5337 H 495.367 -1.86873 4.35173 0
M  V30 5338 H 495.791 -0.76076 6.72712 0
M  V30 5339 H 500.433 -1.551 3.93324 0
M  V30 5340 H 498.151 0.0677979 8.08072 0
M  V30 5341 H 501.737 -0.566994 5.79031 0
M  V30 5342 H 500.617 0.230442 7.83861 0
M  V30 5343 N 498.12 -1.38341 -0.754957 0
M  V30 5344 C 499.067 -1.3546 -1.86867 0
M  V30 5345 C 500.037 -0.217369 -1.64672 0
M  V30 5346 O 501.222 -0.409383 -1.86356 0
M  V30 5347 C 498.362 -1.18413 -3.24149 0
M  V30 5348 C 497.475 -2.41511 -3.58185 0
M  V30 5349 C 496.61 -2.17205 -4.84763 0
M  V30 5350 C 495.649 -3.36081 -5.11582 0
M  V30 5351 N 494.786 -3.11219 -6.29354 0
M  V30 5352 H 499.626 -2.30672 -1.88664 0
M  V30 5353 H 497.163 -1.14607 -0.922154 0
M  V30 5354 H 499.121 -1.06545 -4.03366 0
M  V30 5355 H 497.751 -0.268397 -3.21682 0
M  V30 5356 H 496.803 -2.64056 -2.73822 0
M  V30 5357 H 498.115 -3.30115 -3.73932 0
M  V30 5358 H 497.269 -2.02465 -5.7192 0
M  V30 5359 H 496.008 -1.25964 -4.71152 0
M  V30 5360 H 495.013 -3.51341 -4.22894 0
M  V30 5361 H 496.238 -4.28196 -5.27091 0
M  V30 5362 H 494.184 -2.22624 -6.17069 0
M  V30 5363 H 494.101 -3.93373 -6.45596 0
M  V30 5364 H 495.369 -3.00132 -7.19403 0
M  V30 5365 N 499.598 0.982988 -1.23187 0
M  V30 5366 C 500.528 2.09301 -1.03515 0
M  V30 5367 C 501.509 1.70035 0.0471136 0
M  V30 5368 O 502.694 1.93847 -0.117029 0
M  V30 5369 C 499.824 3.4167 -0.622791 0
M  V30 5370 C 498.778 3.94828 -1.65211 0
M  V30 5371 C 498.104 5.23362 -1.09527 0
M  V30 5372 C 499.404 4.2439 -3.04451 0
M  V30 5373 H 501.098 2.26016 -1.96359 0
M  V30 5374 H 498.644 1.08611 -0.945501 0
M  V30 5375 H 500.597 4.18746 -0.472233 0
M  V30 5376 H 499.321 3.24811 0.341329 0
M  V30 5377 H 497.98 3.19895 -1.79061 0
M  V30 5378 H 497.628 5.02852 -0.122211 0
M  V30 5379 H 497.328 5.59895 -1.783 0
M  V30 5380 H 498.852 6.03062 -0.956511 0
M  V30 5381 H 500.266 4.92225 -2.93917 0
M  V30 5382 H 498.663 4.72118 -3.70438 0
M  V30 5383 H 499.733 3.31765 -3.53638 0
M  V30 5384 N 501.076 1.04316 1.18135 0
M  V30 5385 C 502.039 0.640794 2.2006 0
M  V30 5386 C 503.039 -0.303124 1.57917 0
M  V30 5387 O 504.229 -0.0881855 1.73977 0
M  V30 5388 C 501.361 -0.060148 3.40847 0
M  V30 5389 H 502.554 1.54281 2.57172 0
M  V30 5390 H 500.107 0.836004 1.32063 0
M  V30 5391 H 500.842 -0.975845 3.0927 0
M  V30 5392 H 500.627 0.618319 3.87194 0
M  V30 5393 H 502.117 -0.328082 4.16309 0
M  V30 5394 N 502.554 -1.34406 0.822964 0
M  V30 5395 C 503.484 -2.32052 0.259608 0
M  V30 5396 C 504.465 -1.58243 -0.623961 0
M  V30 5397 O 505.65 -1.86224 -0.55083 0
M  V30 5398 C 502.78 -3.42434 -0.579314 0
M  V30 5399 C 501.734 -4.27499 0.20712 0
M  V30 5400 C 501.06 -5.29349 -0.754547 0
M  V30 5401 C 502.36 -5.02758 1.41533 0
M  V30 5402 H 504.054 -2.79418 1.07545 0
M  V30 5403 H 501.6 -1.34338 0.518593 0
M  V30 5404 H 503.553 -4.0976 -0.983612 0
M  V30 5405 H 502.277 -2.93717 -1.4282 0
M  V30 5406 H 500.936 -3.61776 0.592787 0
M  V30 5407 H 500.584 -4.76895 -1.59939 0
M  V30 5408 H 500.284 -5.8714 -0.232561 0
M  V30 5409 H 501.808 -5.99544 -1.1567 0
M  V30 5410 H 503.222 -5.62938 1.08504 0
M  V30 5411 H 501.619 -5.70123 1.87296 0
M  V30 5412 H 502.689 -4.32451 2.1935 0
M  V30 5413 N 504.032 -0.577932 -1.46621 0
M  V30 5414 C 505.443 -0.150071 -1.86096 0
M  V30 5415 C 505.794 1.28563 -1.48209 0
M  V30 5416 O 504.919 1.97036 -0.894754 0
M  V30 5417 C 505.514 -0.265576 -3.37758 0
M  V30 5418 C 504.073 0.10738 -3.76247 0
M  V30 5419 C 503.22 -0.603711 -2.70649 0
M  V30 5420 H 506.171 -0.786438 -1.37844 0
M  V30 5421 H 506.192 0.510352 -3.77062 0
M  V30 5422 H 505.704 -1.3106 -3.65301 0
M  V30 5423 H 503.805 1.15272 -3.54321 0
M  V30 5424 H 503.918 -0.26561 -4.78363 0
M  V30 5425 H 502.282 -0.0444884 -2.54661 0
M  V30 5426 H 503.065 -1.65029 -3.01032 0
M  V30 5427 N 505.51 1.54411 -0.315457 0
M  V30 5428 C 506.44 2.27002 0.547039 0
M  V30 5429 C 507.421 1.27492 1.12605 0
M  V30 5430 O 508.606 1.5629 1.15269 0
M  V30 5431 C 505.736 3.02171 1.71201 0
M  V30 5432 C 504.69 4.0895 1.26268 0
M  V30 5433 C 504.016 4.71915 2.51396 0
M  V30 5434 C 505.316 5.20891 0.383419 0
M  V30 5435 H 507.01 2.99343 -0.0584517 0
M  V30 5436 H 504.556 1.4397 -0.0295527 0
M  V30 5437 H 506.509 3.51681 2.32161 0
M  V30 5438 H 505.233 2.27433 2.34397 0
M  V30 5439 H 503.892 3.60312 0.676062 0
M  V30 5440 H 503.54 3.93801 3.12937 0
M  V30 5441 H 503.24 5.44039 2.22026 0
M  V30 5442 H 504.764 5.24195 3.13133 0
M  V30 5443 H 506.178 5.66206 0.899082 0
M  V30 5444 H 504.575 5.99821 0.182857 0
M  V30 5445 H 505.645 4.81324 -0.587821 0
M  V30 5446 N 506.988 0.0434614 1.5754 0
M  V30 5447 C 507.938 -0.943039 2.07583 0
M  V30 5448 C 508.922 -1.27662 0.979342 0
M  V30 5449 O 510.114 -1.26034 1.24276 0
M  V30 5450 C 507.243 -2.22056 2.61813 0
M  V30 5451 C 506.329 -1.91471 3.78417 0
M  V30 5452 N 506.72 -1.31214 4.88484 0
M  V30 5453 C 505.018 -2.21384 3.87176 0
M  V30 5454 C 505.719 -1.18084 5.69588 0
M  V30 5455 N 504.695 -1.68116 5.16951 0
M  V30 5456 H 508.497 -0.472354 2.90079 0
M  V30 5457 H 506.011 -0.161191 1.61598 0
M  V30 5458 H 508.008 -2.93618 2.95963 0
M  V30 5459 H 506.668 -2.69738 1.80752 0
M  V30 5460 H 507.679 -0.985318 5.08441 0
M  V30 5461 H 504.356 -2.7164 3.17046 0
M  V30 5462 H 505.746 -0.713684 6.68099 0
M  V30 5463 N 508.466 -1.55915 -0.229846 0
M  V30 5464 C 509.877 -1.68809 -0.797531 0
M  V30 5465 C 510.228 -0.643995 -1.8533 0
M  V30 5466 O 509.353 0.206492 -2.15413 0
M  V30 5467 C 509.948 -3.06043 -1.45338 0
M  V30 5468 C 508.507 -3.20819 -1.96856 0
M  V30 5469 C 507.654 -2.6472 -0.825736 0
M  V30 5470 H 510.605 -1.58699 -0.00533733 0
M  V30 5471 H 510.626 -3.01438 -2.32196 0
M  V30 5472 H 510.138 -3.82012 -0.684743 0
M  V30 5473 H 508.239 -2.49704 -2.76548 0
M  V30 5474 H 508.352 -4.27937 -2.15423 0
M  V30 5475 H 506.716 -2.22985 -1.23084 0
M  V30 5476 H 507.499 -3.43229 -0.0699019 0
M  V30 5477 N 509.944 0.496216 -1.49584 0
M  V30 5478 C 510.854 1.62352 -1.69349 0
M  V30 5479 C 511.87 1.64184 -0.576147 0
M  V30 5480 O 513.046 1.82517 -0.85144 0
M  V30 5481 C 510.111 2.98698 -1.76013 0
M  V30 5482 C 509.172 3.07454 -2.99617 0
M  V30 5483 C 508.405 4.37296 -3.05953 0
M  V30 5484 O 508.628 5.2637 -2.19752 0
M  V30 5485 O 507.562 4.51124 -3.9846 0
M  V30 5486 H 511.388 1.48606 -2.64859 0
M  V30 5487 H 508.973 0.673022 -1.33382 0
M  V30 5488 H 510.855 3.79725 -1.82721 0
M  V30 5489 H 509.53 3.12696 -0.836828 0
M  V30 5490 H 508.437 2.25597 -2.98424 0
M  V30 5491 H 509.77 2.98385 -3.91443 0
M  V30 5492 N 511.423 1.38739 0.74761 0
M  V30 5493 C 512.653 1.3832 1.53464 0
M  V30 5494 C 513.061 -0.0273464 1.8918 0
M  V30 5495 O 512.404 -1.00588 1.53713 0
M  V30 5496 C 512.466 2.18007 2.85855 0
M  V30 5497 C 512.13 3.66762 2.72644 0
M  V30 5498 C 513.127 4.60124 2.42037 0
M  V30 5499 C 510.812 4.10193 2.89909 0
M  V30 5500 C 512.806 5.94897 2.28859 0
M  V30 5501 C 510.493 5.45045 2.7635 0
M  V30 5502 C 511.491 6.37211 2.45869 0
M  V30 5503 O 511.179 7.69581 2.3238 0
M  V30 5504 H 510.911 0.474718 0.481268 0
M  V30 5505 H 513.465 1.83012 0.932518 0
M  V30 5506 H 511.695 1.68043 3.48279 0
M  V30 5507 H 513.384 2.09921 3.47402 0
M  V30 5508 H 514.15 4.27874 2.28361 0
M  V30 5509 H 510.029 3.38797 3.1263 0
M  V30 5510 H 513.573 6.66802 2.04989 0
M  V30 5511 H 509.47 5.76889 2.89601 0
M  V30 5512 H 510.238 7.80169 2.47546 0
M  V30 5513 N 512.901 -0.976442 1.23707 0
M  V30 5514 C 514.317 -1.24341 1.00058 0
M  V30 5515 C 514.517 -1.99315 -0.295932 0
M  V30 5516 O 513.573 -2.3123 -1.01435 0
M  V30 5517 C 514.886 -2.03909 2.21001 0
M  V30 5518 C 516.434 -2.17034 2.25534 0
M  V30 5519 C 516.909 -2.99994 3.46075 0
M  V30 5520 N 518.4 -3.07578 3.46338 0
M  V30 5521 C 519.135 -3.72104 4.36264 0
M  V30 5522 N 518.631 -4.3842 5.36432 0
M  V30 5523 N 520.424 -3.69029 4.23998 0
M  V30 5524 H 512.575 -0.47428 2.07037 0
M  V30 5525 H 514.838 -0.272167 0.908091 0
M  V30 5526 H 514.544 -1.56198 3.15111 0
M  V30 5527 H 514.418 -3.04654 2.22409 0
M  V30 5528 H 516.805 -2.63951 1.31961 0
M  V30 5529 H 516.886 -1.15664 2.28156 0
M  V30 5530 H 516.53 -2.53772 4.39957 0
M  V30 5531 H 516.46 -4.01541 3.40694 0
M  V30 5532 H 518.951 -2.60397 2.73865 0
M  V30 5533 H 519.264 -4.85447 6.013 0
M  V30 5534 H 517.609 -4.37116 5.40328 0
M  V30 5535 H 520.8 -3.16392 3.44984 0
M  V30 5536 H 520.973 -4.19034 4.94282 0
M  V30 5537 N 514.379 -1.04941 -1.1758 0
M  V30 5538 C 515.607 -0.778294 -1.91703 0
M  V30 5539 C 516.022 0.665697 -1.76675 0
M  V30 5540 O 515.379 1.45456 -1.10222 0
M  V30 5541 C 515.43 -1.14628 -3.42845 0
M  V30 5542 O 515.151 -2.53359 -3.57409 0
M  V30 5543 C 516.652 -0.900931 -4.34049 0
M  V30 5544 H 513.872 -0.283167 -0.608323 0
M  V30 5545 H 516.416 -1.39942 -1.49119 0
M  V30 5546 H 514.571 -0.569953 -3.83184 0
M  V30 5547 H 514.985 -2.67709 -4.51035 0
M  V30 5548 H 516.459 -1.20817 -5.38616 0
M  V30 5549 H 516.936 0.163966 -4.38894 0
M  V30 5550 H 517.542 -1.46097 -3.99419 0
M  V30 5551 N 515.857 1.33968 -0.830081 0
M  V30 5552 C 516.787 2.31911 -0.271911 0
M  V30 5553 C 517.768 1.58571 0.61556 0
M  V30 5554 O 518.953 1.86514 0.540946 0
M  V30 5555 C 516.083 3.42737 0.561146 0
M  V30 5556 C 515.037 4.27383 -0.229789 0
M  V30 5557 C 514.363 5.29742 0.726463 0
M  V30 5558 C 515.663 5.02 -1.44197 0
M  V30 5559 H 517.357 2.78844 -1.09025 0
M  V30 5560 H 514.903 1.34061 -0.52571 0
M  V30 5561 H 516.856 4.10276 0.961867 0
M  V30 5562 H 515.58 2.94471 1.41261 0
M  V30 5563 H 514.239 3.61456 -0.611964 0
M  V30 5564 H 513.887 4.77736 1.57408 0
M  V30 5565 H 513.587 5.87255 0.20142 0
M  V30 5566 H 515.111 6.00149 1.12489 0
M  V30 5567 H 516.525 5.62355 -1.11488 0
M  V30 5568 H 514.922 5.69122 -1.90317 0
M  V30 5569 H 515.992 4.31281 -2.2164 0
M  V30 5570 N 517.335 0.585699 1.46312 0
M  V30 5571 C 518.746 0.159938 1.86014 0
M  V30 5572 C 519.097 -1.27775 1.48889 0
M  V30 5573 O 518.222 -1.96559 0.90519 0
M  V30 5574 C 518.817 0.283485 3.37612 0
M  V30 5575 C 517.376 -0.0874256 3.76298 0
M  V30 5576 C 516.523 0.618055 2.70325 0
M  V30 5577 H 519.474 0.793737 1.37425 0
M  V30 5578 H 519.495 -0.490348 3.77327 0
M  V30 5579 H 519.007 1.32995 3.64601 0
M  V30 5580 H 517.108 -1.13391 3.54927 0
M  V30 5581 H 517.221 0.290975 4.78216 0
M  V30 5582 H 515.585 0.057993 2.54634 0
M  V30 5583 H 516.368 1.66623 3.00153 0
M  V30 5584 N 518.813 -1.54241 0.323641 0
M  V30 5585 C 519.746 -2.20579 -0.584833 0
M  V30 5586 C 520.724 -1.18286 -1.11567 0
M  V30 5587 O 521.908 -1.47025 -1.17966 0
M  V30 5588 C 519.035 -2.86754 -1.80249 0
M  V30 5589 C 518.081 -4.02767 -1.4029 0
M  V30 5590 S 518.914 -5.33693 -0.439539 0
M  V30 5591 C 520.07 -6.03362 -1.66448 0
M  V30 5592 H 520.303 -2.97292 -0.0213238 0
M  V30 5593 H 517.836 -1.54024 0.107726 0
M  V30 5594 H 519.794 -3.25503 -2.50116 0
M  V30 5595 H 518.455 -2.09844 -2.33719 0
M  V30 5596 H 517.648 -4.47933 -2.31024 0
M  V30 5597 H 517.25 -3.65692 -0.783928 0
M  V30 5598 H 519.542 -6.25546 -2.6019 0
M  V30 5599 H 520.485 -6.9689 -1.25498 0
M  V30 5600 H 520.893 -5.33273 -1.85149 0
M  V30 5601 N 520.291 -0.0518155 -1.57515 0
M  V30 5602 C 521.537 0.622745 -1.93002 0
M  V30 5603 C 521.87 1.70456 -0.930499 0
M  V30 5604 O 521.145 1.94452 0.0434086 0
M  V30 5605 C 521.428 1.21824 -3.38867 0
M  V30 5606 C 521.281 0.144434 -4.49568 0
M  V30 5607 C 522.6 2.12968 -3.8514 0
M  V30 5608 H 519.719 0.22491 -0.701844 0
M  V30 5609 H 522.361 -0.113711 -1.89659 0
M  V30 5610 H 520.511 1.8459 -3.41846 0
M  V30 5611 H 522.183 -0.48753 -4.58717 0
M  V30 5612 H 520.426 -0.527424 -4.30582 0
M  V30 5613 H 521.097 0.601127 -5.48717 0
M  V30 5614 H 523.573 1.60163 -3.8404 0
M  V30 5615 H 522.449 2.51578 -4.87852 0
M  V30 5616 H 522.71 3.03004 -3.21934 0
M  V30 5617 N 521.769 1.56035 0.221574 0
M  V30 5618 C 523.015 1.80221 0.942973 0
M  V30 5619 C 523.37 0.624799 1.81973 0
M  V30 5620 O 522.663 -0.381145 1.87771 0
M  V30 5621 C 522.857 3.07813 1.8162 0
M  V30 5622 C 522.686 4.37852 1.02548 0
M  V30 5623 C 521.456 5.00138 0.720418 0
M  V30 5624 C 523.654 5.12813 0.390799 0
M  V30 5625 N 521.636 6.13831 -0.0917139 0
M  V30 5626 C 523.007 6.19346 -0.284728 0
M  V30 5627 C 525.062 4.96972 0.303828 0
M  V30 5628 C 523.765 7.11758 -1.03891 0
M  V30 5629 C 525.791 5.89784 -0.436883 0
M  V30 5630 C 525.153 6.95743 -1.10095 0
M  V30 5631 H 521.252 0.711117 0.325325 0
M  V30 5632 H 523.836 1.93522 0.213854 0
M  V30 5633 H 522.007 2.95795 2.51714 0
M  V30 5634 H 523.739 3.20191 2.47508 0
M  V30 5635 H 520.494 4.62075 1.03843 0
M  V30 5636 H 520.918 6.75249 -0.486615 0
M  V30 5637 H 525.56 4.15107 0.802896 0
M  V30 5638 H 523.278 7.93105 -1.54949 0
M  V30 5639 H 526.864 5.79603 -0.505181 0
M  V30 5640 H 525.744 7.66322 -1.66495 0
M  V30 5641 N 523.247 -0.488276 1.49845 0
M  V30 5642 C 524.477 -1.26344 1.63465 0
M  V30 5643 C 524.885 -1.86637 0.310379 0
M  V30 5644 O 524.228 -1.69184 -0.715712 0
M  V30 5645 C 524.29 -2.42407 2.65479 0
M  V30 5646 C 523.954 -2.02886 4.09495 0
M  V30 5647 C 524.951 -1.56124 4.95904 0
M  V30 5648 C 522.636 -2.12131 4.55308 0
M  V30 5649 C 524.63 -1.19129 6.26169 0
M  V30 5650 C 522.317 -1.74747 5.85582 0
M  V30 5651 C 523.315 -1.28322 6.70837 0
M  V30 5652 O 523.003 -0.914491 7.98682 0
M  V30 5653 H 522.735 -0.388921 0.552916 0
M  V30 5654 H 525.289 -0.591288 1.96705 0
M  V30 5655 H 523.519 -3.12739 2.27445 0
M  V30 5656 H 525.208 -3.04409 2.68495 0
M  V30 5657 H 525.974 -1.48417 4.61733 0
M  V30 5658 H 521.853 -2.47217 3.89107 0
M  V30 5659 H 525.397 -0.828211 6.92666 0
M  V30 5660 H 521.294 -1.82109 6.19279 0
M  V30 5661 H 522.062 -1.04485 8.11804 0
M  V30 5662 N 524.725 -1.39134 -0.740242 0
M  V30 5663 C 525.971 -1.36273 -1.50192 0
M  V30 5664 C 526.304 0.0430136 -1.94152 0
M  V30 5665 O 525.579 1.00691 -1.66408 0
M  V30 5666 C 525.862 -2.33041 -2.74525 0
M  V30 5667 C 525.715 -3.82535 -2.36617 0
M  V30 5668 C 527.034 -2.27723 -3.76604 0
M  V30 5669 H 524.153 -0.496323 -0.544823 0
M  V30 5670 H 526.795 -1.70085 -0.846815 0
M  V30 5671 H 524.945 -2.04337 -3.30422 0
M  V30 5672 H 526.617 -4.21967 -1.86391 0
M  V30 5673 H 524.86 -3.99565 -1.68909 0
M  V30 5674 H 525.531 -4.45723 -3.2563 0
M  V30 5675 H 528.007 -2.53091 -3.30279 0
M  V30 5676 H 526.883 -2.97519 -4.61274 0
M  V30 5677 H 527.144 -1.28049 -4.2315 0
M  V30 5678 N 526.204 0.969867 -1.24223 0
M  V30 5679 C 527.615 1.52717 -1.07399 0
M  V30 5680 C 527.966 1.92956 0.355298 0
M  V30 5681 O 527.091 1.77112 1.2434 0
M  V30 5682 C 527.686 2.77521 -1.94339 0
M  V30 5683 C 526.245 3.29615 -1.81744 0
M  V30 5684 C 525.392 2.02537 -1.89405 0
M  V30 5685 H 528.343 0.788399 -1.37732 0
M  V30 5686 H 528.364 3.50773 -1.47439 0
M  V30 5687 H 527.876 2.48203 -2.98357 0
M  V30 5688 H 525.977 3.63789 -0.805505 0
M  V30 5689 H 526.09 3.98661 -2.65718 0
M  V30 5690 H 524.454 2.17151 -1.33108 0
M  V30 5691 H 525.237 1.75587 -2.94999 0
M  V30 5692 N 527.682 1.05563 1.17022 0
M  V30 5693 C 529.093 0.793475 1.69 0
M  V30 5694 C 529.444 -0.683882 1.83895 0
M  V30 5695 O 528.569 -1.53116 1.5292 0
M  V30 5696 C 529.164 1.43376 3.06967 0
M  V30 5697 C 527.723 1.21956 3.56095 0
M  V30 5698 C 526.87 1.51494 2.3226 0
M  V30 5699 H 529.821 1.22008 1.01487 0
M  V30 5700 H 529.842 0.845068 3.70997 0
M  V30 5701 H 529.354 2.50899 2.96093 0
M  V30 5702 H 527.455 0.163749 3.7224 0
M  V30 5703 H 527.568 1.92713 4.38633 0
M  V30 5704 H 525.932 0.935175 2.3691 0
M  V30 5705 H 526.715 2.60159 2.23992 0
M  V30 5706 N 529.16 -1.33526 0.837174 0
M  V30 5707 C 530.09 -2.31764 0.284206 0
M  V30 5708 C 531.071 -1.58896 -0.607142 0
M  V30 5709 O 532.256 -1.86798 -0.531047 0
M  V30 5710 C 529.386 -3.43029 -0.542962 0
M  V30 5711 C 528.34 -4.27255 0.252451 0
M  V30 5712 C 527.666 -5.3012 -0.69836 0
M  V30 5713 C 528.966 -5.01229 1.46858 0
M  V30 5714 H 530.66 -2.78262 1.10502 0
M  V30 5715 H 528.206 -1.3378 0.532812 0
M  V30 5716 H 530.159 -4.1078 -0.940096 0
M  V30 5717 H 528.883 -2.95216 -1.39697 0
M  V30 5718 H 527.542 -3.61127 0.631124 0
M  V30 5719 H 527.19 -4.78564 -1.54872 0
M  V30 5720 H 526.89 -5.87353 -0.170274 0
M  V30 5721 H 528.414 -6.00737 -1.09305 0
M  V30 5722 H 529.828 -5.61756 1.14469 0
M  V30 5723 H 528.225 -5.68104 1.93333 0
M  V30 5724 H 529.295 -4.301 2.23924 0
M  V30 5725 N 530.638 -0.59345 -1.46 0
M  V30 5726 C 531.863 -0.0872365 -2.07216 0
M  V30 5727 C 532.288 1.2131 -1.43755 0
M  V30 5728 O 531.646 1.73528 -0.525152 0
M  V30 5729 C 531.694 0.0538197 -3.6056 0
M  V30 5730 O 530.798 1.10765 -3.97247 0
M  V30 5731 H 530.139 -0.0676598 -0.660544 0
M  V30 5732 H 532.669 -0.819445 -1.87473 0
M  V30 5733 H 532.679 0.256567 -4.07193 0
M  V30 5734 H 531.354 -0.895739 -4.0614 0
M  V30 5735 H 529.931 0.882501 -3.62307 0
M  V30 5736 N 532.116 1.54067 -0.331816 0
M  V30 5737 C 533.527 1.86059 0.15454 0
M  V30 5738 C 533.878 1.25331 1.50952 0
M  V30 5739 O 533.003 0.562441 2.08963 0
M  V30 5740 C 533.598 3.37581 0.287192 0
M  V30 5741 C 532.157 3.69493 0.717773 0
M  V30 5742 C 531.304 2.76863 -0.155569 0
M  V30 5743 H 534.255 1.48797 -0.55182 0
M  V30 5744 H 534.276 3.63744 1.11671 0
M  V30 5745 H 533.788 3.81751 -0.699131 0
M  V30 5746 H 531.889 3.3086 1.71354 0
M  V30 5747 H 532.002 4.76315 0.5158 0
M  V30 5748 H 530.366 2.51995 0.370213 0
M  V30 5749 H 531.149 3.23861 -1.13881 0
M  V30 5750 N 533.594 0.0601682 1.57485 0
M  V30 5751 C 534.843 -0.611101 1.9222 0
M  V30 5752 C 535.156 -1.71469 0.941159 0
M  V30 5753 O 536.362 -2.44473 1.18089 0
M  V30 5754 C 534.818 -1.13832 3.41424 0
M  V30 5755 C 534.426 -0.0663596 4.47951 0
M  V30 5756 C 536.17 -1.78432 3.85178 0
M  V30 5757 C 534.077 -0.606965 5.88277 0
M  V30 5758 H 533.007 -0.232033 0.71741 0
M  V30 5759 H 535.658 0.130518 1.83035 0
M  V30 5760 H 534.04 -1.93254 3.45643 0
M  V30 5761 H 535.214 0.707682 4.55333 0
M  V30 5762 H 533.529 0.482715 4.13593 0
M  V30 5763 H 536.126 -2.1989 4.87394 0
M  V30 5764 H 536.469 -2.63966 3.21913 0
M  V30 5765 H 537.002 -1.05651 3.83514 0
M  V30 5766 H 533.741 0.21095 6.5516 0
M  V30 5767 H 533.261 -1.34879 5.84438 0
M  V30 5768 H 534.94 -1.08704 6.37803 0
M  V30 5769 N 535.072 -1.5615 -0.213296 0
M  V30 5770 C 536.004 -1.89586 -1.28802 0
M  V30 5771 C 537.017 -0.784844 -1.42633 0
M  V30 5772 O 538.206 -1.06319 -1.43383 0
M  V30 5773 C 535.306 -2.09665 -2.66259 0
M  V30 5774 C 534.479 -3.40726 -2.7427 0
M  V30 5775 C 533.538 -3.50137 -3.92798 0
M  V30 5776 O 532.564 -4.23105 -3.8075 0
M  V30 5777 N 533.766 -2.81886 -5.07465 0
M  V30 5778 H 536.531 -2.82368 -1.00442 0
M  V30 5779 H 534.092 -1.56796 -0.403302 0
M  V30 5780 H 536.084 -2.13268 -3.43946 0
M  V30 5781 H 534.654 -1.23469 -2.87183 0
M  V30 5782 H 533.874 -3.4915 -1.82997 0
M  V30 5783 H 535.162 -4.27048 -2.76599 0
M  V30 5784 H 534.56 -2.22397 -5.2015 0
M  V30 5785 H 533.117 -2.91139 -5.83165 0
M  V30 5786 N 536.55 0.480323 -1.50102 0
M  V30 5787 C 537.775 1.26126 -1.64642 0
M  V30 5788 C 538.2 1.85257 -0.325823 0
M  V30 5789 O 537.558 1.66854 0.709194 0
M  V30 5790 C 537.606 2.35243 -2.73301 0
M  V30 5791 O 536.71 3.39646 -2.33911 0
M  V30 5792 H 536.051 0.371463 -0.550374 0
M  V30 5793 H 538.581 0.572696 -1.96421 0
M  V30 5794 H 538.591 2.80695 -2.96098 0
M  V30 5795 H 537.266 1.91574 -3.6915 0
M  V30 5796 H 535.843 2.99969 -2.21525 0
M  V30 5797 N 538.028 1.39524 0.732853 0
M  V30 5798 C 538.991 1.38189 1.82857 0
M  V30 5799 C 539.991 0.278624 1.58368 0
M  V30 5800 O 541.181 0.536639 1.65728 0
M  V30 5801 C 538.313 1.15661 3.2068 0
M  V30 5802 H 539.506 2.35692 1.85444 0
M  V30 5803 H 537.059 1.2512 0.936728 0
M  V30 5804 H 537.794 0.188482 3.23752 0
M  V30 5805 H 537.579 1.95559 3.39852 0
M  V30 5806 H 539.069 1.17472 4.00737 0
M  V30 5807 N 539.506 -0.963266 1.24736 0
M  V30 5808 C 540.469 -2.04013 1.04457 0
M  V30 5809 C 541.469 -1.608 0.000335555 0
M  V30 5810 O 542.659 -1.72515 0.241719 0
M  V30 5811 C 539.791 -3.35858 0.584162 0
M  V30 5812 H 540.984 -2.23436 2.00041 0
M  V30 5813 H 538.537 -1.13914 1.07021 0
M  V30 5814 H 539.272 -3.22128 -0.374673 0
M  V30 5815 H 539.057 -3.68568 1.3379 0
M  V30 5816 H 540.547 -4.1502 0.463451 0
M  V30 5817 N 540.985 -1.06182 -1.16461 0
M  V30 5818 C 542.262 -0.691364 -1.82974 0
M  V30 5819 C 542.642 0.827377 -1.9421 0
M  V30 5820 O 541.99 1.73723 -1.48434 0
M  V30 5821 C 542.2 -1.39199 -3.20038 0
M  V30 5822 C 543.548 -1.53647 -3.95825 0
M  V30 5823 O 544.572 -1.35181 -3.29552 0
M  V30 5824 O 543.431 -1.83932 -5.14618 0
M  V30 5825 H 540.525 -0.244605 -0.789998 0
M  V30 5826 H 543.071 -1.16203 -1.23673 0
M  V30 5827 H 541.843 -2.42766 -3.06888 0
M  V30 5828 H 541.466 -0.911335 -3.87015 0
M  V30 5829 N 542.463 1.3308 -0.844243 0
M  V30 5830 C 543.426 2.27403 -0.286485 0
M  V30 5831 C 544.426 1.51179 0.547872 0
M  V30 5832 O 545.616 1.70421 0.360886 0
M  V30 5833 C 542.748 3.35653 0.595813 0
M  V30 5834 H 543.941 2.78248 -1.11885 0
M  V30 5835 H 541.494 1.43574 -0.617749 0
M  V30 5836 H 542.229 2.90058 1.4504 0
M  V30 5837 H 542.014 3.921 -0.00125994 0
M  V30 5838 H 543.504 4.05958 0.979168 0
M  V30 5839 N 543.941 0.601185 1.45683 0
M  V30 5840 C 545.189 0.0936957 2.01883 0
M  V30 5841 C 545.51 -1.2779 1.47291 0
M  V30 5842 O 544.78 -1.84279 0.664691 0
M  V30 5843 H 543.36 0.0316466 0.746329 0
M  V30 5844 H 546.022 0.781137 1.78562 0
M  V30 5845 H 545.118 0.0386297 3.12076 0
M  V30 5846 N 545.419 -1.53889 0.339982 0
M  V30 5847 C 546.329 -2.28604 -0.526988 0
M  V30 5848 C 547.345 -1.33578 -1.11503 0
M  V30 5849 O 548.521 -1.66612 -1.13148 0
M  V30 5850 C 545.586 -3.04164 -1.66389 0
M  V30 5851 C 544.647 -4.14809 -1.10599 0
M  V30 5852 C 543.88 -4.86756 -2.18871 0
M  V30 5853 O 544.103 -4.58343 -3.39526 0
M  V30 5854 O 543.037 -5.73289 -1.83366 0
M  V30 5855 H 546.863 -3.03594 0.0802707 0
M  V30 5856 H 544.448 -1.4903 0.105141 0
M  V30 5857 H 546.33 -3.51427 -2.32544 0
M  V30 5858 H 545.005 -2.32035 -2.25703 0
M  V30 5859 H 543.912 -3.71857 -0.409067 0
M  V30 5860 H 545.245 -4.89029 -0.557771 0
M  V30 5861 N 546.897 -0.0685191 -1.57451 0
M  V30 5862 C 547.827 0.89747 -2.15564 0
M  V30 5863 C 548.808 1.31266 -1.08181 0
M  V30 5864 O 549.993 1.38429 -1.36202 0
M  V30 5865 C 547.123 2.16623 -2.71463 0
M  V30 5866 C 546.077 1.89054 -3.83982 0
M  V30 5867 C 545.403 3.22532 -4.26471 0
M  V30 5868 C 546.703 1.1984 -5.08366 0
M  V30 5869 H 548.397 0.413373 -2.96533 0
M  V30 5870 H 545.943 0.197391 -1.42641 0
M  V30 5871 H 547.896 2.84614 -3.10761 0
M  V30 5872 H 546.62 2.67269 -1.8771 0
M  V30 5873 H 545.279 1.23469 -3.45183 0
M  V30 5874 H 544.927 3.71013 -3.39644 0
M  V30 5875 H 544.627 3.04879 -5.02317 0
M  V30 5876 H 546.151 3.91727 -4.68383 0
M  V30 5877 H 547.565 1.77896 -5.45001 0
M  V30 5878 H 545.962 1.12456 -5.89469 0
M  V30 5879 H 547.032 0.176996 -4.84577 0
M  V30 5880 N 548.375 1.56261 0.205012 0
M  V30 5881 C 549.623 1.79684 0.925096 0
M  V30 5882 C 549.944 0.63989 1.84202 0
M  V30 5883 O 549.214 -0.342345 1.92885 0
M  V30 5884 H 547.794 0.662774 0.344587 0
M  V30 5885 H 550.456 1.93734 0.212899 0
M  V30 5886 H 549.552 2.72467 1.52211 0
M  V30 5887 N 549.853 -0.472356 1.50355 0
M  V30 5888 C 551.078 -1.25251 1.65309 0
M  V30 5889 C 551.503 -1.85081 0.335643 0
M  V30 5890 O 550.861 -1.67227 -0.700335 0
M  V30 5891 C 550.909 -2.3379 2.74544 0
M  V30 5892 O 550.013 -3.38401 2.35709 0
M  V30 5893 H 549.354 -0.368539 0.552336 0
M  V30 5894 H 551.884 -0.562271 1.96722 0
M  V30 5895 H 551.894 -2.79121 2.97583 0
M  V30 5896 H 550.569 -1.89614 3.70161 0
M  V30 5897 H 549.146 -2.9879 2.23112 0
M  V30 5898 N 551.331 -1.39911 -0.725443 0
M  V30 5899 C 552.279 -1.39552 -1.86086 0
M  V30 5900 C 553.273 -0.277334 -1.67114 0
M  V30 5901 O 554.479 -0.447865 -1.74339 0
M  V30 5902 H 550.854 -0.435993 -0.612711 0
M  V30 5903 H 552.825 -2.35305 -1.83505 0
M  V30 5904 C 551.574 -1.26529 -3.2386 0
M  V30 5905 H 550.897 -2.11845 -3.3906 0
M  V30 5906 H 552.337 -1.30336 -4.03471 0
M  V30 5907 C 550.796 0.0254168 -3.3689 0
M  V30 5908 O 551.326 0.992048 -3.89257 0
M  V30 5909 N 549.532 0.0916528 -2.90455 0
M  V30 5910 H 549.079 -0.695675 -2.48028 0
M  V30 5911 H 549.037 0.954745 -2.99553 0
M  V30 5912 N 552.809 0.956637 -1.25245 0
M  V30 5913 C 554.057 1.69764 -1.09657 0
M  V30 5914 C 554.378 1.91583 0.363464 0
M  V30 5915 O 553.648 1.50149 1.25825 0
M  V30 5916 H 552.228 0.629097 -0.402798 0
M  V30 5917 H 554.89 1.15026 -1.57337 0
M  V30 5918 H 553.986 2.67769 -1.60331 0
M  V30 5919 N 554.287 1.06798 1.15896 0
M  V30 5920 C 555.536 0.782796 1.8589 0
M  V30 5921 C 555.849 -0.693498 1.82893 0
M  V30 5922 O 557.055 -1.09325 2.48516 0
M  V30 5923 C 555.511 1.3502 3.33613 0
M  V30 5924 C 555.119 2.8571 3.45071 0
M  V30 5925 C 556.863 1.14278 4.08829 0
M  V30 5926 C 554.77 3.35669 4.86909 0
M  V30 5927 H 553.7 0.289149 0.696354 0
M  V30 5928 H 556.351 1.28734 1.30766 0
M  V30 5929 H 554.733 0.773407 3.88374 0
M  V30 5930 H 555.907 3.49385 3.00445 0
M  V30 5931 H 554.222 3.05178 2.83294 0
M  V30 5932 H 556.819 1.49087 5.13495 0
M  V30 5933 H 557.162 0.0814575 4.1622 0
M  V30 5934 H 557.695 1.68563 3.60321 0
M  V30 5935 H 554.434 4.41302 4.84698 0
M  V30 5936 H 553.954 2.76745 5.32139 0
M  V30 5937 H 555.633 3.31296 5.55745 0
M  V30 5938 N 555.766 -1.3263 0.851289 0
M  V30 5939 C 556.696 -2.31449 0.308771 0
M  V30 5940 C 557.677 -1.59531 -0.590255 0
M  V30 5941 O 558.862 -1.87351 -0.511205 0
M  V30 5942 C 555.992 -3.43586 -0.506548 0
M  V30 5943 C 554.946 -4.26963 0.297753 0
M  V30 5944 C 554.272 -5.30831 -0.642094 0
M  V30 5945 C 555.572 -4.99643 1.52166 0
M  V30 5946 H 557.266 -2.77074 1.13447 0
M  V30 5947 H 554.812 -1.33207 0.546971 0
M  V30 5948 H 556.765 -4.11754 -0.896474 0
M  V30 5949 H 555.489 -2.96681 -1.36558 0
M  V30 5950 H 554.148 -3.60437 0.669391 0
M  V30 5951 H 553.796 -4.8018 -1.49788 0
M  V30 5952 H 553.496 -5.87501 -0.107968 0
M  V30 5953 H 555.02 -6.01862 -1.02927 0
M  V30 5954 H 556.434 -5.6051 1.20421 0
M  V30 5955 H 554.831 -5.66022 1.99347 0
M  V30 5956 H 555.901 -4.27701 2.28474 0
M  V30 5957 N 557.244 -0.608902 -1.45362 0
M  V30 5958 C 558.655 -0.189511 -1.85736 0
M  V30 5959 C 559.006 1.2539 -1.50903 0
M  V30 5960 O 558.131 1.95094 -0.936347 0
M  V30 5961 C 558.726 -0.33716 -3.37118 0
M  V30 5962 C 557.285 0.0275487 -3.7639 0
M  V30 5963 C 556.432 -0.660983 -2.69307 0
M  V30 5964 H 559.383 -0.815499 -1.36144 0
M  V30 5965 H 559.404 0.430257 -3.7806 0
M  V30 5966 H 558.916 -1.38779 -3.62439 0
M  V30 5967 H 557.017 1.0773 -3.56686 0
M  V30 5968 H 557.13 -0.367018 -4.77692 0
M  V30 5969 H 555.494 -0.0984958 -2.54509 0
M  V30 5970 H 556.277 -1.71377 -2.97464 0
M  V30 5971 N 558.722 1.53707 -0.348139 0
M  V30 5972 C 559.999 1.93247 0.302475 0
M  V30 5973 C 560.379 1.28012 1.67857 0
M  V30 5974 O 559.727 0.43274 2.24365 0
M  V30 5975 C 559.937 3.47031 0.370159 0
M  V30 5976 C 561.285 4.20066 0.61882 0
M  V30 5977 O 562.309 3.53319 0.452087 0
M  V30 5978 O 561.168 5.38318 0.94215 0
M  V30 5979 H 558.262 0.807736 0.177458 0
M  V30 5980 H 560.808 1.64927 -0.399651 0
M  V30 5981 H 559.58 3.86745 -0.59534 0
M  V30 5982 H 559.203 3.81532 1.11888 0
M  V30 5983 N 560.2 0.0768682 1.57412 0
M  V30 5984 C 561.446 -0.591961 1.93968 0
M  V30 5985 C 561.779 -1.68954 0.9575 0
M  V30 5986 O 561.054 -1.94496 -0.0124675 0
M  V30 5987 C 561.337 -1.16418 3.40762 0
M  V30 5988 C 561.19 -0.0728933 4.49741 0
M  V30 5989 C 562.509 -2.06814 3.88479 0
M  V30 5990 H 559.628 -0.213716 0.705333 0
M  V30 5991 H 562.27 0.14387 1.89455 0
M  V30 5992 H 560.42 -1.79128 3.4474 0
M  V30 5993 H 562.092 0.560446 4.57883 0
M  V30 5994 H 560.335 0.595859 4.29688 0
M  V30 5995 H 561.006 -0.513755 5.49604 0
M  V30 5996 H 563.482 -1.54033 3.8654 0
M  V30 5997 H 562.358 -2.43785 4.91793 0
M  V30 5998 H 562.619 -2.97844 3.26713 0
M  V30 5999 N 561.678 -1.56367 -0.196722 0
M  V30 6000 C 562.588 -1.97617 -1.2643 0
M  V30 6001 C 563.604 -0.883598 -1.49895 0
M  V30 6002 O 564.78 -1.18921 -1.62541 0
M  V30 6003 C 561.845 -2.30595 -2.58895 0
M  V30 6004 C 560.906 -3.53551 -2.43516 0
M  V30 6005 C 560.139 -3.84946 -3.69665 0
M  V30 6006 O 560.362 -3.17655 -4.73763 0
M  V30 6007 O 559.296 -4.78379 -3.65291 0
M  V30 6008 H 563.122 -2.88648 -0.944233 0
M  V30 6009 H 560.707 -1.43901 -0.401592 0
M  V30 6010 H 562.589 -2.52889 -3.37083 0
M  V30 6011 H 561.264 -1.42732 -2.90533 0
M  V30 6012 H 560.171 -3.36507 -1.63445 0
M  V30 6013 H 561.504 -4.41875 -2.16812 0
M  V30 6014 N 563.156 0.464375 -1.50603 0
M  V30 6015 C 564.381 1.24372 -1.65971 0
M  V30 6016 C 564.806 1.84901 -0.345453 0
M  V30 6017 O 564.164 1.67596 0.691457 0
M  V30 6018 C 564.212 2.32331 -2.7578 0
M  V30 6019 O 563.316 3.37146 -2.375 0
M  V30 6020 H 562.657 0.365604 -0.554283 0
M  V30 6021 H 565.187 0.55183 -1.97018 0
M  V30 6022 H 565.197 2.77539 -2.99059 0
M  V30 6023 H 563.872 1.87648 -3.71162 0
M  V30 6024 H 562.449 2.97602 -2.24694 0
M  V30 6025 N 564.634 1.40294 0.718013 0
M  V30 6026 C 565.564 1.43118 1.84498 0
M  V30 6027 C 566.545 0.292403 1.67568 0
M  V30 6028 O 567.73 0.500675 1.87635 0
M  V30 6029 C 564.86 1.29065 3.22427 0
M  V30 6030 C 563.814 2.40521 3.54025 0
M  V30 6031 C 563.14 2.11546 4.91073 0
M  V30 6032 C 564.44 3.82859 3.55269 0
M  V30 6033 H 566.134 2.37432 1.82391 0
M  V30 6034 H 563.68 1.14283 0.87609 0
M  V30 6035 H 565.633 1.29658 4.00957 0
M  V30 6036 H 564.357 0.312271 3.25104 0
M  V30 6037 H 563.016 2.39173 2.77834 0
M  V30 6038 H 562.664 1.12104 4.90348 0
M  V30 6039 H 562.364 2.86216 5.1318 0
M  V30 6040 H 563.888 2.13817 5.71939 0
M  V30 6041 H 565.302 3.86044 4.23843 0
M  V30 6042 H 563.699 4.57029 3.88902 0
M  V30 6043 H 564.769 4.12617 2.54706 0
M  V30 6044 N 566.112 -0.949982 1.2575 0
M  V30 6045 C 567.528 -1.22191 1.02672 0
M  V30 6046 C 567.728 -1.99898 -0.253588 0
M  V30 6047 O 566.784 -2.33329 -0.965076 0
M  V30 6048 C 568.097 -1.99175 2.25277 0
M  V30 6049 C 569.645 -2.12201 2.30087 0
M  V30 6050 C 570.12 -2.92586 3.5236 0
M  V30 6051 N 571.611 -3.00163 3.52784 0
M  V30 6052 C 572.346 -3.62766 4.44059 0
M  V30 6053 N 571.842 -4.26943 5.45611 0
M  V30 6054 N 573.635 -3.59953 4.3173 0
M  V30 6055 H 565.786 -0.430258 2.07996 0
M  V30 6056 H 568.049 -0.252844 0.91366 0
M  V30 6057 H 567.755 -1.49479 3.18354 0
M  V30 6058 H 567.629 -2.99868 2.28821 0
M  V30 6059 H 570.016 -2.61093 1.3753 0
M  V30 6060 H 570.097 -1.10799 2.30559 0
M  V30 6061 H 569.741 -2.44383 4.45241 0
M  V30 6062 H 569.671 -3.94224 3.49134 0
M  V30 6063 H 572.162 -2.54529 2.79327 0
M  V30 6064 H 572.475 -4.72583 6.11461 0
M  V30 6065 H 570.82 -4.25557 5.49478 0
M  V30 6066 H 574.011 -3.09003 3.51617 0
M  V30 6067 H 574.184 -4.08455 5.03059 0
M  V30 6068 N 567.59 -1.07411 -1.15328 0
M  V30 6069 C 568.839 -0.792643 -1.85473 0
M  V30 6070 C 569.152 0.683789 -1.83259 0
M  V30 6071 O 570.358 1.08005 -2.49093 0
M  V30 6072 C 568.814 -1.36787 -3.32892 0
M  V30 6073 C 568.422 -2.87536 -3.43551 0
M  V30 6074 C 570.166 -1.16444 -4.08217 0
M  V30 6075 C 568.073 -3.38247 -4.85122 0
M  V30 6076 H 567.003 -0.292838 -0.694811 0
M  V30 6077 H 569.654 -1.29426 -1.30082 0
M  V30 6078 H 568.036 -0.793993 -3.87958 0
M  V30 6079 H 569.21 -3.50973 -2.98588 0
M  V30 6080 H 567.525 -3.06676 -2.81672 0
M  V30 6081 H 570.122 -1.51808 -5.12697 0
M  V30 6082 H 570.465 -0.10353 -4.16171 0
M  V30 6083 H 570.998 -1.70472 -3.59422 0
M  V30 6084 H 567.737 -4.43866 -4.82351 0
M  V30 6085 H 567.257 -2.79564 -5.30664 0
M  V30 6086 H 568.936 -3.34238 -5.5398 0
M  V30 6087 N 569.068 1.32177 -0.85831 0
M  V30 6088 C 570.479 1.79381 -0.517621 0
M  V30 6089 C 570.83 1.70841 0.964769 0
M  V30 6090 O 569.955 1.26917 1.75274 0
M  V30 6091 C 570.55 3.25706 -0.932801 0
M  V30 6092 C 569.109 3.70851 -0.643953 0
M  V30 6093 C 568.256 2.53208 -1.13054 0
M  V30 6094 H 571.207 1.19424 -1.04516 0
M  V30 6095 H 571.228 3.79673 -0.250674 0
M  V30 6096 H 570.74 3.31889 -2.01174 0
M  V30 6097 H 568.841 3.70178 0.424112 0
M  V30 6098 H 568.954 4.63495 -1.21281 0
M  V30 6099 H 567.318 2.48676 -0.550679 0
M  V30 6100 H 568.101 2.62143 -2.21666 0
M  V30 6101 N 570.547 0.616602 1.45037 0
M  V30 6102 C 571.793 0.115501 2.02471 0
M  V30 6103 C 572.126 -1.25406 1.4828 0
M  V30 6104 O 571.401 -1.82922 0.661051 0
M  V30 6105 C 571.684 0.0863588 3.59996 0
M  V30 6106 C 571.537 1.48723 4.24501 0
M  V30 6107 C 572.856 -0.596762 4.36035 0
M  V30 6108 H 569.975 0.0434461 0.735718 0
M  V30 6109 H 572.617 0.7903 1.72784 0
M  V30 6110 H 570.767 -0.488277 3.85419 0
M  V30 6111 H 572.439 2.10964 4.10234 0
M  V30 6112 H 570.682 2.04534 3.82555 0
M  V30 6113 H 571.353 1.419 5.3345 0
M  V30 6114 H 573.829 -0.10824 4.15959 0
M  V30 6115 H 572.705 -0.586289 5.4576 0
M  V30 6116 H 572.966 -1.66451 4.09569 0
M  V30 6117 N 572.025 -1.5352 0.356285 0
M  V30 6118 C 572.957 -2.23009 -0.529127 0
M  V30 6119 C 573.97 -1.241 -1.05371 0
M  V30 6120 O 575.159 -1.50379 -0.961679 0
M  V30 6121 C 572.259 -2.90685 -1.74229 0
M  V30 6122 C 571.432 -4.16019 -1.35081 0
M  V30 6123 C 570.491 -4.66989 -2.42502 0
M  V30 6124 O 569.517 -5.30895 -2.05279 0
M  V30 6125 N 570.719 -4.44006 -3.7395 0
M  V30 6126 H 573.484 -2.99627 0.0660501 0
M  V30 6127 H 571.045 -1.60885 0.181014 0
M  V30 6128 H 573.037 -3.21695 -2.4555 0
M  V30 6129 H 571.607 -2.17575 -2.24454 0
M  V30 6130 H 570.827 -3.91414 -0.467833 0
M  V30 6131 H 572.115 -4.9752 -1.06542 0
M  V30 6132 H 571.513 -3.92924 -4.06973 0
M  V30 6133 H 570.07 -4.7959 -4.41403 0
M  V30 6134 N 573.503 -0.0852151 -1.57369 0
M  V30 6135 C 574.733 0.588605 -1.98038 0
M  V30 6136 C 575.141 1.62869 -0.962817 0
M  V30 6137 O 574.484 1.83611 0.057134 0
M  V30 6138 C 574.546 1.30303 -3.35054 0
M  V30 6139 C 574.21 0.414855 -4.55113 0
M  V30 6140 C 575.207 -0.333011 -5.18832 0
M  V30 6141 C 572.892 0.335804 -5.01176 0
M  V30 6142 C 574.886 -1.14801 -6.26976 0
M  V30 6143 C 572.573 -0.482857 -6.09189 0
M  V30 6144 C 573.571 -1.22342 -6.71953 0
M  V30 6145 O 573.259 -2.02855 -7.77885 0
M  V30 6146 H 572.991 0.163249 -0.655992 0
M  V30 6147 H 575.545 -0.1582 -2.0479 0
M  V30 6148 H 573.775 2.0962 -3.24956 0
M  V30 6149 H 575.464 1.87041 -3.60237 0
M  V30 6150 H 576.23 -0.281611 -4.84182 0
M  V30 6151 H 572.109 0.901869 -4.52092 0
M  V30 6152 H 575.653 -1.72654 -6.75897 0
M  V30 6153 H 571.55 -0.535773 -6.43273 0
M  V30 6154 H 572.318 -1.95432 -7.94826 0
M  V30 6155 N 574.981 1.5647 0.188427 0
M  V30 6156 C 575.911 1.98101 1.23606 0
M  V30 6157 C 576.892 0.853961 1.47111 0
M  V30 6158 O 578.077 1.11879 1.58735 0
M  V30 6159 C 575.207 2.32624 2.57882 0
M  V30 6160 C 574.161 3.48129 2.48978 0
M  V30 6161 C 573.487 3.68347 3.87588 0
M  V30 6162 C 574.787 4.82112 2.00911 0
M  V30 6163 H 576.481 2.85864 0.890068 0
M  V30 6164 H 574.027 1.37532 0.426714 0
M  V30 6165 H 575.98 2.60343 3.3136 0
M  V30 6166 H 574.704 1.41751 2.94235 0
M  V30 6167 H 573.363 3.20511 1.77956 0
M  V30 6168 H 573.011 2.74793 4.21305 0
M  V30 6169 H 572.711 4.46055 3.82503 0
M  V30 6170 H 574.235 3.98449 4.62678 0
M  V30 6171 H 575.649 5.08819 2.64151 0
M  V30 6172 H 574.046 5.63337 2.06814 0
M  V30 6173 H 575.116 4.75249 0.96262 0
M  V30 6174 N 576.459 -0.456382 1.50847 0
M  V30 6175 C 577.422 -1.53493 1.70213 0
M  V30 6176 C 578.422 -1.50264 0.572481 0
M  V30 6177 O 579.612 -1.52623 0.839751 0
M  V30 6178 C 576.744 -2.93091 1.741 0
M  V30 6179 H 577.937 -1.37633 2.66453 0
M  V30 6180 H 575.49 -0.683776 1.4055 0
M  V30 6181 H 576.225 -3.14378 0.796063 0
M  V30 6182 H 576.01 -2.9684 2.5618 0
M  V30 6183 H 577.5 -3.71368 1.90987 0
M  V30 6184 N 577.937 -1.40673 -0.710563 0
M  V30 6185 C 578.885 -1.41517 -1.84596 0
M  V30 6186 C 579.879 -0.295043 -1.66811 0
M  V30 6187 O 581.085 -0.466331 -1.73854 0
M  V30 6188 H 577.46 -0.442467 -0.608052 0
M  V30 6189 H 579.431 -2.37238 -1.80999 0
M  V30 6190 C 578.18 -1.29957 -3.225 0
M  V30 6191 H 577.503 -2.15429 -3.36794 0
M  V30 6192 H 578.943 -1.34608 -4.02066 0
M  V30 6193 C 577.402 -0.0103164 -3.36898 0
M  V30 6194 O 577.932 0.950707 -3.90288 0
M  V30 6195 N 576.138 0.0608409 -2.90536 0
M  V30 6196 H 575.685 -0.721943 -2.47277 0
M  V30 6197 H 575.643 0.92292 -3.00549 0
M  V30 6198 N 579.415 0.9433 -1.26252 0
M  V30 6199 C 580.345 2.05902 -1.10122 0
M  V30 6200 C 581.326 1.70099 -0.00700552 0
M  V30 6201 O 582.511 1.93377 -0.178641 0
M  V30 6202 C 579.641 3.39516 -0.731175 0
M  V30 6203 C 578.595 3.89372 -1.77688 0
M  V30 6204 C 577.921 5.19613 -1.26122 0
M  V30 6205 C 579.221 4.14489 -3.17799 0
M  V30 6206 H 580.915 2.19655 -2.03451 0
M  V30 6207 H 578.461 1.05548 -0.979576 0
M  V30 6208 H 580.414 4.17031 -0.605215 0
M  V30 6209 H 579.138 3.25733 0.23782 0
M  V30 6210 H 577.797 3.14036 -1.89148 0
M  V30 6211 H 577.445 5.02208 -0.282128 0
M  V30 6212 H 577.145 5.53939 -1.96023 0
M  V30 6213 H 578.669 5.99713 -1.14789 0
M  V30 6214 H 580.083 4.82625 -3.09428 0
M  V30 6215 H 578.48 4.60094 -3.85271 0
M  V30 6216 H 579.55 3.20347 -3.64014 0
M  V30 6217 N 580.893 1.08022 1.14757 0
M  V30 6218 C 581.823 0.728248 2.21853 0
M  V30 6219 C 582.804 -0.287486 1.67653 0
M  V30 6220 O 583.989 -0.158727 1.9355 0
M  V30 6221 C 581.119 0.132549 3.47047 0
M  V30 6222 C 580.073 1.07619 4.14249 0
M  V30 6223 C 579.399 0.342907 5.33599 0
M  V30 6224 C 580.699 2.41268 4.63235 0
M  V30 6225 H 582.393 1.62365 2.51551 0
M  V30 6226 H 579.939 0.782125 1.20908 0
M  V30 6227 H 581.892 -0.125665 4.21213 0
M  V30 6228 H 580.616 -0.797971 3.16702 0
M  V30 6229 H 579.275 1.31944 3.42033 0
M  V30 6230 H 578.923 -0.59129 4.99513 0
M  V30 6231 H 578.623 0.971955 5.79506 0
M  V30 6232 H 580.147 0.0926538 6.1053 0
M  V30 6233 H 581.561 2.21232 5.28894 0
M  V30 6234 H 579.958 2.9983 5.19829 0
M  V30 6235 H 581.028 3.03079 3.78512 0
M  V30 6236 N 582.371 -1.3172 0.865308 0
M  V30 6237 C 583.599 -2.01057 0.488251 0
M  V30 6238 C 584.014 -1.64979 -0.918 0
M  V30 6239 O 583.371 -0.876597 -1.60069 0
M  V30 6240 C 583.422 -3.55964 0.630224 0
M  V30 6241 O 583.143 -3.90749 1.98109 0
M  V30 6242 C 584.644 -4.42574 0.253567 0
M  V30 6243 H 581.864 -0.64332 0.190736 0
M  V30 6244 H 584.408 -1.68058 1.16519 0
M  V30 6245 H 582.563 -3.874 0.000895422 0
M  V30 6246 H 582.977 -4.85467 1.9855 0
M  V30 6247 H 584.451 -5.50521 0.403875 0
M  V30 6248 H 584.928 -4.31724 -0.806895 0
M  V30 6249 H 585.534 -4.16547 0.858404 0
M  V30 6250 N 583.85 -0.624285 -1.44708 0
M  V30 6251 C 584.812 0.0749638 -2.29077 0
M  V30 6252 C 585.812 0.778965 -1.40673 0
M  V30 6253 O 587.003 0.624591 -1.62618 0
M  V30 6254 C 584.135 1.11663 -3.22094 0
M  V30 6255 H 585.327 -0.667013 -2.92388 0
M  V30 6256 H 582.88 -0.384098 -1.51507 0
M  V30 6257 H 583.615 1.88881 -2.63618 0
M  V30 6258 H 583.401 0.61583 -3.87234 0
M  V30 6259 H 584.891 1.60585 -3.8549 0
M  V30 6260 N 585.328 1.53329 -0.364422 0
M  V30 6261 C 586.576 2.00842 0.225189 0
M  V30 6262 C 586.897 1.25345 1.49378 0
M  V30 6263 O 586.167 0.366396 1.92443 0
M  V30 6264 H 584.747 0.742009 0.0862027 0
M  V30 6265 H 587.409 1.8863 -0.490389 0
M  V30 6266 H 586.505 3.08795 0.452987 0
M  V30 6267 N 586.806 0.0935595 1.57322 0
M  V30 6268 C 588.083 -0.612692 1.85756 0
M  V30 6269 C 588.463 -1.86439 0.99013 0
M  V30 6270 O 587.811 -2.28416 0.0621362 0
M  V30 6271 C 588.021 -0.929547 3.36393 0
M  V30 6272 C 589.369 -1.29366 4.04413 0
M  V30 6273 O 590.393 -1.02061 3.41265 0
M  V30 6274 O 589.252 -1.80498 5.15832 0
M  V30 6275 H 586.346 -0.306444 0.768128 0
M  V30 6276 H 588.892 0.126141 1.69231 0
M  V30 6277 H 587.664 -0.0414766 3.91278 0
M  V30 6278 H 587.287 -1.72441 3.5826 0
M  V30 6279 N 588.284 -1.56567 -0.180126 0
M  V30 6280 C 589.512 -1.85618 -0.913972 0
M  V30 6281 C 589.927 -0.677892 -1.7621 0
M  V30 6282 O 589.284 0.353171 -1.7905 0
M  V30 6283 C 589.335 -3.13619 -1.79793 0
M  V30 6284 O 589.056 -4.26906 -0.98402 0
M  V30 6285 C 590.557 -3.55954 -2.64219 0
M  V30 6286 H 587.777 -0.616043 -0.265954 0
M  V30 6287 H 590.321 -2.03681 -0.182872 0
M  V30 6288 H 588.476 -2.97409 -2.48247 0
M  V30 6289 H 588.89 -4.9989 -1.58776 0
M  V30 6290 H 590.364 -4.48444 -3.21873 0
M  V30 6291 H 590.841 -2.79653 -3.38661 0
M  V30 6292 H 591.447 -3.74746 -2.01111 0
M  V30 6293 N 589.762 0.448376 -1.51087 0
M  V30 6294 C 590.709 1.54341 -1.71603 0
M  V30 6295 C 591.679 1.56463 -0.557536 0
M  V30 6296 O 592.864 1.73644 -0.79072 0
M  V30 6297 C 590.004 2.92148 -1.83695 0
M  V30 6298 C 589.117 2.99639 -3.11192 0
M  V30 6299 C 588.252 4.285 -3.13944 0
M  V30 6300 C 587.291 4.29819 -4.35801 0
M  V30 6301 N 586.428 5.50186 -4.36164 0
M  V30 6302 H 591.268 1.36151 -2.65079 0
M  V30 6303 H 588.805 0.661585 -1.31383 0
M  V30 6304 H 590.763 3.72093 -1.88687 0
M  V30 6305 H 589.393 3.0892 -0.936374 0
M  V30 6306 H 588.445 2.12425 -3.15562 0
M  V30 6307 H 589.757 2.96474 -4.01129 0
M  V30 6308 H 588.911 5.16811 -3.17791 0
M  V30 6309 H 587.65 4.34307 -2.21876 0
M  V30 6310 H 586.655 3.39902 -4.32142 0
M  V30 6311 H 587.88 4.25685 -5.29121 0
M  V30 6312 H 585.826 5.56735 -3.46961 0
M  V30 6313 H 585.743 5.48856 -5.19897 0
M  V30 6314 H 587.011 6.40559 -4.44189 0
M  V30 6315 N 591.24 1.41047 0.703093 0
M  V30 6316 C 592.651 1.35657 1.28274 0
M  V30 6317 C 593.002 0.0360309 1.96167 0
M  V30 6318 O 592.127 -0.865833 1.98324 0
M  V30 6319 C 592.722 2.45707 2.33267 0
M  V30 6320 C 591.281 2.43738 2.86825 0
M  V30 6321 C 590.428 2.25941 1.60767 0
M  V30 6322 H 593.379 1.50672 0.49836 0
M  V30 6323 H 593.4 2.14333 3.14391 0
M  V30 6324 H 592.912 3.41805 1.83824 0
M  V30 6325 H 591.013 1.51375 3.40465 0
M  V30 6326 H 591.126 3.39779 3.37768 0
M  V30 6327 H 589.49 1.73681 1.86298 0
M  V30 6328 H 590.273 3.24054 1.1333 0
M  V30 6329 N 592.718 -0.936591 1.26751 0
M  V30 6330 C 593.964 -1.6858 1.12733 0
M  V30 6331 C 594.297 -1.91414 -0.327745 0
M  V30 6332 O 593.572 -1.49812 -1.24043 0
M  V30 6333 C 593.855 -3.05779 1.90187 0
M  V30 6334 C 593.708 -2.90242 3.43627 0
M  V30 6335 C 595.027 -4.0597 1.69931 0
M  V30 6336 H 592.146 -0.61182 0.410908 0
M  V30 6337 H 594.788 -1.08747 1.55801 0
M  V30 6338 H 592.938 -3.56853 1.53584 0
M  V30 6339 H 594.61 -2.46354 3.9001 0
M  V30 6340 H 592.853 -2.2577 3.70419 0
M  V30 6341 H 593.524 -3.87572 3.93055 0
M  V30 6342 H 596 -3.63874 2.0183 0
M  V30 6343 H 594.876 -4.99974 2.26534 0
M  V30 6344 H 595.137 -4.37369 0.64502 0
M  V30 6345 N 594.196 -1.08629 -1.14182 0
M  V30 6346 C 595.126 -0.740003 -2.21464 0
M  V30 6347 C 596.107 0.278591 -1.67803 0
M  V30 6348 O 597.292 0.148461 -1.93632 0
M  V30 6349 C 594.422 -0.150952 -3.46972 0
M  V30 6350 C 593.376 -1.09815 -4.13672 0
M  V30 6351 C 592.702 -0.3712 -5.3341 0
M  V30 6352 C 594.002 -2.43722 -4.61949 0
M  V30 6353 H 595.696 -1.63697 -2.50686 0
M  V30 6354 H 593.242 -0.788526 -1.20492 0
M  V30 6355 H 595.195 0.103325 -4.21273 0
M  V30 6356 H 593.919 0.781164 -3.1712 0
M  V30 6357 H 592.578 -1.33756 -3.41328 0
M  V30 6358 H 592.226 0.564792 -4.99819 0
M  V30 6359 H 591.926 -1.00267 -5.78982 0
M  V30 6360 H 593.45 -0.12503 -6.10472 0
M  V30 6361 H 594.864 -2.24034 -5.27714 0
M  V30 6362 H 593.261 -3.02582 -5.18232 0
M  V30 6363 H 594.331 -3.05082 -3.76899 0
M  V30 6364 N 595.674 1.31259 -0.872281 0
M  V30 6365 C 597.09 1.49283 -0.564521 0
M  V30 6366 C 597.29 1.80243 0.900807 0
M  V30 6367 O 596.346 1.88246 1.68284 0
M  V30 6368 C 597.659 2.62503 -1.46673 0
M  V30 6369 C 599.207 2.76386 -1.46901 0
M  V30 6370 C 599.682 3.92705 -2.35684 0
M  V30 6371 N 601.173 3.99995 -2.33577 0
M  V30 6372 C 601.908 4.89276 -2.98992 0
M  V30 6373 N 601.404 5.83443 -3.73585 0
M  V30 6374 N 603.197 4.82541 -2.88289 0
M  V30 6375 H 595.348 1.09432 -1.82039 0
M  V30 6376 H 597.611 0.540949 -0.77851 0
M  V30 6377 H 597.317 2.46407 -2.50951 0
M  V30 6378 H 597.191 3.58695 -1.16696 0
M  V30 6379 H 599.578 2.91894 -0.433796 0
M  V30 6380 H 599.659 1.80853 -1.80903 0
M  V30 6381 H 599.303 3.77954 -3.39283 0
M  V30 6382 H 599.233 4.87549 -1.99006 0
M  V30 6383 H 601.724 3.32624 -1.7936 0
M  V30 6384 H 602.037 6.48303 -4.20622 0
M  V30 6385 H 600.382 5.83415 -3.77694 0
M  V30 6386 H 603.573 4.07951 -2.2955 0
M  V30 6387 H 603.746 5.51916 -3.39549 0
M  V30 6388 N 597.152 0.631951 1.44375 0
M  V30 6389 C 598.115 -0.0628142 2.29114 0
M  V30 6390 C 599.115 -0.771494 1.41084 0
M  V30 6391 O 600.305 -0.615959 1.62947 0
M  V30 6392 C 597.437 -1.09953 3.22681 0
M  V30 6393 H 598.63 0.682509 2.92031 0
M  V30 6394 H 596.183 0.392128 1.51301 0
M  V30 6395 H 596.918 -1.87481 2.64616 0
M  V30 6396 H 596.703 -0.595286 3.87555 0
M  V30 6397 H 598.193 -1.58538 3.86336 0
M  V30 6398 N 598.631 -1.53133 0.372548 0
M  V30 6399 C 599.561 -2.28876 -0.462412 0
M  V30 6400 C 600.542 -1.31583 -1.07796 0
M  V30 6401 O 601.727 -1.60461 -1.09389 0
M  V30 6402 C 598.857 -3.08317 -1.59868 0
M  V30 6403 C 597.811 -4.13355 -1.11003 0
M  V30 6404 C 597.137 -4.8092 -2.33708 0
M  V30 6405 C 598.437 -5.21955 -0.18983 0
M  V30 6406 H 600.131 -2.9892 0.169511 0
M  V30 6407 H 597.677 -1.43761 0.0829658 0
M  V30 6408 H 599.63 -3.60055 -2.18949 0
M  V30 6409 H 598.354 -2.35976 -2.25794 0
M  V30 6410 H 597.013 -3.62573 -0.541869 0
M  V30 6411 H 596.661 -4.05144 -2.98106 0
M  V30 6412 H 596.361 -5.51904 -2.01682 0
M  V30 6413 H 597.885 -5.35455 -2.93462 0
M  V30 6414 H 599.299 -5.69153 -0.688319 0
M  V30 6415 H 597.696 -6.00087 0.0398887 0
M  V30 6416 H 598.766 -4.78811 0.766057 0
M  V30 6417 N 600.109 -0.101901 -1.5727 0
M  V30 6418 C 601.056 0.854577 -2.14396 0
M  V30 6419 C 602.026 1.27521 -1.06432 0
M  V30 6420 O 603.211 1.35575 -1.34253 0
M  V30 6421 C 600.351 2.10576 -2.73408 0
M  V30 6422 C 599.464 1.73504 -3.95626 0
M  V30 6423 C 598.599 2.9346 -4.42781 0
M  V30 6424 C 597.638 2.52547 -5.57572 0
M  V30 6425 N 596.775 3.65359 -5.99547 0
M  V30 6426 H 601.615 0.360578 -2.9581 0
M  V30 6427 H 599.152 0.166303 -1.46157 0
M  V30 6428 H 601.11 2.83859 -3.05745 0
M  V30 6429 H 599.74 2.57463 -1.94711 0
M  V30 6430 H 598.792 0.901622 -3.6956 0
M  V30 6431 H 600.104 1.39426 -4.78917 0
M  V30 6432 H 599.258 3.74988 -4.76937 0
M  V30 6433 H 597.997 3.30753 -3.58404 0
M  V30 6434 H 597.002 1.69446 -5.23037 0
M  V30 6435 H 598.227 2.1639 -6.43702 0
M  V30 6436 H 596.173 4.02358 -5.18116 0
M  V30 6437 H 596.09 3.35148 -6.77652 0
M  V30 6438 H 597.358 4.47378 -6.38336 0
M  V30 6439 N 601.587 1.56661 0.17182 0
M  V30 6440 C 603.003 1.50768 0.52357 0
M  V30 6441 C 603.203 0.806072 1.84675 0
M  V30 6442 O 602.259 0.366233 2.4983 0
M  V30 6443 C 603.572 2.955 0.556793 0
M  V30 6444 C 605.12 3.06303 0.644029 0
M  V30 6445 C 605.595 4.52492 0.708148 0
M  V30 6446 N 607.086 4.56737 0.771051 0
M  V30 6447 C 607.821 5.67196 0.841229 0
M  V30 6448 N 607.317 6.87287 0.872272 0
M  V30 6449 N 609.11 5.55165 0.88021 0
M  V30 6450 H 601.261 2.00679 -0.695817 0
M  V30 6451 H 603.524 0.914219 -0.250814 0
M  V30 6452 H 603.23 3.49986 -0.346774 0
M  V30 6453 H 603.104 3.50119 1.40346 0
M  V30 6454 H 605.491 2.51851 1.53802 0
M  V30 6455 H 605.572 2.5477 -0.229297 0
M  V30 6456 H 605.216 5.07575 -0.181585 0
M  V30 6457 H 605.146 5.01781 1.59761 0
M  V30 6458 H 607.637 3.70274 0.755364 0
M  V30 6459 H 607.95 7.6722 0.92698 0
M  V30 6460 H 606.295 6.89898 0.840557 0
M  V30 6461 H 609.486 4.60263 0.852956 0
M  V30 6462 H 609.659 6.41271 0.931439 0
M  V30 6463 N 603.065 -0.440357 1.51323 0
M  V30 6464 C 603.998 -1.55414 1.67098 0
M  V30 6465 C 604.976 -1.54108 0.518599 0
M  V30 6466 O 606.16 -1.7328 0.742054 0
M  V30 6467 C 603.287 -2.93996 1.68179 0
M  V30 6468 C 602.333 -3.13338 2.89347 0
M  V30 6469 S 603.166 -2.89957 4.50206 0
M  V30 6470 C 604.322 -4.30826 4.54027 0
M  V30 6471 H 604.555 -1.41798 2.61306 0
M  V30 6472 H 602.088 -0.629841 1.40969 0
M  V30 6473 H 604.046 -3.73878 1.69487 0
M  V30 6474 H 602.707 -3.04976 0.751542 0
M  V30 6475 H 601.9 -4.14652 2.86495 0
M  V30 6476 H 601.502 -2.41276 2.85766 0
M  V30 6477 H 603.794 -5.23977 4.29481 0
M  V30 6478 H 604.737 -4.38712 5.55822 0
M  V30 6479 H 605.145 -4.1434 3.83384 0
M  V30 6480 N 604.543 -1.41418 -0.695603 0
M  V30 6481 C 605.473 -1.46035 -1.82197 0
M  V30 6482 C 606.454 -0.319025 -1.67082 0
M  V30 6483 O 607.639 -0.530462 -1.86815 0
M  V30 6484 C 604.769 -1.34179 -3.20333 0
M  V30 6485 C 603.723 -2.46123 -3.50154 0
M  V30 6486 C 603.049 -2.19332 -4.87645 0
M  V30 6487 C 604.349 -3.88463 -3.49133 0
M  V30 6488 H 606.043 -2.40303 -1.78591 0
M  V30 6489 H 603.589 -1.15663 -0.857797 0
M  V30 6490 H 605.542 -1.36021 -3.98844 0
M  V30 6491 H 604.266 -0.363952 -3.24566 0
M  V30 6492 H 602.925 -2.43563 -2.73994 0
M  V30 6493 H 602.573 -1.19891 -4.88503 0
M  V30 6494 H 602.273 -2.94344 -5.08562 0
M  V30 6495 H 603.797 -2.22889 -5.68465 0
M  V30 6496 H 605.211 -3.92738 -4.17648 0
M  V30 6497 H 603.608 -4.63158 -3.81582 0
M  V30 6498 H 604.678 -4.16617 -2.48109 0
M  V30 6499 N 606.021 0.929856 -1.27246 0
M  V30 6500 C 606.984 2.01172 -1.09829 0
M  V30 6501 C 607.984 1.60743 -0.0429687 0
M  V30 6502 O 609.174 1.71813 -0.287373 0
M  V30 6503 C 606.306 3.34191 -0.673003 0
M  V30 6504 H 607.499 2.18054 -2.05895 0
M  V30 6505 H 605.052 1.11036 -1.10003 0
M  V30 6506 H 605.787 3.23009 0.289134 0
M  V30 6507 H 605.572 3.64892 -1.43515 0
M  V30 6508 H 607.062 4.13646 -0.573323 0
M  V30 6509 N 607.499 1.09233 1.13605 0
M  V30 6510 C 608.432 0.6739 2.18023 0
M  V30 6511 C 609.41 -0.318603 1.59448 0
M  V30 6512 O 610.594 -0.220452 1.87206 0
M  V30 6513 C 607.721 -0.00751458 3.38699 0
M  V30 6514 C 606.767 0.946481 4.15865 0
M  V30 6515 S 607.6 2.45753 4.75779 0
M  V30 6516 C 608.756 1.78846 5.99804 0
M  V30 6517 H 608.989 1.55846 2.53178 0
M  V30 6518 H 606.522 0.908118 1.2487 0
M  V30 6519 H 608.48 -0.394368 4.08601 0
M  V30 6520 H 607.141 -0.868693 3.01849 0
M  V30 6521 H 606.334 0.416742 5.02274 0
M  V30 6522 H 605.936 1.27464 3.51609 0
M  V30 6523 H 608.228 1.11135 6.68323 0
M  V30 6524 H 609.171 2.63163 6.57382 0
M  V30 6525 H 609.579 1.25823 5.50299 0
M  V30 6526 N 608.977 -1.30795 0.87923 0
M  V30 6527 C 610.393 -1.48981 0.57243 0
M  V30 6528 C 610.593 -1.80719 -0.891236 0
M  V30 6529 O 609.649 -1.89136 -1.67283 0
M  V30 6530 C 610.962 -2.61721 1.48063 0
M  V30 6531 C 612.51 -2.75603 1.48365 0
M  V30 6532 C 612.985 -3.91449 2.37763 0
M  V30 6533 N 614.476 -3.98751 2.35695 0
M  V30 6534 C 615.211 -4.87684 3.01583 0
M  V30 6535 N 614.707 -5.81454 3.76674 0
M  V30 6536 N 616.5 -4.81005 2.90844 0
M  V30 6537 H 608.651 -1.08465 1.82617 0
M  V30 6538 H 610.914 -0.536813 0.781368 0
M  V30 6539 H 610.62 -2.45073 2.52254 0
M  V30 6540 H 610.494 -3.58071 1.18596 0
M  V30 6541 H 612.881 -2.9166 0.44927 0
M  V30 6542 H 612.962 -1.79891 1.81859 0
M  V30 6543 H 612.606 -3.76149 3.41283 0
M  V30 6544 H 612.536 -4.86487 2.01589 0
M  V30 6545 H 615.027 -3.31668 1.81121 0
M  V30 6546 H 615.34 -6.46063 4.24054 0
M  V30 6547 H 613.685 -5.81403 3.80782 0
M  V30 6548 H 616.876 -4.06728 2.31711 0
M  V30 6549 H 617.049 -5.50107 3.42471 0
M  V30 6550 N 610.455 -0.639598 -1.44038 0
M  V30 6551 C 611.405 0.0823038 -2.27851 0
M  V30 6552 C 612.389 0.807991 -1.39141 0
M  V30 6553 O 613.581 0.692702 -1.62882 0
M  V30 6554 C 610.71 1.05742 -3.26609 0
M  V30 6555 C 609.796 0.330911 -4.22807 0
M  V30 6556 N 610.187 -0.645126 -5.01669 0
M  V30 6557 C 608.485 0.574214 -4.42288 0
M  V30 6558 C 609.186 -1.07513 -5.71678 0
M  V30 6559 N 608.162 -0.412164 -5.42035 0
M  V30 6560 H 611.964 -0.666861 -2.86234 0
M  V30 6561 H 609.478 -0.465777 -1.55577 0
M  V30 6562 H 611.475 1.58927 -3.85419 0
M  V30 6563 H 610.135 1.80679 -2.69787 0
M  V30 6564 H 611.146 -1.02329 -5.0769 0
M  V30 6565 H 607.823 1.30581 -3.96554 0
M  V30 6566 H 609.213 -1.88196 -6.45005 0
M  V30 6567 N 611.933 1.52934 -0.380664 0
M  V30 6568 C 613.163 2.05587 0.204302 0
M  V30 6569 C 613.571 1.25288 1.41773 0
M  V30 6570 O 612.914 0.290394 1.8139 0
M  V30 6571 C 612.976 3.53624 0.647324 0
M  V30 6572 C 612.64 4.54765 -0.451465 0
M  V30 6573 C 613.637 5.03226 -1.30614 0
M  V30 6574 C 611.322 4.98508 -0.616025 0
M  V30 6575 C 613.316 5.94046 -2.31058 0
M  V30 6576 C 611.003 5.89131 -1.62381 0
M  V30 6577 C 612.001 6.36792 -2.46952 0
M  V30 6578 O 611.689 7.25626 -3.46009 0
M  V30 6579 H 611.421 0.675013 0.0365198 0
M  V30 6580 H 613.975 1.98125 -0.541827 0
M  V30 6581 H 612.205 3.58676 1.44529 0
M  V30 6582 H 613.894 3.89061 1.15698 0
M  V30 6583 H 614.66 4.70167 -1.19027 0
M  V30 6584 H 610.539 4.60989 0.0324987 0
M  V30 6585 H 614.083 6.3117 -2.97104 0
M  V30 6586 H 609.98 6.21603 -1.7401 0
M  V30 6587 H 610.748 7.43664 -3.41916 0
M  V30 6588 N 613.412 0.11024 1.57214 0
M  V30 6589 C 614.359 -0.843195 2.14846 0
M  V30 6590 C 615.329 -1.26954 1.07107 0
M  V30 6591 O 616.514 -1.34861 1.34971 0
M  V30 6592 C 613.654 -2.09123 2.74521 0
M  V30 6593 C 612.767 -1.71404 3.96541 0
M  V30 6594 C 611.902 -2.91107 4.44331 0
M  V30 6595 C 610.941 -2.49586 5.58903 0
M  V30 6596 N 610.078 -3.62175 6.01477 0
M  V30 6597 H 614.918 -0.344886 2.95998 0
M  V30 6598 H 612.455 -0.15855 1.46243 0
M  V30 6599 H 614.413 -2.82234 3.07246 0
M  V30 6600 H 613.043 -2.56427 1.96074 0
M  V30 6601 H 612.095 -0.88201 3.70033 0
M  V30 6602 H 613.407 -1.36884 4.7965 0
M  V30 6603 H 612.561 -3.72454 4.78919 0
M  V30 6604 H 611.3 -3.28848 3.60153 0
M  V30 6605 H 610.305 -1.6667 5.23929 0
M  V30 6606 H 611.53 -2.12973 6.4484 0
M  V30 6607 H 609.476 -3.99605 5.20242 0
M  V30 6608 H 609.393 -3.3155 6.79419 0
M  V30 6609 H 610.661 -4.43987 6.407 0
M  V30 6610 N 614.89 -1.56749 -0.16351 0
M  V30 6611 C 616.306 -1.51043 -0.515567 0
M  V30 6612 C 616.506 -0.815855 -1.84245 0
M  V30 6613 O 615.562 -0.379477 -2.49632 0
M  V30 6614 C 616.875 -2.95791 -0.541114 0
M  V30 6615 C 618.423 -3.0664 -0.627776 0
M  V30 6616 C 618.898 -4.52861 -0.684141 0
M  V30 6617 N 620.389 -4.5714 -0.746818 0
M  V30 6618 C 621.124 -5.67634 -0.811137 0
M  V30 6619 N 620.62 -6.8774 -0.835811 0
M  V30 6620 N 622.413 -5.55624 -0.850756 0
M  V30 6621 H 614.564 -2.00307 0.70645 0
M  V30 6622 H 616.827 -0.912876 0.255659 0
M  V30 6623 H 616.533 -3.49797 0.365329 0
M  V30 6624 H 616.407 -3.50858 -1.38487 0
M  V30 6625 H 618.794 -2.52663 -1.52464 0
M  V30 6626 H 618.875 -2.54645 0.242805 0
M  V30 6627 H 618.519 -5.07472 0.2085 0
M  V30 6628 H 618.449 -5.02621 -1.57098 0
M  V30 6629 H 620.94 -3.70669 -0.735717 0
M  V30 6630 H 621.253 -7.67701 -0.886279 0
M  V30 6631 H 619.598 -6.90334 -0.803958 0
M  V30 6632 H 622.789 -4.60709 -0.828535 0
M  V30 6633 H 622.962 -6.41756 -0.897418 0
M  V30 6634 N 616.368 0.432326 -1.51554 0
M  V30 6635 C 617.331 1.50765 -1.72634 0
M  V30 6636 C 618.331 1.49334 -0.596314 0
M  V30 6637 O 619.521 1.51268 -0.863925 0
M  V30 6638 C 616.653 2.90284 -1.7874 0
M  V30 6639 H 617.846 1.33377 -2.68609 0
M  V30 6640 H 615.399 0.661329 -1.4162 0
M  V30 6641 H 616.134 3.13071 -0.845977 0
M  V30 6642 H 615.919 2.92727 -2.6087 0
M  V30 6643 H 617.409 3.68282 -1.96871 0
M  V30 6644 N 617.846 1.41785 0.688094 0
M  V30 6645 C 618.756 1.46596 1.83158 0
M  V30 6646 C 619.772 0.355862 1.70322 0
M  V30 6647 O 620.948 0.604737 1.92106 0
M  V30 6648 C 618.013 1.35322 3.192 0
M  V30 6649 C 617.074 2.56711 3.4409 0
M  V30 6650 C 616.307 2.45965 4.73642 0
M  V30 6651 O 616.53 1.48827 5.50642 0
M  V30 6652 O 615.464 3.35859 4.99482 0
M  V30 6653 H 619.29 2.43083 1.82056 0
M  V30 6654 H 616.875 1.23404 0.842126 0
M  V30 6655 H 618.757 1.31347 4.00407 0
M  V30 6656 H 617.432 0.419536 3.2097 0
M  V30 6657 H 616.339 2.66262 2.62784 0
M  V30 6658 H 617.672 3.48933 3.47141 0
M  V30 6659 N 619.324 -0.923095 1.27737 0
M  V30 6660 C 620.552 -1.70525 1.17171 0
M  V30 6661 C 620.967 -1.86847 -0.270881 0
M  V30 6662 O 620.324 -1.38879 -1.18401 0
M  V30 6663 C 620.375 -3.10242 1.85559 0
M  V30 6664 O 620.096 -2.94683 3.24182 0
M  V30 6665 C 621.597 -4.04586 1.81176 0
M  V30 6666 H 618.817 -0.533347 0.407163 0
M  V30 6667 H 621.361 -1.15599 1.68692 0
M  V30 6668 H 619.516 -3.62014 1.3793 0
M  V30 6669 H 619.93 -3.83045 3.58297 0
M  V30 6670 H 621.404 -5.00119 2.33633 0
M  V30 6671 H 621.881 -4.3218 0.782099 0
M  V30 6672 H 622.487 -3.58741 2.2844 0
M  V30 6673 N 620.802 -1.09834 -1.13024 0
M  V30 6674 C 622.048 -0.83819 -1.84668 0
M  V30 6675 C 622.381 0.634645 -1.83537 0
M  V30 6676 O 621.656 1.46753 -1.27647 0
M  V30 6677 C 621.939 -1.37933 -3.32636 0
M  V30 6678 C 621.792 -2.91857 -3.42257 0
M  V30 6679 C 623.111 -1.01654 -4.28199 0
M  V30 6680 H 620.23 -0.30595 -0.670495 0
M  V30 6681 H 622.872 -1.36044 -1.32635 0
M  V30 6682 H 621.022 -0.935111 -3.77078 0
M  V30 6683 H 622.694 -3.44759 -3.06495 0
M  V30 6684 H 620.937 -3.28776 -2.83 0
M  V30 6685 H 621.608 -3.24799 -4.46329 0
M  V30 6686 H 624.084 -1.39973 -3.9185 0
M  V30 6687 H 622.96 -1.42217 -5.30156 0
M  V30 6688 H 623.221 0.0747794 -4.42037 0
M  V30 6689 N 622.28 1.30327 -0.886154 0
M  V30 6690 C 623.557 1.90922 -0.425217 0
M  V30 6691 C 623.937 1.80533 1.09413 0
M  V30 6692 O 623.285 1.2233 1.92996 0
M  V30 6693 C 623.495 3.36529 -0.924638 0
M  V30 6694 C 624.843 4.13598 -0.960305 0
M  V30 6695 O 625.867 3.45377 -0.871382 0
M  V30 6696 O 624.726 5.35482 -1.09184 0
M  V30 6697 H 621.82 0.81668 -0.130238 0
M  V30 6698 H 624.366 1.38886 -0.975132 0
M  V30 6699 H 623.138 3.38181 -1.96849 0
M  V30 6700 H 622.761 3.96021 -0.353955 0
M  V30 6701 N 623.758 0.647228 1.43697 0
M  V30 6702 C 625.006 0.157876 2.01482 0
M  V30 6703 C 625.327 -1.23039 1.51282 0
M  V30 6704 O 624.597 -1.82071 0.722982 0
M  V30 6705 H 623.177 0.0553745 0.744945 0
M  V30 6706 H 625.839 0.83755 1.75986 0
M  V30 6707 H 624.935 0.137895 3.11795 0
M  V30 6708 N 625.236 -1.5273 0.388769 0
M  V30 6709 C 626.183 -2.26437 -0.446639 0
M  V30 6710 C 627.153 -1.28025 -1.05824 0
M  V30 6711 O 628.338 -1.56852 -1.08637 0
M  V30 6712 C 625.478 -3.07407 -1.56828 0
M  V30 6713 C 624.591 -4.20747 -0.979589 0
M  V30 6714 C 623.726 -4.89113 -2.07224 0
M  V30 6715 C 622.765 -5.94447 -1.45942 0
M  V30 6716 N 621.902 -6.56411 -2.49135 0
M  V30 6717 H 626.742 -2.97404 0.18837 0
M  V30 6718 H 624.279 -1.46727 0.104725 0
M  V30 6719 H 626.237 -3.52642 -2.22934 0
M  V30 6720 H 624.867 -2.3865 -2.17361 0
M  V30 6721 H 623.919 -3.7983 -0.208151 0
M  V30 6722 H 625.231 -4.9637 -0.491747 0
M  V30 6723 H 624.385 -5.3765 -2.81101 0
M  V30 6724 H 623.124 -4.13013 -2.59368 0
M  V30 6725 H 622.129 -5.4525 -0.705894 0
M  V30 6726 H 623.354 -6.7248 -0.945932 0
M  V30 6727 H 621.3 -5.83152 -3.00449 0
M  V30 6728 H 621.217 -7.27645 -2.05105 0
M  V30 6729 H 622.485 -7.09592 -3.22644 0
M  V30 6730 N 626.714 -0.118576 -1.57153 0
M  V30 6731 C 627.96 0.540326 -1.95469 0
M  V30 6732 C 628.293 1.66356 -1.00196 0
M  V30 6733 O 627.568 1.94461 -0.039104 0
M  V30 6734 C 627.851 1.07342 -3.43729 0
M  V30 6735 C 627.704 -0.0463732 -4.49776 0
M  V30 6736 C 629.023 1.96442 -3.93826 0
M  V30 6737 H 626.142 0.19494 -0.710751 0
M  V30 6738 H 628.784 -0.19405 -1.89006 0
M  V30 6739 H 626.934 1.69925 -3.49368 0
M  V30 6740 H 628.606 -0.681648 -4.56236 0
M  V30 6741 H 626.849 -0.709574 -4.27957 0
M  V30 6742 H 627.52 0.367856 -5.50773 0
M  V30 6743 H 629.996 1.43731 -3.90488 0
M  V30 6744 H 628.872 2.3066 -4.98084 0
M  V30 6745 H 629.133 2.89077 -3.34495 0
M  V30 6746 N 628.193 1.56834 0.155195 0
M  V30 6747 C 629.47 1.73799 0.897395 0
M  V30 6748 C 629.85 0.684379 1.99698 0
M  V30 6749 O 629.198 -0.298111 2.26547 0
M  V30 6750 C 629.408 3.17572 1.44737 0
M  V30 6751 C 630.756 3.79014 1.91399 0
M  V30 6752 O 631.78 3.20951 1.54496 0
M  V30 6753 O 630.639 4.80998 2.59429 0
M  V30 6754 H 627.733 0.710329 0.423511 0
M  V30 6755 H 630.279 1.69107 0.141761 0
M  V30 6756 H 629.051 3.85749 0.656741 0
M  V30 6757 H 628.674 3.26657 2.26674 0
M  V30 6758 N 629.671 -0.424282 1.51781 0
M  V30 6759 C 630.899 -1.1947 1.68921 0
M  V30 6760 C 631.314 -1.84683 0.39213 0
M  V30 6761 O 630.671 -1.71261 -0.630554 0
M  V30 6762 C 630.722 -2.26909 2.81416 0
M  V30 6763 O 630.443 -1.64361 4.061 0
M  V30 6764 C 631.944 -3.16945 3.09937 0
M  V30 6765 H 629.164 -0.359591 0.566511 0
M  V30 6766 H 631.708 -0.501139 1.98265 0
M  V30 6767 H 629.863 -2.91959 2.54635 0
M  V30 6768 H 630.277 -2.35468 4.68674 0
M  V30 6769 H 631.751 -3.88437 3.922 0
M  V30 6770 H 632.228 -3.78451 2.22871 0
M  V30 6771 H 632.834 -2.57581 3.38426 0
M  V30 6772 N 631.149 -1.42148 -0.680565 0
M  V30 6773 C 632.565 -1.24947 -0.992995 0
M  V30 6774 C 632.765 -0.149527 -2.00944 0
M  V30 6775 O 631.821 0.481145 -2.47873 0
M  V30 6776 C 633.134 -2.60426 -1.5033 0
M  V30 6777 C 634.682 -2.67733 -1.62137 0
M  V30 6778 C 635.157 -4.03564 -2.16565 0
M  V30 6779 N 636.648 -4.05488 -2.23905 0
M  V30 6780 C 637.383 -5.07401 -2.67081 0
M  V30 6781 N 636.879 -6.19698 -3.09751 0
M  V30 6782 N 638.672 -4.94758 -2.66778 0
M  V30 6783 H 630.823 -2.12399 -0.0074788 0
M  V30 6784 H 633.086 -0.94571 -0.0658529 0
M  V30 6785 H 632.792 -3.41743 -0.830947 0
M  V30 6786 H 632.666 -2.83949 -2.483 0
M  V30 6787 H 635.053 -1.86765 -2.2848 0
M  V30 6788 H 635.134 -2.48004 -0.626713 0
M  V30 6789 H 634.778 -4.84987 -1.50833 0
M  V30 6790 H 634.708 -4.20641 -3.1681 0
M  V30 6791 H 637.199 -3.24415 -1.93812 0
M  V30 6792 H 637.512 -6.93318 -3.41365 0
M  V30 6793 H 635.857 -6.23212 -3.07623 0
M  V30 6794 H 639.048 -4.06105 -2.32801 0
M  V30 6795 H 639.221 -5.74317 -3.00107 0
M  V30 6796 N 632.627 0.916307 -1.28225 0
M  V30 6797 C 633.59 1.99996 -1.11957 0
M  V30 6798 C 634.59 1.60688 -0.0600152 0
M  V30 6799 O 635.78 1.71499 -0.30558 0
M  V30 6800 C 632.912 3.33458 -0.708411 0
M  V30 6801 H 634.105 2.15858 -2.08196 0
M  V30 6802 H 631.658 1.09863 -1.11175 0
M  V30 6803 H 632.393 3.23297 0.254859 0
M  V30 6804 H 632.178 3.63349 -1.47377 0
M  V30 6805 H 633.668 4.13014 -0.617164 0
M  V30 6806 N 634.105 1.10431 1.1244 0
M  V30 6807 C 635.035 0.775143 2.20258 0
M  V30 6808 C 636.016 -0.25186 1.68225 0
M  V30 6809 O 637.201 -0.117637 1.93843 0
M  V30 6810 C 634.331 0.206133 3.46688 0
M  V30 6811 C 633.285 1.16382 4.11873 0
M  V30 6812 C 632.611 0.456014 5.32752 0
M  V30 6813 C 633.911 2.5104 4.58013 0
M  V30 6814 H 635.605 1.67665 2.4805 0
M  V30 6815 H 633.151 0.807595 1.19222 0
M  V30 6816 H 635.104 -0.036291 4.21384 0
M  V30 6817 H 633.828 -0.730614 3.18323 0
M  V30 6818 H 632.487 1.39169 3.39157 0
M  V30 6819 H 632.135 -0.485203 5.00654 0
M  V30 6820 H 631.835 1.09466 5.77314 0
M  V30 6821 H 633.359 0.222135 6.10196 0
M  V30 6822 H 634.773 2.32401 5.24083 0
M  V30 6823 H 633.17 3.10789 5.13352 0
M  V30 6824 H 634.24 3.11039 3.71998 0
M  V30 6825 N 635.583 -1.29855 0.893053 0
M  V30 6826 C 636.493 -2.31661 0.370157 0
M  V30 6827 C 637.509 -1.65677 -0.531723 0
M  V30 6828 O 638.685 -1.9691 -0.422902 0
M  V30 6829 C 635.75 -3.44388 -0.399741 0
M  V30 6830 C 634.811 -4.2598 0.532861 0
M  V30 6831 C 634.044 -5.33324 -0.200388 0
M  V30 6832 O 634.267 -5.52305 -1.42531 0
M  V30 6833 O 633.201 -6.00188 0.453668 0
M  V30 6834 H 637.027 -2.78354 1.2146 0
M  V30 6835 H 634.612 -1.34171 0.657153 0
M  V30 6836 H 636.494 -4.13037 -0.835358 0
M  V30 6837 H 635.169 -2.99815 -1.22035 0
M  V30 6838 H 634.076 -3.59998 1.01746 0
M  V30 6839 H 635.409 -4.74178 1.3197 0
M  V30 6840 N 637.061 -0.65484 -1.43351 0
M  V30 6841 C 637.971 0.0363603 -2.34572 0
M  V30 6842 C 638.987 0.810432 -1.53974 0
M  V30 6843 O 640.163 0.757308 -1.86619 0
M  V30 6844 C 637.228 0.989733 -3.32273 0
M  V30 6845 C 636.289 0.212414 -4.28774 0
M  V30 6846 C 635.522 1.12038 -5.21808 0
M  V30 6847 O 635.745 2.35967 -5.19303 0
M  V30 6848 O 634.679 0.59191 -5.98982 0
M  V30 6849 H 638.505 -0.714527 -2.95175 0
M  V30 6850 H 636.09 -0.415029 -1.4352 0
M  V30 6851 H 637.972 1.53759 -3.92347 0
M  V30 6852 H 636.647 1.72082 -2.74171 0
M  V30 6853 H 635.554 -0.379062 -3.72175 0
M  V30 6854 H 636.887 -0.479138 -4.89862 0
M  V30 6855 N 638.539 1.52521 -0.396863 0
M  V30 6856 C 639.785 2.01971 0.183169 0
M  V30 6857 C 640.118 1.2825 1.45827 0
M  V30 6858 O 639.393 0.385179 1.90648 0
M  V30 6859 C 639.676 3.5736 0.443391 0
M  V30 6860 C 639.529 4.41743 -0.84753 0
M  V30 6861 C 640.848 4.22539 1.2308 0
M  V30 6862 H 637.967 0.734119 0.0650976 0
M  V30 6863 H 640.609 1.82519 -0.527918 0
M  V30 6864 H 638.759 3.74066 1.04914 0
M  V30 6865 H 640.431 4.36773 -1.48414 0
M  V30 6866 H 638.674 4.0845 -1.4612 0
M  V30 6867 H 639.345 5.48507 -0.620003 0
M  V30 6868 H 641.821 4.09857 0.718084 0
M  V30 6869 H 640.697 5.31227 1.38162 0
M  V30 6870 H 640.958 3.80675 2.24808 0
M  V30 6871 N 640.017 0.126909 1.57088 0
M  V30 6872 C 641.265 -0.528123 1.95078 0
M  V30 6873 C 641.586 -1.66708 1.0116 0
M  V30 6874 O 640.856 -1.95777 0.0693527 0
M  V30 6875 H 639.436 -0.198087 0.720257 0
M  V30 6876 H 642.098 0.197703 1.93895 0
M  V30 6877 H 641.194 -0.917507 2.98309 0
M  V30 6878 N 641.495 -1.56914 -0.146875 0
M  V30 6879 C 642.425 -2.01308 -1.1831 0
M  V30 6880 C 643.406 -0.892664 -1.44795 0
M  V30 6881 O 644.591 -1.16048 -1.55713 0
M  V30 6882 C 641.721 -2.3938 -2.51624 0
M  V30 6883 C 640.675 -3.54608 -2.3966 0
M  V30 6884 C 640.001 -3.78493 -3.77686 0
M  V30 6885 C 641.301 -4.87269 -1.88058 0
M  V30 6886 H 642.995 -2.88123 -0.813964 0
M  V30 6887 H 640.541 -1.38615 -0.3901 0
M  V30 6888 H 642.494 -2.69037 -3.24341 0
M  V30 6889 H 641.218 -1.49502 -2.90373 0
M  V30 6890 H 639.877 -3.25116 -1.69396 0
M  V30 6891 H 639.525 -2.85866 -4.13871 0
M  V30 6892 H 639.225 -4.56039 -3.70543 0
M  V30 6893 H 640.749 -4.10576 -4.51951 0
M  V30 6894 H 642.163 -5.15644 -2.50568 0
M  V30 6895 H 640.56 -5.68622 -1.91805 0
M  V30 6896 H 641.63 -4.77634 -0.836277 0
M  V30 6897 N 642.974 0.416227 -1.52004 0
M  V30 6898 C 644.202 1.18573 -1.69553 0
M  V30 6899 C 644.617 1.84472 -0.401919 0
M  V30 6900 O 643.974 1.71593 0.621463 0
M  V30 6901 C 644.025 2.25413 -2.82615 0
M  V30 6902 O 643.746 1.62205 -4.06966 0
M  V30 6903 C 645.247 3.15297 -3.11613 0
M  V30 6904 H 642.467 0.356582 -0.56841 0
M  V30 6905 H 645.011 0.490618 -1.98528 0
M  V30 6906 H 643.166 2.90604 -2.56179 0
M  V30 6907 H 643.58 2.3298 -4.69916 0
M  V30 6908 H 645.054 3.86351 -3.94255 0
M  V30 6909 H 645.531 3.77264 -2.24874 0
M  V30 6910 H 646.137 2.55783 -3.39787 0
M  V30 6911 N 644.452 1.42507 0.673017 0
M  V30 6912 C 645.362 1.4853 1.81593 0
M  V30 6913 C 646.378 0.373907 1.69935 0
M  V30 6914 O 647.554 0.625078 1.91454 0
M  V30 6915 C 644.619 1.387 3.17747 0
M  V30 6916 C 643.68 2.60346 3.41348 0
M  V30 6917 C 642.913 2.50975 4.71007 0
M  V30 6918 O 643.136 1.54659 5.49033 0
M  V30 6919 O 642.07 3.41138 4.95892 0
M  V30 6920 H 645.896 2.45001 1.79467 0
M  V30 6921 H 643.481 1.2429 0.82899 0
M  V30 6922 H 645.363 1.35586 3.98992 0
M  V30 6923 H 644.038 0.453555 3.20507 0
M  V30 6924 H 642.945 2.69034 2.59945 0
M  V30 6925 H 644.278 3.52595 3.43421 0
M  V30 6926 N 645.93 -0.909495 1.28709 0
M  V30 6927 C 646.893 -1.99399 1.13016 0
M  V30 6928 C 647.893 -1.60654 0.068536 0
M  V30 6929 O 649.083 -1.71334 0.314671 0
M  V30 6930 C 646.215 -3.33078 0.726085 0
M  V30 6931 H 647.408 -2.14751 2.09338 0
M  V30 6932 H 644.961 -1.09272 1.11756 0
M  V30 6933 H 645.696 -3.23428 -0.23771 0
M  V30 6934 H 645.481 -3.62562 1.49302 0
M  V30 6935 H 646.971 -4.12681 0.639058 0
M  V30 6936 N 647.408 -1.11026 -1.11852 0
M  V30 6937 C 648.34 -0.72249 -2.17515 0
M  V30 6938 C 649.353 0.243782 -1.60964 0
M  V30 6939 O 650.542 0.0273252 -1.78479 0
M  V30 6940 C 647.642 -0.0463979 -3.38868 0
M  V30 6941 C 646.815 -1.0384 -4.24895 0
M  V30 6942 C 645.874 -0.392659 -5.24733 0
M  V30 6943 O 644.9 -1.0453 -5.5952 0
M  V30 6944 N 646.102 0.846296 -5.74298 0
M  V30 6945 H 648.867 -1.63161 -2.51393 0
M  V30 6946 H 646.428 -0.999899 -1.27333 0
M  V30 6947 H 648.42 0.397215 -4.02746 0
M  V30 6948 H 646.99 0.765231 -3.03089 0
M  V30 6949 H 646.21 -1.6601 -3.57539 0
M  V30 6950 H 647.498 -1.70968 -4.79215 0
M  V30 6951 H 646.896 1.39578 -5.4821 0
M  V30 6952 H 645.453 1.23296 -6.40032 0
M  V30 6953 N 648.886 1.2938 -0.899927 0
M  V30 6954 C 649.849 2.25983 -0.382677 0
M  V30 6955 C 650.849 1.53366 0.483259 0
M  V30 6956 O 652.039 1.71798 0.28828 0
M  V30 6957 C 649.171 3.37878 0.452915 0
M  V30 6958 H 650.364 2.73252 -1.23586 0
M  V30 6959 H 647.917 1.40825 -0.678088 0
M  V30 6960 H 648.652 2.95949 1.32608 0
M  V30 6961 H 648.437 3.91742 -0.167562 0
M  V30 6962 H 649.927 4.09746 0.806107 0
M  V30 6963 N 650.364 0.662433 1.43002 0
M  V30 6964 C 651.296 -0.062326 2.29115 0
M  V30 6965 C 652.309 -0.777926 1.43011 0
M  V30 6966 O 653.498 -0.634146 1.66856 0
M  V30 6967 C 650.598 -1.11163 3.2015 0
M  V30 6968 C 649.771 -0.472327 4.34842 0
M  V30 6969 C 648.83 -1.41974 5.06685 0
M  V30 6970 O 647.856 -0.924795 5.61637 0
M  V30 6971 N 649.058 -2.75345 5.11043 0
M  V30 6972 H 651.823 0.676838 2.91957 0
M  V30 6973 H 649.384 0.505907 1.53793 0
M  V30 6974 H 651.376 -1.74643 3.65078 0
M  V30 6975 H 649.946 -1.75266 2.58845 0
M  V30 6976 H 649.166 0.341751 3.92716 0
M  V30 6977 H 650.454 -0.0264381 5.08793 0
M  V30 6978 H 649.852 -3.18108 4.67786 0
M  V30 6979 H 648.409 -3.34105 5.59658 0
M  V30 6980 N 651.842 -1.52309 0.404946 0
M  V30 6981 C 652.752 -2.30634 -0.429555 0
M  V30 6982 C 653.768 -1.38187 -1.05737 0
M  V30 6983 O 654.944 -1.71261 -1.05979 0
M  V30 6984 C 652.009 -3.10947 -1.53339 0
M  V30 6985 C 651.07 -4.19126 -0.929065 0
M  V30 6986 C 650.303 -4.95601 -1.9803 0
M  V30 6987 O 650.526 -4.72331 -3.1978 0
M  V30 6988 O 649.46 -5.80551 -1.58886 0
M  V30 6989 H 653.286 -3.0298 0.208963 0
M  V30 6990 H 650.871 -1.4845 0.168255 0
M  V30 6991 H 652.753 -3.60974 -2.1743 0
M  V30 6992 H 651.428 -2.41399 -2.15658 0
M  V30 6993 H 650.335 -3.73257 -0.250982 0
M  V30 6994 H 651.668 -4.90955 -0.349855 0
M  V30 6995 N 653.32 -0.135238 -1.57019 0
M  V30 6996 C 654.253 0.846618 -2.11914 0
M  V30 6997 C 655.231 1.25019 -1.03966 0
M  V30 6998 O 656.415 1.34838 -1.31723 0
M  V30 6999 C 653.542 2.1352 -2.6292 0
M  V30 7000 C 652.588 1.87846 -3.82905 0
M  V30 7001 S 653.421 1.08005 -5.24495 0
M  V30 7002 C 654.577 2.38008 -5.78881 0
M  V30 7003 H 654.81 0.379752 -2.94865 0
M  V30 7004 H 652.343 0.0788387 -1.54199 0
M  V30 7005 H 654.301 2.87551 -2.92958 0
M  V30 7006 H 652.962 2.57323 -1.80121 0
M  V30 7007 H 652.155 2.83365 -4.16797 0
M  V30 7008 H 651.757 1.21929 -3.53567 0
M  V30 7009 H 654.049 3.33742 -5.89595 0
M  V30 7010 H 654.992 2.08638 -6.76665 0
M  V30 7011 H 655.4 2.48119 -5.07048 0
M  V30 7012 N 654.798 1.5699 0.138552 0
M  V30 7013 C 656.028 1.87704 0.863184 0
M  V30 7014 C 656.436 0.722411 1.74865 0
M  V30 7015 O 655.779 -0.316636 1.80951 0
M  V30 7016 C 655.841 3.13219 1.76449 0
M  V30 7017 C 655.505 4.44648 1.05532 0
M  V30 7018 C 656.502 5.18318 0.405252 0
M  V30 7019 C 654.187 4.91367 1.04231 0
M  V30 7020 C 656.181 6.36916 -0.24835 0
M  V30 7021 C 653.868 6.09887 0.384904 0
M  V30 7022 C 654.866 6.82508 -0.259292 0
M  V30 7023 O 654.554 7.98775 -0.906258 0
M  V30 7024 H 654.286 0.626255 0.254521 0
M  V30 7025 H 656.84 2.04966 0.133472 0
M  V30 7026 H 655.07 2.91988 2.53535 0
M  V30 7027 H 656.759 3.30111 2.36181 0
M  V30 7028 H 657.525 4.83289 0.407053 0
M  V30 7029 H 653.404 4.34759 1.53315 0
M  V30 7030 H 656.948 6.93538 -0.751755 0
M  V30 7031 H 652.845 6.44376 0.380799 0
M  V30 7032 H 653.613 8.14494 -0.80877 0
M  V30 7033 N 656.276 -0.40816 1.52223 0
M  V30 7034 C 657.692 -0.74685 1.41047 0
M  V30 7035 C 657.892 -1.94788 0.51573 0
M  V30 7036 O 656.948 -2.52494 -0.0181156 0
M  V30 7037 C 658.261 -0.999878 2.83589 0
M  V30 7038 C 659.809 -1.10253 2.92939 0
M  V30 7039 C 660.284 -1.38832 4.36451 0
M  V30 7040 N 661.775 -1.45694 4.3969 0
M  V30 7041 C 662.51 -1.69435 5.47795 0
M  V30 7042 N 662.006 -1.90774 6.66016 0
M  V30 7043 N 663.799 -1.71458 5.35312 0
M  V30 7044 H 655.95 0.382409 2.08929 0
M  V30 7045 H 658.213 0.108807 0.941735 0
M  V30 7046 H 657.919 -0.189723 3.51188 0
M  V30 7047 H 657.793 -1.91978 3.24691 0
M  V30 7048 H 660.18 -1.90328 2.2552 0
M  V30 7049 H 660.261 -0.160973 2.55293 0
M  V30 7050 H 659.905 -0.592741 5.04429 0
M  V30 7051 H 659.835 -2.34241 4.71634 0
M  V30 7052 H 662.326 -1.3099 3.54472 0
M  V30 7053 H 662.639 -2.08342 7.44186 0
M  V30 7054 H 660.984 -1.88037 6.69079 0
M  V30 7055 H 664.175 -1.54326 4.41929 0
M  V30 7056 H 664.348 -1.89621 6.19635 0
M  V30 7057 N 657.755 -1.42862 -0.66545 0
M  V30 7058 C 658.985 -1.47032 -1.45138 0
M  V30 7059 C 659.393 -0.0829977 -1.89018 0
M  V30 7060 O 658.736 0.914551 -1.59316 0
M  V30 7061 C 658.798 -2.34302 -2.72659 0
M  V30 7062 C 658.462 -3.82034 -2.50796 0
M  V30 7063 C 659.459 -4.73453 -2.14799 0
M  V30 7064 C 657.144 -4.26397 -2.655 0
M  V30 7065 C 659.138 -6.07228 -1.93785 0
M  V30 7066 C 656.825 -5.6023 -2.44103 0
M  V30 7067 C 657.823 -6.50462 -2.08299 0
M  V30 7068 O 657.511 -7.8182 -1.87116 0
M  V30 7069 H 657.243 -0.501969 -0.452772 0
M  V30 7070 H 659.797 -1.88137 -0.82423 0
M  V30 7071 H 658.027 -1.88063 -3.37889 0
M  V30 7072 H 659.716 -2.29818 -3.34572 0
M  V30 7073 H 660.482 -4.4046 -2.03026 0
M  V30 7074 H 656.361 -3.56448 -2.92345 0
M  V30 7075 H 659.905 -6.7762 -1.65763 0
M  V30 7076 H 655.802 -5.92793 -2.55475 0
M  V30 7077 H 656.57 -7.93274 -2.01639 0
M  V30 7078 N 659.233 0.902656 -1.29189 0
M  V30 7079 C 660.163 2.02294 -1.16616 0
M  V30 7080 C 661.144 1.6999 -0.0611175 0
M  V30 7081 O 662.329 1.9271 -0.240072 0
M  V30 7082 C 659.459 3.37018 -0.83882 0
M  V30 7083 C 658.413 3.83522 -1.89986 0
M  V30 7084 C 657.739 5.15337 -1.42589 0
M  V30 7085 C 659.039 4.04169 -3.30824 0
M  V30 7086 H 660.733 2.13071 -2.10336 0
M  V30 7087 H 658.279 1.02378 -1.01266 0
M  V30 7088 H 660.232 4.14895 -0.737584 0
M  V30 7089 H 658.956 3.26325 0.134071 0
M  V30 7090 H 657.615 3.07859 -1.99043 0
M  V30 7091 H 657.263 5.01056 -0.441759 0
M  V30 7092 H 656.963 5.47423 -2.13547 0
M  V30 7093 H 658.487 5.95758 -1.3381 0
M  V30 7094 H 659.901 4.72537 -3.24626 0
M  V30 7095 H 658.298 4.47604 -3.99713 0
M  V30 7096 H 659.368 3.08604 -3.74021 0
M  V30 7097 N 660.711 1.11618 1.11262 0
M  V30 7098 C 661.674 0.779447 2.15539 0
M  V30 7099 C 662.674 -0.202081 1.59525 0
M  V30 7100 O 663.864 0.0226356 1.74185 0
M  V30 7101 C 660.996 0.15674 3.40539 0
M  V30 7102 H 662.189 1.70324 2.4684 0
M  V30 7103 H 659.742 0.918298 1.26479 0
M  V30 7104 H 660.477 -0.777186 3.1485 0
M  V30 7105 H 660.262 0.863308 3.82478 0
M  V30 7106 H 661.752 -0.062661 4.17553 0
M  V30 7107 N 662.189 -1.289 0.906776 0
M  V30 7108 C 663.438 -1.9455 0.532262 0
M  V30 7109 C 663.751 -1.72219 -0.927353 0
M  V30 7110 O 664.957 -2.32033 -1.40971 0
M  V30 7111 C 663.413 -3.48438 0.901041 0
M  V30 7112 C 663.021 -3.79558 2.37991 0
M  V30 7113 C 664.765 -4.20284 0.596777 0
M  V30 7114 C 662.672 -5.26723 2.68918 0
M  V30 7115 H 661.602 -0.728259 0.195333 0
M  V30 7116 H 664.253 -1.46519 1.10474 0
M  V30 7117 H 662.635 -3.95162 0.257419 0
M  V30 7118 H 663.809 -3.43668 3.06967 0
M  V30 7119 H 662.124 -3.20868 2.65391 0
M  V30 7120 H 664.721 -5.28612 0.8046 0
M  V30 7121 H 665.064 -4.13694 -0.465072 0
M  V30 7122 H 665.597 -3.79315 1.19855 0
M  V30 7123 H 662.336 -5.38384 3.73928 0
M  V30 7124 H 661.856 -5.63836 2.04571 0
M  V30 7125 H 663.535 -5.94391 2.55555 0
M  V30 7126 N 663.667 -0.670007 -1.42649 0
M  V30 7127 C 664.63 0.00204659 -2.292 0
M  V30 7128 C 665.63 0.733817 -1.4308 0
M  V30 7129 O 666.82 0.57254 -1.64522 0
M  V30 7130 C 663.952 1.01359 -3.25483 0
M  V30 7131 H 665.145 -0.759696 -2.90118 0
M  V30 7132 H 662.698 -0.432105 -1.50208 0
M  V30 7133 H 663.433 1.80399 -2.69493 0
M  V30 7134 H 663.218 0.492323 -3.88997 0
M  V30 7135 H 664.708 1.4824 -3.90403 0
M  V30 7136 N 665.145 1.52092 -0.413018 0
M  V30 7137 C 666.093 2.28681 0.425199 0
M  V30 7138 C 667.087 1.3353 1.04241 0
M  V30 7139 O 668.293 1.50973 0.980166 0
M  V30 7140 H 664.668 0.735661 0.155906 0
M  V30 7141 H 666.639 2.97418 -0.241926 0
M  V30 7142 C 665.388 3.1235 1.5275 0
M  V30 7143 H 664.711 3.85439 1.06191 0
M  V30 7144 H 666.151 3.69038 2.08774 0
M  V30 7145 C 664.61 2.26161 2.49706 0
M  V30 7146 O 665.14 1.90452 3.53682 0
M  V30 7147 N 663.346 1.89854 2.20008 0
M  V30 7148 H 662.893 2.19092 1.35486 0
M  V30 7149 H 662.851 1.3248 2.85125 0
M  V30 7150 N 666.623 0.143563 1.56945 0
M  V30 7151 C 667.853 -0.514699 2.00086 0
M  V30 7152 C 668.261 -1.59184 1.0226 0
M  V30 7153 O 667.604 -1.83697 0.0110514 0
M  V30 7154 C 667.666 -1.17778 3.39659 0
M  V30 7155 C 667.33 -0.245657 4.56339 0
M  V30 7156 C 668.327 0.525343 5.17239 0
M  V30 7157 C 666.012 -0.149564 5.02077 0
M  V30 7158 C 668.006 1.37992 6.22284 0
M  V30 7159 C 665.693 0.708621 6.06978 0
M  V30 7160 C 666.691 1.47197 6.6695 0
M  V30 7161 O 666.379 2.31586 7.6982 0
M  V30 7162 H 666.111 -0.138789 0.661599 0
M  V30 7163 H 668.665 0.234098 2.04062 0
M  V30 7164 H 666.895 -1.97415 3.32512 0
M  V30 7165 H 668.584 -1.73542 3.6693 0
M  V30 7166 H 669.35 0.461118 4.82803 0
M  V30 7167 H 665.229 -0.733457 4.55128 0
M  V30 7168 H 668.773 1.97621 6.69023 0
M  V30 7169 H 664.67 0.77415 6.40841 0
M  V30 7170 H 665.438 2.24796 7.87025 0
M  V30 7171 N 668.101 -1.57061 -0.130224 0
M  V30 7172 C 669.011 -2.02802 -1.17934 0
M  V30 7173 C 670.027 -0.946378 -1.46013 0
M  V30 7174 O 671.203 -1.25708 -1.57351 0
M  V30 7175 C 668.268 -2.41368 -2.48882 0
M  V30 7176 C 667.329 -3.63561 -2.28301 0
M  V30 7177 C 666.562 -4.00279 -3.53005 0
M  V30 7178 O 666.785 -3.37463 -4.59864 0
M  V30 7179 O 665.719 -4.93441 -3.44673 0
M  V30 7180 H 669.545 -2.92394 -0.820958 0
M  V30 7181 H 667.13 -1.45475 -0.340197 0
M  V30 7182 H 669.012 -2.66958 -3.26054 0
M  V30 7183 H 667.687 -1.54926 -2.84217 0
M  V30 7184 H 666.594 -3.43136 -1.49025 0
M  V30 7185 H 667.927 -4.50673 -1.97875 0
M  V30 7186 N 669.579 0.400081 -1.52437 0
M  V30 7187 C 670.856 1.15973 -1.57511 0
M  V30 7188 C 671.236 2.0798 -0.361572 0
M  V30 7189 O 670.584 2.19032 0.650929 0
M  V30 7190 C 670.794 1.92912 -2.90837 0
M  V30 7191 C 672.142 2.48662 -3.44169 0
M  V30 7192 O 673.166 2.03081 -2.92637 0
M  V30 7193 O 672.025 3.31894 -4.34176 0
M  V30 7194 H 669.119 0.530023 -0.634827 0
M  V30 7195 H 671.665 0.40613 -1.64769 0
M  V30 7196 H 670.437 1.25564 -3.70607 0
M  V30 7197 H 670.06 2.75257 -2.86913 0
M  V30 7198 N 671.057 1.43213 0.657864 0
M  V30 7199 C 672.473 1.26511 0.972992 0
M  V30 7200 C 672.673 0.181477 2.00681 0
M  V30 7201 O 671.729 -0.441649 2.48608 0
M  V30 7202 C 673.042 2.62784 1.46168 0
M  V30 7203 C 674.59 2.70278 1.57857 0
M  V30 7204 C 675.065 4.06958 2.10117 0
M  V30 7205 N 676.556 4.08999 2.17426 0
M  V30 7206 C 677.291 5.11585 2.58975 0
M  V30 7207 N 676.787 6.24548 2.99853 0
M  V30 7208 N 678.58 4.9894 2.58873 0
M  V30 7209 H 670.731 2.12384 -0.0263129 0
M  V30 7210 H 672.994 0.946638 0.0507992 0
M  V30 7211 H 672.7 3.43022 0.776474 0
M  V30 7212 H 672.574 2.87863 2.43751 0
M  V30 7213 H 674.961 1.90376 2.25479 0
M  V30 7214 H 675.042 2.4897 0.587179 0
M  V30 7215 H 674.686 4.87325 1.43098 0
M  V30 7216 H 674.616 4.25628 3.10078 0
M  V30 7217 H 677.107 3.27457 1.88627 0
M  V30 7218 H 677.42 6.98661 3.30292 0
M  V30 7219 H 675.765 6.28027 2.97669 0
M  V30 7220 H 678.956 4.09757 2.26311 0
M  V30 7221 H 679.129 5.79019 2.90932 0
M  V30 7222 N 672.536 -0.895792 1.29666 0
M  V30 7223 C 673.783 -1.64664 1.17864 0
M  V30 7224 C 674.111 -1.92631 -0.26902 0
M  V30 7225 O 673.366 -1.53787 -1.21029 0
M  V30 7226 C 673.665 -3.00075 1.94139 0
M  V30 7227 C 673.331 -2.91702 3.43833 0
M  V30 7228 C 671.993 -2.89126 3.84656 0
M  V30 7229 C 674.345 -2.80622 4.39205 0
M  V30 7230 C 671.673 -2.73293 5.1916 0
M  V30 7231 C 674.025 -2.66329 5.73805 0
M  V30 7232 C 672.689 -2.62121 6.1388 0
M  V30 7233 H 671.959 -0.602549 0.431295 0
M  V30 7234 H 674.606 -1.04234 1.60648 0
M  V30 7235 H 672.911 -3.64394 1.43958 0
M  V30 7236 H 674.608 -3.57111 1.82408 0
M  V30 7237 H 671.198 -2.94511 3.11386 0
M  V30 7238 H 675.382 -2.81686 4.08615 0
M  V30 7239 H 670.638 -2.68443 5.49316 0
M  V30 7240 H 674.812 -2.56727 6.47352 0
M  V30 7241 H 672.439 -2.49611 7.18052 0
M  V30 7242 N 674.014 -1.12206 -1.10668 0
M  V30 7243 C 675.26 -0.877172 -1.82848 0
M  V30 7244 C 675.593 0.595571 -1.84842 0
M  V30 7245 O 674.868 1.44013 -1.30731 0
M  V30 7246 C 675.151 -1.44957 -3.29635 0
M  V30 7247 C 675.004 -2.99051 -3.35989 0
M  V30 7248 C 676.323 -1.10714 -4.25946 0
M  V30 7249 H 673.442 -0.320103 -0.663854 0
M  V30 7250 H 676.084 -1.38827 -1.2972 0
M  V30 7251 H 674.234 -1.01488 -3.7501 0
M  V30 7252 H 675.906 -3.51182 -2.99113 0
M  V30 7253 H 674.149 -3.34705 -2.75962 0
M  V30 7254 H 674.82 -3.34194 -4.39339 0
M  V30 7255 H 677.296 -1.48254 -3.88793 0
M  V30 7256 H 676.172 -1.5343 -5.2702 0
M  V30 7257 H 676.433 -0.019 -4.42096 0
M  V30 7258 N 675.492 1.28418 -0.913599 0
M  V30 7259 C 676.738 1.9527 -0.547484 0
M  V30 7260 C 677.071 1.71745 0.906486 0
M  V30 7261 O 676.346 1.03834 1.64465 0
M  V30 7262 C 676.629 3.49748 -0.857205 0
M  V30 7263 C 676.482 3.82675 -2.3639 0
M  V30 7264 C 677.801 4.3868 -0.353258 0
M  V30 7265 H 674.92 0.709236 -0.200381 0
M  V30 7266 H 677.562 1.51789 -1.14281 0
M  V30 7267 H 675.712 3.86915 -0.350548 0
M  V30 7268 H 677.384 3.55378 -2.94116 0
M  V30 7269 H 675.627 3.29724 -2.81894 0
M  V30 7270 H 676.298 4.90547 -2.53115 0
M  V30 7271 H 678.774 4.08584 -0.787288 0
M  V30 7272 H 677.65 5.45621 -0.599049 0
M  V30 7273 H 677.911 4.35753 0.746413 0
M  V30 7274 N 676.97 0.677563 1.42291 0
M  V30 7275 C 678.381 0.277912 1.8462 0
M  V30 7276 C 678.732 -1.18048 1.56714 0
M  V30 7277 O 677.857 -1.90404 1.02836 0
M  V30 7278 C 678.452 0.497619 3.35126 0
M  V30 7279 C 677.011 0.152063 3.76093 0
M  V30 7280 C 676.158 0.78872 2.65847 0
M  V30 7281 H 679.109 0.879527 1.32098 0
M  V30 7282 H 679.13 -0.24939 3.79682 0
M  V30 7283 H 678.642 1.55913 3.55405 0
M  V30 7284 H 676.743 -0.905896 3.6142 0
M  V30 7285 H 676.856 0.594514 4.75397 0
M  V30 7286 H 675.22 0.219813 2.5375 0
M  V30 7287 H 676.003 1.85374 2.88949 0
M  V30 7288 N 678.448 -1.51871 0.421078 0
M  V30 7289 C 679.673 -2.0684 -0.152371 0
M  V30 7290 C 680.098 -1.28802 -1.37083 0
M  V30 7291 O 679.456 -0.321482 -1.78427 0
M  V30 7292 C 679.504 -3.57532 -0.469368 0
M  V30 7293 O 678.608 -3.81818 -1.55848 0
M  V30 7294 H 677.949 -0.663939 -0.00898586 0
M  V30 7295 H 680.479 -1.95674 0.597724 0
M  V30 7296 H 680.489 -4.01515 -0.724553 0
M  V30 7297 H 679.164 -4.13761 0.421276 0
M  V30 7298 H 677.741 -3.49709 -1.29453 0
M  V30 7299 N 679.926 -0.151884 -1.56866 0
M  V30 7300 C 681.151 0.508044 -2.01081 0
M  V30 7301 C 681.576 1.57306 -1.03134 0
M  V30 7302 O 680.934 1.81298 -0.0078309 0
M  V30 7303 C 680.982 1.08106 -3.44014 0
M  V30 7304 O 680.086 2.19577 -3.49084 0
M  V30 7305 H 679.427 0.123757 -0.652365 0
M  V30 7306 H 681.957 -0.250055 -2.03066 0
M  V30 7307 H 681.967 1.40851 -3.82916 0
M  V30 7308 H 680.642 0.301168 -4.14808 0
M  V30 7309 H 679.219 1.88023 -3.22027 0
M  V30 7310 N 681.404 1.57128 0.121893 0
M  V30 7311 C 682.354 1.96556 1.15541 0
M  V30 7312 C 683.338 0.840147 1.37224 0
M  V30 7313 O 684.53 1.10382 1.38365 0
M  V30 7314 C 681.659 2.37097 2.48274 0
M  V30 7315 C 680.745 3.56265 2.30078 0
M  V30 7316 N 681.136 4.72041 1.81688 0
M  V30 7317 C 679.434 3.61841 2.60744 0
M  V30 7318 C 680.135 5.54075 1.77132 0
M  V30 7319 N 679.111 4.96483 2.21371 0
M  V30 7320 H 682.913 2.83531 0.77378 0
M  V30 7321 H 680.427 1.59019 0.329672 0
M  V30 7322 H 682.424 2.6356 3.2302 0
M  V30 7323 H 681.084 1.51486 2.87197 0
M  V30 7324 H 682.095 4.95313 1.51278 0
M  V30 7325 H 678.772 2.8683 3.03373 0
M  V30 7326 H 680.162 6.56939 1.40998 0
M  V30 7327 N 682.882 -0.391992 1.52647 0
M  V30 7328 C 684.298 -0.731848 1.41831 0
M  V30 7329 C 684.498 -1.9423 0.536361 0
M  V30 7330 O 683.554 -2.52499 0.00866571 0
M  V30 7331 C 684.867 -0.969743 2.84634 0
M  V30 7332 C 686.415 -1.0714 2.94092 0
M  V30 7333 C 686.89 -1.34195 4.37899 0
M  V30 7334 N 688.381 -1.41023 4.41211 0
M  V30 7335 C 689.116 -1.63616 5.49561 0
M  V30 7336 N 688.612 -1.83699 6.68002 0
M  V30 7337 N 690.405 -1.65771 5.371 0
M  V30 7338 H 682.556 0.404547 2.08512 0
M  V30 7339 H 684.819 0.11879 0.940528 0
M  V30 7340 H 684.525 -0.152465 3.51369 0
M  V30 7341 H 684.399 -1.88523 3.26709 0
M  V30 7342 H 686.786 -1.87925 2.27526 0
M  V30 7343 H 686.867 -0.133887 2.55449 0
M  V30 7344 H 686.511 -0.539207 5.0503 0
M  V30 7345 H 686.441 -2.29226 4.74092 0
M  V30 7346 H 688.932 -1.27223 3.55841 0
M  V30 7347 H 689.245 -2.00437 7.46354 0
M  V30 7348 H 687.59 -1.8093 6.71036 0
M  V30 7349 H 690.781 -1.4963 4.43541 0
M  V30 7350 H 690.954 -1.83038 6.21612 0
M  V30 7351 N 684.36 -1.4356 -0.65026 0
M  V30 7352 C 685.27 -1.514 -1.79207 0
M  V30 7353 C 686.286 -0.400895 -1.69319 0
M  V30 7354 O 687.462 -0.655458 -1.90436 0
M  V30 7355 C 684.527 -1.43737 -3.155 0
M  V30 7356 C 683.588 -2.65743 -3.37163 0
M  V30 7357 C 682.821 -2.58436 -4.66954 0
M  V30 7358 O 683.044 -1.63374 -5.46503 0
M  V30 7359 O 681.978 -3.48984 -4.90402 0
M  V30 7360 H 685.804 -2.47825 -1.75547 0
M  V30 7361 H 683.389 -1.25594 -0.809111 0
M  V30 7362 H 685.271 -1.41916 -3.96784 0
M  V30 7363 H 683.946 -0.504488 -3.19745 0
M  V30 7364 H 682.853 -2.73136 -2.55632 0
M  V30 7365 H 684.186 -3.58014 -3.37768 0
M  V30 7366 N 685.838 0.888903 -1.30139 0
M  V30 7367 C 686.768 2.01046 -1.18755 0
M  V30 7368 C 687.749 1.69916 -0.0791438 0
M  V30 7369 O 688.934 1.92445 -0.260498 0
M  V30 7370 C 686.064 3.36109 -0.874518 0
M  V30 7371 C 685.018 3.81486 -1.94043 0
M  V30 7372 C 684.344 5.13796 -1.48047 0
M  V30 7373 C 685.644 4.00637 -3.35093 0
M  V30 7374 H 687.338 2.10828 -2.12584 0
M  V30 7375 H 684.884 1.01298 -1.02346 0
M  V30 7376 H 686.837 4.14089 -0.781548 0
M  V30 7377 H 685.561 3.26449 0.0994519 0
M  V30 7378 H 684.22 3.05731 -2.02297 0
M  V30 7379 H 683.868 5.0056 -0.494878 0
M  V30 7380 H 683.568 5.45127 -2.19341 0
M  V30 7381 H 685.092 5.94305 -1.40121 0
M  V30 7382 H 686.506 4.69067 -3.2962 0
M  V30 7383 H 684.903 4.43339 -4.04438 0
M  V30 7384 H 685.973 3.0462 -3.77273 0
M  V30 7385 N 687.317 1.12792 1.10072 0
M  V30 7386 C 688.28 0.802264 2.14701 0
M  V30 7387 C 689.28 -0.18515 1.59731 0
M  V30 7388 O 690.47 0.041109 1.74151 0
M  V30 7389 C 687.602 0.19285 3.40354 0
M  V30 7390 H 688.795 1.72932 2.45019 0
M  V30 7391 H 686.348 0.931662 1.25498 0
M  V30 7392 H 687.083 -0.743748 3.15656 0
M  V30 7393 H 686.868 0.903827 3.81541 0
M  V30 7394 H 688.358 -0.0183704 4.17596 0
M  V30 7395 N 688.795 -1.27931 0.920396 0
M  V30 7396 C 690.211 -1.47085 0.619537 0
M  V30 7397 C 690.411 -1.83463 -0.833291 0
M  V30 7398 O 689.467 -1.94363 -1.61181 0
M  V30 7399 C 690.78 -2.56878 1.56314 0
M  V30 7400 C 692.328 -2.70743 1.57058 0
M  V30 7401 C 692.803 -3.83687 2.50097 0
M  V30 7402 N 694.294 -3.9105 2.48262 0
M  V30 7403 C 695.029 -4.77842 3.16945 0
M  V30 7404 N 694.525 -5.69176 3.94982 0
M  V30 7405 N 696.318 -4.71509 3.06 0
M  V30 7406 H 688.469 -1.02601 1.85975 0
M  V30 7407 H 690.732 -0.511682 0.798051 0
M  V30 7408 H 690.438 -2.36923 2.59923 0
M  V30 7409 H 690.312 -3.54117 1.29928 0
M  V30 7410 H 692.699 -2.90083 0.541832 0
M  V30 7411 H 692.78 -1.74015 1.8749 0
M  V30 7412 H 692.424 -3.65101 3.53077 0
M  V30 7413 H 692.354 -4.79827 2.16964 0
M  V30 7414 H 694.845 -3.25738 1.91581 0
M  V30 7415 H 695.158 -6.32245 4.44394 0
M  V30 7416 H 693.503 -5.68995 3.99086 0
M  V30 7417 H 696.694 -3.99151 2.44533 0
M  V30 7418 H 696.867 -5.38933 3.59799 0
M  V30 7419 N 690.273 -0.685099 -1.4193 0
M  V30 7420 C 691.183 -0.013404 -2.34596 0
M  V30 7421 C 692.199 0.777589 -1.55658 0
M  V30 7422 O 693.375 0.717553 -1.88184 0
M  V30 7423 C 690.44 0.919031 -3.34297 0
M  V30 7424 C 689.501 0.121417 -4.29128 0
M  V30 7425 C 688.734 1.00944 -5.24067 0
M  V30 7426 O 688.957 2.24898 -5.24192 0
M  V30 7427 O 687.891 0.464724 -6.00103 0
M  V30 7428 H 691.717 -0.776978 -2.93593 0
M  V30 7429 H 689.302 -0.445379 -1.42607 0
M  V30 7430 H 691.184 1.45402 -3.9552 0
M  V30 7431 H 689.859 1.66228 -2.77759 0
M  V30 7432 H 688.766 -0.45792 -3.71287 0
M  V30 7433 H 690.099 -0.582937 -4.88736 0
M  V30 7434 N 691.751 1.51645 -0.429126 0
M  V30 7435 C 692.714 2.26116 0.374726 0
M  V30 7436 C 693.714 1.29242 0.956714 0
M  V30 7437 O 694.904 1.53022 0.832452 0
M  V30 7438 C 692.036 3.04669 1.52937 0
M  V30 7439 H 693.229 2.9861 -0.277818 0
M  V30 7440 H 690.782 1.55236 -0.182097 0
M  V30 7441 H 691.517 2.36571 2.21821 0
M  V30 7442 H 691.302 3.75814 1.11833 0
M  V30 7443 H 692.792 3.61102 2.09751 0
M  V30 7444 N 693.229 0.160201 1.56784 0
M  V30 7445 C 694.476 -0.487588 1.96542 0
M  V30 7446 C 694.804 -1.63999 1.04569 0
M  V30 7447 O 694.059 -1.95546 0.0775211 0
M  V30 7448 C 694.358 -1.02259 3.42459 0
M  V30 7449 C 694.024 0.0127436 4.50898 0
M  V30 7450 C 692.686 0.297318 4.80281 0
M  V30 7451 C 695.038 0.716078 5.16257 0
M  V30 7452 C 692.366 1.29081 5.72324 0
M  V30 7453 C 694.718 1.69847 6.09372 0
M  V30 7454 C 693.382 1.99061 6.37127 0
M  V30 7455 H 692.652 -0.178421 0.719199 0
M  V30 7456 H 695.299 0.249818 1.89864 0
M  V30 7457 H 693.604 -1.8376 3.46034 0
M  V30 7458 H 695.301 -1.53261 3.70556 0
M  V30 7459 H 691.891 -0.219235 4.28039 0
M  V30 7460 H 696.075 0.509428 4.93679 0
M  V30 7461 H 691.331 1.52344 5.92116 0
M  V30 7462 H 695.505 2.2489 6.59088 0
M  V30 7463 H 693.132 2.76194 7.08252 0
M  V30 7464 N 694.707 -1.5719 -0.113559 0
M  V30 7465 C 696.118 -1.74259 -0.670116 0
M  V30 7466 C 696.469 -0.779694 -1.80042 0
M  V30 7467 O 695.594 0.0461353 -2.16351 0
M  V30 7468 C 696.189 -3.15981 -1.22236 0
M  V30 7469 C 694.748 -3.34537 -1.72516 0
M  V30 7470 C 693.895 -2.70116 -0.627098 0
M  V30 7471 H 696.846 -1.58301 0.112396 0
M  V30 7472 H 696.867 -3.17832 -2.09197 0
M  V30 7473 H 696.379 -3.86038 -0.39949 0
M  V30 7474 H 694.48 -2.6953 -2.57263 0
M  V30 7475 H 694.593 -4.42737 -1.83086 0
M  V30 7476 H 692.957 -2.31501 -1.06204 0
M  V30 7477 H 693.74 -3.42802 0.184889 0
M  V30 7478 N 696.185 0.383891 -1.52853 0
M  V30 7479 C 697.095 1.49343 -1.80925 0
M  V30 7480 C 698.111 1.59458 -0.696348 0
M  V30 7481 O 699.287 1.75698 -0.984481 0
M  V30 7482 C 696.352 2.84819 -1.97684 0
M  V30 7483 C 695.413 2.84382 -3.21598 0
M  V30 7484 C 694.646 4.13397 -3.37548 0
M  V30 7485 O 694.869 5.08619 -2.58192 0
M  V30 7486 O 693.803 4.20325 -4.30826 0
M  V30 7487 H 697.629 1.2855 -2.75152 0
M  V30 7488 H 695.214 0.572229 -1.38007 0
M  V30 7489 H 697.096 3.65125 -2.10385 0
M  V30 7490 H 695.771 3.05627 -1.06647 0
M  V30 7491 H 694.678 2.0284 -3.14336 0
M  V30 7492 H 696.011 2.68526 -4.12498 0
M  V30 7493 N 697.663 1.43903 0.642637 0
M  V30 7494 C 698.61 1.49881 1.75512 0
M  V30 7495 C 699.58 0.347538 1.62423 0
M  V30 7496 O 700.765 0.556177 1.82514 0
M  V30 7497 C 697.905 1.43797 3.13714 0
M  V30 7498 C 697.018 2.6921 3.37861 0
M  V30 7499 C 696.153 2.5504 4.6597 0
M  V30 7500 C 695.192 3.75671 4.83257 0
M  V30 7501 N 694.329 3.60247 6.02633 0
M  V30 7502 H 699.169 2.44935 1.69737 0
M  V30 7503 H 696.706 1.21572 0.828165 0
M  V30 7504 H 698.664 1.38262 3.93624 0
M  V30 7505 H 697.294 0.523173 3.18532 0
M  V30 7506 H 696.346 2.8498 2.51973 0
M  V30 7507 H 697.658 3.58786 3.46517 0
M  V30 7508 H 696.812 2.47273 5.54023 0
M  V30 7509 H 695.551 1.63006 4.59653 0
M  V30 7510 H 694.556 3.83836 3.93637 0
M  V30 7511 H 695.781 4.68728 4.91397 0
M  V30 7512 H 693.727 2.70955 5.97427 0
M  V30 7513 H 693.644 4.43431 6.12295 0
M  V30 7514 H 694.912 3.56351 6.93278 0
M  V30 7515 N 699.141 -0.881989 1.30609 0
M  V30 7516 C 700.089 -2.00942 1.17155 0
M  V30 7517 C 701.083 -1.69198 0.0827154 0
M  V30 7518 O 702.289 -1.78342 0.243775 0
M  V30 7519 H 698.664 -0.658913 0.362406 0
M  V30 7520 H 700.635 -2.09423 2.12567 0
M  V30 7521 C 699.384 -3.36294 0.883273 0
M  V30 7522 H 698.707 -3.61233 1.7132 0
M  V30 7523 H 700.147 -4.15812 0.829255 0
M  V30 7524 C 698.606 -3.34348 -0.413851 0
M  V30 7525 O 699.136 -3.75216 -1.43444 0
M  V30 7526 N 697.342 -2.87459 -0.426082 0
M  V30 7527 H 696.889 -2.54397 0.40493 0
M  V30 7528 H 696.847 -2.8654 -1.29391 0
M  V30 7529 N 700.619 -1.13374 -1.09472 0
M  V30 7530 C 701.867 -0.893422 -1.8128 0
M  V30 7531 C 702.188 0.582029 -1.86111 0
M  V30 7532 O 701.458 1.42305 -1.34633 0
M  V30 7533 H 700.038 -0.327543 -0.67136 0
M  V30 7534 H 702.7 -1.43018 -1.32408 0
M  V30 7535 H 701.796 -1.28374 -2.84476 0
M  V30 7536 N 702.098 1.27442 -0.927168 0
M  V30 7537 C 703.338 1.96157 -0.574608 0
M  V30 7538 C 703.702 1.71265 0.867897 0
M  V30 7539 O 704.903 2.33664 1.3287 0
M  V30 7540 C 703.174 3.46115 -0.891009 0
M  V30 7541 S 704.733 4.34006 -0.646885 0
M  V30 7542 H 701.551 0.678619 -0.212125 0
M  V30 7543 H 704.153 1.54688 -1.19549 0
M  V30 7544 H 702.857 3.6173 -1.93854 0
M  V30 7545 H 702.388 3.92545 -0.259301 0
M  V30 7546 H 704.403 4.93719 0.495568 0
M  V30 7547 N 703.576 0.692616 1.41565 0
M  V30 7548 C 704.824 0.221896 2.00878 0
M  V30 7549 C 705.145 -1.18164 1.5512 0
M  V30 7550 O 704.415 -1.79679 0.78054 0
M  V30 7551 H 702.995 0.0790463 0.742806 0
M  V30 7552 H 705.657 0.893115 1.73232 0
M  V30 7553 H 704.753 0.23702 3.11199 0
M  V30 7554 N 705.054 -1.51416 0.437162 0
M  V30 7555 C 706.301 -2.02086 -0.129364 0
M  V30 7556 C 706.629 -1.32133 -1.42728 0
M  V30 7557 O 705.884 -0.424916 -1.91031 0
M  V30 7558 C 706.183 -3.55203 -0.39564 0
M  V30 7559 C 705.849 -4.43447 0.81644 0
M  V30 7560 C 704.511 -4.67285 1.14884 0
M  V30 7561 C 706.863 -4.95219 1.62503 0
M  V30 7562 C 704.191 -5.40141 2.29052 0
M  V30 7563 C 706.543 -5.69327 2.7577 0
M  V30 7564 C 705.207 -5.91429 3.09464 0
M  V30 7565 H 704.477 -0.739486 -0.0473375 0
M  V30 7566 H 707.124 -1.82368 0.584321 0
M  V30 7567 H 705.429 -3.73252 -1.19121 0
M  V30 7568 H 707.126 -3.91944 -0.847399 0
M  V30 7569 H 703.716 -4.2509 0.547422 0
M  V30 7570 H 707.9 -4.76686 1.38144 0
M  V30 7571 H 703.156 -5.55468 2.55471 0
M  V30 7572 H 707.33 -6.08433 3.38795 0
M  V30 7573 H 704.957 -6.47662 3.98042 0
M  V30 7574 N 706.532 -0.168513 -1.56696 0
M  V30 7575 C 707.76 0.483503 -2.01171 0
M  V30 7576 C 708.175 1.56994 -1.04872 0
M  V30 7577 O 707.532 1.82434 -0.0491337 0
M  V30 7578 C 707.583 1.0644 -3.45475 0
M  V30 7579 O 707.304 0.0213375 -4.38095 0
M  V30 7580 C 708.805 1.79493 -4.05336 0
M  V30 7581 H 706.025 0.124002 -0.659443 0
M  V30 7582 H 708.569 -0.269419 -2.02717 0
M  V30 7583 H 706.724 1.76784 -3.44712 0
M  V30 7584 H 707.138 0.449837 -5.22567 0
M  V30 7585 H 708.612 2.15401 -5.08238 0
M  V30 7586 H 709.089 2.68889 -3.47269 0
M  V30 7587 H 709.695 1.13798 -4.09793 0
M  V30 7588 N 708.01 1.57248 0.105221 0
M  V30 7589 C 709.257 1.8557 0.810552 0
M  V30 7590 C 709.585 0.755595 1.79223 0
M  V30 7591 O 708.84 -0.251788 1.94073 0
M  V30 7592 C 709.139 3.20437 1.58287 0
M  V30 7593 C 708.805 4.44716 0.744235 0
M  V30 7594 C 707.467 4.78458 0.513013 0
M  V30 7595 C 709.819 5.20953 0.160578 0
M  V30 7596 C 707.147 5.8587 -0.311894 0
M  V30 7597 C 709.499 6.29235 -0.651596 0
M  V30 7598 C 708.163 6.615 -0.893005 0
M  V30 7599 H 707.433 0.67905 0.296602 0
M  V30 7600 H 710.08 1.91363 0.0723968 0
M  V30 7601 H 708.385 3.10283 2.39232 0
M  V30 7602 H 710.082 3.39576 2.13282 0
M  V30 7603 H 706.672 4.18287 0.934555 0
M  V30 7604 H 710.856 4.95226 0.3264 0
M  V30 7605 H 706.112 6.09286 -0.508012 0
M  V30 7606 H 710.286 6.87484 -1.11077 0
M  V30 7607 H 707.913 7.44562 -1.53401 0
M  V30 7608 N 709.488 -0.375779 1.53054 0
M  V30 7609 C 710.736 -1.11727 1.68409 0
M  V30 7610 C 711.057 -1.90127 0.43323 0
M  V30 7611 O 710.327 -1.87945 -0.552595 0
M  V30 7612 H 708.907 -0.415451 0.620813 0
M  V30 7613 H 711.569 -0.424869 1.90213 0
M  V30 7614 H 710.665 -1.8128 2.54055 0
M  V30 7615 N 710.966 -1.44241 -0.634997 0
M  V30 7616 C 712.243 -1.37296 -1.39317 0
M  V30 7617 C 712.623 -0.0297532 -2.11079 0
M  V30 7618 O 711.971 0.987524 -2.06059 0
M  V30 7619 C 712.181 -2.56853 -2.36279 0
M  V30 7620 C 713.529 -3.00747 -2.99728 0
M  V30 7621 O 714.553 -2.5703 -2.46605 0
M  V30 7622 O 713.412 -3.76533 -3.96087 0
M  V30 7623 H 710.506 -0.543503 -0.623325 0
M  V30 7624 H 713.052 -1.56324 -0.660376 0
M  V30 7625 H 711.824 -3.46228 -1.82324 0
M  V30 7626 H 711.447 -2.40019 -3.16981 0
M  V30 7627 N 712.444 0.87505 -1.31075 0
M  V30 7628 C 713.692 1.62447 -1.20231 0
M  V30 7629 C 714.013 1.93506 0.240888 0
M  V30 7630 O 713.283 1.57847 1.16022 0
M  V30 7631 H 711.863 0.602207 -0.441991 0
M  V30 7632 H 714.525 1.04788 -1.64334 0
M  V30 7633 H 713.621 2.57031 -1.77036 0
M  V30 7634 N 713.922 1.13953 1.08869 0
M  V30 7635 C 715.162 0.915128 1.8277 0
M  V30 7636 C 715.526 -0.548647 1.83994 0
M  V30 7637 O 716.727 -0.890817 2.5361 0
M  V30 7638 C 714.998 1.49382 3.24684 0
M  V30 7639 S 716.557 1.4103 4.15519 0
M  V30 7640 H 713.375 0.329716 0.629927 0
M  V30 7641 H 715.977 1.45213 1.30895 0
M  V30 7642 H 714.681 2.55241 3.21372 0
M  V30 7643 H 714.212 0.955008 3.81632 0
M  V30 7644 H 716.227 0.392617 4.94644 0
M  V30 7645 N 715.4 -1.26948 0.933913 0
M  V30 7646 C 716.35 -2.24306 0.408779 0
M  V30 7647 C 717.334 -1.53243 -0.490435 0
M  V30 7648 O 718.526 -1.73956 -0.326866 0
M  V30 7649 C 715.655 -3.41695 -0.331578 0
M  V30 7650 C 714.741 -4.20053 0.58451 0
M  V30 7651 N 715.132 -4.76122 1.70709 0
M  V30 7652 C 713.43 -4.44303 0.388703 0
M  V30 7653 C 714.131 -5.35267 2.27737 0
M  V30 7654 N 713.107 -5.20548 1.56622 0
M  V30 7655 H 716.909 -2.65244 1.26582 0
M  V30 7656 H 714.423 -1.4195 0.788919 0
M  V30 7657 H 716.42 -4.10552 -0.724774 0
M  V30 7658 H 715.08 -3.02286 -1.18547 0
M  V30 7659 H 716.091 -4.73884 2.08937 0
M  V30 7660 H 712.768 -4.15341 -0.424016 0
M  V30 7661 H 714.158 -5.89563 3.22282 0
M  V30 7662 N 716.879 -0.700114 -1.41195 0
M  V30 7663 C 718.127 -0.232546 -2.00758 0
M  V30 7664 C 718.448 1.1734 -1.55745 0
M  V30 7665 O 717.718 1.79262 -0.790058 0
M  V30 7666 H 716.298 -0.0829845 -0.742376 0
M  V30 7667 H 718.96 -0.902289 -1.72756 0
M  V30 7668 H 718.056 -0.253521 -3.11069 0
M  V30 7669 N 718.357 1.51182 -0.445186 0
M  V30 7670 C 719.582 2.07056 0.119445 0
M  V30 7671 C 720.007 1.30966 1.35016 0
M  V30 7672 O 719.365 0.349827 1.77893 0
M  V30 7673 C 719.413 3.58234 0.412428 0
M  V30 7674 O 718.517 3.84249 1.49754 0
M  V30 7675 H 717.858 0.663998 -0.00157797 0
M  V30 7676 H 720.388 1.94699 -0.628779 0
M  V30 7677 H 720.398 4.02617 0.660583 0
M  V30 7678 H 719.073 4.13038 -0.487049 0
M  V30 7679 H 717.65 3.51724 1.23873 0
M  V30 7680 N 719.835 0.176821 1.56605 0
M  V30 7681 C 721.112 -0.513365 1.88743 0
M  V30 7682 C 721.492 -1.80929 1.08757 0
M  V30 7683 O 720.84 -2.27765 0.183127 0
M  V30 7684 C 721.05 -0.749925 3.40848 0
M  V30 7685 C 722.398 -1.07747 4.10701 0
M  V30 7686 O 723.422 -0.838277 3.46196 0
M  V30 7687 O 722.281 -1.52901 5.24675 0
M  V30 7688 H 719.375 -0.265296 0.783292 0
M  V30 7689 H 721.921 0.215669 1.68324 0
M  V30 7690 H 720.693 0.16599 3.90948 0
M  V30 7691 H 720.316 -1.53208 3.66897 0
M  V30 7692 N 721.313 -1.57302 -0.09688 0
M  V30 7693 C 722.541 -1.90202 -0.814295 0
M  V30 7694 C 722.956 -0.770344 -1.72369 0
M  V30 7695 O 722.313 0.257764 -1.8067 0
M  V30 7696 C 722.364 -3.22708 -1.62916 0
M  V30 7697 O 722.085 -4.31522 -0.756343 0
M  V30 7698 C 723.586 -3.69459 -2.44979 0
M  V30 7699 H 720.806 -0.629275 -0.232925 0
M  V30 7700 H 723.35 -2.04364 -0.0746482 0
M  V30 7701 H 721.505 -3.1015 -2.32133 0
M  V30 7702 H 721.919 -5.07604 -1.32054 0
M  V30 7703 H 723.393 -4.64875 -2.9765 0
M  V30 7704 H 723.87 -2.97211 -3.23361 0
M  V30 7705 H 724.476 -3.84879 -1.80964 0
M  V30 7706 N 722.791 0.367657 -1.53252 0
M  V30 7707 C 723.738 1.45028 -1.79543 0
M  V30 7708 C 724.708 1.53288 -0.63969 0
M  V30 7709 O 725.893 1.69209 -0.881653 0
M  V30 7710 C 723.033 2.82 -1.98923 0
M  V30 7711 C 722.146 2.82722 -3.26638 0
M  V30 7712 C 721.281 4.11257 -3.36216 0
M  V30 7713 C 720.32 4.06113 -4.57972 0
M  V30 7714 N 719.457 5.26293 -4.64715 0
M  V30 7715 H 724.297 1.21908 -2.71923 0
M  V30 7716 H 721.834 0.591011 -1.34705 0
M  V30 7717 H 723.792 3.61568 -2.08146 0
M  V30 7718 H 722.422 3.03523 -1.09881 0
M  V30 7719 H 721.474 1.95399 -3.26379 0
M  V30 7720 H 722.786 2.74794 -4.16281 0
M  V30 7721 H 721.94 4.99239 -3.44739 0
M  V30 7722 H 720.679 4.21935 -2.44586 0
M  V30 7723 H 719.684 3.16517 -4.49552 0
M  V30 7724 H 720.909 3.97039 -5.50942 0
M  V30 7725 H 718.855 5.37561 -3.75985 0
M  V30 7726 H 718.772 5.20526 -5.4826 0
M  V30 7727 H 720.04 6.16113 -4.77519 0
M  V30 7728 N 724.269 1.44576 0.627338 0
M  V30 7729 C 725.516 1.47558 1.38682 0
M  V30 7730 C 725.844 0.109636 1.94191 0
M  V30 7731 O 725.099 -0.889092 1.74338 0
M  V30 7732 C 725.398 2.48644 2.56731 0
M  V30 7733 C 725.064 3.93873 2.19489 0
M  V30 7734 C 723.726 4.33421 2.09045 0
M  V30 7735 C 726.078 4.85286 1.90124 0
M  V30 7736 C 723.406 5.62303 1.6743 0
M  V30 7737 C 725.758 6.14559 1.50001 0
M  V30 7738 C 724.422 6.53058 1.38101 0
M  V30 7739 H 723.692 0.539955 0.507474 0
M  V30 7740 H 726.339 1.77811 0.711021 0
M  V30 7741 H 724.644 2.11889 3.29561 0
M  V30 7742 H 726.341 2.48197 3.14959 0
M  V30 7743 H 722.931 3.62587 2.28537 0
M  V30 7744 H 727.115 4.55483 1.971 0
M  V30 7745 H 722.371 5.90945 1.56823 0
M  V30 7746 H 726.545 6.84848 1.26319 0
M  V30 7747 H 724.172 7.52826 1.05628 0
M  V30 7748 N 725.747 -0.868086 1.31537 0
M  V30 7749 C 726.695 -1.99688 1.1928 0
M  V30 7750 C 727.689 -1.69101 0.100656 0
M  V30 7751 O 728.895 -1.78073 0.262677 0
M  V30 7752 H 725.27 -0.655032 0.369374 0
M  V30 7753 H 727.241 -2.07157 2.14776 0
M  V30 7754 C 725.99 -3.35338 0.918892 0
M  V30 7755 H 725.313 -3.59396 1.75142 0
M  V30 7756 H 726.753 -4.14909 0.873311 0
M  V30 7757 C 725.212 -3.34769 -0.378366 0
M  V30 7758 O 725.742 -3.76716 -1.39456 0
M  V30 7759 N 723.948 -2.87895 -0.39557 0
M  V30 7760 H 723.495 -2.53954 0.431889 0
M  V30 7761 H 723.453 -2.87897 -1.26344 0
M  V30 7762 N 727.225 -1.14528 -1.08264 0
M  V30 7763 C 728.155 -0.856356 -2.1723 0
M  V30 7764 C 729.136 0.189251 -1.69044 0
M  V30 7765 O 730.321 0.0456119 -1.94146 0
M  V30 7766 C 727.451 -0.334662 -3.45684 0
M  V30 7767 C 726.405 -1.31588 -4.0727 0
M  V30 7768 C 725.731 -0.653428 -5.30692 0
M  V30 7769 C 727.031 -2.67866 -4.48381 0
M  V30 7770 H 728.725 -1.76755 -2.41657 0
M  V30 7771 H 726.271 -0.851287 -1.16143 0
M  V30 7772 H 728.224 -0.120128 -4.21229 0
M  V30 7773 H 726.948 0.611967 -3.20815 0
M  V30 7774 H 725.607 -1.51661 -3.33758 0
M  V30 7775 H 725.255 0.299054 -5.0211 0
M  V30 7776 H 724.955 -1.30817 -5.72853 0
M  V30 7777 H 726.479 -0.448453 -6.08951 0
M  V30 7778 H 727.893 -2.51692 -5.15096 0
M  V30 7779 H 726.29 -3.29627 -5.01464 0
M  V30 7780 H 727.36 -3.24632 -3.60198 0
M  V30 7781 N 728.703 1.26451 -0.940633 0
M  V30 7782 C 729.95 1.93778 -0.587909 0
M  V30 7783 C 730.278 1.73811 0.872935 0
M  V30 7784 O 729.533 1.06816 1.63978 0
M  V30 7785 C 729.832 3.46503 -0.875794 0
M  V30 7786 C 729.498 3.86609 -2.32043 0
M  V30 7787 C 728.16 3.97269 -2.71534 0
M  V30 7788 C 730.512 4.0672 -3.25927 0
M  V30 7789 C 727.84 4.25436 -4.04006 0
M  V30 7790 C 730.192 4.36375 -4.57995 0
M  V30 7791 C 728.856 4.45249 -4.97302 0
M  V30 7792 H 728.126 0.709084 -0.215131 0
M  V30 7793 H 730.773 1.50272 -1.18704 0
M  V30 7794 H 729.078 3.91319 -0.194124 0
M  V30 7795 H 730.775 3.96759 -0.581665 0
M  V30 7796 H 727.365 3.78858 -2.00411 0
M  V30 7797 H 731.549 3.97912 -2.96614 0
M  V30 7798 H 726.805 4.30519 -4.34124 0
M  V30 7799 H 730.979 4.50882 -5.30734 0
M  V30 7800 H 728.606 4.66829 -5.99979 0
M  V30 7801 N 730.181 0.707592 1.40822 0
M  V30 7802 C 731.129 0.0386643 2.32568 0
M  V30 7803 C 732.123 -0.755653 1.51612 0
M  V30 7804 O 733.329 -0.659921 1.67467 0
M  V30 7805 H 729.704 -0.00629912 0.751974 0
M  V30 7806 H 731.675 0.8293 2.86645 0
M  V30 7807 C 730.424 -0.87496 3.36511 0
M  V30 7808 H 729.747 -0.273157 3.98866 0
M  V30 7809 H 731.187 -1.31111 4.03219 0
M  V30 7810 C 729.646 -1.99672 2.71353 0
M  V30 7811 O 730.176 -3.08676 2.57064 0
M  V30 7812 N 728.382 -1.77799 2.29861 0
M  V30 7813 H 727.929 -0.89147 2.41683 0
M  V30 7814 H 727.887 -2.53036 1.86601 0
M  V30 7815 N 731.66 -1.50943 0.453197 0
M  V30 7816 C 732.885 -2.07116 -0.108463 0
M  V30 7817 C 733.31 -1.31681 -1.3432 0
M  V30 7818 O 732.668 -0.359256 -1.77705 0
M  V30 7819 C 732.716 -3.58447 -0.393424 0
M  V30 7820 O 731.82 -3.85038 -1.47714 0
M  V30 7821 H 731.161 -0.66398 0.0050993 0
M  V30 7822 H 733.691 -1.94362 0.639095 0
M  V30 7823 H 733.701 -4.02961 -0.639222 0
M  V30 7824 H 732.376 -4.12774 0.508946 0
M  V30 7825 H 730.953 -3.52376 -1.22006 0
M  V30 7826 N 733.138 -0.185124 -1.56509 0
M  V30 7827 C 734.554 0.170865 -1.58683 0
M  V30 7828 C 734.754 1.61799 -1.20098 0
M  V30 7829 O 733.81 2.35181 -0.919038 0
M  V30 7830 C 735.123 -0.122459 -3.00451 0
M  V30 7831 C 736.671 -0.0617699 -3.12939 0
M  V30 7832 C 737.146 -0.328269 -4.56822 0
M  V30 7833 N 738.637 -0.276533 -4.62374 0
M  V30 7834 C 739.372 -0.456722 -5.71578 0
M  V30 7835 N 738.868 -0.69672 -6.89288 0
M  V30 7836 N 740.661 -0.391669 -5.60734 0
M  V30 7837 H 732.812 -1.12956 -1.79874 0
M  V30 7838 H 735.075 -0.45011 -0.834329 0
M  V30 7839 H 734.781 -1.12546 -3.33206 0
M  V30 7840 H 734.655 0.579578 -3.72721 0
M  V30 7841 H 737.042 0.931826 -2.80002 0
M  V30 7842 H 737.123 -0.796732 -2.43076 0
M  V30 7843 H 736.767 -1.31914 -4.9047 0
M  V30 7844 H 736.697 0.427465 -5.24862 0
M  V30 7845 H 739.188 -0.0972458 -3.77775 0
M  V30 7846 H 739.501 -0.823291 -7.68402 0
M  V30 7847 H 737.846 -0.733497 -6.91119 0
M  V30 7848 H 741.037 -0.204663 -4.67652 0
M  V30 7849 H 741.21 -0.535518 -6.45783 0
M  V30 7850 N 734.616 1.57351 0.0885366 0
M  V30 7851 C 736.032 1.53331 0.442916 0
M  V30 7852 C 736.232 0.902831 1.80142 0
M  V30 7853 O 735.288 0.498147 2.47537 0
M  V30 7854 C 736.601 2.98036 0.399372 0
M  V30 7855 C 738.149 3.09286 0.480759 0
M  V30 7856 C 738.624 4.5561 0.467296 0
M  V30 7857 N 740.115 4.60182 0.52786 0
M  V30 7858 C 740.85 5.70857 0.539388 0
M  V30 7859 N 740.346 6.90944 0.506729 0
M  V30 7860 N 742.139 5.59051 0.584691 0
M  V30 7861 H 734.29 1.96709 -0.801215 0
M  V30 7862 H 736.553 0.899639 -0.298922 0
M  V30 7863 H 736.259 3.47656 -0.531806 0
M  V30 7864 H 736.133 3.57066 1.21589 0
M  V30 7865 H 738.52 2.5965 1.40236 0
M  V30 7866 H 738.601 2.53197 -0.364023 0
M  V30 7867 H 738.245 5.05899 -0.450384 0
M  V30 7868 H 738.175 5.09544 1.32938 0
M  V30 7869 H 740.666 3.73757 0.558028 0
M  V30 7870 H 740.979 7.71055 0.518989 0
M  V30 7871 H 739.324 6.93384 0.473675 0
M  V30 7872 H 742.515 4.64138 0.607781 0
M  V30 7873 H 742.688 6.45307 0.590206 0
M  V30 7874 N 736.094 -0.359525 1.53444 0
M  V30 7875 C 737.343 -1.09886 1.69139 0
M  V30 7876 C 737.656 -1.90285 0.452863 0
M  V30 7877 O 738.862 -2.67033 0.490459 0
M  V30 7878 C 737.318 -2.0028 2.99025 0
M  V30 7879 C 736.926 -1.25164 4.30161 0
M  V30 7880 C 738.67 -2.74168 3.24086 0
M  V30 7881 C 736.577 -2.14494 5.51132 0
M  V30 7882 H 735.507 -0.413936 0.630217 0
M  V30 7883 H 738.158 -0.359434 1.79945 0
M  V30 7884 H 736.54 -2.77978 2.82036 0
M  V30 7885 H 737.714 -0.524867 4.57801 0
M  V30 7886 H 736.029 -0.631116 4.11589 0
M  V30 7887 H 738.626 -3.41243 4.11652 0
M  V30 7888 H 738.969 -3.39868 2.40407 0
M  V30 7889 H 739.502 -2.0355 3.41778 0
M  V30 7890 H 736.241 -1.53362 6.37307 0
M  V30 7891 H 735.761 -2.85004 5.27762 0
M  V30 7892 H 737.44 -2.73914 5.86157 0
M  V30 7893 N 737.572 -1.44907 -0.619662 0
M  V30 7894 C 738.849 -1.38766 -1.37852 0
M  V30 7895 C 739.229 -0.0521393 -2.11036 0
M  V30 7896 O 738.577 0.965613 -2.07095 0
M  V30 7897 C 738.787 -2.59344 -2.33541 0
M  V30 7898 C 740.135 -3.03909 -2.96521 0
M  V30 7899 O 741.159 -2.59631 -2.43865 0
M  V30 7900 O 740.018 -3.80713 -3.92071 0
M  V30 7901 H 737.112 -0.550083 -0.617525 0
M  V30 7902 H 739.658 -1.57015 -0.643759 0
M  V30 7903 H 738.43 -3.48142 -1.78642 0
M  V30 7904 H 738.053 -2.43367 -3.14417 0
M  V30 7905 N 739.05 0.861098 -1.31996 0
M  V30 7906 C 740.013 1.95068 -1.20338 0
M  V30 7907 C 741.013 1.60289 -0.128114 0
M  V30 7908 O 742.203 1.70048 -0.378044 0
M  V30 7909 C 739.335 3.30153 -0.849205 0
M  V30 7910 H 740.528 2.06833 -2.17164 0
M  V30 7911 H 738.081 1.05049 -1.15734 0
M  V30 7912 H 738.816 3.24087 0.117508 0
M  V30 7913 H 738.601 3.56771 -1.62655 0
M  V30 7914 H 740.091 4.10025 -0.791782 0
M  V30 7915 N 740.528 1.15101 1.07655 0
M  V30 7916 C 741.777 0.918528 1.79572 0
M  V30 7917 C 742.09 -0.555922 1.87534 0
M  V30 7918 O 743.296 -0.905893 2.55941 0
M  V30 7919 C 741.752 1.59394 3.22679 0
M  V30 7920 C 741.36 3.1052 3.22927 0
M  V30 7921 C 743.104 1.44289 3.99225 0
M  V30 7922 C 741.011 3.70862 4.60668 0
M  V30 7923 H 739.941 0.340006 0.672987 0
M  V30 7924 H 742.592 1.38079 1.20857 0
M  V30 7925 H 740.974 1.05936 3.81567 0
M  V30 7926 H 742.148 3.70708 2.737 0
M  V30 7927 H 740.463 3.25351 2.59876 0
M  V30 7928 H 743.06 1.86766 5.01022 0
M  V30 7929 H 743.403 0.389975 4.14469 0
M  V30 7930 H 743.936 1.94826 3.46825 0
M  V30 7931 H 740.675 4.7604 4.50628 0
M  V30 7932 H 740.195 3.15456 5.10145 0
M  V30 7933 H 741.874 3.71607 5.29639 0
M  V30 7934 N 742.006 -1.2595 0.947325 0
M  V30 7935 C 743.283 -1.88676 0.515824 0
M  V30 7936 C 743.663 -1.85547 -1.00675 0
M  V30 7937 O 743.011 -1.31399 -1.8694 0
M  V30 7938 C 743.221 -3.31734 1.08415 0
M  V30 7939 C 744.569 -4.08545 1.15654 0
M  V30 7940 O 745.593 -3.40826 1.03517 0
M  V30 7941 O 744.452 -5.29663 1.34608 0
M  V30 7942 H 741.546 -0.809537 0.169055 0
M  V30 7943 H 744.092 -1.34075 1.04029 0
M  V30 7944 H 742.864 -3.28404 2.1276 0
M  V30 7945 H 742.487 -3.93882 0.542499 0
M  V30 7946 N 743.484 -0.715051 -1.40445 0
M  V30 7947 C 744.73 -0.254705 -2.01194 0
M  V30 7948 C 745.063 1.14894 -1.56567 0
M  V30 7949 O 744.338 1.77933 -0.785491 0
M  V30 7950 C 744.621 -0.334148 -3.58546 0
M  V30 7951 C 744.474 -1.77613 -4.13248 0
M  V30 7952 C 745.793 0.294968 -4.3911 0
M  V30 7953 H 742.912 -0.094025 -0.730978 0
M  V30 7954 H 745.554 -0.907449 -1.66929 0
M  V30 7955 H 743.704 0.221609 -3.87867 0
M  V30 7956 H 745.376 -2.38723 -3.94727 0
M  V30 7957 H 743.619 -2.30402 -3.67556 0
M  V30 7958 H 744.29 -1.78311 -5.22407 0
M  V30 7959 H 746.766 -0.178563 -4.15717 0
M  V30 7960 H 745.642 0.208934 -5.48502 0
M  V30 7961 H 745.903 1.37841 -4.20062 0
M  V30 7962 N 744.962 1.50701 -0.461195 0
M  V30 7963 C 746.19 2.06681 0.0951756 0
M  V30 7964 C 746.605 1.32615 1.34382 0
M  V30 7965 O 745.962 0.392531 1.78229 0
M  V30 7966 C 746.013 3.59354 0.393316 0
M  V30 7967 O 745.734 4.30626 -0.805797 0
M  V30 7968 C 747.235 4.31926 0.997744 0
M  V30 7969 H 744.455 0.670995 -0.00267259 0
M  V30 7970 H 746.999 1.93991 -0.647137 0
M  V30 7971 H 745.154 3.7188 1.08555 0
M  V30 7972 H 745.568 5.21667 -0.544409 0
M  V30 7973 H 747.042 5.39756 1.15619 0
M  V30 7974 H 747.519 3.91772 1.98523 0
M  V30 7975 H 748.125 4.23905 0.344188 0
M  V30 7976 N 746.441 0.193421 1.56409 0
M  V30 7977 C 747.666 -0.454552 2.02358 0
M  V30 7978 C 748.091 -1.54516 1.07268 0
M  V30 7979 O 747.449 -1.81214 0.0558962 0
M  V30 7980 C 747.497 -0.989469 3.46759 0
M  V30 7981 O 746.601 -2.10244 3.54783 0
M  V30 7982 H 745.942 -0.106417 0.655417 0
M  V30 7983 H 748.472 0.303807 2.02332 0
M  V30 7984 H 748.482 -1.30649 3.86516 0
M  V30 7985 H 747.157 -0.191083 4.15461 0
M  V30 7986 H 745.734 -1.79419 3.26899 0
M  V30 7987 N 747.919 -1.57396 -0.0801906 0
M  V30 7988 C 748.866 -2.03107 -1.09618 0
M  V30 7989 C 749.836 -0.910118 -1.38946 0
M  V30 7990 O 751.021 -1.17719 -1.50156 0
M  V30 7991 C 748.161 -2.47293 -2.40708 0
M  V30 7992 C 747.274 -3.72972 -2.17982 0
M  V30 7993 C 746.409 -4.05975 -3.42576 0
M  V30 7994 C 745.448 -5.24719 -3.15177 0
M  V30 7995 N 744.585 -5.53401 -4.32078 0
M  V30 7996 H 749.425 -2.89677 -0.69939 0
M  V30 7997 H 746.962 -1.43263 -0.333785 0
M  V30 7998 H 748.92 -2.7096 -3.17232 0
M  V30 7999 H 747.55 -1.63713 -2.78205 0
M  V30 8000 H 746.602 -3.56693 -1.32189 0
M  V30 8001 H 747.914 -4.59638 -1.93738 0
M  V30 8002 H 747.068 -4.30498 -4.275 0
M  V30 8003 H 745.807 -3.17859 -3.69887 0
M  V30 8004 H 744.812 -5 -2.28648 0
M  V30 8005 H 746.037 -6.14445 -2.89197 0
M  V30 8006 H 743.983 -4.68245 -4.59437 0
M  V30 8007 H 743.9 -6.34469 -4.11078 0
M  V30 8008 H 745.168 -5.8247 -5.18024 0
M  V30 8009 N 749.397 0.351382 -1.53633 0
M  V30 8010 C 750.625 1.11275 -1.74429 0
M  V30 8011 C 751.04 1.82602 -0.479798 0
M  V30 8012 O 750.397 1.74074 0.548125 0
M  V30 8013 C 750.448 2.13223 -2.91921 0
M  V30 8014 O 750.169 1.44798 -4.13479 0
M  V30 8015 C 751.67 3.01797 -3.24706 0
M  V30 8016 H 748.89 0.332153 -0.583023 0
M  V30 8017 H 751.434 0.405974 -2.0043 0
M  V30 8018 H 749.589 2.79477 -2.68274 0
M  V30 8019 H 750.003 2.12839 -4.79374 0
M  V30 8020 H 751.477 3.69282 -4.10286 0
M  V30 8021 H 751.954 3.67387 -2.40673 0
M  V30 8022 H 752.56 2.41141 -3.5033 0
M  V30 8023 N 750.875 1.45233 0.611969 0
M  V30 8024 C 751.785 1.56098 1.7513 0
M  V30 8025 C 752.801 0.445646 1.68196 0
M  V30 8026 O 753.977 0.705718 1.88631 0
M  V30 8027 C 751.042 1.52052 3.11579 0
M  V30 8028 C 750.103 2.74589 3.29999 0
M  V30 8029 C 749.336 2.70726 4.59938 0
M  V30 8030 O 749.559 1.77806 5.41979 0
M  V30 8031 O 748.493 3.61864 4.80976 0
M  V30 8032 H 752.319 2.52392 1.68914 0
M  V30 8033 H 749.904 1.27695 0.775528 0
M  V30 8034 H 751.786 1.52387 3.92882 0
M  V30 8035 H 750.461 0.589085 3.18295 0
M  V30 8036 H 749.368 2.79817 2.48301 0
M  V30 8037 H 750.701 3.66843 3.28157 0
M  V30 8038 N 752.353 -0.854086 1.3245 0
M  V30 8039 C 753.764 -1.42427 1.20712 0
M  V30 8040 C 754.115 -1.95371 -0.18013 0
M  V30 8041 O 753.24 -1.87587 -1.07889 0
M  V30 8042 C 753.835 -2.58897 2.18536 0
M  V30 8043 C 752.394 -3.11913 2.10683 0
M  V30 8044 C 751.541 -1.84661 2.06871 0
M  V30 8045 H 754.492 -0.661192 1.4427 0
M  V30 8046 H 754.513 -3.36074 1.78422 0
M  V30 8047 H 754.025 -2.20333 3.19492 0
M  V30 8048 H 752.126 -3.55059 1.12977 0
M  V30 8049 H 752.239 -3.73119 3.00532 0
M  V30 8050 H 750.603 -2.04285 1.52118 0
M  V30 8051 H 751.386 -1.48314 3.09609 0
M  V30 8052 N 753.831 -1.1567 -1.07043 0
M  V30 8053 C 754.781 -0.824733 -2.12561 0
M  V30 8054 C 755.765 0.19243 -1.59745 0
M  V30 8055 O 756.957 -0.00728759 -1.76998 0
M  V30 8056 C 754.086 -0.31921 -3.41813 0
M  V30 8057 C 753.172 -1.36671 -4.01475 0
M  V30 8058 N 753.563 -2.57493 -4.35351 0
M  V30 8059 C 751.861 -1.22018 -4.28984 0
M  V30 8060 C 752.562 -3.24658 -4.82672 0
M  V30 8061 N 751.538 -2.52043 -4.81638 0
M  V30 8062 H 755.34 -1.74363 -2.3659 0
M  V30 8063 H 752.854 -1.04262 -1.24511 0
M  V30 8064 H 754.851 -0.0630216 -4.16852 0
M  V30 8065 H 753.511 0.593708 -3.19226 0
M  V30 8066 H 754.522 -2.94612 -4.25939 0
M  V30 8067 H 751.199 -0.367414 -4.1588 0
M  V30 8068 H 752.589 -4.2775 -5.1815 0
M  V30 8069 N 755.309 1.25446 -0.953992 0
M  V30 8070 C 756.72 1.75047 -0.649255 0
M  V30 8071 C 757.071 1.77527 0.835385 0
M  V30 8072 O 756.196 1.39569 1.65377 0
M  V30 8073 C 756.791 3.17889 -1.17183 0
M  V30 8074 C 755.35 3.65052 -0.917267 0
M  V30 8075 C 754.497 2.44124 -1.31525 0
M  V30 8076 H 757.448 1.11342 -1.13087 0
M  V30 8077 H 757.469 3.76768 -0.531616 0
M  V30 8078 H 756.981 3.16052 -2.25239 0
M  V30 8079 H 755.082 3.72305 0.148354 0
M  V30 8080 H 755.195 4.53222 -1.55328 0
M  V30 8081 H 753.559 2.43906 -0.733624 0
M  V30 8082 H 754.342 2.44979 -2.405 0
M  V30 8083 O 756.826 0.86056 1.36662 0
M  V30 8084 H 757.517 0.45661 1.88241 0
M  V30 END ATOM
M  V30 BEGIN BOND
M  V30 END BOND
M  V30 END CTAB
M  END
$$$$
