drugbank_target|P11310 Medium-chain specific acyl-CoA dehydrogenase, mitochondrial (DB02910; DB03147; DB03415)
 OpenBabel12092119593D

  0  0  0     0  0            999 V3000
M  V30 BEGIN CTAB
M  V30 COUNTS 6534 6596 0 0 0
M  V30 BEGIN ATOM
M  V30 1 H -0.908 1.98254 -0.117106 0
M  V30 2 N 0 1.576 0 0
M  V30 3 C 0.933 2.03868 1.02534 0
M  V30 4 C 1.911 0.928543 1.3348 0
M  V30 5 O 3.095 1.19667 1.45644 0
M  V30 6 C 0.222 2.43627 2.35294 0
M  V30 7 C -0.732 3.65373 2.2001 0
M  V30 8 S 0.101 5.13292 1.52614 0
M  V30 9 C 1.257 5.56322 2.86805 0
M  V30 10 H 1.49 2.90518 0.631377 0
M  V30 11 H -0.977 1.52953 0.210867 0
M  V30 12 H 0.981 2.67203 3.11629 0
M  V30 13 H -0.358 1.57376 2.7183 0
M  V30 14 H -1.165 3.90944 3.18086 0
M  V30 15 H -1.563 3.418 1.51819 0
M  V30 16 H 0.729 5.58782 3.83104 0
M  V30 17 H 1.672 6.56266 2.65933 0
M  V30 18 H 2.08 4.83886 2.90714 0
M  V30 19 N 1.4781 -0.272755 1.55222 0
M  V30 20 C 2.4411 -1.32041 1.87344 0
M  V30 21 C 3.4411 -1.42342 0.74803 0
M  V30 22 O 4.6311 -1.41488 1.0162 0
M  V30 23 C 1.7631 -2.70173 2.07893 0
M  V30 24 H 2.9561 -1.04789 2.80997 0
M  V30 25 H 0.5091 -0.51083 1.47717 0
M  V30 26 H 1.2441 -3.02605 1.16622 0
M  V30 27 H 1.0291 -2.64082 2.89833 0
M  V30 28 H 2.5191 -3.45869 2.34017 0
M  V30 29 N 2.9562 -1.48159 -0.537278 0
M  V30 30 C 3.9192 -1.61665 -1.62472 0
M  V30 31 C 4.9192 -0.490395 -1.5314 0
M  V30 32 O 6.1092 -0.755998 -1.5694 0
M  V30 33 C 3.2412 -1.57997 -3.02076 0
M  V30 34 H 4.4342 -2.58621 -1.51839 0
M  V30 35 H 1.9872 -1.36647 -0.758771 0
M  V30 36 H 2.7222 -0.624913 -3.18222 0
M  V30 37 H 2.5072 -2.39755 -3.10258 0
M  V30 38 H 3.9972 -1.70627 -3.81151 0
M  V30 39 N 4.4343 0.785586 -1.36625 0
M  V30 40 C 5.6823 1.54057 -1.30808 0
M  V30 41 C 6.0033 1.94683 0.111157 0
M  V30 42 O 5.2733 1.65241 1.05224 0
M  V30 43 H 3.8533 0.571354 -0.481211 0
M  V30 44 H 6.5153 0.935821 -1.70963 0
M  V30 45 H 5.6113 2.44637 -1.93801 0
M  V30 46 N 5.9124 1.20967 1.01018 0
M  V30 47 C 7.1594 1.02374 1.74716 0
M  V30 48 C 7.4874 -0.443375 1.89379 0
M  V30 49 O 6.7424 -1.34535 1.42123 0
M  V30 50 C 7.0414 1.65997 3.16512 0
M  V30 51 C 6.7074 3.15831 3.2181 0
M  V30 52 C 5.3694 3.56719 3.22963 0
M  V30 53 C 7.7214 4.11816 3.19464 0
M  V30 54 C 5.0494 4.92107 3.19449 0
M  V30 55 C 7.4014 5.47158 3.17491 0
M  V30 56 C 6.0654 5.87451 3.16951 0
M  V30 57 H 5.3354 0.374614 0.639332 0
M  V30 58 H 7.9824 1.50485 1.18434 0
M  V30 59 H 6.2874 1.10166 3.75993 0
M  V30 60 H 7.9844 1.49119 3.72242 0
M  V30 61 H 4.5744 2.83263 3.21652 0
M  V30 62 H 8.7584 3.81257 3.17737 0
M  V30 63 H 4.0144 5.22579 3.17366 0
M  V30 64 H 8.1884 6.21274 3.14629 0
M  V30 65 H 5.8154 6.92329 3.13983 0
M  V30 66 N 7.3905 -1.2043 1.01659 0
M  V30 67 C 8.6385 -1.89423 0.704522 0
M  V30 68 C 8.9595 -1.79231 -0.768197 0
M  V30 69 O 8.2295 -1.1947 -1.55254 0
M  V30 70 H 6.8095 -0.701178 0.257602 0
M  V30 71 H 9.4715 -1.4626 1.28818 0
M  V30 72 H 8.5675 -2.96052 0.987916 0
M  V30 73 N 8.8686 -0.792821 -1.36206 0
M  V30 74 C 10.2846 -0.474903 -1.52371 0
M  V30 75 C 10.4846 1.00622 -1.74578 0
M  V30 76 O 9.5406 1.79162 -1.77924 0
M  V30 77 C 10.8536 -1.3083 -2.70747 0
M  V30 78 C 12.4016 -1.30234 -2.84619 0
M  V30 79 C 12.8766 -2.11956 -4.06004 0
M  V30 80 N 14.3676 -2.09419 -4.13156 0
M  V30 81 C 15.1026 -2.69419 -5.06163 0
M  V30 82 N 14.5986 -3.3829 -6.04592 0
M  V30 83 N 16.3916 -2.59134 -4.98804 0
M  V30 84 H 8.5426 -1.75222 -1.20046 0
M  V30 85 H 10.8056 -0.745024 -0.586211 0
M  V30 86 H 10.5116 -2.35881 -2.6087 0
M  V30 87 H 10.3856 -0.95196 -3.6499 0
M  V30 88 H 12.7726 -0.259748 -2.93955 0
M  V30 89 H 12.8536 -1.69847 -1.91274 0
M  V30 90 H 12.4976 -3.16248 -3.97429 0
M  V30 91 H 12.4276 -1.69711 -4.98503 0
M  V30 92 H 14.9186 -1.59297 -3.42685 0
M  V30 93 H 15.2316 -3.81394 -6.7213 0
M  V30 94 H 13.5766 -3.42393 -6.04807 0
M  V30 95 H 16.7676 -2.04927 -4.20859 0
M  V30 96 H 16.9406 -3.06185 -5.711 0
M  V30 97 N 10.3467 1.47872 -0.545128 0
M  V30 98 C 11.5867 2.04391 -0.0187854 0
M  V30 99 C 11.9507 1.41162 1.30144 0
M  V30 100 O 13.1517 1.88656 1.91474 0
M  V30 101 C 11.4227 3.57299 0.0850867 0
M  V30 102 S 12.9817 4.35221 0.559302 0
M  V30 103 H 9.7997 0.710737 -0.0193301 0
M  V30 104 H 12.4017 1.81395 -0.729125 0
M  V30 105 H 11.1057 4.00847 -0.880351 0
M  V30 106 H 10.6367 3.84773 0.819348 0
M  V30 107 H 12.6517 4.61571 1.82118 0
M  V30 108 N 11.8248 0.280983 1.55075 0
M  V30 109 C 13.0648 -0.335234 2.01632 0
M  V30 110 C 13.4288 -1.5261 1.16508 0
M  V30 111 O 14.6298 -2.21235 1.52672 0
M  V30 112 C 12.9008 -0.702172 3.50434 0
M  V30 113 S 14.4598 -1.30409 4.18974 0
M  V30 114 H 11.2778 -0.103967 0.703358 0
M  V30 115 H 13.8798 0.404187 1.91276 0
M  V30 116 H 12.5838 0.17333 4.10034 0
M  V30 117 H 12.1148 -1.4729 3.64786 0
M  V30 118 H 14.1298 -2.59253 4.23087 0
M  V30 119 N 13.3029 -1.57598 0.00835791 0
M  V30 120 C 14.7189 -1.55764 -0.347822 0
M  V30 121 C 14.9189 -1.01186 -1.74252 0
M  V30 122 O 13.9749 -0.649371 -2.44007 0
M  V30 123 C 15.2879 -2.99927 -0.215407 0
M  V30 124 C 16.8359 -3.11656 -0.289725 0
M  V30 125 C 17.3109 -4.57621 -0.18634 0
M  V30 126 N 18.8019 -4.62557 -0.243978 0
M  V30 127 C 19.5369 -5.73094 -0.18745 0
M  V30 128 N 19.0329 -6.92753 -0.0810331 0
M  V30 129 N 20.8259 -5.61588 -0.239925 0
M  V30 130 H 12.9769 -1.91411 0.92062 0
M  V30 131 H 15.2399 -0.879562 0.353659 0
M  V30 132 H 14.9459 -3.43729 0.744512 0
M  V30 133 H 14.8199 -3.63865 -0.994097 0
M  V30 134 H 17.2069 -2.67779 -1.24009 0
M  V30 135 H 17.2879 -2.5048 0.51898 0
M  V30 136 H 16.9319 -5.02174 0.760519 0
M  V30 137 H 16.8619 -5.16752 -1.01364 0
M  V30 138 H 19.3529 -3.76481 -0.327217 0
M  V30 139 H 19.6659 -7.72787 -0.0440241 0
M  V30 140 H 18.0109 -6.94984 -0.0465419 0
M  V30 141 H 21.2019 -4.66996 -0.321317 0
M  V30 142 H 21.3749 -6.47714 -0.192407 0
M  V30 143 N 14.781 0.264519 -1.55364 0
M  V30 144 C 16.027 0.99646 -1.76631 0
M  V30 145 C 16.36 1.85632 -0.570478 0
M  V30 146 O 15.635 1.89647 0.43175 0
M  V30 147 C 15.918 1.87187 -3.07625 0
M  V30 148 C 15.771 1.04138 -4.37579 0
M  V30 149 C 17.09 2.85749 -3.34717 0
M  V30 150 H 14.209 0.360841 -0.642622 0
M  V30 151 H 16.851 0.268218 -1.88097 0
M  V30 152 H 15.001 2.49279 -2.9798 0
M  V30 153 H 16.673 0.440517 -4.59192 0
M  V30 154 H 14.916 0.345115 -4.32425 0
M  V30 155 H 15.587 1.68729 -5.2558 0
M  V30 156 H 18.063 2.33793 -3.4421 0
M  V30 157 H 16.939 3.44136 -4.27623 0
M  V30 158 H 17.2 3.61311 -2.54768 0
M  V30 159 N 16.2591 1.48442 0.529413 0
M  V30 160 C 17.1891 1.65902 1.64313 0
M  V30 161 C 18.1701 0.507897 1.6234 0
M  V30 162 O 19.3551 0.740503 1.79528 0
M  V30 163 C 16.4851 1.69911 3.02898 0
M  V30 164 C 15.4391 2.8453 3.19729 0
M  V30 165 C 14.7651 2.73629 4.59381 0
M  V30 166 C 16.0651 4.25821 3.02447 0
M  V30 167 H 17.7591 2.5914 1.49955 0
M  V30 168 H 15.3051 1.24709 0.719982 0
M  V30 169 H 17.2581 1.80715 3.80684 0
M  V30 170 H 15.9821 0.732524 3.18279 0
M  V30 171 H 14.6411 2.73283 2.44361 0
M  V30 172 H 14.2891 1.74938 4.71599 0
M  V30 173 H 13.9891 3.50541 4.71588 0
M  V30 174 H 15.5131 2.86401 5.39265 0
M  V30 175 H 16.9271 4.37898 3.70024 0
M  V30 176 H 15.3241 5.03735 3.26146 0
M  V30 177 H 16.3941 4.42244 1.98867 0
M  V30 178 N 17.7372 -0.778329 1.37039 0
M  V30 179 C 19.1532 -1.07796 1.17695 0
M  V30 180 C 19.3532 -2.01498 0.00860115 0
M  V30 181 O 18.4092 -2.43901 -0.653352 0
M  V30 182 C 19.7222 -1.68178 2.49272 0
M  V30 183 C 21.2702 -1.80467 2.55735 0
M  V30 184 C 21.7452 -2.44263 3.87427 0
M  V30 185 N 23.2362 -2.51721 3.88833 0
M  V30 186 C 23.9712 -3.01919 4.87476 0
M  V30 187 N 23.4672 -3.5234 5.96513 0
M  V30 188 N 25.2602 -3.00733 4.74885 0
M  V30 189 H 17.4112 -0.156032 2.11826 0
M  V30 190 H 19.6742 -0.131844 0.938787 0
M  V30 191 H 19.3802 -1.06796 3.35093 0
M  V30 192 H 19.2542 -2.67554 2.65885 0
M  V30 193 H 21.6412 -2.40984 1.70325 0
M  V30 194 H 21.7222 -0.798656 2.43013 0
M  V30 195 H 21.3662 -1.84388 4.73248 0
M  V30 196 H 21.2962 -3.45458 3.9745 0
M  V30 197 H 23.7872 -2.1603 3.10063 0
M  V30 198 H 24.1002 -3.89027 6.67741 0
M  V30 199 H 22.4452 -3.50462 6.00168 0
M  V30 200 H 25.6362 -2.60638 3.88826 0
M  V30 201 H 25.8092 -3.39545 5.51918 0
M  V30 202 N 19.2153 -1.21501 -1.00376 0
M  V30 203 C 20.4403 -1.05977 -1.78279 0
M  V30 204 C 20.8653 0.385994 -1.84097 0
M  V30 205 O 20.2233 1.27849 -1.28547 0
M  V30 206 C 20.2713 -1.66302 -3.19963 0
M  V30 207 O 19.3753 -0.909333 -4.0225 0
M  V30 208 H 18.7163 -0.372906 -0.549397 0
M  V30 209 H 21.2463 -1.6107 -1.26165 0
M  V30 210 H 21.2563 -1.70574 -3.70632 0
M  V30 211 H 19.9313 -2.71515 -3.15043 0
M  V30 212 H 18.5083 -0.941795 -3.60811 0
M  V30 213 N 20.6934 1.19889 -1.02296 0
M  V30 214 C 21.9424 1.88743 -0.711257 0
M  V30 215 C 22.2554 1.80112 0.762817 0
M  V30 216 O 23.4614 2.44161 1.18733 0
M  V30 217 C 21.9174 3.38525 -1.22185 0
M  V30 218 C 21.5254 3.55727 -2.72328 0
M  V30 219 C 23.2694 4.12893 -0.985864 0
M  V30 220 C 21.1764 4.99369 -3.16835 0
M  V30 221 H 20.1064 0.706885 -0.262353 0
M  V30 222 H 22.7574 1.35586 -1.23648 0
M  V30 223 H 21.1394 3.91044 -0.624571 0
M  V30 224 H 22.3134 3.13564 -3.3766 0
M  V30 225 H 20.6284 2.94739 -2.9414 0
M  V30 226 H 23.2254 5.18813 -1.29374 0
M  V30 227 H 23.5684 4.16228 0.0775055 0
M  V30 228 H 24.1014 3.66494 -1.54684 0
M  V30 229 H 20.8404 5.01193 -4.22476 0
M  V30 230 H 20.3604 5.42317 -2.56228 0
M  V30 231 H 22.0394 5.67988 -3.09837 0
M  V30 232 N 22.1715 0.800033 1.35784 0
M  V30 233 C 23.3965 0.388511 2.03729 0
M  V30 234 C 23.8215 -0.990481 1.5991 0
M  V30 235 O 23.1795 -1.64013 0.772612 0
M  V30 236 C 23.2275 0.4726 3.5749 0
M  V30 237 O 22.3315 -0.51646 4.09153 0
M  V30 238 H 21.6725 0.163271 0.643614 0
M  V30 239 H 24.2025 1.0841 1.73518 0
M  V30 240 H 24.2125 0.34003 4.06581 0
M  V30 241 H 22.8875 1.47848 3.88734 0
M  V30 242 H 21.4645 -0.344673 3.71304 0
M  V30 243 N 23.6496 -1.47581 0.552962 0
M  V30 244 C 25.0656 -1.5818 0.212424 0
M  V30 245 C 25.2656 -1.55213 -1.28496 0
M  V30 246 O 24.3216 -1.45329 -2.06484 0
M  V30 247 C 25.6346 -2.88865 0.835318 0
M  V30 248 C 27.1826 -3.0244 0.806156 0
M  V30 249 C 27.6576 -4.35819 1.40804 0
M  V30 250 N 29.1486 -4.42444 1.37103 0
M  V30 251 C 29.8836 -5.44202 1.80641 0
M  V30 252 N 29.3796 -6.52795 2.32015 0
M  V30 253 N 31.1726 -5.35222 1.71738 0
M  V30 254 H 23.3236 -1.47753 1.52587 0
M  V30 255 H 25.5866 -0.702941 0.636064 0
M  V30 256 H 25.2926 -2.9676 1.88749 0
M  V30 257 H 25.1666 -3.7579 0.325848 0
M  V30 258 H 27.5536 -2.94144 -0.237317 0
M  V30 259 H 27.6346 -2.17068 1.35334 0
M  V30 260 H 27.2786 -4.44871 2.45056 0
M  V30 261 H 27.2086 -5.19916 0.836338 0
M  V30 262 H 29.6996 -3.6456 0.995202 0
M  V30 263 H 30.0126 -7.26609 2.63171 0
M  V30 264 H 28.3576 -6.53696 2.36023 0
M  V30 265 H 31.5486 -4.49284 1.31382 0
M  V30 266 H 31.7216 -6.14389 2.05987 0
M  V30 267 N 25.1277 -0.289203 -1.54924 0
M  V30 268 C 26.3747 0.323519 -1.99899 0
M  V30 269 C 26.7027 1.54797 -1.17762 0
M  V30 270 O 25.9577 1.94237 -0.238835 0
M  V30 271 C 26.2567 0.736119 -3.49737 0
M  V30 272 C 25.9227 -0.385276 -4.49251 0
M  V30 273 C 24.5847 -0.693156 -4.76181 0
M  V30 274 C 26.9367 -1.14021 -5.08575 0
M  V30 275 C 24.2647 -1.7593 -5.59701 0
M  V30 276 C 26.6167 -2.19619 -5.93254 0
M  V30 277 C 25.2807 -2.51026 -6.185 0
M  V30 278 H 24.5507 0.118384 -0.731482 0
M  V30 279 H 27.1977 -0.405847 -1.8715 0
M  V30 280 H 25.5027 1.54539 -3.60035 0
M  V30 281 H 27.1997 1.22118 -3.81953 0
M  V30 282 H 23.7897 -0.135202 -4.28387 0
M  V30 283 H 27.9737 -0.915611 -4.87781 0
M  V30 284 H 23.2297 -2.0075 -5.77503 0
M  V30 285 H 27.4037 -2.78581 -6.38252 0
M  V30 286 H 25.0307 -3.33772 -6.83008 0
M  V30 287 N 26.6058 1.57591 -0.0167156 0
M  V30 288 C 27.5558 2.05953 0.978137 0
M  V30 289 C 28.5398 0.957532 1.29306 0
M  V30 290 O 29.7318 1.22119 1.28125 0
M  V30 291 C 26.8608 2.58006 2.26468 0
M  V30 292 C 25.9468 3.75113 1.97867 0
M  V30 293 N 26.3378 4.86187 1.39486 0
M  V30 294 C 24.6358 3.83363 2.27924 0
M  V30 295 C 25.3368 5.67502 1.27735 0
M  V30 296 N 24.3128 5.14023 1.76866 0
M  V30 297 H 28.1148 2.89236 0.521522 0
M  V30 298 H 25.6288 1.61301 0.188596 0
M  V30 299 H 27.6258 2.90937 2.98599 0
M  V30 300 H 26.2858 1.76148 2.72767 0
M  V30 301 H 27.2968 5.06695 1.07147 0
M  V30 302 H 23.9738 3.1239 2.76982 0
M  V30 303 H 25.3638 6.66791 0.826978 0
M  V30 304 N 28.0839 -0.256276 1.55502 0
M  V30 305 C 29.3299 -0.982884 1.78076 0
M  V30 306 C 29.6849 -1.83319 0.584109 0
M  V30 307 O 28.9779 -1.86875 -0.422877 0
M  V30 308 C 29.1719 -1.88432 3.03691 0
M  V30 309 C 29.0009 -1.12276 4.35459 0
M  V30 310 C 27.7709 -0.831647 4.98409 0
M  V30 311 C 29.9689 -0.504933 5.11815 0
M  V30 312 N 27.9509 -0.0450423 6.13883 0
M  V30 313 C 29.3219 0.146696 6.19826 0
M  V30 314 C 31.3769 -0.414455 4.96172 0
M  V30 315 C 30.0799 0.880103 7.13895 0
M  V30 316 C 32.1059 0.305398 5.90611 0
M  V30 317 C 31.4679 0.945701 6.98023 0
M  V30 318 H 27.5669 -0.341084 0.703694 0
M  V30 319 H 30.1509 -0.256909 1.92998 0
M  V30 320 H 28.3219 -2.58241 2.90114 0
M  V30 321 H 30.0539 -2.54579 3.14598 0
M  V30 322 H 26.8089 -1.14111 4.59647 0
M  V30 323 H 27.2329 0.336079 6.76165 0
M  V30 324 H 31.8749 -0.895163 4.13215 0
M  V30 325 H 29.5929 1.37244 7.9636 0
M  V30 326 H 33.1789 0.375946 5.80584 0
M  V30 327 H 32.0589 1.49383 7.6984 0
M  V30 328 N 29.562 -1.4872 -0.521534 0
M  V30 329 C 30.978 -1.35028 -0.850855 0
M  V30 330 C 31.178 -0.367712 -1.98116 0
M  V30 331 O 30.234 0.208037 -2.51642 0
M  V30 332 C 31.547 -2.75263 -1.21041 0
M  V30 333 C 33.095 -2.83813 -1.31981 0
M  V30 334 C 33.57 -4.24769 -1.71276 0
M  V30 335 N 35.061 -4.27482 -1.78363 0
M  V30 336 C 35.796 -5.33494 -2.1017 0
M  V30 337 N 35.292 -6.49775 -2.40343 0
M  V30 338 N 37.085 -5.20894 -2.11248 0
M  V30 339 H 29.236 -2.11214 0.22413 0
M  V30 340 H 31.499 -0.947252 0.0376439 0
M  V30 341 H 31.205 -3.48765 -0.453415 0
M  V30 342 H 31.079 -3.09327 -2.15863 0
M  V30 343 H 33.466 -2.10561 -2.06756 0
M  V30 344 H 33.547 -2.53358 -0.352596 0
M  V30 345 H 33.191 -4.9854 -0.970588 0
M  V30 346 H 33.121 -4.52673 -2.69062 0
M  V30 347 H 35.612 -3.43611 -1.57288 0
M  V30 348 H 35.925 -7.26402 -2.63743 0
M  V30 349 H 34.27 -6.53035 -2.37844 0
M  V30 350 H 37.461 -4.29065 -1.87139 0
M  V30 351 H 37.634 -6.03612 -2.35704 0
M  V30 352 N 31.0401 0.771051 -1.3745 0
M  V30 353 C 32.2651 1.56529 -1.36065 0
M  V30 354 C 32.6901 1.88029 0.0515859 0
M  V30 355 O 32.0481 1.49282 1.02882 0
M  V30 356 C 32.0961 2.85187 -2.20683 0
M  V30 357 O 31.2001 3.79593 -1.61193 0
M  V30 358 H 30.5411 0.47411 -0.464883 0
M  V30 359 H 33.0711 0.954269 -1.80983 0
M  V30 360 H 33.0811 3.34283 -2.33921 0
M  V30 361 H 31.7561 2.61588 -3.23334 0
M  V30 362 H 30.3331 3.38239 -1.56999 0
M  V30 363 N 32.5182 1.22032 0.997298 0
M  V30 364 C 33.4502 0.944263 2.08845 0
M  V30 365 C 34.4632 -0.0754663 1.62625 0
M  V30 366 O 35.6522 0.157994 1.77799 0
M  V30 367 C 32.7522 0.397723 3.36558 0
M  V30 368 C 31.9252 1.47362 4.11829 0
M  V30 369 C 30.9842 0.934951 5.17827 0
M  V30 370 O 30.0102 1.62016 5.45655 0
M  V30 371 N 31.2122 -0.245895 5.79979 0
M  V30 372 H 33.9772 1.88363 2.33109 0
M  V30 373 H 31.5382 1.12661 1.16272 0
M  V30 374 H 33.5302 0.0227771 4.04694 0
M  V30 375 H 32.1002 -0.446646 3.09393 0
M  V30 376 H 31.3202 2.02208 3.38386 0
M  V30 377 H 32.6082 2.19764 4.58891 0
M  V30 378 H 32.0062 -0.819475 5.59733 0
M  V30 379 H 30.5632 -0.562272 6.4937 0
M  V30 380 N 33.9963 -1.19345 1.0293 0
M  V30 381 C 34.9463 -2.20472 0.58104 0
M  V30 382 C 35.9303 -1.56578 -0.370442 0
M  V30 383 O 37.1223 -1.75963 -0.191344 0
M  V30 384 C 34.2513 -3.43236 -0.066306 0
M  V30 385 C 33.3373 -4.14274 0.907642 0
M  V30 386 N 33.7283 -4.61492 2.07023 0
M  V30 387 C 32.0263 -4.39966 0.731177 0
M  V30 388 C 32.7273 -5.1605 2.68454 0
M  V30 389 N 31.7033 -5.06875 1.96414 0
M  V30 390 H 35.5053 -2.54659 1.46717 0
M  V30 391 H 33.0193 -1.35423 0.896345 0
M  V30 392 H 35.0163 -4.14927 -0.405068 0
M  V30 393 H 33.6763 -3.10549 -0.948118 0
M  V30 394 H 34.6873 -4.56304 2.44963 0
M  V30 395 H 31.3643 -4.17377 -0.101507 0
M  V30 396 H 32.7543 -5.6287 3.66915 0
M  V30 397 N 35.4744 -0.807222 -1.35358 0
M  V30 398 C 36.7024 -0.400377 -2.02989 0
M  V30 399 C 37.1174 0.988859 -1.60832 0
M  V30 400 O 36.4744 1.63729 -0.806175 0
M  V30 401 C 36.5254 -0.474867 -3.58368 0
M  V30 402 O 36.2464 -1.80933 -3.98992 0
M  V30 403 C 37.7474 -0.0609112 -4.43258 0
M  V30 404 H 34.9674 -0.162587 -0.651004 0
M  V30 405 H 37.5114 -1.09102 -1.72965 0
M  V30 406 H 35.6664 0.167534 -3.87038 0
M  V30 407 H 36.0804 -1.77256 -4.9364 0
M  V30 408 H 37.5544 -0.164145 -5.51756 0
M  V30 409 H 38.0314 0.993831 -4.27808 0
M  V30 410 H 38.6374 -0.676492 -4.19885 0
M  V30 411 N 36.9525 1.47285 -0.560781 0
M  V30 412 C 37.8995 2.30058 0.18491 0
M  V30 413 C 38.8695 1.39281 0.904986 0
M  V30 414 O 40.0545 1.68241 0.899979 0
M  V30 415 C 37.1945 3.23317 1.20666 0
M  V30 416 C 36.3075 4.29186 0.492285 0
M  V30 417 C 35.4425 5.09592 1.49964 0
M  V30 418 C 34.4815 6.07232 0.770439 0
M  V30 419 N 33.6185 6.80584 1.72479 0
M  V30 420 H 38.4585 2.93302 -0.527048 0
M  V30 421 H 35.9955 1.44568 -0.271738 0
M  V30 422 H 37.9535 3.75811 1.81168 0
M  V30 423 H 36.5835 2.61929 1.88661 0
M  V30 424 H 35.6355 3.7972 -0.227333 0
M  V30 425 H 36.9475 4.98738 -0.0787929 0
M  V30 426 H 36.1015 5.66254 2.17809 0
M  V30 427 H 34.8405 4.3995 2.10464 0
M  V30 428 H 33.8455 5.49745 0.0780846 0
M  V30 429 H 35.0705 6.78884 0.171134 0
M  V30 430 H 33.0165 6.1367 2.3183 0
M  V30 431 H 32.9335 7.46319 1.20596 0
M  V30 432 H 34.2015 7.41818 2.39428 0
M  V30 433 N 38.4306 0.297415 1.54768 0
M  V30 434 C 39.3936 -0.567375 2.22066 0
M  V30 435 C 40.3936 -1.06409 1.20556 0
M  V30 436 O 41.5836 -0.960691 1.45315 0
M  V30 437 C 38.7156 -1.78517 2.90421 0
M  V30 438 H 39.9086 0.0205534 2.99893 0
M  V30 439 H 37.4616 0.0482163 1.56226 0
M  V30 440 H 38.1966 -2.41303 2.16664 0
M  V30 441 H 37.9816 -1.43669 3.64831 0
M  V30 442 H 39.4716 -2.39964 3.41771 0
M  V30 443 N 39.9087 -1.5758 0.0250728 0
M  V30 444 C 40.8567 -2.11125 -0.97617 0
M  V30 445 C 41.8507 -1.03689 -1.33959 0
M  V30 446 O 43.0567 -1.22128 -1.3223 0
M  V30 447 H 39.4317 -0.674468 -0.332561 0
M  V30 448 H 41.4027 -2.94194 -0.499223 0
M  V30 449 C 40.1517 -2.65017 -2.2508 0
M  V30 450 H 39.4747 -3.47333 -1.9799 0
M  V30 451 H 40.9147 -3.06133 -2.93357 0
M  V30 452 C 39.3737 -1.57574 -2.97779 0
M  V30 453 O 39.9037 -0.973203 -3.89733 0
M  V30 454 N 38.1097 -1.29716 -2.60043 0
M  V30 455 H 37.6567 -1.789 -1.85345 0
M  V30 456 H 37.6147 -0.58051 -3.08994 0
M  V30 457 N 41.3868 0.248026 -1.55636 0
M  V30 458 C 42.8028 0.596483 -1.48035 0
M  V30 459 C 43.0028 1.88386 -0.715039 0
M  V30 460 O 42.0588 2.51319 -0.243944 0
M  V30 461 C 43.3718 0.700258 -2.92433 0
M  V30 462 C 44.9198 0.792659 -3.02797 0
M  V30 463 C 45.3948 0.928005 -4.485 0
M  V30 464 N 46.8858 0.992903 -4.52433 0
M  V30 465 C 47.6208 1.11687 -5.62418 0
M  V30 466 N 47.1168 1.20645 -6.82214 0
M  V30 467 N 48.9098 1.14994 -5.50212 0
M  V30 468 H 41.0608 -0.597109 -2.03834 0
M  V30 469 H 43.3238 -0.205925 -0.925364 0
M  V30 470 H 43.0298 -0.175658 -3.51261 0
M  V30 471 H 42.9038 1.57255 -3.42857 0
M  V30 472 H 45.2908 1.65903 -2.4405 0
M  V30 473 H 45.3718 -0.104762 -2.55585 0
M  V30 474 H 45.0158 0.0661971 -5.07857 0
M  V30 475 H 44.9458 1.84045 -4.93391 0
M  V30 476 H 47.4368 0.935064 -3.66149 0
M  V30 477 H 47.7498 1.30008 -7.61786 0
M  V30 478 H 46.0948 1.17605 -6.84977 0
M  V30 479 H 49.2858 1.07643 -4.55555 0
M  V30 480 H 49.4588 1.24311 -6.35965 0
M  V30 481 N 42.8649 1.48995 0.513639 0
M  V30 482 C 43.7969 1.60836 1.63293 0
M  V30 483 C 44.8099 0.491701 1.55197 0
M  V30 484 O 45.9989 0.763238 1.6136 0
M  V30 485 C 43.0989 1.53731 3.02027 0
M  V30 486 C 42.2719 2.80715 3.35437 0
M  V30 487 C 41.3309 2.66837 4.53525 0
M  V30 488 O 40.3569 3.40753 4.55934 0
M  V30 489 N 41.5589 1.77539 5.52684 0
M  V30 490 H 44.3239 2.57366 1.53566 0
M  V30 491 H 41.8849 1.45925 0.701259 0
M  V30 492 H 43.8769 1.42118 3.78926 0
M  V30 493 H 42.4469 0.651092 3.05744 0
M  V30 494 H 41.6669 3.06772 2.47557 0
M  V30 495 H 42.9549 3.64927 3.54551 0
M  V30 496 H 42.3529 1.16719 5.53528 0
M  V30 497 H 40.9099 1.71856 6.28736 0
M  V30 498 N 44.343 -0.763751 1.37857 0
M  V30 499 C 45.759 -1.06542 1.18832 0
M  V30 500 C 45.959 -2.01478 0.0299722 0
M  V30 501 O 45.015 -2.4458 -0.627447 0
M  V30 502 C 46.328 -1.65525 2.51042 0
M  V30 503 C 47.876 -1.77745 2.57635 0
M  V30 504 C 48.351 -2.4014 3.89996 0
M  V30 505 N 49.842 -2.47582 3.91481 0
M  V30 506 C 50.577 -2.96732 4.9065 0
M  V30 507 N 50.073 -3.45993 6.00217 0
M  V30 508 N 51.866 -2.95679 4.78048 0
M  V30 509 H 44.017 -0.133556 2.1198 0
M  V30 510 H 46.28 -0.121879 0.940133 0
M  V30 511 H 45.986 -1.03236 3.36207 0
M  V30 512 H 45.86 -2.64719 2.68707 0
M  V30 513 H 48.247 -2.39164 1.72872 0
M  V30 514 H 48.328 -0.772836 2.43846 0
M  V30 515 H 47.972 -1.79358 4.75177 0
M  V30 516 H 47.902 -3.41223 4.01092 0
M  V30 517 H 50.393 -2.1273 3.12337 0
M  V30 518 H 50.706 -3.81922 6.7183 0
M  V30 519 H 49.051 -3.44077 6.03851 0
M  V30 520 H 52.242 -2.56499 3.91568 0
M  V30 521 H 52.415 -3.33672 5.55488 0
M  V30 522 N 45.8211 -1.22559 -0.990812 0
M  V30 523 C 46.7311 -1.01394 -2.11557 0
M  V30 524 C 47.7471 0.0383962 -1.73958 0
M  V30 525 O 48.9231 -0.154787 -2.00804 0
M  V30 526 C 45.9881 -0.596569 -3.41529 0
M  V30 527 C 45.0491 -1.72276 -3.93217 0
M  V30 528 C 44.2821 -1.32521 -5.16985 0
M  V30 529 O 44.5051 -0.204909 -5.70032 0
M  V30 530 O 43.4391 -2.14247 -5.62478 0
M  V30 531 H 47.2651 -1.95633 -2.32296 0
M  V30 532 H 44.8501 -1.01172 -1.0993 0
M  V30 533 H 46.7321 -0.374263 -4.19735 0
M  V30 534 H 45.4071 0.316939 -3.22145 0
M  V30 535 H 44.3141 -1.99961 -3.16174 0
M  V30 536 H 45.6471 -2.61421 -4.17037 0
M  V30 537 N 47.2992 1.18797 -1.03562 0
M  V30 538 C 48.7102 1.70322 -0.764676 0
M  V30 539 C 49.0612 1.82708 0.714996 0
M  V30 540 O 48.1862 1.50299 1.55689 0
M  V30 541 C 48.7812 3.09356 -1.38145 0
M  V30 542 C 47.3402 3.58114 -1.15895 0
M  V30 543 C 46.4872 2.34798 -1.4753 0
M  V30 544 H 49.4382 1.03543 -1.20268 0
M  V30 545 H 49.4592 3.72378 -0.781977 0
M  V30 546 H 48.9712 3.00309 -2.45837 0
M  V30 547 H 47.0722 3.72464 -0.100544 0
M  V30 548 H 47.1852 4.4184 -1.8524 0
M  V30 549 H 45.5492 2.38464 -0.894829 0
M  V30 550 H 46.3322 2.28375 -2.56319 0
M  V30 551 N 48.7773 0.814389 1.34928 0
M  V30 552 C 50.0253 0.397636 1.9815 0
M  V30 553 C 50.3463 -1.04069 1.64908 0
M  V30 554 O 49.6163 -1.72121 0.93548 0
M  V30 555 H 48.1963 0.144043 0.732981 0
M  V30 556 H 50.8583 1.04195 1.6471 0
M  V30 557 H 49.9543 0.509688 3.0791 0
M  V30 558 N 50.2554 -1.46986 0.568584 0
M  V30 559 C 51.1854 -2.32946 -0.160753 0
M  V30 560 C 52.1664 -1.44487 -0.897631 0
M  V30 561 O 53.3514 -1.73327 -0.875867 0
M  V30 562 C 50.4814 -3.26494 -1.18403 0
M  V30 563 C 49.4354 -4.24282 -0.562895 0
M  V30 564 C 48.7614 -5.07236 -1.69163 0
M  V30 565 C 50.0614 -5.19989 0.490761 0
M  V30 566 H 51.7554 -2.94175 0.556916 0
M  V30 567 H 49.3014 -1.4146 0.26927 0
M  V30 568 H 51.2544 -3.85477 -1.70251 0
M  V30 569 H 49.9784 -2.63343 -1.93179 0
M  V30 570 H 48.6374 -3.66541 -0.0656164 0
M  V30 571 H 48.2854 -4.4048 -2.42871 0
M  V30 572 H 47.9854 -5.7345 -1.28174 0
M  V30 573 H 49.5094 -5.6908 -2.21314 0
M  V30 574 H 50.9234 -5.73271 0.0579047 0
M  V30 575 H 49.3204 -5.94469 0.820165 0
M  V30 576 H 50.3904 -4.64777 1.3824 0
M  V30 577 N 51.7335 -0.305618 -1.54608 0
M  V30 578 C 52.9815 0.301701 -1.99835 0
M  V30 579 C 53.3025 1.54054 -1.19551 0
M  V30 580 O 52.5725 1.93702 -0.292658 0
M  V30 581 H 51.1525 0.114468 -0.738178 0
M  V30 582 H 53.8145 -0.418016 -1.90364 0
M  V30 583 H 52.9105 0.570548 -3.06841 0
M  V30 584 N 53.2116 1.57565 -0.0334293 0
M  V30 585 C 54.4586 1.91978 0.644272 0
M  V30 586 C 54.7866 0.910231 1.71887 0
M  V30 587 O 54.0416 -0.0801961 1.95536 0
M  V30 588 C 54.3406 3.33112 1.29504 0
M  V30 589 C 54.0066 4.49537 0.350388 0
M  V30 590 C 52.6686 4.81115 0.0903974 0
M  V30 591 C 55.0206 5.20347 -0.298032 0
M  V30 592 C 52.3486 5.8086 -0.825746 0
M  V30 593 C 54.7006 6.2107 -1.20226 0
M  V30 594 C 53.3646 6.51088 -1.4711 0
M  V30 595 H 52.6346 0.702496 0.235756 0
M  V30 596 H 55.2816 1.91259 -0.0961176 0
M  V30 597 H 53.5866 3.30113 2.11028 0
M  V30 598 H 55.2836 3.57011 1.82603 0
M  V30 599 H 51.8736 4.24883 0.563205 0
M  V30 600 H 56.0576 4.96178 -0.110234 0
M  V30 601 H 51.3136 6.02461 -1.04169 0
M  V30 602 H 55.4876 6.75057 -1.71086 0
M  V30 603 H 53.1146 7.28193 -2.18264 0
M  V30 604 N 54.6897 -0.239769 1.55765 0
M  V30 605 C 55.9147 -0.988373 1.82335 0
M  V30 606 C 56.3397 -1.77886 0.611421 0
M  V30 607 O 55.6977 -1.75889 -0.439639 0
M  V30 608 C 55.7457 -1.89627 3.06715 0
M  V30 609 O 54.8497 -2.98904 2.84131 0
M  V30 610 H 54.1907 -0.280858 0.601677 0
M  V30 611 H 56.7207 -0.258597 2.02959 0
M  V30 612 H 56.7307 -2.30957 3.36338 0
M  V30 613 H 55.4057 -1.31511 3.9456 0
M  V30 614 H 53.9827 -2.61651 2.65694 0
M  V30 615 N 56.1678 -1.49265 -0.50573 0
M  V30 616 C 57.4148 -1.58513 -1.26015 0
M  V30 617 C 57.7428 -0.26972 -1.92621 0
M  V30 618 O 56.9978 0.741997 -1.81088 0
M  V30 619 C 57.2968 -2.69008 -2.35308 0
M  V30 620 C 56.9628 -4.10662 -1.86192 0
M  V30 621 C 55.6248 -4.49212 -1.72516 0
M  V30 622 C 57.9768 -4.99336 -1.49375 0
M  V30 623 C 55.3048 -5.74214 -1.20394 0
M  V30 624 C 57.6568 -6.24852 -0.987072 0
M  V30 625 C 56.3208 -6.62236 -0.836669 0
M  V30 626 H 55.5908 -0.580041 -0.461122 0
M  V30 627 H 58.2378 -1.83078 -0.561665 0
M  V30 628 H 56.5428 -2.38396 -3.10926 0
M  V30 629 H 58.2398 -2.73373 -2.93374 0
M  V30 630 H 54.8298 -3.8023 -1.97795 0
M  V30 631 H 59.0138 -4.70212 -1.5879 0
M  V30 632 H 54.2698 -6.01883 -1.07458 0
M  V30 633 H 58.4438 -6.92944 -0.692983 0
M  V30 634 H 56.0708 -7.58979 -0.430607 0
M  V30 635 N 57.6459 0.756429 -1.3826 0
M  V30 636 C 58.5559 1.9009 -1.37488 0
M  V30 637 C 59.5719 1.71855 -0.272366 0
M  V30 638 O 60.7479 1.94827 -0.510318 0
M  V30 639 C 57.8129 3.25421 -1.19592 0
M  V30 640 C 56.8739 3.56202 -2.39622 0
M  V30 641 C 56.1069 4.85075 -2.2257 0
M  V30 642 O 56.3299 5.57246 -1.21793 0
M  V30 643 O 55.2639 5.15269 -3.11098 0
M  V30 644 H 59.0899 1.93695 -2.33914 0
M  V30 645 H 56.6749 0.901313 -1.1915 0
M  V30 646 H 58.5569 4.06337 -1.11661 0
M  V30 647 H 57.2319 3.22634 -0.262486 0
M  V30 648 H 56.1389 2.75458 -2.53128 0
M  V30 649 H 57.4719 3.63747 -3.31586 0
M  V30 650 N 59.124 1.23083 0.984299 0
M  V30 651 C 60.371 1.06057 1.72505 0
M  V30 652 C 60.699 -0.403105 1.90277 0
M  V30 653 O 59.954 -1.3149 1.44944 0
M  V30 654 C 60.253 1.72673 3.1292 0
M  V30 655 C 59.919 3.22586 3.15038 0
M  V30 656 C 58.581 3.63489 3.15324 0
M  V30 657 C 60.933 4.185 3.10657 0
M  V30 658 C 58.261 4.98772 3.08939 0
M  V30 659 C 60.613 5.53769 3.05814 0
M  V30 660 C 59.277 5.94041 3.04419 0
M  V30 661 H 58.547 0.388091 0.631242 0
M  V30 662 H 61.194 1.52963 1.15215 0
M  V30 663 H 59.499 1.18116 3.73572 0
M  V30 664 H 61.196 1.56982 3.68996 0
M  V30 665 H 57.786 2.90022 3.15571 0
M  V30 666 H 61.97 3.87911 3.09579 0
M  V30 667 H 57.226 5.29193 3.0621 0
M  V30 668 H 61.4 6.27808 3.0138 0
M  V30 669 H 59.027 6.98833 2.99227 0
M  V30 670 N 60.6021 -1.18246 1.0419 0
M  V30 671 C 61.8301 -1.92195 0.766072 0
M  V30 672 C 62.2451 -1.76247 -0.676933 0
M  V30 673 O 61.6021 -1.09293 -1.46155 0
M  V30 674 C 61.6531 -3.43568 1.12442 0
M  V30 675 O 61.3741 -3.59015 2.51078 0
M  V30 676 C 62.8751 -4.34613 0.873275 0
M  V30 677 H 60.0951 -0.610114 0.279288 0
M  V30 678 H 62.6391 -1.50007 1.38989 0
M  V30 679 H 60.7941 -3.8354 0.545542 0
M  V30 680 H 61.2081 -4.5273 2.64831 0
M  V30 681 H 62.6821 -5.39374 1.17385 0
M  V30 682 H 63.1591 -4.38781 -0.191909 0
M  V30 683 H 63.7651 -4.00341 1.43551 0
M  V30 684 N 62.0802 -0.821533 -1.34494 0
M  V30 685 C 62.9902 -0.244355 -2.33324 0
M  V30 686 C 64.0062 0.620527 -1.62559 0
M  V30 687 O 65.1822 0.528754 -1.94335 0
M  V30 688 C 62.2472 0.585368 -3.41723 0
M  V30 689 C 61.3082 -0.301752 -4.28238 0
M  V30 690 C 60.5412 0.488466 -5.3146 0
M  V30 691 O 60.7642 1.72186 -5.4379 0
M  V30 692 O 59.6982 -0.12848 -6.01763 0
M  V30 693 H 63.5242 -1.06231 -2.84515 0
M  V30 694 H 61.1092 -0.583645 -1.37528 0
M  V30 695 H 62.9912 1.05747 -4.07916 0
M  V30 696 H 61.6662 1.38068 -2.92778 0
M  V30 697 H 60.5732 -0.821315 -3.64973 0
M  V30 698 H 61.9062 -1.06138 -4.8062 0
M  V30 699 N 63.5583 1.46682 -0.576371 0
M  V30 700 C 64.4903 2.28341 0.198231 0
M  V30 701 C 65.5033 1.38141 0.861453 0
M  V30 702 O 66.6923 1.62797 0.732082 0
M  V30 703 C 63.7923 3.12986 1.29972 0
M  V30 704 C 62.9653 4.31271 0.729639 0
M  V30 705 C 62.0243 4.97363 1.71803 0
M  V30 706 O 61.0503 5.55156 1.25658 0
M  V30 707 N 62.2523 4.93796 3.05198 0
M  V30 708 H 65.0173 2.9546 -0.502324 0
M  V30 709 H 62.5783 1.56525 -0.413715 0
M  V30 710 H 64.5703 3.54066 1.96008 0
M  V30 711 H 63.1403 2.47984 1.90323 0
M  V30 712 H 62.3603 3.94052 -0.108012 0
M  V30 713 H 63.6483 5.07739 0.328438 0
M  V30 714 H 63.0463 4.48077 3.45317 0
M  V30 715 H 61.6033 5.38837 3.6674 0
M  V30 716 N 65.0364 0.313813 1.54444 0
M  V30 717 C 65.9684 -0.590425 2.21465 0
M  V30 718 C 66.9814 -1.08753 1.21147 0
M  V30 719 O 68.1704 -1.00278 1.4767 0
M  V30 720 C 65.2704 -1.82179 2.85769 0
M  V30 721 C 64.4434 -1.46502 4.12136 0
M  V30 722 C 63.5024 -2.55288 4.60124 0
M  V30 723 O 62.5284 -2.19842 5.25032 0
M  V30 724 N 63.7304 -3.86053 4.33525 0
M  V30 725 H 66.4954 -0.0166033 2.99695 0
M  V30 726 H 64.0564 0.136578 1.61323 0
M  V30 727 H 66.0484 -2.54328 3.14801 0
M  V30 728 H 64.6184 -2.30369 2.11303 0
M  V30 729 H 63.8384 -0.575595 3.89975 0
M  V30 730 H 65.1264 -1.20221 4.94393 0
M  V30 731 H 64.5244 -4.17654 3.81552 0
M  V30 732 H 63.0814 -4.54461 4.67235 0
M  V30 733 N 66.5145 -1.57545 0.0417849 0
M  V30 734 C 67.4615 -2.10977 -0.935805 0
M  V30 735 C 68.4315 -1.01486 -1.31491 0
M  V30 736 O 69.6165 -1.2898 -1.40602 0
M  V30 737 C 66.7565 -2.65169 -2.2086 0
M  V30 738 C 65.8695 -3.88714 -1.88482 0
M  V30 739 C 65.0045 -4.31254 -3.1015 0
M  V30 740 C 64.0435 -5.47524 -2.7365 0
M  V30 741 N 63.1805 -5.85162 -3.87982 0
M  V30 742 H 68.0205 -2.94218 -0.473249 0
M  V30 743 H 65.5575 -1.45415 -0.221981 0
M  V30 744 H 67.5155 -2.94685 -2.95325 0
M  V30 745 H 66.1455 -1.8474 -2.64709 0
M  V30 746 H 65.1975 -3.65849 -1.04205 0
M  V30 747 H 66.5095 -4.73245 -1.57608 0
M  V30 748 H 65.6635 -4.62273 -3.92923 0
M  V30 749 H 64.4025 -3.45516 -3.44195 0
M  V30 750 H 63.4075 -5.16187 -1.89291 0
M  V30 751 H 64.6325 -6.34971 -2.40807 0
M  V30 752 H 62.5785 -5.02377 -4.21846 0
M  V30 753 H 62.4955 -6.64362 -3.60775 0
M  V30 754 H 63.7635 -6.20791 -4.71422 0
M  V30 755 N 67.9926 0.231505 -1.5589 0
M  V30 756 C 68.9026 1.308 -1.94752 0
M  V30 757 C 69.9186 1.51826 -0.849989 0
M  V30 758 O 71.0946 1.6515 -1.15271 0
M  V30 759 C 68.1596 2.63968 -2.24771 0
M  V30 760 C 67.2206 2.51331 -3.48039 0
M  V30 761 C 66.4536 3.78148 -3.76616 0
M  V30 762 O 66.6766 4.80722 -3.07022 0
M  V30 763 O 65.6106 3.75857 -4.70123 0
M  V30 764 H 69.4366 1.0083 -2.86474 0
M  V30 765 H 67.0216 0.433547 -1.42971 0
M  V30 766 H 68.9036 3.42633 -2.45318 0
M  V30 767 H 67.5786 2.9364 -1.36225 0
M  V30 768 H 66.4856 1.709 -3.32782 0
M  V30 769 H 67.8186 2.26601 -4.36936 0
M  V30 770 N 69.4707 1.49531 0.497807 0
M  V30 771 C 70.7177 1.59179 1.25173 0
M  V30 772 C 71.0457 0.279932 1.92475 0
M  V30 773 O 70.3007 -0.732383 1.81479 0
M  V30 774 C 70.5997 2.70252 2.33878 0
M  V30 775 C 70.2657 4.11644 1.84012 0
M  V30 776 C 68.9277 4.50121 1.70132 0
M  V30 777 C 71.2797 5.00121 1.46725 0
M  V30 778 C 68.6077 5.74845 1.17348 0
M  V30 779 C 70.9597 6.25366 0.95392 0
M  V30 780 C 69.6237 6.6267 0.801538 0
M  V30 781 H 68.8937 0.582478 0.45804 0
M  V30 782 H 71.5407 1.83373 0.551948 0
M  V30 783 H 69.8457 2.40041 3.09657 0
M  V30 784 H 71.5427 2.74925 2.9192 0
M  V30 785 H 68.1327 3.81274 1.95775 0
M  V30 786 H 72.3167 4.71048 1.56294 0
M  V30 787 H 67.5727 6.02444 1.04264 0
M  V30 788 H 71.7467 6.93301 0.656225 0
M  V30 789 H 69.3737 7.59197 0.390351 0
M  V30 790 N 70.9488 -0.749086 1.3866 0
M  V30 791 C 71.8808 -1.87273 1.32142 0
M  V30 792 C 72.8938 -1.61127 0.232787 0
M  V30 793 O 74.0828 -1.71623 0.49069 0
M  V30 794 C 71.1828 -3.23005 1.02571 0
M  V30 795 C 70.3558 -3.7662 2.22433 0
M  V30 796 C 69.4148 -4.90879 1.89537 0
M  V30 797 O 68.4408 -5.05276 2.62078 0
M  V30 798 N 69.6428 -5.74198 0.853031 0
M  V30 799 H 72.4078 -1.93373 2.28969 0
M  V30 800 H 69.9688 -0.929216 1.32579 0
M  V30 801 H 71.9608 -3.96992 0.786085 0
M  V30 802 H 70.5308 -3.12262 0.145249 0
M  V30 803 H 69.7508 -2.94147 2.62434 0
M  V30 804 H 71.0388 -4.09173 3.02415 0
M  V30 805 H 70.4368 -5.6514 0.25155 0
M  V30 806 H 68.9938 -6.48313 0.67329 0
M  V30 807 N 72.4269 -1.23603 -0.977757 0
M  V30 808 C 73.3899 -1.02069 -2.05218 0
M  V30 809 C 74.3899 0.0184305 -1.60789 0
M  V30 810 O 75.5799 -0.221569 -1.72785 0
M  V30 811 C 72.7119 -0.544926 -3.36517 0
M  V30 812 H 73.9049 -1.9742 -2.25755 0
M  V30 813 H 71.4579 -1.05684 -1.15155 0
M  V30 814 H 72.1929 0.412241 -3.21669 0
M  V30 815 H 71.9779 -1.2948 -3.70105 0
M  V30 816 H 73.4679 -0.414985 -4.15533 0
M  V30 817 N 73.905 1.17692 -1.04816 0
M  V30 818 C 75.133 1.91786 -0.776254 0
M  V30 819 C 75.548 1.76604 0.667577 0
M  V30 820 O 74.905 1.10067 1.45573 0
M  V30 821 C 74.956 3.42967 -1.14263 0
M  V30 822 O 74.677 3.57678 -2.52978 0
M  V30 823 C 76.178 4.34144 -0.896311 0
M  V30 824 H 73.398 0.608624 -0.282519 0
M  V30 825 H 75.942 1.49268 -1.39783 0
M  V30 826 H 74.097 3.83245 -0.565874 0
M  V30 827 H 74.511 4.51319 -2.67229 0
M  V30 828 H 75.985 5.38744 -1.20244 0
M  V30 829 H 76.462 4.38876 0.168636 0
M  V30 830 H 77.068 3.99574 -1.45672 0
M  V30 831 N 75.3831 0.828654 1.34056 0
M  V30 832 C 76.3461 0.259927 2.27721 0
M  V30 833 C 77.3461 -0.565478 1.50529 0
M  V30 834 O 78.5361 -0.38075 1.69988 0
M  V30 835 C 75.6681 -0.634944 3.34935 0
M  V30 836 H 76.8611 1.0863 2.79534 0
M  V30 837 H 74.4141 0.600951 1.44285 0
M  V30 838 H 75.1491 -1.48416 2.88346 0
M  V30 839 H 74.9341 -0.0444999 3.92075 0
M  V30 840 H 76.4241 -1.02648 4.04788 0
M  V30 841 N 76.8612 -1.46375 0.584142 0
M  V30 842 C 78.2772 -1.57694 0.245929 0
M  V30 843 C 78.4772 -1.57903 -1.25175 0
M  V30 844 O 77.5332 -1.49676 -2.03355 0
M  V30 845 C 78.8462 -2.87028 0.896402 0
M  V30 846 C 80.3942 -3.00662 0.870127 0
M  V30 847 C 80.8692 -4.32734 1.50017 0
M  V30 848 N 82.3602 -4.39436 1.46458 0
M  V30 849 C 83.0952 -5.40248 1.92144 0
M  V30 850 N 82.5912 -6.47726 2.4581 0
M  V30 851 N 84.3842 -5.31459 1.83052 0
M  V30 852 H 76.5352 -1.44483 1.55687 0
M  V30 853 H 78.7982 -0.689291 0.650831 0
M  V30 854 H 78.5042 -2.9269 1.95002 0
M  V30 855 H 78.3782 -3.75014 0.405486 0
M  V30 856 H 80.7652 -2.94581 -0.174871 0
M  V30 857 H 80.8462 -2.14148 1.39908 0
M  V30 858 H 80.4902 -4.39573 2.54437 0
M  V30 859 H 80.4202 -5.18025 0.946432 0
M  V30 860 H 82.9112 -3.62367 1.07231 0
M  V30 861 H 83.2242 -7.20863 2.78525 0
M  V30 862 H 81.5692 -6.48542 2.49836 0
M  V30 863 H 84.7602 -4.46396 1.40883 0
M  V30 864 H 84.9332 -6.09881 2.18973 0
M  V30 865 N 78.3393 -0.321999 -1.54275 0
M  V30 866 C 79.2863 0.544664 -2.24281 0
M  V30 867 C 80.2563 1.1129 -1.23303 0
M  V30 868 O 81.4413 1.15354 -1.51981 0
M  V30 869 C 78.5813 1.70045 -3.00298 0
M  V30 870 C 77.6943 1.16159 -4.1609 0
M  V30 871 C 76.8293 2.28293 -4.79641 0
M  V30 872 C 75.8683 1.71648 -5.8754 0
M  V30 873 N 75.0053 2.77438 -6.44959 0
M  V30 874 H 79.8453 -0.0588907 -2.97942 0
M  V30 875 H 77.3823 -0.0408345 -1.47043 0
M  V30 876 H 79.3403 2.38054 -3.42616 0
M  V30 877 H 77.9703 2.27531 -2.28975 0
M  V30 878 H 77.0223 0.373092 -3.78566 0
M  V30 879 H 78.3343 0.707087 -4.93763 0
M  V30 880 H 77.4883 3.0421 -5.2492 0
M  V30 881 H 76.2273 2.77079 -4.01346 0
M  V30 882 H 75.2323 0.942282 -5.41665 0
M  V30 883 H 76.4573 1.23741 -6.67731 0
M  V30 884 H 74.4033 3.25519 -5.69538 0
M  V30 885 H 74.3203 2.36547 -7.1804 0
M  V30 886 H 75.5883 3.53189 -6.94894 0
M  V30 887 N 79.8174 1.5752 -0.0501392 0
M  V30 888 C 81.0644 1.9265 0.623874 0
M  V30 889 C 81.3924 0.928411 1.70912 0
M  V30 890 O 80.6474 -0.0594525 1.9561 0
M  V30 891 C 80.9464 3.34467 1.25963 0
M  V30 892 C 80.6124 4.49883 0.302689 0
M  V30 893 C 79.2744 4.81184 0.0393636 0
M  V30 894 C 81.6264 5.20002 -0.353205 0
M  V30 895 C 78.9544 5.79951 -0.887308 0
M  V30 896 C 81.3064 6.1976 -1.26806 0
M  V30 897 C 79.9704 6.49491 -1.54007 0
M  V30 898 H 79.2404 0.704957 0.228292 0
M  V30 899 H 81.8874 1.91146 -0.116398 0
M  V30 900 H 80.1924 3.32333 2.07514 0
M  V30 901 H 81.8894 3.58928 1.78806 0
M  V30 902 H 78.4794 4.25457 0.518109 0
M  V30 903 H 82.6634 4.96033 -0.162854 0
M  V30 904 H 77.9194 6.01322 -1.10553 0
M  V30 905 H 82.0934 6.73205 -1.78236 0
M  V30 906 H 79.7204 7.25837 -2.25976 0
M  V30 907 N 81.2955 -0.223234 1.56011 0
M  V30 908 C 82.2585 -1.26014 1.9145 0
M  V30 909 C 83.2585 -1.3989 0.792937 0
M  V30 910 O 84.4485 -1.38184 1.0607 0
M  V30 911 C 81.5805 -2.63422 2.16383 0
M  V30 912 H 82.7735 -0.95796 2.84189 0
M  V30 913 H 80.3265 -0.463576 1.49267 0
M  V30 914 H 81.0615 -2.98741 1.2619 0
M  V30 915 H 80.8465 -2.54728 2.98088 0
M  V30 916 H 82.3365 -3.38249 2.44903 0
M  V30 917 N 82.7736 -1.49793 -0.48987 0
M  V30 918 C 84.1896 -1.36803 -0.822022 0
M  V30 919 C 84.3896 -0.409652 -1.97292 0
M  V30 920 O 83.4456 0.154614 -2.52026 0
M  V30 921 C 84.7586 -2.77768 -1.15175 0
M  V30 922 C 86.3066 -2.86549 -1.25931 0
M  V30 923 C 86.7816 -4.28306 -1.62228 0
M  V30 924 N 88.2726 -4.31169 -1.69256 0
M  V30 925 C 89.0076 -5.37832 -1.98807 0
M  V30 926 N 88.5036 -6.54726 -2.26507 0
M  V30 927 N 90.2966 -5.25258 -2.00152 0
M  V30 928 H 82.4476 -2.10691 0.268881 0
M  V30 929 H 84.7106 -0.946241 0.057728 0
M  V30 930 H 84.4166 -3.49648 -0.379335 0
M  V30 931 H 84.2906 -3.13836 -2.09253 0
M  V30 932 H 86.6776 -2.14899 -2.02243 0
M  V30 933 H 86.7586 -2.54049 -0.298776 0
M  V30 934 H 86.4026 -5.00486 -0.864622 0
M  V30 935 H 86.3326 -4.58279 -2.594 0
M  V30 936 H 88.8236 -3.4687 -1.49965 0
M  V30 937 H 89.1366 -7.31833 -2.48276 0
M  V30 938 H 87.4816 -6.57933 -2.23939 0
M  V30 939 H 90.6726 -4.32938 -1.77996 0
M  V30 940 H 90.8456 -6.08476 -2.22848 0
M  V30 941 N 84.2517 0.741722 -1.39055 0
M  V30 942 C 85.1617 1.88621 -1.39496 0
M  V30 943 C 86.1777 1.71557 -0.290578 0
M  V30 944 O 87.3537 1.94275 -0.530954 0
M  V30 945 C 84.4187 3.24134 -1.23037 0
M  V30 946 C 83.4797 3.5364 -2.43387 0
M  V30 947 C 82.7127 4.82687 -2.27703 0
M  V30 948 O 82.9357 5.55922 -1.27696 0
M  V30 949 O 81.8697 5.1194 -3.16545 0
M  V30 950 H 85.6957 1.91203 -2.35956 0
M  V30 951 H 83.2807 0.888625 -1.20099 0
M  V30 952 H 85.1627 4.0513 -1.15964 0
M  V30 953 H 83.8377 3.22337 -0.296691 0
M  V30 954 H 82.7447 2.72758 -2.56035 0
M  V30 955 H 84.0777 3.60209 -3.35425 0
M  V30 956 N 85.7298 1.2412 0.971189 0
M  V30 957 C 86.6398 1.04747 2.09917 0
M  V30 958 C 87.6558 -0.0107162 1.73997 0
M  V30 959 O 88.8318 0.186714 2.00533 0
M  V30 960 C 85.8968 0.650828 3.40537 0
M  V30 961 C 84.9578 1.7851 3.90426 0
M  V30 962 C 84.1908 1.40729 5.14812 0
M  V30 963 O 84.4138 0.29557 5.69634 0
M  V30 964 O 83.3478 2.23168 5.58999 0
M  V30 965 H 87.1738 1.99304 2.29154 0
M  V30 966 H 84.7588 1.02908 1.08307 0
M  V30 967 H 86.6408 0.440992 4.19086 0
M  V30 968 H 85.3158 -0.265649 3.22608 0
M  V30 969 H 84.2228 2.04966 3.12953 0
M  V30 970 H 85.5558 2.68023 4.12825 0
M  V30 971 N 87.2079 -1.17134 1.05439 0
M  V30 972 C 88.4569 -1.86791 0.761049 0
M  V30 973 C 88.7699 -1.82072 -0.714795 0
M  V30 974 O 89.9759 -2.47223 -1.12218 0
M  V30 975 C 88.4319 -3.35166 1.31117 0
M  V30 976 C 88.0399 -3.48381 2.81664 0
M  V30 977 C 89.7839 -4.10134 1.09499 0
M  V30 978 C 87.6909 -4.90793 3.29964 0
M  V30 979 H 86.6209 -0.699681 0.281002 0
M  V30 980 H 89.2719 -1.3226 1.27199 0
M  V30 981 H 87.6539 -3.8925 0.72803 0
M  V30 982 H 88.8279 -3.04502 3.45855 0
M  V30 983 H 87.1429 -2.86836 3.01851 0
M  V30 984 H 89.7399 -5.152 1.43084 0
M  V30 985 H 90.0829 -4.16287 0.0328772 0
M  V30 986 H 90.6159 -3.62264 1.64346 0
M  V30 987 H 87.3549 -4.89816 4.35616 0
M  V30 988 H 86.8749 -5.35333 2.70516 0
M  V30 989 H 88.5539 -5.59573 3.24787 0
M  V30 990 N 88.686 -0.835752 -1.33615 0
M  V30 991 C 89.935 -0.426289 -1.97144 0
M  V30 992 C 90.248 1.01912 -1.66953 0
M  V30 993 O 91.454 1.53311 -2.24072 0
M  V30 994 C 89.91 -0.711321 -3.52801 0
M  V30 995 C 89.518 -2.1712 -3.91871 0
M  V30 996 C 91.262 -0.368654 -4.22896 0
M  V30 997 C 89.169 -2.40044 -5.40493 0
M  V30 998 H 88.099 -0.15567 -0.737755 0
M  V30 999 H 90.75 -1.0239 -1.52278 0
M  V30 1000 H 89.132 -0.0433766 -3.95976 0
M  V30 1001 H 90.306 -2.87936 -3.59763 0
M  V30 1002 H 88.621 -2.47654 -3.34749 0
M  V30 1003 H 91.218 -0.517601 -5.32189 0
M  V30 1004 H 91.561 0.688078 -4.10574 0
M  V30 1005 H 92.094 -0.991702 -3.8524 0
M  V30 1006 H 88.833 -3.44271 -5.57815 0
M  V30 1007 H 88.353 -1.73785 -5.74072 0
M  V30 1008 H 90.032 -2.23042 -6.0734 0
M  V30 1009 N 90.1641 1.46063 -0.591896 0
M  V30 1010 C 91.5751 1.85944 -0.167822 0
M  V30 1011 C 91.9261 1.49429 1.27143 0
M  V30 1012 O 91.0511 0.913515 1.96173 0
M  V30 1013 C 91.6461 3.37489 -0.297794 0
M  V30 1014 C 90.2051 3.76332 0.0714732 0
M  V30 1015 C 89.3521 2.7006 -0.629509 0
M  V30 1016 H 92.3031 1.37087 -0.799555 0
M  V30 1017 H 92.3241 3.77532 0.474349 0
M  V30 1018 H 91.8361 3.64034 -1.3454 0
M  V30 1019 H 89.9371 3.55405 1.11886 0
M  V30 1020 H 90.0501 4.78088 -0.311245 0
M  V30 1021 H 88.4141 2.54607 -0.0687867 0
M  V30 1022 H 89.1971 2.99444 -1.67894 0
M  V30 1023 N 91.6422 0.330177 1.54103 0
M  V30 1024 C 92.8882 -0.270806 2.00984 0
M  V30 1025 C 93.2212 -1.51265 1.21789 0
M  V30 1026 O 92.4962 -1.92142 0.301927 0
M  V30 1027 C 92.7792 -0.598339 3.55094 0
M  V30 1028 C 92.6322 0.654674 4.4501 0
M  V30 1029 C 93.9512 -1.41334 4.16789 0
M  V30 1030 H 91.0702 -0.0969531 0.730595 0
M  V30 1031 H 93.7122 0.448066 1.84641 0
M  V30 1032 H 91.8622 -1.21078 3.69151 0
M  V30 1033 H 93.5342 1.29285 4.42813 0
M  V30 1034 H 91.7772 1.28224 4.14416 0
M  V30 1035 H 92.4482 0.380944 5.50684 0
M  V30 1036 H 94.9242 -0.895597 4.06347 0
M  V30 1037 H 93.8002 -1.61127 5.24718 0
M  V30 1038 H 94.0612 -2.41146 3.70541 0
M  V30 1039 N 93.1203 -1.57491 0.0584922 0
M  V30 1040 C 94.0833 -2.1085 -0.898617 0
M  V30 1041 C 95.0833 -1.02964 -1.23511 0
M  V30 1042 O 96.2733 -1.29007 -1.17059 0
M  V30 1043 C 93.4053 -2.59881 -2.20623 0
M  V30 1044 H 94.5983 -2.96715 -0.435936 0
M  V30 1045 H 92.1513 -1.55141 -0.190023 0
M  V30 1046 H 92.8863 -1.77431 -2.71457 0
M  V30 1047 H 92.6713 -3.38727 -1.97501 0
M  V30 1048 H 94.1613 -3.01285 -2.89166 0
M  V30 1049 N 94.5984 0.214957 -1.56127 0
M  V30 1050 C 95.5614 1.24997 -1.92116 0
M  V30 1051 C 96.5614 1.39467 -0.800344 0
M  V30 1052 O 97.7514 1.37619 -1.06802 0
M  V30 1053 C 94.8834 2.62271 -2.17777 0
M  V30 1054 H 96.0764 0.942875 -2.84693 0
M  V30 1055 H 93.6294 0.455654 -1.49511 0
M  V30 1056 H 94.3644 2.98068 -1.27773 0
M  V30 1057 H 94.1494 2.53143 -2.99434 0
M  V30 1058 H 95.6394 3.36946 -2.46693 0
M  V30 1059 N 96.0765 1.50051 0.48192 0
M  V30 1060 C 96.9865 1.7089 1.60728 0
M  V30 1061 C 98.0025 0.591788 1.63627 0
M  V30 1062 O 99.1785 0.868817 1.81696 0
M  V30 1063 C 96.2435 1.78855 2.97005 0
M  V30 1064 C 95.3045 3.02537 3.04581 0
M  V30 1065 C 94.5375 3.10112 4.34357 0
M  V30 1066 O 94.7605 2.24765 5.24249 0
M  V30 1067 O 93.6945 4.02747 4.47301 0
M  V30 1068 H 97.5205 2.66264 1.46072 0
M  V30 1069 H 95.1055 1.34018 0.660264 0
M  V30 1070 H 96.9875 1.86336 3.77964 0
M  V30 1071 H 95.6625 0.866628 3.11883 0
M  V30 1072 H 94.5695 3.00563 2.22739 0
M  V30 1073 H 95.9025 3.94272 2.94636 0
M  V30 1074 N 97.5546 -0.734337 1.39446 0
M  V30 1075 C 98.7846 -1.52137 1.39778 0
M  V30 1076 C 99.1926 -1.89198 -0.00929312 0
M  V30 1077 O 98.5356 -1.54666 -0.991168 0
M  V30 1078 C 98.5976 -2.83762 2.20724 0
M  V30 1079 C 98.2616 -2.69131 3.69347 0
M  V30 1080 C 99.2586 -2.37635 4.62413 0
M  V30 1081 C 96.9436 -2.85982 4.1294 0
M  V30 1082 C 98.9376 -2.23172 5.97054 0
M  V30 1083 C 96.6246 -2.71137 5.47657 0
M  V30 1084 C 97.6226 -2.39777 6.39528 0
M  V30 1085 O 97.3106 -2.25026 7.71763 0
M  V30 1086 H 97.0426 -0.476717 0.479288 0
M  V30 1087 H 99.5966 -0.915012 1.83893 0
M  V30 1088 H 97.8266 -3.4666 1.71359 0
M  V30 1089 H 99.5156 -3.45383 2.13226 0
M  V30 1090 H 100.282 -2.24267 4.30034 0
M  V30 1091 H 96.1606 -3.09383 3.41765 0
M  V30 1092 H 99.7046 -1.98617 6.68728 0
M  V30 1093 H 95.6016 -2.84083 5.79626 0
M  V30 1094 H 96.3696 -2.40091 7.82495 0
M  V30 1095 N 99.0327 -1.24633 -0.964593 0
M  V30 1096 C 100.31 -0.995809 -1.68354 0
M  V30 1097 C 100.69 0.480964 -2.05548 0
M  V30 1098 O 100.038 1.45599 -1.76105 0
M  V30 1099 C 100.248 -1.92177 -2.91323 0
M  V30 1100 C 101.596 -2.19446 -3.63495 0
M  V30 1101 O 102.62 -1.89855 -3.01386 0
M  V30 1102 O 101.479 -2.69714 -4.75307 0
M  V30 1103 H 98.5727 -0.376854 -0.736146 0
M  V30 1104 H 101.119 -1.35745 -1.0184 0
M  V30 1105 H 99.8907 -2.91938 -2.60553 0
M  V30 1106 H 99.5137 -1.56349 -3.65569 0
M  V30 1107 N 100.511 1.16574 -1.06058 0
M  V30 1108 C 101.458 2.20883 -0.669263 0
M  V30 1109 C 102.428 1.62729 0.332918 0
M  V30 1110 O 103.613 1.895 0.222346 0
M  V30 1111 C 100.753 3.45049 -0.0593572 0
M  V30 1112 C 99.8658 4.17458 -1.11143 0
M  V30 1113 C 99.0008 5.29135 -0.467916 0
M  V30 1114 C 98.0398 5.93343 -1.50369 0
M  V30 1115 N 97.1768 6.96516 -0.883706 0
M  V30 1116 H 102.017 2.53709 -1.5632 0
M  V30 1117 H 99.5538 1.24616 -0.781625 0
M  V30 1118 H 101.512 4.16033 0.311771 0
M  V30 1119 H 100.142 3.12781 0.797992 0
M  V30 1120 H 99.1938 3.45101 -1.60029 0
M  V30 1121 H 100.506 4.61307 -1.89731 0
M  V30 1122 H 99.6598 6.06684 -0.0436871 0
M  V30 1123 H 98.3988 4.86443 0.349864 0
M  V30 1124 H 97.4038 5.14517 -1.93784 0
M  V30 1125 H 98.6288 6.38114 -2.32352 0
M  V30 1126 H 96.5748 6.55943 -0.086595 0
M  V30 1127 H 96.4918 7.38723 -1.607 0
M  V30 1128 H 97.7598 7.77993 -0.484543 0
M  V30 1129 N 101.989 0.842826 1.3317 0
M  V30 1130 C 103.217 0.454055 2.01856 0
M  V30 1131 C 103.632 -0.94587 1.63397 0
M  V30 1132 O 102.989 -1.61534 0.849302 0
M  V30 1133 C 103.04 0.569715 3.56982 0
M  V30 1134 O 102.761 1.91448 3.94055 0
M  V30 1135 C 104.262 0.178412 4.42941 0
M  V30 1136 H 101.482 0.17979 0.646465 0
M  V30 1137 H 104.026 1.1365 1.70012 0
M  V30 1138 H 102.181 -0.0648587 3.87346 0
M  V30 1139 H 102.595 1.90282 4.88767 0
M  V30 1140 H 104.069 0.310376 5.51127 0
M  V30 1141 H 104.546 -0.880056 4.30293 0
M  V30 1142 H 105.152 0.787579 4.17944 0
M  V30 1143 N 103.467 -1.45747 0.599634 0
M  V30 1144 C 104.715 -2.01893 0.0915472 0
M  V30 1145 C 105.036 -1.47155 -1.27946 0
M  V30 1146 O 104.306 -0.66273 -1.84349 0
M  V30 1147 H 102.886 -0.746363 0.0308524 0
M  V30 1148 H 105.548 -1.78645 0.779237 0
M  V30 1149 H 104.644 -3.1208 0.0353086 0
M  V30 1150 N 104.945 -0.338344 -1.53925 0
M  V30 1151 C 105.855 0.529421 -2.28548 0
M  V30 1152 C 106.871 1.11645 -1.3346 0
M  V30 1153 O 108.047 1.13325 -1.66492 0
M  V30 1154 C 105.112 1.66713 -3.03987 0
M  V30 1155 C 104.173 1.11041 -4.14691 0
M  V30 1156 C 103.406 2.19389 -4.86522 0
M  V30 1157 O 103.629 3.40013 -4.57982 0
M  V30 1158 O 102.563 1.83976 -5.73094 0
M  V30 1159 H 106.389 -0.0770399 -3.03602 0
M  V30 1160 H 103.974 -0.103555 -1.49041 0
M  V30 1161 H 105.856 2.32918 -3.5118 0
M  V30 1162 H 104.531 2.25949 -2.31794 0
M  V30 1163 H 103.438 0.413024 -3.71813 0
M  V30 1164 H 104.771 0.562975 -4.8897 0
M  V30 1165 N 106.423 1.57458 -0.0668435 0
M  V30 1166 C 107.653 1.97337 0.611677 0
M  V30 1167 C 108.061 0.943744 1.63982 0
M  V30 1168 O 107.404 -0.0785584 1.83532 0
M  V30 1169 C 107.466 3.33511 1.34205 0
M  V30 1170 C 107.13 4.54598 0.467941 0
M  V30 1171 C 108.127 5.19186 -0.272439 0
M  V30 1172 C 105.812 5.0075 0.39427 0
M  V30 1173 C 107.806 6.28274 -1.07476 0
M  V30 1174 C 105.493 6.09711 -0.411729 0
M  V30 1175 C 106.491 6.73335 -1.14492 0
M  V30 1176 O 106.179 7.80199 -1.93763 0
M  V30 1177 H 105.911 0.654042 0.170893 0
M  V30 1178 H 108.465 2.04961 -0.134289 0
M  V30 1179 H 106.695 3.22487 2.13398 0
M  V30 1180 H 108.384 3.58029 1.91233 0
M  V30 1181 H 109.15 4.84477 -0.225086 0
M  V30 1182 H 105.029 4.51009 0.954569 0
M  V30 1183 H 108.573 6.77866 -1.64755 0
M  V30 1184 H 104.47 6.43854 -0.460664 0
M  V30 1185 H 105.238 7.97053 -1.86142 0
M  V30 1186 N 107.901 -0.206675 1.56239 0
M  V30 1187 C 109.312 -0.772383 1.69974 0
M  V30 1188 C 109.663 -1.84353 0.671436 0
M  V30 1189 O 108.788 -2.15695 -0.174491 0
M  V30 1190 C 109.383 -1.40779 3.08167 0
M  V30 1191 C 107.942 -1.92072 3.23706 0
M  V30 1192 C 107.089 -0.786347 2.65917 0
M  V30 1193 H 110.04 0.0182223 1.5869 0
M  V30 1194 H 110.061 -2.27696 3.04852 0
M  V30 1195 H 109.573 -0.627958 3.82986 0
M  V30 1196 H 107.674 -2.7281 2.53782 0
M  V30 1197 H 107.787 -2.09046 4.31087 0
M  V30 1198 H 106.151 -1.1976 2.24788 0
M  V30 1199 H 106.934 -0.0189416 3.43295 0
M  V30 1200 N 109.379 -1.50304 -0.473955 0
M  V30 1201 C 110.625 -1.61389 -1.22806 0
M  V30 1202 C 110.958 -0.311955 -1.91678 0
M  V30 1203 O 110.233 0.686384 -1.81986 0
M  V30 1204 C 110.516 -2.79219 -2.27396 0
M  V30 1205 C 110.369 -4.19286 -1.62848 0
M  V30 1206 C 111.688 -2.92614 -3.28732 0
M  V30 1207 H 108.807 -0.587399 -0.445119 0
M  V30 1208 H 111.449 -1.82681 -0.522265 0
M  V30 1209 H 109.599 -2.61195 -2.87592 0
M  V30 1210 H 111.271 -4.48892 -1.06271 0
M  V30 1211 H 109.514 -4.23677 -0.931693 0
M  V30 1212 H 110.185 -4.97655 -2.38838 0
M  V30 1213 H 112.661 -3.09105 -2.78556 0
M  V30 1214 H 111.537 -3.76688 -3.99246 0
M  V30 1215 H 111.798 -2.03107 -3.92683 0
M  V30 1216 N 110.857 0.726932 -1.39834 0
M  V30 1217 C 112.268 1.30558 -1.3346 0
M  V30 1218 C 112.619 1.962 -0.00273003 0
M  V30 1219 O 111.744 1.96826 0.899371 0
M  V30 1220 C 112.339 2.37404 -2.41713 0
M  V30 1221 C 110.898 2.90921 -2.38835 0
M  V30 1222 C 110.045 1.64578 -2.2318 0
M  V30 1223 H 112.996 0.523862 -1.49804 0
M  V30 1224 H 113.017 3.17984 -2.08966 0
M  V30 1225 H 112.529 1.89599 -3.38635 0
M  V30 1226 H 110.63 3.42985 -1.45575 0
M  V30 1227 H 110.743 3.43487 -3.33997 0
M  V30 1228 H 109.107 1.89219 -1.70494 0
M  V30 1229 H 109.89 1.18814 -3.22084 0
M  V30 1230 N 112.336 1.25143 0.95797 0
M  V30 1231 C 113.266 1.07711 2.07173 0
M  V30 1232 C 114.247 -0.0128462 1.70095 0
M  V30 1233 O 115.432 0.156061 1.93572 0
M  V30 1234 C 112.562 0.691503 3.40346 0
M  V30 1235 C 111.516 1.73132 3.9142 0
M  V30 1236 C 110.842 1.20049 5.21049 0
M  V30 1237 C 112.142 3.1294 4.1817 0
M  V30 1238 H 113.836 2.00873 2.22014 0
M  V30 1239 H 111.382 0.967191 1.06684 0
M  V30 1240 H 113.335 0.556505 4.17709 0
M  V30 1241 H 112.059 -0.275819 3.25433 0
M  V30 1242 H 110.718 1.8547 3.16222 0
M  V30 1243 H 110.366 0.223499 5.02503 0
M  V30 1244 H 110.066 1.89545 5.56189 0
M  V30 1245 H 111.59 1.07782 6.01012 0
M  V30 1246 H 113.004 3.03775 4.86203 0
M  V30 1247 H 111.401 3.79875 4.64559 0
M  V30 1248 H 112.471 3.6025 3.24573 0
M  V30 1249 N 113.814 -1.1601 1.06675 0
M  V30 1250 C 115.063 -1.85973 0.780818 0
M  V30 1251 C 115.376 -1.82819 -0.695444 0
M  V30 1252 O 116.582 -2.484 -1.09589 0
M  V30 1253 C 115.038 -3.33757 1.34665 0
M  V30 1254 C 114.646 -3.45374 2.85343 0
M  V30 1255 C 116.39 -4.0895 1.13843 0
M  V30 1256 C 114.297 -4.87266 3.35151 0
M  V30 1257 H 113.227 -0.696661 0.288407 0
M  V30 1258 H 115.878 -1.30903 1.28595 0
M  V30 1259 H 114.26 -3.88456 0.769274 0
M  V30 1260 H 115.434 -3.00816 3.49065 0
M  V30 1261 H 113.749 -2.83619 3.04876 0
M  V30 1262 H 116.346 -5.13654 1.4854 0
M  V30 1263 H 116.689 -4.16229 0.0770282 0
M  V30 1264 H 117.222 -3.605 1.68179 0
M  V30 1265 H 113.961 -4.85168 4.40786 0
M  V30 1266 H 113.481 -5.32433 2.76179 0
M  V30 1267 H 115.16 -5.56097 3.30704 0
M  V30 1268 N 115.292 -0.849877 -1.32721 0
M  V30 1269 C 116.708 -0.539102 -1.50219 0
M  V30 1270 C 116.908 0.931271 -1.78689 0
M  V30 1271 O 115.964 1.71455 -1.85363 0
M  V30 1272 C 117.277 -1.42196 -2.64954 0
M  V30 1273 C 118.825 -1.42189 -2.78839 0
M  V30 1274 C 119.3 -2.28985 -3.96648 0
M  V30 1275 N 120.791 -2.26754 -4.03902 0
M  V30 1276 C 121.526 -2.90644 -4.94281 0
M  V30 1277 N 121.022 -3.63629 -5.897 0
M  V30 1278 N 122.815 -2.80057 -4.87365 0
M  V30 1279 H 114.966 -1.80156 -1.12506 0
M  V30 1280 H 117.229 -0.769217 -0.554085 0
M  V30 1281 H 116.935 -2.46733 -2.50631 0
M  V30 1282 H 116.809 -1.10591 -3.60624 0
M  V30 1283 H 119.196 -0.38419 -2.92588 0
M  V30 1284 H 119.277 -1.77807 -1.83898 0
M  V30 1285 H 118.921 -3.32819 -3.83658 0
M  V30 1286 H 118.851 -1.90702 -4.90857 0
M  V30 1287 H 121.342 -1.73688 -3.3562 0
M  V30 1288 H 121.655 -4.09558 -6.55349 0
M  V30 1289 H 120 -3.67737 -5.89741 0
M  V30 1290 H 123.191 -2.22593 -4.11789 0
M  V30 1291 H 123.364 -3.30132 -5.57599 0
M  V30 1292 N 116.77 1.45427 -0.607355 0
M  V30 1293 C 118.186 1.57283 -0.270985 0
M  V30 1294 C 118.386 1.59875 1.22647 0
M  V30 1295 O 117.442 1.52893 2.00948 0
M  V30 1296 C 118.755 2.85566 -0.941952 0
M  V30 1297 C 120.303 2.9924 -0.917849 0
M  V30 1298 C 120.778 4.30293 -1.56882 0
M  V30 1299 N 122.269 4.37051 -1.5343 0
M  V30 1300 C 123.004 5.37123 -2.00715 0
M  V30 1301 N 122.5 6.43734 -2.56084 0
M  V30 1302 N 124.293 5.28479 -1.91484 0
M  V30 1303 H 116.444 1.41988 -1.57966 0
M  V30 1304 H 118.707 0.67885 -0.661715 0
M  V30 1305 H 118.413 2.8955 -1.99633 0
M  V30 1306 H 118.287 3.74322 -0.465096 0
M  V30 1307 H 120.674 2.94822 0.127984 0
M  V30 1308 H 120.755 2.11895 -1.43297 0
M  V30 1309 H 120.399 4.35469 -2.61398 0
M  V30 1310 H 120.329 5.16454 -1.02873 0
M  V30 1311 H 122.82 3.60615 -1.12982 0
M  V30 1312 H 123.133 7.16341 -2.89958 0
M  V30 1313 H 121.478 6.44485 -2.60122 0
M  V30 1314 H 124.669 4.44098 -1.47967 0
M  V30 1315 H 124.842 6.0632 -2.28648 0
M  V30 1316 N 118.248 0.346503 1.53744 0
M  V30 1317 C 119.211 -0.496439 2.23759 0
M  V30 1318 C 120.211 -1.0252 1.2388 0
M  V30 1319 O 121.401 -0.913974 1.48297 0
M  V30 1320 C 118.533 -1.69187 2.95954 0
M  V30 1321 H 119.726 0.115952 2.99676 0
M  V30 1322 H 117.279 0.0978939 1.55993 0
M  V30 1323 H 118.014 -2.34288 2.24231 0
M  V30 1324 H 117.799 -1.31989 3.69217 0
M  V30 1325 H 119.289 -2.28969 3.49232 0
M  V30 1326 N 119.726 -1.57421 0.075193 0
M  V30 1327 C 120.972 -1.94716 -0.587998 0
M  V30 1328 C 121.327 -0.955205 -1.67014 0
M  V30 1329 O 120.62 0.0219842 -1.91587 0
M  V30 1330 C 120.814 -3.36428 -1.20626 0
M  V30 1331 C 120.643 -4.49317 -0.185541 0
M  V30 1332 C 119.413 -5.04772 0.23099 0
M  V30 1333 C 121.611 -5.11036 0.57854 0
M  V30 1334 N 119.593 -6.01204 1.24206 0
M  V30 1335 C 120.964 -6.02998 1.44199 0
M  V30 1336 C 123.019 -4.93844 0.634237 0
M  V30 1337 C 121.722 -6.79614 2.3562 0
M  V30 1338 C 123.748 -5.71106 1.53597 0
M  V30 1339 C 123.11 -6.6272 2.38709 0
M  V30 1340 H 119.209 -0.759536 -0.186089 0
M  V30 1341 H 121.793 -1.94097 0.153128 0
M  V30 1342 H 119.964 -3.37778 -1.9173 0
M  V30 1343 H 121.696 -3.60951 -1.8302 0
M  V30 1344 H 118.451 -4.73353 -0.152807 0
M  V30 1345 H 118.875 -6.54119 1.74521 0
M  V30 1346 H 123.517 -4.22799 -0.00960004 0
M  V30 1347 H 121.235 -7.49934 3.01038 0
M  V30 1348 H 124.821 -5.59824 1.58394 0
M  V30 1349 H 123.701 -7.2146 3.07352 0
M  V30 1350 N 121.204 0.198386 -1.56346 0
M  V30 1351 C 122.114 1.2664 -1.97483 0
M  V30 1352 C 123.13 1.49989 -0.882002 0
M  V30 1353 O 124.306 1.62668 -1.18748 0
M  V30 1354 C 121.371 2.59141 -2.30319 0
M  V30 1355 C 120.432 2.43892 -3.53292 0
M  V30 1356 C 119.665 3.70074 -3.84553 0
M  V30 1357 O 119.888 4.74101 -3.1715 0
M  V30 1358 O 118.822 3.658 -4.7799 0
M  V30 1359 H 122.648 0.947304 -2.88548 0
M  V30 1360 H 120.233 0.403123 -1.43859 0
M  V30 1361 H 122.115 3.37352 -2.5253 0
M  V30 1362 H 120.79 2.90684 -1.42423 0
M  V30 1363 H 119.697 1.63803 -3.36332 0
M  V30 1364 H 121.03 2.17282 -4.41644 0
M  V30 1365 N 122.682 1.50554 0.465978 0
M  V30 1366 C 123.612 1.72722 1.57128 0
M  V30 1367 C 124.593 0.576294 1.6004 0
M  V30 1368 O 125.778 0.81598 1.76225 0
M  V30 1369 C 122.908 1.82605 2.95419 0
M  V30 1370 C 121.862 2.97835 3.07373 0
M  V30 1371 C 121.188 2.92867 4.47363 0
M  V30 1372 C 122.488 4.38265 2.84114 0
M  V30 1373 H 124.182 2.65267 1.38829 0
M  V30 1374 H 121.728 1.2765 0.666441 0
M  V30 1375 H 123.681 1.96698 3.72677 0
M  V30 1376 H 122.405 0.866858 3.14886 0
M  V30 1377 H 121.064 2.83401 2.3255 0
M  V30 1378 H 120.712 1.94783 4.63755 0
M  V30 1379 H 120.412 3.70227 4.56296 0
M  V30 1380 H 121.936 3.09015 5.26633 0
M  V30 1381 H 123.35 4.53198 3.51118 0
M  V30 1382 H 121.747 5.17115 3.04487 0
M  V30 1383 H 122.817 4.50281 1.7993 0
M  V30 1384 N 124.16 -0.719506 1.40217 0
M  V30 1385 C 125.408 -1.47641 1.3801 0
M  V30 1386 C 125.729 -1.94992 -0.018145 0
M  V30 1387 O 124.999 -1.70073 -0.972207 0
M  V30 1388 H 123.579 -0.547744 0.507923 0
M  V30 1389 H 126.241 -0.853187 1.75233 0
M  V30 1390 H 125.337 -2.35112 2.05253 0
M  V30 1391 N 125.638 -1.25649 -0.95132 0
M  V30 1392 C 126.568 -1.08808 -2.06599 0
M  V30 1393 C 127.549 0.00382547 -1.701 0
M  V30 1394 O 128.734 -0.166325 -1.93486 0
M  V30 1395 C 125.864 -0.709542 -3.39975 0
M  V30 1396 C 124.818 -1.75206 -3.90496 0
M  V30 1397 C 124.144 -1.22811 -5.20405 0
M  V30 1398 C 125.444 -3.15153 -4.16504 0
M  V30 1399 H 127.138 -2.02048 -2.20946 0
M  V30 1400 H 124.684 -0.972835 -1.06169 0
M  V30 1401 H 126.637 -0.578649 -4.17408 0
M  V30 1402 H 125.361 0.258556 -3.25575 0
M  V30 1403 H 124.02 -1.87145 -3.15234 0
M  V30 1404 H 123.668 -0.250145 -5.02378 0
M  V30 1405 H 123.368 -1.92492 -5.55176 0
M  V30 1406 H 124.892 -1.10968 -6.00432 0
M  V30 1407 H 126.306 -3.06349 -4.84586 0
M  V30 1408 H 124.703 -3.82333 -4.62538 0
M  V30 1409 H 125.773 -3.61966 -3.22658 0
M  V30 1410 N 127.117 1.15442 -1.07289 0
M  V30 1411 C 128.05 2.19135 -0.636798 0
M  V30 1412 C 129.028 1.58884 0.34562 0
M  V30 1413 O 130.212 1.86805 0.252195 0
M  V30 1414 C 127.339 3.38638 0.0650014 0
M  V30 1415 C 126.385 4.17412 -0.87576 0
M  V30 1416 S 127.218 4.79882 -2.37642 0
M  V30 1417 C 128.374 6.02753 -1.6864 0
M  V30 1418 H 128.607 2.55787 -1.51526 0
M  V30 1419 H 126.14 1.26394 -0.886793 0
M  V30 1420 H 128.098 4.07873 0.463664 0
M  V30 1421 H 126.759 3.00331 0.919801 0
M  V30 1422 H 125.952 5.02909 -0.33143 0
M  V30 1423 H 125.554 3.53722 -1.21478 0
M  V30 1424 H 127.846 6.70113 -0.997753 0
M  V30 1425 H 128.789 6.61754 -2.51967 0
M  V30 1426 H 129.197 5.52355 -1.16465 0
M  V30 1427 N 128.595 0.856903 1.32268 0
M  V30 1428 C 129.543 0.291987 2.3076 0
M  V30 1429 C 130.537 -0.585857 1.58947 0
M  V30 1430 O 131.743 -0.47341 1.73663 0
M  V30 1431 H 128.118 0.075721 0.748178 0
M  V30 1432 H 130.089 1.13687 2.75895 0
M  V30 1433 C 128.838 -0.502869 3.44044 0
M  V30 1434 H 128.161 0.163328 3.99466 0
M  V30 1435 H 129.601 -0.863691 4.1511 0
M  V30 1436 C 128.06 -1.68898 2.91505 0
M  V30 1437 O 128.59 -2.78811 2.89184 0
M  V30 1438 N 126.796 -1.51679 2.47875 0
M  V30 1439 H 126.343 -0.622666 2.49961 0
M  V30 1440 H 126.301 -2.31184 2.13076 0
M  V30 1441 N 130.073 -1.45103 0.615059 0
M  V30 1442 C 131.301 -2.06553 0.11977 0
M  V30 1443 C 131.716 -1.45842 -1.19898 0
M  V30 1444 O 131.073 -0.575325 -1.73194 0
M  V30 1445 C 131.124 -3.61495 -0.018364 0
M  V30 1446 O 130.845 -4.19942 1.24822 0
M  V30 1447 C 132.346 -4.39947 -0.544237 0
M  V30 1448 H 129.566 -0.667096 0.0722739 0
M  V30 1449 H 132.11 -1.8623 0.84491 0
M  V30 1450 H 130.265 -3.81135 -0.693865 0
M  V30 1451 H 130.679 -5.13204 1.0827 0
M  V30 1452 H 132.153 -5.48838 -0.589953 0
M  V30 1453 H 132.63 -4.10255 -1.56805 0
M  V30 1454 H 133.236 -4.25188 0.0974703 0
M  V30 1455 N 131.551 -0.354651 -1.53558 0
M  V30 1456 C 132.501 0.513179 -2.2215 0
M  V30 1457 C 133.485 1.05734 -1.21281 0
M  V30 1458 O 134.677 0.989202 -1.46778 0
M  V30 1459 C 131.806 1.65798 -3.00609 0
M  V30 1460 C 130.892 1.12722 -4.08845 0
M  V30 1461 N 131.283 0.318563 -5.04796 0
M  V30 1462 C 129.581 1.40307 -4.23356 0
M  V30 1463 C 130.282 0.0292224 -5.81693 0
M  V30 1464 N 129.258 0.623891 -5.40008 0
M  V30 1465 H 133.06 -0.111586 -2.93688 0
M  V30 1466 H 130.574 -0.162091 -1.61589 0
M  V30 1467 H 132.571 2.29176 -3.48258 0
M  V30 1468 H 131.231 2.28591 -2.306 0
M  V30 1469 H 132.242 -0.0413091 -5.17884 0
M  V30 1470 H 128.919 2.03458 -3.6457 0
M  V30 1471 H 130.309 -0.623808 -6.68998 0
M  V30 1472 N 133.029 1.57378 -0.0835403 0
M  V30 1473 C 134.278 1.93106 0.582498 0
M  V30 1474 C 134.591 0.96651 1.70053 0
M  V30 1475 O 135.797 1.21705 2.42693 0
M  V30 1476 C 134.253 3.43076 1.08751 0
M  V30 1477 C 133.861 4.48 -0.000146404 0
M  V30 1478 C 135.605 3.87785 1.72694 0
M  V30 1479 C 133.512 5.89113 0.519568 0
M  V30 1480 H 132.442 0.720775 0.221358 0
M  V30 1481 H 135.093 1.82821 -0.157675 0
M  V30 1482 H 133.475 3.48474 1.88101 0
M  V30 1483 H 134.649 4.54233 -0.775199 0
M  V30 1484 H 132.964 4.1283 -0.54406 0
M  V30 1485 H 135.561 4.90604 2.1263 0
M  V30 1486 H 135.904 3.25796 2.59158 0
M  V30 1487 H 136.437 3.8504 0.999457 0
M  V30 1488 H 133.176 6.54775 -0.308186 0
M  V30 1489 H 132.696 5.86376 1.26188 0
M  V30 1490 H 134.375 6.39346 0.992237 0
M  V30 1491 N 134.507 -0.190092 1.56449 0
M  V30 1492 C 135.918 -0.754312 1.70784 0
M  V30 1493 C 136.269 -1.83631 0.690951 0
M  V30 1494 O 135.394 -2.15868 -0.151604 0
M  V30 1495 C 135.989 -1.37503 3.09642 0
M  V30 1496 C 134.548 -1.88628 3.25725 0
M  V30 1497 C 133.695 -0.758098 2.66736 0
M  V30 1498 H 136.646 0.0350524 1.58661 0
M  V30 1499 H 136.667 -2.2445 3.0725 0
M  V30 1500 H 136.179 -0.587302 3.83631 0
M  V30 1501 H 134.28 -2.70103 2.56661 0
M  V30 1502 H 134.393 -2.04462 4.3328 0
M  V30 1503 H 132.757 -1.17369 2.26046 0
M  V30 1504 H 133.54 0.0174705 3.43296 0
M  V30 1505 N 135.985 -1.50799 -0.457987 0
M  V30 1506 C 136.895 -1.73426 -1.57989 0
M  V30 1507 C 137.911 -0.617745 -1.62665 0
M  V30 1508 O 139.087 -0.897614 -1.80291 0
M  V30 1509 C 136.152 -1.83557 -2.94122 0
M  V30 1510 C 135.213 -3.07345 -2.99729 0
M  V30 1511 C 134.446 -3.16983 -4.29368 0
M  V30 1512 O 134.669 -2.33077 -5.20607 0
M  V30 1513 O 133.603 -4.09812 -4.40837 0
M  V30 1514 H 137.429 -2.68555 -1.41817 0
M  V30 1515 H 135.014 -1.35052 -0.638859 0
M  V30 1516 H 136.896 -1.92326 -3.74952 0
M  V30 1517 H 135.571 -0.916137 -3.10465 0
M  V30 1518 H 134.478 -3.04068 -2.1793 0
M  V30 1519 H 135.811 -3.9891 -2.88326 0
M  V30 1520 N 137.463 0.71206 -1.40597 0
M  V30 1521 C 138.411 1.84746 -1.41321 0
M  V30 1522 C 139.405 1.66842 -0.293268 0
M  V30 1523 O 140.611 1.73904 -0.464481 0
M  V30 1524 H 136.986 0.608522 -0.441819 0
M  V30 1525 H 138.957 1.81252 -2.37045 0
M  V30 1526 C 137.706 3.22638 -1.29614 0
M  V30 1527 H 137.029 3.37023 -2.15071 0
M  V30 1528 H 138.469 4.02209 -1.3418 0
M  V30 1529 C 136.928 3.36899 -0.00673121 0
M  V30 1530 O 137.458 3.90186 0.954859 0
M  V30 1531 N 135.664 2.9053 0.0639327 0
M  V30 1532 H 135.211 2.47353 -0.719311 0
M  V30 1533 H 135.169 3.0045 0.926118 0
M  V30 1534 N 138.941 1.26152 0.944643 0
M  V30 1535 C 140.181 1.12708 1.70517 0
M  V30 1536 C 140.545 -0.324727 1.89234 0
M  V30 1537 O 141.746 -0.581211 2.62441 0
M  V30 1538 C 140.017 1.8713 3.04495 0
M  V30 1539 S 141.576 1.89698 3.95677 0
M  V30 1540 H 138.394 0.402665 0.585988 0
M  V30 1541 H 140.996 1.59821 1.12594 0
M  V30 1542 H 139.7 2.91833 2.88551 0
M  V30 1543 H 139.231 1.40444 3.67477 0
M  V30 1544 H 141.246 0.981198 4.86402 0
M  V30 1545 N 140.419 -1.14872 1.07899 0
M  V30 1546 C 141.667 -1.85422 0.803941 0
M  V30 1547 C 141.988 -1.83051 -0.67211 0
M  V30 1548 O 141.258 -1.27532 -1.48703 0
M  V30 1549 H 139.838 -0.686537 0.294408 0
M  V30 1550 H 142.5 -1.39226 1.3639 0
M  V30 1551 H 141.596 -2.90399 1.14346 0
M  V30 1552 N 141.898 -0.863906 -1.31812 0
M  V30 1553 C 143.146 -0.470904 -1.96537 0
M  V30 1554 C 143.467 0.978771 -1.68657 0
M  V30 1555 O 142.737 1.6853 -0.998717 0
M  V30 1556 H 141.317 -0.171148 -0.72713 0
M  V30 1557 H 143.979 -1.10236 -1.60729 0
M  V30 1558 H 143.075 -0.623616 -3.05806 0
M  V30 1559 N 143.376 1.44774 -0.622745 0
M  V30 1560 C 144.306 2.33382 0.0741861 0
M  V30 1561 C 145.287 1.47719 0.843387 0
M  V30 1562 O 146.472 1.76458 0.810934 0
M  V30 1563 C 143.602 3.30663 1.06204 0
M  V30 1564 C 142.556 4.26079 0.405037 0
M  V30 1565 C 141.882 5.13165 1.5022 0
M  V30 1566 C 143.182 5.1781 -0.683414 0
M  V30 1567 H 144.876 2.91905 -0.665713 0
M  V30 1568 H 142.422 1.40363 -0.321587 0
M  V30 1569 H 144.375 3.9153 1.55827 0
M  V30 1570 H 143.099 2.70331 1.83272 0
M  V30 1571 H 141.758 3.66532 -0.0704683 0
M  V30 1572 H 141.406 4.49191 2.26355 0
M  V30 1573 H 141.106 5.77812 1.06803 0
M  V30 1574 H 142.63 5.76902 2.00041 0
M  V30 1575 H 144.044 5.72661 -0.270631 0
M  V30 1576 H 142.441 5.91015 -1.04023 0
M  V30 1577 H 143.511 4.59326 -1.55395 0
M  V30 1578 N 144.854 0.36279 1.53368 0
M  V30 1579 C 146.102 -0.227326 2.00817 0
M  V30 1580 C 146.423 -1.49511 1.25186 0
M  V30 1581 O 145.693 -1.92482 0.364348 0
M  V30 1582 H 144.273 -0.0869923 0.741917 0
M  V30 1583 H 146.935 0.488381 1.88682 0
M  V30 1584 H 146.031 -0.456273 3.08747 0
M  V30 1585 N 146.332 -1.57332 0.0918853 0
M  V30 1586 C 147.262 -2.16872 -0.865371 0
M  V30 1587 C 148.243 -1.10118 -1.29646 0
M  V30 1588 O 149.428 -1.38242 -1.36392 0
M  V30 1589 C 146.558 -2.74649 -2.12569 0
M  V30 1590 C 145.512 -3.86747 -1.83333 0
M  V30 1591 C 144.838 -4.31212 -3.16166 0
M  V30 1592 C 146.138 -5.10089 -1.1228 0
M  V30 1593 H 147.832 -2.97114 -0.369307 0
M  V30 1594 H 145.378 -1.42918 -0.176194 0
M  V30 1595 H 147.331 -3.14952 -2.7997 0
M  V30 1596 H 146.055 -1.91657 -2.64452 0
M  V30 1597 H 144.714 -3.46978 -1.18331 0
M  V30 1598 H 144.362 -3.45115 -3.6593 0
M  V30 1599 H 144.062 -5.06788 -2.97388 0
M  V30 1600 H 145.586 -4.74146 -3.84731 0
M  V30 1601 H 147 -5.47582 -1.69785 0
M  V30 1602 H 145.397 -5.91073 -1.03693 0
M  V30 1603 H 146.467 -4.84786 -0.105041 0
M  V30 1604 N 147.81 0.181792 -1.56548 0
M  V30 1605 C 149.058 0.89832 -1.81038 0
M  V30 1606 C 149.379 1.83232 -0.667164 0
M  V30 1607 O 148.649 1.93372 0.313673 0
M  V30 1608 H 147.229 0.33471 -0.667816 0
M  V30 1609 H 149.891 0.184116 -1.94028 0
M  V30 1610 H 148.987 1.4815 -2.74696 0
M  V30 1611 N 149.288 1.51039 0.449983 0
M  V30 1612 C 150.516 1.66869 1.2232 0
M  V30 1613 C 150.931 0.360727 1.85322 0
M  V30 1614 O 150.288 -0.659531 1.70166 0
M  V30 1615 C 150.339 2.77524 2.31652 0
M  V30 1616 O 150.06 4.03252 1.7123 0
M  V30 1617 C 151.561 3.04512 3.2216 0
M  V30 1618 H 148.781 0.560326 0.369155 0
M  V30 1619 H 151.325 1.97385 0.534719 0
M  V30 1620 H 149.48 2.49642 2.96239 0
M  V30 1621 H 149.894 4.64609 2.43389 0
M  V30 1622 H 151.368 3.85551 3.95038 0
M  V30 1623 H 151.845 2.16415 3.8218 0
M  V30 1624 H 152.451 3.34005 2.63288 0
M  V30 1625 N 150.766 -0.704594 1.40972 0
M  V30 1626 C 152.013 -1.46458 1.39844 0
M  V30 1627 C 152.341 -1.94499 0.00447594 0
M  V30 1628 O 151.596 -1.69275 -0.982057 0
M  V30 1629 C 151.895 -2.698 2.34399 0
M  V30 1630 C 151.561 -2.40464 3.81429 0
M  V30 1631 C 150.223 -2.32174 4.21484 0
M  V30 1632 C 152.575 -2.16086 4.74296 0
M  V30 1633 C 149.903 -1.97589 5.52427 0
M  V30 1634 C 152.255 -1.83011 6.05549 0
M  V30 1635 C 150.919 -1.7321 6.44635 0
M  V30 1636 H 150.189 -0.535927 0.511725 0
M  V30 1637 H 152.836 -0.806124 1.73706 0
M  V30 1638 H 151.141 -3.40536 1.93759 0
M  V30 1639 H 152.838 -3.27919 2.30804 0
M  V30 1640 H 149.428 -2.47808 3.49699 0
M  V30 1641 H 153.612 -2.2144 4.4416 0
M  V30 1642 H 148.868 -1.88547 5.81601 0
M  V30 1643 H 153.042 -1.63164 6.77016 0
M  V30 1644 H 150.669 -1.46179 7.46013 0
M  V30 1645 N 152.244 -1.26651 -0.937939 0
M  V30 1646 C 153.521 -1.0313 -1.66204 0
M  V30 1647 C 153.901 0.437256 -2.06522 0
M  V30 1648 O 153.249 1.41831 -1.79154 0
M  V30 1649 C 153.459 -1.98314 -2.87181 0
M  V30 1650 C 154.807 -2.27107 -3.58758 0
M  V30 1651 O 155.831 -1.96205 -2.97291 0
M  V30 1652 O 154.69 -2.79736 -4.69479 0
M  V30 1653 H 151.784 -0.392384 -0.727986 0
M  V30 1654 H 154.33 -1.37874 -0.989382 0
M  V30 1655 H 153.102 -2.97399 -2.54302 0
M  V30 1656 H 152.725 -1.64068 -3.6217 0
M  V30 1657 N 153.722 1.14298 -1.08507 0
M  V30 1658 C 154.685 2.17607 -0.719711 0
M  V30 1659 C 155.685 1.58907 0.245997 0
M  V30 1660 O 156.875 1.74181 0.0254081 0
M  V30 1661 C 154.007 3.40842 -0.0627695 0
M  V30 1662 H 155.2 2.51443 -1.63452 0
M  V30 1663 H 152.753 1.28963 -0.88307 0
M  V30 1664 H 153.488 3.12587 0.863716 0
M  V30 1665 H 153.273 3.84713 -0.757504 0
M  V30 1666 H 154.763 4.17221 0.177786 0
M  V30 1667 N 155.201 0.870884 1.31352 0
M  V30 1668 C 156.441 0.488783 1.9847 0
M  V30 1669 C 156.805 -0.941536 1.67329 0
M  V30 1670 O 158.006 -1.42903 2.27667 0
M  V30 1671 C 156.277 0.739688 3.49662 0
M  V30 1672 S 157.836 0.457582 4.36408 0
M  V30 1673 H 154.654 0.18242 0.6872 0
M  V30 1674 H 157.256 1.12711 1.59739 0
M  V30 1675 H 155.96 1.77944 3.69816 0
M  V30 1676 H 155.491 0.0883905 3.93301 0
M  V30 1677 H 157.506 -0.709752 4.91098 0
M  V30 1678 N 156.679 -1.44442 0.630414 0
M  V30 1679 C 157.609 -2.33418 -0.0618083 0
M  V30 1680 C 158.59 -1.48165 -0.835541 0
M  V30 1681 O 159.775 -1.76886 -0.801564 0
M  V30 1682 C 156.905 -3.31222 -1.04449 0
M  V30 1683 C 155.859 -4.26288 -0.382436 0
M  V30 1684 C 155.185 -5.13954 -1.47497 0
M  V30 1685 C 156.485 -5.1744 0.710865 0
M  V30 1686 H 158.179 -2.91548 0.681184 0
M  V30 1687 H 155.725 -1.40191 0.329026 0
M  V30 1688 H 157.678 -3.92351 -1.53748 0
M  V30 1689 H 156.402 -2.71299 -1.81836 0
M  V30 1690 H 155.061 -3.6649 0.0899054 0
M  V30 1691 H 154.709 -4.50385 -2.2397 0
M  V30 1692 H 154.409 -5.7837 -1.03737 0
M  V30 1693 H 155.933 -5.77955 -1.96979 0
M  V30 1694 H 157.347 -5.72509 0.300996 0
M  V30 1695 H 155.744 -5.90455 1.07156 0
M  V30 1696 H 156.814 -4.58496 1.57829 0
M  V30 1697 N 158.157 -0.370918 -1.53173 0
M  V30 1698 C 159.406 0.218249 -2.00516 0
M  V30 1699 C 159.719 1.49429 -1.26215 0
M  V30 1700 O 160.925 2.16239 -1.64174 0
M  V30 1701 C 159.381 0.43948 -3.57207 0
M  V30 1702 C 158.989 -0.822244 -4.4039 0
M  V30 1703 C 160.733 0.986012 -4.1289 0
M  V30 1704 C 158.64 -0.570304 -5.88644 0
M  V30 1705 H 157.57 0.0853333 -0.749156 0
M  V30 1706 H 160.221 -0.490483 -1.76823 0
M  V30 1707 H 158.603 1.20961 -3.77074 0
M  V30 1708 H 159.777 -1.59557 -4.32294 0
M  V30 1709 H 158.092 -1.29238 -3.95836 0
M  V30 1710 H 160.689 1.18991 -5.21292 0
M  V30 1711 H 161.032 1.94972 -3.6782 0
M  V30 1712 H 161.565 0.27592 -3.96842 0
M  V30 1713 H 158.304 -1.50449 -6.38001 0
M  V30 1714 H 157.824 0.164427 -5.99575 0
M  V30 1715 H 159.503 -0.19784 -6.46697 0
M  V30 1716 N 159.635 1.57281 -0.100228 0
M  V30 1717 C 160.86 1.99302 0.573881 0
M  V30 1718 C 161.285 0.979059 1.60611 0
M  V30 1719 O 160.643 -0.0517803 1.81226 0
M  V30 1720 C 160.691 3.40274 1.19358 0
M  V30 1721 O 159.795 3.41676 2.30935 0
M  V30 1722 H 159.136 0.647944 0.145138 0
M  V30 1723 H 161.666 2.03779 -0.183156 0
M  V30 1724 H 161.676 3.78078 1.53365 0
M  V30 1725 H 160.351 4.13594 0.437385 0
M  V30 1726 H 158.928 3.15672 1.98509 0
M  V30 1727 N 161.113 -0.173488 1.56642 0
M  V30 1728 C 162.023 -1.23482 1.99473 0
M  V30 1729 C 163.039 -1.48567 0.905752 0
M  V30 1730 O 164.215 -1.60758 1.21321 0
M  V30 1731 C 161.28 -2.55444 2.34413 0
M  V30 1732 C 160.341 -2.38241 3.57127 0
M  V30 1733 C 159.574 -3.63909 3.90392 0
M  V30 1734 O 159.797 -4.68996 3.24653 0
M  V30 1735 O 158.731 -3.58149 4.83749 0
M  V30 1736 H 162.557 -0.901279 2.90018 0
M  V30 1737 H 160.142 -0.380185 1.44482 0
M  V30 1738 H 162.024 -3.33292 2.57865 0
M  V30 1739 H 160.699 -2.88382 1.4703 0
M  V30 1740 H 159.606 -1.58431 3.38896 0
M  V30 1741 H 160.939 -2.10228 4.45045 0
M  V30 1742 N 162.591 -1.51276 -0.441967 0
M  V30 1743 C 163.501 -1.75092 -1.56141 0
M  V30 1744 C 164.517 -0.634963 -1.62001 0
M  V30 1745 O 165.693 -0.916686 -1.79329 0
M  V30 1746 C 162.758 -1.86666 -2.92158 0
M  V30 1747 C 161.819 -3.10506 -2.96453 0
M  V30 1748 C 161.052 -3.21519 -4.25982 0
M  V30 1749 O 161.275 -2.38586 -5.18105 0
M  V30 1750 O 160.209 -4.14465 -4.36466 0
M  V30 1751 H 164.035 -2.70044 -1.38961 0
M  V30 1752 H 161.62 -1.35722 -0.624499 0
M  V30 1753 H 163.502 -1.96292 -3.72891 0
M  V30 1754 H 162.177 -0.949014 -3.09476 0
M  V30 1755 H 161.084 -3.06363 -2.14692 0
M  V30 1756 H 162.417 -4.01945 -2.84079 0
M  V30 1757 N 164.069 0.697108 -1.41344 0
M  V30 1758 C 164.999 1.82353 -1.45841 0
M  V30 1759 C 165.98 1.67115 -0.317247 0
M  V30 1760 O 167.165 1.86871 -0.528474 0
M  V30 1761 C 164.295 3.20476 -1.33838 0
M  V30 1762 C 163.249 3.50415 -2.4575 0
M  V30 1763 C 162.575 4.87878 -2.18813 0
M  V30 1764 C 163.875 3.49546 -3.88091 0
M  V30 1765 H 165.569 1.78846 -2.40113 0
M  V30 1766 H 163.115 0.859028 -1.15571 0
M  V30 1767 H 165.068 3.98988 -1.35596 0
M  V30 1768 H 163.792 3.24604 -0.360498 0
M  V30 1769 H 162.451 2.74253 -2.43271 0
M  V30 1770 H 162.099 4.8863 -1.19371 0
M  V30 1771 H 161.799 5.08875 -2.93803 0
M  V30 1772 H 163.323 5.68702 -2.22284 0
M  V30 1773 H 164.737 4.18066 -3.92293 0
M  V30 1774 H 163.134 3.82075 -4.62751 0
M  V30 1775 H 164.204 2.48552 -4.16353 0
M  V30 1776 N 165.547 1.27147 0.931209 0
M  V30 1777 C 166.51 1.09615 2.01289 0
M  V30 1778 C 167.51 0.0412581 1.60747 0
M  V30 1779 O 168.7 0.285545 1.71844 0
M  V30 1780 C 165.832 0.669447 3.34262 0
M  V30 1781 H 167.025 2.05662 2.18273 0
M  V30 1782 H 164.578 1.09885 1.11153 0
M  V30 1783 H 165.313 -0.292572 3.22978 0
M  V30 1784 H 165.098 1.43127 3.65044 0
M  V30 1785 H 166.588 0.568921 4.13706 0
M  V30 1786 N 167.025 -1.13721 1.09112 0
M  V30 1787 C 168.255 -1.88499 0.845671 0
M  V30 1788 C 168.663 -1.79218 -0.606432 0
M  V30 1789 O 168.006 -1.1544 -1.42896 0
M  V30 1790 C 168.068 -3.38954 1.19793 0
M  V30 1791 C 167.732 -3.72018 2.65428 0
M  V30 1792 C 168.729 -3.7153 3.63677 0
M  V30 1793 C 166.414 -4.01775 3.01467 0
M  V30 1794 C 168.408 -4.00336 4.95994 0
M  V30 1795 C 166.095 -4.30243 4.33975 0
M  V30 1796 C 167.093 -4.29508 5.31048 0
M  V30 1797 O 166.781 -4.5728 6.61173 0
M  V30 1798 H 166.513 -0.603702 0.304171 0
M  V30 1799 H 169.067 -1.44903 1.45576 0
M  V30 1800 H 167.297 -3.83039 0.530871 0
M  V30 1801 H 168.986 -3.95052 0.932146 0
M  V30 1802 H 169.752 -3.4862 3.37179 0
M  V30 1803 H 165.631 -4.01496 2.26544 0
M  V30 1804 H 169.175 -3.99678 5.71755 0
M  V30 1805 H 165.072 -4.52625 4.60219 0
M  V30 1806 H 165.84 -4.74964 6.66597 0
M  V30 1807 N 168.503 -0.877838 -1.30888 0
M  V30 1808 C 169.751 -0.491723 -1.96027 0
M  V30 1809 C 170.072 0.960827 -1.69685 0
M  V30 1810 O 169.342 1.67462 -1.01654 0
M  V30 1811 H 167.922 -0.17885 -0.725273 0
M  V30 1812 H 170.584 -1.11935 -1.59551 0
M  V30 1813 H 169.68 -0.656016 -3.05128 0
M  V30 1814 N 169.982 1.44106 -0.638065 0
M  V30 1815 C 171.222 2.03858 -0.148733 0
M  V30 1816 C 171.586 1.49153 1.20903 0
M  V30 1817 O 172.787 2.00452 1.79088 0
M  V30 1818 C 171.058 3.57117 -0.142314 0
M  V30 1819 S 172.617 4.37897 0.281385 0
M  V30 1820 H 169.435 0.708069 -0.0644912 0
M  V30 1821 H 172.037 1.7639 -0.843009 0
M  V30 1822 H 170.741 3.94436 -1.13349 0
M  V30 1823 H 170.272 3.89205 0.572988 0
M  V30 1824 H 172.287 4.72218 1.52395 0
M  V30 1825 N 171.46 0.379036 1.52974 0
M  V30 1826 C 172.688 -0.20679 2.05864 0
M  V30 1827 C 173.103 -1.41356 1.25155 0
M  V30 1828 O 172.46 -1.8009 0.295588 0
M  V30 1829 C 172.511 -0.587045 3.56702 0
M  V30 1830 O 172.232 0.571776 4.34353 0
M  V30 1831 C 173.733 -1.22983 4.25899 0
M  V30 1832 H 170.953 -0.0336123 0.670158 0
M  V30 1833 H 173.497 0.541298 1.97206 0
M  V30 1834 H 171.652 -1.28504 3.65466 0
M  V30 1835 H 172.066 0.261544 5.23847 0
M  V30 1836 H 173.54 -1.44635 5.32715 0
M  V30 1837 H 174.017 -2.19416 3.80465 0
M  V30 1838 H 174.623 -0.572892 4.21424 0
M  V30 1839 N 172.938 -1.57226 0.108567 0
M  V30 1840 C 174.186 -1.94448 -0.550853 0
M  V30 1841 C 174.507 -0.992074 -1.67878 0
M  V30 1842 O 173.777 -0.0465 -1.95845 0
M  V30 1843 H 172.357 -0.717897 -0.206479 0
M  V30 1844 H 175.019 -1.94112 0.175062 0
M  V30 1845 H 174.115 -2.97218 -0.952259 0
M  V30 1846 N 174.416 0.165178 -1.56732 0
M  V30 1847 C 175.662 0.882112 -1.82611 0
M  V30 1848 C 175.995 1.81628 -0.687378 0
M  V30 1849 O 175.27 1.92009 0.310267 0
M  V30 1850 C 175.553 1.67245 -3.18906 0
M  V30 1851 C 175.406 0.760987 -4.43316 0
M  V30 1852 C 176.725 2.63884 -3.52212 0
M  V30 1853 H 173.844 0.319242 -0.664269 0
M  V30 1854 H 176.486 0.148052 -1.89422 0
M  V30 1855 H 174.636 2.29824 -3.1323 0
M  V30 1856 H 176.308 0.147596 -4.61064 0
M  V30 1857 H 174.551 0.0694102 -4.33744 0
M  V30 1858 H 175.222 1.34962 -5.35247 0
M  V30 1859 H 177.698 2.11429 -3.58381 0
M  V30 1860 H 176.574 3.16245 -4.48643 0
M  V30 1861 H 176.835 3.44377 -2.77231 0
M  V30 1862 N 175.894 1.51508 0.433938 0
M  V30 1863 C 176.826 1.69266 1.54537 0
M  V30 1864 C 177.839 0.573276 1.52373 0
M  V30 1865 O 179.028 0.847698 1.57087 0
M  V30 1866 C 176.128 1.69524 2.93453 0
M  V30 1867 C 175.301 2.98101 3.20085 0
M  V30 1868 C 174.36 2.90502 4.38742 0
M  V30 1869 O 173.386 3.64442 4.3723 0
M  V30 1870 N 174.588 2.06586 5.42496 0
M  V30 1871 H 177.353 2.65145 1.39708 0
M  V30 1872 H 174.914 1.49437 0.622922 0
M  V30 1873 H 176.906 1.62004 3.70859 0
M  V30 1874 H 175.476 0.812245 3.01863 0
M  V30 1875 H 174.696 3.19464 2.30947 0
M  V30 1876 H 175.984 3.83207 3.34708 0
M  V30 1877 H 175.382 1.45896 5.46563 0
M  V30 1878 H 173.939 2.04943 6.18742 0
M  V30 1879 N 177.372 -0.689602 1.41712 0
M  V30 1880 C 178.6 -1.47827 1.44758 0
M  V30 1881 C 179.015 -1.88721 0.0545703 0
M  V30 1882 O 178.372 -1.57176 -0.927463 0
M  V30 1883 C 178.423 -2.73698 2.3616 0
M  V30 1884 O 178.144 -2.34524 3.7004 0
M  V30 1885 C 179.645 -3.67389 2.48072 0
M  V30 1886 H 176.865 -0.455357 0.49284 0
M  V30 1887 H 179.409 -0.848574 1.86063 0
M  V30 1888 H 177.564 -3.32891 1.98148 0
M  V30 1889 H 177.978 -3.15701 4.18847 0
M  V30 1890 H 179.452 -4.52475 3.16181 0
M  V30 1891 H 179.929 -4.12284 1.51388 0
M  V30 1892 H 180.535 -3.14097 2.86746 0
M  V30 1893 N 178.85 -1.27639 -0.924453 0
M  V30 1894 C 179.813 -1.10681 -2.00705 0
M  V30 1895 C 180.813 -0.0497823 -1.60723 0
M  V30 1896 O 182.003 -0.294654 -1.7169 0
M  V30 1897 C 179.135 -0.687164 -3.33902 0
M  V30 1898 H 180.328 -2.06817 -2.17179 0
M  V30 1899 H 177.881 -1.10473 -1.10569 0
M  V30 1900 H 178.616 0.275439 -3.23128 0
M  V30 1901 H 178.401 -1.45061 -3.6428 0
M  V30 1902 H 179.891 -0.590853 -4.13399 0
M  V30 1903 N 180.328 1.1314 -1.09713 0
M  V30 1904 C 181.577 1.83838 -0.829851 0
M  V30 1905 C 181.89 1.84599 0.646728 0
M  V30 1906 O 183.096 2.51218 1.02965 0
M  V30 1907 C 181.552 3.30069 -1.43466 0
M  V30 1908 C 181.16 3.37688 -2.94399 0
M  V30 1909 C 182.904 4.05788 -1.24645 0
M  V30 1910 C 180.811 4.78209 -3.47952 0
M  V30 1911 H 179.741 0.68877 -0.306777 0
M  V30 1912 H 182.392 1.27448 -1.3202 0
M  V30 1913 H 180.774 3.8628 -0.871996 0
M  V30 1914 H 181.948 2.91456 -3.56918 0
M  V30 1915 H 180.263 2.75436 -3.12289 0
M  V30 1916 H 182.86 5.09535 -1.62107 0
M  V30 1917 H 183.203 4.15878 -0.187357 0
M  V30 1918 H 183.736 3.55915 -1.77678 0
M  V30 1919 H 180.475 4.73311 -4.53495 0
M  V30 1920 H 179.995 5.24924 -2.90198 0
M  V30 1921 H 181.674 5.47133 -3.45332 0
M  V30 1922 N 181.806 0.884767 1.30421 0
M  V30 1923 C 182.716 0.355398 2.31892 0
M  V30 1924 C 183.732 -0.542261 1.65335 0
M  V30 1925 O 184.908 -0.435432 1.96637 0
M  V30 1926 C 181.973 -0.421661 3.44126 0
M  V30 1927 C 181.034 0.505727 4.26311 0
M  V30 1928 C 180.267 -0.234343 5.33185 0
M  V30 1929 O 180.49 -1.46045 5.51386 0
M  V30 1930 O 179.424 0.415443 6.00465 0
M  V30 1931 H 183.25 1.19685 2.79122 0
M  V30 1932 H 180.835 0.648596 1.34587 0
M  V30 1933 H 182.717 -0.861641 4.12497 0
M  V30 1934 H 181.392 -1.23942 2.99032 0
M  V30 1935 H 180.299 0.994513 3.60639 0
M  V30 1936 H 181.632 1.28948 4.75009 0
M  V30 1937 N 183.284 -1.43765 0.645699 0
M  V30 1938 C 184.532 -2.01499 0.155731 0
M  V30 1939 C 184.853 -1.51151 -1.232 0
M  V30 1940 O 184.123 -0.721044 -1.82148 0
M  V30 1941 H 182.703 -0.745003 0.0545817 0
M  V30 1942 H 185.365 -1.76075 0.835677 0
M  V30 1943 H 184.461 -3.1181 0.134577 0
M  V30 1944 N 184.763 -0.387143 -1.52771 0
M  V30 1945 C 185.711 0.463953 -2.27926 0
M  V30 1946 C 186.705 1.06493 -1.31741 0
M  V30 1947 O 187.911 1.00565 -1.49287 0
M  V30 1948 H 184.286 0.16837 -0.732909 0
M  V30 1949 H 186.257 -0.19141 -2.97785 0
M  V30 1950 C 185.006 1.5803 -3.09713 0
M  V30 1951 H 184.329 1.12718 -3.83581 0
M  V30 1952 H 185.769 2.15008 -3.65442 0
M  V30 1953 C 184.228 2.53509 -2.2189 0
M  V30 1954 O 184.758 3.56863 -1.84422 0
M  V30 1955 N 182.964 2.23199 -1.86093 0
M  V30 1956 H 182.511 1.39185 -2.16761 0
M  V30 1957 H 182.469 2.87333 -1.27621 0
M  V30 1958 N 186.241 1.57166 -0.116904 0
M  V30 1959 C 187.466 1.999 0.55271 0
M  V30 1960 C 187.891 0.996039 1.59564 0
M  V30 1961 O 187.249 -0.032556 1.81271 0
M  V30 1962 C 187.297 3.4152 1.15742 0
M  V30 1963 O 186.401 3.44106 2.27299 0
M  V30 1964 H 185.742 0.649447 0.138258 0
M  V30 1965 H 188.272 2.03573 -0.204759 0
M  V30 1966 H 188.282 3.79684 1.49346 0
M  V30 1967 H 186.957 4.14034 0.393493 0
M  V30 1968 H 185.534 3.17759 1.9515 0
M  V30 1969 N 187.719 -0.156864 1.56817 0
M  V30 1970 C 188.649 -1.19589 2.00551 0
M  V30 1971 C 189.63 -1.4536 0.883426 0
M  V30 1972 O 190.815 -1.56449 1.15054 0
M  V30 1973 C 187.945 -2.53143 2.37773 0
M  V30 1974 C 186.899 -2.41913 3.53075 0
M  V30 1975 C 186.225 -3.80088 3.76081 0
M  V30 1976 C 187.525 -1.91157 4.86062 0
M  V30 1977 H 189.219 -0.832293 2.87599 0
M  V30 1978 H 186.765 -0.398918 1.38364 0
M  V30 1979 H 188.718 -3.26047 2.66967 0
M  V30 1980 H 187.442 -2.91319 1.4765 0
M  V30 1981 H 186.101 -1.71462 3.24031 0
M  V30 1982 H 185.749 -4.15683 2.83225 0
M  V30 1983 H 185.449 -3.73439 4.53671 0
M  V30 1984 H 186.973 -4.54556 4.0769 0
M  V30 1985 H 188.387 -2.53846 5.14038 0
M  V30 1986 H 186.784 -1.95422 5.67389 0
M  V30 1987 H 187.854 -0.866673 4.77092 0
M  V30 1988 N 189.197 -1.51736 -0.425897 0
M  V30 1989 C 190.445 -1.64644 -1.17204 0
M  V30 1990 C 190.766 -0.370486 -1.91448 0
M  V30 1991 O 190.036 0.614088 -1.86026 0
M  V30 1992 H 188.616 -0.606819 -0.435638 0
M  V30 1993 H 191.278 -1.88713 -0.487177 0
M  V30 1994 H 190.374 -2.47958 -1.89534 0
M  V30 1995 N 190.675 0.682077 -1.42076 0
M  V30 1996 C 191.607 1.80755 -1.40926 0
M  V30 1997 C 192.62 1.59833 -0.309398 0
M  V30 1998 O 193.809 1.69087 -0.572014 0
M  V30 1999 C 190.909 3.17744 -1.17865 0
M  V30 2000 C 190.082 3.65578 -2.40149 0
M  V30 2001 C 189.141 4.81277 -2.12742 0
M  V30 2002 O 188.167 4.92197 -2.85887 0
M  V30 2003 N 189.369 5.69474 -1.12602 0
M  V30 2004 H 192.134 1.82229 -2.37935 0
M  V30 2005 H 189.695 0.864903 -1.36861 0
M  V30 2006 H 191.687 3.9279 -0.9746 0
M  V30 2007 H 190.257 3.11214 -0.294068 0
M  V30 2008 H 189.477 2.81291 -2.76169 0
M  V30 2009 H 190.765 3.94278 -3.21593 0
M  V30 2010 H 190.163 5.63297 -0.520899 0
M  V30 2011 H 188.72 6.44363 -0.981842 0
M  V30 2012 N 192.153 1.28127 0.917671 0
M  V30 2013 C 193.086 1.06039 2.02067 0
M  V30 2014 C 194.064 -0.0223285 1.62585 0
M  V30 2015 O 195.248 0.124823 1.88086 0
M  V30 2016 C 192.375 0.610596 3.33151 0
M  V30 2017 C 191.421 1.68937 3.91615 0
M  V30 2018 S 192.254 3.28437 4.22953 0
M  V30 2019 C 193.41 2.85283 5.57103 0
M  V30 2020 H 193.643 1.99425 2.20493 0
M  V30 2021 H 191.176 1.12071 1.06205 0
M  V30 2022 H 193.134 0.357778 4.08938 0
M  V30 2023 H 191.795 -0.303364 3.12632 0
M  V30 2024 H 190.988 1.32619 4.86239 0
M  V30 2025 H 190.59 1.89478 3.2245 0
M  V30 2026 H 192.882 2.3121 6.36827 0
M  V30 2027 H 193.825 3.7869 5.98331 0
M  V30 2028 H 194.233 2.24118 5.18104 0
M  V30 2029 N 193.631 -1.12557 1.10312 0
M  V30 2030 C 195.042 -1.65574 0.862678 0
M  V30 2031 C 195.393 -1.86566 -0.607256 0
M  V30 2032 O 194.518 -1.59121 -1.46662 0
M  V30 2033 C 195.113 -3.00776 1.55947 0
M  V30 2034 C 193.672 -3.50748 1.36576 0
M  V30 2035 C 192.819 -2.25797 1.60968 0
M  V30 2036 H 195.77 -0.963552 1.26101 0
M  V30 2037 H 195.791 -3.67185 0.997753 0
M  V30 2038 H 195.303 -2.85465 2.62928 0
M  V30 2039 H 193.404 -3.71245 0.317531 0
M  V30 2040 H 193.517 -4.30289 2.10686 0
M  V30 2041 H 191.881 -2.32841 1.03234 0
M  V30 2042 H 192.664 -2.13043 2.69198 0
M  V30 2043 N 195.109 -0.891671 -1.2995 0
M  V30 2044 C 196.358 -0.509521 -1.95158 0
M  V30 2045 C 196.671 0.947388 -1.71125 0
M  V30 2046 O 197.877 1.43669 -2.30372 0
M  V30 2047 C 196.333 -0.860315 -3.49466 0
M  V30 2048 C 195.941 -2.33545 -3.8231 0
M  V30 2049 C 197.685 -0.547687 -4.20952 0
M  V30 2050 C 195.592 -2.62752 -5.29826 0
M  V30 2051 H 194.522 -0.18682 -0.730489 0
M  V30 2052 H 197.173 -1.08756 -1.47798 0
M  V30 2053 H 195.555 -0.211285 -3.95436 0
M  V30 2054 H 196.729 -3.02936 -3.47227 0
M  V30 2055 H 195.044 -2.61629 -3.23944 0
M  V30 2056 H 197.641 -0.742854 -5.29515 0
M  V30 2057 H 197.984 0.51332 -4.13123 0
M  V30 2058 H 198.517 -1.1542 -3.80688 0
M  V30 2059 H 195.256 -3.6762 -5.42712 0
M  V30 2060 H 194.776 -1.97977 -5.66185 0
M  V30 2061 H 196.455 -2.48601 -5.97333 0
M  V30 2062 N 196.587 1.43421 -0.653314 0
M  V30 2063 C 197.836 2.01032 -0.164076 0
M  V30 2064 C 198.149 1.52147 1.22926 0
M  V30 2065 O 199.355 2.02031 1.81371 0
M  V30 2066 C 197.811 3.59082 -0.24252 0
M  V30 2067 C 197.419 4.1696 -1.63855 0
M  V30 2068 C 199.163 4.24079 0.18911 0
M  V30 2069 C 197.07 5.67304 -1.67092 0
M  V30 2070 H 196 0.751798 -0.0575769 0
M  V30 2071 H 198.651 1.6439 -0.815362 0
M  V30 2072 H 197.033 3.93125 0.476276 0
M  V30 2073 H 198.207 3.94416 -2.38271 0
M  V30 2074 H 196.522 3.64335 -2.01616 0
M  V30 2075 H 199.119 5.34381 0.184775 0
M  V30 2076 H 199.462 3.98005 1.22056 0
M  V30 2077 H 199.995 3.94918 -0.477938 0
M  V30 2078 H 196.734 5.98145 -2.68146 0
M  V30 2079 H 196.254 5.91904 -0.970014 0
M  V30 2080 H 197.933 6.31344 -1.4147 0
M  V30 2081 N 198.065 0.39524 1.52563 0
M  V30 2082 C 199.314 -0.186321 2.00838 0
M  V30 2083 C 199.627 -1.47402 1.28577 0
M  V30 2084 O 200.833 -2.13599 1.67593 0
M  V30 2085 C 199.289 -0.382595 3.57861 0
M  V30 2086 C 198.897 0.892202 4.39026 0
M  V30 2087 C 200.641 -0.9202 4.14406 0
M  V30 2088 C 198.548 0.66388 5.87662 0
M  V30 2089 H 197.478 -0.0734041 0.750418 0
M  V30 2090 H 200.129 0.518552 1.76021 0
M  V30 2091 H 198.511 -1.14946 3.7895 0
M  V30 2092 H 199.685 1.66414 4.29701 0
M  V30 2093 H 198 1.35519 3.9373 0
M  V30 2094 H 200.597 -1.10683 5.23119 0
M  V30 2095 H 200.94 -1.89096 3.70875 0
M  V30 2096 H 201.473 -0.212751 3.97231 0
M  V30 2097 H 198.212 1.6058 6.35527 0
M  V30 2098 H 197.732 -0.0690193 5.9976 0
M  V30 2099 H 199.411 0.300699 6.46301 0
M  V30 2100 N 199.544 -1.57102 0.125237 0
M  V30 2101 C 200.507 -2.14471 -0.80838 0
M  V30 2102 C 201.507 -1.0811 -1.19033 0
M  V30 2103 O 202.697 -1.33856 -1.11482 0
M  V30 2104 C 199.829 -2.69005 -2.09402 0
M  V30 2105 H 201.022 -2.98297 -0.309696 0
M  V30 2106 H 198.575 -1.55807 -0.124051 0
M  V30 2107 H 199.31 -1.88785 -2.63687 0
M  V30 2108 H 199.095 -3.46799 -1.82957 0
M  V30 2109 H 200.585 -3.13278 -2.76128 0
M  V30 2110 N 201.022 0.148545 -1.56898 0
M  V30 2111 C 202.27 0.859717 -1.82902 0
M  V30 2112 C 202.591 1.81775 -0.70588 0
M  V30 2113 O 201.861 1.93994 0.272586 0
M  V30 2114 H 200.441 0.320469 -0.674766 0
M  V30 2115 H 203.103 0.142918 -1.94375 0
M  V30 2116 H 202.199 1.4229 -2.77777 0
M  V30 2117 N 202.5 1.5196 0.417844 0
M  V30 2118 C 203.448 1.75278 1.52907 0
M  V30 2119 C 204.442 0.619611 1.57662 0
M  V30 2120 O 205.648 0.801457 1.61173 0
M  V30 2121 H 202.023 0.554141 0.508362 0
M  V30 2122 H 203.994 2.68389 1.30422 0
M  V30 2123 C 202.743 1.91262 2.90369 0
M  V30 2124 H 202.066 2.77872 2.8745 0
M  V30 2125 H 203.506 2.11581 3.67436 0
M  V30 2126 C 201.965 0.677431 3.30019 0
M  V30 2127 O 202.495 -0.158799 4.01386 0
M  V30 2128 N 200.701 0.515851 2.85985 0
M  V30 2129 H 200.248 1.19744 2.28077 0
M  V30 2130 H 200.206 -0.309315 3.12875 0
M  V30 2131 N 203.978 -0.674533 1.42435 0
M  V30 2132 C 205.255 -1.4305 1.33402 0
M  V30 2133 C 205.635 -2.11081 -0.0284674 0
M  V30 2134 O 204.983 -2.03257 -1.04397 0
M  V30 2135 C 205.193 -2.43272 2.50239 0
M  V30 2136 C 206.541 -3.07907 2.92367 0
M  V30 2137 O 207.565 -2.53599 2.50132 0
M  V30 2138 O 206.424 -4.0632 3.65467 0
M  V30 2139 H 203.518 -0.638076 0.526106 0
M  V30 2140 H 206.064 -0.703235 1.54443 0
M  V30 2141 H 204.836 -1.91803 3.41068 0
M  V30 2142 H 204.459 -3.23479 2.31186 0
M  V30 2143 N 205.456 -1.28612 -0.910864 0
M  V30 2144 C 206.388 -1.08589 -2.01844 0
M  V30 2145 C 207.401 -0.0367419 -1.62759 0
M  V30 2146 O 208.59 -0.280101 -1.76289 0
M  V30 2147 C 205.69 -0.628626 -3.33019 0
M  V30 2148 C 204.863 -1.75382 -4.00699 0
M  V30 2149 C 203.922 -1.28945 -5.10156 0
M  V30 2150 O 202.948 -1.9922 -5.33198 0
M  V30 2151 N 204.15 -0.154224 -5.80295 0
M  V30 2152 H 206.915 -2.03973 -2.19579 0
M  V30 2153 H 204.476 -1.20403 -1.08234 0
M  V30 2154 H 206.468 -0.301508 -4.03575 0
M  V30 2155 H 205.038 0.232451 -3.11735 0
M  V30 2156 H 204.258 -2.25039 -3.23653 0
M  V30 2157 H 205.546 -2.50854 -4.42662 0
M  V30 2158 H 204.944 0.43194 -5.64049 0
M  V30 2159 H 203.501 0.113599 -6.51701 0
M  V30 2160 N 206.934 1.1197 -1.10907 0
M  V30 2161 C 207.866 2.17592 -0.720175 0
M  V30 2162 C 208.879 1.60938 0.245495 0
M  V30 2163 O 210.068 1.78476 0.0292245 0
M  V30 2164 C 207.168 3.38873 -0.0427917 0
M  V30 2165 C 206.341 4.25006 -1.03388 0
M  V30 2166 C 205.4 5.24774 -0.387075 0
M  V30 2167 O 204.426 5.59631 -1.03934 0
M  V30 2168 N 205.628 5.74208 0.852407 0
M  V30 2169 H 208.393 2.51567 -1.62893 0
M  V30 2170 H 205.954 1.27439 -0.998543 0
M  V30 2171 H 207.946 4.02703 0.401501 0
M  V30 2172 H 206.516 3.03007 0.768456 0
M  V30 2173 H 205.736 3.57716 -1.65629 0
M  V30 2174 H 207.024 4.79397 -1.70458 0
M  V30 2175 H 206.422 5.48062 1.40161 0
M  V30 2176 H 204.979 6.39901 1.23977 0
M  V30 2177 N 208.412 0.89855 1.29475 0
M  V30 2178 C 209.359 0.373819 2.27753 0
M  V30 2179 C 210.329 -0.543444 1.56958 0
M  V30 2180 O 211.514 -0.468934 1.84948 0
M  V30 2181 C 208.654 -0.393648 3.42848 0
M  V30 2182 C 207.767 0.554379 4.28428 0
M  V30 2183 C 206.902 -0.230026 5.30702 0
M  V30 2184 C 205.941 0.712599 6.07938 0
M  V30 2185 N 205.078 -0.0373283 7.0209 0
M  V30 2186 H 209.918 1.21699 2.72017 0
M  V30 2187 H 207.455 0.611456 1.33789 0
M  V30 2188 H 209.413 -0.85466 4.08352 0
M  V30 2189 H 208.043 -1.20128 2.99615 0
M  V30 2190 H 207.095 1.13391 3.63107 0
M  V30 2191 H 208.407 1.27597 4.82204 0
M  V30 2192 H 207.561 -0.752288 6.02018 0
M  V30 2193 H 206.3 -0.984758 4.77654 0
M  V30 2194 H 205.305 1.24637 5.35486 0
M  V30 2195 H 206.53 1.46664 6.63074 0
M  V30 2196 H 204.476 -0.774348 6.51414 0
M  V30 2197 H 204.393 0.624374 7.53417 0
M  V30 2198 H 205.661 -0.539891 7.77628 0
M  V30 2199 N 209.89 -1.43072 0.660911 0
M  V30 2200 C 210.837 -2.30785 -0.0259884 0
M  V30 2201 C 211.807 -1.45184 -0.806888 0
M  V30 2202 O 212.992 -1.74041 -0.781943 0
M  V30 2203 C 210.132 -3.30861 -0.981067 0
M  V30 2204 C 209.245 -4.31558 -0.195458 0
M  V30 2205 C 208.38 -5.18712 -1.14503 0
M  V30 2206 C 207.419 -6.11097 -0.350299 0
M  V30 2207 N 206.556 -6.90849 -1.25186 0
M  V30 2208 H 211.396 -2.88975 0.727846 0
M  V30 2209 H 208.933 -1.42353 0.370682 0
M  V30 2210 H 210.891 -3.87399 -1.54849 0
M  V30 2211 H 209.521 -2.74304 -1.70169 0
M  V30 2212 H 208.573 -3.77252 0.488374 0
M  V30 2213 H 209.885 -4.9701 0.422176 0
M  V30 2214 H 209.039 -5.79914 -1.78284 0
M  V30 2215 H 207.778 -4.53404 -1.79656 0
M  V30 2216 H 206.783 -5.48976 0.300808 0
M  V30 2217 H 208.008 -6.7845 0.296941 0
M  V30 2218 H 205.954 -6.28182 -1.89005 0
M  V30 2219 H 205.871 -7.52854 -0.688971 0
M  V30 2220 H 207.139 -7.5655 -1.87757 0
M  V30 2221 N 211.368 -0.403325 -1.52352 0
M  V30 2222 C 212.315 0.425011 -2.26853 0
M  V30 2223 C 213.285 1.04598 -1.29029 0
M  V30 2224 O 214.47 1.07135 -1.57882 0
M  V30 2225 C 211.61 1.53888 -3.08889 0
M  V30 2226 C 210.723 0.939396 -4.21663 0
M  V30 2227 C 209.858 2.02547 -4.91068 0
M  V30 2228 C 208.897 1.40263 -5.95813 0
M  V30 2229 N 208.034 2.4286 -6.58759 0
M  V30 2230 H 212.874 -0.21674 -2.97211 0
M  V30 2231 H 210.411 -0.118722 -1.4662 0
M  V30 2232 H 212.369 2.19558 -3.54753 0
M  V30 2233 H 210.999 2.15074 -2.40714 0
M  V30 2234 H 210.051 0.171898 -3.80011 0
M  V30 2235 H 211.363 0.44436 -4.96817 0
M  V30 2236 H 210.517 2.75958 -5.40308 0
M  V30 2237 H 209.256 2.55415 -4.15469 0
M  V30 2238 H 208.261 0.653833 -5.45898 0
M  V30 2239 H 209.486 0.881719 -6.73352 0
M  V30 2240 H 207.432 2.94871 -5.85992 0
M  V30 2241 H 207.349 1.98152 -7.2957 0
M  V30 2242 H 208.617 3.15858 -7.12639 0
M  V30 2243 N 212.846 1.57033 -0.133567 0
M  V30 2244 C 214.076 1.99754 0.527429 0
M  V30 2245 C 214.484 1.01245 1.59832 0
M  V30 2246 O 213.827 -0.000645496 1.837 0
M  V30 2247 C 213.889 3.38903 1.19939 0
M  V30 2248 C 213.553 4.56174 0.274709 0
M  V30 2249 C 214.55 5.17563 -0.492398 0
M  V30 2250 C 212.235 5.01972 0.18153 0
M  V30 2251 C 214.229 6.2315 -1.34027 0
M  V30 2252 C 211.916 6.07416 -0.669958 0
M  V30 2253 C 212.914 6.67874 -1.42947 0
M  V30 2254 O 212.602 7.71279 -2.2668 0
M  V30 2255 H 212.334 0.660702 0.142999 0
M  V30 2256 H 214.888 2.04207 -0.221099 0
M  V30 2257 H 213.118 3.31248 1.99528 0
M  V30 2258 H 214.807 3.65818 1.75875 0
M  V30 2259 H 215.573 4.83087 -0.430367 0
M  V30 2260 H 211.452 4.54652 0.762422 0
M  V30 2261 H 214.996 6.70268 -1.93357 0
M  V30 2262 H 210.893 6.41321 -0.73333 0
M  V30 2263 H 211.661 7.88441 -2.1978 0
M  V30 2264 N 214.325 -0.140222 1.56975 0
M  V30 2265 C 215.255 -1.17456 2.01808 0
M  V30 2266 C 216.236 -1.44415 0.898794 0
M  V30 2267 O 217.421 -1.5522 1.16707 0
M  V30 2268 C 214.551 -2.50607 2.40444 0
M  V30 2269 C 213.505 -2.38155 3.55621 0
M  V30 2270 C 212.831 -3.76078 3.80091 0
M  V30 2271 C 214.131 -1.85991 4.88062 0
M  V30 2272 H 215.825 -0.801743 2.88466 0
M  V30 2273 H 213.371 -0.38422 1.38779 0
M  V30 2274 H 215.324 -3.23197 2.7041 0
M  V30 2275 H 214.048 -2.89737 1.50732 0
M  V30 2276 H 212.707 -1.68016 3.25832 0
M  V30 2277 H 212.355 -4.12656 2.87618 0
M  V30 2278 H 212.055 -3.68606 4.57606 0
M  V30 2279 H 213.579 -4.50206 4.12488 0
M  V30 2280 H 214.993 -2.4838 5.16701 0
M  V30 2281 H 213.39 -1.89393 5.6943 0
M  V30 2282 H 214.46 -0.816023 4.77984 0
M  V30 2283 N 215.803 -1.52179 -0.40978 0
M  V30 2284 C 217.051 -1.65878 -1.15451 0
M  V30 2285 C 217.372 -0.390771 -1.91044 0
M  V30 2286 O 216.642 0.594323 -1.86667 0
M  V30 2287 H 215.222 -0.611405 -0.429177 0
M  V30 2288 H 217.884 -1.89219 -0.467134 0
M  V30 2289 H 216.98 -2.49954 -1.86894 0
M  V30 2290 N 217.281 0.66697 -1.42791 0
M  V30 2291 C 218.697 0.981027 -1.25889 0
M  V30 2292 C 218.897 2.00793 -0.168695 0
M  V30 2293 O 217.953 2.48321 0.45747 0
M  V30 2294 C 219.266 1.47838 -2.61848 0
M  V30 2295 C 220.814 1.59575 -2.69267 0
M  V30 2296 C 221.289 2.12704 -4.05612 0
M  V30 2297 N 222.78 2.20026 -4.07606 0
M  V30 2298 C 223.515 2.62227 -5.09926 0
M  V30 2299 N 223.011 3.03824 -6.22626 0
M  V30 2300 N 224.804 2.62045 -4.97281 0
M  V30 2301 H 216.955 -0.0127891 -2.12396 0
M  V30 2302 H 219.218 0.0568258 -0.946295 0
M  V30 2303 H 218.924 0.798299 -3.4252 0
M  V30 2304 H 218.798 2.45579 -2.86305 0
M  V30 2305 H 221.185 2.26687 -1.88936 0
M  V30 2306 H 221.266 0.60302 -2.48591 0
M  V30 2307 H 220.91 1.46198 -4.86404 0
M  V30 2308 H 220.84 3.12782 -4.23645 0
M  V30 2309 H 223.331 1.90708 -3.2625 0
M  V30 2310 H 223.644 3.34734 -6.96544 0
M  V30 2311 H 221.989 3.01662 -6.26119 0
M  V30 2312 H 225.18 2.28916 -4.08308 0
M  V30 2313 H 225.353 2.94613 -5.77154 0
M  V30 2314 N 218.759 1.29093 0.90403 0
M  V30 2315 C 219.692 1.08176 2.00931 0
M  V30 2316 C 220.67 -0.005083 1.62599 0
M  V30 2317 O 221.854 0.144765 1.87943 0
M  V30 2318 C 218.981 0.645897 3.32484 0
M  V30 2319 C 218.027 1.73081 3.89801 0
M  V30 2320 S 218.86 3.32905 4.19446 0
M  V30 2321 C 220.016 2.91176 5.54046 0
M  V30 2322 H 220.249 2.01752 2.18365 0
M  V30 2323 H 217.782 1.13191 1.0501 0
M  V30 2324 H 219.74 0.401131 4.08535 0
M  V30 2325 H 218.401 -0.270188 3.12936 0
M  V30 2326 H 217.594 1.37768 4.84805 0
M  V30 2327 H 217.196 1.92888 3.20422 0
M  V30 2328 H 219.488 2.37952 6.34338 0
M  V30 2329 H 220.431 3.85014 5.94281 0
M  V30 2330 H 220.839 2.296 5.15698 0
M  V30 2331 N 220.237 -1.11381 1.11499 0
M  V30 2332 C 221.465 -1.86934 0.88675 0
M  V30 2333 C 221.88 -1.80195 -0.563476 0
M  V30 2334 O 221.237 -1.18367 -1.38908 0
M  V30 2335 C 221.288 -3.35722 1.34064 0
M  V30 2336 O 221.009 -3.4232 2.73401 0
M  V30 2337 C 222.51 -4.2818 1.14791 0
M  V30 2338 H 219.73 -0.591117 0.317523 0
M  V30 2339 H 222.274 -1.40865 1.48248 0
M  V30 2340 H 220.429 -3.79294 0.788355 0
M  V30 2341 H 220.843 -4.34971 2.93087 0
M  V30 2342 H 222.317 -5.30817 1.5145 0
M  V30 2343 H 222.794 -4.39113 0.0875279 0
M  V30 2344 H 223.4 -3.90402 1.68721 0
M  V30 2345 N 221.715 -0.905404 -1.28997 0
M  V30 2346 C 222.625 -0.392246 -2.31298 0
M  V30 2347 C 223.641 0.515889 -1.66176 0
M  V30 2348 O 224.817 0.404093 -1.97304 0
M  V30 2349 C 221.882 0.36686 -3.44754 0
M  V30 2350 C 220.943 -0.573485 -4.25452 0
M  V30 2351 C 220.176 0.149488 -5.33491 0
M  V30 2352 O 220.399 1.37255 -5.5364 0
M  V30 2353 O 219.333 -0.510919 -5.99728 0
M  V30 2354 H 223.159 -1.2411 -2.77183 0
M  V30 2355 H 220.744 -0.669926 -1.33538 0
M  V30 2356 H 222.626 0.795907 -4.13816 0
M  V30 2357 H 221.301 1.19169 -3.00966 0
M  V30 2358 H 220.208 -1.05176 -3.59011 0
M  V30 2359 H 221.541 -1.36489 -4.72897 0
M  V30 2360 N 223.193 1.4272 -0.668489 0
M  V30 2361 C 224.103 2.34596 0.0139753 0
M  V30 2362 C 225.119 1.5474 0.795703 0
M  V30 2363 O 226.295 1.87334 0.739466 0
M  V30 2364 C 223.36 3.33202 0.957982 0
M  V30 2365 C 222.421 4.28957 0.17149 0
M  V30 2366 C 221.654 5.22853 1.07053 0
M  V30 2367 O 221.877 5.21531 2.31001 0
M  V30 2368 O 220.811 5.9952 0.534727 0
M  V30 2369 H 224.637 2.9448 -0.742661 0
M  V30 2370 H 222.222 1.43117 -0.428705 0
M  V30 2371 H 224.104 3.93796 1.50008 0
M  V30 2372 H 222.779 2.758 1.69458 0
M  V30 2373 H 221.686 3.71796 -0.414558 0
M  V30 2374 H 223.019 4.89383 -0.52586 0
M  V30 2375 N 224.671 0.411399 1.52136 0
M  V30 2376 C 226.082 -0.0576826 1.86611 0
M  V30 2377 C 226.433 -1.44238 1.33003 0
M  V30 2378 O 225.558 -2.05759 0.670228 0
M  V30 2379 C 226.153 -0.111448 3.38617 0
M  V30 2380 C 224.712 -0.52487 3.72723 0
M  V30 2381 C 223.859 0.299176 2.75681 0
M  V30 2382 H 226.81 0.628368 1.4573 0
M  V30 2383 H 226.831 -0.926252 3.69054 0
M  V30 2384 H 226.343 0.896488 3.77604 0
M  V30 2385 H 224.444 -1.53936 3.39315 0
M  V30 2386 H 224.557 -0.267681 4.78352 0
M  V30 2387 H 222.921 -0.238814 2.53578 0
M  V30 2388 H 223.704 1.3055 3.17508 0
M  V30 2389 N 226.149 -1.5696 0.141893 0
M  V30 2390 C 227.079 -2.19516 -0.795936 0
M  V30 2391 C 228.06 -1.14187 -1.26077 0
M  V30 2392 O 229.245 -1.42511 -1.31925 0
M  V30 2393 C 226.375 -2.81272 -2.03723 0
M  V30 2394 C 225.329 -3.92384 -1.70936 0
M  V30 2395 C 224.655 -4.41052 -3.02287 0
M  V30 2396 C 225.955 -5.13403 -0.959954 0
M  V30 2397 H 227.649 -2.98138 -0.274596 0
M  V30 2398 H 225.195 -1.43406 -0.130636 0
M  V30 2399 H 227.148 -3.237 -2.69808 0
M  V30 2400 H 225.872 -1.99973 -2.58221 0
M  V30 2401 H 224.531 -3.50566 -1.07232 0
M  V30 2402 H 224.179 -3.56582 -3.54765 0
M  V30 2403 H 223.879 -5.15993 -2.81114 0
M  V30 2404 H 225.403 -4.86146 -3.69451 0
M  V30 2405 H 226.817 -5.52706 -1.52279 0
M  V30 2406 H 225.214 -5.94073 -0.848357 0
M  V30 2407 H 226.284 -4.84875 0.0492434 0
M  V30 2408 N 227.627 0.131896 -1.57047 0
M  V30 2409 C 228.56 1.19236 -1.94571 0
M  V30 2410 C 229.538 1.40782 -0.813576 0
M  V30 2411 O 230.722 1.55148 -1.07058 0
M  V30 2412 C 227.849 2.54858 -2.23081 0
M  V30 2413 C 226.895 2.49817 -3.45679 0
M  V30 2414 S 227.728 1.95036 -4.98719 0
M  V30 2415 C 228.884 3.32357 -5.30367 0
M  V30 2416 H 229.117 0.872297 -2.84215 0
M  V30 2417 H 226.65 0.338134 -1.50652 0
M  V30 2418 H 228.608 3.32898 -2.40185 0
M  V30 2419 H 227.269 2.84047 -1.34074 0
M  V30 2420 H 226.462 3.49688 -3.62952 0
M  V30 2421 H 226.064 1.79892 -3.27895 0
M  V30 2422 H 228.356 4.28525 -5.2476 0
M  V30 2423 H 229.299 3.19923 -6.31708 0
M  V30 2424 H 229.707 3.3019 -4.57859 0
M  V30 2425 N 229.106 1.52395 0.401703 0
M  V30 2426 C 230.346 1.68498 1.15705 0
M  V30 2427 C 230.71 0.409748 1.87577 0
M  V30 2428 O 231.911 0.446983 2.65058 0
M  V30 2429 C 230.182 2.87789 2.11924 0
M  V30 2430 S 231.741 3.24415 2.95466 0
M  V30 2431 H 228.559 0.593267 0.391862 0
M  V30 2432 H 231.161 1.90408 0.443282 0
M  V30 2433 H 229.865 3.7884 1.57824 0
M  V30 2434 H 229.396 2.68175 2.87829 0
M  V30 2435 H 231.411 2.73614 4.13944 0
M  V30 2436 N 230.584 -0.659388 1.43143 0
M  V30 2437 C 231.547 -1.75432 1.47501 0
M  V30 2438 C 232.547 -1.56707 0.360512 0
M  V30 2439 O 233.737 -1.62717 0.622002 0
M  V30 2440 C 230.869 -3.14239 1.32162 0
M  V30 2441 H 232.062 -1.7295 2.45006 0
M  V30 2442 H 229.615 -0.870469 1.29817 0
M  V30 2443 H 230.35 -3.22336 0.356401 0
M  V30 2444 H 230.135 -3.29235 2.12948 0
M  V30 2445 H 231.625 -3.94094 1.3813 0
M  V30 2446 N 232.062 -1.29571 -0.897171 0
M  V30 2447 C 233.292 -1.20408 -1.67886 0
M  V30 2448 C 233.7 0.237429 -1.87704 0
M  V30 2449 O 233.043 1.17048 -1.41582 0
M  V30 2450 C 233.105 -1.84887 -3.08314 0
M  V30 2451 C 232.769 -3.34189 -3.11716 0
M  V30 2452 C 233.766 -4.30374 -2.91675 0
M  V30 2453 C 231.451 -3.75431 -3.33701 0
M  V30 2454 C 233.445 -5.65776 -2.93557 0
M  V30 2455 C 231.132 -5.10955 -3.35214 0
M  V30 2456 C 232.13 -6.05938 -3.15164 0
M  V30 2457 O 231.818 -7.38987 -3.1647 0
M  V30 2458 H 231.55 -0.418289 -0.531046 0
M  V30 2459 H 234.104 -1.71514 -1.13014 0
M  V30 2460 H 232.334 -1.28295 -3.64798 0
M  V30 2461 H 234.023 -1.70011 -3.6858 0
M  V30 2462 H 234.789 -3.99844 -2.74499 0
M  V30 2463 H 230.668 -3.01953 -3.48347 0
M  V30 2464 H 234.212 -6.39889 -2.77826 0
M  V30 2465 H 230.109 -5.4113 -3.51922 0
M  V30 2466 H 230.877 -7.47823 -3.3272 0
M  V30 2467 N 233.54 1.10788 -1.12088 0
M  V30 2468 C 234.78 1.84297 -0.883974 0
M  V30 2469 C 235.144 1.83036 0.579797 0
M  V30 2470 O 236.345 2.52061 0.933734 0
M  V30 2471 C 234.616 3.27173 -1.43849 0
M  V30 2472 S 236.175 4.17853 -1.33957 0
M  V30 2473 H 232.993 0.635433 -0.318977 0
M  V30 2474 H 235.595 1.33341 -1.4297 0
M  V30 2475 H 234.299 3.25658 -2.49749 0
M  V30 2476 H 233.83 3.83198 -0.890096 0
M  V30 2477 H 235.845 4.95239 -0.308603 0
M  V30 2478 N 235.018 0.912232 1.28515 0
M  V30 2479 C 236.264 0.545405 1.95328 0
M  V30 2480 C 236.597 -0.908313 1.71649 0
M  V30 2481 O 235.872 -1.64575 1.03659 0
M  V30 2482 C 236.155 0.853483 3.4984 0
M  V30 2483 C 236.008 2.35982 3.82926 0
M  V30 2484 C 237.327 0.348589 4.38717 0
M  V30 2485 H 234.446 0.199626 0.709449 0
M  V30 2486 H 237.088 1.1412 1.5191 0
M  V30 2487 H 235.238 0.34643 3.86952 0
M  V30 2488 H 236.91 2.93738 3.55691 0
M  V30 2489 H 235.153 2.81543 3.30024 0
M  V30 2490 H 235.824 2.52593 4.90816 0
M  V30 2491 H 238.3 0.78294 4.08668 0
M  V30 2492 H 237.176 0.593242 5.45685 0
M  V30 2493 H 237.437 -0.751049 4.35674 0
M  V30 2494 N 236.496 -1.42363 0.676048 0
M  V30 2495 C 237.724 -2.05859 0.207268 0
M  V30 2496 C 238.139 -1.50796 -1.13605 0
M  V30 2497 O 237.496 -0.648265 -1.70598 0
M  V30 2498 C 237.547 -3.61248 0.134975 0
M  V30 2499 O 237.268 -4.1427 1.42521 0
M  V30 2500 C 238.769 -4.41859 -0.357151 0
M  V30 2501 H 235.989 -0.663431 0.100503 0
M  V30 2502 H 238.533 -1.82479 0.923136 0
M  V30 2503 H 236.688 -3.83735 -0.531588 0
M  V30 2504 H 237.102 -5.0815 1.29939 0
M  V30 2505 H 238.576 -5.50847 -0.356641 0
M  V30 2506 H 239.053 -4.16536 -1.39264 0
M  V30 2507 H 239.659 -4.24392 0.27772 0
M  V30 2508 N 237.974 -0.419461 -1.51915 0
M  V30 2509 C 238.884 0.407528 -2.31033 0
M  V30 2510 C 239.9 1.04413 -1.3919 0
M  V30 2511 O 241.076 1.0434 -1.72265 0
M  V30 2512 C 238.141 1.50365 -3.12396 0
M  V30 2513 C 237.202 0.889029 -4.19994 0
M  V30 2514 C 236.435 1.93291 -4.97468 0
M  V30 2515 O 236.658 3.15259 -4.75361 0
M  V30 2516 O 235.592 1.53339 -5.8204 0
M  V30 2517 H 239.418 -0.237865 -3.02767 0
M  V30 2518 H 237.003 -0.182413 -1.48282 0
M  V30 2519 H 238.885 2.13975 -3.63032 0
M  V30 2520 H 237.56 2.13345 -2.43445 0
M  V30 2521 H 236.467 0.215353 -3.7348 0
M  V30 2522 H 237.8 0.302991 -4.91267 0
M  V30 2523 N 239.452 1.56882 -0.150215 0
M  V30 2524 C 240.863 1.82995 0.370076 0
M  V30 2525 C 241.214 1.06907 1.64515 0
M  V30 2526 O 240.339 0.315369 2.1409 0
M  V30 2527 C 240.934 3.31942 0.678208 0
M  V30 2528 C 239.493 3.58625 1.14301 0
M  V30 2529 C 238.64 2.76792 0.167778 0
M  V30 2530 H 241.591 1.54209 -0.374858 0
M  V30 2531 H 241.612 3.48272 1.53254 0
M  V30 2532 H 241.124 3.87294 -0.249991 0
M  V30 2533 H 239.225 3.08664 2.08704 0
M  V30 2534 H 239.338 4.67073 1.06676 0
M  V30 2535 H 237.702 2.45972 0.661037 0
M  V30 2536 H 238.485 3.34916 -0.754069 0
M  V30 2537 N 240.93 -0.123565 1.57115 0
M  V30 2538 C 242.178 -0.83051 1.84247 0
M  V30 2539 C 242.499 -1.80629 0.73471 0
M  V30 2540 O 241.769 -1.94403 -0.241688 0
M  V30 2541 H 240.349 -0.309694 0.679778 0
M  V30 2542 H 243.011 -0.111976 1.94578 0
M  V30 2543 H 242.107 -1.37852 2.80006 0
M  V30 2544 N 242.408 -1.52605 -0.393616 0
M  V30 2545 C 243.371 -1.76415 -1.46323 0
M  V30 2546 C 244.371 -0.634126 -1.47768 0
M  V30 2547 O 245.561 -0.902142 -1.4902 0
M  V30 2548 C 242.693 -1.8607 -2.85641 0
M  V30 2549 H 243.886 -2.71916 -1.26498 0
M  V30 2550 H 241.439 -1.43257 -0.625073 0
M  V30 2551 H 242.174 -0.925378 -3.10817 0
M  V30 2552 H 241.959 -2.68235 -2.85993 0
M  V30 2553 H 243.449 -2.06179 -3.63153 0
M  V30 2554 N 243.887 0.651787 -1.4349 0
M  V30 2555 C 245.135 1.40888 -1.44897 0
M  V30 2556 C 245.456 1.94856 -0.0749086 0
M  V30 2557 O 244.726 1.74518 0.889956 0
M  V30 2558 H 243.306 0.522887 -0.533478 0
M  V30 2559 H 245.968 0.768609 -1.79104 0
M  V30 2560 H 245.064 2.25052 -2.16236 0
M  V30 2561 N 245.365 1.30045 0.890287 0
M  V30 2562 C 246.59 1.21598 1.68014 0
M  V30 2563 C 247.015 -0.218678 1.86825 0
M  V30 2564 O 246.373 -1.15756 1.39536 0
M  V30 2565 C 246.421 1.94434 3.03691 0
M  V30 2566 O 245.525 1.2678 3.92429 0
M  V30 2567 H 244.866 0.420856 0.513592 0
M  V30 2568 H 247.396 1.71775 1.11151 0
M  V30 2569 H 247.406 2.03251 3.5377 0
M  V30 2570 H 246.081 2.98777 2.89318 0
M  V30 2571 H 244.658 1.26282 3.50866 0
M  V30 2572 N 246.843 -1.10192 1.12674 0
M  V30 2573 C 248.12 -1.78717 0.794965 0
M  V30 2574 C 248.5 -1.98628 -0.714853 0
M  V30 2575 O 247.848 -1.58135 -1.64941 0
M  V30 2576 C 248.058 -3.11546 1.5729 0
M  V30 2577 C 249.406 -3.86382 1.76052 0
M  V30 2578 O 250.43 -3.21274 1.53823 0
M  V30 2579 O 249.289 -5.03246 2.13087 0
M  V30 2580 H 246.383 -0.774702 0.289423 0
M  V30 2581 H 248.929 -1.16819 1.23091 0
M  V30 2582 H 247.701 -2.92489 2.59935 0
M  V30 2583 H 247.324 -3.81164 1.13137 0
M  V30 2584 N 248.321 -0.919034 -1.28029 0
M  V30 2585 C 249.567 -0.555757 -1.95036 0
M  V30 2586 C 249.9 0.899198 -1.72128 0
M  V30 2587 O 249.175 1.64023 -1.04531 0
M  V30 2588 C 249.458 -0.872024 -3.49382 0
M  V30 2589 C 249.311 -2.3801 -3.81669 0
M  V30 2590 C 250.63 -0.37185 -4.38526 0
M  V30 2591 H 247.749 -0.203386 -0.708381 0
M  V30 2592 H 250.391 -1.14924 -1.51303 0
M  V30 2593 H 248.541 -0.366946 -3.86763 0
M  V30 2594 H 250.213 -2.9562 -3.54128 0
M  V30 2595 H 248.456 -2.83289 -3.28526 0
M  V30 2596 H 249.127 -2.55192 -4.8947 0
M  V30 2597 H 251.603 -0.804602 -4.08247 0
M  V30 2598 H 250.479 -0.622173 -5.45362 0
M  V30 2599 H 250.74 0.727934 -4.36066 0
M  V30 2600 N 249.799 1.42003 -0.683588 0
M  V30 2601 C 250.762 2.29191 -0.0198243 0
M  V30 2602 C 251.762 1.43773 0.72013 0
M  V30 2603 O 252.952 1.65061 0.556815 0
M  V30 2604 C 250.084 3.26435 0.982487 0
M  V30 2605 H 251.277 2.8938 -0.787345 0
M  V30 2606 H 248.83 1.49789 -0.446418 0
M  V30 2607 H 249.565 2.71203 1.77819 0
M  V30 2608 H 249.35 3.89449 0.455182 0
M  V30 2609 H 250.84 3.918 1.44508 0
M  V30 2610 N 251.277 0.427512 1.51691 0
M  V30 2611 C 252.525 -0.141948 2.01601 0
M  V30 2612 C 252.846 -1.44067 1.31414 0
M  V30 2613 O 252.116 -1.90763 0.445658 0
M  V30 2614 H 250.696 -0.0554468 0.744939 0
M  V30 2615 H 253.358 0.567968 1.86441 0
M  V30 2616 H 252.454 -0.324913 3.10404 0
M  V30 2617 N 252.755 -1.56801 0.158532 0
M  V30 2618 C 254.004 -1.95665 -0.489702 0
M  V30 2619 C 254.317 -1.04654 -1.65248 0
M  V30 2620 O 255.523 -1.33146 -2.3661 0
M  V30 2621 C 253.979 -3.47874 -0.922582 0
M  V30 2622 C 253.587 -4.47489 0.213893 0
M  V30 2623 C 255.331 -3.95583 -1.53996 0
M  V30 2624 C 253.238 -5.90921 -0.237903 0
M  V30 2625 H 252.168 -0.730516 -0.186716 0
M  V30 2626 H 254.819 -1.81861 0.244722 0
M  V30 2627 H 253.201 -3.57051 -1.71261 0
M  V30 2628 H 254.375 -4.50017 0.991036 0
M  V30 2629 H 252.69 -4.09764 0.740407 0
M  V30 2630 H 255.287 -5.0019 -1.8898 0
M  V30 2631 H 255.63 -3.37789 -2.43319 0
M  V30 2632 H 256.163 -3.8937 -0.814611 0
M  V30 2633 H 252.902 -6.52559 0.620236 0
M  V30 2634 H 252.422 -5.91729 -0.980676 0
M  V30 2635 H 254.101 -6.43352 -0.686067 0
M  V30 2636 N 254.233 0.115231 -1.57178 0
M  V30 2637 C 255.18 1.14115 -2.00615 0
M  V30 2638 C 256.15 1.40939 -0.878941 0
M  V30 2639 O 257.335 1.52741 -1.14345 0
M  V30 2640 C 254.475 2.46156 -2.4187 0
M  V30 2641 C 253.588 2.26236 -3.68024 0
M  V30 2642 C 252.723 3.51534 -3.98243 0
M  V30 2643 C 251.762 3.26787 -5.17568 0
M  V30 2644 N 250.899 4.44298 -5.43639 0
M  V30 2645 H 255.739 0.763743 -2.88047 0
M  V30 2646 H 253.276 0.365615 -1.42484 0
M  V30 2647 H 255.234 3.23189 -2.63827 0
M  V30 2648 H 253.864 2.81783 -1.57475 0
M  V30 2649 H 252.916 1.40102 -3.5366 0
M  V30 2650 H 254.228 2.03929 -4.55208 0
M  V30 2651 H 253.382 4.36984 -4.20868 0
M  V30 2652 H 252.121 3.76876 -3.09541 0
M  V30 2653 H 251.126 2.39729 -4.94783 0
M  V30 2654 H 252.351 3.02812 -6.0785 0
M  V30 2655 H 250.297 4.69754 -4.57895 0
M  V30 2656 H 250.214 4.25109 -6.25154 0
M  V30 2657 H 251.482 5.3087 -5.70786 0
M  V30 2658 N 255.711 1.52812 0.385517 0
M  V30 2659 C 256.939 1.71907 1.15133 0
M  V30 2660 C 257.354 0.439004 1.83625 0
M  V30 2661 O 256.711 -0.586765 1.7281 0
M  V30 2662 C 256.762 2.87099 2.19673 0
M  V30 2663 O 256.483 4.10151 1.53973 0
M  V30 2664 C 257.984 3.17902 3.08955 0
M  V30 2665 H 255.204 0.575479 0.345057 0
M  V30 2666 H 257.748 1.99476 0.45052 0
M  V30 2667 H 255.903 2.61982 2.85384 0
M  V30 2668 H 256.317 4.74514 2.23465 0
M  V30 2669 H 257.791 4.01959 3.7833 0
M  V30 2670 H 258.268 2.3243 3.72657 0
M  V30 2671 H 258.874 3.44871 2.48885 0
M  V30 2672 N 257.189 -0.644168 1.43834 0
M  V30 2673 C 258.136 -1.75671 1.49694 0
M  V30 2674 C 259.106 -1.6246 0.345809 0
M  V30 2675 O 260.291 -1.82573 0.554234 0
M  V30 2676 C 257.431 -3.13867 1.43463 0
M  V30 2677 C 256.544 -3.38147 2.6885 0
M  V30 2678 C 255.679 -4.66241 2.54544 0
M  V30 2679 C 254.718 -4.83657 3.75157 0
M  V30 2680 N 253.855 -6.03016 3.59605 0
M  V30 2681 H 258.695 -1.69998 2.44754 0
M  V30 2682 H 256.232 -0.829458 1.21484 0
M  V30 2683 H 258.19 -3.9377 1.37843 0
M  V30 2684 H 256.82 -3.18588 0.519783 0
M  V30 2685 H 255.872 -2.52276 2.84712 0
M  V30 2686 H 257.184 -3.46899 3.58417 0
M  V30 2687 H 256.338 -5.54285 2.46683 0
M  V30 2688 H 255.077 -4.59826 1.62516 0
M  V30 2689 H 254.082 -3.94046 3.83416 0
M  V30 2690 H 255.307 -4.91896 4.68204 0
M  V30 2691 H 253.253 -5.97715 2.7032 0
M  V30 2692 H 253.17 -6.12766 4.42779 0
M  V30 2693 H 254.438 -6.93657 3.55613 0
M  V30 2694 N 258.668 -1.30515 -0.883378 0
M  V30 2695 C 259.631 -1.1701 -1.97082 0
M  V30 2696 C 260.631 -0.10089 -1.60483 0
M  V30 2697 O 261.821 -0.349127 -1.70666 0
M  V30 2698 C 258.953 -0.793045 -3.31547 0
M  V30 2699 H 260.146 -2.13622 -2.10489 0
M  V30 2700 H 257.699 -1.13935 -1.06998 0
M  V30 2701 H 258.434 0.172499 -3.23841 0
M  V30 2702 H 258.219 -1.56576 -3.5948 0
M  V30 2703 H 259.709 -0.722073 -4.1131 0
M  V30 2704 N 260.146 1.09593 -1.13257 0
M  V30 2705 C 261.056 2.19739 -0.821691 0
M  V30 2706 C 262.072 1.72926 0.19302 0
M  V30 2707 O 263.248 2.01385 0.0244895 0
M  V30 2708 C 260.313 3.45482 -0.290333 0
M  V30 2709 C 259.374 4.06985 -1.36607 0
M  V30 2710 C 258.607 5.26726 -0.859975 0
M  V30 2711 O 258.83 5.69594 0.303082 0
M  V30 2712 O 257.764 5.7931 -1.63351 0
M  V30 2713 H 261.59 2.48781 -1.74189 0
M  V30 2714 H 259.175 1.18496 -0.909894 0
M  V30 2715 H 261.057 4.214 0.000674022 0
M  V30 2716 H 259.732 3.18047 0.602306 0
M  V30 2717 H 258.639 3.32712 -1.71037 0
M  V30 2718 H 259.972 4.38643 -2.23279 0
M  V30 2719 N 261.624 0.925811 1.2754 0
M  V30 2720 C 262.571 0.422045 2.26908 0
M  V30 2721 C 263.541 -0.510029 1.58076 0
M  V30 2722 O 264.726 -0.429599 1.85901 0
M  V30 2723 C 261.866 -0.320837 3.43605 0
M  V30 2724 C 260.979 0.64513 4.27156 0
M  V30 2725 C 260.114 -0.117405 5.3107 0
M  V30 2726 C 259.153 0.841391 6.0629 0
M  V30 2727 N 258.29 0.111604 7.02011 0
M  V30 2728 H 263.13 1.27441 2.69375 0
M  V30 2729 H 260.667 0.639697 1.32462 0
M  V30 2730 H 262.625 -0.76785 4.10073 0
M  V30 2731 H 261.255 -1.13745 3.02096 0
M  V30 2732 H 260.307 1.21067 3.6062 0
M  V30 2733 H 261.619 1.37797 4.79389 0
M  V30 2734 H 260.773 -0.624422 6.03478 0
M  V30 2735 H 259.512 -0.883219 4.79636 0
M  V30 2736 H 258.517 1.35967 5.32722 0
M  V30 2737 H 259.742 1.60696 6.59813 0
M  V30 2738 H 257.688 -0.635999 6.5291 0
M  V30 2739 H 257.605 0.784044 7.51923 0
M  V30 2740 H 258.873 -0.374823 7.78598 0
M  V30 2741 N 263.102 -1.41638 0.69111 0
M  V30 2742 C 264.049 -2.30789 0.0229705 0
M  V30 2743 C 265.019 -1.46863 -0.775911 0
M  V30 2744 O 266.204 -1.75661 -0.74485 0
M  V30 2745 C 263.344 -3.32868 -0.910666 0
M  V30 2746 C 262.457 -4.31875 -0.103874 0
M  V30 2747 C 261.592 -5.21024 -1.03475 0
M  V30 2748 C 260.631 -6.11702 -0.220598 0
M  V30 2749 N 259.768 -6.93349 -1.10504 0
M  V30 2750 H 264.608 -2.87366 0.788978 0
M  V30 2751 H 262.145 -1.41535 0.400794 0
M  V30 2752 H 264.103 -3.90596 -1.46597 0
M  V30 2753 H 262.733 -2.77851 -1.64312 0
M  V30 2754 H 261.785 -3.76131 0.568285 0
M  V30 2755 H 263.097 -4.96003 0.527504 0
M  V30 2756 H 262.251 -5.83565 -1.65943 0
M  V30 2757 H 260.99 -4.57112 -1.69999 0
M  V30 2758 H 259.995 -5.48215 0.417187 0
M  V30 2759 H 261.22 -6.77668 0.440784 0
M  V30 2760 H 259.166 -6.3205 -1.75638 0
M  V30 2761 H 259.083 -7.54146 -0.529125 0
M  V30 2762 H 260.351 -7.60362 -1.71667 0
M  V30 2763 N 264.58 -0.43555 -1.51462 0
M  V30 2764 C 265.828 0.131254 -2.01673 0
M  V30 2765 C 266.149 1.43368 -1.32177 0
M  V30 2766 O 265.419 1.90524 -0.455769 0
M  V30 2767 H 263.999 0.0514954 -0.745223 0
M  V30 2768 H 266.661 -0.577847 -1.86137 0
M  V30 2769 H 265.757 0.308446 -3.10572 0
M  V30 2770 N 266.058 1.56714 -0.166846 0
M  V30 2771 C 267.335 1.88412 0.525373 0
M  V30 2772 C 267.715 1.07602 1.81618 0
M  V30 2773 O 267.063 0.168621 2.27877 0
M  V30 2774 C 267.273 3.40363 0.771613 0
M  V30 2775 C 268.621 4.10007 1.1036 0
M  V30 2776 O 269.645 3.45655 0.860304 0
M  V30 2777 O 268.504 5.2369 1.56239 0
M  V30 2778 H 265.598 0.781587 0.270278 0
M  V30 2779 H 268.144 1.68458 -0.204946 0
M  V30 2780 H 266.916 3.91046 -0.141093 0
M  V30 2781 H 266.539 3.65914 1.55541 0
M  V30 2782 N 267.536 -0.106894 1.57237 0
M  V30 2783 C 268.446 -1.14911 2.0453 0
M  V30 2784 C 269.462 -1.44592 0.96795 0
M  V30 2785 O 270.638 -1.55468 1.2803 0
M  V30 2786 C 267.703 -2.45272 2.45036 0
M  V30 2787 C 266.764 -2.22879 3.66911 0
M  V30 2788 C 265.997 -3.47024 4.05475 0
M  V30 2789 O 266.22 -4.54804 3.44252 0
M  V30 2790 O 265.154 -3.3731 4.98504 0
M  V30 2791 H 268.98 -0.777461 2.9358 0
M  V30 2792 H 266.565 -0.318563 1.45964 0
M  V30 2793 H 268.447 -3.22055 2.71769 0
M  V30 2794 H 267.122 -2.81886 1.59129 0
M  V30 2795 H 266.029 -1.43915 3.45311 0
M  V30 2796 H 267.362 -1.91163 4.53561 0
M  V30 2797 N 269.014 -1.53014 -0.377408 0
M  V30 2798 C 270.244 -1.72265 -1.14054 0
M  V30 2799 C 270.652 -0.44601 -1.83868 0
M  V30 2800 O 269.995 0.590095 -1.73964 0
M  V30 2801 C 270.057 -2.82492 -2.22348 0
M  V30 2802 C 269.721 -4.23233 -1.72402 0
M  V30 2803 C 270.718 -5.05992 -1.19448 0
M  V30 2804 C 268.403 -4.696 -1.78273 0
M  V30 2805 C 270.397 -6.33203 -0.730268 0
M  V30 2806 C 268.084 -5.96792 -1.31464 0
M  V30 2807 C 269.082 -6.78424 -0.789297 0
M  V30 2808 O 268.77 -8.0323 -0.328077 0
M  V30 2809 H 268.502 -0.579873 -0.347453 0
M  V30 2810 H 271.056 -2.00502 -0.445882 0
M  V30 2811 H 269.286 -2.49702 -2.95272 0
M  V30 2812 H 270.975 -2.90034 -2.83963 0
M  V30 2813 H 271.741 -4.71349 -1.14259 0
M  V30 2814 H 267.62 -4.06142 -2.18106 0
M  V30 2815 H 271.164 -6.96868 -0.319542 0
M  V30 2816 H 267.061 -6.30937 -1.36342 0
M  V30 2817 H 267.829 -8.1727 -0.448493 0
M  V30 2818 N 270.492 0.636531 -1.44174 0
M  V30 2819 C 271.741 1.39213 -1.45954 0
M  V30 2820 C 272.054 1.95374 -0.0939119 0
M  V30 2821 O 273.26 2.71498 0.0107767 0
M  V30 2822 C 271.716 2.52025 -2.56927 0
M  V30 2823 C 271.324 2.024 -3.99673 0
M  V30 2824 C 273.068 3.29269 -2.67922 0
M  V30 2825 C 270.975 3.12521 -5.0208 0
M  V30 2826 H 269.905 0.523132 -0.542999 0
M  V30 2827 H 272.556 0.685349 -1.70221 0
M  V30 2828 H 270.938 3.25253 -2.25891 0
M  V30 2829 H 272.112 1.36073 -4.40251 0
M  V30 2830 H 270.427 1.37987 -3.92872 0
M  V30 2831 H 273.024 4.11352 -3.41605 0
M  V30 2832 H 273.367 3.78397 -1.73555 0
M  V30 2833 H 273.9 2.63129 -2.98342 0
M  V30 2834 H 270.639 2.68343 -5.98057 0
M  V30 2835 H 270.159 3.77507 -4.66099 0
M  V30 2836 H 271.838 3.77385 -5.25538 0
M  V30 2837 N 271.97 1.30982 0.876444 0
M  V30 2838 C 273.219 1.19658 1.62373 0
M  V30 2839 C 273.532 -0.245636 1.94052 0
M  V30 2840 O 274.738 -0.48049 2.67214 0
M  V30 2841 C 273.194 2.09433 2.92687 0
M  V30 2842 C 272.802 3.58613 2.68516 0
M  V30 2843 C 274.546 2.06893 3.70669 0
M  V30 2844 C 272.453 4.40416 3.94699 0
M  V30 2845 H 271.383 0.444268 0.609214 0
M  V30 2846 H 274.034 1.55791 0.969605 0
M  V30 2847 H 272.416 1.66191 3.59439 0
M  V30 2848 H 273.59 4.10058 2.10212 0
M  V30 2849 H 271.905 3.63063 2.03898 0
M  V30 2850 H 274.502 2.65258 4.64265 0
M  V30 2851 H 274.845 1.05448 4.02724 0
M  V30 2852 H 275.378 2.48301 3.10792 0
M  V30 2853 H 272.117 5.42591 3.67798 0
M  V30 2854 H 271.637 3.93731 4.52477 0
M  V30 2855 H 273.316 4.52294 4.62644 0
M  V30 2856 N 273.449 -1.08991 1.13837 0
M  V30 2857 C 274.397 -2.17841 0.815347 0
M  V30 2858 C 275.391 -1.68164 -0.204233 0
M  V30 2859 O 276.597 -1.79897 -0.0609304 0
M  V30 2860 H 272.972 -0.710654 0.245915 0
M  V30 2861 H 274.943 -2.42315 1.74143 0
M  V30 2862 C 273.692 -3.46381 0.302614 0
M  V30 2863 H 273.015 -3.84979 1.0785 0
M  V30 2864 H 274.455 -4.23844 0.115074 0
M  V30 2865 C 272.914 -3.22556 -0.972591 0
M  V30 2866 O 273.444 -3.45599 -2.04754 0
M  V30 2867 N 271.65 -2.76134 -0.905455 0
M  V30 2868 H 271.197 -2.57582 -0.0305421 0
M  V30 2869 H 271.155 -2.60571 -1.75926 0
M  V30 2870 N 274.927 -0.932562 -1.27047 0
M  V30 2871 C 276.175 -0.574422 -1.93765 0
M  V30 2872 C 276.496 0.887993 -1.73608 0
M  V30 2873 O 275.766 1.62999 -1.08665 0
M  V30 2874 H 274.346 -0.209451 -0.717035 0
M  V30 2875 H 277.008 -1.18601 -1.5466 0
M  V30 2876 H 276.104 -0.784841 -3.02071 0
M  V30 2877 N 276.405 1.4127 -0.698611 0
M  V30 2878 C 277.337 2.292 0.00399731 0
M  V30 2879 C 278.35 1.44944 0.741279 0
M  V30 2880 O 279.539 1.68416 0.591477 0
M  V30 2881 C 276.639 3.22875 1.02979 0
M  V30 2882 C 275.812 4.35904 0.36151 0
M  V30 2883 C 274.871 5.10134 1.29033 0
M  V30 2884 O 273.897 5.63809 0.781562 0
M  V30 2885 N 275.099 5.17885 2.6225 0
M  V30 2886 H 277.864 2.9014 -0.750921 0
M  V30 2887 H 275.425 1.52455 -0.544882 0
M  V30 2888 H 277.417 3.69404 1.65296 0
M  V30 2889 H 275.987 2.63221 1.68622 0
M  V30 2890 H 275.207 3.91719 -0.441584 0
M  V30 2891 H 276.495 5.08696 -0.103055 0
M  V30 2892 H 275.893 4.7573 3.061 0
M  V30 2893 H 274.45 5.6798 3.19754 0
M  V30 2894 N 277.883 0.443576 1.51229 0
M  V30 2895 C 278.83 -0.364716 2.279 0
M  V30 2896 C 279.8 -1.0114 1.31757 0
M  V30 2897 O 280.985 -1.02912 1.60667 0
M  V30 2898 C 278.125 -1.45644 3.12861 0
M  V30 2899 C 277.238 -0.827269 4.24005 0
M  V30 2900 C 276.373 -1.89456 4.96266 0
M  V30 2901 C 275.412 -1.24416 5.99322 0
M  V30 2902 N 274.549 -2.25309 6.64966 0
M  V30 2903 H 279.389 0.295464 2.96532 0
M  V30 2904 H 276.926 0.157554 1.46254 0
M  V30 2905 H 278.884 -2.10076 3.6045 0
M  V30 2906 H 277.514 -2.08616 2.46331 0
M  V30 2907 H 276.566 -0.0710839 3.80334 0
M  V30 2908 H 277.878 -0.312481 4.9782 0
M  V30 2909 H 277.032 -2.61535 5.47434 0
M  V30 2910 H 275.771 -2.4431 4.22095 0
M  V30 2911 H 274.776 -0.508868 5.4744 0
M  V30 2912 H 276.001 -0.702882 6.75453 0
M  V30 2913 H 273.947 -2.79231 5.93604 0
M  V30 2914 H 273.864 -1.78739 7.34567 0
M  V30 2915 H 275.132 -2.96853 7.20763 0
M  V30 2916 N 279.361 -1.56624 0.175154 0
M  V30 2917 C 280.294 -2.14 -0.792412 0
M  V30 2918 C 281.272 -1.07114 -1.22333 0
M  V30 2919 O 282.456 -1.35112 -1.31442 0
M  V30 2920 C 279.583 -2.68268 -2.0676 0
M  V30 2921 C 278.629 -3.87562 -1.7804 0
M  V30 2922 S 279.462 -5.27074 -0.946222 0
M  V30 2923 C 280.618 -5.8475 -2.23199 0
M  V30 2924 H 280.851 -2.95736 -0.304588 0
M  V30 2925 H 278.384 -1.54349 -0.0395705 0
M  V30 2926 H 280.342 -3.00182 -2.80002 0
M  V30 2927 H 279.003 -1.86612 -2.52656 0
M  V30 2928 H 278.196 -4.23874 -2.72666 0
M  V30 2929 H 277.798 -3.56555 -1.12891 0
M  V30 2930 H 280.09 -5.97898 -3.18629 0
M  V30 2931 H 281.033 -6.81756 -1.91349 0
M  V30 2932 H 281.441 -5.13198 -2.35134 0
M  V30 2933 N 280.839 0.0985539 -1.57292 0
M  V30 2934 C 282.085 0.798769 -1.87059 0
M  V30 2935 C 282.44 1.76514 -0.76555 0
M  V30 2936 O 281.733 1.90181 0.232752 0
M  V30 2937 C 281.927 1.56927 -3.21105 0
M  V30 2938 C 281.756 0.679026 -4.44544 0
M  V30 2939 C 280.526 0.326071 -5.04247 0
M  V30 2940 C 282.724 -0.0124715 -5.14298 0
M  V30 2941 N 280.706 -0.572702 -6.11223 0
M  V30 2942 C 282.077 -0.769446 -6.15207 0
M  V30 2943 C 284.132 -0.0867545 -4.97824 0
M  V30 2944 C 282.835 -1.59376 -7.01421 0
M  V30 2945 C 284.861 -0.897955 -5.84543 0
M  V30 2946 C 284.223 -1.64306 -6.84969 0
M  V30 2947 H 280.322 0.268568 -0.734435 0
M  V30 2948 H 282.906 0.0614664 -1.94603 0
M  V30 2949 H 281.077 2.27748 -3.1462 0
M  V30 2950 H 282.809 2.21641 -3.38611 0
M  V30 2951 H 279.564 0.67295 -4.68795 0
M  V30 2952 H 279.988 -1.01454 -6.69355 0
M  V30 2953 H 284.63 0.474963 -4.20124 0
M  V30 2954 H 282.348 -2.16655 -7.78515 0
M  V30 2955 H 285.934 -0.958059 -5.73858 0
M  V30 2956 H 284.814 -2.26065 -7.50909 0
M  V30 2957 N 282.317 1.53212 0.369288 0
M  V30 2958 C 283.566 1.68436 1.10961 0
M  V30 2959 C 283.879 0.440738 1.9057 0
M  V30 2960 O 285.085 0.473446 2.6734 0
M  V30 2961 C 283.541 2.97744 2.0218 0
M  V30 2962 C 283.149 4.29355 1.279 0
M  V30 2963 C 284.893 3.22334 2.76226 0
M  V30 2964 C 282.8 5.49755 2.17999 0
M  V30 2965 H 281.73 0.627568 0.41794 0
M  V30 2966 H 284.381 1.79713 0.370884 0
M  V30 2967 H 282.763 2.8026 2.79768 0
M  V30 2968 H 283.937 4.57458 0.554007 0
M  V30 2969 H 282.252 4.11179 0.657311 0
M  V30 2970 H 284.849 4.09471 3.43857 0
M  V30 2971 H 285.192 2.38238 3.41392 0
M  V30 2972 H 285.725 3.40475 2.05723 0
M  V30 2973 H 282.464 6.36318 1.57417 0
M  V30 2974 H 281.984 5.25937 2.88359 0
M  V30 2975 H 283.663 5.84401 2.77641 0
M  V30 2976 N 283.795 -0.628877 1.44509 0
M  V30 2977 C 285.023 -1.41554 1.50897 0
M  V30 2978 C 285.438 -1.8832 0.134564 0
M  V30 2979 O 284.795 -1.60969 -0.859965 0
M  V30 2980 C 284.846 -2.63435 2.47556 0
M  V30 2981 O 284.567 -2.18619 3.79654 0
M  V30 2982 C 286.068 -3.56537 2.63431 0
M  V30 2983 H 283.288 -0.434044 0.511709 0
M  V30 2984 H 285.832 -0.768895 1.89495 0
M  V30 2985 H 283.987 -3.24187 2.12089 0
M  V30 2986 H 284.401 -2.97652 4.31861 0
M  V30 2987 H 285.875 -4.38657 3.35088 0
M  V30 2988 H 286.352 -4.05493 1.68738 0
M  V30 2989 H 286.958 -3.01653 2.9981 0
M  V30 2990 N 285.273 -1.31445 -0.869486 0
M  V30 2991 C 286.221 -1.19067 -1.99814 0
M  V30 2992 C 287.215 -0.0988569 -1.69111 0
M  V30 2993 O 288.421 -0.260781 -1.78101 0
M  V30 2994 H 284.796 -0.368677 -0.655425 0
M  V30 2995 H 286.767 -2.14555 -2.07385 0
M  V30 2996 C 285.516 -0.915323 -3.35436 0
M  V30 2997 H 284.839 -1.74759 -3.59582 0
M  V30 2998 H 286.279 -0.868895 -4.15001 0
M  V30 2999 C 284.738 0.381928 -3.34728 0
M  V30 3000 O 285.268 1.39857 -3.76567 0
M  V30 3001 N 283.474 0.398633 -2.87853 0
M  V30 3002 H 283.021 -0.429186 -2.54 0
M  V30 3003 H 282.979 1.26651 -2.87762 0
M  V30 3004 N 286.751 1.08385 -1.14413 0
M  V30 3005 C 287.999 1.80419 -0.910679 0
M  V30 3006 C 288.32 1.86658 0.564243 0
M  V30 3007 O 287.59 1.35985 1.41014 0
M  V30 3008 H 286.17 0.668204 -0.333934 0
M  V30 3009 H 288.832 1.31037 -1.44275 0
M  V30 3010 H 287.928 2.83238 -1.31082 0
M  V30 3011 N 288.23 0.939286 1.26551 0
M  V30 3012 C 289.478 0.58469 1.93457 0
M  V30 3013 C 289.799 -0.878774 1.74076 0
M  V30 3014 O 289.069 -1.62421 1.09528 0
M  V30 3015 H 287.649 0.21325 0.715914 0
M  V30 3016 H 290.311 1.1942 1.54029 0
M  V30 3017 H 289.407 0.800849 3.0165 0
M  V30 3018 N 289.708 -1.40897 0.706093 0
M  V30 3019 C 290.655 -2.30751 0.0474474 0
M  V30 3020 C 291.625 -1.47678 -0.76029 0
M  V30 3021 O 292.81 -1.76441 -0.726177 0
M  V30 3022 C 289.95 -3.33815 -0.875309 0
M  V30 3023 C 289.063 -4.31961 -0.0580623 0
M  V30 3024 C 288.198 -5.22093 -0.979425 0
M  V30 3025 C 287.237 -6.11902 -0.155706 0
M  V30 3026 N 286.374 -6.94482 -1.03144 0
M  V30 3027 H 291.214 -2.86513 0.819413 0
M  V30 3028 H 288.751 -1.41102 0.415783 0
M  V30 3029 H 290.709 -3.92129 -1.42446 0
M  V30 3030 H 289.339 -2.79579 -1.61356 0
M  V30 3031 H 288.391 -3.75507 0.608147 0
M  V30 3032 H 289.703 -4.95415 0.580082 0
M  V30 3033 H 288.857 -5.85292 -1.59744 0
M  V30 3034 H 287.596 -4.5889 -1.65141 0
M  V30 3035 H 286.601 -5.47742 0.475309 0
M  V30 3036 H 287.826 -6.77162 0.512635 0
M  V30 3037 H 285.772 -6.33877 -1.68924 0
M  V30 3038 H 285.689 -7.54665 -0.449108 0
M  V30 3039 H 286.957 -7.6214 -1.63593 0
M  V30 3040 N 291.186 -0.45159 -1.50991 0
M  V30 3041 C 292.149 0.341117 -2.26647 0
M  V30 3042 C 293.149 0.937422 -1.30649 0
M  V30 3043 O 294.339 0.809644 -1.54241 0
M  V30 3044 C 291.471 1.48398 -3.06905 0
M  V30 3045 H 292.664 -0.322117 -2.98165 0
M  V30 3046 H 290.217 -0.205122 -1.54948 0
M  V30 3047 H 290.952 2.18284 -2.39838 0
M  V30 3048 H 290.737 1.06241 -3.77432 0
M  V30 3049 H 292.227 2.04367 -3.64176 0
M  V30 3050 N 292.664 1.56529 -0.183458 0
M  V30 3051 C 293.612 2.19873 0.758845 0
M  V30 3052 C 294.606 1.16638 1.22849 0
M  V30 3053 O 295.812 1.3481 1.19274 0
M  V30 3054 H 292.187 0.7045 0.263029 0
M  V30 3055 H 294.158 2.97724 0.200755 0
M  V30 3056 C 292.907 2.86314 1.9728 0
M  V30 3057 H 292.23 3.65487 1.62047 0
M  V30 3058 H 293.67 3.3409 2.61075 0
M  V30 3059 C 292.129 1.86729 2.80418 0
M  V30 3060 O 292.659 1.36031 3.77966 0
M  V30 3061 N 290.865 1.55216 2.45675 0
M  V30 3062 H 290.412 1.96636 1.66409 0
M  V30 3063 H 290.37 0.888388 3.01588 0
M  V30 3064 N 294.142 -0.090211 1.57342 0
M  V30 3065 C 295.388 -0.788838 1.8748 0
M  V30 3066 C 295.743 -1.76105 0.7749 0
M  V30 3067 O 295.036 -1.90302 -0.222663 0
M  V30 3068 C 295.23 -1.55222 3.21933 0
M  V30 3069 C 295.059 -0.655441 4.44898 0
M  V30 3070 C 293.829 -0.299325 5.04413 0
M  V30 3071 C 296.027 0.0397458 5.14285 0
M  V30 3072 N 294.009 0.605108 6.10911 0
M  V30 3073 C 295.38 0.802061 6.1479 0
M  V30 3074 C 297.435 0.113154 4.97771 0
M  V30 3075 C 296.138 1.63093 7.00566 0
M  V30 3076 C 298.164 0.928942 5.84059 0
M  V30 3077 C 297.526 1.67936 6.84088 0
M  V30 3078 H 293.625 -0.26467 0.735849 0
M  V30 3079 H 296.209 -0.0511453 1.94633 0
M  V30 3080 H 294.38 -2.26076 3.15823 0
M  V30 3081 H 296.112 -2.19843 3.39781 0
M  V30 3082 H 292.867 -0.648079 4.69145 0
M  V30 3083 H 293.291 1.05002 6.68808 0
M  V30 3084 H 297.933 -0.452676 4.2037 0
M  V30 3085 H 295.651 2.20781 7.77355 0
M  V30 3086 H 299.237 0.988478 5.73341 0
M  V30 3087 H 298.117 2.30044 7.49699 0
M  V30 3088 N 295.62 -1.53406 -0.361157 0
M  V30 3089 C 296.85 -1.73465 -1.1222 0
M  V30 3090 C 297.258 -0.465486 -1.83384 0
M  V30 3091 O 296.601 0.571611 -1.7458 0
M  V30 3092 C 296.663 -2.84834 -2.19339 0
M  V30 3093 C 296.327 -4.25038 -1.67903 0
M  V30 3094 C 297.324 -5.07231 -1.14074 0
M  V30 3095 C 295.009 -4.71464 -1.73282 0
M  V30 3096 C 297.003 -6.33942 -0.663068 0
M  V30 3097 C 294.69 -5.98153 -1.25127 0
M  V30 3098 C 295.688 -6.79223 -0.717296 0
M  V30 3099 O 295.376 -8.03533 -0.242865 0
M  V30 3100 H 295.108 -0.583526 -0.341283 0
M  V30 3101 H 297.662 -2.00964 -0.424591 0
M  V30 3102 H 295.892 -2.5282 -2.92607 0
M  V30 3103 H 297.581 -2.9303 -2.80871 0
M  V30 3104 H 298.347 -4.72534 -1.09254 0
M  V30 3105 H 294.226 -4.08432 -2.13786 0
M  V30 3106 H 297.77 -6.97167 -0.245612 0
M  V30 3107 H 293.667 -6.32347 -1.29642 0
M  V30 3108 H 294.435 -8.177 -0.361786 0
M  V30 3109 N 297.098 0.621204 -1.44841 0
M  V30 3110 C 298.345 1.38055 -1.48145 0
M  V30 3111 C 298.673 1.94143 -0.117867 0
M  V30 3112 O 297.928 1.74713 0.881694 0
M  V30 3113 C 298.227 2.55675 -2.4973 0
M  V30 3114 C 297.893 2.17817 -3.94799 0
M  V30 3115 C 296.555 2.07205 -4.34303 0
M  V30 3116 C 298.907 1.88065 -4.86087 0
M  V30 3117 C 296.235 1.65045 -5.63007 0
M  V30 3118 C 298.587 1.47394 -6.15189 0
M  V30 3119 C 297.251 1.35331 -6.53637 0
M  V30 3120 H 296.521 0.505181 -0.542101 0
M  V30 3121 H 299.168 0.703477 -1.78111 0
M  V30 3122 H 297.473 3.2866 -2.13284 0
M  V30 3123 H 299.17 3.13904 -2.4953 0
M  V30 3124 H 295.76 2.26998 -3.63552 0
M  V30 3125 H 299.944 1.95168 -4.56315 0
M  V30 3126 H 295.2 1.54317 -5.91605 0
M  V30 3127 H 299.374 1.23415 -6.85377 0
M  V30 3128 H 297.001 1.02435 -7.53267 0
M  V30 3129 N 298.576 1.31904 0.862503 0
M  V30 3130 C 299.506 1.22782 1.98612 0
M  V30 3131 C 300.487 0.113362 1.69722 0
M  V30 3132 O 301.672 0.299218 1.91881 0
M  V30 3133 C 298.802 0.942058 3.34279 0
M  V30 3134 C 297.756 2.0169 3.77499 0
M  V30 3135 C 297.082 1.58369 5.10709 0
M  V30 3136 C 298.382 3.43096 3.93805 0
M  V30 3137 H 300.076 2.16788 2.06502 0
M  V30 3138 H 297.622 1.04366 0.992154 0
M  V30 3139 H 299.575 0.864818 4.1243 0
M  V30 3140 H 298.299 -0.0336603 3.26583 0
M  V30 3141 H 296.958 2.08416 3.01593 0
M  V30 3142 H 296.606 0.595628 4.99461 0
M  V30 3143 H 296.306 2.30279 5.40597 0
M  V30 3144 H 297.83 1.52067 5.91361 0
M  V30 3145 H 299.244 3.39003 4.62331 0
M  V30 3146 H 297.641 4.13288 4.35101 0
M  V30 3147 H 298.711 3.83334 2.96957 0
M  V30 3148 N 300.054 -1.07777 1.14986 0
M  V30 3149 C 300.984 -2.16865 0.865557 0
M  V30 3150 C 301.965 -1.69123 -0.182083 0
M  V30 3151 O 303.15 -1.94164 -0.0373815 0
M  V30 3152 C 300.28 -3.45539 0.349313 0
M  V30 3153 C 299.234 -4.06708 1.33313 0
M  V30 3154 C 298.56 -5.30411 0.675918 0
M  V30 3155 C 299.86 -4.47241 2.69764 0
M  V30 3156 H 301.554 -2.40905 1.77778 0
M  V30 3157 H 299.1 -1.15781 0.856203 0
M  V30 3158 H 301.053 -4.21174 0.137983 0
M  V30 3159 H 299.777 -3.21072 -0.598362 0
M  V30 3160 H 298.436 -3.33112 1.53075 0
M  V30 3161 H 298.084 -5.02232 -0.277767 0
M  V30 3162 H 297.784 -5.72293 1.33244 0
M  V30 3163 H 299.308 -6.08755 0.474262 0
M  V30 3164 H 300.722 -5.14025 2.53873 0
M  V30 3165 H 299.119 -5.00062 3.3175 0
M  V30 3166 H 300.189 -3.58818 3.26156 0
M  V30 3167 N 301.532 -0.945985 -1.26051 0
M  V30 3168 C 302.495 -0.463897 -2.24456 0
M  V30 3169 C 303.495 0.427655 -1.55009 0
M  V30 3170 O 304.685 0.226157 -1.72726 0
M  V30 3171 C 301.817 0.330812 -3.39291 0
M  V30 3172 H 303.01 -1.33357 -2.68619 0
M  V30 3173 H 300.563 -0.728416 -1.38289 0
M  V30 3174 H 301.298 1.21852 -3.00537 0
M  V30 3175 H 301.083 -0.308679 -3.90883 0
M  V30 3176 H 302.573 0.657865 -4.12386 0
M  V30 3177 N 303.011 1.40521 -0.713556 0
M  V30 3178 C 304.427 1.54839 -0.386907 0
M  V30 3179 C 304.627 1.68532 1.1045 0
M  V30 3180 O 303.683 1.67377 1.89053 0
M  V30 3181 C 304.996 2.77792 -1.15118 0
M  V30 3182 C 306.544 2.91607 -1.13729 0
M  V30 3183 C 307.019 4.1747 -1.88368 0
M  V30 3184 N 308.51 4.24466 -1.85427 0
M  V30 3185 C 309.245 5.20755 -2.40004 0
M  V30 3186 N 308.741 6.22965 -3.03129 0
M  V30 3187 N 310.534 5.1282 -2.30158 0
M  V30 3188 H 302.685 1.29879 -1.68063 0
M  V30 3189 H 304.948 0.627896 -0.710247 0
M  V30 3190 H 304.654 2.73944 -2.20561 0
M  V30 3191 H 304.528 3.6984 -0.741477 0
M  V30 3192 H 306.915 2.94959 -0.0910608 0
M  V30 3193 H 306.996 2.00682 -1.5862 0
M  V30 3194 H 306.64 4.1488 -2.9298 0
M  V30 3195 H 306.57 5.074 -1.40898 0
M  V30 3196 H 309.061 3.51241 -1.3942 0
M  V30 3197 H 309.374 6.92859 -3.42295 0
M  V30 3198 H 307.719 6.23415 -3.07212 0
M  V30 3199 H 310.91 4.31899 -1.80501 0
M  V30 3200 H 311.083 5.87689 -2.72993 0
M  V30 3201 N 304.489 0.459591 1.5075 0
M  V30 3202 C 305.714 -0.0996819 2.0716 0
M  V30 3203 C 306.139 -1.33761 1.32249 0
M  V30 3204 O 305.497 -1.77551 0.366786 0
M  V30 3205 C 305.545 -0.378226 3.58611 0
M  V30 3206 O 304.649 -1.46081 3.85661 0
M  V30 3207 H 303.99 0.00791392 0.663953 0
M  V30 3208 H 306.52 0.647329 1.9409 0
M  V30 3209 H 306.53 -0.622135 4.03229 0
M  V30 3210 H 305.205 0.526439 4.12555 0
M  V30 3211 H 303.782 -1.20511 3.5289 0
M  V30 3212 N 305.967 -1.56429 0.191757 0
M  V30 3213 C 307.244 -1.89224 -0.495332 0
M  V30 3214 C 307.624 -1.10478 -1.79883 0
M  V30 3215 O 306.972 -0.204852 -2.2758 0
M  V30 3216 C 307.182 -3.41548 -0.717367 0
M  V30 3217 C 308.53 -4.11711 -1.03823 0
M  V30 3218 O 309.554 -3.4698 -0.805204 0
M  V30 3219 O 308.413 -5.2611 -1.47887 0
M  V30 3220 H 305.507 -0.785788 -0.25781 0
M  V30 3221 H 308.053 -1.68111 0.231721 0
M  V30 3222 H 306.825 -3.90772 0.203287 0
M  V30 3223 H 306.448 -3.68342 -1.497 0
M  V30 3224 N 307.445 0.0818655 -1.57387 0
M  V30 3225 C 308.856 0.634871 -1.75574 0
M  V30 3226 C 309.207 1.78435 -0.815809 0
M  V30 3227 O 308.332 2.164 0.0025366 0
M  V30 3228 C 308.927 1.15845 -3.18379 0
M  V30 3229 C 307.486 1.65741 -3.37945 0
M  V30 3230 C 306.633 0.572549 -2.71325 0
M  V30 3231 H 309.584 -0.144268 -1.58043 0
M  V30 3232 H 309.605 2.02751 -3.21982 0
M  V30 3233 H 309.117 0.321631 -3.86765 0
M  V30 3234 H 307.218 2.51781 -2.74658 0
M  V30 3235 H 307.331 1.74129 -4.46336 0
M  V30 3236 H 305.695 1.01518 -2.33594 0
M  V30 3237 H 306.478 -0.253918 -3.4236 0
M  V30 3238 N 308.923 1.53595 0.353017 0
M  V30 3239 C 310.2 1.61002 1.11075 0
M  V30 3240 C 310.58 0.425356 2.0677 0
M  V30 3241 O 309.928 -0.583267 2.2093 0
M  V30 3242 C 310.138 2.96631 1.83877 0
M  V30 3243 C 311.486 3.51653 2.37961 0
M  V30 3244 O 312.51 2.98743 1.93987 0
M  V30 3245 O 311.369 4.44177 3.18386 0
M  V30 3246 H 308.463 0.650825 0.510251 0
M  V30 3247 H 311.009 1.6594 0.35527 0
M  V30 3248 H 309.781 3.74293 1.14108 0
M  V30 3249 H 309.404 2.95242 2.66304 0
M  V30 3250 N 310.401 -0.613514 1.45168 0
M  V30 3251 C 311.812 -1.19539 1.43413 0
M  V30 3252 C 312.163 -1.95558 0.158632 0
M  V30 3253 O 311.288 -2.0335 -0.740119 0
M  V30 3254 C 311.883 -2.17445 2.59813 0
M  V30 3255 C 310.442 -2.71022 2.61197 0
M  V30 3256 C 309.589 -1.46323 2.35552 0
M  V30 3257 H 312.54 -0.403163 1.53494 0
M  V30 3258 H 312.561 -3.00373 2.33574 0
M  V30 3259 H 312.073 -1.62089 3.52631 0
M  V30 3260 H 310.174 -3.30332 1.7237 0
M  V30 3261 H 310.287 -3.15859 3.60236 0
M  V30 3262 H 308.651 -1.75072 1.84992 0
M  V30 3263 H 309.434 -0.92844 3.30507 0
M  V30 3264 N 311.879 -1.3236 -0.855495 0
M  V30 3265 C 312.826 -1.21225 -1.964 0
M  V30 3266 C 313.796 -0.0946204 -1.6583 0
M  V30 3267 O 314.981 -0.27002 -1.8888 0
M  V30 3268 C 312.121 -0.940419 -3.32039 0
M  V30 3269 C 311.234 -2.14276 -3.75113 0
M  V30 3270 C 310.369 -1.80648 -4.9954 0
M  V30 3271 C 309.408 -2.97208 -5.35102 0
M  V30 3272 N 308.545 -2.63678 -6.50706 0
M  V30 3273 H 313.385 -2.16042 -2.05255 0
M  V30 3274 H 310.922 -1.07451 -1.00463 0
M  V30 3275 H 312.88 -0.763311 -4.10158 0
M  V30 3276 H 311.51 -0.0290413 -3.22787 0
M  V30 3277 H 310.562 -2.43017 -2.92655 0
M  V30 3278 H 311.874 -3.01468 -3.97389 0
M  V30 3279 H 311.028 -1.59484 -5.85363 0
M  V30 3280 H 309.767 -0.906678 -4.79198 0
M  V30 3281 H 308.772 -3.19004 -4.47791 0
M  V30 3282 H 309.997 -3.87918 -5.57401 0
M  V30 3283 H 307.943 -1.76238 -6.31883 0
M  V30 3284 H 307.86 -3.444 -6.72997 0
M  V30 3285 H 309.128 -2.45942 -7.39684 0
M  V30 3286 N 313.357 1.07166 -1.15556 0
M  V30 3287 C 314.32 2.12589 -0.856644 0
M  V30 3288 C 315.32 1.6015 0.14444 0
M  V30 3289 O 316.51 1.7399 -0.0854163 0
M  V30 3290 C 313.642 3.39753 -0.279405 0
M  V30 3291 H 314.835 2.40539 -1.79112 0
M  V30 3292 H 312.388 1.23086 -0.963298 0
M  V30 3293 H 313.123 3.17447 0.663174 0
M  V30 3294 H 312.908 3.79117 -1.00063 0
M  V30 3295 H 314.398 4.17507 -0.0879113 0
M  V30 3296 N 314.835 0.952656 1.25548 0
M  V30 3297 C 316.246 0.647392 1.75116 0
M  V30 3298 C 316.597 -0.837274 1.77438 0
M  V30 3299 O 315.722 -1.65525 1.39393 0
M  V30 3300 C 316.317 1.16845 3.18014 0
M  V30 3301 C 314.876 0.913382 3.6515 0
M  V30 3302 C 314.023 1.31265 2.44264 0
M  V30 3303 H 316.974 1.12968 1.11462 0
M  V30 3304 H 316.995 0.527606 3.76824 0
M  V30 3305 H 316.507 2.24902 3.16292 0
M  V30 3306 H 314.608 -0.152316 3.72289 0
M  V30 3307 H 314.721 1.54845 4.53387 0
M  V30 3308 H 313.085 0.731028 2.43984 0
M  V30 3309 H 313.868 2.40239 2.45234 0
M  V30 3310 N 316.313 -1.40141 0.720998 0
M  V30 3311 C 317.276 -2.29058 0.0805834 0
M  V30 3312 C 318.276 -1.45632 -0.681758 0
M  V30 3313 O 319.466 -1.6648 -0.512856 0
M  V30 3314 C 316.598 -3.28925 -0.895593 0
M  V30 3315 H 317.791 -2.87191 0.863793 0
M  V30 3316 H 315.344 -1.48553 0.485975 0
M  V30 3317 H 316.079 -2.75822 -1.70566 0
M  V30 3318 H 315.864 -3.90519 -0.351766 0
M  V30 3319 H 317.354 -3.95494 -1.34069 0
M  V30 3320 N 317.792 -0.46758 -1.50504 0
M  V30 3321 C 318.74 0.342482 -2.30065 0
M  V30 3322 C 319.734 0.993596 -1.37201 0
M  V30 3323 O 320.94 0.925102 -1.54408 0
M  V30 3324 H 317.315 0.129283 -0.740803 0
M  V30 3325 H 319.286 -0.34899 -2.96352 0
M  V30 3326 C 318.035 1.4139 -3.17654 0
M  V30 3327 H 317.358 0.922264 -3.89017 0
M  V30 3328 H 318.798 1.95335 -3.76325 0
M  V30 3329 C 317.257 2.4139 -2.35016 0
M  V30 3330 O 317.787 3.46586 -2.03079 0
M  V30 3331 N 315.993 2.13021 -1.97662 0
M  V30 3332 H 315.54 1.27499 -2.23834 0
M  V30 3333 H 315.498 2.80164 -1.42673 0
M  V30 3334 N 319.27 1.56325 -0.20005 0
M  V30 3335 C 320.217 2.1932 0.718833 0
M  V30 3336 C 321.187 1.14198 1.20615 0
M  V30 3337 O 322.372 1.42469 1.26914 0
M  V30 3338 C 319.512 2.86041 1.93066 0
M  V30 3339 C 318.625 4.05702 1.48425 0
M  V30 3340 C 317.76 4.60266 2.65196 0
M  V30 3341 C 316.799 5.72273 2.17185 0
M  V30 3342 N 315.936 6.21221 3.27152 0
M  V30 3343 H 320.776 2.97486 0.17489 0
M  V30 3344 H 318.313 1.46911 0.0745794 0
M  V30 3345 H 320.271 3.22897 2.64184 0
M  V30 3346 H 318.901 2.1043 2.44783 0
M  V30 3347 H 317.953 3.74475 0.668755 0
M  V30 3348 H 319.265 4.86699 1.09204 0
M  V30 3349 H 318.419 4.99453 3.4443 0
M  V30 3350 H 317.158 3.78386 3.07693 0
M  V30 3351 H 316.163 5.3261 1.36407 0
M  V30 3352 H 317.388 6.55974 1.75713 0
M  V30 3353 H 315.334 5.42263 3.69171 0
M  V30 3354 H 315.251 6.97284 2.92116 0
M  V30 3355 H 316.519 6.65063 4.06585 0
M  V30 3356 N 320.748 -0.0735177 1.57428 0
M  V30 3357 C 321.711 -1.07192 2.02589 0
M  V30 3358 C 322.711 -1.31695 0.922661 0
M  V30 3359 O 323.901 -1.27445 1.18758 0
M  V30 3360 C 321.033 -2.41599 2.40506 0
M  V30 3361 H 322.226 -0.682727 2.92025 0
M  V30 3362 H 319.779 -0.319193 1.53006 0
M  V30 3363 H 320.514 -2.85354 1.5409 0
M  V30 3364 H 320.299 -2.25156 3.21009 0
M  V30 3365 H 321.789 -3.13367 2.76027 0
M  V30 3366 N 322.226 -1.5378 -0.344866 0
M  V30 3367 C 323.473 -1.70963 -1.08526 0
M  V30 3368 C 323.801 -0.472126 -1.88683 0
M  V30 3369 O 323.056 0.546116 -1.87926 0
M  V30 3370 C 323.355 -2.92407 -2.05506 0
M  V30 3371 C 323.021 -4.28066 -1.41671 0
M  V30 3372 C 321.683 -4.64951 -1.2399 0
M  V30 3373 C 324.035 -5.12344 -0.956726 0
M  V30 3374 C 321.363 -5.83733 -0.589277 0
M  V30 3375 C 323.715 -6.3179 -0.320015 0
M  V30 3376 C 322.379 -6.67372 -0.130881 0
M  V30 3377 H 321.649 -0.625598 -0.397124 0
M  V30 3378 H 324.296 -1.87995 -0.36469 0
M  V30 3379 H 322.601 -2.69973 -2.8394 0
M  V30 3380 H 324.298 -3.02895 -2.62784 0
M  V30 3381 H 320.888 -3.99034 -1.56429 0
M  V30 3382 H 325.072 -4.8438 -1.08118 0
M  V30 3383 H 320.328 -6.09877 -0.431344 0
M  V30 3384 H 324.502 -6.96386 0.0445072 0
M  V30 3385 H 322.129 -7.59273 0.375318 0
M  V30 3386 N 323.704 0.605807 -1.45491 0
M  V30 3387 C 324.932 1.39136 -1.5313 0
M  V30 3388 C 325.347 1.88082 -0.164507 0
M  V30 3389 O 324.704 1.62316 0.834247 0
M  V30 3390 C 324.755 2.59463 -2.51716 0
M  V30 3391 O 324.476 2.12551 -3.83084 0
M  V30 3392 C 325.977 3.52301 -2.6907 0
M  V30 3393 H 323.197 0.425849 -0.51855 0
M  V30 3394 H 325.741 0.73865 -1.90694 0
M  V30 3395 H 323.896 3.20772 -2.17219 0
M  V30 3396 H 324.31 2.90744 -4.36541 0
M  V30 3397 H 325.784 4.33271 -3.42024 0
M  V30 3398 H 326.261 4.02757 -1.75167 0
M  V30 3399 H 326.867 2.96845 -3.04571 0
M  V30 3400 N 325.182 1.32811 0.848464 0
M  V30 3401 C 326.43 1.23479 1.59991 0
M  V30 3402 C 326.751 -0.201853 1.93952 0
M  V30 3403 O 326.021 -1.12818 1.60153 0
M  V30 3404 H 324.601 0.454034 0.593179 0
M  V30 3405 H 327.263 1.66412 1.01455 0
M  V30 3406 H 326.359 1.82178 2.53412 0
M  V30 3407 N 326.66 -1.06551 1.16123 0
M  V30 3408 C 327.907 -1.79302 0.941126 0
M  V30 3409 C 328.235 -1.87105 -0.531235 0
M  V30 3410 O 327.49 -1.35692 -1.41018 0
M  V30 3411 C 327.789 -3.23911 1.51052 0
M  V30 3412 C 327.455 -3.36193 3.00475 0
M  V30 3413 C 326.117 -3.39252 3.41265 0
M  V30 3414 C 328.469 -3.38326 3.96465 0
M  V30 3415 C 325.797 -3.42057 4.76669 0
M  V30 3416 C 328.149 -3.4267 5.31752 0
M  V30 3417 C 326.813 -3.4401 5.72026 0
M  V30 3418 H 326.083 -0.656111 0.344382 0
M  V30 3419 H 328.73 -1.25325 1.44796 0
M  V30 3420 H 327.035 -3.80723 0.925063 0
M  V30 3421 H 328.732 -3.78793 1.31593 0
M  V30 3422 H 325.322 -3.34516 2.6795 0
M  V30 3423 H 329.506 -3.35176 3.6602 0
M  V30 3424 H 324.762 -3.41398 5.07206 0
M  V30 3425 H 328.936 -3.43268 6.05921 0
M  V30 3426 H 326.563 -3.45937 6.76928 0
M  V30 3427 N 328.138 -0.959301 -1.25041 0
M  V30 3428 C 329.387 -0.612254 -1.92183 0
M  V30 3429 C 329.7 0.855347 -1.75907 0
M  V30 3430 O 330.906 1.31256 -2.37664 0
M  V30 3431 C 329.362 -1.04435 -3.44414 0
M  V30 3432 C 328.97 -2.53482 -3.69393 0
M  V30 3433 C 330.714 -0.770055 -4.17457 0
M  V30 3434 C 328.621 -2.90468 -5.15153 0
M  V30 3435 H 327.551 -0.225279 -0.719559 0
M  V30 3436 H 330.202 -1.16438 -1.41825 0
M  V30 3437 H 328.584 -0.4206 -3.9376 0
M  V30 3438 H 329.758 -3.20916 -3.30681 0
M  V30 3439 H 328.073 -2.78432 -3.0962 0
M  V30 3440 H 330.67 -1.02249 -5.24832 0
M  V30 3441 H 331.013 0.293611 -4.15263 0
M  V30 3442 H 331.546 -1.35437 -3.74034 0
M  V30 3443 H 328.285 -3.95871 -5.22462 0
M  V30 3444 H 327.805 -2.27711 -5.54894 0
M  V30 3445 H 329.484 -2.79914 -5.83315 0
M  V30 3446 N 329.616 1.39756 -0.72842 0
M  V30 3447 C 330.862 2.00942 -0.273892 0
M  V30 3448 C 331.195 1.57656 1.13394 0
M  V30 3449 O 330.47 0.802434 1.77176 0
M  V30 3450 C 330.753 3.58211 -0.368346 0
M  V30 3451 C 330.606 4.11534 -1.81548 0
M  V30 3452 C 331.925 4.39372 0.253054 0
M  V30 3453 H 329.044 0.730047 -0.100996 0
M  V30 3454 H 331.686 1.66056 -0.923337 0
M  V30 3455 H 329.836 3.88061 0.184588 0
M  V30 3456 H 331.508 3.92431 -2.42478 0
M  V30 3457 H 329.751 3.65341 -2.33898 0
M  V30 3458 H 330.422 5.20682 -1.83288 0
M  V30 3459 H 332.898 4.15527 -0.218224 0
M  V30 3460 H 331.774 5.48677 0.156585 0
M  V30 3461 H 332.035 4.21358 1.33826 0
M  V30 3462 N 331.094 0.475555 1.50254 0
M  V30 3463 C 332.004 -0.321501 2.32387 0
M  V30 3464 C 333.02 -0.991755 1.42969 0
M  V30 3465 O 334.196 -0.978747 1.76018 0
M  V30 3466 C 331.261 -1.38667 3.17762 0
M  V30 3467 C 330.322 -0.732538 4.23004 0
M  V30 3468 C 329.555 -1.74695 5.04299 0
M  V30 3469 O 329.778 -2.97399 4.86734 0
M  V30 3470 O 328.712 -1.31631 5.8733 0
M  V30 3471 H 332.538 0.350071 3.01676 0
M  V30 3472 H 330.123 0.237321 1.47503 0
M  V30 3473 H 332.005 -2.00354 3.70724 0
M  V30 3474 H 330.68 -2.04163 2.51196 0
M  V30 3475 H 329.587 -0.0765902 3.74022 0
M  V30 3476 H 330.92 -0.120452 4.92053 0
M  V30 3477 N 332.573 -1.56217 0.208337 0
M  V30 3478 C 333.536 -2.18455 -0.693557 0
M  V30 3479 C 334.536 -1.14268 -1.13135 0
M  V30 3480 O 335.726 -1.39577 -1.0423 0
M  V30 3481 C 332.858 -2.79727 -1.94848 0
M  V30 3482 H 334.051 -2.99519 -0.15114 0
M  V30 3483 H 331.604 -1.56245 -0.041287 0
M  V30 3484 H 332.339 -2.02497 -2.53309 0
M  V30 3485 H 332.124 -3.56009 -1.64316 0
M  V30 3486 H 333.614 -3.27475 -2.59133 0
M  V30 3487 N 334.051 0.0651679 -1.57465 0
M  V30 3488 C 335.328 0.79644 -1.78651 0
M  V30 3489 C 335.708 1.95454 -0.797566 0
M  V30 3490 O 335.056 2.27882 0.167946 0
M  V30 3491 C 335.266 1.26322 -3.25337 0
M  V30 3492 C 336.614 1.6939 -3.89348 0
M  V30 3493 O 337.638 1.35872 -3.29268 0
M  V30 3494 O 336.497 2.31471 -4.95059 0
M  V30 3495 H 333.591 0.382157 -0.733407 0
M  V30 3496 H 336.137 0.0447311 -1.69641 0
M  V30 3497 H 334.909 0.434859 -3.88876 0
M  V30 3498 H 334.532 2.07604 -3.39096 0
M  V30 3499 N 335.529 1.53961 0.336706 0
M  V30 3500 C 336.757 1.75483 1.09605 0
M  V30 3501 C 337.172 0.4972 1.82136 0
M  V30 3502 O 336.529 -0.53149 1.74589 0
M  V30 3503 C 336.58 2.93943 2.10428 0
M  V30 3504 O 336.301 4.14842 1.40846 0
M  V30 3505 C 337.802 3.27571 2.98684 0
M  V30 3506 H 335.022 0.586166 0.326574 0
M  V30 3507 H 337.566 2.00808 0.38683 0
M  V30 3508 H 335.721 2.70929 2.76905 0
M  V30 3509 H 336.135 4.81383 2.08255 0
M  V30 3510 H 337.609 4.13791 3.6535 0
M  V30 3511 H 338.086 2.44168 3.65074 0
M  V30 3512 H 338.692 3.52615 2.37787 0
M  V30 3513 N 337.007 -0.598083 1.45811 0
M  V30 3514 C 338.418 -1.18011 1.44673 0
M  V30 3515 C 338.769 -1.95378 0.179364 0
M  V30 3516 O 337.894 -2.04124 -0.718509 0
M  V30 3517 C 338.489 -2.14677 2.62105 0
M  V30 3518 C 337.048 -2.68236 2.64057 0
M  V30 3519 C 336.195 -1.43816 2.37091 0
M  V30 3520 H 339.146 -0.38686 1.53913 0
M  V30 3521 H 339.167 -2.97878 2.36746 0
M  V30 3522 H 338.679 -1.5834 3.5433 0
M  V30 3523 H 336.78 -3.28486 1.75864 0
M  V30 3524 H 336.893 -3.12021 3.63566 0
M  V30 3525 H 335.257 -1.731 1.86838 0
M  V30 3526 H 336.04 -0.893333 3.31473 0
M  V30 3527 N 338.485 -1.33259 -0.841409 0
M  V30 3528 C 339.733 -1.24326 -1.59334 0
M  V30 3529 C 340.054 0.191564 -1.94057 0
M  V30 3530 O 339.324 1.11967 -1.60749 0
M  V30 3531 H 337.904 -0.457174 -0.590763 0
M  V30 3532 H 340.566 -1.66947 -1.00571 0
M  V30 3533 H 339.662 -1.8352 -2.52442 0
M  V30 3534 N 339.963 1.05934 -1.16686 0
M  V30 3535 C 341.212 1.78188 -0.945085 0
M  V30 3536 C 341.525 1.88338 0.528021 0
M  V30 3537 O 342.731 2.57258 0.867799 0
M  V30 3538 C 341.187 3.20277 -1.64167 0
M  V30 3539 C 340.795 3.18281 -3.15279 0
M  V30 3540 C 342.539 3.97039 -1.502 0
M  V30 3541 C 340.446 4.55112 -3.7766 0
M  V30 3542 H 339.376 0.667866 -0.349959 0
M  V30 3543 H 342.027 1.18794 -1.39858 0
M  V30 3544 H 340.409 3.79952 -1.11589 0
M  V30 3545 H 341.583 2.68167 -3.74731 0
M  V30 3546 H 339.898 2.55018 -3.29173 0
M  V30 3547 H 342.495 4.98194 -1.94183 0
M  V30 3548 H 342.838 4.13845 -0.451461 0
M  V30 3549 H 343.371 3.43894 -1.99954 0
M  V30 3550 H 340.11 4.43512 -4.82677 0
M  V30 3551 H 339.63 5.05406 -3.22994 0
M  V30 3552 H 341.309 5.24064 -3.79428 0
M  V30 3553 N 341.441 0.965919 1.2453 0
M  V30 3554 C 342.373 0.452465 2.2469 0
M  V30 3555 C 343.386 -0.437821 1.56802 0
M  V30 3556 O 344.575 -0.244283 1.76821 0
M  V30 3557 C 341.675 -0.366258 3.36915 0
M  V30 3558 C 340.848 0.513701 4.34373 0
M  V30 3559 C 339.907 -0.248716 5.25612 0
M  V30 3560 O 338.933 0.356745 5.68081 0
M  V30 3561 N 340.135 -1.53877 5.59734 0
M  V30 3562 H 342.9 1.31361 2.69378 0
M  V30 3563 H 340.461 0.837541 1.38553 0
M  V30 3564 H 342.453 -0.884297 3.94921 0
M  V30 3565 H 341.023 -1.12832 2.91526 0
M  V30 3566 H 340.243 1.21273 3.75082 0
M  V30 3567 H 341.531 1.11391 4.96457 0
M  V30 3568 H 340.929 -2.05243 5.27154 0
M  V30 3569 H 339.486 -2.00254 6.20275 0
M  V30 3570 N 342.919 -1.39368 0.735821 0
M  V30 3571 C 344.168 -1.99733 0.281004 0
M  V30 3572 C 344.481 -1.59055 -1.13846 0
M  V30 3573 O 345.687 -2.12262 -1.69284 0
M  V30 3574 C 344.143 -3.57057 0.451462 0
M  V30 3575 C 343.751 -4.06697 1.87886 0
M  V30 3576 C 345.495 -4.2446 0.0584616 0
M  V30 3577 C 343.402 -5.56598 1.99883 0
M  V30 3578 H 342.332 -0.747163 0.101311 0
M  V30 3579 H 344.983 -1.59357 0.909819 0
M  V30 3580 H 343.365 -3.95234 -0.246263 0
M  V30 3581 H 344.539 -3.79853 2.60861 0
M  V30 3582 H 342.854 -3.5196 2.22515 0
M  V30 3583 H 345.451 -5.34549 0.127099 0
M  V30 3584 H 345.794 -4.04444 -0.986433 0
M  V30 3585 H 346.327 -3.9146 0.707374 0
M  V30 3586 H 343.066 -5.81494 3.02564 0
M  V30 3587 H 342.586 -5.85242 1.31346 0
M  V30 3588 H 344.265 -6.22022 1.78039 0
M  V30 3589 N 344.397 -0.483516 -1.5 0
M  V30 3590 C 345.645 0.067027 -2.01989 0
M  V30 3591 C 345.966 1.3909 -1.36671 0
M  V30 3592 O 345.236 1.88978 -0.516152 0
M  V30 3593 H 343.816 0.0277606 -0.746484 0
M  V30 3594 H 346.478 -0.636773 -1.84204 0
M  V30 3595 H 345.574 0.209484 -3.11396 0
M  V30 3596 N 345.875 1.56104 -0.216619 0
M  V30 3597 C 347.291 1.58995 0.13886 0
M  V30 3598 C 347.491 1.23333 1.59346 0
M  V30 3599 O 346.547 0.966234 2.33281 0
M  V30 3600 C 347.86 3.00143 -0.182968 0
M  V30 3601 C 349.408 3.12751 -0.124807 0
M  V30 3602 C 349.883 4.56068 -0.420241 0
M  V30 3603 N 351.374 4.61723 -0.369634 0
M  V30 3604 C 352.109 5.70542 -0.571789 0
M  V30 3605 N 351.605 6.87744 -0.835453 0
M  V30 3606 N 353.398 5.59831 -0.504563 0
M  V30 3607 H 345.549 1.77562 -1.16557 0
M  V30 3608 H 347.812 0.825091 -0.466828 0
M  V30 3609 H 347.518 3.30871 -1.19237 0
M  V30 3610 H 347.392 3.73813 0.504367 0
M  V30 3611 H 349.779 2.81822 0.875223 0
M  V30 3612 H 349.86 2.41421 -0.845544 0
M  V30 3613 H 349.504 4.87713 -1.41769 0
M  V30 3614 H 349.434 5.25617 0.321631 0
M  V30 3615 H 351.925 3.77502 -0.173338 0
M  V30 3616 H 352.238 7.66587 -0.977938 0
M  V30 3617 H 350.583 6.895 -0.872592 0
M  V30 3618 H 353.774 4.67145 -0.298842 0
M  V30 3619 H 353.947 6.44573 -0.665519 0
M  V30 3620 N 347.353 -0.0568162 1.57498 0
M  V30 3621 C 348.3 -1.06591 2.04712 0
M  V30 3622 C 349.27 -1.3758 0.930644 0
M  V30 3623 O 350.455 -1.48392 1.19935 0
M  V30 3624 C 347.595 -2.3701 2.50839 0
M  V30 3625 C 346.708 -2.12421 3.76167 0
M  V30 3626 C 345.843 -3.36511 4.11015 0
M  V30 3627 C 344.882 -3.07353 5.2934 0
M  V30 3628 N 344.019 -4.23816 5.59754 0
M  V30 3629 H 348.859 -0.65631 2.90683 0
M  V30 3630 H 346.396 -0.312481 1.43743 0
M  V30 3631 H 348.354 -3.13175 2.7564 0
M  V30 3632 H 346.984 -2.75744 1.67825 0
M  V30 3633 H 346.036 -1.2688 3.58616 0
M  V30 3634 H 347.348 -1.86894 4.62463 0
M  V30 3635 H 346.502 -4.21062 4.36797 0
M  V30 3636 H 345.241 -3.65128 3.23315 0
M  V30 3637 H 344.246 -2.212 5.03339 0
M  V30 3638 H 345.471 -2.80043 6.1867 0
M  V30 3639 H 343.417 -4.52436 4.75014 0
M  V30 3640 H 343.334 -4.01614 6.40501 0
M  V30 3641 H 344.602 -5.0932 5.90096 0
M  V30 3642 N 348.832 -1.54138 -0.328536 0
M  V30 3643 C 349.742 -1.86192 -1.42723 0
M  V30 3644 C 350.758 -0.753382 -1.56844 0
M  V30 3645 O 351.934 -1.04718 -1.72035 0
M  V30 3646 C 348.999 -2.07824 -2.77507 0
M  V30 3647 C 348.06 -3.31641 -2.72603 0
M  V30 3648 C 347.293 -3.52232 -4.00959 0
M  V30 3649 O 347.516 -2.7636 -4.9898 0
M  V30 3650 O 346.45 -4.45699 -4.0452 0
M  V30 3651 H 350.276 -2.79608 -1.18547 0
M  V30 3652 H 347.861 -1.3998 -0.522104 0
M  V30 3653 H 349.743 -2.23411 -3.57303 0
M  V30 3654 H 348.418 -1.17596 -3.01584 0
M  V30 3655 H 347.325 -3.21444 -1.91376 0
M  V30 3656 H 348.658 -4.2191 -2.53481 0
M  V30 3657 N 350.31 0.590341 -1.46126 0
M  V30 3658 C 351.24 1.71032 -1.58966 0
M  V30 3659 C 352.221 1.64302 -0.440335 0
M  V30 3660 O 353.406 1.82436 -0.665634 0
M  V30 3661 C 350.536 3.09665 -1.57241 0
M  V30 3662 C 349.49 3.31221 -2.71066 0
M  V30 3663 C 348.816 4.70303 -2.54399 0
M  V30 3664 C 350.116 3.19796 -4.1295 0
M  V30 3665 H 351.81 1.60543 -2.52718 0
M  V30 3666 H 349.356 0.770933 -1.21625 0
M  V30 3667 H 351.309 3.87831 -1.64819 0
M  V30 3668 H 350.033 3.21036 -0.600289 0
M  V30 3669 H 348.692 2.55452 -2.62944 0
M  V30 3670 H 348.34 4.78429 -1.55288 0
M  V30 3671 H 348.04 4.85679 -3.30741 0
M  V30 3672 H 349.564 5.50647 -2.63857 0
M  V30 3673 H 350.978 3.87815 -4.22223 0
M  V30 3674 H 349.375 3.46696 -4.89818 0
M  V30 3675 H 350.445 2.16983 -4.33643 0
M  V30 3676 N 351.788 1.33704 0.83433 0
M  V30 3677 C 352.736 1.24323 1.96587 0
M  V30 3678 C 353.73 0.143659 1.6879 0
M  V30 3679 O 354.936 0.30791 1.77347 0
M  V30 3680 H 351.311 0.385925 0.645419 0
M  V30 3681 H 353.282 2.19978 2.01624 0
M  V30 3682 C 352.031 1.00394 3.32891 0
M  V30 3683 H 351.354 1.84231 3.54822 0
M  V30 3684 H 352.794 0.97862 4.12552 0
M  V30 3685 C 351.253 -0.293047 3.35623 0
M  V30 3686 O 351.783 -1.29823 3.80143 0
M  V30 3687 N 349.989 -0.322174 2.88809 0
M  V30 3688 H 349.536 0.496379 2.52772 0
M  V30 3689 H 349.494 -1.18977 2.91019 0
M  V30 3690 N 353.266 -1.05314 1.17247 0
M  V30 3691 C 354.199 -2.12512 0.831507 0
M  V30 3692 C 355.177 -1.61351 -0.201168 0
M  V30 3693 O 356.361 -1.88317 -0.0829831 0
M  V30 3694 C 353.488 -3.37848 0.24015 0
M  V30 3695 C 352.534 -4.07832 1.24801 0
M  V30 3696 S 353.367 -4.56537 2.79882 0
M  V30 3697 C 354.523 -5.85122 2.22223 0
M  V30 3698 H 354.756 -2.41106 1.7394 0
M  V30 3699 H 352.289 -1.17896 0.996988 0
M  V30 3700 H 354.247 -4.10391 -0.0945588 0
M  V30 3701 H 352.908 -3.07392 -0.645668 0
M  V30 3702 H 352.101 -4.97883 0.78287 0
M  V30 3703 H 351.703 -3.41348 1.52831 0
M  V30 3704 H 353.995 -6.58408 1.59703 0
M  V30 3705 H 354.938 -6.36381 3.10523 0
M  V30 3706 H 355.346 -5.39626 1.65722 0
M  V30 3707 N 354.744 -0.972509 -1.24016 0
M  V30 3708 C 355.992 -0.635776 -1.91839 0
M  V30 3709 C 356.313 0.832312 -1.76345 0
M  V30 3710 O 355.583 1.5946 -1.13795 0
M  V30 3711 H 354.163 -0.232157 -0.710009 0
M  V30 3712 H 356.825 -1.23462 -1.50809 0
M  V30 3713 H 355.921 -0.880545 -2.99421 0
M  V30 3714 N 356.222 1.38976 -0.743202 0
M  V30 3715 C 357.154 2.29096 -0.0689228 0
M  V30 3716 C 358.167 1.47229 0.694791 0
M  V30 3717 O 359.356 1.70212 0.537597 0
M  V30 3718 C 356.456 3.25988 0.926548 0
M  V30 3719 C 355.629 4.36833 0.222647 0
M  V30 3720 C 354.688 5.13981 1.12739 0
M  V30 3721 O 353.714 5.6601 0.601795 0
M  V30 3722 N 354.916 5.25966 2.45641 0
M  V30 3723 H 357.681 2.87604 -0.842846 0
M  V30 3724 H 355.242 1.50645 -0.593109 0
M  V30 3725 H 357.234 3.74476 1.5346 0
M  V30 3726 H 355.804 2.68453 1.60162 0
M  V30 3727 H 355.024 3.90116 -0.565983 0
M  V30 3728 H 356.312 5.0811 -0.264841 0
M  V30 3729 H 355.71 4.85228 2.9081 0
M  V30 3730 H 354.267 5.77865 3.01522 0
M  V30 3731 N 357.7 0.491464 1.49741 0
M  V30 3732 C 359.116 0.146835 1.58923 0
M  V30 3733 C 359.316 -1.34804 1.49767 0
M  V30 3734 O 358.372 -2.12317 1.36667 0
M  V30 3735 C 359.685 0.715157 2.92072 0
M  V30 3736 C 361.233 0.680407 3.05515 0
M  V30 3737 C 361.708 1.22663 4.41269 0
M  V30 3738 N 363.199 1.18691 4.47735 0
M  V30 3739 C 363.934 1.57984 5.51207 0
M  V30 3740 N 363.43 2.04824 6.6183 0
M  V30 3741 N 365.223 1.49459 5.41866 0
M  V30 3742 H 357.374 1.46347 1.53936 0
M  V30 3743 H 359.637 0.606453 0.728642 0
M  V30 3744 H 359.343 1.76317 3.04311 0
M  V30 3745 H 359.217 0.17018 3.76816 0
M  V30 3746 H 361.604 -0.358743 2.92911 0
M  V30 3747 H 361.685 1.26242 2.22478 0
M  V30 3748 H 361.329 2.26451 4.54623 0
M  V30 3749 H 361.259 0.620637 5.2293 0
M  V30 3750 H 363.75 0.843605 3.68364 0
M  V30 3751 H 364.063 2.32901 7.3687 0
M  V30 3752 H 362.408 2.08791 6.62896 0
M  V30 3753 H 365.599 1.12692 4.54333 0
M  V30 3754 H 365.772 1.80406 6.22381 0
M  V30 3755 N 359.178 -1.55987 0.224894 0
M  V30 3756 C 360.418 -2.00293 -0.407706 0
M  V30 3757 C 360.782 -1.1093 -1.56711 0
M  V30 3758 O 361.983 -1.44597 -2.26595 0
M  V30 3759 C 360.254 -3.47675 -0.82805 0
M  V30 3760 S 361.813 -4.14 -1.45429 0
M  V30 3761 H 358.631 -0.699152 -0.129256 0
M  V30 3762 H 361.233 -1.92609 0.334967 0
M  V30 3763 H 359.937 -4.10392 0.0253964 0
M  V30 3764 H 359.468 -3.59239 -1.60345 0
M  V30 3765 H 361.483 -4.13465 -2.74337 0
M  V30 3766 N 360.656 0.0484629 -1.57525 0
M  V30 3767 C 361.881 0.759177 -1.93006 0
M  V30 3768 C 362.306 1.69125 -0.823317 0
M  V30 3769 O 361.664 1.79931 0.222364 0
M  V30 3770 C 361.712 1.50899 -3.27509 0
M  V30 3771 O 360.816 2.62112 -3.18388 0
M  V30 3772 H 360.157 0.205564 -0.631379 0
M  V30 3773 H 362.687 0.00972959 -2.04598 0
M  V30 3774 H 362.697 1.88317 -3.6194 0
M  V30 3775 H 361.372 0.825269 -4.0763 0
M  V30 3776 H 359.949 2.27379 -2.95556 0
M  V30 3777 N 362.134 1.5431 0.320358 0
M  V30 3778 C 363.411 1.63322 1.07635 0
M  V30 3779 C 363.791 0.46912 2.05821 0
M  V30 3780 O 363.139 -0.536274 2.22118 0
M  V30 3781 C 363.349 3.00465 1.77544 0
M  V30 3782 C 364.697 3.56621 2.30449 0
M  V30 3783 O 365.721 3.02791 1.87606 0
M  V30 3784 O 364.58 4.5083 3.08892 0
M  V30 3785 H 361.674 0.661502 0.496331 0
M  V30 3786 H 364.22 1.66656 0.319992 0
M  V30 3787 H 362.992 3.76629 1.06143 0
M  V30 3788 H 362.615 3.00824 2.59982 0
M  V30 3789 N 363.613 -0.582584 1.46437 0
M  V30 3790 C 364.841 -1.36682 1.55324 0
M  V30 3791 C 365.256 -1.87796 0.194409 0
M  V30 3792 O 364.613 -1.63623 -0.808318 0
M  V30 3793 C 364.664 -2.55426 2.55812 0
M  V30 3794 O 364.385 -2.0643 3.86417 0
M  V30 3795 C 365.886 -3.47976 2.74641 0
M  V30 3796 H 363.106 -0.417545 0.525259 0
M  V30 3797 H 365.65 -0.708219 1.91845 0
M  V30 3798 H 363.805 -3.17275 2.22295 0
M  V30 3799 H 364.219 -2.83762 4.41111 0
M  V30 3800 H 365.693 -4.27775 3.48874 0
M  V30 3801 H 366.17 -3.99919 1.81553 0
M  V30 3802 H 366.776 -2.91962 3.09255 0
M  V30 3803 N 365.091 -1.34144 -0.827227 0
M  V30 3804 C 366.507 -1.13732 -1.11969 0
M  V30 3805 C 366.707 0.0640463 -2.01398 0
M  V30 3806 O 365.763 0.740856 -2.41387 0
M  V30 3807 C 367.076 -2.43047 -1.77055 0
M  V30 3808 C 368.624 -2.49063 -1.89569 0
M  V30 3809 C 369.099 -3.78369 -2.58072 0
M  V30 3810 N 370.59 -3.79505 -2.65575 0
M  V30 3811 C 371.325 -4.76274 -3.19297 0
M  V30 3812 N 370.821 -5.83424 -3.73616 0
M  V30 3813 N 372.614 -4.63735 -3.17658 0
M  V30 3814 H 364.765 -2.11126 -0.232296 0
M  V30 3815 H 367.028 -0.933424 -0.165602 0
M  V30 3816 H 366.734 -3.31025 -1.18807 0
M  V30 3817 H 366.608 -2.56066 -2.76966 0
M  V30 3818 H 368.995 -1.61527 -2.46968 0
M  V30 3819 H 369.076 -2.39975 -0.885745 0
M  V30 3820 H 368.72 -4.66293 -2.01329 0
M  V30 3821 H 368.65 -3.84737 -3.59562 0
M  V30 3822 H 371.141 -3.02074 -2.27068 0
M  V30 3823 H 371.454 -6.53282 -4.12846 0
M  V30 3824 H 369.799 -5.87143 -3.71871 0
M  V30 3825 H 372.99 -3.79177 -2.74486 0
M  V30 3826 H 373.163 -5.39318 -3.59221 0
M  V30 3827 N 366.569 1.04691 -1.17803 0
M  V30 3828 C 367.817 1.7743 -0.967617 0
M  V30 3829 C 368.138 1.88359 0.504574 0
M  V30 3830 O 367.408 1.40402 1.36617 0
M  V30 3831 H 365.988 0.657242 -0.355024 0
M  V30 3832 H 368.65 1.2638 -1.48371 0
M  V30 3833 H 367.746 2.78924 -1.40027 0
M  V30 3834 N 368.047 0.979072 1.23499 0
M  V30 3835 C 369.296 0.642751 1.91185 0
M  V30 3836 C 369.609 -0.827253 1.77245 0
M  V30 3837 O 370.815 -1.27458 2.39722 0
M  V30 3838 C 369.271 1.09901 3.42709 0
M  V30 3839 C 368.879 2.59327 3.65313 0
M  V30 3840 C 370.623 0.836371 4.16179 0
M  V30 3841 C 368.53 2.98627 5.10467 0
M  V30 3842 H 367.46 0.236698 0.715884 0
M  V30 3843 H 370.111 1.1868 1.39955 0
M  V30 3844 H 368.493 0.48319 3.93041 0
M  V30 3845 H 369.667 3.26136 3.25533 0
M  V30 3846 H 367.982 2.83323 3.05151 0
M  V30 3847 H 370.579 1.10586 5.23139 0
M  V30 3848 H 370.922 -0.227509 4.15678 0
M  V30 3849 H 371.455 1.41371 3.71832 0
M  V30 3850 H 368.194 4.04133 5.16098 0
M  V30 3851 H 367.714 2.3651 5.51201 0
M  V30 3852 H 369.393 2.89159 5.78788 0
M  V30 3853 N 369.525 -1.3858 0.750561 0
M  V30 3854 C 370.771 -2.00481 0.305825 0
M  V30 3855 C 371.104 -1.5944 -1.10872 0
M  V30 3856 O 370.379 -0.83052 -1.75877 0
M  V30 3857 C 370.662 -3.5758 0.425287 0
M  V30 3858 C 370.515 -4.08594 1.88072 0
M  V30 3859 C 371.834 -4.39719 -0.183122 0
M  V30 3860 H 368.953 -0.728348 0.112598 0
M  V30 3861 H 371.595 -1.64566 0.949638 0
M  V30 3862 H 369.745 -3.88306 -0.122828 0
M  V30 3863 H 371.417 -3.88523 2.48691 0
M  V30 3864 H 369.66 -3.61574 2.39681 0
M  V30 3865 H 370.331 -5.177 1.91548 0
M  V30 3866 H 372.807 -4.15128 0.284303 0
M  V30 3867 H 371.683 -5.48856 -0.0692757 0
M  V30 3868 H 371.944 -4.23434 -1.27106 0
M  V30 3869 N 371.003 -0.499398 -1.49478 0
M  V30 3870 C 372.25 0.0456899 -2.02448 0
M  V30 3871 C 372.578 1.37142 -1.37921 0
M  V30 3872 O 371.833 1.89111 -0.503544 0
M  V30 3873 C 372.132 0.248424 -3.56536 0
M  V30 3874 C 371.798 -0.999107 -4.39692 0
M  V30 3875 C 370.46 -1.34108 -4.62135 0
M  V30 3876 C 372.812 -1.82842 -4.88076 0
M  V30 3877 C 370.14 -2.51191 -5.30208 0
M  V30 3878 C 372.492 -2.99076 -5.57437 0
M  V30 3879 C 371.156 -3.33655 -5.78127 0
M  V30 3880 H 370.426 0.0167191 -0.740811 0
M  V30 3881 H 373.073 -0.65923 -1.79795 0
M  V30 3882 H 371.378 1.03586 -3.77859 0
M  V30 3883 H 373.075 0.684605 -3.95113 0
M  V30 3884 H 369.665 -0.722729 -4.22463 0
M  V30 3885 H 373.849 -1.57737 -4.70566 0
M  V30 3886 H 369.105 -2.78221 -5.44429 0
M  V30 3887 H 373.279 -3.63664 -5.93904 0
M  V30 3888 H 370.906 -4.24483 -6.30649 0
M  V30 3889 N 372.481 1.55866 -0.233164 0
M  V30 3890 C 373.391 2.24431 0.683217 0
M  V30 3891 C 374.407 1.2558 1.2044 0
M  V30 3892 O 375.583 1.58422 1.24356 0
M  V30 3893 C 372.648 2.91979 1.86947 0
M  V30 3894 C 371.709 4.06204 1.38912 0
M  V30 3895 C 370.942 4.70522 2.51883 0
M  V30 3896 O 371.165 4.33865 3.70293 0
M  V30 3897 O 370.099 5.59296 2.22423 0
M  V30 3898 H 373.925 3.03426 0.129059 0
M  V30 3899 H 371.51 1.494 -0.0022283 0
M  V30 3900 H 373.392 3.34573 2.56201 0
M  V30 3901 H 372.067 2.15935 2.41151 0
M  V30 3902 H 370.974 3.68155 0.664259 0
M  V30 3903 H 372.307 4.84025 0.893328 0
M  V30 3904 N 373.959 -0.0401083 1.57549 0
M  V30 3905 C 375.236 -0.767917 1.79896 0
M  V30 3906 C 375.616 -1.9416 0.82856 0
M  V30 3907 O 374.964 -2.2812 -0.131671 0
M  V30 3908 C 375.174 -1.2113 3.27305 0
M  V30 3909 C 376.522 -1.63175 3.91994 0
M  V30 3910 O 377.546 -1.30616 3.31388 0
M  V30 3911 O 376.405 -2.23565 4.98679 0
M  V30 3912 H 373.499 -0.370441 0.739393 0
M  V30 3913 H 376.045 -0.017737 1.69691 0
M  V30 3914 H 374.817 -0.372937 3.89519 0
M  V30 3915 H 374.44 -2.02183 3.42356 0
M  V30 3916 N 375.437 -1.54477 -0.31217 0
M  V30 3917 C 376.683 -1.73483 -1.0503 0
M  V30 3918 C 377.016 -0.513125 -1.87298 0
M  V30 3919 O 376.291 0.489864 -1.8823 0
M  V30 3920 C 376.574 -3.01723 -1.96558 0
M  V30 3921 C 376.427 -4.3417 -1.17545 0
M  V30 3922 C 377.746 -3.25772 -2.95907 0
M  V30 3923 H 374.865 -0.631222 -0.380432 0
M  V30 3924 H 377.507 -1.87184 -0.325932 0
M  V30 3925 H 375.657 -2.90174 -2.58324 0
M  V30 3926 H 377.329 -4.5762 -0.581513 0
M  V30 3927 H 375.572 -4.31159 -0.477925 0
M  V30 3928 H 376.243 -5.20143 -1.84811 0
M  V30 3929 H 378.719 -3.36857 -2.44267 0
M  V30 3930 H 377.595 -4.16838 -3.57123 0
M  V30 3931 H 377.856 -2.43537 -3.68974 0
M  V30 3932 N 376.915 0.57481 -1.46744 0
M  V30 3933 C 377.862 1.68329 -1.57905 0
M  V30 3934 C 378.832 1.60625 -0.422927 0
M  V30 3935 O 380.017 1.79721 -0.640711 0
M  V30 3936 C 377.157 3.06665 -1.58274 0
M  V30 3937 C 376.27 3.24935 -2.84678 0
M  V30 3938 C 375.405 4.53566 -2.76499 0
M  V30 3939 C 374.444 4.65207 -3.97806 0
M  V30 3940 N 373.581 5.85172 -3.87967 0
M  V30 3941 H 378.421 1.58127 -2.52587 0
M  V30 3942 H 375.958 0.770552 -1.25303 0
M  V30 3943 H 377.916 3.86745 -1.56473 0
M  V30 3944 H 376.546 3.15745 -0.671194 0
M  V30 3945 H 375.598 2.38405 -2.96424 0
M  V30 3946 H 376.91 3.29403 -3.7456 0
M  V30 3947 H 376.064 5.41885 -2.72848 0
M  V30 3948 H 374.803 4.51548 -1.8427 0
M  V30 3949 H 373.808 3.75304 -4.0178 0
M  V30 3950 H 375.033 4.68997 -4.9114 0
M  V30 3951 H 372.979 5.84137 -2.98529 0
M  V30 3952 H 372.896 5.90943 -4.71511 0
M  V30 3953 H 374.164 6.759 -3.88303 0
M  V30 3954 N 378.394 1.34581 0.820102 0
M  V30 3955 C 379.64 1.27285 1.57881 0
M  V30 3956 C 379.973 -0.156137 1.93571 0
M  V30 3957 O 379.248 -1.10222 1.60254 0
M  V30 3958 C 379.531 2.16639 2.87645 0
M  V30 3959 C 379.384 3.68088 2.58517 0
M  V30 3960 C 380.703 2.05378 3.8924 0
M  V30 3961 H 377.822 0.463714 0.572833 0
M  V30 3962 H 380.464 1.64859 0.944539 0
M  V30 3963 H 378.614 1.84725 3.41773 0
M  V30 3964 H 380.286 4.10382 2.10676 0
M  V30 3965 H 378.529 3.89038 1.91917 0
M  V30 3966 H 379.2 4.2598 3.51063 0
M  V30 3967 H 381.676 2.33404 3.44473 0
M  V30 3968 H 380.552 2.7012 4.77835 0
M  V30 3969 H 380.813 1.0316 4.29896 0
M  V30 3970 N 379.872 -1.04064 1.18357 0
M  V30 3971 C 381.283 -1.58719 0.98312 0
M  V30 3972 C 381.634 -1.90556 -0.467193 0
M  V30 3973 O 380.759 -1.69561 -1.34454 0
M  V30 3974 C 381.354 -2.88379 1.77828 0
M  V30 3975 C 379.913 -3.3965 1.62218 0
M  V30 3976 C 379.06 -2.13235 1.77274 0
M  V30 3977 H 382.011 -0.867359 1.32901 0
M  V30 3978 H 382.032 -3.58773 1.26737 0
M  V30 3979 H 381.544 -2.65176 2.83379 0
M  V30 3980 H 379.645 -3.67866 0.592036 0
M  V30 3981 H 379.758 -4.13475 2.42023 0
M  V30 3982 H 378.122 -2.24542 1.20221 0
M  V30 3983 H 378.905 -1.92487 2.8426 0
M  V30 3984 N 381.35 -0.985608 -1.22978 0
M  V30 3985 C 382.297 -0.529825 -2.24636 0
M  V30 3986 C 383.267 0.434028 -1.60329 0
M  V30 3987 O 384.452 0.340414 -1.87739 0
M  V30 3988 C 381.592 0.156533 -3.44745 0
M  V30 3989 C 380.705 -0.848197 -4.23591 0
M  V30 3990 C 379.84 -0.136109 -5.31026 0
M  V30 3991 C 378.879 -1.1297 -6.01585 0
M  V30 3992 N 378.016 -0.446415 -7.00679 0
M  V30 3993 H 382.856 -1.40148 -2.62988 0
M  V30 3994 H 380.393 -0.702168 -1.29259 0
M  V30 3995 H 382.351 0.571324 -4.1327 0
M  V30 3996 H 380.981 0.992025 -3.07179 0
M  V30 3997 H 380.033 -1.38135 -3.54433 0
M  V30 3998 H 381.345 -1.60512 -4.72268 0
M  V30 3999 H 380.499 0.335784 -6.0577 0
M  V30 4000 H 379.238 0.653373 -4.83304 0
M  V30 4001 H 378.243 -1.6123 -5.25628 0
M  V30 4002 H 379.468 -1.91993 -6.51395 0
M  V30 4003 H 377.414 0.323763 -6.55201 0
M  V30 4004 H 377.331 -1.1419 -7.47326 0
M  V30 4005 H 378.599 0.00291697 -7.795 0
M  V30 4006 N 382.828 1.3818 -0.7579 0
M  V30 4007 C 383.738 2.3421 -0.135247 0
M  V30 4008 C 384.754 1.59487 0.695683 0
M  V30 4009 O 385.93 1.91657 0.618832 0
M  V30 4010 C 382.995 3.3862 0.744139 0
M  V30 4011 C 382.056 4.2918 -0.101658 0
M  V30 4012 C 381.289 5.28603 0.735851 0
M  V30 4013 O 381.512 5.35166 1.97366 0
M  V30 4014 O 380.446 6.01707 0.152372 0
M  V30 4015 H 384.272 2.8916 -0.928436 0
M  V30 4016 H 381.857 1.40101 -0.518855 0
M  V30 4017 H 383.739 4.02539 1.2466 0
M  V30 4018 H 382.414 2.86019 1.51575 0
M  V30 4019 H 381.321 3.68407 -0.650167 0
M  V30 4020 H 382.654 4.85048 -0.836024 0
M  V30 4021 N 384.306 0.507319 1.49211 0
M  V30 4022 C 385.254 -0.281364 2.30892 0
M  V30 4023 C 386.248 -0.95687 1.39787 0
M  V30 4024 O 387.454 -0.883838 1.56807 0
M  V30 4025 H 383.829 -0.109597 0.743971 0
M  V30 4026 H 385.8 0.42744 2.95323 0
M  V30 4027 C 384.549 -1.32918 3.21291 0
M  V30 4028 H 383.872 -0.818799 3.91326 0
M  V30 4029 H 385.312 -1.85288 3.81372 0
M  V30 4030 C 383.771 -2.35074 2.41333 0
M  V30 4031 O 384.301 -3.4108 2.12197 0
M  V30 4032 N 382.507 -2.07705 2.03241 0
M  V30 4033 H 382.054 -1.2152 2.27136 0
M  V30 4034 H 382.012 -2.76283 1.50051 0
M  V30 4035 N 385.784 -1.5574 0.241426 0
M  V30 4036 C 387.03 -1.99104 -0.385406 0
M  V30 4037 C 387.363 -1.1293 -1.57988 0
M  V30 4038 O 386.638 -0.191449 -1.93555 0
M  V30 4039 C 386.921 -3.51087 -0.800616 0
M  V30 4040 C 386.774 -4.48028 0.398874 0
M  V30 4041 C 388.093 -4.08015 -1.64959 0
M  V30 4042 H 385.212 -0.723848 -0.138614 0
M  V30 4043 H 387.854 -1.86903 0.341642 0
M  V30 4044 H 386.004 -3.61615 -1.4201 0
M  V30 4045 H 387.676 -4.49487 1.03726 0
M  V30 4046 H 385.919 -4.21077 1.04293 0
M  V30 4047 H 386.59 -5.51962 0.0651056 0
M  V30 4048 H 389.066 -4.00555 -1.12672 0
M  V30 4049 H 387.942 -5.14635 -1.90898 0
M  V30 4050 H 388.203 -3.56131 -2.61961 0
M  V30 4051 N 387.262 0.0317525 -1.57568 0
M  V30 4052 C 388.192 1.03274 -2.0942 0
M  V30 4053 C 389.173 1.3788 -0.996143 0
M  V30 4054 O 390.358 1.46811 -1.27122 0
M  V30 4055 C 387.488 2.33448 -2.57137 0
M  V30 4056 C 386.442 2.13091 -3.71182 0
M  V30 4057 C 385.768 3.49001 -4.05095 0
M  V30 4058 C 387.068 1.51928 -4.99715 0
M  V30 4059 H 388.762 0.60112 -2.93303 0
M  V30 4060 H 386.308 0.287705 -1.41097 0
M  V30 4061 H 388.261 3.03802 -2.92032 0
M  V30 4062 H 386.985 2.78665 -1.70333 0
M  V30 4063 H 385.644 1.45171 -3.36632 0
M  V30 4064 H 385.292 3.91862 -3.15362 0
M  V30 4065 H 384.992 3.36207 -4.81911 0
M  V30 4066 H 386.516 4.20721 -4.42522 0
M  V30 4067 H 387.93 2.12196 -5.32584 0
M  V30 4068 H 386.327 1.49716 -5.81124 0
M  V30 4069 H 387.397 0.484811 -4.8247 0
M  V30 4070 N 388.74 1.54641 0.303973 0
M  V30 4071 C 389.989 1.7299 1.03717 0
M  V30 4072 C 390.302 0.521168 1.88529 0
M  V30 4073 O 391.508 0.586408 2.65092 0
M  V30 4074 C 389.964 3.06051 1.89369 0
M  V30 4075 C 389.572 4.34393 1.09574 0
M  V30 4076 C 391.316 3.3376 2.62306 0
M  V30 4077 C 389.223 5.58506 1.94486 0
M  V30 4078 H 388.153 0.64473 0.390947 0
M  V30 4079 H 390.804 1.81124 0.294328 0
M  V30 4080 H 389.186 2.91874 2.67629 0
M  V30 4081 H 390.36 4.59396 0.359485 0
M  V30 4082 H 388.675 4.13597 0.482324 0
M  V30 4083 H 391.272 4.23687 3.26181 0
M  V30 4084 H 391.615 2.52503 3.3098 0
M  V30 4085 H 392.148 3.48894 1.91097 0
M  V30 4086 H 388.887 6.42422 1.30287 0
M  V30 4087 H 388.407 5.37694 2.65792 0
M  V30 4088 H 390.086 5.95651 2.52605 0
M  V30 4089 N 390.218 -0.567019 1.47046 0
M  V30 4090 C 391.466 -1.322 1.52864 0
M  V30 4091 C 391.787 -1.94088 0.188388 0
M  V30 4092 O 391.057 -1.7941 -0.786693 0
M  V30 4093 H 389.637 -0.490894 0.563056 0
M  V30 4094 H 392.299 -0.662879 1.83281 0
M  V30 4095 H 391.395 -2.12062 2.2899 0
M  V30 4096 N 391.696 -1.35014 -0.812953 0
M  V30 4097 C 392.973 -1.18502 -1.55617 0
M  V30 4098 C 393.353 0.238421 -2.09749 0
M  V30 4099 O 392.701 1.2411 -1.91857 0
M  V30 4100 C 392.911 -2.24783 -2.66971 0
M  V30 4101 C 394.259 -2.60268 -3.35478 0
M  V30 4102 O 395.283 -2.23648 -2.77236 0
M  V30 4103 O 394.142 -3.2321 -4.40678 0
M  V30 4104 H 391.236 -0.459984 -0.687272 0
M  V30 4105 H 393.782 -1.46677 -0.853464 0
M  V30 4106 H 392.554 -3.20284 -2.24798 0
M  V30 4107 H 392.177 -1.97841 -3.44884 0
M  V30 4108 N 393.175 1.03435 -1.18907 0
M  V30 4109 C 394.423 1.76394 -0.986382 0
M  V30 4110 C 394.744 1.88883 0.484567 0
M  V30 4111 O 394.014 1.41843 1.3512 0
M  V30 4112 H 392.594 0.65344 -0.361975 0
M  V30 4113 H 395.256 1.248 -1.49703 0
M  V30 4114 H 394.352 2.77424 -1.42978 0
M  V30 4115 N 394.653 0.992116 1.22453 0
M  V30 4116 C 395.616 0.546883 2.2258 0
M  V30 4117 C 396.616 -0.369829 1.56489 0
M  V30 4118 O 397.806 -0.161896 1.73446 0
M  V30 4119 C 394.938 -0.204659 3.40285 0
M  V30 4120 H 396.131 1.43234 2.63484 0
M  V30 4121 H 393.684 0.779239 1.3549 0
M  V30 4122 H 394.419 -1.10614 3.04853 0
M  V30 4123 H 394.204 0.45354 3.89468 0
M  V30 4124 H 395.694 -0.504358 4.14543 0
M  V30 4125 N 396.131 -1.37776 0.765217 0
M  V30 4126 C 397.379 -1.99454 0.325943 0
M  V30 4127 C 397.7 -1.61049 -1.09947 0
M  V30 4128 O 396.97 -0.872821 -1.75381 0
M  V30 4129 H 395.55 -0.737697 0.117525 0
M  V30 4130 H 398.212 -1.68359 0.981895 0
M  V30 4131 H 397.308 -3.09547 0.398353 0
M  V30 4132 N 397.609 -0.515225 -1.4894 0
M  V30 4133 C 398.856 0.024215 -2.02486 0
M  V30 4134 C 399.184 1.35671 -1.39368 0
M  V30 4135 O 398.439 1.88566 -0.523574 0
M  V30 4136 C 398.738 0.210595 -3.56779 0
M  V30 4137 C 398.404 -1.04569 -4.38607 0
M  V30 4138 C 397.066 -1.39002 -4.60686 0
M  V30 4139 C 399.418 -1.88008 -4.86109 0
M  V30 4140 C 396.746 -2.568 -5.27514 0
M  V30 4141 C 399.098 -3.04972 -5.54234 0
M  V30 4142 C 397.762 -3.39768 -5.74555 0
M  V30 4143 H 397.032 0.00886088 -0.740947 0
M  V30 4144 H 399.679 -0.678263 -1.79086 0
M  V30 4145 H 397.984 0.99572 -3.78936 0
M  V30 4146 H 399.681 0.642659 -3.95817 0
M  V30 4147 H 396.271 -0.767497 -4.21672 0
M  V30 4148 H 400.455 -1.62719 -4.68867 0
M  V30 4149 H 395.711 -2.8398 -5.41447 0
M  V30 4150 H 399.885 -3.69943 -5.90013 0
M  V30 4151 H 397.512 -4.31148 -6.26112 0
M  V30 4152 N 399.087 1.5561 -0.249682 0
M  V30 4153 C 400.034 2.21496 0.648694 0
M  V30 4154 C 401.004 1.17977 1.16921 0
M  V30 4155 O 402.189 1.46434 1.22318 0
M  V30 4156 C 399.329 2.92039 1.83868 0
M  V30 4157 C 398.442 4.10219 1.35442 0
M  V30 4158 C 397.577 4.6847 2.50419 0
M  V30 4159 C 396.616 5.78893 1.98869 0
M  V30 4160 N 395.753 6.31315 3.07223 0
M  V30 4161 H 400.593 2.97892 0.0801582 0
M  V30 4162 H 398.13 1.47074 0.0278031 0
M  V30 4163 H 400.088 3.31138 2.53778 0
M  V30 4164 H 398.718 2.18111 2.37965 0
M  V30 4165 H 397.77 3.76413 0.54928 0
M  V30 4166 H 399.082 4.89927 0.936649 0
M  V30 4167 H 398.236 5.10158 3.28366 0
M  V30 4168 H 396.975 3.87984 2.95499 0
M  V30 4169 H 395.98 5.3668 1.19393 0
M  V30 4170 H 397.205 6.61232 1.54755 0
M  V30 4171 H 395.151 5.53733 3.51732 0
M  V30 4172 H 395.068 7.06224 2.69784 0
M  V30 4173 H 396.336 6.77662 3.8522 0
M  V30 4174 N 400.565 -0.0233959 1.57583 0
M  V30 4175 C 401.811 -0.714119 1.89811 0
M  V30 4176 C 402.144 -1.74702 0.848113 0
M  V30 4177 O 401.419 -1.94023 -0.136135 0
M  V30 4178 C 401.702 -1.37853 3.32669 0
M  V30 4179 C 401.555 -0.358764 4.48367 0
M  V30 4180 C 402.874 -2.31101 3.7454 0
M  V30 4181 H 399.993 -0.25814 0.690314 0
M  V30 4182 H 402.635 0.0230927 1.89986 0
M  V30 4183 H 400.785 -2.00689 3.3265 0
M  V30 4184 H 402.457 0.268115 4.6052 0
M  V30 4185 H 400.7 0.321387 4.32608 0
M  V30 4186 H 401.371 -0.862242 5.45224 0
M  V30 4187 H 403.847 -1.78304 3.75961 0
M  V30 4188 H 402.723 -2.74567 4.75294 0
M  V30 4189 H 402.984 -3.18018 3.0711 0
M  V30 4190 N 402.043 -1.548 -0.295768 0
M  V30 4191 C 403.006 -1.85363 -1.34808 0
M  V30 4192 C 404.006 -0.726817 -1.43436 0
M  V30 4193 O 405.196 -0.995088 -1.42981 0
M  V30 4194 C 402.328 -2.03859 -2.73229 0
M  V30 4195 H 403.521 -2.7941 -1.08949 0
M  V30 4196 H 401.074 -1.46942 -0.532702 0
M  V30 4197 H 401.809 -1.12117 -3.04303 0
M  V30 4198 H 401.594 -2.8588 -2.68356 0
M  V30 4199 H 403.084 -2.28857 -3.49305 0
M  V30 4200 N 403.521 0.559213 -1.47345 0
M  V30 4201 C 404.454 1.68201 -1.5422 0
M  V30 4202 C 405.432 1.57742 -0.394497 0
M  V30 4203 O 406.616 1.78628 -0.60201 0
M  V30 4204 C 403.743 3.0643 -1.44285 0
M  V30 4205 C 402.789 3.3534 -2.63532 0
M  V30 4206 S 403.622 3.24816 -4.25741 0
M  V30 4207 C 404.778 4.65542 -4.18355 0
M  V30 4208 H 405.011 1.62114 -2.49211 0
M  V30 4209 H 402.544 0.739871 -1.35519 0
M  V30 4210 H 404.502 3.86164 -1.3924 0
M  V30 4211 H 403.163 3.09984 -0.506816 0
M  V30 4212 H 402.356 4.36107 -2.52639 0
M  V30 4213 H 401.958 2.63221 -2.65689 0
M  V30 4214 H 404.25 5.56449 -3.86485 0
M  V30 4215 H 405.193 4.81493 -5.19202 0
M  V30 4216 H 405.601 4.43495 -3.49246 0
M  V30 4217 N 404.999 1.35443 0.805782 0
M  V30 4218 C 406.247 1.28507 1.55982 0
M  V30 4219 C 406.568 -0.140046 1.94496 0
M  V30 4220 O 405.838 -1.07666 1.63661 0
M  V30 4221 H 404.418 0.472676 0.578434 0
M  V30 4222 H 407.08 1.69555 0.961098 0
M  V30 4223 H 406.176 1.90148 2.47488 0
M  V30 4224 N 406.477 -1.02803 1.19454 0
M  V30 4225 C 407.44 -2.09264 0.934955 0
M  V30 4226 C 408.44 -1.60576 -0.0849015 0
M  V30 4227 O 409.63 -1.73554 0.149933 0
M  V30 4228 C 406.762 -3.38482 0.40531 0
M  V30 4229 H 407.955 -2.33726 1.87916 0
M  V30 4230 H 405.508 -1.19426 1.00832 0
M  V30 4231 H 406.243 -3.19689 -0.544899 0
M  V30 4232 H 406.028 -3.75142 1.14065 0
M  V30 4233 H 407.518 -4.16894 0.242806 0
M  V30 4234 N 407.956 -0.998596 -1.21925 0
M  V30 4235 C 409.203 -0.677663 -1.90824 0
M  V30 4236 C 409.531 0.790905 -1.77693 0
M  V30 4237 O 408.786 1.58817 -1.14349 0
M  V30 4238 C 409.085 -1.03648 -3.42041 0
M  V30 4239 C 408.751 -2.49825 -3.75364 0
M  V30 4240 C 407.413 -2.8977 -3.8417 0
M  V30 4241 C 409.765 -3.44545 -3.91073 0
M  V30 4242 C 407.093 -4.23412 -4.06127 0
M  V30 4243 C 409.445 -4.77853 -4.14535 0
M  V30 4244 C 408.109 -5.17531 -4.21566 0
M  V30 4245 H 407.379 -0.247975 -0.698276 0
M  V30 4246 H 410.026 -1.25584 -1.44571 0
M  V30 4247 H 408.331 -0.376457 -3.89987 0
M  V30 4248 H 410.028 -0.766113 -3.93614 0
M  V30 4249 H 406.618 -2.17866 -3.69097 0
M  V30 4250 H 410.802 -3.14853 -3.83642 0
M  V30 4251 H 406.058 -4.53734 -4.09799 0
M  V30 4252 H 410.232 -5.51189 -4.25633 0
M  V30 4253 H 407.859 -6.21102 -4.38333 0
M  V30 4254 N 409.434 1.37368 -0.772513 0
M  V30 4255 C 410.711 1.93839 -0.26188 0
M  V30 4256 C 411.091 1.7061 1.24319 0
M  V30 4257 O 410.439 1.05534 2.02669 0
M  V30 4258 C 410.649 3.43154 -0.636102 0
M  V30 4259 C 411.997 4.20249 -0.606324 0
M  V30 4260 O 413.021 3.5152 -0.575538 0
M  V30 4261 O 411.88 5.42809 -0.634086 0
M  V30 4262 H 408.974 0.82478 -0.0605555 0
M  V30 4263 H 411.52 1.4665 -0.853917 0
M  V30 4264 H 410.292 3.53647 -1.6748 0
M  V30 4265 H 409.915 3.97596 -0.0170516 0
M  V30 4266 N 410.912 0.523116 1.48665 0
M  V30 4267 C 411.859 -0.243398 2.29513 0
M  V30 4268 C 412.829 -0.940139 1.36933 0
M  V30 4269 O 414.014 -0.942503 1.65896 0
M  V30 4270 C 411.154 -1.28855 3.20141 0
M  V30 4271 C 410.267 -0.60135 4.27794 0
M  V30 4272 C 409.402 -1.62884 5.05611 0
M  V30 4273 C 408.441 -0.924726 6.05075 0
M  V30 4274 N 407.578 -1.89744 6.75975 0
M  V30 4275 H 412.418 0.452234 2.94549 0
M  V30 4276 H 409.955 0.234858 1.45213 0
M  V30 4277 H 411.913 -1.90674 3.71079 0
M  V30 4278 H 410.543 -1.95266 2.57043 0
M  V30 4279 H 409.595 0.130623 3.80176 0
M  V30 4280 H 410.907 -0.0481585 4.98777 0
M  V30 4281 H 410.061 -2.32149 5.60528 0
M  V30 4282 H 408.8 -2.21592 4.34452 0
M  V30 4283 H 407.805 -0.217966 5.49368 0
M  V30 4284 H 409.03 -0.343851 6.78229 0
M  V30 4285 H 406.976 -2.47373 6.07571 0
M  V30 4286 H 406.893 -1.3955 7.43009 0
M  V30 4287 H 408.161 -2.58229 7.35485 0
M  V30 4288 N 412.39 -1.55475 0.257931 0
M  V30 4289 C 413.618 -2.03609 -0.367559 0
M  V30 4290 C 414.033 -1.13687 -1.50734 0
M  V30 4291 O 413.39 -0.153479 -1.81853 0
M  V30 4292 C 413.441 -3.51001 -0.864908 0
M  V30 4293 O 413.162 -4.37499 0.229465 0
M  V30 4294 C 414.663 -4.14946 -1.55997 0
M  V30 4295 H 411.883 -0.665459 -0.0860521 0
M  V30 4296 H 414.427 -2.00843 0.385014 0
M  V30 4297 H 412.582 -3.54266 -1.56762 0
M  V30 4298 H 412.996 -5.24286 -0.14998 0
M  V30 4299 H 414.47 -5.19735 -1.85956 0
M  V30 4300 H 414.947 -3.6209 -2.4857 0
M  V30 4301 H 415.553 -4.15635 -0.901543 0
M  V30 4302 N 413.868 0.0150385 -1.57593 0
M  V30 4303 C 415.284 0.370907 -1.5523 0
M  V30 4304 C 415.484 1.75735 -0.985882 0
M  V30 4305 O 414.54 2.44944 -0.613077 0
M  V30 4306 C 415.853 0.259908 -2.99575 0
M  V30 4307 C 417.401 0.335959 -3.11192 0
M  V30 4308 C 417.876 0.254253 -4.57294 0
M  V30 4309 N 419.367 0.312618 -4.62144 0
M  V30 4310 C 420.102 0.272505 -5.72752 0
M  V30 4311 N 419.598 0.183864 -6.92556 0
M  V30 4312 N 421.391 0.323267 -5.6117 0
M  V30 4313 H 413.542 -0.892104 -1.92757 0
M  V30 4314 H 415.805 -0.340563 -0.884715 0
M  V30 4315 H 415.511 -0.693403 -3.44797 0
M  V30 4316 H 415.385 1.048 -3.62349 0
M  V30 4317 H 417.772 1.27971 -2.65909 0
M  V30 4318 H 417.853 -0.481739 -2.51223 0
M  V30 4319 H 417.497 -0.685887 -5.03247 0
M  V30 4320 H 417.427 1.09024 -5.15191 0
M  V30 4321 H 419.918 0.38307 -3.75953 0
M  V30 4322 H 420.231 0.15874 -7.72637 0
M  V30 4323 H 418.576 0.149708 -6.94839 0
M  V30 4324 H 421.767 0.390607 -4.66467 0
M  V30 4325 H 421.94 0.288539 -6.47357 0
M  V30 4326 N 415.346 1.54954 0.287554 0
M  V30 4327 C 416.757 1.65732 0.859634 0
M  V30 4328 C 417.108 0.574767 1.87592 0
M  V30 4329 O 416.233 -0.286299 2.14498 0
M  V30 4330 C 416.828 3.00438 1.56597 0
M  V30 4331 C 415.387 3.13292 2.08627 0
M  V30 4332 C 414.534 2.61473 0.923416 0
M  V30 4333 H 417.485 1.5857 0.0642338 0
M  V30 4334 H 417.506 2.92613 2.43224 0
M  V30 4335 H 417.018 3.79207 0.826053 0
M  V30 4336 H 415.119 2.39268 2.85625 0
M  V30 4337 H 415.232 4.19647 2.31157 0
M  V30 4338 H 413.596 2.18264 1.31275 0
M  V30 4339 H 414.379 3.42733 0.197241 0
M  V30 4340 N 416.824 -0.551391 1.4764 0
M  V30 4341 C 418.07 -1.31024 1.54792 0
M  V30 4342 C 418.403 -1.9304 0.211967 0
M  V30 4343 O 417.678 -1.78175 -0.77999 0
M  V30 4344 C 417.961 -2.41593 2.67029 0
M  V30 4345 C 417.814 -1.84408 4.10261 0
M  V30 4346 C 419.133 -3.43488 2.75143 0
M  V30 4347 H 416.252 -0.475031 0.563485 0
M  V30 4348 H 418.894 -0.616454 1.79722 0
M  V30 4349 H 417.044 -3.00772 2.45904 0
M  V30 4350 H 418.716 -1.29445 4.42766 0
M  V30 4351 H 416.959 -1.15051 4.18265 0
M  V30 4352 H 417.63 -2.64367 4.84576 0
M  V30 4353 H 420.106 -2.94236 2.94218 0
M  V30 4354 H 418.982 -4.18274 3.55441 0
M  V30 4355 H 419.243 -4.02703 1.82435 0
M  V30 4356 N 418.302 -1.35869 -0.798587 0
M  V30 4357 C 419.548 -1.2978 -1.55836 0
M  V30 4358 C 419.881 0.125322 -1.93795 0
M  V30 4359 O 419.156 1.07658 -1.61987 0
M  V30 4360 C 419.439 -2.21188 -2.84162 0
M  V30 4361 C 419.292 -3.72155 -2.52628 0
M  V30 4362 C 420.611 -2.11545 -3.85923 0
M  V30 4363 H 417.73 -0.472769 -0.565383 0
M  V30 4364 H 420.372 -1.66341 -0.918192 0
M  V30 4365 H 418.522 -1.90139 -3.38791 0
M  V30 4366 H 420.194 -4.13682 -2.04121 0
M  V30 4367 H 418.437 -3.92042 -1.85704 0
M  V30 4368 H 419.108 -4.31511 -3.44242 0
M  V30 4369 H 421.584 -2.38855 -3.40716 0
M  V30 4370 H 420.46 -2.77688 -4.73477 0
M  V30 4371 H 420.721 -1.09987 -4.282 0
M  V30 4372 N 419.78 1.02168 -1.19998 0
M  V30 4373 C 420.743 2.08765 -0.94604 0
M  V30 4374 C 421.743 1.60618 0.0763846 0
M  V30 4375 O 422.933 1.73472 -0.159135 0
M  V30 4376 C 420.065 3.38262 -0.423255 0
M  V30 4377 H 421.258 2.32726 -1.89153 0
M  V30 4378 H 418.811 1.1889 -1.01464 0
M  V30 4379 H 419.546 3.19974 0.527938 0
M  V30 4380 H 419.331 3.74532 -1.16053 0
M  V30 4381 H 420.821 4.16759 -0.264911 0
M  V30 4382 N 421.258 1.00505 1.21394 0
M  V30 4383 C 422.221 0.570459 2.21987 0
M  V30 4384 C 423.221 -0.353211 1.56873 0
M  V30 4385 O 424.411 -0.14349 1.73608 0
M  V30 4386 C 421.543 -0.168555 3.40483 0
M  V30 4387 H 422.736 1.46021 2.6195 0
M  V30 4388 H 420.289 0.793565 1.34656 0
M  V30 4389 H 421.024 -1.07374 3.06009 0
M  V30 4390 H 420.809 0.494823 3.88965 0
M  V30 4391 H 422.299 -0.460362 4.15055 0
M  V30 4392 N 422.737 -1.36956 0.779787 0
M  V30 4393 C 423.985 -1.99097 0.347079 0
M  V30 4394 C 424.306 -1.62206 -1.08232 0
M  V30 4395 O 423.576 -0.891373 -1.74446 0
M  V30 4396 H 422.156 -0.736409 0.125342 0
M  V30 4397 H 424.818 -1.67308 0.999696 0
M  V30 4398 H 423.914 -3.09107 0.431162 0
M  V30 4399 N 424.215 -0.530993 -1.48385 0
M  V30 4400 C 425.178 0.220497 -2.28137 0
M  V30 4401 C 426.178 0.866851 -1.35434 0
M  V30 4402 O 427.368 0.726746 -1.58316 0
M  V30 4403 C 424.5 1.31921 -3.1434 0
M  V30 4404 H 425.693 -0.479714 -2.96038 0
M  V30 4405 H 423.246 -0.286968 -1.53643 0
M  V30 4406 H 423.981 2.05264 -2.51072 0
M  V30 4407 H 423.766 0.86085 -3.82533 0
M  V30 4408 H 425.256 1.84776 -3.74497 0
M  V30 4409 N 425.693 1.55336 -0.266172 0
M  V30 4410 C 426.939 1.99692 0.353681 0
M  V30 4411 C 427.272 1.1543 1.56172 0
M  V30 4412 O 426.547 0.222218 1.93226 0
M  V30 4413 C 426.83 3.52316 0.74466 0
M  V30 4414 C 426.683 4.47337 -0.470101 0
M  V30 4415 C 428.002 4.10588 1.58447 0
M  V30 4416 H 425.121 0.725961 0.12708 0
M  V30 4417 H 427.763 1.86336 -0.371333 0
M  V30 4418 H 425.913 3.63829 1.36239 0
M  V30 4419 H 427.585 4.4778 -1.10864 0
M  V30 4420 H 425.828 4.19364 -1.10978 0
M  V30 4421 H 426.499 5.51788 -0.15291 0
M  V30 4422 H 428.975 4.02297 1.06286 0
M  V30 4423 H 427.851 5.17607 1.82686 0
M  V30 4424 H 428.112 3.60253 2.56262 0
M  V30 4425 N 427.171 -0.0066808 1.57599 0
M  V30 4426 C 428.419 -0.691552 1.899 0
M  V30 4427 C 428.74 -1.74682 0.866672 0
M  V30 4428 O 428.01 -1.95661 -0.0968189 0
M  V30 4429 H 426.59 -0.258416 0.700878 0
M  V30 4430 H 429.252 0.0326655 1.94873 0
M  V30 4431 H 428.348 -1.16702 2.8946 0
M  V30 4432 N 428.649 -1.55105 -0.279332 0
M  V30 4433 C 429.579 -1.90557 -1.34945 0
M  V30 4434 C 430.56 -0.766738 -1.51839 0
M  V30 4435 O 431.745 -1.02434 -1.64988 0
M  V30 4436 C 428.875 -2.17193 -2.71006 0
M  V30 4437 C 427.829 -3.33021 -2.68851 0
M  V30 4438 C 427.155 -3.45123 -4.08405 0
M  V30 4439 C 428.455 -4.69578 -2.28678 0
M  V30 4440 H 430.149 -2.80188 -1.05522 0
M  V30 4441 H 427.695 -1.34811 -0.506173 0
M  V30 4442 H 429.648 -2.40581 -3.45975 0
M  V30 4443 H 428.372 -1.24355 -3.01999 0
M  V30 4444 H 427.031 -3.0959 -1.9634 0
M  V30 4445 H 426.679 -2.49762 -4.3661 0
M  V30 4446 H 426.379 -4.22995 -4.07859 0
M  V30 4447 H 427.903 -3.70796 -4.85121 0
M  V30 4448 H 429.317 -4.92553 -2.93368 0
M  V30 4449 H 427.714 -5.5032 -2.39306 0
M  V30 4450 H 428.784 -4.68828 -1.23807 0
M  V30 4451 N 430.127 0.543554 -1.4793 0
M  V30 4452 C 431.09 1.63156 -1.60975 0
M  V30 4453 C 432.09 1.53346 -0.483899 0
M  V30 4454 O 433.28 1.5726 -0.749339 0
M  V30 4455 C 430.412 3.02743 -1.56716 0
M  V30 4456 H 431.605 1.52934 -2.57975 0
M  V30 4457 H 429.158 0.764557 -1.36324 0
M  V30 4458 H 429.893 3.18484 -0.611418 0
M  V30 4459 H 429.678 3.11272 -2.38438 0
M  V30 4460 H 431.168 3.81871 -1.6901 0
M  V30 4461 N 431.605 1.3629 0.791371 0
M  V30 4462 C 432.537 1.26321 1.91248 0
M  V30 4463 C 433.55 0.18313 1.61767 0
M  V30 4464 O 434.739 0.437682 1.73051 0
M  V30 4465 C 431.839 0.925901 3.26007 0
M  V30 4466 C 431.012 2.10746 3.83281 0
M  V30 4467 C 430.071 1.74352 4.96475 0
M  V30 4468 O 429.097 2.46416 5.13096 0
M  V30 4469 N 430.299 0.676058 5.7655 0
M  V30 4470 H 433.064 2.22915 2.00323 0
M  V30 4471 H 430.625 1.29659 0.969546 0
M  V30 4472 H 432.617 0.663636 3.99222 0
M  V30 4473 H 431.187 0.0491581 3.12561 0
M  V30 4474 H 430.407 2.53264 3.02077 0
M  V30 4475 H 431.695 2.8969 4.18279 0
M  V30 4476 H 431.093 0.0776467 5.65647 0
M  V30 4477 H 429.65 0.473612 6.50077 0
M  V30 4478 N 433.083 -1.0153 1.20538 0
M  V30 4479 C 434.499 -1.27461 0.96051 0
M  V30 4480 C 434.699 -1.98273 -0.359193 0
M  V30 4481 O 433.755 -2.27886 -1.0874 0
M  V30 4482 C 435.068 -2.10837 2.14402 0
M  V30 4483 C 436.616 -2.24099 2.18515 0
M  V30 4484 C 437.091 -3.10852 3.36355 0
M  V30 4485 N 438.582 -3.18441 3.36377 0
M  V30 4486 C 439.317 -3.85795 4.24205 0
M  V30 4487 N 438.813 -4.55264 5.22213 0
M  V30 4488 N 440.606 -3.82331 4.12043 0
M  V30 4489 H 432.757 -0.539907 2.05423 0
M  V30 4490 H 435.02 -0.30092 0.898972 0
M  V30 4491 H 434.726 -1.66144 3.09983 0
M  V30 4492 H 434.6 -3.11576 2.12604 0
M  V30 4493 H 436.987 -2.68016 1.23497 0
M  V30 4494 H 437.068 -1.22865 2.24361 0
M  V30 4495 H 436.712 -2.6764 4.31661 0
M  V30 4496 H 436.642 -4.12177 3.27746 0
M  V30 4497 H 439.133 -2.68978 2.65442 0
M  V30 4498 H 439.446 -5.04331 5.85551 0
M  V30 4499 H 437.791 -4.54085 5.26148 0
M  V30 4500 H 440.982 -3.27207 3.34743 0
M  V30 4501 H 441.155 -4.34547 4.807 0
M  V30 4502 N 434.561 -1.01147 -1.20859 0
M  V30 4503 C 435.524 -0.582224 -2.21682 0
M  V30 4504 C 436.524 0.344887 -1.57058 0
M  V30 4505 O 437.714 0.134281 -1.73682 0
M  V30 4506 C 434.846 0.150496 -3.40568 0
M  V30 4507 H 436.039 -1.47408 -2.61172 0
M  V30 4508 H 433.592 -0.800695 -1.34233 0
M  V30 4509 H 434.327 1.0575 -3.06574 0
M  V30 4510 H 434.112 -0.515444 -3.88697 0
M  V30 4511 H 435.602 0.438344 -4.15293 0
M  V30 4512 N 436.039 1.36541 -0.78704 0
M  V30 4513 C 436.969 2.32659 -0.197992 0
M  V30 4514 C 437.95 1.56533 0.665697 0
M  V30 4515 O 439.135 1.84698 0.60001 0
M  V30 4516 C 436.265 3.40778 0.669901 0
M  V30 4517 C 435.219 4.27897 -0.0937039 0
M  V30 4518 C 434.545 5.27163 0.894629 0
M  V30 4519 C 435.845 5.06334 -1.28154 0
M  V30 4520 H 437.539 2.82171 -1.00099 0
M  V30 4521 H 435.085 1.35665 -0.482793 0
M  V30 4522 H 437.038 4.07008 1.09191 0
M  V30 4523 H 435.762 2.89827 1.50558 0
M  V30 4524 H 434.421 3.6322 -0.49666 0
M  V30 4525 H 434.069 4.72486 1.72527 0
M  V30 4526 H 433.769 5.86317 0.388149 0
M  V30 4527 H 435.293 5.96266 1.31525 0
M  V30 4528 H 436.707 5.65617 -0.93541 0
M  V30 4529 H 435.104 5.74888 -1.72115 0
M  V30 4530 H 436.174 4.38114 -2.07807 0
M  V30 4531 N 437.518 0.538854 1.48102 0
M  V30 4532 C 438.795 -0.0568108 1.95517 0
M  V30 4533 C 439.175 -1.50408 1.48124 0
M  V30 4534 O 438.523 -2.17133 0.711727 0
M  V30 4535 C 438.733 0.0696262 3.48931 0
M  V30 4536 C 440.081 -0.0851202 4.24515 0
M  V30 4537 O 441.105 -0.0037347 3.562 0
M  V30 4538 O 439.964 -0.257025 5.45895 0
M  V30 4539 H 437.058 -0.0743695 0.823649 0
M  V30 4540 H 439.604 0.604081 1.58584 0
M  V30 4541 H 438.376 1.07744 3.76174 0
M  V30 4542 H 437.999 -0.629714 3.92582 0
M  V30 4543 N 438.996 -1.55193 0.274407 0
M  V30 4544 C 439.906 -2.26164 -0.623473 0
M  V30 4545 C 440.922 -1.28729 -1.17068 0
M  V30 4546 O 442.098 -1.61663 -1.20112 0
M  V30 4547 C 439.163 -2.96833 -1.7914 0
M  V30 4548 C 438.224 -4.09745 -1.28093 0
M  V30 4549 C 437.457 -4.77034 -2.3932 0
M  V30 4550 O 437.68 -4.4353 -3.5866 0
M  V30 4551 O 436.614 -5.64996 -2.07516 0
M  V30 4552 H 440.44 -3.03661 -0.0485661 0
M  V30 4553 H 438.025 -1.49341 0.0418382 0
M  V30 4554 H 439.907 -3.41248 -2.4724 0
M  V30 4555 H 438.582 -2.22253 -2.35341 0
M  V30 4556 H 437.489 -3.69787 -0.566416 0
M  V30 4557 H 438.822 -4.86224 -0.764683 0
M  V30 4558 N 440.474 -0.00167713 -1.576 0
M  V30 4559 C 441.437 0.974046 -2.07473 0
M  V30 4560 C 442.437 1.27143 -0.984444 0
M  V30 4561 O 443.627 1.21633 -1.24703 0
M  V30 4562 C 440.759 2.29849 -2.51759 0
M  V30 4563 H 441.952 0.54262 -2.9495 0
M  V30 4564 H 439.505 0.245829 -1.54355 0
M  V30 4565 H 440.24 2.77677 -1.67529 0
M  V30 4566 H 440.025 2.09584 -3.31386 0
M  V30 4567 H 441.515 2.9984 -2.90664 0
M  V30 4568 N 441.952 1.55251 0.271103 0
M  V30 4569 C 443.18 1.79974 1.02064 0
M  V30 4570 C 443.595 0.574003 1.79863 0
M  V30 4571 O 442.952 -0.456962 1.76686 0
M  V30 4572 C 443.003 3.02603 1.97772 0
M  V30 4573 O 442.724 4.20443 1.23124 0
M  V30 4574 C 444.225 3.39944 2.84522 0
M  V30 4575 H 441.445 0.599489 0.301419 0
M  V30 4576 H 443.989 2.02268 0.301313 0
M  V30 4577 H 442.144 2.8243 2.65165 0
M  V30 4578 H 442.558 4.89783 1.87651 0
M  V30 4579 H 444.032 4.28915 3.47471 0
M  V30 4580 H 444.509 2.59432 3.54389 0
M  V30 4581 H 445.115 3.62383 2.22618 0
M  V30 4582 N 443.43 -0.535701 1.48216 0
M  V30 4583 C 444.377 -1.64083 1.62312 0
M  V30 4584 C 445.347 -1.59448 0.465365 0
M  V30 4585 O 446.532 -1.77959 0.688135 0
M  V30 4586 C 443.672 -3.0236 1.66349 0
M  V30 4587 C 442.785 -3.17273 2.93193 0
M  V30 4588 C 441.92 -4.46075 2.88427 0
M  V30 4589 C 440.959 -4.54496 4.1 0
M  V30 4590 N 440.096 -5.7468 4.03345 0
M  V30 4591 H 444.936 -1.51374 2.5669 0
M  V30 4592 H 442.473 -0.737059 1.27302 0
M  V30 4593 H 444.431 -3.82461 1.66672 0
M  V30 4594 H 443.061 -3.13854 0.754672 0
M  V30 4595 H 442.113 -2.30462 3.02641 0
M  V30 4596 H 443.425 -3.19357 3.83162 0
M  V30 4597 H 442.579 -5.3446 2.87119 0
M  V30 4598 H 441.318 -4.46504 1.96177 0
M  V30 4599 H 440.323 -3.64519 4.11589 0
M  V30 4600 H 441.548 -4.5581 5.03402 0
M  V30 4601 H 439.494 -5.76017 3.13912 0
M  V30 4602 H 439.411 -5.78234 4.87013 0
M  V30 4603 H 440.679 -6.65367 4.06087 0
M  V30 4604 N 444.908 -1.36708 -0.784132 0
M  V30 4605 C 446.138 -1.34203 -1.57077 0
M  V30 4606 C 446.546 0.0774945 -1.89041 0
M  V30 4607 O 445.889 1.04628 -1.50992 0
M  V30 4608 C 445.951 -2.10351 -2.91535 0
M  V30 4609 C 445.615 -3.59405 -2.82272 0
M  V30 4610 C 446.612 -4.53545 -2.54151 0
M  V30 4611 C 444.297 -4.02362 -3.00683 0
M  V30 4612 C 446.291 -5.8862 -2.44551 0
M  V30 4613 C 443.978 -5.37526 -2.90704 0
M  V30 4614 C 444.976 -6.30468 -2.62677 0
M  V30 4615 O 444.664 -7.63149 -2.52702 0
M  V30 4616 H 444.396 -0.461791 -0.493685 0
M  V30 4617 H 446.95 -1.80475 -0.980712 0
M  V30 4618 H 445.18 -1.5875 -3.52612 0
M  V30 4619 H 446.869 -2.00636 -3.52845 0
M  V30 4620 H 447.635 -4.21669 -2.39625 0
M  V30 4621 H 443.514 -3.30389 -3.21503 0
M  V30 4622 H 447.058 -6.61133 -2.22596 0
M  V30 4623 H 442.955 -5.69008 -3.04795 0
M  V30 4624 H 443.723 -7.73331 -2.68144 0
M  V30 4625 N 446.386 1.0089 -1.21074 0
M  V30 4626 C 447.349 2.0775 -0.968129 0
M  V30 4627 C 448.349 1.6069 0.0593445 0
M  V30 4628 O 449.539 1.73293 -0.177525 0
M  V30 4629 C 446.671 3.37794 -0.459108 0
M  V30 4630 H 447.864 2.30707 -1.9161 0
M  V30 4631 H 445.417 1.17807 -1.02719 0
M  V30 4632 H 446.152 3.20516 0.49397 0
M  V30 4633 H 445.937 3.7328 -1.20019 0
M  V30 4634 H 447.427 4.16454 -0.309099 0
M  V30 4635 N 447.864 1.01787 1.20321 0
M  V30 4636 C 448.794 0.609625 2.25401 0
M  V30 4637 C 449.775 -0.375951 1.65893 0
M  V30 4638 O 450.96 -0.261101 1.92437 0
M  V30 4639 C 448.09 -0.0515995 3.47262 0
M  V30 4640 C 447.044 0.855095 4.19371 0
M  V30 4641 C 446.37 0.0595757 5.34667 0
M  V30 4642 C 447.67 2.16374 4.75373 0
M  V30 4643 H 449.364 1.48803 2.59804 0
M  V30 4644 H 446.91 0.716934 1.24884 0
M  V30 4645 H 448.863 -0.348764 4.19954 0
M  V30 4646 H 447.587 -0.964726 3.12027 0
M  V30 4647 H 446.246 1.13628 3.48546 0
M  V30 4648 H 445.894 -0.85524 4.95676 0
M  V30 4649 H 445.594 0.663406 5.83843 0
M  V30 4650 H 447.118 -0.231105 6.10162 0
M  V30 4651 H 448.532 1.92885 5.39878 0
M  V30 4652 H 446.929 2.71853 5.34991 0
M  V30 4653 H 447.999 2.82589 3.94045 0
M  V30 4654 N 449.342 -1.36122 0.79427 0
M  V30 4655 C 450.252 -2.33769 0.197296 0
M  V30 4656 C 451.268 -1.61276 -0.653153 0
M  V30 4657 O 452.444 -1.9323 -0.5678 0
M  V30 4658 C 449.509 -3.40474 -0.654098 0
M  V30 4659 C 448.57 -4.28759 0.215411 0
M  V30 4660 C 447.803 -5.30368 -0.595443 0
M  V30 4661 O 448.026 -5.40211 -1.83107 0
M  V30 4662 O 446.96 -6.019 0.00721351 0
M  V30 4663 H 450.786 -2.86597 1.00478 0
M  V30 4664 H 448.371 -1.38676 0.555818 0
M  V30 4665 H 450.253 -4.05703 -1.13944 0
M  V30 4666 H 448.928 -2.89937 -1.43938 0
M  V30 4667 H 447.835 -3.66554 0.747615 0
M  V30 4668 H 449.168 -4.82661 0.964332 0
M  V30 4669 N 450.82 -0.546701 -1.47814 0
M  V30 4670 C 452.236 -0.205717 -1.58269 0
M  V30 4671 C 452.436 1.29153 -1.54667 0
M  V30 4672 O 451.492 2.07098 -1.44453 0
M  V30 4673 C 452.805 -0.823065 -2.89216 0
M  V30 4674 C 454.353 -0.793328 -3.02779 0
M  V30 4675 C 454.828 -1.38955 -4.36412 0
M  V30 4676 N 456.319 -1.35227 -4.43021 0
M  V30 4677 C 457.054 -1.78333 -5.44963 0
M  V30 4678 N 456.55 -2.29246 -6.53772 0
M  V30 4679 N 458.343 -1.69467 -5.35945 0
M  V30 4680 H 450.494 -1.5196 -1.48398 0
M  V30 4681 H 452.757 -0.633078 -0.705632 0
M  V30 4682 H 452.463 -1.8749 -2.97558 0
M  V30 4683 H 452.337 -0.309915 -3.75925 0
M  V30 4684 H 454.724 0.249784 -2.94041 0
M  V30 4685 H 454.805 -1.34412 -2.17639 0
M  V30 4686 H 454.449 -2.43168 -4.45906 0
M  V30 4687 H 454.379 -0.814291 -5.20266 0
M  V30 4688 H 456.87 -0.979739 -3.64979 0
M  V30 4689 H 457.183 -2.60089 -7.27718 0
M  V30 4690 H 455.528 -2.3325 -6.5469 0
M  V30 4691 H 458.719 -1.29477 -4.49837 0
M  V30 4692 H 458.892 -2.03381 -6.15256 0
M  V30 4693 N 452.299 1.55045 -0.282633 0
M  V30 4694 C 453.246 2.22822 0.601566 0
M  V30 4695 C 454.216 1.20431 1.14392 0
M  V30 4696 O 455.401 1.48996 1.19184 0
M  V30 4697 C 452.541 2.95873 1.77632 0
M  V30 4698 C 451.654 4.12999 1.26711 0
M  V30 4699 C 450.789 4.73676 2.40426 0
M  V30 4700 C 449.828 5.82981 1.86545 0
M  V30 4701 N 448.965 6.3769 2.93762 0
M  V30 4702 H 453.805 2.97995 0.0169528 0
M  V30 4703 H 451.342 1.471 -0.00339964 0
M  V30 4704 H 453.3 3.36447 2.46697 0
M  V30 4705 H 451.93 2.2311 2.33285 0
M  V30 4706 H 450.982 3.77494 0.469314 0
M  V30 4707 H 452.294 4.91803 0.832518 0
M  V30 4708 H 451.448 5.17008 3.17471 0
M  V30 4709 H 450.187 3.94164 2.87203 0
M  V30 4710 H 449.192 5.39092 1.07983 0
M  V30 4711 H 450.417 6.64366 1.40694 0
M  V30 4712 H 448.363 5.61069 3.39908 0
M  V30 4713 H 448.28 7.11788 2.54744 0
M  V30 4714 H 449.548 6.8568 3.7076 0
M  V30 4715 N 453.777 0.010035 1.57597 0
M  V30 4716 C 455.005 -0.683413 1.95287 0
M  V30 4717 C 455.42 -1.66747 0.885481 0
M  V30 4718 O 454.777 -1.82003 -0.134629 0
M  V30 4719 C 454.828 -1.40652 3.33015 0
M  V30 4720 O 454.549 -0.461916 4.35658 0
M  V30 4721 C 456.05 -2.19356 3.85225 0
M  V30 4722 H 453.27 -0.189708 0.643624 0
M  V30 4723 H 455.814 0.0641359 2.04399 0
M  V30 4724 H 453.969 -2.10562 3.2518 0
M  V30 4725 H 454.383 -0.973215 5.15392 0
M  V30 4726 H 455.857 -2.65433 4.83993 0
M  V30 4727 H 456.334 -3.02457 3.18459 0
M  V30 4728 H 456.94 -1.54442 3.96267 0
M  V30 4729 N 455.255 -1.55392 -0.262866 0
M  V30 4730 C 456.502 -1.76476 -0.993109 0
M  V30 4731 C 456.83 -0.571479 -1.85915 0
M  V30 4732 O 456.085 0.445733 -1.90556 0
M  V30 4733 C 456.384 -3.02889 -1.89718 0
M  V30 4734 C 456.05 -4.34974 -1.18781 0
M  V30 4735 C 454.712 -4.7087 -0.991699 0
M  V30 4736 C 457.064 -5.16695 -0.683798 0
M  V30 4737 C 454.392 -5.86036 -0.279024 0
M  V30 4738 C 456.744 -6.32598 0.0153327 0
M  V30 4739 C 455.408 -6.67127 0.223062 0
M  V30 4740 H 454.678 -0.64577 -0.363404 0
M  V30 4741 H 457.325 -1.89664 -0.264525 0
M  V30 4742 H 455.63 -2.84644 -2.6923 0
M  V30 4743 H 457.327 -3.16399 -2.46359 0
M  V30 4744 H 453.917 -4.06765 -1.35058 0
M  V30 4745 H 458.101 -4.8943 -0.8229 0
M  V30 4746 H 453.357 -6.11306 -0.107456 0
M  V30 4747 H 457.531 -6.95171 0.413584 0
M  V30 4748 H 455.158 -7.56216 0.777265 0
M  V30 4749 N 456.733 0.527833 -1.48498 0
M  V30 4750 C 457.981 1.28101 -1.56316 0
M  V30 4751 C 458.302 1.9352 -0.239781 0
M  V30 4752 O 457.572 1.81433 0.738849 0
M  V30 4753 H 456.152 0.475793 -0.575873 0
M  V30 4754 H 458.814 0.614052 -1.84974 0
M  V30 4755 H 457.91 2.05916 -2.34532 0
M  V30 4756 N 458.211 1.37122 0.776871 0
M  V30 4757 C 459.158 1.3247 1.88998 0
M  V30 4758 C 460.128 0.191143 1.64997 0
M  V30 4759 O 461.313 0.379683 1.86984 0
M  V30 4760 C 458.453 1.13241 3.25992 0
M  V30 4761 C 457.566 2.35782 3.61982 0
M  V30 4762 C 456.701 2.09465 4.88158 0
M  V30 4763 C 455.74 3.279 5.16864 0
M  V30 4764 N 454.877 3.01167 6.34226 0
M  V30 4765 H 459.717 2.27642 1.9231 0
M  V30 4766 H 457.254 1.13125 0.94027 0
M  V30 4767 H 459.212 1.00115 4.0501 0
M  V30 4768 H 457.842 0.217186 3.22069 0
M  V30 4769 H 456.894 2.59666 2.77989 0
M  V30 4770 H 458.206 3.24125 3.79137 0
M  V30 4771 H 457.36 1.93341 5.75069 0
M  V30 4772 H 456.099 1.18452 4.73097 0
M  V30 4773 H 455.104 3.44569 4.2843 0
M  V30 4774 H 456.329 4.19757 5.33836 0
M  V30 4775 H 454.275 2.12779 6.20533 0
M  V30 4776 H 454.192 3.83052 6.51772 0
M  V30 4777 H 455.46 2.88649 7.24087 0
M  V30 4778 N 459.689 -1.00246 1.21608 0
M  V30 4779 C 460.619 -2.10921 1.00172 0
M  V30 4780 C 461.6 -1.69938 -0.0741587 0
M  V30 4781 O 462.785 -1.94009 0.0861753 0
M  V30 4782 C 459.915 -3.42618 0.568355 0
M  V30 4783 C 458.869 -3.97407 1.58909 0
M  V30 4784 C 458.195 -5.25038 1.01187 0
M  V30 4785 C 459.495 -4.2918 2.97661 0
M  V30 4786 H 461.189 -2.29112 1.92739 0
M  V30 4787 H 458.735 -1.10101 0.928102 0
M  V30 4788 H 460.688 -4.19444 0.405555 0
M  V30 4789 H 459.412 -3.24227 -0.392961 0
M  V30 4790 H 458.071 -3.22703 1.73949 0
M  V30 4791 H 457.719 -5.02982 0.0421965 0
M  V30 4792 H 457.419 -5.62661 1.6937 0
M  V30 4793 H 458.943 -6.04507 0.860448 0
M  V30 4794 H 460.357 -4.96839 2.86049 0
M  V30 4795 H 458.754 -4.77952 3.6288 0
M  V30 4796 H 459.824 -3.3735 3.48315 0
M  V30 4797 N 461.167 -1.02423 -1.1978 0
M  V30 4798 C 462.097 -0.62157 -2.25075 0
M  V30 4799 C 463.078 0.367148 -1.6609 0
M  V30 4800 O 464.263 0.250892 -1.92573 0
M  V30 4801 C 461.393 0.0331826 -3.47284 0
M  V30 4802 C 460.347 -0.877323 -4.18912 0
M  V30 4803 C 459.673 -0.0879296 -5.34628 0
M  V30 4804 C 460.973 -2.18892 -4.74219 0
M  V30 4805 H 462.667 -1.50179 -2.59011 0
M  V30 4806 H 460.213 -0.723547 -1.24502 0
M  V30 4807 H 462.166 0.326488 -4.20133 0
M  V30 4808 H 460.89 0.948164 -3.12534 0
M  V30 4809 H 459.549 -1.15475 -3.47938 0
M  V30 4810 H 459.197 0.828941 -4.96123 0
M  V30 4811 H 458.897 -0.694359 -5.83483 0
M  V30 4812 H 460.421 0.198743 -6.10276 0
M  V30 4813 H 461.835 -1.95746 -5.38847 0
M  V30 4814 H 460.232 -2.74686 -5.33542 0
M  V30 4815 H 461.302 -2.84674 -3.92541 0
M  V30 4816 N 462.645 1.35699 -0.801477 0
M  V30 4817 C 463.891 1.99208 -0.380022 0
M  V30 4818 C 464.224 1.63445 1.04878 0
M  V30 4819 O 463.499 0.895223 1.72673 0
M  V30 4820 C 463.782 3.55755 -0.557708 0
M  V30 4821 C 463.635 4.01332 -2.03107 0
M  V30 4822 C 464.954 4.40096 0.0197968 0
M  V30 4823 H 462.073 0.723667 -0.139552 0
M  V30 4824 H 464.715 1.60928 -1.01006 0
M  V30 4825 H 462.865 3.88494 -0.0213741 0
M  V30 4826 H 464.537 3.79026 -2.62939 0
M  V30 4827 H 462.78 3.52429 -2.52936 0
M  V30 4828 H 463.451 5.10234 -2.1063 0
M  V30 4829 H 465.927 4.13786 -0.438179 0
M  V30 4830 H 464.803 5.48735 -0.134477 0
M  V30 4831 H 465.064 4.2786 1.11303 0
M  V30 4832 N 464.123 0.554532 1.47522 0
M  V30 4833 C 465.033 -0.197865 2.33764 0
M  V30 4834 C 466.049 -0.914576 1.48025 0
M  V30 4835 O 467.225 -0.884067 1.80959 0
M  V30 4836 C 464.29 -1.21628 3.24665 0
M  V30 4837 C 463.351 -0.507283 4.26292 0
M  V30 4838 C 462.584 -1.47718 5.1285 0
M  V30 4839 O 462.807 -2.7118 5.01814 0
M  V30 4840 O 461.741 -1.00313 5.93482 0
M  V30 4841 H 465.567 0.50949 2.99396 0
M  V30 4842 H 463.152 0.315176 1.46038 0
M  V30 4843 H 465.034 -1.80421 3.80823 0
M  V30 4844 H 463.709 -1.9056 2.61665 0
M  V30 4845 H 462.616 0.121778 3.73902 0
M  V30 4846 H 463.949 0.140544 4.91999 0
M  V30 4847 N 465.601 -1.54893 0.290851 0
M  V30 4848 C 466.551 -2.19838 -0.604599 0
M  V30 4849 C 467.535 -1.16805 -1.10659 0
M  V30 4850 O 468.727 -1.42562 -1.04905 0
M  V30 4851 C 465.856 -2.93497 -1.78086 0
M  V30 4852 C 464.942 -4.03835 -1.29531 0
M  V30 4853 N 465.333 -5.03047 -0.527024 0
M  V30 4854 C 463.631 -4.17192 -1.57693 0
M  V30 4855 C 464.332 -5.81074 -0.269728 0
M  V30 4856 N 463.308 -5.36966 -0.846651 0
M  V30 4857 H 467.11 -2.93898 -0.00995032 0
M  V30 4858 H 464.624 -1.62121 0.0951353 0
M  V30 4859 H 466.621 -3.38484 -2.43381 0
M  V30 4860 H 465.281 -2.2095 -2.37931 0
M  V30 4861 H 466.292 -5.17611 -0.172872 0
M  V30 4862 H 462.969 -3.55845 -2.18359 0
M  V30 4863 H 464.359 -6.71005 0.346643 0
M  V30 4864 N 467.08 -0.0183926 -1.57589 0
M  V30 4865 C 468.012 0.995557 -2.06449 0
M  V30 4866 C 469.025 1.29556 -0.985849 0
M  V30 4867 O 470.214 1.2621 -1.26227 0
M  V30 4868 C 467.314 2.32572 -2.46502 0
M  V30 4869 C 466.487 2.21245 -3.77319 0
M  V30 4870 C 465.546 3.37104 -4.04039 0
M  V30 4871 O 464.572 3.14468 -4.74445 0
M  V30 4872 N 465.774 4.60553 -3.53372 0
M  V30 4873 H 468.539 0.578746 -2.94059 0
M  V30 4874 H 466.1 0.168603 -1.6102 0
M  V30 4875 H 468.092 3.08887 -2.61478 0
M  V30 4876 H 466.662 2.65931 -1.64315 0
M  V30 4877 H 465.882 1.29723 -3.72244 0
M  V30 4878 H 467.17 2.10868 -4.63047 0
M  V30 4879 H 466.568 4.81839 -2.96391 0
M  V30 4880 H 465.125 5.34072 -3.73644 0
M  V30 4881 N 468.558 1.5553 0.254621 0
M  V30 4882 C 469.521 1.88872 1.29846 0
M  V30 4883 C 470.521 0.764591 1.41459 0
M  V30 4884 O 471.711 1.03265 1.40293 0
M  V30 4885 C 468.843 2.11032 2.67728 0
M  V30 4886 H 470.036 2.82201 1.01502 0
M  V30 4887 H 467.589 1.48303 0.493556 0
M  V30 4888 H 468.324 1.20146 3.01223 0
M  V30 4889 H 468.109 2.92895 2.60682 0
M  V30 4890 H 469.599 2.38038 3.43115 0
M  V30 4891 N 470.036 -0.519951 1.48776 0
M  V30 4892 C 471.285 -1.27175 1.56555 0
M  V30 4893 C 471.598 -1.9401 0.248869 0
M  V30 4894 O 472.804 -2.70725 0.205004 0
M  V30 4895 C 471.26 -2.30811 2.76142 0
M  V30 4896 C 470.868 -1.7 4.14493 0
M  V30 4897 C 472.612 -3.06937 2.9324 0
M  V30 4898 C 470.519 -2.71635 5.25327 0
M  V30 4899 H 469.449 -0.478329 0.582853 0
M  V30 4900 H 472.1 -0.547916 1.75129 0
M  V30 4901 H 470.482 -3.06274 2.51023 0
M  V30 4902 H 471.656 -1.00658 4.49672 0
M  V30 4903 H 469.971 -1.06331 4.02595 0
M  V30 4904 H 472.568 -3.82905 3.73213 0
M  V30 4905 H 472.911 -3.63409 2.03075 0
M  V30 4906 H 473.444 -2.38589 3.18308 0
M  V30 4907 H 470.183 -2.1997 6.1749 0
M  V30 4908 H 469.703 -3.39275 4.94624 0
M  V30 4909 H 471.382 -3.34429 5.53865 0
M  V30 4910 N 471.514 -1.37532 -0.769588 0
M  V30 4911 C 472.739 -1.36231 -1.56384 0
M  V30 4912 C 473.164 0.0495849 -1.88035 0
M  V30 4913 O 472.522 1.02723 -1.49391 0
M  V30 4914 C 472.57 -2.20986 -2.84952 0
M  V30 4915 O 471.674 -1.61597 -3.79421 0
M  V30 4916 H 471.015 -0.465387 -0.473615 0
M  V30 4917 H 473.545 -1.81085 -0.952342 0
M  V30 4918 H 473.555 -2.34277 -3.34034 0
M  V30 4919 H 472.23 -3.23612 -2.61243 0
M  V30 4920 H 470.807 -1.57359 -3.38072 0
M  V30 4921 N 472.992 0.995999 -1.22138 0
M  V30 4922 C 474.239 1.7351 -1.04406 0
M  V30 4923 C 474.567 1.89884 0.421244 0
M  V30 4924 O 473.822 1.43683 1.32867 0
M  V30 4925 C 474.121 3.14553 -1.6968 0
M  V30 4926 C 473.787 3.18102 -3.19565 0
M  V30 4927 C 472.449 3.18778 -3.60464 0
M  V30 4928 C 474.801 3.14636 -4.15516 0
M  V30 4929 C 472.129 3.13684 -4.95801 0
M  V30 4930 C 474.481 3.11084 -5.50826 0
M  V30 4931 C 473.145 3.10074 -5.91109 0
M  V30 4932 H 472.415 0.634916 -0.38205 0
M  V30 4933 H 475.062 1.1667 -1.51857 0
M  V30 4934 H 473.367 3.74682 -1.14546 0
M  V30 4935 H 475.064 3.70477 -1.53454 0
M  V30 4936 H 471.654 3.18324 -2.86998 0
M  V30 4937 H 475.838 3.13266 -3.84939 0
M  V30 4938 H 471.094 3.11245 -5.26247 0
M  V30 4939 H 475.268 3.07357 -6.24904 0
M  V30 4940 H 472.895 3.05882 -6.95946 0
M  V30 4941 N 474.47 1.03057 1.19235 0
M  V30 4942 C 475.403 0.557384 2.21288 0
M  V30 4943 C 476.381 -0.402675 1.57535 0
M  V30 4944 O 477.565 -0.319376 1.85775 0
M  V30 4945 C 474.692 -0.187041 3.38183 0
M  V30 4946 C 473.738 0.72471 4.20298 0
M  V30 4947 S 474.571 2.20187 4.88137 0
M  V30 4948 C 475.727 1.46801 6.08441 0
M  V30 4949 H 475.96 1.42207 2.61083 0
M  V30 4950 H 473.493 0.840651 1.29508 0
M  V30 4951 H 475.451 -0.610405 4.05936 0
M  V30 4952 H 474.112 -1.02748 2.96819 0
M  V30 4953 H 473.305 0.149911 5.03777 0
M  V30 4954 H 472.907 1.08647 3.57871 0
M  V30 4955 H 475.199 0.755522 6.73274 0
M  V30 4956 H 476.142 2.27946 6.70407 0
M  V30 4957 H 476.55 0.964762 5.56195 0
M  V30 4958 N 475.948 -1.35272 0.808662 0
M  V30 4959 C 476.878 -2.32315 0.234981 0
M  V30 4960 C 477.859 -1.57572 -0.64071 0
M  V30 4961 O 479.044 -1.8563 -0.570551 0
M  V30 4962 C 476.174 -3.41801 -0.615601 0
M  V30 4963 C 475.128 -4.27694 0.161767 0
M  V30 4964 C 474.454 -5.28519 -0.810649 0
M  V30 4965 C 475.754 -5.04231 1.36193 0
M  V30 4966 H 477.448 -2.80543 1.04575 0
M  V30 4967 H 474.994 -1.3488 0.504315 0
M  V30 4968 H 476.947 -4.08693 -1.02702 0
M  V30 4969 H 475.671 -2.92186 -1.45928 0
M  V30 4970 H 474.33 -3.62384 0.554382 0
M  V30 4971 H 473.978 -4.75171 -1.64988 0
M  V30 4972 H 473.678 -5.8686 -0.294822 0
M  V30 4973 H 475.202 -5.98283 -1.22023 0
M  V30 4974 H 476.616 -5.64058 1.02528 0
M  V30 4975 H 475.013 -5.72077 1.81239 0
M  V30 4976 H 476.083 -4.34753 2.14751 0
M  V30 4977 N 477.426 -0.562348 -1.47226 0
M  V30 4978 C 478.389 0.172056 -2.28553 0
M  V30 4979 C 479.389 0.837928 -1.37242 0
M  V30 4980 O 480.579 0.693001 -1.59822 0
M  V30 4981 C 477.711 1.25223 -3.17068 0
M  V30 4982 H 478.904 -0.542401 -2.94954 0
M  V30 4983 H 476.457 -0.319493 -1.53 0
M  V30 4984 H 477.192 1.99892 -2.55369 0
M  V30 4985 H 476.977 0.779515 -3.84273 0
M  V30 4986 H 478.467 1.76791 -3.78332 0
M  V30 4987 N 478.904 1.54736 -0.299062 0
M  V30 4988 C 479.814 2.27127 0.587413 0
M  V30 4989 C 480.83 1.30575 1.15005 0
M  V30 4990 O 482.006 1.63554 1.17525 0
M  V30 4991 C 479.071 2.99645 1.74395 0
M  V30 4992 C 478.132 4.11731 1.21559 0
M  V30 4993 C 477.365 4.80781 2.317 0
M  V30 4994 O 477.588 4.4918 3.51558 0
M  V30 4995 O 476.522 5.68226 1.98501 0
M  V30 4996 H 480.348 3.037 0.000250109 0
M  V30 4997 H 477.933 1.49256 -0.0655919 0
M  V30 4998 H 479.815 3.45138 2.4178 0
M  V30 4999 H 478.49 2.25969 2.31775 0
M  V30 5000 H 477.397 3.70641 0.507514 0
M  V30 5001 H 478.73 4.87379 0.687233 0
M  V30 5002 N 480.382 0.0267497 1.57577 0
M  V30 5003 C 481.315 -0.99059 2.05579 0
M  V30 5004 C 482.293 -1.31884 0.951065 0
M  V30 5005 O 483.477 -1.43592 1.22121 0
M  V30 5006 C 480.604 -2.31125 2.47586 0
M  V30 5007 C 479.65 -2.13777 3.69055 0
M  V30 5008 S 480.483 -1.4388 5.15809 0
M  V30 5009 C 481.639 -2.77321 5.6111 0
M  V30 5010 H 481.872 -0.581976 2.91548 0
M  V30 5011 H 479.405 -0.184876 1.53289 0
M  V30 5012 H 481.363 -3.07049 2.72454 0
M  V30 5013 H 480.024 -2.6912 1.61967 0
M  V30 5014 H 479.217 -3.11405 3.96287 0
M  V30 5015 H 478.819 -1.45996 3.44327 0
M  V30 5016 H 481.111 -3.73565 5.65204 0
M  V30 5017 H 482.054 -2.54756 6.60685 0
M  V30 5018 H 482.462 -2.82459 4.88751 0
M  V30 5019 N 481.861 -1.55662 -0.24637 0
M  V30 5020 C 482.824 -1.89558 -1.28842 0
M  V30 5021 C 483.824 -0.772082 -1.41052 0
M  V30 5022 O 485.014 -1.04007 -1.39743 0
M  V30 5023 C 482.146 -2.12449 -2.66605 0
M  V30 5024 H 483.339 -2.82735 -1.00004 0
M  V30 5025 H 480.892 -1.48562 -0.485684 0
M  V30 5026 H 481.627 -1.21742 -3.00582 0
M  V30 5027 H 481.412 -2.94273 -2.59125 0
M  V30 5028 H 482.902 -2.39854 -3.41847 0
M  V30 5029 N 483.339 0.512053 -1.4905 0
M  V30 5030 C 484.272 1.63209 -1.59493 0
M  V30 5031 C 485.25 1.56407 -0.444481 0
M  V30 5032 O 486.434 1.76623 -0.658535 0
M  V30 5033 C 483.561 3.01685 -1.53961 0
M  V30 5034 C 482.607 3.26786 -2.74068 0
M  V30 5035 S 483.44 3.11107 -4.35859 0
M  V30 5036 C 484.596 4.51997 -4.32954 0
M  V30 5037 H 484.829 1.54104 -2.54243 0
M  V30 5038 H 482.362 0.696382 -1.37804 0
M  V30 5039 H 484.32 3.81538 -1.51455 0
M  V30 5040 H 482.981 3.08215 -0.605178 0
M  V30 5041 H 482.174 4.27849 -2.66386 0
M  V30 5042 H 481.776 2.54635 -2.73928 0
M  V30 5043 H 484.068 5.43871 -4.03993 0
M  V30 5044 H 485.011 4.64731 -5.34257 0
M  V30 5045 H 485.419 4.32159 -3.63178 0
M  V30 5046 N 484.817 1.37938 0.762283 0
M  V30 5047 C 485.764 1.34467 1.87583 0
M  V30 5048 C 486.734 0.208633 1.64785 0
M  V30 5049 O 487.919 0.399494 1.86571 0
M  V30 5050 C 485.059 1.16692 3.24772 0
M  V30 5051 C 484.172 2.39608 3.59461 0
M  V30 5052 C 483.307 2.14631 4.85908 0
M  V30 5053 C 482.346 3.33364 5.13357 0
M  V30 5054 N 481.483 3.07877 6.30996 0
M  V30 5055 H 486.323 2.29669 1.89885 0
M  V30 5056 H 483.86 1.14116 0.928219 0
M  V30 5057 H 485.818 1.04405 4.03925 0
M  V30 5058 H 484.448 0.251333 3.2182 0
M  V30 5059 H 483.5 2.626 2.75219 0
M  V30 5060 H 484.812 3.28128 3.75678 0
M  V30 5061 H 483.966 1.99429 5.72986 0
M  V30 5062 H 482.705 1.23463 4.71814 0
M  V30 5063 H 481.71 3.49094 4.24751 0
M  V30 5064 H 482.935 4.25395 5.29354 0
M  V30 5065 H 480.881 2.19348 6.18241 0
M  V30 5066 H 480.798 3.89944 6.47673 0
M  V30 5067 H 482.066 2.96313 7.20985 0
M  V30 5068 N 486.295 -0.989507 1.22664 0
M  V30 5069 C 487.541 -1.7321 1.05481 0
M  V30 5070 C 487.874 -1.89852 -0.408635 0
M  V30 5071 O 487.149 -1.44416 -1.30285 0
M  V30 5072 C 487.432 -3.1357 1.77047 0
M  V30 5073 C 487.285 -3.04555 3.31008 0
M  V30 5074 C 488.604 -4.12812 1.5256 0
M  V30 5075 H 485.723 -0.628697 0.384589 0
M  V30 5076 H 488.365 -1.15258 1.51049 0
M  V30 5077 H 486.515 -3.63046 1.3831 0
M  V30 5078 H 488.187 -2.62674 3.7921 0
M  V30 5079 H 486.43 -2.41278 3.6051 0
M  V30 5080 H 487.101 -4.03894 3.76263 0
M  V30 5081 H 489.577 -3.72106 1.86215 0
M  V30 5082 H 488.453 -5.09132 2.05124 0
M  V30 5083 H 488.714 -4.39711 0.458936 0
M  V30 5084 N 487.773 -1.03688 -1.18687 0
M  V30 5085 C 488.683 -0.634908 -2.25845 0
M  V30 5086 C 489.699 0.337065 -1.70704 0
M  V30 5087 O 490.875 0.192943 -2.00474 0
M  V30 5088 C 487.94 -0.000180054 -3.467 0
M  V30 5089 C 487.001 -1.02067 -4.1699 0
M  V30 5090 C 486.234 -0.41614 -5.32075 0
M  V30 5091 O 486.457 0.778712 -5.65059 0
M  V30 5092 O 485.391 -1.14296 -5.90948 0
M  V30 5093 H 489.217 -1.52757 -2.62486 0
M  V30 5094 H 486.802 -0.807533 -1.25695 0
M  V30 5095 H 488.684 0.353342 -4.19916 0
M  V30 5096 H 487.359 0.866367 -3.11891 0
M  V30 5097 H 486.266 -1.42592 -3.45859 0
M  V30 5098 H 487.599 -1.85786 -4.5579 0
M  V30 5099 N 489.251 1.34841 -0.815825 0
M  V30 5100 C 490.181 2.32187 -0.247298 0
M  V30 5101 C 491.162 1.5791 0.632344 0
M  V30 5102 O 492.347 1.8593 0.560698 0
M  V30 5103 C 489.477 3.42122 0.597466 0
M  V30 5104 C 488.431 4.27602 -0.184446 0
M  V30 5105 C 487.757 5.28942 0.782609 0
M  V30 5106 C 489.057 5.03502 -1.38865 0
M  V30 5107 H 490.751 2.79985 -1.06061 0
M  V30 5108 H 488.297 1.34611 -0.511461 0
M  V30 5109 H 490.25 4.09232 1.00533 0
M  V30 5110 H 488.974 2.92956 1.44376 0
M  V30 5111 H 487.633 3.62085 -0.573592 0
M  V30 5112 H 487.281 4.7604 1.62466 0
M  V30 5113 H 486.981 5.87008 0.263695 0
M  V30 5114 H 488.505 5.98922 1.18848 0
M  V30 5115 H 489.919 5.63506 -1.05518 0
M  V30 5116 H 488.316 5.71108 -1.8427 0
M  V30 5117 H 489.386 4.33608 -2.17054 0
M  V30 5118 N 490.729 0.570148 1.46925 0
M  V30 5119 C 491.692 -0.159933 2.28641 0
M  V30 5120 C 492.692 -0.830638 1.37685 0
M  V30 5121 O 493.882 -0.684516 1.60187 0
M  V30 5122 C 491.014 -1.2354 3.17727 0
M  V30 5123 H 492.207 0.558035 2.94662 0
M  V30 5124 H 489.76 0.327603 1.52828 0
M  V30 5125 H 490.495 -1.98535 2.56426 0
M  V30 5126 H 490.28 -0.759125 3.84681 0
M  V30 5127 H 491.77 -1.74782 3.79264 0
M  V30 5128 N 492.207 -1.54576 0.307264 0
M  V30 5129 C 493.623 -1.59534 -0.0459251 0
M  V30 5130 C 493.823 -1.32414 -1.51884 0
M  V30 5131 O 492.879 -1.1006 -2.27251 0
M  V30 5132 C 494.192 -2.98566 0.357649 0
M  V30 5133 C 495.74 -3.11491 0.306937 0
M  V30 5134 C 496.215 -4.52842 0.685427 0
M  V30 5135 N 497.706 -4.58782 0.638203 0
M  V30 5136 C 498.441 -5.66238 0.903458 0
M  V30 5137 N 497.937 -6.81703 1.23501 0
M  V30 5138 N 499.73 -5.55937 0.830102 0
M  V30 5139 H 491.881 -1.70464 1.26712 0
M  V30 5140 H 494.144 -0.79647 0.514139 0
M  V30 5141 H 493.85 -3.23356 1.38325 0
M  V30 5142 H 493.724 -3.76117 -0.285565 0
M  V30 5143 H 496.111 -2.86446 -0.709424 0
M  V30 5144 H 496.192 -2.36081 0.984861 0
M  V30 5145 H 495.836 -4.78618 1.69963 0
M  V30 5146 H 495.766 -5.26598 -0.0146346 0
M  V30 5147 H 498.257 -3.75849 0.393138 0
M  V30 5148 H 498.57 -7.59582 1.42322 0
M  V30 5149 H 496.915 -6.8324 1.27311 0
M  V30 5150 H 500.106 -4.64608 0.570693 0
M  V30 5151 H 500.279 -6.39597 1.04019 0
M  V30 5152 N 493.685 -0.035106 -1.57561 0
M  V30 5153 C 494.618 0.979673 -2.06101 0
M  V30 5154 C 495.596 1.31378 -0.958046 0
M  V30 5155 O 496.78 1.42942 -1.22881 0
M  V30 5156 C 493.907 2.29809 -2.48808 0
M  V30 5157 C 492.953 2.11817 -3.70184 0
M  V30 5158 S 493.786 1.41143 -5.16565 0
M  V30 5159 C 494.942 2.74341 -5.62572 0
M  V30 5160 H 495.175 0.566506 -2.91853 0
M  V30 5161 H 492.708 0.176744 -1.53385 0
M  V30 5162 H 494.666 3.056 -2.74078 0
M  V30 5163 H 493.327 2.68257 -1.63392 0
M  V30 5164 H 492.52 3.09299 -3.97933 0
M  V30 5165 H 492.122 1.44168 -3.45097 0
M  V30 5166 H 494.414 3.70562 -5.67177 0
M  V30 5167 H 495.357 2.51249 -6.62027 0
M  V30 5168 H 495.765 2.79863 -4.90242 0
M  V30 5169 N 495.163 1.55791 0.238111 0
M  V30 5170 C 496.388 1.8244 0.986432 0
M  V30 5171 C 496.813 0.613314 1.7782 0
M  V30 5172 O 496.171 -0.437767 1.75935 0
M  V30 5173 C 496.219 3.06917 1.893 0
M  V30 5174 O 495.323 2.84449 2.98601 0
M  V30 5175 H 494.664 0.601975 0.280218 0
M  V30 5176 H 497.194 2.02987 0.256437 0
M  V30 5177 H 497.204 3.36583 2.30598 0
M  V30 5178 H 495.879 3.947 1.31091 0
M  V30 5179 H 494.456 2.65972 2.61368 0
M  V30 5180 N 496.642 -0.504142 1.49319 0
M  V30 5181 C 497.872 -1.28071 1.62116 0
M  V30 5182 C 498.28 -1.86955 0.290566 0
M  V30 5183 O 497.623 -1.68415 -0.733616 0
M  V30 5184 C 497.685 -2.4521 2.62893 0
M  V30 5185 C 497.349 -2.07218 4.0732 0
M  V30 5186 C 498.346 -1.61375 4.94221 0
M  V30 5187 C 496.031 -2.16949 4.53033 0
M  V30 5188 C 498.025 -1.25763 6.2487 0
M  V30 5189 C 495.712 -1.80949 5.83696 0
M  V30 5190 C 496.71 -1.3543 6.69438 0
M  V30 5191 O 496.398 -0.99915 7.97667 0
M  V30 5192 H 496.13 -0.394763 0.54876 0
M  V30 5193 H 498.684 -0.612118 1.96067 0
M  V30 5194 H 496.914 -3.15134 2.24115 0
M  V30 5195 H 498.603 -3.0724 2.65252 0
M  V30 5196 H 499.369 -1.53306 4.60133 0
M  V30 5197 H 495.248 -2.5133 3.86463 0
M  V30 5198 H 498.792 -0.901631 6.91749 0
M  V30 5199 H 494.689 -1.88667 6.17313 0
M  V30 5200 H 495.457 -1.13089 8.1065 0
M  V30 5201 N 498.12 -1.38341 -0.754957 0
M  V30 5202 C 499.052 -1.31347 -1.87831 0
M  V30 5203 C 500.065 -0.225955 -1.61224 0
M  V30 5204 O 501.254 -0.48341 -1.7183 0
M  V30 5205 C 498.354 -1.01201 -3.23437 0
M  V30 5206 C 497.527 -2.20834 -3.77559 0
M  V30 5207 C 496.586 -1.87454 -4.91678 0
M  V30 5208 O 495.612 -2.59934 -5.06382 0
M  V30 5209 N 496.814 -0.828682 -5.74555 0
M  V30 5210 H 499.579 -2.28147 -1.94342 0
M  V30 5211 H 497.14 -1.32184 -0.934828 0
M  V30 5212 H 499.132 -0.769249 -3.97322 0
M  V30 5213 H 497.702 -0.132011 -3.12321 0
M  V30 5214 H 496.922 -2.61184 -2.95256 0
M  V30 5215 H 498.21 -3.00678 -4.10451 0
M  V30 5216 H 497.608 -0.227591 -5.65242 0
M  V30 5217 H 496.165 -0.645802 -6.48593 0
M  V30 5218 N 499.598 0.982988 -1.23187 0
M  V30 5219 C 501.014 1.2487 -0.993967 0
M  V30 5220 C 501.214 1.99155 0.306498 0
M  V30 5221 O 500.27 2.30688 1.0266 0
M  V30 5222 C 501.583 2.05078 -2.19917 0
M  V30 5223 C 503.131 2.18227 -2.2438 0
M  V30 5224 C 503.606 3.01825 -3.44479 0
M  V30 5225 N 505.097 3.09411 -3.44702 0
M  V30 5226 C 505.832 3.74412 -4.34285 0
M  V30 5227 N 505.328 4.41259 -5.341 0
M  V30 5228 N 507.121 3.71273 -4.22035 0
M  V30 5229 H 499.272 0.485253 -2.06783 0
M  V30 5230 H 501.535 0.276979 -0.906635 0
M  V30 5231 H 501.241 1.57867 -3.14279 0
M  V30 5232 H 501.115 3.05829 -2.2079 0
M  V30 5233 H 503.502 2.64648 -1.30559 0
M  V30 5234 H 503.583 1.16873 -2.2754 0
M  V30 5235 H 503.227 2.56102 -4.38605 0
M  V30 5236 H 503.157 4.03342 -3.38559 0
M  V30 5237 H 505.648 2.61845 -2.7248 0
M  V30 5238 H 505.961 4.88629 -5.98717 0
M  V30 5239 H 504.306 4.39975 -5.38002 0
M  V30 5240 H 507.497 3.18217 -3.43301 0
M  V30 5241 H 507.67 4.21649 -4.92053 0
M  V30 5242 N 501.076 1.04316 1.18135 0
M  V30 5243 C 502.039 0.640794 2.2006 0
M  V30 5244 C 503.039 -0.303124 1.57917 0
M  V30 5245 O 504.229 -0.0881855 1.73977 0
M  V30 5246 C 501.361 -0.060148 3.40847 0
M  V30 5247 H 502.554 1.54281 2.57172 0
M  V30 5248 H 500.107 0.836004 1.32063 0
M  V30 5249 H 500.842 -0.975845 3.0927 0
M  V30 5250 H 500.627 0.618319 3.87194 0
M  V30 5251 H 502.117 -0.328082 4.16309 0
M  V30 5252 N 502.554 -1.34406 0.822964 0
M  V30 5253 C 503.517 -2.2783 0.250271 0
M  V30 5254 C 504.517 -1.50288 -0.571854 0
M  V30 5255 O 505.707 -1.69825 -0.387952 0
M  V30 5256 C 502.839 -3.34663 -0.649137 0
M  V30 5257 H 504.032 -2.79992 1.07444 0
M  V30 5258 H 501.585 -1.44539 0.594829 0
M  V30 5259 H 502.32 -2.87714 -1.49637 0
M  V30 5260 H 502.105 -3.92052 -0.0611199 0
M  V30 5261 H 503.595 -4.04349 -1.04363 0
M  V30 5262 N 504.032 -0.577932 -1.46621 0
M  V30 5263 C 505.278 -0.0700937 -2.03279 0
M  V30 5264 C 505.633 1.27376 -1.44198 0
M  V30 5265 O 504.926 1.82097 -0.595911 0
M  V30 5266 C 505.12 0.0590832 -3.57351 0
M  V30 5267 C 504.949 -1.2707 -4.31374 0
M  V30 5268 C 503.719 -1.84357 -4.70469 0
M  V30 5269 C 505.917 -2.19278 -4.65211 0
M  V30 5270 N 503.899 -3.11124 -5.29221 0
M  V30 5271 C 505.27 -3.30631 -5.24484 0
M  V30 5272 C 507.325 -2.19018 -4.47142 0
M  V30 5273 C 506.028 -4.41849 -5.67593 0
M  V30 5274 C 508.054 -3.29262 -4.91264 0
M  V30 5275 C 507.416 -4.39335 -5.50604 0
M  V30 5276 H 503.515 -0.0683127 -0.779011 0
M  V30 5277 H 506.099 -0.76978 -1.78836 0
M  V30 5278 H 504.27 0.727929 -3.81518 0
M  V30 5279 H 506.002 0.57087 -4.00653 0
M  V30 5280 H 502.757 -1.37906 -4.53077 0
M  V30 5281 H 503.181 -3.75794 -5.63123 0
M  V30 5282 H 507.823 -1.35191 -4.00604 0
M  V30 5283 H 505.541 -5.26421 -6.13112 0
M  V30 5284 H 509.127 -3.30172 -4.79038 0
M  V30 5285 H 508.007 -5.23233 -5.84121 0
M  V30 5286 N 505.51 1.54411 -0.315457 0
M  V30 5287 C 506.42 2.27737 0.56329 0
M  V30 5288 C 507.436 1.31787 1.13614 0
M  V30 5289 O 508.612 1.64791 1.15784 0
M  V30 5290 C 505.677 3.01478 1.71207 0
M  V30 5291 C 504.738 4.12997 1.17185 0
M  V30 5292 C 503.971 4.83212 2.26588 0
M  V30 5293 O 504.194 4.52884 3.46775 0
M  V30 5294 O 503.128 5.70299 1.92463 0
M  V30 5295 H 506.954 3.03683 -0.0319614 0
M  V30 5296 H 504.539 1.49178 -0.0814188 0
M  V30 5297 H 506.421 3.47683 2.38106 0
M  V30 5298 H 505.096 2.28414 2.29366 0
M  V30 5299 H 504.003 3.71159 0.468174 0
M  V30 5300 H 505.336 4.8808 0.635501 0
M  V30 5301 N 506.988 0.0434614 1.5754 0
M  V30 5302 C 508.234 -0.632971 1.92669 0
M  V30 5303 C 508.567 -1.70947 0.921446 0
M  V30 5304 O 507.842 -1.94426 -0.0537202 0
M  V30 5305 C 508.125 -1.23619 3.38216 0
M  V30 5306 C 507.978 -0.168274 4.49485 0
M  V30 5307 C 509.297 -2.15008 3.84005 0
M  V30 5308 H 506.416 -0.228629 0.700641 0
M  V30 5309 H 509.058 0.103651 1.89717 0
M  V30 5310 H 507.208 -1.864 3.40863 0
M  V30 5311 H 508.88 0.463196 4.58969 0
M  V30 5312 H 507.123 0.504581 4.30855 0
M  V30 5313 H 507.794 -0.630218 5.48391 0
M  V30 5314 H 510.27 -1.62198 3.83185 0
M  V30 5315 H 509.146 -2.54161 4.86511 0
M  V30 5316 H 509.407 -3.04707 3.20322 0
M  V30 5317 N 508.466 -1.55915 -0.229846 0
M  V30 5318 C 509.743 -1.6932 -0.979295 0
M  V30 5319 C 510.123 -0.588321 -2.02736 0
M  V30 5320 O 509.471 0.40586 -2.24867 0
M  V30 5321 C 509.681 -3.10305 -1.59724 0
M  V30 5322 C 511.029 -3.6945 -2.09264 0
M  V30 5323 O 512.053 -3.13214 -1.69633 0
M  V30 5324 O 510.912 -4.68072 -2.82082 0
M  V30 5325 H 508.006 -0.689314 -0.456919 0
M  V30 5326 H 510.552 -1.68238 -0.222283 0
M  V30 5327 H 509.324 -3.82177 -0.840039 0
M  V30 5328 H 508.947 -3.1547 -2.42001 0
M  V30 5329 N 509.944 0.496216 -1.49584 0
M  V30 5330 C 511.169 1.27865 -1.63295 0
M  V30 5331 C 511.594 1.85592 -0.306156 0
M  V30 5332 O 510.952 1.66092 0.726851 0
M  V30 5333 C 511 2.38128 -2.7079 0
M  V30 5334 O 510.104 3.42108 -2.30296 0
M  V30 5335 H 509.445 0.377279 -0.546403 0
M  V30 5336 H 511.975 0.593497 -1.95803 0
M  V30 5337 H 511.985 2.8382 -2.93104 0
M  V30 5338 H 510.66 1.95479 -3.67098 0
M  V30 5339 H 509.237 3.02301 -2.18331 0
M  V30 5340 N 511.423 1.38739 0.74761 0
M  V30 5341 C 512.671 1.35007 1.50391 0
M  V30 5342 C 512.992 -0.0574274 1.94915 0
M  V30 5343 O 512.262 -1.00628 1.6808 0
M  V30 5344 H 510.842 0.496784 0.557866 0
M  V30 5345 H 513.504 1.73479 0.888319 0
M  V30 5346 H 512.6 2.00474 2.392 0
M  V30 5347 N 512.901 -0.976442 1.23707 0
M  V30 5348 C 514.317 -1.24341 1.00058 0
M  V30 5349 C 514.517 -1.99315 -0.295932 0
M  V30 5350 O 513.573 -2.3123 -1.01435 0
M  V30 5351 C 514.886 -2.03909 2.21001 0
M  V30 5352 C 516.434 -2.17034 2.25534 0
M  V30 5353 C 516.909 -2.99994 3.46075 0
M  V30 5354 N 518.4 -3.07578 3.46338 0
M  V30 5355 C 519.135 -3.72104 4.36264 0
M  V30 5356 N 518.631 -4.3842 5.36432 0
M  V30 5357 N 520.424 -3.69029 4.23998 0
M  V30 5358 H 512.575 -0.47428 2.07037 0
M  V30 5359 H 514.838 -0.272167 0.908091 0
M  V30 5360 H 514.544 -1.56198 3.15111 0
M  V30 5361 H 514.418 -3.04654 2.22409 0
M  V30 5362 H 516.805 -2.63951 1.31961 0
M  V30 5363 H 516.886 -1.15664 2.28156 0
M  V30 5364 H 516.53 -2.53772 4.39957 0
M  V30 5365 H 516.46 -4.01541 3.40694 0
M  V30 5366 H 518.951 -2.60397 2.73865 0
M  V30 5367 H 519.264 -4.85447 6.013 0
M  V30 5368 H 517.609 -4.37116 5.40328 0
M  V30 5369 H 520.8 -3.16392 3.44984 0
M  V30 5370 H 520.973 -4.19034 4.94282 0
M  V30 5371 N 514.379 -1.04941 -1.1758 0
M  V30 5372 C 515.795 -0.770282 -1.39781 0
M  V30 5373 C 515.995 0.636417 -1.91186 0
M  V30 5374 O 515.051 1.39923 -2.10185 0
M  V30 5375 C 516.364 -1.82376 -2.3908 0
M  V30 5376 C 517.912 -1.84569 -2.52791 0
M  V30 5377 C 518.387 -2.88933 -3.55361 0
M  V30 5378 N 519.878 -2.8788 -3.62877 0
M  V30 5379 C 520.613 -3.65282 -4.41992 0
M  V30 5380 N 520.109 -4.52461 -5.24643 0
M  V30 5381 N 521.902 -3.53732 -4.36841 0
M  V30 5382 H 514.053 -1.95705 -0.825438 0
M  V30 5383 H 516.316 -0.847284 -0.425222 0
M  V30 5384 H 516.022 -2.83323 -2.08376 0
M  V30 5385 H 515.896 -1.66327 -3.38549 0
M  V30 5386 H 518.283 -0.842879 -2.82807 0
M  V30 5387 H 518.364 -2.04696 -1.53406 0
M  V30 5388 H 518.008 -3.89398 -3.26085 0
M  V30 5389 H 517.938 -2.66059 -4.54445 0
M  V30 5390 H 520.429 -2.24666 -3.03864 0
M  V30 5391 H 520.742 -5.08211 -5.82187 0
M  V30 5392 H 519.087 -4.56524 -5.24033 0
M  V30 5393 H 522.278 -2.85021 -3.71323 0
M  V30 5394 H 522.451 -4.14302 -4.98255 0
M  V30 5395 N 515.857 1.33968 -0.830081 0
M  V30 5396 C 516.805 2.31301 -0.245435 0
M  V30 5397 C 517.799 1.57734 0.617762 0
M  V30 5398 O 519.005 1.72674 0.508303 0
M  V30 5399 H 515.38 0.749552 -0.0606316 0
M  V30 5400 H 517.351 2.78129 -1.08105 0
M  V30 5401 C 516.1 3.42961 0.572084 0
M  V30 5402 H 515.423 3.99714 -0.0828118 0
M  V30 5403 H 516.863 4.13286 0.94715 0
M  V30 5404 C 515.322 2.88043 1.74737 0
M  V30 5405 O 515.852 2.83508 2.8458 0
M  V30 5406 N 514.058 2.44768 1.56642 0
M  V30 5407 H 513.605 2.48656 0.672901 0
M  V30 5408 H 513.563 2.08375 2.3543 0
M  V30 5409 N 517.335 0.585699 1.46312 0
M  V30 5410 C 518.563 0.0781299 2.06752 0
M  V30 5411 C 518.978 -1.22812 1.43396 0
M  V30 5412 O 518.335 -1.74318 0.540314 0
M  V30 5413 C 518.386 -0.0911927 3.61385 0
M  V30 5414 O 518.107 1.16336 4.22371 0
M  V30 5415 C 519.608 -0.632765 4.38761 0
M  V30 5416 H 516.828 0.0588188 0.668417 0
M  V30 5417 H 519.372 0.807218 1.87894 0
M  V30 5418 H 517.527 -0.770514 3.7966 0
M  V30 5419 H 517.941 0.979082 5.15281 0
M  V30 5420 H 519.415 -0.70041 5.47538 0
M  V30 5421 H 519.892 -1.65039 4.07012 0
M  V30 5422 H 520.498 0.0117856 4.25298 0
M  V30 5423 N 518.813 -1.54241 0.323641 0
M  V30 5424 C 520.043 -2.04687 -0.280464 0
M  V30 5425 C 520.451 -1.19939 -1.46326 0
M  V30 5426 O 519.794 -0.222872 -1.82343 0
M  V30 5427 C 519.856 -3.50978 -0.778123 0
M  V30 5428 C 519.52 -4.56127 0.282371 0
M  V30 5429 C 520.517 -5.07726 1.11847 0
M  V30 5430 C 518.202 -5.00451 0.430582 0
M  V30 5431 C 520.196 -6.02212 2.08851 0
M  V30 5432 C 517.883 -5.94752 1.40404 0
M  V30 5433 C 518.881 -6.45519 2.23147 0
M  V30 5434 O 518.569 -7.37968 3.1884 0
M  V30 5435 H 518.301 -0.673192 -0.0615473 0
M  V30 5436 H 520.855 -1.99999 0.467921 0
M  V30 5437 H 519.085 -3.53064 -1.57742 0
M  V30 5438 H 520.774 -3.84499 -1.30058 0
M  V30 5439 H 521.54 -4.74261 1.01496 0
M  V30 5440 H 517.419 -4.6055 -0.203569 0
M  V30 5441 H 520.963 -6.41761 2.73474 0
M  V30 5442 H 516.86 -6.27633 1.5082 0
M  V30 5443 H 517.628 -7.55841 3.14079 0
M  V30 5444 N 520.291 -0.0518155 -1.57515 0
M  V30 5445 C 521.521 0.63048 -1.96745 0
M  V30 5446 C 521.929 1.64875 -0.928054 0
M  V30 5447 O 521.272 1.83449 0.0960678 0
M  V30 5448 C 521.334 1.37381 -3.32215 0
M  V30 5449 C 520.998 0.511298 -4.54131 0
M  V30 5450 C 521.995 -0.222884 -5.19422 0
M  V30 5451 C 519.68 0.442035 -5.00351 0
M  V30 5452 C 521.674 -1.01476 -6.2927 0
M  V30 5453 C 519.361 -0.35353 -6.10077 0
M  V30 5454 C 520.359 -1.08062 -6.74397 0
M  V30 5455 O 520.047 -1.8631 -7.82013 0
M  V30 5456 H 519.779 0.177126 -0.652382 0
M  V30 5457 H 522.333 -0.114726 -2.05079 0
M  V30 5458 H 520.563 2.16466 -3.20436 0
M  V30 5459 H 522.252 1.9464 -3.56188 0
M  V30 5460 H 523.018 -0.178846 -4.8467 0
M  V30 5461 H 518.897 0.997562 -4.50077 0
M  V30 5462 H 522.441 -1.58279 -6.79407 0
M  V30 5463 H 518.338 -0.399205 -6.44264 0
M  V30 5464 H 519.106 -1.78528 -7.98793 0
M  V30 5465 N 521.769 1.56035 0.221574 0
M  V30 5466 C 522.732 1.91584 1.2581 0
M  V30 5467 C 523.732 0.794425 1.39805 0
M  V30 5468 O 524.922 1.06217 1.38071 0
M  V30 5469 C 522.054 2.16663 2.63192 0
M  V30 5470 H 523.247 2.8429 0.954935 0
M  V30 5471 H 520.8 1.49316 0.461988 0
M  V30 5472 H 521.535 1.26508 2.98607 0
M  V30 5473 H 521.32 2.98358 2.5441 0
M  V30 5474 H 522.81 2.45262 3.37988 0
M  V30 5475 N 523.247 -0.488276 1.49845 0
M  V30 5476 C 524.472 -1.26997 1.63971 0
M  V30 5477 C 524.897 -1.85427 0.315994 0
M  V30 5478 O 524.255 -1.66475 -0.718032 0
M  V30 5479 C 524.303 -2.36689 2.72049 0
M  V30 5480 O 523.407 -3.40882 2.32107 0
M  V30 5481 H 522.748 -0.374376 0.548396 0
M  V30 5482 H 525.278 -0.583104 1.96115 0
M  V30 5483 H 525.288 -2.82262 2.94605 0
M  V30 5484 H 523.963 -1.93529 3.68129 0
M  V30 5485 H 522.54 -3.01139 2.19931 0
M  V30 5486 N 524.725 -1.39134 -0.740242 0
M  V30 5487 C 525.974 -1.35384 -1.49512 0
M  V30 5488 C 526.287 0.04919 -1.95538 0
M  V30 5489 O 527.493 0.209257 -2.70692 0
M  V30 5490 C 525.949 -2.37812 -2.70136 0
M  V30 5491 C 525.557 -3.83804 -2.31081 0
M  V30 5492 C 527.301 -2.4313 -3.47977 0
M  V30 5493 C 525.208 -4.77886 -3.48395 0
M  V30 5494 H 524.138 -0.503297 -0.561434 0
M  V30 5495 H 526.789 -1.64754 -0.807974 0
M  V30 5496 H 525.171 -2.01505 -3.40899 0
M  V30 5497 H 526.345 -4.29123 -1.67898 0
M  V30 5498 H 524.66 -3.81732 -1.66343 0
M  V30 5499 H 527.257 -3.10614 -4.35228 0
M  V30 5500 H 527.6 -1.45423 -3.90074 0
M  V30 5501 H 528.133 -2.78304 -2.84239 0
M  V30 5502 H 524.872 -5.76836 -3.11353 0
M  V30 5503 H 524.392 -4.3725 -4.10576 0
M  V30 5504 H 526.071 -4.96538 -4.148 0
M  V30 5505 N 526.204 0.969867 -1.24223 0
M  V30 5506 C 527.167 2.04564 -1.03373 0
M  V30 5507 C 528.167 1.60798 0.00819206 0
M  V30 5508 O 529.357 1.72641 -0.232567 0
M  V30 5509 C 526.489 3.36163 -0.566343 0
M  V30 5510 H 527.682 2.24494 -1.98853 0
M  V30 5511 H 525.235 1.1448 -1.06415 0
M  V30 5512 H 525.97 3.21925 0.391751 0
M  V30 5513 H 525.755 3.69273 -1.31834 0
M  V30 5514 H 527.245 4.1526 -0.441435 0
M  V30 5515 N 527.682 1.05563 1.17022 0
M  V30 5516 C 528.629 0.659893 2.21165 0
M  V30 5517 C 529.599 -0.339813 1.62587 0
M  V30 5518 O 530.784 -0.230378 1.89404 0
M  V30 5519 C 527.924 0.0447297 3.45071 0
M  V30 5520 C 527.037 1.09372 4.17926 0
M  V30 5521 C 526.172 0.445481 5.29329 0
M  V30 5522 C 525.211 1.47852 5.93975 0
M  V30 5523 N 524.348 0.854172 6.96885 0
M  V30 5524 H 529.188 1.55243 2.54369 0
M  V30 5525 H 526.725 0.776336 1.24946 0
M  V30 5526 H 528.683 -0.329404 4.15898 0
M  V30 5527 H 527.313 -0.811244 3.1244 0
M  V30 5528 H 526.365 1.58564 3.45777 0
M  V30 5529 H 527.677 1.87773 4.62107 0
M  V30 5530 H 526.831 0.0179688 6.06697 0
M  V30 5531 H 525.57 -0.370481 4.86291 0
M  V30 5532 H 524.575 1.91601 5.15334 0
M  V30 5533 H 525.8 2.29645 6.39093 0
M  V30 5534 H 523.746 0.0587882 6.55974 0
M  V30 5535 H 523.663 1.57567 7.39397 0
M  V30 5536 H 524.931 0.451559 7.78191 0
M  V30 5537 N 529.16 -1.33526 0.837174 0
M  V30 5538 C 530.123 -2.27551 0.274421 0
M  V30 5539 C 531.123 -1.50886 -0.555881 0
M  V30 5540 O 532.313 -1.70227 -0.369918 0
M  V30 5541 C 529.445 -3.35332 -0.613605 0
M  V30 5542 H 530.638 -2.78837 1.10408 0
M  V30 5543 H 528.191 -1.439 0.610126 0
M  V30 5544 H 528.926 -2.89285 -1.46577 0
M  V30 5545 H 528.711 -3.92095 -0.0195341 0
M  V30 5546 H 530.201 -4.05433 -1.00068 0
M  V30 5547 N 530.638 -0.59345 -1.46 0
M  V30 5548 C 531.885 -0.0831523 -2.02329 0
M  V30 5549 C 532.213 1.28093 -1.46364 0
M  V30 5550 O 531.468 1.85526 -0.622793 0
M  V30 5551 C 531.767 0.021178 -3.57394 0
M  V30 5552 C 531.433 -1.27671 -4.32448 0
M  V30 5553 C 530.095 -1.63227 -4.5267 0
M  V30 5554 C 532.447 -2.13511 -4.7546 0
M  V30 5555 C 529.775 -2.84401 -5.1316 0
M  V30 5556 C 532.127 -3.33922 -5.37289 0
M  V30 5557 C 530.791 -3.69747 -5.55737 0
M  V30 5558 H 530.061 -0.0304276 -0.740375 0
M  V30 5559 H 532.708 -0.772239 -1.75239 0
M  V30 5560 H 531.013 0.793454 -3.83682 0
M  V30 5561 H 532.71 0.431942 -3.98667 0
M  V30 5562 H 529.3 -0.989937 -4.17011 0
M  V30 5563 H 533.484 -1.87344 -4.59582 0
M  V30 5564 H 528.74 -3.12282 -5.25633 0
M  V30 5565 H 532.914 -4.00698 -5.69574 0
M  V30 5566 H 530.541 -4.6373 -6.02377 0
M  V30 5567 N 532.116 1.54067 -0.331816 0
M  V30 5568 C 533.079 2.23275 0.517768 0
M  V30 5569 C 534.079 1.22897 1.03697 0
M  V30 5570 O 535.269 1.47419 0.928084 0
M  V30 5571 C 532.401 2.94326 1.72004 0
M  V30 5572 H 533.594 2.99773 -0.0873507 0
M  V30 5573 H 531.147 1.56079 -0.0830042 0
M  V30 5574 H 531.882 2.21986 2.36417 0
M  V30 5575 H 531.667 3.67941 1.35507 0
M  V30 5576 H 533.157 3.47031 2.32291 0
M  V30 5577 N 533.594 0.0601682 1.57485 0
M  V30 5578 C 534.842 -0.610386 1.92662 0
M  V30 5579 C 535.163 -1.70849 0.939981 0
M  V30 5580 O 534.433 -1.95895 -0.0137455 0
M  V30 5581 H 533.013 -0.228457 0.711208 0
M  V30 5582 H 535.675 0.115288 1.94559 0
M  V30 5583 H 534.771 -1.0432 2.94149 0
M  V30 5584 N 535.072 -1.5615 -0.213296 0
M  V30 5585 C 536.349 -1.70349 -0.961281 0
M  V30 5586 C 536.729 -0.609791 -2.02101 0
M  V30 5587 O 536.077 0.381987 -2.25285 0
M  V30 5588 C 536.287 -3.11982 -1.56424 0
M  V30 5589 C 537.635 -3.71649 -2.05334 0
M  V30 5590 O 538.659 -3.14995 -1.66302 0
M  V30 5591 O 537.518 -4.71038 -2.77102 0
M  V30 5592 H 534.612 -0.694121 -0.449582 0
M  V30 5593 H 537.158 -1.68464 -0.204426 0
M  V30 5594 H 535.93 -3.83046 -0.799457 0
M  V30 5595 H 535.553 -3.18019 -2.38641 0
M  V30 5596 N 536.55 0.480323 -1.50102 0
M  V30 5597 C 537.799 1.22979 -1.59872 0
M  V30 5598 C 538.112 1.93282 -0.30022 0
M  V30 5599 O 539.318 2.70086 -0.276709 0
M  V30 5600 C 537.774 2.23408 -2.82164 0
M  V30 5601 C 537.382 1.5895 -4.18854 0
M  V30 5602 C 539.126 2.99055 -3.01275 0
M  V30 5603 C 537.033 2.57611 -5.32344 0
M  V30 5604 H 535.963 0.462707 -0.59533 0
M  V30 5605 H 538.614 0.501291 -1.7652 0
M  V30 5606 H 536.996 2.99511 -2.59055 0
M  V30 5607 H 538.17 0.887 -4.52182 0
M  V30 5608 H 536.485 0.956191 -4.05273 0
M  V30 5609 H 539.082 3.72876 -3.83233 0
M  V30 5610 H 539.425 3.57897 -2.12639 0
M  V30 5611 H 539.958 2.30066 -3.24522 0
M  V30 5612 H 536.697 2.03521 -6.23105 0
M  V30 5613 H 536.217 3.26041 -5.03445 0
M  V30 5614 H 537.896 3.19627 -5.62537 0
M  V30 5615 N 538.028 1.39524 0.732853 0
M  V30 5616 C 538.991 1.38189 1.82857 0
M  V30 5617 C 539.991 0.278624 1.58368 0
M  V30 5618 O 541.181 0.536639 1.65728 0
M  V30 5619 C 538.313 1.15661 3.2068 0
M  V30 5620 H 539.506 2.35692 1.85444 0
M  V30 5621 H 537.059 1.2512 0.936728 0
M  V30 5622 H 537.794 0.188482 3.23752 0
M  V30 5623 H 537.579 1.95559 3.39852 0
M  V30 5624 H 539.069 1.17472 4.00737 0
M  V30 5625 N 539.506 -0.963266 1.24736 0
M  V30 5626 C 540.454 -2.07985 1.04139 0
M  V30 5627 C 541.448 -1.69381 -0.0250556 0
M  V30 5628 O 542.654 -1.79531 0.129863 0
M  V30 5629 H 539.029 -0.680627 0.319768 0
M  V30 5630 H 541 -2.22517 1.98818 0
M  V30 5631 C 539.749 -3.4123 0.667615 0
M  V30 5632 H 539.072 -3.71397 1.48 0
M  V30 5633 H 540.512 -4.20244 0.563136 0
M  V30 5634 C 538.971 -3.3104 -0.625647 0
M  V30 5635 O 539.501 -3.65334 -1.67016 0
M  V30 5636 N 537.707 -2.84168 -0.608033 0
M  V30 5637 H 537.254 -2.56458 0.242323 0
M  V30 5638 H 537.212 -2.77732 -1.47352 0
M  V30 5639 N 540.985 -1.06182 -1.16461 0
M  V30 5640 C 541.917 -0.629584 -2.20383 0
M  V30 5641 C 542.93 0.311834 -1.59786 0
M  V30 5642 O 544.119 0.103 -1.78203 0
M  V30 5643 C 541.219 0.0973695 -3.3876 0
M  V30 5644 C 540.392 -0.857252 -4.28917 0
M  V30 5645 C 539.451 -0.169749 -5.25926 0
M  V30 5646 O 538.477 -0.807044 -5.6345 0
M  V30 5647 N 539.679 1.08911 -5.70192 0
M  V30 5648 H 542.444 -1.52352 -2.58087 0
M  V30 5649 H 540.005 -0.944993 -1.31459 0
M  V30 5650 H 541.997 0.567676 -4.00699 0
M  V30 5651 H 540.567 0.893093 -2.99571 0
M  V30 5652 H 539.787 -1.50696 -3.64259 0
M  V30 5653 H 541.075 -1.50489 -4.86035 0
M  V30 5654 H 540.473 1.62703 -5.41797 0
M  V30 5655 H 539.03 1.50331 -6.34227 0
M  V30 5656 N 542.463 1.3308 -0.844243 0
M  V30 5657 C 543.393 2.3161 -0.296493 0
M  V30 5658 C 544.374 1.59215 0.598707 0
M  V30 5659 O 545.559 1.87077 0.521134 0
M  V30 5660 C 542.689 3.43313 0.524762 0
M  V30 5661 C 541.643 4.27115 -0.275106 0
M  V30 5662 C 540.969 5.30483 0.670236 0
M  V30 5663 C 542.269 5.00443 -1.49514 0
M  V30 5664 H 543.963 2.77672 -1.11976 0
M  V30 5665 H 541.509 1.33496 -0.539899 0
M  V30 5666 H 543.462 4.11273 0.918298 0
M  V30 5667 H 542.186 2.95952 1.3813 0
M  V30 5668 H 540.845 3.60787 -0.650267 0
M  V30 5669 H 540.493 4.79379 1.52332 0
M  V30 5670 H 540.193 5.87435 0.139123 0
M  V30 5671 H 541.717 6.01308 1.06117 0
M  V30 5672 H 543.131 5.61141 -1.17447 0
M  V30 5673 H 541.528 5.67071 -1.96343 0
M  V30 5674 H 542.598 4.28906 -2.26202 0
M  V30 5675 N 543.941 0.601185 1.45683 0
M  V30 5676 C 544.904 -0.111398 2.28929 0
M  V30 5677 C 545.904 -0.801246 1.39416 0
M  V30 5678 O 547.094 -0.650383 1.61603 0
M  V30 5679 C 544.226 -1.16773 3.20276 0
M  V30 5680 H 545.419 0.620412 2.93413 0
M  V30 5681 H 542.972 0.359946 1.52099 0
M  V30 5682 H 543.707 -1.93051 2.60579 0
M  V30 5683 H 543.492 -0.677358 3.86205 0
M  V30 5684 H 544.982 -1.66698 3.82886 0
M  V30 5685 N 545.419 -1.53889 0.339982 0
M  V30 5686 C 546.647 -2.05271 -0.259114 0
M  V30 5687 C 547.062 -1.21517 -1.44496 0
M  V30 5688 O 546.419 -0.24966 -1.80784 0
M  V30 5689 C 546.47 -3.55092 -0.677634 0
M  V30 5690 O 546.191 -4.35667 0.461051 0
M  V30 5691 C 547.692 -4.22631 -1.33782 0
M  V30 5692 H 544.912 -0.669085 -0.0506566 0
M  V30 5693 H 547.456 -1.9852 0.490935 0
M  V30 5694 H 545.611 -3.62077 -1.37763 0
M  V30 5695 H 546.025 -5.24343 0.128144 0
M  V30 5696 H 547.499 -5.28861 -1.58145 0
M  V30 5697 H 547.976 -3.74758 -2.29027 0
M  V30 5698 H 548.582 -4.19829 -0.679957 0
M  V30 5699 N 546.897 -0.0685191 -1.57451 0
M  V30 5700 C 548.174 0.642167 -1.84758 0
M  V30 5701 C 548.554 1.87991 -0.960344 0
M  V30 5702 O 547.902 2.28485 -0.0257894 0
M  V30 5703 C 548.112 0.982946 -3.34872 0
M  V30 5704 C 549.46 1.35784 -4.02303 0
M  V30 5705 O 550.484 1.07477 -3.39598 0
M  V30 5706 O 549.343 1.88681 -5.12895 0
M  V30 5707 H 546.437 0.318625 -0.763156 0
M  V30 5708 H 548.983 -0.0992015 -1.6941 0
M  V30 5709 H 547.755 0.10372 -3.91163 0
M  V30 5710 H 547.378 1.78119 -3.55471 0
M  V30 5711 N 548.375 1.56261 0.205012 0
M  V30 5712 C 549.338 1.92908 1.23771 0
M  V30 5713 C 550.338 0.809208 1.38955 0
M  V30 5714 O 551.528 1.07676 1.36936 0
M  V30 5715 C 548.66 2.19442 2.60879 0
M  V30 5716 H 549.853 2.85287 0.924728 0
M  V30 5717 H 547.406 1.49798 0.446125 0
M  V30 5718 H 548.141 1.29668 2.97248 0
M  V30 5719 H 547.926 3.0104 2.51232 0
M  V30 5720 H 549.416 2.48833 3.35368 0
M  V30 5721 N 549.853 -0.472356 1.50355 0
M  V30 5722 C 551.099 -1.22634 1.6152 0
M  V30 5723 C 551.432 -1.91645 0.313995 0
M  V30 5724 O 550.707 -1.82059 -0.684446 0
M  V30 5725 C 550.99 -2.27099 2.7946 0
M  V30 5726 C 550.843 -1.62402 4.19459 0
M  V30 5727 C 552.162 -3.28421 2.92964 0
M  V30 5728 H 549.281 -0.444494 0.587873 0
M  V30 5729 H 551.923 -0.520321 1.82737 0
M  V30 5730 H 550.073 -2.87314 2.61501 0
M  V30 5731 H 551.745 -1.05793 4.49005 0
M  V30 5732 H 549.988 -0.927184 4.23776 0
M  V30 5733 H 550.659 -2.38309 4.97909 0
M  V30 5734 H 553.135 -2.78227 3.09401 0
M  V30 5735 H 552.011 -3.98845 3.77113 0
M  V30 5736 H 552.272 -3.92467 2.03525 0
M  V30 5737 N 551.331 -1.39911 -0.725443 0
M  V30 5738 C 552.263 -1.35301 -1.85003 0
M  V30 5739 C 553.276 -0.260102 -1.60709 0
M  V30 5740 O 554.465 -0.519749 -1.70766 0
M  V30 5741 C 551.565 -1.08039 -3.21218 0
M  V30 5742 C 550.738 -2.28793 -3.7279 0
M  V30 5743 C 549.797 -1.97841 -4.87591 0
M  V30 5744 O 548.823 -2.70616 -5.00755 0
M  V30 5745 N 550.025 -0.950367 -5.72668 0
M  V30 5746 H 552.79 -2.32218 -1.89459 0
M  V30 5747 H 550.351 -1.34137 -0.90658 0
M  V30 5748 H 552.343 -0.853354 -3.95601 0
M  V30 5749 H 550.913 -0.198229 -3.11971 0
M  V30 5750 H 550.133 -2.67388 -2.8965 0
M  V30 5751 H 551.421 -3.09317 -4.03981 0
M  V30 5752 H 550.819 -0.347436 -5.64632 0
M  V30 5753 H 549.376 -0.783232 -6.47077 0
M  V30 5754 N 552.809 0.956637 -1.25245 0
M  V30 5755 C 554.058 1.69537 -1.0927 0
M  V30 5756 C 554.371 1.92136 0.366503 0
M  V30 5757 O 555.577 2.63687 0.64665 0
M  V30 5758 C 554.033 3.05211 -1.9072 0
M  V30 5759 C 553.641 2.90416 -3.41119 0
M  V30 5760 C 555.385 3.82882 -1.83308 0
M  V30 5761 C 553.292 4.21468 -4.14872 0
M  V30 5762 H 552.222 0.635804 -0.405302 0
M  V30 5763 H 554.873 1.06513 -1.49423 0
M  V30 5764 H 553.255 3.69128 -1.43389 0
M  V30 5765 H 554.429 2.35444 -3.9611 0
M  V30 5766 H 552.744 2.26203 -3.49602 0
M  V30 5767 H 555.341 4.79944 -2.35706 0
M  V30 5768 H 555.684 4.0853 -0.800572 0
M  V30 5769 H 556.217 3.25711 -2.28379 0
M  V30 5770 H 552.956 4.01009 -5.18529 0
M  V30 5771 H 552.476 4.76213 -3.64665 0
M  V30 5772 H 554.155 4.90022 -4.22478 0
M  V30 5773 N 554.287 1.06798 1.15896 0
M  V30 5774 C 555.217 0.704677 2.22613 0
M  V30 5775 C 556.198 -0.305252 1.67339 0
M  V30 5776 O 557.383 -0.179247 1.93371 0
M  V30 5777 C 554.513 0.0957325 3.47168 0
M  V30 5778 C 553.467 1.0322 4.15367 0
M  V30 5779 C 552.793 0.286293 5.33933 0
M  V30 5780 C 554.093 2.36341 4.65768 0
M  V30 5781 H 555.787 1.59688 2.53259 0
M  V30 5782 H 553.333 0.769257 1.21731 0
M  V30 5783 H 555.286 -0.170333 4.21056 0
M  V30 5784 H 554.01 -0.831516 3.15838 0
M  V30 5785 H 552.669 1.28309 3.43413 0
M  V30 5786 H 552.317 -0.644237 4.98857 0
M  V30 5787 H 552.017 0.910436 5.80504 0
M  V30 5788 H 553.541 0.0278938 6.10594 0
M  V30 5789 H 554.955 2.1561 5.31211 0
M  V30 5790 H 553.352 2.94299 5.2298 0
M  V30 5791 H 554.422 2.99047 3.81705 0
M  V30 5792 N 555.766 -1.3263 0.851289 0
M  V30 5793 C 557.014 -1.96978 0.452128 0
M  V30 5794 C 557.335 -1.67715 -0.99482 0
M  V30 5795 O 556.605 -0.98259 -1.69476 0
M  V30 5796 H 555.185 -0.72873 0.164202 0
M  V30 5797 H 557.847 -1.61774 1.08698 0
M  V30 5798 H 556.943 -3.06387 0.594407 0
M  V30 5799 N 557.244 -0.608902 -1.45362 0
M  V30 5800 C 558.492 -0.104401 -2.0183 0
M  V30 5801 C 558.813 1.27007 -1.47967 0
M  V30 5802 O 558.083 1.83924 -0.674455 0
M  V30 5803 H 556.663 -0.0356042 -0.746151 0
M  V30 5804 H 559.325 -0.790596 -1.78145 0
M  V30 5805 H 558.421 -0.0551793 -3.12051 0
M  V30 5806 N 558.722 1.53707 -0.348139 0
M  V30 5807 C 559.67 2.26671 0.521808 0
M  V30 5808 C 560.664 1.28988 1.09811 0
M  V30 5809 O 561.87 1.4668 1.04332 0
M  V30 5810 H 558.245 0.728387 0.186968 0
M  V30 5811 H 560.216 2.98176 -0.115563 0
M  V30 5812 C 558.965 3.05591 1.6586 0
M  V30 5813 H 558.288 3.80589 1.22443 0
M  V30 5814 H 559.728 3.59851 2.24239 0
M  V30 5815 C 558.187 2.15366 2.59073 0
M  V30 5816 O 558.717 1.7528 3.61441 0
M  V30 5817 N 556.923 1.80352 2.27863 0
M  V30 5818 H 556.47 2.13149 1.44656 0
M  V30 5819 H 556.428 1.20268 2.90488 0
M  V30 5820 N 560.2 0.0768682 1.57412 0
M  V30 5821 C 561.448 -0.589918 1.93299 0
M  V30 5822 C 561.769 -1.69842 0.958049 0
M  V30 5823 O 561.039 -1.95899 0.00703261 0
M  V30 5824 H 559.619 -0.220901 0.713591 0
M  V30 5825 H 562.281 0.135917 1.94425 0
M  V30 5826 H 561.377 -1.01195 2.95239 0
M  V30 5827 N 561.678 -1.56367 -0.196722 0
M  V30 5828 C 562.925 -1.80529 -0.917366 0
M  V30 5829 C 563.253 -0.649817 -1.83324 0
M  V30 5830 O 562.508 0.36451 -1.92275 0
M  V30 5831 C 562.807 -3.10663 -1.767 0
M  V30 5832 C 562.473 -4.3962 -1.00225 0
M  V30 5833 C 561.135 -4.74653 -0.791095 0
M  V30 5834 C 563.487 -5.1913 -0.464035 0
M  V30 5835 C 560.815 -5.86692 -0.0302155 0
M  V30 5836 C 563.167 -6.31964 0.283625 0
M  V30 5837 C 561.831 -6.65581 0.505813 0
M  V30 5838 H 561.101 -0.660602 -0.335688 0
M  V30 5839 H 563.748 -1.90615 -0.183844 0
M  V30 5840 H 562.053 -2.95807 -2.56915 0
M  V30 5841 H 563.75 -3.26563 -2.32718 0
M  V30 5842 H 560.34 -4.12127 -1.17684 0
M  V30 5843 H 564.524 -4.9248 -0.614575 0
M  V30 5844 H 559.78 -6.11211 0.151917 0
M  V30 5845 H 563.954 -6.92791 0.708057 0
M  V30 5846 H 561.581 -7.52239 1.0973 0
M  V30 5847 N 563.156 0.464375 -1.50603 0
M  V30 5848 C 564.104 1.58224 -1.70493 0
M  V30 5849 C 565.098 1.59492 -0.570836 0
M  V30 5850 O 566.304 1.63561 -0.751517 0
M  V30 5851 H 562.679 0.525161 -0.538247 0
M  V30 5852 H 564.65 1.38613 -2.64252 0
M  V30 5853 C 563.399 2.96113 -1.82243 0
M  V30 5854 H 562.722 2.95858 -2.68901 0
M  V30 5855 H 564.162 3.73769 -2.00182 0
M  V30 5856 C 562.621 3.31946 -0.575628 0
M  V30 5857 O 563.151 4.00708 0.282152 0
M  V30 5858 N 561.357 2.87436 -0.427665 0
M  V30 5859 H 560.904 2.31652 -1.12674 0
M  V30 5860 H 560.862 3.11776 0.405379 0
M  V30 5861 N 564.634 1.40294 0.718013 0
M  V30 5862 C 565.862 1.4175 1.50714 0
M  V30 5863 C 566.277 0.0165366 1.88793 0
M  V30 5864 O 565.634 -0.958942 1.55276 0
M  V30 5865 C 565.685 2.30598 2.784 0
M  V30 5866 O 565.406 3.6524 2.41932 0
M  V30 5867 C 566.907 2.4062 3.72313 0
M  V30 5868 H 564.127 0.483565 0.465194 0
M  V30 5869 H 566.671 1.84316 0.885889 0
M  V30 5870 H 564.826 1.91401 3.36815 0
M  V30 5871 H 565.24 4.12402 3.24076 0
M  V30 5872 H 566.714 3.07001 4.58753 0
M  V30 5873 H 567.191 1.4305 4.15251 0
M  V30 5874 H 567.797 2.80359 3.19811 0
M  V30 5875 N 566.112 -0.949982 1.2575 0
M  V30 5876 C 567.022 -2.08109 1.08295 0
M  V30 5877 C 568.038 -1.7399 0.0188181 0
M  V30 5878 O 569.214 -2.00187 0.220724 0
M  V30 5879 C 566.279 -3.39383 0.708534 0
M  V30 5880 C 565.34 -3.8734 1.85111 0
M  V30 5881 C 564.573 -5.12349 1.49447 0
M  V30 5882 O 564.796 -5.6905 0.392212 0
M  V30 5883 O 563.73 -5.5513 2.32624 0
M  V30 5884 H 567.556 -2.25738 2.03165 0
M  V30 5885 H 565.141 -1.06545 1.04731 0
M  V30 5886 H 567.023 -4.18277 0.512061 0
M  V30 5887 H 565.698 -3.23013 -0.210854 0
M  V30 5888 H 564.605 -3.09429 2.10248 0
M  V30 5889 H 565.938 -4.08216 2.74991 0
M  V30 5890 N 567.59 -1.07411 -1.15328 0
M  V30 5891 C 568.82 -0.817595 -1.89734 0
M  V30 5892 C 569.228 0.63297 -1.78298 0
M  V30 5893 O 568.571 1.44594 -1.13306 0
M  V30 5894 C 568.633 -1.14748 -3.40695 0
M  V30 5895 C 568.297 -2.59876 -3.75917 0
M  V30 5896 C 569.294 -3.58122 -3.76888 0
M  V30 5897 C 566.979 -2.95469 -4.06206 0
M  V30 5898 C 568.973 -4.89996 -4.07655 0
M  V30 5899 C 566.66 -4.2754 -4.36638 0
M  V30 5900 C 567.658 -5.24614 -4.37344 0
M  V30 5901 O 567.346 -6.54312 -4.67045 0
M  V30 5902 H 567.078 -0.295175 -0.608151 0
M  V30 5903 H 569.632 -1.43409 -1.47048 0
M  V30 5904 H 567.862 -0.47395 -3.83785 0
M  V30 5905 H 569.551 -0.873397 -3.96392 0
M  V30 5906 H 570.317 -3.31966 -3.53587 0
M  V30 5907 H 566.196 -2.20558 -4.04815 0
M  V30 5908 H 569.74 -5.65759 -4.08121 0
M  V30 5909 H 565.637 -4.53449 -4.59407 0
M  V30 5910 H 566.405 -6.59473 -4.84807 0
M  V30 5911 N 569.068 1.32177 -0.85831 0
M  V30 5912 C 570.479 1.79381 -0.517621 0
M  V30 5913 C 570.83 1.70841 0.964769 0
M  V30 5914 O 569.955 1.26917 1.75274 0
M  V30 5915 C 570.55 3.25706 -0.932801 0
M  V30 5916 C 569.109 3.70851 -0.643953 0
M  V30 5917 C 568.256 2.53208 -1.13054 0
M  V30 5918 H 571.207 1.19424 -1.04516 0
M  V30 5919 H 571.228 3.79673 -0.250674 0
M  V30 5920 H 570.74 3.31889 -2.01174 0
M  V30 5921 H 568.841 3.70178 0.424112 0
M  V30 5922 H 568.954 4.63495 -1.21281 0
M  V30 5923 H 567.318 2.48676 -0.550679 0
M  V30 5924 H 568.101 2.62143 -2.21666 0
M  V30 5925 N 570.547 0.616602 1.45037 0
M  V30 5926 C 571.793 0.115501 2.02471 0
M  V30 5927 C 572.126 -1.25406 1.4828 0
M  V30 5928 O 571.401 -1.82922 0.661051 0
M  V30 5929 C 571.684 0.0863588 3.59996 0
M  V30 5930 C 571.537 1.48723 4.24501 0
M  V30 5931 C 572.856 -0.596762 4.36035 0
M  V30 5932 H 569.975 0.0434461 0.735718 0
M  V30 5933 H 572.617 0.7903 1.72784 0
M  V30 5934 H 570.767 -0.488277 3.85419 0
M  V30 5935 H 572.439 2.10964 4.10234 0
M  V30 5936 H 570.682 2.04534 3.82555 0
M  V30 5937 H 571.353 1.419 5.3345 0
M  V30 5938 H 573.829 -0.10824 4.15959 0
M  V30 5939 H 572.705 -0.586289 5.4576 0
M  V30 5940 H 572.966 -1.66451 4.09569 0
M  V30 5941 N 572.025 -1.5352 0.356285 0
M  V30 5942 C 572.935 -2.29151 -0.502712 0
M  V30 5943 C 573.951 -1.34753 -1.1008 0
M  V30 5944 O 575.127 -1.67803 -1.11374 0
M  V30 5945 C 572.192 -3.05911 -1.63154 0
M  V30 5946 C 571.253 -4.15958 -1.06194 0
M  V30 5947 C 570.486 -4.8905 -2.13696 0
M  V30 5948 O 570.709 -4.61919 -3.34645 0
M  V30 5949 O 569.643 -5.75202 -1.77275 0
M  V30 5950 H 573.469 -3.03492 0.112466 0
M  V30 5951 H 571.054 -1.4891 0.120942 0
M  V30 5952 H 572.936 -3.53874 -2.28804 0
M  V30 5953 H 571.611 -2.34415 -2.23229 0
M  V30 5954 H 570.518 -3.7227 -0.369603 0
M  V30 5955 H 571.851 -4.89593 -0.505872 0
M  V30 5956 N 573.503 -0.0852151 -1.57369 0
M  V30 5957 C 574.45 0.877268 -2.13478 0
M  V30 5958 C 575.42 1.28642 -1.05073 0
M  V30 5959 O 576.605 1.36992 -1.32808 0
M  V30 5960 C 573.745 2.13464 -2.71159 0
M  V30 5961 C 572.858 1.77691 -3.93764 0
M  V30 5962 C 571.993 2.98139 -4.39643 0
M  V30 5963 C 571.032 2.58447 -5.54862 0
M  V30 5964 N 570.169 3.71698 -5.95639 0
M  V30 5965 H 575.009 0.391933 -2.95411 0
M  V30 5966 H 572.546 0.181796 -1.45972 0
M  V30 5967 H 574.504 2.87086 -3.02717 0
M  V30 5968 H 573.134 2.59514 -1.91969 0
M  V30 5969 H 572.186 0.940768 -3.68583 0
M  V30 5970 H 573.498 1.44497 -4.77412 0
M  V30 5971 H 572.652 3.80026 -4.72933 0
M  V30 5972 H 571.391 3.34536 -3.54876 0
M  V30 5973 H 570.396 1.74984 -5.21211 0
M  V30 5974 H 571.621 2.23205 -6.41371 0
M  V30 5975 H 569.567 4.07831 -5.13819 0
M  V30 5976 H 569.484 3.42317 -6.74059 0
M  V30 5977 H 570.752 4.54123 -6.33555 0
M  V30 5978 N 574.981 1.5647 0.188427 0
M  V30 5979 C 575.911 1.98101 1.23606 0
M  V30 5980 C 576.892 0.853961 1.47111 0
M  V30 5981 O 578.077 1.11879 1.58735 0
M  V30 5982 C 575.207 2.32624 2.57882 0
M  V30 5983 C 574.161 3.48129 2.48978 0
M  V30 5984 C 573.487 3.68347 3.87588 0
M  V30 5985 C 574.787 4.82112 2.00911 0
M  V30 5986 H 576.481 2.85864 0.890068 0
M  V30 5987 H 574.027 1.37532 0.426714 0
M  V30 5988 H 575.98 2.60343 3.3136 0
M  V30 5989 H 574.704 1.41751 2.94235 0
M  V30 5990 H 573.363 3.20511 1.77956 0
M  V30 5991 H 573.011 2.74793 4.21305 0
M  V30 5992 H 572.711 4.46055 3.82503 0
M  V30 5993 H 574.235 3.98449 4.62678 0
M  V30 5994 H 575.649 5.08819 2.64151 0
M  V30 5995 H 574.046 5.63337 2.06814 0
M  V30 5996 H 575.116 4.75249 0.96262 0
M  V30 5997 N 576.459 -0.456382 1.50847 0
M  V30 5998 C 577.392 -1.57177 1.65441 0
M  V30 5999 C 578.37 -1.54649 0.502224 0
M  V30 6000 O 579.554 -1.74057 0.723633 0
M  V30 6001 C 576.681 -2.95763 1.65052 0
M  V30 6002 C 575.727 -3.16389 2.86007 0
M  V30 6003 S 576.56 -2.94716 4.47105 0
M  V30 6004 C 577.716 -4.35617 4.49432 0
M  V30 6005 H 577.949 -1.44561 2.59787 0
M  V30 6006 H 575.482 -0.644758 1.40293 0
M  V30 6007 H 577.44 -3.75654 1.65512 0
M  V30 6008 H 576.101 -3.05756 0.719153 0
M  V30 6009 H 575.294 -4.17667 2.82081 0
M  V30 6010 H 574.896 -2.44293 2.8319 0
M  V30 6011 H 577.188 -5.28503 4.239 0
M  V30 6012 H 578.131 -4.44582 5.51137 0
M  V30 6013 H 578.539 -4.18382 3.78967 0
M  V30 6014 N 577.937 -1.40673 -0.710563 0
M  V30 6015 C 579.353 -1.22813 -1.01928 0
M  V30 6016 C 579.553 -0.10687 -2.01216 0
M  V30 6017 O 578.609 0.533614 -2.46797 0
M  V30 6018 C 579.922 -2.57178 -1.5582 0
M  V30 6019 C 581.47 -2.64233 -1.67779 0
M  V30 6020 C 581.945 -3.98879 -2.25076 0
M  V30 6021 N 583.436 -4.00647 -2.32456 0
M  V30 6022 C 584.171 -5.01621 -2.77784 0
M  V30 6023 N 583.667 -6.12989 -3.22826 0
M  V30 6024 N 585.46 -4.88988 -2.77213 0
M  V30 6025 H 577.611 -2.12335 -0.05253 0
M  V30 6026 H 579.874 -0.9441 -0.085898 0
M  V30 6027 H 579.58 -3.39903 -0.903249 0
M  V30 6028 H 579.454 -2.78618 -2.54267 0
M  V30 6029 H 581.841 -1.81876 -2.3239 0
M  V30 6030 H 581.922 -2.46619 -0.679178 0
M  V30 6031 H 581.566 -4.81678 -1.61086 0
M  V30 6032 H 581.496 -4.13826 -3.25661 0
M  V30 6033 H 583.987 -3.20231 -2.0065 0
M  V30 6034 H 584.3 -6.85921 -3.55995 0
M  V30 6035 H 582.645 -6.16547 -3.20773 0
M  V30 6036 H 585.836 -4.01075 -2.41363 0
M  V30 6037 H 586.009 -5.67822 -3.12221 0
M  V30 6038 N 579.415 0.9433 -1.26252 0
M  V30 6039 C 580.692 1.66639 -1.02424 0
M  V30 6040 C 581.072 2.06335 0.446006 0
M  V30 6041 O 580.42 1.78551 1.42589 0
M  V30 6042 C 580.63 2.88019 -1.97094 0
M  V30 6043 C 581.978 3.59718 -2.25584 0
M  V30 6044 O 583.002 2.9812 -1.94943 0
M  V30 6045 O 581.861 4.7066 -2.77743 0
M  V30 6046 H 578.955 0.729643 -0.389294 0
M  V30 6047 H 581.501 0.995218 -1.37454 0
M  V30 6048 H 580.273 2.5556 -2.96319 0
M  V30 6049 H 579.896 3.62863 -1.62532 0
M  V30 6050 N 580.893 1.08022 1.14757 0
M  V30 6051 C 581.856 0.71048 2.1791 0
M  V30 6052 C 582.856 -0.252731 1.58801 0
M  V30 6053 O 584.046 -0.0327915 1.74169 0
M  V30 6054 C 581.178 0.0483203 3.40866 0
M  V30 6055 H 582.371 1.62384 2.52134 0
M  V30 6056 H 579.924 0.877595 1.29337 0
M  V30 6057 H 580.659 -0.876959 3.12218 0
M  V30 6058 H 580.444 0.741189 3.85031 0
M  V30 6059 H 581.934 -0.195471 4.17142 0
M  V30 6060 N 582.371 -1.3172 0.865308 0
M  V30 6061 C 583.318 -2.2863 0.315736 0
M  V30 6062 C 584.288 -1.55524 -0.583213 0
M  V30 6063 O 585.473 -1.83694 -0.51585 0
M  V30 6064 C 582.613 -3.41735 -0.480773 0
M  V30 6065 C 581.726 -4.297 0.445167 0
M  V30 6066 C 580.861 -5.29944 -0.365012 0
M  V30 6067 C 579.9 -6.09554 0.557651 0
M  V30 6068 N 579.037 -7.01768 -0.215994 0
M  V30 6069 H 583.877 -2.75026 1.14736 0
M  V30 6070 H 581.414 -1.35302 0.577209 0
M  V30 6071 H 583.372 -4.06045 -0.958306 0
M  V30 6072 H 582.002 -2.96461 -1.27714 0
M  V30 6073 H 581.054 -3.65875 1.04113 0
M  V30 6074 H 582.366 -4.85295 1.15284 0
M  V30 6075 H 581.52 -5.99908 -0.905255 0
M  V30 6076 H 580.259 -4.74994 -1.106 0
M  V30 6077 H 579.264 -5.38485 1.10969 0
M  V30 6078 H 580.489 -6.66591 1.29742 0
M  V30 6079 H 578.435 -6.49232 -0.939878 0
M  V30 6080 H 578.352 -7.54762 0.432431 0
M  V30 6081 H 579.62 -7.76002 -0.737618 0
M  V30 6082 N 583.85 -0.624285 -1.44708 0
M  V30 6083 C 585.099 -0.123539 -2.01321 0
M  V30 6084 C 585.412 1.25966 -1.49639 0
M  V30 6085 O 586.618 1.85405 -1.98336 0
M  V30 6086 C 585.074 -0.170124 -3.59498 0
M  V30 6087 C 584.682 -1.55421 -4.20176 0
M  V30 6088 C 586.426 0.274513 -4.23611 0
M  V30 6089 C 584.332 -1.55628 -5.70556 0
M  V30 6090 H 583.263 -0.0424183 -0.752806 0
M  V30 6091 H 585.913 -0.782076 -1.65999 0
M  V30 6092 H 584.296 0.555385 -3.92086 0
M  V30 6093 H 585.47 -2.30276 -3.99136 0
M  V30 6094 H 583.784 -1.94235 -3.68323 0
M  V30 6095 H 586.382 0.292402 -5.339 0
M  V30 6096 H 586.725 1.3005 -3.95465 0
M  V30 6097 H 587.258 -0.398275 -3.95801 0
M  V30 6098 H 583.997 -2.56041 -6.03426 0
M  V30 6099 H 583.517 -0.850563 -5.93739 0
M  V30 6100 H 585.196 -1.28721 -6.34066 0
M  V30 6101 N 585.328 1.53329 -0.364422 0
M  V30 6102 C 586.558 2.05359 0.226096 0
M  V30 6103 C 586.966 1.23777 1.43094 0
M  V30 6104 O 586.309 0.271139 1.81688 0
M  V30 6105 C 586.371 3.52918 0.684794 0
M  V30 6106 C 586.035 4.55218 -0.403206 0
M  V30 6107 C 587.032 5.04583 -1.2527 0
M  V30 6108 C 584.717 4.99134 -0.563117 0
M  V30 6109 C 586.711 5.96463 -2.24745 0
M  V30 6110 C 584.398 5.9082 -1.56124 0
M  V30 6111 C 585.396 6.39375 -2.40184 0
M  V30 6112 O 585.084 7.29255 -3.38293 0
M  V30 6113 H 584.816 0.674588 0.0436772 0
M  V30 6114 H 587.37 1.98688 -0.520782 0
M  V30 6115 H 585.6 3.57122 1.48326 0
M  V30 6116 H 587.289 3.87812 1.19818 0
M  V30 6117 H 588.055 4.71403 -1.14034 0
M  V30 6118 H 583.934 4.60928 0.0813909 0
M  V30 6119 H 587.478 6.34285 -2.90393 0
M  V30 6120 H 583.375 6.23414 -1.67407 0
M  V30 6121 H 584.143 7.47249 -3.34009 0
M  V30 6122 N 586.806 0.0935595 1.57322 0
M  V30 6123 C 587.738 -0.895923 2.10964 0
M  V30 6124 C 588.751 -1.24705 1.04654 0
M  V30 6125 O 589.94 -1.20044 1.32105 0
M  V30 6126 C 587.04 -2.20546 2.57318 0
M  V30 6127 C 586.213 -2.0299 3.87445 0
M  V30 6128 C 585.272 -3.17443 4.19662 0
M  V30 6129 O 584.298 -2.91474 4.88909 0
M  V30 6130 N 585.5 -4.43168 3.74943 0
M  V30 6131 H 588.265 -0.437788 2.96485 0
M  V30 6132 H 585.826 -0.0915863 1.61641 0
M  V30 6133 H 587.818 -2.9606 2.75917 0
M  V30 6134 H 586.388 -2.57789 1.76816 0
M  V30 6135 H 585.608 -1.11815 3.78009 0
M  V30 6136 H 586.896 -1.88535 4.7258 0
M  V30 6137 H 586.294 -4.67149 3.19043 0
M  V30 6138 H 584.851 -5.15637 3.987 0
M  V30 6139 N 588.284 -1.56567 -0.180126 0
M  V30 6140 C 589.533 -1.80685 -0.896426 0
M  V30 6141 C 589.846 -0.669335 -1.83791 0
M  V30 6142 O 591.052 -0.795209 -2.59593 0
M  V30 6143 C 589.508 -3.20132 -1.6445 0
M  V30 6144 C 589.116 -4.41727 -0.747088 0
M  V30 6145 C 590.86 -3.53549 -2.34955 0
M  V30 6146 C 588.767 -5.72195 -1.49489 0
M  V30 6147 H 587.697 -0.673758 -0.338477 0
M  V30 6148 H 590.348 -1.8289 -0.149467 0
M  V30 6149 H 588.73 -3.12218 -2.43589 0
M  V30 6150 H 589.904 -4.608 0.00671129 0
M  V30 6151 H 588.219 -4.16122 -0.152134 0
M  V30 6152 H 590.816 -4.48267 -2.91481 0
M  V30 6153 H 591.159 -2.78006 -3.09868 0
M  V30 6154 H 591.692 -3.62976 -1.62768 0
M  V30 6155 H 588.431 -6.50743 -0.788251 0
M  V30 6156 H 587.951 -5.57115 -2.22224 0
M  V30 6157 H 589.63 -6.1384 -2.04472 0
M  V30 6158 N 589.762 0.448376 -1.51087 0
M  V30 6159 C 590.992 1.21965 -1.66757 0
M  V30 6160 C 591.4 1.85748 -0.359753 0
M  V30 6161 O 590.743 1.71022 0.670604 0
M  V30 6162 C 590.805 2.35284 -2.71812 0
M  V30 6163 C 590.469 1.91957 -4.1473 0
M  V30 6164 C 591.466 1.42921 -4.9987 0
M  V30 6165 C 589.151 1.99985 -4.60772 0
M  V30 6166 C 591.145 1.02485 -6.29107 0
M  V30 6167 C 588.832 1.5916 -5.90009 0
M  V30 6168 C 589.83 1.10491 -6.74004 0
M  V30 6169 O 589.518 0.702413 -8.00825 0
M  V30 6170 H 589.25 0.374125 -0.563034 0
M  V30 6171 H 591.804 0.538927 -1.98204 0
M  V30 6172 H 590.034 3.06599 -2.35657 0
M  V30 6173 H 591.723 2.97184 -2.76472 0
M  V30 6174 H 592.489 1.36123 -4.65506 0
M  V30 6175 H 588.368 2.36814 -3.95525 0
M  V30 6176 H 591.912 0.644271 -6.94619 0
M  V30 6177 H 587.809 1.65626 -6.2389 0
M  V30 6178 H 588.577 0.829248 -8.14288 0
M  V30 6179 N 591.24 1.41047 0.703093 0
M  V30 6180 C 592.15 1.44645 1.84703 0
M  V30 6181 C 593.166 0.337778 1.7069 0
M  V30 6182 O 594.342 0.584327 1.92737 0
M  V30 6183 C 591.407 1.31928 3.20618 0
M  V30 6184 C 590.468 2.53047 3.46794 0
M  V30 6185 C 589.701 2.40927 4.76224 0
M  V30 6186 O 589.924 1.42978 5.5219 0
M  V30 6187 O 588.858 3.30543 5.03016 0
M  V30 6188 H 592.684 2.41139 1.84624 0
M  V30 6189 H 590.269 1.22504 0.855167 0
M  V30 6190 H 592.151 1.27092 4.01778 0
M  V30 6191 H 590.826 0.385469 3.21397 0
M  V30 6192 H 589.733 2.6346 2.65593 0
M  V30 6193 H 591.066 3.45231 3.50822 0
M  V30 6194 N 592.718 -0.936591 1.26751 0
M  V30 6195 C 593.966 -1.67998 1.12343 0
M  V30 6196 C 594.287 -1.92137 -0.332938 0
M  V30 6197 O 593.557 -1.52132 -1.23421 0
M  V30 6198 H 592.137 -0.622609 0.412756 0
M  V30 6199 H 594.799 -1.12509 1.59147 0
M  V30 6200 H 593.895 -2.65185 1.64571 0
M  V30 6201 N 594.196 -1.08629 -1.14182 0
M  V30 6202 C 595.424 -0.838889 -1.8913 0
M  V30 6203 C 595.839 0.609153 -1.78703 0
M  V30 6204 O 595.196 1.41876 -1.14794 0
M  V30 6205 C 595.247 -1.25477 -3.39025 0
M  V30 6206 O 594.968 -2.64601 -3.49167 0
M  V30 6207 C 596.469 -1.03856 -4.30963 0
M  V30 6208 H 593.689 -0.302377 -0.599007 0
M  V30 6209 H 596.233 -1.44615 -1.44592 0
M  V30 6210 H 594.388 -0.691571 -3.81177 0
M  V30 6211 H 594.802 -2.81922 -4.42289 0
M  V30 6212 H 596.276 -1.37892 -5.345 0
M  V30 6213 H 596.753 0.0242522 -4.39193 0
M  V30 6214 H 597.359 -1.58731 -3.94569 0
M  V30 6215 N 595.674 1.31259 -0.872281 0
M  V30 6216 C 596.899 2.0133 -0.498099 0
M  V30 6217 C 597.324 1.65031 0.902568 0
M  V30 6218 O 596.682 0.860164 1.59596 0
M  V30 6219 C 596.73 3.54411 -0.665205 0
M  V30 6220 O 595.834 4.11347 0.294473 0
M  V30 6221 H 595.175 0.633844 -0.197832 0
M  V30 6222 H 597.705 1.67402 -1.17633 0
M  V30 6223 H 597.715 4.04147 -0.559373 0
M  V30 6224 H 596.39 3.80171 -1.68651 0
M  V30 6225 H 594.967 3.72624 0.143403 0
M  V30 6226 N 597.152 0.631951 1.44375 0
M  V30 6227 C 598.084 -0.110911 2.28931 0
M  V30 6228 C 599.097 -0.808086 1.41329 0
M  V30 6229 O 600.286 -0.669396 1.65473 0
M  V30 6230 C 597.386 -1.17928 3.1772 0
M  V30 6231 C 596.559 -0.564458 4.33743 0
M  V30 6232 C 595.618 -1.5269 5.0356 0
M  V30 6233 O 594.644 -1.04372 5.59549 0
M  V30 6234 N 595.846 -2.86123 5.05088 0
M  V30 6235 H 598.611 0.614758 2.93327 0
M  V30 6236 H 596.172 0.473171 1.54831 0
M  V30 6237 H 598.164 -1.82348 3.61291 0
M  V30 6238 H 596.734 -1.80717 2.55069 0
M  V30 6239 H 595.954 0.258373 3.93352 0
M  V30 6240 H 597.242 -0.134355 5.08623 0
M  V30 6241 H 596.64 -3.27959 4.60933 0
M  V30 6242 H 595.197 -3.45901 5.52445 0
M  V30 6243 N 598.631 -1.53133 0.372548 0
M  V30 6244 C 599.88 -2.00539 -0.216115 0
M  V30 6245 C 600.193 -1.26374 -1.49295 0
M  V30 6246 O 601.399 -1.64404 -2.16064 0
M  V30 6247 C 599.855 -3.57253 -0.435678 0
M  V30 6248 C 599.463 -4.40302 0.82693 0
M  V30 6249 C 601.207 -4.12995 -0.981618 0
M  V30 6250 C 599.114 -5.88583 0.576567 0
M  V30 6251 H 598.044 -0.749246 -0.084536 0
M  V30 6252 H 600.695 -1.76771 0.492364 0
M  V30 6253 H 599.077 -3.77202 -1.20559 0
M  V30 6254 H 600.251 -4.32124 1.60017 0
M  V30 6255 H 598.566 -3.95699 1.29659 0
M  V30 6256 H 601.163 -5.21418 -1.18436 0
M  V30 6257 H 601.506 -3.68027 -1.94581 0
M  V30 6258 H 602.039 -3.96871 -0.271696 0
M  V30 6259 H 598.778 -6.37841 1.51128 0
M  V30 6260 H 598.298 -5.99592 -0.158047 0
M  V30 6261 H 599.977 -6.46676 0.204722 0
M  V30 6262 N 600.109 -0.101901 -1.5727 0
M  V30 6263 C 601.041 0.884723 -2.11436 0
M  V30 6264 C 602.054 1.24149 -1.05314 0
M  V30 6265 O 603.243 1.19341 -1.3274 0
M  V30 6266 C 600.343 2.19179 -2.58484 0
M  V30 6267 C 599.516 2.00933 -3.88516 0
M  V30 6268 C 598.575 3.15213 -4.2134 0
M  V30 6269 O 597.601 2.88877 -4.90448 0
M  V30 6270 N 598.803 4.41174 -3.77288 0
M  V30 6271 H 601.568 0.422058 -2.96713 0
M  V30 6272 H 599.129 0.0830128 -1.61687 0
M  V30 6273 H 601.121 2.94593 -2.77484 0
M  V30 6274 H 599.691 2.56847 -1.7818 0
M  V30 6275 H 598.911 1.09809 -3.78597 0
M  V30 6276 H 600.199 1.86026 -4.73573 0
M  V30 6277 H 599.597 4.6545 -3.21516 0
M  V30 6278 H 598.154 5.13515 -4.01429 0
M  V30 6279 N 601.587 1.56661 0.17182 0
M  V30 6280 C 603.003 1.50768 0.52357 0
M  V30 6281 C 603.203 0.806072 1.84675 0
M  V30 6282 O 602.259 0.366233 2.4983 0
M  V30 6283 C 603.572 2.955 0.556793 0
M  V30 6284 C 605.12 3.06303 0.644029 0
M  V30 6285 C 605.595 4.52492 0.708148 0
M  V30 6286 N 607.086 4.56737 0.771051 0
M  V30 6287 C 607.821 5.67196 0.841229 0
M  V30 6288 N 607.317 6.87287 0.872272 0
M  V30 6289 N 609.11 5.55165 0.88021 0
M  V30 6290 H 601.261 2.00679 -0.695817 0
M  V30 6291 H 603.524 0.914219 -0.250814 0
M  V30 6292 H 603.23 3.49986 -0.346774 0
M  V30 6293 H 603.104 3.50119 1.40346 0
M  V30 6294 H 605.491 2.51851 1.53802 0
M  V30 6295 H 605.572 2.5477 -0.229297 0
M  V30 6296 H 605.216 5.07575 -0.181585 0
M  V30 6297 H 605.146 5.01781 1.59761 0
M  V30 6298 H 607.637 3.70274 0.755364 0
M  V30 6299 H 607.95 7.6722 0.92698 0
M  V30 6300 H 606.295 6.89898 0.840557 0
M  V30 6301 H 609.486 4.60263 0.852956 0
M  V30 6302 H 609.659 6.41271 0.931439 0
M  V30 6303 N 603.065 -0.440357 1.51323 0
M  V30 6304 C 603.995 -1.54174 1.75364 0
M  V30 6305 C 604.976 -1.59039 0.603375 0
M  V30 6306 O 606.161 -1.74815 0.845774 0
M  V30 6307 C 603.291 -2.92277 1.87593 0
M  V30 6308 C 602.245 -3.02274 3.03009 0
M  V30 6309 C 601.571 -4.42327 3.00418 0
M  V30 6310 C 602.871 -2.76634 4.43024 0
M  V30 6311 H 604.565 -1.34307 2.67585 0
M  V30 6312 H 602.111 -0.644678 1.28763 0
M  V30 6313 H 604.064 -3.69284 2.02995 0
M  V30 6314 H 602.788 -3.13369 0.920179 0
M  V30 6315 H 601.447 -2.27706 2.87307 0
M  V30 6316 H 601.095 -4.60382 2.02626 0
M  V30 6317 H 600.795 -4.49946 3.77918 0
M  V30 6318 H 602.319 -5.21312 3.17909 0
M  V30 6319 H 603.733 -3.43376 4.59093 0
M  V30 6320 H 602.13 -2.95666 5.22208 0
M  V30 6321 H 603.2 -1.72262 4.5327 0
M  V30 6322 N 604.543 -1.41418 -0.695603 0
M  V30 6323 C 605.792 -1.40073 -1.4513 0
M  V30 6324 C 606.105 -0.0130439 -1.95596 0
M  V30 6325 O 607.311 0.123032 -2.71221 0
M  V30 6326 C 605.767 -2.46286 -2.62433 0
M  V30 6327 C 605.375 -3.90962 -2.18753 0
M  V30 6328 C 607.119 -2.54077 -3.40066 0
M  V30 6329 C 605.026 -4.88728 -3.33015 0
M  V30 6330 H 603.956 -0.520903 -0.545138 0
M  V30 6331 H 606.607 -1.67242 -0.75515 0
M  V30 6332 H 604.989 -2.12248 -3.34315 0
M  V30 6333 H 606.163 -4.34248 -1.54161 0
M  V30 6334 H 604.478 -3.86831 -1.54114 0
M  V30 6335 H 607.075 -3.24303 -4.25125 0
M  V30 6336 H 607.418 -1.5776 -3.8525 0
M  V30 6337 H 607.951 -2.87206 -2.75241 0
M  V30 6338 H 604.69 -5.86449 -2.92844 0
M  V30 6339 H 604.21 -4.50091 -3.96457 0
M  V30 6340 H 605.889 -5.09483 -3.98793 0
M  V30 6341 N 606.021 0.929856 -1.27246 0
M  V30 6342 C 607.267 1.6798 -1.13625 0
M  V30 6343 C 607.6 1.91586 0.317589 0
M  V30 6344 O 606.875 1.50467 1.23247 0
M  V30 6345 C 607.158 3.04766 -1.91806 0
M  V30 6346 C 607.011 2.88415 -3.45162 0
M  V30 6347 C 608.33 4.05063 -1.72082 0
M  V30 6348 H 605.449 0.609632 -0.414147 0
M  V30 6349 H 608.091 1.0792 -1.56376 0
M  V30 6350 H 606.241 3.56034 -1.55474 0
M  V30 6351 H 607.913 2.44282 -3.91311 0
M  V30 6352 H 606.156 2.23802 -3.71611 0
M  V30 6353 H 606.827 3.85482 -3.95105 0
M  V30 6354 H 609.303 3.62798 -2.03757 0
M  V30 6355 H 608.179 4.98765 -2.29182 0
M  V30 6356 H 608.44 4.37021 -0.668206 0
M  V30 6357 N 607.499 1.09233 1.13605 0
M  V30 6358 C 608.462 0.733553 2.17144 0
M  V30 6359 C 609.462 -0.235873 1.59061 0
M  V30 6360 O 610.652 -0.0143167 1.74194 0
M  V30 6361 C 607.784 0.084471 3.40795 0
M  V30 6362 H 608.977 1.65049 2.50397 0
M  V30 6363 H 606.53 0.891264 1.28399 0
M  V30 6364 H 607.265 -0.843795 3.1313 0
M  V30 6365 H 607.05 0.781985 3.84223 0
M  V30 6366 H 608.54 -0.151216 4.17326 0
M  V30 6367 N 608.977 -1.30795 0.87923 0
M  V30 6368 C 610.393 -1.48981 0.57243 0
M  V30 6369 C 610.593 -1.80719 -0.891236 0
M  V30 6370 O 609.649 -1.89136 -1.67283 0
M  V30 6371 C 610.962 -2.61721 1.48063 0
M  V30 6372 C 612.51 -2.75603 1.48365 0
M  V30 6373 C 612.985 -3.91449 2.37763 0
M  V30 6374 N 614.476 -3.98751 2.35695 0
M  V30 6375 C 615.211 -4.87684 3.01583 0
M  V30 6376 N 614.707 -5.81454 3.76674 0
M  V30 6377 N 616.5 -4.81005 2.90844 0
M  V30 6378 H 608.651 -1.08465 1.82617 0
M  V30 6379 H 610.914 -0.536813 0.781368 0
M  V30 6380 H 610.62 -2.45073 2.52254 0
M  V30 6381 H 610.494 -3.58071 1.18596 0
M  V30 6382 H 612.881 -2.9166 0.44927 0
M  V30 6383 H 612.962 -1.79891 1.81859 0
M  V30 6384 H 612.606 -3.76149 3.41283 0
M  V30 6385 H 612.536 -4.86487 2.01589 0
M  V30 6386 H 615.027 -3.31668 1.81121 0
M  V30 6387 H 615.34 -6.46063 4.24054 0
M  V30 6388 H 613.685 -5.81403 3.80782 0
M  V30 6389 H 616.876 -4.06728 2.31711 0
M  V30 6390 H 617.049 -5.50107 3.42471 0
M  V30 6391 N 610.455 -0.639598 -1.44038 0
M  V30 6392 C 611.365 0.0612377 -2.3452 0
M  V30 6393 C 612.381 0.826717 -1.53106 0
M  V30 6394 O 613.557 0.777059 -1.85806 0
M  V30 6395 C 610.622 1.02492 -3.31204 0
M  V30 6396 C 609.683 0.25788 -4.28525 0
M  V30 6397 C 608.916 1.17566 -5.2059 0
M  V30 6398 O 609.139 2.41461 -5.16771 0
M  V30 6399 O 608.073 0.655407 -5.98321 0
M  V30 6400 H 611.899 -0.68318 -2.95916 0
M  V30 6401 H 609.484 -0.399784 -1.43952 0
M  V30 6402 H 611.366 1.57911 -3.90694 0
M  V30 6403 H 610.041 1.7498 -2.7233 0
M  V30 6404 H 608.948 -0.339566 -3.72556 0
M  V30 6405 H 610.281 -0.427154 -4.90343 0
M  V30 6406 N 611.933 1.52934 -0.380664 0
M  V30 6407 C 612.883 2.22989 0.475399 0
M  V30 6408 C 613.867 1.23058 1.03661 0
M  V30 6409 O 615.059 1.48436 0.964146 0
M  V30 6410 C 612.188 3.0338 1.60671 0
M  V30 6411 C 611.274 4.107 1.05766 0
M  V30 6412 N 611.665 5.05264 0.232837 0
M  V30 6413 C 609.963 4.25676 1.33101 0
M  V30 6414 C 610.664 5.81658 -0.0695134 0
M  V30 6415 N 609.64 5.40989 0.532144 0
M  V30 6416 H 613.442 2.93456 -0.161418 0
M  V30 6417 H 610.956 1.61291 -0.189495 0
M  V30 6418 H 612.953 3.52098 2.23232 0
M  V30 6419 H 611.613 2.34446 2.24644 0
M  V30 6420 H 612.624 5.17739 -0.129204 0
M  V30 6421 H 609.301 3.6797 1.97241 0
M  V30 6422 H 610.691 6.67843 -0.737269 0
M  V30 6423 N 613.412 0.11024 1.57214 0
M  V30 6424 C 614.661 -0.549638 1.94067 0
M  V30 6425 C 614.974 -1.68388 0.995234 0
M  V30 6426 O 616.18 -2.40593 1.25807 0
M  V30 6427 C 614.636 -1.02912 3.44873 0
M  V30 6428 C 614.244 0.0761861 4.47935 0
M  V30 6429 C 615.988 -1.66087 3.9066 0
M  V30 6430 C 613.895 -0.419502 5.8991 0
M  V30 6431 H 612.825 -0.209092 0.724428 0
M  V30 6432 H 615.476 0.188683 1.82527 0
M  V30 6433 H 613.858 -1.82159 3.51616 0
M  V30 6434 H 615.032 0.852185 4.52851 0
M  V30 6435 H 613.347 0.614052 4.11847 0
M  V30 6436 H 615.944 -2.04272 4.94143 0
M  V30 6437 H 616.287 -2.53591 3.30148 0
M  V30 6438 H 616.82 -0.933959 3.86681 0
M  V30 6439 H 613.559 0.419277 6.54158 0
M  V30 6440 H 613.079 -1.16217 5.88433 0
M  V30 6441 H 614.758 -0.883577 6.40938 0
M  V30 6442 N 614.89 -1.56749 -0.16351 0
M  V30 6443 C 616.167 -1.73321 -0.906599 0
M  V30 6444 C 616.547 -0.673779 -2.00059 0
M  V30 6445 O 615.895 0.310121 -2.26386 0
M  V30 6446 C 616.105 -3.168 -1.46419 0
M  V30 6447 C 617.453 -3.77993 -1.93407 0
M  V30 6448 O 618.477 -3.20127 -1.56196 0
M  V30 6449 O 617.336 -4.79615 -2.61976 0
M  V30 6450 H 614.43 -0.708073 -0.427272 0
M  V30 6451 H 616.976 -1.69029 -0.150727 0
M  V30 6452 H 615.748 -3.85396 -0.677189 0
M  V30 6453 H 615.371 -3.2545 -2.28403 0
M  V30 6454 N 616.368 0.432326 -1.51554 0
M  V30 6455 C 617.315 1.52512 -1.7323 0
M  V30 6456 C 618.285 1.55863 -0.5741 0
M  V30 6457 O 619.47 1.72796 -0.809093 0
M  V30 6458 C 616.61 2.90183 -1.86783 0
M  V30 6459 C 615.723 2.96322 -3.14352 0
M  V30 6460 C 614.858 4.25147 -3.18471 0
M  V30 6461 C 613.897 4.25172 -4.40335 0
M  V30 6462 N 613.034 5.45529 -4.41975 0
M  V30 6463 H 617.874 1.33332 -2.66508 0
M  V30 6464 H 615.411 0.647613 -1.32077 0
M  V30 6465 H 617.369 3.70071 -1.92623 0
M  V30 6466 H 615.999 3.0791 -0.969087 0
M  V30 6467 H 615.051 2.09066 -3.17798 0
M  V30 6468 H 616.363 2.92203 -4.04251 0
M  V30 6469 H 615.517 5.13411 -3.23255 0
M  V30 6470 H 614.256 4.31929 -2.2647 0
M  V30 6471 H 613.261 3.353 -4.35723 0
M  V30 6472 H 614.486 4.20049 -5.33606 0
M  V30 6473 H 612.432 5.53024 -3.52847 0
M  V30 6474 H 612.349 5.43311 -5.25689 0
M  V30 6475 H 613.617 6.35812 -4.50958 0
M  V30 6476 N 617.846 1.41785 0.688094 0
M  V30 6477 C 619.076 1.44705 1.47459 0
M  V30 6478 C 619.484 0.052916 1.89126 0
M  V30 6479 O 618.827 -0.939781 1.57841 0
M  V30 6480 C 618.889 2.29935 2.76352 0
M  V30 6481 C 618.553 3.77996 2.56843 0
M  V30 6482 C 619.55 4.69976 2.22304 0
M  V30 6483 C 617.235 4.2212 2.7225 0
M  V30 6484 C 619.229 6.04068 2.03421 0
M  V30 6485 C 616.916 5.56275 2.52985 0
M  V30 6486 C 617.914 6.47065 2.18621 0
M  V30 6487 O 617.602 7.78744 1.9953 0
M  V30 6488 H 617.334 0.494703 0.460701 0
M  V30 6489 H 619.888 1.86802 0.854057 0
M  V30 6490 H 618.118 1.82664 3.40839 0
M  V30 6491 H 619.807 2.24467 3.38186 0
M  V30 6492 H 620.573 4.37175 2.10008 0
M  V30 6493 H 616.452 3.51752 2.97979 0
M  V30 6494 H 619.996 6.74897 1.76523 0
M  V30 6495 H 615.893 5.88653 2.64873 0
M  V30 6496 H 616.661 7.89966 2.14234 0
M  V30 6497 N 619.324 -0.923095 1.27737 0
M  V30 6498 C 620.271 -2.02432 1.1086 0
M  V30 6499 C 621.241 -1.66098 0.00835195 0
M  V30 6500 O 622.426 -1.90027 0.171542 0
M  V30 6501 C 619.566 -3.36476 0.766671 0
M  V30 6502 C 618.679 -3.85737 1.94501 0
M  V30 6503 C 617.814 -5.08249 1.54455 0
M  V30 6504 C 616.853 -5.49818 2.6901 0
M  V30 6505 N 615.99 -6.63524 2.29521 0
M  V30 6506 H 620.83 -2.16201 2.05089 0
M  V30 6507 H 618.367 -1.05909 1.02087 0
M  V30 6508 H 620.325 -4.13569 0.549223 0
M  V30 6509 H 618.955 -3.22502 -0.13867 0
M  V30 6510 H 618.007 -3.04883 2.27487 0
M  V30 6511 H 619.319 -4.12513 2.80419 0
M  V30 6512 H 618.473 -5.92857 1.28862 0
M  V30 6513 H 617.212 -4.83261 0.656534 0
M  V30 6514 H 616.217 -4.63757 2.95313 0
M  V30 6515 H 617.442 -5.76799 3.5844 0
M  V30 6516 H 615.388 -6.40185 1.43177 0
M  V30 6517 H 615.305 -6.89978 3.08977 0
M  V30 6518 H 616.573 -7.51461 2.07187 0
M  V30 6519 N 620.802 -1.09834 -1.13024 0
M  V30 6520 C 621.75 -0.736283 -2.20639 0
M  V30 6521 C 622.744 0.264725 -1.67319 0
M  V30 6522 O 623.95 0.125745 -1.7956 0
M  V30 6523 H 620.325 -0.220136 -0.719058 0
M  V30 6524 H 622.296 -1.65295 -2.48436 0
M  V30 6525 C 621.045 -0.177544 -3.47246 0
M  V30 6526 H 620.368 -0.939009 -3.88616 0
M  V30 6527 H 621.808 0.0378007 -4.23983 0
M  V30 6528 C 620.267 1.08824 -3.1884 0
M  V30 6529 O 620.797 2.1708 -3.37993 0
M  V30 6530 N 619.003 1.00442 -2.7269 0
M  V30 6531 H 618.55 0.123383 -2.57304 0
M  V30 6532 H 618.508 1.85206 -2.5406 0
M  V30 6533 O 622.319 1.25285 -1.01911 0
M  V30 6534 H 623.01 1.81359 -0.680326 0
M  V30 END ATOM
M  V30 BEGIN BOND
M  V30 END BOND
M  V30 END CTAB
M  END
$$$$
