drugbank_target|P11473 Vitamin D3 receptor (DB00136; DB00146; DB00153; DB00169; DB00910; DB01070; DB01436; DB02300; DB03451; DB04258; DB04540; DB04796; DB04891; DB05024; DB05295; DB06194; DB06410; DB07530; DB08742; DB11094; DB11672; DB14635)
 OpenBabel12092119403D

  0  0  0     0  0            999 V3000
M  V30 BEGIN CTAB
M  V30 COUNTS 6704 6767 0 0 0
M  V30 BEGIN ATOM
M  V30 1 H -0.908 1.98254 -0.117106 0
M  V30 2 N 0 1.576 0 0
M  V30 3 C 0.933 2.03868 1.02534 0
M  V30 4 C 1.911 0.928543 1.3348 0
M  V30 5 O 3.095 1.19667 1.45644 0
M  V30 6 C 0.222 2.43627 2.35294 0
M  V30 7 C -0.732 3.65373 2.2001 0
M  V30 8 S 0.101 5.13292 1.52614 0
M  V30 9 C 1.257 5.56322 2.86805 0
M  V30 10 H 1.49 2.90518 0.631377 0
M  V30 11 H -0.977 1.52953 0.210867 0
M  V30 12 H 0.981 2.67203 3.11629 0
M  V30 13 H -0.358 1.57376 2.7183 0
M  V30 14 H -1.165 3.90944 3.18086 0
M  V30 15 H -1.563 3.418 1.51819 0
M  V30 16 H 0.729 5.58782 3.83104 0
M  V30 17 H 1.672 6.56266 2.65933 0
M  V30 18 H 2.08 4.83886 2.90714 0
M  V30 19 N 1.4781 -0.272755 1.55222 0
M  V30 20 C 2.3881 -1.35918 1.91216 0
M  V30 21 C 3.4041 -1.54026 0.809436 0
M  V30 22 O 4.5801 -1.68148 1.10852 0
M  V30 23 C 1.6451 -2.69834 2.17693 0
M  V30 24 C 0.7061 -2.6047 3.41253 0
M  V30 25 C -0.0609 -3.88 3.66458 0
M  V30 26 O 0.1621 -4.88693 2.94169 0
M  V30 27 O -0.9039 -3.88189 4.59992 0
M  V30 28 H 2.9221 -1.0839 2.83699 0
M  V30 29 H 0.5071 -0.471301 1.41771 0
M  V30 30 H 2.3891 -3.49017 2.36147 0
M  V30 31 H 1.0641 -2.97148 1.28392 0
M  V30 32 H -0.0289 -1.79663 3.28134 0
M  V30 33 H 1.3041 -2.38106 4.30774 0
M  V30 34 N 2.9562 -1.48159 -0.537278 0
M  V30 35 C 3.9192 -1.61665 -1.62472 0
M  V30 36 C 4.9192 -0.490395 -1.5314 0
M  V30 37 O 6.1092 -0.755998 -1.5694 0
M  V30 38 C 3.2412 -1.57997 -3.02076 0
M  V30 39 H 4.4342 -2.58621 -1.51839 0
M  V30 40 H 1.9872 -1.36647 -0.758771 0
M  V30 41 H 2.7222 -0.624913 -3.18222 0
M  V30 42 H 2.5072 -2.39755 -3.10258 0
M  V30 43 H 3.9972 -1.70627 -3.81151 0
M  V30 44 N 4.4343 0.785586 -1.36625 0
M  V30 45 C 5.3673 1.90509 -1.25625 0
M  V30 46 C 6.3453 1.62 -0.139607 0
M  V30 47 O 7.5293 1.8591 -0.31141 0
M  V30 48 C 4.6563 3.25419 -0.939158 0
M  V30 49 C 3.7023 3.72856 -2.07077 0
M  V30 50 S 4.5353 3.88162 -3.68904 0
M  V30 51 C 5.6913 5.25942 -3.39317 0
M  V30 52 H 5.9243 1.99549 -2.20381 0
M  V30 53 H 3.4573 0.945226 -1.22085 0
M  V30 54 H 5.4153 4.03346 -0.763029 0
M  V30 55 H 4.0763 3.14099 -0.00931402 0
M  V30 56 H 3.2693 4.70624 -1.80357 0
M  V30 57 H 2.8713 3.01989 -2.20632 0
M  V30 58 H 5.1633 6.10651 -2.93447 0
M  V30 59 H 6.1063 5.57668 -4.36363 0
M  V30 60 H 6.5143 4.93224 -2.74573 0
M  V30 61 N 5.9124 1.20967 1.01018 0
M  V30 62 C 6.8754 0.965918 2.07853 0
M  V30 63 C 7.8754 -0.0610545 1.60684 0
M  V30 64 O 9.0654 0.175681 1.73312 0
M  V30 65 C 6.1974 0.455513 3.37843 0
M  V30 66 H 7.3904 1.91365 2.3091 0
M  V30 67 H 4.9434 1.02594 1.17916 0
M  V30 68 H 5.6784 -0.497381 3.20463 0
M  V30 69 H 5.4634 1.19622 3.73407 0
M  V30 70 H 6.9534 0.304667 4.16487 0
M  V30 71 N 7.3905 -1.2043 1.01659 0
M  V30 72 C 8.3535 -2.21433 0.591616 0
M  V30 73 C 9.3535 -1.57203 -0.338226 0
M  V30 74 O 10.5435 -1.73737 -0.126918 0
M  V30 75 C 7.6755 -3.40628 -0.136058 0
M  V30 76 H 8.8685 -2.60545 1.48514 0
M  V30 77 H 6.4215 -1.33893 0.806379 0
M  V30 78 H 7.1565 -3.07019 -1.04449 0
M  V30 79 H 6.9415 -3.88475 0.531917 0
M  V30 80 H 8.4315 -4.15475 -0.420735 0
M  V30 81 N 8.8686 -0.792821 -1.36206 0
M  V30 82 C 10.0936 -0.377701 -2.03932 0
M  V30 83 C 10.5186 0.998947 -1.59382 0
M  V30 84 O 9.8766 1.64421 -0.763903 0
M  V30 85 C 9.9246 -0.453635 -3.57735 0
M  V30 86 O 9.0286 0.538151 -4.08874 0
M  V30 87 H 8.3696 -0.159855 -0.644471 0
M  V30 88 H 10.8996 -1.07488 -1.7409 0
M  V30 89 H 10.9096 -0.318464 -4.06755 0
M  V30 90 H 9.5846 -1.45784 -3.89512 0
M  V30 91 H 8.1616 0.364359 -3.71116 0
M  V30 92 N 10.3467 1.47872 -0.545128 0
M  V30 93 C 11.5747 2.06889 -0.021084 0
M  V30 94 C 11.9897 1.39955 1.2672 0
M  V30 95 O 11.3467 0.492036 1.75742 0
M  V30 96 C 11.3977 3.60996 0.190817 0
M  V30 97 O 11.1187 4.25419 -1.04644 0
M  V30 98 C 12.6197 4.36849 0.753521 0
M  V30 99 H 9.8397 0.669785 -0.0403635 0
M  V30 100 H 12.3837 1.90049 -0.755095 0
M  V30 101 H 10.5387 3.77391 0.87492 0
M  V30 102 H 10.9527 5.17785 -0.836611 0
M  V30 103 H 12.4267 5.45399 0.851139 0
M  V30 104 H 12.9037 4.02306 1.762 0
M  V30 105 H 13.5097 4.25169 0.105503 0
M  V30 106 N 11.8248 0.280983 1.55075 0
M  V30 107 C 13.0498 -0.340154 2.04592 0
M  V30 108 C 13.4748 -1.48246 1.15779 0
M  V30 109 O 12.8328 -1.80614 0.15761 0
M  V30 110 C 12.8808 -0.793104 3.5177 0
M  V30 111 O 11.9848 -1.89981 3.66034 0
M  V30 112 H 11.3258 -0.0694289 0.66036 0
M  V30 113 H 13.8558 0.416993 2.00306 0
M  V30 114 H 13.8658 -1.08729 3.93245 0
M  V30 115 H 12.5408 0.0426163 4.15878 0
M  V30 116 H 11.1178 -1.60771 3.36463 0
M  V30 117 N 13.3029 -1.57598 0.00835791 0
M  V30 118 C 14.2329 -2.1198 -0.979113 0
M  V30 119 C 15.2139 -1.03091 -1.35301 0
M  V30 120 O 16.3989 -1.30818 -1.43528 0
M  V30 121 C 13.5289 -2.62995 -2.26828 0
M  V30 122 C 12.4829 -3.76485 -2.03576 0
M  V30 123 C 11.8089 -4.13846 -3.38579 0
M  V30 124 C 13.1089 -5.0342 -1.39161 0
M  V30 125 H 14.8029 -2.94738 -0.526281 0
M  V30 126 H 12.3489 -1.41783 -0.251704 0
M  V30 127 H 14.3019 -2.99669 -2.96271 0
M  V30 128 H 13.0259 -1.7737 -2.7424 0
M  V30 129 H 11.6849 -3.40217 -1.36557 0
M  V30 130 H 11.3329 -3.25232 -3.83709 0
M  V30 131 H 11.0329 -4.90312 -3.23834 0
M  V30 132 H 12.5569 -4.53086 -4.09323 0
M  V30 133 H 13.9709 -5.37812 -1.98573 0
M  V30 134 H 12.3679 -5.84746 -1.34878 0
M  V30 135 H 13.4379 -4.83548 -0.361868 0
M  V30 136 N 14.781 0.264519 -1.55364 0
M  V30 137 C 16.192 0.834936 -1.6699 0
M  V30 138 C 16.543 1.86718 -0.602552 0
M  V30 139 O 15.668 2.14899 0.254425 0
M  V30 140 C 16.263 1.5212 -3.02729 0
M  V30 141 C 14.822 2.03954 -3.16354 0
M  V30 142 C 13.969 0.884498 -2.62815 0
M  V30 143 H 16.92 0.0406869 -1.58648 0
M  V30 144 H 16.941 2.38853 -2.96191 0
M  V30 145 H 16.453 0.769668 -3.80392 0
M  V30 146 H 14.554 2.82041 -2.43482 0
M  V30 147 H 14.667 2.24902 -4.23032 0
M  V30 148 H 13.031 1.2802 -2.20188 0
M  V30 149 H 13.814 0.14634 -3.42988 0
M  V30 150 N 16.2591 1.48442 0.529413 0
M  V30 151 C 17.5361 1.46978 1.29062 0
M  V30 152 C 17.9161 0.181769 2.10316 0
M  V30 153 O 17.2641 -0.836481 2.12639 0
M  V30 154 C 17.4741 2.7321 2.17157 0
M  V30 155 C 18.8221 3.21562 2.77278 0
M  V30 156 O 19.8461 2.74131 2.27444 0
M  V30 157 O 18.7051 4.04094 3.67927 0
M  V30 158 H 15.7991 0.587003 0.582543 0
M  V30 159 H 18.3451 1.60676 0.546021 0
M  V30 160 H 17.1171 3.58465 1.56903 0
M  V30 161 H 16.7401 2.62235 2.98862 0
M  V30 162 N 17.7372 -0.778329 1.37039 0
M  V30 163 C 19.1482 -1.35421 1.28523 0
M  V30 164 C 19.4992 -1.96075 -0.0700901 0
M  V30 165 O 18.6242 -1.93352 -0.971801 0
M  V30 166 C 19.2192 -2.46211 2.32735 0
M  V30 167 C 17.7782 -2.99585 2.27873 0
M  V30 168 C 16.9252 -1.72748 2.16918 0
M  V30 169 H 19.8762 -0.5791 1.47757 0
M  V30 170 H 19.8972 -3.2552 1.9702 0
M  V30 171 H 19.4092 -2.02036 3.31365 0
M  V30 172 H 17.5102 -3.48152 1.32745 0
M  V30 173 H 17.6232 -3.55646 3.21018 0
M  V30 174 H 15.9872 -1.95416 1.63354 0
M  V30 175 H 16.7702 -1.30686 3.17452 0
M  V30 176 N 19.2153 -1.21501 -1.00376 0
M  V30 177 C 20.4633 -1.03095 -1.73827 0
M  V30 178 C 20.7843 0.436341 -1.90055 0
M  V30 179 O 20.0543 1.31466 -1.45236 0
M  V30 180 H 18.6343 -0.378487 -0.644016 0
M  V30 181 H 21.2963 -1.52831 -1.20949 0
M  V30 182 H 20.3923 -1.49991 -2.73695 0
M  V30 183 N 20.6934 1.19889 -1.02296 0
M  V30 184 C 21.9704 1.85148 -0.630832 0
M  V30 185 C 22.3504 1.91385 0.890782 0
M  V30 186 O 21.6984 1.42642 1.78509 0
M  V30 187 C 21.9084 3.24442 -1.28602 0
M  V30 188 C 23.2564 4.00663 -1.4055 0
M  V30 189 O 24.2804 3.33818 -1.24273 0
M  V30 190 O 23.1394 5.20387 -1.66913 0
M  V30 191 H 20.2334 0.797613 -0.218499 0
M  V30 192 H 22.7794 1.27427 -1.12074 0
M  V30 193 H 21.5514 3.14704 -2.32545 0
M  V30 194 H 21.1744 3.89802 -0.7836 0
M  V30 195 N 22.1715 0.800033 1.35784 0
M  V30 196 C 23.4185 0.377342 1.98953 0
M  V30 197 C 23.7465 -1.05378 1.6348 0
M  V30 198 O 23.0015 -1.74459 0.886707 0
M  V30 199 C 23.3005 0.500276 3.53881 0
M  V30 200 C 22.9665 1.89375 4.09204 0
M  V30 201 C 21.6285 2.27499 4.24025 0
M  V30 202 C 23.9805 2.8057 4.39238 0
M  V30 203 C 21.3085 3.562 4.66195 0
M  V30 204 C 23.6605 4.0871 4.82844 0
M  V30 205 C 22.3245 4.46843 4.95871 0
M  V30 206 H 21.5945 0.138079 0.728021 0
M  V30 207 H 24.2415 1.01955 1.62103 0
M  V30 208 H 22.5465 -0.225405 3.91151 0
M  V30 209 H 24.2435 0.154097 4.00704 0
M  V30 210 H 20.8335 1.58753 3.98115 0
M  V30 211 H 25.0175 2.52367 4.27346 0
M  V30 212 H 20.2735 3.85602 4.74469 0
M  V30 213 H 24.4475 4.79481 5.05046 0
M  V30 214 H 22.0745 5.46623 5.28306 0
M  V30 215 N 23.6496 -1.47581 0.552962 0
M  V30 216 C 24.9266 -1.95563 -0.0381515 0
M  V30 217 C 25.3066 -1.49552 -1.48988 0
M  V30 218 O 24.6546 -0.732414 -2.16444 0
M  V30 219 C 24.8646 -3.48848 0.102919 0
M  V30 220 C 26.2126 -4.24577 -0.0446082 0
M  V30 221 O 27.2366 -3.56187 0.0302548 0
M  V30 222 O 26.0956 -5.46116 -0.204923 0
M  V30 223 H 23.1896 -0.824321 -0.0665067 0
M  V30 224 H 25.7356 -1.58001 0.619186 0
M  V30 225 H 24.5076 -3.75129 1.11328 0
M  V30 226 H 24.1306 -3.93165 -0.592224 0
M  V30 227 N 25.1277 -0.289203 -1.54924 0
M  V30 228 C 26.5437 0.0645403 -1.59469 0
M  V30 229 C 26.7437 1.53419 -1.30632 0
M  V30 230 O 25.7997 2.2852 -1.074 0
M  V30 231 C 27.1127 -0.32278 -2.98963 0
M  V30 232 C 28.6607 -0.270564 -3.11828 0
M  V30 233 C 29.1357 -0.632532 -4.53611 0
M  V30 234 N 30.6267 -0.584617 -4.59496 0
M  V30 235 C 31.3617 -0.837314 -5.67254 0
M  V30 236 N 30.8577 -1.15536 -6.83098 0
M  V30 237 N 32.6507 -0.765166 -5.56868 0
M  V30 238 H 24.8017 -1.24714 -1.71931 0
M  V30 239 H 27.0647 -0.504809 -0.802416 0
M  V30 240 H 26.7707 -1.34541 -3.24948 0
M  V30 241 H 26.6447 0.32944 -3.75759 0
M  V30 242 H 29.0317 0.742805 -2.85598 0
M  V30 243 H 29.1127 -0.957242 -2.37214 0
M  V30 244 H 28.7567 -1.64365 -4.80569 0
M  V30 245 H 28.6867 0.07609 -5.26545 0
M  V30 246 H 31.1777 -0.349248 -3.76283 0
M  V30 247 H 31.4907 -1.33447 -7.61191 0
M  V30 248 H 29.8357 -1.19328 -6.84679 0
M  V30 249 H 33.0267 -0.516432 -4.65243 0
M  V30 250 H 33.1997 -0.965477 -6.40767 0
M  V30 251 N 26.6058 1.57591 -0.0167156 0
M  V30 252 C 27.5538 2.10604 0.987353 0
M  V30 253 C 28.5478 1.02977 1.34507 0
M  V30 254 O 29.7538 1.21425 1.32875 0
M  V30 255 H 26.1288 0.672695 0.336134 0
M  V30 256 H 28.0998 2.93925 0.514817 0
M  V30 257 C 26.8488 2.6382 2.26483 0
M  V30 258 H 26.1718 3.46278 1.99829 0
M  V30 259 H 27.6118 3.04573 2.94977 0
M  V30 260 C 26.0708 1.55992 2.9861 0
M  V30 261 O 26.6008 0.952521 3.90243 0
M  V30 262 N 24.8068 1.28335 2.60727 0
M  V30 263 H 24.3538 1.77914 1.86291 0
M  V30 264 H 24.3118 0.564115 3.09298 0
M  V30 265 N 28.0839 -0.256276 1.55502 0
M  V30 266 C 29.3299 -0.987079 1.77157 0
M  V30 267 C 29.6629 -1.85327 0.580315 0
M  V30 268 O 28.9379 -1.89874 -0.421686 0
M  V30 269 C 29.2209 -1.85553 3.08613 0
M  V30 270 C 29.0739 -1.01816 4.38125 0
M  V30 271 C 30.3929 -2.8397 3.36228 0
M  V30 272 H 27.5119 -0.357428 0.644526 0
M  V30 273 H 30.1539 -0.258239 1.88237 0
M  V30 274 H 28.3039 -2.47695 2.99298 0
M  V30 275 H 29.9759 -0.416159 4.59419 0
M  V30 276 H 28.2189 -0.322178 4.32602 0
M  V30 277 H 28.8899 -1.65939 5.26468 0
M  V30 278 H 31.3659 -2.31964 3.45445 0
M  V30 279 H 30.2419 -3.41864 4.29442 0
M  V30 280 H 30.5029 -3.59955 2.56681 0
M  V30 281 N 29.562 -1.4872 -0.521534 0
M  V30 282 C 30.973 -1.50607 -1.10337 0
M  V30 283 C 31.324 -0.280612 -1.94183 0
M  V30 284 O 30.449 0.611507 -2.0758 0
M  V30 285 C 31.044 -2.72903 -2.00772 0
M  V30 286 C 29.603 -2.77634 -2.54158 0
M  V30 287 C 28.75 -2.44241 -1.31307 0
M  V30 288 H 31.701 -1.55714 -0.306388 0
M  V30 289 H 31.722 -2.519 -2.85178 0
M  V30 290 H 31.234 -3.62077 -1.39721 0
M  V30 291 H 29.335 -1.92689 -3.18907 0
M  V30 292 H 29.448 -3.79283 -2.92714 0
M  V30 293 H 27.812 -1.95577 -1.63161 0
M  V30 294 H 28.595 -3.35666 -0.719943 0
M  V30 295 N 31.0401 0.771051 -1.3745 0
M  V30 296 C 32.4561 1.07171 -1.18265 0
M  V30 297 C 32.6561 2.01491 -0.019287 0
M  V30 298 O 31.7121 2.44244 0.640408 0
M  V30 299 C 33.0251 1.66854 -2.50161 0
M  V30 300 C 34.5731 1.79109 -2.56689 0
M  V30 301 C 35.0481 2.42205 -3.88717 0
M  V30 302 N 36.5391 2.49655 -3.90162 0
M  V30 303 C 37.2741 2.9933 -4.8907 0
M  V30 304 N 36.7701 3.49172 -5.98374 0
M  V30 305 N 38.5631 2.9821 -4.76474 0
M  V30 306 H 30.7141 0.144796 -2.11906 0
M  V30 307 H 32.9771 0.126863 -0.939473 0
M  V30 308 H 32.6831 1.05017 -3.35655 0
M  V30 309 H 32.5571 2.6614 -2.673 0
M  V30 310 H 34.9441 2.40077 -1.71601 0
M  V30 311 H 35.0251 0.785757 -2.43433 0
M  V30 312 H 34.6691 1.81875 -4.74219 0
M  V30 313 H 34.5991 3.43345 -3.99276 0
M  V30 314 H 37.0901 2.14383 -3.11205 0
M  V30 315 H 37.4031 3.8548 -6.69795 0
M  V30 316 H 35.7481 3.47275 -6.02018 0
M  V30 317 H 38.9391 2.58572 -3.90203 0
M  V30 318 H 39.1121 3.36613 -5.53711 0
M  V30 319 N 32.5182 1.22032 0.997298 0
M  V30 320 C 33.7672 1.03637 1.73038 0
M  V30 321 C 34.0802 -0.429475 1.90827 0
M  V30 322 O 35.2862 -0.732995 2.61418 0
M  V30 323 C 33.7422 1.80582 3.11317 0
M  V30 324 C 33.3502 3.31387 3.01474 0
M  V30 325 C 35.0942 1.70621 3.88701 0
M  V30 326 C 33.0012 4.00791 4.3488 0
M  V30 327 H 31.9312 0.384179 0.648785 0
M  V30 328 H 34.5822 1.4584 1.11368 0
M  V30 329 H 32.9642 1.31175 3.73643 0
M  V30 330 H 34.1382 3.88155 2.4834 0
M  V30 331 H 32.4532 3.41976 2.37575 0
M  V30 332 H 35.0502 2.19799 4.87434 0
M  V30 333 H 35.3932 0.665823 4.10941 0
M  V30 334 H 35.9262 2.17547 3.33044 0
M  V30 335 H 32.6652 5.05064 4.1784 0
M  V30 336 H 32.1852 3.48811 4.87945 0
M  V30 337 H 33.8642 4.06139 5.03647 0
M  V30 338 N 33.9963 -1.19345 1.0293 0
M  V30 339 C 35.2363 -1.90738 0.734727 0
M  V30 340 C 35.6003 -1.7785 -0.723414 0
M  V30 341 O 36.8013 -2.43844 -1.13108 0
M  V30 342 C 35.0723 -3.37569 1.17396 0
M  V30 343 S 36.6313 -4.27176 1.00329 0
M  V30 344 H 33.4493 -0.658771 0.267474 0
M  V30 345 H 36.0513 -1.4428 1.31922 0
M  V30 346 H 34.7553 -3.44475 2.23081 0
M  V30 347 H 34.2863 -3.8906 0.582772 0
M  V30 348 H 36.3013 -4.96126 -0.0859152 0
M  V30 349 N 35.4744 -0.807222 -1.35358 0
M  V30 350 C 36.7224 -0.387122 -1.98358 0
M  V30 351 C 37.0434 1.04942 -1.64354 0
M  V30 352 O 36.3134 1.72615 -0.926339 0
M  V30 353 H 34.8934 -0.140154 -0.733734 0
M  V30 354 H 37.5554 -1.0332 -1.6526 0
M  V30 355 H 36.6514 -0.493352 -3.08176 0
M  V30 356 N 36.9525 1.47285 -0.560781 0
M  V30 357 C 38.1985 2.02764 -0.0381184 0
M  V30 358 C 38.5315 1.43384 1.30976 0
M  V30 359 O 37.8065 0.590733 1.85312 0
M  V30 360 C 38.0895 3.60064 0.0511427 0
M  V30 361 C 37.9425 4.2987 -1.32408 0
M  V30 362 C 39.2615 4.33439 0.762795 0
M  V30 363 H 36.3805 0.736841 -0.0153264 0
M  V30 364 H 39.0225 1.75675 -0.723759 0
M  V30 365 H 37.1725 3.83274 0.635065 0
M  V30 366 H 38.8445 4.17989 -1.95148 0
M  V30 367 H 37.0875 3.90085 -1.8978 0
M  V30 368 H 37.7585 5.38478 -1.21431 0
M  V30 369 H 40.2345 4.15243 0.266965 0
M  V30 370 H 39.1105 5.43124 0.794221 0
M  V30 371 H 39.3715 4.02915 1.81966 0
M  V30 372 N 38.4306 0.297415 1.54768 0
M  V30 373 C 39.6706 -0.313829 2.01976 0
M  V30 374 C 40.0346 -1.51366 1.1812 0
M  V30 375 O 41.2356 -2.19603 1.5501 0
M  V30 376 C 39.5066 -0.664964 3.51159 0
M  V30 377 S 41.0656 -1.25958 4.20333 0
M  V30 378 H 37.8836 -0.0965014 0.704421 0
M  V30 379 H 40.4856 0.424451 1.90837 0
M  V30 380 H 39.1896 0.21681 4.09827 0
M  V30 381 H 38.7206 -1.43413 3.66328 0
M  V30 382 H 40.7356 -2.54751 4.25813 0
M  V30 383 N 39.9087 -1.5758 0.0250728 0
M  V30 384 C 41.1567 -1.91255 -0.653151 0
M  V30 385 C 41.4777 -0.901691 -1.729 0
M  V30 386 O 40.7477 0.0573785 -1.95816 0
M  V30 387 H 39.3277 -0.705942 -0.244243 0
M  V30 388 H 41.9897 -1.94767 0.0719209 0
M  V30 389 H 41.0857 -2.91752 -1.10847 0
M  V30 390 N 41.3868 0.248026 -1.55636 0
M  V30 391 C 42.6638 0.998988 -1.68165 0
M  V30 392 C 43.0438 2.03409 -0.564621 0
M  V30 393 O 42.3918 2.24378 0.432076 0
M  V30 394 C 42.6018 1.63334 -3.0842 0
M  V30 395 C 43.9498 2.13562 -3.66983 0
M  V30 396 O 44.9738 1.73277 -3.11213 0
M  V30 397 O 43.8328 2.87526 -4.64749 0
M  V30 398 H 40.9268 0.464933 -0.683935 0
M  V30 399 H 43.4728 0.241902 -1.67967 0
M  V30 400 H 42.2448 0.884583 -3.8117 0
M  V30 401 H 41.8678 2.45666 -3.12624 0
M  V30 402 N 42.8649 1.48995 0.513639 0
M  V30 403 C 44.2809 1.35478 0.843682 0
M  V30 404 C 44.4809 0.378213 1.97919 0
M  V30 405 O 43.5369 -0.194689 2.51748 0
M  V30 406 C 44.8499 2.75901 1.1958 0
M  V30 407 C 46.3979 2.84509 1.30474 0
M  V30 408 C 46.8729 4.25671 1.69021 0
M  V30 409 N 48.3639 4.28422 1.76094 0
M  V30 410 C 49.0989 5.34601 2.07338 0
M  V30 411 N 48.5949 6.5104 2.36894 0
M  V30 412 N 50.3879 5.22007 2.08483 0
M  V30 413 H 42.5389 2.11092 -0.235328 0
M  V30 414 H 44.8019 0.947039 -0.0426669 0
M  V30 415 H 44.5079 3.49001 0.434913 0
M  V30 416 H 44.3819 3.10467 2.1422 0
M  V30 417 H 46.7689 2.11655 2.05637 0
M  V30 418 H 46.8499 2.53542 0.339155 0
M  V30 419 H 46.4939 4.99048 0.944135 0
M  V30 420 H 46.4239 4.54094 2.66658 0
M  V30 421 H 48.9149 3.44441 1.55464 0
M  V30 422 H 49.2279 7.2779 2.59887 0
M  V30 423 H 47.5729 6.54287 2.34378 0
M  V30 424 H 50.7639 4.30051 1.84861 0
M  V30 425 H 50.9369 6.04854 2.325 0
M  V30 426 N 44.343 -0.763751 1.37857 0
M  V30 427 C 45.306 -1.85889 1.34081 0
M  V30 428 C 46.306 -1.58949 0.243277 0
M  V30 429 O 47.496 -1.66882 0.499589 0
M  V30 430 C 44.628 -3.23176 1.08489 0
M  V30 431 H 45.821 -1.90648 2.31502 0
M  V30 432 H 43.374 -0.964367 1.23003 0
M  V30 433 H 44.109 -3.24091 0.116318 0
M  V30 434 H 43.894 -3.44124 1.8794 0
M  V30 435 H 45.384 -4.03254 1.08517 0
M  V30 436 N 45.8211 -1.22559 -0.990812 0
M  V30 437 C 47.0491 -1.07779 -1.76611 0
M  V30 438 C 47.4641 0.371513 -1.85109 0
M  V30 439 O 46.8211 1.25737 -1.32274 0
M  V30 440 C 46.8721 -1.68512 -3.19822 0
M  V30 441 O 46.5931 -3.07774 -3.1178 0
M  V30 442 C 48.0941 -1.59035 -4.13791 0
M  V30 443 H 45.3141 -0.377729 -0.554583 0
M  V30 444 H 47.8581 -1.62195 -1.24551 0
M  V30 445 H 46.0131 -1.18154 -3.68942 0
M  V30 446 H 46.4271 -3.37062 -4.01858 0
M  V30 447 H 47.9011 -2.0625 -5.1202 0
M  V30 448 H 48.3781 -0.547273 -4.35777 0
M  V30 449 H 48.9841 -2.08709 -3.70568 0
M  V30 450 N 47.2992 1.18797 -1.03562 0
M  V30 451 C 48.5472 1.88278 -0.734569 0
M  V30 452 C 48.8682 1.8043 0.739586 0
M  V30 453 O 48.1382 1.21925 1.53333 0
M  V30 454 H 46.7182 0.696991 -0.268725 0
M  V30 455 H 49.3802 1.44192 -1.31129 0
M  V30 456 H 48.4762 2.94443 -1.03489 0
M  V30 457 N 48.7773 0.814389 1.34928 0
M  V30 458 C 50.0243 0.398423 1.98542 0
M  V30 459 C 50.3523 -1.03638 1.64589 0
M  V30 460 O 49.6073 -1.73509 0.90516 0
M  V30 461 C 49.9063 0.537781 3.53331 0
M  V30 462 C 49.5723 1.93704 4.07172 0
M  V30 463 C 48.2343 2.31984 4.21589 0
M  V30 464 C 50.5863 2.85213 4.36237 0
M  V30 465 C 47.9143 3.61125 4.62391 0
M  V30 466 C 50.2663 4.13809 4.78482 0
M  V30 467 C 48.9303 4.52077 4.91104 0
M  V30 468 H 48.2003 0.145793 0.726516 0
M  V30 469 H 50.8473 1.03669 1.61012 0
M  V30 470 H 49.1523 -0.183906 3.91368 0
M  V30 471 H 50.8493 0.196588 4.00518 0
M  V30 472 H 47.4393 1.62966 3.96409 0
M  V30 473 H 51.6233 2.56885 4.24645 0
M  V30 474 H 46.8793 3.90612 4.70353 0
M  V30 475 H 51.0533 4.84811 4.99932 0
M  V30 476 H 48.6803 5.52196 5.22478 0
M  V30 477 N 50.2554 -1.46986 0.568584 0
M  V30 478 C 51.2054 -2.27179 -0.193339 0
M  V30 479 C 52.1894 -1.35035 -0.874895 0
M  V30 480 O 53.3814 -1.5931 -0.771322 0
M  V30 481 C 50.5104 -3.21063 -1.21546 0
M  V30 482 C 49.5964 -4.2069 -0.536738 0
M  V30 483 N 49.9874 -5.04218 0.399673 0
M  V30 484 C 48.2854 -4.38961 -0.789254 0
M  V30 485 C 48.9864 -5.76242 0.795017 0
M  V30 486 N 47.9624 -5.434 0.1473 0
M  V30 487 H 51.7644 -2.89146 0.526458 0
M  V30 488 H 49.2784 -1.57664 0.389342 0
M  V30 489 H 51.2754 -3.77209 -1.77536 0
M  V30 490 H 49.9354 -2.60654 -1.93623 0
M  V30 491 H 50.9464 -5.12077 0.774454 0
M  V30 492 H 47.6234 -3.89713 -1.49767 0
M  V30 493 H 49.0134 -6.53417 1.56513 0
M  V30 494 N 51.7335 -0.305618 -1.54608 0
M  V30 495 C 52.9805 0.302298 -2.00231 0
M  V30 496 C 53.3085 1.5354 -1.19398 0
M  V30 497 O 52.5635 1.93973 -0.259423 0
M  V30 498 C 52.8625 0.698983 -3.50498 0
M  V30 499 C 52.5285 -0.432903 -4.48817 0
M  V30 500 C 51.1905 -0.743622 -4.75419 0
M  V30 501 C 53.5425 -1.19409 -5.07337 0
M  V30 502 C 50.8705 -1.81857 -5.57804 0
M  V30 503 C 53.2225 -2.25899 -5.90891 0
M  V30 504 C 51.8865 -2.57572 -6.15803 0
M  V30 505 H 51.1565 0.110619 -0.732697 0
M  V30 506 H 53.8035 -0.425674 -1.86709 0
M  V30 507 H 52.1085 1.50711 -3.61654 0
M  V30 508 H 53.8055 1.1806 -3.83227 0
M  V30 509 H 50.3955 -0.18063 -4.28219 0
M  V30 510 H 54.5795 -0.967295 -4.86782 0
M  V30 511 H 49.8355 -2.06864 -5.75341 0
M  V30 512 H 54.0095 -2.85335 -6.35261 0
M  V30 513 H 51.6365 -3.40998 -6.7943 0
M  V30 514 N 53.2116 1.57565 -0.0334293 0
M  V30 515 C 54.1596 2.1164 0.96496 0
M  V30 516 C 55.1536 1.04398 1.33407 0
M  V30 517 O 56.3596 1.22828 1.3158 0
M  V30 518 H 52.7346 0.676222 0.32898 0
M  V30 519 H 54.7056 2.94455 0.483614 0
M  V30 520 C 53.4546 2.66207 2.23672 0
M  V30 521 H 52.7776 3.48378 1.96145 0
M  V30 522 H 54.2176 3.07685 2.9173 0
M  V30 523 C 52.6766 1.59151 2.96939 0
M  V30 524 O 53.2066 0.993858 3.89211 0
M  V30 525 N 51.4126 1.31093 2.59351 0
M  V30 526 H 50.9596 1.7988 1.84393 0
M  V30 527 H 50.9176 0.596889 3.08682 0
M  V30 528 N 54.6897 -0.239769 1.55765 0
M  V30 529 C 55.6527 -1.28038 1.90103 0
M  V30 530 C 56.6527 -1.40723 0.778055 0
M  V30 531 O 57.8427 -1.39301 1.04599 0
M  V30 532 C 54.9747 -2.65702 2.13577 0
M  V30 533 H 56.1677 -0.988048 2.83157 0
M  V30 534 H 53.7207 -0.479382 1.48767 0
M  V30 535 H 54.4557 -3.00063 1.23015 0
M  V30 536 H 54.2407 -2.57875 2.95369 0
M  V30 537 H 55.7307 -3.40828 2.41301 0
M  V30 538 N 56.1678 -1.49265 -0.50573 0
M  V30 539 C 57.1008 -1.60183 -1.62532 0
M  V30 540 C 58.0788 -0.451107 -1.56217 0
M  V30 541 O 59.2628 -0.666016 -1.76342 0
M  V30 542 C 56.3898 -1.55238 -3.01029 0
M  V30 543 C 55.4358 -2.7545 -3.25621 0
M  V30 544 S 56.2688 -4.37174 -3.09256 0
M  V30 545 C 57.4248 -4.34866 -4.50158 0
M  V30 546 H 57.6578 -2.54894 -1.53025 0
M  V30 547 H 55.1908 -1.38098 -0.690535 0
M  V30 548 H 57.1488 -1.53071 -3.80893 0
M  V30 549 H 55.8098 -0.618238 -3.07956 0
M  V30 550 H 55.0028 -2.68197 -4.26716 0
M  V30 551 H 54.6048 -2.75005 -2.53472 0
M  V30 552 H 56.8968 -4.06295 -5.42154 0
M  V30 553 H 57.8398 -5.36223 -4.62462 0
M  V30 554 H 58.2478 -3.65007 -4.30616 0
M  V30 555 N 57.6459 0.756429 -1.3826 0
M  V30 556 C 58.8739 1.54565 -1.3754 0
M  V30 557 C 59.2889 1.88767 0.0355331 0
M  V30 558 O 58.6459 1.52572 1.0014 0
M  V30 559 C 58.6969 2.84654 -2.22833 0
M  V30 560 O 58.4179 2.51912 -3.5843 0
M  V30 561 C 59.9189 3.78807 -2.30261 0
M  V30 562 H 57.1389 0.478353 -0.470553 0
M  V30 563 H 59.6829 0.936381 -1.81803 0
M  V30 564 H 57.8379 3.41965 -1.8204 0
M  V30 565 H 58.2519 3.35325 -4.03308 0
M  V30 566 H 59.7259 4.67045 -2.94233 0
M  V30 567 H 60.2029 4.19038 -1.31545 0
M  V30 568 H 60.8089 3.2742 -2.71433 0
M  V30 569 N 59.124 1.23083 0.984299 0
M  V30 570 C 60.364 1.07226 1.74017 0
M  V30 571 C 60.728 -0.384766 1.88105 0
M  V30 572 O 61.929 -0.664411 2.60459 0
M  V30 573 C 60.2 1.77348 3.10294 0
M  V30 574 S 61.759 1.77014 4.01512 0
M  V30 575 H 58.577 0.383819 0.598502 0
M  V30 576 H 61.179 1.56158 1.17622 0
M  V30 577 H 59.883 2.82506 2.97689 0
M  V30 578 H 59.414 1.28682 3.71759 0
M  V30 579 H 61.429 0.825956 4.89277 0
M  V30 580 N 60.6021 -1.18246 1.0419 0
M  V30 581 C 61.5121 -2.25574 0.644476 0
M  V30 582 C 62.5281 -1.70845 -0.329826 0
M  V30 583 O 63.7041 -2.00554 -0.184443 0
M  V30 584 C 60.7691 -3.46697 0.014877 0
M  V30 585 C 59.8301 -4.16554 1.03834 0
M  V30 586 C 59.0631 -5.31894 0.438692 0
M  V30 587 O 59.2861 -5.65385 -0.754752 0
M  V30 588 O 58.2201 -5.90459 1.168 0
M  V30 589 H 62.0461 -2.61836 1.53869 0
M  V30 590 H 59.6311 -1.25352 0.812854 0
M  V30 591 H 61.5131 -4.20062 -0.335538 0
M  V30 592 H 60.1881 -3.12255 -0.853138 0
M  V30 593 H 59.0951 -3.45251 1.44057 0
M  V30 594 H 60.4281 -4.54998 1.87716 0
M  V30 595 N 62.0802 -0.821533 -1.34494 0
M  V30 596 C 63.3282 -0.408139 -1.97936 0
M  V30 597 C 63.6492 1.03193 -1.65457 0
M  V30 598 O 62.9192 1.71622 -0.944595 0
M  V30 599 H 61.4992 -0.147928 -0.732206 0
M  V30 600 H 64.1612 -1.05067 -1.64155 0
M  V30 601 H 63.2572 -0.52601 -3.07635 0
M  V30 602 N 63.5583 1.46682 -0.576371 0
M  V30 603 C 64.7983 2.04306 -0.0621356 0
M  V30 604 C 65.1623 1.4389 1.2712 0
M  V30 605 O 66.3633 1.92675 1.87429 0
M  V30 606 C 64.6343 3.57399 0.00927922 0
M  V30 607 S 66.1933 4.36309 0.466859 0
M  V30 608 H 63.0113 0.710167 -0.0344016 0
M  V30 609 H 65.6133 1.79807 -0.767437 0
M  V30 610 H 64.3173 3.98889 -0.965178 0
M  V30 611 H 63.8483 3.86424 0.737547 0
M  V30 612 H 65.8633 4.6533 1.72287 0
M  V30 613 N 65.0364 0.313813 1.54444 0
M  V30 614 C 65.9834 -0.55655 2.23989 0
M  V30 615 C 66.9534 -1.11943 1.22711 0
M  V30 616 O 68.1384 -1.16158 1.51367 0
M  V30 617 C 65.2784 -1.71635 2.99392 0
M  V30 618 C 64.3914 -1.18364 4.15468 0
M  V30 619 C 63.5264 -2.30834 4.78424 0
M  V30 620 C 62.5654 -1.74762 5.86622 0
M  V30 621 N 61.7024 -2.80855 6.43479 0
M  V30 622 H 66.5424 0.0430893 2.97969 0
M  V30 623 H 64.0794 0.0330359 1.47063 0
M  V30 624 H 66.0374 -2.39868 3.41349 0
M  V30 625 H 64.6674 -2.28742 2.27765 0
M  V30 626 H 63.7194 -0.393163 3.78363 0
M  V30 627 H 65.0314 -0.733262 4.93381 0
M  V30 628 H 64.1854 -3.0699 5.23299 0
M  V30 629 H 62.9244 -2.79204 3.99871 0
M  V30 630 H 61.9294 -0.970995 5.41158 0
M  V30 631 H 63.1544 -1.2728 6.67066 0
M  V30 632 H 61.1004 -3.28535 5.67804 0
M  V30 633 H 61.0174 -2.40351 7.16776 0
M  V30 634 H 62.2854 -3.5687 6.93011 0
M  V30 635 N 66.5145 -1.57545 0.0417849 0
M  V30 636 C 67.7625 -1.91937 -0.632829 0
M  V30 637 C 68.0835 -0.919978 -1.71934 0
M  V30 638 O 67.3535 0.0366064 -1.95866 0
M  V30 639 H 65.9335 -0.708493 -0.236742 0
M  V30 640 H 68.5955 -1.9468 0.0925745 0
M  V30 641 H 67.6915 -2.92912 -1.07746 0
M  V30 642 N 67.9926 0.231505 -1.5589 0
M  V30 643 C 69.2396 0.957352 -1.78441 0
M  V30 644 C 69.5676 1.84726 -0.60882 0
M  V30 645 O 68.8226 1.91416 0.40725 0
M  V30 646 C 69.1216 1.83577 -3.0665 0
M  V30 647 C 68.7876 1.09993 -4.37278 0
M  V30 648 C 67.4496 0.896629 -4.72773 0
M  V30 649 C 69.8016 0.579558 -5.17968 0
M  V30 650 C 67.1296 0.160896 -5.86479 0
M  V30 651 C 69.4816 -0.142783 -6.32439 0
M  V30 652 C 68.1456 -0.357427 -6.66542 0
M  V30 653 H 67.4156 0.35032 -0.65296 0
M  V30 654 H 70.0626 0.226259 -1.90159 0
M  V30 655 H 68.3676 2.63441 -2.90011 0
M  V30 656 H 70.0646 2.39934 -3.21298 0
M  V30 657 H 66.6546 1.26835 -4.09403 0
M  V30 658 H 70.8386 0.724125 -4.90989 0
M  V30 659 H 66.0946 -0.0157293 -6.11398 0
M  V30 660 H 70.2686 -0.553559 -6.94196 0
M  V30 661 H 67.8956 -0.929466 -7.54497 0
M  V30 662 N 69.4707 1.49531 0.497807 0
M  V30 663 C 70.7177 1.59179 1.25173 0
M  V30 664 C 71.0457 0.279932 1.92475 0
M  V30 665 O 70.3007 -0.732383 1.81479 0
M  V30 666 C 70.5997 2.70252 2.33878 0
M  V30 667 C 70.2657 4.11644 1.84012 0
M  V30 668 C 68.9277 4.50121 1.70132 0
M  V30 669 C 71.2797 5.00121 1.46725 0
M  V30 670 C 68.6077 5.74845 1.17348 0
M  V30 671 C 70.9597 6.25366 0.95392 0
M  V30 672 C 69.6237 6.6267 0.801538 0
M  V30 673 H 68.8937 0.582478 0.45804 0
M  V30 674 H 71.5407 1.83373 0.551948 0
M  V30 675 H 69.8457 2.40041 3.09657 0
M  V30 676 H 71.5427 2.74925 2.9192 0
M  V30 677 H 68.1327 3.81274 1.95775 0
M  V30 678 H 72.3167 4.71048 1.56294 0
M  V30 679 H 67.5727 6.02444 1.04264 0
M  V30 680 H 71.7467 6.93301 0.656225 0
M  V30 681 H 69.3737 7.59197 0.390351 0
M  V30 682 N 70.9488 -0.749086 1.3866 0
M  V30 683 C 72.3648 -1.05276 1.19955 0
M  V30 684 C 72.5648 -2.01435 0.05134 0
M  V30 685 O 71.6208 -2.45232 -0.60147 0
M  V30 686 C 72.9338 -1.62853 2.52783 0
M  V30 687 C 74.4818 -1.75002 2.59506 0
M  V30 688 C 74.9568 -2.35991 3.92521 0
M  V30 689 N 76.4478 -2.43416 3.94085 0
M  V30 690 C 77.1828 -2.91511 4.9377 0
M  V30 691 N 76.6788 -3.39608 6.03853 0
M  V30 692 N 78.4718 -2.90592 4.81157 0
M  V30 693 H 70.6228 -0.111066 2.12109 0
M  V30 694 H 72.8858 -0.111901 0.941373 0
M  V30 695 H 72.5918 -0.99664 3.37283 0
M  V30 696 H 72.4658 -2.61854 2.715 0
M  V30 697 H 74.8528 -2.37317 1.75398 0
M  V30 698 H 74.9338 -0.74693 2.44652 0
M  V30 699 H 74.5778 -1.74308 4.77053 0
M  V30 700 H 74.5078 -3.3695 4.04688 0
M  V30 701 H 76.9988 -2.09405 3.14576 0
M  V30 702 H 77.3118 -3.74775 6.75843 0
M  V30 703 H 75.6568 -3.37653 6.07466 0
M  V30 704 H 78.8478 -2.52332 3.94267 0
M  V30 705 H 79.0208 -3.27762 5.58996 0
M  V30 706 N 72.4269 -1.23603 -0.977757 0
M  V30 707 C 73.8429 -0.999251 -1.24447 0
M  V30 708 C 74.0429 0.298053 -1.99283 0
M  V30 709 O 73.0989 1.01681 -2.31122 0
M  V30 710 C 74.4119 -2.20784 -2.04144 0
M  V30 711 C 75.9599 -2.25303 -2.17273 0
M  V30 712 C 76.4349 -3.45755 -3.00362 0
M  V30 713 N 77.9259 -3.4601 -3.07947 0
M  V30 714 C 78.6609 -4.35868 -3.72568 0
M  V30 715 N 78.1569 -5.35966 -4.38991 0
M  V30 716 N 79.9499 -4.23605 -3.6948 0
M  V30 717 H 72.1009 -2.06986 -0.476483 0
M  V30 718 H 74.3639 -0.907801 -0.273134 0
M  V30 719 H 74.0699 -3.14945 -1.56533 0
M  V30 720 H 73.9439 -2.22085 -3.04891 0
M  V30 721 H 76.3309 -1.3168 -2.64092 0
M  V30 722 H 76.4119 -2.28033 -1.15907 0
M  V30 723 H 76.0559 -4.39687 -2.5424 0
M  V30 724 H 75.9859 -3.40266 -4.01904 0
M  V30 725 H 78.4769 -2.73588 -2.60688 0
M  V30 726 H 78.7899 -6.00783 -4.86086 0
M  V30 727 H 77.1349 -5.39863 -4.37691 0
M  V30 728 H 80.3259 -3.44647 -3.16759 0
M  V30 729 H 80.4989 -4.93836 -4.1956 0
M  V30 730 N 73.905 1.17692 -1.04816 0
M  V30 731 C 75.13 1.92327 -0.776207 0
M  V30 732 C 75.555 1.76082 0.661581 0
M  V30 733 O 74.913 1.076 1.45917 0
M  V30 734 C 74.961 3.41539 -1.15687 0
M  V30 735 O 74.065 4.11402 -0.286775 0
M  V30 736 H 73.406 0.599735 -0.284981 0
M  V30 737 H 75.936 1.49201 -1.4 0
M  V30 738 H 75.946 3.92269 -1.12202 0
M  V30 739 H 74.621 3.52684 -2.20425 0
M  V30 740 H 73.198 3.70939 -0.381903 0
M  V30 741 N 75.3831 0.828654 1.34056 0
M  V30 742 C 76.3161 0.199763 2.27324 0
M  V30 743 C 77.2941 -0.647168 1.49166 0
M  V30 744 O 78.4781 -0.609661 1.78369 0
M  V30 745 C 75.6051 -0.720455 3.30949 0
M  V30 746 C 74.6511 0.0496888 4.26471 0
M  V30 747 S 75.4841 1.40072 5.16856 0
M  V30 748 C 76.6401 0.485527 6.24014 0
M  V30 749 H 76.8731 0.990478 2.80316 0
M  V30 750 H 74.4061 0.624857 1.41191 0
M  V30 751 H 76.3641 -1.24581 3.91139 0
M  V30 752 H 75.0251 -1.48474 2.76793 0
M  V30 753 H 74.2181 -0.650104 4.9979 0
M  V30 754 H 73.8201 0.505779 3.70564 0
M  V30 755 H 76.1121 -0.320672 6.76741 0
M  V30 756 H 77.0551 1.18856 6.98054 0
M  V30 757 H 77.4631 0.0714109 5.64455 0
M  V30 758 N 76.8612 -1.46375 0.584142 0
M  V30 759 C 77.8082 -2.30323 -0.148286 0
M  V30 760 C 78.7782 -1.40703 -0.882713 0
M  V30 761 O 79.9632 -1.69651 -0.873099 0
M  V30 762 C 77.1032 -3.25196 -1.15507 0
M  V30 763 C 76.2162 -4.29915 -0.423943 0
M  V30 764 C 75.3512 -5.11914 -1.41838 0
M  V30 765 C 74.3902 -6.08381 -0.673736 0
M  V30 766 N 73.5272 -6.83242 -1.6163 0
M  V30 767 H 78.3672 -2.92427 0.573644 0
M  V30 768 H 75.9042 -1.44118 0.294703 0
M  V30 769 H 77.8622 -3.78646 -1.75166 0
M  V30 770 H 76.4922 -2.64898 -1.8447 0
M  V30 771 H 75.5442 -3.7931 0.287714 0
M  V30 772 H 76.8562 -4.98549 0.158128 0
M  V30 773 H 76.0102 -5.69648 -2.08773 0
M  V30 774 H 74.7492 -4.43243 -2.03438 0
M  V30 775 H 73.7542 -5.49799 0.00938483 0
M  V30 776 H 74.9792 -6.79071 -0.0631082 0
M  V30 777 H 72.9252 -6.1728 -2.22038 0
M  V30 778 H 72.8422 -7.48144 -1.08707 0
M  V30 779 H 74.1102 -7.45534 -2.27596 0
M  V30 780 N 78.3393 -0.321999 -1.54275 0
M  V30 781 C 79.7553 0.0306999 -1.5957 0
M  V30 782 C 79.9553 1.50614 -1.33857 0
M  V30 783 O 79.0113 2.2619 -1.12223 0
M  V30 784 C 80.3243 -0.386122 -2.98211 0
M  V30 785 C 81.8723 -0.336647 -3.11184 0
M  V30 786 C 82.3473 -0.728607 -4.52167 0
M  V30 787 N 83.8383 -0.681952 -4.58152 0
M  V30 788 C 84.5733 -0.957449 -5.6535 0
M  V30 789 N 84.0693 -1.3 -6.80494 0
M  V30 790 N 85.8623 -0.883113 -5.55119 0
M  V30 791 H 78.0133 -1.28332 -1.69247 0
M  V30 792 H 80.2763 -0.521716 -0.791528 0
M  V30 793 H 79.9823 -1.41404 -3.22022 0
M  V30 794 H 79.8563 0.249662 -3.76373 0
M  V30 795 H 82.2433 0.682058 -2.8711 0
M  V30 796 H 82.3243 -1.00734 -2.3513 0
M  V30 797 H 81.9683 -1.74522 -4.76974 0
M  V30 798 H 81.8983 -0.0356152 -5.26588 0
M  V30 799 H 84.3893 -0.428985 -3.75457 0
M  V30 800 H 84.7023 -1.49563 -7.58189 0
M  V30 801 H 83.0473 -1.33824 -6.81994 0
M  V30 802 H 86.2383 -0.615001 -4.64042 0
M  V30 803 H 86.4113 -1.10118 -6.38575 0
M  V30 804 N 79.8174 1.5752 -0.0501392 0
M  V30 805 C 80.7644 2.1147 0.924603 0
M  V30 806 C 81.7344 1.02182 1.30951 0
M  V30 807 O 82.9194 1.29723 1.39916 0
M  V30 808 C 80.0594 2.66337 2.19451 0
M  V30 809 C 79.1724 3.89708 1.86418 0
M  V30 810 C 78.3074 4.32893 3.07859 0
M  V30 811 C 77.3464 5.48967 2.70742 0
M  V30 812 N 76.4834 5.87211 3.84874 0
M  V30 813 H 81.3234 2.94465 0.457639 0
M  V30 814 H 78.8604 1.45531 0.214266 0
M  V30 815 H 80.8184 2.96247 2.93758 0
M  V30 816 H 79.4484 1.86141 2.63726 0
M  V30 817 H 78.5004 3.66396 1.02264 0
M  V30 818 H 79.8124 4.74074 1.55096 0
M  V30 819 H 78.9664 4.6435 3.90466 0
M  V30 820 H 77.7054 3.47336 3.42358 0
M  V30 821 H 76.7104 5.17183 1.86551 0
M  V30 822 H 77.9354 6.3624 2.37436 0
M  V30 823 H 75.8814 5.04607 4.19175 0
M  V30 824 H 75.7984 6.66266 3.57247 0
M  V30 825 H 77.0664 6.23282 4.68123 0
M  V30 826 N 81.2955 -0.223234 1.56011 0
M  V30 827 C 82.2585 -1.26014 1.9145 0
M  V30 828 C 83.2585 -1.3989 0.792937 0
M  V30 829 O 84.4485 -1.38184 1.0607 0
M  V30 830 C 81.5805 -2.63422 2.16383 0
M  V30 831 H 82.7735 -0.95796 2.84189 0
M  V30 832 H 80.3265 -0.463576 1.49267 0
M  V30 833 H 81.0615 -2.98741 1.2619 0
M  V30 834 H 80.8465 -2.54728 2.98088 0
M  V30 835 H 82.3365 -3.38249 2.44903 0
M  V30 836 N 82.7736 -1.49793 -0.48987 0
M  V30 837 C 83.7036 -1.70201 -1.59856 0
M  V30 838 C 84.6846 -0.55076 -1.60937 0
M  V30 839 O 85.8696 -0.787841 -1.77501 0
M  V30 840 C 82.9996 -1.77882 -2.98287 0
M  V30 841 C 81.9536 -2.92907 -3.12073 0
M  V30 842 C 81.2796 -2.85712 -4.51965 0
M  V30 843 C 82.5796 -4.3369 -2.91051 0
M  V30 844 H 84.2736 -2.63025 -1.43032 0
M  V30 845 H 81.8196 -1.26574 -0.686664 0
M  V30 846 H 83.7726 -1.90744 -3.75759 0
M  V30 847 H 82.4966 -0.816653 -3.16225 0
M  V30 848 H 81.1556 -2.79665 -2.37029 0
M  V30 849 H 80.8036 -1.8738 -4.66795 0
M  V30 850 H 80.5036 -3.62921 -4.62128 0
M  V30 851 H 82.0276 -3.00598 -5.31482 0
M  V30 852 H 83.4416 -4.47555 -3.58284 0
M  V30 853 H 81.8386 -5.12205 -3.12675 0
M  V30 854 H 82.9086 -4.47362 -1.87071 0
M  V30 855 N 84.2517 0.741722 -1.39055 0
M  V30 856 C 85.4987 1.50114 -1.35912 0
M  V30 857 C 85.8267 1.94443 0.0470937 0
M  V30 858 O 85.0817 1.66612 1.02659 0
M  V30 859 C 85.3807 2.7592 -2.27163 0
M  V30 860 C 85.0467 2.50493 -3.74919 0
M  V30 861 C 83.7087 2.43267 -4.1518 0
M  V30 862 C 86.0607 2.28585 -4.684 0
M  V30 863 C 83.3887 2.12166 -5.46994 0
M  V30 864 C 85.7407 1.99002 -6.00484 0
M  V30 865 C 84.4047 1.90241 -6.39816 0
M  V30 866 H 83.6747 0.549306 -0.497336 0
M  V30 867 H 86.3217 0.851896 -1.71508 0
M  V30 868 H 84.6267 3.45553 -1.84663 0
M  V30 869 H 86.3237 3.33923 -2.22028 0
M  V30 870 H 82.9137 2.56992 -3.43006 0
M  V30 871 H 87.0977 2.33139 -4.38132 0
M  V30 872 H 82.3537 2.03901 -5.76398 0
M  V30 873 H 86.5277 1.81057 -6.72452 0
M  V30 874 H 84.1547 1.65907 -7.41875 0
M  V30 875 N 85.7298 1.2412 0.971189 0
M  V30 876 C 86.9578 1.10575 1.74874 0
M  V30 877 C 87.3728 -0.342017 1.85676 0
M  V30 878 O 86.7298 -1.23617 1.34258 0
M  V30 879 C 86.7808 1.73579 3.171 0
M  V30 880 O 86.5018 3.12695 3.06844 0
M  V30 881 C 88.0028 1.65598 4.11208 0
M  V30 882 H 85.2228 0.386504 0.548503 0
M  V30 883 H 87.7668 1.64156 1.21955 0
M  V30 884 H 85.9218 1.24009 3.67016 0
M  V30 885 H 86.3358 3.43412 3.96445 0
M  V30 886 H 87.8098 2.1437 5.08674 0
M  V30 887 H 88.2868 0.616532 4.34851 0
M  V30 888 H 88.8928 2.14578 3.67201 0
M  V30 889 N 87.2079 -1.17134 1.05439 0
M  V30 890 C 88.4479 -1.89137 0.77502 0
M  V30 891 C 88.8119 -1.79345 -0.685526 0
M  V30 892 O 90.0129 -2.46188 -1.0791 0
M  V30 893 C 88.2839 -3.35003 1.2453 0
M  V30 894 S 89.8429 -4.24952 1.09367 0
M  V30 895 H 86.6609 -0.652949 0.281387 0
M  V30 896 H 89.2629 -1.4145 1.34953 0
M  V30 897 H 87.9669 -3.39666 2.30338 0
M  V30 898 H 87.4979 -3.87736 0.665166 0
M  V30 899 H 89.5129 -4.96196 0.0193397 0
M  V30 900 N 88.686 -0.835752 -1.33615 0
M  V30 901 C 90.097 -0.487099 -1.80234 0
M  V30 902 C 90.448 0.993627 -1.69179 0
M  V30 903 O 89.573 1.77403 -1.23924 0
M  V30 904 C 90.168 -0.877385 -3.27242 0
M  V30 905 C 88.727 -0.580915 -3.7189 0
M  V30 906 C 87.874 -1.0874 -2.5509 0
M  V30 907 H 90.825 -1.02474 -1.2118 0
M  V30 908 H 90.846 -0.186195 -3.80044 0
M  V30 909 H 90.358 -1.95512 -3.35256 0
M  V30 910 H 88.459 0.486881 -3.69405 0
M  V30 911 H 88.572 -1.13396 -4.65487 0
M  V30 912 H 86.936 -0.508392 -2.49575 0
M  V30 913 H 87.719 -2.17184 -2.65868 0
M  V30 914 N 90.1641 1.46063 -0.591896 0
M  V30 915 C 91.4111 2.02338 -0.0809991 0
M  V30 916 C 91.7391 1.46228 1.28249 0
M  V30 917 O 90.9941 0.620818 1.85592 0
M  V30 918 C 91.2931 3.57391 0.0249813 0
M  V30 919 C 90.9591 4.32583 -1.27211 0
M  V30 920 C 89.6211 4.52844 -1.62745 0
M  V30 921 C 91.9731 4.75687 -2.13005 0
M  V30 922 C 89.3011 5.13462 -2.83855 0
M  V30 923 C 91.6531 5.37644 -3.3335 0
M  V30 924 C 90.3171 5.5613 -3.69155 0
M  V30 925 H 89.5871 0.740407 -0.0296397 0
M  V30 926 H 92.2341 1.75321 -0.770374 0
M  V30 927 H 90.5391 3.83597 0.797537 0
M  V30 928 H 92.2361 3.98621 0.436184 0
M  V30 929 H 88.8261 4.17116 -0.985499 0
M  V30 930 H 93.0101 4.59782 -1.86855 0
M  V30 931 H 88.2661 5.25965 -3.11722 0
M  V30 932 H 92.4401 5.7 -4.00092 0
M  V30 933 H 90.0671 6.0287 -4.63089 0
M  V30 934 N 91.6422 0.330177 1.54103 0
M  V30 935 C 92.5902 -0.548226 2.26047 0
M  V30 936 C 93.5842 -1.11309 1.27698 0
M  V30 937 O 94.7902 -1.06036 1.45452 0
M  V30 938 H 91.1652 -0.195456 0.726155 0
M  V30 939 H 93.1362 0.0807567 2.98291 0
M  V30 940 C 91.8852 -1.69415 3.03634 0
M  V30 941 H 91.2082 -1.26876 3.79134 0
M  V30 942 H 92.6482 -2.28423 3.5721 0
M  V30 943 C 91.1072 -2.61569 2.12328 0
M  V30 944 O 91.6372 -3.63462 1.7105 0
M  V30 945 N 89.8432 -2.29952 1.77681 0
M  V30 946 H 89.3902 -1.47134 2.11446 0
M  V30 947 H 89.3482 -2.91871 1.16869 0
M  V30 948 N 93.1203 -1.57491 0.0584922 0
M  V30 949 C 94.3683 -1.92597 -0.612436 0
M  V30 950 C 94.6893 -0.938162 -1.70949 0
M  V30 951 O 93.9593 0.0158301 -1.95894 0
M  V30 952 H 92.5393 -0.710964 -0.229214 0
M  V30 953 H 95.2013 -1.94571 0.113218 0
M  V30 954 H 94.2973 -2.94038 -1.04633 0
M  V30 955 N 94.5984 0.214957 -1.56127 0
M  V30 956 C 95.8754 0.963093 -1.70247 0
M  V30 957 C 96.2554 2.02166 -0.60764 0
M  V30 958 O 95.6034 2.25244 0.384385 0
M  V30 959 C 95.8134 1.56756 -3.11815 0
M  V30 960 C 97.1614 2.0573 -3.7143 0
M  V30 961 O 98.1854 1.66637 -3.14818 0
M  V30 962 O 97.0444 2.77603 -4.70743 0
M  V30 963 H 94.1384 0.450321 -0.693643 0
M  V30 964 H 96.6844 0.206219 -1.68442 0
M  V30 965 H 95.4564 0.803533 -3.82961 0
M  V30 966 H 95.0794 2.3898 -3.17765 0
M  V30 967 N 96.0765 1.50051 0.48192 0
M  V30 968 C 97.3165 1.62128 1.24474 0
M  V30 969 C 97.6805 0.309742 1.89485 0
M  V30 970 O 98.8815 0.305854 2.67054 0
M  V30 971 C 97.1525 2.76151 2.26882 0
M  V30 972 S 98.7115 3.08297 3.12247 0
M  V30 973 H 95.5295 0.571661 0.422759 0
M  V30 974 H 98.1315 1.87791 0.54359 0
M  V30 975 H 96.8355 3.69942 1.77683 0
M  V30 976 H 96.3665 2.52541 3.0164 0
M  V30 977 H 98.3815 2.51287 4.27866 0
M  V30 978 N 97.5546 -0.734337 1.39446 0
M  V30 979 C 98.9706 -1.03997 1.21065 0
M  V30 980 C 99.1706 -2.01369 0.0727019 0
M  V30 981 O 98.2266 -2.45856 -0.575426 0
M  V30 982 C 99.5396 -1.60163 2.54496 0
M  V30 983 C 101.088 -1.7224 2.61347 0
M  V30 984 C 101.563 -2.31814 3.95002 0
M  V30 985 N 103.054 -2.39223 3.96644 0
M  V30 986 C 103.789 -2.86258 4.96834 0
M  V30 987 N 103.285 -3.33184 6.07421 0
M  V30 988 N 105.078 -2.85473 4.84213 0
M  V30 989 H 97.2286 -0.0885624 2.12215 0
M  V30 990 H 99.4916 -0.10191 0.942506 0
M  V30 991 H 99.1976 -0.960811 3.38321 0
M  V30 992 H 99.0716 -2.5896 2.74262 0
M  V30 993 H 101.459 -2.35443 1.77906 0
M  V30 994 H 101.54 -0.720939 2.4543 0
M  V30 995 H 101.184 -1.69238 4.78875 0
M  V30 996 H 101.114 -3.32638 4.08239 0
M  V30 997 H 103.605 -2.06057 3.16779 0
M  V30 998 H 103.918 -3.67586 6.7978 0
M  V30 999 H 102.263 -3.31191 6.11013 0
M  V30 1000 H 105.454 -2.48136 3.96921 0
M  V30 1001 H 105.627 -3.21814 5.62441 0
M  V30 1002 N 99.0327 -1.24633 -0.964593 0
M  V30 1003 C 100.282 -1.08188 -1.7023 0
M  V30 1004 C 100.595 0.37873 -1.91898 0
M  V30 1005 O 101.801 0.663427 -2.6327 0
M  V30 1006 C 100.257 -1.88773 -3.06419 0
M  V30 1007 C 99.8647 -3.39263 -2.92582 0
M  V30 1008 C 101.609 -1.80867 -3.84041 0
M  V30 1009 C 99.5157 -4.1218 -4.24101 0
M  V30 1010 H 98.4457 -0.401245 -0.638372 0
M  V30 1011 H 101.097 -1.48742 -1.07462 0
M  V30 1012 H 99.4787 -1.41035 -3.70034 0
M  V30 1013 H 100.653 -3.94603 -2.37961 0
M  V30 1014 H 98.9677 -3.48154 -2.28424 0
M  V30 1015 H 101.565 -2.32646 -4.81435 0
M  V30 1016 H 101.908 -0.774543 -4.09031 0
M  V30 1017 H 102.441 -2.26301 -3.27159 0
M  V30 1018 H 99.1797 -5.15965 -4.04303 0
M  V30 1019 H 98.6997 -3.61626 -4.78526 0
M  V30 1020 H 100.379 -4.19349 -4.92702 0
M  V30 1021 N 100.511 1.16574 -1.06058 0
M  V30 1022 C 101.739 1.90952 -0.796552 0
M  V30 1023 C 102.154 1.77302 0.648808 0
M  V30 1024 O 101.511 1.11605 1.44397 0
M  V30 1025 C 101.562 3.41736 -1.17894 0
M  V30 1026 O 101.283 3.54975 -2.56758 0
M  V30 1027 C 102.784 4.33169 -0.942308 0
M  V30 1028 H 100.004 0.605594 -0.288959 0
M  V30 1029 H 102.548 1.47777 -1.41358 0
M  V30 1030 H 100.703 3.82623 -0.606491 0
M  V30 1031 H 101.117 4.4846 -2.72 0
M  V30 1032 H 102.591 5.37439 -1.25952 0
M  V30 1033 H 103.068 4.3903 0.122078 0
M  V30 1034 H 103.674 3.98007 -1.49902 0
M  V30 1035 N 101.989 0.842826 1.3317 0
M  V30 1036 C 102.936 0.276885 2.29133 0
M  V30 1037 C 103.906 -0.609527 1.54512 0
M  V30 1038 O 105.091 -0.546955 1.82792 0
M  V30 1039 C 102.231 -0.538707 3.40869 0
M  V30 1040 C 101.344 0.372169 4.30394 0
M  V30 1041 C 100.479 -0.454908 5.29249 0
M  V30 1042 C 99.5179 0.45411 6.10413 0
M  V30 1043 N 98.6549 -0.335075 7.013 0
M  V30 1044 H 103.495 1.10052 2.76934 0
M  V30 1045 H 101.032 0.554161 1.36262 0
M  V30 1046 H 102.99 -1.02709 4.0436 0
M  V30 1047 H 101.62 -1.32727 2.9425 0
M  V30 1048 H 100.672 0.97888 3.6759 0
M  V30 1049 H 101.984 1.0703 4.87182 0
M  V30 1050 H 101.138 -1.00695 5.98285 0
M  V30 1051 H 99.8769 -1.18646 4.73048 0
M  V30 1052 H 98.8819 1.01813 5.40291 0
M  V30 1053 H 100.107 1.18409 6.68697 0
M  V30 1054 H 98.0529 -1.04994 6.47543 0
M  V30 1055 H 97.9699 0.304262 7.55387 0
M  V30 1056 H 99.2379 -0.869224 7.74638 0
M  V30 1057 N 103.467 -1.45747 0.599634 0
M  V30 1058 C 104.744 -1.95585 0.0240846 0
M  V30 1059 C 105.124 -1.54217 -1.44154 0
M  V30 1060 O 104.472 -0.800903 -2.14004 0
M  V30 1061 C 104.682 -3.48344 0.21385 0
M  V30 1062 C 106.03 -4.24504 0.0904902 0
M  V30 1063 O 107.054 -3.55911 0.143558 0
M  V30 1064 O 105.913 -5.46491 -0.0310766 0
M  V30 1065 H 103.007 -0.82602 -0.0402478 0
M  V30 1066 H 105.553 -1.55951 0.669139 0
M  V30 1067 H 104.325 -3.71397 1.23206 0
M  V30 1068 H 103.948 -3.9485 -0.466842 0
M  V30 1069 N 104.945 -0.338344 -1.53925 0
M  V30 1070 C 105.893 0.536231 -2.26335 0
M  V30 1071 C 106.887 1.1063 -1.28286 0
M  V30 1072 O 108.093 1.05264 -1.46012 0
M  V30 1073 H 104.468 0.191602 -0.727181 0
M  V30 1074 H 106.439 -0.0965747 -2.98244 0
M  V30 1075 C 105.188 1.67803 -3.04528 0
M  V30 1076 H 104.511 1.24864 -3.79801 0
M  V30 1077 H 105.951 2.26526 -3.58416 0
M  V30 1078 C 104.41 2.60439 -2.13712 0
M  V30 1079 O 104.94 3.6255 -1.72975 0
M  V30 1080 N 103.146 2.29006 -1.78898 0
M  V30 1081 H 102.693 1.46011 -2.12223 0
M  V30 1082 H 102.651 2.91248 -1.18416 0
M  V30 1083 N 106.423 1.57458 -0.0668435 0
M  V30 1084 C 107.839 1.56947 0.289772 0
M  V30 1085 C 108.039 1.07584 1.70376 0
M  V30 1086 O 107.095 0.739486 2.41429 0
M  V30 1087 C 108.408 3.0052 0.103943 0
M  V30 1088 C 109.956 3.12517 0.173857 0
M  V30 1089 C 110.431 4.57997 0.0163682 0
M  V30 1090 N 111.922 4.63144 0.0721352 0
M  V30 1091 C 112.657 5.73394 -0.0253794 0
M  V30 1092 N 112.153 6.92576 -0.176133 0
M  V30 1093 N 113.946 5.62091 0.0313305 0
M  V30 1094 H 106.097 1.87863 -0.991027 0
M  V30 1095 H 108.36 0.86583 -0.38606 0
M  V30 1096 H 108.066 3.40729 -0.871572 0
M  V30 1097 H 107.94 3.67304 0.858366 0
M  V30 1098 H 110.327 2.72197 1.13985 0
M  V30 1099 H 110.408 2.48381 -0.611586 0
M  V30 1100 H 110.052 4.99005 -0.946374 0
M  V30 1101 H 109.982 5.20158 0.821153 0
M  V30 1102 H 112.473 3.77436 0.187263 0
M  V30 1103 H 112.786 7.72418 -0.242821 0
M  V30 1104 H 111.131 6.94678 -0.211429 0
M  V30 1105 H 114.322 4.67867 0.147773 0
M  V30 1106 H 114.495 6.47982 -0.048121 0
M  V30 1107 N 107.901 -0.206675 1.56239 0
M  V30 1108 C 109.317 -0.557025 1.49564 0
M  V30 1109 C 109.517 -1.86424 0.764735 0
M  V30 1110 O 108.573 -2.50584 0.310491 0
M  V30 1111 C 109.886 -0.622478 2.94186 0
M  V30 1112 C 111.434 -0.712099 3.04792 0
M  V30 1113 C 111.909 -0.808767 4.50803 0
M  V30 1114 N 113.4 -0.8726 4.54907 0
M  V30 1115 C 114.135 -0.967365 5.65181 0
M  V30 1116 N 113.631 -1.02515 6.85173 0
M  V30 1117 N 115.424 -1.00366 5.53067 0
M  V30 1118 H 107.575 0.650943 2.02179 0
M  V30 1119 H 109.838 0.230387 0.919579 0
M  V30 1120 H 109.544 0.268727 3.50672 0
M  V30 1121 H 109.418 -1.4811 3.46905 0
M  V30 1122 H 111.805 -1.59374 2.48363 0
M  V30 1123 H 111.886 0.172489 2.55218 0
M  V30 1124 H 111.53 0.0684754 5.07854 0
M  V30 1125 H 111.46 -1.70899 4.98098 0
M  V30 1126 H 113.951 -0.837657 3.68499 0
M  V30 1127 H 114.264 -1.09765 7.64965 0
M  V30 1128 H 112.609 -0.994026 6.87855 0
M  V30 1129 H 115.8 -0.95527 4.58249 0
M  V30 1130 H 115.973 -1.07405 6.39037 0
M  V30 1131 N 109.379 -1.50304 -0.473955 0
M  V30 1132 C 110.329 -1.65347 -1.56985 0
M  V30 1133 C 111.313 -0.508176 -1.52664 0
M  V30 1134 O 112.505 -0.762446 -1.59737 0
M  V30 1135 C 109.634 -1.74832 -2.95447 0
M  V30 1136 C 108.72 -2.95028 -3.04662 0
M  V30 1137 N 109.111 -4.18747 -2.83698 0
M  V30 1138 C 107.409 -2.93527 -3.35795 0
M  V30 1139 C 108.11 -4.99687 -2.97805 0
M  V30 1140 N 107.086 -4.33585 -3.2788 0
M  V30 1141 H 110.888 -2.58698 -1.39472 0
M  V30 1142 H 108.402 -1.47449 -0.680629 0
M  V30 1143 H 110.399 -1.83712 -3.7424 0
M  V30 1144 H 109.059 -0.826376 -3.14008 0
M  V30 1145 H 110.07 -4.48291 -2.59337 0
M  V30 1146 H 106.747 -2.10821 -3.60362 0
M  V30 1147 H 108.137 -6.08057 -2.85861 0
M  V30 1148 N 110.857 0.726932 -1.39834 0
M  V30 1149 C 112.097 1.4992 -1.38936 0
M  V30 1150 C 112.461 1.91996 0.0126883 0
M  V30 1151 O 113.662 2.68399 0.146715 0
M  V30 1152 C 111.933 2.70013 -2.34153 0
M  V30 1153 S 113.492 3.59563 -2.51515 0
M  V30 1154 H 110.31 0.51271 -0.492595 0
M  V30 1155 H 112.912 0.85107 -1.76003 0
M  V30 1156 H 111.616 2.37254 -3.34871 0
M  V30 1157 H 111.147 3.39748 -1.98331 0
M  V30 1158 H 113.162 4.63973 -1.75909 0
M  V30 1159 N 112.336 1.25143 0.95797 0
M  V30 1160 C 113.268 1.01023 2.05735 0
M  V30 1161 C 114.281 -0.0236902 1.62783 0
M  V30 1162 O 115.47 0.21448 1.77207 0
M  V30 1163 C 112.57 0.504595 3.35122 0
M  V30 1164 C 111.743 1.6039 4.06932 0
M  V30 1165 C 110.802 1.09922 5.14591 0
M  V30 1166 O 109.828 1.79293 5.40225 0
M  V30 1167 N 111.03 -0.0612545 5.80468 0
M  V30 1168 H 113.795 1.95683 2.26998 0
M  V30 1169 H 111.356 1.16303 1.12629 0
M  V30 1170 H 113.348 0.151516 4.04416 0
M  V30 1171 H 111.918 -0.347989 3.10657 0
M  V30 1172 H 111.138 2.12872 3.31782 0
M  V30 1173 H 112.426 2.34252 4.51667 0
M  V30 1174 H 111.824 -0.640985 5.62057 0
M  V30 1175 H 110.381 -0.355395 6.5083 0
M  V30 1176 N 113.814 -1.1601 1.06675 0
M  V30 1177 C 114.777 -2.18724 0.685001 0
M  V30 1178 C 115.777 -1.58496 -0.271246 0
M  V30 1179 O 116.967 -1.74119 -0.0531156 0
M  V30 1180 C 114.099 -3.40899 0.00853648 0
M  V30 1181 H 115.292 -2.54011 1.59431 0
M  V30 1182 H 112.845 -1.30352 0.862441 0
M  V30 1183 H 113.58 -3.11173 -0.913337 0
M  V30 1184 H 113.365 -3.8587 0.696204 0
M  V30 1185 H 114.855 -4.16886 -0.24414 0
M  V30 1186 N 115.292 -0.849877 -1.32721 0
M  V30 1187 C 116.532 -0.457146 -1.99222 0
M  V30 1188 C 116.896 0.968038 -1.6581 0
M  V30 1189 O 118.097 1.46507 -2.25364 0
M  V30 1190 C 116.368 -0.683966 -3.50794 0
M  V30 1191 S 117.927 -0.388095 -4.3708 0
M  V30 1192 H 114.745 -0.171464 -0.690015 0
M  V30 1193 H 117.347 -1.10155 -1.61512 0
M  V30 1194 H 116.051 -1.72038 -3.726 0
M  V30 1195 H 115.582 -0.0258086 -3.93392 0
M  V30 1196 H 117.597 0.787791 -4.89906 0
M  V30 1197 N 116.77 1.45427 -0.607355 0
M  V30 1198 C 118.186 1.57283 -0.270985 0
M  V30 1199 C 118.386 1.59875 1.22647 0
M  V30 1200 O 117.442 1.52893 2.00948 0
M  V30 1201 C 118.755 2.85566 -0.941952 0
M  V30 1202 C 120.303 2.9924 -0.917849 0
M  V30 1203 C 120.778 4.30293 -1.56882 0
M  V30 1204 N 122.269 4.37051 -1.5343 0
M  V30 1205 C 123.004 5.37123 -2.00715 0
M  V30 1206 N 122.5 6.43734 -2.56084 0
M  V30 1207 N 124.293 5.28479 -1.91484 0
M  V30 1208 H 116.444 1.41988 -1.57966 0
M  V30 1209 H 118.707 0.67885 -0.661715 0
M  V30 1210 H 118.413 2.8955 -1.99633 0
M  V30 1211 H 118.287 3.74322 -0.465096 0
M  V30 1212 H 120.674 2.94822 0.127984 0
M  V30 1213 H 120.755 2.11895 -1.43297 0
M  V30 1214 H 120.399 4.35469 -2.61398 0
M  V30 1215 H 120.329 5.16454 -1.02873 0
M  V30 1216 H 122.82 3.60615 -1.12982 0
M  V30 1217 H 123.133 7.16341 -2.89958 0
M  V30 1218 H 121.478 6.44485 -2.60122 0
M  V30 1219 H 124.669 4.44098 -1.47967 0
M  V30 1220 H 124.842 6.0632 -2.28648 0
M  V30 1221 N 118.248 0.346503 1.53744 0
M  V30 1222 C 119.178 -0.501193 2.28058 0
M  V30 1223 C 120.159 -1.10014 1.29734 0
M  V30 1224 O 121.344 -1.12097 1.58581 0
M  V30 1225 C 118.474 -1.65078 3.05559 0
M  V30 1226 C 117.428 -1.18003 4.11411 0
M  V30 1227 C 116.754 -2.41837 4.76884 0
M  V30 1228 C 118.054 -0.278394 5.21558 0
M  V30 1229 H 119.748 0.11875 2.99164 0
M  V30 1230 H 117.294 0.0585531 1.43881 0
M  V30 1231 H 119.247 -2.25028 3.56287 0
M  V30 1232 H 117.971 -2.29767 2.32109 0
M  V30 1233 H 116.63 -0.603331 3.61601 0
M  V30 1234 H 116.278 -3.0494 4.00026 0
M  V30 1235 H 115.978 -2.1102 5.48402 0
M  V30 1236 H 117.502 -3.02508 5.30397 0
M  V30 1237 H 118.916 -0.784823 5.67903 0
M  V30 1238 H 117.313 -0.0619707 6.00068 0
M  V30 1239 H 118.383 0.684677 4.80042 0
M  V30 1240 N 119.726 -1.57421 0.075193 0
M  V30 1241 C 120.673 -2.12915 -0.890843 0
M  V30 1242 C 121.643 -1.04252 -1.29309 0
M  V30 1243 O 122.828 -1.31933 -1.37834 0
M  V30 1244 C 119.968 -2.69795 -2.15186 0
M  V30 1245 C 119.081 -3.92624 -1.80194 0
M  V30 1246 C 118.216 -4.37736 -3.00933 0
M  V30 1247 C 117.255 -5.53205 -2.61974 0
M  V30 1248 N 116.392 -5.9326 -3.75483 0
M  V30 1249 H 121.232 -2.95156 -0.410735 0
M  V30 1250 H 118.769 -1.45854 -0.191086 0
M  V30 1251 H 120.727 -3.00883 -2.89008 0
M  V30 1252 H 119.357 -1.90313 -2.60731 0
M  V30 1253 H 118.409 -3.67977 -0.964218 0
M  V30 1254 H 119.721 -4.76482 -1.47534 0
M  V30 1255 H 118.875 -4.70503 -3.8303 0
M  V30 1256 H 117.614 -3.52739 -3.36789 0
M  V30 1257 H 116.619 -5.20086 -1.783 0
M  V30 1258 H 117.844 -6.39936 -2.27284 0
M  V30 1259 H 115.79 -5.11212 -4.11094 0
M  V30 1260 H 115.707 -6.71865 -3.46602 0
M  V30 1261 H 116.975 -6.30651 -4.58148 0
M  V30 1262 N 121.204 0.198386 -1.56346 0
M  V30 1263 C 122.62 0.549085 -1.49857 0
M  V30 1264 C 122.82 1.86016 -0.774611 0
M  V30 1265 O 121.876 2.50416 -0.323776 0
M  V30 1266 C 123.189 0.606868 -2.94512 0
M  V30 1267 C 124.737 0.695925 -3.05165 0
M  V30 1268 C 125.212 0.784848 -4.51225 0
M  V30 1269 N 126.703 0.848463 -4.55363 0
M  V30 1270 C 127.438 0.937378 -5.65686 0
M  V30 1271 N 126.934 0.9888 -6.85707 0
M  V30 1272 N 128.727 0.974312 -5.53592 0
M  V30 1273 H 120.878 -0.661655 -2.01831 0
M  V30 1274 H 123.141 -0.235261 -0.918344 0
M  V30 1275 H 122.847 -0.28732 -3.50524 0
M  V30 1276 H 122.721 1.46268 -3.47686 0
M  V30 1277 H 125.108 1.58055 -2.49204 0
M  V30 1278 H 125.189 -0.186022 -2.55123 0
M  V30 1279 H 124.833 -0.0954072 -5.0781 0
M  V30 1280 H 124.763 1.68255 -4.98997 0
M  V30 1281 H 127.254 0.818103 -3.68938 0
M  V30 1282 H 127.567 1.05707 -7.65536 0
M  V30 1283 H 125.912 0.957534 -6.88372 0
M  V30 1284 H 129.103 0.930954 -4.58749 0
M  V30 1285 H 129.276 1.04015 -6.39597 0
M  V30 1286 N 122.682 1.50554 0.465978 0
M  V30 1287 C 123.922 1.63439 1.22747 0
M  V30 1288 C 124.286 0.329822 1.89146 0
M  V30 1289 O 125.487 0.334161 2.66715 0
M  V30 1290 C 123.758 2.78542 2.2394 0
M  V30 1291 S 125.317 3.11591 3.0896 0
M  V30 1292 H 122.135 0.576113 0.416672 0
M  V30 1293 H 124.737 1.88357 0.523641 0
M  V30 1294 H 123.441 3.71805 1.7375 0
M  V30 1295 H 122.972 2.55726 2.98944 0
M  V30 1296 H 124.987 2.55811 4.25176 0
M  V30 1297 N 124.16 -0.719506 1.40217 0
M  V30 1298 C 125.406 -1.48152 1.38488 0
M  V30 1299 C 125.739 -1.94195 -0.0141867 0
M  V30 1300 O 125.014 -1.67884 -0.982096 0
M  V30 1301 C 125.297 -2.71035 2.37091 0
M  V30 1302 C 125.15 -2.30912 3.86005 0
M  V30 1303 C 126.469 -3.73182 2.33288 0
M  V30 1304 H 123.588 -0.537395 0.504357 0
M  V30 1305 H 126.23 -0.821472 1.71324 0
M  V30 1306 H 124.38 -3.27352 2.0922 0
M  V30 1307 H 126.052 -1.80107 4.24687 0
M  V30 1308 H 124.295 -1.62958 4.02029 0
M  V30 1309 H 124.966 -3.18978 4.50508 0
M  V30 1310 H 127.442 -3.26485 2.57966 0
M  V30 1311 H 126.318 -4.56806 3.04334 0
M  V30 1312 H 126.579 -4.21202 1.34317 0
M  V30 1313 N 125.638 -1.25649 -0.95132 0
M  V30 1314 C 126.915 -1.01361 -1.67288 0
M  V30 1315 C 127.295 0.459135 -2.06046 0
M  V30 1316 O 126.643 1.43723 -1.7764 0
M  V30 1317 C 126.853 -1.95256 -2.89268 0
M  V30 1318 C 128.201 -2.23289 -3.61147 0
M  V30 1319 O 129.225 -1.93041 -2.99355 0
M  V30 1320 O 128.084 -2.74741 -4.72419 0
M  V30 1321 H 125.178 -0.38464 -0.732107 0
M  V30 1322 H 127.724 -1.36817 -1.00395 0
M  V30 1323 H 126.496 -2.94685 -2.57442 0
M  V30 1324 H 126.119 -1.60218 -3.6389 0
M  V30 1325 N 127.117 1.15442 -1.07289 0
M  V30 1326 C 128.366 1.85557 -0.790669 0
M  V30 1327 C 128.679 1.83186 0.685739 0
M  V30 1328 O 129.885 2.48977 1.0827 0
M  V30 1329 C 128.341 3.33038 -1.36433 0
M  V30 1330 C 127.949 3.43856 -2.8717 0
M  V30 1331 C 129.693 4.0834 -1.1601 0
M  V30 1332 C 127.6 4.85482 -3.3773 0
M  V30 1333 H 126.53 0.695122 -0.292098 0
M  V30 1334 H 129.181 1.30219 -1.29287 0
M  V30 1335 H 127.563 3.88043 -0.789864 0
M  V30 1336 H 128.737 2.98961 -3.50655 0
M  V30 1337 H 127.052 2.81998 -3.06376 0
M  V30 1338 H 129.649 5.12859 -1.51262 0
M  V30 1339 H 129.992 4.16182 -0.0991007 0
M  V30 1340 H 130.525 3.59603 -1.70089 0
M  V30 1341 H 127.264 4.82823 -4.43353 0
M  V30 1342 H 126.784 5.30961 -2.78999 0
M  V30 1343 H 128.463 5.54335 -3.33648 0
M  V30 1344 N 128.595 0.856903 1.32268 0
M  V30 1345 C 129.843 0.460474 1.96784 0
M  V30 1346 C 130.164 -0.987701 1.68135 0
M  V30 1347 O 129.434 -1.69058 0.989765 0
M  V30 1348 H 128.014 0.167289 0.728027 0
M  V30 1349 H 130.676 1.09383 1.61312 0
M  V30 1350 H 129.772 0.60739 3.06133 0
M  V30 1351 N 130.073 -1.45103 0.615059 0
M  V30 1352 C 131.006 -2.27717 -0.148408 0
M  V30 1353 C 131.984 -1.37584 -0.866572 0
M  V30 1354 O 133.168 -1.67017 -0.87393 0
M  V30 1355 C 130.295 -3.16136 -1.21557 0
M  V30 1356 C 129.341 -4.22263 -0.599712 0
M  V30 1357 S 130.174 -5.3215 0.598081 0
M  V30 1358 C 131.33 -6.24137 -0.469484 0
M  V30 1359 H 131.563 -2.92121 0.552483 0
M  V30 1360 H 129.096 -1.49054 0.402778 0
M  V30 1361 H 131.054 -3.67633 -1.82638 0
M  V30 1362 H 129.715 -2.50982 -1.88857 0
M  V30 1363 H 128.908 -4.84081 -1.4029 0
M  V30 1364 H 128.51 -3.73945 -0.063876 0
M  V30 1365 H 130.802 -6.63984 -1.34652 0
M  V30 1366 H 131.745 -7.0801 0.112725 0
M  V30 1367 H 132.153 -5.58971 -0.788168 0
M  V30 1368 N 131.551 -0.354651 -1.53558 0
M  V30 1369 C 132.484 0.540273 -2.21712 0
M  V30 1370 C 133.462 1.09161 -1.2051 0
M  V30 1371 O 134.646 1.14979 -1.49372 0
M  V30 1372 C 131.773 1.74435 -2.90328 0
M  V30 1373 C 130.819 1.32146 -4.05512 0
M  V30 1374 S 131.652 0.331924 -5.3447 0
M  V30 1375 C 132.808 1.54258 -6.06593 0
M  V30 1376 H 133.041 -0.0385776 -2.97275 0
M  V30 1377 H 130.574 -0.138736 -1.53775 0
M  V30 1378 H 132.532 2.43507 -3.30476 0
M  V30 1379 H 131.193 2.29444 -2.1451 0
M  V30 1380 H 130.386 2.21952 -4.52497 0
M  V30 1381 H 129.988 0.710091 -3.67197 0
M  V30 1382 H 132.28 2.47534 -6.30661 0
M  V30 1383 H 133.223 1.11431 -6.99277 0
M  V30 1384 H 133.631 1.74367 -5.36895 0
M  V30 1385 N 133.029 1.57378 -0.0835403 0
M  V30 1386 C 133.976 2.13384 0.879539 0
M  V30 1387 C 134.946 1.04936 1.28754 0
M  V30 1388 O 136.131 1.32662 1.37133 0
M  V30 1389 C 133.271 2.70932 2.13752 0
M  V30 1390 C 132.384 3.93575 1.7811 0
M  V30 1391 C 131.519 4.39326 2.98607 0
M  V30 1392 C 130.558 5.54587 2.59037 0
M  V30 1393 N 129.695 5.95243 3.72331 0
M  V30 1394 H 134.535 2.9537 0.395076 0
M  V30 1395 H 132.072 1.45953 0.183349 0
M  V30 1396 H 134.03 3.02411 2.87408 0
M  V30 1397 H 132.66 1.91693 2.59718 0
M  V30 1398 H 131.712 3.68483 0.94469 0
M  V30 1399 H 133.024 4.77258 1.45005 0
M  V30 1400 H 132.178 4.72528 3.80529 0
M  V30 1401 H 130.917 3.5452 3.34913 0
M  V30 1402 H 129.922 5.21024 1.75539 0
M  V30 1403 H 131.147 6.41133 2.23887 0
M  V30 1404 H 129.093 5.13385 4.08378 0
M  V30 1405 H 129.01 6.73694 3.43034 0
M  V30 1406 H 130.278 6.33072 4.54797 0
M  V30 1407 N 134.507 -0.190092 1.56449 0
M  V30 1408 C 135.417 -1.25591 1.98152 0
M  V30 1409 C 136.433 -1.49519 0.889944 0
M  V30 1410 O 137.609 -1.62036 1.19609 0
M  V30 1411 C 134.674 -2.57916 2.3169 0
M  V30 1412 C 133.735 -2.42015 3.5458 0
M  V30 1413 C 132.968 -3.6803 3.8651 0
M  V30 1414 O 133.191 -4.72413 3.1966 0
M  V30 1415 O 132.125 -3.6326 4.79923 0
M  V30 1416 H 135.951 -0.931988 2.89046 0
M  V30 1417 H 133.536 -0.395488 1.4407 0
M  V30 1418 H 135.418 -3.36008 2.54316 0
M  V30 1419 H 134.093 -2.89925 1.43963 0
M  V30 1420 H 133 -1.62017 3.37196 0
M  V30 1421 H 134.333 -2.14937 4.4279 0
M  V30 1422 N 135.985 -1.50799 -0.457987 0
M  V30 1423 C 137.232 -1.62442 -1.20908 0
M  V30 1424 C 137.56 -0.330865 -1.91665 0
M  V30 1425 O 136.815 0.68401 -1.83357 0
M  V30 1426 C 137.114 -2.76358 -2.2663 0
M  V30 1427 C 136.78 -4.16378 -1.73033 0
M  V30 1428 C 135.442 -4.54473 -1.58138 0
M  V30 1429 C 137.794 -5.03836 -1.33413 0
M  V30 1430 C 135.122 -5.77754 -1.02065 0
M  V30 1431 C 137.474 -6.27676 -0.78778 0
M  V30 1432 C 136.138 -6.64562 -0.625561 0
M  V30 1433 H 135.408 -0.594417 -0.442435 0
M  V30 1434 H 138.055 -1.84772 -0.503136 0
M  V30 1435 H 136.36 -2.48167 -3.03184 0
M  V30 1436 H 138.057 -2.82568 -2.84528 0
M  V30 1437 H 134.647 -3.86331 -1.85598 0
M  V30 1438 H 138.831 -4.75026 -1.4375 0
M  V30 1439 H 134.087 -6.04997 -0.882547 0
M  V30 1440 H 138.261 -6.94797 -0.472177 0
M  V30 1441 H 135.888 -7.59965 -0.188926 0
M  V30 1442 N 137.463 0.71206 -1.40597 0
M  V30 1443 C 138.712 1.46754 -1.38369 0
M  V30 1444 C 139.025 1.95598 0.0097839 0
M  V30 1445 O 140.231 2.71059 0.154677 0
M  V30 1446 C 138.687 2.65289 -2.43207 0
M  V30 1447 C 138.295 2.23301 -3.88382 0
M  V30 1448 C 140.039 3.43008 -2.50091 0
M  V30 1449 C 137.946 3.38696 -4.84808 0
M  V30 1450 H 136.876 0.55118 -0.514506 0
M  V30 1451 H 139.527 0.774616 -1.66349 0
M  V30 1452 H 137.909 3.36769 -2.08332 0
M  V30 1453 H 139.083 1.59218 -4.32419 0
M  V30 1454 H 137.398 1.58618 -3.85006 0
M  V30 1455 H 139.995 4.28881 -3.1932 0
M  V30 1456 H 140.338 3.87065 -1.53253 0
M  V30 1457 H 140.871 2.78574 -2.83974 0
M  V30 1458 H 137.61 2.99668 -5.82992 0
M  V30 1459 H 137.13 4.01683 -4.45433 0
M  V30 1460 H 138.809 4.04712 -5.04794 0
M  V30 1461 N 138.941 1.26152 0.944643 0
M  V30 1462 C 139.871 1.09902 2.06019 0
M  V30 1463 C 140.852 0.00519538 1.70099 0
M  V30 1464 O 142.037 0.176583 1.93396 0
M  V30 1465 C 139.167 0.727562 3.39594 0
M  V30 1466 C 138.121 1.77274 3.89561 0
M  V30 1467 C 137.447 1.25569 5.19747 0
M  V30 1468 C 138.747 3.17357 4.14827 0
M  V30 1469 H 140.441 2.03217 2.19871 0
M  V30 1470 H 137.987 0.978452 1.05652 0
M  V30 1471 H 139.94 0.600777 4.17095 0
M  V30 1472 H 138.664 -0.241287 3.25707 0
M  V30 1473 H 137.323 1.88814 3.14237 0
M  V30 1474 H 136.971 0.276783 5.02238 0
M  V30 1475 H 136.671 1.95433 5.54148 0
M  V30 1476 H 138.195 1.1415 5.99835 0
M  V30 1477 H 139.609 3.08914 4.82954 0
M  V30 1478 H 138.006 3.84781 4.60504 0
M  V30 1479 H 139.076 3.63673 3.20734 0
M  V30 1480 N 140.419 -1.14872 1.07899 0
M  V30 1481 C 141.647 -1.89661 0.82683 0
M  V30 1482 C 142.062 -1.78312 -0.620519 0
M  V30 1483 O 141.419 -1.13888 -1.42604 0
M  V30 1484 C 141.47 -3.39817 1.23316 0
M  V30 1485 O 141.191 -3.50845 2.62372 0
M  V30 1486 C 142.692 -4.31615 1.0111 0
M  V30 1487 H 139.912 -0.60092 0.298557 0
M  V30 1488 H 142.456 -1.4551 1.43691 0
M  V30 1489 H 140.611 -3.8161 0.667286 0
M  V30 1490 H 141.025 -4.44076 2.79101 0
M  V30 1491 H 142.499 -5.35367 1.34486 0
M  V30 1492 H 142.976 -4.39169 -0.0522168 0
M  V30 1493 H 143.582 -3.95572 1.56215 0
M  V30 1494 N 141.898 -0.863906 -1.31812 0
M  V30 1495 C 143.175 -0.39275 -1.91616 0
M  V30 1496 C 143.555 1.12461 -1.7865 0
M  V30 1497 O 142.903 1.95045 -1.19037 0
M  V30 1498 C 143.113 -0.867385 -3.38049 0
M  V30 1499 C 144.461 -0.889966 -4.15168 0
M  V30 1500 O 145.485 -0.812635 -3.46806 0
M  V30 1501 O 144.344 -1.00079 -5.37258 0
M  V30 1502 H 141.438 -0.116358 -0.818773 0
M  V30 1503 H 143.984 -0.951418 -1.40521 0
M  V30 1504 H 142.756 -1.91081 -3.41473 0
M  V30 1505 H 142.379 -0.286687 -3.96565 0
M  V30 1506 N 143.376 1.44774 -0.622745 0
M  V30 1507 C 144.286 2.34433 0.0886031 0
M  V30 1508 C 145.302 1.52131 0.844529 0
M  V30 1509 O 146.478 1.84886 0.798691 0
M  V30 1510 C 143.543 3.29986 1.0635 0
M  V30 1511 C 142.604 4.28195 0.307873 0
M  V30 1512 C 141.837 5.19183 1.23633 0
M  V30 1513 O 142.06 5.13918 2.47476 0
M  V30 1514 O 140.994 5.97515 0.725189 0
M  V30 1515 H 144.82 2.96693 -0.648599 0
M  V30 1516 H 142.405 1.44408 -0.382957 0
M  V30 1517 H 144.287 3.88825 1.6246 0
M  V30 1518 H 142.962 2.70269 1.78146 0
M  V30 1519 H 141.869 3.72927 -0.296064 0
M  V30 1520 H 143.202 4.90808 -0.3699 0
M  V30 1521 N 144.854 0.36279 1.53368 0
M  V30 1522 C 145.764 -0.492994 2.29362 0
M  V30 1523 C 146.78 -1.09507 1.35219 0
M  V30 1524 O 147.956 -1.10662 1.68273 0
M  V30 1525 C 145.021 -1.61855 3.066 0
M  V30 1526 C 144.082 -1.04429 4.16405 0
M  V30 1527 C 143.315 -2.11621 4.89951 0
M  V30 1528 O 143.538 -3.32684 4.63333 0
M  V30 1529 O 142.472 -1.74835 5.75948 0
M  V30 1530 H 146.298 0.125331 3.03441 0
M  V30 1531 H 143.883 0.127253 1.48857 0
M  V30 1532 H 145.765 -2.27302 3.54841 0
M  V30 1533 H 144.44 -2.22233 2.3536 0
M  V30 1534 H 143.347 -0.353819 3.72423 0
M  V30 1535 H 144.68 -0.485113 4.89804 0
M  V30 1536 N 146.332 -1.57332 0.0918853 0
M  V30 1537 C 147.578 -1.94524 -0.573425 0
M  V30 1538 C 147.911 -0.973578 -1.68033 0
M  V30 1539 O 147.186 -0.00609226 -1.94499 0
M  V30 1540 C 147.469 -3.41858 -1.13161 0
M  V30 1541 C 147.322 -4.4979 -0.0299747 0
M  V30 1542 C 148.641 -3.90435 -2.03098 0
M  V30 1543 H 145.76 -0.70734 -0.206975 0
M  V30 1544 H 148.402 -1.89309 0.161942 0
M  V30 1545 H 146.552 -3.46433 -1.7583 0
M  V30 1546 H 148.224 -4.57327 0.604112 0
M  V30 1547 H 146.467 -4.291 0.636833 0
M  V30 1548 H 147.138 -5.50069 -0.461287 0
M  V30 1549 H 149.614 -3.87992 -1.50338 0
M  V30 1550 H 148.49 -4.94097 -2.39081 0
M  V30 1551 H 148.751 -3.29541 -2.94712 0
M  V30 1552 N 147.81 0.181792 -1.56548 0
M  V30 1553 C 148.742 1.24956 -1.92142 0
M  V30 1554 C 149.755 1.41022 -0.813422 0
M  V30 1555 O 150.944 1.41212 -1.09186 0
M  V30 1556 C 148.044 2.61981 -2.14987 0
M  V30 1557 C 147.217 2.6735 -3.46183 0
M  V30 1558 C 146.276 3.85664 -3.5798 0
M  V30 1559 O 145.302 3.72148 -4.30691 0
M  V30 1560 N 146.504 5.01683 -2.92053 0
M  V30 1561 H 149.269 0.947329 -2.84334 0
M  V30 1562 H 146.83 0.371629 -1.57577 0
M  V30 1563 H 148.822 3.3958 -2.20154 0
M  V30 1564 H 147.392 2.84637 -1.2923 0
M  V30 1565 H 146.612 1.75925 -3.52766 0
M  V30 1566 H 147.9 2.67939 -4.32534 0
M  V30 1567 H 147.298 5.15564 -2.32832 0
M  V30 1568 H 145.855 5.77181 -3.0283 0
M  V30 1569 N 149.288 1.51039 0.449983 0
M  V30 1570 C 150.704 1.38934 0.785462 0
M  V30 1571 C 150.904 0.461817 1.96136 0
M  V30 1572 O 149.96 -0.0877389 2.52348 0
M  V30 1573 C 151.273 2.80724 1.0777 0
M  V30 1574 C 152.821 2.89787 1.1829 0
M  V30 1575 C 153.296 4.32457 1.50815 0
M  V30 1576 N 154.787 4.35505 1.57764 0
M  V30 1577 C 155.522 5.42914 1.84477 0
M  V30 1578 N 155.018 6.60502 2.09068 0
M  V30 1579 N 156.811 5.3038 1.86155 0
M  V30 1580 H 148.962 2.09904 -0.324647 0
M  V30 1581 H 151.225 0.944378 -0.0827957 0
M  V30 1582 H 150.931 3.50531 0.286498 0
M  V30 1583 H 150.805 3.19273 2.00859 0
M  V30 1584 H 153.192 2.20186 1.96474 0
M  V30 1585 H 153.273 2.54752 0.231314 0
M  V30 1586 H 152.917 5.02603 0.731622 0
M  V30 1587 H 152.847 4.64995 2.47158 0
M  V30 1588 H 155.338 3.50724 1.40715 0
M  V30 1589 H 155.651 7.38158 2.28785 0
M  V30 1590 H 153.996 6.63639 2.06416 0
M  V30 1591 H 157.187 4.37505 1.66454 0
M  V30 1592 H 157.36 6.1417 2.06637 0
M  V30 1593 N 150.766 -0.704594 1.40972 0
M  V30 1594 C 151.713 -1.81862 1.42109 0
M  V30 1595 C 152.683 -1.63781 0.276593 0
M  V30 1596 O 153.868 -1.84759 0.4763 0
M  V30 1597 C 151.008 -3.19669 1.30022 0
M  V30 1598 C 150.121 -3.49246 2.54267 0
M  V30 1599 C 149.256 -4.76618 2.3454 0
M  V30 1600 C 148.295 -4.99133 3.54306 0
M  V30 1601 N 147.432 -6.17726 3.33706 0
M  V30 1602 H 152.272 -1.80226 2.37324 0
M  V30 1603 H 149.809 -0.880238 1.17857 0
M  V30 1604 H 151.767 -3.99263 1.21018 0
M  V30 1605 H 150.397 -3.20506 0.384192 0
M  V30 1606 H 149.449 -2.64125 2.73756 0
M  V30 1607 H 150.761 -3.61788 3.43381 0
M  V30 1608 H 149.915 -5.64249 2.22952 0
M  V30 1609 H 148.654 -4.66305 1.42867 0
M  V30 1610 H 147.659 -4.09953 3.66359 0
M  V30 1611 H 148.884 -5.11311 4.4692 0
M  V30 1612 H 146.83 -6.08642 2.44725 0
M  V30 1613 H 146.747 -6.30995 4.16391 0
M  V30 1614 H 148.015 -7.08115 3.25873 0
M  V30 1615 N 152.244 -1.26651 -0.937939 0
M  V30 1616 C 153.66 -1.03834 -1.21205 0
M  V30 1617 C 153.86 0.234502 -2.00131 0
M  V30 1618 O 152.916 0.942767 -2.3424 0
M  V30 1619 C 154.229 -2.27167 -1.97017 0
M  V30 1620 C 155.777 -2.32101 -2.09996 0
M  V30 1621 C 156.252 -3.55136 -2.8921 0
M  V30 1622 N 157.743 -3.55632 -2.96783 0
M  V30 1623 C 158.478 -4.475 -3.58512 0
M  V30 1624 N 157.974 -5.4966 -4.21717 0
M  V30 1625 N 159.767 -4.35145 -3.55816 0
M  V30 1626 H 151.918 -2.08398 -0.410391 0
M  V30 1627 H 154.181 -0.916031 -0.244114 0
M  V30 1628 H 153.887 -3.19765 -1.46434 0
M  V30 1629 H 153.761 -2.31672 -2.97671 0
M  V30 1630 H 156.148 -1.40015 -2.59769 0
M  V30 1631 H 156.229 -2.31605 -1.08594 0
M  V30 1632 H 155.873 -4.47553 -2.40123 0
M  V30 1633 H 155.803 -3.5288 -3.90875 0
M  V30 1634 H 158.294 -2.81743 -2.51852 0
M  V30 1635 H 158.607 -6.15943 -4.66727 0
M  V30 1636 H 156.952 -5.53514 -4.20294 0
M  V30 1637 H 160.143 -3.5455 -3.05634 0
M  V30 1638 H 160.316 -5.06934 -4.03636 0
M  V30 1639 N 153.722 1.14298 -1.08507 0
M  V30 1640 C 154.632 2.23027 -0.727753 0
M  V30 1641 C 155.648 1.71952 0.26619 0
M  V30 1642 O 156.824 2.011 0.109882 0
M  V30 1643 C 153.889 3.46403 -0.143541 0
M  V30 1644 C 152.95 4.12413 -1.19223 0
M  V30 1645 C 152.183 5.29899 -0.635798 0
M  V30 1646 O 152.406 5.67796 0.544393 0
M  V30 1647 O 151.34 5.85717 -1.38634 0
M  V30 1648 H 155.166 2.55945 -1.63481 0
M  V30 1649 H 152.751 1.22248 -0.858817 0
M  V30 1650 H 154.633 4.21018 0.179404 0
M  V30 1651 H 153.308 3.15206 0.736659 0
M  V30 1652 H 152.215 3.39667 -1.56772 0
M  V30 1653 H 153.548 4.47718 -2.04474 0
M  V30 1654 N 155.201 0.870884 1.31352 0
M  V30 1655 C 156.134 0.271983 2.26573 0
M  V30 1656 C 157.112 -0.599385 1.51149 0
M  V30 1657 O 158.296 -0.552605 1.80218 0
M  V30 1658 C 155.423 -0.614801 3.33073 0
M  V30 1659 C 154.469 0.185342 4.26097 0
M  V30 1660 S 155.302 1.56444 5.12138 0
M  V30 1661 C 156.458 0.683807 6.22153 0
M  V30 1662 H 156.691 1.07916 2.77023 0
M  V30 1663 H 154.224 0.669459 1.39132 0
M  V30 1664 H 156.182 -1.12074 3.94905 0
M  V30 1665 H 154.843 -1.39593 2.81376 0
M  V30 1666 H 154.036 -0.490771 5.01605 0
M  V30 1667 H 153.638 0.623415 3.68768 0
M  V30 1668 H 155.93 -0.10521 6.77418 0
M  V30 1669 H 156.873 1.41004 6.93919 0
M  V30 1670 H 157.281 0.250952 5.63942 0
M  V30 1671 N 156.679 -1.44442 0.630414 0
M  V30 1672 C 157.928 -2.01267 0.132073 0
M  V30 1673 C 158.241 -1.50172 -1.25331 0
M  V30 1674 O 159.447 -1.9912 -1.84562 0
M  V30 1675 C 157.903 -3.59422 0.185362 0
M  V30 1676 C 157.511 -4.19514 1.57201 0
M  V30 1677 C 159.255 -4.23724 -0.256553 0
M  V30 1678 C 157.162 -5.69891 1.58045 0
M  V30 1679 H 156.092 -0.752619 0.0456092 0
M  V30 1680 H 158.743 -1.65666 0.789106 0
M  V30 1681 H 157.125 -3.92318 -0.538759 0
M  V30 1682 H 158.299 -3.98156 2.31966 0
M  V30 1683 H 156.614 -3.67496 1.95795 0
M  V30 1684 H 159.211 -5.34019 -0.269767 0
M  V30 1685 H 159.554 -3.96013 -1.28372 0
M  V30 1686 H 160.087 -3.95629 0.41505 0
M  V30 1687 H 156.826 -6.02336 2.58597 0
M  V30 1688 H 156.346 -5.93373 0.875725 0
M  V30 1689 H 158.025 -6.33515 1.31408 0
M  V30 1690 N 158.157 -0.370918 -1.53173 0
M  V30 1691 C 159.087 0.464847 -2.28826 0
M  V30 1692 C 160.068 1.07936 -1.31468 0
M  V30 1693 O 161.253 1.0956 -1.60344 0
M  V30 1694 C 158.383 1.60196 -3.08147 0
M  V30 1695 C 157.337 1.11443 -4.13237 0
M  V30 1696 C 156.663 2.3422 -4.80672 0
M  V30 1697 C 157.963 0.195384 -5.21934 0
M  V30 1698 H 159.657 -0.166329 -2.98938 0
M  V30 1699 H 157.203 -0.0814359 -1.4377 0
M  V30 1700 H 159.156 2.19332 -3.59822 0
M  V30 1701 H 157.88 2.26045 -2.35735 0
M  V30 1702 H 156.539 0.545727 -3.62515 0
M  V30 1703 H 156.187 2.98537 -4.04827 0
M  V30 1704 H 155.887 2.02269 -5.51689 0
M  V30 1705 H 157.411 2.94032 -5.35143 0
M  V30 1706 H 158.825 0.694375 -5.69079 0
M  V30 1707 H 157.222 -0.0335027 -6.00091 0
M  V30 1708 H 158.292 -0.760961 -4.78892 0
M  V30 1709 N 159.635 1.57281 -0.100228 0
M  V30 1710 C 160.582 2.14305 0.856858 0
M  V30 1711 C 161.552 1.06296 1.27634 0
M  V30 1712 O 162.737 1.34109 1.35718 0
M  V30 1713 C 159.877 2.73184 2.10866 0
M  V30 1714 C 158.99 3.95442 1.73925 0
M  V30 1715 C 158.125 4.42468 2.93931 0
M  V30 1716 C 157.164 5.57303 2.5314 0
M  V30 1717 N 156.301 5.99158 3.65997 0
M  V30 1718 H 161.141 2.95772 0.363726 0
M  V30 1719 H 158.678 1.46139 0.167858 0
M  V30 1720 H 160.636 3.05442 2.84185 0
M  V30 1721 H 159.266 1.94437 2.57671 0
M  V30 1722 H 158.318 3.69464 0.905554 0
M  V30 1723 H 159.63 4.78769 1.39935 0
M  V30 1724 H 158.784 4.76537 3.75496 0
M  V30 1725 H 157.523 3.58052 3.31134 0
M  V30 1726 H 156.528 5.22857 1.70003 0
M  V30 1727 H 157.753 6.43471 2.17075 0
M  V30 1728 H 155.699 5.17687 4.02909 0
M  V30 1729 H 155.616 6.77295 3.35869 0
M  V30 1730 H 156.884 6.3786 4.48057 0
M  V30 1731 N 161.113 -0.173488 1.56642 0
M  V30 1732 C 162.529 -0.525174 1.50712 0
M  V30 1733 C 162.729 -1.8476 0.804107 0
M  V30 1734 O 161.785 -2.49869 0.363574 0
M  V30 1735 C 163.098 -0.559937 2.95441 0
M  V30 1736 C 164.646 -0.647288 3.06234 0
M  V30 1737 C 165.121 -0.712963 4.52417 0
M  V30 1738 N 166.612 -0.775911 4.56655 0
M  V30 1739 C 167.347 -0.847264 5.67106 0
M  V30 1740 N 166.843 -0.879585 6.87194 0
M  V30 1741 N 168.636 -0.886117 5.55071 0
M  V30 1742 H 160.787 0.693681 2.00753 0
M  V30 1743 H 163.05 0.249841 0.914485 0
M  V30 1744 H 162.756 0.343049 3.50023 0
M  V30 1745 H 162.63 -1.40718 3.49969 0
M  V30 1746 H 165.017 -1.5407 2.51687 0
M  V30 1747 H 165.098 0.226586 2.54794 0
M  V30 1748 H 164.742 0.176183 5.07594 0
M  V30 1749 H 164.672 -1.60295 5.0161 0
M  V30 1750 H 167.163 -0.759304 3.70193 0
M  V30 1751 H 167.476 -0.935144 7.67121 0
M  V30 1752 H 165.821 -0.847898 6.89808 0
M  V30 1753 H 169.012 -0.857853 4.60172 0
M  V30 1754 H 169.185 -0.938263 6.41171 0
M  V30 1755 N 162.591 -1.51276 -0.441967 0
M  V30 1756 C 163.538 -1.72256 -1.53612 0
M  V30 1757 C 164.508 -0.564164 -1.56225 0
M  V30 1758 O 165.693 -0.798074 -1.73307 0
M  V30 1759 C 162.833 -1.84932 -2.91366 0
M  V30 1760 C 161.946 -3.12459 -2.98317 0
M  V30 1761 C 161.081 -3.15758 -4.27166 0
M  V30 1762 C 160.12 -4.37619 -4.27967 0
M  V30 1763 N 159.257 -4.38493 -5.48333 0
M  V30 1764 H 164.097 -2.65654 -1.35026 0
M  V30 1765 H 161.634 -1.31662 -0.656009 0
M  V30 1766 H 163.592 -1.90263 -3.7129 0
M  V30 1767 H 162.222 -0.949461 -3.08521 0
M  V30 1768 H 161.274 -3.1646 -2.11086 0
M  V30 1769 H 162.586 -4.02382 -2.94771 0
M  V30 1770 H 161.74 -3.19979 -5.15459 0
M  V30 1771 H 160.479 -2.23715 -4.33362 0
M  V30 1772 H 159.484 -4.33579 -3.38067 0
M  V30 1773 H 160.709 -5.30921 -4.23438 0
M  V30 1774 H 158.655 -3.49318 -5.55259 0
M  V30 1775 H 158.572 -5.22219 -5.46647 0
M  V30 1776 H 159.84 -4.469 -6.38671 0
M  V30 1777 N 164.069 0.697108 -1.41344 0
M  V30 1778 C 164.979 1.84088 -1.45427 0
M  V30 1779 C 165.995 1.70545 -0.34501 0
M  V30 1780 O 167.171 1.92488 -0.592492 0
M  V30 1781 C 164.236 3.20056 -1.33286 0
M  V30 1782 C 163.297 3.45718 -2.54514 0
M  V30 1783 C 162.53 4.75199 -2.42944 0
M  V30 1784 O 162.753 5.51579 -1.45318 0
M  V30 1785 O 161.687 5.0161 -3.32672 0
M  V30 1786 H 165.513 1.836 -2.41919 0
M  V30 1787 H 163.098 0.849966 -1.22866 0
M  V30 1788 H 164.98 4.01236 -1.28794 0
M  V30 1789 H 163.655 3.2123 -0.39909 0
M  V30 1790 H 162.562 2.64474 -2.64583 0
M  V30 1791 H 163.895 3.49356 -3.46715 0
M  V30 1792 N 165.547 1.27147 0.931209 0
M  V30 1793 C 166.457 1.11372 2.06478 0
M  V30 1794 C 167.473 0.044645 1.73943 0
M  V30 1795 O 168.649 0.250417 1.99837 0
M  V30 1796 C 165.714 0.758838 3.38294 0
M  V30 1797 C 164.775 1.90841 3.84549 0
M  V30 1798 C 164.008 1.57036 5.10074 0
M  V30 1799 O 164.231 0.476645 5.68405 0
M  V30 1800 O 163.165 2.40839 5.51616 0
M  V30 1801 H 166.991 2.06493 2.22698 0
M  V30 1802 H 164.576 1.06301 1.04978 0
M  V30 1803 H 166.458 0.574098 4.17471 0
M  V30 1804 H 165.133 -0.162879 3.2329 0
M  V30 1805 H 164.04 2.14819 3.06274 0
M  V30 1806 H 165.373 2.81021 4.04089 0
M  V30 1807 N 167.025 -1.13721 1.09112 0
M  V30 1808 C 167.935 -2.22638 0.73957 0
M  V30 1809 C 168.951 -1.72091 -0.257068 0
M  V30 1810 O 170.127 -2.01155 -0.0992154 0
M  V30 1811 C 167.192 -3.46322 0.16191 0
M  V30 1812 C 166.253 -4.11775 1.21408 0
M  V30 1813 C 165.486 -5.29555 0.663891 0
M  V30 1814 O 165.709 -5.68077 -0.514274 0
M  V30 1815 O 164.643 -5.84973 1.41738 0
M  V30 1816 H 168.469 -2.55074 1.64836 0
M  V30 1817 H 166.054 -1.21791 0.865289 0
M  V30 1818 H 167.936 -4.21107 -0.157073 0
M  V30 1819 H 166.611 -3.15593 -0.719932 0
M  V30 1820 H 165.518 -3.3883 1.58571 0
M  V30 1821 H 166.851 -4.46627 2.06845 0
M  V30 1822 N 168.503 -0.877838 -1.30888 0
M  V30 1823 C 169.466 -0.344265 -2.266 0
M  V30 1824 C 170.466 0.50922 -1.52524 0
M  V30 1825 O 171.656 0.317398 -1.71284 0
M  V30 1826 C 168.788 0.510198 -3.37061 0
M  V30 1827 H 169.981 -1.1893 -2.7531 0
M  V30 1828 H 167.534 -0.654088 -1.41956 0
M  V30 1829 H 168.269 1.37612 -2.93655 0
M  V30 1830 H 168.054 -0.101047 -3.9197 0
M  V30 1831 H 169.544 0.875537 -4.08319 0
M  V30 1832 N 169.982 1.44106 -0.638065 0
M  V30 1833 C 170.912 2.33448 0.0494287 0
M  V30 1834 C 171.893 1.48606 0.827672 0
M  V30 1835 O 173.078 1.77308 0.792173 0
M  V30 1836 C 170.208 3.31771 1.02691 0
M  V30 1837 C 169.162 4.26485 0.359823 0
M  V30 1838 C 168.488 5.14729 1.44769 0
M  V30 1839 C 169.788 5.17056 -0.738296 0
M  V30 1840 H 171.482 2.91183 -0.696636 0
M  V30 1841 H 169.028 1.40014 -0.336456 0
M  V30 1842 H 170.981 3.93161 1.51666 0
M  V30 1843 H 169.705 2.7226 1.80395 0
M  V30 1844 H 168.364 3.66437 -0.10934 0
M  V30 1845 H 168.012 4.51566 2.21578 0
M  V30 1846 H 167.712 5.78913 1.00668 0
M  V30 1847 H 169.236 5.78991 1.93911 0
M  V30 1848 H 170.65 5.72342 -0.331354 0
M  V30 1849 H 169.047 5.89879 -1.10286 0
M  V30 1850 H 170.117 4.57652 -1.60258 0
M  V30 1851 N 171.46 0.379036 1.52974 0
M  V30 1852 C 172.407 -0.461048 2.26148 0
M  V30 1853 C 173.377 -1.06637 1.27349 0
M  V30 1854 O 174.562 -1.09633 1.56157 0
M  V30 1855 C 171.702 -1.58782 3.06402 0
M  V30 1856 C 170.815 -1.00636 4.20115 0
M  V30 1857 C 169.95 -2.10334 4.87784 0
M  V30 1858 C 168.989 -1.49724 5.93506 0
M  V30 1859 N 168.126 -2.5331 6.54812 0
M  V30 1860 H 172.966 0.169429 2.97518 0
M  V30 1861 H 170.503 0.0953806 1.4679 0
M  V30 1862 H 172.461 -2.25174 3.51215 0
M  V30 1863 H 171.091 -2.18876 2.37261 0
M  V30 1864 H 170.143 -0.232332 3.7969 0
M  V30 1865 H 171.455 -0.523343 4.96047 0
M  V30 1866 H 170.609 -2.84519 5.35849 0
M  V30 1867 H 169.348 -2.61992 4.11353 0
M  V30 1868 H 168.353 -0.740598 5.44789 0
M  V30 1869 H 169.578 -0.988732 6.71864 0
M  V30 1870 H 167.524 -3.04156 5.81227 0
M  V30 1871 H 167.441 -2.09734 7.26325 0
M  V30 1872 H 168.709 -3.27155 7.07524 0
M  V30 1873 N 172.938 -1.57226 0.108567 0
M  V30 1874 C 174.215 -1.86333 -0.594939 0
M  V30 1875 C 174.595 -1.00788 -1.85486 0
M  V30 1876 O 173.943 -0.0839293 -2.28346 0
M  V30 1877 C 174.153 -3.37265 -0.897405 0
M  V30 1878 C 175.501 -4.05629 -1.25501 0
M  V30 1879 O 176.525 -3.42224 -0.987998 0
M  V30 1880 O 175.384 -5.17531 -1.75567 0
M  V30 1881 H 172.478 -0.771018 -0.2991 0
M  V30 1882 H 175.024 -1.69102 0.142283 0
M  V30 1883 H 173.796 -3.913 -0.00413806 0
M  V30 1884 H 173.419 -3.59889 -1.69014 0
M  V30 1885 N 174.416 0.165178 -1.56732 0
M  V30 1886 C 175.641 0.900253 -1.86843 0
M  V30 1887 C 176.066 1.74766 -0.695596 0
M  V30 1888 O 175.424 1.77786 0.35522 0
M  V30 1889 C 175.472 1.74777 -3.15413 0
M  V30 1890 O 174.576 2.85007 -2.98068 0
M  V30 1891 H 173.917 0.251832 -0.614391 0
M  V30 1892 H 176.447 0.161468 -2.03962 0
M  V30 1893 H 176.457 2.14646 -3.46974 0
M  V30 1894 H 175.132 1.12537 -4.00385 0
M  V30 1895 H 173.709 2.48676 -2.77875 0
M  V30 1896 N 175.894 1.51508 0.433938 0
M  V30 1897 C 176.824 1.76016 1.53429 0
M  V30 1898 C 177.805 0.610112 1.58782 0
M  V30 1899 O 178.99 0.853177 1.74455 0
M  V30 1900 C 176.12 1.88831 2.9148 0
M  V30 1901 C 175.074 3.04288 3.00987 0
M  V30 1902 C 174.4 3.0229 4.4105 0
M  V30 1903 C 175.7 4.44193 2.74754 0
M  V30 1904 H 177.394 2.68152 1.33171 0
M  V30 1905 H 174.94 1.29035 0.639214 0
M  V30 1906 H 176.893 2.04559 3.6842 0
M  V30 1907 H 175.617 0.933455 3.12976 0
M  V30 1908 H 174.276 2.8827 2.26486 0
M  V30 1909 H 173.924 2.04576 4.59519 0
M  V30 1910 H 173.624 3.79822 4.4834 0
M  V30 1911 H 175.148 3.20116 5.1996 0
M  V30 1912 H 176.562 4.60544 3.41426 0
M  V30 1913 H 174.959 5.23457 2.9345 0
M  V30 1914 H 176.029 4.53996 1.70339 0
M  V30 1915 N 177.372 -0.689602 1.41712 0
M  V30 1916 C 178.788 -1.00093 1.24312 0
M  V30 1917 C 178.988 -2.01036 0.136729 0
M  V30 1918 O 178.044 -2.47562 -0.496918 0
M  V30 1919 C 179.357 -1.51985 2.59463 0
M  V30 1920 C 180.905 -1.63838 2.66695 0
M  V30 1921 C 181.38 -2.1913 4.02177 0
M  V30 1922 N 182.871 -2.26483 4.04054 0
M  V30 1923 C 183.606 -2.70306 5.0569 0
M  V30 1924 N 183.102 -3.13691 6.17713 0
M  V30 1925 N 184.895 -2.69923 4.9305 0
M  V30 1926 H 177.046 -0.0210029 2.1239 0
M  V30 1927 H 179.309 -0.0718733 0.945272 0
M  V30 1928 H 179.015 -0.85269 3.41207 0
M  V30 1929 H 178.889 -2.50103 2.82362 0
M  V30 1930 H 181.276 -2.29664 1.85306 0
M  V30 1931 H 181.357 -0.642492 2.476 0
M  V30 1932 H 181.001 -1.53918 4.84016 0
M  V30 1933 H 180.931 -3.19482 4.18615 0
M  V30 1934 H 183.422 -1.95874 3.23174 0
M  V30 1935 H 183.735 -3.45773 6.9113 0
M  V30 1936 H 182.08 -3.11585 6.21241 0
M  V30 1937 H 185.271 -2.35382 4.04614 0
M  V30 1938 H 185.444 -3.03758 5.72394 0
M  V30 1939 N 178.85 -1.27639 -0.924453 0
M  V30 1940 C 180.261 -1.12834 -1.48746 0
M  V30 1941 C 180.612 0.285505 -1.94112 0
M  V30 1942 O 179.737 1.17874 -1.81479 0
M  V30 1943 C 180.332 -2.04217 -2.70334 0
M  V30 1944 C 178.891 -1.93509 -3.22848 0
M  V30 1945 C 178.038 -1.96583 -1.95577 0
M  V30 1946 H 180.989 -1.40484 -0.738233 0
M  V30 1947 H 181.01 -1.59989 -3.4523 0
M  V30 1948 H 180.522 -3.07111 -2.37285 0
M  V30 1949 H 178.623 -0.936131 -3.60649 0
M  V30 1950 H 178.736 -2.79917 -3.88823 0
M  V30 1951 H 177.1 -1.4085 -2.12211 0
M  V30 1952 H 177.883 -3.01137 -1.64837 0
M  V30 1953 N 180.328 1.1314 -1.09713 0
M  V30 1954 C 181.275 2.18642 -0.739196 0
M  V30 1955 C 182.245 1.63706 0.280978 0
M  V30 1956 O 183.43 1.90111 0.161946 0
M  V30 1957 C 180.57 3.44685 -0.169102 0
M  V30 1958 C 179.683 4.13711 -1.24367 0
M  V30 1959 C 178.818 5.27379 -0.636019 0
M  V30 1960 C 177.857 5.88259 -1.69169 0
M  V30 1961 N 176.994 6.93352 -1.10485 0
M  V30 1962 H 181.834 2.48607 -1.64312 0
M  V30 1963 H 179.371 1.22066 -0.820875 0
M  V30 1964 H 181.329 4.16815 0.179256 0
M  V30 1965 H 179.959 3.15161 0.698079 0
M  V30 1966 H 179.011 3.39835 -1.70927 0
M  V30 1967 H 180.323 4.55037 -2.04311 0
M  V30 1968 H 179.477 6.06238 -0.236677 0
M  V30 1969 H 178.216 4.8731 0.194928 0
M  V30 1970 H 177.221 5.08092 -2.10055 0
M  V30 1971 H 178.446 6.30399 -2.52536 0
M  V30 1972 H 176.392 6.55335 -0.295234 0
M  V30 1973 H 176.309 7.33236 -1.84121 0
M  V30 1974 H 177.577 7.76057 -0.73181 0
M  V30 1975 N 181.806 0.884767 1.30421 0
M  V30 1976 C 182.736 0.367574 2.30589 0
M  V30 1977 C 183.717 -0.549464 1.60981 0
M  V30 1978 O 184.902 -0.46336 1.88591 0
M  V30 1979 C 182.032 -0.418944 3.44764 0
M  V30 1980 C 180.986 0.406316 4.26067 0
M  V30 1981 C 180.312 -0.506793 5.32293 0
M  V30 1982 C 181.612 1.64832 4.95608 0
M  V30 1983 H 183.306 1.20462 2.74097 0
M  V30 1984 H 180.852 0.580695 1.31772 0
M  V30 1985 H 182.805 -0.791395 4.13902 0
M  V30 1986 H 181.529 -1.28964 3.0006 0
M  V30 1987 H 180.188 0.760903 3.58617 0
M  V30 1988 H 179.836 -1.37519 4.83836 0
M  V30 1989 H 179.536 0.0415828 5.87585 0
M  V30 1990 H 181.06 -0.875764 6.04287 0
M  V30 1991 H 182.474 1.34646 5.57264 0
M  V30 1992 H 180.871 2.13688 5.60765 0
M  V30 1993 H 181.941 2.39284 4.21748 0
M  V30 1994 N 183.284 -1.43765 0.645699 0
M  V30 1995 C 184.509 -2.06767 0.161883 0
M  V30 1996 C 184.934 -1.48034 -1.16049 0
M  V30 1997 O 184.292 -0.587369 -1.71522 0
M  V30 1998 C 184.34 -3.60519 0.0762003 0
M  V30 1999 O 183.444 -4.00982 -0.963721 0
M  V30 2000 H 182.785 -0.657675 0.091429 0
M  V30 2001 H 185.315 -1.84397 0.886499 0
M  V30 2002 H 185.325 -4.07853 -0.109604 0
M  V30 2003 H 184 -4.02646 1.04157 0
M  V30 2004 H 182.577 -3.65253 -0.751312 0
M  V30 2005 N 184.763 -0.387143 -1.52771 0
M  V30 2006 C 185.673 0.456442 -2.30117 0
M  V30 2007 C 186.689 1.07342 -1.36944 0
M  V30 2008 O 187.865 1.07971 -1.70013 0
M  V30 2009 C 184.93 1.56957 -3.09136 0
M  V30 2010 C 183.991 0.977916 -4.18014 0
M  V30 2011 C 183.224 2.038 -4.93256 0
M  V30 2012 O 183.447 3.25271 -4.68567 0
M  V30 2013 O 182.381 1.6565 -5.78657 0
M  V30 2014 H 186.207 -0.17359 -3.03203 0
M  V30 2015 H 183.792 -0.150919 -1.48636 0
M  V30 2016 H 185.674 2.21628 -3.58412 0
M  V30 2017 H 184.349 2.18461 -2.38865 0
M  V30 2018 H 183.256 0.294525 -3.72939 0
M  V30 2019 H 184.589 0.407128 -4.90513 0
M  V30 2020 N 186.241 1.57166 -0.116904 0
M  V30 2021 C 187.151 2.18745 0.847812 0
M  V30 2022 C 188.167 1.163 1.29423 0
M  V30 2023 O 189.343 1.48761 1.35765 0
M  V30 2024 C 186.408 2.77307 2.0809 0
M  V30 2025 C 185.469 3.94781 1.68661 0
M  V30 2026 C 184.702 4.50541 2.86091 0
M  V30 2027 O 184.925 4.05202 4.01456 0
M  V30 2028 O 183.859 5.41256 2.63298 0
M  V30 2029 H 187.685 3.01632 0.353778 0
M  V30 2030 H 185.27 1.49005 0.108599 0
M  V30 2031 H 187.152 3.14647 2.80313 0
M  V30 2032 H 185.827 1.97452 2.56504 0
M  V30 2033 H 184.734 3.62214 0.935518 0
M  V30 2034 H 186.067 4.76065 1.24991 0
M  V30 2035 N 187.719 -0.156864 1.56817 0
M  V30 2036 C 188.651 -1.21883 1.94106 0
M  V30 2037 C 189.664 -1.3971 0.835754 0
M  V30 2038 O 190.853 -1.39457 1.11418 0
M  V30 2039 C 187.953 -2.58527 2.19127 0
M  V30 2040 C 187.126 -2.61809 3.50393 0
M  V30 2041 C 186.185 -3.7992 3.64071 0
M  V30 2042 O 185.211 -3.65249 4.36557 0
M  V30 2043 N 186.413 -4.96973 2.99997 0
M  V30 2044 H 189.178 -0.901974 2.85805 0
M  V30 2045 H 186.739 -0.346513 1.58148 0
M  V30 2046 H 188.731 -3.36034 2.25529 0
M  V30 2047 H 187.301 -2.82545 1.33742 0
M  V30 2048 H 186.521 -1.7029 3.5552 0
M  V30 2049 H 187.809 -2.61024 4.36742 0
M  V30 2050 H 187.207 -5.11794 2.41004 0
M  V30 2051 H 185.764 -5.7229 3.11974 0
M  V30 2052 N 189.197 -1.51736 -0.425897 0
M  V30 2053 C 190.129 -1.70083 -1.53638 0
M  V30 2054 C 191.142 -0.581349 -1.52066 0
M  V30 2055 O 192.331 -0.856017 -1.56635 0
M  V30 2056 C 189.431 -1.71078 -2.9255 0
M  V30 2057 C 188.604 -2.99795 -3.185 0
M  V30 2058 C 187.663 -2.92825 -4.37196 0
M  V30 2059 O 186.689 -3.66756 -4.35291 0
M  V30 2060 N 187.891 -2.0946 -5.41393 0
M  V30 2061 H 190.656 -2.65882 -1.383 0
M  V30 2062 H 188.217 -1.49765 -0.614988 0
M  V30 2063 H 190.209 -1.63969 -3.69995 0
M  V30 2064 H 188.779 -0.828242 -3.01428 0
M  V30 2065 H 187.999 -3.20684 -2.2925 0
M  V30 2066 H 189.287 -3.84977 -3.32671 0
M  V30 2067 H 188.685 -1.48792 -5.45781 0
M  V30 2068 H 187.242 -2.08221 -6.17647 0
M  V30 2069 N 190.675 0.682077 -1.42076 0
M  V30 2070 C 192.091 0.994324 -1.24841 0
M  V30 2071 C 192.291 2.0096 -0.147389 0
M  V30 2072 O 191.347 2.47822 0.483782 0
M  V30 2073 C 192.66 1.50607 -2.60265 0
M  V30 2074 C 194.208 1.62421 -2.6756 0
M  V30 2075 C 194.683 2.16994 -4.03333 0
M  V30 2076 N 196.174 2.24337 -4.0525 0
M  V30 2077 C 196.909 2.67621 -5.07116 0
M  V30 2078 N 196.405 3.1041 -6.19368 0
M  V30 2079 N 198.198 2.67305 -4.94474 0
M  V30 2080 H 190.349 0.00973908 -2.12398 0
M  V30 2081 H 192.612 0.0668593 -0.945639 0
M  V30 2082 H 192.318 0.834583 -3.41654 0
M  V30 2083 H 192.192 2.48602 -2.83684 0
M  V30 2084 H 194.579 2.28678 -1.86521 0
M  V30 2085 H 194.66 0.629352 -2.47937 0
M  V30 2086 H 194.304 1.51349 -4.84826 0
M  V30 2087 H 194.234 3.17258 -4.20304 0
M  V30 2088 H 196.725 1.94158 -3.24209 0
M  V30 2089 H 197.038 3.42103 -6.92954 0
M  V30 2090 H 195.383 3.08286 -6.22884 0
M  V30 2091 H 198.574 2.33233 -4.05857 0
M  V30 2092 H 198.747 3.00718 -5.73997 0
M  V30 2093 N 192.153 1.28127 0.917671 0
M  V30 2094 C 193.402 1.14432 1.66097 0
M  V30 2095 C 193.715 -0.307247 1.93172 0
M  V30 2096 O 194.921 -0.565259 2.65551 0
M  V30 2097 C 193.377 2.00015 2.99202 0
M  V30 2098 C 192.985 3.49889 2.79789 0
M  V30 2099 C 194.729 1.94996 3.77064 0
M  V30 2100 C 192.636 4.27636 4.08511 0
M  V30 2101 H 191.566 0.424662 0.62304 0
M  V30 2102 H 194.217 1.52628 1.01868 0
M  V30 2103 H 192.599 1.54672 3.64544 0
M  V30 2104 H 193.773 4.03162 2.23152 0
M  V30 2105 H 192.088 3.56392 2.15345 0
M  V30 2106 H 194.685 2.50354 4.72469 0
M  V30 2107 H 195.028 0.925819 4.05875 0
M  V30 2108 H 195.561 2.38287 3.18534 0
M  V30 2109 H 192.3 5.30615 3.84874 0
M  V30 2110 H 191.82 3.79137 4.64774 0
M  V30 2111 H 193.499 4.37346 4.76799 0
M  V30 2112 N 193.631 -1.12557 1.10312 0
M  V30 2113 C 194.88 -1.83395 0.839588 0
M  V30 2114 C 195.193 -1.84939 -0.636929 0
M  V30 2115 O 196.399 -2.51761 -1.01631 0
M  V30 2116 C 194.855 -3.29303 1.45215 0
M  V30 2117 C 194.463 -3.36122 2.96186 0
M  V30 2118 C 196.207 -4.05121 1.26796 0
M  V30 2119 C 194.114 -4.76357 3.50483 0
M  V30 2120 H 193.044 -0.687133 0.310425 0
M  V30 2121 H 195.695 -1.26746 1.32694 0
M  V30 2122 H 194.077 -3.85812 0.892469 0
M  V30 2123 H 195.251 -2.89559 3.58458 0
M  V30 2124 H 193.566 -2.73776 3.13745 0
M  V30 2125 H 196.163 -5.08668 1.64806 0
M  V30 2126 H 196.506 -4.15773 0.209409 0
M  V30 2127 H 197.039 -3.54967 1.79563 0
M  V30 2128 H 193.778 -4.70899 4.55998 0
M  V30 2129 H 193.298 -5.23377 2.92978 0
M  V30 2130 H 194.977 -5.45294 3.48228 0
M  V30 2131 N 195.109 -0.891671 -1.2995 0
M  V30 2132 C 196.072 -0.36828 -2.26222 0
M  V30 2133 C 197.072 0.493014 -1.53056 0
M  V30 2134 O 198.262 0.299213 -1.71611 0
M  V30 2135 C 195.394 0.47442 -3.37583 0
M  V30 2136 H 196.587 -1.21844 -2.74033 0
M  V30 2137 H 194.14 -0.669107 -1.41254 0
M  V30 2138 H 194.875 1.34489 -2.95099 0
M  V30 2139 H 194.66 -0.142615 -3.91841 0
M  V30 2140 H 196.15 0.83218 -4.09224 0
M  V30 2141 N 196.587 1.43421 -0.653314 0
M  V30 2142 C 197.836 2.01032 -0.164076 0
M  V30 2143 C 198.149 1.52147 1.22926 0
M  V30 2144 O 199.355 2.02031 1.81371 0
M  V30 2145 C 197.811 3.59082 -0.24252 0
M  V30 2146 C 197.419 4.1696 -1.63855 0
M  V30 2147 C 199.163 4.24079 0.18911 0
M  V30 2148 C 197.07 5.67304 -1.67092 0
M  V30 2149 H 196 0.751798 -0.0575769 0
M  V30 2150 H 198.651 1.6439 -0.815362 0
M  V30 2151 H 197.033 3.93125 0.476276 0
M  V30 2152 H 198.207 3.94416 -2.38271 0
M  V30 2153 H 196.522 3.64335 -2.01616 0
M  V30 2154 H 199.119 5.34381 0.184775 0
M  V30 2155 H 199.462 3.98005 1.22056 0
M  V30 2156 H 199.995 3.94918 -0.477938 0
M  V30 2157 H 196.734 5.98145 -2.68146 0
M  V30 2158 H 196.254 5.91904 -0.970014 0
M  V30 2159 H 197.933 6.31344 -1.4147 0
M  V30 2160 N 198.065 0.39524 1.52563 0
M  V30 2161 C 198.995 -0.428384 2.29537 0
M  V30 2162 C 199.976 -1.05831 1.33169 0
M  V30 2163 O 201.161 -1.06995 1.62067 0
M  V30 2164 C 198.291 -1.55274 3.10656 0
M  V30 2165 C 197.245 -1.04855 4.14957 0
M  V30 2166 C 196.571 -2.26543 4.84337 0
M  V30 2167 C 197.871 -0.112324 5.22179 0
M  V30 2168 H 199.565 0.213867 2.98635 0
M  V30 2169 H 197.111 0.104298 1.43622 0
M  V30 2170 H 199.064 -2.1358 3.63265 0
M  V30 2171 H 197.788 -2.22266 2.39302 0
M  V30 2172 H 196.447 -0.487985 3.63338 0
M  V30 2173 H 196.095 -2.92059 4.09525 0
M  V30 2174 H 195.795 -1.93466 5.54837 0
M  V30 2175 H 197.319 -2.85481 5.39753 0
M  V30 2176 H 198.733 -0.603752 5.70112 0
M  V30 2177 H 197.13 0.128968 5.99961 0
M  V30 2178 H 198.2 0.837052 4.77621 0
M  V30 2179 N 199.544 -1.57102 0.125237 0
M  V30 2180 C 200.474 -2.18659 -0.819174 0
M  V30 2181 C 201.455 -1.12843 -1.27281 0
M  V30 2182 O 202.64 -1.41104 -1.33429 0
M  V30 2183 C 199.77 -2.79096 -2.06695 0
M  V30 2184 C 198.724 -3.90548 -1.75088 0
M  V30 2185 C 198.05 -4.37821 -3.06948 0
M  V30 2186 C 199.35 -5.12356 -1.01435 0
M  V30 2187 H 201.044 -2.9783 -0.306202 0
M  V30 2188 H 198.59 -1.4326 -0.145839 0
M  V30 2189 H 200.543 -3.2082 -2.73226 0
M  V30 2190 H 199.267 -1.97223 -2.60328 0
M  V30 2191 H 197.926 -3.49409 -1.10944 0
M  V30 2192 H 197.574 -3.52799 -3.58527 0
M  V30 2193 H 197.274 -5.12982 -2.86571 0
M  V30 2194 H 198.798 -4.822 -3.74587 0
M  V30 2195 H 200.212 -5.5106 -1.58132 0
M  V30 2196 H 198.609 -5.9314 -0.911319 0
M  V30 2197 H 199.679 -4.849 -0.00218681 0
M  V30 2198 N 201.022 0.148545 -1.56898 0
M  V30 2199 C 202.299 0.890019 -1.74178 0
M  V30 2200 C 202.679 1.99407 -0.692839 0
M  V30 2201 O 202.027 2.26671 0.288505 0
M  V30 2202 C 202.237 1.43389 -3.18183 0
M  V30 2203 C 203.585 1.89791 -3.79822 0
M  V30 2204 O 204.609 1.53134 -3.21603 0
M  V30 2205 O 203.468 2.57387 -4.82093 0
M  V30 2206 H 200.562 0.420496 -0.712118 0
M  V30 2207 H 203.108 0.134591 -1.69165 0
M  V30 2208 H 201.88 0.640383 -3.86024 0
M  V30 2209 H 201.503 2.25287 -3.27615 0
M  V30 2210 N 202.5 1.5196 0.417844 0
M  V30 2211 C 203.463 1.74065 1.49111 0
M  V30 2212 C 204.463 0.610537 1.48758 0
M  V30 2213 O 205.653 0.87832 1.50437 0
M  V30 2214 C 202.785 1.81502 2.88565 0
M  V30 2215 H 203.978 2.69869 1.30807 0
M  V30 2216 H 201.531 1.42244 0.647785 0
M  V30 2217 H 202.266 0.875813 3.1225 0
M  V30 2218 H 202.051 2.63651 2.90225 0
M  V30 2219 H 203.541 2.00376 3.66387 0
M  V30 2220 N 203.978 -0.674533 1.42435 0
M  V30 2221 C 204.928 -1.7807 1.4239 0
M  V30 2222 C 205.912 -1.58169 0.295202 0
M  V30 2223 O 207.104 -1.68643 0.537449 0
M  V30 2224 C 204.233 -3.16532 1.32901 0
M  V30 2225 C 203.319 -3.42055 2.50717 0
M  V30 2226 N 203.71 -3.38162 3.76139 0
M  V30 2227 C 202.008 -3.72692 2.44983 0
M  V30 2228 C 202.709 -3.63177 4.54398 0
M  V30 2229 N 201.685 -3.83954 3.84812 0
M  V30 2230 H 205.487 -1.73454 2.37257 0
M  V30 2231 H 203.001 -0.875381 1.36788 0
M  V30 2232 H 204.998 -3.958 1.30951 0
M  V30 2233 H 203.658 -3.22345 0.390363 0
M  V30 2234 H 204.669 -3.18057 4.0873 0
M  V30 2235 H 201.346 -3.85749 1.59699 0
M  V30 2236 H 202.736 -3.66125 5.63384 0
M  V30 2237 N 205.456 -1.28612 -0.910864 0
M  V30 2238 C 206.406 -1.09423 -2.00026 0
M  V30 2239 C 207.39 -0.0170079 -1.60891 0
M  V30 2240 O 208.582 -0.237472 -1.754 0
M  V30 2241 C 205.711 -0.76114 -3.34756 0
M  V30 2242 C 204.797 -1.87735 -3.80285 0
M  V30 2243 N 205.188 -3.11938 -3.98156 0
M  V30 2244 C 203.486 -1.76786 -4.09467 0
M  V30 2245 C 204.187 -3.84687 -4.36338 0
M  V30 2246 N 203.163 -3.12555 -4.44759 0
M  V30 2247 H 206.965 -2.03658 -2.11898 0
M  V30 2248 H 204.479 -1.19573 -1.09891 0
M  V30 2249 H 206.476 -0.604743 -4.12491 0
M  V30 2250 H 205.136 0.173403 -3.24237 0
M  V30 2251 H 206.147 -3.47516 -3.83996 0
M  V30 2252 H 202.824 -0.905284 -4.07567 0
M  V30 2253 H 204.214 -4.91518 -4.58104 0
M  V30 2254 N 206.934 1.1197 -1.10907 0
M  V30 2255 C 207.881 2.17846 -0.762345 0
M  V30 2256 C 208.851 1.63995 0.263599 0
M  V30 2257 O 210.036 1.90273 0.141773 0
M  V30 2258 C 207.176 3.44487 -0.205651 0
M  V30 2259 C 206.289 4.12369 -1.28748 0
M  V30 2260 C 205.424 5.26674 -0.691919 0
M  V30 2261 C 204.463 5.86431 -1.75399 0
M  V30 2262 N 203.6 6.92142 -1.17833 0
M  V30 2263 H 208.44 2.46851 -1.6694 0
M  V30 2264 H 205.977 1.21188 -0.833776 0
M  V30 2265 H 207.935 4.16981 0.135037 0
M  V30 2266 H 206.565 3.15884 0.664613 0
M  V30 2267 H 205.617 3.38003 -1.74522 0
M  V30 2268 H 206.929 4.52844 -2.09125 0
M  V30 2269 H 206.083 6.05953 -0.300963 0
M  V30 2270 H 204.822 4.8749 0.143232 0
M  V30 2271 H 203.827 5.05835 -2.15432 0
M  V30 2272 H 205.052 6.27685 -2.59208 0
M  V30 2273 H 202.998 6.54985 -0.364725 0
M  V30 2274 H 202.915 7.31242 -1.91887 0
M  V30 2275 H 204.183 7.75237 -0.81408 0
M  V30 2276 N 208.412 0.89855 1.29475 0
M  V30 2277 C 209.64 0.539261 1.99749 0
M  V30 2278 C 210.055 -0.875716 1.67262 0
M  V30 2279 O 209.412 -1.57786 0.917049 0
M  V30 2280 C 209.463 0.72061 3.54245 0
M  V30 2281 O 209.184 2.07989 3.8558 0
M  V30 2282 C 210.685 0.366118 4.41786 0
M  V30 2283 H 207.905 0.207047 0.638258 0
M  V30 2284 H 210.449 1.20758 1.65039 0
M  V30 2285 H 208.604 0.0994862 3.87272 0
M  V30 2286 H 209.018 2.10841 4.80257 0
M  V30 2287 H 210.492 0.543848 5.49314 0
M  V30 2288 H 210.969 -0.696763 4.33638 0
M  V30 2289 H 211.575 0.964135 4.14228 0
M  V30 2290 N 209.89 -1.43072 0.660911 0
M  V30 2291 C 211.12 -2.05769 0.185153 0
M  V30 2292 C 211.528 -1.49668 -1.15742 0
M  V30 2293 O 210.871 -0.625649 -1.72717 0
M  V30 2294 C 210.933 -3.59489 0.0278237 0
M  V30 2295 C 210.597 -4.38212 1.2969 0
M  V30 2296 C 211.594 -4.69772 2.22734 0
M  V30 2297 C 209.279 -4.7809 1.54063 0
M  V30 2298 C 211.273 -5.40129 3.38437 0
M  V30 2299 C 208.96 -5.4819 2.70058 0
M  V30 2300 C 209.958 -5.79132 3.62071 0
M  V30 2301 O 209.646 -6.47798 4.76039 0
M  V30 2302 H 209.378 -0.669873 0.0908086 0
M  V30 2303 H 211.932 -1.84436 0.90402 0
M  V30 2304 H 210.162 -3.79426 -0.746489 0
M  V30 2305 H 211.851 -4.03862 -0.406275 0
M  V30 2306 H 212.617 -4.39476 2.05149 0
M  V30 2307 H 208.496 -4.53408 0.833215 0
M  V30 2308 H 212.04 -5.64198 4.10277 0
M  V30 2309 H 207.937 -5.77902 2.87574 0
M  V30 2310 H 208.705 -6.66283 4.75404 0
M  V30 2311 N 211.368 -0.403325 -1.52352 0
M  V30 2312 C 212.645 0.232611 -1.94212 0
M  V30 2313 C 213.025 1.63133 -1.33981 0
M  V30 2314 O 212.373 2.22659 -0.513344 0
M  V30 2315 C 212.583 0.244811 -3.4814 0
M  V30 2316 C 213.931 0.46698 -4.22024 0
M  V30 2317 O 214.955 0.324419 -3.5472 0
M  V30 2318 O 213.814 0.74747 -5.41364 0
M  V30 2319 H 210.908 0.148223 -0.813609 0
M  V30 2320 H 213.454 -0.458848 -1.63379 0
M  V30 2321 H 212.226 -0.734378 -3.84347 0
M  V30 2322 H 211.849 0.980611 -3.85318 0
M  V30 2323 N 212.846 1.57033 -0.133567 0
M  V30 2324 C 214.257 1.82593 0.389464 0
M  V30 2325 C 214.608 1.05156 1.6564 0
M  V30 2326 O 213.733 0.292644 2.14412 0
M  V30 2327 C 214.328 3.31204 0.713377 0
M  V30 2328 C 212.887 3.57393 1.18098 0
M  V30 2329 C 212.034 2.76598 0.197126 0
M  V30 2330 H 214.985 1.54598 -0.358481 0
M  V30 2331 H 215.006 3.46627 1.56939 0
M  V30 2332 H 214.518 3.87537 -0.2089 0
M  V30 2333 H 212.619 3.06433 2.11966 0
M  V30 2334 H 212.732 4.65915 1.11624 0
M  V30 2335 H 211.096 2.45257 0.687088 0
M  V30 2336 H 211.879 3.35697 -0.718504 0
M  V30 2337 N 214.325 -0.140222 1.56975 0
M  V30 2338 C 215.553 -0.866437 1.87884 0
M  V30 2339 C 215.968 -1.74428 0.722517 0
M  V30 2340 O 215.325 -1.79891 -0.30749 0
M  V30 2341 C 215.376 -1.71753 3.18093 0
M  V30 2342 O 215.097 -0.875056 4.29272 0
M  V30 2343 C 216.598 -2.55074 3.62563 0
M  V30 2344 H 213.818 -0.25019 0.622612 0
M  V30 2345 H 216.362 -0.130977 2.0408 0
M  V30 2346 H 214.517 -2.40598 3.03631 0
M  V30 2347 H 214.931 -1.46002 5.03769 0
M  V30 2348 H 216.405 -3.10356 4.5649 0
M  V30 2349 H 216.882 -3.31434 2.88181 0
M  V30 2350 H 217.488 -1.91509 3.79743 0
M  V30 2351 N 215.803 -1.52179 -0.40978 0
M  V30 2352 C 217.033 -1.69807 -1.17682 0
M  V30 2353 C 217.441 -0.406908 -1.84773 0
M  V30 2354 O 216.784 0.626863 -1.72673 0
M  V30 2355 C 216.846 -2.77712 -2.2829 0
M  V30 2356 C 216.51 -4.19481 -1.81341 0
M  V30 2357 C 217.507 -5.03345 -1.30154 0
M  V30 2358 C 215.192 -4.65713 -1.88194 0
M  V30 2359 C 217.186 -6.31511 -0.864416 0
M  V30 2360 C 214.873 -5.93869 -1.44093 0
M  V30 2361 C 215.871 -6.76597 -0.933023 0
M  V30 2362 O 215.559 -8.02354 -0.49838 0
M  V30 2363 H 215.291 -0.572372 -0.359675 0
M  V30 2364 H 217.845 -1.99511 -0.488311 0
M  V30 2365 H 216.075 -2.43383 -3.00502 0
M  V30 2366 H 217.764 -2.83946 -2.90051 0
M  V30 2367 H 218.53 -4.68819 -1.24232 0
M  V30 2368 H 214.409 -4.01424 -2.26671 0
M  V30 2369 H 217.953 -6.96033 -0.467286 0
M  V30 2370 H 213.85 -6.27903 -1.49694 0
M  V30 2371 H 214.618 -8.16135 -0.621747 0
M  V30 2372 N 217.281 0.66697 -1.42791 0
M  V30 2373 C 218.506 1.46004 -1.47301 0
M  V30 2374 C 218.931 1.87894 -0.0880317 0
M  V30 2375 O 218.289 1.56502 0.915253 0
M  V30 2376 C 218.337 2.68031 -2.41229 0
M  V30 2377 O 217.441 3.6659 -1.88906 0
M  V30 2378 H 216.782 0.43832 -0.49877 0
M  V30 2379 H 219.312 0.817391 -1.87563 0
M  V30 2380 H 219.322 3.1601 -2.58073 0
M  V30 2381 H 217.997 2.36883 -3.41847 0
M  V30 2382 H 216.574 3.25661 -1.81656 0
M  V30 2383 N 218.759 1.29093 0.90403 0
M  V30 2384 C 220.036 1.075 1.63411 0
M  V30 2385 C 220.416 -0.382346 2.07609 0
M  V30 2386 O 219.764 -1.37031 1.82851 0
M  V30 2387 C 219.974 2.05858 2.81822 0
M  V30 2388 C 221.322 2.36539 3.52611 0
M  V30 2389 O 222.346 2.04019 2.91984 0
M  V30 2390 O 221.205 2.92085 4.61897 0
M  V30 2391 H 218.299 0.411547 0.717327 0
M  V30 2392 H 220.845 1.40449 0.952479 0
M  V30 2393 H 219.617 3.04037 2.46327 0
M  V30 2394 H 219.24 1.73613 3.57693 0
M  V30 2395 N 220.237 -1.11381 1.11499 0
M  V30 2396 C 221.484 -1.83132 0.864231 0
M  V30 2397 C 221.812 -1.84683 -0.610114 0
M  V30 2398 O 221.067 -1.29589 -1.46646 0
M  V30 2399 C 221.366 -3.30026 1.37177 0
M  V30 2400 C 221.032 -3.48634 2.85946 0
M  V30 2401 C 219.694 -3.53421 3.26569 0
M  V30 2402 C 222.046 -3.54837 3.81759 0
M  V30 2403 C 219.374 -3.61967 4.61733 0
M  V30 2404 C 221.726 -3.64915 5.1674 0
M  V30 2405 C 220.39 -3.67962 5.5692 0
M  V30 2406 H 219.66 -0.670127 0.316245 0
M  V30 2407 H 222.307 -1.31354 1.3935 0
M  V30 2408 H 220.612 -3.84304 0.762753 0
M  V30 2409 H 222.309 -3.84034 1.15408 0
M  V30 2410 H 218.899 -3.45579 2.53521 0
M  V30 2411 H 223.083 -3.50399 3.51474 0
M  V30 2412 H 218.339 -3.62603 4.92269 0
M  V30 2413 H 222.513 -3.68658 5.90816 0
M  V30 2414 H 220.14 -3.74336 6.61647 0
M  V30 2415 N 221.715 -0.905404 -1.28997 0
M  V30 2416 C 222.955 -0.541232 -1.97104 0
M  V30 2417 C 223.319 0.896841 -1.69767 0
M  V30 2418 O 224.52 1.36817 -2.31375 0
M  V30 2419 C 222.791 -0.832134 -3.47578 0
M  V30 2420 S 224.35 -0.573127 -4.35041 0
M  V30 2421 H 221.168 -0.200576 -0.682122 0
M  V30 2422 H 223.77 -1.16906 -1.56694 0
M  V30 2423 H 222.474 -1.87687 -3.64968 0
M  V30 2424 H 222.005 -0.192636 -3.92928 0
M  V30 2425 H 224.02 0.579297 -4.92807 0
M  V30 2426 N 223.193 1.4272 -0.668489 0
M  V30 2427 C 224.125 2.2914 0.052613 0
M  V30 2428 C 225.138 1.43339 0.771857 0
M  V30 2429 O 226.327 1.67123 0.627067 0
M  V30 2430 C 223.427 3.20618 1.09804 0
M  V30 2431 C 222.6 4.35039 0.45389 0
M  V30 2432 C 221.659 5.07282 1.39825 0
M  V30 2433 O 220.685 5.62024 0.900978 0
M  V30 2434 N 221.887 5.12206 2.73176 0
M  V30 2435 H 224.652 2.91668 -0.689209 0
M  V30 2436 H 222.213 1.53577 -0.512422 0
M  V30 2437 H 224.205 3.65815 1.73094 0
M  V30 2438 H 222.775 2.59585 1.74167 0
M  V30 2439 H 221.995 3.92567 -0.358396 0
M  V30 2440 H 223.283 5.088 0.00486972 0
M  V30 2441 H 222.681 4.6913 3.16122 0
M  V30 2442 H 221.238 5.61069 3.31729 0
M  V30 2443 N 224.671 0.411399 1.52136 0
M  V30 2444 C 225.918 -0.163645 2.01838 0
M  V30 2445 C 226.246 -1.4495 1.29691 0
M  V30 2446 O 225.501 -1.91725 0.392431 0
M  V30 2447 C 225.8 -0.455872 3.54481 0
M  V30 2448 C 225.466 0.741055 4.44769 0
M  V30 2449 C 224.128 1.06936 4.69167 0
M  V30 2450 C 226.48 1.54075 4.97906 0
M  V30 2451 C 223.808 2.19851 5.43951 0
M  V30 2452 C 226.16 2.66067 5.73926 0
M  V30 2453 C 224.824 2.99381 5.96596 0
M  V30 2454 H 224.094 -0.0598821 0.738576 0
M  V30 2455 H 226.741 0.553283 1.83333 0
M  V30 2456 H 225.046 -1.2544 3.71177 0
M  V30 2457 H 226.743 -0.913802 3.90449 0
M  V30 2458 H 223.333 0.475192 4.25958 0
M  V30 2459 H 227.517 1.30033 4.78963 0
M  V30 2460 H 222.773 2.46006 5.59724 0
M  V30 2461 H 226.947 3.28419 6.14096 0
M  V30 2462 H 224.574 3.86992 6.54325 0
M  V30 2463 N 226.149 -1.5696 0.141893 0
M  V30 2464 C 227.565 -1.58151 -0.21456 0
M  V30 2465 C 227.765 -1.1559 -1.65049 0
M  V30 2466 O 226.821 -0.853832 -2.37626 0
M  V30 2467 C 228.134 -3.00674 0.0395576 0
M  V30 2468 C 229.682 -3.1299 -0.0245529 0
M  V30 2469 C 230.157 -4.57554 0.202167 0
M  V30 2470 N 231.648 -4.62961 0.148919 0
M  V30 2471 C 232.383 -5.7262 0.298924 0
M  V30 2472 N 231.879 -6.90947 0.50637 0
M  V30 2473 N 233.672 -5.61601 0.236886 0
M  V30 2474 H 225.823 -1.8292 1.07953 0
M  V30 2475 H 228.086 -0.846425 0.42693 0
M  V30 2476 H 227.792 -3.36183 1.03315 0
M  V30 2477 H 227.666 -3.70981 -0.682143 0
M  V30 2478 H 230.053 -2.77326 -1.00869 0
M  V30 2479 H 230.134 -2.4518 0.729396 0
M  V30 2480 H 229.778 -4.93922 1.18338 0
M  V30 2481 H 229.708 -5.23484 -0.572044 0
M  V30 2482 H 232.199 -3.77899 -0.00697015 0
M  V30 2483 H 232.512 -7.7038 0.611076 0
M  V30 2484 H 230.857 -6.92878 0.542628 0
M  V30 2485 H 234.048 -4.68039 0.0756209 0
M  V30 2486 H 234.221 -6.47015 0.357227 0
M  V30 2487 N 227.627 0.131896 -1.57047 0
M  V30 2488 C 229.038 0.690407 -1.73465 0
M  V30 2489 C 229.389 1.8094 -0.758629 0
M  V30 2490 O 228.514 2.16282 0.0713813 0
M  V30 2491 C 229.109 1.25916 -3.14532 0
M  V30 2492 C 227.668 1.76409 -3.32501 0
M  V30 2493 C 226.815 0.658579 -2.69366 0
M  V30 2494 H 229.766 -0.0939144 -1.58422 0
M  V30 2495 H 229.787 2.12892 -3.15369 0
M  V30 2496 H 229.299 0.444515 -3.85546 0
M  V30 2497 H 227.4 2.60391 -2.66509 0
M  V30 2498 H 227.513 1.88241 -4.4057 0
M  V30 2499 H 225.877 1.08899 -2.30246 0
M  V30 2500 H 226.66 -0.14487 -3.42994 0
M  V30 2501 N 229.106 1.52395 0.401703 0
M  V30 2502 C 230.517 1.58899 0.980202 0
M  V30 2503 C 230.868 0.434032 1.91339 0
M  V30 2504 O 229.993 -0.444619 2.11783 0
M  V30 2505 C 230.588 2.87994 1.78451 0
M  V30 2506 C 229.147 2.96953 2.31292 0
M  V30 2507 C 228.294 2.53903 1.11483 0
M  V30 2508 H 231.245 1.57657 0.18168 0
M  V30 2509 H 231.266 2.73765 2.64259 0
M  V30 2510 H 230.778 3.72035 1.10506 0
M  V30 2511 H 228.879 2.17422 3.02586 0
M  V30 2512 H 228.992 4.01344 2.61649 0
M  V30 2513 H 227.356 2.07925 1.47104 0
M  V30 2514 H 228.139 3.40326 0.450928 0
M  V30 2515 N 230.584 -0.659388 1.43143 0
M  V30 2516 C 231.83 -1.42145 1.44647 0
M  V30 2517 C 232.163 -1.9408 0.0681907 0
M  V30 2518 O 231.438 -1.71899 -0.910007 0
M  V30 2519 C 231.721 -2.60735 2.48373 0
M  V30 2520 C 231.574 -2.14332 3.95451 0
M  V30 2521 C 232.893 -3.62951 2.48906 0
M  V30 2522 H 230.012 -0.51552 0.526696 0
M  V30 2523 H 232.654 -0.748069 1.74654 0
M  V30 2524 H 230.804 -3.18184 2.22916 0
M  V30 2525 H 232.476 -1.61932 4.31944 0
M  V30 2526 H 230.719 -1.4576 4.08578 0
M  V30 2527 H 231.39 -2.99583 4.63631 0
M  V30 2528 H 233.866 -3.1525 2.71582 0
M  V30 2529 H 232.742 -4.43487 3.23435 0
M  V30 2530 H 233.003 -4.15126 1.52061 0
M  V30 2531 N 232.062 -1.29571 -0.897171 0
M  V30 2532 C 233.478 -1.07637 -1.17841 0
M  V30 2533 C 233.678 0.170713 -2.00776 0
M  V30 2534 O 232.734 0.867768 -2.3712 0
M  V30 2535 C 234.047 -2.3332 -1.8969 0
M  V30 2536 C 235.595 -2.38664 -2.02505 0
M  V30 2537 C 236.07 -3.64157 -2.77765 0
M  V30 2538 N 237.561 -3.64894 -2.85318 0
M  V30 2539 C 238.296 -4.58679 -3.44094 0
M  V30 2540 N 237.792 -5.62799 -4.04017 0
M  V30 2541 N 239.585 -4.46245 -3.41793 0
M  V30 2542 H 231.736 -2.09598 -0.343883 0
M  V30 2543 H 233.999 -0.923333 -0.214848 0
M  V30 2544 H 233.705 -3.24262 -1.36187 0
M  V30 2545 H 233.579 -2.41025 -2.9015 0
M  V30 2546 H 235.966 -1.48208 -2.55183 0
M  V30 2547 H 236.047 -2.34943 -1.01171 0
M  V30 2548 H 235.691 -4.54965 -2.25763 0
M  V30 2549 H 235.621 -3.65137 -3.7945 0
M  V30 2550 H 238.112 -2.89613 -2.42761 0
M  V30 2551 H 238.425 -6.3048 -4.46895 0
M  V30 2552 H 236.77 -5.66605 -4.02472 0
M  V30 2553 H 239.961 -3.64094 -2.94199 0
M  V30 2554 H 240.134 -5.19518 -3.87304 0
M  V30 2555 N 233.54 1.10788 -1.12088 0
M  V30 2556 C 234.786 1.82942 -0.875226 0
M  V30 2557 C 235.119 1.84779 0.597538 0
M  V30 2558 O 234.394 1.30578 1.44152 0
M  V30 2559 C 234.677 3.29789 -1.44606 0
M  V30 2560 C 234.53 3.36307 -2.98693 0
M  V30 2561 C 235.849 4.26064 -1.10261 0
M  V30 2562 H 232.968 0.664195 -0.319397 0
M  V30 2563 H 235.61 1.29867 -1.38689 0
M  V30 2564 H 233.76 3.75118 -1.01089 0
M  V30 2565 H 235.432 2.99487 -3.50864 0
M  V30 2566 H 233.675 2.76318 -3.34411 0
M  V30 2567 H 234.346 4.39694 -3.33726 0
M  V30 2568 H 236.822 3.88951 -1.4784 0
M  V30 2569 H 235.698 5.27183 -1.52869 0
M  V30 2570 H 235.959 4.42098 -0.0142953 0
M  V30 2571 N 235.018 0.912232 1.28515 0
M  V30 2572 C 235.966 0.389597 2.29314 0
M  V30 2573 C 236.96 -0.517915 1.61289 0
M  V30 2574 O 238.166 -0.399328 1.75515 0
M  V30 2575 H 234.541 0.107386 0.744293 0
M  V30 2576 H 236.512 1.25286 2.70825 0
M  V30 2577 C 235.261 -0.356496 3.45868 0
M  V30 2578 H 234.584 0.332608 3.98414 0
M  V30 2579 H 236.024 -0.686851 4.184 0
M  V30 2580 C 234.483 -1.56383 2.98406 0
M  V30 2581 O 235.013 -2.66294 3.00749 0
M  V30 2582 N 233.219 -1.41029 2.54085 0
M  V30 2583 H 232.766 -0.516089 2.52377 0
M  V30 2584 H 232.724 -2.21939 2.22689 0
M  V30 2585 N 236.496 -1.42363 0.676048 0
M  V30 2586 C 237.773 -1.95183 0.127726 0
M  V30 2587 C 238.153 -1.61641 -1.35777 0
M  V30 2588 O 237.501 -0.913216 -2.09458 0
M  V30 2589 C 237.711 -3.46721 0.398199 0
M  V30 2590 C 239.059 -4.23427 0.315383 0
M  V30 2591 O 240.083 -3.54649 0.332016 0
M  V30 2592 O 238.942 -5.45888 0.25865 0
M  V30 2593 H 236.036 -0.826992 0.00359427 0
M  V30 2594 H 238.582 -1.52184 0.750864 0
M  V30 2595 H 237.354 -3.64344 1.4272 0
M  V30 2596 H 236.977 -3.96769 -0.256885 0
M  V30 2597 N 237.974 -0.419461 -1.51915 0
M  V30 2598 C 239.222 0.152637 -2.01523 0
M  V30 2599 C 239.543 1.44762 -1.30649 0
M  V30 2600 O 238.813 1.90997 -0.435535 0
M  V30 2601 H 237.393 0.0593966 -0.744635 0
M  V30 2602 H 240.055 -0.558073 -1.86739 0
M  V30 2603 H 239.151 0.341369 -3.10227 0
M  V30 2604 N 239.452 1.56882 -0.150215 0
M  V30 2605 C 240.7 1.9584 0.499105 0
M  V30 2606 C 241.021 1.03623 1.65188 0
M  V30 2607 O 240.291 0.0984084 1.95653 0
M  V30 2608 H 238.871 0.723119 0.187373 0
M  V30 2609 H 241.533 1.9358 -0.226466 0
M  V30 2610 H 240.629 2.99638 0.873122 0
M  V30 2611 N 240.93 -0.123565 1.57115 0
M  V30 2612 C 242.178 -0.83051 1.84247 0
M  V30 2613 C 242.499 -1.80629 0.73471 0
M  V30 2614 O 241.769 -1.94403 -0.241688 0
M  V30 2615 H 240.349 -0.309694 0.679778 0
M  V30 2616 H 243.011 -0.111976 1.94578 0
M  V30 2617 H 242.107 -1.37852 2.80006 0
M  V30 2618 N 242.408 -1.52605 -0.393616 0
M  V30 2619 C 243.633 -1.71592 -1.16495 0
M  V30 2620 C 244.058 -0.43133 -1.83088 0
M  V30 2621 O 243.416 0.612523 -1.7064 0
M  V30 2622 C 243.464 -2.86318 -2.19213 0
M  V30 2623 O 242.568 -2.52969 -3.257 0
M  V30 2624 H 241.909 -0.570734 -0.33935 0
M  V30 2625 H 244.439 -1.99377 -0.459324 0
M  V30 2626 H 244.449 -3.1168 -2.63286 0
M  V30 2627 H 243.124 -3.79511 -1.7013 0
M  V30 2628 H 241.701 -2.38332 -2.86797 0
M  V30 2629 N 243.887 0.651787 -1.4349 0
M  V30 2630 C 244.837 1.75783 -1.45205 0
M  V30 2631 C 245.821 1.57679 -0.320328 0
M  V30 2632 O 247.013 1.67767 -0.564211 0
M  V30 2633 C 244.142 3.14377 -1.3792 0
M  V30 2634 C 243.228 3.38023 -2.56127 0
M  V30 2635 N 243.619 3.32135 -3.81471 0
M  V30 2636 C 241.917 3.68747 -2.50882 0
M  V30 2637 C 242.618 3.55902 -4.60118 0
M  V30 2638 N 241.594 3.77783 -3.90872 0
M  V30 2639 H 245.396 1.69657 -2.39987 0
M  V30 2640 H 242.91 0.853508 -1.38163 0
M  V30 2641 H 244.907 3.93666 -1.37231 0
M  V30 2642 H 243.567 3.21683 -0.441596 0
M  V30 2643 H 244.578 3.11515 -4.13738 0
M  V30 2644 H 241.255 3.8316 -1.65816 0
M  V30 2645 H 242.645 3.57116 -5.69138 0
M  V30 2646 N 245.365 1.30045 0.890287 0
M  V30 2647 C 246.776 1.16738 1.45702 0
M  V30 2648 C 247.127 -0.233939 1.948 0
M  V30 2649 O 246.252 -1.13021 1.84541 0
M  V30 2650 C 246.847 2.11313 2.64825 0
M  V30 2651 C 245.406 2.02001 3.17604 0
M  V30 2652 C 244.553 2.01699 1.90296 0
M  V30 2653 H 247.504 1.42392 0.700726 0
M  V30 2654 H 247.525 1.69086 3.40867 0
M  V30 2655 H 247.037 3.13294 2.2906 0
M  V30 2656 H 245.138 1.03142 3.5804 0
M  V30 2657 H 245.251 2.90128 3.81264 0
M  V30 2658 H 243.615 1.46427 2.08402 0
M  V30 2659 H 244.398 3.05402 1.56795 0
M  V30 2660 N 246.843 -1.10192 1.12674 0
M  V30 2661 C 248.068 -1.86523 0.906853 0
M  V30 2662 C 248.493 -1.80221 -0.538711 0
M  V30 2663 O 247.851 -1.17396 -1.38158 0
M  V30 2664 C 247.899 -3.32758 1.3894 0
M  V30 2665 O 247.003 -4.08449 0.5695 0
M  V30 2666 H 246.344 -0.578678 0.325619 0
M  V30 2667 H 248.874 -1.39203 1.49946 0
M  V30 2668 H 248.884 -3.83608 1.38958 0
M  V30 2669 H 247.559 -3.36661 2.44197 0
M  V30 2670 H 246.136 -3.67427 0.636528 0
M  V30 2671 N 248.321 -0.919034 -1.28029 0
M  V30 2672 C 249.737 -0.617972 -1.4715 0
M  V30 2673 C 249.937 0.835242 -1.83374 0
M  V30 2674 O 248.993 1.61388 -1.94191 0
M  V30 2675 C 250.306 -1.56041 -2.57044 0
M  V30 2676 C 251.854 -1.56769 -2.7091 0
M  V30 2677 C 252.329 -2.49688 -3.83953 0
M  V30 2678 N 253.82 -2.47845 -3.91314 0
M  V30 2679 C 254.555 -3.16437 -4.78179 0
M  V30 2680 N 254.051 -3.94376 -5.69596 0
M  V30 2681 N 255.844 -3.05498 -4.71834 0
M  V30 2682 H 247.995 -1.85866 -1.02798 0
M  V30 2683 H 250.258 -0.797506 -0.512531 0
M  V30 2684 H 249.964 -2.59671 -2.372 0
M  V30 2685 H 249.838 -1.29551 -3.54255 0
M  V30 2686 H 252.225 -0.538745 -2.90141 0
M  V30 2687 H 252.306 -1.87305 -1.74214 0
M  V30 2688 H 251.95 -3.52688 -3.65477 0
M  V30 2689 H 251.88 -2.16453 -4.80058 0
M  V30 2690 H 254.371 -1.91234 -3.25941 0
M  V30 2691 H 254.684 -4.43721 -6.32718 0
M  V30 2692 H 253.029 -3.98481 -5.69419 0
M  V30 2693 H 256.22 -2.44108 -3.99411 0
M  V30 2694 H 256.393 -3.59225 -5.39316 0
M  V30 2695 N 249.799 1.42003 -0.683588 0
M  V30 2696 C 251.21 1.84501 -0.285736 0
M  V30 2697 C 251.561 1.57213 1.17382 0
M  V30 2698 O 250.686 1.03642 1.89966 0
M  V30 2699 C 251.281 3.34912 -0.511821 0
M  V30 2700 C 249.84 3.76025 -0.168005 0
M  V30 2701 C 248.987 2.6551 -0.799983 0
M  V30 2702 H 251.938 1.31724 -0.885119 0
M  V30 2703 H 251.959 3.79784 0.233292 0
M  V30 2704 H 251.471 3.54741 -1.57418 0
M  V30 2705 H 249.572 3.61801 0.890567 0
M  V30 2706 H 249.685 4.75141 -0.614661 0
M  V30 2707 H 248.049 2.53654 -0.230568 0
M  V30 2708 H 248.832 2.8816 -1.86597 0
M  V30 2709 N 251.277 0.427512 1.51691 0
M  V30 2710 C 252.225 -0.403359 2.29076 0
M  V30 2711 C 253.219 -1.02962 1.34518 0
M  V30 2712 O 254.425 -0.965715 1.51901 0
M  V30 2713 H 250.8 -0.148879 0.737115 0
M  V30 2714 H 252.771 0.270295 2.97173 0
M  V30 2715 C 251.52 -1.49763 3.13794 0
M  V30 2716 H 250.843 -1.02508 3.86435 0
M  V30 2717 H 252.283 -2.05244 3.71014 0
M  V30 2718 C 250.742 -2.47536 2.28533 0
M  V30 2719 O 251.272 -3.51848 1.93819 0
M  V30 2720 N 249.478 -2.18187 1.91945 0
M  V30 2721 H 249.025 -1.33389 2.20375 0
M  V30 2722 H 248.983 -2.83848 1.35195 0
M  V30 2723 N 252.755 -1.56801 0.158532 0
M  V30 2724 C 253.98 -2.01295 -0.499516 0
M  V30 2725 C 254.405 -1.03799 -1.56867 0
M  V30 2726 O 253.763 -0.0155162 -1.81293 0
M  V30 2727 C 253.811 -3.44469 -1.06647 0
M  V30 2728 O 252.915 -3.50012 -2.18095 0
M  V30 2729 H 252.256 -0.652884 -0.12099 0
M  V30 2730 H 254.786 -2.02958 0.258661 0
M  V30 2731 H 254.796 -3.8351 -1.39227 0
M  V30 2732 H 253.471 -4.14932 -0.283581 0
M  V30 2733 H 252.048 -3.22822 -1.86656 0
M  V30 2734 N 254.233 0.115231 -1.57178 0
M  V30 2735 C 255.649 0.468877 -1.52557 0
M  V30 2736 C 255.849 1.81649 -0.872125 0
M  V30 2737 O 254.905 2.48347 -0.45606 0
M  V30 2738 C 256.218 0.4499 -2.97315 0
M  V30 2739 C 257.766 0.533185 -3.08425 0
M  V30 2740 C 258.241 0.54456 -4.54751 0
M  V30 2741 N 259.732 0.605892 -4.5922 0
M  V30 2742 C 260.467 0.636203 -5.6986 0
M  V30 2743 N 259.963 0.623931 -6.89985 0
M  V30 2744 N 261.756 0.679496 -5.57978 0
M  V30 2745 H 253.907 -0.767712 -1.9804 0
M  V30 2746 H 256.17 -0.283609 -0.904583 0
M  V30 2747 H 255.876 -0.472721 -3.48509 0
M  V30 2748 H 255.75 1.27632 -3.5495 0
M  V30 2749 H 258.137 1.44623 -2.57232 0
M  V30 2750 H 258.218 -0.320995 -2.53778 0
M  V30 2751 H 257.862 -0.364452 -5.06591 0
M  V30 2752 H 257.792 1.41568 -5.07214 0
M  V30 2753 H 260.283 0.621386 -3.72756 0
M  V30 2754 H 260.596 0.649787 -7.70063 0
M  V30 2755 H 258.941 0.591296 -6.9248 0
M  V30 2756 H 262.132 0.686472 -4.63039 0
M  V30 2757 H 262.305 0.69965 -6.44212 0
M  V30 2758 N 255.711 1.52812 0.385517 0
M  V30 2759 C 256.661 1.74219 1.47078 0
M  V30 2760 C 257.645 0.59632 1.49442 0
M  V30 2761 O 258.837 0.85428 1.5502 0
M  V30 2762 C 255.966 1.9176 2.84751 0
M  V30 2763 C 255.052 3.12289 2.86943 0
M  V30 2764 N 255.443 4.34575 2.58802 0
M  V30 2765 C 253.741 3.12605 3.1811 0
M  V30 2766 C 254.442 5.162 2.68166 0
M  V30 2767 N 253.418 4.51964 3.02043 0
M  V30 2768 H 257.22 2.6639 1.24152 0
M  V30 2769 H 254.734 1.51166 0.593504 0
M  V30 2770 H 256.731 2.05218 3.62893 0
M  V30 2771 H 255.391 1.00805 3.08656 0
M  V30 2772 H 256.402 4.62649 2.32759 0
M  V30 2773 H 253.079 2.31472 3.47458 0
M  V30 2774 H 254.469 6.23689 2.49923 0
M  V30 2775 N 257.189 -0.644168 1.43834 0
M  V30 2776 C 258.417 -1.43147 1.49387 0
M  V30 2777 C 258.832 -1.88452 0.114583 0
M  V30 2778 O 258.189 -1.60047 -0.876989 0
M  V30 2779 C 258.24 -2.66046 2.44748 0
M  V30 2780 O 257.961 -2.22633 3.77314 0
M  V30 2781 C 259.462 -3.59311 2.59635 0
M  V30 2782 H 256.682 -0.439447 0.507077 0
M  V30 2783 H 259.226 -0.78895 1.88669 0
M  V30 2784 H 257.381 -3.26418 2.08638 0
M  V30 2785 H 257.795 -3.02216 4.28679 0
M  V30 2786 H 259.269 -4.42187 3.30416 0
M  V30 2787 H 259.746 -4.07259 1.64427 0
M  V30 2788 H 260.352 -3.04816 2.96593 0
M  V30 2789 N 258.668 -1.30515 -0.883378 0
M  V30 2790 C 260.079 -1.17509 -1.45081 0
M  V30 2791 C 260.43 0.223605 -1.94922 0
M  V30 2792 O 259.555 1.12041 -1.85137 0
M  V30 2793 C 260.15 -2.12715 -2.63701 0
M  V30 2794 C 258.709 -2.03682 -3.16529 0
M  V30 2795 C 257.856 -2.02706 -1.89224 0
M  V30 2796 H 260.807 -1.42762 -0.693165 0
M  V30 2797 H 260.828 -1.70891 -3.39965 0
M  V30 2798 H 260.34 -3.14505 -2.27395 0
M  V30 2799 H 258.441 -1.05039 -3.57488 0
M  V30 2800 H 258.554 -2.92146 -3.7972 0
M  V30 2801 H 256.918 -1.4753 -2.07622 0
M  V30 2802 H 257.701 -3.06229 -1.55174 0
M  V30 2803 N 260.146 1.09593 -1.13257 0
M  V30 2804 C 261.371 1.8604 -0.916732 0
M  V30 2805 C 261.796 1.80504 0.529146 0
M  V30 2806 O 261.154 1.18127 1.37534 0
M  V30 2807 C 261.202 3.32017 -1.40703 0
M  V30 2808 O 260.306 4.08141 -0.591153 0
M  V30 2809 H 259.647 0.576943 -0.328683 0
M  V30 2810 H 262.177 1.38405 -1.50682 0
M  V30 2811 H 262.187 3.82865 -1.4099 0
M  V30 2812 H 260.862 3.35361 -2.45979 0
M  V30 2813 H 259.439 3.67084 -0.656005 0
M  V30 2814 N 261.624 0.925811 1.2754 0
M  V30 2815 C 262.871 0.565255 1.94451 0
M  V30 2816 C 263.199 -0.89316 1.7278 0
M  V30 2817 O 262.454 -1.65213 1.04895 0
M  V30 2818 C 262.753 0.835296 3.47502 0
M  V30 2819 C 262.419 2.27515 3.89291 0
M  V30 2820 C 261.081 2.66879 4.00411 0
M  V30 2821 C 263.433 3.21158 4.10496 0
M  V30 2822 C 260.761 3.99014 4.30122 0
M  V30 2823 C 263.113 4.52871 4.4169 0
M  V30 2824 C 261.777 4.92072 4.51023 0
M  V30 2825 H 261.047 0.206841 0.711546 0
M  V30 2826 H 263.694 1.16942 1.51647 0
M  V30 2827 H 261.999 0.148442 3.91519 0
M  V30 2828 H 263.696 0.535322 3.97411 0
M  V30 2829 H 260.286 1.95976 3.81171 0
M  V30 2830 H 264.47 2.9195 4.01346 0
M  V30 2831 H 259.726 4.2907 4.35556 0
M  V30 2832 H 263.9 5.25436 4.57045 0
M  V30 2833 H 261.527 5.9449 4.738 0
M  V30 2834 N 263.102 -1.41638 0.69111 0
M  V30 2835 C 264.327 -2.06148 0.227583 0
M  V30 2836 C 264.752 -1.51652 -1.11281 0
M  V30 2837 O 264.11 -0.64164 -1.69566 0
M  V30 2838 C 264.158 -3.60095 0.190858 0
M  V30 2839 O 263.262 -4.03845 -0.835664 0
M  V30 2840 H 262.603 -0.654434 0.112306 0
M  V30 2841 H 265.133 -1.81484 0.944714 0
M  V30 2842 H 265.143 -4.07995 0.020207 0
M  V30 2843 H 263.818 -3.99129 1.16915 0
M  V30 2844 H 262.395 -3.67458 -0.63473 0
M  V30 2845 N 264.58 -0.43555 -1.51462 0
M  V30 2846 C 265.828 0.131254 -2.01673 0
M  V30 2847 C 266.149 1.43368 -1.32177 0
M  V30 2848 O 265.419 1.90524 -0.455769 0
M  V30 2849 H 263.999 0.0514954 -0.745223 0
M  V30 2850 H 266.661 -0.577847 -1.86137 0
M  V30 2851 H 265.757 0.308446 -3.10572 0
M  V30 2852 N 266.058 1.56714 -0.166846 0
M  V30 2853 C 267.335 1.88412 0.525373 0
M  V30 2854 C 267.715 1.07602 1.81618 0
M  V30 2855 O 267.063 0.168621 2.27877 0
M  V30 2856 C 267.273 3.40363 0.771613 0
M  V30 2857 C 268.621 4.10007 1.1036 0
M  V30 2858 O 269.645 3.45655 0.860304 0
M  V30 2859 O 268.504 5.2369 1.56239 0
M  V30 2860 H 265.598 0.781587 0.270278 0
M  V30 2861 H 268.144 1.68458 -0.204946 0
M  V30 2862 H 266.916 3.91046 -0.141093 0
M  V30 2863 H 266.539 3.65914 1.55541 0
M  V30 2864 N 267.536 -0.106894 1.57237 0
M  V30 2865 C 268.761 -0.830287 1.90055 0
M  V30 2866 C 269.186 -1.72064 0.75998 0
M  V30 2867 O 268.544 -1.78982 -0.288991 0
M  V30 2868 C 268.592 -1.6295 3.21683 0
M  V30 2869 O 267.696 -2.73748 3.08441 0
M  V30 2870 H 267.037 -0.228855 0.623315 0
M  V30 2871 H 269.567 -0.085658 2.04421 0
M  V30 2872 H 269.577 -2.01621 3.54701 0
M  V30 2873 H 268.252 -0.975989 4.04286 0
M  V30 2874 H 266.829 -2.38192 2.86913 0
M  V30 2875 N 269.014 -1.53014 -0.377408 0
M  V30 2876 C 270.239 -1.72818 -1.14668 0
M  V30 2877 C 270.664 -0.450725 -1.8262 0
M  V30 2878 O 270.022 0.59439 -1.7128 0
M  V30 2879 C 270.07 -2.88627 -2.16164 0
M  V30 2880 O 269.174 -2.56409 -3.22998 0
M  V30 2881 H 268.515 -0.574301 -0.333278 0
M  V30 2882 H 271.045 -1.99853 -0.438152 0
M  V30 2883 H 271.055 -3.14455 -2.59966 0
M  V30 2884 H 269.73 -3.81294 -1.66095 0
M  V30 2885 H 268.307 -2.4136 -2.84253 0
M  V30 2886 N 270.492 0.636531 -1.44174 0
M  V30 2887 C 271.717 1.42847 -1.50364 0
M  V30 2888 C 272.142 1.87665 -0.127867 0
M  V30 2889 O 271.5 1.58408 0.88185 0
M  V30 2890 C 271.548 2.62854 -2.4686 0
M  V30 2891 O 270.652 3.62501 -1.9664 0
M  V30 2892 H 269.993 0.427642 -0.507955 0
M  V30 2893 H 272.523 0.777422 -1.89255 0
M  V30 2894 H 272.533 3.10465 -2.64718 0
M  V30 2895 H 271.208 2.29578 -3.46795 0
M  V30 2896 H 269.785 3.21735 -1.88523 0
M  V30 2897 N 271.97 1.30982 0.876444 0
M  V30 2898 C 273.195 1.23373 1.66715 0
M  V30 2899 C 273.62 -0.19885 1.87046 0
M  V30 2900 O 272.978 -1.1427 1.40756 0
M  V30 2901 C 273.026 1.97644 3.01611 0
M  V30 2902 O 272.13 1.30935 3.91062 0
M  V30 2903 H 271.471 0.426279 0.509099 0
M  V30 2904 H 274.001 1.72944 1.09323 0
M  V30 2905 H 274.011 2.06992 3.51594 0
M  V30 2906 H 272.686 3.01829 2.86133 0
M  V30 2907 H 271.263 1.29996 3.49507 0
M  V30 2908 N 273.449 -1.08991 1.13837 0
M  V30 2909 C 274.689 -1.82867 0.913183 0
M  V30 2910 C 275.053 -1.83936 -0.550604 0
M  V30 2911 O 276.254 -2.53515 -0.893515 0
M  V30 2912 C 274.525 -3.24843 1.49036 0
M  V30 2913 S 276.084 -4.15669 1.40588 0
M  V30 2914 H 272.902 -0.630278 0.329046 0
M  V30 2915 H 275.504 -1.31049 1.45073 0
M  V30 2916 H 274.208 -3.21644 2.54899 0
M  V30 2917 H 273.739 -3.81734 0.950947 0
M  V30 2918 H 275.754 -4.94686 0.387353 0
M  V30 2919 N 274.927 -0.932562 -1.27047 0
M  V30 2920 C 276.152 -0.591474 -1.98787 0
M  V30 2921 C 276.577 0.824601 -1.69062 0
M  V30 2922 O 275.935 1.5541 -0.933677 0
M  V30 2923 C 275.983 -0.829808 -3.50922 0
M  V30 2924 O 275.087 0.102266 -4.12273 0
M  V30 2925 H 274.428 -0.227185 -0.623926 0
M  V30 2926 H 276.958 -1.25314 -1.61733 0
M  V30 2927 H 276.968 -0.747292 -4.01098 0
M  V30 2928 H 275.643 -1.86201 -3.7189 0
M  V30 2929 H 274.22 -0.0305761 -3.72887 0
M  V30 2930 N 276.405 1.4127 -0.698611 0
M  V30 2931 C 277.682 1.94955 -0.158762 0
M  V30 2932 C 278.062 1.63781 1.33188 0
M  V30 2933 O 277.41 0.946423 2.07979 0
M  V30 2934 C 277.62 3.46044 -0.453309 0
M  V30 2935 C 278.968 4.22872 -0.382707 0
M  V30 2936 O 279.992 3.54076 -0.388396 0
M  V30 2937 O 278.851 5.45407 -0.345463 0
M  V30 2938 H 275.945 0.82683 -0.0167505 0
M  V30 2939 H 278.491 1.50971 -0.77498 0
M  V30 2940 H 277.263 3.62028 -1.48498 0
M  V30 2941 H 276.886 3.97128 0.19373 0
M  V30 2942 N 277.883 0.443576 1.51229 0
M  V30 2943 C 278.833 -0.382787 2.24764 0
M  V30 2944 C 279.817 -0.984836 1.27239 0
M  V30 2945 O 281.009 -0.901943 1.52296 0
M  V30 2946 C 278.138 -1.47989 3.09765 0
M  V30 2947 C 277.224 -0.886931 4.14722 0
M  V30 2948 N 277.615 -0.0237103 5.05794 0
M  V30 2949 C 275.913 -1.15385 4.30816 0
M  V30 2950 C 276.614 0.309971 5.80874 0
M  V30 2951 N 275.59 -0.307989 5.42727 0
M  V30 2952 H 279.392 0.282624 2.92538 0
M  V30 2953 H 276.906 0.256027 1.60369 0
M  V30 2954 H 278.903 -2.08482 3.61027 0
M  V30 2955 H 277.563 -2.14758 2.43535 0
M  V30 2956 H 278.574 0.34318 5.16762 0
M  V30 2957 H 275.251 -1.81857 3.75812 0
M  V30 2958 H 276.641 1.01279 6.64223 0
M  V30 2959 N 279.361 -1.56624 0.175154 0
M  V30 2960 C 280.601 -1.98894 -0.471221 0
M  V30 2961 C 280.965 -1.05889 -1.60161 0
M  V30 2962 O 282.166 -1.37315 -2.3108 0
M  V30 2963 C 280.437 -3.44865 -0.938241 0
M  V30 2964 S 281.996 -4.09164 -1.58526 0
M  V30 2965 H 278.814 -0.694686 -0.151434 0
M  V30 2966 H 281.416 -1.93577 0.27352 0
M  V30 2967 H 280.12 -4.10265 -0.10518 0
M  V30 2968 H 279.651 -3.53956 -1.71693 0
M  V30 2969 H 281.666 -4.04528 -2.87352 0
M  V30 2970 N 280.839 0.0985539 -1.57292 0
M  V30 2971 C 282.088 0.801358 -1.85098 0
M  V30 2972 C 282.401 1.80066 -0.763902 0
M  V30 2973 O 283.607 2.55112 -0.928981 0
M  V30 2974 C 282.063 1.47599 -3.28242 0
M  V30 2975 C 281.671 0.516624 -4.45011 0
M  V30 2976 C 283.415 2.16272 -3.65276 0
M  V30 2977 C 281.322 1.19564 -5.79188 0
M  V30 2978 H 280.252 0.303022 -0.69043 0
M  V30 2979 H 282.903 0.0542623 -1.8342 0
M  V30 2980 H 281.285 2.27042 -3.2445 0
M  V30 2981 H 282.459 -0.246065 -4.60143 0
M  V30 2982 H 280.774 -0.064227 -4.1635 0
M  V30 2983 H 283.371 2.67802 -4.62803 0
M  V30 2984 H 283.714 2.95009 -2.93727 0
M  V30 2985 H 284.247 1.43693 -3.70941 0
M  V30 2986 H 280.986 0.449157 -6.53959 0
M  V30 2987 H 280.506 1.92984 -5.67906 0
M  V30 2988 H 282.185 1.7231 -6.23633 0
M  V30 2989 N 282.317 1.53212 0.369288 0
M  V30 2990 C 283.545 1.73119 1.13303 0
M  V30 2991 C 283.96 0.458455 1.83149 0
M  V30 2992 O 283.317 -0.568403 1.73423 0
M  V30 2993 C 283.368 2.89413 2.16616 0
M  V30 2994 O 283.089 4.11761 1.49614 0
M  V30 2995 C 284.59 3.21161 3.05566 0
M  V30 2996 H 281.81 0.579107 0.338934 0
M  V30 2997 H 284.354 1.99942 0.429338 0
M  V30 2998 H 282.509 2.64994 2.82589 0
M  V30 2999 H 282.923 4.76858 2.18419 0
M  V30 3000 H 284.397 4.05949 3.74045 0
M  V30 3001 H 284.874 2.36369 3.70171 0
M  V30 3002 H 285.48 3.47492 2.45213 0
M  V30 3003 N 283.795 -0.628877 1.44509 0
M  V30 3004 C 285.02 -1.42048 1.5112 0
M  V30 3005 C 285.445 -1.87594 0.137818 0
M  V30 3006 O 284.803 -1.58873 -0.873437 0
M  V30 3007 C 284.851 -2.61541 2.48251 0
M  V30 3008 O 283.955 -3.61453 1.98559 0
M  V30 3009 H 283.296 -0.424942 0.510216 0
M  V30 3010 H 285.826 -0.767374 1.89664 0
M  V30 3011 H 285.836 -3.09057 2.66361 0
M  V30 3012 H 284.511 -2.27736 3.48007 0
M  V30 3013 H 283.088 -3.20731 1.90227 0
M  V30 3014 N 285.273 -1.31445 -0.869486 0
M  V30 3015 C 286.498 -1.24256 -1.66058 0
M  V30 3016 C 286.923 0.188928 -1.87149 0
M  V30 3017 O 286.281 1.13522 -1.4136 0
M  V30 3018 C 286.329 -1.9924 -3.00559 0
M  V30 3019 O 285.433 -1.33007 -3.90362 0
M  V30 3020 H 284.774 -0.428973 -0.506831 0
M  V30 3021 H 287.304 -1.73521 -1.08404 0
M  V30 3022 H 287.314 -2.08854 -3.50491 0
M  V30 3023 H 285.989 -3.03342 -2.84528 0
M  V30 3024 H 284.566 -1.31848 -3.48813 0
M  V30 3025 N 286.751 1.08385 -1.14413 0
M  V30 3026 C 288.028 1.77429 -0.823297 0
M  V30 3027 C 288.408 1.9974 0.683163 0
M  V30 3028 O 287.756 1.60739 1.62405 0
M  V30 3029 C 287.966 3.09004 -1.62227 0
M  V30 3030 C 289.314 3.83532 -1.82177 0
M  V30 3031 O 290.338 3.18786 -1.58915 0
M  V30 3032 O 289.197 4.99792 -2.21067 0
M  V30 3033 H 286.291 0.769999 -0.301712 0
M  V30 3034 H 288.837 1.14846 -1.24934 0
M  V30 3035 H 287.609 2.88316 -2.64555 0
M  V30 3036 H 287.232 3.79316 -1.19187 0
M  V30 3037 N 288.23 0.939286 1.26551 0
M  V30 3038 C 289.163 0.391702 2.24813 0
M  V30 3039 C 290.141 -0.518421 1.54114 0
M  V30 3040 O 291.325 -0.456299 1.82894 0
M  V30 3041 C 288.452 -0.437382 3.35864 0
M  V30 3042 C 287.498 0.410946 4.24516 0
M  V30 3043 S 288.331 1.83372 5.03125 0
M  V30 3044 C 289.487 1.01264 6.17654 0
M  V30 3045 H 289.72 1.22448 2.70913 0
M  V30 3046 H 287.253 0.742269 1.35387 0
M  V30 3047 H 289.211 -0.909837 4.0029 0
M  V30 3048 H 287.872 -1.24482 2.8838 0
M  V30 3049 H 287.065 -0.224191 5.03501 0
M  V30 3050 H 286.667 0.818014 3.64945 0
M  V30 3051 H 288.959 0.254023 6.77024 0
M  V30 3052 H 289.902 1.77589 6.85469 0
M  V30 3053 H 290.31 0.549532 5.61819 0
M  V30 3054 N 289.708 -1.40897 0.706093 0
M  V30 3055 C 290.641 -2.282 -0.00328781 0
M  V30 3056 C 291.619 -1.42816 -0.77732 0
M  V30 3057 O 292.803 -1.72237 -0.765944 0
M  V30 3058 C 289.93 -3.23226 -1.01205 0
M  V30 3059 C 288.976 -4.25222 -0.329955 0
M  V30 3060 S 289.809 -5.27269 0.935298 0
M  V30 3061 C 290.965 -6.25859 -0.0716061 0
M  V30 3062 H 291.198 -2.88016 0.737143 0
M  V30 3063 H 288.731 -1.46191 0.496756 0
M  V30 3064 H 290.689 -3.78503 -1.58888 0
M  V30 3065 H 289.35 -2.62485 -1.72513 0
M  V30 3066 H 288.543 -4.92023 -1.09221 0
M  V30 3067 H 288.145 -3.73595 0.174069 0
M  V30 3068 H 290.437 -6.71204 -0.921521 0
M  V30 3069 H 291.38 -7.0586 0.562765 0
M  V30 3070 H 291.788 -5.62852 -0.431088 0
M  V30 3071 N 291.186 -0.45159 -1.50991 0
M  V30 3072 C 292.463 0.170707 -1.94854 0
M  V30 3073 C 292.843 1.58788 -1.39103 0
M  V30 3074 O 292.191 2.20913 -0.583921 0
M  V30 3075 C 292.401 0.133929 -3.48743 0
M  V30 3076 C 293.749 0.33248 -4.23296 0
M  V30 3077 O 294.773 0.211403 -3.55572 0
M  V30 3078 O 293.632 0.57486 -5.43468 0
M  V30 3079 H 290.726 0.122264 -0.817912 0
M  V30 3080 H 293.272 -0.510594 -1.61836 0
M  V30 3081 H 292.044 -0.856283 -3.81816 0
M  V30 3082 H 291.667 0.857529 -3.88242 0
M  V30 3083 N 292.664 1.56529 -0.183458 0
M  V30 3084 C 293.889 2.02064 0.467428 0
M  V30 3085 C 294.314 1.06282 1.55196 0
M  V30 3086 O 293.672 0.0443565 1.81246 0
M  V30 3087 C 293.72 3.46122 1.01153 0
M  V30 3088 O 292.824 3.53437 2.12499 0
M  V30 3089 H 292.165 0.654726 0.110588 0
M  V30 3090 H 294.695 2.02521 -0.290917 0
M  V30 3091 H 294.705 3.85676 1.33108 0
M  V30 3092 H 293.38 4.15331 0.217533 0
M  V30 3093 H 291.957 3.2575 1.81497 0
M  V30 3094 N 294.142 -0.090211 1.57342 0
M  V30 3095 C 295.367 -0.810082 1.90925 0
M  V30 3096 C 295.792 -1.71248 0.778187 0
M  V30 3097 O 295.15 -1.79278 -0.269991 0
M  V30 3098 C 295.198 -1.59529 3.23393 0
M  V30 3099 O 294.302 -2.70461 3.11327 0
M  V30 3100 H 293.643 -0.222231 0.625707 0
M  V30 3101 H 296.173 -0.0639716 2.045 0
M  V30 3102 H 296.183 -1.97847 3.5682 0
M  V30 3103 H 294.858 -0.933055 4.05299 0
M  V30 3104 H 293.435 -2.35135 2.89423 0
M  V30 3105 N 295.62 -1.53406 -0.361157 0
M  V30 3106 C 296.845 -1.74024 -1.12829 0
M  V30 3107 C 297.27 -0.470069 -1.82132 0
M  V30 3108 O 296.628 0.57619 -1.719 0
M  V30 3109 C 296.676 -2.90903 -2.13091 0
M  V30 3110 O 295.78 -2.59821 -3.20261 0
M  V30 3111 H 295.121 -0.577804 -0.327168 0
M  V30 3112 H 297.651 -2.00307 -0.41693 0
M  V30 3113 H 297.661 -3.17194 -2.56616 0
M  V30 3114 H 296.336 -3.83034 -1.62042 0
M  V30 3115 H 294.913 -2.44362 -2.81677 0
M  V30 3116 N 297.098 0.621204 -1.44841 0
M  V30 3117 C 298.345 1.38055 -1.48145 0
M  V30 3118 C 298.673 1.94143 -0.117867 0
M  V30 3119 O 297.928 1.74713 0.881694 0
M  V30 3120 C 298.227 2.55675 -2.4973 0
M  V30 3121 C 297.893 2.17817 -3.94799 0
M  V30 3122 C 296.555 2.07205 -4.34303 0
M  V30 3123 C 298.907 1.88065 -4.86087 0
M  V30 3124 C 296.235 1.65045 -5.63007 0
M  V30 3125 C 298.587 1.47394 -6.15189 0
M  V30 3126 C 297.251 1.35331 -6.53637 0
M  V30 3127 H 296.521 0.505181 -0.542101 0
M  V30 3128 H 299.168 0.703477 -1.78111 0
M  V30 3129 H 297.473 3.2866 -2.13284 0
M  V30 3130 H 299.17 3.13904 -2.4953 0
M  V30 3131 H 295.76 2.26998 -3.63552 0
M  V30 3132 H 299.944 1.95168 -4.56315 0
M  V30 3133 H 295.2 1.54317 -5.91605 0
M  V30 3134 H 299.374 1.23415 -6.85377 0
M  V30 3135 H 297.001 1.02435 -7.53267 0
M  V30 3136 N 298.576 1.31904 0.862503 0
M  V30 3137 C 299.801 1.25135 1.65397 0
M  V30 3138 C 300.226 -0.179 1.87246 0
M  V30 3139 O 299.584 -1.1277 1.4196 0
M  V30 3140 C 299.632 2.00832 2.99498 0
M  V30 3141 O 298.736 1.35075 3.89652 0
M  V30 3142 H 298.077 0.431655 0.504549 0
M  V30 3143 H 300.607 1.74094 1.07483 0
M  V30 3144 H 300.617 2.10709 3.49379 0
M  V30 3145 H 299.292 3.04847 2.82916 0
M  V30 3146 H 297.869 1.33696 3.48109 0
M  V30 3147 N 300.054 -1.07777 1.14986 0
M  V30 3148 C 301.002 -2.16964 0.838406 0
M  V30 3149 C 301.996 -1.68372 -0.186386 0
M  V30 3150 O 303.202 -1.79951 -0.0418465 0
M  V30 3151 H 299.577 -0.708006 0.253439 0
M  V30 3152 H 301.548 -2.40454 1.76704 0
M  V30 3153 C 300.297 -3.4604 0.339335 0
M  V30 3154 H 299.62 -3.83813 1.11927 0
M  V30 3155 H 301.06 -4.23698 0.160021 0
M  V30 3156 C 299.519 -3.23569 -0.938325 0
M  V30 3157 O 300.049 -3.47752 -2.01077 0
M  V30 3158 N 298.255 -2.77079 -0.876117 0
M  V30 3159 H 297.802 -2.576 -0.00322037 0
M  V30 3160 H 297.76 -2.62422 -1.73153 0
M  V30 3161 N 301.532 -0.945985 -1.26051 0
M  V30 3162 C 302.462 -0.477172 -2.28572 0
M  V30 3163 C 303.443 0.472032 -1.63419 0
M  V30 3164 O 304.628 0.372853 -1.90587 0
M  V30 3165 C 301.758 0.253975 -3.4637 0
M  V30 3166 C 300.712 -0.609135 -4.23643 0
M  V30 3167 C 300.038 0.252252 -5.34105 0
M  V30 3168 C 301.338 -1.8829 -4.8718 0
M  V30 3169 H 303.032 -1.33402 -2.68038 0
M  V30 3170 H 300.578 -0.642904 -1.28852 0
M  V30 3171 H 302.531 0.593016 -4.17207 0
M  V30 3172 H 301.255 1.145 -3.05871 0
M  V30 3173 H 299.914 -0.931138 -3.54578 0
M  V30 3174 H 299.562 1.14278 -4.89846 0
M  V30 3175 H 299.262 -0.32188 -5.86718 0
M  V30 3176 H 300.786 0.586454 -6.07777 0
M  V30 3177 H 302.2 -1.61081 -5.50205 0
M  V30 3178 H 300.597 -2.40199 -5.49931 0
M  V30 3179 H 301.667 -2.59134 -4.09851 0
M  V30 3180 N 303.011 1.40521 -0.713556 0
M  V30 3181 C 304.288 1.94775 -0.17943 0
M  V30 3182 C 304.668 1.65184 1.31444 0
M  V30 3183 O 304.016 0.968429 2.06963 0
M  V30 3184 C 304.226 3.45543 -0.489986 0
M  V30 3185 C 305.574 4.22442 -0.427536 0
M  V30 3186 O 306.598 3.53644 -0.425929 0
M  V30 3187 O 305.457 5.4501 -0.403292 0
M  V30 3188 H 302.551 0.826606 -0.0255192 0
M  V30 3189 H 305.097 1.5014 -0.790949 0
M  V30 3190 H 303.869 3.60432 -1.5233 0
M  V30 3191 H 303.492 3.97311 0.151598 0
M  V30 3192 N 304.489 0.459591 1.5075 0
M  V30 3193 C 305.419 -0.330644 2.31147 0
M  V30 3194 C 306.4 -1.00087 1.37538 0
M  V30 3195 O 307.585 -1.00025 1.66459 0
M  V30 3196 C 304.715 -1.41958 3.16962 0
M  V30 3197 C 303.669 -0.871608 4.19031 0
M  V30 3198 C 302.995 -2.05797 4.9351 0
M  V30 3199 C 304.295 0.109251 5.22186 0
M  V30 3200 H 305.989 0.340336 2.97459 0
M  V30 3201 H 303.535 0.165119 1.4305 0
M  V30 3202 H 305.488 -1.9798 3.71997 0
M  V30 3203 H 304.212 -2.11917 2.48513 0
M  V30 3204 H 302.871 -0.333442 3.6508 0
M  V30 3205 H 302.519 -2.74427 4.21544 0
M  V30 3206 H 302.219 -1.6976 5.62544 0
M  V30 3207 H 303.743 -2.62331 5.51375 0
M  V30 3208 H 305.157 -0.361405 5.7216 0
M  V30 3209 H 303.554 0.383316 5.98875 0
M  V30 3210 H 304.624 1.03887 4.73641 0
M  V30 3211 N 305.967 -1.56429 0.191757 0
M  V30 3212 C 307.192 -2.02309 -0.456706 0
M  V30 3213 C 307.617 -1.07103 -1.5463 0
M  V30 3214 O 306.975 -0.0539677 -1.8122 0
M  V30 3215 C 307.023 -3.46654 -0.993159 0
M  V30 3216 O 306.127 -3.54559 -2.10622 0
M  V30 3217 H 305.468 -0.655303 -0.107114 0
M  V30 3218 H 307.998 -2.02364 0.301653 0
M  V30 3219 H 308.008 -3.86377 -1.31061 0
M  V30 3220 H 306.683 -4.1544 -0.195504 0
M  V30 3221 H 305.26 -3.26708 -1.79767 0
M  V30 3222 N 307.445 0.0818655 -1.57387 0
M  V30 3223 C 308.355 1.11642 -2.06333 0
M  V30 3224 C 309.371 1.43033 -0.99083 0
M  V30 3225 O 310.547 1.53411 -1.30488 0
M  V30 3226 C 307.612 2.41342 -2.48907 0
M  V30 3227 C 306.673 2.17014 -3.7041 0
M  V30 3228 C 305.906 3.4053 -4.10944 0
M  V30 3229 O 306.129 4.4927 -3.51444 0
M  V30 3230 O 305.063 3.29336 -5.03807 0
M  V30 3231 H 308.889 0.730657 -2.9478 0
M  V30 3232 H 306.474 0.295301 -1.46452 0
M  V30 3233 H 308.356 3.17691 -2.76858 0
M  V30 3234 H 307.031 2.79319 -1.63593 0
M  V30 3235 H 305.938 1.38403 -3.47556 0
M  V30 3236 H 307.271 1.83923 -4.56545 0
M  V30 3237 N 308.923 1.53595 0.353017 0
M  V30 3238 C 309.833 1.83897 1.45667 0
M  V30 3239 C 310.849 0.728334 1.58023 0
M  V30 3240 O 312.025 1.01968 1.73679 0
M  V30 3241 C 309.09 2.03383 2.80778 0
M  V30 3242 C 308.151 3.27262 2.77845 0
M  V30 3243 C 307.384 3.45809 4.06512 0
M  V30 3244 O 307.607 2.68387 5.03314 0
M  V30 3245 O 306.541 4.39207 4.11559 0
M  V30 3246 H 310.367 2.77686 1.2298 0
M  V30 3247 H 307.952 1.39132 0.544308 0
M  V30 3248 H 309.834 2.17698 3.60812 0
M  V30 3249 H 308.509 1.12783 3.03417 0
M  V30 3250 H 307.416 3.18359 1.96465 0
M  V30 3251 H 308.749 4.17824 2.60161 0
M  V30 3252 N 310.401 -0.613514 1.45168 0
M  V30 3253 C 311.678 -1.37263 1.39349 0
M  V30 3254 C 312.058 -2.11012 0.0610848 0
M  V30 3255 O 311.406 -2.07502 -0.956825 0
M  V30 3256 C 311.616 -2.3244 2.60332 0
M  V30 3257 C 312.964 -2.9523 3.05163 0
M  V30 3258 O 313.988 -2.42762 2.60663 0
M  V30 3259 O 312.847 -3.90454 3.82372 0
M  V30 3260 H 309.941 -0.615188 0.552696 0
M  V30 3261 H 312.487 -0.637097 1.57287 0
M  V30 3262 H 311.259 -1.77164 3.48896 0
M  V30 3263 H 310.882 -3.13383 2.44698 0
M  V30 3264 N 311.879 -1.3236 -0.855495 0
M  V30 3265 C 313.104 -1.2601 -1.64731 0
M  V30 3266 C 313.529 0.169068 -1.87339 0
M  V30 3267 O 312.887 1.12016 -1.42556 0
M  V30 3268 C 312.935 -2.02417 -2.98429 0
M  V30 3269 O 312.039 -1.3714 -3.8893 0
M  V30 3270 H 311.38 -0.434325 -0.502253 0
M  V30 3271 H 313.91 -1.74661 -1.06558 0
M  V30 3272 H 313.92 -2.12559 -3.48257 0
M  V30 3273 H 312.595 -3.06343 -2.81295 0
M  V30 3274 H 311.172 -1.3554 -3.47395 0
M  V30 3275 N 313.357 1.07166 -1.15556 0
M  V30 3276 C 314.634 1.76546 -0.842069 0
M  V30 3277 C 315.014 2.00453 0.661939 0
M  V30 3278 O 314.362 1.62452 1.60691 0
M  V30 3279 C 314.572 3.07266 -1.65495 0
M  V30 3280 C 315.92 3.81578 -1.86234 0
M  V30 3281 O 316.944 3.17083 -1.62287 0
M  V30 3282 O 315.803 4.97419 -2.26355 0
M  V30 3283 H 312.897 0.766756 -0.309862 0
M  V30 3284 H 315.443 1.13514 -1.26145 0
M  V30 3285 H 314.215 2.85494 -2.67598 0
M  V30 3286 H 313.838 3.7803 -1.23203 0
M  V30 3287 N 314.835 0.952656 1.25548 0
M  V30 3288 C 316.112 0.523818 1.88456 0
M  V30 3289 C 316.492 -0.998871 1.85973 0
M  V30 3290 O 315.84 -1.86381 1.3219 0
M  V30 3291 C 316.05 1.0982 3.31271 0
M  V30 3292 C 317.398 1.17385 4.08051 0
M  V30 3293 O 318.422 1.04961 3.40384 0
M  V30 3294 O 317.281 1.36852 5.29088 0
M  V30 3295 H 314.375 0.172485 0.808813 0
M  V30 3296 H 316.921 1.04596 1.33633 0
M  V30 3297 H 315.693 2.1415 3.27499 0
M  V30 3298 H 315.316 0.559191 3.93648 0
M  V30 3299 N 316.313 -1.40141 0.720998 0
M  V30 3300 C 317.724 -1.83678 0.334553 0
M  V30 3301 C 318.075 -1.6027 -1.13173 0
M  V30 3302 O 317.2 -1.08643 -1.87152 0
M  V30 3303 C 317.795 -3.33437 0.600437 0
M  V30 3304 C 316.354 -3.75447 0.267642 0
M  V30 3305 C 315.501 -2.63296 0.870097 0
M  V30 3306 H 318.452 -1.29331 0.919732 0
M  V30 3307 H 318.473 -3.80269 -0.132517 0
M  V30 3308 H 317.985 -3.50442 1.66768 0
M  V30 3309 H 316.086 -3.64035 -0.794329 0
M  V30 3310 H 316.199 -4.73344 0.74042 0
M  V30 3311 H 314.563 -2.52954 0.297739 0
M  V30 3312 H 315.346 -2.83112 1.94172 0
M  V30 3313 N 317.792 -0.46758 -1.50504 0
M  V30 3314 C 319.017 0.0886943 -2.0721 0
M  V30 3315 C 319.442 1.33057 -1.32956 0
M  V30 3316 O 318.8 1.77354 -0.376197 0
M  V30 3317 C 318.848 0.359202 -3.58806 0
M  V30 3318 O 317.952 1.44034 -3.8643 0
M  V30 3319 H 317.293 -0.0114349 -0.663902 0
M  V30 3320 H 319.823 -0.657613 -1.93744 0
M  V30 3321 H 319.833 0.600742 -4.03553 0
M  V30 3322 H 318.508 -0.548311 -4.1227 0
M  V30 3323 H 317.085 1.18638 -3.53524 0
M  V30 3324 N 319.27 1.56325 -0.20005 0
M  V30 3325 C 320.516 1.98012 0.438059 0
M  V30 3326 C 320.849 1.08702 1.60927 0
M  V30 3327 O 320.124 0.140064 1.93995 0
M  V30 3328 C 320.407 3.48841 0.893419 0
M  V30 3329 C 320.26 4.48928 -0.279947 0
M  V30 3330 C 321.579 4.03498 1.75719 0
M  V30 3331 H 318.698 0.719918 0.157757 0
M  V30 3332 H 321.34 1.87743 -0.291968 0
M  V30 3333 H 319.49 3.57723 1.51547 0
M  V30 3334 H 321.162 4.52079 -0.91772 0
M  V30 3335 H 319.405 4.23694 -0.930919 0
M  V30 3336 H 320.076 5.5194 0.0812601 0
M  V30 3337 H 322.552 3.97427 1.23253 0
M  V30 3338 H 321.428 5.09393 2.04476 0
M  V30 3339 H 321.689 3.4906 2.71311 0
M  V30 3340 N 320.748 -0.0735177 1.57428 0
M  V30 3341 C 321.976 -0.785969 1.9139 0
M  V30 3342 C 322.391 -1.71207 0.795847 0
M  V30 3343 O 321.748 -1.81033 -0.230915 0
M  V30 3344 C 321.799 -1.58107 3.25091 0
M  V30 3345 O 321.52 -0.6922 4.32597 0
M  V30 3346 C 323.021 -2.39467 3.73055 0
M  V30 3347 H 320.241 -0.223558 0.632663 0
M  V30 3348 H 322.785 -0.044302 2.04452 0
M  V30 3349 H 320.94 -2.27503 3.13562 0
M  V30 3350 H 321.354 -1.24504 5.09508 0
M  V30 3351 H 322.828 -2.90716 4.69242 0
M  V30 3352 H 323.305 -3.18913 3.01979 0
M  V30 3353 H 323.911 -1.7523 3.87523 0
M  V30 3354 N 322.226 -1.5378 -0.344866 0
M  V30 3355 C 323.156 -1.84662 -1.42906 0
M  V30 3356 C 324.137 -0.701648 -1.54955 0
M  V30 3357 O 325.322 -0.953438 -1.69184 0
M  V30 3358 C 322.452 -2.05503 -2.79974 0
M  V30 3359 C 321.406 -3.21318 -2.82734 0
M  V30 3360 C 320.732 -3.2749 -4.22675 0
M  V30 3361 C 322.032 -4.59456 -2.48389 0
M  V30 3362 H 323.726 -2.75461 -1.17311 0
M  V30 3363 H 321.272 -1.32542 -0.562896 0
M  V30 3364 H 323.225 -2.25691 -3.55867 0
M  V30 3365 H 321.949 -1.11434 -3.07002 0
M  V30 3366 H 320.608 -3.00984 -2.09294 0
M  V30 3367 H 320.256 -2.31019 -4.4681 0
M  V30 3368 H 319.956 -4.05316 -4.25433 0
M  V30 3369 H 321.48 -3.49887 -5.00412 0
M  V30 3370 H 322.894 -4.79667 -3.13995 0
M  V30 3371 H 321.291 -5.39675 -2.62432 0
M  V30 3372 H 322.361 -4.63155 -1.4358 0
M  V30 3373 N 323.704 0.605807 -1.45491 0
M  V30 3374 C 324.614 1.74466 -1.56839 0
M  V30 3375 C 325.63 1.68006 -0.452772 0
M  V30 3376 O 326.806 1.8833 -0.713708 0
M  V30 3377 C 323.871 3.10931 -1.53371 0
M  V30 3378 C 322.932 3.28832 -2.75986 0
M  V30 3379 C 322.165 4.58787 -2.72673 0
M  V30 3380 O 322.388 5.4122 -1.80102 0
M  V30 3381 O 321.322 4.79438 -3.63899 0
M  V30 3382 H 325.148 1.67843 -2.53106 0
M  V30 3383 H 322.733 0.770108 -1.28022 0
M  V30 3384 H 324.615 3.92233 -1.54051 0
M  V30 3385 H 323.29 3.18042 -0.602572 0
M  V30 3386 H 322.197 2.47112 -2.80867 0
M  V30 3387 H 323.53 3.26599 -3.68231 0
M  V30 3388 N 325.182 1.32811 0.848464 0
M  V30 3389 C 326.112 1.24882 1.97299 0
M  V30 3390 C 327.093 0.131357 1.69592 0
M  V30 3391 O 328.278 0.319553 1.91553 0
M  V30 3392 C 325.408 0.97746 3.33261 0
M  V30 3393 C 324.362 2.05682 3.75338 0
M  V30 3394 C 323.688 1.63777 5.09 0
M  V30 3395 C 324.988 3.47254 3.90144 0
M  V30 3396 H 326.682 2.18966 2.04191 0
M  V30 3397 H 324.228 1.05413 0.981029 0
M  V30 3398 H 326.181 0.908513 4.1149 0
M  V30 3399 H 324.905 0.000980011 3.266 0
M  V30 3400 H 323.564 2.11603 2.99366 0
M  V30 3401 H 323.212 0.648569 4.98801 0
M  V30 3402 H 322.912 2.36 5.38124 0
M  V30 3403 H 324.436 1.5833 5.89715 0
M  V30 3404 H 325.85 3.43888 4.58709 0
M  V30 3405 H 324.247 4.1788 4.30693 0
M  V30 3406 H 325.317 3.86462 2.92874 0
M  V30 3407 N 326.66 -1.06551 1.16123 0
M  V30 3408 C 327.885 -1.83544 0.965735 0
M  V30 3409 C 328.31 -1.81843 -0.481102 0
M  V30 3410 O 327.668 -1.21732 -1.34354 0
M  V30 3411 C 327.716 -3.28169 1.49457 0
M  V30 3412 O 326.82 -4.0643 0.699157 0
M  V30 3413 H 326.161 -0.568026 0.343864 0
M  V30 3414 H 328.691 -1.34362 1.54299 0
M  V30 3415 H 328.701 -3.78992 1.51092 0
M  V30 3416 H 327.376 -3.28722 2.54784 0
M  V30 3417 H 325.953 -3.65216 0.7531 0
M  V30 3418 N 328.138 -0.959301 -1.25041 0
M  V30 3419 C 329.07 -0.440543 -2.24926 0
M  V30 3420 C 330.083 0.446131 -1.56568 0
M  V30 3421 O 331.272 0.253657 -1.76689 0
M  V30 3422 C 328.372 0.38412 -3.36716 0
M  V30 3423 C 327.545 -0.490658 -4.34639 0
M  V30 3424 C 326.604 0.276587 -5.25473 0
M  V30 3425 O 325.63 -0.326614 -5.68262 0
M  V30 3426 N 326.832 1.56844 -5.5891 0
M  V30 3427 H 329.597 -1.29931 -2.70071 0
M  V30 3428 H 327.158 -0.830181 -1.38995 0
M  V30 3429 H 329.15 0.905228 -3.94446 0
M  V30 3430 H 327.72 1.14377 -2.90924 0
M  V30 3431 H 326.94 -1.19282 -3.7572 0
M  V30 3432 H 328.228 -1.08756 -4.97041 0
M  V30 3433 H 327.626 2.08036 -5.26059 0
M  V30 3434 H 326.183 2.03541 -6.19205 0
M  V30 3435 N 329.616 1.39756 -0.72842 0
M  V30 3436 C 330.546 2.33289 -0.0991354 0
M  V30 3437 C 331.527 1.53568 0.731489 0
M  V30 3438 O 332.712 1.81987 0.677807 0
M  V30 3439 C 329.842 3.3763 0.813834 0
M  V30 3440 C 328.796 4.2791 0.0878663 0
M  V30 3441 C 328.122 5.22894 1.11741 0
M  V30 3442 C 329.422 5.11314 -1.06563 0
M  V30 3443 H 331.116 2.86163 -0.880408 0
M  V30 3444 H 328.662 1.37591 -0.424819 0
M  V30 3445 H 330.615 4.0201 1.26355 0
M  V30 3446 H 329.339 2.83181 1.62715 0
M  V30 3447 H 327.998 3.65 -0.342159 0
M  V30 3448 H 327.646 4.64744 1.92412 0
M  V30 3449 H 327.346 5.84143 0.636477 0
M  V30 3450 H 328.87 5.90151 1.56697 0
M  V30 3451 H 330.284 5.69076 -0.694671 0
M  V30 3452 H 328.681 5.81671 -1.47577 0
M  V30 3453 H 329.751 4.46534 -1.89038 0
M  V30 3454 N 331.094 0.475555 1.50254 0
M  V30 3455 C 332.319 -0.0777042 2.07254 0
M  V30 3456 C 332.744 -1.3235 1.3366 0
M  V30 3457 O 332.102 -1.77152 0.385597 0
M  V30 3458 C 332.15 -0.340169 3.58992 0
M  V30 3459 O 331.254 -1.41982 3.87188 0
M  V30 3460 H 330.595 0.0149556 0.663832 0
M  V30 3461 H 333.125 0.667878 1.93392 0
M  V30 3462 H 333.135 -0.579332 4.03866 0
M  V30 3463 H 331.81 0.570167 4.11973 0
M  V30 3464 H 330.387 -1.16762 3.54148 0
M  V30 3465 N 332.573 -1.56217 0.208337 0
M  V30 3466 C 333.506 -2.15633 -0.746842 0
M  V30 3467 C 334.484 -1.09685 -1.20034 0
M  V30 3468 O 335.668 -1.3787 -1.28547 0
M  V30 3469 C 332.795 -2.72594 -2.01023 0
M  V30 3470 C 331.841 -3.91251 -1.69779 0
M  V30 3471 S 332.674 -5.28962 -0.834209 0
M  V30 3472 C 333.83 -5.89353 -2.10745 0
M  V30 3473 H 334.063 -2.96315 -0.241789 0
M  V30 3474 H 331.596 -1.54398 -0.00682183 0
M  V30 3475 H 333.554 -3.06053 -2.73572 0
M  V30 3476 H 332.215 -1.91929 -2.48641 0
M  V30 3477 H 331.408 -4.29562 -2.63614 0
M  V30 3478 H 331.01 -3.58869 -1.05303 0
M  V30 3479 H 333.302 -6.04522 -3.05875 0
M  V30 3480 H 334.245 -6.85661 -1.76845 0
M  V30 3481 H 334.653 -5.1807 -2.24196 0
M  V30 3482 N 334.051 0.0651679 -1.57465 0
M  V30 3483 C 334.981 1.07693 -2.07182 0
M  V30 3484 C 335.962 1.39962 -0.966673 0
M  V30 3485 O 337.147 1.49475 -1.2398 0
M  V30 3486 C 334.277 2.3885 -2.52127 0
M  V30 3487 C 333.231 2.20917 -3.66579 0
M  V30 3488 C 332.557 3.57515 -3.97601 0
M  V30 3489 C 333.857 1.62493 -4.9638 0
M  V30 3490 H 335.551 0.663199 -2.91962 0
M  V30 3491 H 333.097 0.317569 -1.40455 0
M  V30 3492 H 335.05 3.09928 -2.85522 0
M  V30 3493 H 333.774 2.82215 -1.64384 0
M  V30 3494 H 332.433 1.52279 -3.33477 0
M  V30 3495 H 332.081 3.98463 -3.06979 0
M  V30 3496 H 331.781 3.46353 -4.74672 0
M  V30 3497 H 333.305 4.30013 -4.33499 0
M  V30 3498 H 334.719 2.23445 -5.27963 0
M  V30 3499 H 333.116 1.62009 -5.77818 0
M  V30 3500 H 334.186 0.587041 -4.81333 0
M  V30 3501 N 335.529 1.53961 0.336706 0
M  V30 3502 C 336.94 1.62914 0.911925 0
M  V30 3503 C 337.291 0.514795 1.89326 0
M  V30 3504 O 336.416 -0.354395 2.13478 0
M  V30 3505 C 337.011 2.95304 1.66076 0
M  V30 3506 C 335.57 3.06496 2.18489 0
M  V30 3507 C 334.717 2.58403 1.00613 0
M  V30 3508 H 337.668 1.58285 0.114649 0
M  V30 3509 H 337.689 2.84727 2.5241 0
M  V30 3510 H 337.201 3.76387 0.946276 0
M  V30 3511 H 335.302 2.3006 2.93092 0
M  V30 3512 H 335.415 4.1208 2.44391 0
M  V30 3513 H 333.779 2.13977 1.38152 0
M  V30 3514 H 334.562 3.41932 0.306179 0
M  V30 3515 N 337.007 -0.598083 1.45811 0
M  V30 3516 C 337.957 -1.70272 1.51629 0
M  V30 3517 C 338.941 -1.56382 0.378629 0
M  V30 3518 O 340.133 -1.65557 0.626087 0
M  V30 3519 C 337.262 -3.09042 1.49493 0
M  V30 3520 C 336.348 -3.28284 2.68496 0
M  V30 3521 N 336.739 -3.17748 3.93535 0
M  V30 3522 C 335.037 -3.59182 2.64394 0
M  V30 3523 C 335.738 -3.38579 4.7301 0
M  V30 3524 N 334.714 -3.63016 4.04624 0
M  V30 3525 H 338.516 -1.60634 2.46118 0
M  V30 3526 H 336.03 -0.801642 1.41235 0
M  V30 3527 H 338.027 -3.88302 1.51747 0
M  V30 3528 H 336.687 -3.19823 0.560683 0
M  V30 3529 H 337.698 -2.95944 4.25014 0
M  V30 3530 H 334.375 -3.76742 1.79922 0
M  V30 3531 H 335.765 -3.35747 5.82 0
M  V30 3532 N 338.485 -1.33259 -0.841409 0
M  V30 3533 C 339.415 -1.25926 -1.96634 0
M  V30 3534 C 340.396 -0.140349 -1.6952 0
M  V30 3535 O 341.581 -0.329707 -1.91381 0
M  V30 3536 C 338.711 -0.99512 -3.32738 0
M  V30 3537 C 337.665 -2.0767 -3.74242 0
M  V30 3538 C 336.991 -1.66474 -5.08125 0
M  V30 3539 C 338.291 -3.49318 -3.88297 0
M  V30 3540 H 339.985 -2.20046 -2.03027 0
M  V30 3541 H 337.531 -1.05931 -0.975425 0
M  V30 3542 H 339.484 -0.930323 -4.11002 0
M  V30 3543 H 338.208 -0.0183004 -3.26595 0
M  V30 3544 H 336.867 -2.13187 -2.98239 0
M  V30 3545 H 336.515 -0.675012 -4.9845 0
M  V30 3546 H 336.215 -2.3885 -5.36865 0
M  V30 3547 H 337.739 -1.61455 -5.88867 0
M  V30 3548 H 339.153 -3.46316 -4.56879 0
M  V30 3549 H 337.55 -4.20158 -4.28471 0
M  V30 3550 H 338.62 -3.8801 -2.9082 0
M  V30 3551 N 339.963 1.05934 -1.16686 0
M  V30 3552 C 340.926 2.11669 -0.879144 0
M  V30 3553 C 341.926 1.60294 0.127445 0
M  V30 3554 O 343.116 1.7389 -0.103865 0
M  V30 3555 C 340.248 3.39438 -0.315425 0
M  V30 3556 H 341.441 2.38626 -1.81653 0
M  V30 3557 H 338.994 1.22058 -0.976299 0
M  V30 3558 H 339.729 3.18132 0.629468 0
M  V30 3559 H 339.514 3.78034 -1.04079 0
M  V30 3560 H 341.004 4.17391 -0.132189 0
M  V30 3561 N 341.441 0.965919 1.2453 0
M  V30 3562 C 342.718 0.543777 1.87889 0
M  V30 3563 C 343.098 -0.97909 1.87021 0
M  V30 3564 O 342.446 -1.84969 1.3416 0
M  V30 3565 C 342.656 1.13327 3.30088 0
M  V30 3566 C 344.004 1.21707 4.06783 0
M  V30 3567 O 345.028 1.08566 3.39252 0
M  V30 3568 O 343.887 1.42456 5.27606 0
M  V30 3569 H 340.981 0.181054 0.806938 0
M  V30 3570 H 343.527 1.06007 1.32516 0
M  V30 3571 H 342.299 2.17612 3.25209 0
M  V30 3572 H 341.922 0.600911 3.93033 0
M  V30 3573 N 342.919 -1.39368 0.735821 0
M  V30 3574 C 343.849 -2.33234 0.111506 0
M  V30 3575 C 344.83 -1.53954 -0.723334 0
M  V30 3576 O 346.015 -1.82344 -0.668147 0
M  V30 3577 C 343.145 -3.38057 -0.795917 0
M  V30 3578 C 342.099 -4.2795 -0.065172 0
M  V30 3579 C 341.425 -5.23479 -1.08967 0
M  V30 3580 C 342.725 -5.10741 1.09273 0
M  V30 3581 H 344.419 -2.85692 0.895571 0
M  V30 3582 H 341.965 -1.37364 0.432109 0
M  V30 3583 H 343.918 -4.02675 -1.24221 0
M  V30 3584 H 342.642 -2.8404 -1.61211 0
M  V30 3585 H 341.301 -3.64813 0.361511 0
M  V30 3586 H 340.949 -4.65758 -1.89944 0
M  V30 3587 H 340.649 -5.84472 -0.605489 0
M  V30 3588 H 342.173 -5.90974 -1.53565 0
M  V30 3589 H 343.587 -5.68699 0.724841 0
M  V30 3590 H 341.984 -5.8088 1.50659 0
M  V30 3591 H 343.054 -4.45525 1.91404 0
M  V30 3592 N 344.397 -0.483516 -1.5 0
M  V30 3593 C 345.643 0.0672592 -2.02688 0
M  V30 3594 C 345.976 1.38247 -1.36387 0
M  V30 3595 O 345.251 1.88131 -0.493675 0
M  V30 3596 C 345.534 0.238109 -3.59312 0
M  V30 3597 C 345.387 -1.099 -4.36168 0
M  V30 3598 C 346.706 0.986916 -4.28892 0
M  V30 3599 H 343.825 0.0229696 -0.736642 0
M  V30 3600 H 346.467 -0.631527 -1.79197 0
M  V30 3601 H 344.617 0.8333 -3.79458 0
M  V30 3602 H 346.289 -1.73172 -4.27562 0
M  V30 3603 H 344.532 -1.69261 -3.99416 0
M  V30 3604 H 345.203 -0.932954 -5.44059 0
M  V30 3605 H 347.679 0.482302 -4.13295 0
M  V30 3606 H 346.555 1.07527 -5.38265 0
M  V30 3607 H 346.816 2.0265 -3.92919 0
M  V30 3608 N 345.875 1.56104 -0.216619 0
M  V30 3609 C 347.1 2.0301 0.424462 0
M  V30 3610 C 347.525 1.0955 1.52907 0
M  V30 3611 O 346.883 0.0827914 1.81111 0
M  V30 3612 C 346.931 3.4819 0.937883 0
M  V30 3613 O 346.035 3.57865 2.04955 0
M  V30 3614 H 345.376 0.656925 0.0966755 0
M  V30 3615 H 347.906 2.01859 -0.33381 0
M  V30 3616 H 347.916 3.88413 1.24897 0
M  V30 3617 H 346.591 4.15699 0.129387 0
M  V30 3618 H 345.168 3.29527 1.74546 0
M  V30 3619 N 347.353 -0.0568162 1.57498 0
M  V30 3620 C 348.583 -0.764515 1.91934 0
M  V30 3621 C 348.991 -1.70877 0.81227 0
M  V30 3622 O 348.334 -1.82351 -0.222213 0
M  V30 3623 C 348.396 -1.5994 3.21962 0
M  V30 3624 C 348.06 -0.822925 4.4953 0
M  V30 3625 C 349.057 -0.135464 5.19723 0
M  V30 3626 C 346.742 -0.785666 4.96117 0
M  V30 3627 C 348.736 0.578861 6.34766 0
M  V30 3628 C 346.423 -0.0675784 6.11063 0
M  V30 3629 C 347.421 0.613471 6.80239 0
M  V30 3630 O 347.109 1.31996 7.92989 0
M  V30 3631 H 346.841 -0.221647 0.63863 0
M  V30 3632 H 349.395 -0.0268218 2.05382 0
M  V30 3633 H 347.625 -2.38026 3.04763 0
M  V30 3634 H 349.314 -2.18715 3.41934 0
M  V30 3635 H 350.08 -0.155458 4.84751 0
M  V30 3636 H 345.959 -1.30524 4.42136 0
M  V30 3637 H 349.503 1.111 6.88696 0
M  V30 3638 H 345.4 -0.0455636 6.45484 0
M  V30 3639 H 346.168 1.23077 8.09194 0
M  V30 3640 N 348.832 -1.54138 -0.328536 0
M  V30 3641 C 350.057 -1.76378 -1.09112 0
M  V30 3642 C 350.482 -0.508596 -1.81094 0
M  V30 3643 O 349.84 0.539598 -1.73084 0
M  V30 3644 C 349.888 -2.95358 -2.06872 0
M  V30 3645 O 348.992 -2.66556 -3.14677 0
M  V30 3646 H 348.333 -0.584614 -0.314838 0
M  V30 3647 H 350.863 -2.01146 -0.374348 0
M  V30 3648 H 350.873 -3.22566 -2.4983 0
M  V30 3649 H 349.548 -3.86385 -1.5388 0
M  V30 3650 H 348.125 -2.50282 -2.7643 0
M  V30 3651 N 350.31 0.590341 -1.46126 0
M  V30 3652 C 351.559 1.34499 -1.50309 0
M  V30 3653 C 351.872 1.94977 -0.156021 0
M  V30 3654 O 353.078 2.71395 -0.0756037 0
M  V30 3655 C 351.534 2.43723 -2.64815 0
M  V30 3656 C 351.142 1.89582 -4.0591 0
M  V30 3657 C 352.886 3.20579 -2.78262 0
M  V30 3658 C 350.793 2.9639 -5.11769 0
M  V30 3659 H 349.723 0.505593 -0.559368 0
M  V30 3660 H 352.374 0.630848 -1.72315 0
M  V30 3661 H 350.756 3.17902 -2.36124 0
M  V30 3662 H 351.93 1.21997 -4.44357 0
M  V30 3663 H 350.245 1.25418 -3.97063 0
M  V30 3664 H 352.842 4.00276 -3.54519 0
M  V30 3665 H 353.185 3.72684 -1.85505 0
M  V30 3666 H 353.718 2.53505 -3.06562 0
M  V30 3667 H 350.457 2.49181 -6.06291 0
M  V30 3668 H 349.977 3.62487 -4.77873 0
M  V30 3669 H 351.656 3.60474 -5.37278 0
M  V30 3670 N 351.788 1.33704 0.83433 0
M  V30 3671 C 352.72 1.20172 1.9517 0
M  V30 3672 C 353.733 0.131572 1.62267 0
M  V30 3673 O 354.922 0.382406 1.74356 0
M  V30 3674 C 352.022 0.821716 3.28787 0
M  V30 3675 C 351.195 1.98446 3.89792 0
M  V30 3676 C 350.254 1.58469 5.01771 0
M  V30 3677 O 349.28 2.29968 5.20676 0
M  V30 3678 N 350.482 0.492291 5.78409 0
M  V30 3679 H 353.247 2.16429 2.07313 0
M  V30 3680 H 350.808 1.26509 1.0103 0
M  V30 3681 H 352.8 0.536291 4.01131 0
M  V30 3682 H 351.37 -0.0503058 3.1256 0
M  V30 3683 H 350.59 2.43526 3.09982 0
M  V30 3684 H 351.878 2.76236 4.27283 0
M  V30 3685 H 351.276 -0.102349 5.65607 0
M  V30 3686 H 349.833 0.266555 6.51255 0
M  V30 3687 N 353.266 -1.05314 1.17247 0
M  V30 3688 C 354.213 -2.13031 0.888058 0
M  V30 3689 C 355.183 -1.65253 -0.167537 0
M  V30 3690 O 356.368 -1.90775 -0.0305974 0
M  V30 3691 C 353.508 -3.42702 0.406147 0
M  V30 3692 C 352.621 -4.04161 1.52572 0
M  V30 3693 C 351.756 -5.21744 0.997808 0
M  V30 3694 C 350.795 -5.75207 2.09291 0
M  V30 3695 N 349.932 -6.84094 1.57986 0
M  V30 3696 H 354.772 -2.36698 1.81048 0
M  V30 3697 H 352.309 -1.16121 0.903013 0
M  V30 3698 H 354.267 -4.17059 0.108305 0
M  V30 3699 H 352.897 -3.19222 -0.479313 0
M  V30 3700 H 351.949 -3.27253 1.93931 0
M  V30 3701 H 353.261 -4.39881 2.35172 0
M  V30 3702 H 352.415 -6.03168 0.653739 0
M  V30 3703 H 351.154 -4.87495 0.141232 0
M  V30 3704 H 350.159 -4.92414 2.44557 0
M  V30 3705 H 351.384 -6.11505 2.95362 0
M  V30 3706 H 349.33 -6.51745 0.74598 0
M  V30 3707 H 349.247 -7.18811 2.34195 0
M  V30 3708 H 350.515 -7.69172 1.26468 0
M  V30 3709 N 354.744 -0.972509 -1.24016 0
M  V30 3710 C 355.99 -0.637978 -1.92504 0
M  V30 3711 C 356.323 0.825383 -1.75787 0
M  V30 3712 O 355.598 1.59442 -1.11393 0
M  V30 3713 C 355.881 -1.01942 -3.45369 0
M  V30 3714 C 355.734 -2.53983 -3.71231 0
M  V30 3715 C 357.053 -0.55751 -4.36555 0
M  V30 3716 H 354.172 -0.233248 -0.699117 0
M  V30 3717 H 356.814 -1.21238 -1.46292 0
M  V30 3718 H 354.964 -0.530656 -3.84859 0
M  V30 3719 H 356.636 -3.10374 -3.41271 0
M  V30 3720 H 354.879 -2.96968 -3.16216 0
M  V30 3721 H 355.55 -2.75723 -4.78206 0
M  V30 3722 H 358.026 -0.977029 -4.04467 0
M  V30 3723 H 356.902 -0.85292 -5.42233 0
M  V30 3724 H 357.163 0.542328 -4.38761 0
M  V30 3725 N 356.222 1.38976 -0.743202 0
M  V30 3726 C 357.471 1.99581 -0.291592 0
M  V30 3727 C 357.784 1.59656 1.13001 0
M  V30 3728 O 358.99 2.13157 1.68156 0
M  V30 3729 C 357.446 3.56813 -0.470391 0
M  V30 3730 C 357.054 4.05695 -1.90041 0
M  V30 3731 C 358.798 4.24423 -0.0809709 0
M  V30 3732 C 356.705 5.5553 -2.02832 0
M  V30 3733 H 355.635 0.746615 -0.105272 0
M  V30 3734 H 358.286 1.58872 -0.918258 0
M  V30 3735 H 356.668 3.95359 0.225299 0
M  V30 3736 H 357.842 3.78464 -2.62872 0
M  V30 3737 H 356.157 3.50775 -2.24379 0
M  V30 3738 H 358.754 5.34474 -0.155445 0
M  V30 3739 H 359.097 4.04962 0.96497 0
M  V30 3740 H 359.63 3.9108 -0.728124 0
M  V30 3741 H 356.369 5.79881 -3.05643 0
M  V30 3742 H 355.889 5.84537 -1.34448 0
M  V30 3743 H 357.568 6.21069 -1.81335 0
M  V30 3744 N 357.7 0.491464 1.49741 0
M  V30 3745 C 358.948 -0.0563141 2.02022 0
M  V30 3746 C 359.269 -1.38363 1.37407 0
M  V30 3747 O 358.539 -1.88702 0.526166 0
M  V30 3748 H 357.119 -0.0238014 0.746621 0
M  V30 3749 H 359.781 0.646533 1.83864 0
M  V30 3750 H 358.877 -0.192967 3.11503 0
M  V30 3751 N 359.178 -1.55987 0.224894 0
M  V30 3752 C 360.425 -1.9839 -0.4059 0
M  V30 3753 C 360.753 -1.11261 -1.59535 0
M  V30 3754 O 360.008 -0.158314 -1.95059 0
M  V30 3755 C 360.307 -3.46394 -0.880106 0
M  V30 3756 C 359.973 -4.5046 0.19918 0
M  V30 3757 C 358.635 -4.7864 0.495661 0
M  V30 3758 C 360.987 -5.12855 0.928939 0
M  V30 3759 C 358.315 -5.66497 1.52636 0
M  V30 3760 C 360.667 -6.01828 1.949 0
M  V30 3761 C 359.331 -6.28351 2.25236 0
M  V30 3762 H 358.601 -0.725961 -0.148529 0
M  V30 3763 H 361.248 -1.88668 0.328113 0
M  V30 3764 H 359.553 -3.53337 -1.69294 0
M  V30 3765 H 361.25 -3.76577 -1.37808 0
M  V30 3766 H 357.84 -4.28579 -0.0420526 0
M  V30 3767 H 362.024 -4.9115 0.713129 0
M  V30 3768 H 357.28 -5.8531 1.76698 0
M  V30 3769 H 361.454 -6.49225 2.51951 0
M  V30 3770 H 359.081 -6.96226 3.05244 0
M  V30 3771 N 360.656 0.0484629 -1.57525 0
M  V30 3772 C 361.619 1.03956 -2.04269 0
M  V30 3773 C 362.619 1.30211 -0.943496 0
M  V30 3774 O 363.809 1.25539 -1.20771 0
M  V30 3775 C 360.941 2.37742 -2.44319 0
M  V30 3776 H 362.134 0.636182 -2.93075 0
M  V30 3777 H 359.687 0.294811 -1.53494 0
M  V30 3778 H 360.422 2.82866 -1.5861 0
M  V30 3779 H 360.207 2.20021 -3.24551 0
M  V30 3780 H 361.697 3.08936 -2.80978 0
M  V30 3781 N 362.134 1.5431 0.320358 0
M  V30 3782 C 363.081 1.83918 1.39438 0
M  V30 3783 C 364.051 0.686525 1.51248 0
M  V30 3784 O 365.236 0.933269 1.66417 0
M  V30 3785 C 362.376 2.075 2.75749 0
M  V30 3786 C 361.489 3.35177 2.72544 0
M  V30 3787 C 360.624 3.48704 4.00723 0
M  V30 3788 C 359.663 4.70244 3.91838 0
M  V30 3789 N 358.8 4.80679 5.11754 0
M  V30 3790 H 363.64 2.75544 1.13489 0
M  V30 3791 H 361.177 1.36459 0.549309 0
M  V30 3792 H 363.135 2.19166 3.54996 0
M  V30 3793 H 361.765 1.19163 3 0
M  V30 3794 H 360.817 3.32233 1.85271 0
M  V30 3795 H 362.129 4.24534 2.61863 0
M  V30 3796 H 361.283 3.59928 4.88402 0
M  V30 3797 H 360.022 2.57445 4.14214 0
M  V30 3798 H 359.027 4.59072 3.02544 0
M  V30 3799 H 360.252 5.6289 3.7991 0
M  V30 3800 H 358.198 3.92337 5.25745 0
M  V30 3801 H 358.115 5.64007 5.0342 0
M  V30 3802 H 359.383 4.96239 6.01138 0
M  V30 3803 N 363.613 -0.582584 1.46437 0
M  V30 3804 C 364.546 -1.70633 1.51524 0
M  V30 3805 C 365.524 -1.58349 0.369351 0
M  V30 3806 O 366.708 -1.79563 0.573516 0
M  V30 3807 C 363.835 -3.08687 1.39392 0
M  V30 3808 C 362.881 -3.3949 2.58164 0
M  V30 3809 S 363.714 -3.31548 4.20519 0
M  V30 3810 C 364.87 -4.72139 4.10896 0
M  V30 3811 H 365.103 -1.66058 2.46601 0
M  V30 3812 H 362.636 -0.761337 1.34324 0
M  V30 3813 H 364.594 -3.8833 1.33079 0
M  V30 3814 H 363.255 -3.10751 0.457436 0
M  V30 3815 H 362.448 -4.40071 2.45669 0
M  V30 3816 H 362.05 -2.67415 2.61468 0
M  V30 3817 H 364.342 -5.62527 3.77584 0
M  V30 3818 H 365.285 -4.89692 5.11476 0
M  V30 3819 H 365.693 -4.48995 3.42146 0
M  V30 3820 N 365.091 -1.34144 -0.827227 0
M  V30 3821 C 366.34 -1.25602 -1.5782 0
M  V30 3822 C 366.653 0.173445 -1.94829 0
M  V30 3823 O 367.859 0.380984 -2.68814 0
M  V30 3824 C 366.315 -2.20151 -2.84713 0
M  V30 3825 C 365.923 -3.68331 -2.55021 0
M  V30 3826 C 367.667 -2.20508 -3.62735 0
M  V30 3827 C 365.574 -4.54762 -3.78082 0
M  V30 3828 H 364.504 -0.466573 -0.592306 0
M  V30 3829 H 367.155 -1.59283 -0.911116 0
M  V30 3830 H 365.537 -1.79417 -3.53023 0
M  V30 3831 H 366.711 -4.17577 -1.94849 0
M  V30 3832 H 365.026 -3.7038 -1.90283 0
M  V30 3833 H 367.623 -2.82306 -4.54101 0
M  V30 3834 H 367.966 -1.20322 -3.98533 0
M  V30 3835 H 368.499 -2.59664 -3.01362 0
M  V30 3836 H 365.238 -5.55867 -3.47407 0
M  V30 3837 H 364.758 -4.10254 -4.37552 0
M  V30 3838 H 366.437 -4.69153 -4.45538 0
M  V30 3839 N 366.569 1.04691 -1.17803 0
M  V30 3840 C 367.98 1.59238 -0.974689 0
M  V30 3841 C 368.331 1.90306 0.477292 0
M  V30 3842 O 367.456 1.68846 1.35352 0
M  V30 3843 C 368.051 2.89318 -1.76296 0
M  V30 3844 C 366.61 3.40506 -1.60414 0
M  V30 3845 C 365.757 2.14172 -1.76141 0
M  V30 3846 H 368.708 0.874395 -1.32439 0
M  V30 3847 H 368.729 3.5944 -1.24833 0
M  V30 3848 H 368.241 2.66675 -2.81968 0
M  V30 3849 H 366.342 3.68175 -0.572519 0
M  V30 3850 H 366.455 4.14753 -2.39827 0
M  V30 3851 H 364.819 2.25176 -1.19028 0
M  V30 3852 H 365.602 1.93992 -2.83235 0
M  V30 3853 N 368.047 0.979072 1.23499 0
M  V30 3854 C 369.295 0.645941 1.91499 0
M  V30 3855 C 369.616 -0.822948 1.76784 0
M  V30 3856 O 368.886 -1.58854 1.14639 0
M  V30 3857 H 367.466 0.235919 0.708767 0
M  V30 3858 H 370.128 1.2426 1.50152 0
M  V30 3859 H 369.224 0.896411 2.9895 0
M  V30 3860 N 369.525 -1.3858 0.750561 0
M  V30 3861 C 370.772 -2.00184 0.305373 0
M  V30 3862 C 371.1 -1.59575 -1.11203 0
M  V30 3863 O 370.355 -0.823236 -1.77542 0
M  V30 3864 C 370.654 -3.55455 0.372373 0
M  V30 3865 C 370.32 -4.15765 1.745 0
M  V30 3866 C 368.982 -4.31951 2.12065 0
M  V30 3867 C 371.334 -4.49067 2.64553 0
M  V30 3868 C 368.662 -4.78734 3.39162 0
M  V30 3869 C 371.014 -4.97265 3.91038 0
M  V30 3870 C 369.678 -5.11658 4.28676 0
M  V30 3871 H 368.948 -0.732526 0.111744 0
M  V30 3872 H 371.595 -1.65673 0.960451 0
M  V30 3873 H 369.9 -3.90084 -0.366272 0
M  V30 3874 H 371.597 -4.00999 0.00953918 0
M  V30 3875 H 368.187 -4.03579 1.44297 0
M  V30 3876 H 372.371 -4.36166 2.36796 0
M  V30 3877 H 367.627 -4.88062 3.68246 0
M  V30 3878 H 371.801 -5.22003 4.60962 0
M  V30 3879 H 369.428 -5.47668 5.27222 0
M  V30 3880 N 371.003 -0.499398 -1.49478 0
M  V30 3881 C 372.419 -0.155261 -1.58843 0
M  V30 3882 C 372.619 1.34008 -1.50479 0
M  V30 3883 O 371.675 2.11589 -1.37791 0
M  V30 3884 C 372.988 -0.730636 -2.91689 0
M  V30 3885 C 374.536 -0.696599 -3.0515 0
M  V30 3886 C 375.011 -1.25001 -4.40612 0
M  V30 3887 N 376.502 -1.21064 -4.47099 0
M  V30 3888 C 377.237 -1.60905 -5.50361 0
M  V30 3889 N 376.733 -2.08331 -6.60735 0
M  V30 3890 N 378.526 -1.52331 -5.41065 0
M  V30 3891 H 370.677 -1.47162 -1.53158 0
M  V30 3892 H 372.94 -0.610309 -0.725415 0
M  V30 3893 H 372.646 -1.77928 -3.03372 0
M  V30 3894 H 372.52 -0.190161 -3.7672 0
M  V30 3895 H 374.907 0.343204 -2.93097 0
M  V30 3896 H 374.988 -1.2742 -2.21806 0
M  V30 3897 H 374.632 -2.28859 -4.53416 0
M  V30 3898 H 374.562 -0.64836 -5.22593 0
M  V30 3899 H 377.053 -0.863128 -3.67911 0
M  V30 3900 H 377.366 -2.36805 -7.35624 0
M  V30 3901 H 375.711 -2.12304 -6.6178 0
M  V30 3902 H 378.902 -1.151 -4.53729 0
M  V30 3903 H 379.075 -1.83704 -6.21415 0
M  V30 3904 N 372.481 1.55866 -0.233164 0
M  V30 3905 C 373.758 1.90471 0.444988 0
M  V30 3906 C 374.138 1.15209 1.7689 0
M  V30 3907 O 373.486 0.265119 2.26957 0
M  V30 3908 C 373.696 3.4333 0.626559 0
M  V30 3909 C 375.044 4.14319 0.92871 0
M  V30 3910 O 376.068 3.48993 0.712926 0
M  V30 3911 O 374.927 5.29846 1.33887 0
M  V30 3912 H 372.021 0.792347 0.236885 0
M  V30 3913 H 374.567 1.67437 -0.276211 0
M  V30 3914 H 373.339 3.90095 -0.306822 0
M  V30 3915 H 372.962 3.72181 1.39881 0
M  V30 3916 N 373.959 -0.0401083 1.57549 0
M  V30 3917 C 374.889 -1.04384 2.08869 0
M  V30 3918 C 375.87 -1.38407 0.988817 0
M  V30 3919 O 377.055 -1.47483 1.26342 0
M  V30 3920 C 374.185 -2.34808 2.55895 0
M  V30 3921 C 373.139 -2.15057 3.70047 0
M  V30 3922 C 372.465 -3.51145 4.03239 0
M  V30 3923 C 373.765 -1.54576 4.98902 0
M  V30 3924 H 375.459 -0.616666 2.92981 0
M  V30 3925 H 373.005 -0.295184 1.40942 0
M  V30 3926 H 374.958 -3.05346 2.90417 0
M  V30 3927 H 373.682 -2.79565 1.68853 0
M  V30 3928 H 372.341 -1.46954 3.35857 0
M  V30 3929 H 371.989 -3.93529 3.13279 0
M  V30 3930 H 371.689 -3.38758 4.80122 0
M  V30 3931 H 373.213 -4.23062 4.40285 0
M  V30 3932 H 374.627 -2.15017 5.31451 0
M  V30 3933 H 373.024 -1.52796 5.80322 0
M  V30 3934 H 374.094 -0.51039 4.82206 0
M  V30 3935 N 375.437 -1.54477 -0.31217 0
M  V30 3936 C 376.665 -1.77205 -1.068 0
M  V30 3937 C 377.08 -0.526114 -1.81321 0
M  V30 3938 O 376.437 0.503647 -1.75413 0
M  V30 3939 C 376.488 -2.97253 -2.05725 0
M  V30 3940 O 376.209 -4.1703 -1.34228 0
M  V30 3941 C 377.71 -3.32281 -2.93435 0
M  V30 3942 H 374.93 -0.591287 -0.317208 0
M  V30 3943 H 377.474 -2.01398 -0.354834 0
M  V30 3944 H 375.629 -2.753 -2.72559 0
M  V30 3945 H 376.043 -4.84636 -2.00571 0
M  V30 3946 H 377.517 -4.19551 -3.58721 0
M  V30 3947 H 377.994 -2.49945 -3.61143 0
M  V30 3948 H 378.6 -3.56353 -2.32147 0
M  V30 3949 N 376.915 0.57481 -1.46744 0
M  V30 3950 C 378.14 1.36341 -1.56288 0
M  V30 3951 C 378.565 1.86954 -0.207347 0
M  V30 3952 O 377.923 1.62006 0.813871 0
M  V30 3953 C 377.971 2.52147 -2.57787 0
M  V30 3954 O 377.075 3.53834 -2.11838 0
M  V30 3955 H 376.416 0.405713 -0.525636 0
M  V30 3956 H 378.946 0.696453 -1.92382 0
M  V30 3957 H 378.956 2.98958 -2.77648 0
M  V30 3958 H 377.631 2.14663 -3.5622 0
M  V30 3959 H 376.208 3.1345 -2.01999 0
M  V30 3960 N 378.394 1.34581 0.820102 0
M  V30 3961 C 379.304 1.28471 1.96297 0
M  V30 3962 C 380.32 0.191902 1.72939 0
M  V30 3963 O 381.496 0.418879 1.96996 0
M  V30 3964 C 378.561 1.04281 3.30645 0
M  V30 3965 C 377.622 2.22745 3.66992 0
M  V30 3966 C 376.855 1.997 4.9493 0
M  V30 3967 O 377.078 0.956656 5.6232 0
M  V30 3968 O 376.012 2.86723 5.2922 0
M  V30 3969 H 379.838 2.24624 2.04396 0
M  V30 3970 H 377.423 1.14816 0.955913 0
M  V30 3971 H 379.305 0.925841 4.11104 0
M  V30 3972 H 377.98 0.111697 3.23507 0
M  V30 3973 H 376.887 2.40003 2.86966 0
M  V30 3974 H 378.22 3.14257 3.78819 0
M  V30 3975 N 379.872 -1.04064 1.18357 0
M  V30 3976 C 381.149 -1.74252 0.888581 0
M  V30 3977 C 381.529 -2.02138 -0.60856 0
M  V30 3978 O 380.877 -1.66656 -1.56327 0
M  V30 3979 C 381.087 -3.0277 1.73584 0
M  V30 3980 C 382.435 -3.76506 1.96286 0
M  V30 3981 O 383.459 -3.12668 1.70637 0
M  V30 3982 O 382.318 -4.91243 2.39464 0
M  V30 3983 H 379.412 -0.758271 0.330082 0
M  V30 3984 H 381.958 -1.1013 1.2911 0
M  V30 3985 H 380.73 -2.78299 2.75073 0
M  V30 3986 H 380.353 -3.74631 1.33183 0
M  V30 3987 N 381.35 -0.985608 -1.22978 0
M  V30 3988 C 382.282 -0.488154 -2.23941 0
M  V30 3989 C 383.295 0.41282 -1.57479 0
M  V30 3990 O 384.484 0.216121 -1.77187 0
M  V30 3991 C 381.584 0.312611 -3.37455 0
M  V30 3992 C 380.757 -0.582741 -4.33501 0
M  V30 3993 C 379.816 0.165064 -5.25941 0
M  V30 3994 O 378.842 -0.447077 -5.67442 0
M  V30 3995 N 380.044 1.44953 -5.62111 0
M  V30 3996 H 382.809 -1.3563 -2.67254 0
M  V30 3997 H 380.37 -0.859477 -1.37203 0
M  V30 3998 H 382.362 0.821357 -3.96277 0
M  V30 3999 H 380.932 1.0818 -2.93285 0
M  V30 4000 H 380.152 -1.27225 -3.73105 0
M  V30 4001 H 381.44 -1.19275 -4.94622 0
M  V30 4002 H 380.838 1.9683 -5.30353 0
M  V30 4003 H 379.395 1.90361 -6.23383 0
M  V30 4004 N 382.828 1.3818 -0.7579 0
M  V30 4005 C 384.077 1.99261 -0.312744 0
M  V30 4006 C 384.39 1.60846 1.11301 0
M  V30 4007 O 385.596 2.14929 1.65885 0
M  V30 4008 C 384.052 3.56294 -0.50821 0
M  V30 4009 C 383.66 4.03657 -1.94333 0
M  V30 4010 C 385.404 4.24313 -0.125982 0
M  V30 4011 C 383.311 5.53347 -2.08712 0
M  V30 4012 H 382.241 0.745456 -0.113185 0
M  V30 4013 H 384.892 1.57889 -0.935056 0
M  V30 4014 H 383.274 3.95575 0.183353 0
M  V30 4015 H 384.448 3.75655 -2.66871 0
M  V30 4016 H 382.763 3.48376 -2.28086 0
M  V30 4017 H 385.36 5.34279 -0.212125 0
M  V30 4018 H 385.703 4.05962 0.921964 0
M  V30 4019 H 386.236 3.90285 -0.769563 0
M  V30 4020 H 382.975 5.76607 -3.11777 0
M  V30 4021 H 382.495 5.83078 -1.4064 0
M  V30 4022 H 384.174 6.19111 -1.87912 0
M  V30 4023 N 384.306 0.507319 1.49211 0
M  V30 4024 C 385.552 -0.0350047 2.0277 0
M  V30 4025 C 385.885 -1.3606 1.38569 0
M  V30 4026 O 385.16 -1.87321 0.523542 0
M  V30 4027 C 385.443 -0.180916 3.59645 0
M  V30 4028 C 385.296 1.16825 4.34364 0
M  V30 4029 C 386.615 -0.918558 4.30407 0
M  V30 4030 H 383.734 -0.0112473 0.736914 0
M  V30 4031 H 386.376 0.659956 1.7817 0
M  V30 4032 H 384.526 -0.772826 3.80736 0
M  V30 4033 H 386.198 1.79952 4.24753 0
M  V30 4034 H 384.441 1.75594 3.96673 0
M  V30 4035 H 385.112 1.01939 5.42506 0
M  V30 4036 H 387.588 -0.41649 4.1401 0
M  V30 4037 H 386.464 -0.989505 5.39907 0
M  V30 4038 H 386.725 -1.96373 3.96093 0
M  V30 4039 N 385.784 -1.5574 0.241426 0
M  V30 4040 C 386.714 -2.24133 -0.654722 0
M  V30 4041 C 387.695 -1.21974 -1.1856 0
M  V30 4042 O 388.88 -1.50612 -1.22595 0
M  V30 4043 C 386.01 -2.93659 -1.85423 0
M  V30 4044 C 384.964 -4.0246 -1.45636 0
M  V30 4045 C 384.29 -4.59383 -2.73626 0
M  V30 4046 C 385.59 -5.18468 -0.631506 0
M  V30 4047 H 387.284 -2.99281 -0.0844353 0
M  V30 4048 H 384.83 -1.43947 -0.0391707 0
M  V30 4049 H 386.783 -3.40203 -2.48676 0
M  V30 4050 H 385.507 -2.15991 -2.44981 0
M  V30 4051 H 384.166 -3.56676 -0.847202 0
M  V30 4052 H 383.814 -3.78422 -3.3137 0
M  V30 4053 H 383.514 -5.32826 -2.4773 0
M  V30 4054 H 385.038 -5.08658 -3.37786 0
M  V30 4055 H 386.452 -5.61272 -1.1682 0
M  V30 4056 H 384.849 -5.98266 -0.468831 0
M  V30 4057 H 385.919 -4.8358 0.357506 0
M  V30 4058 N 387.262 0.0317525 -1.57568 0
M  V30 4059 C 388.192 1.03274 -2.0942 0
M  V30 4060 C 389.173 1.3788 -0.996143 0
M  V30 4061 O 390.358 1.46811 -1.27122 0
M  V30 4062 C 387.488 2.33448 -2.57137 0
M  V30 4063 C 386.442 2.13091 -3.71182 0
M  V30 4064 C 385.768 3.49001 -4.05095 0
M  V30 4065 C 387.068 1.51928 -4.99715 0
M  V30 4066 H 388.762 0.60112 -2.93303 0
M  V30 4067 H 386.308 0.287705 -1.41097 0
M  V30 4068 H 388.261 3.03802 -2.92032 0
M  V30 4069 H 386.985 2.78665 -1.70333 0
M  V30 4070 H 385.644 1.45171 -3.36632 0
M  V30 4071 H 385.292 3.91862 -3.15362 0
M  V30 4072 H 384.992 3.36207 -4.81911 0
M  V30 4073 H 386.516 4.20721 -4.42522 0
M  V30 4074 H 387.93 2.12196 -5.32584 0
M  V30 4075 H 386.327 1.49716 -5.81124 0
M  V30 4076 H 387.397 0.484811 -4.8247 0
M  V30 4077 N 388.74 1.54641 0.303973 0
M  V30 4078 C 389.687 1.85386 1.37479 0
M  V30 4079 C 390.657 0.702528 1.50512 0
M  V30 4080 O 391.842 0.950867 1.65418 0
M  V30 4081 C 388.982 2.10413 2.73533 0
M  V30 4082 C 388.095 3.38049 2.68974 0
M  V30 4083 C 387.23 3.52934 3.97002 0
M  V30 4084 C 386.269 4.74373 3.86829 0
M  V30 4085 N 385.406 4.8608 5.06627 0
M  V30 4086 H 390.246 2.76732 1.1056 0
M  V30 4087 H 387.783 1.37034 0.534805 0
M  V30 4088 H 389.741 2.22919 3.52652 0
M  V30 4089 H 388.371 1.22338 2.98719 0
M  V30 4090 H 387.423 3.3418 1.81736 0
M  V30 4091 H 388.735 4.27288 2.57346 0
M  V30 4092 H 387.889 3.65088 4.84557 0
M  V30 4093 H 386.628 2.61824 4.1146 0
M  V30 4094 H 385.633 4.62255 2.97658 0
M  V30 4095 H 386.858 5.66888 3.73918 0
M  V30 4096 H 384.804 3.97891 5.21554 0
M  V30 4097 H 384.721 5.69315 4.9741 0
M  V30 4098 H 385.989 5.02587 5.95841 0
M  V30 4099 N 390.218 -0.567019 1.47046 0
M  V30 4100 C 391.443 -1.3551 1.57009 0
M  V30 4101 C 391.868 -1.86841 0.217259 0
M  V30 4102 O 391.226 -1.62435 -0.805268 0
M  V30 4103 C 391.274 -2.50777 2.5912 0
M  V30 4104 O 390.378 -3.52706 2.13711 0
M  V30 4105 H 389.719 -0.402919 0.52778 0
M  V30 4106 H 392.249 -0.686241 1.92748 0
M  V30 4107 H 392.259 -2.97481 2.79229 0
M  V30 4108 H 390.934 -2.12771 3.57353 0
M  V30 4109 H 389.511 -3.12374 2.03659 0
M  V30 4110 N 391.696 -1.35014 -0.812953 0
M  V30 4111 C 392.921 -1.31187 -1.60639 0
M  V30 4112 C 393.346 0.109382 -1.87782 0
M  V30 4113 O 392.704 1.07424 -1.46047 0
M  V30 4114 C 392.752 -2.11809 -2.91838 0
M  V30 4115 O 391.856 -1.49444 -3.8437 0
M  V30 4116 H 391.197 -0.450084 -0.488181 0
M  V30 4117 H 393.727 -1.77963 -1.00947 0
M  V30 4118 H 393.737 -2.23531 -3.41318 0
M  V30 4119 H 392.412 -3.15137 -2.71407 0
M  V30 4120 H 390.989 -1.46524 -3.42907 0
M  V30 4121 N 393.175 1.03435 -1.18907 0
M  V30 4122 C 394.138 2.09756 -0.923844 0
M  V30 4123 C 395.138 1.60528 0.093416 0
M  V30 4124 O 396.328 1.73631 -0.140727 0
M  V30 4125 C 393.46 3.38692 -0.387354 0
M  V30 4126 H 394.653 2.34719 -1.86674 0
M  V30 4127 H 392.206 1.19959 -1.00197 0
M  V30 4128 H 392.941 3.19396 0.561845 0
M  V30 4129 H 392.726 3.75742 -1.12074 0
M  V30 4130 H 394.216 4.17016 -0.220694 0
M  V30 4131 N 394.653 0.992116 1.22453 0
M  V30 4132 C 395.902 0.662992 1.90492 0
M  V30 4133 C 396.215 -0.808407 1.78113 0
M  V30 4134 O 397.421 -1.24908 2.41061 0
M  V30 4135 C 395.877 1.1353 3.41524 0
M  V30 4136 C 395.485 2.63187 3.62542 0
M  V30 4137 C 397.229 0.880465 4.15269 0
M  V30 4138 C 395.136 3.04024 5.0727 0
M  V30 4139 H 394.066 0.244278 0.713333 0
M  V30 4140 H 396.717 1.20157 1.38688 0
M  V30 4141 H 395.099 0.52485 3.92506 0
M  V30 4142 H 396.273 3.2957 3.22056 0
M  V30 4143 H 394.588 2.86543 3.02129 0
M  V30 4144 H 397.185 1.16128 5.21937 0
M  V30 4145 H 397.528 -0.183408 4.15896 0
M  V30 4146 H 398.061 1.45307 3.70312 0
M  V30 4147 H 394.8 4.09584 5.11782 0
M  V30 4148 H 394.32 2.42343 5.48662 0
M  V30 4149 H 395.999 2.95282 5.75689 0
M  V30 4150 N 396.131 -1.37776 0.765217 0
M  V30 4151 C 397.041 -2.34135 0.147666 0
M  V30 4152 C 398.057 -1.59854 -0.687215 0
M  V30 4153 O 399.233 -1.91983 -0.608659 0
M  V30 4154 C 396.298 -3.3901 -0.72617 0
M  V30 4155 C 395.359 -4.2912 0.124417 0
M  V30 4156 C 394.592 -5.28986 -0.707807 0
M  V30 4157 O 394.815 -5.36205 -1.94525 0
M  V30 4158 O 393.749 -6.01779 -0.12046 0
M  V30 4159 H 397.575 -2.88664 0.943758 0
M  V30 4160 H 395.16 -1.39824 0.526277 0
M  V30 4161 H 397.042 -4.03195 -1.22524 0
M  V30 4162 H 395.717 -2.86819 -1.50056 0
M  V30 4163 H 394.624 -3.68057 0.669696 0
M  V30 4164 H 395.957 -4.84598 0.861736 0
M  V30 4165 N 397.609 -0.515225 -1.4894 0
M  V30 4166 C 398.855 0.0242508 -2.02785 0
M  V30 4167 C 399.188 1.35323 -1.39289 0
M  V30 4168 O 398.463 1.87041 -0.533469 0
M  V30 4169 C 398.746 0.16184 -3.59736 0
M  V30 4170 C 398.599 -1.19127 -4.33738 0
M  V30 4171 C 399.918 0.895719 -4.30888 0
M  V30 4172 H 397.037 0.00733914 -0.736963 0
M  V30 4173 H 399.679 -0.669395 -1.77818 0
M  V30 4174 H 397.829 0.752624 -3.8114 0
M  V30 4175 H 399.501 -1.82202 -4.23792 0
M  V30 4176 H 397.744 -1.77695 -3.95736 0
M  V30 4177 H 398.415 -1.04815 -5.41957 0
M  V30 4178 H 400.891 0.394528 -4.14225 0
M  V30 4179 H 399.767 0.960859 -5.40425 0
M  V30 4180 H 400.028 1.9427 -3.97129 0
M  V30 4181 N 399.087 1.5561 -0.249682 0
M  V30 4182 C 400.336 1.98187 0.37479 0
M  V30 4183 C 400.649 1.14111 1.58865 0
M  V30 4184 O 401.855 1.46714 2.28445 0
M  V30 4185 C 400.311 3.52661 0.718192 0
M  V30 4186 C 399.919 4.45481 -0.474428 0
M  V30 4187 C 401.663 4.03888 1.3067 0
M  V30 4188 C 399.57 5.91303 -0.107026 0
M  V30 4189 H 398.5 0.740159 0.143808 0
M  V30 4190 H 401.151 1.80125 -0.350336 0
M  V30 4191 H 399.533 3.66429 1.50152 0
M  V30 4192 H 400.707 4.43473 -1.25172 0
M  V30 4193 H 399.022 4.04751 -0.978052 0
M  V30 4194 H 401.619 5.10358 1.59496 0
M  V30 4195 H 401.962 3.51401 2.23211 0
M  V30 4196 H 402.495 3.93457 0.586211 0
M  V30 4197 H 399.234 6.47833 -0.999642 0
M  V30 4198 H 398.754 5.9644 0.634013 0
M  V30 4199 H 400.433 6.46258 0.309807 0
M  V30 4200 N 400.565 -0.0233959 1.57583 0
M  V30 4201 C 401.498 -1.05549 2.02323 0
M  V30 4202 C 402.476 -1.34843 0.908626 0
M  V30 4203 O 403.66 -1.47404 1.17491 0
M  V30 4204 C 400.787 -2.38885 2.40108 0
M  V30 4205 C 399.833 -2.2541 3.62067 0
M  V30 4206 S 400.666 -1.60217 5.1097 0
M  V30 4207 C 401.822 -2.95032 5.52003 0
M  V30 4208 H 402.055 -0.674435 2.89549 0
M  V30 4209 H 399.588 -0.23355 1.52623 0
M  V30 4210 H 401.546 -3.15562 2.62547 0
M  V30 4211 H 400.207 -2.74137 1.53323 0
M  V30 4212 H 399.4 -3.23854 3.86179 0
M  V30 4213 H 399.002 -1.56876 3.39508 0
M  V30 4214 H 401.294 -3.91357 5.53033 0
M  V30 4215 H 402.237 -2.75646 6.52246 0
M  V30 4216 H 402.645 -2.97865 4.79517 0
M  V30 4217 N 402.043 -1.548 -0.295768 0
M  V30 4218 C 402.973 -1.89115 -1.36959 0
M  V30 4219 C 403.954 -0.75059 -1.52644 0
M  V30 4220 O 405.139 -1.00678 -1.66065 0
M  V30 4221 C 402.269 -2.14307 -2.73295 0
M  V30 4222 C 401.223 -3.30151 -2.72368 0
M  V30 4223 C 400.549 -3.40772 -4.12042 0
M  V30 4224 C 401.849 -4.67126 -2.33646 0
M  V30 4225 H 403.543 -2.79053 -1.08488 0
M  V30 4226 H 401.089 -1.34266 -0.520443 0
M  V30 4227 H 403.042 -2.36898 -3.48507 0
M  V30 4228 H 401.766 -1.21145 -3.03301 0
M  V30 4229 H 400.425 -3.0749 -1.99613 0
M  V30 4230 H 400.073 -2.45117 -4.39234 0
M  V30 4231 H 399.773 -4.18645 -4.12322 0
M  V30 4232 H 401.297 -3.6563 -4.89027 0
M  V30 4233 H 402.711 -4.89414 -2.98575 0
M  V30 4234 H 401.108 -5.47751 -2.45129 0
M  V30 4235 H 402.178 -4.67489 -1.28772 0
M  V30 4236 N 403.521 0.559213 -1.47345 0
M  V30 4237 C 404.937 0.884943 -1.32819 0
M  V30 4238 C 405.137 1.98988 -0.317173 0
M  V30 4239 O 404.193 2.51031 0.272011 0
M  V30 4240 C 405.506 1.28007 -2.72093 0
M  V30 4241 C 407.054 1.39161 -2.80363 0
M  V30 4242 C 407.529 1.82031 -4.20272 0
M  V30 4243 N 409.02 1.89185 -4.22804 0
M  V30 4244 C 409.755 2.2368 -5.27973 0
M  V30 4245 N 409.251 2.56802 -6.43447 0
M  V30 4246 N 411.044 2.24436 -5.15349 0
M  V30 4247 H 403.195 -0.170304 -2.11716 0
M  V30 4248 H 405.458 -0.0135247 -0.947904 0
M  V30 4249 H 405.164 0.542027 -3.47498 0
M  V30 4250 H 405.038 2.23665 -3.03733 0
M  V30 4251 H 407.425 2.12048 -2.05231 0
M  V30 4252 H 407.506 0.41696 -2.52379 0
M  V30 4253 H 407.15 1.09715 -4.95908 0
M  V30 4254 H 407.08 2.80495 -4.45679 0
M  V30 4255 H 409.571 1.65982 -3.39497 0
M  V30 4256 H 409.884 2.82144 -7.19454 0
M  V30 4257 H 408.229 2.54387 -6.46771 0
M  V30 4258 H 411.42 1.97998 -4.24163 0
M  V30 4259 H 411.593 2.50989 -5.97418 0
M  V30 4260 N 404.999 1.35443 0.805782 0
M  V30 4261 C 406.224 1.32037 1.59941 0
M  V30 4262 C 406.649 -0.0994215 1.87837 0
M  V30 4263 O 406.007 -1.06648 1.46615 0
M  V30 4264 C 406.055 2.13354 2.90711 0
M  V30 4265 O 405.159 1.5148 3.83572 0
M  V30 4266 H 404.5 0.452666 0.485787 0
M  V30 4267 H 407.03 1.78496 1.00002 0
M  V30 4268 H 407.04 2.25338 3.40128 0
M  V30 4269 H 405.715 3.16572 2.69732 0
M  V30 4270 H 404.292 1.4834 3.42125 0
M  V30 4271 N 406.477 -1.02803 1.19454 0
M  V30 4272 C 407.425 -2.13213 0.929673 0
M  V30 4273 C 408.419 -1.69011 -0.114806 0
M  V30 4274 O 409.625 -1.79967 0.0345147 0
M  V30 4275 H 406 -0.69662 0.28324 0
M  V30 4276 H 407.971 -2.32744 1.86743 0
M  V30 4277 C 406.72 -3.4429 0.485797 0
M  V30 4278 H 406.043 -3.7872 1.28105 0
M  V30 4279 H 407.483 -4.22638 0.339582 0
M  V30 4280 C 405.942 -3.27258 -0.800244 0
M  V30 4281 O 406.472 -3.55967 -1.86146 0
M  V30 4282 N 404.678 -2.80545 -0.75781 0
M  V30 4283 H 404.225 -2.57382 0.106039 0
M  V30 4284 H 404.183 -2.6953 -1.61867 0
M  V30 4285 N 407.956 -0.998596 -1.21925 0
M  V30 4286 C 408.866 -0.562736 -2.27751 0
M  V30 4287 C 409.882 0.391203 -1.69545 0
M  V30 4288 O 411.058 0.256625 -1.99758 0
M  V30 4289 C 408.123 0.11012 -3.46525 0
M  V30 4290 C 407.184 -0.887495 -4.20026 0
M  V30 4291 C 406.417 -0.246654 -5.3313 0
M  V30 4292 O 406.64 0.958088 -5.62296 0
M  V30 4293 O 405.574 -0.954374 -5.94286 0
M  V30 4294 H 409.4 -1.44329 -2.67213 0
M  V30 4295 H 406.985 -0.767135 -1.28201 0
M  V30 4296 H 408.867 0.486756 -4.18579 0
M  V30 4297 H 407.542 0.965154 -3.08976 0
M  V30 4298 H 406.449 -1.31517 -3.5022 0
M  V30 4299 H 407.782 -1.71191 -4.6147 0
M  V30 4300 N 409.434 1.37368 -0.772513 0
M  V30 4301 C 410.659 2.0447 -0.347386 0
M  V30 4302 C 411.084 1.57882 1.0225 0
M  V30 4303 O 410.442 0.73941 1.65537 0
M  V30 4304 C 410.49 3.58369 -0.400479 0
M  V30 4305 O 409.594 4.0803 0.598789 0
M  V30 4306 H 408.935 0.646773 -0.15027 0
M  V30 4307 H 411.465 1.75667 -1.04892 0
M  V30 4308 H 411.475 4.07183 -0.258045 0
M  V30 4309 H 410.15 3.91633 -1.39986 0
M  V30 4310 H 408.727 3.70534 0.419411 0
M  V30 4311 N 410.912 0.523116 1.48665 0
M  V30 4312 C 412.159 -0.0134763 2.02496 0
M  V30 4313 C 412.487 -1.3493 1.40086 0
M  V30 4314 O 411.742 -1.88286 0.533567 0
M  V30 4315 C 412.041 -0.191671 3.56886 0
M  V30 4316 C 411.707 1.06893 4.38046 0
M  V30 4317 C 410.369 1.41443 4.59943 0
M  V30 4318 C 412.721 1.90584 4.85106 0
M  V30 4319 C 410.049 2.59594 5.26144 0
M  V30 4320 C 412.401 3.07907 5.52609 0
M  V30 4321 C 411.065 3.42811 5.72745 0
M  V30 4322 H 410.335 -0.00493133 0.740984 0
M  V30 4323 H 412.982 0.687751 1.78724 0
M  V30 4324 H 411.287 -0.97561 3.79459 0
M  V30 4325 H 412.984 -0.621659 3.96152 0
M  V30 4326 H 409.574 0.789848 4.21259 0
M  V30 4327 H 413.758 1.65203 4.67997 0
M  V30 4328 H 409.014 2.86847 5.39934 0
M  V30 4329 H 413.188 3.73066 5.88043 0
M  V30 4330 H 410.815 4.34462 6.23816 0
M  V30 4331 N 412.39 -1.55475 0.257931 0
M  V30 4332 C 413.618 -2.03609 -0.367559 0
M  V30 4333 C 414.033 -1.13687 -1.50734 0
M  V30 4334 O 413.39 -0.153479 -1.81853 0
M  V30 4335 C 413.441 -3.51001 -0.864908 0
M  V30 4336 O 413.162 -4.37499 0.229465 0
M  V30 4337 C 414.663 -4.14946 -1.55997 0
M  V30 4338 H 411.883 -0.665459 -0.0860521 0
M  V30 4339 H 414.427 -2.00843 0.385014 0
M  V30 4340 H 412.582 -3.54266 -1.56762 0
M  V30 4341 H 412.996 -5.24286 -0.14998 0
M  V30 4342 H 414.47 -5.19735 -1.85956 0
M  V30 4343 H 414.947 -3.6209 -2.4857 0
M  V30 4344 H 415.553 -4.15635 -0.901543 0
M  V30 4345 N 413.868 0.0150385 -1.57593 0
M  V30 4346 C 414.801 1.04475 -2.0288 0
M  V30 4347 C 415.779 1.3436 -0.915764 0
M  V30 4348 O 416.963 1.46779 -1.18271 0
M  V30 4349 C 414.09 2.37608 -2.41371 0
M  V30 4350 C 413.136 2.23487 -3.63257 0
M  V30 4351 S 413.969 1.57505 -5.11813 0
M  V30 4352 C 415.125 2.921 -5.5356 0
M  V30 4353 H 415.358 0.65907 -2.89903 0
M  V30 4354 H 412.891 0.225452 -1.52745 0
M  V30 4355 H 414.849 3.14165 -2.64217 0
M  V30 4356 H 413.51 2.7332 -1.54775 0
M  V30 4357 H 412.703 3.21802 -3.87891 0
M  V30 4358 H 412.305 1.55074 -3.40335 0
M  V30 4359 H 414.597 3.88419 -5.55101 0
M  V30 4360 H 415.54 2.72184 -6.53698 0
M  V30 4361 H 415.948 2.95318 -4.8109 0
M  V30 4362 N 415.346 1.54954 0.287554 0
M  V30 4363 C 416.623 1.65569 1.04146 0
M  V30 4364 C 417.003 0.512672 2.0478 0
M  V30 4365 O 416.351 -0.489038 2.23205 0
M  V30 4366 C 416.561 3.04163 1.71131 0
M  V30 4367 C 417.909 3.61429 2.22832 0
M  V30 4368 O 418.933 3.06702 1.81141 0
M  V30 4369 O 417.792 4.57281 2.9926 0
M  V30 4370 H 414.886 0.671881 0.482188 0
M  V30 4371 H 417.432 1.67297 0.28457 0
M  V30 4372 H 416.204 3.78796 0.981303 0
M  V30 4373 H 415.827 3.06271 2.53543 0
M  V30 4374 N 416.824 -0.551391 1.4764 0
M  V30 4375 C 418.101 -1.31229 1.45046 0
M  V30 4376 C 418.481 -2.10563 0.150527 0
M  V30 4377 O 417.829 -2.11374 -0.867956 0
M  V30 4378 C 418.039 -2.21189 2.69956 0
M  V30 4379 C 419.387 -2.82021 3.1741 0
M  V30 4380 O 420.411 -2.31488 2.70724 0
M  V30 4381 O 419.27 -3.73885 3.98588 0
M  V30 4382 H 416.364 -0.591193 0.578291 0
M  V30 4383 H 418.91 -0.569813 1.59847 0
M  V30 4384 H 417.682 -1.62207 3.56096 0
M  V30 4385 H 417.305 -3.02722 2.57769 0
M  V30 4386 N 418.302 -1.35869 -0.798587 0
M  V30 4387 C 419.235 -1.23801 -1.91699 0
M  V30 4388 C 420.213 -0.124143 -1.62125 0
M  V30 4389 O 421.397 -0.293656 -1.86199 0
M  V30 4390 C 418.524 -0.908063 -3.263 0
M  V30 4391 C 417.57 -2.0351 -3.74815 0
M  V30 4392 S 418.403 -3.65183 -3.91665 0
M  V30 4393 C 419.559 -3.34283 -5.29156 0
M  V30 4394 H 419.792 -2.18466 -2.01643 0
M  V30 4395 H 417.325 -1.21178 -0.956833 0
M  V30 4396 H 419.283 -0.724506 -4.04056 0
M  V30 4397 H 417.944 0.0206584 -3.14093 0
M  V30 4398 H 417.137 -1.75858 -4.72324 0
M  V30 4399 H 416.739 -2.1774 -3.04081 0
M  V30 4400 H 419.031 -2.87607 -6.13424 0
M  V30 4401 H 419.974 -4.31022 -5.61806 0
M  V30 4402 H 420.382 -2.69854 -4.95822 0
M  V30 4403 N 419.78 1.02168 -1.19998 0
M  V30 4404 C 421.005 1.79833 -1.03319 0
M  V30 4405 C 421.43 1.83504 0.413281 0
M  V30 4406 O 420.788 1.26635 1.29743 0
M  V30 4407 C 420.836 3.22396 -1.61533 0
M  V30 4408 O 419.94 4.03555 -0.849519 0
M  V30 4409 H 419.281 0.554872 -0.364709 0
M  V30 4410 H 421.811 1.28542 -1.59179 0
M  V30 4411 H 421.821 3.73124 -1.65054 0
M  V30 4412 H 420.496 3.19039 -2.66809 0
M  V30 4413 H 419.073 3.62169 -0.888129 0
M  V30 4414 N 421.258 1.00505 1.21394 0
M  V30 4415 C 422.504 0.698477 1.91031 0
M  V30 4416 C 422.859 -0.762448 1.76648 0
M  V30 4417 O 422.152 -1.54554 1.13241 0
M  V30 4418 C 422.346 1.0546 3.41486 0
M  V30 4419 C 422.175 2.5486 3.70508 0
M  V30 4420 C 420.945 3.21461 3.8986 0
M  V30 4421 C 423.143 3.53019 3.74008 0
M  V30 4422 N 421.125 4.60211 4.06299 0
M  V30 4423 C 422.496 4.77279 3.95733 0
M  V30 4424 C 424.551 3.47154 3.56915 0
M  V30 4425 C 423.254 5.96388 4.02137 0
M  V30 4426 C 425.28 4.65652 3.64585 0
M  V30 4427 C 424.642 5.88717 3.86771 0
M  V30 4428 H 420.741 0.30707 0.719189 0
M  V30 4429 H 423.325 1.28753 1.46051 0
M  V30 4430 H 421.496 0.494007 3.85246 0
M  V30 4431 H 423.228 0.702765 3.98552 0
M  V30 4432 H 419.983 2.71906 3.87768 0
M  V30 4433 H 420.407 5.32216 4.1842 0
M  V30 4434 H 425.049 2.53015 3.38738 0
M  V30 4435 H 422.767 6.90919 4.19114 0
M  V30 4436 H 426.353 4.62717 3.52681 0
M  V30 4437 H 425.233 6.78877 3.92549 0
M  V30 4438 N 422.737 -1.36956 0.779787 0
M  V30 4439 C 423.965 -2.03755 0.359398 0
M  V30 4440 C 424.38 -1.58807 -1.02106 0
M  V30 4441 O 423.737 -0.773024 -1.6532 0
M  V30 4442 C 423.788 -3.59251 0.402568 0
M  V30 4443 O 423.509 -4.02557 1.72858 0
M  V30 4444 C 425.01 -4.43291 -0.0284068 0
M  V30 4445 H 422.23 -0.654148 0.149437 0
M  V30 4446 H 424.774 -1.75128 1.05595 0
M  V30 4447 H 422.929 -3.86621 -0.245478 0
M  V30 4448 H 423.343 -4.97111 1.67275 0
M  V30 4449 H 424.817 -5.51975 0.0529466 0
M  V30 4450 H 425.294 -4.25719 -1.07982 0
M  V30 4451 H 425.9 -4.21163 0.591758 0
M  V30 4452 N 424.215 -0.530993 -1.48385 0
M  V30 4453 C 425.455 0.000718982 -2.044 0
M  V30 4454 C 425.819 1.31485 -1.39913 0
M  V30 4455 O 427.02 1.93265 -1.86821 0
M  V30 4456 C 425.291 0.119177 -3.57201 0
M  V30 4457 S 426.85 0.600806 -4.34667 0
M  V30 4458 H 423.668 -0.0125473 -0.710889 0
M  V30 4459 H 426.27 -0.711783 -1.82082 0
M  V30 4460 H 424.974 -0.842061 -4.01668 0
M  V30 4461 H 424.505 0.856026 -3.83974 0
M  V30 4462 H 426.52 1.86514 -4.59812 0
M  V30 4463 N 425.693 1.55336 -0.266172 0
M  V30 4464 C 426.941 1.99003 0.35246 0
M  V30 4465 C 427.262 1.15591 1.57047 0
M  V30 4466 O 426.532 0.243268 1.94384 0
M  V30 4467 H 425.112 0.735025 0.133217 0
M  V30 4468 H 427.774 1.91367 -0.369434 0
M  V30 4469 H 426.87 3.05289 0.648453 0
M  V30 4470 N 427.171 -0.0066808 1.57599 0
M  V30 4471 C 428.119 -1.01851 2.09115 0
M  V30 4472 C 429.113 -1.36021 1.00969 0
M  V30 4473 O 430.319 -1.34663 1.19439 0
M  V30 4474 H 426.694 -0.346083 0.667631 0
M  V30 4475 H 428.665 -0.558394 2.93129 0
M  V30 4476 C 427.414 -2.30374 2.60429 0
M  V30 4477 H 426.737 -2.04947 3.43273 0
M  V30 4478 H 428.177 -2.99466 3.00161 0
M  V30 4479 C 426.636 -3.00893 1.51542 0
M  V30 4480 O 427.166 -3.91614 0.894484 0
M  V30 4481 N 425.372 -2.62603 1.2445 0
M  V30 4482 H 424.919 -1.88911 1.75129 0
M  V30 4483 H 424.877 -3.10101 0.518137 0
M  V30 4484 N 428.649 -1.55105 -0.279332 0
M  V30 4485 C 429.581 -1.83952 -1.36727 0
M  V30 4486 C 430.594 -0.723642 -1.45833 0
M  V30 4487 O 431.783 -1.00141 -1.47763 0
M  V30 4488 C 428.883 -1.98183 -2.74912 0
M  V30 4489 C 428.056 -3.28787 -2.88475 0
M  V30 4490 C 427.115 -3.33162 -4.07295 0
M  V30 4491 O 426.141 -4.06576 -3.98353 0
M  V30 4492 N 427.343 -2.60109 -5.18964 0
M  V30 4493 H 430.108 -2.77853 -1.12328 0
M  V30 4494 H 427.669 -1.54945 -0.469442 0
M  V30 4495 H 429.661 -1.98488 -3.52682 0
M  V30 4496 H 428.231 -1.11177 -2.92162 0
M  V30 4497 H 427.451 -3.41075 -1.97641 0
M  V30 4498 H 428.739 -4.14933 -2.94463 0
M  V30 4499 H 428.137 -2.00136 -5.29115 0
M  V30 4500 H 426.694 -2.66143 -5.94988 0
M  V30 4501 N 430.127 0.543554 -1.4793 0
M  V30 4502 C 431.404 1.30458 -1.4574 0
M  V30 4503 C 431.784 2.1048 -0.161692 0
M  V30 4504 O 431.132 2.11831 0.856734 0
M  V30 4505 C 431.342 2.19754 -2.71126 0
M  V30 4506 C 432.69 2.80334 -3.18901 0
M  V30 4507 O 433.714 2.30049 -2.71948 0
M  V30 4508 O 432.573 3.71766 -4.00565 0
M  V30 4509 H 429.667 0.588117 -0.581418 0
M  V30 4510 H 432.213 0.561328 -1.60147 0
M  V30 4511 H 430.985 1.60316 -3.56952 0
M  V30 4512 H 430.608 3.01351 -2.59371 0
M  V30 4513 N 431.605 1.3629 0.791371 0
M  V30 4514 C 432.835 1.33368 1.57786 0
M  V30 4515 C 433.243 -0.0875188 1.88997 0
M  V30 4516 O 432.586 -1.05427 1.50435 0
M  V30 4517 C 432.648 2.08802 2.92646 0
M  V30 4518 C 432.312 3.57903 2.84174 0
M  V30 4519 C 433.309 4.52191 2.56553 0
M  V30 4520 C 430.994 4.00762 3.02812 0
M  V30 4521 C 432.988 5.87315 2.47669 0
M  V30 4522 C 430.675 5.35977 2.93551 0
M  V30 4523 C 431.673 6.29066 2.66017 0
M  V30 4524 O 431.361 7.61798 2.56746 0
M  V30 4525 H 431.093 0.459166 0.496128 0
M  V30 4526 H 433.647 1.79952 0.990269 0
M  V30 4527 H 431.877 1.56878 3.53449 0
M  V30 4528 H 433.566 1.98762 3.53904 0
M  V30 4529 H 434.332 4.20393 2.41858 0
M  V30 4530 H 430.211 3.2868 3.2325 0
M  V30 4531 H 433.755 6.59943 2.26099 0
M  V30 4532 H 429.652 5.67384 3.07808 0
M  V30 4533 H 430.42 7.71898 2.72242 0
M  V30 4534 N 433.083 -1.0153 1.20538 0
M  V30 4535 C 434.03 -2.10098 0.955383 0
M  V30 4536 C 435 -1.65702 -0.114878 0
M  V30 4537 O 436.185 -1.90776 0.0301118 0
M  V30 4538 C 433.325 -3.41236 0.514969 0
M  V30 4539 C 432.438 -3.99102 1.65353 0
M  V30 4540 C 431.573 -5.18306 1.16329 0
M  V30 4541 C 430.612 -5.68258 2.27485 0
M  V30 4542 N 429.749 -6.78722 1.7967 0
M  V30 4543 H 434.589 -2.30818 1.88486 0
M  V30 4544 H 432.126 -1.13189 0.939499 0
M  V30 4545 H 434.084 -4.16504 0.240935 0
M  V30 4546 H 432.714 -3.20585 -0.377512 0
M  V30 4547 H 431.766 -3.20918 2.04245 0
M  V30 4548 H 433.078 -4.32177 2.49047 0
M  V30 4549 H 432.232 -6.00782 0.845302 0
M  V30 4550 H 430.971 -4.86799 0.296254 0
M  V30 4551 H 429.976 -4.84385 2.60099 0
M  V30 4552 H 431.201 -6.01798 3.14667 0
M  V30 4553 H 429.147 -6.49042 0.95295 0
M  V30 4554 H 429.064 -7.10996 2.56944 0
M  V30 4555 H 430.332 -7.64759 1.50875 0
M  V30 4556 N 434.561 -1.01147 -1.20859 0
M  V30 4557 C 435.791 -0.715872 -1.93801 0
M  V30 4558 C 436.199 0.726592 -1.74692 0
M  V30 4559 O 435.542 1.50397 -1.05482 0
M  V30 4560 C 435.604 -0.965269 -3.46299 0
M  V30 4561 C 435.268 -2.39584 -3.89164 0
M  V30 4562 C 436.265 -3.3764 -3.95342 0
M  V30 4563 C 433.95 -2.73522 -4.21297 0
M  V30 4564 C 435.944 -4.67698 -4.33056 0
M  V30 4565 C 433.631 -4.03794 -4.58687 0
M  V30 4566 C 434.629 -5.00693 -4.64538 0
M  V30 4567 O 434.317 -6.28635 -5.01072 0
M  V30 4568 H 434.049 -0.262524 -0.622942 0
M  V30 4569 H 436.603 -1.35413 -1.54443 0
M  V30 4570 H 434.833 -0.269847 -3.85757 0
M  V30 4571 H 436.522 -0.662051 -4.00464 0
M  V30 4572 H 437.288 -3.12757 -3.70686 0
M  V30 4573 H 433.167 -1.9879 -4.15937 0
M  V30 4574 H 436.711 -5.4333 -4.37537 0
M  V30 4575 H 432.608 -4.28459 -4.82797 0
M  V30 4576 H 433.376 -6.32847 -5.19083 0
M  V30 4577 N 436.039 1.36541 -0.78704 0
M  V30 4578 C 437.455 1.52571 -0.46844 0
M  V30 4579 C 437.655 1.7415 1.01361 0
M  V30 4580 O 436.711 1.77163 1.79915 0
M  V30 4581 C 438.024 2.71299 -1.29682 0
M  V30 4582 C 439.572 2.85169 -1.29027 0
M  V30 4583 C 440.047 4.06898 -2.10233 0
M  V30 4584 N 441.538 4.1404 -2.07666 0
M  V30 4585 C 442.273 5.07301 -2.67271 0
M  V30 4586 N 441.769 6.06021 -3.35724 0
M  V30 4587 N 443.562 4.99898 -2.57018 0
M  V30 4588 H 435.713 1.20788 -1.74711 0
M  V30 4589 H 437.976 0.589364 -0.742532 0
M  V30 4590 H 437.682 2.61868 -2.34773 0
M  V30 4591 H 437.556 3.6539 -0.936479 0
M  V30 4592 H 439.943 2.94062 -0.247284 0
M  V30 4593 H 440.024 1.91992 -1.69035 0
M  V30 4594 H 439.668 3.98766 -3.1456 0
M  V30 4595 H 439.598 4.99218 -1.67597 0
M  V30 4596 H 442.089 3.43357 -1.57843 0
M  V30 4597 H 442.402 6.73741 -3.78541 0
M  V30 4598 H 440.747 6.06253 -3.39826 0
M  V30 4599 H 443.938 4.21724 -2.03142 0
M  V30 4600 H 444.111 5.72392 -3.03761 0
M  V30 4601 N 437.518 0.538854 1.48102 0
M  V30 4602 C 438.764 0.00801365 2.02798 0
M  V30 4603 C 439.097 -1.3309 1.41424 0
M  V30 4604 O 438.372 -1.86169 0.563158 0
M  V30 4605 C 438.655 -0.104589 3.59948 0
M  V30 4606 C 438.508 1.26012 4.31788 0
M  V30 4607 C 439.827 -0.827055 4.32259 0
M  V30 4608 H 436.946 0.00438624 0.736987 0
M  V30 4609 H 439.588 0.6976 1.7673 0
M  V30 4610 H 437.738 -0.691893 3.82289 0
M  V30 4611 H 439.41 1.88922 4.2084 0
M  V30 4612 H 437.653 1.83968 3.92859 0
M  V30 4613 H 438.324 1.13424 5.40221 0
M  V30 4614 H 440.8 -0.328578 4.14801 0
M  V30 4615 H 439.676 -0.87476 5.41885 0
M  V30 4616 H 439.937 -1.87927 4.0017 0
M  V30 4617 N 438.996 -1.55193 0.274407 0
M  V30 4618 C 440.221 -2.04446 -0.348824 0
M  V30 4619 C 440.646 -1.15149 -1.48735 0
M  V30 4620 O 440.004 -0.149952 -1.80679 0
M  V30 4621 C 440.052 -3.51431 -0.808009 0
M  V30 4622 O 439.156 -3.65225 -1.91531 0
M  V30 4623 H 438.497 -0.66006 -0.0722276 0
M  V30 4624 H 441.027 -2.00481 0.408498 0
M  V30 4625 H 441.037 -3.92781 -1.10395 0
M  V30 4626 H 439.712 -4.15892 0.0249865 0
M  V30 4627 H 438.289 -3.35778 -1.62196 0
M  V30 4628 N 440.474 -0.00167713 -1.576 0
M  V30 4629 C 441.751 0.719951 -1.81868 0
M  V30 4630 C 442.131 1.91895 -0.879747 0
M  V30 4631 O 441.479 2.28389 0.0711423 0
M  V30 4632 C 441.689 1.12409 -3.30402 0
M  V30 4633 C 443.037 1.52724 -3.96182 0
M  V30 4634 O 444.061 1.21784 -3.34734 0
M  V30 4635 O 442.92 2.10265 -5.04431 0
M  V30 4636 H 440.014 0.350707 -0.748955 0
M  V30 4637 H 442.56 -0.0272597 -1.69678 0
M  V30 4638 H 441.332 0.269532 -3.90371 0
M  V30 4639 H 440.955 1.93035 -3.47596 0
M  V30 4640 N 441.952 1.55251 0.271103 0
M  V30 4641 C 443.198 1.76207 1.00394 0
M  V30 4642 C 443.531 0.562604 1.85872 0
M  V30 4643 O 442.806 -0.439785 1.89463 0
M  V30 4644 C 443.089 3.06828 1.8849 0
M  V30 4645 C 442.942 4.37134 1.05992 0
M  V30 4646 C 444.261 3.33503 2.87165 0
M  V30 4647 H 441.38 0.641086 0.363562 0
M  V30 4648 H 444.022 1.87982 0.276189 0
M  V30 4649 H 442.172 2.96921 2.5054 0
M  V30 4650 H 443.844 4.59001 0.459978 0
M  V30 4651 H 442.087 4.32275 0.363443 0
M  V30 4652 H 442.758 5.2486 1.70955 0
M  V30 4653 H 445.234 3.43215 2.3525 0
M  V30 4654 H 444.11 4.2616 3.45946 0
M  V30 4655 H 444.371 2.53235 3.62387 0
M  V30 4656 N 443.43 -0.535701 1.48216 0
M  V30 4657 C 444.658 -1.31671 1.59594 0
M  V30 4658 C 445.073 -1.87083 0.254056 0
M  V30 4659 O 444.43 -1.66112 -0.755854 0
M  V30 4660 C 444.481 -2.47158 2.63809 0
M  V30 4661 O 444.202 -1.94032 3.92789 0
M  V30 4662 C 445.703 -3.39062 2.85573 0
M  V30 4663 H 442.923 -0.400623 0.538277 0
M  V30 4664 H 445.467 -0.646827 1.94001 0
M  V30 4665 H 443.622 -3.10043 2.32276 0
M  V30 4666 H 444.036 -2.69585 4.49916 0
M  V30 4667 H 445.51 -4.16459 3.62306 0
M  V30 4668 H 445.987 -3.93941 1.94184 0
M  V30 4669 H 446.593 -2.81975 3.18387 0
M  V30 4670 N 444.908 -1.36708 -0.784132 0
M  V30 4671 C 445.855 -1.31466 -1.89698 0
M  V30 4672 C 446.825 -0.18239 -1.65096 0
M  V30 4673 O 448.01 -0.369762 -1.87183 0
M  V30 4674 C 445.15 -1.1151 -3.26588 0
M  V30 4675 C 444.263 -2.33859 -3.63227 0
M  V30 4676 C 443.398 -2.06873 -4.89262 0
M  V30 4677 C 442.437 -3.25154 -5.18595 0
M  V30 4678 N 441.574 -2.978 -6.35814 0
M  V30 4679 H 446.414 -2.26619 -1.93515 0
M  V30 4680 H 443.951 -1.12625 -0.946256 0
M  V30 4681 H 445.909 -0.979653 -4.05535 0
M  V30 4682 H 444.539 -0.200103 -3.22179 0
M  V30 4683 H 443.591 -2.58188 -2.79362 0
M  V30 4684 H 444.903 -3.22109 -3.8085 0
M  V30 4685 H 444.057 -1.90289 -5.76086 0
M  V30 4686 H 442.796 -1.15942 -4.73718 0
M  V30 4687 H 441.801 -3.42292 -4.30251 0
M  V30 4688 H 443.026 -4.1692 -5.36055 0
M  V30 4689 H 440.972 -2.09485 -6.21653 0
M  V30 4690 H 440.889 -3.7959 -6.53794 0
M  V30 4691 H 442.157 -2.84805 -7.25607 0
M  V30 4692 N 446.386 1.0089 -1.21074 0
M  V30 4693 C 447.349 2.0775 -0.968129 0
M  V30 4694 C 448.349 1.6069 0.0593445 0
M  V30 4695 O 449.539 1.73293 -0.177525 0
M  V30 4696 C 446.671 3.37794 -0.459108 0
M  V30 4697 H 447.864 2.30707 -1.9161 0
M  V30 4698 H 445.417 1.17807 -1.02719 0
M  V30 4699 H 446.152 3.20516 0.49397 0
M  V30 4700 H 445.937 3.7328 -1.20019 0
M  V30 4701 H 447.427 4.16454 -0.309099 0
M  V30 4702 N 447.864 1.01787 1.20321 0
M  V30 4703 C 449.112 0.706538 1.89347 0
M  V30 4704 C 449.433 -0.766289 1.79313 0
M  V30 4705 O 448.703 -1.55126 1.19635 0
M  V30 4706 H 447.283 0.258348 0.700903 0
M  V30 4707 H 449.945 1.28974 1.46122 0
M  V30 4708 H 449.041 0.991066 2.95946 0
M  V30 4709 N 449.342 -1.36122 0.79427 0
M  V30 4710 C 450.292 -2.27373 0.169017 0
M  V30 4711 C 451.276 -1.4719 -0.649913 0
M  V30 4712 O 452.468 -1.69518 -0.50919 0
M  V30 4713 C 449.597 -3.36264 -0.691455 0
M  V30 4714 C 448.683 -4.2388 0.13653 0
M  V30 4715 N 449.074 -4.91519 1.19345 0
M  V30 4716 C 447.372 -4.45921 -0.0838499 0
M  V30 4717 C 448.073 -5.56369 1.6979 0
M  V30 4718 N 447.049 -5.34204 1.00634 0
M  V30 4719 H 450.851 -2.77154 0.977897 0
M  V30 4720 H 448.365 -1.49504 0.634208 0
M  V30 4721 H 450.362 -4.00572 -1.15534 0
M  V30 4722 H 449.022 -2.88037 -1.49883 0
M  V30 4723 H 450.033 -4.9334 1.57594 0
M  V30 4724 H 446.71 -4.08518 -0.861341 0
M  V30 4725 H 448.1 -6.20368 2.58055 0
M  V30 4726 N 450.82 -0.546701 -1.47814 0
M  V30 4727 C 452.045 -0.021268 -2.07389 0
M  V30 4728 C 452.47 1.25822 -1.39822 0
M  V30 4729 O 451.828 1.75111 -0.46968 0
M  V30 4730 C 451.876 0.168502 -3.60206 0
M  V30 4731 O 450.98 1.23347 -3.93522 0
M  V30 4732 H 450.321 -0.0466108 -0.662362 0
M  V30 4733 H 452.851 -0.759387 -1.89985 0
M  V30 4734 H 452.861 0.385982 -4.0617 0
M  V30 4735 H 451.536 -0.766075 -4.08784 0
M  V30 4736 H 450.113 0.997319 -3.59316 0
M  V30 4737 N 452.299 1.55045 -0.282633 0
M  V30 4738 C 453.229 2.2579 0.595066 0
M  V30 4739 C 454.21 1.25074 1.15284 0
M  V30 4740 O 455.395 1.5381 1.18559 0
M  V30 4741 C 452.525 2.98472 1.77572 0
M  V30 4742 C 451.479 4.0618 1.34914 0
M  V30 4743 C 450.805 4.66477 2.6135 0
M  V30 4744 C 452.105 5.1996 0.493821 0
M  V30 4745 H 453.799 2.994 0.00505653 0
M  V30 4746 H 451.345 1.44 0.000992001 0
M  V30 4747 H 453.298 3.46677 2.39568 0
M  V30 4748 H 452.022 2.2241 2.39168 0
M  V30 4749 H 450.681 3.58797 0.752338 0
M  V30 4750 H 450.329 3.87074 3.2122 0
M  V30 4751 H 450.029 5.39207 2.33516 0
M  V30 4752 H 451.553 5.17435 3.24181 0
M  V30 4753 H 452.967 5.64172 1.01898 0
M  V30 4754 H 451.364 5.99299 0.310047 0
M  V30 4755 H 452.434 4.82462 -0.485593 0
M  V30 4756 N 453.777 0.010035 1.57597 0
M  V30 4757 C 454.687 -0.994226 2.12491 0
M  V30 4758 C 455.703 -1.37013 1.07254 0
M  V30 4759 O 456.879 -1.45542 1.3921 0
M  V30 4760 C 453.944 -2.2642 2.62555 0
M  V30 4761 C 453.005 -1.95049 3.82432 0
M  V30 4762 C 452.238 -3.15991 4.30099 0
M  V30 4763 O 452.461 -4.28015 3.7704 0
M  V30 4764 O 451.395 -2.99403 5.22151 0
M  V30 4765 H 455.221 -0.557549 2.98538 0
M  V30 4766 H 452.806 -0.209413 1.47925 0
M  V30 4767 H 454.688 -3.01009 2.9491 0
M  V30 4768 H 453.363 -2.69306 1.796 0
M  V30 4769 H 452.27 -1.17904 3.55034 0
M  V30 4770 H 453.603 -1.56992 4.66491 0
M  V30 4771 N 455.255 -1.55392 -0.262866 0
M  V30 4772 C 456.185 -1.91978 -1.32917 0
M  V30 4773 C 457.166 -0.7828 -1.51017 0
M  V30 4774 O 458.351 -1.04178 -1.63892 0
M  V30 4775 C 455.481 -2.20055 -2.68687 0
M  V30 4776 C 454.435 -3.35854 -2.65304 0
M  V30 4777 C 453.761 -3.49435 -4.04721 0
M  V30 4778 C 455.061 -4.71977 -2.23685 0
M  V30 4779 H 456.755 -2.81292 -1.02544 0
M  V30 4780 H 454.301 -1.3534 -0.491846 0
M  V30 4781 H 456.254 -2.44237 -3.43404 0
M  V30 4782 H 454.978 -1.27551 -3.00663 0
M  V30 4783 H 453.637 -3.11655 -1.93045 0
M  V30 4784 H 453.285 -2.54379 -4.33936 0
M  V30 4785 H 452.985 -4.27297 -4.0335 0
M  V30 4786 H 454.509 -3.7592 -4.81161 0
M  V30 4787 H 455.923 -4.95637 -2.88127 0
M  V30 4788 H 454.32 -5.52828 -2.33456 0
M  V30 4789 H 455.39 -4.70115 -1.18827 0
M  V30 4790 N 456.733 0.527833 -1.48498 0
M  V30 4791 C 457.982 1.28003 -1.55878 0
M  V30 4792 C 458.295 1.9414 -0.238577 0
M  V30 4793 O 459.501 2.7083 -0.190643 0
M  V30 4794 C 457.957 2.32272 -2.74914 0
M  V30 4795 C 457.565 1.72196 -4.13585 0
M  V30 4796 C 459.309 3.08488 -2.91608 0
M  V30 4797 C 457.216 2.74417 -5.23879 0
M  V30 4798 H 456.146 0.481413 -0.580308 0
M  V30 4799 H 458.797 0.557195 -1.74836 0
M  V30 4800 H 457.179 3.07601 -2.49395 0
M  V30 4801 H 458.353 1.03041 -4.49132 0
M  V30 4802 H 456.668 1.08464 -4.02025 0
M  V30 4803 H 459.265 3.84879 -3.71177 0
M  V30 4804 H 459.608 3.64481 -2.01145 0
M  V30 4805 H 460.141 2.40274 -3.17038 0
M  V30 4806 H 456.88 2.23242 -6.16314 0
M  V30 4807 H 456.4 3.41893 -4.92818 0
M  V30 4808 H 458.079 3.37362 -5.52083 0
M  V30 4809 N 458.211 1.37122 0.776871 0
M  V30 4810 C 459.121 1.34651 1.9211 0
M  V30 4811 C 460.137 0.246824 1.7224 0
M  V30 4812 O 461.313 0.48134 1.95563 0
M  V30 4813 C 458.378 1.14748 3.2716 0
M  V30 4814 C 457.439 2.34308 3.5972 0
M  V30 4815 C 456.672 2.15345 4.88326 0
M  V30 4816 O 456.895 1.13507 5.58992 0
M  V30 4817 O 455.829 3.03414 5.1983 0
M  V30 4818 H 459.655 2.31013 1.97146 0
M  V30 4819 H 457.24 1.17799 0.918901 0
M  V30 4820 H 459.122 1.05616 4.0795 0
M  V30 4821 H 457.797 0.214562 3.22988 0
M  V30 4822 H 456.704 2.49011 2.79185 0
M  V30 4823 H 458.037 3.26149 3.68629 0
M  V30 4824 N 459.689 -1.00246 1.21608 0
M  V30 4825 C 461.1 -1.55511 1.03312 0
M  V30 4826 C 461.451 -1.91946 -0.406332 0
M  V30 4827 O 460.576 -1.73753 -1.28992 0
M  V30 4828 C 461.171 -2.82576 1.86913 0
M  V30 4829 C 459.73 -3.34318 1.72941 0
M  V30 4830 C 458.877 -2.07487 1.83968 0
M  V30 4831 H 461.828 -0.824638 1.35593 0
M  V30 4832 H 461.849 -3.54559 1.38087 0
M  V30 4833 H 461.361 -2.56026 2.91672 0
M  V30 4834 H 459.462 -3.65797 0.70877 0
M  V30 4835 H 459.575 -4.05566 2.55055 0
M  V30 4836 H 457.939 -2.20603 1.27304 0
M  V30 4837 H 458.722 -1.83346 2.9024 0
M  V30 4838 N 461.167 -1.02423 -1.1978 0
M  V30 4839 C 462.097 -0.62157 -2.25075 0
M  V30 4840 C 463.078 0.367148 -1.6609 0
M  V30 4841 O 464.263 0.250892 -1.92573 0
M  V30 4842 C 461.393 0.0331826 -3.47284 0
M  V30 4843 C 460.347 -0.877323 -4.18912 0
M  V30 4844 C 459.673 -0.0879296 -5.34628 0
M  V30 4845 C 460.973 -2.18892 -4.74219 0
M  V30 4846 H 462.667 -1.50179 -2.59011 0
M  V30 4847 H 460.213 -0.723547 -1.24502 0
M  V30 4848 H 462.166 0.326488 -4.20133 0
M  V30 4849 H 460.89 0.948164 -3.12534 0
M  V30 4850 H 459.549 -1.15475 -3.47938 0
M  V30 4851 H 459.197 0.828941 -4.96123 0
M  V30 4852 H 458.897 -0.694359 -5.83483 0
M  V30 4853 H 460.421 0.198743 -6.10276 0
M  V30 4854 H 461.835 -1.95746 -5.38847 0
M  V30 4855 H 460.232 -2.74686 -5.33542 0
M  V30 4856 H 461.302 -2.84674 -3.92541 0
M  V30 4857 N 462.645 1.35699 -0.801477 0
M  V30 4858 C 463.894 1.98165 -0.375979 0
M  V30 4859 C 464.207 1.64306 1.06127 0
M  V30 4860 O 465.413 2.20097 1.58964 0
M  V30 4861 C 463.869 3.54497 -0.621305 0
M  V30 4862 C 463.477 3.9727 -2.07076 0
M  V30 4863 C 465.221 4.23697 -0.26091 0
M  V30 4864 C 463.128 5.46427 -2.26211 0
M  V30 4865 H 462.058 0.741478 -0.136844 0
M  V30 4866 H 464.709 1.54834 -0.984814 0
M  V30 4867 H 463.091 3.95958 0.0574112 0
M  V30 4868 H 464.265 3.66974 -2.78687 0
M  V30 4869 H 462.58 3.40943 -2.39054 0
M  V30 4870 H 465.177 5.33334 -0.381994 0
M  V30 4871 H 465.52 4.0869 0.792344 0
M  V30 4872 H 466.053 3.87639 -0.893339 0
M  V30 4873 H 462.792 5.66396 -3.29963 0
M  V30 4874 H 462.312 5.78309 -1.59119 0
M  V30 4875 H 463.991 6.12819 -2.07513 0
M  V30 4876 N 464.123 0.554532 1.47522 0
M  V30 4877 C 465.07 -0.19466 2.29978 0
M  V30 4878 C 466.04 -0.910882 1.38896 0
M  V30 4879 O 467.225 -0.907102 1.67858 0
M  V30 4880 C 464.365 -1.22035 3.22802 0
M  V30 4881 C 463.478 -0.510474 4.28973 0
M  V30 4882 C 462.613 -1.52123 5.08952 0
M  V30 4883 C 461.652 -0.796173 6.069 0
M  V30 4884 N 460.789 -1.75363 6.79847 0
M  V30 4885 H 465.629 0.51461 2.93523 0
M  V30 4886 H 463.166 0.265607 1.44682 0
M  V30 4887 H 465.124 -1.8276 3.7504 0
M  V30 4888 H 463.754 -1.89769 2.61127 0
M  V30 4889 H 462.806 0.211234 3.79813 0
M  V30 4890 H 464.118 0.0576503 4.98767 0
M  V30 4891 H 463.272 -2.20207 5.65326 0
M  V30 4892 H 462.011 -2.12327 4.39054 0
M  V30 4893 H 461.016 -0.101388 5.49707 0
M  V30 4894 H 462.241 -0.199911 6.78806 0
M  V30 4895 H 460.187 -2.3443 6.12682 0
M  V30 4896 H 460.104 -1.23759 7.45801 0
M  V30 4897 H 461.372 -2.4257 7.40797 0
M  V30 4898 N 465.601 -1.54893 0.290851 0
M  V30 4899 C 466.848 -1.99933 -0.321391 0
M  V30 4900 C 467.176 -1.17927 -1.54672 0
M  V30 4901 O 466.431 -0.240902 -1.94212 0
M  V30 4902 C 466.73 -3.49815 -0.732397 0
M  V30 4903 C 466.396 -4.4921 0.390056 0
M  V30 4904 C 465.058 -4.76107 0.698223 0
M  V30 4905 C 467.41 -5.08453 1.14562 0
M  V30 4906 C 464.738 -5.59514 1.76526 0
M  V30 4907 C 467.09 -5.9302 2.2025 0
M  V30 4908 C 465.754 -6.18232 2.51684 0
M  V30 4909 H 465.024 -0.731608 -0.117605 0
M  V30 4910 H 467.671 -1.87107 0.407839 0
M  V30 4911 H 465.976 -3.60199 -1.54155 0
M  V30 4912 H 467.673 -3.82083 -1.21712 0
M  V30 4913 H 464.263 -4.28372 0.13976 0
M  V30 4914 H 468.447 -4.87683 0.920801 0
M  V30 4915 H 463.703 -5.77289 2.01364 0
M  V30 4916 H 467.877 -6.37955 2.7926 0
M  V30 4917 H 465.504 -6.82653 3.34499 0
M  V30 4918 N 467.08 -0.0183926 -1.57589 0
M  V30 4919 C 468.012 0.995557 -2.06449 0
M  V30 4920 C 469.025 1.29556 -0.985849 0
M  V30 4921 O 470.214 1.2621 -1.26227 0
M  V30 4922 C 467.314 2.32572 -2.46502 0
M  V30 4923 C 466.487 2.21245 -3.77319 0
M  V30 4924 C 465.546 3.37104 -4.04039 0
M  V30 4925 O 464.572 3.14468 -4.74445 0
M  V30 4926 N 465.774 4.60553 -3.53372 0
M  V30 4927 H 468.539 0.578746 -2.94059 0
M  V30 4928 H 466.1 0.168603 -1.6102 0
M  V30 4929 H 468.092 3.08887 -2.61478 0
M  V30 4930 H 466.662 2.65931 -1.64315 0
M  V30 4931 H 465.882 1.29723 -3.72244 0
M  V30 4932 H 467.17 2.10868 -4.63047 0
M  V30 4933 H 466.568 4.81839 -2.96391 0
M  V30 4934 H 465.125 5.34072 -3.73644 0
M  V30 4935 N 468.558 1.5553 0.254621 0
M  V30 4936 C 469.804 1.77262 0.985193 0
M  V30 4937 C 470.137 0.582286 1.85265 0
M  V30 4938 O 469.412 -0.419666 1.89919 0
M  V30 4939 C 469.695 3.0881 1.85225 0
M  V30 4940 C 469.548 4.38233 1.0135 0
M  V30 4941 C 470.867 3.3653 2.83612 0
M  V30 4942 H 467.986 0.644906 0.356742 0
M  V30 4943 H 470.628 1.88264 0.256236 0
M  V30 4944 H 468.778 2.99562 2.47376 0
M  V30 4945 H 470.45 4.59463 0.411269 0
M  V30 4946 H 468.693 4.32636 0.317574 0
M  V30 4947 H 469.364 5.26644 1.65379 0
M  V30 4948 H 471.84 3.45691 2.31596 0
M  V30 4949 H 470.716 4.29805 3.41407 0
M  V30 4950 H 470.977 2.57064 3.59681 0
M  V30 4951 N 470.036 -0.519951 1.48776 0
M  V30 4952 C 471.284 -1.2727 1.56993 0
M  V30 4953 C 471.605 -1.9339 0.25004 0
M  V30 4954 O 470.875 -1.81822 -0.729216 0
M  V30 4955 H 469.455 -0.472732 0.578389 0
M  V30 4956 H 472.117 -0.604234 1.85297 0
M  V30 4957 H 471.213 -2.04669 2.3562 0
M  V30 4958 N 471.514 -1.37532 -0.769588 0
M  V30 4959 C 472.444 -1.36172 -1.89682 0
M  V30 4960 C 473.425 -0.23001 -1.68538 0
M  V30 4961 O 474.61 -0.43069 -1.89364 0
M  V30 4962 C 471.74 -1.1701 -3.26995 0
M  V30 4963 C 470.694 -2.27216 -3.62708 0
M  V30 4964 C 470.02 -1.93174 -4.98586 0
M  V30 4965 C 471.32 -3.6941 -3.69234 0
M  V30 4966 H 473.014 -2.30499 -1.91078 0
M  V30 4967 H 470.56 -1.10953 -0.917902 0
M  V30 4968 H 472.513 -1.14688 -4.05493 0
M  V30 4969 H 471.237 -0.191395 -3.26039 0
M  V30 4970 H 469.896 -2.28697 -2.86519 0
M  V30 4971 H 469.544 -0.938281 -4.94171 0
M  V30 4972 H 469.244 -2.66973 -5.23449 0
M  V30 4973 H 470.768 -1.92443 -5.79481 0
M  V30 4974 H 472.182 -3.70047 -4.37879 0
M  V30 4975 H 470.579 -4.4228 -4.05597 0
M  V30 4976 H 471.649 -4.0288 -2.69844 0
M  V30 4977 N 472.992 0.995999 -1.22138 0
M  V30 4978 C 473.939 2.08551 -0.988687 0
M  V30 4979 C 474.909 1.65864 0.0885021 0
M  V30 4980 O 476.094 1.90704 -0.0604589 0
M  V30 4981 C 473.234 3.40374 -0.569191 0
M  V30 4982 C 472.347 3.96421 -1.71681 0
M  V30 4983 C 471.482 5.1639 -1.2456 0
M  V30 4984 C 470.521 5.64567 -2.36497 0
M  V30 4985 N 469.658 6.75777 -1.90445 0
M  V30 4986 H 474.498 2.2779 -1.92135 0
M  V30 4987 H 472.035 1.1168 -0.957388 0
M  V30 4988 H 473.993 4.16068 -0.307166 0
M  V30 4989 H 472.623 3.21145 0.326462 0
M  V30 4990 H 471.675 3.17628 -2.09324 0
M  V30 4991 H 472.987 4.2816 -2.55891 0
M  V30 4992 H 472.141 5.99362 -0.940774 0
M  V30 4993 H 470.88 4.86266 -0.373662 0
M  V30 4994 H 469.885 4.80185 -2.67772 0
M  V30 4995 H 471.11 5.96716 -3.24202 0
M  V30 4996 H 469.056 6.47443 -1.05609 0
M  V30 4997 H 468.973 7.06818 -2.68223 0
M  V30 4998 H 470.241 7.62262 -1.63022 0
M  V30 4999 N 474.47 1.03057 1.19235 0
M  V30 5000 C 475.417 0.612832 2.22515 0
M  V30 5001 C 476.387 -0.374224 1.61829 0
M  V30 5002 O 477.572 -0.270501 1.88873 0
M  V30 5003 C 474.712 -0.028475 3.45088 0
M  V30 5004 C 473.825 1.00483 4.20151 0
M  V30 5005 C 472.96 0.333102 5.30155 0
M  V30 5006 C 471.999 1.3522 5.96977 0
M  V30 5007 N 471.136 0.70616 6.9854 0
M  V30 5008 H 475.976 1.49812 2.57605 0
M  V30 5009 H 473.513 0.749658 1.26564 0
M  V30 5010 H 475.471 -0.417548 4.15105 0
M  V30 5011 H 474.101 -0.877334 3.10649 0
M  V30 5012 H 473.153 1.51194 3.49062 0
M  V30 5013 H 474.465 1.77929 4.65986 0
M  V30 5014 H 473.619 -0.110725 6.06599 0
M  V30 5015 H 472.358 -0.473547 4.85396 0
M  V30 5016 H 471.363 1.80627 5.19282 0
M  V30 5017 H 472.588 2.16037 6.4382 0
M  V30 5018 H 470.534 -0.0803667 6.55951 0
M  V30 5019 H 470.451 1.41848 7.42573 0
M  V30 5020 H 471.719 0.286391 7.78974 0
M  V30 5021 N 475.948 -1.35272 0.808662 0
M  V30 5022 C 476.878 -2.32315 0.234981 0
M  V30 5023 C 477.859 -1.57572 -0.64071 0
M  V30 5024 O 479.044 -1.8563 -0.570551 0
M  V30 5025 C 476.174 -3.41801 -0.615601 0
M  V30 5026 C 475.128 -4.27694 0.161767 0
M  V30 5027 C 474.454 -5.28519 -0.810649 0
M  V30 5028 C 475.754 -5.04231 1.36193 0
M  V30 5029 H 477.448 -2.80543 1.04575 0
M  V30 5030 H 474.994 -1.3488 0.504315 0
M  V30 5031 H 476.947 -4.08693 -1.02702 0
M  V30 5032 H 475.671 -2.92186 -1.45928 0
M  V30 5033 H 474.33 -3.62384 0.554382 0
M  V30 5034 H 473.978 -4.75171 -1.64988 0
M  V30 5035 H 473.678 -5.8686 -0.294822 0
M  V30 5036 H 475.202 -5.98283 -1.22023 0
M  V30 5037 H 476.616 -5.64058 1.02528 0
M  V30 5038 H 475.013 -5.72077 1.81239 0
M  V30 5039 H 476.083 -4.34753 2.14751 0
M  V30 5040 N 477.426 -0.562348 -1.47226 0
M  V30 5041 C 478.374 0.195476 -2.31777 0
M  V30 5042 C 479.368 0.90433 -1.43242 0
M  V30 5043 O 480.574 0.825031 -1.59979 0
M  V30 5044 H 476.949 0.0819095 -0.747526 0
M  V30 5045 H 478.92 -0.536753 -2.93533 0
M  V30 5046 C 477.669 1.20902 -3.26003 0
M  V30 5047 H 476.992 0.672997 -3.94095 0
M  V30 5048 H 478.432 1.71006 -3.87986 0
M  V30 5049 C 476.891 2.25955 -2.49891 0
M  V30 5050 O 477.421 3.32969 -2.2471 0
M  V30 5051 N 475.627 2.00019 -2.1081 0
M  V30 5052 H 475.174 1.13006 -2.31489 0
M  V30 5053 H 475.132 2.70523 -1.60201 0
M  V30 5054 N 478.904 1.54736 -0.299062 0
M  V30 5055 C 479.834 2.26409 0.571085 0
M  V30 5056 C 480.815 1.2629 1.13951 0
M  V30 5057 O 482 1.55059 1.16921 0
M  V30 5058 C 479.13 3.00338 1.74396 0
M  V30 5059 C 478.084 4.07588 1.30599 0
M  V30 5060 C 477.41 4.69222 2.56387 0
M  V30 5061 C 478.71 5.20455 0.438645 0
M  V30 5062 H 480.404 2.99388 -0.0266991 0
M  V30 5063 H 477.95 1.43993 -0.0142812 0
M  V30 5064 H 479.903 3.49198 2.35878 0
M  V30 5065 H 478.627 2.24934 2.36796 0
M  V30 5066 H 477.286 3.59575 0.71424 0
M  V30 5067 H 476.934 3.9046 3.17097 0
M  V30 5068 H 476.634 5.41653 2.27784 0
M  V30 5069 H 478.158 5.20844 3.18675 0
M  V30 5070 H 479.572 5.65221 0.959085 0
M  V30 5071 H 477.969 5.99594 0.246466 0
M  V30 5072 H 479.039 4.8192 -0.536738 0
M  V30 5073 N 480.382 0.0267497 1.57577 0
M  V30 5074 C 481.332 -0.965003 2.06571 0
M  V30 5075 C 482.316 -1.28694 0.965746 0
M  V30 5076 O 483.508 -1.27345 1.22932 0
M  V30 5077 C 480.637 -2.24821 2.59443 0
M  V30 5078 C 479.723 -1.95474 3.76365 0
M  V30 5079 N 480.114 -1.36387 4.87065 0
M  V30 5080 C 478.412 -2.25478 3.84806 0
M  V30 5081 C 479.113 -1.24119 5.68304 0
M  V30 5082 N 478.089 -1.7359 5.15138 0
M  V30 5083 H 481.891 -0.503095 2.89562 0
M  V30 5084 H 479.405 -0.178322 1.61418 0
M  V30 5085 H 481.402 -2.9674 2.92833 0
M  V30 5086 H 480.062 -2.7164 1.77881 0
M  V30 5087 H 481.073 -1.03919 5.07367 0
M  V30 5088 H 477.75 -2.74987 3.14147 0
M  V30 5089 H 479.14 -0.784504 6.67304 0
M  V30 5090 N 481.861 -1.55662 -0.24637 0
M  V30 5091 C 482.771 -1.93495 -1.32653 0
M  V30 5092 C 483.787 -0.835462 -1.5263 0
M  V30 5093 O 484.963 -1.1369 -1.66242 0
M  V30 5094 C 482.028 -2.22242 -2.66101 0
M  V30 5095 C 481.089 -3.45625 -2.54641 0
M  V30 5096 C 480.322 -3.72991 -3.81724 0
M  V30 5097 O 480.545 -3.02421 -4.8363 0
M  V30 5098 O 479.479 -4.66515 -3.80325 0
M  V30 5099 H 483.305 -2.85498 -1.03559 0
M  V30 5100 H 480.89 -1.42551 -0.44717 0
M  V30 5101 H 482.772 -2.42037 -3.44958 0
M  V30 5102 H 481.447 -1.33417 -2.94926 0
M  V30 5103 H 480.354 -3.31136 -1.74067 0
M  V30 5104 H 481.687 -4.34754 -2.3076 0
M  V30 5105 N 483.339 0.512053 -1.4905 0
M  V30 5106 C 484.249 1.64139 -1.67617 0
M  V30 5107 C 485.265 1.64786 -0.558701 0
M  V30 5108 O 486.441 1.8341 -0.832034 0
M  V30 5109 C 483.506 3.00548 -1.72835 0
M  V30 5110 C 482.567 3.10615 -2.96339 0
M  V30 5111 C 481.8 4.40517 -3.01298 0
M  V30 5112 O 482.023 5.28671 -2.14157 0
M  V30 5113 O 480.957 4.55325 -3.93653 0
M  V30 5114 H 484.783 1.51407 -2.63267 0
M  V30 5115 H 482.368 0.687131 -1.32661 0
M  V30 5116 H 484.25 3.81641 -1.78683 0
M  V30 5117 H 482.925 3.13566 -0.803616 0
M  V30 5118 H 481.832 2.2875 -2.96014 0
M  V30 5119 H 483.165 3.0252 -3.88256 0
M  V30 5120 N 484.817 1.37938 0.762283 0
M  V30 5121 C 485.727 1.36681 1.90671 0
M  V30 5122 C 486.743 0.265078 1.71969 0
M  V30 5123 O 487.919 0.502055 1.95042 0
M  V30 5124 C 484.984 1.18211 3.25925 0
M  V30 5125 C 484.045 2.3811 3.57214 0
M  V30 5126 C 483.278 2.20512 4.86014 0
M  V30 5127 O 483.501 1.19429 5.57757 0
M  V30 5128 O 482.435 3.08911 5.16583 0
M  V30 5129 H 486.261 2.33091 1.94685 0
M  V30 5130 H 483.846 1.18767 0.906356 0
M  V30 5131 H 485.728 1.09937 4.06807 0
M  V30 5132 H 484.403 0.248807 3.22742 0
M  V30 5133 H 483.31 2.51958 2.76529 0
M  V30 5134 H 484.643 3.30041 3.65149 0
M  V30 5135 N 486.295 -0.989507 1.22664 0
M  V30 5136 C 487.245 -2.06478 0.967005 0
M  V30 5137 C 488.229 -1.60682 -0.0836374 0
M  V30 5138 O 489.421 -1.76541 0.127322 0
M  V30 5139 C 486.55 -3.38861 0.550313 0
M  V30 5140 C 485.636 -3.9128 1.63587 0
M  V30 5141 N 486.027 -4.16884 2.86429 0
M  V30 5142 C 484.325 -4.1972 1.50834 0
M  V30 5143 C 485.026 -4.5954 3.56648 0
M  V30 5144 N 484.002 -4.63434 2.84131 0
M  V30 5145 H 487.804 -2.24219 1.90008 0
M  V30 5146 H 485.318 -1.17153 1.12467 0
M  V30 5147 H 487.315 -4.15465 0.345612 0
M  V30 5148 H 485.975 -3.22518 -0.375822 0
M  V30 5149 H 486.986 -4.04976 3.22823 0
M  V30 5150 H 483.663 -4.1243 0.648643 0
M  V30 5151 H 485.053 -4.87944 4.61909 0
M  V30 5152 N 487.773 -1.03688 -1.18687 0
M  V30 5153 C 489.019 -0.739123 -1.88851 0
M  V30 5154 C 489.352 0.731042 -1.79915 0
M  V30 5155 O 488.627 1.53313 -1.19688 0
M  V30 5156 C 488.91 -1.20106 -3.3948 0
M  V30 5157 C 488.763 -2.73304 -3.57246 0
M  V30 5158 C 490.082 -0.788134 -4.32986 0
M  V30 5159 H 487.201 -0.269978 -0.68577 0
M  V30 5160 H 489.843 -1.28822 -1.3966 0
M  V30 5161 H 487.993 -0.733915 -3.81505 0
M  V30 5162 H 489.665 -3.28027 -3.24339 0
M  V30 5163 H 487.908 -3.13313 -3.00029 0
M  V30 5164 H 488.579 -3.00684 -4.62918 0
M  V30 5165 H 491.055 -1.19005 -3.98719 0
M  V30 5166 H 489.931 -1.13915 -5.36949 0
M  V30 5167 H 490.192 0.308988 -4.41019 0
M  V30 5168 N 489.251 1.34841 -0.815825 0
M  V30 5169 C 490.181 2.32187 -0.247298 0
M  V30 5170 C 491.162 1.5791 0.632344 0
M  V30 5171 O 492.347 1.8593 0.560698 0
M  V30 5172 C 489.477 3.42122 0.597466 0
M  V30 5173 C 488.431 4.27602 -0.184446 0
M  V30 5174 C 487.757 5.28942 0.782609 0
M  V30 5175 C 489.057 5.03502 -1.38865 0
M  V30 5176 H 490.751 2.79985 -1.06061 0
M  V30 5177 H 488.297 1.34611 -0.511461 0
M  V30 5178 H 490.25 4.09232 1.00533 0
M  V30 5179 H 488.974 2.92956 1.44376 0
M  V30 5180 H 487.633 3.62085 -0.573592 0
M  V30 5181 H 487.281 4.7604 1.62466 0
M  V30 5182 H 486.981 5.87008 0.263695 0
M  V30 5183 H 488.505 5.98922 1.18848 0
M  V30 5184 H 489.919 5.63506 -1.05518 0
M  V30 5185 H 488.316 5.71108 -1.8427 0
M  V30 5186 H 489.386 4.33608 -2.17054 0
M  V30 5187 N 490.729 0.570148 1.46925 0
M  V30 5188 C 491.659 -0.158274 2.32963 0
M  V30 5189 C 492.64 -0.896093 1.44583 0
M  V30 5190 O 493.825 -0.874022 1.7342 0
M  V30 5191 C 490.955 -1.18055 3.26619 0
M  V30 5192 C 489.909 -0.558379 4.24342 0
M  V30 5193 C 489.235 -1.68623 5.07415 0
M  V30 5194 C 490.535 0.496295 5.19937 0
M  V30 5195 H 492.229 0.560046 2.94115 0
M  V30 5196 H 489.775 0.270775 1.41431 0
M  V30 5197 H 491.728 -1.69841 3.85658 0
M  V30 5198 H 490.452 -1.92899 2.63548 0
M  V30 5199 H 489.111 -0.0617157 3.66548 0
M  V30 5200 H 488.759 -2.42402 4.40738 0
M  V30 5201 H 488.459 -1.27564 5.73586 0
M  V30 5202 H 489.983 -2.20709 5.69315 0
M  V30 5203 H 491.397 0.0640052 5.73264 0
M  V30 5204 H 489.794 0.82649 5.94381 0
M  V30 5205 H 490.864 1.38735 4.6463 0
M  V30 5206 N 492.207 -1.54576 0.307264 0
M  V30 5207 C 493.14 -2.19946 -0.608195 0
M  V30 5208 C 494.118 -1.17096 -1.12815 0
M  V30 5209 O 495.302 -1.45766 -1.19518 0
M  V30 5210 C 492.429 -2.84826 -1.8328 0
M  V30 5211 C 491.475 -4.01256 -1.44554 0
M  V30 5212 S 492.308 -5.33197 -0.49612 0
M  V30 5213 C 493.464 -6.01563 -1.72838 0
M  V30 5214 H 493.697 -2.97253 -0.0528544 0
M  V30 5215 H 491.23 -1.54129 0.0913837 0
M  V30 5216 H 493.188 -3.22832 -2.53554 0
M  V30 5217 H 491.849 -2.07353 -2.35931 0
M  V30 5218 H 491.042 -4.45457 -2.35762 0
M  V30 5219 H 490.644 -3.6484 -0.822671 0
M  V30 5220 H 492.936 -6.22751 -2.6681 0
M  V30 5221 H 493.879 -6.9552 -1.32882 0
M  V30 5222 H 494.287 -5.31279 -1.90795 0
M  V30 5223 N 493.685 -0.035106 -1.57561 0
M  V30 5224 C 494.648 0.929819 -2.09492 0
M  V30 5225 C 495.648 1.25026 -1.01119 0
M  V30 5226 O 496.838 1.18961 -1.27255 0
M  V30 5227 C 493.97 2.24457 -2.56577 0
M  V30 5228 H 495.163 0.479935 -2.96035 0
M  V30 5229 H 492.716 0.213033 -1.54841 0
M  V30 5230 H 493.451 2.74061 -1.73382 0
M  V30 5231 H 493.236 2.02508 -3.35757 0
M  V30 5232 H 494.726 2.93607 -2.96959 0
M  V30 5233 N 495.163 1.55791 0.238111 0
M  V30 5234 C 496.412 1.77234 0.962868 0
M  V30 5235 C 496.725 0.600661 1.86149 0
M  V30 5236 O 497.931 0.698315 2.62366 0
M  V30 5237 C 496.387 3.13808 1.76218 0
M  V30 5238 C 495.995 4.3865 0.910518 0
M  V30 5239 C 497.739 3.44585 2.47914 0
M  V30 5240 C 495.646 5.66252 1.70623 0
M  V30 5241 H 494.576 0.660731 0.36325 0
M  V30 5242 H 497.227 1.8221 0.217242 0
M  V30 5243 H 495.609 3.02963 2.55009 0
M  V30 5244 H 496.783 4.60507 0.164316 0
M  V30 5245 H 495.098 4.15271 0.30647 0
M  V30 5246 H 497.695 4.3714 3.07917 0
M  V30 5247 H 498.038 2.66314 3.19973 0
M  V30 5248 H 498.571 3.56685 1.76127 0
M  V30 5249 H 495.31 6.47369 1.02923 0
M  V30 5250 H 494.83 5.48483 2.42748 0
M  V30 5251 H 496.509 6.05829 2.27114 0
M  V30 5252 N 496.642 -0.504142 1.49319 0
M  V30 5253 C 497.882 -1.26867 1.60263 0
M  V30 5254 C 498.246 -1.89924 0.281578 0
M  V30 5255 O 499.447 -2.67479 0.266176 0
M  V30 5256 C 497.718 -2.30956 2.72753 0
M  V30 5257 S 499.277 -3.1679 3.03628 0
M  V30 5258 H 496.095 -0.431198 0.565322 0
M  V30 5259 H 498.697 -0.571407 1.86963 0
M  V30 5260 H 497.401 -1.83156 3.67263 0
M  V30 5261 H 496.932 -3.05356 2.48035 0
M  V30 5262 H 498.947 -4.31549 2.44908 0
M  V30 5263 N 498.12 -1.38341 -0.754957 0
M  V30 5264 C 499.369 -1.33791 -1.5094 0
M  V30 5265 C 499.682 0.0699267 -1.95475 0
M  V30 5266 O 500.888 0.237956 -2.70455 0
M  V30 5267 C 499.344 -2.34934 -2.72643 0
M  V30 5268 C 498.952 -3.81332 -2.35138 0
M  V30 5269 C 500.696 -2.39425 -3.50536 0
M  V30 5270 C 498.603 -4.74164 -3.53444 0
M  V30 5271 H 497.533 -0.497314 -0.566741 0
M  V30 5272 H 500.184 -1.63888 -0.825403 0
M  V30 5273 H 498.566 -1.97878 -3.43017 0
M  V30 5274 H 499.74 -4.27319 -1.7244 0
M  V30 5275 H 498.055 -3.79946 -1.70382 0
M  V30 5276 H 500.652 -3.0598 -4.38498 0
M  V30 5277 H 500.995 -1.41278 -3.91594 0
M  V30 5278 H 501.528 -2.75274 -2.87174 0
M  V30 5279 H 498.267 -5.73501 -3.17453 0
M  V30 5280 H 497.787 -4.3287 -4.15191 0
M  V30 5281 H 499.466 -4.92111 -4.20043 0
M  V30 5282 N 499.598 0.982988 -1.23187 0
M  V30 5283 C 500.844 1.72648 -1.06398 0
M  V30 5284 C 501.177 1.90066 0.398561 0
M  V30 5285 O 500.452 1.45105 1.29518 0
M  V30 5286 C 500.735 3.12627 -1.78707 0
M  V30 5287 C 500.588 3.02795 -3.32618 0
M  V30 5288 C 501.907 4.11997 -1.54747 0
M  V30 5289 H 499.026 0.626649 -0.387918 0
M  V30 5290 H 501.668 1.14455 -1.51658 0
M  V30 5291 H 499.818 3.62308 -1.40234 0
M  V30 5292 H 501.49 2.60659 -3.80598 0
M  V30 5293 H 499.733 2.39362 -3.61785 0
M  V30 5294 H 500.404 4.01893 -3.78399 0
M  V30 5295 H 502.88 3.71114 -1.88186 0
M  V30 5296 H 501.756 5.08037 -2.07821 0
M  V30 5297 H 502.017 4.39462 -0.482249 0
M  V30 5298 N 501.076 1.04316 1.18135 0
M  V30 5299 C 502.301 0.768047 1.92655 0
M  V30 5300 C 502.726 -0.66904 1.758 0
M  V30 5301 O 502.084 -1.46372 1.06981 0
M  V30 5302 C 502.132 1.14239 3.42026 0
M  V30 5303 O 501.236 0.269333 4.1152 0
M  V30 5304 H 500.577 0.282436 0.600937 0
M  V30 5305 H 503.107 1.39367 1.49793 0
M  V30 5306 H 503.117 1.10538 3.92741 0
M  V30 5307 H 501.792 2.18928 3.53615 0
M  V30 5308 H 500.369 0.366175 3.71098 0
M  V30 5309 N 502.554 -1.34406 0.822964 0
M  V30 5310 C 503.965 -1.8069 0.469879 0
M  V30 5311 C 504.316 -1.68223 -1.00972 0
M  V30 5312 O 503.441 -1.22226 -1.78577 0
M  V30 5313 C 504.036 -3.28064 0.846118 0
M  V30 5314 C 502.595 -3.72428 0.545402 0
M  V30 5315 C 501.742 -2.56116 1.06301 0
M  V30 5316 H 504.693 -1.22153 1.01313 0
M  V30 5317 H 504.714 -3.80205 0.149922 0
M  V30 5318 H 504.226 -3.37107 1.92304 0
M  V30 5319 H 502.327 -3.68924 -0.522109 0
M  V30 5320 H 502.44 -4.66548 1.0895 0
M  V30 5321 H 500.804 -2.50048 0.484554 0
M  V30 5322 H 501.587 -2.67928 2.14638 0
M  V30 5323 N 504.032 -0.577932 -1.46621 0
M  V30 5324 C 505.309 0.00495287 -1.95599 0
M  V30 5325 C 505.689 1.46428 -1.5206 0
M  V30 5326 O 505.037 2.1517 -0.769046 0
M  V30 5327 C 505.247 -0.162114 -3.48623 0
M  V30 5328 C 506.595 -0.0274623 -4.24591 0
M  V30 5329 O 507.619 -0.0907067 -3.56084 0
M  V30 5330 O 506.478 0.1122 -5.46385 0
M  V30 5331 H 503.572 0.0525057 -0.825332 0
M  V30 5332 H 506.118 -0.645914 -1.56927 0
M  V30 5333 H 504.89 -1.17679 -3.73185 0
M  V30 5334 H 504.513 0.525407 -3.94113 0
M  V30 5335 N 505.51 1.54411 -0.315457 0
M  V30 5336 C 506.926 1.59556 0.037464 0
M  V30 5337 C 507.126 1.33217 1.5118 0
M  V30 5338 O 506.182 1.11264 2.26664 0
M  V30 5339 C 507.495 2.98372 -0.373477 0
M  V30 5340 C 509.043 3.11324 -0.323452 0
M  V30 5341 C 509.518 4.52472 -0.709433 0
M  V30 5342 N 511.009 4.58437 -0.662524 0
M  V30 5343 C 511.744 5.65751 -0.933474 0
M  V30 5344 N 511.24 6.81039 -1.27114 0
M  V30 5345 N 513.033 5.55489 -0.859573 0
M  V30 5346 H 505.184 1.6979 -1.27614 0
M  V30 5347 H 507.447 0.793732 -0.518356 0
M  V30 5348 H 507.153 3.22618 -1.40037 0
M  V30 5349 H 507.027 3.76264 0.265615 0
M  V30 5350 H 509.414 2.86818 0.694223 0
M  V30 5351 H 509.495 2.35555 -0.997367 0
M  V30 5352 H 509.139 4.7771 -1.72498 0
M  V30 5353 H 509.069 5.26598 -0.0132923 0
M  V30 5354 H 511.56 3.75636 -0.413065 0
M  V30 5355 H 511.873 7.58816 -1.46348 0
M  V30 5356 H 510.218 6.82555 -1.30932 0
M  V30 5357 H 513.409 4.64299 -0.595324 0
M  V30 5358 H 513.582 6.39036 -1.0741 0
M  V30 5359 N 506.988 0.0434614 1.5754 0
M  V30 5360 C 508.399 -0.493343 1.80064 0
M  V30 5361 C 508.75 -1.71388 0.955023 0
M  V30 5362 O 507.875 -2.15736 0.169434 0
M  V30 5363 C 508.47 -0.90179 3.26578 0
M  V30 5364 C 507.029 -1.38362 3.50047 0
M  V30 5365 C 506.176 -0.355129 2.75017 0
M  V30 5366 H 509.127 0.2694 1.56397 0
M  V30 5367 H 509.148 -1.76523 3.37075 0
M  V30 5368 H 508.66 -0.013271 3.88098 0
M  V30 5369 H 506.761 -2.29159 2.93798 0
M  V30 5370 H 506.874 -1.3811 4.58762 0
M  V30 5371 H 505.238 -0.826348 2.40922 0
M  V30 5372 H 506.021 0.525172 3.39259 0
M  V30 5373 N 508.466 -1.55915 -0.229846 0
M  V30 5374 C 509.714 -1.7819 -0.953565 0
M  V30 5375 C 510.035 -0.610504 -1.85197 0
M  V30 5376 O 509.305 0.372988 -1.92316 0
M  V30 5377 H 507.885 -0.657208 -0.355087 0
M  V30 5378 H 510.547 -1.9337 -0.243693 0
M  V30 5379 H 509.643 -2.70011 -1.56527 0
M  V30 5380 N 509.944 0.496216 -1.49584 0
M  V30 5381 C 511.19 1.25189 -1.59548 0
M  V30 5382 C 511.523 1.9212 -0.283466 0
M  V30 5383 O 510.798 1.80947 0.713324 0
M  V30 5384 C 511.081 2.31516 -2.75812 0
M  V30 5385 C 510.934 1.69054 -4.16822 0
M  V30 5386 C 512.253 3.3304 -2.87702 0
M  V30 5387 H 509.372 0.45379 -0.580727 0
M  V30 5388 H 512.014 0.549327 -1.81886 0
M  V30 5389 H 510.164 2.91438 -2.56897 0
M  V30 5390 H 511.836 1.12923 -4.47265 0
M  V30 5391 H 510.079 0.994485 -4.22247 0
M  V30 5392 H 510.75 2.462 -4.94054 0
M  V30 5393 H 513.226 2.83114 -3.04936 0
M  V30 5394 H 512.102 4.04794 -3.7072 0
M  V30 5395 H 512.363 3.95655 -1.97255 0
M  V30 5396 N 511.423 1.38739 0.74761 0
M  V30 5397 C 512.355 1.32341 1.87132 0
M  V30 5398 C 513.368 0.234502 1.61102 0
M  V30 5399 O 514.557 0.492516 1.71571 0
M  V30 5400 C 511.657 1.02915 3.22896 0
M  V30 5401 C 510.83 2.22834 3.76383 0
M  V30 5402 C 509.889 1.90059 4.90677 0
M  V30 5403 O 508.915 2.62615 5.04997 0
M  V30 5404 N 510.117 0.859141 5.74107 0
M  V30 5405 H 512.882 2.29175 1.93129 0
M  V30 5406 H 510.443 1.32678 0.927805 0
M  V30 5407 H 512.435 0.79031 3.96908 0
M  V30 5408 H 511.005 0.148572 3.12247 0
M  V30 5409 H 510.225 2.62747 2.93867 0
M  V30 5410 H 511.513 3.02851 4.08851 0
M  V30 5411 H 510.911 0.257564 5.65113 0
M  V30 5412 H 509.468 0.680189 6.48241 0
M  V30 5413 N 512.901 -0.976442 1.23707 0
M  V30 5414 C 514.178 -1.69296 0.979699 0
M  V30 5415 C 514.558 -2.0508 -0.500555 0
M  V30 5416 O 513.906 -1.74708 -1.47273 0
M  V30 5417 C 514.116 -2.93143 1.89389 0
M  V30 5418 C 515.464 -3.65572 2.15968 0
M  V30 5419 O 516.488 -3.03184 1.86971 0
M  V30 5420 O 515.347 -4.77859 2.65167 0
M  V30 5421 H 512.441 -0.739708 0.369812 0
M  V30 5422 H 514.987 -1.03131 1.34767 0
M  V30 5423 H 513.759 -2.63327 2.89439 0
M  V30 5424 H 513.382 -3.67044 1.52854 0
M  V30 5425 N 514.379 -1.04941 -1.1758 0
M  V30 5426 C 515.342 -0.652456 -2.19717 0
M  V30 5427 C 516.342 0.294745 -1.58076 0
M  V30 5428 O 517.532 0.0789579 -1.74021 0
M  V30 5429 C 514.664 0.0420712 -3.40874 0
M  V30 5430 H 515.857 -1.55642 -2.5635 0
M  V30 5431 H 513.41 -0.842995 -1.31618 0
M  V30 5432 H 514.145 0.95943 -3.09783 0
M  V30 5433 H 513.93 -0.638844 -3.86861 0
M  V30 5434 H 515.42 0.306 -4.16477 0
M  V30 5435 N 515.857 1.33968 -0.830081 0
M  V30 5436 C 516.82 2.27694 -0.26235 0
M  V30 5437 C 517.82 1.50589 0.563876 0
M  V30 5438 O 519.01 1.70028 0.378941 0
M  V30 5439 C 516.142 3.35002 0.63138 0
M  V30 5440 H 517.335 2.79419 -1.08928 0
M  V30 5441 H 514.888 1.44221 -0.602486 0
M  V30 5442 H 515.623 2.88504 1.48109 0
M  V30 5443 H 515.408 3.92079 0.0403276 0
M  V30 5444 H 516.898 4.04897 1.02217 0
M  V30 5445 N 517.335 0.585699 1.46312 0
M  V30 5446 C 518.265 -0.133556 2.33118 0
M  V30 5447 C 519.246 -0.880707 1.45525 0
M  V30 5448 O 520.431 -0.855579 1.74337 0
M  V30 5449 C 517.561 -1.14585 3.27853 0
M  V30 5450 C 516.515 -0.513341 4.2491 0
M  V30 5451 C 515.841 -1.63231 5.09175 0
M  V30 5452 C 517.141 0.551413 5.19381 0
M  V30 5453 H 518.835 0.59121 2.93505 0
M  V30 5454 H 516.381 0.285761 1.41136 0
M  V30 5455 H 518.334 -1.65741 3.87438 0
M  V30 5456 H 517.058 -1.90093 2.65579 0
M  V30 5457 H 515.717 -0.0228349 3.66593 0
M  V30 5458 H 515.365 -2.37713 4.43285 0
M  V30 5459 H 515.065 -1.21473 5.74907 0
M  V30 5460 H 516.589 -2.14658 5.71624 0
M  V30 5461 H 518.003 0.124804 5.73164 0
M  V30 5462 H 516.4 0.889486 5.93471 0
M  V30 5463 H 517.47 1.43655 4.63132 0
M  V30 5464 N 518.813 -1.54241 0.323641 0
M  V30 5465 C 520.062 -1.9975 -0.279806 0
M  V30 5466 C 520.375 -1.2156 -1.5324 0
M  V30 5467 O 521.581 -1.57447 -2.21185 0
M  V30 5468 C 520.037 -3.55686 -0.549115 0
M  V30 5469 C 519.645 -4.4271 0.686432 0
M  V30 5470 C 521.389 -4.09663 -1.11251 0
M  V30 5471 C 519.296 -5.90119 0.389022 0
M  V30 5472 H 518.226 -0.746177 -0.10833 0
M  V30 5473 H 520.877 -1.78248 0.435877 0
M  V30 5474 H 519.259 -3.73176 -1.32499 0
M  V30 5475 H 520.433 -4.36996 1.46188 0
M  V30 5476 H 518.748 -3.99623 1.17005 0
M  V30 5477 H 521.345 -5.17386 -1.34965 0
M  V30 5478 H 521.688 -3.61651 -2.06191 0
M  V30 5479 H 522.221 -3.95806 -0.39782 0
M  V30 5480 H 518.96 -6.42326 1.30759 0
M  V30 5481 H 518.48 -5.98785 -0.348722 0
M  V30 5482 H 520.159 -6.47 -0.0011164 0
M  V30 5483 N 520.291 -0.0518155 -1.57515 0
M  V30 5484 C 521.201 0.937539 -2.15052 0
M  V30 5485 C 522.217 1.34121 -1.10849 0
M  V30 5486 O 523.393 1.418 -1.4302 0
M  V30 5487 C 520.458 2.19379 -2.68466 0
M  V30 5488 C 519.519 1.84841 -3.87469 0
M  V30 5489 C 518.752 3.04477 -4.38326 0
M  V30 5490 O 518.975 4.17868 -3.88256 0
M  V30 5491 O 517.909 2.85453 -5.29906 0
M  V30 5492 H 521.735 0.478201 -2.99912 0
M  V30 5493 H 519.32 0.17012 -1.48428 0
M  V30 5494 H 521.202 2.93084 -3.02787 0
M  V30 5495 H 519.877 2.64449 -1.86677 0
M  V30 5496 H 518.784 1.08449 -3.58036 0
M  V30 5497 H 520.117 1.44569 -4.7049 0
M  V30 5498 N 521.769 1.56035 0.221574 0
M  V30 5499 C 522.732 1.91584 1.2581 0
M  V30 5500 C 523.732 0.794425 1.39805 0
M  V30 5501 O 524.922 1.06217 1.38071 0
M  V30 5502 C 522.054 2.16663 2.63192 0
M  V30 5503 H 523.247 2.8429 0.954935 0
M  V30 5504 H 520.8 1.49316 0.461988 0
M  V30 5505 H 521.535 1.26508 2.98607 0
M  V30 5506 H 521.32 2.98358 2.5441 0
M  V30 5507 H 522.81 2.45262 3.37988 0
M  V30 5508 N 523.247 -0.488276 1.49845 0
M  V30 5509 C 524.496 -1.23826 1.59217 0
M  V30 5510 C 524.809 -1.93439 0.289966 0
M  V30 5511 O 526.015 -2.70229 0.262382 0
M  V30 5512 C 524.471 -2.24902 2.80976 0
M  V30 5513 C 524.079 -1.6117 4.18005 0
M  V30 5514 C 525.823 -3.00648 2.99685 0
M  V30 5515 C 523.73 -2.60431 5.3097 0
M  V30 5516 H 522.66 -0.465858 0.592868 0
M  V30 5517 H 525.311 -0.510645 1.76252 0
M  V30 5518 H 523.693 -3.0088 2.57463 0
M  V30 5519 H 524.867 -0.910968 4.51706 0
M  V30 5520 H 523.182 -0.97767 4.0476 0
M  V30 5521 H 525.779 -3.74903 3.81251 0
M  V30 5522 H 526.122 -3.5902 2.10738 0
M  V30 5523 H 526.655 -2.31784 3.23297 0
M  V30 5524 H 523.394 -2.06823 6.22017 0
M  V30 5525 H 522.914 -3.28707 5.01709 0
M  V30 5526 H 524.593 -3.22606 5.60834 0
M  V30 5527 N 524.725 -1.39134 -0.740242 0
M  V30 5528 C 525.657 -1.33332 -1.86428 0
M  V30 5529 C 526.67 -0.243042 -1.60976 0
M  V30 5530 O 527.859 -0.501608 -1.71307 0
M  V30 5531 C 524.959 -1.04626 -3.22346 0
M  V30 5532 C 524.132 -2.24826 -3.75196 0
M  V30 5533 C 523.191 -1.92659 -4.89662 0
M  V30 5534 O 522.217 -2.6529 -5.03597 0
M  V30 5535 N 523.419 -0.889575 -5.73643 0
M  V30 5536 H 526.184 -2.30196 -1.91911 0
M  V30 5537 H 523.745 -1.33168 -0.920756 0
M  V30 5538 H 525.737 -0.811347 -3.96484 0
M  V30 5539 H 524.307 -0.165129 -3.12164 0
M  V30 5540 H 523.527 -2.64301 -2.9247 0
M  V30 5541 H 524.815 -3.05015 -4.07239 0
M  V30 5542 H 524.213 -0.287529 -5.64969 0
M  V30 5543 H 522.77 -0.714557 -6.47871 0
M  V30 5544 N 526.204 0.969867 -1.24223 0
M  V30 5545 C 527.481 1.68774 -0.988664 0
M  V30 5546 C 527.861 2.05342 0.489673 0
M  V30 5547 O 527.209 1.75486 1.46345 0
M  V30 5548 C 527.419 2.92135 -1.90941 0
M  V30 5549 C 528.767 3.64422 -2.17903 0
M  V30 5550 O 529.791 3.02188 -1.88576 0
M  V30 5551 O 528.65 4.76446 -2.67697 0
M  V30 5552 H 525.744 0.737736 -0.37373 0
M  V30 5553 H 528.29 1.02415 -1.35312 0
M  V30 5554 H 527.062 2.61788 -2.90831 0
M  V30 5555 H 526.685 3.66228 -1.54798 0
M  V30 5556 N 527.682 1.05563 1.17022 0
M  V30 5557 C 529.098 0.777684 1.39371 0
M  V30 5558 C 529.298 -0.626269 1.91521 0
M  V30 5559 O 528.354 -1.38806 2.10924 0
M  V30 5560 C 529.667 1.83642 2.3811 0
M  V30 5561 C 531.215 1.85907 2.51809 0
M  V30 5562 C 531.69 2.90813 3.53824 0
M  V30 5563 N 533.181 2.898 3.61345 0
M  V30 5564 C 533.916 3.6762 4.40049 0
M  V30 5565 N 533.412 4.55237 5.22237 0
M  V30 5566 N 535.205 3.56044 4.34959 0
M  V30 5567 H 527.356 1.9614 0.815047 0
M  V30 5568 H 529.619 0.849527 0.420722 0
M  V30 5569 H 529.325 2.84425 2.06871 0
M  V30 5570 H 529.199 1.6812 3.37662 0
M  V30 5571 H 531.586 0.857865 2.82356 0
M  V30 5572 H 531.667 2.05506 1.52318 0
M  V30 5573 H 531.311 3.91122 3.24015 0
M  V30 5574 H 531.241 2.68465 4.53028 0
M  V30 5575 H 533.732 2.26274 3.02669 0
M  V30 5576 H 534.045 5.11291 5.79484 0
M  V30 5577 H 532.39 4.59296 5.21605 0
M  V30 5578 H 535.581 2.86986 3.69806 0
M  V30 5579 H 535.754 4.16938 4.96051 0
M  V30 5580 N 529.16 -1.33526 0.837174 0
M  V30 5581 C 530.09 -2.31764 0.284206 0
M  V30 5582 C 531.071 -1.58896 -0.607142 0
M  V30 5583 O 532.256 -1.86798 -0.531047 0
M  V30 5584 C 529.386 -3.43029 -0.542962 0
M  V30 5585 C 528.34 -4.27255 0.252451 0
M  V30 5586 C 527.666 -5.3012 -0.69836 0
M  V30 5587 C 528.966 -5.01229 1.46858 0
M  V30 5588 H 530.66 -2.78262 1.10502 0
M  V30 5589 H 528.206 -1.3378 0.532812 0
M  V30 5590 H 530.159 -4.1078 -0.940096 0
M  V30 5591 H 528.883 -2.95216 -1.39697 0
M  V30 5592 H 527.542 -3.61127 0.631124 0
M  V30 5593 H 527.19 -4.78564 -1.54872 0
M  V30 5594 H 526.89 -5.87353 -0.170274 0
M  V30 5595 H 528.414 -6.00737 -1.09305 0
M  V30 5596 H 529.828 -5.61756 1.14469 0
M  V30 5597 H 528.225 -5.68104 1.93333 0
M  V30 5598 H 529.295 -4.301 2.23924 0
M  V30 5599 N 530.638 -0.59345 -1.46 0
M  V30 5600 C 531.863 -0.0872365 -2.07216 0
M  V30 5601 C 532.288 1.2131 -1.43755 0
M  V30 5602 O 531.646 1.73528 -0.525152 0
M  V30 5603 C 531.694 0.0538197 -3.6056 0
M  V30 5604 O 530.798 1.10765 -3.97247 0
M  V30 5605 H 530.139 -0.0676598 -0.660544 0
M  V30 5606 H 532.669 -0.819445 -1.87473 0
M  V30 5607 H 532.679 0.256567 -4.07193 0
M  V30 5608 H 531.354 -0.895739 -4.0614 0
M  V30 5609 H 529.931 0.882501 -3.62307 0
M  V30 5610 N 532.116 1.54067 -0.331816 0
M  V30 5611 C 533.064 2.26105 0.54582 0
M  V30 5612 C 534.058 1.27816 1.11173 0
M  V30 5613 O 535.264 1.45565 1.05882 0
M  V30 5614 H 531.639 0.726363 0.194683 0
M  V30 5615 H 533.61 2.98282 -0.083931 0
M  V30 5616 C 532.359 3.03814 1.69092 0
M  V30 5617 H 531.682 3.79269 1.26473 0
M  V30 5618 H 533.122 3.57453 2.28043 0
M  V30 5619 C 531.581 2.12606 2.61343 0
M  V30 5620 O 532.111 1.71437 3.6328 0
M  V30 5621 N 530.317 1.77925 2.29763 0
M  V30 5622 H 529.864 2.11602 1.46909 0
M  V30 5623 H 529.822 1.1718 2.91747 0
M  V30 5624 N 533.594 0.0601682 1.57485 0
M  V30 5625 C 534.822 -0.620937 1.97363 0
M  V30 5626 C 535.237 -1.63846 0.938082 0
M  V30 5627 O 534.594 -1.82339 -0.0766578 0
M  V30 5628 C 534.645 -1.29987 3.37321 0
M  V30 5629 O 534.366 -0.323081 4.36907 0
M  V30 5630 C 535.867 -2.06989 3.92008 0
M  V30 5631 H 533.087 -0.169135 0.649334 0
M  V30 5632 H 535.631 0.129132 2.04092 0
M  V30 5633 H 533.786 -2.0011 3.31715 0
M  V30 5634 H 534.2 -0.808754 5.18227 0
M  V30 5635 H 535.674 -2.49901 4.92192 0
M  V30 5636 H 536.151 -2.92173 3.2792 0
M  V30 5637 H 536.757 -1.41757 4.0098 0
M  V30 5638 N 535.072 -1.5615 -0.213296 0
M  V30 5639 C 536.002 -1.96109 -1.26742 0
M  V30 5640 C 536.983 -0.830448 -1.48451 0
M  V30 5641 O 538.168 -1.09339 -1.60495 0
M  V30 5642 C 535.298 -2.28492 -2.61551 0
M  V30 5643 C 534.252 -3.44124 -2.54485 0
M  V30 5644 C 533.578 -3.62134 -3.93399 0
M  V30 5645 C 534.878 -4.78855 -2.08556 0
M  V30 5646 H 536.572 -2.84412 -0.935434 0
M  V30 5647 H 534.118 -1.36836 -0.44854 0
M  V30 5648 H 536.071 -2.55039 -3.3546 0
M  V30 5649 H 534.795 -1.37052 -2.96453 0
M  V30 5650 H 533.454 -3.17639 -1.83033 0
M  V30 5651 H 533.102 -2.68055 -4.25623 0
M  V30 5652 H 532.802 -4.39913 -3.89551 0
M  V30 5653 H 534.326 -3.91038 -4.68958 0
M  V30 5654 H 535.74 -5.04552 -2.72213 0
M  V30 5655 H 534.137 -5.59975 -2.1575 0
M  V30 5656 H 535.207 -4.73657 -1.03811 0
M  V30 5657 N 536.55 0.480323 -1.50102 0
M  V30 5658 C 537.482 1.59669 -1.64433 0
M  V30 5659 C 538.495 1.54063 -0.52615 0
M  V30 5660 O 539.684 1.59619 -0.798992 0
M  V30 5661 C 536.784 2.98527 -1.6042 0
M  V30 5662 C 535.957 3.291 -2.88117 0
M  V30 5663 C 535.016 4.47468 -2.76873 0
M  V30 5664 O 534.042 4.4823 -3.50825 0
M  V30 5665 N 535.244 5.48593 -1.89806 0
M  V30 5666 H 538.009 1.47795 -2.60723 0
M  V30 5667 H 535.57 0.66858 -1.4745 0
M  V30 5668 H 537.562 3.75666 -1.50523 0
M  V30 5669 H 536.132 3.04218 -0.719036 0
M  V30 5670 H 535.352 2.40662 -3.12211 0
M  V30 5671 H 536.64 3.46334 -3.72734 0
M  V30 5672 H 536.038 5.50791 -1.2902 0
M  V30 5673 H 534.595 6.24752 -1.85819 0
M  V30 5674 N 538.028 1.39524 0.732853 0
M  V30 5675 C 539.256 1.40143 1.52209 0
M  V30 5676 C 539.671 -0.00348836 1.888 0
M  V30 5677 O 539.028 -0.975357 1.5425 0
M  V30 5678 C 539.079 2.27632 2.8083 0
M  V30 5679 O 538.8 3.62654 2.45792 0
M  V30 5680 C 540.301 2.36658 3.74844 0
M  V30 5681 H 537.521 0.478604 0.470297 0
M  V30 5682 H 540.065 1.83366 0.905388 0
M  V30 5683 H 538.22 1.87818 3.38826 0
M  V30 5684 H 538.634 4.08941 3.28431 0
M  V30 5685 H 540.108 3.02118 4.61984 0
M  V30 5686 H 540.585 1.38638 4.16745 0
M  V30 5687 H 541.191 2.76951 3.22766 0
M  V30 5688 N 539.506 -0.963266 1.24736 0
M  V30 5689 C 540.736 -1.73913 1.11524 0
M  V30 5690 C 541.144 -1.86218 -0.334612 0
M  V30 5691 O 540.487 -1.3531 -1.24245 0
M  V30 5692 C 540.549 -3.17501 1.68622 0
M  V30 5693 C 540.213 -3.28655 3.17546 0
M  V30 5694 C 541.21 -3.13637 4.14642 0
M  V30 5695 C 538.895 -3.52753 3.5759 0
M  V30 5696 C 540.889 -3.2255 5.49764 0
M  V30 5697 C 538.576 -3.61303 4.92852 0
M  V30 5698 C 539.574 -3.46214 5.88748 0
M  V30 5699 O 539.262 -3.5443 7.2155 0
M  V30 5700 H 538.994 -0.552057 0.390139 0
M  V30 5701 H 541.548 -1.2177 1.65412 0
M  V30 5702 H 539.778 -3.70969 1.09172 0
M  V30 5703 H 541.467 -3.76914 1.50635 0
M  V30 5704 H 542.233 -2.94899 3.85045 0
M  V30 5705 H 538.112 -3.63561 2.83451 0
M  V30 5706 H 541.656 -3.1069 6.24594 0
M  V30 5707 H 537.553 -3.79556 5.22118 0
M  V30 5708 H 538.321 -3.71116 7.29531 0
M  V30 5709 N 540.985 -1.06182 -1.16461 0
M  V30 5710 C 542.234 -0.772927 -1.86303 0
M  V30 5711 C 542.547 0.703187 -1.82523 0
M  V30 5712 O 543.753 1.10641 -2.47933 0
M  V30 5713 C 542.209 -1.33249 -3.34324 0
M  V30 5714 C 541.817 -2.83876 -3.46581 0
M  V30 5715 C 543.561 -1.12108 -4.09429 0
M  V30 5716 C 541.468 -3.33082 -4.88682 0
M  V30 5717 H 540.398 -0.285452 -0.697878 0
M  V30 5718 H 543.049 -1.28039 -1.31447 0
M  V30 5719 H 541.431 -0.7528 -3.88779 0
M  V30 5720 H 542.605 -3.47786 -3.02293 0
M  V30 5721 H 540.92 -3.03671 -2.84909 0
M  V30 5722 H 543.517 -1.46361 -5.14279 0
M  V30 5723 H 543.86 -0.0593832 -4.16258 0
M  V30 5724 H 544.393 -1.6665 -3.6121 0
M  V30 5725 H 541.132 -4.38726 -4.87032 0
M  V30 5726 H 540.652 -2.73919 -5.33599 0
M  V30 5727 H 542.331 -3.28344 -5.57494 0
M  V30 5728 N 542.463 1.3308 -0.844243 0
M  V30 5729 C 543.879 1.50447 -0.532729 0
M  V30 5730 C 544.079 1.78292 0.938837 0
M  V30 5731 O 543.135 1.84635 1.72239 0
M  V30 5732 C 544.448 2.65555 -1.41072 0
M  V30 5733 C 545.996 2.7944 -1.41005 0
M  V30 5734 C 546.471 3.97616 -2.27301 0
M  V30 5735 N 547.962 4.0486 -2.2504 0
M  V30 5736 C 548.697 4.95508 -2.88547 0
M  V30 5737 N 548.193 5.91236 -3.61126 0
M  V30 5738 N 549.986 4.88548 -2.77989 0
M  V30 5739 H 542.137 1.13269 -1.79677 0
M  V30 5740 H 544.4 0.55734 -0.766861 0
M  V30 5741 H 544.106 2.51675 -2.45668 0
M  V30 5742 H 543.98 3.61089 -1.09061 0
M  V30 5743 H 546.367 2.92749 -0.371784 0
M  V30 5744 H 546.448 1.8465 -1.77026 0
M  V30 5745 H 546.092 3.85066 -3.3119 0
M  V30 5746 H 546.022 4.91661 -1.88619 0
M  V30 5747 H 548.513 3.36353 -1.72264 0
M  V30 5748 H 548.826 6.57079 -4.06776 0
M  V30 5749 H 547.171 5.91295 -3.65234 0
M  V30 5750 H 550.362 4.12729 -2.20846 0
M  V30 5751 H 550.535 5.58994 -3.27765 0
M  V30 5752 N 543.941 0.601185 1.45683 0
M  V30 5753 C 545.181 0.0968037 2.04171 0
M  V30 5754 C 545.545 -1.2466 1.46027 0
M  V30 5755 O 546.746 -1.84132 1.95829 0
M  V30 5756 C 545.017 0.051384 3.57363 0
M  V30 5757 S 546.576 -0.392737 4.37039 0
M  V30 5758 H 543.394 0.0464504 0.709481 0
M  V30 5759 H 545.996 0.797846 1.78479 0
M  V30 5760 H 544.7 1.03274 3.97193 0
M  V30 5761 H 544.231 -0.671853 3.87621 0
M  V30 5762 H 546.246 -1.64364 4.68187 0
M  V30 5763 N 545.419 -1.53889 0.339982 0
M  V30 5764 C 546.835 -1.59595 -0.0120752 0
M  V30 5765 C 547.035 -1.35605 -1.49042 0
M  V30 5766 O 546.091 -1.14856 -2.24865 0
M  V30 5767 C 547.404 -2.9774 0.420898 0
M  V30 5768 C 548.952 -3.1077 0.37294 0
M  V30 5769 C 549.427 -4.51286 0.781327 0
M  V30 5770 N 550.918 -4.57325 0.735374 0
M  V30 5771 C 551.653 -5.64194 1.02336 0
M  V30 5772 N 551.149 -6.7893 1.37933 0
M  V30 5773 N 552.942 -5.54051 0.947838 0
M  V30 5774 H 545.093 -1.67738 1.30299 0
M  V30 5775 H 547.356 -0.785385 0.530918 0
M  V30 5776 H 547.062 -3.20349 1.45152 0
M  V30 5777 H 546.936 -3.76639 -0.205721 0
M  V30 5778 H 549.323 -2.87886 -0.648505 0
M  V30 5779 H 549.404 -2.33939 1.03472 0
M  V30 5780 H 549.048 -4.74905 1.80077 0
M  V30 5781 H 548.978 -5.26511 0.0970679 0
M  V30 5782 H 551.469 -3.74931 0.472773 0
M  V30 5783 H 551.782 -7.56392 1.58402 0
M  V30 5784 H 550.127 -6.80386 1.41774 0
M  V30 5785 H 553.318 -4.63293 0.669115 0
M  V30 5786 H 553.491 -6.37246 1.17563 0
M  V30 5787 N 546.897 -0.0685191 -1.57451 0
M  V30 5788 C 547.847 0.909895 -2.09057 0
M  V30 5789 C 548.831 1.26088 -0.999528 0
M  V30 5790 O 550.023 1.24041 -1.26265 0
M  V30 5791 C 547.152 2.17863 -2.65312 0
M  V30 5792 C 546.238 1.85427 -3.81415 0
M  V30 5793 N 546.629 1.23426 -4.9051 0
M  V30 5794 C 544.927 2.15196 -3.90649 0
M  V30 5795 C 545.628 1.09008 -5.71395 0
M  V30 5796 N 544.604 1.59871 -5.1956 0
M  V30 5797 H 548.406 0.426145 -2.90794 0
M  V30 5798 H 545.92 0.135462 -1.61834 0
M  V30 5799 H 547.917 2.88872 -3.00597 0
M  V30 5800 H 546.577 2.66829 -1.85021 0
M  V30 5801 H 547.588 0.904305 -5.09944 0
M  V30 5802 H 544.265 2.66562 -3.21327 0
M  V30 5803 H 545.655 0.607305 -6.6915 0
M  V30 5804 N 548.375 1.56261 0.205012 0
M  V30 5805 C 549.786 1.70056 0.770574 0
M  V30 5806 C 550.137 0.673398 1.84282 0
M  V30 5807 O 549.262 -0.172196 2.15714 0
M  V30 5808 C 549.857 3.08316 1.40451 0
M  V30 5809 C 548.416 3.2391 1.91727 0
M  V30 5810 C 547.563 2.66001 0.783516 0
M  V30 5811 H 550.514 1.58688 -0.019911 0
M  V30 5812 H 550.535 3.05094 2.27371 0
M  V30 5813 H 550.047 3.83053 0.623882 0
M  V30 5814 H 548.148 2.54072 2.7254 0
M  V30 5815 H 548.261 4.3131 2.08588 0
M  V30 5816 H 546.625 2.24915 1.19521 0
M  V30 5817 H 547.408 3.43297 0.0152883 0
M  V30 5818 N 549.853 -0.472356 1.50355 0
M  V30 5819 C 551.264 -1.05326 1.54154 0
M  V30 5820 C 551.615 -1.93155 0.344303 0
M  V30 5821 O 550.74 -2.09479 -0.542928 0
M  V30 5822 C 551.335 -1.91691 2.79356 0
M  V30 5823 C 549.894 -2.44892 2.8584 0
M  V30 5824 C 549.041 -1.23205 2.48426 0
M  V30 5825 H 551.992 -0.255027 1.56637 0
M  V30 5826 H 552.013 -2.76742 2.6114 0
M  V30 5827 H 551.525 -1.27741 3.66475 0
M  V30 5828 H 549.626 -3.12399 2.0307 0
M  V30 5829 H 549.739 -2.80086 3.88701 0
M  V30 5830 H 548.103 -1.56643 2.00836 0
M  V30 5831 H 548.886 -0.609194 3.37852 0
M  V30 5832 N 551.331 -1.39911 -0.725443 0
M  V30 5833 C 552.742 -1.33599 -1.30415 0
M  V30 5834 C 553.093 -0.00481792 -1.96199 0
M  V30 5835 O 552.218 0.897275 -1.96921 0
M  V30 5836 C 552.813 -2.41965 -2.37146 0
M  V30 5837 C 551.372 -2.39144 -2.90667 0
M  V30 5838 C 550.519 -2.23355 -1.64341 0
M  V30 5839 H 553.47 -1.4986 -0.522267 0
M  V30 5840 H 553.491 -2.09304 -3.17761 0
M  V30 5841 H 553.003 -3.38837 -1.89238 0
M  V30 5842 H 551.104 -1.4594 -3.4283 0
M  V30 5843 H 551.217 -3.34362 -3.43131 0
M  V30 5844 H 549.581 -1.70696 -1.89037 0
M  V30 5845 H 550.364 -3.2221 -1.18471 0
M  V30 5846 N 552.809 0.956637 -1.25245 0
M  V30 5847 C 554.057 1.69764 -1.09657 0
M  V30 5848 C 554.378 1.91583 0.363464 0
M  V30 5849 O 553.648 1.50149 1.25825 0
M  V30 5850 H 552.228 0.629097 -0.402798 0
M  V30 5851 H 554.89 1.15026 -1.57337 0
M  V30 5852 H 553.986 2.67769 -1.60331 0
M  V30 5853 N 554.287 1.06798 1.15896 0
M  V30 5854 C 555.512 0.808739 1.90982 0
M  V30 5855 C 555.937 -0.6316 1.77179 0
M  V30 5856 O 555.295 -1.4407 1.10061 0
M  V30 5857 C 555.343 1.21468 3.39526 0
M  V30 5858 O 554.447 0.356562 4.10856 0
M  V30 5859 H 553.788 0.29512 0.594811 0
M  V30 5860 H 556.318 1.42513 1.46804 0
M  V30 5861 H 556.328 1.18844 3.90308 0
M  V30 5862 H 555.003 2.26379 3.48891 0
M  V30 5863 H 553.58 0.444808 3.70238 0
M  V30 5864 N 555.766 -1.3263 0.851289 0
M  V30 5865 C 556.716 -2.26451 0.265302 0
M  V30 5866 C 557.7 -1.49814 -0.586899 0
M  V30 5867 O 558.892 -1.71525 -0.436834 0
M  V30 5868 C 556.021 -3.38895 -0.548212 0
M  V30 5869 C 555.107 -4.2292 0.316189 0
M  V30 5870 N 555.498 -4.86014 1.40084 0
M  V30 5871 C 553.796 -4.45876 0.105356 0
M  V30 5872 C 554.497 -5.48667 1.93235 0
M  V30 5873 N 553.473 -5.29455 1.232 0
M  V30 5874 H 557.275 -2.72757 1.09457 0
M  V30 5875 H 554.789 -1.4668 0.697047 0
M  V30 5876 H 556.786 -4.05111 -0.984402 0
M  V30 5877 H 555.446 -2.94135 -1.37531 0
M  V30 5878 H 556.457 -4.86212 1.78377 0
M  V30 5879 H 553.134 -4.11804 -0.687299 0
M  V30 5880 H 554.524 -6.08865 2.84135 0
M  V30 5881 N 557.244 -0.608902 -1.45362 0
M  V30 5882 C 558.174 0.0964526 -2.33301 0
M  V30 5883 C 559.155 0.857444 -1.46908 0
M  V30 5884 O 560.34 0.827735 -1.75676 0
M  V30 5885 C 557.47 1.09354 -3.29635 0
M  V30 5886 C 556.424 0.445676 -4.25673 0
M  V30 5887 C 555.75 1.5511 -5.11708 0
M  V30 5888 C 557.05 -0.633972 -5.18438 0
M  V30 5889 H 558.744 -0.637829 -2.92527 0
M  V30 5890 H 556.29 -0.308178 -1.40664 0
M  V30 5891 H 558.243 1.59556 -3.90025 0
M  V30 5892 H 556.967 1.85843 -2.6857 0
M  V30 5893 H 555.626 -0.0354897 -3.66583 0
M  V30 5894 H 555.274 2.30631 -4.4701 0
M  V30 5895 H 554.974 1.12311 -5.76767 0
M  V30 5896 H 556.498 2.05537 -5.74967 0
M  V30 5897 H 557.912 -0.215974 -5.72893 0
M  V30 5898 H 556.309 -0.983789 -5.91981 0
M  V30 5899 H 557.379 -1.51005 -4.60788 0
M  V30 5900 N 558.722 1.53707 -0.348139 0
M  V30 5901 C 559.652 2.28111 0.498766 0
M  V30 5902 C 560.633 1.29851 1.09876 0
M  V30 5903 O 561.818 1.587 1.11928 0
M  V30 5904 C 558.948 3.05735 1.64753 0
M  V30 5905 C 557.902 4.11537 1.17565 0
M  V30 5906 C 557.228 4.77142 2.4133 0
M  V30 5907 C 558.528 5.21587 0.272844 0
M  V30 5908 H 560.222 2.99152 -0.121934 0
M  V30 5909 H 557.768 1.43875 -0.0600842 0
M  V30 5910 H 559.721 3.56526 2.24649 0
M  V30 5911 H 558.445 2.32354 2.2952 0
M  V30 5912 H 557.104 3.61665 0.599483 0
M  V30 5913 H 556.752 4.0035 3.04514 0
M  V30 5914 H 556.452 5.48626 2.10436 0
M  V30 5915 H 557.976 5.30719 3.01943 0
M  V30 5916 H 559.39 5.67986 0.778779 0
M  V30 5917 H 557.787 6.00074 0.0555849 0
M  V30 5918 H 558.857 4.79969 -0.689785 0
M  V30 5919 N 560.2 0.0768682 1.57412 0
M  V30 5920 C 561.43 -0.5991 1.97723 0
M  V30 5921 C 561.838 -1.63378 0.954166 0
M  V30 5922 O 561.181 -1.83578 -0.0668706 0
M  V30 5923 C 561.243 -1.32078 3.34358 0
M  V30 5924 C 560.907 -0.438985 4.54887 0
M  V30 5925 C 561.904 0.305492 5.19002 0
M  V30 5926 C 559.589 -0.362378 5.00991 0
M  V30 5927 C 561.583 1.11475 6.27576 0
M  V30 5928 C 559.27 0.450543 6.09437 0
M  V30 5929 C 560.268 1.18777 6.72593 0
M  V30 5930 O 559.956 1.98727 7.7895 0
M  V30 5931 H 559.688 -0.166725 0.655117 0
M  V30 5932 H 562.242 0.147337 2.04871 0
M  V30 5933 H 560.472 -2.1134 3.2384 0
M  V30 5934 H 562.161 -1.88949 3.5924 0
M  V30 5935 H 562.927 0.25593 4.84324 0
M  V30 5936 H 558.806 -0.925832 4.51608 0
M  V30 5937 H 562.35 1.69068 6.76803 0
M  V30 5938 H 558.247 0.501651 6.43548 0
M  V30 5939 H 559.015 1.91214 7.95851 0
M  V30 5940 N 561.678 -1.56367 -0.196722 0
M  V30 5941 C 562.641 -1.93561 -1.22746 0
M  V30 5942 C 563.641 -0.816566 -1.38524 0
M  V30 5943 O 564.831 -1.084 -1.36363 0
M  V30 5944 C 561.963 -2.20823 -2.59712 0
M  V30 5945 H 563.156 -2.85774 -0.909586 0
M  V30 5946 H 560.709 -1.50032 -0.438174 0
M  V30 5947 H 561.444 -1.31243 -2.96557 0
M  V30 5948 H 561.229 -3.02368 -2.49632 0
M  V30 5949 H 562.719 -2.50608 -3.34044 0
M  V30 5950 N 563.156 0.464375 -1.50603 0
M  V30 5951 C 564.103 1.56152 -1.69956 0
M  V30 5952 C 565.073 1.57046 -0.54091 0
M  V30 5953 O 566.258 1.74473 -0.772258 0
M  V30 5954 C 563.398 2.94079 -1.80586 0
M  V30 5955 C 562.511 3.02923 -3.07996 0
M  V30 5956 C 561.646 4.31806 -3.09382 0
M  V30 5957 C 560.685 4.34417 -4.31218 0
M  V30 5958 N 559.822 5.54782 -4.30304 0
M  V30 5959 H 564.662 1.38955 -2.6362 0
M  V30 5960 H 562.199 0.675482 -1.30674 0
M  V30 5961 H 564.157 3.74073 -1.8473 0
M  V30 5962 H 562.787 3.09896 -0.903556 0
M  V30 5963 H 561.839 2.1576 -3.13292 0
M  V30 5964 H 563.151 3.00712 -3.97962 0
M  V30 5965 H 562.305 5.20153 -3.12292 0
M  V30 5966 H 561.044 4.36636 -2.17257 0
M  V30 5967 H 560.049 3.44467 -4.28512 0
M  V30 5968 H 561.274 4.31273 -5.24576 0
M  V30 5969 H 559.22 5.60384 -3.41037 0
M  V30 5970 H 559.137 5.54339 -5.14047 0
M  V30 5971 H 560.405 6.45235 -4.3737 0
M  V30 5972 N 564.634 1.40294 0.718013 0
M  V30 5973 C 565.567 1.34767 1.84155 0
M  V30 5974 C 566.545 0.218455 1.61126 0
M  V30 5975 O 567.729 0.401716 1.8417 0
M  V30 5976 C 564.856 1.09676 3.20451 0
M  V30 5977 C 563.902 2.25016 3.62312 0
M  V30 5978 S 564.735 3.87397 3.69707 0
M  V30 5979 C 565.891 3.64565 5.08766 0
M  V30 5980 H 566.124 2.29851 1.88562 0
M  V30 5981 H 563.657 1.2655 0.884555 0
M  V30 5982 H 565.615 0.95885 3.99144 0
M  V30 5983 H 564.276 0.162502 3.13679 0
M  V30 5984 H 563.469 2.03097 4.61268 0
M  V30 5985 H 563.071 2.35098 2.90869 0
M  V30 5986 H 565.363 3.22882 5.95612 0
M  V30 5987 H 566.306 4.63043 5.35721 0
M  V30 5988 H 566.714 2.98303 4.79245 0
M  V30 5989 N 566.112 -0.949982 1.2575 0
M  V30 5990 C 567.361 -1.68956 1.10168 0
M  V30 5991 C 567.674 -1.92327 -0.356309 0
M  V30 5992 O 568.88 -2.64026 -0.632657 0
M  V30 5993 C 567.336 -3.04196 1.92336 0
M  V30 5994 C 566.944 -2.88603 3.42655 0
M  V30 5995 C 568.688 -3.81904 1.85336 0
M  V30 5996 C 566.595 -4.19262 4.17101 0
M  V30 5997 H 565.525 -0.633645 0.408668 0
M  V30 5998 H 568.176 -1.05719 1.49986 0
M  V30 5999 H 566.558 -3.68363 1.45344 0
M  V30 6000 H 567.732 -2.3334 3.97353 0
M  V30 6001 H 566.047 -2.24345 3.50796 0
M  V30 6002 H 568.644 -4.78688 2.38248 0
M  V30 6003 H 568.987 -4.08099 0.822226 0
M  V30 6004 H 569.52 -3.24495 2.30104 0
M  V30 6005 H 566.259 -3.98254 5.20648 0
M  V30 6006 H 565.779 -4.74273 3.67186 0
M  V30 6007 H 567.458 -4.87775 4.25071 0
M  V30 6008 N 567.59 -1.07411 -1.15328 0
M  V30 6009 C 568.522 -0.652924 -2.19703 0
M  V30 6010 C 569.535 0.294869 -1.60107 0
M  V30 6011 O 570.724 0.0840932 -1.78302 0
M  V30 6012 C 567.824 0.061434 -3.38844 0
M  V30 6013 C 566.997 -0.902696 -4.27984 0
M  V30 6014 C 566.056 -0.225521 -5.25717 0
M  V30 6015 O 565.082 -0.86676 -5.62562 0
M  V30 6016 N 566.284 1.02858 -5.71315 0
M  V30 6017 H 569.049 -1.55081 -2.56457 0
M  V30 6018 H 566.61 -0.958883 -1.30449 0
M  V30 6019 H 568.602 0.525145 -4.01278 0
M  V30 6020 H 567.172 0.861269 -3.00501 0
M  V30 6021 H 566.392 -1.54551 -3.6264 0
M  V30 6022 H 567.68 -1.55636 -4.84412 0
M  V30 6023 H 567.078 1.56948 -5.43492 0
M  V30 6024 H 565.635 1.43596 -6.35786 0
M  V30 6025 N 569.068 1.32177 -0.85831 0
M  V30 6026 C 570.015 2.28794 -0.303607 0
M  V30 6027 C 570.985 1.55213 0.591453 0
M  V30 6028 O 572.17 1.83418 0.525585 0
M  V30 6029 C 569.31 3.41475 0.49889 0
M  V30 6030 C 568.423 4.2993 -0.422373 0
M  V30 6031 C 567.558 5.29743 0.393111 0
M  V30 6032 C 566.597 6.09842 -0.525317 0
M  V30 6033 N 565.734 7.01643 0.253208 0
M  V30 6034 H 570.574 2.75631 -1.13276 0
M  V30 6035 H 568.111 1.35606 -0.570026 0
M  V30 6036 H 570.069 4.05531 0.979826 0
M  V30 6037 H 568.699 2.95779 1.29284 0
M  V30 6038 H 567.751 3.66422 -1.02171 0
M  V30 6039 H 569.063 4.85899 -1.12709 0
M  V30 6040 H 568.217 5.9942 0.937056 0
M  V30 6041 H 566.956 4.744 1.13117 0
M  V30 6042 H 565.961 5.39066 -1.08112 0
M  V30 6043 H 567.186 6.6727 -1.26205 0
M  V30 6044 H 565.132 6.48725 0.974295 0
M  V30 6045 H 565.049 7.54981 -0.392398 0
M  V30 6046 H 566.317 7.756 0.778761 0
M  V30 6047 N 570.547 0.616602 1.45037 0
M  V30 6048 C 571.477 -0.0840787 2.33349 0
M  V30 6049 C 572.458 -0.849641 1.4736 0
M  V30 6050 O 573.643 -0.818407 1.76113 0
M  V30 6051 C 570.773 -1.07604 3.3021 0
M  V30 6052 C 569.727 -0.423096 4.25904 0
M  V30 6053 C 569.053 -1.52394 5.12523 0
M  V30 6054 C 570.353 0.661457 5.18095 0
M  V30 6055 H 572.047 0.653333 2.92185 0
M  V30 6056 H 569.593 0.315634 1.40498 0
M  V30 6057 H 571.546 -1.57485 3.90866 0
M  V30 6058 H 570.27 -1.84416 2.69552 0
M  V30 6059 H 568.929 0.05493 3.66559 0
M  V30 6060 H 568.577 -2.28257 4.48227 0
M  V30 6061 H 568.277 -1.09251 5.77354 0
M  V30 6062 H 569.801 -2.02485 5.76049 0
M  V30 6063 H 571.215 0.246353 5.7277 0
M  V30 6064 H 569.612 1.01517 5.91451 0
M  V30 6065 H 570.682 1.53446 4.59981 0
M  V30 6066 N 572.025 -1.5352 0.356285 0
M  V30 6067 C 572.988 -2.24071 -0.482182 0
M  V30 6068 C 573.988 -1.24531 -1.01729 0
M  V30 6069 O 575.178 -1.48876 -0.904513 0
M  V30 6070 C 572.31 -2.97025 -1.67299 0
M  V30 6071 H 573.503 -2.99596 0.135031 0
M  V30 6072 H 571.056 -1.55928 0.107825 0
M  V30 6073 H 571.791 -2.25719 -2.32855 0
M  V30 6074 H 571.576 -3.7005 -1.29636 0
M  V30 6075 H 573.066 -3.50683 -2.26741 0
M  V30 6076 N 573.503 -0.0852151 -1.57369 0
M  V30 6077 C 574.78 0.622534 -1.85429 0
M  V30 6078 C 575.16 1.86962 -0.980229 0
M  V30 6079 O 574.508 2.28445 -0.0500219 0
M  V30 6080 C 574.718 0.947374 -3.35896 0
M  V30 6081 C 576.066 1.31509 -4.03721 0
M  V30 6082 O 577.09 1.03869 -3.40719 0
M  V30 6083 O 575.949 1.83231 -5.14868 0
M  V30 6084 H 573.043 0.310513 -0.766492 0
M  V30 6085 H 575.589 -0.117164 -1.69295 0
M  V30 6086 H 574.361 0.0622264 -3.91251 0
M  V30 6087 H 573.984 1.74338 -3.5734 0
M  V30 6088 N 574.981 1.5647 0.188427 0
M  V30 6089 C 575.911 1.98101 1.23606 0
M  V30 6090 C 576.892 0.853961 1.47111 0
M  V30 6091 O 578.077 1.11879 1.58735 0
M  V30 6092 C 575.207 2.32624 2.57882 0
M  V30 6093 C 574.161 3.48129 2.48978 0
M  V30 6094 C 573.487 3.68347 3.87588 0
M  V30 6095 C 574.787 4.82112 2.00911 0
M  V30 6096 H 576.481 2.85864 0.890068 0
M  V30 6097 H 574.027 1.37532 0.426714 0
M  V30 6098 H 575.98 2.60343 3.3136 0
M  V30 6099 H 574.704 1.41751 2.94235 0
M  V30 6100 H 573.363 3.20511 1.77956 0
M  V30 6101 H 573.011 2.74793 4.21305 0
M  V30 6102 H 572.711 4.46055 3.82503 0
M  V30 6103 H 574.235 3.98449 4.62678 0
M  V30 6104 H 575.649 5.08819 2.64151 0
M  V30 6105 H 574.046 5.63337 2.06814 0
M  V30 6106 H 575.116 4.75249 0.96262 0
M  V30 6107 N 576.459 -0.456382 1.50847 0
M  V30 6108 C 577.875 -0.791345 1.386 0
M  V30 6109 C 578.075 -1.9633 0.453498 0
M  V30 6110 O 577.131 -2.52308 -0.0984353 0
M  V30 6111 C 578.444 -1.08959 2.80265 0
M  V30 6112 C 579.992 -1.19517 2.89283 0
M  V30 6113 C 580.467 -1.52647 4.31814 0
M  V30 6114 N 581.958 -1.59609 4.34832 0
M  V30 6115 C 582.693 -1.86777 5.42127 0
M  V30 6116 N 582.189 -2.11866 6.59609 0
M  V30 6117 N 583.982 -1.88402 5.29586 0
M  V30 6118 H 576.133 0.315746 2.1004 0
M  V30 6119 H 578.396 0.0787916 0.94472 0
M  V30 6120 H 578.102 -0.301355 3.50407 0
M  V30 6121 H 577.976 -2.02211 3.18419 0
M  V30 6122 H 580.363 -1.97406 2.19351 0
M  V30 6123 H 580.444 -0.242111 2.54652 0
M  V30 6124 H 580.088 -0.752922 5.02288 0
M  V30 6125 H 580.018 -2.49127 4.63943 0
M  V30 6126 H 582.509 -1.42201 3.50125 0
M  V30 6127 H 582.822 -2.31912 7.37182 0
M  V30 6128 H 581.167 -2.09228 6.62758 0
M  V30 6129 H 584.358 -1.68307 4.36795 0
M  V30 6130 H 584.531 -2.09238 6.13289 0
M  V30 6131 N 577.937 -1.40673 -0.710563 0
M  V30 6132 C 579.162 -1.42741 -1.50465 0
M  V30 6133 C 579.587 -0.0302116 -1.88076 0
M  V30 6134 O 578.945 0.962945 -1.53613 0
M  V30 6135 C 578.993 -2.32873 -2.75322 0
M  V30 6136 O 578.097 -1.77544 -3.72226 0
M  V30 6137 H 577.438 -0.485056 -0.45345 0
M  V30 6138 H 579.968 -1.84961 -0.874681 0
M  V30 6139 H 579.978 -2.48233 -3.23797 0
M  V30 6140 H 578.653 -3.34401 -2.47283 0
M  V30 6141 H 577.23 -1.71556 -3.31093 0
M  V30 6142 N 579.415 0.9433 -1.26252 0
M  V30 6143 C 580.345 2.05902 -1.10122 0
M  V30 6144 C 581.326 1.70099 -0.00700552 0
M  V30 6145 O 582.511 1.93377 -0.178641 0
M  V30 6146 C 579.641 3.39516 -0.731175 0
M  V30 6147 C 578.595 3.89372 -1.77688 0
M  V30 6148 C 577.921 5.19613 -1.26122 0
M  V30 6149 C 579.221 4.14489 -3.17799 0
M  V30 6150 H 580.915 2.19655 -2.03451 0
M  V30 6151 H 578.461 1.05548 -0.979576 0
M  V30 6152 H 580.414 4.17031 -0.605215 0
M  V30 6153 H 579.138 3.25733 0.23782 0
M  V30 6154 H 577.797 3.14036 -1.89148 0
M  V30 6155 H 577.445 5.02208 -0.282128 0
M  V30 6156 H 577.145 5.53939 -1.96023 0
M  V30 6157 H 578.669 5.99713 -1.14789 0
M  V30 6158 H 580.083 4.82625 -3.09428 0
M  V30 6159 H 578.48 4.60094 -3.85271 0
M  V30 6160 H 579.55 3.20347 -3.64014 0
M  V30 6161 N 580.893 1.08022 1.14757 0
M  V30 6162 C 581.841 0.701088 2.21783 0
M  V30 6163 C 582.835 -0.291311 1.66876 0
M  V30 6164 O 584.041 -0.154296 1.79337 0
M  V30 6165 H 580.416 0.208668 0.722469 0
M  V30 6166 H 582.387 1.61321 2.51034 0
M  V30 6167 C 581.136 0.122278 3.47485 0
M  V30 6168 H 580.459 0.877065 3.90061 0
M  V30 6169 H 581.899 -0.105248 4.23869 0
M  V30 6170 C 580.358 -1.13883 3.17068 0
M  V30 6171 O 580.888 -2.22429 3.34497 0
M  V30 6172 N 579.094 -1.04767 2.71058 0
M  V30 6173 H 578.641 -0.164302 2.57075 0
M  V30 6174 H 578.599 -1.89224 2.51081 0
M  V30 6175 N 582.371 -1.3172 0.865308 0
M  V30 6176 C 583.281 -2.32394 0.320935 0
M  V30 6177 C 584.297 -1.64511 -0.566746 0
M  V30 6178 O 585.473 -1.95969 -0.464575 0
M  V30 6179 C 582.538 -3.43462 -0.472701 0
M  V30 6180 C 581.599 -4.27015 0.442385 0
M  V30 6181 C 580.832 -5.32779 -0.313469 0
M  V30 6182 O 581.055 -5.49158 -1.54214 0
M  V30 6183 O 579.989 -6.01015 0.326257 0
M  V30 6184 H 583.815 -2.80868 1.15528 0
M  V30 6185 H 581.4 -1.35535 0.628545 0
M  V30 6186 H 583.282 -4.11172 -0.922781 0
M  V30 6187 H 581.957 -2.97159 -1.28367 0
M  V30 6188 H 580.864 -3.62075 0.940866 0
M  V30 6189 H 582.197 -4.76871 1.21882 0
M  V30 6190 N 583.85 -0.624285 -1.44708 0
M  V30 6191 C 584.76 0.0861083 -2.34442 0
M  V30 6192 C 585.776 0.84291 -1.5222 0
M  V30 6193 O 586.952 0.796723 -1.84971 0
M  V30 6194 C 584.017 1.05999 -3.30099 0
M  V30 6195 C 583.077 0.303316 -4.28227 0
M  V30 6196 C 582.311 1.23081 -5.19314 0
M  V30 6197 O 582.534 2.46929 -5.14181 0
M  V30 6198 O 581.468 0.71883 -5.97592 0
M  V30 6199 H 585.293 -0.651756 -2.96624 0
M  V30 6200 H 582.879 -0.384493 -1.44368 0
M  V30 6201 H 584.76 1.62046 -3.88997 0
M  V30 6202 H 583.436 1.77859 -2.70459 0
M  V30 6203 H 582.343 -0.300033 -3.72895 0
M  V30 6204 H 583.676 -0.375123 -4.90768 0
M  V30 6205 N 585.328 1.53329 -0.364422 0
M  V30 6206 C 586.278 2.22472 0.499024 0
M  V30 6207 C 587.262 1.21952 1.0496 0
M  V30 6208 O 588.454 1.47405 0.979836 0
M  V30 6209 C 585.583 3.01659 1.6388 0
M  V30 6210 C 584.669 4.09555 1.10116 0
M  V30 6211 N 585.06 5.04988 0.286414 0
M  V30 6212 C 583.358 4.2424 1.37608 0
M  V30 6213 C 584.059 5.81699 -0.00781682 0
M  V30 6214 N 583.035 5.40394 0.589494 0
M  V30 6215 H 586.837 2.93611 -0.130284 0
M  V30 6216 H 584.351 1.61483 -0.172377 0
M  V30 6217 H 586.348 3.4971 2.26954 0
M  V30 6218 H 585.008 2.32051 2.27118 0
M  V30 6219 H 586.019 5.17847 -0.0742839 0
M  V30 6220 H 582.696 3.65858 2.01133 0
M  V30 6221 H 584.086 6.68587 -0.666394 0
M  V30 6222 N 586.806 0.0935595 1.57322 0
M  V30 6223 C 588.031 -0.582324 1.99057 0
M  V30 6224 C 588.456 -1.61025 0.972242 0
M  V30 6225 O 587.814 -1.81202 -0.0594622 0
M  V30 6226 C 587.862 -1.20799 3.39765 0
M  V30 6227 O 586.966 -2.32382 3.40694 0
M  V30 6228 H 586.307 -0.147884 0.647323 0
M  V30 6229 H 588.837 0.174516 2.03854 0
M  V30 6230 H 588.847 -1.54966 3.77425 0
M  V30 6231 H 587.522 -0.454914 4.13405 0
M  V30 6232 H 586.099 -1.99845 3.14827 0
M  V30 6233 N 588.284 -1.56567 -0.180126 0
M  V30 6234 C 589.231 -1.95725 -1.22313 0
M  V30 6235 C 590.201 -0.819911 -1.44453 0
M  V30 6236 O 591.386 -1.07931 -1.57339 0
M  V30 6237 C 588.526 -2.31484 -2.55947 0
M  V30 6238 C 587.639 -3.58354 -2.4126 0
M  V30 6239 C 586.774 -3.83366 -3.67701 0
M  V30 6240 C 585.813 -5.03612 -3.47909 0
M  V30 6241 N 584.95 -5.24802 -4.66398 0
M  V30 6242 H 589.79 -2.84642 -0.882198 0
M  V30 6243 H 587.327 -1.4085 -0.42422 0
M  V30 6244 H 589.285 -2.50237 -3.33822 0
M  V30 6245 H 587.915 -1.45689 -2.88053 0
M  V30 6246 H 586.967 -3.47565 -1.54606 0
M  V30 6247 H 588.279 -4.46386 -2.22577 0
M  V30 6248 H 587.433 -4.02439 -4.54013 0
M  V30 6249 H 586.172 -2.93692 -3.89353 0
M  V30 6250 H 585.177 -4.84447 -2.59983 0
M  V30 6251 H 586.402 -5.94809 -3.27688 0
M  V30 6252 H 584.348 -4.38079 -4.88286 0
M  V30 6253 H 584.265 -6.07041 -4.50596 0
M  V30 6254 H 585.533 -5.48346 -5.54019 0
M  V30 6255 N 589.762 0.448376 -1.51087 0
M  V30 6256 C 590.694 1.56146 -1.67783 0
M  V30 6257 C 591.707 1.52913 -0.55871 0
M  V30 6258 O 592.896 1.57889 -0.83267 0
M  V30 6259 C 589.996 2.95057 -1.66716 0
M  V30 6260 C 589.169 3.22915 -2.95033 0
M  V30 6261 C 588.228 4.41495 -2.86302 0
M  V30 6262 O 587.254 4.40688 -3.60254 0
M  V30 6263 N 588.456 5.44443 -2.014 0
M  V30 6264 H 591.221 1.42232 -2.638 0
M  V30 6265 H 588.782 0.637153 -1.48835 0
M  V30 6266 H 590.774 3.72388 -1.58458 0
M  V30 6267 H 589.344 3.02624 -0.783403 0
M  V30 6268 H 588.564 2.33985 -3.17245 0
M  V30 6269 H 589.852 3.38349 -3.79996 0
M  V30 6270 H 589.25 5.4793 -1.40674 0
M  V30 6271 H 587.807 6.2067 -1.99029 0
M  V30 6272 N 591.24 1.41047 0.703093 0
M  V30 6273 C 592.47 1.43133 1.48985 0
M  V30 6274 C 592.878 0.0328537 1.89171 0
M  V30 6275 O 592.221 -0.956469 1.56835 0
M  V30 6276 C 592.283 2.26991 2.78775 0
M  V30 6277 C 591.947 3.7525 2.60837 0
M  V30 6278 C 592.944 4.67591 2.27276 0
M  V30 6279 C 590.629 4.19208 2.76712 0
M  V30 6280 C 592.623 6.01877 2.09817 0
M  V30 6281 C 590.31 5.53561 2.5887 0
M  V30 6282 C 591.308 6.4471 2.25472 0
M  V30 6283 O 590.996 7.76584 2.07778 0
M  V30 6284 H 590.728 0.489788 0.465922 0
M  V30 6285 H 593.282 1.85886 0.873822 0
M  V30 6286 H 591.512 1.79038 3.42757 0
M  V30 6287 H 593.201 2.20867 3.40547 0
M  V30 6288 H 593.967 4.34923 2.14633 0
M  V30 6289 H 589.846 3.48572 3.01693 0
M  V30 6290 H 593.39 6.72986 1.83671 0
M  V30 6291 H 589.287 5.85811 2.71102 0
M  V30 6292 H 590.055 7.87649 2.22601 0
M  V30 6293 N 592.718 -0.936591 1.26751 0
M  V30 6294 C 594.134 -1.21095 1.03963 0
M  V30 6295 C 594.334 -2.00156 -0.232372 0
M  V30 6296 O 593.39 -2.3434 -0.940274 0
M  V30 6297 C 594.703 -1.96775 2.27377 0
M  V30 6298 C 596.251 -2.09749 2.32324 0
M  V30 6299 C 596.726 -2.88832 3.55443 0
M  V30 6300 N 598.217 -2.96404 3.55948 0
M  V30 6301 C 598.952 -3.58036 4.47881 0
M  V30 6302 N 598.448 -4.21132 5.50109 0
M  V30 6303 N 600.241 -3.55353 4.35523 0
M  V30 6304 H 592.392 -0.408173 2.08441 0
M  V30 6305 H 594.655 -0.243139 0.91629 0
M  V30 6306 H 594.361 -1.46094 3.19921 0
M  V30 6307 H 594.235 -2.97424 2.31989 0
M  V30 6308 H 596.622 -2.5962 1.40291 0
M  V30 6309 H 596.703 -1.08347 2.31721 0
M  V30 6310 H 596.347 -2.39647 4.47808 0
M  V30 6311 H 596.277 -3.90499 3.53296 0
M  V30 6312 H 598.768 -2.51552 2.82011 0
M  V30 6313 H 599.081 -4.66071 6.16439 0
M  V30 6314 H 597.426 -4.19705 5.53961 0
M  V30 6315 H 600.617 -3.05256 3.54875 0
M  V30 6316 H 600.79 -4.03097 5.07363 0
M  V30 6317 N 594.196 -1.08629 -1.14182 0
M  V30 6318 C 595.436 -0.826884 -1.86928 0
M  V30 6319 C 595.8 0.635808 -1.81167 0
M  V30 6320 O 597.001 1.0108 -2.49071 0
M  V30 6321 C 595.272 -1.33721 -3.31442 0
M  V30 6322 S 596.831 -1.21045 -4.21774 0
M  V30 6323 H 593.649 -0.299286 -0.644941 0
M  V30 6324 H 596.251 -1.38802 -1.37674 0
M  V30 6325 H 594.955 -2.39617 -3.33184 0
M  V30 6326 H 594.486 -0.771839 -3.85754 0
M  V30 6327 H 596.501 -0.156168 -4.95954 0
M  V30 6328 N 595.674 1.31259 -0.872281 0
M  V30 6329 C 596.604 2.30929 -0.345554 0
M  V30 6330 C 597.585 1.60449 0.5648 0
M  V30 6331 O 598.77 1.8814 0.481335 0
M  V30 6332 C 595.9 3.44348 0.451823 0
M  V30 6333 C 594.854 4.26435 -0.365641 0
M  V30 6334 C 594.18 5.31785 0.557562 0
M  V30 6335 C 595.48 4.97159 -1.60095 0
M  V30 6336 H 597.174 2.75234 -1.17841 0
M  V30 6337 H 594.72 1.3232 -0.568094 0
M  V30 6338 H 596.673 4.13128 0.830854 0
M  V30 6339 H 595.397 2.98816 1.31821 0
M  V30 6340 H 594.056 3.59326 -0.726649 0
M  V30 6341 H 593.704 4.82502 1.4213 0
M  V30 6342 H 593.404 5.87598 0.0144878 0
M  V30 6343 H 594.928 6.03424 0.933387 0
M  V30 6344 H 596.342 5.58523 -1.29323 0
M  V30 6345 H 594.739 5.62779 -2.08327 0
M  V30 6346 H 595.809 4.24012 -2.35249 0
M  V30 6347 N 597.152 0.631951 1.44375 0
M  V30 6348 C 598.377 0.142146 2.06912 0
M  V30 6349 C 598.802 -1.17456 1.4692 0
M  V30 6350 O 598.16 -1.72074 0.570975 0
M  V30 6351 C 598.208 0.0417952 3.60576 0
M  V30 6352 O 597.312 -1.00194 4.00044 0
M  V30 6353 H 596.653 0.0851491 0.658518 0
M  V30 6354 H 599.183 0.868863 1.85235 0
M  V30 6355 H 599.193 -0.148517 4.0773 0
M  V30 6356 H 597.868 1.0031 4.03622 0
M  V30 6357 H 596.445 -0.786131 3.64519 0
M  V30 6358 N 598.631 -1.53133 0.372548 0
M  V30 6359 C 599.878 -2.01356 -0.214959 0
M  V30 6360 C 600.206 -1.2596 -1.48204 0
M  V30 6361 O 599.461 -0.343511 -1.92662 0
M  V30 6362 C 599.76 -3.53206 -0.545938 0
M  V30 6363 C 599.426 -4.46511 0.627624 0
M  V30 6364 C 598.088 -4.71737 0.949615 0
M  V30 6365 C 600.44 -5.01666 1.41353 0
M  V30 6366 C 597.768 -5.4937 2.05936 0
M  V30 6367 C 600.12 -5.80511 2.51375 0
M  V30 6368 C 598.784 -6.04022 2.84101 0
M  V30 6369 H 598.054 -0.736813 -0.078659 0
M  V30 6370 H 600.701 -1.84682 0.506447 0
M  V30 6371 H 599.006 -3.67864 -1.34845 0
M  V30 6372 H 600.703 -3.87997 -1.01287 0
M  V30 6373 H 597.293 -4.27029 0.366635 0
M  V30 6374 H 601.477 -4.82117 1.17802 0
M  V30 6375 H 596.733 -5.65803 2.31682 0
M  V30 6376 H 600.907 -6.22255 3.12684 0
M  V30 6377 H 598.534 -6.63962 3.70214 0
M  V30 6378 N 600.109 -0.101901 -1.5727 0
M  V30 6379 C 601.041 0.884723 -2.11436 0
M  V30 6380 C 602.054 1.24149 -1.05314 0
M  V30 6381 O 603.243 1.19341 -1.3274 0
M  V30 6382 C 600.343 2.19179 -2.58484 0
M  V30 6383 C 599.516 2.00933 -3.88516 0
M  V30 6384 C 598.575 3.15213 -4.2134 0
M  V30 6385 O 597.601 2.88877 -4.90448 0
M  V30 6386 N 598.803 4.41174 -3.77288 0
M  V30 6387 H 601.568 0.422058 -2.96713 0
M  V30 6388 H 599.129 0.0830128 -1.61687 0
M  V30 6389 H 601.121 2.94593 -2.77484 0
M  V30 6390 H 599.691 2.56847 -1.7818 0
M  V30 6391 H 598.911 1.09809 -3.78597 0
M  V30 6392 H 600.199 1.86026 -4.73573 0
M  V30 6393 H 599.597 4.6545 -3.21516 0
M  V30 6394 H 598.154 5.13515 -4.01429 0
M  V30 6395 N 601.587 1.56661 0.17182 0
M  V30 6396 C 602.998 1.71652 0.734329 0
M  V30 6397 C 603.349 0.712335 1.82812 0
M  V30 6398 O 602.474 -0.126401 2.16031 0
M  V30 6399 C 603.069 3.11226 1.3388 0
M  V30 6400 C 601.628 3.27904 1.84813 0
M  V30 6401 C 600.775 2.67603 0.726917 0
M  V30 6402 H 603.726 1.5861 -0.0535665 0
M  V30 6403 H 603.747 3.09849 2.20849 0
M  V30 6404 H 603.259 3.8429 0.54249 0
M  V30 6405 H 601.36 2.59796 2.6709 0
M  V30 6406 H 601.473 4.35637 1.99392 0
M  V30 6407 H 599.837 2.274 1.14723 0
M  V30 6408 H 600.62 3.43252 -0.0575334 0
M  V30 6409 N 603.065 -0.440357 1.51323 0
M  V30 6410 C 603.975 -1.55955 1.75258 0
M  V30 6411 C 604.991 -1.61933 0.636687 0
M  V30 6412 O 606.167 -1.79231 0.918593 0
M  V30 6413 C 603.232 -2.9196 1.86977 0
M  V30 6414 C 602.293 -2.96122 3.10822 0
M  V30 6415 C 601.526 -4.2564 3.21973 0
M  V30 6416 O 601.749 -5.17851 2.39137 0
M  V30 6417 O 600.683 -4.36025 4.14929 0
M  V30 6418 H 604.509 -1.38673 2.70191 0
M  V30 6419 H 602.094 -0.623055 1.35788 0
M  V30 6420 H 603.976 -3.72682 1.96688 0
M  V30 6421 H 602.651 -3.09375 0.952307 0
M  V30 6422 H 601.558 -2.14366 3.06591 0
M  V30 6423 H 602.891 -2.83651 4.02247 0
M  V30 6424 N 604.543 -1.41418 -0.695603 0
M  V30 6425 C 605.783 -1.42241 -1.46788 0
M  V30 6426 C 606.147 -0.0300827 -1.91976 0
M  V30 6427 O 607.348 0.0868914 -2.6866 0
M  V30 6428 C 605.619 -2.4011 -2.6473 0
M  V30 6429 S 607.178 -2.59462 -3.53871 0
M  V30 6430 H 603.996 -0.503893 -0.50161 0
M  V30 6431 H 606.598 -1.77855 -0.811654 0
M  V30 6432 H 605.302 -3.40073 -2.29736 0
M  V30 6433 H 604.833 -2.05849 -3.35246 0
M  V30 6434 H 606.848 -1.862 -4.59939 0
M  V30 6435 N 606.021 0.929856 -1.27246 0
M  V30 6436 C 607.246 1.71674 -1.16374 0
M  V30 6437 C 607.671 1.86064 0.276024 0
M  V30 6438 O 607.029 1.3591 1.19992 0
M  V30 6439 C 607.077 3.09526 -1.85003 0
M  V30 6440 O 606.181 3.96142 -1.14653 0
M  V30 6441 H 605.522 0.52629 -0.404863 0
M  V30 6442 H 608.052 1.16381 -1.68276 0
M  V30 6443 H 608.062 3.59852 -1.92276 0
M  V30 6444 H 606.737 2.98369 -2.89739 0
M  V30 6445 H 605.314 3.54584 -1.15433 0
M  V30 6446 N 607.499 1.09233 1.13605 0
M  V30 6447 C 608.432 0.6739 2.18023 0
M  V30 6448 C 609.41 -0.318603 1.59448 0
M  V30 6449 O 610.594 -0.220452 1.87206 0
M  V30 6450 C 607.721 -0.00751458 3.38699 0
M  V30 6451 C 606.767 0.946481 4.15865 0
M  V30 6452 S 607.6 2.45753 4.75779 0
M  V30 6453 C 608.756 1.78846 5.99804 0
M  V30 6454 H 608.989 1.55846 2.53178 0
M  V30 6455 H 606.522 0.908118 1.2487 0
M  V30 6456 H 608.48 -0.394368 4.08601 0
M  V30 6457 H 607.141 -0.868693 3.01849 0
M  V30 6458 H 606.334 0.416742 5.02274 0
M  V30 6459 H 605.936 1.27464 3.51609 0
M  V30 6460 H 608.228 1.11135 6.68323 0
M  V30 6461 H 609.171 2.63163 6.57382 0
M  V30 6462 H 609.579 1.25823 5.50299 0
M  V30 6463 N 608.977 -1.30795 0.87923 0
M  V30 6464 C 609.924 -2.28282 0.339968 0
M  V30 6465 C 610.894 -1.56134 -0.566685 0
M  V30 6466 O 612.079 -1.84231 -0.496338 0
M  V30 6467 C 609.219 -3.42225 -0.444501 0
M  V30 6468 C 608.332 -4.29204 0.490717 0
M  V30 6469 C 607.467 -5.30302 -0.308784 0
M  V30 6470 C 606.506 -6.08929 0.622272 0
M  V30 6471 N 605.643 -7.01957 -0.14155 0
M  V30 6472 H 610.483 -2.73794 1.17647 0
M  V30 6473 H 608.02 -1.34682 0.591527 0
M  V30 6474 H 609.978 -4.07038 -0.915186 0
M  V30 6475 H 608.608 -2.97799 -1.24562 0
M  V30 6476 H 607.66 -3.6475 1.07988 0
M  V30 6477 H 608.972 -4.84045 1.20425 0
M  V30 6478 H 608.126 -6.00835 -0.841575 0
M  V30 6479 H 606.865 -4.7614 -1.05556 0
M  V30 6480 H 605.87 -5.37278 1.16674 0
M  V30 6481 H 607.095 -6.65178 1.36804 0
M  V30 6482 H 605.041 -6.50192 -0.870966 0
M  V30 6483 H 604.958 -7.54261 0.51246 0
M  V30 6484 H 606.226 -7.76741 -0.655271 0
M  V30 6485 N 610.455 -0.639598 -1.44038 0
M  V30 6486 C 611.385 0.0469443 -2.33453 0
M  V30 6487 C 612.366 0.82609 -1.48694 0
M  V30 6488 O 613.551 0.790285 -1.77393 0
M  V30 6489 C 610.681 1.02338 -3.3188 0
M  V30 6490 C 609.635 0.355284 -4.26523 0
M  V30 6491 C 608.961 1.44221 -5.14883 0
M  V30 6492 C 610.261 -0.743798 -5.16977 0
M  V30 6493 H 611.955 -0.699735 -2.91108 0
M  V30 6494 H 609.501 -0.337946 -1.39978 0
M  V30 6495 H 611.454 1.51247 -3.93322 0
M  V30 6496 H 610.178 1.80105 -2.72451 0
M  V30 6497 H 608.837 -0.113239 -3.66425 0
M  V30 6498 H 608.485 2.21097 -4.51802 0
M  V30 6499 H 608.185 1.00052 -5.79019 0
M  V30 6500 H 609.709 1.93295 -5.79197 0
M  V30 6501 H 611.123 -0.337444 -5.72306 0
M  V30 6502 H 609.52 -1.10914 -5.89761 0
M  V30 6503 H 610.59 -1.60745 -4.57481 0
M  V30 6504 N 611.933 1.52934 -0.380664 0
M  V30 6505 C 613.161 2.05886 0.204599 0
M  V30 6506 C 613.576 1.25305 1.41223 0
M  V30 6507 O 612.933 0.297504 1.80059 0
M  V30 6508 C 612.984 3.56764 0.583249 0
M  V30 6509 O 612.705 4.34292 -0.576398 0
M  V30 6510 C 614.206 4.2603 1.2253 0
M  V30 6511 H 611.426 0.670193 0.0328991 0
M  V30 6512 H 613.97 1.97148 -0.543397 0
M  V30 6513 H 612.125 3.65603 1.28115 0
M  V30 6514 H 612.539 5.23819 -0.267119 0
M  V30 6515 H 614.013 5.32868 1.44068 0
M  V30 6516 H 614.49 3.80698 2.19011 0
M  V30 6517 H 615.096 4.21485 0.568407 0
M  V30 6518 N 613.412 0.11024 1.57214 0
M  V30 6519 C 614.823 -0.416527 1.81994 0
M  V30 6520 C 615.174 -1.67183 1.02686 0
M  V30 6521 O 614.299 -2.14823 0.260782 0
M  V30 6522 C 614.894 -0.762466 3.30109 0
M  V30 6523 C 613.453 -1.23391 3.556 0
M  V30 6524 C 612.6 -0.238166 2.76275 0
M  V30 6525 H 615.551 0.335491 1.55113 0
M  V30 6526 H 615.572 -1.62068 3.44259 0
M  V30 6527 H 615.084 0.151346 3.87805 0
M  V30 6528 H 613.185 -2.16492 3.03253 0
M  V30 6529 H 613.298 -1.18528 4.64207 0
M  V30 6530 H 611.662 -0.723421 2.4421 0
M  V30 6531 H 612.445 0.668591 3.36727 0
M  V30 6532 N 614.89 -1.56749 -0.16351 0
M  V30 6533 C 615.82 -2.00042 -1.20438 0
M  V30 6534 C 616.801 -0.877256 -1.45733 0
M  V30 6535 O 617.986 -1.1439 -1.56935 0
M  V30 6536 C 615.116 -2.36697 -2.54149 0
M  V30 6537 C 614.07 -3.52046 -2.43408 0
M  V30 6538 C 613.396 -3.74466 -3.81679 0
M  V30 6539 C 614.696 -4.85247 -1.93216 0
M  V30 6540 H 616.39 -2.87244 -0.844477 0
M  V30 6541 H 613.936 -1.38194 -0.40478 0
M  V30 6542 H 615.889 -2.65582 -3.27176 0
M  V30 6543 H 614.613 -1.46414 -2.91943 0
M  V30 6544 H 613.272 -3.23301 -1.72834 0
M  V30 6545 H 612.92 -2.81461 -4.1688 0
M  V30 6546 H 612.62 -4.52084 -3.75359 0
M  V30 6547 H 614.144 -4.0576 -4.5628 0
M  V30 6548 H 615.558 -5.12957 -2.56023 0
M  V30 6549 H 613.955 -5.66556 -1.97825 0
M  V30 6550 H 615.025 -4.7672 -0.88689 0
M  V30 6551 N 616.368 0.432326 -1.51554 0
M  V30 6552 C 617.614 1.18309 -1.64714 0
M  V30 6553 C 617.947 1.90745 -0.364696 0
M  V30 6554 O 617.222 1.8381 0.635936 0
M  V30 6555 C 617.505 2.1961 -2.85383 0
M  V30 6556 C 617.358 1.51223 -4.23617 0
M  V30 6557 C 618.677 3.20538 -3.01569 0
M  V30 6558 H 615.796 0.428751 -0.599451 0
M  V30 6559 H 618.438 0.471689 -1.84052 0
M  V30 6560 H 616.588 2.8028 -2.69027 0
M  V30 6561 H 618.26 0.938516 -4.51652 0
M  V30 6562 H 616.503 0.814501 -4.26085 0
M  V30 6563 H 617.174 2.25024 -5.04052 0
M  V30 6564 H 619.65 2.69926 -3.16669 0
M  V30 6565 H 618.526 3.88706 -3.87555 0
M  V30 6566 H 618.787 3.86933 -2.13859 0
M  V30 6567 N 617.846 1.41785 0.688094 0
M  V30 6568 C 618.776 1.47 1.8142 0
M  V30 6569 C 619.757 0.327881 1.6691 0
M  V30 6570 O 620.942 0.540362 1.86531 0
M  V30 6571 C 618.072 1.35876 3.19617 0
M  V30 6572 C 617.026 2.47976 3.48844 0
M  V30 6573 C 616.352 2.21915 4.86475 0
M  V30 6574 C 617.652 3.90309 3.47068 0
M  V30 6575 H 619.346 2.41247 1.77314 0
M  V30 6576 H 616.892 1.16116 0.851651 0
M  V30 6577 H 618.845 1.38134 3.98117 0
M  V30 6578 H 617.569 0.38116 3.24368 0
M  V30 6579 H 616.228 2.45013 2.72698 0
M  V30 6580 H 615.876 1.2248 4.8786 0
M  V30 6581 H 615.576 2.97037 5.06994 0
M  V30 6582 H 617.1 2.25901 5.67275 0
M  V30 6583 H 618.514 3.94947 4.1556 0
M  V30 6584 H 616.911 4.65175 3.7912 0
M  V30 6585 H 617.981 4.17927 2.45896 0
M  V30 6586 N 619.324 -0.923095 1.27737 0
M  V30 6587 C 620.234 -2.05765 1.12685 0
M  V30 6588 C 621.25 -1.73911 0.0557197 0
M  V30 6589 O 622.426 -1.99674 0.263137 0
M  V30 6590 C 619.491 -3.37804 0.780363 0
M  V30 6591 C 618.552 -3.83326 1.93286 0
M  V30 6592 C 617.785 -5.09064 1.60281 0
M  V30 6593 O 618.008 -5.6809 0.512828 0
M  V30 6594 O 616.942 -5.50071 2.44347 0
M  V30 6595 H 620.768 -2.21378 2.07907 0
M  V30 6596 H 618.353 -1.04299 1.06968 0
M  V30 6597 H 620.235 -4.17097 0.600668 0
M  V30 6598 H 618.91 -3.23387 -0.142291 0
M  V30 6599 H 617.817 -3.049 2.16764 0
M  V30 6600 H 619.15 -4.02292 2.83588 0
M  V30 6601 N 620.802 -1.09834 -1.13024 0
M  V30 6602 C 622.048 -0.83819 -1.84668 0
M  V30 6603 C 622.381 0.634645 -1.83537 0
M  V30 6604 O 621.656 1.46753 -1.27647 0
M  V30 6605 C 621.939 -1.37933 -3.32636 0
M  V30 6606 C 621.792 -2.91857 -3.42257 0
M  V30 6607 C 623.111 -1.01654 -4.28199 0
M  V30 6608 H 620.23 -0.30595 -0.670495 0
M  V30 6609 H 622.872 -1.36044 -1.32635 0
M  V30 6610 H 621.022 -0.935111 -3.77078 0
M  V30 6611 H 622.694 -3.44759 -3.06495 0
M  V30 6612 H 620.937 -3.28776 -2.83 0
M  V30 6613 H 621.608 -3.24799 -4.46329 0
M  V30 6614 H 624.084 -1.39973 -3.9185 0
M  V30 6615 H 622.96 -1.42217 -5.30156 0
M  V30 6616 H 623.221 0.0747794 -4.42037 0
M  V30 6617 N 622.28 1.30327 -0.886154 0
M  V30 6618 C 623.527 1.96097 -0.505192 0
M  V30 6619 C 623.855 1.69952 0.945868 0
M  V30 6620 O 623.11 0.997653 1.68361 0
M  V30 6621 C 623.409 3.49906 -0.728042 0
M  V30 6622 C 623.075 3.96103 -2.15437 0
M  V30 6623 C 621.737 4.08428 -2.5444 0
M  V30 6624 C 624.089 4.20177 -3.08384 0
M  V30 6625 C 621.417 4.42189 -3.85598 0
M  V30 6626 C 623.769 4.55407 -4.39075 0
M  V30 6627 C 622.433 4.65941 -4.7797 0
M  V30 6628 H 621.703 0.71757 -0.184863 0
M  V30 6629 H 624.35 1.55171 -1.12223 0
M  V30 6630 H 622.655 3.9179 -0.027978 0
M  V30 6631 H 624.352 3.98869 -0.412862 0
M  V30 6632 H 620.942 3.87017 -1.84162 0
M  V30 6633 H 625.126 4.10134 -2.7947 0
M  V30 6634 H 620.382 4.48544 -4.15473 0
M  V30 6635 H 624.556 4.72986 -5.11133 0
M  V30 6636 H 622.183 4.91856 -5.79639 0
M  V30 6637 N 623.758 0.647228 1.43697 0
M  V30 6638 C 625.006 0.157876 2.01482 0
M  V30 6639 C 625.327 -1.23039 1.51282 0
M  V30 6640 O 624.597 -1.82071 0.722982 0
M  V30 6641 H 623.177 0.0553745 0.744945 0
M  V30 6642 H 625.839 0.83755 1.75986 0
M  V30 6643 H 624.935 0.137895 3.11795 0
M  V30 6644 N 625.236 -1.5273 0.388769 0
M  V30 6645 C 626.184 -2.27975 -0.461527 0
M  V30 6646 C 627.178 -1.31854 -1.06352 0
M  V30 6647 O 628.384 -1.49394 -1.00406 0
M  V30 6648 H 624.759 -0.733088 -0.16759 0
M  V30 6649 H 626.73 -2.97765 0.194579 0
M  V30 6650 C 625.479 -3.09881 -1.577 0
M  V30 6651 H 624.802 -3.83701 -1.12309 0
M  V30 6652 H 626.242 -3.6567 -2.14619 0
M  V30 6653 C 624.701 -2.22159 -2.53272 0
M  V30 6654 O 625.231 -1.84802 -3.56667 0
M  V30 6655 N 623.437 -1.8633 -2.23001 0
M  V30 6656 H 622.984 -2.16909 -1.38954 0
M  V30 6657 H 622.942 -1.27927 -2.87197 0
M  V30 6658 N 626.714 -0.118576 -1.57153 0
M  V30 6659 C 627.624 0.845484 -2.18835 0
M  V30 6660 C 628.64 1.29299 -1.16438 0
M  V30 6661 O 629.816 1.35607 -1.48905 0
M  V30 6662 C 626.881 2.07795 -2.77529 0
M  V30 6663 C 625.942 1.6824 -3.9496 0
M  V30 6664 C 625.175 2.85612 -4.50845 0
M  V30 6665 O 625.398 4.01025 -4.05629 0
M  V30 6666 O 624.332 2.62721 -5.41536 0
M  V30 6667 H 628.158 0.350568 -3.0167 0
M  V30 6668 H 625.743 0.107013 -1.49016 0
M  V30 6669 H 627.625 2.79978 -3.14945 0
M  V30 6670 H 626.3 2.56294 -1.97725 0
M  V30 6671 H 625.207 0.931663 -3.62313 0
M  V30 6672 H 626.54 1.24484 -4.76198 0
M  V30 6673 N 628.193 1.56834 0.155195 0
M  V30 6674 C 629.442 1.82088 0.867567 0
M  V30 6675 C 629.755 0.69849 1.82703 0
M  V30 6676 O 630.961 0.836407 2.58295 0
M  V30 6677 C 629.417 3.22707 1.59336 0
M  V30 6678 C 629.025 4.42859 0.676719 0
M  V30 6679 C 630.769 3.57242 2.293 0
M  V30 6680 C 628.676 5.74501 1.40367 0
M  V30 6681 H 627.606 0.679057 0.327715 0
M  V30 6682 H 630.257 1.83105 0.120351 0
M  V30 6683 H 628.639 3.16054 2.38591 0
M  V30 6684 H 629.813 4.60731 -0.0800196 0
M  V30 6685 H 628.128 4.16311 0.0859129 0
M  V30 6686 H 630.725 4.52847 2.84312 0
M  V30 6687 H 631.068 2.82901 3.05406 0
M  V30 6688 H 631.601 3.6552 1.56972 0
M  V30 6689 H 628.34 6.51915 0.684623 0
M  V30 6690 H 627.86 5.60579 2.13332 0
M  V30 6691 H 629.539 6.17016 1.94681 0
M  V30 6692 N 629.671 -0.424282 1.51781 0
M  V30 6693 C 630.896 -1.19928 1.6921 0
M  V30 6694 C 631.321 -1.8392 0.394355 0
M  V30 6695 O 630.679 -1.69371 -0.646778 0
M  V30 6696 C 630.727 -2.24937 2.81843 0
M  V30 6697 O 629.831 -3.3073 2.46356 0
M  V30 6698 H 629.172 -0.35078 0.563781 0
M  V30 6699 H 631.702 -0.499401 1.98412 0
M  V30 6700 H 631.712 -2.69512 3.06312 0
M  V30 6701 H 630.387 -1.77742 3.76006 0
M  V30 6702 H 628.964 -2.9154 2.32505 0
M  V30 6703 O 631.188 -1.51103 -0.570103 0
M  V30 6704 H 631.879 -1.50032 -1.22516 0
M  V30 END ATOM
M  V30 BEGIN BOND
M  V30 END BOND
M  V30 END CTAB
M  END
$$$$
