drugbank_target|P11485 Neuraminidase (DB00198)
 OpenBabel12092119353D

  0  0  0     0  0            999 V3000
M  V30 BEGIN CTAB
M  V30 COUNTS 7151 7242 0 0 0
M  V30 BEGIN ATOM
M  V30 1 H -0.908 1.98254 -0.117106 0
M  V30 2 N 0 1.576 0 0
M  V30 3 C 0.933 2.03868 1.02534 0
M  V30 4 C 1.911 0.928543 1.3348 0
M  V30 5 O 3.095 1.19667 1.45644 0
M  V30 6 C 0.222 2.43627 2.35294 0
M  V30 7 C -0.732 3.65373 2.2001 0
M  V30 8 S 0.101 5.13292 1.52614 0
M  V30 9 C 1.257 5.56322 2.86805 0
M  V30 10 H 1.49 2.90518 0.631377 0
M  V30 11 H -0.977 1.52953 0.210867 0
M  V30 12 H 0.981 2.67203 3.11629 0
M  V30 13 H -0.358 1.57376 2.7183 0
M  V30 14 H -1.165 3.90944 3.18086 0
M  V30 15 H -1.563 3.418 1.51819 0
M  V30 16 H 0.729 5.58782 3.83104 0
M  V30 17 H 1.672 6.56266 2.65933 0
M  V30 18 H 2.08 4.83886 2.90714 0
M  V30 19 N 1.4781 -0.272755 1.55222 0
M  V30 20 C 2.4261 -1.35705 1.88909 0
M  V30 21 C 3.4201 -1.5112 0.765456 0
M  V30 22 O 4.6261 -1.52901 0.949802 0
M  V30 23 H 1.0011 -0.453868 0.59959 0
M  V30 24 H 2.9721 -1.04544 2.79487 0
M  V30 25 C 1.7211 -2.71049 2.17779 0
M  V30 26 H 1.0441 -2.59979 3.03728 0
M  V30 27 H 2.4841 -3.45858 2.45272 0
M  V30 28 C 0.9431 -3.22165 0.985473 0
M  V30 29 O 1.4731 -4.01096 0.220233 0
M  V30 30 N -0.3209 -2.7985 0.783108 0
M  V30 31 H -0.7739 -2.15775 1.40708 0
M  V30 32 H -0.8159 -3.14397 -0.0130392 0
M  V30 33 N 2.9562 -1.48159 -0.537278 0
M  V30 34 C 4.3672 -1.49429 -1.11928 0
M  V30 35 C 4.7182 -0.26 -1.9447 0
M  V30 36 O 3.8432 0.633489 -2.0692 0
M  V30 37 C 4.4382 -2.70758 -2.03656 0
M  V30 38 C 2.9972 -2.74923 -2.57088 0
M  V30 39 C 2.1442 -2.42835 -1.3389 0
M  V30 40 H 5.0952 -1.55381 -0.322886 0
M  V30 41 H 5.1162 -2.48861 -2.87834 0
M  V30 42 H 4.6282 -3.60575 -1.43553 0
M  V30 43 H 2.7292 -1.89296 -3.20933 0
M  V30 44 H 2.8422 -3.76157 -2.9672 0
M  V30 45 H 1.2062 -1.93836 -1.65226 0
M  V30 46 H 1.9892 -3.34884 -0.755504 0
M  V30 47 N 4.4343 0.785586 -1.36625 0
M  V30 48 C 5.3823 1.91978 -1.31329 0
M  V30 49 C 6.3763 1.68162 -0.204416 0
M  V30 50 O 7.5823 1.76122 -0.371645 0
M  V30 51 H 3.9573 0.631087 -0.408942 0
M  V30 52 H 5.9283 1.93562 -2.27104 0
M  V30 53 C 4.6773 3.29055 -1.12329 0
M  V30 54 H 4.0003 3.4795 -1.96903 0
M  V30 55 H 5.4403 4.08756 -1.12671 0
M  V30 56 C 3.8993 3.36461 0.171861 0
M  V30 57 O 4.4293 3.84576 1.16035 0
M  V30 58 N 2.6353 2.89782 0.217846 0
M  V30 59 H 2.1823 2.50819 -0.587183 0
M  V30 60 H 2.1403 2.95119 1.08408 0
M  V30 61 N 5.9124 1.20967 1.01018 0
M  V30 62 C 6.8444 0.922059 2.09835 0
M  V30 63 C 7.8574 -0.0927106 1.62536 0
M  V30 64 O 9.0464 0.139127 1.77957 0
M  V30 65 C 6.1464 0.362004 3.36961 0
M  V30 66 C 5.3194 1.42986 4.13369 0
M  V30 67 C 4.3784 0.879976 5.1879 0
M  V30 68 O 3.4044 1.56219 5.47343 0
M  V30 69 N 4.6064 -0.307396 5.79686 0
M  V30 70 H 7.3714 1.8588 2.35093 0
M  V30 71 H 4.9324 1.11422 1.1746 0
M  V30 72 H 6.9244 -0.0201474 4.04695 0
M  V30 73 H 5.4944 -0.479437 3.08902 0
M  V30 74 H 4.7144 1.98608 3.40512 0
M  V30 75 H 6.0024 2.14885 4.61196 0
M  V30 76 H 5.4004 -0.878796 5.58832 0
M  V30 77 H 3.9574 -0.631115 6.48737 0
M  V30 78 N 7.3905 -1.2043 1.01659 0
M  V30 79 C 8.3375 -2.23215 0.586822 0
M  V30 80 C 9.3075 -1.61382 -0.393085 0
M  V30 81 O 10.4925 -1.88544 -0.292525 0
M  V30 82 C 7.6325 -3.45032 -0.0687464 0
M  V30 83 C 6.7455 -4.21296 0.955724 0
M  V30 84 C 5.8805 -5.30507 0.271208 0
M  V30 85 C 4.9195 -5.98515 1.28244 0
M  V30 86 N 4.0565 -6.99316 0.62459 0
M  V30 87 H 8.8965 -2.59336 1.46796 0
M  V30 88 H 6.4335 -1.27431 0.734836 0
M  V30 89 H 8.3915 -4.1459 -0.465965 0
M  V30 90 H 7.0215 -3.09604 -0.913529 0
M  V30 91 H 6.0735 -3.50803 1.4711 0
M  V30 92 H 7.3855 -4.6803 1.72479 0
M  V30 93 H 6.5395 -6.06428 -0.18151 0
M  V30 94 H 5.2785 -4.8481 -0.530163 0
M  V30 95 H 4.2835 -5.21355 1.74554 0
M  V30 96 H 5.5085 -6.46298 2.08509 0
M  V30 97 H 3.4545 -6.55812 -0.156914 0
M  V30 98 H 3.3715 -7.44178 1.33172 0
M  V30 99 H 4.6395 -7.79255 0.195462 0
M  V30 100 N 8.8686 -0.792821 -1.36206 0
M  V30 101 C 10.1176 -0.363353 -1.984 0
M  V30 102 C 10.4306 1.07172 -1.63626 0
M  V30 103 O 11.6366 1.60362 -2.19081 0
M  V30 104 C 10.0926 -0.59872 -3.54885 0
M  V30 105 C 9.7006 -2.04543 -3.9858 0
M  V30 106 C 11.4446 -0.233926 -4.23855 0
M  V30 107 C 9.3516 -2.22727 -5.47856 0
M  V30 108 H 8.2816 -0.13212 -0.742334 0
M  V30 109 H 10.9326 -0.974935 -1.55458 0
M  V30 110 H 9.3146 0.0826222 -3.95914 0
M  V30 111 H 10.4886 -2.76345 -3.68741 0
M  V30 112 H 8.8036 -2.36879 -3.42458 0
M  V30 113 H 11.4006 -0.348027 -5.33566 0
M  V30 114 H 11.7436 0.818351 -4.08177 0
M  V30 115 H 12.2766 -0.868639 -3.882 0
M  V30 116 H 9.0156 -3.2635 -5.68486 0
M  V30 117 H 8.5356 -1.55434 -5.7931 0
M  V30 118 H 10.2146 -2.03607 -6.14128 0
M  V30 119 N 10.3467 1.47872 -0.545128 0
M  V30 120 C 11.5957 2.01695 -0.0145033 0
M  V30 121 C 11.9087 1.42609 1.33873 0
M  V30 122 O 13.1147 1.88021 1.95858 0
M  V30 123 C 11.5707 3.59892 0.0245068 0
M  V30 124 C 11.1787 4.27966 -1.32475 0
M  V30 125 C 12.9227 4.21507 0.50316 0
M  V30 126 C 10.8297 5.78136 -1.2455 0
M  V30 127 H 9.7597 0.753998 -0.00165172 0
M  V30 128 H 12.4107 1.69985 -0.691175 0
M  V30 129 H 10.7927 3.88509 0.766575 0
M  V30 130 H 11.9667 4.11003 -2.08357 0
M  V30 131 H 10.2817 3.78286 -1.74036 0
M  V30 132 H 12.8787 5.31538 0.580656 0
M  V30 133 H 13.2217 3.87855 1.51243 0
M  V30 134 H 13.7547 3.97376 -0.183681 0
M  V30 135 H 10.4937 6.16388 -2.23039 0
M  V30 136 H 10.0137 5.97469 -0.528282 0
M  V30 137 H 11.6927 6.40099 -0.942488 0
M  V30 138 N 11.8248 0.280983 1.55075 0
M  V30 139 C 13.0528 -0.337293 2.04132 0
M  V30 140 C 13.4678 -1.4903 1.15912 0
M  V30 141 O 12.8248 -1.81606 0.180459 0
M  V30 142 C 12.8758 -0.812706 3.52246 0
M  V30 143 O 12.5968 0.294387 4.3711 0
M  V30 144 C 14.0978 -1.4982 4.17216 0
M  V30 145 H 11.3178 -0.0761638 0.666663 0
M  V30 146 H 13.8618 0.414787 2.00249 0
M  V30 147 H 12.0168 -1.51486 3.56554 0
M  V30 148 H 12.4308 -0.0721325 5.2445 0
M  V30 149 H 13.9048 -1.7822 5.22438 0
M  V30 150 H 14.3818 -2.43168 3.65741 0
M  V30 151 H 14.9878 -0.839742 4.16927 0
M  V30 152 N 13.3029 -1.57598 0.00835791 0
M  V30 153 C 14.5519 -1.90107 -0.673968 0
M  V30 154 C 14.8649 -0.884275 -1.7447 0
M  V30 155 O 16.0709 -1.09987 -2.48224 0
M  V30 156 C 14.5269 -3.37497 -1.24995 0
M  V30 157 C 14.1349 -4.47491 -0.2136 0
M  V30 158 C 15.8789 -3.79104 -1.90999 0
M  V30 159 C 13.7859 -5.85963 -0.80005 0
M  V30 160 H 12.7159 -0.709393 -0.255495 0
M  V30 161 H 15.3669 -1.83365 0.0702693 0
M  V30 162 H 13.7489 -3.39102 -2.04513 0
M  V30 163 H 14.9229 -4.57414 0.557596 0
M  V30 164 H 13.2379 -4.14956 0.346474 0
M  V30 165 H 15.8349 -4.79901 -2.35795 0
M  V30 166 H 16.1779 -3.1306 -2.74407 0
M  V30 167 H 16.7109 -3.79833 -1.18203 0
M  V30 168 H 13.4499 -6.555 -0.00456708 0
M  V30 169 H 12.9699 -5.79687 -1.54021 0
M  V30 170 H 14.6489 -6.33884 -1.29615 0
M  V30 171 N 14.781 0.264519 -1.55364 0
M  V30 172 C 16.029 0.993021 -1.76021 0
M  V30 173 C 16.35 1.86511 -0.569099 0
M  V30 174 O 15.62 1.91438 0.415735 0
M  V30 175 H 14.2 0.369639 -0.649135 0
M  V30 176 H 16.862 0.286707 -1.9278 0
M  V30 177 H 15.958 1.62502 -2.66457 0
M  V30 178 N 16.2591 1.48442 0.529413 0
M  V30 179 C 17.4841 1.60406 1.31471 0
M  V30 180 C 17.9091 0.264738 1.86228 0
M  V30 181 O 17.2671 -0.763668 1.64432 0
M  V30 182 C 17.3151 2.65419 2.44101 0
M  V30 183 O 16.4191 2.22618 3.47153 0
M  V30 184 H 15.7601 0.537863 0.389357 0
M  V30 185 H 18.2901 1.94432 0.636965 0
M  V30 186 H 18.3001 2.86709 2.90279 0
M  V30 187 H 16.9751 3.62652 2.03608 0
M  V30 188 H 15.5521 2.11543 3.0709 0
M  V30 189 N 17.7372 -0.778329 1.37039 0
M  V30 190 C 18.9862 -1.53189 1.3121 0
M  V30 191 C 19.2992 -1.95328 -0.103095 0
M  V30 192 O 20.5052 -2.70012 -0.283826 0
M  V30 193 C 18.9612 -2.76591 2.30272 0
M  V30 194 C 18.5692 -2.41577 3.77286 0
M  V30 195 C 20.3132 -3.5455 2.33441 0
M  V30 196 C 18.2202 -3.61441 4.68096 0
M  V30 197 H 17.1502 -0.5751 0.487622 0
M  V30 198 H 19.8012 -0.853101 1.62464 0
M  V30 199 H 18.1832 -3.46326 1.92027 0
M  V30 200 H 19.3572 -1.79668 4.2433 0
M  V30 201 H 17.6722 -1.76806 3.76999 0
M  V30 202 H 20.2692 -4.43628 2.98493 0
M  V30 203 H 20.6122 -3.93936 1.34611 0
M  V30 204 H 21.1452 -2.91805 2.7036 0
M  V30 205 H 17.8842 -3.27142 5.6803 0
M  V30 206 H 17.4042 -4.22478 4.25761 0
M  V30 207 H 19.0832 -4.28335 4.8491 0
M  V30 208 N 19.2153 -1.21501 -1.00376 0
M  V30 209 C 20.4553 -1.04444 -1.75701 0
M  V30 210 C 20.8193 0.414644 -1.87469 0
M  V30 211 O 22.0203 0.705763 -2.59369 0
M  V30 212 C 20.2913 -1.72389 -3.13077 0
M  V30 213 S 21.8503 -1.70604 -4.04277 0
M  V30 214 H 18.6683 -0.374249 -0.604532 0
M  V30 215 H 21.2703 -1.54267 -1.20091 0
M  V30 216 H 19.9743 -2.77734 -3.02146 0
M  V30 217 H 19.5053 -1.22751 -3.73759 0
M  V30 218 H 21.5203 -0.748012 -4.9053 0
M  V30 219 N 20.6934 1.19889 -1.02296 0
M  V30 220 C 21.6264 2.21639 -0.543282 0
M  V30 221 C 22.6044 1.57275 0.412698 0
M  V30 222 O 23.7884 1.85568 0.331198 0
M  V30 223 C 20.9154 3.38057 0.208571 0
M  V30 224 C 19.9614 4.20751 -0.697933 0
M  V30 225 S 20.7944 4.89529 -2.17075 0
M  V30 226 C 21.9504 6.09363 -1.42923 0
M  V30 227 H 22.1834 2.61984 -1.40541 0
M  V30 228 H 19.7164 1.30041 -0.832387 0
M  V30 229 H 21.6744 4.05539 0.63624 0
M  V30 230 H 20.3354 2.96159 1.04635 0
M  V30 231 H 19.5284 5.03862 -0.117831 0
M  V30 232 H 19.1304 3.58556 -1.06366 0
M  V30 233 H 21.4224 6.73742 -0.712637 0
M  V30 234 H 22.3654 6.71845 -2.23673 0
M  V30 235 H 22.7734 5.56798 -0.929327 0
M  V30 236 N 22.1715 0.800033 1.35784 0
M  V30 237 C 23.3995 0.389606 2.03199 0
M  V30 238 C 23.8145 -0.997375 1.60306 0
M  V30 239 O 23.1715 -1.64154 0.797481 0
M  V30 240 C 23.2225 0.455855 3.58614 0
M  V30 241 O 22.9435 1.78815 3.99946 0
M  V30 242 C 24.4445 0.0374032 4.43284 0
M  V30 243 H 21.6645 0.159132 0.651857 0
M  V30 244 H 24.2085 1.08183 1.73541 0
M  V30 245 H 22.3635 -0.188057 3.86943 0
M  V30 246 H 22.7775 1.74636 4.94573 0
M  V30 247 H 24.2515 0.134882 5.51835 0
M  V30 248 H 24.7285 -1.01651 4.27275 0
M  V30 249 H 25.3345 0.654215 4.20238 0
M  V30 250 N 23.6496 -1.47581 0.552962 0
M  V30 251 C 24.8986 -2.01684 0.0251995 0
M  V30 252 C 25.2116 -1.43317 -1.33115 0
M  V30 253 O 26.4176 -1.89057 -1.94858 0
M  V30 254 C 24.8736 -3.599 -0.00542052 0
M  V30 255 C 24.4816 -4.27257 1.34742 0
M  V30 256 C 26.2256 -4.21768 -0.4808 0
M  V30 257 C 24.1326 -5.77467 1.27614 0
M  V30 258 H 23.0626 -0.753979 0.00565033 0
M  V30 259 H 25.7136 -1.69616 0.70018 0
M  V30 260 H 24.0956 -3.88911 -0.745961 0
M  V30 261 H 25.2696 -4.09893 2.10534 0
M  V30 262 H 23.5846 -3.77358 1.76039 0
M  V30 263 H 26.1816 -5.31838 -0.55246 0
M  V30 264 H 26.5246 -3.88651 -1.49184 0
M  V30 265 H 27.0576 -3.97273 0.204752 0
M  V30 266 H 23.7966 -6.15196 2.26304 0
M  V30 267 H 23.3166 -5.9718 0.55996 0
M  V30 268 H 24.9956 -6.3959 0.976421 0
M  V30 269 N 25.1277 -0.289203 -1.54924 0
M  V30 270 C 26.3757 0.322879 -1.99504 0
M  V30 271 C 26.6967 1.55313 -1.1791 0
M  V30 272 O 25.9667 1.94001 -0.272097 0
M  V30 273 H 24.5467 0.122291 -0.736922 0
M  V30 274 H 27.2087 -0.397802 -1.90797 0
M  V30 275 H 26.3047 0.603061 -3.06218 0
M  V30 276 N 26.6058 1.57591 -0.0167156 0
M  V30 277 C 27.8548 1.90461 0.663877 0
M  V30 278 C 28.1678 0.893515 1.73999 0
M  V30 279 O 29.3738 1.11302 2.47637 0
M  V30 280 C 27.8298 3.38155 1.23204 0
M  V30 281 C 27.4378 4.47597 0.189866 0
M  V30 282 C 29.1818 3.80111 1.88986 0
M  V30 283 C 27.0888 5.86379 0.768964 0
M  V30 284 H 26.0188 0.710738 0.251729 0
M  V30 285 H 28.6698 1.83326 -0.0799926 0
M  V30 286 H 27.0518 3.40182 2.02712 0
M  V30 287 H 28.2258 4.57112 -0.581846 0
M  V30 288 H 26.5408 4.14766 -0.368475 0
M  V30 289 H 29.1378 4.81145 2.33247 0
M  V30 290 H 29.4808 3.14511 2.72743 0
M  V30 291 H 30.0138 3.80454 1.16187 0
M  V30 292 H 26.7528 6.55493 -0.0301957 0
M  V30 293 H 26.2728 5.80496 1.50945 0
M  V30 294 H 27.9518 6.34563 1.26251 0
M  V30 295 N 28.0839 -0.256276 1.55502 0
M  V30 296 C 29.3329 -0.983486 1.76098 0
M  V30 297 C 29.6459 -1.86837 0.578896 0
M  V30 298 O 30.8519 -2.63163 0.667648 0
M  V30 299 C 29.3079 -1.79868 3.1173 0
M  V30 300 C 28.9159 -0.961648 4.37557 0
M  V30 301 C 30.6599 -2.51919 3.41668 0
M  V30 302 C 28.5669 -1.77219 5.64223 0
M  V30 303 H 27.4969 -0.370936 0.656447 0
M  V30 304 H 30.1479 -0.238492 1.81944 0
M  V30 305 H 28.5299 -2.58527 2.99966 0
M  V30 306 H 29.7039 -0.218048 4.60284 0
M  V30 307 H 28.0189 -0.354913 4.14885 0
M  V30 308 H 30.6159 -3.12998 4.33516 0
M  V30 309 H 30.9589 -3.23059 2.62562 0
M  V30 310 H 31.4919 -1.80278 3.54605 0
M  V30 311 H 28.2309 -1.10471 6.46124 0
M  V30 312 H 27.7509 -2.49132 5.45613 0
M  V30 313 H 29.4299 -2.34169 6.03137 0
M  V30 314 N 29.562 -1.4872 -0.521534 0
M  V30 315 C 30.787 -1.61101 -1.30618 0
M  V30 316 C 31.212 -0.274611 -1.86085 0
M  V30 317 O 30.57 0.754937 -1.64834 0
M  V30 318 C 30.618 -2.66709 -2.4269 0
M  V30 319 O 29.722 -2.24456 -3.45967 0
M  V30 320 H 29.063 -0.539921 -0.386499 0
M  V30 321 H 31.593 -1.94767 -0.626645 0
M  V30 322 H 31.603 -2.88245 -2.88754 0
M  V30 323 H 30.278 -3.63727 -2.01682 0
M  V30 324 H 28.855 -2.13168 -3.05964 0
M  V30 325 N 31.0401 0.771051 -1.3745 0
M  V30 326 C 31.9701 1.89827 -1.3597 0
M  V30 327 C 32.9511 1.68562 -0.228216 0
M  V30 328 O 34.1361 1.8941 -0.428675 0
M  V30 329 C 31.2661 3.2712 -1.16662 0
M  V30 330 C 30.2201 3.6295 -2.2683 0
M  V30 331 C 29.5461 4.98791 -1.92644 0
M  V30 332 C 30.8461 3.69627 -3.69017 0
M  V30 333 H 32.5401 1.91323 -2.30295 0
M  V30 334 H 30.0861 0.919082 -1.10855 0
M  V30 335 H 32.0391 4.05615 -1.14256 0
M  V30 336 H 30.7631 3.26059 -0.187926 0
M  V30 337 H 29.4221 2.86763 -2.28392 0
M  V30 338 H 29.0701 4.94271 -0.933021 0
M  V30 339 H 28.7701 5.23733 -2.66416 0
M  V30 340 H 30.2941 5.79685 -1.91826 0
M  V30 341 H 31.7081 4.38273 -3.69581 0
M  V30 342 H 30.1051 4.06067 -4.41848 0
M  V30 343 H 31.1751 2.70273 -4.02592 0
M  V30 344 N 32.5182 1.22032 0.997298 0
M  V30 345 C 33.7672 1.03637 1.73038 0
M  V30 346 C 34.0802 -0.429475 1.90827 0
M  V30 347 O 35.2862 -0.732995 2.61418 0
M  V30 348 C 33.7422 1.80582 3.11317 0
M  V30 349 C 33.3502 3.31387 3.01474 0
M  V30 350 C 35.0942 1.70621 3.88701 0
M  V30 351 C 33.0012 4.00791 4.3488 0
M  V30 352 H 31.9312 0.384179 0.648785 0
M  V30 353 H 34.5822 1.4584 1.11368 0
M  V30 354 H 32.9642 1.31175 3.73643 0
M  V30 355 H 34.1382 3.88155 2.4834 0
M  V30 356 H 32.4532 3.41976 2.37575 0
M  V30 357 H 35.0502 2.19799 4.87434 0
M  V30 358 H 35.3932 0.665823 4.10941 0
M  V30 359 H 35.9262 2.17547 3.33044 0
M  V30 360 H 32.6652 5.05064 4.1784 0
M  V30 361 H 32.1852 3.48811 4.87945 0
M  V30 362 H 33.8642 4.06139 5.03647 0
M  V30 363 N 33.9963 -1.19345 1.0293 0
M  V30 364 C 34.9263 -2.2481 0.631105 0
M  V30 365 C 35.9073 -1.66245 -0.360104 0
M  V30 366 O 37.0923 -1.92677 -0.242726 0
M  V30 367 C 34.2223 -3.47295 -0.0184607 0
M  V30 368 C 33.1763 -4.18536 0.895073 0
M  V30 369 C 32.5023 -5.34586 0.110592 0
M  V30 370 C 33.8023 -4.73287 2.209 0
M  V30 371 H 35.4963 -2.58372 1.51275 0
M  V30 372 H 33.0423 -1.24194 0.728818 0
M  V30 373 H 34.9953 -4.20268 -0.308675 0
M  V30 374 H 33.7193 -3.12933 -0.934907 0
M  V30 375 H 32.3783 -3.47446 1.16949 0
M  V30 376 H 32.0263 -4.96469 -0.807902 0
M  V30 377 H 31.7263 -5.83183 0.719087 0
M  V30 378 H 33.2503 -6.10355 -0.172871 0
M  V30 379 H 34.6643 -5.38013 1.98028 0
M  V30 380 H 33.0613 -5.32373 2.76946 0
M  V30 381 H 34.1313 -3.91331 2.86336 0
M  V30 382 N 35.4744 -0.807222 -1.35358 0
M  V30 383 C 36.4064 -0.175717 -2.28525 0
M  V30 384 C 37.4194 0.625354 -1.5031 0
M  V30 385 O 38.6084 0.457611 -1.72535 0
M  V30 386 C 35.7084 0.773471 -3.29956 0
M  V30 387 C 34.8814 0.0186296 -4.37396 0
M  V30 388 C 33.9404 0.886395 -5.18681 0
M  V30 389 O 32.9664 0.337106 -5.68201 0
M  V30 390 N 34.1684 2.20839 -5.36852 0
M  V30 391 H 36.9334 -0.976091 -2.83359 0
M  V30 392 H 34.4944 -0.662737 -1.47714 0
M  V30 393 H 36.4864 1.35824 -3.81227 0
M  V30 394 H 35.0564 1.47465 -2.75632 0
M  V30 395 H 34.2764 -0.747349 -3.87051 0
M  V30 396 H 35.5644 -0.501577 -5.06322 0
M  V30 397 H 34.9624 2.67858 -4.98265 0
M  V30 398 H 33.5194 2.74237 -5.91301 0
M  V30 399 N 36.9525 1.47285 -0.560781 0
M  V30 400 C 38.2015 2.01668 -0.035895 0
M  V30 401 C 38.5145 1.44021 1.32353 0
M  V30 402 O 39.7205 1.90088 1.93853 0
M  V30 403 C 38.1765 3.59897 -0.0136659 0
M  V30 404 C 37.7845 4.26536 -1.37006 0
M  V30 405 C 39.5285 4.22017 0.458425 0
M  V30 406 C 37.4355 5.76782 -1.30675 0
M  V30 407 H 36.3655 0.753938 -0.00964879 0
M  V30 408 H 39.0165 1.69243 -0.709166 0
M  V30 409 H 37.3985 3.89301 0.725325 0
M  V30 410 H 38.5725 4.0877 -2.12705 0
M  V30 411 H 36.8875 3.76419 -1.78038 0
M  V30 412 H 39.4845 5.32124 0.524247 0
M  V30 413 H 39.8275 3.89437 1.4712 0
M  V30 414 H 40.3605 3.97159 -0.225818 0
M  V30 415 H 37.0995 6.13988 -2.29564 0
M  V30 416 H 36.6195 5.96875 -0.591622 0
M  V30 417 H 38.2985 6.39063 -1.01033 0
M  V30 418 N 38.4306 0.297415 1.54768 0
M  V30 419 C 39.6786 -0.312295 1.99673 0
M  V30 420 C 39.9996 -1.54686 1.18732 0
M  V30 421 O 39.2696 -1.93854 0.282382 0
M  V30 422 H 37.8496 -0.118381 0.73756 0
M  V30 423 H 40.5116 0.407915 1.90583 0
M  V30 424 H 39.6076 -0.586813 3.06534 0
M  V30 425 N 39.9087 -1.5758 0.0250728 0
M  V30 426 C 40.8567 -2.11125 -0.97617 0
M  V30 427 C 41.8507 -1.03689 -1.33959 0
M  V30 428 O 43.0567 -1.22128 -1.3223 0
M  V30 429 H 39.4317 -0.674468 -0.332561 0
M  V30 430 H 41.4027 -2.94194 -0.499223 0
M  V30 431 C 40.1517 -2.65017 -2.2508 0
M  V30 432 H 39.4747 -3.47333 -1.9799 0
M  V30 433 H 40.9147 -3.06133 -2.93357 0
M  V30 434 C 39.3737 -1.57574 -2.97779 0
M  V30 435 O 39.9037 -0.973203 -3.89733 0
M  V30 436 N 38.1097 -1.29716 -2.60043 0
M  V30 437 H 37.6567 -1.789 -1.85345 0
M  V30 438 H 37.6147 -0.58051 -3.08994 0
M  V30 439 N 41.3868 0.248026 -1.55636 0
M  V30 440 C 42.6358 0.974134 -1.76617 0
M  V30 441 C 42.9488 1.86528 -0.588796 0
M  V30 442 O 44.1548 2.62805 -0.681594 0
M  V30 443 C 42.6108 1.78213 -3.12679 0
M  V30 444 C 42.2188 0.93843 -4.38061 0
M  V30 445 C 43.9628 2.50104 -3.42999 0
M  V30 446 C 41.8698 1.74225 -5.65155 0
M  V30 447 H 40.7998 0.36745 -0.658405 0
M  V30 448 H 43.4508 0.22884 -1.82067 0
M  V30 449 H 41.8328 2.56933 -3.01333 0
M  V30 450 H 43.0068 0.193635 -4.60393 0
M  V30 451 H 41.3218 0.332905 -4.15067 0
M  V30 452 H 43.9188 3.10694 -4.3517 0
M  V30 453 H 44.2618 3.21662 -2.64271 0
M  V30 454 H 44.7948 1.78395 -3.55556 0
M  V30 455 H 41.5338 1.07043 -6.46701 0
M  V30 456 H 41.0538 2.46235 -5.46926 0
M  V30 457 H 42.7328 2.30967 -6.0437 0
M  V30 458 N 42.8649 1.48995 0.513639 0
M  V30 459 C 44.1139 1.57093 1.2651 0
M  V30 460 C 44.4269 0.257091 1.93903 0
M  V30 461 O 45.6329 0.216478 2.70636 0
M  V30 462 C 44.0889 2.77118 2.29638 0
M  V30 463 C 43.6969 4.15209 1.68241 0
M  V30 464 C 45.4409 2.94538 3.05692 0
M  V30 465 C 43.3479 5.26474 2.69406 0
M  V30 466 H 42.2779 0.584876 0.475854 0
M  V30 467 H 44.9289 1.7536 0.540487 0
M  V30 468 H 43.3109 2.52319 3.05207 0
M  V30 469 H 44.4849 4.50094 0.987505 0
M  V30 470 H 42.7999 4.03042 1.04623 0
M  V30 471 H 45.3969 3.74832 3.8132 0
M  V30 472 H 45.7399 2.04614 3.62545 0
M  V30 473 H 46.2729 3.19316 2.37238 0
M  V30 474 H 43.0119 6.18417 2.17351 0
M  V30 475 H 42.5319 4.96058 3.37175 0
M  V30 476 H 44.2109 5.55277 3.32078 0
M  V30 477 N 44.343 -0.763751 1.37857 0
M  V30 478 C 45.568 -1.55805 1.36893 0
M  V30 479 C 45.993 -1.88054 -0.0416135 0
M  V30 480 O 45.351 -1.49825 -1.02089 0
M  V30 481 C 45.399 -2.84012 2.22192 0
M  V30 482 O 44.503 -3.78732 1.63204 0
M  V30 483 H 43.844 -0.471638 0.46739 0
M  V30 484 H 46.374 -0.944657 1.81487 0
M  V30 485 H 46.384 -3.33037 2.35691 0
M  V30 486 H 45.059 -2.59869 3.24716 0
M  V30 487 H 43.636 -3.37402 1.58791 0
M  V30 488 N 45.8211 -1.22559 -0.990812 0
M  V30 489 C 47.0701 -1.04553 -1.72486 0
M  V30 490 C 47.3831 0.419349 -1.91052 0
M  V30 491 O 48.5891 0.719121 -2.61803 0
M  V30 492 C 47.0451 -1.82231 -3.10355 0
M  V30 493 C 46.6531 -3.32981 -2.99713 0
M  V30 494 C 48.3971 -1.7268 -3.87791 0
M  V30 495 C 46.3041 -4.03091 -4.32748 0
M  V30 496 H 45.2341 -0.387614 -0.646739 0
M  V30 497 H 47.8851 -1.46429 -1.10593 0
M  V30 498 H 46.2671 -1.33155 -3.72942 0
M  V30 499 H 47.4411 -3.89466 -2.46278 0
M  V30 500 H 45.7561 -3.43231 -2.35758 0
M  V30 501 H 48.3531 -2.22381 -4.86262 0
M  V30 502 H 48.6961 -0.687607 -4.10582 0
M  V30 503 H 49.2291 -2.1931 -3.31885 0
M  V30 504 H 45.9681 -5.07273 -4.15156 0
M  V30 505 H 45.4881 -3.51394 -4.86089 0
M  V30 506 H 47.1671 -4.08804 -5.01486 0
M  V30 507 N 47.2992 1.18797 -1.03562 0
M  V30 508 C 48.5452 1.89192 -0.746867 0
M  V30 509 C 48.9002 1.78531 0.717245 0
M  V30 510 O 48.1932 1.17137 1.51622 0
M  V30 511 C 48.3872 3.38692 -1.14117 0
M  V30 512 C 48.2162 3.63902 -2.64207 0
M  V30 513 C 46.9862 3.81553 -3.31279 0
M  V30 514 C 49.1842 3.64903 -3.62423 0
M  V30 515 N 47.1662 3.94455 -4.70402 0
M  V30 516 C 48.5372 3.83458 -4.87196 0
M  V30 517 C 50.5922 3.47965 -3.56125 0
M  V30 518 C 49.2952 3.86829 -6.06429 0
M  V30 519 C 51.3212 3.52616 -4.7478 0
M  V30 520 C 50.6832 3.71663 -5.9837 0
M  V30 521 H 46.7822 0.711141 -0.325273 0
M  V30 522 H 49.3662 1.42727 -1.32428 0
M  V30 523 H 47.5372 3.83864 -0.591889 0
M  V30 524 H 49.2692 3.96634 -0.803966 0
M  V30 525 H 46.0242 3.80723 -2.81686 0
M  V30 526 H 46.4482 4.0474 -5.42692 0
M  V30 527 H 51.0902 3.32189 -2.61553 0
M  V30 528 H 48.8082 4.01395 -7.01362 0
M  V30 529 H 52.3942 3.40791 -4.71543 0
M  V30 530 H 51.2742 3.75145 -6.88648 0
M  V30 531 N 48.7773 0.814389 1.34928 0
M  V30 532 C 50.0233 0.399013 1.98836 0
M  V30 533 C 50.3563 -1.03314 1.64438 0
M  V30 534 O 49.6313 -1.71811 0.911659 0
M  V30 535 C 49.9143 0.591629 3.55207 0
M  V30 536 C 49.7673 2.06928 3.99376 0
M  V30 537 C 51.0863 0.022199 4.40094 0
M  V30 538 H 48.2053 0.146451 0.722303 0
M  V30 539 H 50.8473 1.02537 1.59957 0
M  V30 540 H 48.9973 0.0584441 3.88456 0
M  V30 541 H 50.6693 2.66544 3.76499 0
M  V30 542 H 48.9123 2.56287 3.49999 0
M  V30 543 H 49.5833 2.1549 5.08201 0
M  V30 544 H 52.0593 0.477643 4.13349 0
M  V30 545 H 50.9353 0.186832 5.48582 0
M  V30 546 H 51.1963 -1.07215 4.28902 0
M  V30 547 N 50.2554 -1.46986 0.568584 0
M  V30 548 C 51.4804 -2.07335 0.0520528 0
M  V30 549 C 51.9054 -1.41675 -1.23733 0
M  V30 550 O 51.2634 -0.495623 -1.74394 0
M  V30 551 C 51.3114 -3.60417 -0.11501 0
M  V30 552 O 50.4154 -3.95309 -1.17492 0
M  V30 553 H 49.7564 -0.661597 0.0564385 0
M  V30 554 H 52.2864 -1.88837 0.787507 0
M  V30 555 H 52.2964 -4.06698 -0.325644 0
M  V30 556 H 50.9714 -4.07601 0.826675 0
M  V30 557 H 49.5484 -3.60757 -0.943869 0
M  V30 558 N 51.7335 -0.305618 -1.54608 0
M  V30 559 C 52.6835 0.583595 -2.20405 0
M  V30 560 C 53.6675 1.09539 -1.17856 0
M  V30 561 O 54.8595 1.0354 -1.43557 0
M  V30 562 C 51.9885 1.75277 -2.95183 0
M  V30 563 C 51.0745 1.25672 -4.05052 0
M  V30 564 N 51.4655 0.478998 -5.03527 0
M  V30 565 C 49.7635 1.53704 -4.18678 0
M  V30 566 C 50.4645 0.214269 -5.81305 0
M  V30 567 N 49.4405 0.795374 -5.3775 0
M  V30 568 H 53.2425 -0.0180946 -2.93894 0
M  V30 569 H 50.7565 -0.110601 -1.62023 0
M  V30 570 H 52.7535 2.4014 -3.40791 0
M  V30 571 H 51.4135 2.35812 -2.23211 0
M  V30 572 H 52.4245 0.123473 -5.17753 0
M  V30 573 H 49.1015 2.14954 -3.57912 0
M  V30 574 H 50.4915 -0.410656 -6.70644 0
M  V30 575 N 53.2116 1.57565 -0.0334293 0
M  V30 576 C 54.4366 1.96689 0.657895 0
M  V30 577 C 54.8616 0.910057 1.64619 0
M  V30 578 O 54.2196 -0.128598 1.80843 0
M  V30 579 C 54.2676 3.34905 1.33683 0
M  V30 580 O 53.3716 3.31574 2.45219 0
M  V30 581 H 52.7126 0.641205 0.172489 0
M  V30 582 H 55.2426 2.04372 -0.0965621 0
M  V30 583 H 55.2526 3.71234 1.69262 0
M  V30 584 H 53.9276 4.11366 0.612411 0
M  V30 585 H 52.5046 3.06968 2.11719 0
M  V30 586 N 54.6897 -0.239769 1.55765 0
M  V30 587 C 55.9387 -0.964754 1.77131 0
M  V30 588 C 56.2517 -1.86213 0.59868 0
M  V30 589 O 57.4577 -2.6244 0.695522 0
M  V30 590 C 55.9137 -1.76552 3.1362 0
M  V30 591 C 55.5217 -0.915185 4.38553 0
M  V30 592 C 57.2657 -2.48281 3.44321 0
M  V30 593 C 55.1727 -1.71225 5.66071 0
M  V30 594 H 54.1027 -0.363953 0.660344 0
M  V30 595 H 56.7537 -0.219181 1.82186 0
M  V30 596 H 55.1357 -2.55331 3.02691 0
M  V30 597 H 56.3097 -0.169217 4.60489 0
M  V30 598 H 54.6247 -0.310889 4.15238 0
M  V30 599 H 57.2217 -3.08382 4.36812 0
M  V30 600 H 57.5647 -3.20256 2.65973 0
M  V30 601 H 58.0977 -1.76507 3.56497 0
M  V30 602 H 54.8367 -1.03612 6.4726 0
M  V30 603 H 54.3567 -2.43331 5.48224 0
M  V30 604 H 56.0357 -2.27758 6.05587 0
M  V30 605 N 56.1678 -1.49265 -0.50573 0
M  V30 606 C 57.0998 -1.617 -1.62437 0
M  V30 607 C 58.1128 -0.499924 -1.54934 0
M  V30 608 O 59.3018 -0.771785 -1.60953 0
M  V30 609 C 56.4018 -1.5533 -3.01207 0
M  V30 610 C 55.5748 -2.8249 -3.33943 0
M  V30 611 C 54.6338 -2.69238 -4.52103 0
M  V30 612 O 53.6598 -3.43167 -4.5412 0
M  V30 613 N 54.8618 -1.80468 -5.51735 0
M  V30 614 H 57.6268 -2.58177 -1.52199 0
M  V30 615 H 55.1878 -1.46294 -0.693511 0
M  V30 616 H 57.1798 -1.44125 -3.78167 0
M  V30 617 H 55.7498 -0.667297 -3.05395 0
M  V30 618 H 54.9698 -3.08081 -2.45926 0
M  V30 619 H 56.2578 -3.66802 -3.5261 0
M  V30 620 H 55.6558 -1.19653 -5.52901 0
M  V30 621 H 54.2128 -1.75188 -6.27816 0
M  V30 622 N 57.6459 0.756429 -1.3826 0
M  V30 623 C 58.8739 1.54565 -1.3754 0
M  V30 624 C 59.2889 1.88767 0.0355331 0
M  V30 625 O 58.6459 1.52572 1.0014 0
M  V30 626 C 58.6969 2.84654 -2.22833 0
M  V30 627 O 58.4179 2.51912 -3.5843 0
M  V30 628 C 59.9189 3.78807 -2.30261 0
M  V30 629 H 57.1389 0.478353 -0.470553 0
M  V30 630 H 59.6829 0.936381 -1.81803 0
M  V30 631 H 57.8379 3.41965 -1.8204 0
M  V30 632 H 58.2519 3.35325 -4.03308 0
M  V30 633 H 59.7259 4.67045 -2.94233 0
M  V30 634 H 60.2029 4.19038 -1.31545 0
M  V30 635 H 60.8089 3.2742 -2.71433 0
M  V30 636 N 59.124 1.23083 0.984299 0
M  V30 637 C 60.372 1.05848 1.72165 0
M  V30 638 C 60.693 -0.406049 1.90726 0
M  V30 639 O 59.963 -1.29139 1.47309 0
M  V30 640 H 58.543 0.388685 0.637913 0
M  V30 641 H 61.205 1.54736 1.18503 0
M  V30 642 H 60.301 1.54327 2.71274 0
M  V30 643 N 60.6021 -1.18246 1.0419 0
M  V30 644 C 61.8271 -1.92736 0.765996 0
M  V30 645 C 62.2521 -1.75728 -0.67091 0
M  V30 646 O 61.6101 -1.06825 -1.46486 0
M  V30 647 C 61.6581 -3.42148 1.13875 0
M  V30 648 O 60.7621 -4.11548 0.264954 0
M  V30 649 H 60.1031 -0.601238 0.281797 0
M  V30 650 H 62.6331 -1.49942 1.39207 0
M  V30 651 H 62.6431 -3.92858 1.1012 0
M  V30 652 H 61.3181 -3.53848 2.18551 0
M  V30 653 H 59.8951 -3.71137 0.362226 0
M  V30 654 N 62.0802 -0.821533 -1.34494 0
M  V30 655 C 63.0122 -0.199946 -2.28326 0
M  V30 656 C 64.0252 0.609377 -1.50965 0
M  V30 657 O 65.2142 0.439285 -1.7301 0
M  V30 658 C 62.3142 0.738431 -3.30757 0
M  V30 659 C 61.4872 -0.0277632 -4.37391 0
M  V30 660 C 60.5462 0.831332 -5.19591 0
M  V30 661 O 59.5722 0.276822 -5.68526 0
M  V30 662 N 60.7742 2.15132 -5.39165 0
M  V30 663 H 63.5392 -1.00609 -2.82308 0
M  V30 664 H 61.1002 -0.678366 -1.47003 0
M  V30 665 H 63.0922 1.31773 -3.82646 0
M  V30 666 H 61.6622 1.44533 -2.7718 0
M  V30 667 H 60.8822 -0.788359 -3.86236 0
M  V30 668 H 62.1702 -0.555251 -5.05761 0
M  V30 669 H 61.5682 2.62559 -5.01078 0
M  V30 670 H 60.1252 2.6795 -5.94177 0
M  V30 671 N 63.5583 1.46682 -0.576371 0
M  V30 672 C 64.5063 2.31953 0.17335 0
M  V30 673 C 65.5003 1.44098 0.89062 0
M  V30 674 O 66.7063 1.60759 0.809728 0
M  V30 675 H 63.0813 0.748273 0.0747727 0
M  V30 676 H 65.0523 2.93007 -0.564738 0
M  V30 677 C 63.8013 3.27142 1.17786 0
M  V30 678 H 63.1243 3.94719 0.635361 0
M  V30 679 H 64.5643 3.896 1.67296 0
M  V30 680 C 63.0233 2.52036 2.23561 0
M  V30 681 O 63.5533 2.27877 3.3081 0
M  V30 682 N 61.7593 2.12709 1.97998 0
M  V30 683 H 61.3063 2.32557 1.10792 0
M  V30 684 H 61.2643 1.62776 2.68982 0
M  V30 685 N 65.0364 0.313813 1.54444 0
M  V30 686 C 65.9864 -0.571898 2.20711 0
M  V30 687 C 66.9704 -1.08913 1.18435 0
M  V30 688 O 68.1624 -1.02777 1.44104 0
M  V30 689 C 65.2914 -1.7371 2.96108 0
M  V30 690 C 64.3774 -1.23522 4.05713 0
M  V30 691 N 64.7684 -0.452288 5.03774 0
M  V30 692 C 63.0664 -1.51482 4.19487 0
M  V30 693 C 63.7674 -0.183438 5.81411 0
M  V30 694 N 62.7434 -0.766845 5.38164 0
M  V30 695 H 66.5454 0.0336802 2.93881 0
M  V30 696 H 64.0594 0.119192 1.61962 0
M  V30 697 H 66.0564 -2.38329 3.4206 0
M  V30 698 H 64.7164 -2.34625 2.24458 0
M  V30 699 H 65.7274 -0.0960131 5.17811 0
M  V30 700 H 62.4044 -2.13053 3.59047 0
M  V30 701 H 63.7944 0.446216 6.70417 0
M  V30 702 N 66.5145 -1.57545 0.0417849 0
M  V30 703 C 67.7425 -1.96624 -0.643928 0
M  V30 704 C 68.1575 -0.918897 -1.64929 0
M  V30 705 O 67.5145 0.0979323 -1.82237 0
M  V30 706 C 67.5655 -3.35781 -1.33914 0
M  V30 707 O 67.2865 -4.365 -0.374048 0
M  V30 708 C 68.7875 -3.89566 -2.1155 0
M  V30 709 H 66.0075 -0.647316 -0.176702 0
M  V30 710 H 68.5515 -2.04229 0.105304 0
M  V30 711 H 66.7065 -3.29357 -2.03968 0
M  V30 712 H 67.1205 -5.17248 -0.869179 0
M  V30 713 H 68.5945 -4.89242 -2.55628 0
M  V30 714 H 69.0715 -3.24488 -2.9598 0
M  V30 715 H 69.6775 -3.99298 -1.46427 0
M  V30 716 N 67.9926 0.231505 -1.5589 0
M  V30 717 C 69.2406 0.955461 -1.78088 0
M  V30 718 C 69.5616 1.85262 -0.608533 0
M  V30 719 O 68.8316 1.92277 0.375035 0
M  V30 720 H 67.4116 0.355787 -0.656829 0
M  V30 721 H 70.0736 0.245751 -1.93344 0
M  V30 722 H 69.1696 1.56814 -2.69844 0
M  V30 723 N 69.4707 1.49531 0.497807 0
M  V30 724 C 70.7197 1.58426 1.24837 0
M  V30 725 C 71.0327 0.277643 1.93619 0
M  V30 726 O 72.2387 0.24517 2.70391 0
M  V30 727 C 70.6947 2.79538 2.26686 0
M  V30 728 C 70.3027 4.16971 1.63828 0
M  V30 729 C 72.0467 2.97764 3.0255 0
M  V30 730 C 69.9537 5.29301 2.63807 0
M  V30 731 H 68.8837 0.58989 0.469623 0
M  V30 732 H 71.5347 1.75923 0.521857 0
M  V30 733 H 69.9167 2.55542 3.02514 0
M  V30 734 H 71.0907 4.51116 0.939711 0
M  V30 735 H 69.4057 4.04129 1.00342 0
M  V30 736 H 72.0027 3.78856 3.77323 0
M  V30 737 H 72.3457 2.08448 3.60354 0
M  V30 738 H 72.8787 3.21815 2.33838 0
M  V30 739 H 69.6177 6.20687 2.10779 0
M  V30 740 H 69.1377 4.99606 3.31894 0
M  V30 741 H 70.8167 5.58768 3.2617 0
M  V30 742 N 70.9488 -0.749086 1.3866 0
M  V30 743 C 72.1888 -1.52112 1.36534 0
M  V30 744 C 72.5528 -1.91951 -0.0432316 0
M  V30 745 O 73.7538 -2.68132 -0.189396 0
M  V30 746 C 72.0248 -2.73704 2.29828 0
M  V30 747 S 73.5838 -3.63519 2.45763 0
M  V30 748 H 70.4018 -0.520482 0.484375 0
M  V30 749 H 73.0038 -0.878963 1.74627 0
M  V30 750 H 71.7078 -2.42552 3.31054 0
M  V30 751 H 71.2388 -3.4286 1.929 0
M  V30 752 H 73.2538 -4.66712 1.68505 0
M  V30 753 N 72.4269 -1.23603 -0.977757 0
M  V30 754 C 73.3749 -1.01704 -2.09187 0
M  V30 755 C 74.3689 0.0448214 -1.69341 0
M  V30 756 O 75.5749 -0.108902 -1.7967 0
M  V30 757 H 71.9499 -0.311803 -0.684312 0
M  V30 758 H 73.9209 -1.96207 -2.24823 0
M  V30 759 C 72.6699 -0.627746 -3.41986 0
M  V30 760 H 71.9929 -1.43656 -3.73099 0
M  V30 761 H 73.4329 -0.514053 -4.20872 0
M  V30 762 C 71.8919 0.664238 -3.30287 0
M  V30 763 O 72.4219 1.71268 -3.6336 0
M  V30 764 N 70.6279 0.641156 -2.83439 0
M  V30 765 H 70.1749 -0.212376 -2.56723 0
M  V30 766 H 70.1329 1.50583 -2.75993 0
M  V30 767 N 73.905 1.17692 -1.04816 0
M  V30 768 C 74.837 2.21103 -0.603822 0
M  V30 769 C 75.85 1.59411 0.33046 0
M  V30 770 O 77.039 1.7807 0.12379 0
M  V30 771 C 74.139 3.38623 0.136898 0
M  V30 772 C 73.312 4.29888 -0.807137 0
M  V30 773 C 72.371 5.26088 -0.10836 0
M  V30 774 O 71.397 5.64353 -0.741232 0
M  V30 775 N 72.599 5.68882 1.15558 0
M  V30 776 H 75.364 2.59848 -1.49329 0
M  V30 777 H 72.925 1.32553 -0.929587 0
M  V30 778 H 74.917 4.00009 0.614401 0
M  V30 779 H 73.487 2.98508 0.927993 0
M  V30 780 H 72.707 3.65993 -1.46434 0
M  V30 781 H 73.995 4.87759 -1.44807 0
M  V30 782 H 73.393 5.39861 1.69015 0
M  V30 783 H 71.95 6.32429 1.57722 0
M  V30 784 N 75.3831 0.828654 1.34056 0
M  V30 785 C 76.7991 0.515135 1.51058 0
M  V30 786 C 76.9991 -0.959581 1.77184 0
M  V30 787 O 76.0551 -1.74382 1.82612 0
M  V30 788 C 77.3681 1.37963 2.67183 0
M  V30 789 C 78.9161 1.37735 2.81066 0
M  V30 790 C 79.3911 2.22645 4.00241 0
M  V30 791 N 80.8821 2.203 4.07458 0
M  V30 792 C 81.6171 2.82744 4.98842 0
M  V30 793 N 81.1131 3.54201 5.9541 0
M  V30 794 N 82.9061 2.72268 4.91759 0
M  V30 795 H 75.0571 1.78343 1.15358 0
M  V30 796 H 77.3201 0.760304 0.566252 0
M  V30 797 H 77.0261 2.42714 2.54525 0
M  V30 798 H 76.9001 1.0484 3.62338 0
M  V30 799 H 79.2871 0.337593 2.93163 0
M  V30 800 H 79.3681 1.74859 1.86703 0
M  V30 801 H 79.0121 3.26674 3.88905 0
M  V30 802 H 78.9421 1.82869 4.93829 0
M  V30 803 H 81.4331 1.68327 3.38341 0
M  V30 804 H 81.7461 3.9908 6.61782 0
M  V30 805 H 80.0911 3.58308 5.95517 0
M  V30 806 H 83.2821 2.16014 4.15278 0
M  V30 807 H 83.4551 3.21219 5.62781 0
M  V30 808 N 76.8612 -1.46375 0.584142 0
M  V30 809 C 78.1102 -2.01585 0.0679741 0
M  V30 810 C 78.4232 -1.46109 -1.30045 0
M  V30 811 O 79.6292 -1.93148 -1.90804 0
M  V30 812 C 78.0852 -3.5983 0.0709207 0
M  V30 813 C 77.6932 -4.24303 1.43775 0
M  V30 814 C 79.4372 -4.22693 -0.391228 0
M  V30 815 C 77.3442 -5.74631 1.39834 0
M  V30 816 H 76.2742 -0.753689 0.0216421 0
M  V30 817 H 78.9252 -1.68093 0.736001 0
M  V30 818 H 77.3072 -3.90405 -0.663299 0
M  V30 819 H 78.4812 -4.05335 2.19181 0
M  V30 820 H 76.7962 -3.73539 1.84004 0
M  V30 821 H 79.3932 -5.3289 -0.439524 0
M  V30 822 H 79.7362 -3.91728 -1.40906 0
M  V30 823 H 80.2692 -3.96749 0.288974 0
M  V30 824 H 77.0082 -6.10258 2.39303 0
M  V30 825 H 76.5282 -5.95858 0.686505 0
M  V30 826 H 78.2072 -6.37375 1.11187 0
M  V30 827 N 78.3393 -0.321999 -1.54275 0
M  V30 828 C 79.5883 0.281931 -1.9972 0
M  V30 829 C 79.9013 1.53369 -1.21397 0
M  V30 830 O 81.1073 2.21352 -1.57211 0
M  V30 831 C 79.5633 0.5529 -3.55628 0
M  V30 832 C 79.1713 -0.681721 -4.42783 0
M  V30 833 C 80.9153 1.11687 -4.09544 0
M  V30 834 C 78.8223 -0.382742 -5.9016 0
M  V30 835 H 77.7523 0.109124 -0.746062 0
M  V30 836 H 80.4033 -0.43398 -1.78294 0
M  V30 837 H 78.7853 1.32896 -3.73035 0
M  V30 838 H 79.9593 -1.45723 -4.37151 0
M  V30 839 H 78.2743 -1.1658 -3.99748 0
M  V30 840 H 80.8713 1.35515 -5.17242 0
M  V30 841 H 81.2143 2.06575 -3.61431 0
M  V30 842 H 81.7473 0.402032 -3.95763 0
M  V30 843 H 78.4863 -1.30076 -6.42464 0
M  V30 844 H 78.0063 0.355094 -5.98748 0
M  V30 845 H 79.6853 0.00800157 -6.47 0
M  V30 846 N 79.8174 1.5752 -0.0501392 0
M  V30 847 C 81.0454 1.96963 0.633492 0
M  V30 848 C 81.4604 0.927631 1.6444 0
M  V30 849 O 80.8174 -0.0882665 1.82286 0
M  V30 850 C 80.8684 3.36487 1.32132 0
M  V30 851 O 80.5894 4.36693 0.350894 0
M  V30 852 C 82.0904 3.90682 2.09481 0
M  V30 853 H 79.3104 0.648244 0.173266 0
M  V30 854 H 81.8544 2.0417 -0.116134 0
M  V30 855 H 80.0094 3.30434 2.02218 0
M  V30 856 H 80.4234 5.17702 0.841735 0
M  V30 857 H 81.8974 4.90591 2.5303 0
M  V30 858 H 82.3744 3.26053 2.94255 0
M  V30 859 H 82.9804 4.00069 1.44307 0
M  V30 860 N 81.2955 -0.223234 1.56011 0
M  V30 861 C 82.5255 -0.963413 1.82762 0
M  V30 862 C 82.9335 -1.78516 0.626804 0
M  V30 863 O 82.2765 -1.78974 -0.414014 0
M  V30 864 C 82.3385 -1.93126 3.0322 0
M  V30 865 C 82.0025 -1.2942 4.38291 0
M  V30 866 C 82.9995 -0.684916 5.15369 0
M  V30 867 C 80.6845 -1.30647 4.85012 0
M  V30 868 C 82.6785 -0.0963971 6.37327 0
M  V30 869 C 80.3655 -0.71411 6.06913 0
M  V30 870 C 81.3635 -0.110123 6.82911 0
M  V30 871 O 81.0515 0.47303 8.02507 0
M  V30 872 H 80.7835 -0.288011 0.611576 0
M  V30 873 H 83.3375 -0.244103 2.03944 0
M  V30 874 H 81.5675 -2.68952 2.77852 0
M  V30 875 H 83.2565 -2.53685 3.16857 0
M  V30 876 H 84.0225 -0.667774 4.80381 0
M  V30 877 H 79.9015 -1.76598 4.25833 0
M  V30 878 H 83.4455 0.375657 6.96588 0
M  V30 879 H 79.3425 -0.728659 6.41374 0
M  V30 880 H 80.1105 0.367186 8.17676 0
M  V30 881 N 82.7736 -1.49793 -0.48987 0
M  V30 882 C 83.6836 -1.70036 -1.61632 0
M  V30 883 C 84.6996 -0.583102 -1.63939 0
M  V30 884 O 85.8756 -0.859169 -1.82154 0
M  V30 885 C 82.9406 -1.77277 -2.97949 0
M  V30 886 C 82.0016 -3.00918 -3.06181 0
M  V30 887 C 81.2346 -3.07804 -4.35996 0
M  V30 888 O 81.4576 -2.21982 -5.25433 0
M  V30 889 O 80.3916 -4.00369 -4.49431 0
M  V30 890 H 84.2176 -2.65486 -1.47482 0
M  V30 891 H 81.8026 -1.33666 -0.667362 0
M  V30 892 H 83.6846 -1.84329 -3.78947 0
M  V30 893 H 82.3596 -0.850076 -3.12339 0
M  V30 894 H 81.2666 -2.99377 -2.2433 0
M  V30 895 H 82.5996 -3.92704 -2.96723 0
M  V30 896 N 84.2517 0.741722 -1.39055 0
M  V30 897 C 85.1997 1.87702 -1.3737 0
M  V30 898 C 86.1937 1.67427 -0.257812 0
M  V30 899 O 87.3997 1.7485 -0.427489 0
M  V30 900 H 83.7747 0.617757 -0.428812 0
M  V30 901 H 85.7457 1.86239 -2.33147 0
M  V30 902 C 84.4947 3.25315 -1.22741 0
M  V30 903 H 83.8177 3.41509 -2.07873 0
M  V30 904 H 85.2577 4.04964 -1.25618 0
M  V30 905 C 83.7167 3.36838 0.0647316 0
M  V30 906 O 84.2467 3.88073 1.03741 0
M  V30 907 N 82.4527 2.90329 0.125544 0
M  V30 908 H 81.9997 2.48823 -0.666682 0
M  V30 909 H 81.9577 2.98418 0.989639 0
M  V30 910 N 85.7298 1.2412 0.971189 0
M  V30 911 C 86.9548 1.10667 1.75407 0
M  V30 912 C 87.3798 -0.337048 1.85056 0
M  V30 913 O 86.7378 -1.24396 1.31892 0
M  V30 914 C 86.7858 1.74726 3.15441 0
M  V30 915 O 85.8898 1.01566 3.99697 0
M  V30 916 H 85.2308 0.387341 0.539317 0
M  V30 917 H 87.7608 1.64358 1.2185 0
M  V30 918 H 87.7708 1.80341 3.6598 0
M  V30 919 H 86.4458 2.79773 3.07734 0
M  V30 920 H 85.0228 1.03713 3.58187 0
M  V30 921 N 87.2079 -1.17134 1.05439 0
M  V30 922 C 88.4359 -1.91372 0.786414 0
M  V30 923 C 88.8509 -1.76955 -0.658202 0
M  V30 924 O 88.2079 -1.10838 -1.44987 0
M  V30 925 C 88.2589 -3.42356 1.1608 0
M  V30 926 O 87.9799 -3.56332 2.54871 0
M  V30 927 C 89.4809 -4.33663 0.919322 0
M  V30 928 H 86.7009 -0.607118 0.285743 0
M  V30 929 H 89.2449 -1.48525 1.40572 0
M  V30 930 H 87.3999 -3.82939 0.586191 0
M  V30 931 H 87.8139 -4.49896 2.69618 0
M  V30 932 H 89.2879 -5.38099 1.231 0
M  V30 933 H 89.7649 -4.38959 -0.145359 0
M  V30 934 H 90.3709 -3.98796 1.47789 0
M  V30 935 N 88.686 -0.835752 -1.33615 0
M  V30 936 C 89.932 -0.439817 -1.98588 0
M  V30 937 C 90.287 0.989274 -1.65019 0
M  V30 938 O 89.58 1.68168 -0.918159 0
M  V30 939 C 89.774 -0.593925 -3.52431 0
M  V30 940 C 89.603 -2.03644 -4.00948 0
M  V30 941 C 88.373 -2.67103 -4.28934 0
M  V30 942 C 90.571 -3.00479 -4.17393 0
M  V30 943 N 88.553 -4.02462 -4.6357 0
M  V30 944 C 89.924 -4.20777 -4.55353 0
M  V30 945 C 91.979 -2.96926 -3.99674 0
M  V30 946 C 90.682 -5.37994 -4.77447 0
M  V30 947 C 92.708 -4.1337 -4.22941 0
M  V30 948 C 92.07 -5.32422 -4.61201 0
M  V30 949 H 88.169 -0.209303 -0.75347 0
M  V30 950 H 90.753 -1.08316 -1.61789 0
M  V30 951 H 88.924 0.019599 -3.88395 0
M  V30 952 H 90.656 -0.169738 -4.04344 0
M  V30 953 H 87.411 -2.18259 -4.20309 0
M  V30 954 H 87.835 -4.72232 -4.85104 0
M  V30 955 H 92.477 -2.06015 -3.69212 0
M  V30 956 H 90.195 -6.29451 -5.06771 0
M  V30 957 H 93.781 -4.12034 -4.10754 0
M  V30 958 H 92.661 -6.21027 -4.78848 0
M  V30 959 N 90.1641 1.46063 -0.591896 0
M  V30 960 C 91.4101 2.02638 -0.0811191 0
M  V30 961 C 91.7431 1.4613 1.27905 0
M  V30 962 O 91.0181 0.629908 1.84017 0
M  V30 963 C 91.3011 3.60091 -0.0252436 0
M  V30 964 C 91.1541 4.26965 -1.41496 0
M  V30 965 C 92.4731 4.3496 0.670685 0
M  V30 966 H 89.5921 0.73635 -0.0309524 0
M  V30 967 H 92.2341 1.741 -0.760859 0
M  V30 968 H 90.3841 3.84535 0.553624 0
M  V30 969 H 92.0561 4.13756 -2.0397 0
M  V30 970 H 90.2991 3.85971 -1.98011 0
M  V30 971 H 90.9701 5.35781 -1.32825 0
M  V30 972 H 93.4461 4.15716 0.178825 0
M  V30 973 H 92.3221 5.44686 0.678837 0
M  V30 974 H 92.5831 4.06685 1.73379 0
M  V30 975 N 91.6422 0.330177 1.54103 0
M  V30 976 C 92.5902 -0.548226 2.26047 0
M  V30 977 C 93.5842 -1.11309 1.27698 0
M  V30 978 O 94.7902 -1.06036 1.45452 0
M  V30 979 H 91.1652 -0.195456 0.726155 0
M  V30 980 H 93.1362 0.0807567 2.98291 0
M  V30 981 C 91.8852 -1.69415 3.03634 0
M  V30 982 H 91.2082 -1.26876 3.79134 0
M  V30 983 H 92.6482 -2.28423 3.5721 0
M  V30 984 C 91.1072 -2.61569 2.12328 0
M  V30 985 O 91.6372 -3.63462 1.7105 0
M  V30 986 N 89.8432 -2.29952 1.77681 0
M  V30 987 H 89.3902 -1.47134 2.11446 0
M  V30 988 H 89.3482 -2.91871 1.16869 0
M  V30 989 N 93.1203 -1.57491 0.0584922 0
M  V30 990 C 94.0523 -2.08916 -0.942694 0
M  V30 991 C 95.0653 -1.0185 -1.27006 0
M  V30 992 O 96.2543 -1.29398 -1.22957 0
M  V30 993 C 93.3543 -2.52341 -2.26224 0
M  V30 994 C 92.5273 -3.82827 -2.1157 0
M  V30 995 C 91.5863 -4.12487 -3.26712 0
M  V30 996 O 90.6123 -4.82295 -3.02292 0
M  V30 997 N 91.8143 -3.64978 -4.5141 0
M  V30 998 H 94.5793 -2.95437 -0.503722 0
M  V30 999 H 92.1403 -1.61397 -0.12757 0
M  V30 1000 H 94.1323 -2.69254 -3.02133 0
M  V30 1001 H 92.7023 -1.7103 -2.61663 0
M  V30 1002 H 91.9223 -3.75425 -1.20208 0
M  V30 1003 H 93.2103 -4.68263 -1.99015 0
M  V30 1004 H 92.6083 -3.08558 -4.7414 0
M  V30 1005 H 91.1653 -3.87115 -5.2439 0
M  V30 1006 N 94.5984 0.214957 -1.56127 0
M  V30 1007 C 95.8264 0.955092 -1.83536 0
M  V30 1008 C 96.2414 1.77677 -0.638472 0
M  V30 1009 O 95.5984 1.78219 0.392968 0
M  V30 1010 C 95.6494 1.86734 -3.09536 0
M  V30 1011 O 95.3704 1.07887 -4.24608 0
M  V30 1012 C 96.8714 2.72082 -3.4998 0
M  V30 1013 H 94.0914 0.279611 -0.609966 0
M  V30 1014 H 96.6354 0.228197 -2.03223 0
M  V30 1015 H 94.7904 2.5481 -2.91806 0
M  V30 1016 H 95.2044 1.69872 -4.9623 0
M  V30 1017 H 96.6784 3.31782 -4.41163 0
M  V30 1018 H 97.1554 3.44806 -2.7204 0
M  V30 1019 H 97.7614 2.09409 -3.70173 0
M  V30 1020 N 96.0765 1.50051 0.48192 0
M  V30 1021 C 97.3065 1.63999 1.2565 0
M  V30 1022 C 97.7145 0.318288 1.86504 0
M  V30 1023 O 97.0575 -0.708534 1.69486 0
M  V30 1024 C 97.1195 2.66504 2.4128 0
M  V30 1025 C 96.7835 4.10352 2.01148 0
M  V30 1026 C 97.7805 4.96562 1.54021 0
M  V30 1027 C 95.4655 4.56203 2.10199 0
M  V30 1028 C 97.4595 6.26668 1.16473 0
M  V30 1029 C 95.1465 5.86318 1.72264 0
M  V30 1030 C 96.1445 6.71375 1.25477 0
M  V30 1031 O 95.8325 7.99062 0.880626 0
M  V30 1032 H 95.5645 0.55456 0.386574 0
M  V30 1033 H 98.1185 1.96954 0.582944 0
M  V30 1034 H 96.3485 2.28769 3.11772 0
M  V30 1035 H 98.0375 2.69783 3.03268 0
M  V30 1036 H 98.8035 4.62358 1.46458 0
M  V30 1037 H 94.6825 3.90152 2.45566 0
M  V30 1038 H 98.2265 6.93011 0.798841 0
M  V30 1039 H 94.1235 6.20046 1.79482 0
M  V30 1040 H 94.8915 8.12239 1.01043 0
M  V30 1041 N 97.5546 -0.734337 1.39446 0
M  V30 1042 C 98.8006 -1.49613 1.36908 0
M  V30 1043 C 99.1336 -1.94169 -0.0347829 0
M  V30 1044 O 98.4086 -1.66833 -0.999847 0
M  V30 1045 C 98.6916 -2.73534 2.34203 0
M  V30 1046 C 98.5446 -2.34993 3.83534 0
M  V30 1047 C 99.8636 -3.75635 2.29317 0
M  V30 1048 H 96.9826 -0.542714 0.498629 0
M  V30 1049 H 99.6246 -0.839597 1.70443 0
M  V30 1050 H 97.7746 -3.29553 2.05736 0
M  V30 1051 H 99.4466 -1.84601 4.22753 0
M  V30 1052 H 97.6896 -1.67213 4.00278 0
M  V30 1053 H 98.3606 -3.23738 4.47099 0
M  V30 1054 H 100.837 -3.29203 2.54489 0
M  V30 1055 H 99.7126 -4.60008 2.99472 0
M  V30 1056 H 99.9736 -4.22603 1.29842 0
M  V30 1057 N 99.0327 -1.24633 -0.964593 0
M  V30 1058 C 99.9807 -1.03917 -2.08096 0
M  V30 1059 C 100.975 0.0268581 -1.69379 0
M  V30 1060 O 102.181 -0.127952 -1.79545 0
M  V30 1061 H 98.5557 -0.319044 -0.680966 0
M  V30 1062 H 100.527 -1.98581 -2.22729 0
M  V30 1063 C 99.2757 -0.663983 -3.41301 0
M  V30 1064 H 98.5987 -1.47605 -3.71555 0
M  V30 1065 H 100.039 -0.558663 -4.20303 0
M  V30 1066 C 98.4977 0.629169 -3.30973 0
M  V30 1067 O 99.0277 1.67404 -3.65156 0
M  V30 1068 N 97.2337 0.611057 -2.84103 0
M  V30 1069 H 96.7807 -0.239593 -2.56483 0
M  V30 1070 H 96.7387 1.47647 -2.77575 0
M  V30 1071 N 100.511 1.16574 -1.06058 0
M  V30 1072 C 101.76 1.86385 -0.770944 0
M  V30 1073 C 102.073 1.82448 0.705129 0
M  V30 1074 O 103.279 2.47815 1.10905 0
M  V30 1075 C 101.735 3.34466 -1.32893 0
M  V30 1076 C 101.343 3.46883 -2.83507 0
M  V30 1077 C 103.087 4.09548 -1.11672 0
M  V30 1078 C 100.994 4.89036 -3.32562 0
M  V30 1079 H 99.9238 0.698181 -0.284709 0
M  V30 1080 H 102.575 1.31583 -1.27899 0
M  V30 1081 H 100.957 3.88859 -0.748662 0
M  V30 1082 H 102.131 3.02663 -3.47465 0
M  V30 1083 H 100.446 2.85232 -3.03368 0
M  V30 1084 H 103.043 5.14434 -1.45814 0
M  V30 1085 H 103.386 4.16264 -0.0549535 0
M  V30 1086 H 103.919 3.61387 -1.66265 0
M  V30 1087 H 100.658 4.87499 -4.38207 0
M  V30 1088 H 100.178 5.3389 -2.73351 0
M  V30 1089 H 101.857 5.57843 -3.2775 0
M  V30 1090 N 101.989 0.842826 1.3317 0
M  V30 1091 C 102.937 0.267495 2.31057 0
M  V30 1092 C 103.931 -0.602682 1.58316 0
M  V30 1093 O 105.137 -0.491803 1.73151 0
M  V30 1094 H 101.512 0.0677813 0.748939 0
M  V30 1095 H 103.483 1.10754 2.77085 0
M  V30 1096 C 102.232 -0.539331 3.43492 0
M  V30 1097 H 101.555 0.12095 3.99617 0
M  V30 1098 H 102.995 -0.90767 4.14171 0
M  V30 1099 C 101.454 -1.71981 2.89697 0
M  V30 1100 O 101.984 -2.81862 2.86211 0
M  V30 1101 N 100.19 -1.54299 2.46252 0
M  V30 1102 H 99.7369 -0.649143 2.49287 0
M  V30 1103 H 99.6949 -2.33431 2.10612 0
M  V30 1104 N 103.467 -1.45747 0.599634 0
M  V30 1105 C 104.415 -2.322 -0.136426 0
M  V30 1106 C 105.409 -1.45497 -0.867583 0
M  V30 1107 O 106.615 -1.62027 -0.78405 0
M  V30 1108 H 102.99 -0.749368 -0.0628588 0
M  V30 1109 H 104.961 -2.92072 0.611281 0
M  V30 1110 C 103.71 -3.28974 -1.12567 0
M  V30 1111 H 103.033 -3.9568 -0.572484 0
M  V30 1112 H 104.473 -3.92212 -1.61077 0
M  V30 1113 C 102.932 -2.55561 -2.19523 0
M  V30 1114 O 103.462 -2.33111 -3.27143 0
M  V30 1115 N 101.668 -2.15832 -1.94589 0
M  V30 1116 H 101.215 -2.3429 -1.07078 0
M  V30 1117 H 101.173 -1.67034 -2.66359 0
M  V30 1118 N 104.945 -0.338344 -1.53925 0
M  V30 1119 C 106.173 0.261298 -2.05243 0
M  V30 1120 C 106.588 1.44625 -1.21363 0
M  V30 1121 O 105.945 1.80811 -0.247736 0
M  V30 1122 C 105.996 0.681412 -3.5502 0
M  V30 1123 O 105.717 -0.456414 -4.35716 0
M  V30 1124 C 107.218 1.34232 -4.22489 0
M  V30 1125 H 104.438 0.0513685 -0.669031 0
M  V30 1126 H 106.982 -0.488822 -1.98572 0
M  V30 1127 H 105.137 1.38148 -3.61931 0
M  V30 1128 H 105.551 -0.122564 -5.24357 0
M  V30 1129 H 107.025 1.58708 -5.28693 0
M  V30 1130 H 107.502 2.29426 -3.74514 0
M  V30 1131 H 108.108 0.684424 -4.19757 0
M  V30 1132 N 106.423 1.57458 -0.0668435 0
M  V30 1133 C 107.371 2.13639 0.919851 0
M  V30 1134 C 108.365 1.07204 1.31163 0
M  V30 1135 O 109.571 1.25591 1.28945 0
M  V30 1136 H 105.946 0.683048 0.314562 0
M  V30 1137 H 107.917 2.95415 0.421047 0
M  V30 1138 C 106.666 2.70892 2.17975 0
M  V30 1139 H 105.989 3.5246 1.88711 0
M  V30 1140 H 107.429 3.13803 2.85138 0
M  V30 1141 C 105.888 1.65414 2.93496 0
M  V30 1142 O 106.418 1.07619 3.87015 0
M  V30 1143 N 104.624 1.36564 2.56512 0
M  V30 1144 H 104.171 1.83751 1.80536 0
M  V30 1145 H 104.129 0.66223 3.07347 0
M  V30 1146 N 107.901 -0.206675 1.56239 0
M  V30 1147 C 109.147 -0.930218 1.80208 0
M  V30 1148 C 109.48 -1.83387 0.638981 0
M  V30 1149 O 108.755 -1.91119 -0.361066 0
M  V30 1150 C 109.038 -1.75641 3.1436 0
M  V30 1151 C 108.891 -0.878257 4.41142 0
M  V30 1152 C 110.21 -2.73129 3.45092 0
M  V30 1153 H 107.329 -0.336742 0.655571 0
M  V30 1154 H 109.971 -0.198222 1.88963 0
M  V30 1155 H 108.121 -2.38048 3.07027 0
M  V30 1156 H 109.793 -0.269787 4.6051 0
M  V30 1157 H 108.036 -0.184385 4.33408 0
M  V30 1158 H 108.707 -1.49106 5.3148 0
M  V30 1159 H 111.183 -2.20856 3.52649 0
M  V30 1160 H 110.059 -3.28028 4.40101 0
M  V30 1161 H 110.32 -3.51606 2.68003 0
M  V30 1162 N 109.379 -1.50304 -0.473955 0
M  V30 1163 C 110.625 -1.61389 -1.22806 0
M  V30 1164 C 110.958 -0.311955 -1.91678 0
M  V30 1165 O 110.233 0.686384 -1.81986 0
M  V30 1166 C 110.516 -2.79219 -2.27396 0
M  V30 1167 C 110.369 -4.19286 -1.62848 0
M  V30 1168 C 111.688 -2.92614 -3.28732 0
M  V30 1169 H 108.807 -0.587399 -0.445119 0
M  V30 1170 H 111.449 -1.82681 -0.522265 0
M  V30 1171 H 109.599 -2.61195 -2.87592 0
M  V30 1172 H 111.271 -4.48892 -1.06271 0
M  V30 1173 H 109.514 -4.23677 -0.931693 0
M  V30 1174 H 110.185 -4.97655 -2.38838 0
M  V30 1175 H 112.661 -3.09105 -2.78556 0
M  V30 1176 H 111.537 -3.76688 -3.99246 0
M  V30 1177 H 111.798 -2.03107 -3.92683 0
M  V30 1178 N 110.857 0.726932 -1.39834 0
M  V30 1179 C 111.82 1.82269 -1.38962 0
M  V30 1180 C 112.82 1.58248 -0.285334 0
M  V30 1181 O 114.01 1.65499 -0.54366 0
M  V30 1182 C 111.142 3.20186 -1.17019 0
M  V30 1183 H 112.335 1.84443 -2.36476 0
M  V30 1184 H 109.888 0.931416 -1.25516 0
M  V30 1185 H 110.623 3.23669 -0.202204 0
M  V30 1186 H 110.408 3.3902 -1.96998 0
M  V30 1187 H 111.898 4.00235 -1.1917 0
M  V30 1188 N 112.336 1.25143 0.95797 0
M  V30 1189 C 113.584 1.09476 1.69881 0
M  V30 1190 C 113.905 -0.365502 1.91544 0
M  V30 1191 O 113.175 -1.25985 1.50015 0
M  V30 1192 H 111.755 0.402128 0.629525 0
M  V30 1193 H 114.417 1.57214 1.15194 0
M  V30 1194 H 113.513 1.60046 2.6794 0
M  V30 1195 N 113.814 -1.1601 1.06675 0
M  V30 1196 C 114.761 -2.20525 0.680967 0
M  V30 1197 C 115.731 -1.62904 -0.324283 0
M  V30 1198 O 116.916 -1.89615 -0.212294 0
M  V30 1199 C 114.056 -3.45013 0.0776551 0
M  V30 1200 C 113.169 -4.16863 1.13355 0
M  V30 1201 C 112.304 -5.2888 0.49597 0
M  V30 1202 C 111.343 -5.92537 1.53513 0
M  V30 1203 N 110.48 -6.96038 0.920631 0
M  V30 1204 H 115.32 -2.52876 1.57663 0
M  V30 1205 H 112.857 -1.24199 0.788223 0
M  V30 1206 H 114.815 -4.16193 -0.289704 0
M  V30 1207 H 113.445 -3.132 -0.781393 0
M  V30 1208 H 112.497 -3.44248 1.61857 0
M  V30 1209 H 113.809 -4.60294 1.92174 0
M  V30 1210 H 112.963 -6.06653 0.0758604 0
M  V30 1211 H 111.702 -4.86622 -0.324062 0
M  V30 1212 H 110.707 -5.13482 1.9651 0
M  V30 1213 H 111.932 -6.36873 2.35733 0
M  V30 1214 H 109.878 -6.55888 0.12138 0
M  V30 1215 H 109.795 -7.3786 1.64616 0
M  V30 1216 H 111.063 -7.77725 0.525795 0
M  V30 1217 N 115.292 -0.849877 -1.32721 0
M  V30 1218 C 116.569 -0.372405 -1.92022 0
M  V30 1219 C 116.949 1.1435 -1.77447 0
M  V30 1220 O 116.297 1.96296 -1.16962 0
M  V30 1221 C 116.507 -0.831482 -3.3895 0
M  V30 1222 C 117.855 -0.845882 -4.16089 0
M  V30 1223 O 118.879 -0.775806 -3.47649 0
M  V30 1224 O 117.738 -0.943753 -5.38289 0
M  V30 1225 H 114.832 -0.107667 -0.819961 0
M  V30 1226 H 117.378 -0.93646 -1.41522 0
M  V30 1227 H 116.15 -1.87448 -3.4348 0
M  V30 1228 H 115.773 -0.24461 -3.96847 0
M  V30 1229 N 116.77 1.45427 -0.607355 0
M  V30 1230 C 117.998 2.06614 -0.108814 0
M  V30 1231 C 118.413 1.45204 1.2067 0
M  V30 1232 O 117.77 0.566132 1.73497 0
M  V30 1233 C 117.821 3.61481 0.0375347 0
M  V30 1234 O 117.542 4.20598 -1.22593 0
M  V30 1235 C 119.043 4.39652 0.567561 0
M  V30 1236 H 116.263 0.66747 -0.0687351 0
M  V30 1237 H 118.807 1.86675 -0.835022 0
M  V30 1238 H 116.962 3.80762 0.714068 0
M  V30 1239 H 117.376 5.1377 -1.05547 0
M  V30 1240 H 118.85 5.48518 0.61905 0
M  V30 1241 H 119.327 4.09417 1.58978 0
M  V30 1242 H 119.933 4.25234 -0.0749202 0
M  V30 1243 N 118.248 0.346503 1.53744 0
M  V30 1244 C 119.476 -0.25041 2.05379 0
M  V30 1245 C 119.891 -1.43979 1.22129 0
M  V30 1246 O 119.248 -1.80677 0.257321 0
M  V30 1247 C 119.299 -0.662575 3.55376 0
M  V30 1248 O 119.02 0.479515 4.35468 0
M  V30 1249 C 120.521 -1.31989 4.23195 0
M  V30 1250 H 117.741 -0.0478198 0.669294 0
M  V30 1251 H 120.285 0.499346 1.9831 0
M  V30 1252 H 118.44 -1.36227 3.62658 0
M  V30 1253 H 118.854 0.15037 5.24284 0
M  V30 1254 H 120.328 -1.55902 5.29527 0
M  V30 1255 H 120.805 -2.27436 3.75725 0
M  V30 1256 H 121.411 -0.662154 4.20114 0
M  V30 1257 N 119.726 -1.57421 0.075193 0
M  V30 1258 C 120.951 -1.98364 -0.605515 0
M  V30 1259 C 121.376 -0.953383 -1.62149 0
M  V30 1260 O 120.734 0.0806053 -1.81121 0
M  V30 1261 C 120.782 -3.38332 -1.24756 0
M  V30 1262 O 119.886 -3.37959 -2.36342 0
M  V30 1263 H 119.227 -0.645553 -0.155428 0
M  V30 1264 H 121.757 -2.04044 0.150714 0
M  V30 1265 H 121.767 -3.75591 -1.5936 0
M  V30 1266 H 120.442 -4.12846 -0.503129 0
M  V30 1267 H 119.019 -3.12474 -2.03506 0
M  V30 1268 N 121.204 0.198386 -1.56346 0
M  V30 1269 C 122.45 0.920648 -1.80698 0
M  V30 1270 C 122.783 1.83045 -0.648697 0
M  V30 1271 O 122.058 1.91308 0.350925 0
M  V30 1272 C 122.341 1.73971 -3.15287 0
M  V30 1273 C 122.194 0.85485 -4.41602 0
M  V30 1274 C 123.513 2.71296 -3.46535 0
M  V30 1275 H 120.632 0.333261 -0.657348 0
M  V30 1276 H 123.274 0.188198 -1.89066 0
M  V30 1277 H 121.424 2.36416 -3.08285 0
M  V30 1278 H 123.096 0.245362 -4.60647 0
M  V30 1279 H 121.339 0.161398 -4.335 0
M  V30 1280 H 122.01 1.46286 -5.32264 0
M  V30 1281 H 124.486 2.18983 -3.53816 0
M  V30 1282 H 123.362 3.2569 -4.41834 0
M  V30 1283 H 123.623 3.5018 -2.69864 0
M  V30 1284 N 122.682 1.50554 0.465978 0
M  V30 1285 C 123.91 1.65563 1.24083 0
M  V30 1286 C 124.325 0.341051 1.85694 0
M  V30 1287 O 123.682 -0.677543 1.69457 0
M  V30 1288 C 123.733 2.75051 2.34583 0
M  V30 1289 O 123.454 4.01413 1.75497 0
M  V30 1290 C 124.955 3.01078 3.25372 0
M  V30 1291 H 122.175 0.55638 0.375077 0
M  V30 1292 H 124.719 1.96807 0.555624 0
M  V30 1293 H 122.874 2.46486 2.9887 0
M  V30 1294 H 123.288 4.62002 2.48303 0
M  V30 1295 H 124.762 3.81339 3.99105 0
M  V30 1296 H 125.239 2.12349 3.84453 0
M  V30 1297 H 125.845 3.31194 2.66816 0
M  V30 1298 N 124.16 -0.719506 1.40217 0
M  V30 1299 C 125.09 -1.8465 1.42922 0
M  V30 1300 C 126.071 -1.67599 0.29062 0
M  V30 1301 O 127.256 -1.87688 0.498677 0
M  V30 1302 C 124.386 -3.22565 1.28722 0
M  V30 1303 C 123.34 -3.54281 2.40144 0
M  V30 1304 C 122.666 -4.91298 2.11023 0
M  V30 1305 C 123.966 -3.55676 3.82481 0
M  V30 1306 H 125.66 -1.82644 2.37237 0
M  V30 1307 H 123.206 -0.877305 1.1419 0
M  V30 1308 H 125.159 -4.01095 1.29232 0
M  V30 1309 H 123.883 -3.25137 0.308811 0
M  V30 1310 H 122.542 -2.78088 2.38877 0
M  V30 1311 H 122.19 -4.90468 1.11582 0
M  V30 1312 H 121.89 -5.13485 2.8567 0
M  V30 1313 H 123.414 -5.72166 2.13209 0
M  V30 1314 H 124.828 -4.24254 3.85592 0
M  V30 1315 H 123.225 -3.89388 4.56614 0
M  V30 1316 H 124.295 -2.55144 4.12346 0
M  V30 1317 N 125.638 -1.25649 -0.95132 0
M  V30 1318 C 126.601 -1.06399 -2.03007 0
M  V30 1319 C 127.601 -0.0156794 -1.60792 0
M  V30 1320 O 128.791 -0.25817 -1.72276 0
M  V30 1321 C 125.923 -0.616184 -3.35285 0
M  V30 1322 H 127.116 -2.02164 -2.21517 0
M  V30 1323 H 124.669 -1.08103 -1.12887 0
M  V30 1324 H 125.404 0.343917 -3.22471 0
M  V30 1325 H 125.189 -1.37301 -3.67275 0
M  V30 1326 H 126.679 -0.503032 -4.14559 0
M  V30 1327 N 127.117 1.15442 -1.07289 0
M  V30 1328 C 128.365 1.85845 -0.794096 0
M  V30 1329 C 128.686 1.82692 0.681809 0
M  V30 1330 O 127.956 1.26741 1.49377 0
M  V30 1331 H 126.536 0.688089 -0.290763 0
M  V30 1332 H 129.198 1.39947 -1.3565 0
M  V30 1333 H 128.294 2.91001 -1.12804 0
M  V30 1334 N 128.595 0.856903 1.32268 0
M  V30 1335 C 129.543 0.291987 2.3076 0
M  V30 1336 C 130.537 -0.585857 1.58947 0
M  V30 1337 O 131.743 -0.47341 1.73663 0
M  V30 1338 H 128.118 0.075721 0.748178 0
M  V30 1339 H 130.089 1.13687 2.75895 0
M  V30 1340 C 128.838 -0.502869 3.44044 0
M  V30 1341 H 128.161 0.163328 3.99466 0
M  V30 1342 H 129.601 -0.863691 4.1511 0
M  V30 1343 C 128.06 -1.68898 2.91505 0
M  V30 1344 O 128.59 -2.78811 2.89184 0
M  V30 1345 N 126.796 -1.51679 2.47875 0
M  V30 1346 H 126.343 -0.622666 2.49961 0
M  V30 1347 H 126.301 -2.31184 2.13076 0
M  V30 1348 N 130.073 -1.45103 0.615059 0
M  V30 1349 C 131.298 -2.07064 0.117988 0
M  V30 1350 C 131.723 -1.4554 -1.19163 0
M  V30 1351 O 131.081 -0.550855 -1.72729 0
M  V30 1352 C 131.129 -3.606 -0.000288387 0
M  V30 1353 O 130.233 -3.98847 -1.04856 0
M  V30 1354 H 129.574 -0.659467 0.0774581 0
M  V30 1355 H 132.104 -1.86236 0.847186 0
M  V30 1356 H 132.114 -4.07529 -0.196091 0
M  V30 1357 H 130.789 -4.04765 0.955932 0
M  V30 1358 H 129.366 -3.63577 -0.828619 0
M  V30 1359 N 131.551 -0.354651 -1.53558 0
M  V30 1360 C 132.776 0.242153 -2.05981 0
M  V30 1361 C 133.201 1.42553 -1.2272 0
M  V30 1362 O 132.559 1.79656 -0.243604 0
M  V30 1363 C 132.607 0.624367 -3.55154 0
M  V30 1364 O 131.711 1.72301 -3.74681 0
M  V30 1365 H 131.052 0.0378432 -0.662921 0
M  V30 1366 H 133.582 -0.512087 -1.98088 0
M  V30 1367 H 133.592 0.898433 -3.97985 0
M  V30 1368 H 132.267 -0.240989 -4.15201 0
M  V30 1369 H 130.844 1.44535 -3.4375 0
M  V30 1370 N 133.029 1.57378 -0.0835403 0
M  V30 1371 C 133.959 2.1641 0.87686 0
M  V30 1372 C 134.94 1.09429 1.30228 0
M  V30 1373 O 136.125 1.37516 1.37124 0
M  V30 1374 C 133.255 2.73517 2.14022 0
M  V30 1375 C 132.209 3.85769 1.85381 0
M  V30 1376 C 131.535 4.29529 3.18448 0
M  V30 1377 C 132.835 5.09486 1.14984 0
M  V30 1378 H 134.529 2.96914 0.385059 0
M  V30 1379 H 132.075 1.42823 0.18377 0
M  V30 1380 H 134.028 3.13463 2.81636 0
M  V30 1381 H 132.752 1.90252 2.65465 0
M  V30 1382 H 131.411 3.46345 1.20169 0
M  V30 1383 H 131.059 3.43169 3.67755 0
M  V30 1384 H 130.759 5.05204 3.00071 0
M  V30 1385 H 132.283 4.72099 3.8724 0
M  V30 1386 H 133.697 5.46674 1.72687 0
M  V30 1387 H 132.094 5.90515 1.06826 0
M  V30 1388 H 133.164 4.84724 0.130749 0
M  V30 1389 N 134.507 -0.190092 1.56449 0
M  V30 1390 C 135.747 -0.916414 1.82705 0
M  V30 1391 C 136.111 -1.80235 0.661763 0
M  V30 1392 O 137.312 -2.56484 0.80433 0
M  V30 1393 C 135.583 -1.70691 3.14005 0
M  V30 1394 S 137.142 -2.48457 3.61683 0
M  V30 1395 H 133.96 -0.307281 0.64117 0
M  V30 1396 H 136.562 -0.179433 1.94675 0
M  V30 1397 H 135.266 -1.04677 3.96826 0
M  V30 1398 H 134.797 -2.48562 3.04927 0
M  V30 1399 H 136.812 -3.72756 3.27517 0
M  V30 1400 N 135.985 -1.50799 -0.457987 0
M  V30 1401 C 137.396 -1.55152 -1.0385 0
M  V30 1402 C 137.747 -0.362719 -1.92818 0
M  V30 1403 O 136.872 0.522915 -2.09987 0
M  V30 1404 C 137.467 -2.81173 -1.89017 0
M  V30 1405 C 136.026 -2.88164 -2.42154 0
M  V30 1406 C 135.173 -2.49591 -1.20829 0
M  V30 1407 H 138.124 -1.56874 -0.240068 0
M  V30 1408 H 138.145 -2.63769 -2.74238 0
M  V30 1409 H 137.657 -3.67677 -1.24238 0
M  V30 1410 H 135.758 -2.06042 -3.10447 0
M  V30 1411 H 135.871 -3.91356 -2.76364 0
M  V30 1412 H 134.235 -2.02322 -1.54719 0
M  V30 1413 H 135.018 -3.38418 -0.576927 0
M  V30 1414 N 137.463 0.71206 -1.40597 0
M  V30 1415 C 138.712 1.46754 -1.38369 0
M  V30 1416 C 139.025 1.95598 0.0097839 0
M  V30 1417 O 140.231 2.71059 0.154677 0
M  V30 1418 C 138.687 2.65289 -2.43207 0
M  V30 1419 C 138.295 2.23301 -3.88382 0
M  V30 1420 C 140.039 3.43008 -2.50091 0
M  V30 1421 C 137.946 3.38696 -4.84808 0
M  V30 1422 H 136.876 0.55118 -0.514506 0
M  V30 1423 H 139.527 0.774616 -1.66349 0
M  V30 1424 H 137.909 3.36769 -2.08332 0
M  V30 1425 H 139.083 1.59218 -4.32419 0
M  V30 1426 H 137.398 1.58618 -3.85006 0
M  V30 1427 H 139.995 4.28881 -3.1932 0
M  V30 1428 H 140.338 3.87065 -1.53253 0
M  V30 1429 H 140.871 2.78574 -2.83974 0
M  V30 1430 H 137.61 2.99668 -5.82992 0
M  V30 1431 H 137.13 4.01683 -4.45433 0
M  V30 1432 H 138.809 4.04712 -5.04794 0
M  V30 1433 N 138.941 1.26152 0.944643 0
M  V30 1434 C 140.357 1.03189 1.21754 0
M  V30 1435 C 140.557 -0.245112 2.00004 0
M  V30 1436 O 139.613 -0.955176 2.33736 0
M  V30 1437 C 140.926 2.26119 1.98219 0
M  V30 1438 C 142.474 2.30984 2.11224 0
M  V30 1439 C 142.949 3.53597 2.91089 0
M  V30 1440 N 144.44 3.54053 2.98664 0
M  V30 1441 C 145.175 4.45593 3.60881 0
M  V30 1442 N 144.671 5.47416 4.24626 0
M  V30 1443 N 146.464 4.33252 3.58119 0
M  V30 1444 H 138.615 2.08177 0.421437 0
M  V30 1445 H 140.878 0.914723 0.248969 0
M  V30 1446 H 140.584 3.18984 1.48128 0
M  V30 1447 H 140.458 2.3009 2.98895 0
M  V30 1448 H 142.845 1.38635 2.60508 0
M  V30 1449 H 142.926 2.31026 1.09821 0
M  V30 1450 H 142.57 4.46273 2.42493 0
M  V30 1451 H 142.5 3.50802 3.92741 0
M  V30 1452 H 144.991 2.80403 2.53343 0
M  V30 1453 H 145.304 6.13459 4.69987 0
M  V30 1454 H 143.649 5.51278 4.23223 0
M  V30 1455 H 146.84 3.52924 3.0751 0
M  V30 1456 H 147.013 5.04786 4.06319 0
M  V30 1457 N 140.419 -1.14872 1.07899 0
M  V30 1458 C 141.667 -1.85422 0.803941 0
M  V30 1459 C 141.988 -1.83051 -0.67211 0
M  V30 1460 O 141.258 -1.27532 -1.48703 0
M  V30 1461 H 139.838 -0.686537 0.294408 0
M  V30 1462 H 142.5 -1.39226 1.3639 0
M  V30 1463 H 141.596 -2.90399 1.14346 0
M  V30 1464 N 141.898 -0.863906 -1.31812 0
M  V30 1465 C 143.144 -0.481841 -1.9761 0
M  V30 1466 C 143.499 0.954048 -1.6708 0
M  V30 1467 O 142.792 1.66182 -0.953624 0
M  V30 1468 C 142.986 -0.668547 -3.51091 0
M  V30 1469 C 142.815 -2.12103 -3.96538 0
M  V30 1470 C 141.585 -2.76141 -4.23171 0
M  V30 1471 C 143.783 -3.09265 -4.10925 0
M  V30 1472 N 141.765 -4.12205 -4.54929 0
M  V30 1473 C 143.136 -4.30341 -4.46326 0
M  V30 1474 C 145.191 -3.05337 -3.93286 0
M  V30 1475 C 143.894 -5.48 -4.65928 0
M  V30 1476 C 145.92 -4.22248 -4.14078 0
M  V30 1477 C 145.282 -5.42085 -4.49804 0
M  V30 1478 H 141.381 -0.225238 -0.74886 0
M  V30 1479 H 143.965 -1.11723 -1.59455 0
M  V30 1480 H 142.136 -0.0627898 -3.88349 0
M  V30 1481 H 143.868 -0.255467 -4.03893 0
M  V30 1482 H 140.623 -2.27125 -4.15585 0
M  V30 1483 H 141.047 -4.82416 -4.74978 0
M  V30 1484 H 145.689 -2.138 -3.64759 0
M  V30 1485 H 143.407 -6.40059 -4.93305 0
M  V30 1486 H 146.993 -4.20654 -4.01922 0
M  V30 1487 H 145.873 -6.31044 -4.65567 0
M  V30 1488 N 143.376 1.44774 -0.622745 0
M  V30 1489 C 144.339 2.29069 0.0774015 0
M  V30 1490 C 145.339 1.4059 0.780461 0
M  V30 1491 O 146.529 1.62551 0.626322 0
M  V30 1492 C 143.661 3.21974 1.12006 0
M  V30 1493 H 144.854 2.92459 -0.663901 0
M  V30 1494 H 142.407 1.51548 -0.382486 0
M  V30 1495 H 143.142 2.63417 1.89162 0
M  V30 1496 H 142.927 3.87168 0.619951 0
M  V30 1497 H 144.417 3.85318 1.60995 0
M  V30 1498 N 144.854 0.36279 1.53368 0
M  V30 1499 C 146.103 -0.22888 2.00397 0
M  V30 1500 C 146.416 -1.50096 1.25421 0
M  V30 1501 O 147.622 -2.17106 1.63025 0
M  V30 1502 C 146.078 -0.458417 3.56969 0
M  V30 1503 C 145.686 0.798877 4.4082 0
M  V30 1504 C 147.43 -1.00789 4.12361 0
M  V30 1505 C 145.337 0.539078 5.88938 0
M  V30 1506 H 144.267 -0.089305 0.748693 0
M  V30 1507 H 146.918 0.481099 1.77081 0
M  V30 1508 H 145.3 -1.22959 3.76427 0
M  V30 1509 H 146.474 1.57262 4.33134 0
M  V30 1510 H 144.789 1.27137 3.96516 0
M  V30 1511 H 147.386 -1.21754 5.20653 0
M  V30 1512 H 147.729 -1.9692 3.66781 0
M  V30 1513 H 148.262 -0.296961 3.9669 0
M  V30 1514 H 145.001 1.47064 6.3879 0
M  V30 1515 H 144.521 -0.196222 5.99479 0
M  V30 1516 H 146.2 0.163542 6.46793 0
M  V30 1517 N 146.332 -1.57332 0.0918853 0
M  V30 1518 C 147.562 -1.98286 -0.580205 0
M  V30 1519 C 147.97 -0.969713 -1.6246 0
M  V30 1520 O 147.313 0.0493501 -1.83634 0
M  V30 1521 C 147.375 -3.35603 -1.28882 0
M  V30 1522 C 147.039 -4.55285 -0.395559 0
M  V30 1523 C 148.036 -5.18687 0.355002 0
M  V30 1524 C 145.721 -5.01314 -0.314556 0
M  V30 1525 C 147.715 -6.26484 1.17458 0
M  V30 1526 C 145.402 -6.08979 0.508677 0
M  V30 1527 C 146.4 -6.71429 1.2519 0
M  V30 1528 O 146.088 -7.77018 2.06151 0
M  V30 1529 H 145.82 -0.656678 -0.160466 0
M  V30 1530 H 148.374 -2.04721 0.16688 0
M  V30 1531 H 146.604 -3.25842 -2.08241 0
M  V30 1532 H 148.293 -3.61026 -1.85512 0
M  V30 1533 H 149.059 -4.84058 0.302134 0
M  V30 1534 H 144.938 -4.5247 -0.882697 0
M  V30 1535 H 148.482 -6.75159 1.75518 0
M  V30 1536 H 144.379 -6.4304 0.563037 0
M  V30 1537 H 145.147 -7.93991 1.98799 0
M  V30 1538 N 147.81 0.181792 -1.56548 0
M  V30 1539 C 149.035 0.920019 -1.85877 0
M  V30 1540 C 149.46 1.75494 -0.677021 0
M  V30 1541 O 148.818 1.77399 0.374056 0
M  V30 1542 C 148.866 1.78112 -3.13542 0
M  V30 1543 O 147.97 2.88152 -2.95029 0
M  V30 1544 H 147.311 0.258334 -0.611686 0
M  V30 1545 H 149.841 0.183092 -2.03779 0
M  V30 1546 H 149.851 2.18314 -3.44678 0
M  V30 1547 H 148.526 1.16777 -3.99169 0
M  V30 1548 H 147.103 2.51609 -2.75222 0
M  V30 1549 N 149.288 1.51039 0.449983 0
M  V30 1550 C 150.235 1.71439 1.54523 0
M  V30 1551 C 151.205 0.555871 1.56522 0
M  V30 1552 O 152.39 0.788871 1.73728 0
M  V30 1553 C 149.53 1.83384 2.92343 0
M  V30 1554 C 148.643 3.10873 2.9997 0
M  V30 1555 C 147.778 3.13488 4.28834 0
M  V30 1556 C 146.817 4.35343 4.30282 0
M  V30 1557 N 145.954 4.35579 5.5065 0
M  V30 1558 H 150.794 2.64934 1.36433 0
M  V30 1559 H 148.331 1.31312 0.662982 0
M  V30 1560 H 150.289 1.88291 3.72293 0
M  V30 1561 H 148.919 0.933086 3.0902 0
M  V30 1562 H 147.971 3.15336 2.12761 0
M  V30 1563 H 149.283 4.00814 2.96901 0
M  V30 1564 H 148.437 3.17241 5.17149 0
M  V30 1565 H 147.176 2.21414 4.34543 0
M  V30 1566 H 146.181 4.3178 3.40362 0
M  V30 1567 H 147.406 5.28668 4.26248 0
M  V30 1568 H 145.352 3.46369 5.57104 0
M  V30 1569 H 145.269 5.19313 5.49409 0
M  V30 1570 H 146.537 4.43507 6.41032 0
M  V30 1571 N 150.766 -0.704594 1.40972 0
M  V30 1572 C 152.043 -1.45847 1.30338 0
M  V30 1573 C 152.423 -2.10973 -0.0732344 0
M  V30 1574 O 151.771 -2.00997 -1.08685 0
M  V30 1575 C 151.981 -2.48525 2.45023 0
M  V30 1576 C 153.329 -3.1404 2.8577 0
M  V30 1577 O 154.353 -2.58848 2.44696 0
M  V30 1578 O 153.212 -4.13981 3.56766 0
M  V30 1579 H 150.306 -0.649092 0.512454 0
M  V30 1580 H 152.852 -0.735836 1.52917 0
M  V30 1581 H 151.624 -1.98994 3.36923 0
M  V30 1582 H 151.247 -3.2831 2.24272 0
M  V30 1583 N 152.244 -1.26651 -0.937939 0
M  V30 1584 C 153.192 -1.08308 -2.05845 0
M  V30 1585 C 154.186 -0.0090757 -1.69398 0
M  V30 1586 O 155.392 -0.166007 -1.79233 0
M  V30 1587 H 151.767 -0.333416 -0.674046 0
M  V30 1588 H 153.738 -2.03261 -2.18467 0
M  V30 1589 C 152.487 -0.736229 -3.39816 0
M  V30 1590 H 151.81 -1.55453 -3.6834 0
M  V30 1591 H 153.25 -0.64769 -4.19024 0
M  V30 1592 C 151.709 0.558824 -3.32233 0
M  V30 1593 O 152.239 1.59621 -3.68624 0
M  V30 1594 N 150.445 0.550657 -2.85335 0
M  V30 1595 H 149.992 -0.293943 -2.55917 0
M  V30 1596 H 149.95 1.41726 -2.80644 0
M  V30 1597 N 153.722 1.14298 -1.08507 0
M  V30 1598 C 154.947 1.8976 -0.837001 0
M  V30 1599 C 155.372 1.78097 0.605228 0
M  V30 1600 O 154.73 1.12188 1.4242 0
M  V30 1601 C 154.778 3.37685 -1.26495 0
M  V30 1602 O 153.882 4.10281 -0.417514 0
M  V30 1603 H 153.223 0.590365 -0.303917 0
M  V30 1604 H 155.753 1.44672 -1.44676 0
M  V30 1605 H 155.763 3.88501 -1.24625 0
M  V30 1606 H 154.438 3.45492 -2.31534 0
M  V30 1607 H 153.015 3.69536 -0.499722 0
M  V30 1608 N 155.201 0.870884 1.31352 0
M  V30 1609 C 156.45 0.478408 1.95944 0
M  V30 1610 C 156.763 -0.974493 1.69597 0
M  V30 1611 O 157.969 -1.47316 2.28058 0
M  V30 1612 C 156.425 0.804609 3.50791 0
M  V30 1613 C 156.033 2.27433 3.85977 0
M  V30 1614 C 157.777 0.480648 4.2177 0
M  V30 1615 C 155.684 2.5429 5.33939 0
M  V30 1616 H 154.614 0.175175 0.733369 0
M  V30 1617 H 157.265 1.06391 1.4951 0
M  V30 1618 H 155.647 0.148347 3.95722 0
M  V30 1619 H 156.821 2.97373 3.52002 0
M  V30 1620 H 155.136 2.56442 3.28065 0
M  V30 1621 H 157.733 0.658519 5.30629 0
M  V30 1622 H 158.076 -0.578979 4.12254 0
M  V30 1623 H 158.609 1.09349 3.82476 0
M  V30 1624 H 155.348 3.58939 5.48491 0
M  V30 1625 H 154.868 1.88945 5.69263 0
M  V30 1626 H 156.547 2.39066 6.01212 0
M  V30 1627 N 156.679 -1.44442 0.630414 0
M  V30 1628 C 158.095 -1.56832 0.295973 0
M  V30 1629 C 158.295 -1.61806 -1.20088 0
M  V30 1630 O 157.351 -1.5607 -1.9849 0
M  V30 1631 C 158.664 -2.84031 0.987264 0
M  V30 1632 C 160.212 -2.97742 0.96534 0
M  V30 1633 C 160.687 -4.27743 1.63708 0
M  V30 1634 N 162.178 -4.34555 1.60364 0
M  V30 1635 C 162.913 -5.33862 2.09234 0
M  V30 1636 N 162.409 -6.39578 2.66292 0
M  V30 1637 N 164.202 -5.25366 1.99867 0
M  V30 1638 H 156.353 -1.39457 1.60205 0
M  V30 1639 H 158.616 -0.668237 0.672431 0
M  V30 1640 H 158.322 -2.86338 2.04215 0
M  V30 1641 H 158.196 -3.73534 0.524588 0
M  V30 1642 H 160.583 -2.94989 -0.0810639 0
M  V30 1643 H 160.664 -2.09589 1.4665 0
M  V30 1644 H 160.308 -4.31255 2.68293 0
M  V30 1645 H 160.238 -5.14752 1.11076 0
M  V30 1646 H 162.729 -3.58772 1.18705 0
M  V30 1647 H 163.042 -7.11637 3.01317 0
M  V30 1648 H 161.387 -6.40265 2.70343 0
M  V30 1649 H 164.578 -4.41688 1.55013 0
M  V30 1650 H 164.751 -6.02606 2.38265 0
M  V30 1651 N 158.157 -0.370918 -1.53173 0
M  V30 1652 C 159.406 0.218249 -2.00516 0
M  V30 1653 C 159.719 1.49429 -1.26215 0
M  V30 1654 O 160.925 2.16239 -1.64174 0
M  V30 1655 C 159.381 0.43948 -3.57207 0
M  V30 1656 C 158.989 -0.822244 -4.4039 0
M  V30 1657 C 160.733 0.986012 -4.1289 0
M  V30 1658 C 158.64 -0.570304 -5.88644 0
M  V30 1659 H 157.57 0.0853333 -0.749156 0
M  V30 1660 H 160.221 -0.490483 -1.76823 0
M  V30 1661 H 158.603 1.20961 -3.77074 0
M  V30 1662 H 159.777 -1.59557 -4.32294 0
M  V30 1663 H 158.092 -1.29238 -3.95836 0
M  V30 1664 H 160.689 1.18991 -5.21292 0
M  V30 1665 H 161.032 1.94972 -3.6782 0
M  V30 1666 H 161.565 0.27592 -3.96842 0
M  V30 1667 H 158.304 -1.50449 -6.38001 0
M  V30 1668 H 157.824 0.164427 -5.99575 0
M  V30 1669 H 159.503 -0.19784 -6.46697 0
M  V30 1670 N 159.635 1.57281 -0.100228 0
M  V30 1671 C 160.883 1.94153 0.561157 0
M  V30 1672 C 161.204 0.983157 1.68401 0
M  V30 1673 O 160.474 0.0361132 1.95867 0
M  V30 1674 H 159.054 0.716791 0.210283 0
M  V30 1675 H 161.716 1.94202 -0.164765 0
M  V30 1676 H 160.812 2.96709 0.968008 0
M  V30 1677 N 161.113 -0.173488 1.56642 0
M  V30 1678 C 162.338 -0.910149 1.86363 0
M  V30 1679 C 162.763 -1.75132 0.686318 0
M  V30 1680 O 162.121 -1.77595 -0.364643 0
M  V30 1681 C 162.169 -1.76447 3.14482 0
M  V30 1682 O 161.273 -2.86584 2.96553 0
M  V30 1683 H 160.614 -0.255086 0.613047 0
M  V30 1684 H 163.144 -0.172283 2.03873 0
M  V30 1685 H 163.154 -2.16483 3.45831 0
M  V30 1686 H 161.829 -1.14658 3.99783 0
M  V30 1687 H 160.406 -2.50146 2.76553 0
M  V30 1688 N 162.591 -1.51276 -0.441967 0
M  V30 1689 C 163.538 -1.72256 -1.53612 0
M  V30 1690 C 164.508 -0.564164 -1.56225 0
M  V30 1691 O 165.693 -0.798074 -1.73307 0
M  V30 1692 C 162.833 -1.84932 -2.91366 0
M  V30 1693 C 161.946 -3.12459 -2.98317 0
M  V30 1694 C 161.081 -3.15758 -4.27166 0
M  V30 1695 C 160.12 -4.37619 -4.27967 0
M  V30 1696 N 159.257 -4.38493 -5.48333 0
M  V30 1697 H 164.097 -2.65654 -1.35026 0
M  V30 1698 H 161.634 -1.31662 -0.656009 0
M  V30 1699 H 163.592 -1.90263 -3.7129 0
M  V30 1700 H 162.222 -0.949461 -3.08521 0
M  V30 1701 H 161.274 -3.1646 -2.11086 0
M  V30 1702 H 162.586 -4.02382 -2.94771 0
M  V30 1703 H 161.74 -3.19979 -5.15459 0
M  V30 1704 H 160.479 -2.23715 -4.33362 0
M  V30 1705 H 159.484 -4.33579 -3.38067 0
M  V30 1706 H 160.709 -5.30921 -4.23438 0
M  V30 1707 H 158.655 -3.49318 -5.55259 0
M  V30 1708 H 158.572 -5.22219 -5.46647 0
M  V30 1709 H 159.84 -4.469 -6.38671 0
M  V30 1710 N 164.069 0.697108 -1.41344 0
M  V30 1711 C 165.317 1.45426 -1.40341 0
M  V30 1712 C 165.638 1.94996 -0.0128787 0
M  V30 1713 O 164.908 1.71599 0.945027 0
M  V30 1714 H 163.488 0.539594 -0.516573 0
M  V30 1715 H 166.15 0.825201 -1.76569 0
M  V30 1716 H 165.246 2.31817 -2.08967 0
M  V30 1717 N 165.547 1.27147 0.931209 0
M  V30 1718 C 166.824 1.0401 1.65654 0
M  V30 1719 C 167.204 -0.426297 2.06751 0
M  V30 1720 O 166.552 -1.40879 1.79904 0
M  V30 1721 C 166.762 1.99834 2.86125 0
M  V30 1722 C 168.11 2.29007 3.57549 0
M  V30 1723 O 169.134 1.97779 2.96246 0
M  V30 1724 O 167.993 2.82222 4.67989 0
M  V30 1725 H 165.087 0.396239 0.725895 0
M  V30 1726 H 167.633 1.38397 0.982056 0
M  V30 1727 H 166.405 2.98744 2.52721 0
M  V30 1728 H 166.028 1.65987 3.61295 0
M  V30 1729 N 167.025 -1.13721 1.09112 0
M  V30 1730 C 168.271 -1.85198 0.826414 0
M  V30 1731 C 168.604 -1.83129 -0.646319 0
M  V30 1732 O 167.879 -1.2671 -1.47563 0
M  V30 1733 C 168.162 -3.33507 1.35812 0
M  V30 1734 C 168.015 -3.44108 2.89672 0
M  V30 1735 C 169.334 -4.28838 0.989256 0
M  V30 1736 H 166.453 -0.67243 0.301675 0
M  V30 1737 H 169.095 -1.33499 1.35197 0
M  V30 1738 H 167.245 -3.77666 0.911082 0
M  V30 1739 H 168.917 -3.08684 3.428 0
M  V30 1740 H 167.16 -2.85087 3.26967 0
M  V30 1741 H 167.831 -4.48388 3.21951 0
M  V30 1742 H 170.307 -3.92734 1.37475 0
M  V30 1743 H 169.183 -5.31051 1.38838 0
M  V30 1744 H 169.444 -4.4198 -0.102924 0
M  V30 1745 N 168.503 -0.877838 -1.30888 0
M  V30 1746 C 169.75 -0.492696 -1.96415 0
M  V30 1747 C 170.078 0.956671 -1.69346 0
M  V30 1748 O 169.333 1.68993 -0.986913 0
M  V30 1749 C 169.632 -0.705748 -3.50363 0
M  V30 1750 C 169.298 -2.1291 -3.97467 0
M  V30 1751 C 167.96 -2.51834 -4.1004 0
M  V30 1752 C 170.312 -3.05702 -4.22132 0
M  V30 1753 C 167.64 -3.82775 -4.44635 0
M  V30 1754 C 169.992 -4.36166 -4.58194 0
M  V30 1755 C 168.656 -4.74993 -4.68975 0
M  V30 1756 H 167.926 -0.18029 -0.718733 0
M  V30 1757 H 170.573 -1.11233 -1.55883 0
M  V30 1758 H 168.878 -0.00303058 -3.918 0
M  V30 1759 H 170.575 -0.387456 -3.99124 0
M  V30 1760 H 167.165 -1.81694 -3.88182 0
M  V30 1761 H 171.349 -2.76853 -4.11906 0
M  V30 1762 H 166.605 -4.12609 -4.51181 0
M  V30 1763 H 170.779 -5.08111 -4.76231 0
M  V30 1764 H 168.406 -5.76495 -4.95537 0
M  V30 1765 N 169.982 1.44106 -0.638065 0
M  V30 1766 C 171.228 2.02277 -0.145546 0
M  V30 1767 C 171.561 1.50125 1.23191 0
M  V30 1768 O 170.836 0.688133 1.8192 0
M  V30 1769 C 171.119 3.59829 -0.139791 0
M  V30 1770 C 170.972 4.22247 -1.55008 0
M  V30 1771 C 172.291 4.36873 0.531966 0
M  V30 1772 H 169.41 0.734992 -0.0543632 0
M  V30 1773 H 172.052 1.71592 -0.815863 0
M  V30 1774 H 170.202 3.86102 0.431007 0
M  V30 1775 H 171.874 4.07057 -2.1703 0
M  V30 1776 H 170.117 3.79476 -2.10191 0
M  V30 1777 H 170.788 5.31284 -1.49804 0
M  V30 1778 H 173.264 4.16074 0.0464781 0
M  V30 1779 H 172.14 5.4657 0.505206 0
M  V30 1780 H 172.401 4.11995 1.60352 0
M  V30 1781 N 171.46 0.379036 1.52974 0
M  V30 1782 C 172.709 -0.207612 2.00629 0
M  V30 1783 C 173.022 -1.48758 1.27006 0
M  V30 1784 O 174.228 -2.15365 1.65318 0
M  V30 1785 C 172.684 -0.42053 3.57435 0
M  V30 1786 C 172.292 0.845587 4.39948 0
M  V30 1787 C 174.036 -0.964102 4.13407 0
M  V30 1788 C 171.943 0.601513 5.88333 0
M  V30 1789 H 170.873 -0.0813591 0.749598 0
M  V30 1790 H 173.524 0.499853 1.76561 0
M  V30 1791 H 171.906 -1.18959 3.7771 0
M  V30 1792 H 173.08 1.61848 4.31442 0
M  V30 1793 H 171.395 1.31336 3.95145 0
M  V30 1794 H 173.992 -1.16225 5.21916 0
M  V30 1795 H 174.335 -1.93019 3.68849 0
M  V30 1796 H 174.868 -0.25487 3.96983 0
M  V30 1797 H 171.607 1.53831 6.37194 0
M  V30 1798 H 171.127 -0.132628 5.99653 0
M  V30 1799 H 172.806 0.232134 6.46583 0
M  V30 1800 N 172.938 -1.57226 0.108567 0
M  V30 1801 C 174.354 -1.5766 -0.248058 0
M  V30 1802 C 174.554 -1.12063 -1.67464 0
M  V30 1803 O 173.61 -0.803236 -2.39383 0
M  V30 1804 C 174.923 -3.0069 -0.0242287 0
M  V30 1805 C 176.471 -3.12868 -0.0909372 0
M  V30 1806 C 176.946 -4.57879 0.105067 0
M  V30 1807 N 178.437 -4.63172 0.0506846 0
M  V30 1808 C 179.172 -5.73126 0.177396 0
M  V30 1809 N 178.668 -6.91866 0.359696 0
M  V30 1810 N 180.461 -5.61977 0.117709 0
M  V30 1811 H 172.612 -1.85169 1.04049 0
M  V30 1812 H 174.875 -0.85529 0.40888 0
M  V30 1813 H 174.581 -3.38299 0.961604 0
M  V30 1814 H 174.455 -3.6945 -0.76068 0
M  V30 1815 H 176.842 -2.75124 -1.06729 0
M  V30 1816 H 176.923 -2.46672 0.677225 0
M  V30 1817 H 176.567 -4.96321 1.07834 0
M  V30 1818 H 176.497 -5.22153 -0.682954 0
M  V30 1819 H 178.988 -3.778 -0.0871266 0
M  V30 1820 H 179.301 -7.71503 0.447529 0
M  V30 1821 H 177.646 -6.93874 0.395536 0
M  V30 1822 H 180.837 -4.68094 -0.0236741 0
M  V30 1823 H 181.01 -6.47627 0.219905 0
M  V30 1824 N 174.416 0.165178 -1.56732 0
M  V30 1825 C 175.326 1.22423 -2.00125 0
M  V30 1826 C 176.342 1.48084 -0.913619 0
M  V30 1827 O 177.518 1.60112 -1.22172 0
M  V30 1828 C 174.583 2.54197 -2.35764 0
M  V30 1829 C 173.644 2.36343 -3.58386 0
M  V30 1830 C 172.877 3.61834 -3.92316 0
M  V30 1831 O 173.1 4.67267 -3.27135 0
M  V30 1832 O 172.034 3.55579 -4.85641 0
M  V30 1833 H 175.86 0.885886 -2.90492 0
M  V30 1834 H 173.445 0.372518 -1.44681 0
M  V30 1835 H 175.327 3.3192 -2.59629 0
M  V30 1836 H 174.002 2.87598 -1.48557 0
M  V30 1837 H 172.909 1.56632 -3.39731 0
M  V30 1838 H 174.242 2.07865 -4.46154 0
M  V30 1839 N 175.894 1.51508 0.433938 0
M  V30 1840 C 177.305 1.56784 1.01369 0
M  V30 1841 C 177.656 0.393349 1.92217 0
M  V30 1842 O 176.781 -0.489441 2.10792 0
M  V30 1843 C 177.376 2.84144 1.8452 0
M  V30 1844 C 175.935 2.9198 2.37539 0
M  V30 1845 C 175.082 2.51482 1.16843 0
M  V30 1846 H 178.033 1.57236 0.215081 0
M  V30 1847 H 178.054 2.68098 2.70007 0
M  V30 1848 H 177.566 3.69607 1.18373 0
M  V30 1849 H 175.667 2.10955 3.0713 0
M  V30 1850 H 175.78 3.95704 2.70103 0
M  V30 1851 H 174.144 2.04758 1.51481 0
M  V30 1852 H 174.927 3.39293 0.523015 0
M  V30 1853 N 177.372 -0.689602 1.41712 0
M  V30 1854 C 178.619 -1.44966 1.4139 0
M  V30 1855 C 178.947 -1.94484 0.025105 0
M  V30 1856 O 178.202 -1.70307 -0.964048 0
M  V30 1857 C 178.501 -2.67298 2.37247 0
M  V30 1858 C 178.167 -2.36405 3.83958 0
M  V30 1859 C 176.829 -2.27691 4.23923 0
M  V30 1860 C 179.181 -2.11043 4.76561 0
M  V30 1861 C 176.509 -1.91719 5.54492 0
M  V30 1862 C 178.861 -1.76578 6.07456 0
M  V30 1863 C 177.525 -1.66363 6.46436 0
M  V30 1864 H 176.795 -0.53047 0.517381 0
M  V30 1865 H 179.442 -0.787655 1.74552 0
M  V30 1866 H 177.747 -3.38461 1.9736 0
M  V30 1867 H 179.444 -3.25452 2.34269 0
M  V30 1868 H 176.034 -2.44085 3.52308 0
M  V30 1869 H 180.218 -2.16717 4.46483 0
M  V30 1870 H 175.474 -1.82367 5.83568 0
M  V30 1871 H 179.648 -1.55974 6.78708 0
M  V30 1872 H 177.275 -1.38258 7.47522 0
M  V30 1873 N 178.85 -1.27639 -0.924453 0
M  V30 1874 C 180.099 -1.13549 -1.66702 0
M  V30 1875 C 180.412 0.317487 -1.93006 0
M  V30 1876 O 181.618 0.579333 -2.65247 0
M  V30 1877 C 180.074 -1.98426 -3.00259 0
M  V30 1878 C 179.682 -3.484 -2.81641 0
M  V30 1879 C 181.426 -1.92993 -3.78092 0
M  V30 1880 C 179.333 -4.25464 -4.10773 0
M  V30 1881 H 178.263 -0.421351 -0.625283 0
M  V30 1882 H 180.914 -1.52085 -1.02676 0
M  V30 1883 H 179.296 -1.52736 -3.6536 0
M  V30 1884 H 180.47 -4.01973 -2.25287 0
M  V30 1885 H 178.785 -3.55245 -2.17232 0
M  V30 1886 H 181.382 -2.47844 -4.7379 0
M  V30 1887 H 181.725 -0.904281 -4.0636 0
M  V30 1888 H 182.258 -2.36595 -3.19793 0
M  V30 1889 H 178.997 -5.28566 -3.87683 0
M  V30 1890 H 178.517 -3.76667 -4.66779 0
M  V30 1891 H 180.196 -4.34812 -4.79111 0
M  V30 1892 N 180.328 1.1314 -1.09713 0
M  V30 1893 C 181.553 1.88862 -0.857081 0
M  V30 1894 C 181.978 1.78729 0.586304 0
M  V30 1895 O 181.336 1.13692 1.41222 0
M  V30 1896 C 181.384 3.36325 -1.30069 0
M  V30 1897 O 180.488 4.09815 -0.461007 0
M  V30 1898 H 179.829 0.587108 -0.310162 0
M  V30 1899 H 182.359 1.43129 -1.46203 0
M  V30 1900 H 182.369 3.87157 -1.28738 0
M  V30 1901 H 181.044 3.43017 -2.35185 0
M  V30 1902 H 179.621 3.68986 -0.538888 0
M  V30 1903 N 181.806 0.884767 1.30421 0
M  V30 1904 C 183.046 0.509806 1.9794 0
M  V30 1905 C 183.41 -0.923736 1.68319 0
M  V30 1906 O 184.611 -1.40481 2.29169 0
M  V30 1907 C 182.882 0.776732 3.48858 0
M  V30 1908 S 184.441 0.503843 4.35898 0
M  V30 1909 H 181.259 0.189699 0.685227 0
M  V30 1910 H 183.861 1.14399 1.58535 0
M  V30 1911 H 182.565 1.81857 3.67908 0
M  V30 1912 H 182.096 0.1301 3.93185 0
M  V30 1913 H 184.111 -0.657625 4.91823 0
M  V30 1914 N 183.284 -1.43765 0.645699 0
M  V30 1915 C 184.509 -2.06767 0.161883 0
M  V30 1916 C 184.934 -1.48034 -1.16049 0
M  V30 1917 O 184.292 -0.587369 -1.71522 0
M  V30 1918 C 184.34 -3.60519 0.0762003 0
M  V30 1919 O 183.444 -4.00982 -0.963721 0
M  V30 1920 H 182.785 -0.657675 0.091429 0
M  V30 1921 H 185.315 -1.84397 0.886499 0
M  V30 1922 H 185.325 -4.07853 -0.109604 0
M  V30 1923 H 184 -4.02646 1.04157 0
M  V30 1924 H 182.577 -3.65253 -0.751312 0
M  V30 1925 N 184.763 -0.387143 -1.52771 0
M  V30 1926 C 185.713 0.465942 -2.23188 0
M  V30 1927 C 186.697 1.03138 -1.23496 0
M  V30 1928 O 187.889 0.957845 -1.48843 0
M  V30 1929 C 185.018 1.59384 -3.04059 0
M  V30 1930 C 184.104 1.04024 -4.11144 0
M  V30 1931 N 184.495 0.211416 -5.05358 0
M  V30 1932 C 182.793 1.31295 -4.26237 0
M  V30 1933 C 183.494 -0.0941698 -5.81624 0
M  V30 1934 N 182.47 0.509207 -5.4121 0
M  V30 1935 H 186.272 -0.173856 -2.93385 0
M  V30 1936 H 183.786 -0.19633 -1.61209 0
M  V30 1937 H 185.783 2.21738 -3.53041 0
M  V30 1938 H 184.443 2.23648 -2.35397 0
M  V30 1939 H 185.454 -0.151151 -5.17679 0
M  V30 1940 H 182.131 1.95679 -3.68803 0
M  V30 1941 H 183.521 -0.765572 -6.67524 0
M  V30 1942 N 186.241 1.57166 -0.116904 0
M  V30 1943 C 187.171 2.18222 0.830759 0
M  V30 1944 C 188.152 1.12167 1.27877 0
M  V30 1945 O 189.337 1.40394 1.34176 0
M  V30 1946 C 186.467 2.77996 2.08172 0
M  V30 1947 C 185.421 3.89614 1.77157 0
M  V30 1948 C 184.747 4.36187 3.09265 0
M  V30 1949 C 186.047 5.1181 1.04151 0
M  V30 1950 H 187.741 2.97664 0.321992 0
M  V30 1951 H 185.287 1.4318 0.153434 0
M  V30 1952 H 187.24 3.19366 2.74924 0
M  V30 1953 H 185.964 1.9584 2.6137 0
M  V30 1954 H 184.623 3.48816 1.12796 0
M  V30 1955 H 184.271 3.50893 3.60393 0
M  V30 1956 H 183.971 5.11455 2.89288 0
M  V30 1957 H 185.495 4.80207 3.77139 0
M  V30 1958 H 186.909 5.50214 1.61052 0
M  V30 1959 H 185.306 5.92648 0.942762 0
M  V30 1960 H 186.376 4.84892 0.0279022 0
M  V30 1961 N 187.719 -0.156864 1.56817 0
M  V30 1962 C 188.629 -1.2136 2.00771 0
M  V30 1963 C 189.645 -1.47598 0.921459 0
M  V30 1964 O 190.821 -1.59462 1.2302 0
M  V30 1965 C 187.886 -2.52943 2.37109 0
M  V30 1966 C 186.947 -2.34439 3.59634 0
M  V30 1967 C 186.18 -3.59748 3.94229 0
M  V30 1968 O 186.403 -4.65526 3.29609 0
M  V30 1969 O 185.337 -3.52998 4.8752 0
M  V30 1970 H 189.163 -0.870468 2.90958 0
M  V30 1971 H 186.748 -0.36484 1.44877 0
M  V30 1972 H 188.63 -3.30538 2.61386 0
M  V30 1973 H 187.305 -2.86806 1.5008 0
M  V30 1974 H 186.212 -1.54828 3.40557 0
M  V30 1975 H 187.545 -2.05496 4.4725 0
M  V30 1976 N 189.197 -1.51736 -0.425897 0
M  V30 1977 C 190.437 -1.66636 -1.18371 0
M  V30 1978 C 190.801 -0.379854 -1.88205 0
M  V30 1979 O 192.002 -0.404758 -2.65735 0
M  V30 1980 C 190.273 -2.84382 -2.16476 0
M  V30 1981 S 191.832 -3.19673 -3.0059 0
M  V30 1982 H 188.65 -0.586957 -0.40125 0
M  V30 1983 H 191.252 -1.89679 -0.473518 0
M  V30 1984 H 189.956 -3.76281 -1.63831 0
M  V30 1985 H 189.487 -2.63562 -2.92059 0
M  V30 1986 H 191.502 -2.66994 -4.18245 0
M  V30 1987 N 190.675 0.682077 -1.42076 0
M  V30 1988 C 192.091 0.994324 -1.24841 0
M  V30 1989 C 192.291 2.0096 -0.147389 0
M  V30 1990 O 191.347 2.47822 0.483782 0
M  V30 1991 C 192.66 1.50607 -2.60265 0
M  V30 1992 C 194.208 1.62421 -2.6756 0
M  V30 1993 C 194.683 2.16994 -4.03333 0
M  V30 1994 N 196.174 2.24337 -4.0525 0
M  V30 1995 C 196.909 2.67621 -5.07116 0
M  V30 1996 N 196.405 3.1041 -6.19368 0
M  V30 1997 N 198.198 2.67305 -4.94474 0
M  V30 1998 H 190.349 0.00973908 -2.12398 0
M  V30 1999 H 192.612 0.0668593 -0.945639 0
M  V30 2000 H 192.318 0.834583 -3.41654 0
M  V30 2001 H 192.192 2.48602 -2.83684 0
M  V30 2002 H 194.579 2.28678 -1.86521 0
M  V30 2003 H 194.66 0.629352 -2.47937 0
M  V30 2004 H 194.304 1.51349 -4.84826 0
M  V30 2005 H 194.234 3.17258 -4.20304 0
M  V30 2006 H 196.725 1.94158 -3.24209 0
M  V30 2007 H 197.038 3.42103 -6.92954 0
M  V30 2008 H 195.383 3.08286 -6.22884 0
M  V30 2009 H 198.574 2.33233 -4.05857 0
M  V30 2010 H 198.747 3.00718 -5.73997 0
M  V30 2011 N 192.153 1.28127 0.917671 0
M  V30 2012 C 193.381 1.17892 1.70026 0
M  V30 2013 C 193.796 -0.262958 1.8696 0
M  V30 2014 O 193.153 -1.17811 1.3938 0
M  V30 2015 C 193.204 1.86872 3.09453 0
M  V30 2016 O 192.925 3.25428 2.93306 0
M  V30 2017 C 194.426 1.8289 4.03815 0
M  V30 2018 H 191.646 0.40942 0.531617 0
M  V30 2019 H 194.19 1.69181 1.14883 0
M  V30 2020 H 192.345 1.39464 3.61426 0
M  V30 2021 H 192.759 3.59918 3.81523 0
M  V30 2022 H 194.233 2.35751 4.99125 0
M  V30 2023 H 194.71 0.800412 4.31845 0
M  V30 2024 H 195.316 2.29959 3.57769 0
M  V30 2025 N 193.631 -1.12557 1.10312 0
M  V30 2026 C 194.878 -1.84038 0.844759 0
M  V30 2027 C 195.206 -1.84026 -0.629668 0
M  V30 2028 O 194.461 -1.28026 -1.48013 0
M  V30 2029 C 194.76 -3.31462 1.33669 0
M  V30 2030 C 194.426 -3.51647 2.82232 0
M  V30 2031 C 193.088 -3.56864 3.22802 0
M  V30 2032 C 195.44 -3.58867 3.77974 0
M  V30 2033 C 192.768 -3.66844 4.57867 0
M  V30 2034 C 195.12 -3.70375 5.1284 0
M  V30 2035 C 193.784 -3.73848 5.52986 0
M  V30 2036 H 193.054 -0.673444 0.309119 0
M  V30 2037 H 195.701 -1.32824 1.37949 0
M  V30 2038 H 194.006 -3.85091 0.721949 0
M  V30 2039 H 195.703 -3.85236 1.11329 0
M  V30 2040 H 192.293 -3.48249 2.49842 0
M  V30 2041 H 196.477 -3.54107 3.47738 0
M  V30 2042 H 191.733 -3.67804 4.88396 0
M  V30 2043 H 195.907 -3.74904 5.86873 0
M  V30 2044 H 193.534 -3.81333 6.57639 0
M  V30 2045 N 195.109 -0.891671 -1.2995 0
M  V30 2046 C 196.356 -0.513501 -1.95881 0
M  V30 2047 C 196.684 0.938655 -1.70351 0
M  V30 2048 O 195.939 1.67936 -1.00478 0
M  V30 2049 C 196.238 -0.742868 -3.49594 0
M  V30 2050 C 195.904 -2.17114 -3.95186 0
M  V30 2051 C 194.566 -2.56169 -4.07346 0
M  V30 2052 C 196.918 -3.10162 -4.18866 0
M  V30 2053 C 194.246 -3.87469 -4.4055 0
M  V30 2054 C 196.598 -4.41001 -4.53542 0
M  V30 2055 C 195.262 -4.79941 -4.63911 0
M  V30 2056 H 194.532 -0.187903 -0.71678 0
M  V30 2057 H 197.179 -1.1288 -1.54694 0
M  V30 2058 H 195.484 -0.044586 -3.91775 0
M  V30 2059 H 197.181 -0.429767 -3.9869 0
M  V30 2060 H 193.771 -1.85801 -3.86233 0
M  V30 2061 H 197.955 -2.81206 -4.08946 0
M  V30 2062 H 193.211 -4.17371 -4.46779 0
M  V30 2063 H 197.385 -5.13133 -4.70815 0
M  V30 2064 H 195.012 -5.81719 -4.89395 0
M  V30 2065 N 196.587 1.43421 -0.653314 0
M  V30 2066 C 197.517 2.33487 0.0246656 0
M  V30 2067 C 198.498 1.49475 0.811863 0
M  V30 2068 O 199.683 1.78139 0.773322 0
M  V30 2069 C 196.813 3.32841 0.99166 0
M  V30 2070 C 195.767 4.26842 0.314568 0
M  V30 2071 C 195.093 5.16236 1.39302 0
M  V30 2072 C 196.393 5.16243 -0.793095 0
M  V30 2073 H 198.087 2.90427 -0.727481 0
M  V30 2074 H 195.633 1.39649 -0.351287 0
M  V30 2075 H 197.586 3.94747 1.47487 0
M  V30 2076 H 196.31 2.74158 1.77497 0
M  V30 2077 H 194.969 3.663 -0.148199 0
M  V30 2078 H 194.617 4.53891 2.16776 0
M  V30 2079 H 194.317 5.79948 0.945223 0
M  V30 2080 H 195.841 5.81015 1.87759 0
M  V30 2081 H 197.255 5.71958 -0.392039 0
M  V30 2082 H 195.652 5.88676 -1.16536 0
M  V30 2083 H 196.722 4.55927 -1.65103 0
M  V30 2084 N 198.065 0.39524 1.52563 0
M  V30 2085 C 199.293 -0.184943 2.06072 0
M  V30 2086 C 199.708 -1.40021 1.26647 0
M  V30 2087 O 199.065 -1.79767 0.314672 0
M  V30 2088 C 199.116 -0.549179 3.57304 0
M  V30 2089 O 198.837 0.617813 4.33722 0
M  V30 2090 C 200.338 -1.18459 4.2718 0
M  V30 2091 H 197.558 -0.0265025 0.670476 0
M  V30 2092 H 200.102 0.562184 1.96621 0
M  V30 2093 H 198.257 -1.2462 3.66809 0
M  V30 2094 H 198.671 0.317091 5.23541 0
M  V30 2095 H 200.145 -1.38976 5.34219 0
M  V30 2096 H 200.622 -2.15368 3.82771 0
M  V30 2097 H 201.228 -0.528163 4.22008 0
M  V30 2098 N 199.544 -1.57102 0.125237 0
M  V30 2099 C 200.476 -2.12726 -0.853237 0
M  V30 2100 C 201.489 -1.07145 -1.22571 0
M  V30 2101 O 202.678 -1.34497 -1.17358 0
M  V30 2102 C 199.778 -2.61709 -2.15317 0
M  V30 2103 C 198.951 -3.91456 -1.95143 0
M  V30 2104 C 198.01 -4.25973 -3.08923 0
M  V30 2105 O 197.036 -4.94682 -2.81564 0
M  V30 2106 N 198.238 -3.83795 -4.35524 0
M  V30 2107 H 201.003 -2.97307 -0.377964 0
M  V30 2108 H 198.564 -1.61792 -0.0590011 0
M  V30 2109 H 200.556 -2.81826 -2.90441 0
M  V30 2110 H 199.126 -1.81974 -2.54174 0
M  V30 2111 H 198.346 -3.80185 -1.04177 0
M  V30 2112 H 199.634 -4.76283 -1.78976 0
M  V30 2113 H 199.032 -3.2839 -4.60626 0
M  V30 2114 H 197.589 -4.09008 -5.07499 0
M  V30 2115 N 201.022 0.148545 -1.56898 0
M  V30 2116 C 202.27 0.859717 -1.82902 0
M  V30 2117 C 202.591 1.81775 -0.70588 0
M  V30 2118 O 201.861 1.93994 0.272586 0
M  V30 2119 H 200.441 0.320469 -0.674766 0
M  V30 2120 H 203.103 0.142918 -1.94375 0
M  V30 2121 H 202.199 1.4229 -2.77777 0
M  V30 2122 N 202.5 1.5196 0.417844 0
M  V30 2123 C 203.463 1.74065 1.49111 0
M  V30 2124 C 204.463 0.610537 1.48758 0
M  V30 2125 O 205.653 0.87832 1.50437 0
M  V30 2126 C 202.785 1.81502 2.88565 0
M  V30 2127 H 203.978 2.69869 1.30807 0
M  V30 2128 H 201.531 1.42244 0.647785 0
M  V30 2129 H 202.266 0.875813 3.1225 0
M  V30 2130 H 202.051 2.63651 2.90225 0
M  V30 2131 H 203.541 2.00376 3.66387 0
M  V30 2132 N 203.978 -0.674533 1.42435 0
M  V30 2133 C 204.908 -1.80009 1.48724 0
M  V30 2134 C 205.889 -1.6659 0.343793 0
M  V30 2135 O 207.074 -1.86007 0.558137 0
M  V30 2136 C 204.204 -3.18306 1.38919 0
M  V30 2137 C 203.158 -3.46461 2.51294 0
M  V30 2138 C 202.484 -4.84335 2.26547 0
M  V30 2139 C 203.784 -3.43328 3.93603 0
M  V30 2140 H 205.478 -1.75004 2.42928 0
M  V30 2141 H 203.024 -0.840533 1.16923 0
M  V30 2142 H 204.977 -3.9678 1.41927 0
M  V30 2143 H 203.701 -3.2399 0.412094 0
M  V30 2144 H 202.36 -2.70348 2.47604 0
M  V30 2145 H 202.008 -4.86669 1.2713 0
M  V30 2146 H 201.708 -5.04136 3.01861 0
M  V30 2147 H 203.232 -5.65094 2.31304 0
M  V30 2148 H 204.646 -4.11772 3.98894 0
M  V30 2149 H 203.043 -3.74664 4.68771 0
M  V30 2150 H 204.113 -2.41897 4.20255 0
M  V30 2151 N 205.456 -1.28612 -0.910864 0
M  V30 2152 C 206.386 -1.15326 -2.03032 0
M  V30 2153 C 207.367 -0.0502924 -1.70026 0
M  V30 2154 O 208.552 -0.227797 -1.92859 0
M  V30 2155 C 205.682 -0.817343 -3.37545 0
M  V30 2156 C 204.636 -1.8754 -3.84724 0
M  V30 2157 C 203.962 -1.39305 -5.16235 0
M  V30 2158 C 205.262 -3.28244 -4.06267 0
M  V30 2159 H 206.956 -2.08975 -2.14406 0
M  V30 2160 H 204.502 -1.00612 -1.03021 0
M  V30 2161 H 206.455 -0.711151 -4.15356 0
M  V30 2162 H 205.179 0.154846 -3.26233 0
M  V30 2163 H 203.838 -1.97079 -3.09121 0
M  V30 2164 H 203.486 -0.409846 -5.01328 0
M  V30 2165 H 203.186 -2.10057 -5.48771 0
M  V30 2166 H 204.71 -1.30014 -5.96598 0
M  V30 2167 H 206.124 -3.21611 -4.74594 0
M  V30 2168 H 204.521 -3.96855 -4.5014 0
M  V30 2169 H 205.591 -3.72048 -3.10979 0
M  V30 2170 N 206.934 1.1197 -1.10907 0
M  V30 2171 C 207.882 2.19927 -0.757303 0
M  V30 2172 C 208.876 1.67564 0.248747 0
M  V30 2173 O 210.082 1.79672 0.108605 0
M  V30 2174 H 206.457 0.716925 -0.226987 0
M  V30 2175 H 208.428 2.46847 -1.67658 0
M  V30 2176 C 207.177 3.47061 -0.210671 0
M  V30 2177 H 206.5 3.87703 -0.976049 0
M  V30 2178 H 207.94 4.24 -0.0026584 0
M  V30 2179 C 206.399 3.19864 1.05777 0
M  V30 2180 O 206.929 3.40049 2.13845 0
M  V30 2181 N 205.135 2.73636 0.978349 0
M  V30 2182 H 204.682 2.5741 0.0988246 0
M  V30 2183 H 204.64 2.55815 1.82773 0
M  V30 2184 N 208.412 0.89855 1.29475 0
M  V30 2185 C 209.689 0.443416 1.90508 0
M  V30 2186 C 210.069 -1.07685 1.81569 0
M  V30 2187 O 209.417 -1.9182 1.24166 0
M  V30 2188 C 209.627 0.956708 3.35631 0
M  V30 2189 C 210.975 0.999728 4.12663 0
M  V30 2190 O 211.999 0.904299 3.4453 0
M  V30 2191 O 210.858 1.14289 5.34416 0
M  V30 2192 H 207.952 0.138025 0.815401 0
M  V30 2193 H 210.498 0.98834 1.37949 0
M  V30 2194 H 209.27 2.00067 3.36287 0
M  V30 2195 H 208.893 0.391728 3.95666 0
M  V30 2196 N 209.89 -1.43072 0.660911 0
M  V30 2197 C 210.837 -2.30785 -0.0259884 0
M  V30 2198 C 211.807 -1.45184 -0.806888 0
M  V30 2199 O 212.992 -1.74041 -0.781943 0
M  V30 2200 C 210.132 -3.30861 -0.981067 0
M  V30 2201 C 209.245 -4.31558 -0.195458 0
M  V30 2202 C 208.38 -5.18712 -1.14503 0
M  V30 2203 C 207.419 -6.11097 -0.350299 0
M  V30 2204 N 206.556 -6.90849 -1.25186 0
M  V30 2205 H 211.396 -2.88975 0.727846 0
M  V30 2206 H 208.933 -1.42353 0.370682 0
M  V30 2207 H 210.891 -3.87399 -1.54849 0
M  V30 2208 H 209.521 -2.74304 -1.70169 0
M  V30 2209 H 208.573 -3.77252 0.488374 0
M  V30 2210 H 209.885 -4.9701 0.422176 0
M  V30 2211 H 209.039 -5.79914 -1.78284 0
M  V30 2212 H 207.778 -4.53404 -1.79656 0
M  V30 2213 H 206.783 -5.48976 0.300808 0
M  V30 2214 H 208.008 -6.7845 0.296941 0
M  V30 2215 H 205.954 -6.28182 -1.89005 0
M  V30 2216 H 205.871 -7.52854 -0.688971 0
M  V30 2217 H 207.139 -7.5655 -1.87757 0
M  V30 2218 N 211.368 -0.403325 -1.52352 0
M  V30 2219 C 212.318 0.442244 -2.2367 0
M  V30 2220 C 213.302 1.01823 -1.24583 0
M  V30 2221 O 214.494 0.942005 -1.49851 0
M  V30 2222 C 211.623 1.5615 -3.05732 0
M  V30 2223 C 210.709 0.996575 -4.12225 0
M  V30 2224 N 211.1 0.157804 -5.05554 0
M  V30 2225 C 209.398 1.26767 -4.27605 0
M  V30 2226 C 210.099 -0.155853 -5.81491 0
M  V30 2227 N 209.075 0.451775 -5.41719 0
M  V30 2228 H 212.877 -0.204964 -2.93184 0
M  V30 2229 H 210.391 -0.213418 -1.60992 0
M  V30 2230 H 212.388 2.17981 -3.55373 0
M  V30 2231 H 211.048 2.21139 -2.37755 0
M  V30 2232 H 212.059 -0.206049 -5.1749 0
M  V30 2233 H 208.736 1.91757 -3.70858 0
M  V30 2234 H 210.126 -0.836329 -6.66675 0
M  V30 2235 N 212.846 1.57033 -0.133567 0
M  V30 2236 C 214.071 2.00475 0.531477 0
M  V30 2237 C 214.496 1.01291 1.58499 0
M  V30 2238 O 213.854 -0.0133279 1.81295 0
M  V30 2239 C 213.902 3.42729 1.12113 0
M  V30 2240 O 213.006 3.46498 2.23636 0
M  V30 2241 H 212.347 0.650876 0.131362 0
M  V30 2242 H 214.877 2.03344 -0.22634 0
M  V30 2243 H 214.887 3.81246 1.4531 0
M  V30 2244 H 213.562 4.14428 0.349557 0
M  V30 2245 H 212.139 3.19811 1.91769 0
M  V30 2246 N 214.325 -0.140222 1.56975 0
M  V30 2247 C 215.273 -1.19207 1.99731 0
M  V30 2248 C 216.267 -1.44089 0.890777 0
M  V30 2249 O 217.473 -1.44301 1.07597 0
M  V30 2250 H 213.848 -0.40142 0.635898 0
M  V30 2251 H 215.819 -0.804813 2.87342 0
M  V30 2252 C 214.568 -2.51617 2.39967 0
M  V30 2253 H 213.891 -2.33303 3.24669 0
M  V30 2254 H 215.331 -3.23827 2.73701 0
M  V30 2255 C 213.79 -3.12654 1.25496 0
M  V30 2256 O 214.32 -3.97786 0.559371 0
M  V30 2257 N 212.526 -2.72206 1.01746 0
M  V30 2258 H 212.073 -2.03074 1.58489 0
M  V30 2259 H 212.031 -3.13377 0.253461 0
M  V30 2260 N 215.803 -1.52179 -0.40978 0
M  V30 2261 C 217.051 -1.65878 -1.15451 0
M  V30 2262 C 217.372 -0.390771 -1.91044 0
M  V30 2263 O 216.642 0.594323 -1.86667 0
M  V30 2264 H 215.222 -0.611405 -0.429177 0
M  V30 2265 H 217.884 -1.89219 -0.467134 0
M  V30 2266 H 216.98 -2.49954 -1.86894 0
M  V30 2267 N 217.281 0.66697 -1.42791 0
M  V30 2268 C 218.509 1.45505 -1.47091 0
M  V30 2269 C 218.924 1.8861 -0.0845873 0
M  V30 2270 O 218.281 1.58632 0.90234 0
M  V30 2271 C 218.332 2.69906 -2.40485 0
M  V30 2272 O 218.053 2.28608 -3.73725 0
M  V30 2273 C 219.554 3.63396 -2.53886 0
M  V30 2274 H 216.774 0.447459 -0.500022 0
M  V30 2275 H 219.318 0.818866 -1.8739 0
M  V30 2276 H 217.473 3.29696 -2.03419 0
M  V30 2277 H 217.887 3.08997 -4.23817 0
M  V30 2278 H 219.361 4.47387 -3.2334 0
M  V30 2279 H 219.838 4.09824 -1.57927 0
M  V30 2280 H 220.444 3.09495 -2.91706 0
M  V30 2281 N 218.759 1.29093 0.90403 0
M  V30 2282 C 220.005 1.16986 1.65656 0
M  V30 2283 C 220.338 -0.278925 1.92186 0
M  V30 2284 O 219.613 -1.2019 1.5292 0
M  V30 2285 C 219.896 1.97908 3.0084 0
M  V30 2286 C 219.749 3.50903 2.81403 0
M  V30 2287 C 221.068 1.80208 4.01513 0
M  V30 2288 H 218.187 0.426346 0.601164 0
M  V30 2289 H 220.829 1.58518 1.04747 0
M  V30 2290 H 218.979 1.62616 3.52829 0
M  V30 2291 H 220.651 3.96153 2.36348 0
M  V30 2292 H 218.894 3.76045 2.1627 0
M  V30 2293 H 219.565 4.02791 3.77443 0
M  V30 2294 H 222.041 2.11025 3.58619 0
M  V30 2295 H 220.917 2.39184 4.94047 0
M  V30 2296 H 221.178 0.756119 4.35586 0
M  V30 2297 N 220.237 -1.11381 1.11499 0
M  V30 2298 C 221.184 -2.17439 0.773887 0
M  V30 2299 C 222.154 -1.64132 -0.254899 0
M  V30 2300 O 223.339 -1.90345 -0.13168 0
M  V30 2301 C 220.479 -3.44373 0.223917 0
M  V30 2302 C 219.592 -4.1168 1.30934 0
M  V30 2303 C 218.727 -5.263 0.71984 0
M  V30 2304 C 217.766 -5.85493 1.78507 0
M  V30 2305 N 216.903 -6.91507 1.21502 0
M  V30 2306 H 221.743 -2.45962 1.68246 0
M  V30 2307 H 219.28 -1.20744 0.840191 0
M  V30 2308 H 221.238 -4.17047 -0.112921 0
M  V30 2309 H 219.868 -3.16232 -0.647851 0
M  V30 2310 H 218.92 -3.37073 1.76312 0
M  V30 2311 H 220.232 -4.51729 2.11524 0
M  V30 2312 H 219.386 -6.05785 0.333094 0
M  V30 2313 H 218.125 -4.87559 -0.117377 0
M  V30 2314 H 217.13 -5.04686 2.18111 0
M  V30 2315 H 218.355 -6.26301 2.62533 0
M  V30 2316 H 216.301 -6.54783 0.399455 0
M  V30 2317 H 216.218 -7.30214 1.95763 0
M  V30 2318 H 217.486 -7.74795 0.855181 0
M  V30 2319 N 221.715 -0.905404 -1.28997 0
M  V30 2320 C 222.992 -0.453513 -1.9027 0
M  V30 2321 C 223.372 1.06721 -1.82137 0
M  V30 2322 O 222.72 1.91159 -1.25182 0
M  V30 2323 C 222.93 -0.974494 -3.35119 0
M  V30 2324 C 224.278 -1.0216 -4.12127 0
M  V30 2325 O 225.302 -0.922557 -3.44046 0
M  V30 2326 O 224.161 -1.17121 -5.33802 0
M  V30 2327 H 221.255 -0.142347 -0.814657 0
M  V30 2328 H 223.801 -0.995642 -1.37423 0
M  V30 2329 H 222.573 -2.01848 -3.35221 0
M  V30 2330 H 222.196 -0.412706 -3.95452 0
M  V30 2331 N 223.193 1.4272 -0.668489 0
M  V30 2332 C 224.609 1.55992 -0.33745 0
M  V30 2333 C 224.809 1.64933 1.15756 0
M  V30 2334 O 223.865 1.61278 1.94282 0
M  V30 2335 C 225.178 2.81314 -1.06222 0
M  V30 2336 C 226.726 2.95078 -1.04394 0
M  V30 2337 C 227.201 4.23252 -1.74991 0
M  V30 2338 N 228.692 4.3015 -1.71829 0
M  V30 2339 C 229.427 5.28127 -2.23315 0
M  V30 2340 N 228.923 6.32293 -2.83156 0
M  V30 2341 N 230.716 5.19882 -2.13726 0
M  V30 2342 H 222.867 1.3516 -1.63846 0
M  V30 2343 H 225.13 0.650174 -0.689912 0
M  V30 2344 H 224.836 2.80823 -2.11734 0
M  V30 2345 H 224.71 3.72012 -0.62344 0
M  V30 2346 H 227.097 2.951 0.0028244 0
M  V30 2347 H 227.178 2.05627 -1.52155 0
M  V30 2348 H 226.822 4.2399 -2.79633 0
M  V30 2349 H 226.752 5.11626 -1.24685 0
M  V30 2350 H 229.243 3.55499 -1.28175 0
M  V30 2351 H 229.556 7.03398 -3.20079 0
M  V30 2352 H 227.901 6.32873 -2.87223 0
M  V30 2353 H 231.092 4.37423 -1.66669 0
M  V30 2354 H 231.265 5.96077 -2.54158 0
M  V30 2355 N 224.671 0.411399 1.52136 0
M  V30 2356 C 225.896 -0.165538 2.06738 0
M  V30 2357 C 226.321 -1.379 1.27926 0
M  V30 2358 O 225.679 -1.78628 0.310114 0
M  V30 2359 C 225.727 -0.492124 3.57226 0
M  V30 2360 O 224.831 -1.58276 3.80818 0
M  V30 2361 H 224.172 -0.0132132 0.663869 0
M  V30 2362 H 226.702 0.585253 1.96051 0
M  V30 2363 H 226.712 -0.750104 4.01045 0
M  V30 2364 H 225.387 0.394922 4.14021 0
M  V30 2365 H 223.964 -1.31677 3.48877 0
M  V30 2366 N 226.149 -1.5696 0.141893 0
M  V30 2367 C 227.56 -1.82797 -0.379776 0
M  V30 2368 C 227.911 -1.06033 -1.6508 0
M  V30 2369 O 227.036 -0.304011 -2.14254 0
M  V30 2370 C 227.631 -3.31578 -0.695802 0
M  V30 2371 C 226.19 -3.58014 -1.16201 0
M  V30 2372 C 225.337 -2.76699 -0.182455 0
M  V30 2373 H 228.288 -1.54406 0.366675 0
M  V30 2374 H 228.309 -3.47454 -1.55099 0
M  V30 2375 H 227.821 -3.87421 0.229449 0
M  V30 2376 H 225.922 -3.07553 -2.10338 0
M  V30 2377 H 226.035 -4.66501 -1.09151 0
M  V30 2378 H 224.399 -2.45618 -0.674072 0
M  V30 2379 H 225.182 -3.35311 0.736297 0
M  V30 2380 N 227.627 0.131896 -1.57047 0
M  V30 2381 C 228.857 0.855219 -1.88068 0
M  V30 2382 C 229.265 1.74557 -0.729817 0
M  V30 2383 O 228.608 1.81083 0.308962 0
M  V30 2384 C 228.67 1.75119 -3.13964 0
M  V30 2385 C 228.334 1.03646 -4.45091 0
M  V30 2386 C 229.331 0.383276 -5.18485 0
M  V30 2387 C 227.016 1.02148 -4.91804 0
M  V30 2388 C 229.01 -0.275347 -6.36805 0
M  V30 2389 C 226.697 0.359047 -6.10044 0
M  V30 2390 C 227.695 -0.288222 -6.82392 0
M  V30 2391 O 227.383 -0.94011 -7.98384 0
M  V30 2392 H 227.115 0.251864 -0.627328 0
M  V30 2393 H 229.669 0.124782 -2.05021 0
M  V30 2394 H 227.899 2.52295 -2.9306 0
M  V30 2395 H 229.588 2.3478 -3.31109 0
M  V30 2396 H 230.354 0.386562 -4.83457 0
M  V30 2397 H 226.233 1.5147 -4.35405 0
M  V30 2398 H 229.777 -0.781148 -6.93213 0
M  V30 2399 H 225.674 0.35348 -6.44531 0
M  V30 2400 H 226.442 -0.84329 -8.14144 0
M  V30 2401 N 229.106 1.52395 0.401703 0
M  V30 2402 C 230.522 1.41363 0.740864 0
M  V30 2403 C 230.722 0.523982 1.94568 0
M  V30 2404 O 229.778 -0.00741204 2.52499 0
M  V30 2405 C 231.091 2.84011 0.987847 0
M  V30 2406 C 232.639 2.93404 1.09011 0
M  V30 2407 C 233.114 4.37036 1.3698 0
M  V30 2408 N 234.605 4.40304 1.43829 0
M  V30 2409 C 235.34 5.48508 1.67112 0
M  V30 2410 N 234.836 6.66819 1.87949 0
M  V30 2411 N 236.629 5.36034 1.69187 0
M  V30 2412 H 228.78 2.08765 -0.391262 0
M  V30 2413 H 231.043 0.941265 -0.112798 0
M  V30 2414 H 230.749 3.51265 0.174835 0
M  V30 2415 H 230.623 3.25502 1.906 0
M  V30 2416 H 233.01 2.26325 1.8937 0
M  V30 2417 H 233.091 2.55359 0.15015 0
M  V30 2418 H 232.735 5.04676 0.571353 0
M  V30 2419 H 232.665 4.72623 2.3224 0
M  V30 2420 H 235.156 3.55024 1.29486 0
M  V30 2421 H 235.469 7.45063 2.05185 0
M  V30 2422 H 233.814 6.6987 1.85199 0
M  V30 2423 H 237.005 4.42579 1.52451 0
M  V30 2424 H 237.178 6.20434 1.86993 0
M  V30 2425 N 230.584 -0.659388 1.43143 0
M  V30 2426 C 231.547 -1.75432 1.47501 0
M  V30 2427 C 232.547 -1.56707 0.360512 0
M  V30 2428 O 233.737 -1.62717 0.622002 0
M  V30 2429 C 230.869 -3.14239 1.32162 0
M  V30 2430 H 232.062 -1.7295 2.45006 0
M  V30 2431 H 229.615 -0.870469 1.29817 0
M  V30 2432 H 230.35 -3.22336 0.356401 0
M  V30 2433 H 230.135 -3.29235 2.12948 0
M  V30 2434 H 231.625 -3.94094 1.3813 0
M  V30 2435 N 232.062 -1.29571 -0.897171 0
M  V30 2436 C 232.992 -1.17473 -2.01798 0
M  V30 2437 C 233.973 -0.068323 -1.69963 0
M  V30 2438 O 235.158 -0.248239 -1.92607 0
M  V30 2439 C 232.288 -0.853099 -3.36659 0
M  V30 2440 C 231.242 -1.9161 -3.82713 0
M  V30 2441 C 230.568 -1.44773 -5.14728 0
M  V30 2442 C 231.868 -3.32535 -4.02763 0
M  V30 2443 H 233.562 -2.11237 -2.12177 0
M  V30 2444 H 231.108 -1.01699 -1.01948 0
M  V30 2445 H 233.061 -0.755165 -4.14578 0
M  V30 2446 H 231.785 0.120236 -3.26379 0
M  V30 2447 H 230.444 -2.00346 -3.07013 0
M  V30 2448 H 230.092 -0.462995 -5.00865 0
M  V30 2449 H 229.792 -2.15865 -5.46513 0
M  V30 2450 H 231.316 -1.36334 -5.95185 0
M  V30 2451 H 232.73 -3.26626 -4.71156 0
M  V30 2452 H 231.127 -4.01607 -4.45905 0
M  V30 2453 H 232.197 -3.75326 -3.07016 0
M  V30 2454 N 233.54 1.10788 -1.12088 0
M  V30 2455 C 234.473 2.16237 -0.729168 0
M  V30 2456 C 235.451 1.60207 0.277921 0
M  V30 2457 O 236.635 1.87707 0.172737 0
M  V30 2458 C 233.762 3.38609 -0.0786848 0
M  V30 2459 C 232.808 4.13322 -1.05201 0
M  V30 2460 S 233.641 4.69371 -2.57781 0
M  V30 2461 C 234.797 5.95058 -1.94053 0
M  V30 2462 H 235.03 2.4913 -1.62239 0
M  V30 2463 H 232.563 1.22519 -0.939603 0
M  V30 2464 H 234.521 4.09473 0.290254 0
M  V30 2465 H 233.182 3.03962 0.791593 0
M  V30 2466 H 232.375 5.01051 -0.544433 0
M  V30 2467 H 231.977 3.48251 -1.36371 0
M  V30 2468 H 234.269 6.65278 -1.28107 0
M  V30 2469 H 235.212 6.50472 -2.79807 0
M  V30 2470 H 235.62 5.46918 -1.39787 0
M  V30 2471 N 235.018 0.912232 1.28515 0
M  V30 2472 C 236.243 0.559774 1.99703 0
M  V30 2473 C 236.668 -0.851393 1.67729 0
M  V30 2474 O 236.026 -1.56875 0.908834 0
M  V30 2475 C 236.074 0.773874 3.52198 0
M  V30 2476 O 235.178 -0.167842 4.12058 0
M  V30 2477 H 234.519 0.21723 0.627461 0
M  V30 2478 H 237.049 1.22725 1.63706 0
M  V30 2479 H 237.059 0.683386 4.02236 0
M  V30 2480 H 235.734 1.80261 3.74805 0
M  V30 2481 H 234.311 -0.0287509 3.72889 0
M  V30 2482 N 236.496 -1.42363 0.676048 0
M  V30 2483 C 237.736 -2.03392 0.20273 0
M  V30 2484 C 238.1 -1.52306 -1.16906 0
M  V30 2485 O 239.301 -2.05129 -1.73711 0
M  V30 2486 C 237.572 -3.56614 0.236947 0
M  V30 2487 S 239.131 -4.38489 -0.165186 0
M  V30 2488 H 235.949 -0.70611 0.0832418 0
M  V30 2489 H 238.551 -1.74093 0.88948 0
M  V30 2490 H 237.255 -3.91293 1.23767 0
M  V30 2491 H 236.786 -3.90587 -0.469596 0
M  V30 2492 H 238.801 -4.76093 -1.39822 0
M  V30 2493 N 237.974 -0.419461 -1.51915 0
M  V30 2494 C 239.385 0.0477853 -1.86639 0
M  V30 2495 C 239.736 1.43531 -1.33766 0
M  V30 2496 O 238.861 2.05401 -0.68113 0
M  V30 2497 C 239.456 0.0934885 -3.38671 0
M  V30 2498 C 238.015 0.505097 -3.72996 0
M  V30 2499 C 237.162 -0.313792 -2.75519 0
M  V30 2500 H 240.113 -0.636088 -1.45395 0
M  V30 2501 H 240.134 0.906667 -3.6954 0
M  V30 2502 H 239.646 -0.916501 -3.77123 0
M  V30 2503 H 237.747 1.52135 -3.40126 0
M  V30 2504 H 237.86 0.242309 -4.78487 0
M  V30 2505 H 236.224 0.225363 -2.53701 0
M  V30 2506 H 237.007 -1.32232 -3.16812 0
M  V30 2507 N 239.452 1.56882 -0.150215 0
M  V30 2508 C 240.701 1.95403 0.500071 0
M  V30 2509 C 241.014 1.03777 1.658 0
M  V30 2510 O 242.22 1.31889 2.37313 0
M  V30 2511 C 240.676 3.4738 0.941018 0
M  V30 2512 C 240.284 4.47596 -0.190158 0
M  V30 2513 C 242.028 3.9476 1.56091 0
M  V30 2514 C 239.935 5.90787 0.269237 0
M  V30 2515 H 238.865 0.729515 0.190588 0
M  V30 2516 H 241.516 1.81988 -0.235074 0
M  V30 2517 H 239.898 3.56138 1.73152 0
M  V30 2518 H 241.072 4.50536 -0.967157 0
M  V30 2519 H 239.387 4.10151 -0.718666 0
M  V30 2520 H 241.984 4.99181 1.9163 0
M  V30 2521 H 242.327 3.36494 2.45107 0
M  V30 2522 H 242.86 3.88932 0.835249 0
M  V30 2523 H 239.599 6.52879 -0.585621 0
M  V30 2524 H 239.119 5.912 1.01204 0
M  V30 2525 H 240.798 6.42979 0.720176 0
M  V30 2526 N 240.93 -0.123565 1.57115 0
M  V30 2527 C 242.178 -0.83051 1.84247 0
M  V30 2528 C 242.499 -1.80629 0.73471 0
M  V30 2529 O 241.769 -1.94403 -0.241688 0
M  V30 2530 H 240.349 -0.309694 0.679778 0
M  V30 2531 H 243.011 -0.111976 1.94578 0
M  V30 2532 H 242.107 -1.37852 2.80006 0
M  V30 2533 N 242.408 -1.52605 -0.393616 0
M  V30 2534 C 243.318 -1.79971 -1.50492 0
M  V30 2535 C 244.334 -0.686181 -1.59899 0
M  V30 2536 O 245.51 -0.973274 -1.76322 0
M  V30 2537 C 242.575 -1.95867 -2.86072 0
M  V30 2538 C 241.636 -3.19781 -2.86424 0
M  V30 2539 C 240.869 -3.34909 -4.15538 0
M  V30 2540 O 241.092 -2.54948 -5.10253 0
M  V30 2541 O 240.026 -4.28141 -4.23059 0
M  V30 2542 H 243.852 -2.74328 -1.30299 0
M  V30 2543 H 241.437 -1.3764 -0.581005 0
M  V30 2544 H 243.319 -2.08056 -3.66457 0
M  V30 2545 H 241.994 -1.04699 -3.063 0
M  V30 2546 H 240.901 -3.13038 -2.04837 0
M  V30 2547 H 242.234 -4.1078 -2.71147 0
M  V30 2548 N 243.887 0.651787 -1.4349 0
M  V30 2549 C 244.85 1.74647 -1.48429 0
M  V30 2550 C 245.85 1.56513 -0.368817 0
M  V30 2551 O 247.04 1.62385 -0.630623 0
M  V30 2552 C 244.172 3.13533 -1.33827 0
M  V30 2553 H 245.365 1.71649 -2.4592 0
M  V30 2554 H 242.918 0.863573 -1.30277 0
M  V30 2555 H 243.653 3.22142 -0.37349 0
M  V30 2556 H 243.438 3.28101 -2.14691 0
M  V30 2557 H 244.928 3.93356 -1.40218 0
M  V30 2558 N 245.365 1.30045 0.890287 0
M  V30 2559 C 246.776 1.16738 1.45702 0
M  V30 2560 C 247.127 -0.233939 1.948 0
M  V30 2561 O 246.252 -1.13021 1.84541 0
M  V30 2562 C 246.847 2.11313 2.64825 0
M  V30 2563 C 245.406 2.02001 3.17604 0
M  V30 2564 C 244.553 2.01699 1.90296 0
M  V30 2565 H 247.504 1.42392 0.700726 0
M  V30 2566 H 247.525 1.69086 3.40867 0
M  V30 2567 H 247.037 3.13294 2.2906 0
M  V30 2568 H 245.138 1.03142 3.5804 0
M  V30 2569 H 245.251 2.90128 3.81264 0
M  V30 2570 H 243.615 1.46427 2.08402 0
M  V30 2571 H 244.398 3.05402 1.56795 0
M  V30 2572 N 246.843 -1.10192 1.12674 0
M  V30 2573 C 248.068 -1.86523 0.906853 0
M  V30 2574 C 248.493 -1.80221 -0.538711 0
M  V30 2575 O 247.851 -1.17396 -1.38158 0
M  V30 2576 C 247.899 -3.32758 1.3894 0
M  V30 2577 O 247.003 -4.08449 0.5695 0
M  V30 2578 H 246.344 -0.578678 0.325619 0
M  V30 2579 H 248.874 -1.39203 1.49946 0
M  V30 2580 H 248.884 -3.83608 1.38958 0
M  V30 2581 H 247.559 -3.36661 2.44197 0
M  V30 2582 H 246.136 -3.67427 0.636528 0
M  V30 2583 N 248.321 -0.919034 -1.28029 0
M  V30 2584 C 249.732 -0.600735 -1.76771 0
M  V30 2585 C 250.083 0.884024 -1.75156 0
M  V30 2586 O 249.208 1.69163 -1.34956 0
M  V30 2587 C 249.803 -1.08372 -3.21 0
M  V30 2588 C 248.362 -0.816248 -3.67443 0
M  V30 2589 C 247.509 -1.24742 -2.47658 0
M  V30 2590 H 250.46 -1.09974 -1.14418 0
M  V30 2591 H 250.481 -0.427512 -3.78091 0
M  V30 2592 H 249.993 -2.16437 -3.22144 0
M  V30 2593 H 248.094 0.250968 -3.71754 0
M  V30 2594 H 248.207 -1.4277 -4.57333 0
M  V30 2595 H 246.571 -0.666083 -2.45836 0
M  V30 2596 H 247.354 -2.33653 -2.51518 0
M  V30 2597 N 249.799 1.42003 -0.683588 0
M  V30 2598 C 251.029 2.05448 -0.217866 0
M  V30 2599 C 251.437 1.51491 1.13346 0
M  V30 2600 O 250.78 0.653048 1.717 0
M  V30 2601 C 250.842 3.59399 -0.0850118 0
M  V30 2602 C 250.506 4.36093 -1.36645 0
M  V30 2603 C 251.503 4.66169 -2.30179 0
M  V30 2604 C 249.188 4.75578 -1.61649 0
M  V30 2605 C 251.182 5.34676 -3.46988 0
M  V30 2606 C 248.869 5.43824 -2.78745 0
M  V30 2607 C 249.867 5.73299 -3.71238 0
M  V30 2608 O 249.555 6.40142 -4.86285 0
M  V30 2609 H 249.287 0.668344 -0.101454 0
M  V30 2610 H 251.841 1.82974 -0.933248 0
M  V30 2611 H 250.071 3.80566 0.686031 0
M  V30 2612 H 251.76 4.04457 0.341973 0
M  V30 2613 H 252.526 4.36156 -2.12115 0
M  V30 2614 H 248.405 4.52025 -0.905243 0
M  V30 2615 H 251.949 5.57599 -4.19201 0
M  V30 2616 H 247.846 5.73254 -2.96732 0
M  V30 2617 H 248.614 6.58636 -4.85944 0
M  V30 2618 N 251.277 0.427512 1.51691 0
M  V30 2619 C 252.225 -0.403359 2.29076 0
M  V30 2620 C 253.219 -1.02962 1.34518 0
M  V30 2621 O 254.425 -0.965715 1.51901 0
M  V30 2622 H 250.8 -0.148879 0.737115 0
M  V30 2623 H 252.771 0.270295 2.97173 0
M  V30 2624 C 251.52 -1.49763 3.13794 0
M  V30 2625 H 250.843 -1.02508 3.86435 0
M  V30 2626 H 252.283 -2.05244 3.71014 0
M  V30 2627 C 250.742 -2.47536 2.28533 0
M  V30 2628 O 251.272 -3.51848 1.93819 0
M  V30 2629 N 249.478 -2.18187 1.91945 0
M  V30 2630 H 249.025 -1.33389 2.20375 0
M  V30 2631 H 248.983 -2.83848 1.35195 0
M  V30 2632 N 252.755 -1.56801 0.158532 0
M  V30 2633 C 253.98 -2.01295 -0.499516 0
M  V30 2634 C 254.405 -1.03799 -1.56867 0
M  V30 2635 O 253.763 -0.0155162 -1.81293 0
M  V30 2636 C 253.811 -3.44469 -1.06647 0
M  V30 2637 O 252.915 -3.50012 -2.18095 0
M  V30 2638 H 252.256 -0.652884 -0.12099 0
M  V30 2639 H 254.786 -2.02958 0.258661 0
M  V30 2640 H 254.796 -3.8351 -1.39227 0
M  V30 2641 H 253.471 -4.14932 -0.283581 0
M  V30 2642 H 252.048 -3.22822 -1.86656 0
M  V30 2643 N 254.233 0.115231 -1.57178 0
M  V30 2644 C 255.649 0.468877 -1.52557 0
M  V30 2645 C 255.849 1.81649 -0.872125 0
M  V30 2646 O 254.905 2.48347 -0.45606 0
M  V30 2647 C 256.218 0.4499 -2.97315 0
M  V30 2648 C 257.766 0.533185 -3.08425 0
M  V30 2649 C 258.241 0.54456 -4.54751 0
M  V30 2650 N 259.732 0.605892 -4.5922 0
M  V30 2651 C 260.467 0.636203 -5.6986 0
M  V30 2652 N 259.963 0.623931 -6.89985 0
M  V30 2653 N 261.756 0.679496 -5.57978 0
M  V30 2654 H 253.907 -0.767712 -1.9804 0
M  V30 2655 H 256.17 -0.283609 -0.904583 0
M  V30 2656 H 255.876 -0.472721 -3.48509 0
M  V30 2657 H 255.75 1.27632 -3.5495 0
M  V30 2658 H 258.137 1.44623 -2.57232 0
M  V30 2659 H 258.218 -0.320995 -2.53778 0
M  V30 2660 H 257.862 -0.364452 -5.06591 0
M  V30 2661 H 257.792 1.41568 -5.07214 0
M  V30 2662 H 260.283 0.621386 -3.72756 0
M  V30 2663 H 260.596 0.649787 -7.70063 0
M  V30 2664 H 258.941 0.591296 -6.9248 0
M  V30 2665 H 262.132 0.686472 -4.63039 0
M  V30 2666 H 262.305 0.69965 -6.44212 0
M  V30 2667 N 255.711 1.52812 0.385517 0
M  V30 2668 C 256.958 1.68026 1.1302 0
M  V30 2669 C 257.286 0.421934 1.89868 0
M  V30 2670 O 256.541 -0.595749 1.86412 0
M  V30 2671 C 256.84 2.86856 2.13187 0
M  V30 2672 C 256.506 4.24159 1.5297 0
M  V30 2673 C 255.168 4.61501 1.36274 0
M  V30 2674 C 257.52 5.09627 1.09223 0
M  V30 2675 C 254.848 5.81966 0.743837 0
M  V30 2676 C 257.2 6.30719 0.487411 0
M  V30 2677 C 255.864 6.6679 0.307777 0
M  V30 2678 H 255.134 0.614849 0.413571 0
M  V30 2679 H 257.781 1.86962 0.414405 0
M  V30 2680 H 256.086 2.6235 2.90998 0
M  V30 2681 H 257.783 2.95821 2.70722 0
M  V30 2682 H 254.373 3.94746 1.66954 0
M  V30 2683 H 258.557 4.81343 1.20922 0
M  V30 2684 H 253.813 6.08519 0.592891 0
M  V30 2685 H 257.987 6.96259 0.140143 0
M  V30 2686 H 255.614 7.60001 -0.173879 0
M  V30 2687 N 257.189 -0.644168 1.43834 0
M  V30 2688 C 258.099 -1.78563 1.52159 0
M  V30 2689 C 259.115 -1.69147 0.408069 0
M  V30 2690 O 260.291 -1.90156 0.663524 0
M  V30 2691 C 257.356 -3.14888 1.45073 0
M  V30 2692 C 256.417 -3.36034 2.6717 0
M  V30 2693 C 255.65 -4.65855 2.60413 0
M  V30 2694 O 255.873 -5.45805 1.65689 0
M  V30 2695 O 254.807 -4.88918 3.5106 0
M  V30 2696 H 258.633 -1.74494 2.48567 0
M  V30 2697 H 256.218 -0.80378 1.25935 0
M  V30 2698 H 258.1 -3.96179 1.43597 0
M  V30 2699 H 256.775 -3.19528 0.518037 0
M  V30 2700 H 255.682 -2.54472 2.74217 0
M  V30 2701 H 257.015 -3.36247 3.59442 0
M  V30 2702 N 258.668 -1.30515 -0.883378 0
M  V30 2703 C 259.893 -1.22487 -1.67367 0
M  V30 2704 C 260.318 0.208767 -1.86938 0
M  V30 2705 O 259.676 1.15015 -1.40148 0
M  V30 2706 C 259.724 -1.96041 -3.02655 0
M  V30 2707 O 258.828 -1.28859 -3.91751 0
M  V30 2708 H 258.169 -0.423573 -0.511353 0
M  V30 2709 H 260.699 -1.72362 -1.10239 0
M  V30 2710 H 260.709 -2.05124 -3.52687 0
M  V30 2711 H 259.384 -3.00307 -2.8773 0
M  V30 2712 H 257.961 -1.28141 -3.50192 0
M  V30 2713 N 260.146 1.09593 -1.13257 0
M  V30 2714 C 261.392 1.82003 -0.89458 0
M  V30 2715 C 261.725 1.85402 0.577906 0
M  V30 2716 O 261 1.32099 1.42759 0
M  V30 2717 C 261.283 3.28237 -1.48096 0
M  V30 2718 C 261.136 3.3312 -3.02244 0
M  V30 2719 C 262.455 4.24871 -1.14774 0
M  V30 2720 H 259.574 0.66077 -0.326424 0
M  V30 2721 H 262.216 1.28389 -1.40058 0
M  V30 2722 H 260.366 3.74024 -1.05062 0
M  V30 2723 H 262.038 2.95748 -3.54021 0
M  V30 2724 H 260.281 2.72756 -3.37323 0
M  V30 2725 H 260.952 4.3613 -3.38371 0
M  V30 2726 H 263.428 3.87361 -1.51957 0
M  V30 2727 H 262.304 5.25532 -1.58452 0
M  V30 2728 H 262.565 4.42058 -0.0611849 0
M  V30 2729 N 261.624 0.925811 1.2754 0
M  V30 2730 C 262.587 0.428129 2.25166 0
M  V30 2731 C 263.587 -0.452261 1.54309 0
M  V30 2732 O 264.777 -0.253608 1.72344 0
M  V30 2733 C 261.909 -0.384749 3.38722 0
M  V30 2734 H 263.102 1.29066 2.70706 0
M  V30 2735 H 260.655 0.706323 1.3943 0
M  V30 2736 H 261.39 -1.26618 2.98561 0
M  V30 2737 H 261.175 0.246454 3.91325 0
M  V30 2738 H 262.665 -0.723389 4.11287 0
M  V30 2739 N 263.102 -1.41638 0.69111 0
M  V30 2740 C 264.348 -2.02104 0.229258 0
M  V30 2741 C 264.703 -1.53741 -1.15678 0
M  V30 2742 O 263.996 -0.736849 -1.76865 0
M  V30 2743 C 264.19 -3.56714 0.221277 0
M  V30 2744 C 264.019 -4.20083 1.605 0
M  V30 2745 C 262.789 -4.54566 2.20676 0
M  V30 2746 C 264.987 -4.46587 2.55078 0
M  V30 2747 N 262.969 -5.03199 3.5166 0
M  V30 2748 C 264.34 -4.96946 3.70735 0
M  V30 2749 C 266.395 -4.28593 2.53401 0
M  V30 2750 C 265.098 -5.31203 4.8499 0
M  V30 2751 C 267.124 -4.63936 3.66765 0
M  V30 2752 C 266.486 -5.14463 4.81152 0
M  V30 2753 H 262.585 -0.771256 0.12918 0
M  V30 2754 H 265.169 -1.72251 0.907626 0
M  V30 2755 H 263.34 -3.86051 -0.426562 0
M  V30 2756 H 265.072 -4.03896 -0.254983 0
M  V30 2757 H 261.827 -4.4087 1.73005 0
M  V30 2758 H 262.251 -5.31926 4.18789 0
M  V30 2759 H 266.893 -3.88771 1.66184 0
M  V30 2760 H 264.611 -5.69951 5.72871 0
M  V30 2761 H 268.197 -4.51677 3.66714 0
M  V30 2762 H 267.077 -5.41299 5.67419 0
M  V30 2763 N 264.58 -0.43555 -1.51462 0
M  V30 2764 C 265.805 0.132627 -2.06976 0
M  V30 2765 C 266.23 1.35848 -1.30104 0
M  V30 2766 O 265.588 1.78112 -0.338493 0
M  V30 2767 C 265.636 0.43523 -3.57964 0
M  V30 2768 O 264.74 1.52198 -3.83288 0
M  V30 2769 H 264.081 0.00265 -0.663995 0
M  V30 2770 H 266.611 -0.616369 -1.95095 0
M  V30 2771 H 266.621 0.686206 -4.02188 0
M  V30 2772 H 265.296 -0.460739 -4.1334 0
M  V30 2773 H 263.873 1.2611 -3.50928 0
M  V30 2774 N 266.058 1.56714 -0.166846 0
M  V30 2775 C 267.021 2.16539 0.751232 0
M  V30 2776 C 268.021 1.11228 1.16125 0
M  V30 2777 O 269.211 1.36765 1.07894 0
M  V30 2778 C 266.343 2.74462 2.02196 0
M  V30 2779 H 267.536 2.99013 0.230499 0
M  V30 2780 H 265.089 1.56081 0.0826982 0
M  V30 2781 H 265.824 1.95709 2.58589 0
M  V30 2782 H 265.609 3.51527 1.73698 0
M  V30 2783 H 267.099 3.20489 2.67725 0
M  V30 2784 N 267.536 -0.106894 1.57237 0
M  V30 2785 C 268.761 -0.830287 1.90055 0
M  V30 2786 C 269.186 -1.72064 0.75998 0
M  V30 2787 O 268.544 -1.78982 -0.288991 0
M  V30 2788 C 268.592 -1.6295 3.21683 0
M  V30 2789 O 267.696 -2.73748 3.08441 0
M  V30 2790 H 267.037 -0.228855 0.623315 0
M  V30 2791 H 269.567 -0.085658 2.04421 0
M  V30 2792 H 269.577 -2.01621 3.54701 0
M  V30 2793 H 268.252 -0.975989 4.04286 0
M  V30 2794 H 266.829 -2.38192 2.86913 0
M  V30 2795 N 269.014 -1.53014 -0.377408 0
M  V30 2796 C 269.977 -1.77957 -1.44444 0
M  V30 2797 C 270.977 -0.649763 -1.47087 0
M  V30 2798 O 272.167 -0.917897 -1.48055 0
M  V30 2799 C 269.299 -1.89089 -2.83651 0
M  V30 2800 H 270.492 -2.73243 -1.23606 0
M  V30 2801 H 268.045 -1.43912 -0.609844 0
M  V30 2802 H 268.78 -0.958293 -3.09818 0
M  V30 2803 H 268.565 -2.71254 -2.83132 0
M  V30 2804 H 270.055 -2.1002 -3.60945 0
M  V30 2805 N 270.492 0.636531 -1.44174 0
M  V30 2806 C 271.732 1.40781 -1.48189 0
M  V30 2807 C 272.096 1.91688 -0.10944 0
M  V30 2808 O 273.297 2.68789 -0.0242741 0
M  V30 2809 C 271.568 2.54575 -2.50851 0
M  V30 2810 S 273.127 3.4284 -2.73873 0
M  V30 2811 H 269.945 0.480345 -0.524204 0
M  V30 2812 H 272.547 0.737416 -1.81059 0
M  V30 2813 H 271.251 2.15478 -3.49281 0
M  V30 2814 H 270.782 3.26447 -2.19536 0
M  V30 2815 H 272.797 4.51846 -2.05059 0
M  V30 2816 N 271.97 1.30982 0.876444 0
M  V30 2817 C 272.92 1.14688 1.97055 0
M  V30 2818 C 273.904 0.0596593 1.60789 0
M  V30 2819 O 275.096 0.283892 1.74708 0
M  V30 2820 C 272.225 0.849627 3.3262 0
M  V30 2821 C 271.311 1.97752 3.75173 0
M  V30 2822 N 271.702 3.22384 3.89746 0
M  V30 2823 C 270 1.8758 4.04635 0
M  V30 2824 C 270.701 3.96121 4.25985 0
M  V30 2825 N 269.677 3.24237 4.36315 0
M  V30 2826 H 273.479 2.09204 2.06424 0
M  V30 2827 H 270.993 1.22445 1.06682 0
M  V30 2828 H 272.99 0.713895 4.10742 0
M  V30 2829 H 271.65 -0.087376 3.24582 0
M  V30 2830 H 272.661 3.57575 3.74647 0
M  V30 2831 H 269.338 1.01303 4.05024 0
M  V30 2832 H 270.728 5.03491 4.44911 0
M  V30 2833 N 273.449 -1.08991 1.13837 0
M  V30 2834 C 274.726 -1.77863 0.813876 0
M  V30 2835 C 275.106 -1.99375 -0.693746 0
M  V30 2836 O 274.454 -1.59875 -1.63255 0
M  V30 2837 C 274.664 -3.0986 1.60586 0
M  V30 2838 C 276.012 -3.84493 1.8014 0
M  V30 2839 O 277.036 -3.19624 1.57222 0
M  V30 2840 O 275.895 -5.00957 2.18413 0
M  V30 2841 H 272.989 -0.771589 0.297624 0
M  V30 2842 H 275.535 -1.15507 1.24323 0
M  V30 2843 H 274.307 -2.89715 2.63022 0
M  V30 2844 H 273.93 -3.79942 1.17173 0
M  V30 2845 N 274.927 -0.932562 -1.27047 0
M  V30 2846 C 276.175 -0.574422 -1.93765 0
M  V30 2847 C 276.496 0.887993 -1.73608 0
M  V30 2848 O 275.766 1.62999 -1.08665 0
M  V30 2849 H 274.346 -0.209451 -0.717035 0
M  V30 2850 H 277.008 -1.18601 -1.5466 0
M  V30 2851 H 276.104 -0.784841 -3.02071 0
M  V30 2852 N 276.405 1.4127 -0.698611 0
M  V30 2853 C 277.338 2.28195 0.0153898 0
M  V30 2854 C 278.316 1.42402 0.784883 0
M  V30 2855 O 279.5 1.71828 0.775067 0
M  V30 2856 C 276.627 3.22685 1.02918 0
M  V30 2857 C 275.673 4.25041 0.352501 0
M  V30 2858 S 276.506 5.27757 -0.907322 0
M  V30 2859 C 277.662 6.25812 0.104796 0
M  V30 2860 H 277.895 2.88403 -0.721858 0
M  V30 2861 H 275.428 1.46452 -0.488996 0
M  V30 2862 H 277.386 3.77655 1.60893 0
M  V30 2863 H 276.047 2.61566 1.73902 0
M  V30 2864 H 275.24 4.91437 1.11828 0
M  V30 2865 H 274.842 3.73682 -0.154254 0
M  V30 2866 H 277.134 6.70705 0.957103 0
M  V30 2867 H 278.077 7.06149 -0.525323 0
M  V30 2868 H 278.485 5.62615 0.460931 0
M  V30 2869 N 277.883 0.443576 1.51229 0
M  V30 2870 C 279.131 -0.120557 2.0174 0
M  V30 2871 C 279.452 -1.42665 1.32935 0
M  V30 2872 O 278.722 -1.9028 0.465866 0
M  V30 2873 H 277.302 -0.0475426 0.745486 0
M  V30 2874 H 279.964 0.587711 1.85828 0
M  V30 2875 H 279.06 -0.291972 3.10731 0
M  V30 2876 N 279.361 -1.56624 0.175154 0
M  V30 2877 C 280.607 -1.98061 -0.462976 0
M  V30 2878 C 280.962 -1.05949 -1.60601 0
M  V30 2879 O 280.255 -0.0999027 -1.91339 0
M  V30 2880 C 280.449 -3.43419 -0.989864 0
M  V30 2881 C 280.278 -4.49587 0.100583 0
M  V30 2882 C 279.048 -5.02281 0.551539 0
M  V30 2883 C 281.246 -5.06322 0.902369 0
M  V30 2884 N 279.228 -5.92088 1.62189 0
M  V30 2885 C 280.599 -5.92607 1.82256 0
M  V30 2886 C 282.654 -4.88811 0.947019 0
M  V30 2887 C 281.357 -6.63254 2.78364 0
M  V30 2888 C 283.383 -5.60182 1.89606 0
M  V30 2889 C 282.745 -6.46197 2.80372 0
M  V30 2890 H 278.844 -0.769833 -0.137409 0
M  V30 2891 H 281.428 -1.9273 0.276256 0
M  V30 2892 H 279.599 -3.49288 -1.6986 0
M  V30 2893 H 281.331 -3.7186 -1.59694 0
M  V30 2894 H 278.086 -4.73367 0.148537 0
M  V30 2895 H 278.51 -6.41696 2.15767 0
M  V30 2896 H 283.152 -4.22004 0.259304 0
M  V30 2897 H 280.87 -7.29271 3.48122 0
M  V30 2898 H 284.456 -5.48617 1.93676 0
M  V30 2899 H 283.336 -7.00453 3.52612 0
M  V30 2900 N 280.839 0.0985539 -1.57292 0
M  V30 2901 C 281.769 1.12064 -2.04851 0
M  V30 2902 C 282.75 1.41981 -0.936767 0
M  V30 2903 O 283.935 1.52071 -1.20781 0
M  V30 2904 C 281.065 2.44144 -2.47004 0
M  V30 2905 C 280.019 2.28643 -3.6181 0
M  V30 2906 C 279.345 3.65869 -3.89929 0
M  V30 2907 C 280.645 1.72986 -4.92822 0
M  V30 2908 H 282.339 0.724979 -2.9049 0
M  V30 2909 H 279.885 0.34729 -1.39749 0
M  V30 2910 H 281.838 3.15914 -2.78884 0
M  V30 2911 H 280.562 2.85639 -1.5836 0
M  V30 2912 H 279.221 1.59318 -3.30172 0
M  V30 2913 H 278.869 4.04885 -2.98458 0
M  V30 2914 H 278.569 3.56344 -4.67218 0
M  V30 2915 H 280.093 4.39112 -4.2428 0
M  V30 2916 H 281.507 2.34593 -5.23105 0
M  V30 2917 H 279.904 1.74229 -5.74251 0
M  V30 2918 H 280.974 0.689007 -4.7998 0
M  V30 2919 N 282.317 1.53212 0.369288 0
M  V30 2920 C 283.545 1.73119 1.13303 0
M  V30 2921 C 283.96 0.458455 1.83149 0
M  V30 2922 O 283.317 -0.568403 1.73423 0
M  V30 2923 C 283.368 2.89413 2.16616 0
M  V30 2924 O 283.089 4.11761 1.49614 0
M  V30 2925 C 284.59 3.21161 3.05566 0
M  V30 2926 H 281.81 0.579107 0.338934 0
M  V30 2927 H 284.354 1.99942 0.429338 0
M  V30 2928 H 282.509 2.64994 2.82589 0
M  V30 2929 H 282.923 4.76858 2.18419 0
M  V30 2930 H 284.397 4.05949 3.74045 0
M  V30 2931 H 284.874 2.36369 3.70171 0
M  V30 2932 H 285.48 3.47492 2.45213 0
M  V30 2933 N 283.795 -0.628877 1.44509 0
M  V30 2934 C 285.044 -1.38437 1.4669 0
M  V30 2935 C 285.357 -1.95322 0.104272 0
M  V30 2936 O 286.563 -2.715 0.00362163 0
M  V30 2937 C 285.019 -2.50659 2.5826 0
M  V30 2938 C 284.627 -2.00277 4.0074 0
M  V30 2939 C 286.371 -3.27844 2.69664 0
M  V30 2940 C 284.278 -3.09854 5.0373 0
M  V30 2941 H 283.208 -0.520245 0.545766 0
M  V30 2942 H 285.859 -0.676313 1.70582 0
M  V30 2943 H 284.241 -3.2405 2.27612 0
M  V30 2944 H 285.415 -1.33736 4.40966 0
M  V30 2945 H 283.73 -1.35901 3.93599 0
M  V30 2946 H 286.327 -4.09534 3.43781 0
M  V30 2947 H 286.67 -3.77471 1.75559 0
M  V30 2948 H 287.203 -2.61543 2.99733 0
M  V30 2949 H 283.942 -2.65168 5.99472 0
M  V30 2950 H 283.462 -3.7503 4.68095 0
M  V30 2951 H 285.141 -3.74592 5.27532 0
M  V30 2952 N 285.273 -1.31445 -0.869486 0
M  V30 2953 C 286.521 -1.20918 -1.61936 0
M  V30 2954 C 286.842 0.232683 -1.93607 0
M  V30 2955 O 286.112 1.15352 -1.58338 0
M  V30 2956 H 284.692 -0.44454 -0.600328 0
M  V30 2957 H 287.354 -1.64776 -1.0409 0
M  V30 2958 H 286.45 -1.78124 -2.56278 0
M  V30 2959 N 286.751 1.08385 -1.14413 0
M  V30 2960 C 288 1.80153 -0.907076 0
M  V30 2961 C 288.313 1.87176 0.567851 0
M  V30 2962 O 289.519 2.55359 0.922172 0
M  V30 2963 C 287.975 3.23687 -1.57336 0
M  V30 2964 C 287.583 3.24897 -3.08457 0
M  V30 2965 C 289.327 4.00136 -1.41744 0
M  V30 2966 C 287.234 4.6302 -3.67921 0
M  V30 2967 H 286.164 0.675139 -0.335714 0
M  V30 2968 H 288.815 1.21733 -1.37307 0
M  V30 2969 H 287.197 3.82234 -1.03505 0
M  V30 2970 H 288.371 2.76055 -3.68958 0
M  V30 2971 H 286.686 2.61943 -3.2369 0
M  V30 2972 H 289.283 5.02201 -1.83572 0
M  V30 2973 H 289.626 4.14709 -0.363576 0
M  V30 2974 H 290.159 3.48058 -1.92614 0
M  V30 2975 H 286.898 4.5365 -4.73161 0
M  V30 2976 H 286.418 5.12143 -3.12201 0
M  V30 2977 H 288.097 5.31994 -3.68227 0
M  V30 2978 N 288.23 0.939286 1.26551 0
M  V30 2979 C 289.455 0.602008 1.98471 0
M  V30 2980 C 289.88 -0.815624 1.69497 0
M  V30 2981 O 289.238 -1.54912 0.941905 0
M  V30 2982 C 289.286 0.848407 3.50477 0
M  V30 2983 O 288.39 -0.0804009 4.12322 0
M  V30 2984 H 287.731 0.23049 0.622712 0
M  V30 2985 H 290.261 1.2617 1.61066 0
M  V30 2986 H 290.271 0.768553 4.00696 0
M  V30 2987 H 288.946 1.88171 3.70897 0
M  V30 2988 H 287.523 0.0503508 3.72866 0
M  V30 2989 N 289.708 -1.40897 0.706093 0
M  V30 2990 C 290.956 -2.00657 0.241054 0
M  V30 2991 C 291.277 -1.56241 -1.16678 0
M  V30 2992 O 290.547 -0.79765 -1.78926 0
M  V30 2993 H 289.127 -0.742018 0.0861308 0
M  V30 2994 H 291.789 -1.72372 0.909604 0
M  V30 2995 H 290.885 -3.10958 0.266705 0
M  V30 2996 N 291.186 -0.45159 -1.50991 0
M  V30 2997 C 292.597 0.00818571 -1.86698 0
M  V30 2998 C 292.948 1.40661 -1.3678 0
M  V30 2999 O 292.073 2.0391 -0.724546 0
M  V30 3000 C 292.668 0.0216303 -3.38793 0
M  V30 3001 C 291.227 0.425865 -3.73983 0
M  V30 3002 C 290.374 -0.372163 -2.74791 0
M  V30 3003 H 293.325 -0.666785 -1.44013 0
M  V30 3004 H 293.346 0.828078 -3.7138 0
M  V30 3005 H 292.858 -0.996288 -3.75094 0
M  V30 3006 H 290.959 1.44886 -3.43277 0
M  V30 3007 H 291.072 0.140761 -4.78893 0
M  V30 3008 H 289.436 0.171498 -2.54122 0
M  V30 3009 H 290.219 -1.38922 -3.13935 0
M  V30 3010 N 292.664 1.56529 -0.183458 0
M  V30 3011 C 293.941 1.88959 0.50536 0
M  V30 3012 C 294.321 1.09523 1.80466 0
M  V30 3013 O 293.669 0.19278 2.27685 0
M  V30 3014 C 293.879 3.41162 0.73547 0
M  V30 3015 C 295.227 4.11155 1.06005 0
M  V30 3016 O 296.251 3.46548 0.823594 0
M  V30 3017 O 295.11 5.25318 1.50675 0
M  V30 3018 H 292.204 0.78441 0.261973 0
M  V30 3019 H 294.75 1.68231 -0.222802 0
M  V30 3020 H 293.522 3.90874 -0.182561 0
M  V30 3021 H 293.145 3.67543 1.51651 0
M  V30 3022 N 294.142 -0.090211 1.57342 0
M  V30 3023 C 295.419 -0.824761 1.77361 0
M  V30 3024 C 295.799 -1.96698 0.76637 0
M  V30 3025 O 295.147 -2.27586 -0.204179 0
M  V30 3026 C 295.357 -1.31481 3.23286 0
M  V30 3027 C 296.705 -1.75563 3.86604 0
M  V30 3028 O 297.729 -1.41093 3.27065 0
M  V30 3029 O 296.588 -2.39317 4.91314 0
M  V30 3030 H 293.682 -0.393776 0.727234 0
M  V30 3031 H 296.228 -0.0717138 1.69548 0
M  V30 3032 H 295 -0.496671 3.88135 0
M  V30 3033 H 294.623 -2.12973 3.35751 0
M  V30 3034 N 295.62 -1.53406 -0.361157 0
M  V30 3035 C 296.868 -1.69467 -1.10115 0
M  V30 3036 C 297.189 -0.451352 -1.89705 0
M  V30 3037 O 296.459 0.534636 -1.88463 0
M  V30 3038 H 295.039 -0.624749 -0.409508 0
M  V30 3039 H 297.701 -1.90609 -0.406699 0
M  V30 3040 H 296.797 -2.55774 -1.78847 0
M  V30 3041 N 297.098 0.621204 -1.44841 0
M  V30 3042 C 298.061 1.71459 -1.521 0
M  V30 3043 C 299.061 1.55696 -0.401933 0
M  V30 3044 O 300.251 1.61011 -0.664925 0
M  V30 3045 C 297.383 3.10624 -1.40447 0
M  V30 3046 H 298.576 1.66394 -2.49506 0
M  V30 3047 H 296.129 0.835745 -1.3208 0
M  V30 3048 H 296.864 3.21277 -0.441737 0
M  V30 3049 H 296.649 3.23473 -2.21602 0
M  V30 3050 H 298.139 3.90293 -1.4853 0
M  V30 3051 N 298.576 1.31904 0.862503 0
M  V30 3052 C 299.822 1.22197 1.61851 0
M  V30 3053 C 300.155 -0.217641 1.92977 0
M  V30 3054 O 299.43 -1.15264 1.56666 0
M  V30 3055 C 299.713 2.07378 2.94391 0
M  V30 3056 C 299.566 3.59678 2.70096 0
M  V30 3057 C 300.885 1.92891 3.95577 0
M  V30 3058 H 298.004 0.445255 0.587296 0
M  V30 3059 H 300.646 1.6177 0.99651 0
M  V30 3060 H 298.796 1.73758 3.47477 0
M  V30 3061 H 300.468 4.03472 2.23625 0
M  V30 3062 H 298.711 3.82735 2.04197 0
M  V30 3063 H 299.382 4.14595 3.64438 0
M  V30 3064 H 301.858 2.22327 3.51724 0
M  V30 3065 H 300.734 2.54781 4.86187 0
M  V30 3066 H 300.995 0.894315 4.3296 0
M  V30 3067 N 300.054 -1.07777 1.14986 0
M  V30 3068 C 301.017 -2.13041 0.845358 0
M  V30 3069 C 302.017 -1.60071 -0.152931 0
M  V30 3070 O 303.207 -1.74033 0.0761879 0
M  V30 3071 C 300.339 -3.39896 0.261383 0
M  V30 3072 H 301.532 -2.41485 1.77834 0
M  V30 3073 H 299.085 -1.23595 0.956757 0
M  V30 3074 H 299.82 -3.17091 -0.68 0
M  V30 3075 H 299.605 -3.79642 0.980514 0
M  V30 3076 H 301.095 -4.17548 0.0657687 0
M  V30 3077 N 301.532 -0.945985 -1.26051 0
M  V30 3078 C 302.778 -0.597002 -1.93814 0
M  V30 3079 C 303.111 0.862484 -1.73997 0
M  V30 3080 O 302.386 1.61769 -1.07986 0
M  V30 3081 C 302.669 -0.945937 -3.47454 0
M  V30 3082 C 302.522 -2.46052 -3.76535 0
M  V30 3083 C 303.841 -0.464785 -4.37639 0
M  V30 3084 H 300.96 -0.218366 -0.703907 0
M  V30 3085 H 303.602 -1.18107 -1.48831 0
M  V30 3086 H 301.752 -0.448902 -3.85898 0
M  V30 3087 H 303.424 -3.03065 -3.47778 0
M  V30 3088 H 301.667 -2.90194 -3.22444 0
M  V30 3089 H 302.338 -2.65517 -4.83947 0
M  V30 3090 H 304.814 -0.891016 -4.06448 0
M  V30 3091 H 303.69 -0.737712 -5.4392 0
M  V30 3092 H 303.951 0.635274 -4.37512 0
M  V30 3093 N 303.011 1.40521 -0.713556 0
M  V30 3094 C 303.941 2.33381 -0.0743864 0
M  V30 3095 C 304.922 1.52784 0.747735 0
M  V30 3096 O 306.107 1.81258 0.697071 0
M  V30 3097 C 303.237 3.36748 0.849598 0
M  V30 3098 C 302.191 4.27793 0.133247 0
M  V30 3099 C 301.517 5.21679 1.17281 0
M  V30 3100 C 302.817 5.12415 -1.01134 0
M  V30 3101 H 304.511 2.87081 -0.850007 0
M  V30 3102 H 302.057 1.38034 -0.410201 0
M  V30 3103 H 304.01 4.00648 1.30612 0
M  V30 3104 H 302.734 2.81439 1.65709 0
M  V30 3105 H 301.393 3.65342 -0.303426 0
M  V30 3106 H 301.041 4.62677 1.9733 0
M  V30 3107 H 300.741 5.83435 0.698397 0
M  V30 3108 H 302.265 5.88456 1.62947 0
M  V30 3109 H 303.679 5.69781 -0.634274 0
M  V30 3110 H 302.076 5.83203 -1.41399 0
M  V30 3111 H 303.146 4.48514 -1.84292 0
M  V30 3112 N 304.489 0.459591 1.5075 0
M  V30 3113 C 305.436 -0.340524 2.28274 0
M  V30 3114 C 306.406 -0.997371 1.32822 0
M  V30 3115 O 307.591 -1.01202 1.61749 0
M  V30 3116 C 304.731 -1.42317 3.14388 0
M  V30 3117 C 303.844 -0.782251 4.24859 0
M  V30 3118 C 302.979 -1.84182 4.98247 0
M  V30 3119 C 302.018 -1.18053 6.00608 0
M  V30 3120 N 301.155 -2.18244 6.67319 0
M  V30 3121 H 305.995 0.326899 2.96202 0
M  V30 3122 H 303.532 0.173057 1.46078 0
M  V30 3123 H 305.49 -2.06241 3.62658 0
M  V30 3124 H 304.12 -2.05992 2.4853 0
M  V30 3125 H 303.172 -0.0307404 3.80388 0
M  V30 3126 H 304.484 -0.259663 4.98124 0
M  V30 3127 H 303.638 -2.55714 5.50177 0
M  V30 3128 H 302.377 -2.39819 4.24662 0
M  V30 3129 H 301.382 -0.450776 5.47949 0
M  V30 3130 H 302.607 -0.631202 6.7616 0
M  V30 3131 H 300.553 -2.72919 5.96533 0
M  V30 3132 H 300.47 -1.70938 7.36421 0
M  V30 3133 H 301.738 -2.89191 7.23871 0
M  V30 3134 N 305.967 -1.56429 0.191757 0
M  V30 3135 C 307.197 -2.01574 -0.452928 0
M  V30 3136 C 307.605 -1.07107 -1.55964 0
M  V30 3137 O 306.948 -0.067534 -1.83576 0
M  V30 3138 C 307.01 -3.43121 -1.07278 0
M  V30 3139 C 306.674 -4.56879 -0.105214 0
M  V30 3140 C 307.671 -5.15379 0.684149 0
M  V30 3141 C 305.356 -5.023 0.00489824 0
M  V30 3142 C 307.35 -6.17746 1.57062 0
M  V30 3143 C 305.037 -6.04511 0.894935 0
M  V30 3144 C 306.035 -6.62108 1.67637 0
M  V30 3145 O 305.723 -7.62335 2.55149 0
M  V30 3146 H 305.455 -0.665554 -0.118379 0
M  V30 3147 H 308.009 -2.03245 0.296737 0
M  V30 3148 H 306.239 -3.38425 -1.87097 0
M  V30 3149 H 307.928 -3.72093 -1.62177 0
M  V30 3150 H 308.694 -4.81157 0.609365 0
M  V30 3151 H 304.573 -4.57168 -0.593156 0
M  V30 3152 H 308.117 -6.6263 2.181 0
M  V30 3153 H 304.014 -6.38157 0.970847 0
M  V30 3154 H 304.782 -7.79741 2.48892 0
M  V30 3155 N 307.445 0.0818655 -1.57387 0
M  V30 3156 C 308.393 1.11712 -2.04018 0
M  V30 3157 C 309.387 1.40683 -0.94364 0
M  V30 3158 O 310.593 1.40209 -1.12878 0
M  V30 3159 H 306.968 0.377542 -0.650358 0
M  V30 3160 H 308.939 0.697614 -2.90131 0
M  V30 3161 C 307.688 2.42537 -2.49141 0
M  V30 3162 H 307.011 2.21092 -3.33104 0
M  V30 3163 H 308.451 3.13446 -2.85531 0
M  V30 3164 C 306.91 3.0778 -1.37014 0
M  V30 3165 O 307.44 3.95436 -0.706621 0
M  V30 3166 N 305.646 2.68242 -1.11779 0
M  V30 3167 H 305.193 1.97052 -1.65917 0
M  V30 3168 H 305.151 3.1222 -0.369594 0
M  V30 3169 N 308.923 1.53595 0.353017 0
M  V30 3170 C 310.171 1.70049 1.09215 0
M  V30 3171 C 310.492 0.461406 1.89463 0
M  V30 3172 O 309.762 -0.524633 1.88744 0
M  V30 3173 H 308.342 0.626912 0.40619 0
M  V30 3174 H 311.004 1.90822 0.396585 0
M  V30 3175 H 310.1 2.56718 1.77488 0
M  V30 3176 N 310.401 -0.613514 1.45168 0
M  V30 3177 C 311.65 -1.36874 1.4815 0
M  V30 3178 C 311.963 -1.952 0.124982 0
M  V30 3179 O 313.169 -2.71481 0.0324176 0
M  V30 3180 C 311.625 -2.47905 2.60904 0
M  V30 3181 C 311.233 -1.96016 4.02842 0
M  V30 3182 C 312.977 -3.24965 2.73126 0
M  V30 3183 C 310.884 -3.04494 5.06988 0
M  V30 3184 H 309.814 -0.514428 0.551253 0
M  V30 3185 H 312.465 -0.658182 1.7129 0
M  V30 3186 H 310.847 -3.21618 2.31037 0
M  V30 3187 H 312.021 -1.29051 4.4236 0
M  V30 3188 H 310.336 -1.31719 3.95018 0
M  V30 3189 H 312.933 -4.05865 3.48106 0
M  V30 3190 H 313.276 -3.75588 1.79553 0
M  V30 3191 H 313.809 -2.5835 3.0249 0
M  V30 3192 H 310.548 -2.58795 6.0225 0
M  V30 3193 H 310.068 -3.70044 4.72046 0
M  V30 3194 H 311.747 -3.68976 5.31475 0
M  V30 3195 N 311.879 -1.3236 -0.855495 0
M  V30 3196 C 313.128 -1.22226 -1.60448 0
M  V30 3197 C 313.441 0.214733 -1.94418 0
M  V30 3198 O 314.647 0.437917 -2.67945 0
M  V30 3199 C 313.103 -2.14063 -2.89318 0
M  V30 3200 C 312.711 -3.62839 -2.62777 0
M  V30 3201 C 314.455 -2.12764 -3.67331 0
M  V30 3202 C 312.362 -4.4664 -3.87643 0
M  V30 3203 H 311.292 -0.453904 -0.602069 0
M  V30 3204 H 313.943 -1.57314 -0.944698 0
M  V30 3205 H 312.325 -1.71889 -3.5675 0
M  V30 3206 H 313.499 -4.1335 -2.03662 0
M  V30 3207 H 311.814 -3.66261 -1.98096 0
M  V30 3208 H 314.411 -2.72611 -4.59987 0
M  V30 3209 H 314.754 -1.11841 -4.00995 0
M  V30 3210 H 315.287 -2.53214 -3.06802 0
M  V30 3211 H 312.026 -5.48373 -3.5912 0
M  V30 3212 H 311.546 -4.0088 -4.46156 0
M  V30 3213 H 313.225 -4.59597 -4.55389 0
M  V30 3214 N 313.357 1.07166 -1.15556 0
M  V30 3215 C 314.585 1.83514 -0.955519 0
M  V30 3216 C 315 1.82163 0.49621 0
M  V30 3217 O 314.357 1.23441 1.34419 0
M  V30 3218 C 314.408 3.30515 -1.46432 0
M  V30 3219 O 314.129 3.31937 -2.85918 0
M  V30 3220 C 315.63 4.23625 -1.30603 0
M  V30 3221 H 312.85 0.578926 -0.339244 0
M  V30 3222 H 315.394 1.35265 -1.53374 0
M  V30 3223 H 313.549 3.76106 -0.928584 0
M  V30 3224 H 313.963 4.23794 -3.09029 0
M  V30 3225 H 315.437 5.24831 -1.71047 0
M  V30 3226 H 315.914 4.38485 -0.250441 0
M  V30 3227 H 316.52 3.83871 -1.83094 0
M  V30 3228 N 314.835 0.952656 1.25548 0
M  V30 3229 C 315.745 0.47782 2.29682 0
M  V30 3230 C 316.761 -0.453859 1.67977 0
M  V30 3231 O 317.937 -0.330587 1.98668 0
M  V30 3232 C 315.002 -0.238655 3.45878 0
M  V30 3233 C 314.063 0.730994 4.23031 0
M  V30 3234 C 313.296 0.0486165 5.33678 0
M  V30 3235 O 313.519 -1.16612 5.58353 0
M  V30 3236 O 312.453 0.733152 5.97418 0
M  V30 3237 H 316.279 1.34312 2.72386 0
M  V30 3238 H 313.864 0.719026 1.30959 0
M  V30 3239 H 315.746 -0.641774 4.16484 0
M  V30 3240 H 314.421 -1.07916 3.05181 0
M  V30 3241 H 313.328 1.18428 3.5486 0
M  V30 3242 H 314.661 1.53946 4.67506 0
M  V30 3243 N 316.313 -1.40141 0.720998 0
M  V30 3244 C 317.541 -2.05096 0.272656 0
M  V30 3245 C 317.956 -1.54334 -1.0875 0
M  V30 3246 O 317.313 -0.702211 -1.6845 0
M  V30 3247 C 317.364 -3.60636 0.249835 0
M  V30 3248 O 317.085 -4.09526 1.55629 0
M  V30 3249 C 318.586 -4.42772 -0.216396 0
M  V30 3250 H 315.806 -0.659897 0.121558 0
M  V30 3251 H 318.35 -1.79449 0.980723 0
M  V30 3252 H 316.505 -3.85232 -0.409237 0
M  V30 3253 H 316.919 -5.03758 1.4604 0
M  V30 3254 H 318.393 -5.51702 -0.181212 0
M  V30 3255 H 318.87 -4.20756 -1.25941 0
M  V30 3256 H 319.476 -4.23294 0.412596 0
M  V30 3257 N 317.792 -0.46758 -1.50504 0
M  V30 3258 C 319.041 0.0902868 -2.01498 0
M  V30 3259 C 319.354 1.411 -1.35463 0
M  V30 3260 O 320.56 2.0536 -1.77594 0
M  V30 3261 C 319.016 0.21142 -3.59278 0
M  V30 3262 C 318.624 -1.10065 -4.34269 0
M  V30 3263 C 320.368 0.721433 -4.18325 0
M  V30 3264 C 318.275 -0.943505 -5.83825 0
M  V30 3265 H 317.205 0.037517 -0.753066 0
M  V30 3266 H 319.856 -0.601943 -1.73346 0
M  V30 3267 H 318.238 0.967352 -3.84003 0
M  V30 3268 H 319.412 -1.86726 -4.21272 0
M  V30 3269 H 317.727 -1.5415 -3.86816 0
M  V30 3270 H 320.324 0.85598 -5.27804 0
M  V30 3271 H 320.667 1.71186 -3.79475 0
M  V30 3272 H 321.2 0.0229843 -3.97793 0
M  V30 3273 H 317.939 -1.90719 -6.27141 0
M  V30 3274 H 317.459 -0.217213 -5.99407 0
M  V30 3275 H 319.138 -0.608715 -6.4413 0
M  V30 3276 N 319.27 1.56325 -0.20005 0
M  V30 3277 C 320.217 2.1932 0.718833 0
M  V30 3278 C 321.187 1.14198 1.20615 0
M  V30 3279 O 322.372 1.42469 1.26914 0
M  V30 3280 C 319.512 2.86041 1.93066 0
M  V30 3281 C 318.625 4.05702 1.48425 0
M  V30 3282 C 317.76 4.60266 2.65196 0
M  V30 3283 C 316.799 5.72273 2.17185 0
M  V30 3284 N 315.936 6.21221 3.27152 0
M  V30 3285 H 320.776 2.97486 0.17489 0
M  V30 3286 H 318.313 1.46911 0.0745794 0
M  V30 3287 H 320.271 3.22897 2.64184 0
M  V30 3288 H 318.901 2.1043 2.44783 0
M  V30 3289 H 317.953 3.74475 0.668755 0
M  V30 3290 H 319.265 4.86699 1.09204 0
M  V30 3291 H 318.419 4.99453 3.4443 0
M  V30 3292 H 317.158 3.78386 3.07693 0
M  V30 3293 H 316.163 5.3261 1.36407 0
M  V30 3294 H 317.388 6.55974 1.75713 0
M  V30 3295 H 315.334 5.42263 3.69171 0
M  V30 3296 H 315.251 6.97284 2.92116 0
M  V30 3297 H 316.519 6.65063 4.06585 0
M  V30 3298 N 320.748 -0.0735177 1.57428 0
M  V30 3299 C 321.973 -0.789787 1.91774 0
M  V30 3300 C 322.398 -1.70413 0.796306 0
M  V30 3301 O 321.756 -1.79555 -0.250961 0
M  V30 3302 C 321.804 -1.5609 3.25067 0
M  V30 3303 O 320.908 -2.67144 3.14178 0
M  V30 3304 H 320.249 -0.215582 0.628029 0
M  V30 3305 H 322.779 -0.0422781 2.04556 0
M  V30 3306 H 322.789 -1.94052 3.58898 0
M  V30 3307 H 321.464 -0.890015 4.06265 0
M  V30 3308 H 320.041 -2.32052 2.91901 0
M  V30 3309 N 322.226 -1.5378 -0.344866 0
M  V30 3310 C 323.472 -1.72158 -1.0832 0
M  V30 3311 C 323.827 -0.478218 -1.86362 0
M  V30 3312 O 323.12 0.529152 -1.84148 0
M  V30 3313 C 323.314 -2.92407 -2.05506 0
M  V30 3314 C 323.143 -4.28318 -1.37017 0
M  V30 3315 C 321.913 -4.92832 -1.11558 0
M  V30 3316 C 324.111 -5.08086 -0.797071 0
M  V30 3317 N 322.093 -6.12619 -0.396358 0
M  V30 3318 C 323.464 -6.1965 -0.208336 0
M  V30 3319 C 325.519 -4.92986 -0.697787 0
M  V30 3320 C 324.222 -7.17763 0.470023 0
M  V30 3321 C 326.248 -5.91391 -0.033171 0
M  V30 3322 C 325.61 -7.02292 0.544599 0
M  V30 3323 H 321.709 -0.683017 -0.380805 0
M  V30 3324 H 324.293 -1.91211 -0.366961 0
M  V30 3325 H 322.464 -2.74857 -2.74423 0
M  V30 3326 H 324.196 -2.9951 -2.72169 0
M  V30 3327 H 320.951 -4.52362 -1.40234 0
M  V30 3328 H 321.375 -6.7698 -0.0515119 0
M  V30 3329 H 326.017 -4.07414 -1.13022 0
M  V30 3330 H 323.735 -8.0291 0.914351 0
M  V30 3331 H 327.321 -5.81784 0.0430009 0
M  V30 3332 H 326.201 -7.77129 1.05073 0
M  V30 3333 N 323.704 0.605807 -1.45491 0
M  V30 3334 C 325.12 0.926751 -1.29936 0
M  V30 3335 C 325.32 1.99896 -0.253706 0
M  V30 3336 O 324.376 2.50038 0.351737 0
M  V30 3337 C 325.689 1.36599 -2.67883 0
M  V30 3338 C 327.237 1.4801 -2.75793 0
M  V30 3339 C 327.712 1.95309 -4.14268 0
M  V30 3340 N 329.203 2.0254 -4.16571 0
M  V30 3341 C 329.938 2.40363 -5.20589 0
M  V30 3342 N 329.434 2.77143 -6.34952 0
M  V30 3343 N 331.227 2.40718 -5.07948 0
M  V30 3344 H 323.378 -0.102862 -2.12151 0
M  V30 3345 H 325.641 0.016639 -0.947854 0
M  V30 3346 H 325.347 0.652306 -3.45598 0
M  V30 3347 H 325.221 2.33215 -2.96463 0
M  V30 3348 H 327.608 2.1847 -1.98381 0
M  V30 3349 H 327.689 0.497041 -2.50925 0
M  V30 3350 H 327.333 1.25436 -4.92167 0
M  V30 3351 H 327.263 2.94532 -4.3653 0
M  V30 3352 H 329.754 1.76699 -3.34045 0
M  V30 3353 H 330.067 3.0489 -7.10114 0
M  V30 3354 H 328.412 2.74834 -6.3835 0
M  V30 3355 H 331.603 2.11392 -4.1765 0
M  V30 3356 H 331.776 2.69869 -5.89131 0
M  V30 3357 N 325.182 1.32811 0.848464 0
M  V30 3358 C 326.129 1.22265 1.95755 0
M  V30 3359 C 327.099 0.103413 1.65778 0
M  V30 3360 O 328.284 0.280033 1.88734 0
M  V30 3361 C 325.424 0.958014 3.31536 0
M  V30 3362 C 324.537 2.16262 3.73971 0
M  V30 3363 C 323.672 1.83295 4.98575 0
M  V30 3364 C 322.711 3.00041 5.33518 0
M  V30 3365 N 321.848 2.67125 6.49299 0
M  V30 3366 H 326.688 2.17128 2.04107 0
M  V30 3367 H 324.225 1.07982 0.998913 0
M  V30 3368 H 326.183 0.785052 4.09747 0
M  V30 3369 H 324.813 0.046159 3.22767 0
M  V30 3370 H 323.865 2.44565 2.91362 0
M  V30 3371 H 325.177 3.03572 3.95785 0
M  V30 3372 H 324.331 1.62586 5.84509 0
M  V30 3373 H 323.07 0.932078 4.7871 0
M  V30 3374 H 322.075 3.21374 4.46093 0
M  V30 3375 H 323.3 3.90869 5.55336 0
M  V30 3376 H 321.246 1.79586 6.3094 0
M  V30 3377 H 321.163 3.47965 6.71161 0
M  V30 3378 H 322.431 2.49861 7.3837 0
M  V30 3379 N 326.66 -1.06551 1.16123 0
M  V30 3380 C 328.076 -1.3142 0.905585 0
M  V30 3381 C 328.276 -1.96571 -0.442964 0
M  V30 3382 O 327.332 -2.23068 -1.18308 0
M  V30 3383 C 328.645 -2.19741 2.05267 0
M  V30 3384 C 330.193 -2.33165 2.08813 0
M  V30 3385 C 330.668 -3.24838 3.22868 0
M  V30 3386 N 332.159 -3.32421 3.22568 0
M  V30 3387 C 332.894 -4.0344 4.0746 0
M  V30 3388 N 332.39 -4.77003 5.02434 0
M  V30 3389 N 334.183 -3.99464 3.95456 0
M  V30 3390 H 326.334 -0.626548 2.02949 0
M  V30 3391 H 328.597 -0.338777 0.8854 0
M  V30 3392 H 328.303 -1.79142 3.02657 0
M  V30 3393 H 328.177 -3.20313 1.99198 0
M  V30 3394 H 330.564 -2.73013 1.12018 0
M  V30 3395 H 330.645 -1.3227 2.18948 0
M  V30 3396 H 330.289 -2.85708 4.19921 0
M  V30 3397 H 330.219 -4.25707 3.0997 0
M  V30 3398 H 332.71 -2.79994 2.53795 0
M  V30 3399 H 333.023 -5.28712 5.63634 0
M  V30 3400 H 331.368 -4.75992 5.06415 0
M  V30 3401 H 334.559 -3.4111 3.20564 0
M  V30 3402 H 334.732 -4.54544 4.61837 0
M  V30 3403 N 328.138 -0.959301 -1.25041 0
M  V30 3404 C 329.387 -0.612254 -1.92183 0
M  V30 3405 C 329.7 0.855347 -1.75907 0
M  V30 3406 O 330.906 1.31256 -2.37664 0
M  V30 3407 C 329.362 -1.04435 -3.44414 0
M  V30 3408 C 328.97 -2.53482 -3.69393 0
M  V30 3409 C 330.714 -0.770055 -4.17457 0
M  V30 3410 C 328.621 -2.90468 -5.15153 0
M  V30 3411 H 327.551 -0.225279 -0.719559 0
M  V30 3412 H 330.202 -1.16438 -1.41825 0
M  V30 3413 H 328.584 -0.4206 -3.9376 0
M  V30 3414 H 329.758 -3.20916 -3.30681 0
M  V30 3415 H 328.073 -2.78432 -3.0962 0
M  V30 3416 H 330.67 -1.02249 -5.24832 0
M  V30 3417 H 331.013 0.293611 -4.15263 0
M  V30 3418 H 331.546 -1.35437 -3.74034 0
M  V30 3419 H 328.285 -3.95871 -5.22462 0
M  V30 3420 H 327.805 -2.27711 -5.54894 0
M  V30 3421 H 329.484 -2.79914 -5.83315 0
M  V30 3422 N 329.616 1.39756 -0.72842 0
M  V30 3423 C 330.546 2.33289 -0.0991354 0
M  V30 3424 C 331.527 1.53568 0.731489 0
M  V30 3425 O 332.712 1.81987 0.677807 0
M  V30 3426 C 329.842 3.3763 0.813834 0
M  V30 3427 C 328.796 4.2791 0.0878663 0
M  V30 3428 C 328.122 5.22894 1.11741 0
M  V30 3429 C 329.422 5.11314 -1.06563 0
M  V30 3430 H 331.116 2.86163 -0.880408 0
M  V30 3431 H 328.662 1.37591 -0.424819 0
M  V30 3432 H 330.615 4.0201 1.26355 0
M  V30 3433 H 329.339 2.83181 1.62715 0
M  V30 3434 H 327.998 3.65 -0.342159 0
M  V30 3435 H 327.646 4.64744 1.92412 0
M  V30 3436 H 327.346 5.84143 0.636477 0
M  V30 3437 H 328.87 5.90151 1.56697 0
M  V30 3438 H 330.284 5.69076 -0.694671 0
M  V30 3439 H 328.681 5.81671 -1.47577 0
M  V30 3440 H 329.751 4.46534 -1.89038 0
M  V30 3441 N 331.094 0.475555 1.50254 0
M  V30 3442 C 332.51 0.12997 1.5907 0
M  V30 3443 C 332.71 -1.36385 1.48328 0
M  V30 3444 O 331.766 -2.13754 1.34407 0
M  V30 3445 C 333.079 0.684139 2.92814 0
M  V30 3446 C 334.627 0.647965 3.0622 0
M  V30 3447 C 335.102 1.17975 4.42545 0
M  V30 3448 N 336.593 1.13936 4.48969 0
M  V30 3449 C 337.328 1.52129 5.52851 0
M  V30 3450 N 336.824 1.97793 6.63965 0
M  V30 3451 N 338.617 1.43704 5.4342 0
M  V30 3452 H 330.768 1.44706 1.55479 0
M  V30 3453 H 333.031 0.598691 0.735033 0
M  V30 3454 H 332.737 1.73079 3.06164 0
M  V30 3455 H 332.611 0.130204 3.76975 0
M  V30 3456 H 334.998 -0.38979 2.92514 0
M  V30 3457 H 335.079 1.23876 2.23805 0
M  V30 3458 H 334.723 2.21616 4.57 0
M  V30 3459 H 334.653 0.565138 5.23559 0
M  V30 3460 H 337.144 0.804488 3.69238 0
M  V30 3461 H 337.457 2.25072 7.39299 0
M  V30 3462 H 335.802 2.01749 6.65073 0
M  V30 3463 H 338.993 1.07867 4.55502 0
M  V30 3464 H 339.166 1.73794 6.24259 0
M  V30 3465 N 332.573 -1.56217 0.208337 0
M  V30 3466 C 333.801 -2.02337 -0.43215 0
M  V30 3467 C 334.216 -1.08834 -1.54275 0
M  V30 3468 O 333.573 -0.0955462 -1.8225 0
M  V30 3469 C 333.624 -3.48072 -0.976138 0
M  V30 3470 O 333.345 -4.38007 0.0901621 0
M  V30 3471 C 334.846 -4.09773 -1.69119 0
M  V30 3472 H 332.066 -0.662385 -0.10718 0
M  V30 3473 H 334.61 -2.01966 0.320923 0
M  V30 3474 H 332.765 -3.49099 -1.67954 0
M  V30 3475 H 333.179 -5.23543 -0.316701 0
M  V30 3476 H 334.653 -5.13556 -2.02397 0
M  V30 3477 H 335.13 -3.53999 -2.59964 0
M  V30 3478 H 335.736 -4.12556 -1.03332 0
M  V30 3479 N 334.051 0.0651679 -1.57465 0
M  V30 3480 C 334.983 1.10359 -2.00882 0
M  V30 3481 C 335.996 1.346 -0.915788 0
M  V30 3482 O 337.185 1.32723 -1.1936 0
M  V30 3483 C 334.285 2.45312 -2.33828 0
M  V30 3484 C 333.458 2.40934 -3.65061 0
M  V30 3485 C 332.517 3.58047 -3.85602 0
M  V30 3486 O 331.543 3.39175 -4.57109 0
M  V30 3487 N 332.745 4.78637 -3.28462 0
M  V30 3488 H 335.51 0.733807 -2.90578 0
M  V30 3489 H 333.071 0.253719 -1.599 0
M  V30 3490 H 335.063 3.22314 -2.44737 0
M  V30 3491 H 333.633 2.74267 -1.49988 0
M  V30 3492 H 332.853 1.49273 -3.64844 0
M  V30 3493 H 334.141 2.35117 -4.51218 0
M  V30 3494 H 333.539 4.96872 -2.70433 0
M  V30 3495 H 332.096 5.53127 -3.44809 0
M  V30 3496 N 335.529 1.53961 0.336706 0
M  V30 3497 C 336.439 1.85432 1.43708 0
M  V30 3498 C 337.455 0.745053 1.57242 0
M  V30 3499 O 338.631 1.03804 1.72588 0
M  V30 3500 C 335.696 2.06349 2.78605 0
M  V30 3501 C 334.757 3.30191 2.74358 0
M  V30 3502 C 333.99 3.50101 4.02822 0
M  V30 3503 O 334.213 2.7371 5.00439 0
M  V30 3504 O 333.147 4.43547 4.06878 0
M  V30 3505 H 336.973 2.78975 1.20028 0
M  V30 3506 H 334.558 1.39701 0.52952 0
M  V30 3507 H 336.44 2.21513 3.58483 0
M  V30 3508 H 335.115 1.15995 3.02203 0
M  V30 3509 H 334.022 3.20425 1.93078 0
M  V30 3510 H 335.355 4.2056 2.55715 0
M  V30 3511 N 337.007 -0.598083 1.45811 0
M  V30 3512 C 338.232 -1.3881 1.54099 0
M  V30 3513 C 338.657 -1.8726 0.177578 0
M  V30 3514 O 338.015 -1.6069 -0.839541 0
M  V30 3515 C 338.063 -2.56217 2.53743 0
M  V30 3516 O 337.167 -3.5716 2.06182 0
M  V30 3517 H 336.508 -0.414024 0.519115 0
M  V30 3518 H 339.038 -0.726971 1.91249 0
M  V30 3519 H 339.048 -3.03337 2.72856 0
M  V30 3520 H 337.723 -2.20303 3.5276 0
M  V30 3521 H 336.3 -3.16624 1.96987 0
M  V30 3522 N 338.485 -1.33259 -0.841409 0
M  V30 3523 C 339.395 -1.25332 -1.98316 0
M  V30 3524 C 340.411 -0.164364 -1.73222 0
M  V30 3525 O 341.587 -0.387486 -1.97637 0
M  V30 3526 C 338.652 -0.990078 -3.32262 0
M  V30 3527 C 337.713 -2.16879 -3.70489 0
M  V30 3528 C 336.946 -1.91801 -4.98044 0
M  V30 3529 O 337.169 -0.867075 -5.63771 0
M  V30 3530 O 336.103 -2.78267 -5.33714 0
M  V30 3531 H 339.929 -2.21344 -2.07944 0
M  V30 3532 H 337.514 -1.1328 -0.974058 0
M  V30 3533 H 339.396 -0.860321 -4.12524 0
M  V30 3534 H 338.071 -0.0602155 -3.23644 0
M  V30 3535 H 336.978 -2.35407 -2.90748 0
M  V30 3536 H 338.311 -3.0819 -3.8377 0
M  V30 3537 N 339.963 1.05934 -1.16686 0
M  V30 3538 C 341.203 1.80382 -0.961345 0
M  V30 3539 C 341.567 1.85331 0.501643 0
M  V30 3540 O 342.768 2.55795 0.825986 0
M  V30 3541 C 341.039 3.20777 -1.57596 0
M  V30 3542 S 342.598 4.11795 -1.51559 0
M  V30 3543 H 339.416 0.621332 -0.345641 0
M  V30 3544 H 342.018 1.27157 -1.48497 0
M  V30 3545 H 340.722 3.14773 -2.63337 0
M  V30 3546 H 340.253 3.79078 -1.05182 0
M  V30 3547 H 342.268 4.93485 -0.518374 0
M  V30 3548 N 341.441 0.965919 1.2453 0
M  V30 3549 C 342.687 0.62776 1.92839 0
M  V30 3550 C 343.02 -0.834694 1.75347 0
M  V30 3551 O 342.295 -1.60031 1.10546 0
M  V30 3552 C 342.578 1.00109 3.45905 0
M  V30 3553 C 342.431 2.52011 3.72573 0
M  V30 3554 C 343.75 0.53435 4.36844 0
M  V30 3555 H 340.869 0.229537 0.700344 0
M  V30 3556 H 343.511 1.2046 1.46933 0
M  V30 3557 H 341.661 0.510238 3.85135 0
M  V30 3558 H 343.333 3.08559 3.42912 0
M  V30 3559 H 341.576 2.95287 3.17786 0
M  V30 3560 H 342.247 2.73183 4.79661 0
M  V30 3561 H 344.723 0.955565 4.04979 0
M  V30 3562 H 343.599 0.824152 5.42678 0
M  V30 3563 H 343.86 -0.565589 4.38467 0
M  V30 3564 N 342.919 -1.39368 0.735821 0
M  V30 3565 C 344.159 -2.02349 0.288813 0
M  V30 3566 C 344.523 -1.57127 -1.10341 0
M  V30 3567 O 345.724 -2.12312 -1.64854 0
M  V30 3568 C 343.995 -3.55288 0.387986 0
M  V30 3569 S 345.554 -4.38795 0.0209408 0
M  V30 3570 H 342.372 -0.701944 0.113115 0
M  V30 3571 H 344.974 -1.70164 0.962518 0
M  V30 3572 H 343.678 -3.85691 1.40252 0
M  V30 3573 H 343.209 -3.92227 -0.303512 0
M  V30 3574 H 345.224 -4.81595 -1.19503 0
M  V30 3575 N 344.397 -0.483516 -1.5 0
M  V30 3576 C 345.643 0.0672592 -2.02688 0
M  V30 3577 C 345.976 1.38247 -1.36387 0
M  V30 3578 O 345.251 1.88131 -0.493675 0
M  V30 3579 C 345.534 0.238109 -3.59312 0
M  V30 3580 C 345.387 -1.099 -4.36168 0
M  V30 3581 C 346.706 0.986916 -4.28892 0
M  V30 3582 H 343.825 0.0229696 -0.736642 0
M  V30 3583 H 346.467 -0.631527 -1.79197 0
M  V30 3584 H 344.617 0.8333 -3.79458 0
M  V30 3585 H 346.289 -1.73172 -4.27562 0
M  V30 3586 H 344.532 -1.69261 -3.99416 0
M  V30 3587 H 345.203 -0.932954 -5.44059 0
M  V30 3588 H 347.679 0.482302 -4.13295 0
M  V30 3589 H 346.555 1.07527 -5.38265 0
M  V30 3590 H 346.816 2.0265 -3.92919 0
M  V30 3591 N 345.875 1.56104 -0.216619 0
M  V30 3592 C 346.823 2.21434 0.712036 0
M  V30 3593 C 347.817 1.19218 1.20348 0
M  V30 3594 O 349.023 1.3731 1.16387 0
M  V30 3595 H 345.398 0.70992 0.248026 0
M  V30 3596 H 347.369 2.98083 0.137558 0
M  V30 3597 C 346.118 2.90434 1.91163 0
M  V30 3598 H 345.441 3.68842 1.54258 0
M  V30 3599 H 346.881 3.39552 2.5393 0
M  V30 3600 C 345.34 1.92635 2.76394 0
M  V30 3601 O 345.87 1.44017 3.74996 0
M  V30 3602 N 344.076 1.60392 2.42328 0
M  V30 3603 H 343.623 2.00122 1.622 0
M  V30 3604 H 343.581 0.952159 2.99635 0
M  V30 3605 N 347.353 -0.0568162 1.57498 0
M  V30 3606 C 348.601 -0.751617 1.87604 0
M  V30 3607 C 348.922 -1.77351 0.81066 0
M  V30 3608 O 348.192 -1.95254 -0.159018 0
M  V30 3609 H 346.772 -0.280583 0.692302 0
M  V30 3610 H 349.434 -0.0293483 1.94878 0
M  V30 3611 H 348.53 -1.25852 2.856 0
M  V30 3612 N 348.832 -1.54138 -0.328536 0
M  V30 3613 C 350.057 -1.76378 -1.09112 0
M  V30 3614 C 350.482 -0.508596 -1.81094 0
M  V30 3615 O 349.84 0.539598 -1.73084 0
M  V30 3616 C 349.888 -2.95358 -2.06872 0
M  V30 3617 O 348.992 -2.66556 -3.14677 0
M  V30 3618 H 348.333 -0.584614 -0.314838 0
M  V30 3619 H 350.863 -2.01146 -0.374348 0
M  V30 3620 H 350.873 -3.22566 -2.4983 0
M  V30 3621 H 349.548 -3.86385 -1.5388 0
M  V30 3622 H 348.125 -2.50282 -2.7643 0
M  V30 3623 N 350.31 0.590341 -1.46126 0
M  V30 3624 C 351.55 1.35995 -1.52593 0
M  V30 3625 C 351.914 1.91243 -0.170368 0
M  V30 3626 O 353.115 2.68576 -0.109775 0
M  V30 3627 C 351.386 2.46465 -2.58823 0
M  V30 3628 S 352.945 3.33953 -2.84641 0
M  V30 3629 H 349.763 0.463425 -0.53922 0
M  V30 3630 H 352.365 0.67944 -1.83314 0
M  V30 3631 H 351.069 2.04256 -3.5596 0
M  V30 3632 H 350.6 3.19297 -2.2981 0
M  V30 3633 H 352.615 4.45094 -2.19331 0
M  V30 3634 N 351.788 1.33704 0.83433 0
M  V30 3635 C 353.035 1.25417 1.58987 0
M  V30 3636 C 353.363 -0.178869 1.93676 0
M  V30 3637 O 352.618 -1.13723 1.59265 0
M  V30 3638 C 352.917 2.07926 2.90692 0
M  V30 3639 C 352.583 3.57066 2.75345 0
M  V30 3640 C 351.245 3.97724 2.70867 0
M  V30 3641 C 353.597 4.51817 2.59828 0
M  V30 3642 C 350.925 5.31344 2.48778 0
M  V30 3643 C 353.277 5.85604 2.39272 0
M  V30 3644 C 351.941 6.25439 2.33199 0
M  V30 3645 H 351.211 0.458934 0.581774 0
M  V30 3646 H 353.858 1.65335 0.966261 0
M  V30 3647 H 352.163 1.608 3.57282 0
M  V30 3648 H 353.86 1.98868 3.48213 0
M  V30 3649 H 350.45 3.24785 2.79665 0
M  V30 3650 H 354.634 4.21311 2.62319 0
M  V30 3651 H 349.89 5.61241 2.42526 0
M  V30 3652 H 354.064 6.58623 2.2625 0
M  V30 3653 H 351.691 7.28914 2.15843 0
M  V30 3654 N 353.266 -1.05314 1.17247 0
M  V30 3655 C 354.494 -1.81971 0.984593 0
M  V30 3656 C 354.909 -1.82929 -0.467166 0
M  V30 3657 O 354.266 -1.25564 -1.32438 0
M  V30 3658 C 354.317 -3.28143 1.51672 0
M  V30 3659 O 354.038 -3.27347 2.91163 0
M  V30 3660 C 355.539 -4.21493 1.37326 0
M  V30 3661 H 352.759 -0.573455 0.348411 0
M  V30 3662 H 355.303 -1.32808 1.55506 0
M  V30 3663 H 353.458 -3.74582 0.988302 0
M  V30 3664 H 353.872 -4.18824 3.15732 0
M  V30 3665 H 355.346 -5.22043 1.79375 0
M  V30 3666 H 355.823 -4.38031 0.320169 0
M  V30 3667 H 356.429 -3.80909 1.89178 0
M  V30 3668 N 354.744 -0.972509 -1.24016 0
M  V30 3669 C 355.993 -0.632603 -1.91523 0
M  V30 3670 C 356.306 0.836641 -1.76804 0
M  V30 3671 O 357.512 1.28728 -2.39043 0
M  V30 3672 C 355.968 -1.08082 -3.43287 0
M  V30 3673 C 355.576 -2.57386 -3.66683 0
M  V30 3674 C 357.32 -0.814288 -4.16617 0
M  V30 3675 C 355.227 -2.95915 -5.12043 0
M  V30 3676 H 354.157 -0.232898 -0.717129 0
M  V30 3677 H 356.808 -1.17936 -1.40582 0
M  V30 3678 H 355.19 -0.462339 -3.93292 0
M  V30 3679 H 356.364 -3.24405 -3.27258 0
M  V30 3680 H 354.679 -2.81701 -3.06649 0
M  V30 3681 H 357.276 -1.0781 -5.23718 0
M  V30 3682 H 357.619 0.24955 -4.15551 0
M  V30 3683 H 358.152 -1.39397 -3.72577 0
M  V30 3684 H 354.891 -4.0139 -5.18234 0
M  V30 3685 H 354.411 -2.33584 -5.52448 0
M  V30 3686 H 356.09 -2.86086 -5.80314 0
M  V30 3687 N 356.222 1.38976 -0.743202 0
M  V30 3688 C 357.155 2.28128 -0.0572165 0
M  V30 3689 C 358.133 1.44827 0.739182 0
M  V30 3690 O 359.317 1.74207 0.720009 0
M  V30 3691 C 356.444 3.25796 0.926001 0
M  V30 3692 C 355.49 4.25947 0.217099 0
M  V30 3693 S 356.323 5.24604 -1.07477 0
M  V30 3694 C 357.479 6.25829 -0.0943545 0
M  V30 3695 H 357.712 2.85961 -0.813246 0
M  V30 3696 H 355.245 1.44822 -0.535341 0
M  V30 3697 H 357.203 3.82583 1.48797 0
M  V30 3698 H 355.864 2.66966 1.65493 0
M  V30 3699 H 355.057 4.94746 0.961372 0
M  V30 3700 H 354.659 3.73002 -0.273059 0
M  V30 3701 H 356.951 6.73411 0.743239 0
M  V30 3702 H 357.894 7.0412 -0.749713 0
M  V30 3703 H 358.302 5.63797 0.281706 0
M  V30 3704 N 357.7 0.491464 1.49741 0
M  V30 3705 C 358.928 -0.0535151 2.06831 0
M  V30 3706 C 359.343 -1.31683 1.35296 0
M  V30 3707 O 358.7 -1.77402 0.42836 0
M  V30 3708 C 358.751 -0.320835 3.60073 0
M  V30 3709 O 358.472 0.892394 4.28915 0
M  V30 3710 C 359.973 -0.910519 4.33848 0
M  V30 3711 H 357.193 0.0161909 0.670805 0
M  V30 3712 H 359.737 0.68609 1.92647 0
M  V30 3713 H 357.892 -1.0104 3.73991 0
M  V30 3714 H 358.306 0.649401 5.20464 0
M  V30 3715 H 359.78 -1.04721 5.41976 0
M  V30 3716 H 360.257 -1.90589 3.95692 0
M  V30 3717 H 360.863 -0.258712 4.24512 0
M  V30 3718 N 359.178 -1.55987 0.224894 0
M  V30 3719 C 360.455 -1.90232 -0.455083 0
M  V30 3720 C 360.835 -1.14269 -1.77499 0
M  V30 3721 O 360.183 -0.253079 -2.27094 0
M  V30 3722 C 360.393 -3.42993 -0.644758 0
M  V30 3723 C 361.741 -4.13821 -0.950669 0
M  V30 3724 O 362.765 -3.4861 -0.731423 0
M  V30 3725 O 361.624 -5.29128 -1.36695 0
M  V30 3726 H 358.718 -0.79108 -0.241084 0
M  V30 3727 H 361.264 -1.67581 0.267327 0
M  V30 3728 H 360.036 -3.90252 0.28613 0
M  V30 3729 H 359.659 -3.71434 -1.41853 0
M  V30 3730 N 360.656 0.0484629 -1.57525 0
M  V30 3731 C 361.904 0.741657 -1.88 0
M  V30 3732 C 362.225 1.76918 -0.820054 0
M  V30 3733 O 361.495 1.95335 0.148661 0
M  V30 3734 H 360.075 0.276908 -0.69378 0
M  V30 3735 H 362.737 0.019013 -1.94891 0
M  V30 3736 H 361.833 1.24336 -2.86264 0
M  V30 3737 N 362.134 1.5431 0.320358 0
M  V30 3738 C 363.545 1.63872 0.894594 0
M  V30 3739 C 363.896 0.534847 1.88769 0
M  V30 3740 O 363.021 -0.331732 2.13842 0
M  V30 3741 C 363.616 2.97049 1.62934 0
M  V30 3742 C 362.175 3.08796 2.15226 0
M  V30 3743 C 361.322 2.59456 0.978671 0
M  V30 3744 H 364.273 1.58398 0.0978544 0
M  V30 3745 H 364.294 2.87388 2.49376 0
M  V30 3746 H 363.806 3.7737 0.906302 0
M  V30 3747 H 361.907 2.33156 2.90636 0
M  V30 3748 H 362.02 4.14649 2.40006 0
M  V30 3749 H 360.384 2.1543 1.35875 0
M  V30 3750 H 361.167 3.42237 0.269895 0
M  V30 3751 N 363.613 -0.582584 1.46437 0
M  V30 3752 C 364.838 -1.37168 1.55563 0
M  V30 3753 C 365.263 -1.87061 0.19743 0
M  V30 3754 O 364.621 -1.61572 -0.822451 0
M  V30 3755 C 364.669 -2.53511 2.56446 0
M  V30 3756 O 363.773 -3.54953 2.09958 0
M  V30 3757 H 363.114 -0.408494 0.523477 0
M  V30 3758 H 365.644 -0.706646 1.9201 0
M  V30 3759 H 365.654 -3.00426 2.76058 0
M  V30 3760 H 364.329 -2.16549 3.55076 0
M  V30 3761 H 362.906 -3.14516 2.00334 0
M  V30 3762 N 365.091 -1.34144 -0.827227 0
M  V30 3763 C 366.039 -1.25364 -1.95925 0
M  V30 3764 C 367.033 -0.152608 -1.68711 0
M  V30 3765 O 368.239 -0.317311 -1.77181 0
M  V30 3766 H 364.614 -0.389342 -0.643364 0
M  V30 3767 H 366.585 -2.21045 -2.00454 0
M  V30 3768 C 365.334 -1.02158 -3.32354 0
M  V30 3769 H 364.657 -1.86111 -3.5384 0
M  V30 3770 H 366.097 -1.00048 -4.12027 0
M  V30 3771 C 364.556 0.275244 -3.35774 0
M  V30 3772 O 365.086 1.27806 -3.80826 0
M  V30 3773 N 363.292 0.306853 -2.88975 0
M  V30 3774 H 362.839 -0.509777 -2.52506 0
M  V30 3775 H 362.797 1.17432 -2.91646 0
M  V30 3776 N 366.569 1.04691 -1.17803 0
M  V30 3777 C 367.817 1.7743 -0.967617 0
M  V30 3778 C 368.138 1.88359 0.504574 0
M  V30 3779 O 367.408 1.40402 1.36617 0
M  V30 3780 H 365.988 0.657242 -0.355024 0
M  V30 3781 H 368.65 1.2638 -1.48371 0
M  V30 3782 H 367.746 2.78924 -1.40027 0
M  V30 3783 N 368.047 0.979072 1.23499 0
M  V30 3784 C 369.458 0.684391 1.73704 0
M  V30 3785 C 369.809 -0.799448 1.79174 0
M  V30 3786 O 368.934 -1.62531 1.42873 0
M  V30 3787 C 369.529 1.23564 3.15464 0
M  V30 3788 C 368.088 0.99063 3.6313 0
M  V30 3789 C 367.235 1.36416 2.41425 0
M  V30 3790 H 370.186 1.15307 1.09041 0
M  V30 3791 H 370.207 0.607417 3.7562 0
M  V30 3792 H 369.719 2.31561 3.1145 0
M  V30 3793 H 367.82 -0.0733136 3.72528 0
M  V30 3794 H 367.933 1.64427 4.5 0
M  V30 3795 H 366.297 0.782616 2.42378 0
M  V30 3796 H 367.08 2.45387 2.40083 0
M  V30 3797 N 369.525 -1.3858 0.750561 0
M  V30 3798 C 370.488 -2.28836 0.129152 0
M  V30 3799 C 371.488 -1.47045 -0.650714 0
M  V30 3800 O 372.678 -1.6753 -0.477428 0
M  V30 3801 C 369.81 -3.30751 -0.825622 0
M  V30 3802 H 371.003 -2.85294 0.924516 0
M  V30 3803 H 368.556 -1.47489 0.517376 0
M  V30 3804 H 369.291 -2.79378 -1.64677 0
M  V30 3805 H 369.076 -3.91177 -0.268852 0
M  V30 3806 H 370.566 -3.98249 -1.2565 0
M  V30 3807 N 371.003 -0.499398 -1.49478 0
M  V30 3808 C 372.228 0.044722 -2.07352 0
M  V30 3809 C 372.653 1.30207 -1.35749 0
M  V30 3810 O 372.011 1.76516 -0.413732 0
M  V30 3811 C 372.059 0.283013 -3.59488 0
M  V30 3812 O 371.163 1.35804 -3.89398 0
M  V30 3813 H 370.504 -0.0255147 -0.66351 0
M  V30 3814 H 373.034 -0.698561 -1.92305 0
M  V30 3815 H 373.044 0.515007 -4.04737 0
M  V30 3816 H 371.719 -0.635636 -4.11014 0
M  V30 3817 H 370.296 1.11113 -3.55961 0
M  V30 3818 N 372.481 1.55866 -0.233164 0
M  V30 3819 C 373.711 2.02704 0.399325 0
M  V30 3820 C 374.119 1.11204 1.53069 0
M  V30 3821 O 373.462 0.116182 1.83332 0
M  V30 3822 C 373.524 3.45844 0.981429 0
M  V30 3823 C 373.188 4.56997 -0.0159561 0
M  V30 3824 C 374.185 5.13384 -0.820552 0
M  V30 3825 C 371.87 5.0211 -0.138072 0
M  V30 3826 C 373.864 6.13365 -1.73386 0
M  V30 3827 C 371.551 6.01926 -1.0549 0
M  V30 3828 C 372.549 6.57431 -1.85132 0
M  V30 3829 O 372.237 7.55302 -2.75272 0
M  V30 3830 H 371.969 0.668459 0.100692 0
M  V30 3831 H 374.523 2.02387 -0.35052 0
M  V30 3832 H 372.753 3.43267 1.78058 0
M  V30 3833 H 374.442 3.76262 1.52255 0
M  V30 3834 H 375.208 4.79372 -0.736721 0
M  V30 3835 H 371.087 4.5858 0.471737 0
M  V30 3836 H 374.631 6.56614 -2.35592 0
M  V30 3837 H 370.528 6.35359 -1.1397 0
M  V30 3838 H 371.296 7.72867 -2.69477 0
M  V30 3839 N 373.959 -0.0401083 1.57549 0
M  V30 3840 C 375.375 -0.395556 1.54621 0
M  V30 3841 C 375.575 -1.77281 0.957799 0
M  V30 3842 O 374.631 -2.45888 0.574031 0
M  V30 3843 C 375.944 -0.307535 2.99123 0
M  V30 3844 C 377.492 -0.385425 3.10618 0
M  V30 3845 C 377.967 -0.326973 4.56831 0
M  V30 3846 N 379.458 -0.386102 4.61588 0
M  V30 3847 C 380.193 -0.363591 5.72246 0
M  V30 3848 N 379.689 -0.29402 6.92176 0
M  V30 3849 N 381.482 -0.412503 5.60584 0
M  V30 3850 H 373.633 0.861325 1.94152 0
M  V30 3851 H 375.896 0.326445 0.890021 0
M  V30 3852 H 375.602 0.638461 3.45856 0
M  V30 3853 H 375.476 -1.10552 3.60636 0
M  V30 3854 H 377.863 -1.32185 2.63839 0
M  V30 3855 H 377.944 0.44171 2.51957 0
M  V30 3856 H 377.588 0.605738 5.04275 0
M  V30 3857 H 377.518 -1.17207 5.13391 0
M  V30 3858 H 380.009 -0.442832 3.75296 0
M  V30 3859 H 380.322 -0.28164 7.72287 0
M  V30 3860 H 378.667 -0.260232 6.94513 0
M  V30 3861 H 381.858 -0.464769 4.65787 0
M  V30 3862 H 382.031 -0.391492 6.46816 0
M  V30 3863 N 375.437 -1.54477 -0.31217 0
M  V30 3864 C 376.686 -1.72438 -1.04633 0
M  V30 3865 C 376.999 -0.511163 -1.88803 0
M  V30 3866 O 378.205 -0.572341 -2.65399 0
M  V30 3867 C 376.661 -3.05043 -1.9099 0
M  V30 3868 C 376.269 -4.33806 -1.11877 0
M  V30 3869 C 378.013 -3.32364 -2.64073 0
M  V30 3870 C 375.92 -5.57467 -1.97445 0
M  V30 3871 H 374.85 -0.642647 -0.394361 0
M  V30 3872 H 377.501 -1.80966 -0.303929 0
M  V30 3873 H 375.883 -2.90451 -2.69173 0
M  V30 3874 H 377.057 -4.59199 -0.383843 0
M  V30 3875 H 375.372 -4.13336 -0.504252 0
M  V30 3876 H 377.969 -4.21951 -3.28423 0
M  V30 3877 H 378.312 -2.50745 -3.32314 0
M  V30 3878 H 378.845 -3.47875 -1.92944 0
M  V30 3879 H 375.584 -6.41722 -1.33692 0
M  V30 3880 H 375.104 -5.36277 -2.6864 0
M  V30 3881 H 376.783 -5.94303 -2.5576 0
M  V30 3882 N 376.915 0.57481 -1.46744 0
M  V30 3883 C 378.162 1.33272 -1.52462 0
M  V30 3884 C 378.49 1.93669 -0.179572 0
M  V30 3885 O 377.745 1.7743 0.825664 0
M  V30 3886 C 378.044 2.476 -2.57738 0
M  V30 3887 C 377.71 2.05146 -4.01529 0
M  V30 3888 C 376.372 1.93284 -4.40676 0
M  V30 3889 C 378.724 1.72506 -4.91824 0
M  V30 3890 C 376.052 1.47049 -5.67973 0
M  V30 3891 C 378.404 1.27748 -6.19567 0
M  V30 3892 C 377.068 1.14468 -6.57612 0
M  V30 3893 H 376.338 0.487678 -0.557899 0
M  V30 3894 H 378.985 0.646456 -1.80259 0
M  V30 3895 H 377.29 3.21708 -2.23632 0
M  V30 3896 H 378.987 3.05807 -2.5939 0
M  V30 3897 H 375.577 2.15316 -3.7059 0
M  V30 3898 H 379.761 1.80552 -4.62293 0
M  V30 3899 H 375.017 1.35417 -5.96215 0
M  V30 3900 H 379.191 1.01547 -6.88957 0
M  V30 3901 H 376.818 0.78419 -7.56145 0
M  V30 3902 N 378.394 1.34581 0.820102 0
M  V30 3903 C 379.341 1.2639 1.93117 0
M  V30 3904 C 380.311 0.138554 1.65521 0
M  V30 3905 O 381.496 0.320004 1.88097 0
M  V30 3906 C 378.636 1.02812 3.29429 0
M  V30 3907 C 377.749 2.24146 3.693 0
M  V30 3908 C 376.884 1.93829 4.94574 0
M  V30 3909 C 375.923 3.1129 5.27034 0
M  V30 3910 N 375.06 2.80838 6.43486 0
M  V30 3911 H 379.9 2.21408 1.99455 0
M  V30 3912 H 377.437 1.10077 0.975784 0
M  V30 3913 H 379.395 0.871788 4.0799 0
M  V30 3914 H 378.025 0.114612 3.22596 0
M  V30 3915 H 377.077 2.50691 2.86109 0
M  V30 3916 H 378.389 3.11899 3.89257 0
M  V30 3917 H 377.543 1.74948 5.80929 0
M  V30 3918 H 376.282 1.03341 4.76626 0
M  V30 3919 H 375.287 3.30764 4.39175 0
M  V30 3920 H 376.512 4.02561 5.4692 0
M  V30 3921 H 374.458 1.92929 6.26988 0
M  V30 3922 H 374.375 3.62123 6.63629 0
M  V30 3923 H 375.643 2.65467 7.32903 0
M  V30 3924 N 379.872 -1.04064 1.18357 0
M  V30 3925 C 381.121 -1.76662 0.973313 0
M  V30 3926 C 381.434 -1.89154 -0.497991 0
M  V30 3927 O 382.64 -2.58606 -0.826762 0
M  V30 3928 C 381.096 -3.17624 1.69242 0
M  V30 3929 C 380.704 -3.13225 3.20303 0
M  V30 3930 C 382.448 -3.946 1.56497 0
M  V30 3931 C 380.355 -4.49046 3.84853 0
M  V30 3932 H 379.285 -0.662214 0.36054 0
M  V30 3933 H 381.936 -1.16553 1.41731 0
M  V30 3934 H 380.318 -3.78129 1.1762 0
M  V30 3935 H 381.492 -2.62172 3.78949 0
M  V30 3936 H 379.807 -2.49749 3.33189 0
M  V30 3937 H 382.404 -4.95042 2.02084 0
M  V30 3938 H 382.747 -4.13074 0.517243 0
M  V30 3939 H 383.28 -3.4067 2.05399 0
M  V30 3940 H 380.019 -4.35777 4.89672 0
M  V30 3941 H 379.539 -5.00203 3.30994 0
M  V30 3942 H 381.218 -5.17961 3.87718 0
M  V30 3943 N 381.35 -0.985608 -1.22978 0
M  V30 3944 C 382.26 -0.538548 -2.28335 0
M  V30 3945 C 383.276 0.409163 -1.69121 0
M  V30 3946 O 384.452 0.277797 -1.99475 0
M  V30 3947 C 381.517 0.146867 -3.46389 0
M  V30 3948 C 380.578 -0.842896 -4.20944 0
M  V30 3949 C 379.811 -0.190095 -5.33361 0
M  V30 3950 O 380.034 1.01767 -5.61248 0
M  V30 3951 O 378.968 -0.891289 -5.95264 0
M  V30 3952 H 382.794 -1.41487 -2.68729 0
M  V30 3953 H 380.379 -0.753495 -1.29007 0
M  V30 3954 H 382.261 0.531125 -4.1804 0
M  V30 3955 H 380.936 0.997871 -3.07935 0
M  V30 3956 H 379.843 -1.27795 -3.51595 0
M  V30 3957 H 381.176 -1.66287 -4.6326 0
M  V30 3958 N 382.828 1.3818 -0.7579 0
M  V30 3959 C 383.775 2.30416 -0.133057 0
M  V30 3960 C 384.745 1.50398 0.704957 0
M  V30 3961 O 385.93 1.79014 0.660192 0
M  V30 3962 C 383.07 3.36834 0.750813 0
M  V30 3963 C 382.183 4.31879 -0.102297 0
M  V30 3964 C 381.318 5.25368 0.784979 0
M  V30 3965 C 380.357 6.12058 -0.0715046 0
M  V30 3966 N 379.494 6.97832 0.772972 0
M  V30 3967 H 384.334 2.83274 -0.925186 0
M  V30 3968 H 381.871 1.39461 -0.467866 0
M  V30 3969 H 383.829 3.97145 1.27794 0
M  V30 3970 H 382.459 2.85374 1.50868 0
M  V30 3971 H 381.511 3.72991 -0.747095 0
M  V30 3972 H 382.823 4.92921 -0.763552 0
M  V30 3973 H 381.977 5.90818 1.37911 0
M  V30 3974 H 380.716 4.64703 1.47996 0
M  V30 3975 H 379.721 5.456 -0.678272 0
M  V30 3976 H 380.946 6.74793 -0.763606 0
M  V30 3977 H 378.892 6.3971 1.45282 0
M  V30 3978 H 378.809 7.55812 0.168709 0
M  V30 3979 H 380.077 7.67687 1.35194 0
M  V30 3980 N 384.306 0.507319 1.49211 0
M  V30 3981 C 385.554 -0.0348839 2.0207 0
M  V30 3982 C 385.875 -1.36898 1.38866 0
M  V30 3983 O 385.145 -1.88133 0.546151 0
M  V30 3984 H 383.725 -0.0158812 0.746831 0
M  V30 3985 H 386.387 0.665998 1.83168 0
M  V30 3986 H 385.483 -0.159917 3.1169 0
M  V30 3987 N 385.784 -1.5574 0.241426 0
M  V30 3988 C 386.731 -2.21149 -0.660432 0
M  V30 3989 C 387.701 -1.17356 -1.17545 0
M  V30 3990 O 388.886 -1.45784 -1.23093 0
M  V30 3991 C 386.026 -2.91059 -1.85414 0
M  V30 3992 C 385.139 -4.09495 -1.37616 0
M  V30 3993 C 384.274 -4.67135 -2.529 0
M  V30 3994 C 383.313 -5.77831 -2.01936 0
M  V30 3995 N 382.45 -6.29677 -3.10566 0
M  V30 3996 H 387.29 -2.97845 -0.095955 0
M  V30 3997 H 384.827 -1.47057 -0.0356024 0
M  V30 3998 H 386.785 -3.29788 -2.5553 0
M  V30 3999 H 385.415 -2.16846 -2.39118 0
M  V30 4000 H 384.467 -3.76117 -0.569235 0
M  V30 4001 H 385.779 -4.89423 -0.962618 0
M  V30 4002 H 384.933 -5.08409 -3.31067 0
M  V30 4003 H 383.672 -3.86411 -2.97553 0
M  V30 4004 H 382.677 -5.36039 -1.22238 0
M  V30 4005 H 383.902 -6.60402 -1.58259 0
M  V30 4006 H 381.848 -5.5186 -3.54664 0
M  V30 4007 H 381.765 -7.04783 -2.73526 0
M  V30 4008 H 383.033 -6.75609 -3.88809 0
M  V30 4009 N 387.262 0.0317525 -1.57568 0
M  V30 4010 C 388.511 0.722131 -1.8833 0
M  V30 4011 C 388.824 1.76664 -0.839587 0
M  V30 4012 O 390.03 2.50942 -1.03635 0
M  V30 4013 C 388.486 1.33544 -3.34207 0
M  V30 4014 C 388.094 0.327415 -4.46802 0
M  V30 4015 C 389.838 2.00585 -3.7412 0
M  V30 4016 C 387.745 0.948915 -5.83738 0
M  V30 4017 H 386.675 0.273466 -0.702661 0
M  V30 4018 H 389.326 -0.0235811 -1.83485 0
M  V30 4019 H 387.708 2.13077 -3.33788 0
M  V30 4020 H 388.882 -0.441006 -4.58685 0
M  V30 4021 H 387.197 -0.240758 -4.15703 0
M  V30 4022 H 389.794 2.47932 -4.73744 0
M  V30 4023 H 390.137 2.82285 -3.05975 0
M  V30 4024 H 390.67 1.27831 -3.76702 0
M  V30 4025 H 387.409 0.171387 -6.55276 0
M  V30 4026 H 386.929 1.68724 -5.7558 0
M  V30 4027 H 388.608 1.45705 -6.3038 0
M  V30 4028 N 388.74 1.54641 0.303973 0
M  V30 4029 C 389.968 1.77768 1.05858 0
M  V30 4030 C 390.383 0.535722 1.8104 0
M  V30 4031 O 389.74 -0.494337 1.75677 0
M  V30 4032 C 389.791 2.9834 2.04146 0
M  V30 4033 O 389.512 4.17736 1.32015 0
M  V30 4034 C 391.013 3.33832 2.91669 0
M  V30 4035 H 388.233 0.592961 0.314067 0
M  V30 4036 H 390.777 2.01583 0.344149 0
M  V30 4037 H 388.932 2.76742 2.71096 0
M  V30 4038 H 389.346 4.85693 1.97998 0
M  V30 4039 H 390.82 4.21448 3.56491 0
M  V30 4040 H 391.297 2.51857 3.59812 0
M  V30 4041 H 391.903 3.57579 2.30254 0
M  V30 4042 N 390.218 -0.567019 1.47046 0
M  V30 4043 C 391.165 -1.67489 1.58796 0
M  V30 4044 C 392.135 -1.60399 0.43144 0
M  V30 4045 O 393.32 -1.79378 0.650233 0
M  V30 4046 C 390.46 -3.05821 1.59899 0
M  V30 4047 C 389.573 -3.2342 2.86397 0
M  V30 4048 C 388.708 -4.52093 2.789 0
M  V30 4049 C 387.747 -4.6309 4.00267 0
M  V30 4050 N 386.884 -5.83106 3.91064 0
M  V30 4051 H 391.724 -1.56785 2.53422 0
M  V30 4052 H 389.261 -0.763896 1.2571 0
M  V30 4053 H 391.219 -3.8591 1.58522 0
M  V30 4054 H 389.849 -3.15384 0.687929 0
M  V30 4055 H 388.901 -2.3683 2.97684 0
M  V30 4056 H 390.213 -3.27412 3.76301 0
M  V30 4057 H 389.367 -5.4043 2.75718 0
M  V30 4058 H 388.106 -4.50565 1.86662 0
M  V30 4059 H 387.111 -3.73168 4.03765 0
M  V30 4060 H 388.336 -4.66386 4.93621 0
M  V30 4061 H 386.282 -5.82546 3.01623 0
M  V30 4062 H 386.199 -5.88434 4.74638 0
M  V30 4063 H 387.467 -6.73831 3.91882 0
M  V30 4064 N 391.696 -1.35014 -0.812953 0
M  V30 4065 C 392.921 -1.31187 -1.60639 0
M  V30 4066 C 393.346 0.109382 -1.87782 0
M  V30 4067 O 392.704 1.07424 -1.46047 0
M  V30 4068 C 392.752 -2.11809 -2.91838 0
M  V30 4069 O 391.856 -1.49444 -3.8437 0
M  V30 4070 H 391.197 -0.450084 -0.488181 0
M  V30 4071 H 393.727 -1.77963 -1.00947 0
M  V30 4072 H 393.737 -2.23531 -3.41318 0
M  V30 4073 H 392.412 -3.15137 -2.71407 0
M  V30 4074 H 390.989 -1.46524 -3.42907 0
M  V30 4075 N 393.175 1.03435 -1.18907 0
M  V30 4076 C 394.424 1.76143 -0.982669 0
M  V30 4077 C 394.737 1.89416 0.487953 0
M  V30 4078 O 395.943 2.59041 0.813036 0
M  V30 4079 C 394.399 3.16722 -1.70924 0
M  V30 4080 C 394.007 3.11522 -3.21959 0
M  V30 4081 C 395.751 3.93764 -1.58588 0
M  V30 4082 C 393.658 4.46999 -3.87228 0
M  V30 4083 H 392.588 0.660292 -0.364047 0
M  V30 4084 H 395.239 1.158 -1.42347 0
M  V30 4085 H 393.621 3.775 -1.19623 0
M  V30 4086 H 394.795 2.60158 -3.80335 0
M  V30 4087 H 393.11 2.47978 -3.34508 0
M  V30 4088 H 395.707 4.93963 -2.04707 0
M  V30 4089 H 396.05 4.12794 -0.539142 0
M  V30 4090 H 396.583 3.39576 -2.07203 0
M  V30 4091 H 393.322 4.33174 -4.91976 0
M  V30 4092 H 392.842 4.98441 -3.33642 0
M  V30 4093 H 394.521 5.15898 -3.90459 0
M  V30 4094 N 394.653 0.992116 1.22453 0
M  V30 4095 C 395.563 0.55065 2.28046 0
M  V30 4096 C 396.579 -0.400189 1.69335 0
M  V30 4097 O 397.755 -0.267215 1.99619 0
M  V30 4098 C 394.82 -0.128496 3.46462 0
M  V30 4099 C 393.881 0.865208 4.20491 0
M  V30 4100 C 393.114 0.218377 5.33253 0
M  V30 4101 O 393.337 -0.987894 5.6178 0
M  V30 4102 O 392.271 0.922845 5.94783 0
M  V30 4103 H 396.097 1.4291 2.67975 0
M  V30 4104 H 393.682 0.760326 1.28606 0
M  V30 4105 H 395.564 -0.508947 4.18315 0
M  V30 4106 H 394.239 -0.981526 3.0846 0
M  V30 4107 H 393.146 1.29658 3.50913 0
M  V30 4108 H 394.479 1.68741 4.62371 0
M  V30 4109 N 396.131 -1.37776 0.765217 0
M  V30 4110 C 397.061 -2.32945 0.160953 0
M  V30 4111 C 398.042 -1.55454 -0.690516 0
M  V30 4112 O 399.227 -1.83721 -0.629318 0
M  V30 4113 C 396.357 -3.39669 -0.724031 0
M  V30 4114 C 395.311 -4.27992 0.0256173 0
M  V30 4115 C 394.637 -5.25673 -0.978383 0
M  V30 4116 C 395.937 -5.08309 1.20082 0
M  V30 4117 H 397.631 -2.83728 0.955969 0
M  V30 4118 H 395.177 -1.36416 0.461149 0
M  V30 4119 H 397.13 -4.05219 -1.15652 0
M  V30 4120 H 395.854 -2.87396 -1.5515 0
M  V30 4121 H 394.513 -3.63964 0.438812 0
M  V30 4122 H 394.161 -4.69682 -1.80022 0
M  V30 4123 H 393.861 -5.85625 -0.481378 0
M  V30 4124 H 395.385 -5.94098 -1.40995 0
M  V30 4125 H 396.799 -5.67034 0.845307 0
M  V30 4126 H 395.196 -5.77554 1.62947 0
M  V30 4127 H 396.266 -4.41365 2.00811 0
M  V30 4128 N 397.609 -0.515225 -1.4894 0
M  V30 4129 C 398.886 0.0879088 -1.95402 0
M  V30 4130 C 399.266 1.52745 -1.45712 0
M  V30 4131 O 398.614 2.18238 -0.677093 0
M  V30 4132 C 398.824 -0.0141055 -3.48997 0
M  V30 4133 C 400.172 0.152646 -4.24326 0
M  V30 4134 O 401.196 0.0604025 -3.56149 0
M  V30 4135 O 400.055 0.34384 -5.45417 0
M  V30 4136 H 397.149 0.0874636 -0.822362 0
M  V30 4137 H 399.695 -0.578775 -1.59525 0
M  V30 4138 H 398.467 -1.01745 -3.77841 0
M  V30 4139 H 398.09 0.692091 -3.9153 0
M  V30 4140 N 399.087 1.5561 -0.249682 0
M  V30 4141 C 400.05 2.20217 0.635394 0
M  V30 4142 C 401.05 1.17227 1.10066 0
M  V30 4143 O 402.24 1.42292 1.00492 0
M  V30 4144 C 399.372 2.84794 1.87363 0
M  V30 4145 H 400.565 2.99814 0.0716752 0
M  V30 4146 H 398.118 1.563 -0.000153234 0
M  V30 4147 H 398.853 2.09142 2.47851 0
M  V30 4148 H 398.638 3.60241 1.5482 0
M  V30 4149 H 400.128 3.3423 2.5036 0
M  V30 4150 N 400.565 -0.0233959 1.57583 0
M  V30 4151 C 401.976 -0.56927 1.77809 0
M  V30 4152 C 402.327 -1.75284 0.881472 0
M  V30 4153 O 401.452 -2.1626 0.0777805 0
M  V30 4154 C 402.047 -1.03949 3.22459 0
M  V30 4155 C 400.606 -1.53084 3.43864 0
M  V30 4156 C 399.753 -0.471454 2.73263 0
M  V30 4157 H 402.704 0.202825 1.57399 0
M  V30 4158 H 402.725 -1.90661 3.29285 0
M  V30 4159 H 402.237 -0.177865 3.87692 0
M  V30 4160 H 400.338 -2.41414 2.83814 0
M  V30 4161 H 400.451 -1.57443 4.52491 0
M  V30 4162 H 398.815 -0.927788 2.37201 0
M  V30 4163 H 399.598 0.380808 3.41181 0
M  V30 4164 N 402.043 -1.548 -0.295768 0
M  V30 4165 C 402.991 -1.86874 -1.38495 0
M  V30 4166 C 403.985 -0.742938 -1.52239 0
M  V30 4167 O 405.191 -0.926999 -1.54294 0
M  V30 4168 H 401.566 -0.592786 -0.462719 0
M  V30 4169 H 403.537 -2.77904 -1.08682 0
M  V30 4170 C 402.286 -2.13732 -2.74252 0
M  V30 4171 H 401.609 -2.99835 -2.64459 0
M  V30 4172 H 403.049 -2.4011 -3.49461 0
M  V30 4173 C 401.508 -0.937539 -3.23592 0
M  V30 4174 O 402.038 -0.160665 -4.01379 0
M  V30 4175 N 400.244 -0.741478 -2.80981 0
M  V30 4176 H 399.791 -1.37489 -2.1784 0
M  V30 4177 H 399.749 0.0597103 -3.14343 0
M  V30 4178 N 403.521 0.559213 -1.47345 0
M  V30 4179 C 404.746 1.34676 -1.57725 0
M  V30 4180 C 405.171 1.86723 -0.227164 0
M  V30 4181 O 404.529 1.6286 0.796642 0
M  V30 4182 C 404.577 2.49399 -2.60447 0
M  V30 4183 O 403.681 3.51567 -2.15578 0
M  V30 4184 H 403.022 0.400115 -0.52991 0
M  V30 4185 H 405.552 0.676009 -1.93109 0
M  V30 4186 H 405.562 2.95996 -2.80803 0
M  V30 4187 H 404.237 2.10873 -3.58477 0
M  V30 4188 H 402.814 3.11289 -2.05313 0
M  V30 4189 N 404.999 1.35443 0.805782 0
M  V30 4190 C 405.949 1.24972 1.90699 0
M  V30 4191 C 406.933 0.144806 1.60247 0
M  V30 4192 O 408.125 0.376102 1.72958 0
M  V30 4193 C 405.254 1.02475 3.27649 0
M  V30 4194 C 404.34 2.17361 3.64164 0
M  V30 4195 N 404.731 3.42591 3.72109 0
M  V30 4196 C 403.029 2.08765 3.94123 0
M  V30 4197 C 403.73 4.18144 4.04389 0
M  V30 4198 N 402.706 3.4691 4.18515 0
M  V30 4199 H 406.508 2.19852 1.95044 0
M  V30 4200 H 404.022 1.27928 1.00041 0
M  V30 4201 H 406.019 0.930617 4.06381 0
M  V30 4202 H 404.679 0.0848009 3.24589 0
M  V30 4203 H 405.69 3.76932 3.55166 0
M  V30 4204 H 402.367 1.22629 3.99084 0
M  V30 4205 H 403.757 5.26367 4.17597 0
M  V30 4206 N 406.477 -1.02803 1.19454 0
M  V30 4207 C 407.707 -1.79581 1.02149 0
M  V30 4208 C 408.115 -1.84182 -0.432851 0
M  V30 4209 O 407.458 -1.28534 -1.31243 0
M  V30 4210 C 407.52 -3.25993 1.51554 0
M  V30 4211 C 407.184 -3.45025 2.99678 0
M  V30 4212 C 408.181 -3.35175 3.97434 0
M  V30 4213 C 405.866 -3.71212 3.38389 0
M  V30 4214 C 407.86 -3.51238 5.31893 0
M  V30 4215 C 405.547 -3.8692 4.73008 0
M  V30 4216 C 406.545 -3.76936 5.69569 0
M  V30 4217 O 406.233 -3.92179 7.01748 0
M  V30 4218 H 405.965 -0.571962 0.360327 0
M  V30 4219 H 408.519 -1.30367 1.58725 0
M  V30 4220 H 406.749 -3.76235 0.893543 0
M  V30 4221 H 408.438 -3.84368 1.30444 0
M  V30 4222 H 409.204 -3.14895 3.68872 0
M  V30 4223 H 405.083 -3.78075 2.6378 0
M  V30 4224 H 408.627 -3.43362 6.07247 0
M  V30 4225 H 404.524 -4.06699 5.01265 0
M  V30 4226 H 405.292 -4.09265 7.08833 0
M  V30 4227 N 407.956 -0.998596 -1.21925 0
M  V30 4228 C 408.866 -0.562736 -2.27751 0
M  V30 4229 C 409.882 0.391203 -1.69545 0
M  V30 4230 O 411.058 0.256625 -1.99758 0
M  V30 4231 C 408.123 0.11012 -3.46525 0
M  V30 4232 C 407.184 -0.887495 -4.20026 0
M  V30 4233 C 406.417 -0.246654 -5.3313 0
M  V30 4234 O 406.64 0.958088 -5.62296 0
M  V30 4235 O 405.574 -0.954374 -5.94286 0
M  V30 4236 H 409.4 -1.44329 -2.67213 0
M  V30 4237 H 406.985 -0.767135 -1.28201 0
M  V30 4238 H 408.867 0.486756 -4.18579 0
M  V30 4239 H 407.542 0.965154 -3.08976 0
M  V30 4240 H 406.449 -1.31517 -3.5022 0
M  V30 4241 H 407.782 -1.71191 -4.6147 0
M  V30 4242 N 409.434 1.37368 -0.772513 0
M  V30 4243 C 410.344 2.34053 -0.160081 0
M  V30 4244 C 411.36 1.60216 0.678728 0
M  V30 4245 O 412.536 1.92303 0.59847 0
M  V30 4246 C 409.601 3.3939 0.708182 0
M  V30 4247 C 408.662 4.29048 -0.147172 0
M  V30 4248 C 407.895 5.29354 0.679744 0
M  V30 4249 O 408.118 5.3723 1.91678 0
M  V30 4250 O 407.052 6.01835 0.0885444 0
M  V30 4251 H 410.878 2.88159 -0.959053 0
M  V30 4252 H 408.463 1.39543 -0.533685 0
M  V30 4253 H 410.345 4.03839 1.20384 0
M  V30 4254 H 409.02 2.8761 1.48533 0
M  V30 4255 H 407.927 3.67697 -0.689205 0
M  V30 4256 H 409.26 4.84134 -0.887423 0
M  V30 4257 N 410.912 0.523116 1.48665 0
M  V30 4258 C 412.152 -0.0115588 2.04397 0
M  V30 4259 C 412.516 -1.32225 1.39214 0
M  V30 4260 O 413.717 -1.94253 1.85793 0
M  V30 4261 C 411.988 -0.138119 3.57133 0
M  V30 4262 S 413.547 -0.623849 4.34343 0
M  V30 4263 H 410.365 0.00877706 0.710946 0
M  V30 4264 H 412.967 0.702116 1.82457 0
M  V30 4265 H 411.671 0.820748 4.02109 0
M  V30 4266 H 411.202 -0.876377 3.83514 0
M  V30 4267 H 413.217 -1.8895 4.58816 0
M  V30 4268 N 412.39 -1.55475 0.257931 0
M  V30 4269 C 413.615 -2.04064 -0.370488 0
M  V30 4270 C 414.04 -1.13565 -1.49948 0
M  V30 4271 O 413.398 -0.130781 -1.80828 0
M  V30 4272 C 413.446 -3.50554 -0.845237 0
M  V30 4273 O 412.55 -3.63173 -1.95394 0
M  V30 4274 H 411.891 -0.659257 -0.0792243 0
M  V30 4275 H 414.421 -2.00903 0.387212 0
M  V30 4276 H 414.431 -3.91588 -1.14555 0
M  V30 4277 H 413.106 -4.15896 -0.0191259 0
M  V30 4278 H 411.683 -3.34039 -1.65748 0
M  V30 4279 N 413.868 0.0150385 -1.57593 0
M  V30 4280 C 415.108 0.70768 -1.91758 0
M  V30 4281 C 415.472 1.71764 -0.857974 0
M  V30 4282 O 416.673 2.45956 -1.0844 0
M  V30 4283 C 414.944 1.34736 -3.3103 0
M  V30 4284 S 416.503 2.06721 -3.87056 0
M  V30 4285 H 413.321 0.234119 -0.671349 0
M  V30 4286 H 415.923 -0.0380373 -1.95463 0
M  V30 4287 H 414.627 0.59926 -4.06001 0
M  V30 4288 H 414.158 2.13133 -3.30663 0
M  V30 4289 H 416.173 3.34047 -3.66915 0
M  V30 4290 N 415.346 1.54954 0.287554 0
M  V30 4291 C 416.576 1.78622 1.03816 0
M  V30 4292 C 416.984 0.552451 1.80955 0
M  V30 4293 O 416.327 -0.487665 1.77109 0
M  V30 4294 C 416.389 2.94975 2.055 0
M  V30 4295 C 416.053 4.32565 1.47433 0
M  V30 4296 C 417.05 5.12096 0.897436 0
M  V30 4297 C 414.735 4.79195 1.50591 0
M  V30 4298 C 416.729 6.36383 0.359851 0
M  V30 4299 C 414.416 6.03441 0.964459 0
M  V30 4300 C 415.414 6.81872 0.392413 0
M  V30 4301 O 415.102 8.03777 -0.140788 0
M  V30 4302 H 414.834 0.599144 0.313053 0
M  V30 4303 H 417.388 2.02761 0.328225 0
M  V30 4304 H 415.618 2.66493 2.80211 0
M  V30 4305 H 417.307 3.06097 2.6657 0
M  V30 4306 H 418.073 4.77209 0.865841 0
M  V30 4307 H 413.952 4.18167 1.94055 0
M  V30 4308 H 417.496 6.97545 -0.0872951 0
M  V30 4309 H 413.393 6.37813 0.993246 0
M  V30 4310 H 414.161 8.18495 -0.0287617 0
M  V30 4311 N 416.824 -0.551391 1.4764 0
M  V30 4312 C 418.235 -1.13349 1.48354 0
M  V30 4313 C 418.586 -1.94709 0.241432 0
M  V30 4314 O 417.711 -2.06306 -0.653205 0
M  V30 4315 C 418.306 -2.0623 2.68802 0
M  V30 4316 C 416.865 -2.597 2.72457 0
M  V30 4317 C 416.012 -1.36201 2.41546 0
M  V30 4318 H 418.963 -0.337698 1.55065 0
M  V30 4319 H 418.984 -2.90196 2.46103 0
M  V30 4320 H 418.496 -1.46987 3.59188 0
M  V30 4321 H 416.597 -3.22724 1.86225 0
M  V30 4322 H 416.71 -3.00296 3.73308 0
M  V30 4323 H 415.074 -1.67068 1.9225 0
M  V30 4324 H 415.857 -0.787425 3.34147 0
M  V30 4325 N 418.302 -1.35869 -0.798587 0
M  V30 4326 C 419.579 -1.20145 -1.54352 0
M  V30 4327 C 419.959 0.216161 -2.0999 0
M  V30 4328 O 419.307 1.22068 -1.93162 0
M  V30 4329 C 419.517 -2.27602 -2.64572 0
M  V30 4330 C 420.865 -2.63811 -3.32699 0
M  V30 4331 O 421.889 -2.26576 -2.74849 0
M  V30 4332 O 420.748 -3.27866 -4.37226 0
M  V30 4333 H 417.842 -0.467248 -0.682355 0
M  V30 4334 H 420.388 -1.47574 -0.837859 0
M  V30 4335 H 419.16 -3.2265 -2.21388 0
M  V30 4336 H 418.783 -2.01488 -3.42766 0
M  V30 4337 N 419.78 1.02168 -1.19998 0
M  V30 4338 C 421.008 1.79296 -1.03249 0
M  V30 4339 C 421.423 1.84103 0.418502 0
M  V30 4340 O 420.78 1.29031 1.29063 0
M  V30 4341 C 420.831 3.24007 -1.60319 0
M  V30 4342 O 420.552 3.19512 -2.99739 0
M  V30 4343 C 422.053 4.17704 -1.48453 0
M  V30 4344 H 419.273 0.564016 -0.363493 0
M  V30 4345 H 421.817 1.28639 -1.58973 0
M  V30 4346 H 419.972 3.7183 -1.08727 0
M  V30 4347 H 420.386 4.10306 -3.26725 0
M  V30 4348 H 421.86 5.17104 -1.93153 0
M  V30 4349 H 422.337 4.37029 -0.436193 0
M  V30 4350 H 422.943 3.7576 -1.99211 0
M  V30 4351 N 421.258 1.00505 1.21394 0
M  V30 4352 C 422.506 0.686415 1.90086 0
M  V30 4353 C 422.827 -0.785264 1.7849 0
M  V30 4354 O 422.097 -1.56387 1.17983 0
M  V30 4355 H 420.677 0.2509 0.703604 0
M  V30 4356 H 423.339 1.27417 1.47482 0
M  V30 4357 H 422.435 0.959621 2.96981 0
M  V30 4358 N 422.737 -1.36956 0.779787 0
M  V30 4359 C 423.965 -2.03755 0.359398 0
M  V30 4360 C 424.38 -1.58807 -1.02106 0
M  V30 4361 O 423.737 -0.773024 -1.6532 0
M  V30 4362 C 423.788 -3.59251 0.402568 0
M  V30 4363 O 423.509 -4.02557 1.72858 0
M  V30 4364 C 425.01 -4.43291 -0.0284068 0
M  V30 4365 H 422.23 -0.654148 0.149437 0
M  V30 4366 H 424.774 -1.75128 1.05595 0
M  V30 4367 H 422.929 -3.86621 -0.245478 0
M  V30 4368 H 423.343 -4.97111 1.67275 0
M  V30 4369 H 424.817 -5.51975 0.0529466 0
M  V30 4370 H 425.294 -4.25719 -1.07982 0
M  V30 4371 H 425.9 -4.21163 0.591758 0
M  V30 4372 N 424.215 -0.530993 -1.48385 0
M  V30 4373 C 425.461 0.00274135 -2.028 0
M  V30 4374 C 425.794 1.33838 -1.40716 0
M  V30 4375 O 425.069 1.86465 -0.553277 0
M  V30 4376 C 425.352 0.123676 -3.59888 0
M  V30 4377 C 425.205 -1.2372 -4.3245 0
M  V30 4378 C 426.524 0.849967 -4.31814 0
M  V30 4379 H 423.643 -0.000477758 -0.737 0
M  V30 4380 H 426.285 -0.688217 -1.77098 0
M  V30 4381 H 424.435 0.712157 -3.81917 0
M  V30 4382 H 426.107 -1.86687 -4.21836 0
M  V30 4383 H 424.35 -1.81882 -3.93829 0
M  V30 4384 H 425.021 -1.10557 -5.40815 0
M  V30 4385 H 427.497 0.350572 -4.14621 0
M  V30 4386 H 426.373 0.903486 -5.41413 0
M  V30 4387 H 426.634 1.90047 -3.99167 0
M  V30 4388 N 425.693 1.55336 -0.266172 0
M  V30 4389 C 426.626 2.18256 0.666296 0
M  V30 4390 C 427.604 1.14064 1.1588 0
M  V30 4391 O 428.788 1.42546 1.23341 0
M  V30 4392 C 425.915 2.79867 1.90768 0
M  V30 4393 C 424.961 3.97283 1.55141 0
M  V30 4394 S 425.794 5.31694 0.637313 0
M  V30 4395 C 426.95 5.96769 1.88727 0
M  V30 4396 H 427.183 2.97008 0.131647 0
M  V30 4397 H 424.716 1.54317 -0.0504869 0
M  V30 4398 H 426.674 3.15996 2.62025 0
M  V30 4399 H 425.335 2.01025 2.41346 0
M  V30 4400 H 424.528 4.3905 2.4749 0
M  V30 4401 H 424.13 3.6253 0.919113 0
M  V30 4402 H 426.422 6.15458 2.83227 0
M  V30 4403 H 427.365 6.91752 1.51276 0
M  V30 4404 H 427.773 5.26034 2.04814 0
M  V30 4405 N 427.171 -0.0066808 1.57599 0
M  V30 4406 C 428.411 -0.697501 1.92131 0
M  V30 4407 C 428.775 -1.71306 0.867071 0
M  V30 4408 O 429.976 -2.45377 1.09743 0
M  V30 4409 C 428.247 -1.32978 3.3174 0
M  V30 4410 S 429.806 -2.04665 3.88146 0
M  V30 4411 H 426.624 -0.230555 0.672581 0
M  V30 4412 H 429.226 0.0484026 1.9544 0
M  V30 4413 H 427.93 -0.57772 4.06313 0
M  V30 4414 H 427.461 -2.11376 3.31789 0
M  V30 4415 H 429.476 -3.32097 3.68682 0
M  V30 4416 N 428.649 -1.55105 -0.279332 0
M  V30 4417 C 429.895 -1.75672 -1.01327 0
M  V30 4418 C 430.228 -0.552739 -1.86168 0
M  V30 4419 O 429.503 0.449827 -1.89227 0
M  V30 4420 C 429.786 -3.05825 -1.90114 0
M  V30 4421 C 429.639 -4.36565 -1.08309 0
M  V30 4422 C 430.958 -3.31975 -2.8893 0
M  V30 4423 H 428.077 -0.639149 -0.366957 0
M  V30 4424 H 430.719 -1.87833 -0.286154 0
M  V30 4425 H 428.869 -2.95588 -2.52111 0
M  V30 4426 H 430.541 -4.58751 -0.484314 0
M  V30 4427 H 428.784 -4.32076 -0.386362 0
M  V30 4428 H 429.455 -5.23946 -1.73737 0
M  V30 4429 H 431.931 -3.41963 -2.37067 0
M  V30 4430 H 430.807 -4.2432 -3.48201 0
M  V30 4431 H 431.068 -2.51309 -3.63725 0
M  V30 4432 N 430.127 0.543554 -1.4793 0
M  V30 4433 C 431.367 1.31072 -1.56843 0
M  V30 4434 C 431.731 1.90604 -0.231124 0
M  V30 4435 O 432.932 2.68091 -0.195165 0
M  V30 4436 C 431.203 2.38106 -2.66533 0
M  V30 4437 S 432.762 3.24729 -2.95122 0
M  V30 4438 H 429.58 0.446035 -0.553691 0
M  V30 4439 H 432.182 0.620777 -1.85382 0
M  V30 4440 H 430.886 1.92828 -3.62278 0
M  V30 4441 H 430.417 3.11824 -2.39852 0
M  V30 4442 H 432.432 4.37891 -2.3338 0
M  V30 4443 N 431.605 1.3629 0.791371 0
M  V30 4444 C 433.021 1.16661 1.08914 0
M  V30 4445 C 433.221 -0.0106266 2.01497 0
M  V30 4446 O 432.277 -0.676596 2.43266 0
M  V30 4447 C 433.59 2.47656 1.70549 0
M  V30 4448 C 435.138 2.54002 1.82899 0
M  V30 4449 C 435.613 3.85078 2.47949 0
M  V30 4450 N 437.104 3.86413 2.5542 0
M  V30 4451 C 437.839 4.84572 3.06557 0
M  V30 4452 N 437.335 5.93124 3.58016 0
M  V30 4453 N 439.128 4.71994 3.05251 0
M  V30 4454 H 431.279 2.11668 0.176238 0
M  V30 4455 H 433.542 0.937486 0.140796 0
M  V30 4456 H 433.248 3.34059 1.09989 0
M  V30 4457 H 433.122 2.63319 2.70079 0
M  V30 4458 H 435.509 1.68018 2.42598 0
M  V30 4459 H 435.59 2.42239 0.821808 0
M  V30 4460 H 435.234 4.71467 1.88895 0
M  V30 4461 H 435.164 3.94135 3.49235 0
M  V30 4462 H 437.655 3.07988 2.18979 0
M  V30 4463 H 437.968 6.63999 3.95381 0
M  V30 4464 H 436.313 5.96796 3.56173 0
M  V30 4465 H 439.504 3.86321 2.64336 0
M  V30 4466 H 439.677 5.48653 3.44796 0
M  V30 4467 N 433.083 -1.0153 1.20538 0
M  V30 4468 C 434.36 -1.72327 0.925343 0
M  V30 4469 C 434.74 -2.03383 -0.565547 0
M  V30 4470 O 434.088 -1.69934 -1.52757 0
M  V30 4471 C 434.298 -2.9902 1.79967 0
M  V30 4472 C 435.646 -3.72258 2.04228 0
M  V30 4473 O 436.67 -3.08979 1.77231 0
M  V30 4474 O 435.529 -4.86053 2.4983 0
M  V30 4475 H 432.623 -0.751099 0.346092 0
M  V30 4476 H 435.169 -1.07366 1.31417 0
M  V30 4477 H 433.941 -2.72402 2.80915 0
M  V30 4478 H 433.564 -3.71721 1.41099 0
M  V30 4479 N 434.561 -1.01147 -1.20859 0
M  V30 4480 C 435.509 -0.57059 -2.25493 0
M  V30 4481 C 436.503 0.388109 -1.64894 0
M  V30 4482 O 437.709 0.258592 -1.78133 0
M  V30 4483 H 434.084 -0.166191 -0.733406 0
M  V30 4484 H 436.055 -1.46411 -2.60012 0
M  V30 4485 C 434.804 0.0805241 -3.47607 0
M  V30 4486 H 434.127 -0.648156 -3.94511 0
M  V30 4487 H 435.567 0.352197 -4.22535 0
M  V30 4488 C 434.026 1.32175 -3.09889 0
M  V30 4489 O 434.556 2.41553 -3.20959 0
M  V30 4490 N 432.762 1.20392 -2.64488 0
M  V30 4491 H 432.309 0.313905 -2.5568 0
M  V30 4492 H 432.267 2.03541 -2.39621 0
M  V30 4493 N 436.039 1.36541 -0.78704 0
M  V30 4494 C 437.285 2.00044 -0.367938 0
M  V30 4495 C 437.64 1.61345 1.04812 0
M  V30 4496 O 436.933 0.856936 1.71368 0
M  V30 4497 C 437.127 3.54343 -0.466485 0
M  V30 4498 C 436.956 4.08029 -1.89058 0
M  V30 4499 C 435.726 4.38284 -2.51466 0
M  V30 4500 C 437.924 4.27954 -2.85236 0
M  V30 4501 N 435.906 4.77778 -3.85488 0
M  V30 4502 C 437.277 4.70227 -4.04088 0
M  V30 4503 C 439.332 4.10119 -2.82324 0
M  V30 4504 C 438.035 4.96532 -5.20432 0
M  V30 4505 C 440.061 4.37569 -3.97854 0
M  V30 4506 C 439.423 4.80095 -5.15449 0
M  V30 4507 H 435.522 0.760525 -0.182004 0
M  V30 4508 H 438.106 1.65589 -1.02413 0
M  V30 4509 H 436.277 3.88072 0.159606 0
M  V30 4510 H 438.009 4.04693 -0.0238577 0
M  V30 4511 H 434.764 4.27905 -2.02965 0
M  V30 4512 H 435.188 5.01813 -4.54437 0
M  V30 4513 H 439.83 3.76399 -1.92571 0
M  V30 4514 H 437.548 5.29134 -6.10773 0
M  V30 4515 H 441.134 4.25341 -3.96958 0
M  V30 4516 H 440.014 5.00925 -6.0336 0
M  V30 4517 N 437.518 0.538854 1.48102 0
M  V30 4518 C 438.468 -0.23907 2.26743 0
M  V30 4519 C 439.452 -0.901923 1.33245 0
M  V30 4520 O 440.644 -0.803263 1.57723 0
M  V30 4521 C 437.773 -1.2799 3.18549 0
M  V30 4522 C 436.859 -0.621388 4.19523 0
M  V30 4523 N 437.25 0.298004 5.04921 0
M  V30 4524 C 435.548 -0.877533 4.37282 0
M  V30 4525 C 436.249 0.678757 5.77726 0
M  V30 4526 N 435.225 0.0377881 5.43587 0
M  V30 4527 H 439.027 0.468096 2.90148 0
M  V30 4528 H 436.541 0.357497 1.58416 0
M  V30 4529 H 438.538 -1.851 3.73555 0
M  V30 4530 H 437.198 -1.98835 2.567 0
M  V30 4531 H 438.209 0.671126 5.13533 0
M  V30 4532 H 434.886 -1.57588 3.86616 0
M  V30 4533 H 436.276 1.43316 6.56437 0
M  V30 4534 N 438.996 -1.55193 0.274407 0
M  V30 4535 C 440.244 -1.99187 -0.341902 0
M  V30 4536 C 440.565 -1.16422 -1.56431 0
M  V30 4537 O 439.835 -0.253573 -1.94252 0
M  V30 4538 H 438.415 -0.735721 -0.129317 0
M  V30 4539 H 441.077 -1.91168 0.379578 0
M  V30 4540 H 440.173 -3.05629 -0.632253 0
M  V30 4541 N 440.474 -0.00167713 -1.576 0
M  V30 4542 C 441.699 0.69739 -1.95323 0
M  V30 4543 C 442.124 1.6642 -0.876706 0
M  V30 4544 O 441.482 1.80548 0.165007 0
M  V30 4545 C 441.53 1.40403 -3.32144 0
M  V30 4546 O 440.634 2.5185 -3.26566 0
M  V30 4547 H 439.975 0.185373 -0.637599 0
M  V30 4548 H 442.505 -0.0553665 -2.04525 0
M  V30 4549 H 442.515 1.76707 -3.67748 0
M  V30 4550 H 441.19 0.695167 -4.10049 0
M  V30 4551 H 439.767 2.17861 -3.0264 0
M  V30 4552 N 441.952 1.55251 0.271103 0
M  V30 4553 C 442.9 1.89054 1.35504 0
M  V30 4554 C 443.894 0.767064 1.51038 0
M  V30 4555 O 445.1 0.951429 1.528 0
M  V30 4556 H 441.475 0.600072 0.45323 0
M  V30 4557 H 443.446 2.79598 1.04247 0
M  V30 4558 C 442.195 2.18068 2.70817 0
M  V30 4559 H 441.518 3.04005 2.59656 0
M  V30 4560 H 442.958 2.4564 3.45597 0
M  V30 4561 C 441.417 0.988901 3.2206 0
M  V30 4562 O 441.947 0.224501 4.01072 0
M  V30 4563 N 440.153 0.786085 2.79766 0
M  V30 4564 H 439.7 1.40937 2.15626 0
M  V30 4565 H 439.658 -0.00969349 3.14399 0
M  V30 4566 N 443.43 -0.535701 1.48216 0
M  V30 4567 C 444.846 -0.863701 1.3421 0
M  V30 4568 C 445.046 -1.98458 0.34879 0
M  V30 4569 O 444.102 -2.51432 -0.23204 0
M  V30 4570 C 445.415 -1.23662 2.74095 0
M  V30 4571 C 446.963 -1.34683 2.82541 0
M  V30 4572 C 447.438 -1.75322 4.23115 0
M  V30 4573 N 448.929 -1.82434 4.2576 0
M  V30 4574 C 449.664 -2.15252 5.31464 0
M  V30 4575 N 449.16 -2.46533 6.47452 0
M  V30 4576 N 450.953 -2.16209 5.18855 0
M  V30 4577 H 443.104 0.203965 2.11418 0
M  V30 4578 H 445.367 0.0286033 0.947568 0
M  V30 4579 H 445.073 -0.486674 3.48316 0
M  V30 4580 H 444.947 -2.18805 3.07253 0
M  V30 4581 H 447.334 -2.08756 2.08579 0
M  V30 4582 H 447.415 -0.376756 2.5301 0
M  V30 4583 H 447.059 -1.01812 4.97591 0
M  V30 4584 H 446.989 -2.7337 4.50085 0
M  V30 4585 H 449.48 -1.6056 3.42095 0
M  V30 4586 H 449.793 -2.70662 7.23852 0
M  V30 4587 H 448.138 -2.44065 6.50736 0
M  V30 4588 H 451.329 -1.91224 4.2726 0
M  V30 4589 H 451.502 -2.41453 6.01335 0
M  V30 4590 N 444.908 -1.36708 -0.784132 0
M  V30 4591 C 446.319 -1.27947 -1.35965 0
M  V30 4592 C 446.67 0.0784013 -1.96043 0
M  V30 4593 O 445.795 0.979989 -1.92938 0
M  V30 4594 C 446.39 -2.31689 -2.47195 0
M  V30 4595 C 444.949 -2.26601 -3.00548 0
M  V30 4596 C 444.096 -2.16184 -1.73666 0
M  V30 4597 H 447.047 -1.4751 -0.585358 0
M  V30 4598 H 447.068 -1.95638 -3.26352 0
M  V30 4599 H 446.58 -3.30506 -2.03439 0
M  V30 4600 H 444.681 -1.31268 -3.48711 0
M  V30 4601 H 444.794 -3.19508 -3.57004 0
M  V30 4602 H 443.158 -1.62524 -1.96107 0
M  V30 4603 H 443.941 -3.16896 -1.32031 0
M  V30 4604 N 446.386 1.0089 -1.21074 0
M  V30 4605 C 447.632 1.7497 -1.03717 0
M  V30 4606 C 447.987 1.8764 0.425344 0
M  V30 4607 O 447.28 1.39679 1.3115 0
M  V30 4608 C 447.474 3.16335 -1.66334 0
M  V30 4609 C 447.303 3.17449 -3.18522 0
M  V30 4610 C 446.073 3.2425 -3.87543 0
M  V30 4611 C 448.271 3.02877 -4.15656 0
M  V30 4612 N 446.253 3.14949 -5.26954 0
M  V30 4613 C 447.624 3.0143 -5.41793 0
M  V30 4614 C 449.679 2.8715 -4.06755 0
M  V30 4615 C 448.382 2.85869 -6.60054 0
M  V30 4616 C 450.408 2.72944 -5.24648 0
M  V30 4617 C 449.77 2.72171 -6.49694 0
M  V30 4618 H 445.869 0.650627 -0.43383 0
M  V30 4619 H 448.453 1.19944 -1.53367 0
M  V30 4620 H 446.624 3.69638 -1.19256 0
M  V30 4621 H 448.356 3.78888 -1.42219 0
M  V30 4622 H 445.111 3.31288 -3.38446 0
M  V30 4623 H 445.535 3.13651 -5.9996 0
M  V30 4624 H 450.177 2.86557 -3.10878 0
M  V30 4625 H 447.895 2.8521 -7.56096 0
M  V30 4626 H 451.481 2.61782 -5.19578 0
M  V30 4627 H 450.361 2.61307 -7.39384 0
M  V30 4628 N 447.864 1.01787 1.20321 0
M  V30 4629 C 449.11 0.708985 1.90003 0
M  V30 4630 C 449.443 -0.759572 1.78729 0
M  V30 4631 O 448.718 -1.55198 1.17234 0
M  V30 4632 C 449.001 1.1469 3.41348 0
M  V30 4633 C 448.854 2.67586 3.61549 0
M  V30 4634 C 450.173 0.71915 4.34185 0
M  V30 4635 H 447.292 0.259034 0.689978 0
M  V30 4636 H 449.934 1.26584 1.41692 0
M  V30 4637 H 448.084 0.673128 3.82624 0
M  V30 4638 H 449.756 3.22826 3.29517 0
M  V30 4639 H 447.999 3.085 3.04976 0
M  V30 4640 H 448.67 2.93281 4.67643 0
M  V30 4641 H 451.146 1.12647 4.00562 0
M  V30 4642 H 450.022 1.05358 5.38694 0
M  V30 4643 H 450.283 -0.379111 4.40472 0
M  V30 4644 N 449.342 -1.36122 0.79427 0
M  V30 4645 C 450.567 -2.03891 0.379871 0
M  V30 4646 C 450.992 -1.59488 -0.997251 0
M  V30 4647 O 450.35 -0.765652 -1.64339 0
M  V30 4648 C 450.398 -3.57687 0.457442 0
M  V30 4649 O 449.502 -4.08931 -0.5338 0
M  V30 4650 H 448.843 -0.6443 0.160541 0
M  V30 4651 H 451.373 -1.73976 1.07673 0
M  V30 4652 H 451.383 -4.06721 0.322792 0
M  V30 4653 H 450.058 -3.89357 1.46199 0
M  V30 4654 H 448.635 -3.71154 -0.360409 0
M  V30 4655 N 450.82 -0.546701 -1.47814 0
M  V30 4656 C 452.067 -0.0187407 -2.02491 0
M  V30 4657 C 452.395 1.32685 -1.42215 0
M  V30 4658 O 451.65 1.87413 -0.563454 0
M  V30 4659 C 451.949 0.134869 -3.57145 0
M  V30 4660 C 451.615 -1.13849 -4.3629 0
M  V30 4661 C 450.277 -1.48743 -4.57634 0
M  V30 4662 C 452.629 -1.98277 -4.82012 0
M  V30 4663 C 449.957 -2.67932 -5.21948 0
M  V30 4664 C 452.309 -3.16659 -5.4764 0
M  V30 4665 C 450.973 -3.51879 -5.67219 0
M  V30 4666 H 450.243 -0.0068577 -0.740968 0
M  V30 4667 H 452.89 -0.716097 -1.77607 0
M  V30 4668 H 451.195 0.915118 -3.80963 0
M  V30 4669 H 452.892 0.558556 -3.97091 0
M  V30 4670 H 449.482 -0.856767 -4.19949 0
M  V30 4671 H 453.666 -1.72628 -4.6531 0
M  V30 4672 H 448.922 -2.95401 -5.35302 0
M  V30 4673 H 453.096 -3.82374 -5.82033 0
M  V30 4674 H 450.723 -4.44331 -6.16825 0
M  V30 4675 N 452.299 1.55045 -0.282633 0
M  V30 4676 C 453.247 2.24254 0.617478 0
M  V30 4677 C 454.241 1.24215 1.15183 0
M  V30 4678 O 455.447 1.42123 1.10459 0
M  V30 4679 H 451.822 0.719801 0.217693 0
M  V30 4680 H 453.793 2.98398 0.0110076 0
M  V30 4681 C 452.542 2.98281 1.78672 0
M  V30 4682 H 451.865 3.75053 1.38475 0
M  V30 4683 H 453.305 3.50017 2.393 0
M  V30 4684 C 451.764 2.04184 2.67975 0
M  V30 4685 O 452.294 1.59792 3.6855 0
M  V30 4686 N 450.5 1.70526 2.35307 0
M  V30 4687 H 450.047 2.06821 1.53567 0
M  V30 4688 H 450.005 1.07839 2.95327 0
M  V30 4689 N 453.777 0.010035 1.57597 0
M  V30 4690 C 454.709 -1.00649 2.05918 0
M  V30 4691 C 455.722 -1.30077 0.978964 0
M  V30 4692 O 456.911 -1.26878 1.25556 0
M  V30 4693 C 454.011 -2.33876 2.45265 0
M  V30 4694 C 453.184 -2.23242 3.7614 0
M  V30 4695 C 452.243 -3.39242 4.02245 0
M  V30 4696 O 451.269 -3.1698 4.72771 0
M  V30 4697 N 452.471 -4.6242 3.50924 0
M  V30 4698 H 455.236 -0.594333 2.93748 0
M  V30 4699 H 452.797 -0.17714 1.60928 0
M  V30 4700 H 454.789 -3.1027 2.59836 0
M  V30 4701 H 453.359 -2.66799 1.62902 0
M  V30 4702 H 452.579 -1.31696 3.71551 0
M  V30 4703 H 453.867 -2.13321 4.61922 0
M  V30 4704 H 453.265 -4.83404 2.93832 0
M  V30 4705 H 451.822 -5.36046 3.70807 0
M  V30 4706 N 455.255 -1.55392 -0.262866 0
M  V30 4707 C 456.203 -1.8977 -1.345 0
M  V30 4708 C 457.197 -0.775063 -1.50629 0
M  V30 4709 O 458.403 -0.959519 -1.52293 0
M  V30 4710 H 454.778 -0.602467 -0.450041 0
M  V30 4711 H 456.749 -2.80147 -1.02762 0
M  V30 4712 C 455.498 -2.19501 -2.69657 0
M  V30 4713 H 454.821 -3.05378 -2.5804 0
M  V30 4714 H 456.261 -2.47469 -3.44289 0
M  V30 4715 C 454.72 -1.00597 -3.21531 0
M  V30 4716 O 455.25 -0.245768 -4.00947 0
M  V30 4717 N 453.456 -0.800911 -2.79345 0
M  V30 4718 H 453.003 -1.42079 -2.14875 0
M  V30 4719 H 452.961 -0.00697996 -3.14399 0
M  V30 4720 N 456.733 0.527833 -1.48498 0
M  V30 4721 C 457.663 1.64136 -1.66077 0
M  V30 4722 C 458.644 1.62286 -0.509625 0
M  V30 4723 O 459.829 1.79449 -0.742413 0
M  V30 4724 C 456.959 3.02717 -1.70234 0
M  V30 4725 C 455.913 3.19426 -2.8487 0
M  V30 4726 C 455.239 4.5909 -2.74118 0
M  V30 4727 C 456.539 3.01993 -4.26142 0
M  V30 4728 H 458.233 1.4968 -2.593 0
M  V30 4729 H 455.779 0.718654 -1.24785 0
M  V30 4730 H 457.732 3.80491 -1.8112 0
M  V30 4731 H 456.456 3.18201 -0.735911 0
M  V30 4732 H 455.115 2.4407 -2.73542 0
M  V30 4733 H 454.763 4.71413 -1.7544 0
M  V30 4734 H 454.463 4.71214 -3.51042 0
M  V30 4735 H 455.987 5.3896 -2.86974 0
M  V30 4736 H 457.401 3.69558 -4.38292 0
M  V30 4737 H 455.798 3.2561 -5.04082 0
M  V30 4738 H 456.868 1.98396 -4.42456 0
M  V30 4739 N 458.211 1.37122 0.776871 0
M  V30 4740 C 459.488 1.22586 1.52421 0
M  V30 4741 C 459.868 -0.182726 2.10308 0
M  V30 4742 O 459.216 -1.18979 1.9508 0
M  V30 4743 C 459.426 2.31782 2.60918 0
M  V30 4744 C 460.774 2.69071 3.2846 0
M  V30 4745 O 461.798 2.3092 2.71209 0
M  V30 4746 O 460.657 3.3478 4.31954 0
M  V30 4747 H 457.751 0.478045 0.674835 0
M  V30 4748 H 460.297 1.48888 0.814275 0
M  V30 4749 H 459.069 3.26131 2.16227 0
M  V30 4750 H 458.692 2.06916 3.39517 0
M  V30 4751 N 459.689 -1.00246 1.21608 0
M  V30 4752 C 460.919 -1.77373 1.05935 0
M  V30 4753 C 461.327 -1.85059 -0.393686 0
M  V30 4754 O 460.67 -1.31289 -1.28487 0
M  V30 4755 C 460.732 -3.22705 1.58435 0
M  V30 4756 C 460.396 -3.38591 3.06929 0
M  V30 4757 C 461.393 -3.2667 4.04454 0
M  V30 4758 C 459.078 -3.6395 3.46187 0
M  V30 4759 C 461.072 -3.39877 5.39224 0
M  V30 4760 C 458.759 -3.768 4.81108 0
M  V30 4761 C 459.757 -3.6477 5.77436 0
M  V30 4762 O 459.445 -3.77206 7.09909 0
M  V30 4763 H 459.177 -0.56419 0.372378 0
M  V30 4764 H 461.731 -1.26971 1.61454 0
M  V30 4765 H 459.961 -3.74255 0.973147 0
M  V30 4766 H 461.65 -3.81515 1.38568 0
M  V30 4767 H 462.416 -3.06999 3.75468 0
M  V30 4768 H 458.295 -3.72395 2.71741 0
M  V30 4769 H 461.839 -3.30404 6.14393 0
M  V30 4770 H 457.736 -3.95975 5.09779 0
M  V30 4771 H 458.504 -3.94138 7.17355 0
M  V30 4772 N 461.167 -1.02423 -1.1978 0
M  V30 4773 C 462.099 -0.559152 -2.22275 0
M  V30 4774 C 463.112 0.36251 -1.58713 0
M  V30 4775 O 464.301 0.159641 -1.77785 0
M  V30 4776 C 461.401 0.205094 -3.38279 0
M  V30 4777 C 460.574 -0.720361 -4.31427 0
M  V30 4778 C 459.633 -0.00234368 -5.262 0
M  V30 4779 O 458.659 -0.627378 -5.65732 0
M  V30 4780 N 459.861 1.26996 -5.66438 0
M  V30 4781 H 462.626 -1.44064 -2.62804 0
M  V30 4782 H 460.187 -0.902692 -1.34399 0
M  V30 4783 H 462.179 0.694868 -3.9869 0
M  V30 4784 H 460.749 0.987947 -2.96578 0
M  V30 4785 H 459.969 -1.39031 -3.68869 0
M  V30 4786 H 461.257 -1.3495 -4.90577 0
M  V30 4787 H 460.655 1.79858 -5.36347 0
M  V30 4788 H 459.212 1.70432 -6.29123 0
M  V30 4789 N 462.645 1.35699 -0.801477 0
M  V30 4790 C 463.894 1.98165 -0.375979 0
M  V30 4791 C 464.207 1.64306 1.06127 0
M  V30 4792 O 465.413 2.20097 1.58964 0
M  V30 4793 C 463.869 3.54497 -0.621305 0
M  V30 4794 C 463.477 3.9727 -2.07076 0
M  V30 4795 C 465.221 4.23697 -0.26091 0
M  V30 4796 C 463.128 5.46427 -2.26211 0
M  V30 4797 H 462.058 0.741478 -0.136844 0
M  V30 4798 H 464.709 1.54834 -0.984814 0
M  V30 4799 H 463.091 3.95958 0.0574112 0
M  V30 4800 H 464.265 3.66974 -2.78687 0
M  V30 4801 H 462.58 3.40943 -2.39054 0
M  V30 4802 H 465.177 5.33334 -0.381994 0
M  V30 4803 H 465.52 4.0869 0.792344 0
M  V30 4804 H 466.053 3.87639 -0.893339 0
M  V30 4805 H 462.792 5.66396 -3.29963 0
M  V30 4806 H 462.312 5.78309 -1.59119 0
M  V30 4807 H 463.991 6.12819 -2.07513 0
M  V30 4808 N 464.123 0.554532 1.47522 0
M  V30 4809 C 465.371 0.0294208 2.02079 0
M  V30 4810 C 465.692 -1.32411 1.43151 0
M  V30 4811 O 464.962 -1.863 0.605728 0
M  V30 4812 H 463.542 0.00788672 0.746958 0
M  V30 4813 H 466.204 0.723934 1.80956 0
M  V30 4814 H 465.3 -0.0606745 3.12041 0
M  V30 4815 N 465.601 -1.54893 0.290851 0
M  V30 4816 C 466.831 -2.04047 -0.323818 0
M  V30 4817 C 467.239 -1.16809 -1.48837 0
M  V30 4818 O 466.582 -0.184145 -1.82775 0
M  V30 4819 C 466.644 -3.49248 -0.852395 0
M  V30 4820 C 466.308 -4.56623 0.185557 0
M  V30 4821 C 467.305 -5.09985 1.01053 0
M  V30 4822 C 464.99 -5.01252 0.324332 0
M  V30 4823 C 466.984 -6.06507 1.96031 0
M  V30 4824 C 464.671 -5.97596 1.27757 0
M  V30 4825 C 465.669 -6.50107 2.09405 0
M  V30 4826 O 465.357 -7.44565 3.03114 0
M  V30 4827 H 465.089 -0.671735 -0.0758129 0
M  V30 4828 H 467.643 -2.00947 0.425393 0
M  V30 4829 H 465.873 -3.49639 -1.65195 0
M  V30 4830 H 467.562 -3.81654 -1.38185 0
M  V30 4831 H 468.328 -4.76307 0.914129 0
M  V30 4832 H 464.207 -4.60015 -0.301213 0
M  V30 4833 H 467.751 -6.47418 2.598 0
M  V30 4834 H 463.648 -6.30691 1.37473 0
M  V30 4835 H 464.416 -7.62334 2.97976 0
M  V30 4836 N 467.08 -0.0183926 -1.57589 0
M  V30 4837 C 468.329 0.66185 -1.90532 0
M  V30 4838 C 468.642 1.73904 -0.895366 0
M  V30 4839 O 469.848 2.47518 -1.11566 0
M  V30 4840 C 468.304 1.22844 -3.38286 0
M  V30 4841 C 467.912 0.185103 -4.47617 0
M  V30 4842 C 469.656 1.88581 -3.80312 0
M  V30 4843 C 467.563 0.762723 -5.86461 0
M  V30 4844 H 466.493 0.250972 -0.711006 0
M  V30 4845 H 469.144 -0.0819435 -1.83317 0
M  V30 4846 H 467.526 2.0235 -3.40398 0
M  V30 4847 H 468.7 -0.58671 -4.5705 0
M  V30 4848 H 467.015 -0.372889 -4.14727 0
M  V30 4849 H 469.612 2.32735 -4.81392 0
M  V30 4850 H 469.955 2.72408 -3.14801 0
M  V30 4851 H 470.488 1.15782 -3.80578 0
M  V30 4852 H 467.227 -0.0371713 -6.55489 0
M  V30 4853 H 466.747 1.50327 -5.80656 0
M  V30 4854 H 468.426 1.25576 -6.34697 0
M  V30 4855 N 468.558 1.5553 0.254621 0
M  V30 4856 C 469.798 1.7876 0.991179 0
M  V30 4857 C 470.162 0.586669 1.82817 0
M  V30 4858 O 471.363 0.697585 2.5959 0
M  V30 4859 C 469.634 3.06679 1.83529 0
M  V30 4860 S 471.193 3.511 2.632 0
M  V30 4861 H 468.011 0.627916 0.333531 0
M  V30 4862 H 470.613 1.93766 0.259778 0
M  V30 4863 H 469.317 3.92158 1.20996 0
M  V30 4864 H 468.848 2.94388 2.60958 0
M  V30 4865 H 470.863 3.11823 3.8598 0
M  V30 4866 N 470.036 -0.519951 1.48776 0
M  V30 4867 C 471.261 -1.30447 1.6124 0
M  V30 4868 C 471.686 -1.86055 0.276591 0
M  V30 4869 O 471.044 -1.64915 -0.753183 0
M  V30 4870 C 471.092 -2.42406 2.66967 0
M  V30 4871 O 470.196 -3.45728 2.24824 0
M  V30 4872 H 469.537 -0.385924 0.540332 0
M  V30 4873 H 472.067 -0.624572 1.94834 0
M  V30 4874 H 472.077 -2.88447 2.88552 0
M  V30 4875 H 470.752 -2.01294 3.63941 0
M  V30 4876 H 469.329 -3.05737 2.13494 0
M  V30 4877 N 471.514 -1.37532 -0.769588 0
M  V30 4878 C 472.762 -1.32597 -1.5252 0
M  V30 4879 C 473.083 0.0884294 -1.94799 0
M  V30 4880 O 472.353 1.03289 -1.66458 0
M  V30 4881 H 470.933 -0.487846 -0.565699 0
M  V30 4882 H 473.595 -1.72044 -0.915806 0
M  V30 4883 H 472.691 -1.96643 -2.42359 0
M  V30 4884 N 472.992 0.995999 -1.22138 0
M  V30 4885 C 474.238 1.73767 -1.04561 0
M  V30 4886 C 474.571 1.89633 0.418698 0
M  V30 4887 O 473.846 1.43723 1.3105 0
M  V30 4888 C 474.129 3.14505 -1.75382 0
M  V30 4889 C 473.982 3.06306 -3.29388 0
M  V30 4890 C 475.301 4.13615 -1.50369 0
M  V30 4891 H 472.42 0.630728 -0.38125 0
M  V30 4892 H 475.062 1.16057 -1.50435 0
M  V30 4893 H 473.212 3.63775 -1.36383 0
M  V30 4894 H 474.884 2.64681 -3.77812 0
M  V30 4895 H 473.127 2.43186 -3.59226 0
M  V30 4896 H 473.798 4.05884 -3.74116 0
M  V30 4897 H 476.274 3.73089 -1.84239 0
M  V30 4898 H 475.15 5.10212 -2.02421 0
M  V30 4899 H 475.411 4.39949 -0.435611 0
M  V30 4900 N 474.47 1.03057 1.19235 0
M  V30 4901 C 475.717 0.728019 1.88961 0
M  V30 4902 C 476.045 -0.743515 1.79728 0
M  V30 4903 O 475.3 -1.55729 1.1852 0
M  V30 4904 C 475.599 1.1268 3.39172 0
M  V30 4905 C 475.265 2.5969 3.68608 0
M  V30 4906 C 473.927 2.99854 3.76352 0
M  V30 4907 C 476.279 3.54793 3.81801 0
M  V30 4908 C 473.607 4.34031 3.94758 0
M  V30 4909 C 475.959 4.88675 4.0172 0
M  V30 4910 C 474.623 5.28526 4.07697 0
M  V30 4911 H 473.893 0.266401 0.691456 0
M  V30 4912 H 476.54 1.29373 1.41191 0
M  V30 4913 H 474.845 0.479722 3.88852 0
M  V30 4914 H 476.542 0.870203 3.91444 0
M  V30 4915 H 473.132 2.27575 3.63191 0
M  V30 4916 H 477.316 3.24914 3.7516 0
M  V30 4917 H 472.572 4.6444 3.97625 0
M  V30 4918 H 476.746 5.6228 4.1087 0
M  V30 4919 H 474.373 6.32506 4.21712 0
M  V30 4920 N 475.948 -1.35272 0.808662 0
M  V30 4921 C 477.196 -1.98316 0.389233 0
M  V30 4922 C 477.517 -1.64465 -1.04767 0
M  V30 4923 O 476.787 -0.928175 -1.72516 0
M  V30 4924 H 475.367 -0.733585 0.140935 0
M  V30 4925 H 478.029 -1.6515 1.03496 0
M  V30 4926 H 477.125 -3.08123 0.496631 0
M  V30 4927 N 477.426 -0.562348 -1.47226 0
M  V30 4928 C 478.703 0.0256985 -1.95583 0
M  V30 4929 C 479.083 1.48032 -1.50498 0
M  V30 4930 O 478.431 2.15973 -0.746181 0
M  V30 4931 C 478.641 -0.125129 -3.48776 0
M  V30 4932 C 479.989 0.0175728 -4.24596 0
M  V30 4933 O 481.013 -0.0529341 -3.56161 0
M  V30 4934 O 479.872 0.170145 -5.46235 0
M  V30 4935 H 476.966 0.0612565 -0.824728 0
M  V30 4936 H 479.512 -0.629233 -1.57603 0
M  V30 4937 H 478.284 -1.13715 -3.74412 0
M  V30 4938 H 477.907 0.567178 -3.93534 0
M  V30 4939 N 478.904 1.54736 -0.299062 0
M  V30 4940 C 479.852 2.24897 0.593658 0
M  V30 4941 C 480.846 1.25429 1.13859 0
M  V30 4942 O 482.052 1.43286 1.08945 0
M  V30 4943 H 478.427 0.72207 0.210046 0
M  V30 4944 H 480.398 2.98393 -0.0206421 0
M  V30 4945 C 479.147 3.00159 1.75499 0
M  V30 4946 H 478.47 3.76501 1.34489 0
M  V30 4947 H 479.91 3.52535 2.35574 0
M  V30 4948 C 478.369 2.07015 2.65794 0
M  V30 4949 O 478.899 1.63692 3.66835 0
M  V30 4950 N 477.105 1.73012 2.33485 0
M  V30 4951 H 476.652 2.08439 1.51364 0
M  V30 4952 H 476.61 1.10965 2.94167 0
M  V30 4953 N 480.382 0.0267497 1.57577 0
M  V30 4954 C 481.793 -0.512413 1.79531 0
M  V30 4955 C 482.144 -1.72391 0.936791 0
M  V30 4956 O 481.269 -2.15903 0.146543 0
M  V30 4957 C 481.864 -0.936378 3.25603 0
M  V30 4958 C 480.423 -1.42067 3.4856 0
M  V30 4959 C 479.57 -0.384278 2.74624 0
M  V30 4960 H 482.521 0.252797 1.56674 0
M  V30 4961 H 482.542 -1.80088 3.35184 0
M  V30 4962 H 482.054 -0.0544332 3.88062 0
M  V30 4963 H 480.155 -2.32262 2.9135 0
M  V30 4964 H 480.268 -1.42968 4.57271 0
M  V30 4965 H 478.632 -0.851855 2.40032 0
M  V30 4966 H 479.415 0.489159 3.39797 0
M  V30 4967 N 481.861 -1.55662 -0.24637 0
M  V30 4968 C 483.277 -1.48098 -0.594907 0
M  V30 4969 C 483.477 -0.717044 -1.8831 0
M  V30 4970 O 482.533 -0.246618 -2.51293 0
M  V30 4971 C 483.846 -2.92507 -0.697146 0
M  V30 4972 C 485.394 -3.02881 -0.789436 0
M  V30 4973 C 485.869 -4.48598 -0.923232 0
M  V30 4974 N 487.36 -4.52538 -0.988088 0
M  V30 4975 C 488.095 -5.62536 -1.11089 0
M  V30 4976 N 487.591 -6.82342 -1.19919 0
M  V30 4977 N 489.384 -5.50334 -1.14408 0
M  V30 4978 H 481.535 -2.0377 0.599278 0
M  V30 4979 H 483.798 -0.925145 0.20691 0
M  V30 4980 H 483.504 -3.51242 0.179396 0
M  V30 4981 H 483.378 -3.43024 -1.5689 0
M  V30 4982 H 485.765 -2.44226 -1.65643 0
M  V30 4983 H 485.846 -2.55574 0.107482 0
M  V30 4984 H 485.49 -5.07864 -0.0607927 0
M  V30 4985 H 485.42 -4.93587 -1.8352 0
M  V30 4986 H 487.911 -3.66248 -0.931167 0
M  V30 4987 H 488.224 -7.61924 -1.29197 0
M  V30 4988 H 486.569 -6.85102 -1.16876 0
M  V30 4989 H 489.76 -4.5567 -1.07158 0
M  V30 4990 H 489.933 -6.36096 -1.23634 0
M  V30 4991 N 483.339 0.512053 -1.4905 0
M  V30 4992 C 484.75 1.09376 -1.51307 0
M  V30 4993 C 485.101 1.94 -0.292971 0
M  V30 4994 O 484.226 2.07965 0.598277 0
M  V30 4995 C 484.821 1.99031 -2.74176 0
M  V30 4996 C 483.38 2.52385 -2.79247 0
M  V30 4997 C 482.527 1.29749 -2.45073 0
M  V30 4998 H 485.478 0.296467 -1.55906 0
M  V30 4999 H 485.499 2.83569 -2.53711 0
M  V30 5000 H 485.011 1.37412 -3.62959 0
M  V30 5001 H 483.112 3.17673 -1.94716 0
M  V30 5002 H 483.225 2.90293 -3.81139 0
M  V30 5003 H 481.589 1.61912 -1.96612 0
M  V30 5004 H 482.372 0.698555 -3.36118 0
M  V30 5005 N 484.817 1.37938 0.762283 0
M  V30 5006 C 485.764 1.34467 1.87583 0
M  V30 5007 C 486.734 0.208633 1.64785 0
M  V30 5008 O 487.919 0.399494 1.86571 0
M  V30 5009 C 485.059 1.16692 3.24772 0
M  V30 5010 C 484.172 2.39608 3.59461 0
M  V30 5011 C 483.307 2.14631 4.85908 0
M  V30 5012 C 482.346 3.33364 5.13357 0
M  V30 5013 N 481.483 3.07877 6.30996 0
M  V30 5014 H 486.323 2.29669 1.89885 0
M  V30 5015 H 483.86 1.14116 0.928219 0
M  V30 5016 H 485.818 1.04405 4.03925 0
M  V30 5017 H 484.448 0.251333 3.2182 0
M  V30 5018 H 483.5 2.626 2.75219 0
M  V30 5019 H 484.812 3.28128 3.75678 0
M  V30 5020 H 483.966 1.99429 5.72986 0
M  V30 5021 H 482.705 1.23463 4.71814 0
M  V30 5022 H 481.71 3.49094 4.24751 0
M  V30 5023 H 482.935 4.25395 5.29354 0
M  V30 5024 H 480.881 2.19348 6.18241 0
M  V30 5025 H 480.798 3.89944 6.47673 0
M  V30 5026 H 482.066 2.96313 7.20985 0
M  V30 5027 N 486.295 -0.989507 1.22664 0
M  V30 5028 C 487.572 -1.70326 0.961688 0
M  V30 5029 C 487.952 -2.04537 -0.522279 0
M  V30 5030 O 487.3 -1.73136 -1.49118 0
M  V30 5031 C 487.51 -2.95135 1.86269 0
M  V30 5032 C 488.858 -3.67842 2.12078 0
M  V30 5033 O 489.882 -3.0515 1.83745 0
M  V30 5034 O 488.741 -4.80644 2.60083 0
M  V30 5035 H 485.835 -0.743589 0.361946 0
M  V30 5036 H 488.381 -1.04555 1.33665 0
M  V30 5037 H 487.153 -2.66382 2.8663 0
M  V30 5038 H 486.776 -3.68645 1.48952 0
M  V30 5039 N 487.773 -1.03688 -1.18687 0
M  V30 5040 C 489.021 -0.736572 -1.88199 0
M  V30 5041 C 489.342 0.737665 -1.80509 0
M  V30 5042 O 488.612 1.53204 -1.22088 0
M  V30 5043 H 487.192 -0.269466 -0.696704 0
M  V30 5044 H 489.854 -1.31282 -1.44052 0
M  V30 5045 H 488.95 -1.03802 -2.94332 0
M  V30 5046 N 489.251 1.34841 -0.815825 0
M  V30 5047 C 490.198 2.29644 -0.230664 0
M  V30 5048 C 491.168 1.53253 0.640533 0
M  V30 5049 O 492.353 1.81653 0.583672 0
M  V30 5050 C 489.493 3.39715 0.607275 0
M  V30 5051 C 488.606 4.31056 -0.28538 0
M  V30 5052 C 487.741 5.28225 0.561446 0
M  V30 5053 C 486.78 6.11204 -0.331035 0
M  V30 5054 N 485.917 7.00483 0.476302 0
M  V30 5055 H 490.757 2.79095 -1.0445 0
M  V30 5056 H 488.294 1.37351 -0.526595 0
M  V30 5057 H 490.252 4.02208 1.10835 0
M  V30 5058 H 488.882 2.91517 1.38629 0
M  V30 5059 H 487.934 3.69487 -0.904621 0
M  V30 5060 H 489.246 4.89239 -0.97193 0
M  V30 5061 H 488.4 5.96135 1.12728 0
M  V30 5062 H 487.139 4.70562 1.28153 0
M  V30 5063 H 486.144 5.42232 -0.909069 0
M  V30 5064 H 487.369 6.70947 -1.04912 0
M  V30 5065 H 485.315 6.45296 1.18019 0
M  V30 5066 H 485.232 7.55847 -0.152008 0
M  V30 5067 H 486.5 7.7273 1.02512 0
M  V30 5068 N 490.729 0.570148 1.46925 0
M  V30 5069 C 491.977 0.0508523 2.02036 0
M  V30 5070 C 492.298 -1.30885 1.44548 0
M  V30 5071 O 491.568 -1.85647 0.625453 0
M  V30 5072 H 490.148 0.0158088 0.746833 0
M  V30 5073 H 492.81 0.743086 1.80178 0
M  V30 5074 H 491.906 -0.027575 3.12088 0
M  V30 5075 N 492.207 -1.54576 0.307264 0
M  V30 5076 C 493.432 -2.05139 -0.305379 0
M  V30 5077 C 493.857 -1.18278 -1.46259 0
M  V30 5078 O 493.215 -0.188243 -1.8032 0
M  V30 5079 C 493.263 -3.53066 -0.733283 0
M  V30 5080 O 492.367 -3.69206 -1.83741 0
M  V30 5081 H 491.708 -0.661444 -0.0582105 0
M  V30 5082 H 494.238 -1.99569 0.450931 0
M  V30 5083 H 494.248 -3.95034 -1.02039 0
M  V30 5084 H 492.923 -4.15746 0.113198 0
M  V30 5085 H 491.5 -3.39143 -1.55037 0
M  V30 5086 N 493.685 -0.035106 -1.57561 0
M  V30 5087 C 494.925 0.646316 -1.93913 0
M  V30 5088 C 495.289 1.68947 -0.912185 0
M  V30 5089 O 496.49 2.42381 -1.1621 0
M  V30 5090 C 494.761 1.24136 -3.35149 0
M  V30 5091 S 496.32 1.94302 -3.93436 0
M  V30 5092 H 493.138 0.212642 -0.678457 0
M  V30 5093 H 495.74 -0.100203 -1.95243 0
M  V30 5094 H 494.444 0.46979 -4.07702 0
M  V30 5095 H 493.975 2.02505 -3.37276 0
M  V30 5096 H 495.99 3.22205 -3.77357 0
M  V30 5097 N 495.163 1.55791 0.238111 0
M  V30 5098 C 496.44 1.68798 0.98826 0
M  V30 5099 C 496.82 0.577562 2.03045 0
M  V30 5100 O 496.168 -0.41778 2.24648 0
M  V30 5101 C 496.378 3.09454 1.61367 0
M  V30 5102 C 497.726 3.68335 2.11221 0
M  V30 5103 O 498.75 3.1231 1.71292 0
M  V30 5104 O 497.609 4.6657 2.84561 0
M  V30 5105 H 494.703 0.686881 0.460568 0
M  V30 5106 H 497.249 1.68118 0.231202 0
M  V30 5107 H 496.021 3.81726 0.860295 0
M  V30 5108 H 495.644 3.14182 2.4367 0
M  V30 5109 N 496.642 -0.504142 1.49319 0
M  V30 5110 C 498.053 -1.08572 1.51885 0
M  V30 5111 C 498.404 -1.93842 0.303255 0
M  V30 5112 O 497.529 -2.0828 -0.58724 0
M  V30 5113 C 498.124 -1.97574 2.75227 0
M  V30 5114 C 496.683 -2.509 2.80581 0
M  V30 5115 C 495.83 -1.28447 2.45757 0
M  V30 5116 H 498.781 -0.288194 1.56061 0
M  V30 5117 H 498.802 -2.82219 2.55211 0
M  V30 5118 H 498.314 -1.35486 3.63683 0
M  V30 5119 H 496.415 -3.16636 1.96398 0
M  V30 5120 H 496.528 -2.88268 3.82673 0
M  V30 5121 H 494.892 -1.60868 1.97468 0
M  V30 5122 H 495.675 -0.68072 3.36483 0
M  V30 5123 N 498.12 -1.38341 -0.754957 0
M  V30 5124 C 499.366 -1.34672 -1.51628 0
M  V30 5125 C 499.699 0.0636036 -1.94096 0
M  V30 5126 O 498.974 1.0245 -1.6533 0
M  V30 5127 C 499.257 -2.30116 -2.76981 0
M  V30 5128 C 499.11 -3.80003 -2.4066 0
M  V30 5129 C 500.429 -2.23715 -3.78998 0
M  V30 5130 H 497.548 -0.490517 -0.550056 0
M  V30 5131 H 500.19 -1.69178 -0.864807 0
M  V30 5132 H 498.34 -2.00821 -3.3257 0
M  V30 5133 H 500.012 -4.19966 -1.90856 0
M  V30 5134 H 498.255 -3.97751 -1.73137 0
M  V30 5135 H 498.926 -4.42244 -3.30339 0
M  V30 5136 H 501.402 -2.49574 -3.32945 0
M  V30 5137 H 500.278 -2.9261 -4.64403 0
M  V30 5138 H 500.539 -1.23554 -4.24484 0
M  V30 5139 N 499.598 0.982988 -1.23187 0
M  V30 5140 C 500.826 1.75921 -1.08901 0
M  V30 5141 C 501.241 1.85341 0.359719 0
M  V30 5142 O 500.598 1.33072 1.24892 0
M  V30 5143 C 500.649 3.18742 -1.70545 0
M  V30 5144 O 500.37 3.09814 -3.09753 0
M  V30 5145 C 501.871 4.1277 -1.61667 0
M  V30 5146 H 499.091 0.552166 -0.381252 0
M  V30 5147 H 501.635 1.23516 -1.62985 0
M  V30 5148 H 499.79 3.68182 -1.20501 0
M  V30 5149 H 500.204 3.99703 -3.39614 0
M  V30 5150 H 501.678 5.10697 -2.09506 0
M  V30 5151 H 502.155 4.3542 -0.575009 0
M  V30 5152 H 502.761 3.69232 -2.11064 0
M  V30 5153 N 501.076 1.04316 1.18135 0
M  V30 5154 C 502.322 0.749128 1.88457 0
M  V30 5155 C 502.655 -0.72149 1.803 0
M  V30 5156 O 501.93 -1.52676 1.205 0
M  V30 5157 C 502.213 1.21905 3.38838 0
M  V30 5158 C 502.066 2.75195 3.55792 0
M  V30 5159 C 503.385 0.811085 4.32561 0
M  V30 5160 H 500.504 0.273611 0.684329 0
M  V30 5161 H 503.146 1.29561 1.38975 0
M  V30 5162 H 501.296 0.754137 3.8111 0
M  V30 5163 H 502.968 3.29743 3.22595 0
M  V30 5164 H 501.211 3.14899 2.98364 0
M  V30 5165 H 501.882 3.03135 4.61317 0
M  V30 5166 H 504.358 1.21118 3.98082 0
M  V30 5167 H 503.234 1.16761 5.36338 0
M  V30 5168 H 503.495 -0.285596 4.41177 0
M  V30 5169 N 502.554 -1.34406 0.822964 0
M  V30 5170 C 503.831 -1.92733 0.333641 0
M  V30 5171 C 504.211 -1.75107 -1.17901 0
M  V30 5172 O 503.559 -1.12983 -1.98613 0
M  V30 5173 C 503.769 -3.40557 0.763023 0
M  V30 5174 C 505.117 -4.17709 0.761879 0
M  V30 5175 O 506.141 -3.49141 0.705606 0
M  V30 5176 O 505 -5.40082 0.835109 0
M  V30 5177 H 502.094 -0.821964 0.0911249 0
M  V30 5178 H 504.64 -1.4338 0.907757 0
M  V30 5179 H 503.412 -3.47187 1.8049 0
M  V30 5180 H 503.035 -3.97259 0.164605 0
M  V30 5181 N 504.032 -0.577932 -1.46621 0
M  V30 5182 C 505.28 -0.061566 -2.02006 0
M  V30 5183 C 505.601 1.30117 -1.4524 0
M  V30 5184 O 504.871 1.85313 -0.63529 0
M  V30 5185 H 503.451 -0.0197692 -0.746738 0
M  V30 5186 H 506.113 -0.752631 -1.79782 0
M  V30 5187 H 505.209 0.0110238 -3.12098 0
M  V30 5188 N 505.51 1.54411 -0.315457 0
M  V30 5189 C 506.473 2.22713 0.54142 0
M  V30 5190 C 507.473 1.2179 1.04995 0
M  V30 5191 O 508.663 1.46426 0.943667 0
M  V30 5192 C 505.795 2.92485 1.75116 0
M  V30 5193 H 506.988 2.99849 -0.0555508 0
M  V30 5194 H 504.541 1.56159 -0.0664453 0
M  V30 5195 H 505.276 2.19466 2.38758 0
M  V30 5196 H 505.061 3.66483 1.39401 0
M  V30 5197 H 506.551 3.44548 2.35959 0
M  V30 5198 N 506.988 0.0434614 1.5754 0
M  V30 5199 C 508.265 -0.671479 1.83713 0
M  V30 5200 C 508.645 -1.89495 0.930315 0
M  V30 5201 O 507.993 -2.28498 -0.0105639 0
M  V30 5202 C 508.203 -1.0361 3.33266 0
M  V30 5203 C 509.551 -1.42167 4.00092 0
M  V30 5204 O 510.575 -1.12866 3.37846 0
M  V30 5205 O 509.434 -1.96817 5.09829 0
M  V30 5206 H 506.528 -0.330726 0.75799 0
M  V30 5207 H 509.074 0.0722373 1.69546 0
M  V30 5208 H 507.846 -0.165938 3.90948 0
M  V30 5209 H 507.469 -1.83751 3.52592 0
M  V30 5210 N 508.466 -1.55915 -0.229846 0
M  V30 5211 C 509.714 -1.7819 -0.953565 0
M  V30 5212 C 510.035 -0.610504 -1.85197 0
M  V30 5213 O 509.305 0.372988 -1.92316 0
M  V30 5214 H 507.885 -0.657208 -0.355087 0
M  V30 5215 H 510.547 -1.9337 -0.243693 0
M  V30 5216 H 509.643 -2.70011 -1.56527 0
M  V30 5217 N 509.944 0.496216 -1.49584 0
M  V30 5218 C 511.19 1.25189 -1.59548 0
M  V30 5219 C 511.523 1.9212 -0.283466 0
M  V30 5220 O 510.798 1.80947 0.713324 0
M  V30 5221 C 511.081 2.31516 -2.75812 0
M  V30 5222 C 510.934 1.69054 -4.16822 0
M  V30 5223 C 512.253 3.3304 -2.87702 0
M  V30 5224 H 509.372 0.45379 -0.580727 0
M  V30 5225 H 512.014 0.549327 -1.81886 0
M  V30 5226 H 510.164 2.91438 -2.56897 0
M  V30 5227 H 511.836 1.12923 -4.47265 0
M  V30 5228 H 510.079 0.994485 -4.22247 0
M  V30 5229 H 510.75 2.462 -4.94054 0
M  V30 5230 H 513.226 2.83114 -3.04936 0
M  V30 5231 H 512.102 4.04794 -3.7072 0
M  V30 5232 H 512.363 3.95655 -1.97255 0
M  V30 5233 N 511.423 1.38739 0.74761 0
M  V30 5234 C 512.37 1.36449 1.86146 0
M  V30 5235 C 513.34 0.226098 1.64554 0
M  V30 5236 O 514.525 0.41926 1.86137 0
M  V30 5237 C 511.665 1.2013 3.23516 0
M  V30 5238 C 510.778 2.43407 3.56899 0
M  V30 5239 C 509.913 2.19773 4.83605 0
M  V30 5240 C 508.952 3.3879 5.09792 0
M  V30 5241 N 508.089 3.14553 6.27695 0
M  V30 5242 H 512.929 2.3167 1.87438 0
M  V30 5243 H 510.466 1.15094 0.916063 0
M  V30 5244 H 512.424 1.08683 4.02795 0
M  V30 5245 H 511.054 0.285453 3.21535 0
M  V30 5246 H 510.106 2.65504 2.72418 0
M  V30 5247 H 511.418 3.32094 3.72176 0
M  V30 5248 H 510.572 2.05496 5.70838 0
M  V30 5249 H 509.311 1.28461 4.70478 0
M  V30 5250 H 508.316 3.53579 4.21025 0
M  V30 5251 H 509.541 4.30986 5.24812 0
M  V30 5252 H 507.487 2.25893 6.1588 0
M  V30 5253 H 507.404 3.96791 6.435 0
M  V30 5254 H 508.672 3.03943 7.17801 0
M  V30 5255 N 512.901 -0.976442 1.23707 0
M  V30 5256 C 514.149 -1.71487 1.06942 0
M  V30 5257 C 514.47 -1.9098 -0.393897 0
M  V30 5258 O 513.74 -1.48128 -1.28198 0
M  V30 5259 H 512.32 -0.635425 0.392739 0
M  V30 5260 H 514.982 -1.17515 1.55487 0
M  V30 5261 H 514.078 -2.70286 1.56051 0
M  V30 5262 N 514.379 -1.04941 -1.1758 0
M  V30 5263 C 515.626 -0.757989 -1.87779 0
M  V30 5264 C 515.954 0.714827 -1.80888 0
M  V30 5265 O 515.209 1.53824 -1.20982 0
M  V30 5266 C 515.508 -1.18062 -3.37337 0
M  V30 5267 C 515.174 -2.65521 -3.6443 0
M  V30 5268 C 513.836 -3.05804 -3.71534 0
M  V30 5269 C 516.188 -3.60822 -3.76108 0
M  V30 5270 C 513.516 -4.40256 -3.87803 0
M  V30 5271 C 515.868 -4.95005 -3.93895 0
M  V30 5272 C 514.532 -5.34945 -3.99237 0
M  V30 5273 H 513.802 -0.277368 -0.68713 0
M  V30 5274 H 516.449 -1.31603 -1.39115 0
M  V30 5275 H 514.754 -0.541525 -3.8804 0
M  V30 5276 H 516.451 -0.932368 -3.9001 0
M  V30 5277 H 513.041 -2.33324 -3.59524 0
M  V30 5278 H 517.225 -3.30841 -3.69943 0
M  V30 5279 H 512.481 -4.70707 -3.90186 0
M  V30 5280 H 516.655 -5.68746 -4.01872 0
M  V30 5281 H 514.282 -6.39135 -4.11596 0
M  V30 5282 N 515.857 1.33968 -0.830081 0
M  V30 5283 C 517.082 2.02813 -0.433796 0
M  V30 5284 C 517.507 1.62076 0.954614 0
M  V30 5285 O 516.865 0.808955 1.62252 0
M  V30 5286 C 516.913 3.56348 -0.552115 0
M  V30 5287 O 516.017 4.10202 0.425191 0
M  V30 5288 H 515.358 0.639817 -0.177567 0
M  V30 5289 H 517.888 1.7106 -1.12248 0
M  V30 5290 H 517.898 4.05722 -0.430513 0
M  V30 5291 H 516.573 3.85344 -1.56471 0
M  V30 5292 H 515.15 3.71979 0.261878 0
M  V30 5293 N 517.335 0.585699 1.46312 0
M  V30 5294 C 518.565 0.0780166 2.06453 0
M  V30 5295 C 518.973 -1.2336 1.43454 0
M  V30 5296 O 518.316 -1.75734 0.535086 0
M  V30 5297 C 518.378 -0.158951 3.59148 0
M  V30 5298 C 518.042 1.06752 4.44357 0
M  V30 5299 C 519.039 1.98031 4.80708 0
M  V30 5300 C 516.724 1.2902 4.85447 0
M  V30 5301 C 518.718 3.09924 5.5698 0
M  V30 5302 C 516.405 2.41218 5.61478 0
M  V30 5303 C 517.403 3.31499 5.97158 0
M  V30 5304 O 517.091 4.41747 6.71651 0
M  V30 5305 H 516.823 0.0558894 0.673686 0
M  V30 5306 H 519.377 0.806994 1.88883 0
M  V30 5307 H 517.607 -0.942575 3.75037 0
M  V30 5308 H 519.296 -0.615513 4.01206 0
M  V30 5309 H 520.062 1.82043 4.49539 0
M  V30 5310 H 515.941 0.596567 4.57124 0
M  V30 5311 H 519.485 3.80415 5.84748 0
M  V30 5312 H 515.382 2.57167 5.9206 0
M  V30 5313 H 516.15 4.40152 6.90079 0
M  V30 5314 N 518.813 -1.54241 0.323641 0
M  V30 5315 C 520.229 -1.59574 -0.0290018 0
M  V30 5316 C 520.429 -1.34017 -1.50472 0
M  V30 5317 O 519.485 -1.12464 -2.26071 0
M  V30 5318 C 520.798 -2.98169 0.389295 0
M  V30 5319 C 522.346 -3.11148 0.339958 0
M  V30 5320 C 522.821 -4.5209 0.733418 0
M  V30 5321 N 524.312 -4.5808 0.686827 0
M  V30 5322 C 525.047 -5.65248 0.963464 0
M  V30 5323 N 524.543 -6.80355 1.30724 0
M  V30 5324 N 526.336 -5.55025 0.88902 0
M  V30 5325 H 518.487 -1.6911 1.28512 0
M  V30 5326 H 520.75 -0.790972 0.522558 0
M  V30 5327 H 520.456 -3.21871 1.41746 0
M  V30 5328 H 520.33 -3.76399 -0.245657 0
M  V30 5329 H 522.717 -2.87182 -0.679002 0
M  V30 5330 H 522.798 -2.35023 1.00985 0
M  V30 5331 H 522.442 -4.76788 1.75029 0
M  V30 5332 H 522.372 -5.26584 0.0412189 0
M  V30 5333 H 524.863 -3.75411 0.43298 0
M  V30 5334 H 525.176 -7.58029 1.5037 0
M  V30 5335 H 523.521 -6.81851 1.3455 0
M  V30 5336 H 526.712 -4.63977 0.619939 0
M  V30 5337 H 526.885 -6.38458 1.10797 0
M  V30 5338 N 520.291 -0.0518155 -1.57515 0
M  V30 5339 C 521.521 0.63048 -1.96745 0
M  V30 5340 C 521.929 1.64875 -0.928054 0
M  V30 5341 O 521.272 1.83449 0.0960678 0
M  V30 5342 C 521.334 1.37381 -3.32215 0
M  V30 5343 C 520.998 0.511298 -4.54131 0
M  V30 5344 C 521.995 -0.222884 -5.19422 0
M  V30 5345 C 519.68 0.442035 -5.00351 0
M  V30 5346 C 521.674 -1.01476 -6.2927 0
M  V30 5347 C 519.361 -0.35353 -6.10077 0
M  V30 5348 C 520.359 -1.08062 -6.74397 0
M  V30 5349 O 520.047 -1.8631 -7.82013 0
M  V30 5350 H 519.779 0.177126 -0.652382 0
M  V30 5351 H 522.333 -0.114726 -2.05079 0
M  V30 5352 H 520.563 2.16466 -3.20436 0
M  V30 5353 H 522.252 1.9464 -3.56188 0
M  V30 5354 H 523.018 -0.178846 -4.8467 0
M  V30 5355 H 518.897 0.997562 -4.50077 0
M  V30 5356 H 522.441 -1.58279 -6.79407 0
M  V30 5357 H 518.338 -0.399205 -6.44264 0
M  V30 5358 H 519.106 -1.78528 -7.98793 0
M  V30 5359 N 521.769 1.56035 0.221574 0
M  V30 5360 C 523.017 1.78693 0.944102 0
M  V30 5361 C 523.338 0.620317 1.8487 0
M  V30 5362 O 522.608 -0.362784 1.92512 0
M  V30 5363 H 521.188 0.659082 0.351597 0
M  V30 5364 H 523.85 1.93497 0.233435 0
M  V30 5365 H 522.946 2.70837 1.55093 0
M  V30 5366 N 523.247 -0.488276 1.49845 0
M  V30 5367 C 524.195 -1.60917 1.67954 0
M  V30 5368 C 525.189 -1.6038 0.54539 0
M  V30 5369 O 526.395 -1.64736 0.7254 0
M  V30 5370 H 522.77 -0.533658 0.529824 0
M  V30 5371 H 524.741 -1.428 2.62013 0
M  V30 5372 C 523.49 -2.98975 1.77509 0
M  V30 5373 H 522.813 -3.00099 2.6416 0
M  V30 5374 H 524.253 -3.76906 1.9421 0
M  V30 5375 C 522.712 -3.3282 0.522745 0
M  V30 5376 O 523.242 -4.00208 -0.345866 0
M  V30 5377 N 521.448 -2.8808 0.381882 0
M  V30 5378 H 520.995 -2.33415 1.08974 0
M  V30 5379 H 520.953 -3.11091 -0.454929 0
M  V30 5380 N 524.725 -1.39134 -0.740242 0
M  V30 5381 C 525.973 -1.35803 -1.49673 0
M  V30 5382 C 526.294 0.0470897 -1.94943 0
M  V30 5383 O 525.564 0.997347 -1.68611 0
M  V30 5384 H 524.144 -0.499736 -0.555224 0
M  V30 5385 H 526.806 -1.73947 -0.879107 0
M  V30 5386 H 525.902 -2.0174 -2.38133 0
M  V30 5387 N 526.204 0.969867 -1.24223 0
M  V30 5388 C 527.45 1.7151 -1.08223 0
M  V30 5389 C 527.783 1.90478 0.37838 0
M  V30 5390 O 527.058 1.4647 1.27971 0
M  V30 5391 C 527.341 3.10714 -1.82013 0
M  V30 5392 C 527.194 2.9925 -3.35811 0
M  V30 5393 C 528.513 4.10332 -1.59108 0
M  V30 5394 H 525.632 0.622499 -0.394543 0
M  V30 5395 H 528.274 1.1284 -1.52863 0
M  V30 5396 H 526.424 3.608 -1.44068 0
M  V30 5397 H 528.096 2.56608 -3.83341 0
M  V30 5398 H 526.339 2.35512 -3.64303 0
M  V30 5399 H 527.01 3.97857 -3.82641 0
M  V30 5400 H 529.486 3.69097 -1.92111 0
M  V30 5401 H 528.362 5.05804 -2.13198 0
M  V30 5402 H 528.623 4.38926 -0.528832 0
M  V30 5403 N 527.682 1.05563 1.17022 0
M  V30 5404 C 528.928 0.778872 1.87897 0
M  V30 5405 C 529.283 -0.686839 1.79723 0
M  V30 5406 O 528.576 -1.49612 1.19694 0
M  V30 5407 C 528.77 1.19849 3.36706 0
M  V30 5408 C 528.599 2.70345 3.59366 0
M  V30 5409 C 527.369 3.37707 3.75875 0
M  V30 5410 C 529.567 3.68564 3.58699 0
M  V30 5411 N 527.549 4.7703 3.86414 0
M  V30 5412 C 528.92 4.93634 3.75134 0
M  V30 5413 C 530.975 3.6198 3.4187 0
M  V30 5414 C 529.678 6.12907 3.76481 0
M  V30 5415 C 531.704 4.80697 3.44507 0
M  V30 5416 C 531.066 6.04592 3.61453 0
M  V30 5417 H 527.165 0.337297 0.705517 0
M  V30 5418 H 529.749 1.34832 1.40458 0
M  V30 5419 H 527.92 0.656958 3.82804 0
M  V30 5420 H 529.652 0.871172 3.95212 0
M  V30 5421 H 526.407 2.88108 3.75887 0
M  V30 5422 H 526.831 5.49483 3.95471 0
M  V30 5423 H 531.473 2.67154 3.27702 0
M  V30 5424 H 529.191 7.08073 3.89432 0
M  V30 5425 H 532.777 4.77259 3.32738 0
M  V30 5426 H 531.657 6.94916 3.63403 0
M  V30 5427 N 529.16 -1.33526 0.837174 0
M  V30 5428 C 530.409 -1.97098 0.428387 0
M  V30 5429 C 530.722 -1.67062 -1.01734 0
M  V30 5430 O 531.928 -2.24235 -1.53072 0
M  V30 5431 C 530.384 -3.52725 0.715075 0
M  V30 5432 C 529.992 -3.9164 2.17537 0
M  V30 5433 C 531.736 -4.22857 0.373154 0
M  V30 5434 C 529.643 -5.40237 2.40619 0
M  V30 5435 H 528.573 -0.737589 0.156455 0
M  V30 5436 H 531.224 -1.52169 1.02552 0
M  V30 5437 H 529.606 -3.95971 0.0475904 0
M  V30 5438 H 530.78 -3.59456 2.88319 0
M  V30 5439 H 529.095 -3.34485 2.4801 0
M  V30 5440 H 531.692 -5.32133 0.523264 0
M  V30 5441 H 532.035 -4.10647 -0.683708 0
M  V30 5442 H 532.568 -3.85135 0.995801 0
M  V30 5443 H 529.307 -5.57449 3.44864 0
M  V30 5444 H 528.827 -5.73887 1.74396 0
M  V30 5445 H 530.506 -6.07102 2.23688 0
M  V30 5446 N 530.638 -0.59345 -1.46 0
M  V30 5447 C 531.886 -0.082988 -2.0193 0
M  V30 5448 C 532.207 1.28569 -1.46612 0
M  V30 5449 O 531.477 1.84629 -0.654909 0
M  V30 5450 H 530.057 -0.0276882 -0.746487 0
M  V30 5451 H 532.719 -0.771657 -1.78973 0
M  V30 5452 H 531.815 -0.022079 -3.12092 0
M  V30 5453 N 532.116 1.54067 -0.331816 0
M  V30 5454 C 533.532 1.59587 0.0205388 0
M  V30 5455 C 533.732 1.34813 1.49759 0
M  V30 5456 O 532.788 1.13661 2.25471 0
M  V30 5457 C 534.101 2.97959 -0.405103 0
M  V30 5458 C 535.649 3.10964 -0.356454 0
M  V30 5459 C 536.124 4.51694 -0.757384 0
M  V30 5460 N 537.615 4.57709 -0.71111 0
M  V30 5461 C 538.35 5.64729 -0.993427 0
M  V30 5462 N 537.846 6.79652 -1.3433 0
M  V30 5463 N 539.639 5.54546 -0.918442 0
M  V30 5464 H 531.79 1.68426 -1.29407 0
M  V30 5465 H 534.053 0.78819 -0.526745 0
M  V30 5466 H 533.759 3.21115 -1.43451 0
M  V30 5467 H 533.633 3.76524 0.225692 0
M  V30 5468 H 536.02 2.87538 0.663763 0
M  V30 5469 H 536.101 2.34484 -1.02229 0
M  V30 5470 H 535.745 4.75853 -1.77555 0
M  V30 5471 H 535.675 5.26555 -0.0691444 0
M  V30 5472 H 538.166 3.75176 -0.452883 0
M  V30 5473 H 538.479 7.57221 -1.54388 0
M  V30 5474 H 536.824 6.81128 -1.38164 0
M  V30 5475 H 540.015 4.63641 -0.644536 0
M  V30 5476 H 540.188 6.37861 -1.14181 0
M  V30 5477 N 533.594 0.0601682 1.57485 0
M  V30 5478 C 534.822 -0.620937 1.97363 0
M  V30 5479 C 535.237 -1.63846 0.938082 0
M  V30 5480 O 534.594 -1.82339 -0.0766578 0
M  V30 5481 C 534.645 -1.29987 3.37321 0
M  V30 5482 O 534.366 -0.323081 4.36907 0
M  V30 5483 C 535.867 -2.06989 3.92008 0
M  V30 5484 H 533.087 -0.169135 0.649334 0
M  V30 5485 H 535.631 0.129132 2.04092 0
M  V30 5486 H 533.786 -2.0011 3.31715 0
M  V30 5487 H 534.2 -0.808754 5.18227 0
M  V30 5488 H 535.674 -2.49901 4.92192 0
M  V30 5489 H 536.151 -2.92173 3.2792 0
M  V30 5490 H 536.757 -1.41757 4.0098 0
M  V30 5491 N 535.072 -1.5615 -0.213296 0
M  V30 5492 C 536.019 -1.93086 -1.26437 0
M  V30 5493 C 536.989 -0.789086 -1.4616 0
M  V30 5494 O 538.174 -1.04569 -1.59593 0
M  V30 5495 C 535.314 -2.26003 -2.608 0
M  V30 5496 C 534.427 -3.53156 -2.48807 0
M  V30 5497 C 533.562 -3.7548 -3.7575 0
M  V30 5498 C 532.601 -4.96119 -3.58514 0
M  V30 5499 N 531.738 -5.14791 -4.77425 0
M  V30 5500 H 536.578 -2.82707 -0.942376 0
M  V30 5501 H 534.115 -1.39919 -0.454001 0
M  V30 5502 H 536.073 -2.431 -3.39055 0
M  V30 5503 H 534.703 -1.39546 -2.91079 0
M  V30 5504 H 533.755 -3.44207 -1.61944 0
M  V30 5505 H 535.067 -4.41565 -2.31996 0
M  V30 5506 H 534.221 -3.92718 -4.62447 0
M  V30 5507 H 532.96 -2.85368 -3.95495 0
M  V30 5508 H 531.965 -4.78823 -2.70201 0
M  V30 5509 H 533.19 -5.87724 -3.40231 0
M  V30 5510 H 531.136 -4.27623 -4.97468 0
M  V30 5511 H 531.053 -5.97347 -4.63371 0
M  V30 5512 H 532.321 -5.36471 -5.65525 0
M  V30 5513 N 536.55 0.480323 -1.50102 0
M  V30 5514 C 537.775 1.26126 -1.64642 0
M  V30 5515 C 538.2 1.85257 -0.325823 0
M  V30 5516 O 537.558 1.66854 0.709194 0
M  V30 5517 C 537.606 2.35243 -2.73301 0
M  V30 5518 O 536.71 3.39646 -2.33911 0
M  V30 5519 H 536.051 0.371463 -0.550374 0
M  V30 5520 H 538.581 0.572696 -1.96421 0
M  V30 5521 H 538.591 2.80695 -2.96098 0
M  V30 5522 H 537.266 1.91574 -3.6915 0
M  V30 5523 H 535.843 2.99969 -2.21525 0
M  V30 5524 N 538.028 1.39524 0.732853 0
M  V30 5525 C 538.976 1.38563 1.86824 0
M  V30 5526 C 539.97 0.268467 1.67259 0
M  V30 5527 O 541.176 0.438613 1.74574 0
M  V30 5528 H 537.551 0.432737 0.615014 0
M  V30 5529 H 539.522 2.34328 1.84751 0
M  V30 5530 C 538.271 1.2481 3.24527 0
M  V30 5531 H 537.594 2.10044 3.40179 0
M  V30 5532 H 539.034 1.28194 4.04156 0
M  V30 5533 C 537.493 -0.0432825 3.36872 0
M  V30 5534 O 538.023 -1.01268 3.88726 0
M  V30 5535 N 536.229 -0.107055 2.90403 0
M  V30 5536 H 535.776 0.682512 2.48394 0
M  V30 5537 H 535.734 -0.970618 2.99042 0
M  V30 5538 N 539.506 -0.963266 1.24736 0
M  V30 5539 C 540.731 -1.74699 1.11781 0
M  V30 5540 C 541.156 -1.85267 -0.325258 0
M  V30 5541 O 540.514 -1.32681 -1.23553 0
M  V30 5542 C 540.562 -3.14322 1.76731 0
M  V30 5543 O 539.666 -3.99043 1.04109 0
M  V30 5544 H 539.007 -0.53684 0.390767 0
M  V30 5545 H 541.537 -1.20801 1.65131 0
M  V30 5546 H 541.547 -3.64824 1.82668 0
M  V30 5547 H 540.222 -3.05946 2.81726 0
M  V30 5548 H 538.799 -3.5752 1.05991 0
M  V30 5549 N 540.985 -1.06182 -1.16461 0
M  V30 5550 C 542.21 -0.798599 -1.91408 0
M  V30 5551 C 542.635 0.640987 -1.76842 0
M  V30 5552 O 541.993 1.44652 -1.09296 0
M  V30 5553 C 542.041 -1.19665 -3.40165 0
M  V30 5554 O 541.145 -0.334768 -4.11039 0
M  V30 5555 H 540.486 -0.291961 -0.596368 0
M  V30 5556 H 543.016 -1.41732 -1.47557 0
M  V30 5557 H 543.026 -1.16772 -3.90933 0
M  V30 5558 H 541.701 -2.24526 -3.50087 0
M  V30 5559 H 540.278 -0.425168 -3.70468 0
M  V30 5560 N 542.463 1.3308 -0.844243 0
M  V30 5561 C 543.879 1.50447 -0.532729 0
M  V30 5562 C 544.079 1.78292 0.938837 0
M  V30 5563 O 543.135 1.84635 1.72239 0
M  V30 5564 C 544.448 2.65555 -1.41072 0
M  V30 5565 C 545.996 2.7944 -1.41005 0
M  V30 5566 C 546.471 3.97616 -2.27301 0
M  V30 5567 N 547.962 4.0486 -2.2504 0
M  V30 5568 C 548.697 4.95508 -2.88547 0
M  V30 5569 N 548.193 5.91236 -3.61126 0
M  V30 5570 N 549.986 4.88548 -2.77989 0
M  V30 5571 H 542.137 1.13269 -1.79677 0
M  V30 5572 H 544.4 0.55734 -0.766861 0
M  V30 5573 H 544.106 2.51675 -2.45668 0
M  V30 5574 H 543.98 3.61089 -1.09061 0
M  V30 5575 H 546.367 2.92749 -0.371784 0
M  V30 5576 H 546.448 1.8465 -1.77026 0
M  V30 5577 H 546.092 3.85066 -3.3119 0
M  V30 5578 H 546.022 4.91661 -1.88619 0
M  V30 5579 H 548.513 3.36353 -1.72264 0
M  V30 5580 H 548.826 6.57079 -4.06776 0
M  V30 5581 H 547.171 5.91295 -3.65234 0
M  V30 5582 H 550.362 4.12729 -2.20846 0
M  V30 5583 H 550.535 5.58994 -3.27765 0
M  V30 5584 N 543.941 0.601185 1.45683 0
M  V30 5585 C 544.888 -0.121396 2.30481 0
M  V30 5586 C 545.858 -0.866232 1.41724 0
M  V30 5587 O 547.043 -0.85324 1.70659 0
M  V30 5588 C 544.183 -1.11704 3.26521 0
M  V30 5589 C 543.296 -0.373741 4.3038 0
M  V30 5590 C 542.431 -1.35854 5.13534 0
M  V30 5591 C 541.47 -0.602689 6.09126 0
M  V30 5592 N 540.607 -1.53645 6.85082 0
M  V30 5593 H 545.447 0.607732 2.91737 0
M  V30 5594 H 542.984 0.311502 1.43764 0
M  V30 5595 H 544.942 -1.70735 3.80664 0
M  V30 5596 H 543.572 -1.81366 2.67032 0
M  V30 5597 H 542.624 0.331962 3.78949 0
M  V30 5598 H 543.936 0.2163 4.98331 0
M  V30 5599 H 543.09 -2.02111 5.72046 0
M  V30 5600 H 541.829 -1.98251 4.45587 0
M  V30 5601 H 540.834 0.0735482 5.49751 0
M  V30 5602 H 542.059 0.0161467 6.79098 0
M  V30 5603 H 540.005 -2.14819 6.1983 0
M  V30 5604 H 539.922 -0.999688 7.49361 0
M  V30 5605 H 541.19 -2.1888 7.48139 0
M  V30 5606 N 545.419 -1.53889 0.339982 0
M  V30 5607 C 546.667 -2.00458 -0.257112 0
M  V30 5608 C 546.988 -1.22953 -1.51353 0
M  V30 5609 O 546.258 -0.335734 -1.93002 0
M  V30 5610 H 544.838 -0.740544 -0.0979965 0
M  V30 5611 H 547.5 -1.89386 0.460317 0
M  V30 5612 H 546.596 -3.08035 -0.502057 0
M  V30 5613 N 546.897 -0.0685191 -1.57451 0
M  V30 5614 C 548.144 0.601348 -1.93365 0
M  V30 5615 C 548.472 1.69816 -0.948294 0
M  V30 5616 O 547.727 1.95666 0.0366199 0
M  V30 5617 C 548.026 1.22051 -3.35914 0
M  V30 5618 C 547.692 0.250165 -4.50205 0
M  V30 5619 C 546.354 -0.0167954 -4.81197 0
M  V30 5620 C 548.706 -0.413867 -5.19554 0
M  V30 5621 C 546.034 -0.95493 -5.78876 0
M  V30 5622 C 548.386 -1.3403 -6.18238 0
M  V30 5623 C 547.05 -1.61576 -6.47649 0
M  V30 5624 H 546.32 0.220049 -0.707573 0
M  V30 5625 H 548.967 -0.138697 -1.90997 0
M  V30 5626 H 547.272 2.03622 -3.34732 0
M  V30 5627 H 548.969 1.74605 -3.6099 0
M  V30 5628 H 545.559 0.468421 -4.26033 0
M  V30 5629 H 549.743 -0.220733 -4.95809 0
M  V30 5630 H 544.999 -1.17563 -5.99991 0
M  V30 5631 H 549.173 -1.86081 -6.71079 0
M  V30 5632 H 546.8 -2.34431 -7.2315 0
M  V30 5633 N 548.375 1.56261 0.205012 0
M  V30 5634 C 549.285 1.96944 1.27476 0
M  V30 5635 C 550.301 0.875636 1.50362 0
M  V30 5636 O 551.477 1.18058 1.6317 0
M  V30 5637 C 548.542 2.29219 2.60115 0
M  V30 5638 C 547.603 3.52255 2.45387 0
M  V30 5639 C 546.836 3.8298 3.71701 0
M  V30 5640 O 547.059 3.15138 4.75441 0
M  V30 5641 O 545.993 4.76435 3.67823 0
M  V30 5642 H 549.819 2.88144 0.959527 0
M  V30 5643 H 547.404 1.43686 0.409217 0
M  V30 5644 H 549.286 2.51098 3.3842 0
M  V30 5645 H 547.961 1.4119 2.91285 0
M  V30 5646 H 546.868 3.35635 1.65227 0
M  V30 5647 H 548.201 4.40719 2.19152 0
M  V30 5648 N 549.853 -0.472356 1.50355 0
M  V30 5649 C 550.786 -1.58923 1.63764 0
M  V30 5650 C 551.764 -1.55173 0.485793 0
M  V30 5651 O 552.948 -1.74815 0.705132 0
M  V30 5652 C 550.075 -2.97497 1.61905 0
M  V30 5653 C 549.121 -3.19405 2.82635 0
M  V30 5654 S 549.954 -2.99441 4.43954 0
M  V30 5655 C 551.11 -4.40359 4.44786 0
M  V30 5656 H 551.343 -1.47309 2.58239 0
M  V30 5657 H 548.876 -0.659601 1.39602 0
M  V30 5658 H 550.834 -3.77389 1.61518 0
M  V30 5659 H 549.495 -3.06502 0.686683 0
M  V30 5660 H 548.688 -4.20636 2.77636 0
M  V30 5661 H 548.29 -2.47283 2.80583 0
M  V30 5662 H 550.582 -5.32969 4.1827 0
M  V30 5663 H 551.525 -4.50403 5.46391 0
M  V30 5664 H 551.933 -4.22378 3.74509 0
M  V30 5665 N 551.331 -1.39911 -0.725443 0
M  V30 5666 C 552.58 -1.36963 -1.48068 0
M  V30 5667 C 552.893 0.0284478 -1.95579 0
M  V30 5668 O 554.099 0.180535 -2.70899 0
M  V30 5669 C 552.555 -2.40664 -2.67598 0
M  V30 5670 C 552.163 -3.86234 -2.26997 0
M  V30 5671 C 553.907 -2.46807 -3.45379 0
M  V30 5672 C 551.814 -4.81554 -3.43307 0
M  V30 5673 H 550.744 -0.509223 -0.556065 0
M  V30 5674 H 553.395 -1.65602 -0.790454 0
M  V30 5675 H 551.777 -2.05109 -3.38742 0
M  V30 5676 H 552.951 -4.3088 -1.63337 0
M  V30 5677 H 551.266 -3.83475 -1.62284 0
M  V30 5678 H 553.863 -3.15213 -4.31909 0
M  V30 5679 H 554.206 -1.49552 -3.8851 0
M  V30 5680 H 554.739 -2.81303 -2.81271 0
M  V30 5681 H 551.478 -5.80106 -3.05217 0
M  V30 5682 H 550.998 -4.4158 -4.05915 0
M  V30 5683 H 552.677 -5.0091 -4.0951 0
M  V30 5684 N 552.809 0.956637 -1.25245 0
M  V30 5685 C 554.055 1.70413 -1.11044 0
M  V30 5686 C 554.41 1.89275 0.345377 0
M  V30 5687 O 553.703 1.45116 1.25107 0
M  V30 5688 C 553.897 3.08996 -1.79601 0
M  V30 5689 C 553.726 3.03654 -3.317 0
M  V30 5690 C 552.496 3.07521 -4.00947 0
M  V30 5691 C 554.694 2.84975 -4.28128 0
M  V30 5692 N 552.676 2.92316 -5.39838 0
M  V30 5693 C 554.047 2.7818 -5.5409 0
M  V30 5694 C 556.102 2.6964 -4.18568 0
M  V30 5695 C 554.805 2.57616 -6.71585 0
M  V30 5696 C 556.831 2.50447 -5.35752 0
M  V30 5697 C 556.193 2.4437 -6.60653 0
M  V30 5698 H 552.292 0.631642 -0.461035 0
M  V30 5699 H 554.876 1.13331 -1.58317 0
M  V30 5700 H 553.047 3.64248 -1.34826 0
M  V30 5701 H 554.779 3.72515 -1.58161 0
M  V30 5702 H 551.534 3.16635 -3.52192 0
M  V30 5703 H 551.958 2.87923 -6.12723 0
M  V30 5704 H 556.6 2.73113 -3.22752 0
M  V30 5705 H 554.318 2.52885 -7.67512 0
M  V30 5706 H 557.904 2.39509 -5.30214 0
M  V30 5707 H 556.784 2.29712 -7.49801 0
M  V30 5708 N 554.287 1.06798 1.15896 0
M  V30 5709 C 555.564 0.701057 1.82605 0
M  V30 5710 C 555.944 -0.817066 1.94646 0
M  V30 5711 O 555.292 -1.72933 1.49353 0
M  V30 5712 C 555.502 1.40895 3.19296 0
M  V30 5713 C 556.85 1.55744 3.95005 0
M  V30 5714 O 557.874 1.36927 3.28831 0
M  V30 5715 O 556.733 1.86658 5.13635 0
M  V30 5716 H 553.827 0.248791 0.78869 0
M  V30 5717 H 556.373 1.16857 1.23055 0
M  V30 5718 H 555.145 2.4439 3.05596 0
M  V30 5719 H 554.768 0.931847 3.86526 0
M  V30 5720 N 555.766 -1.3263 0.851289 0
M  V30 5721 C 557.177 -1.79653 0.5081 0
M  V30 5722 C 557.528 -1.70327 -0.973815 0
M  V30 5723 O 556.653 -1.25986 -1.75944 0
M  V30 5724 C 557.248 -3.26196 0.915515 0
M  V30 5725 C 555.807 -3.71187 0.624277 0
M  V30 5726 C 554.954 -2.53804 1.11709 0
M  V30 5727 H 557.905 -1.19976 1.03882 0
M  V30 5728 H 557.926 -3.79801 0.230535 0
M  V30 5729 H 557.438 -3.32952 1.99411 0
M  V30 5730 H 555.539 -3.69948 -0.443737 0
M  V30 5731 H 555.652 -4.64132 1.18821 0
M  V30 5732 H 554.016 -2.48964 0.537484 0
M  V30 5733 H 554.799 -2.63315 2.20272 0
M  V30 5734 N 557.244 -0.608902 -1.45362 0
M  V30 5735 C 558.192 0.121639 -2.32282 0
M  V30 5736 C 559.186 0.858301 -1.46046 0
M  V30 5737 O 560.392 0.773718 -1.62523 0
M  V30 5738 H 556.767 0.058086 -0.749753 0
M  V30 5739 H 558.738 -0.629866 -2.91677 0
M  V30 5740 C 557.487 1.1047 -3.29684 0
M  V30 5741 H 556.81 0.547278 -3.96036 0
M  V30 5742 H 558.25 1.58576 -3.9323 0
M  V30 5743 C 556.709 2.17891 -2.56954 0
M  V30 5744 O 557.239 3.25652 -2.35189 0
M  V30 5745 N 555.445 1.93211 -2.17066 0
M  V30 5746 H 554.992 1.05584 -2.34967 0
M  V30 5747 H 554.95 2.6529 -1.68727 0
M  V30 5748 N 558.722 1.53707 -0.348139 0
M  V30 5749 C 559.97 2.00591 0.246478 0
M  V30 5750 C 560.291 1.23753 1.50699 0
M  V30 5751 O 559.561 0.345964 1.92821 0
M  V30 5752 H 558.141 0.741053 0.0940679 0
M  V30 5753 H 560.803 1.89139 -0.470354 0
M  V30 5754 H 559.899 3.08297 0.485714 0
M  V30 5755 N 560.2 0.0768682 1.57412 0
M  V30 5756 C 561.446 -0.585926 1.94778 0
M  V30 5757 C 561.801 -1.66912 0.956982 0
M  V30 5758 O 561.094 -1.9159 -0.0199454 0
M  V30 5759 C 561.288 -1.20268 3.36557 0
M  V30 5760 C 561.117 -0.18076 4.49337 0
M  V30 5761 C 559.887 0.236362 5.04747 0
M  V30 5762 C 562.085 0.583978 5.10974 0
M  V30 5763 N 560.067 1.24846 6.01071 0
M  V30 5764 C 561.438 1.44841 6.02844 0
M  V30 5765 C 563.493 0.639492 4.93776 0
M  V30 5766 C 562.196 2.36343 6.79363 0
M  V30 5767 C 564.222 1.54204 5.70942 0
M  V30 5768 C 563.584 2.39414 6.62465 0
M  V30 5769 H 559.683 -0.185281 0.759734 0
M  V30 5770 H 562.267 0.155193 1.9408 0
M  V30 5771 H 560.438 -1.9137 3.37982 0
M  V30 5772 H 562.17 -1.82636 3.61146 0
M  V30 5773 H 558.925 -0.14777 4.73369 0
M  V30 5774 H 559.349 1.75217 6.53933 0
M  V30 5775 H 563.991 -0.00510074 4.228 0
M  V30 5776 H 561.709 3.01836 7.49614 0
M  V30 5777 H 565.295 1.5899 5.59655 0
M  V30 5778 H 564.175 3.0812 7.21132 0
M  V30 5779 N 561.678 -1.56367 -0.196722 0
M  V30 5780 C 562.906 -1.84639 -0.933608 0
M  V30 5781 C 563.321 -0.659164 -1.76919 0
M  V30 5782 O 562.678 0.372142 -1.78665 0
M  V30 5783 C 562.729 -3.11694 -1.83109 0
M  V30 5784 O 562.45 -4.25838 -1.02924 0
M  V30 5785 C 563.951 -3.53132 -2.67979 0
M  V30 5786 H 561.171 -0.613188 -0.272473 0
M  V30 5787 H 563.715 -2.03475 -0.204465 0
M  V30 5788 H 561.87 -2.94759 -2.51387 0
M  V30 5789 H 562.284 -4.98178 -1.64069 0
M  V30 5790 H 563.758 -4.45005 -3.26611 0
M  V30 5791 H 564.235 -2.76045 -3.41608 0
M  V30 5792 H 564.841 -3.72592 -2.05074 0
M  V30 5793 N 563.156 0.464375 -1.50603 0
M  V30 5794 C 564.433 1.22549 -1.5245 0
M  V30 5795 C 564.813 2.09327 -0.273035 0
M  V30 5796 O 564.161 2.16074 0.743242 0
M  V30 5797 C 564.371 2.05074 -2.82393 0
M  V30 5798 C 565.719 2.63036 -3.33313 0
M  V30 5799 O 566.743 2.1531 -2.8376 0
M  V30 5800 O 565.602 3.5001 -4.19709 0
M  V30 5801 H 562.696 0.556471 -0.611775 0
M  V30 5802 H 565.242 0.475648 -1.62898 0
M  V30 5803 H 564.014 1.41169 -3.64948 0
M  V30 5804 H 563.637 2.87179 -2.7498 0
M  V30 5805 N 564.634 1.40294 0.718013 0
M  V30 5806 C 565.862 1.4175 1.50714 0
M  V30 5807 C 566.277 0.0165366 1.88793 0
M  V30 5808 O 565.634 -0.958942 1.55276 0
M  V30 5809 C 565.685 2.30598 2.784 0
M  V30 5810 O 565.406 3.6524 2.41932 0
M  V30 5811 C 566.907 2.4062 3.72313 0
M  V30 5812 H 564.127 0.483565 0.465194 0
M  V30 5813 H 566.671 1.84316 0.885889 0
M  V30 5814 H 564.826 1.91401 3.36815 0
M  V30 5815 H 565.24 4.12402 3.24076 0
M  V30 5816 H 566.714 3.07001 4.58753 0
M  V30 5817 H 567.191 1.4305 4.15251 0
M  V30 5818 H 567.797 2.80359 3.19811 0
M  V30 5819 N 566.112 -0.949982 1.2575 0
M  V30 5820 C 567.389 -1.6718 1.01539 0
M  V30 5821 C 567.769 -2.06095 -0.456942 0
M  V30 5822 O 567.117 -1.77792 -1.43534 0
M  V30 5823 C 567.327 -2.8906 1.95564 0
M  V30 5824 C 568.675 -3.60909 2.23673 0
M  V30 5825 O 569.699 -2.9915 1.9336 0
M  V30 5826 O 568.558 -4.72127 2.75243 0
M  V30 5827 H 565.652 -0.731697 0.385419 0
M  V30 5828 H 568.198 -1.00249 1.36924 0
M  V30 5829 H 566.97 -2.57128 2.94959 0
M  V30 5830 H 566.593 -3.63719 1.60605 0
M  V30 5831 N 567.59 -1.07411 -1.15328 0
M  V30 5832 C 568.815 -0.818856 -1.90551 0
M  V30 5833 C 569.24 0.622194 -1.77512 0
M  V30 5834 O 568.598 1.43484 -1.10824 0
M  V30 5835 C 568.646 -1.23267 -3.38877 0
M  V30 5836 O 567.75 -0.378345 -4.10661 0
M  V30 5837 H 567.091 -0.29827 -0.593238 0
M  V30 5838 H 569.621 -1.43289 -1.46046 0
M  V30 5839 H 569.631 -1.20912 -3.89672 0
M  V30 5840 H 568.306 -2.28226 -3.47686 0
M  V30 5841 H 566.883 -0.464437 -3.69996 0
M  V30 5842 N 569.068 1.32177 -0.85831 0
M  V30 5843 C 570.016 2.30729 -0.294442 0
M  V30 5844 C 571.01 1.59009 0.584165 0
M  V30 5845 O 572.216 1.73713 0.471562 0
M  V30 5846 H 568.591 0.748097 -0.0765171 0
M  V30 5847 H 570.562 2.75774 -1.1398 0
M  V30 5848 C 569.311 3.44098 0.499208 0
M  V30 5849 H 568.634 3.99449 -0.167579 0
M  V30 5850 H 570.074 4.15202 0.859273 0
M  V30 5851 C 568.533 2.91684 1.68588 0
M  V30 5852 O 569.063 2.89481 2.78503 0
M  V30 5853 N 567.269 2.48036 1.51415 0
M  V30 5854 H 566.816 2.50027 0.620006 0
M  V30 5855 H 566.774 2.13322 2.30957 0
M  V30 5856 N 570.547 0.616602 1.45037 0
M  V30 5857 C 571.794 0.115331 2.02171 0
M  V30 5858 C 572.122 -1.25748 1.48383 0
M  V30 5859 O 571.377 -1.84511 0.652229 0
M  V30 5860 C 571.676 0.0356829 3.57382 0
M  V30 5861 C 571.342 1.34535 4.30362 0
M  V30 5862 C 570.004 1.70408 4.50016 0
M  V30 5863 C 572.356 2.21049 4.72003 0
M  V30 5864 C 569.684 2.92529 5.0857 0
M  V30 5865 C 572.036 3.42427 5.31908 0
M  V30 5866 C 570.7 3.78541 5.49784 0
M  V30 5867 H 569.97 0.0422024 0.739797 0
M  V30 5868 H 572.617 0.80002 1.73988 0
M  V30 5869 H 570.922 -0.732314 3.84895 0
M  V30 5870 H 572.619 -0.368463 3.99304 0
M  V30 5871 H 569.209 1.05615 4.15383 0
M  V30 5872 H 573.393 1.94632 4.56544 0
M  V30 5873 H 568.649 3.20605 5.20598 0
M  V30 5874 H 572.823 4.09709 5.63127 0
M  V30 5875 H 570.45 4.73255 5.94923 0
M  V30 5876 N 572.025 -1.5352 0.356285 0
M  V30 5877 C 572.955 -2.28372 -0.486661 0
M  V30 5878 C 573.936 -1.30432 -1.09185 0
M  V30 5879 O 575.121 -1.59291 -1.11085 0
M  V30 5880 C 572.251 -3.06604 -1.63129 0
M  V30 5881 C 571.205 -4.12154 -1.15381 0
M  V30 5882 C 570.531 -4.78415 -2.38796 0
M  V30 5883 C 571.831 -5.21724 -0.245179 0
M  V30 5884 H 573.525 -2.99083 0.137797 0
M  V30 5885 H 571.071 -1.43841 0.0677134 0
M  V30 5886 H 573.024 -3.57712 -2.22755 0
M  V30 5887 H 571.748 -2.33568 -2.28284 0
M  V30 5888 H 570.407 -3.61978 -0.580294 0
M  V30 5889 H 570.055 -4.01959 -3.02387 0
M  V30 5890 H 569.755 -5.49734 -2.07524 0
M  V30 5891 H 571.279 -5.32313 -2.99125 0
M  V30 5892 H 572.693 -5.68391 -0.748646 0
M  V30 5893 H 571.09 -6.00095 -0.0237608 0
M  V30 5894 H 572.16 -4.79596 0.715229 0
M  V30 5895 N 573.503 -0.0852151 -1.57369 0
M  V30 5896 C 574.749 0.581666 -1.94279 0
M  V30 5897 C 575.082 1.68444 -0.966446 0
M  V30 5898 O 574.357 1.945 0.00215277 0
M  V30 5899 C 574.64 1.14609 -3.41375 0
M  V30 5900 C 574.493 0.0490414 -4.49773 0
M  V30 5901 C 575.812 2.04751 -3.8957 0
M  V30 5902 H 572.931 0.209972 -0.706456 0
M  V30 5903 H 575.573 -0.153915 -1.89376 0
M  V30 5904 H 573.723 1.77297 -3.45685 0
M  V30 5905 H 575.395 -0.584721 -4.57579 0
M  V30 5906 H 573.638 -0.618638 -4.29366 0
M  V30 5907 H 574.309 0.484601 -5.49869 0
M  V30 5908 H 576.785 1.51981 -3.87351 0
M  V30 5909 H 575.661 2.41173 -4.93079 0
M  V30 5910 H 575.922 2.96107 -3.28288 0
M  V30 5911 N 574.981 1.5647 0.188427 0
M  V30 5912 C 575.928 1.95073 1.23349 0
M  V30 5913 C 576.898 0.812238 1.44886 0
M  V30 5914 O 578.083 1.07095 1.57909 0
M  V30 5915 C 575.223 2.30124 2.57171 0
M  V30 5916 C 574.336 3.57069 2.43157 0
M  V30 5917 C 573.471 3.81411 3.69729 0
M  V30 5918 C 572.51 5.0176 3.50575 0
M  V30 5919 N 571.647 5.22321 4.69175 0
M  V30 5920 H 576.487 2.84171 0.89728 0
M  V30 5921 H 574.024 1.40623 0.431683 0
M  V30 5922 H 575.982 2.48463 3.35145 0
M  V30 5923 H 574.612 1.44159 2.88822 0
M  V30 5924 H 573.664 3.4674 1.56447 0
M  V30 5925 H 574.976 4.452 2.24942 0
M  V30 5926 H 574.13 4.00026 4.56141 0
M  V30 5927 H 572.869 2.91624 3.90905 0
M  V30 5928 H 571.874 4.83061 2.62549 0
M  V30 5929 H 573.099 5.93063 3.30837 0
M  V30 5930 H 571.045 4.35483 4.90602 0
M  V30 5931 H 570.962 6.04643 4.53809 0
M  V30 5932 H 572.23 5.45401 5.56919 0
M  V30 5933 N 576.459 -0.456382 1.50847 0
M  V30 5934 C 577.391 -1.57033 1.66953 0
M  V30 5935 C 578.404 -1.53207 0.550593 0
M  V30 5936 O 579.593 -1.58328 0.824285 0
M  V30 5937 C 576.693 -2.95937 1.65149 0
M  V30 5938 C 575.866 -3.24475 2.93317 0
M  V30 5939 C 574.925 -4.43007 2.83957 0
M  V30 5940 O 573.951 -4.42592 3.57912 0
M  V30 5941 N 575.153 -5.45503 1.9851 0
M  V30 5942 H 577.918 -1.43629 2.63042 0
M  V30 5943 H 575.479 -0.645037 1.48495 0
M  V30 5944 H 577.471 -3.73224 1.56481 0
M  V30 5945 H 576.041 -3.03036 0.767343 0
M  V30 5946 H 575.261 -2.35664 3.16 0
M  V30 5947 H 576.549 -3.4036 3.78196 0
M  V30 5948 H 575.947 -5.48668 1.37766 0
M  V30 5949 H 574.504 -6.21716 1.95735 0
M  V30 5950 N 577.937 -1.40673 -0.710563 0
M  V30 5951 C 579.214 -1.29718 -1.46398 0
M  V30 5952 C 579.594 0.082177 -2.1094 0
M  V30 5953 O 578.942 1.09536 -2.00534 0
M  V30 5954 C 579.152 -2.43967 -2.49562 0
M  V30 5955 C 580.5 -2.84436 -3.15248 0
M  V30 5956 O 581.524 -2.43597 -2.59883 0
M  V30 5957 O 580.383 -3.55008 -4.1549 0
M  V30 5958 H 577.477 -0.509697 -0.651258 0
M  V30 5959 H 580.023 -1.52603 -0.742312 0
M  V30 5960 H 578.795 -3.36076 -2.0042 0
M  V30 5961 H 578.418 -2.22879 -3.29258 0
M  V30 5962 N 579.415 0.9433 -1.26252 0
M  V30 5963 C 580.661 1.69175 -1.11837 0
M  V30 5964 C 580.994 1.91238 0.337891 0
M  V30 5965 O 580.269 1.49152 1.24836 0
M  V30 5966 C 580.552 3.06783 -1.88563 0
M  V30 5967 C 580.405 2.9206 -3.42083 0
M  V30 5968 C 581.724 4.06865 -1.67776 0
M  V30 5969 H 578.843 0.61399 -0.407658 0
M  V30 5970 H 581.485 1.09572 -1.55222 0
M  V30 5971 H 579.635 3.57663 -1.51689 0
M  V30 5972 H 581.307 2.48419 -3.88698 0
M  V30 5973 H 579.55 2.27731 -3.69217 0
M  V30 5974 H 580.221 3.89651 -3.90994 0
M  V30 5975 H 582.697 3.64939 -1.99897 0
M  V30 5976 H 581.573 5.01168 -2.23879 0
M  V30 5977 H 581.834 4.37705 -0.621816 0
M  V30 5978 N 580.893 1.08022 1.14757 0
M  V30 5979 C 582.139 0.808705 1.85978 0
M  V30 5980 C 582.472 -0.663764 1.82504 0
M  V30 5981 O 581.747 -1.48765 1.25296 0
M  V30 5982 C 582.03 1.32623 3.34788 0
M  V30 5983 C 581.883 2.86375 3.46856 0
M  V30 5984 C 583.202 0.948291 4.29762 0
M  V30 5985 H 580.321 0.295244 0.675278 0
M  V30 5986 H 582.963 1.33917 1.34783 0
M  V30 5987 H 581.113 0.875002 3.78518 0
M  V30 5988 H 582.785 3.39839 3.11941 0
M  V30 5989 H 581.028 3.24232 2.88194 0
M  V30 5990 H 581.699 3.17658 4.51439 0
M  V30 5991 H 584.175 1.33722 3.94028 0
M  V30 5992 H 583.051 1.33765 5.32352 0
M  V30 5993 H 583.312 -0.145094 4.41862 0
M  V30 5994 N 582.371 -1.3172 0.865308 0
M  V30 5995 C 583.334 -2.26918 0.322627 0
M  V30 5996 C 584.334 -1.52031 -0.523751 0
M  V30 5997 O 585.524 -1.70973 -0.333727 0
M  V30 5998 C 582.656 -3.36558 -0.542338 0
M  V30 5999 H 583.849 -2.76432 1.16298 0
M  V30 6000 H 581.402 -1.42573 0.640512 0
M  V30 6001 H 582.137 -2.92329 -1.40407 0
M  V30 6002 H 581.922 -3.92048 0.0636395 0
M  V30 6003 H 583.412 -4.07465 -0.91446 0
M  V30 6004 N 583.85 -0.624285 -1.44708 0
M  V30 6005 C 584.783 0.133905 -2.27807 0
M  V30 6006 C 585.76 0.857794 -1.38133 0
M  V30 6007 O 586.945 0.863277 -1.6757 0
M  V30 6008 C 584.072 1.19541 -3.16903 0
M  V30 6009 C 583.118 0.572813 -4.22636 0
M  V30 6010 S 583.951 -0.631953 -5.31758 0
M  V30 6011 C 585.106 0.429733 -6.24423 0
M  V30 6012 H 585.34 -0.571072 -2.91764 0
M  V30 6013 H 582.873 -0.412261 -1.48794 0
M  V30 6014 H 584.831 1.80293 -3.68788 0
M  V30 6015 H 583.492 1.87255 -2.5218 0
M  V30 6016 H 582.685 1.37205 -4.84965 0
M  V30 6017 H 582.287 0.0400641 -3.73979 0
M  V30 6018 H 584.579 1.30421 -6.64828 0
M  V30 6019 H 585.522 -0.157804 -7.07924 0
M  V30 6020 H 585.93 0.75256 -5.59461 0
M  V30 6021 N 585.328 1.53329 -0.364422 0
M  V30 6022 C 586.556 2.05657 0.226424 0
M  V30 6023 C 586.971 1.23801 1.42544 0
M  V30 6024 O 586.328 0.27839 1.80364 0
M  V30 6025 C 586.379 3.56125 0.621056 0
M  V30 6026 O 586.1 4.34879 -0.530304 0
M  V30 6027 C 587.601 4.24706 1.27041 0
M  V30 6028 H 584.821 0.669806 0.0400056 0
M  V30 6029 H 587.365 1.97714 -0.522456 0
M  V30 6030 H 585.52 3.64223 1.31985 0
M  V30 6031 H 585.934 5.24073 -0.211546 0
M  V30 6032 H 587.408 5.3131 1.49711 0
M  V30 6033 H 587.885 3.78354 2.23036 0
M  V30 6034 H 588.491 4.20858 0.613079 0
M  V30 6035 N 586.806 0.0935595 1.57322 0
M  V30 6036 C 588.083 -0.612692 1.85756 0
M  V30 6037 C 588.463 -1.86439 0.99013 0
M  V30 6038 O 587.811 -2.28416 0.0621362 0
M  V30 6039 C 588.021 -0.929547 3.36393 0
M  V30 6040 C 589.369 -1.29366 4.04413 0
M  V30 6041 O 590.393 -1.02061 3.41265 0
M  V30 6042 O 589.252 -1.80498 5.15832 0
M  V30 6043 H 586.346 -0.306444 0.768128 0
M  V30 6044 H 588.892 0.126141 1.69231 0
M  V30 6045 H 587.664 -0.0414766 3.91278 0
M  V30 6046 H 587.287 -1.72441 3.5826 0
M  V30 6047 N 588.284 -1.56567 -0.180126 0
M  V30 6048 C 589.53 -1.82658 -0.894859 0
M  V30 6049 C 589.885 -0.672826 -1.80252 0
M  V30 6050 O 589.178 0.331227 -1.88715 0
M  V30 6051 C 589.372 -3.1252 -1.73395 0
M  V30 6052 C 589.201 -4.40417 -0.909028 0
M  V30 6053 C 587.971 -5.01872 -0.587562 0
M  V30 6054 C 590.169 -5.13669 -0.254698 0
M  V30 6055 N 588.151 -6.13373 0.254428 0
M  V30 6056 C 589.522 -6.18373 0.448837 0
M  V30 6057 C 591.577 -4.97603 -0.171958 0
M  V30 6058 C 590.28 -7.08753 1.22725 0
M  V30 6059 C 592.306 -5.88418 0.593101 0
M  V30 6060 C 591.668 -6.92579 1.28503 0
M  V30 6061 H 587.767 -0.719493 -0.306356 0
M  V30 6062 H 590.351 -1.94021 -0.16247 0
M  V30 6063 H 588.522 -3.02365 -2.43783 0
M  V30 6064 H 590.254 -3.2664 -2.38931 0
M  V30 6065 H 587.009 -4.64666 -0.915557 0
M  V30 6066 H 587.433 -6.73721 0.665474 0
M  V30 6067 H 592.075 -4.17089 -0.692555 0
M  V30 6068 H 589.793 -7.88718 1.75923 0
M  V30 6069 H 593.379 -5.78059 0.658674 0
M  V30 6070 H 592.259 -7.61638 1.86754 0
M  V30 6071 N 589.762 0.448376 -1.51087 0
M  V30 6072 C 590.987 1.22605 -1.6728 0
M  V30 6073 C 591.412 1.84524 -0.365045 0
M  V30 6074 O 590.77 1.6832 0.673642 0
M  V30 6075 C 590.818 2.29393 -2.78229 0
M  V30 6076 O 589.922 3.34608 -2.41063 0
M  V30 6077 H 589.263 0.359705 -0.558129 0
M  V30 6078 H 591.793 0.530903 -1.97592 0
M  V30 6079 H 591.803 2.74352 -3.01986 0
M  V30 6080 H 590.478 1.83701 -3.73131 0
M  V30 6081 H 589.055 2.95202 -2.27838 0
M  V30 6082 N 591.24 1.41047 0.703093 0
M  V30 6083 C 592.488 1.39723 1.4602 0
M  V30 6084 C 592.809 0.00461257 1.94999 0
M  V30 6085 O 592.079 -0.952292 1.71196 0
M  V30 6086 H 590.659 0.514281 0.541779 0
M  V30 6087 H 593.321 1.76217 0.832678 0
M  V30 6088 H 592.417 2.07982 2.32701 0
M  V30 6089 N 592.718 -0.936591 1.26751 0
M  V30 6090 C 593.948 -1.71509 1.15188 0
M  V30 6091 C 594.356 -1.86885 -0.295037 0
M  V30 6092 O 593.699 -1.37915 -1.21347 0
M  V30 6093 C 593.761 -3.13853 1.75318 0
M  V30 6094 C 593.425 -3.21845 3.24445 0
M  V30 6095 C 594.422 -3.04771 4.21201 0
M  V30 6096 C 592.107 -3.45088 3.64992 0
M  V30 6097 C 594.101 -3.10816 5.56482 0
M  V30 6098 C 591.788 -3.50767 5.00405 0
M  V30 6099 C 592.786 -3.33648 5.9596 0
M  V30 6100 O 592.474 -3.39045 7.28906 0
M  V30 6101 H 592.206 -0.543658 0.401761 0
M  V30 6102 H 594.76 -1.18234 1.67958 0
M  V30 6103 H 592.99 -3.6857 1.17016 0
M  V30 6104 H 594.679 -3.73634 1.58596 0
M  V30 6105 H 595.445 -2.86665 3.91214 0
M  V30 6106 H 591.324 -3.57467 2.91098 0
M  V30 6107 H 594.868 -2.97372 6.31043 0
M  V30 6108 H 590.765 -3.68396 5.30052 0
M  V30 6109 H 591.533 -3.55558 7.37238 0
M  V30 6110 N 594.196 -1.08629 -1.14182 0
M  V30 6111 C 595.421 -0.83902 -1.89671 0
M  V30 6112 C 595.846 0.603332 -1.78161 0
M  V30 6113 O 595.204 1.42301 -1.12339 0
M  V30 6114 C 595.252 -1.26854 -3.37551 0
M  V30 6115 O 594.356 -0.42188 -4.10236 0
M  V30 6116 H 593.697 -0.304545 -0.590041 0
M  V30 6117 H 596.227 -1.4483 -1.44518 0
M  V30 6118 H 596.237 -1.25038 -3.88368 0
M  V30 6119 H 594.912 -2.31901 -3.45246 0
M  V30 6120 H 593.489 -0.503654 -3.69483 0
M  V30 6121 N 595.674 1.31259 -0.872281 0
M  V30 6122 C 596.922 1.96233 -0.483409 0
M  V30 6123 C 597.243 1.69276 0.968012 0
M  V30 6124 O 596.513 1.00943 1.67891 0
M  V30 6125 H 595.093 0.726025 -0.175774 0
M  V30 6126 H 597.755 1.60024 -1.11258 0
M  V30 6127 H 596.851 3.05403 -0.643075 0
M  V30 6128 N 597.152 0.631951 1.44375 0
M  V30 6129 C 598.377 0.142146 2.06912 0
M  V30 6130 C 598.802 -1.17456 1.4692 0
M  V30 6131 O 598.16 -1.72074 0.570975 0
M  V30 6132 C 598.208 0.0417952 3.60576 0
M  V30 6133 O 597.312 -1.00194 4.00044 0
M  V30 6134 H 596.653 0.0851491 0.658518 0
M  V30 6135 H 599.183 0.868863 1.85235 0
M  V30 6136 H 599.193 -0.148517 4.0773 0
M  V30 6137 H 597.868 1.0031 4.03622 0
M  V30 6138 H 596.445 -0.786131 3.64519 0
M  V30 6139 N 598.631 -1.53133 0.372548 0
M  V30 6140 C 599.878 -2.01356 -0.214959 0
M  V30 6141 C 600.206 -1.2596 -1.48204 0
M  V30 6142 O 599.461 -0.343511 -1.92662 0
M  V30 6143 C 599.76 -3.53206 -0.545938 0
M  V30 6144 C 599.426 -4.46511 0.627624 0
M  V30 6145 C 598.088 -4.71737 0.949615 0
M  V30 6146 C 600.44 -5.01666 1.41353 0
M  V30 6147 C 597.768 -5.4937 2.05936 0
M  V30 6148 C 600.12 -5.80511 2.51375 0
M  V30 6149 C 598.784 -6.04022 2.84101 0
M  V30 6150 H 598.054 -0.736813 -0.078659 0
M  V30 6151 H 600.701 -1.84682 0.506447 0
M  V30 6152 H 599.006 -3.67864 -1.34845 0
M  V30 6153 H 600.703 -3.87997 -1.01287 0
M  V30 6154 H 597.293 -4.27029 0.366635 0
M  V30 6155 H 601.477 -4.82117 1.17802 0
M  V30 6156 H 596.733 -5.65803 2.31682 0
M  V30 6157 H 600.907 -6.22255 3.12684 0
M  V30 6158 H 598.534 -6.63962 3.70214 0
M  V30 6159 N 600.109 -0.101901 -1.5727 0
M  V30 6160 C 601.355 0.561027 -1.94885 0
M  V30 6161 C 601.688 1.6741 -0.984258 0
M  V30 6162 O 600.963 1.94491 -0.0184767 0
M  V30 6163 C 601.246 1.10982 -3.42571 0
M  V30 6164 C 601.099 0.00133418 -4.498 0
M  V30 6165 C 602.418 2.00608 -3.9172 0
M  V30 6166 H 599.537 0.202467 -0.708644 0
M  V30 6167 H 602.179 -0.173992 -1.89202 0
M  V30 6168 H 600.329 1.73621 -3.47546 0
M  V30 6169 H 602.001 -0.63322 -4.56933 0
M  V30 6170 H 600.244 -0.664143 -4.28686 0
M  V30 6171 H 600.915 0.426253 -5.50352 0
M  V30 6172 H 603.391 1.47864 -3.88941 0
M  V30 6173 H 602.267 2.3593 -4.95609 0
M  V30 6174 H 602.528 2.92608 -3.3141 0
M  V30 6175 N 601.587 1.56661 0.17182 0
M  V30 6176 C 602.519 1.92934 1.2373 0
M  V30 6177 C 603.532 0.822385 1.40502 0
M  V30 6178 O 604.721 1.10083 1.40514 0
M  V30 6179 C 601.821 2.16651 2.60607 0
M  V30 6180 C 600.994 3.47878 2.6514 0
M  V30 6181 C 600.053 3.60429 3.83377 0
M  V30 6182 O 599.079 4.33051 3.69398 0
M  V30 6183 N 600.281 2.95241 4.99813 0
M  V30 6184 H 603.046 2.84931 0.929205 0
M  V30 6185 H 600.607 1.5781 0.361588 0
M  V30 6186 H 602.599 2.22312 3.38171 0
M  V30 6187 H 601.169 1.3104 2.83809 0
M  V30 6188 H 600.389 3.53879 1.73675 0
M  V30 6189 H 601.677 4.34232 2.6518 0
M  V30 6190 H 601.075 2.3611 5.14071 0
M  V30 6191 H 599.632 3.06499 5.75241 0
M  V30 6192 N 603.065 -0.440357 1.51323 0
M  V30 6193 C 604.015 -1.53263 1.68803 0
M  V30 6194 C 604.999 -1.51494 0.542057 0
M  V30 6195 O 606.191 -1.57999 0.797839 0
M  V30 6196 C 603.32 -2.91479 1.8137 0
M  V30 6197 C 602.406 -2.98015 3.01742 0
M  V30 6198 N 602.797 -2.743 4.24962 0
M  V30 6199 C 601.095 -3.29173 3.00934 0
M  V30 6200 C 601.796 -2.86601 5.06197 0
M  V30 6201 N 600.772 -3.1814 4.40781 0
M  V30 6202 H 604.574 -1.33675 2.61741 0
M  V30 6203 H 602.088 -0.647616 1.48929 0
M  V30 6204 H 604.085 -3.70055 1.92002 0
M  V30 6205 H 602.745 -3.12089 0.896117 0
M  V30 6206 H 603.756 -2.49287 4.53957 0
M  V30 6207 H 600.433 -3.55577 2.18796 0
M  V30 6208 H 601.823 -2.72246 6.14274 0
M  V30 6209 N 604.543 -1.41418 -0.695603 0
M  V30 6210 C 605.954 -1.36335 -1.27552 0
M  V30 6211 C 606.305 -0.0464336 -1.96145 0
M  V30 6212 O 605.43 0.855304 -1.9878 0
M  V30 6213 C 606.025 -2.46941 -2.3196 0
M  V30 6214 C 604.584 -2.45256 -2.85529 0
M  V30 6215 C 603.731 -2.2679 -1.59566 0
M  V30 6216 H 606.682 -1.50934 -0.490362 0
M  V30 6217 H 606.703 -2.15997 -3.1325 0
M  V30 6218 H 606.215 -3.42775 -1.82008 0
M  V30 6219 H 604.316 -1.53179 -3.39657 0
M  V30 6220 H 604.429 -3.41565 -3.35961 0
M  V30 6221 H 602.793 -1.74667 -1.85374 0
M  V30 6222 H 603.576 -3.24651 -1.1161 0
M  V30 6223 N 606.021 0.929856 -1.27246 0
M  V30 6224 C 606.931 2.0636 -1.11592 0
M  V30 6225 C 607.947 1.73938 -0.046496 0
M  V30 6226 O 609.123 1.9981 -0.252544 0
M  V30 6227 C 606.188 3.38213 -0.762437 0
M  V30 6228 C 605.249 3.84346 -1.9125 0
M  V30 6229 C 604.482 5.09906 -1.57579 0
M  V30 6230 O 604.705 5.68354 -0.482694 0
M  V30 6231 O 603.639 5.51359 -2.41426 0
M  V30 6232 H 607.465 2.22478 -2.0673 0
M  V30 6233 H 605.05 1.04865 -1.06413 0
M  V30 6234 H 606.932 4.1741 -0.57854 0
M  V30 6235 H 605.607 3.23307 0.159439 0
M  V30 6236 H 604.514 3.06045 -2.15144 0
M  V30 6237 H 605.847 4.0379 -2.81451 0
M  V30 6238 N 607.499 1.09233 1.13605 0
M  V30 6239 C 608.429 0.751738 2.21068 0
M  V30 6240 C 609.41 -0.269688 1.67948 0
M  V30 6241 O 610.595 -0.13819 1.93708 0
M  V30 6242 C 607.725 0.16935 3.46887 0
M  V30 6243 C 606.679 1.12007 4.13084 0
M  V30 6244 C 606.005 0.399483 5.33206 0
M  V30 6245 C 607.305 2.46168 4.6065 0
M  V30 6246 H 608.999 1.65024 2.49815 0
M  V30 6247 H 606.545 0.794905 1.20072 0
M  V30 6248 H 608.498 -0.0809824 4.21322 0
M  V30 6249 H 607.222 -0.764335 3.1753 0
M  V30 6250 H 605.881 1.35564 3.40614 0
M  V30 6251 H 605.529 -0.538277 5.00112 0
M  V30 6252 H 605.229 1.03337 5.78442 0
M  V30 6253 H 606.753 0.157403 6.10397 0
M  V30 6254 H 608.167 2.26829 5.26518 0
M  V30 6255 H 606.564 3.05326 5.1662 0
M  V30 6256 H 607.634 3.07076 3.75276 0
M  V30 6257 N 608.977 -1.30795 0.87923 0
M  V30 6258 C 610.205 -2.00527 0.509548 0
M  V30 6259 C 610.62 -1.65944 -0.90045 0
M  V30 6260 O 609.977 -0.893525 -1.5913 0
M  V30 6261 C 610.028 -3.55276 0.667943 0
M  V30 6262 O 609.749 -3.88625 2.02242 0
M  V30 6263 C 611.25 -4.4228 0.300494 0
M  V30 6264 H 608.47 -0.641261 0.197549 0
M  V30 6265 H 611.014 -1.66813 1.18295 0
M  V30 6266 H 609.169 -3.87377 0.0419843 0
M  V30 6267 H 609.583 -4.83334 2.03688 0
M  V30 6268 H 611.057 -5.50061 0.462242 0
M  V30 6269 H 611.534 -4.32556 -0.76106 0
M  V30 6270 H 612.14 -4.15613 0.902536 0
M  V30 6271 N 610.455 -0.639598 -1.44038 0
M  V30 6272 C 611.703 -0.147188 -2.01563 0
M  V30 6273 C 612.024 1.2384 -1.50628 0
M  V30 6274 O 611.294 1.82452 -0.713316 0
M  V30 6275 H 609.874 -0.0514231 -0.745228 0
M  V30 6276 H 612.536 -0.828205 -1.76428 0
M  V30 6277 H 611.632 -0.121358 -3.11864 0
M  V30 6278 N 611.933 1.52934 -0.380664 0
M  V30 6279 C 612.863 2.29118 0.450268 0
M  V30 6280 C 613.844 1.32153 1.07096 0
M  V30 6281 O 615.029 1.61038 1.08537 0
M  V30 6282 C 612.159 3.09161 1.58231 0
M  V30 6283 C 611.113 4.13938 1.0881 0
M  V30 6284 C 610.439 4.82153 2.31155 0
M  V30 6285 C 611.739 5.22048 0.162146 0
M  V30 6286 H 613.433 2.98826 -0.185361 0
M  V30 6287 H 610.979 1.43715 -0.0905886 0
M  V30 6288 H 612.932 3.61211 2.17036 0
M  V30 6289 H 611.656 2.3717 2.2454 0
M  V30 6290 H 610.315 3.62855 0.522633 0
M  V30 6291 H 609.963 4.06719 2.95953 0
M  V30 6292 H 609.663 5.52966 1.98752 0
M  V30 6293 H 611.187 5.37004 2.90618 0
M  V30 6294 H 612.601 5.6951 0.658126 0
M  V30 6295 H 610.998 6.00057 -0.0717122 0
M  V30 6296 H 612.068 4.78398 -0.791438 0
M  V30 6297 N 613.412 0.11024 1.57214 0
M  V30 6298 C 614.689 -0.592956 1.86396 0
M  V30 6299 C 615.069 -1.85379 1.00985 0
M  V30 6300 O 614.417 -2.28337 0.0863592 0
M  V30 6301 C 614.627 -0.893816 3.3736 0
M  V30 6302 C 615.975 -1.25069 4.05762 0
M  V30 6303 O 616.999 -0.984356 3.42329 0
M  V30 6304 O 615.858 -1.75017 5.17718 0
M  V30 6305 H 612.952 -0.29828 0.771335 0
M  V30 6306 H 615.498 0.144083 1.69087 0
M  V30 6307 H 614.27 2.6031e-05 3.913 0
M  V30 6308 H 613.893 -1.68631 3.60068 0
M  V30 6309 N 614.89 -1.56749 -0.16351 0
M  V30 6310 C 616.13 -1.84234 -0.885271 0
M  V30 6311 C 616.494 -0.692259 -1.79086 0
M  V30 6312 O 617.695 -0.847747 -2.55082 0
M  V30 6313 C 615.966 -3.16857 -1.65337 0
M  V30 6314 S 617.525 -3.65848 -2.42282 0
M  V30 6315 H 614.343 -0.646293 -0.296354 0
M  V30 6316 H 616.945 -1.94951 -0.146365 0
M  V30 6317 H 615.649 -3.98546 -0.979266 0
M  V30 6318 H 615.18 -3.09102 -2.4335 0
M  V30 6319 H 617.195 -3.33796 -3.67143 0
M  V30 6320 N 616.368 0.432326 -1.51554 0
M  V30 6321 C 617.301 1.54525 -1.6792 0
M  V30 6322 C 618.279 1.53831 -0.526764 0
M  V30 6323 O 619.463 1.72884 -0.751233 0
M  V30 6324 C 616.59 2.931 -1.69736 0
M  V30 6325 C 615.636 3.11799 -2.91005 0
M  V30 6326 S 616.469 2.87565 -4.51737 0
M  V30 6327 C 617.625 4.28412 -4.56305 0
M  V30 6328 H 617.858 1.4041 -2.62054 0
M  V30 6329 H 615.391 0.622357 -1.41301 0
M  V30 6330 H 617.349 3.72974 -1.71467 0
M  V30 6331 H 616.01 3.04574 -0.767705 0
M  V30 6332 H 615.203 4.13127 -2.8869 0
M  V30 6333 H 614.805 2.39757 -2.87041 0
M  V30 6334 H 617.097 5.21692 -4.32254 0
M  V30 6335 H 618.04 4.35758 -5.58141 0
M  V30 6336 H 618.448 4.12301 -3.85576 0
M  V30 6337 N 617.846 1.41785 0.688094 0
M  V30 6338 C 619.262 1.24419 0.999608 0
M  V30 6339 C 619.462 0.138868 2.01021 0
M  V30 6340 O 618.518 -0.494283 2.47615 0
M  V30 6341 C 619.831 2.59625 1.51709 0
M  V30 6342 C 621.379 2.66869 1.63554 0
M  V30 6343 C 621.854 4.0241 2.18702 0
M  V30 6344 N 623.345 4.04295 2.26053 0
M  V30 6345 C 624.08 5.05977 2.69768 0
M  V30 6346 N 623.576 6.18047 3.13033 0
M  V30 6347 N 625.369 4.93336 2.69398 0
M  V30 6348 H 617.52 2.12392 0.0187427 0
M  V30 6349 H 619.783 0.945347 0.0708673 0
M  V30 6350 H 619.489 3.41297 0.849059 0
M  V30 6351 H 619.363 2.82628 2.49803 0
M  V30 6352 H 621.75 1.8555 2.29467 0
M  V30 6353 H 621.831 2.47668 0.639857 0
M  V30 6354 H 621.475 4.8418 1.53402 0
M  V30 6355 H 621.405 4.18955 3.19037 0
M  V30 6356 H 623.896 3.23383 1.9553 0
M  V30 6357 H 624.209 6.91498 3.45038 0
M  V30 6358 H 622.554 6.21572 3.10923 0
M  V30 6359 H 625.745 4.04865 2.34952 0
M  V30 6360 H 625.918 5.72717 3.03148 0
M  V30 6361 N 619.324 -0.923095 1.27737 0
M  V30 6362 C 620.735 -1.48626 1.12993 0
M  V30 6363 C 621.086 -1.94142 -0.283439 0
M  V30 6364 O 620.211 -1.81605 -1.17681 0
M  V30 6365 C 620.806 -2.70117 2.04505 0
M  V30 6366 C 619.365 -3.22642 1.93853 0
M  V30 6367 C 618.512 -1.95368 1.96791 0
M  V30 6368 H 621.463 -0.736737 1.40563 0
M  V30 6369 H 621.484 -3.4506 1.60356 0
M  V30 6370 H 620.996 -2.36959 3.07363 0
M  V30 6371 H 619.097 -3.60549 0.939968 0
M  V30 6372 H 619.21 -3.88525 2.80331 0
M  V30 6373 H 617.574 -2.12061 1.41076 0
M  V30 6374 H 618.357 -1.64517 3.01312 0
M  V30 6375 N 620.802 -1.09834 -1.13024 0
M  V30 6376 C 622.042 -0.846664 -1.8604 0
M  V30 6377 C 622.406 0.616557 -1.81831 0
M  V30 6378 O 623.607 0.984329 -2.50129 0
M  V30 6379 C 621.878 -1.37228 -3.30005 0
M  V30 6380 S 623.437 -1.25511 -4.20467 0
M  V30 6381 H 620.255 -0.30611 -0.64173 0
M  V30 6382 H 622.857 -1.40255 -1.36194 0
M  V30 6383 H 621.561 -2.43138 -3.30624 0
M  V30 6384 H 621.092 -0.81271 -3.84914 0
M  V30 6385 H 623.107 -0.208762 -4.95761 0
M  V30 6386 N 622.28 1.30327 -0.886154 0
M  V30 6387 C 623.527 1.96097 -0.505192 0
M  V30 6388 C 623.855 1.69952 0.945868 0
M  V30 6389 O 623.11 0.997653 1.68361 0
M  V30 6390 C 623.409 3.49906 -0.728042 0
M  V30 6391 C 623.075 3.96103 -2.15437 0
M  V30 6392 C 621.737 4.08428 -2.5444 0
M  V30 6393 C 624.089 4.20177 -3.08384 0
M  V30 6394 C 621.417 4.42189 -3.85598 0
M  V30 6395 C 623.769 4.55407 -4.39075 0
M  V30 6396 C 622.433 4.65941 -4.7797 0
M  V30 6397 H 621.703 0.71757 -0.184863 0
M  V30 6398 H 624.35 1.55171 -1.12223 0
M  V30 6399 H 622.655 3.9179 -0.027978 0
M  V30 6400 H 624.352 3.98869 -0.412862 0
M  V30 6401 H 620.942 3.87017 -1.84162 0
M  V30 6402 H 625.126 4.10134 -2.7947 0
M  V30 6403 H 620.382 4.48544 -4.15473 0
M  V30 6404 H 624.556 4.72986 -5.11133 0
M  V30 6405 H 622.183 4.91856 -5.79639 0
M  V30 6406 N 623.758 0.647228 1.43697 0
M  V30 6407 C 625.004 0.167001 2.02713 0
M  V30 6408 C 625.359 -1.20351 1.50111 0
M  V30 6409 O 624.652 -1.79047 0.682113 0
M  V30 6410 C 624.846 0.111481 3.57226 0
M  V30 6411 C 624.675 1.47507 4.2482 0
M  V30 6412 C 623.445 2.06594 4.61137 0
M  V30 6413 C 625.643 2.41224 4.54219 0
M  V30 6414 N 623.625 3.3602 5.13774 0
M  V30 6415 C 624.996 3.55278 5.08112 0
M  V30 6416 C 627.051 2.40102 4.36183 0
M  V30 6417 C 625.754 4.68426 5.45866 0
M  V30 6418 C 627.78 3.52326 4.74995 0
M  V30 6419 C 627.142 4.65104 5.29015 0
M  V30 6420 H 623.241 0.105402 0.774864 0
M  V30 6421 H 625.825 0.854229 1.7496 0
M  V30 6422 H 623.996 -0.545073 3.84556 0
M  V30 6423 H 625.728 -0.379063 4.02921 0
M  V30 6424 H 622.483 1.59366 4.45981 0
M  V30 6425 H 622.907 4.02233 5.44552 0
M  V30 6426 H 627.549 1.54151 3.93697 0
M  V30 6427 H 625.267 5.55074 5.87298 0
M  V30 6428 H 628.853 3.52652 4.6274 0
M  V30 6429 H 627.733 5.50506 5.58492 0
M  V30 6430 N 625.236 -1.5273 0.388769 0
M  V30 6431 C 626.482 -2.01871 -0.193877 0
M  V30 6432 C 626.815 -1.27475 -1.46505 0
M  V30 6433 O 626.09 -0.375063 -1.90849 0
M  V30 6434 C 626.373 -3.5712 -0.462336 0
M  V30 6435 C 626.226 -4.42186 0.824091 0
M  V30 6436 C 627.545 -4.21881 -1.25319 0
M  V30 6437 H 624.664 -0.733764 -0.0689899 0
M  V30 6438 H 627.306 -1.82796 0.518231 0
M  V30 6439 H 625.456 -3.73504 -1.06896 0
M  V30 6440 H 627.128 -4.37554 1.46096 0
M  V30 6441 H 625.371 -4.09219 1.43952 0
M  V30 6442 H 626.042 -5.48828 0.590905 0
M  V30 6443 H 628.518 -4.0947 -0.73981 0
M  V30 6444 H 627.394 -5.30487 -1.40977 0
M  V30 6445 H 627.655 -3.79478 -2.26824 0
M  V30 6446 N 626.714 -0.118576 -1.57153 0
M  V30 6447 C 627.624 0.845484 -2.18835 0
M  V30 6448 C 628.64 1.29299 -1.16438 0
M  V30 6449 O 629.816 1.35607 -1.48905 0
M  V30 6450 C 626.881 2.07795 -2.77529 0
M  V30 6451 C 625.942 1.6824 -3.9496 0
M  V30 6452 C 625.175 2.85612 -4.50845 0
M  V30 6453 O 625.398 4.01025 -4.05629 0
M  V30 6454 O 624.332 2.62721 -5.41536 0
M  V30 6455 H 628.158 0.350568 -3.0167 0
M  V30 6456 H 625.743 0.107013 -1.49016 0
M  V30 6457 H 627.625 2.79978 -3.14945 0
M  V30 6458 H 626.3 2.56294 -1.97725 0
M  V30 6459 H 625.207 0.931663 -3.62313 0
M  V30 6460 H 626.54 1.24484 -4.76198 0
M  V30 6461 N 628.193 1.56834 0.155195 0
M  V30 6462 C 629.123 2.00678 1.19376 0
M  V30 6463 C 630.104 0.884973 1.45266 0
M  V30 6464 O 631.289 1.1522 1.56326 0
M  V30 6465 C 628.419 2.38042 2.5289 0
M  V30 6466 C 627.373 3.53332 2.41538 0
M  V30 6467 C 626.699 3.76485 3.79688 0
M  V30 6468 C 627.999 4.86265 1.9064 0
M  V30 6469 H 629.693 2.87688 0.829232 0
M  V30 6470 H 627.239 1.38407 0.397445 0
M  V30 6471 H 629.192 2.67314 3.25763 0
M  V30 6472 H 627.916 1.4796 2.91162 0
M  V30 6473 H 626.575 3.24213 1.71117 0
M  V30 6474 H 626.223 2.83667 4.15382 0
M  V30 6475 H 625.923 4.54068 3.72956 0
M  V30 6476 H 627.447 4.08174 4.54122 0
M  V30 6477 H 628.861 5.14308 2.53299 0
M  V30 6478 H 627.258 5.67597 1.94818 0
M  V30 6479 H 628.328 4.77184 0.861596 0
M  V30 6480 N 629.671 -0.424282 1.51781 0
M  V30 6481 C 630.92 -1.16961 1.64326 0
M  V30 6482 C 631.233 -1.92035 0.371749 0
M  V30 6483 O 632.439 -2.68873 0.37676 0
M  V30 6484 C 630.895 -2.12782 2.90262 0
M  V30 6485 C 630.503 -1.43295 4.24465 0
M  V30 6486 C 632.247 -2.87667 3.12166 0
M  V30 6487 C 630.154 -2.37676 5.41538 0
M  V30 6488 H 629.084 -0.440293 0.612093 0
M  V30 6489 H 631.735 -0.435431 1.78259 0
M  V30 6490 H 630.117 -2.8969 2.69992 0
M  V30 6491 H 631.291 -0.718564 4.55163 0
M  V30 6492 H 629.606 -0.805118 4.08542 0
M  V30 6493 H 632.203 -3.58395 3.96808 0
M  V30 6494 H 632.546 -3.49758 2.25776 0
M  V30 6495 H 633.079 -2.17863 3.32837 0
M  V30 6496 H 629.818 -1.80255 6.30229 0
M  V30 6497 H 629.338 -3.07132 5.15199 0
M  V30 6498 H 631.017 -2.98529 5.74012 0
M  V30 6499 N 631.149 -1.42148 -0.680565 0
M  V30 6500 C 632.565 -1.24947 -0.992995 0
M  V30 6501 C 632.765 -0.149527 -2.00944 0
M  V30 6502 O 631.821 0.481145 -2.47873 0
M  V30 6503 C 633.134 -2.60426 -1.5033 0
M  V30 6504 C 634.682 -2.67733 -1.62137 0
M  V30 6505 C 635.157 -4.03564 -2.16565 0
M  V30 6506 N 636.648 -4.05488 -2.23905 0
M  V30 6507 C 637.383 -5.07401 -2.67081 0
M  V30 6508 N 636.879 -6.19698 -3.09751 0
M  V30 6509 N 638.672 -4.94758 -2.66778 0
M  V30 6510 H 630.823 -2.12399 -0.0074788 0
M  V30 6511 H 633.086 -0.94571 -0.0658529 0
M  V30 6512 H 632.792 -3.41743 -0.830947 0
M  V30 6513 H 632.666 -2.83949 -2.483 0
M  V30 6514 H 635.053 -1.86765 -2.2848 0
M  V30 6515 H 635.134 -2.48004 -0.626713 0
M  V30 6516 H 634.778 -4.84987 -1.50833 0
M  V30 6517 H 634.708 -4.20641 -3.1681 0
M  V30 6518 H 637.199 -3.24415 -1.93812 0
M  V30 6519 H 637.512 -6.93318 -3.41365 0
M  V30 6520 H 635.857 -6.23212 -3.07623 0
M  V30 6521 H 639.048 -4.06105 -2.32801 0
M  V30 6522 H 639.221 -5.74317 -3.00107 0
M  V30 6523 N 632.627 0.916307 -1.28225 0
M  V30 6524 C 633.875 1.6619 -1.15002 0
M  V30 6525 C 634.196 1.92642 0.302329 0
M  V30 6526 O 633.466 1.54076 1.20985 0
M  V30 6527 H 632.046 0.615964 -0.422608 0
M  V30 6528 H 634.708 1.09963 -1.60917 0
M  V30 6529 H 633.804 2.62533 -1.68769 0
M  V30 6530 N 634.105 1.10431 1.1244 0
M  V30 6531 C 635.521 0.836096 1.35947 0
M  V30 6532 C 635.721 -0.544475 1.94004 0
M  V30 6533 O 634.777 -1.29735 2.16622 0
M  V30 6534 C 636.09 1.93575 2.30107 0
M  V30 6535 C 637.638 1.9642 2.43697 0
M  V30 6536 C 638.113 3.05559 3.41171 0
M  V30 6537 N 639.604 3.04865 3.48728 0
M  V30 6538 C 640.339 3.85954 4.24061 0
M  V30 6539 N 639.835 4.76977 5.02458 0
M  V30 6540 N 641.628 3.74172 4.19466 0
M  V30 6541 H 633.779 1.9942 0.731124 0
M  V30 6542 H 636.042 0.866607 0.384312 0
M  V30 6543 H 635.748 2.92943 1.94621 0
M  V30 6544 H 635.622 1.8229 3.30227 0
M  V30 6545 H 638.009 0.97685 2.78463 0
M  V30 6546 H 638.09 2.11782 1.43465 0
M  V30 6547 H 637.734 4.04513 3.07135 0
M  V30 6548 H 637.664 2.87438 4.41234 0
M  V30 6549 H 640.155 2.38908 2.92799 0
M  V30 6550 H 640.468 5.35409 5.57277 0
M  V30 6551 H 638.813 4.81006 5.01655 0
M  V30 6552 H 642.004 3.02412 3.57302 0
M  V30 6553 H 642.177 4.37602 4.77921 0
M  V30 6554 N 635.583 -1.29855 0.893053 0
M  V30 6555 C 636.994 -1.77946 0.564998 0
M  V30 6556 C 637.345 -1.73339 -0.919134 0
M  V30 6557 O 636.47 -1.3152 -1.71847 0
M  V30 6558 C 637.065 -3.23118 1.01883 0
M  V30 6559 C 635.624 -3.69013 0.742051 0
M  V30 6560 C 634.771 -2.50121 1.19727 0
M  V30 6561 H 637.722 -1.16611 1.07646 0
M  V30 6562 H 637.743 -3.78875 0.351249 0
M  V30 6563 H 637.255 -3.26439 2.09903 0
M  V30 6564 H 635.356 -3.71173 -0.325816 0
M  V30 6565 H 635.469 -4.60117 1.33527 0
M  V30 6566 H 633.833 -2.47128 0.616418 0
M  V30 6567 H 634.616 -2.56174 2.28538 0
M  V30 6568 N 637.061 -0.65484 -1.43351 0
M  V30 6569 C 638.477 -0.32255 -1.56307 0
M  V30 6570 C 638.677 1.17324 -1.63821 0
M  V30 6571 O 637.733 1.95813 -1.59417 0
M  V30 6572 C 639.046 -1.03533 -2.82314 0
M  V30 6573 C 640.594 -1.01574 -2.9606 0
M  V30 6574 C 641.069 -1.70945 -4.24902 0
M  V30 6575 N 642.56 -1.67716 -4.3177 0
M  V30 6576 C 643.295 -2.18265 -5.30234 0
M  V30 6577 N 642.791 -2.7711 -6.34966 0
M  V30 6578 N 644.584 -2.08756 -5.21898 0
M  V30 6579 H 636.735 -1.62549 -1.36717 0
M  V30 6580 H 638.998 -0.683676 -0.656727 0
M  V30 6581 H 638.704 -2.09045 -2.8283 0
M  V30 6582 H 638.578 -0.587913 -3.7259 0
M  V30 6583 H 640.965 0.0309834 -2.95084 0
M  V30 6584 H 641.046 -1.50186 -2.07069 0
M  V30 6585 H 640.69 -2.75574 -4.26639 0
M  V30 6586 H 640.62 -1.19797 -5.12793 0
M  V30 6587 H 643.111 -1.24777 -3.56706 0
M  V30 6588 H 643.424 -3.13353 -7.06421 0
M  V30 6589 H 641.769 -2.81171 -6.35585 0
M  V30 6590 H 644.96 -1.62488 -4.38994 0
M  V30 6591 H 645.133 -2.48459 -5.98475 0
M  V30 6592 N 638.539 1.52521 -0.396863 0
M  V30 6593 C 639.449 2.30403 0.44178 0
M  V30 6594 C 640.465 1.37625 1.06468 0
M  V30 6595 O 641.641 1.70697 1.06886 0
M  V30 6596 C 638.706 3.1013 1.54986 0
M  V30 6597 C 637.767 4.18628 0.951279 0
M  V30 6598 C 637 4.94543 2.00655 0
M  V30 6599 O 637.223 4.70629 3.22281 0
M  V30 6600 O 636.157 5.797 1.61962 0
M  V30 6601 H 639.983 3.03087 -0.192892 0
M  V30 6602 H 637.568 1.48537 -0.16038 0
M  V30 6603 H 639.45 3.59816 2.19341 0
M  V30 6604 H 638.125 2.40251 2.16935 0
M  V30 6605 H 637.032 3.73119 0.270773 0
M  V30 6606 H 638.365 4.90763 0.375887 0
M  V30 6607 N 640.017 0.126909 1.57088 0
M  V30 6608 C 640.964 -0.82036 2.15728 0
M  V30 6609 C 641.934 -1.25811 1.08447 0
M  V30 6610 O 643.119 -1.33422 1.36393 0
M  V30 6611 C 640.259 -2.06199 2.76724 0
M  V30 6612 C 639.372 -1.67188 3.98337 0
M  V30 6613 C 638.507 -2.86378 4.47393 0
M  V30 6614 C 637.546 -2.43644 5.61519 0
M  V30 6615 N 636.683 -3.55775 6.05284 0
M  V30 6616 H 641.523 -0.313472 2.96347 0
M  V30 6617 H 639.06 -0.14303 1.46403 0
M  V30 6618 H 641.018 -2.78959 3.10222 0
M  V30 6619 H 639.648 -2.54333 1.98782 0
M  V30 6620 H 638.7 -0.842714 3.70948 0
M  V30 6621 H 640.012 -1.31789 4.81075 0
M  V30 6622 H 639.166 -3.67353 4.82842 0
M  V30 6623 H 637.905 -3.25009 3.63621 0
M  V30 6624 H 636.91 -1.61104 5.25667 0
M  V30 6625 H 638.135 -2.06122 6.47063 0
M  V30 6626 H 636.081 -3.94065 5.24451 0
M  V30 6627 H 635.998 -3.24325 6.82898 0
M  V30 6628 H 637.266 -4.37166 6.45373 0
M  V30 6629 N 641.495 -1.56914 -0.146875 0
M  V30 6630 C 642.723 -1.87515 -0.874394 0
M  V30 6631 C 643.138 -0.715116 -1.74733 0
M  V30 6632 O 642.495 0.315113 -1.79759 0
M  V30 6633 C 642.546 -3.17362 -1.731 0
M  V30 6634 O 642.267 -4.28897 -0.893245 0
M  V30 6635 C 643.768 -3.61479 -2.56609 0
M  V30 6636 H 640.988 -0.621546 -0.252827 0
M  V30 6637 H 643.532 -2.04023 -0.139627 0
M  V30 6638 H 641.687 -3.02608 -2.41883 0
M  V30 6639 H 642.101 -5.03146 -1.48137 0
M  V30 6640 H 643.575 -4.5517 -3.12289 0
M  V30 6641 H 644.052 -2.86773 -3.32653 0
M  V30 6642 H 644.658 -3.78927 -1.93117 0
M  V30 6643 N 642.974 0.416227 -1.52004 0
M  V30 6644 C 644.202 1.18573 -1.69553 0
M  V30 6645 C 644.617 1.84472 -0.401919 0
M  V30 6646 O 643.974 1.71593 0.621463 0
M  V30 6647 C 644.025 2.25413 -2.82615 0
M  V30 6648 O 643.746 1.62205 -4.06966 0
M  V30 6649 C 645.247 3.15297 -3.11613 0
M  V30 6650 H 642.467 0.356582 -0.56841 0
M  V30 6651 H 645.011 0.490618 -1.98528 0
M  V30 6652 H 643.166 2.90604 -2.56179 0
M  V30 6653 H 643.58 2.3298 -4.69916 0
M  V30 6654 H 645.054 3.86351 -3.94255 0
M  V30 6655 H 645.531 3.77264 -2.24874 0
M  V30 6656 H 646.137 2.55783 -3.39787 0
M  V30 6657 N 644.452 1.42507 0.673017 0
M  V30 6658 C 645.701 1.42364 1.42883 0
M  V30 6659 C 646.014 0.0441598 1.9555 0
M  V30 6660 O 647.22 -0.0798679 2.71382 0
M  V30 6661 C 645.676 2.5043 2.58482 0
M  V30 6662 C 645.284 3.94392 2.12506 0
M  V30 6663 C 647.028 2.59455 3.35981 0
M  V30 6664 C 644.935 4.93964 3.25198 0
M  V30 6665 H 643.865 0.52951 0.536782 0
M  V30 6666 H 646.516 1.68422 0.728448 0
M  V30 6667 H 644.898 2.1754 3.30896 0
M  V30 6668 H 646.072 4.36645 1.47233 0
M  V30 6669 H 644.387 3.89233 1.4794 0
M  V30 6670 H 646.984 3.31025 4.19912 0
M  V30 6671 H 647.327 1.63869 3.82691 0
M  V30 6672 H 647.86 2.91549 2.70637 0
M  V30 6673 H 644.599 5.91034 2.83477 0
M  V30 6674 H 644.119 4.56341 3.89247 0
M  V30 6675 H 645.798 5.15763 3.90637 0
M  V30 6676 N 645.93 -0.909495 1.28709 0
M  V30 6677 C 647.176 -1.66175 1.17293 0
M  V30 6678 C 647.531 -1.90426 -0.274891 0
M  V30 6679 O 646.824 -1.49659 -1.19635 0
M  V30 6680 C 647.018 -3.02117 1.90945 0
M  V30 6681 C 646.847 -2.91134 3.42741 0
M  V30 6682 C 645.617 -2.92429 4.12085 0
M  V30 6683 C 647.815 -2.68889 4.3841 0
M  V30 6684 N 645.797 -2.72078 5.50315 0
M  V30 6685 C 647.168 -2.57423 5.64033 0
M  V30 6686 C 649.223 -2.53919 4.28287 0
M  V30 6687 C 647.926 -2.32513 6.80683 0
M  V30 6688 C 649.952 -2.3039 5.44678 0
M  V30 6689 C 649.314 -2.19682 6.69268 0
M  V30 6690 H 645.413 -0.614095 0.48416 0
M  V30 6691 H 647.997 -1.07377 1.62414 0
M  V30 6692 H 646.168 -3.58993 1.48252 0
M  V30 6693 H 647.9 -3.66388 1.71878 0
M  V30 6694 H 644.655 -3.03345 3.63701 0
M  V30 6695 H 645.079 -2.64983 6.22987 0
M  V30 6696 H 649.721 -2.60946 3.32666 0
M  V30 6697 H 647.439 -2.24225 7.76369 0
M  V30 6698 H 651.025 -2.19665 5.38738 0
M  V30 6699 H 649.905 -2.01725 7.5781 0
M  V30 6700 N 647.408 -1.11026 -1.11852 0
M  V30 6701 C 648.636 -0.878818 -1.87308 0
M  V30 6702 C 649.051 0.57111 -1.79955 0
M  V30 6703 O 648.408 1.39409 -1.17777 0
M  V30 6704 C 648.459 -1.3264 -3.36287 0
M  V30 6705 O 648.18 -2.71948 -3.43476 0
M  V30 6706 C 649.681 -1.12974 -4.28663 0
M  V30 6707 H 646.901 -0.315015 -0.592458 0
M  V30 6708 H 649.445 -1.47649 -1.41492 0
M  V30 6709 H 647.6 -0.772269 -3.79625 0
M  V30 6710 H 648.014 -2.91241 -4.3621 0
M  V30 6711 H 649.488 -1.49198 -5.31454 0
M  V30 6712 H 649.965 -0.0689127 -4.39146 0
M  V30 6713 H 650.571 -1.67064 -3.91113 0
M  V30 6714 N 648.886 1.2938 -0.899927 0
M  V30 6715 C 650.111 2.00228 -0.540692 0
M  V30 6716 C 650.536 1.66909 0.867359 0
M  V30 6717 O 649.894 0.893824 1.57735 0
M  V30 6718 C 649.942 3.52921 -0.740232 0
M  V30 6719 O 649.046 4.11879 0.207154 0
M  V30 6720 H 648.387 0.629505 -0.211233 0
M  V30 6721 H 650.917 1.6487 -1.21158 0
M  V30 6722 H 650.927 4.0287 -0.644973 0
M  V30 6723 H 649.602 3.76508 -1.76677 0
M  V30 6724 H 648.179 3.72845 0.0643315 0
M  V30 6725 N 650.364 0.662433 1.43002 0
M  V30 6726 C 651.612 0.179237 2.01304 0
M  V30 6727 C 651.933 -1.21428 1.52579 0
M  V30 6728 O 651.203 -1.81294 0.742252 0
M  V30 6729 H 649.783 0.0632725 0.744316 0
M  V30 6730 H 652.445 0.856169 1.75088 0
M  V30 6731 H 651.541 0.170957 3.11631 0
M  V30 6732 N 651.842 -1.52309 0.404946 0
M  V30 6733 C 653.067 -2.06666 -0.1743 0
M  V30 6734 C 653.492 -1.27341 -1.38441 0
M  V30 6735 O 652.85 -0.302539 -1.78758 0
M  V30 6736 C 652.898 -3.57014 -0.507262 0
M  V30 6737 O 652.002 -3.80144 -1.59889 0
M  V30 6738 H 651.343 -0.663807 -0.0160273 0
M  V30 6739 H 653.873 -1.96297 0.576937 0
M  V30 6740 H 653.883 -4.00724 -0.767098 0
M  V30 6741 H 652.558 -4.14184 0.377368 0
M  V30 6742 H 651.135 -3.48316 -1.33155 0
M  V30 6743 N 653.32 -0.135238 -1.57019 0
M  V30 6744 C 654.545 0.529343 -2.00531 0
M  V30 6745 C 654.97 1.58391 -1.01459 0
M  V30 6746 O 654.328 1.81296 0.0113986 0
M  V30 6747 C 654.376 1.11748 -3.42848 0
M  V30 6748 O 653.48 2.23267 -3.46736 0
M  V30 6749 H 652.821 0.130669 -0.651016 0
M  V30 6750 H 655.351 -0.228503 -2.0332 0
M  V30 6751 H 655.361 1.44905 -3.81401 0
M  V30 6752 H 654.036 0.345147 -4.14465 0
M  V30 6753 H 652.613 1.91428 -3.20015 0
M  V30 6754 N 654.798 1.5699 0.138552 0
M  V30 6755 C 656.047 1.82998 0.848205 0
M  V30 6756 C 656.36 0.717829 1.81952 0
M  V30 6757 O 657.566 0.863756 2.57394 0
M  V30 6758 C 656.022 3.24379 1.55904 0
M  V30 6759 C 655.63 4.43552 0.62971 0
M  V30 6760 C 657.374 3.59654 2.25498 0
M  V30 6761 C 655.281 5.75957 1.34266 0
M  V30 6762 H 654.211 0.682495 0.320495 0
M  V30 6763 H 656.862 1.83222 0.100924 0
M  V30 6764 H 655.244 3.18567 2.35226 0
M  V30 6765 H 656.418 4.6062 -0.128882 0
M  V30 6766 H 654.733 4.16379 0.0417526 0
M  V30 6767 H 657.33 4.55837 2.79493 0
M  V30 6768 H 657.673 2.86124 3.02388 0
M  V30 6769 H 658.206 3.67164 1.53087 0
M  V30 6770 H 654.945 6.52604 0.615441 0
M  V30 6771 H 654.465 5.62811 2.07375 0
M  V30 6772 H 656.144 6.19046 1.88126 0
M  V30 6773 N 656.276 -0.40816 1.52223 0
M  V30 6774 C 657.501 -1.18127 1.70472 0
M  V30 6775 C 657.926 -1.83491 0.41384 0
M  V30 6776 O 657.284 -1.70047 -0.628778 0
M  V30 6777 C 657.332 -2.21935 2.84213 0
M  V30 6778 O 656.436 -3.28099 2.4985 0
M  V30 6779 H 655.777 -0.344781 0.56747 0
M  V30 6780 H 658.307 -0.478328 1.9893 0
M  V30 6781 H 658.317 -2.66248 3.09153 0
M  V30 6782 H 656.992 -1.73744 3.7787 0
M  V30 6783 H 655.569 -2.89058 2.35584 0
M  V30 6784 N 657.755 -1.42862 -0.66545 0
M  V30 6785 C 659.002 -1.4383 -1.42546 0
M  V30 6786 C 659.33 -0.0581114 -1.94413 0
M  V30 6787 O 658.585 0.935002 -1.71919 0
M  V30 6788 C 658.884 -2.4175 -2.63233 0
M  V30 6789 C 658.55 -3.87915 -2.29854 0
M  V30 6790 C 657.212 -4.27726 -2.20463 0
M  V30 6791 C 659.564 -4.80074 -2.02924 0
M  V30 6792 C 656.892 -5.57666 -1.82279 0
M  V30 6793 C 659.244 -6.10366 -1.66242 0
M  V30 6794 C 657.908 -6.49167 -1.55367 0
M  V30 6795 H 657.178 -0.52631 -0.521612 0
M  V30 6796 H 659.825 -1.75863 -0.757914 0
M  V30 6797 H 658.13 -2.03077 -3.35063 0
M  V30 6798 H 659.827 -2.39759 -3.21429 0
M  V30 6799 H 656.417 -3.564 -2.3807 0
M  V30 6800 H 660.601 -4.50097 -2.09108 0
M  V30 6801 H 655.857 -5.8658 -1.72436 0
M  V30 6802 H 660.031 -6.81258 -1.44432 0
M  V30 6803 H 657.658 -7.49761 -1.2555 0
M  V30 6804 N 659.233 0.902656 -1.29189 0
M  V30 6805 C 660.473 1.6672 -1.18254 0
M  V30 6806 C 660.837 1.90199 0.262336 0
M  V30 6807 O 662.038 2.6421 0.494612 0
M  V30 6808 C 660.309 2.98178 -1.9704 0
M  V30 6809 S 661.868 3.89226 -2.02605 0
M  V30 6810 H 658.686 0.572432 -0.421714 0
M  V30 6811 H 661.288 1.07279 -1.63436 0
M  V30 6812 H 659.992 2.788 -3.01163 0
M  V30 6813 H 659.523 3.62661 -1.5245 0
M  V30 6814 H 661.538 4.82913 -1.14059 0
M  V30 6815 N 660.711 1.11618 1.11262 0
M  V30 6816 C 661.959 0.864469 1.82678 0
M  V30 6817 C 662.28 -0.611564 1.85162 0
M  V30 6818 O 661.55 -1.44429 1.32352 0
M  V30 6819 H 660.13 0.316821 0.676486 0
M  V30 6820 H 662.792 1.40894 1.34666 0
M  V30 6821 H 661.888 1.23832 2.86482 0
M  V30 6822 N 662.189 -1.289 0.906776 0
M  V30 6823 C 663.435 -1.95558 0.53712 0
M  V30 6824 C 663.768 -1.71262 -0.915582 0
M  V30 6825 O 663.043 -1.02961 -1.65013 0
M  V30 6826 C 663.326 -3.50198 0.838645 0
M  V30 6827 C 663.179 -3.83923 2.34357 0
M  V30 6828 C 664.498 -4.38861 0.329988 0
M  V30 6829 H 661.617 -0.710289 0.196617 0
M  V30 6830 H 664.259 -1.52392 1.13475 0
M  V30 6831 H 662.409 -3.87096 0.330024 0
M  V30 6832 H 664.081 -3.56933 2.92227 0
M  V30 6833 H 662.324 -3.31215 2.80141 0
M  V30 6834 H 662.995 -4.91883 2.5051 0
M  V30 6835 H 665.471 -4.08996 0.765609 0
M  V30 6836 H 664.347 -5.45931 0.570105 0
M  V30 6837 H 664.608 -4.35352 -0.769511 0
M  V30 6838 N 663.667 -0.670007 -1.42649 0
M  V30 6839 C 664.615 0.0230106 -2.32589 0
M  V30 6840 C 665.609 0.795585 -1.49555 0
M  V30 6841 O 666.815 0.70409 -1.65658 0
M  V30 6842 H 663.19 0.0262342 -0.751542 0
M  V30 6843 H 665.161 -0.753009 -2.88743 0
M  V30 6844 C 663.91 0.963872 -3.34073 0
M  V30 6845 H 663.233 0.378813 -3.98001 0
M  V30 6846 H 664.673 1.41755 -3.99602 0
M  V30 6847 C 663.132 2.06797 -2.65964 0
M  V30 6848 O 663.662 3.15383 -2.48789 0
M  V30 6849 N 661.868 1.83831 -2.25066 0
M  V30 6850 H 661.415 0.955235 -2.39234 0
M  V30 6851 H 661.373 2.57895 -1.79827 0
M  V30 6852 N 665.145 1.52092 -0.413018 0
M  V30 6853 C 666.37 2.06756 0.163338 0
M  V30 6854 C 666.795 1.28073 1.37764 0
M  V30 6855 O 666.153 0.312015 1.78595 0
M  V30 6856 C 666.201 3.57278 0.488322 0
M  V30 6857 O 665.305 3.80986 1.57871 0
M  V30 6858 H 664.646 0.663882 0.0125068 0
M  V30 6859 H 667.176 1.95988 -0.587339 0
M  V30 6860 H 667.186 4.01125 0.745836 0
M  V30 6861 H 665.861 4.13978 -0.399327 0
M  V30 6862 H 664.438 3.49017 1.31306 0
M  V30 6863 N 666.623 0.143563 1.56945 0
M  V30 6864 C 667.9 -0.553285 1.87612 0
M  V30 6865 C 668.28 -1.83195 1.04894 0
M  V30 6866 O 667.628 -2.28102 0.134773 0
M  V30 6867 C 667.838 -0.822055 3.3918 0
M  V30 6868 C 669.186 -1.16435 4.08324 0
M  V30 6869 O 670.21 -0.911522 3.4434 0
M  V30 6870 O 669.069 -1.63996 5.21313 0
M  V30 6871 H 666.163 -0.281851 0.777489 0
M  V30 6872 H 668.709 0.179916 1.68744 0
M  V30 6873 H 667.481 0.0830265 3.91212 0
M  V30 6874 H 667.104 -1.60956 3.63564 0
M  V30 6875 N 668.101 -1.57061 -0.130224 0
M  V30 6876 C 669.329 -1.88432 -0.854456 0
M  V30 6877 C 669.744 -0.733608 -1.73964 0
M  V30 6878 O 669.101 0.296029 -1.80083 0
M  V30 6879 C 669.152 -3.1918 -1.69724 0
M  V30 6880 O 668.873 -4.2982 -0.847705 0
M  V30 6881 C 670.374 -3.6418 -2.5276 0
M  V30 6882 H 667.594 -0.624193 -0.246221 0
M  V30 6883 H 670.138 -2.04159 -0.11798 0
M  V30 6884 H 668.293 -3.05156 -2.3866 0
M  V30 6885 H 668.707 -5.04689 -1.42792 0
M  V30 6886 H 670.181 -4.58457 -3.07443 0
M  V30 6887 H 670.658 -2.90285 -3.29592 0
M  V30 6888 H 671.264 -3.80954 -1.89087 0
M  V30 6889 N 669.579 0.400081 -1.52437 0
M  V30 6890 C 670.542 1.4707 -1.75793 0
M  V30 6891 C 671.542 1.48036 -0.627856 0
M  V30 6892 O 672.732 1.49401 -0.895817 0
M  V30 6893 C 669.864 2.86427 -1.84858 0
M  V30 6894 H 671.057 1.27649 -2.71377 0
M  V30 6895 H 668.61 0.631141 -1.42991 0
M  V30 6896 H 669.345 3.11207 -0.912194 0
M  V30 6897 H 669.13 2.87128 -2.6702 0
M  V30 6898 H 670.62 3.64023 -2.04638 0
M  V30 6899 N 671.057 1.43213 0.657864 0
M  V30 6900 C 672.005 1.48271 1.79216 0
M  V30 6901 C 672.999 0.35675 1.65601 0
M  V30 6902 O 674.205 0.530535 1.72004 0
M  V30 6903 H 670.58 0.464729 0.591211 0
M  V30 6904 H 672.551 2.43792 1.7207 0
M  V30 6905 C 671.3 1.41837 3.17455 0
M  V30 6906 H 670.623 2.27781 3.28567 0
M  V30 6907 H 672.063 1.49438 3.96793 0
M  V30 6908 C 670.522 0.135347 3.36628 0
M  V30 6909 O 671.052 -0.805199 3.93547 0
M  V30 6910 N 669.258 0.0470316 2.90562 0
M  V30 6911 H 668.805 0.813221 2.44427 0
M  V30 6912 H 668.763 -0.810737 3.03767 0
M  V30 6913 N 672.536 -0.895792 1.29666 0
M  V30 6914 C 673.782 -1.64921 1.19049 0
M  V30 6915 C 674.137 -1.90707 -0.254678 0
M  V30 6916 O 673.43 -1.5092 -1.18041 0
M  V30 6917 C 673.624 -3.00075 1.94139 0
M  V30 6918 C 673.453 -2.87482 3.4581 0
M  V30 6919 C 672.223 -2.88041 4.15163 0
M  V30 6920 C 674.421 -2.64224 4.41237 0
M  V30 6921 N 672.403 -2.66226 5.5317 0
M  V30 6922 C 673.774 -2.51427 5.66732 0
M  V30 6923 C 675.829 -2.49362 4.30956 0
M  V30 6924 C 674.532 -2.25281 6.83111 0
M  V30 6925 C 676.558 -2.246 5.47091 0
M  V30 6926 C 675.92 -2.12571 6.7156 0
M  V30 6927 H 672.019 -0.608926 0.490646 0
M  V30 6928 H 674.603 -1.05648 1.63544 0
M  V30 6929 H 672.774 -3.574 1.52052 0
M  V30 6930 H 674.506 -3.64544 1.75754 0
M  V30 6931 H 671.261 -2.99471 3.66898 0
M  V30 6932 H 671.685 -2.58361 6.25762 0
M  V30 6933 H 676.327 -2.57403 3.35415 0
M  V30 6934 H 674.045 -2.15978 7.78704 0
M  V30 6935 H 677.631 -2.13939 5.41037 0
M  V30 6936 H 676.511 -1.93676 7.59907 0
M  V30 6937 N 674.014 -1.12206 -1.10668 0
M  V30 6938 C 675.239 -0.898938 -1.86906 0
M  V30 6939 C 675.664 0.546346 -1.79991 0
M  V30 6940 O 675.022 1.38655 -1.1681 0
M  V30 6941 C 675.07 -1.37529 -3.33344 0
M  V30 6942 O 674.174 -0.55218 -4.08687 0
M  V30 6943 H 673.515 -0.323163 -0.580053 0
M  V30 6944 H 676.045 -1.49355 -1.39837 0
M  V30 6945 H 676.055 -1.3733 -3.84193 0
M  V30 6946 H 674.73 -2.42767 -3.37693 0
M  V30 6947 H 673.307 -0.620947 -3.67694 0
M  V30 6948 N 675.492 1.28418 -0.913599 0
M  V30 6949 C 676.738 1.95627 -0.556933 0
M  V30 6950 C 677.093 1.706 0.889565 0
M  V30 6951 O 676.386 1.01637 1.6242 0
M  V30 6952 C 676.58 3.48283 -0.802099 0
M  V30 6953 C 676.409 3.88151 -2.27088 0
M  V30 6954 C 675.179 4.1232 -2.92096 0
M  V30 6955 C 677.377 3.98819 -3.24728 0
M  V30 6956 N 675.359 4.3886 -4.29272 0
M  V30 6957 C 676.73 4.29571 -4.47067 0
M  V30 6958 C 678.785 3.81342 -3.20129 0
M  V30 6959 C 677.488 4.44667 -5.65388 0
M  V30 6960 C 679.514 3.97656 -4.37749 0
M  V30 6961 C 678.876 4.2878 -5.58862 0
M  V30 6962 H 674.975 0.739715 -0.253664 0
M  V30 6963 H 677.559 1.55074 -1.1773 0
M  V30 6964 H 675.73 3.87826 -0.211007 0
M  V30 6965 H 677.462 4.02623 -0.409478 0
M  V30 6966 H 674.217 4.06611 -2.42826 0
M  V30 6967 H 674.641 4.56214 -5.00198 0
M  V30 6968 H 679.283 3.56331 -2.2757 0
M  V30 6969 H 677.001 4.68509 -6.58426 0
M  V30 6970 H 680.587 3.85569 -4.35692 0
M  V30 6971 H 679.467 4.41136 -6.48359 0
M  V30 6972 N 676.97 0.677563 1.42291 0
M  V30 6973 C 678.381 0.277912 1.8462 0
M  V30 6974 C 678.732 -1.18048 1.56714 0
M  V30 6975 O 677.857 -1.90404 1.02836 0
M  V30 6976 C 678.452 0.497619 3.35126 0
M  V30 6977 C 677.011 0.152063 3.76093 0
M  V30 6978 C 676.158 0.78872 2.65847 0
M  V30 6979 H 679.109 0.879527 1.32098 0
M  V30 6980 H 679.13 -0.24939 3.79682 0
M  V30 6981 H 678.642 1.55913 3.55405 0
M  V30 6982 H 676.743 -0.905896 3.6142 0
M  V30 6983 H 676.856 0.594514 4.75397 0
M  V30 6984 H 675.22 0.219813 2.5375 0
M  V30 6985 H 676.003 1.85374 2.88949 0
M  V30 6986 N 678.448 -1.51871 0.421078 0
M  V30 6987 C 679.725 -1.9447 -0.20993 0
M  V30 6988 C 680.105 -1.35875 -1.61558 0
M  V30 6989 O 679.453 -0.539294 -2.22045 0
M  V30 6990 C 679.663 -3.48402 -0.204165 0
M  V30 6991 C 681.011 -4.2254 -0.417696 0
M  V30 6992 O 682.035 -3.55074 -0.282999 0
M  V30 6993 O 680.894 -5.422 -0.684239 0
M  V30 6994 H 677.988 -0.815283 -0.138718 0
M  V30 6995 H 680.534 -1.62832 0.477884 0
M  V30 6996 H 679.306 -3.83464 0.779183 0
M  V30 6997 H 678.929 -3.86436 -0.935576 0
M  V30 6998 N 679.926 -0.151884 -1.56866 0
M  V30 6999 C 681.174 0.497021 -1.95893 0
M  V30 7000 C 681.495 1.65078 -1.03799 0
M  V30 7001 O 680.765 1.95642 -0.10049 0
M  V30 7002 H 679.345 0.186603 -0.723318 0
M  V30 7003 H 682.007 -0.228525 -1.93556 0
M  V30 7004 H 681.103 0.869933 -2.99731 0
M  V30 7005 N 681.404 1.57128 0.121893 0
M  V30 7006 C 682.367 1.99197 1.13372 0
M  V30 7007 C 683.367 0.881728 1.3447 0
M  V30 7008 O 684.557 1.14783 1.31036 0
M  V30 7009 C 681.689 2.32963 2.4888 0
M  V30 7010 H 682.882 2.89788 0.772204 0
M  V30 7011 H 680.435 1.51952 0.366093 0
M  V30 7012 H 681.17 1.45243 2.89957 0
M  V30 7013 H 680.955 3.13934 2.34921 0
M  V30 7014 H 682.445 2.66261 3.21706 0
M  V30 7015 N 682.882 -0.391992 1.52647 0
M  V30 7016 C 683.792 -1.503 1.80131 0
M  V30 7017 C 684.808 -1.59825 0.687882 0
M  V30 7018 O 685.984 -1.76218 0.975149 0
M  V30 7019 C 683.049 -2.85863 1.96171 0
M  V30 7020 C 682.11 -2.86084 3.20085 0
M  V30 7021 C 681.343 -4.15181 3.35351 0
M  V30 7022 O 681.566 -5.09981 2.55491 0
M  V30 7023 O 680.5 -4.22603 4.28591 0
M  V30 7024 H 684.326 -1.30007 2.74466 0
M  V30 7025 H 681.911 -0.579539 1.37701 0
M  V30 7026 H 683.793 -3.66236 2.08445 0
M  V30 7027 H 682.468 -3.06189 1.05025 0
M  V30 7028 H 681.375 -2.04504 3.13256 0
M  V30 7029 H 682.708 -2.7071 4.11068 0
M  V30 7030 N 684.36 -1.4356 -0.65026 0
M  V30 7031 C 685.29 -1.51758 -1.77459 0
M  V30 7032 C 686.271 -0.372019 -1.65982 0
M  V30 7033 O 687.456 -0.589627 -1.85033 0
M  V30 7034 C 684.586 -1.44302 -3.15902 0
M  V30 7035 C 683.54 -2.57138 -3.42146 0
M  V30 7036 C 682.866 -2.34735 -4.8042 0
M  V30 7037 C 684.166 -3.99373 -3.36598 0
M  V30 7038 H 685.86 -2.45863 -1.70855 0
M  V30 7039 H 683.406 -1.18333 -0.820566 0
M  V30 7040 H 685.359 -1.48641 -3.94314 0
M  V30 7041 H 684.083 -0.467026 -3.23244 0
M  V30 7042 H 682.742 -2.52157 -2.66106 0
M  V30 7043 H 682.39 -1.35372 -4.84441 0
M  V30 7044 H 682.09 -3.10375 -4.9894 0
M  V30 7045 H 683.614 -2.40862 -5.61086 0
M  V30 7046 H 685.028 -4.05826 -4.04942 0
M  V30 7047 H 683.425 -4.75063 -3.66654 0
M  V30 7048 H 684.495 -4.243 -2.34729 0
M  V30 7049 N 685.838 0.888903 -1.30139 0
M  V30 7050 C 687.249 1.45578 -1.16893 0
M  V30 7051 C 687.6 1.94825 0.231866 0
M  V30 7052 O 686.725 1.84661 1.12824 0
M  V30 7053 C 687.32 2.646 -2.11595 0
M  V30 7054 C 685.879 3.17389 -2.02339 0
M  V30 7055 C 685.026 1.90081 -2.01902 0
M  V30 7056 H 687.977 0.69921 -1.42467 0
M  V30 7057 H 687.998 3.40687 -1.69449 0
M  V30 7058 H 687.51 2.28726 -3.13538 0
M  V30 7059 H 685.611 3.5793 -1.03523 0
M  V30 7060 H 685.724 3.80955 -2.90534 0
M  V30 7061 H 684.088 2.08246 -1.46648 0
M  V30 7062 H 684.871 1.5647 -3.05568 0
M  V30 7063 N 687.317 1.12792 1.10072 0
M  V30 7064 C 688.564 0.885545 1.82111 0
M  V30 7065 C 688.892 -0.588519 1.85383 0
M  V30 7066 O 688.147 -1.45124 1.31292 0
M  V30 7067 C 688.446 1.4102 3.28403 0
M  V30 7068 C 688.112 2.89995 3.45273 0
M  V30 7069 C 686.774 3.30671 3.49585 0
M  V30 7070 C 689.126 3.85874 3.50358 0
M  V30 7071 C 686.454 4.65925 3.56553 0
M  V30 7072 C 688.806 5.20963 3.58859 0
M  V30 7073 C 687.47 5.61177 3.61437 0
M  V30 7074 H 686.74 0.324044 0.666391 0
M  V30 7075 H 689.387 1.40874 1.29718 0
M  V30 7076 H 687.692 0.807551 3.83387 0
M  V30 7077 H 689.389 1.19882 3.82661 0
M  V30 7078 H 685.979 2.57537 3.42597 0
M  V30 7079 H 690.163 3.5554 3.46273 0
M  V30 7080 H 685.419 4.96468 3.56833 0
M  V30 7081 H 689.593 5.95079 3.61738 0
M  V30 7082 H 687.22 6.6597 3.66589 0
M  V30 7083 N 688.795 -1.27931 0.920396 0
M  V30 7084 C 690.023 -1.98805 0.573087 0
M  V30 7085 C 690.438 -1.68724 -0.847201 0
M  V30 7086 O 689.795 -0.943699 -1.56207 0
M  V30 7087 C 689.846 -3.52971 0.780633 0
M  V30 7088 O 689.567 -3.81994 2.14504 0
M  V30 7089 C 691.068 -4.411 0.44105 0
M  V30 7090 H 688.288 -0.634651 0.21785 0
M  V30 7091 H 690.832 -1.62965 1.23542 0
M  V30 7092 H 688.987 -3.87048 0.165204 0
M  V30 7093 H 689.401 -4.76609 2.18962 0
M  V30 7094 H 690.875 -5.48312 0.637006 0
M  V30 7095 H 691.352 -4.34758 -0.62306 0
M  V30 7096 H 691.958 -4.12532 1.0343 0
M  V30 7097 N 690.273 -0.685099 -1.4193 0
M  V30 7098 C 691.522 -0.208816 -2.00616 0
M  V30 7099 C 691.835 1.19506 -1.54847 0
M  V30 7100 O 693.041 1.76826 -2.06021 0
M  V30 7101 C 691.497 -0.322446 -3.58453 0
M  V30 7102 C 691.105 -1.73102 -4.13206 0
M  V30 7103 C 692.849 0.0945979 -4.24395 0
M  V30 7104 C 690.756 -1.79687 -5.63442 0
M  V30 7105 H 689.686 -0.0743092 -0.750329 0
M  V30 7106 H 692.337 -0.851778 -1.62533 0
M  V30 7107 H 690.719 0.388588 -3.94089 0
M  V30 7108 H 691.893 -2.46997 -3.8901 0
M  V30 7109 H 690.208 -2.09682 -3.59753 0
M  V30 7110 H 692.805 0.0656937 -5.3466 0
M  V30 7111 H 693.148 1.1316 -4.00625 0
M  V30 7112 H 693.681 -0.56579 -3.93756 0
M  V30 7113 H 690.42 -2.81404 -5.92024 0
M  V30 7114 H 689.94 -1.10162 -5.89597 0
M  V30 7115 H 691.619 -1.55498 -6.28036 0
M  V30 7116 N 691.751 1.51645 -0.429126 0
M  V30 7117 C 693.028 1.94579 0.199614 0
M  V30 7118 C 693.408 1.3673 1.60836 0
M  V30 7119 O 692.756 0.551062 2.21756 0
M  V30 7120 C 692.966 3.48506 0.185685 0
M  V30 7121 C 694.314 4.22756 0.395282 0
M  V30 7122 O 695.338 3.55219 0.264165 0
M  V30 7123 O 694.197 5.42555 0.655475 0
M  V30 7124 H 691.291 0.816007 0.134393 0
M  V30 7125 H 693.837 1.62577 -0.486513 0
M  V30 7126 H 692.609 3.83045 -0.799508 0
M  V30 7127 H 692.232 3.86927 0.91507 0
M  V30 7128 N 693.229 0.160201 1.56784 0
M  V30 7129 C 694.176 -0.774416 2.1742 0
M  V30 7130 C 695.146 -1.23483 1.11091 0
M  V30 7131 O 696.331 -1.30499 1.39193 0
M  V30 7132 C 693.471 -2.00283 2.81035 0
M  V30 7133 C 692.584 -1.58701 4.01793 0
M  V30 7134 C 691.719 -2.76824 4.53367 0
M  V30 7135 C 690.758 -2.31679 5.66561 0
M  V30 7136 N 689.895 -3.42856 6.12694 0
M  V30 7137 H 694.735 -0.250542 2.96945 0
M  V30 7138 H 692.272 -0.111943 1.46673 0
M  V30 7139 H 694.23 -2.72316 3.16069 0
M  V30 7140 H 692.86 -2.5006 2.04132 0
M  V30 7141 H 691.912 -0.76384 3.72652 0
M  V30 7142 H 693.224 -1.21555 4.83762 0
M  V30 7143 H 692.378 -3.57029 4.90525 0
M  V30 7144 H 691.117 -3.17223 3.70433 0
M  V30 7145 H 690.122 -1.49917 5.28966 0
M  V30 7146 H 691.347 -1.9235 6.5129 0
M  V30 7147 H 689.293 -3.82852 5.32692 0
M  V30 7148 H 689.21 -3.09767 6.89624 0
M  V30 7149 H 690.478 -4.23379 6.545 0
M  V30 7150 O 694.746 -1.61485 0.0219998 0
M  V30 7151 H 695.437 -1.84445 -0.591595 0
M  V30 END ATOM
M  V30 BEGIN BOND
M  V30 END BOND
M  V30 END CTAB
M  END
$$$$
