drugbank_target|P11498 Pyruvate carboxylase, mitochondrial (DB00119; DB00121; DB07497)
 OpenBabel12092119373D

  0  0  0     0  0            999 V3000
M  V30 BEGIN CTAB
M  V30 COUNTS 18229 18424 0 0 0
M  V30 BEGIN ATOM
M  V30 1 H -0.908 1.98254 -0.117106 0
M  V30 2 N 0 1.576 0 0
M  V30 3 C 0.933 2.03868 1.02534 0
M  V30 4 C 1.911 0.928543 1.3348 0
M  V30 5 O 3.095 1.19667 1.45644 0
M  V30 6 C 0.222 2.43627 2.35294 0
M  V30 7 C -0.732 3.65373 2.2001 0
M  V30 8 S 0.101 5.13292 1.52614 0
M  V30 9 C 1.257 5.56322 2.86805 0
M  V30 10 H 1.49 2.90518 0.631377 0
M  V30 11 H -0.977 1.52953 0.210867 0
M  V30 12 H 0.981 2.67203 3.11629 0
M  V30 13 H -0.358 1.57376 2.7183 0
M  V30 14 H -1.165 3.90944 3.18086 0
M  V30 15 H -1.563 3.418 1.51819 0
M  V30 16 H 0.729 5.58782 3.83104 0
M  V30 17 H 1.672 6.56266 2.65933 0
M  V30 18 H 2.08 4.83886 2.90714 0
M  V30 19 N 1.4781 -0.272755 1.55222 0
M  V30 20 C 2.4081 -1.34136 1.91127 0
M  V30 21 C 3.3891 -1.51513 0.773168 0
M  V30 22 O 4.5741 -1.64552 1.03132 0
M  V30 23 C 1.7041 -2.70083 2.1834 0
M  V30 24 C 0.6581 -2.67437 3.34158 0
M  V30 25 C -0.0159 -4.06938 3.46851 0
M  V30 26 C 1.2841 -2.26686 4.70543 0
M  V30 27 H 2.9781 -1.04333 2.80633 0
M  V30 28 H 0.5241 -0.500454 1.35024 0
M  V30 29 H 2.4771 -3.44952 2.42046 0
M  V30 30 H 1.2011 -3.01469 1.25634 0
M  V30 31 H -0.1399 -1.95026 3.1042 0
M  V30 32 H -0.4919 -4.35547 2.51611 0
M  V30 33 H -0.7919 -4.06062 4.2472 0
M  V30 34 H 0.7321 -4.83545 3.72849 0
M  V30 35 H 2.1461 -2.91277 4.93792 0
M  V30 36 H 0.5431 -2.36971 5.5133 0
M  V30 37 H 1.6131 -1.21818 4.69349 0
M  V30 38 N 2.9562 -1.48159 -0.537278 0
M  V30 39 C 3.9032 -1.62138 -1.64256 0
M  V30 40 C 4.8732 -0.463668 -1.59497 0
M  V30 41 O 6.0582 -0.686241 -1.78032 0
M  V30 42 C 3.1982 -1.66028 -3.02537 0
M  V30 43 C 2.3112 -2.92855 -3.17585 0
M  V30 44 C 1.4462 -2.87952 -4.46382 0
M  V30 45 C 0.4852 -4.09516 -4.54932 0
M  V30 46 N -0.3778 -4.02733 -5.75109 0
M  V30 47 H 4.4622 -2.56529 -1.51647 0
M  V30 48 H 1.9992 -1.27224 -0.738414 0
M  V30 49 H 3.9572 -1.66265 -3.82638 0
M  V30 50 H 2.5872 -0.751331 -3.13934 0
M  V30 51 H 1.6392 -3.02395 -2.30784 0
M  V30 52 H 2.9512 -3.82822 -3.19764 0
M  V30 53 H 2.1052 -2.8655 -5.34765 0
M  V30 54 H 0.8442 -1.95702 -4.46712 0
M  V30 55 H -0.1508 -4.11201 -3.64957 0
M  V30 56 H 1.0742 -5.02917 -4.56346 0
M  V30 57 H -0.9798 -3.13299 -5.76351 0
M  V30 58 H -1.0628 -4.86397 -5.78752 0
M  V30 59 H 0.2052 -4.05379 -6.65799 0
M  V30 60 N 4.4343 0.785586 -1.36625 0
M  V30 61 C 5.6813 1.54362 -1.31067 0
M  V30 62 C 6.0093 1.94195 0.10893 0
M  V30 63 O 5.2643 1.63262 1.07908 0
M  V30 64 C 5.5633 2.83007 -2.1827 0
M  V30 65 C 5.2293 2.62294 -3.6676 0
M  V30 66 C 3.8913 2.56353 -4.0723 0
M  V30 67 C 6.2433 2.43371 -4.6089 0
M  V30 68 C 3.5713 2.29461 -5.39967 0
M  V30 69 C 5.9233 2.18005 -5.93849 0
M  V30 70 C 4.5873 2.105 -6.3344 0
M  V30 71 H 3.8573 0.564851 -0.479609 0
M  V30 72 H 6.5043 0.906028 -1.68711 0
M  V30 73 H 4.8093 3.51253 -1.73576 0
M  V30 74 H 6.5063 3.40817 -2.11292 0
M  V30 75 H 3.0963 2.67774 -3.34656 0
M  V30 76 H 7.2803 2.46959 -4.30494 0
M  V30 77 H 2.5363 2.22135 -5.69619 0
M  V30 78 H 6.7103 2.02359 -6.66351 0
M  V30 79 H 4.3373 1.89425 -7.36222 0
M  V30 80 N 5.9124 1.20967 1.01018 0
M  V30 81 C 7.3284 0.965905 1.27053 0
M  V30 82 C 7.5284 -0.350785 1.98423 0
M  V30 83 O 6.5844 -1.07773 2.28344 0
M  V30 84 C 7.8974 2.15294 2.09926 0
M  V30 85 C 9.4454 2.19463 2.23171 0
M  V30 86 C 9.9204 3.3767 3.09424 0
M  V30 87 N 11.4114 3.37724 3.17012 0
M  V30 88 C 12.1464 4.25837 3.83993 0
M  V30 89 N 11.6424 5.24138 4.53047 0
M  V30 90 N 13.4354 4.1366 3.80581 0
M  V30 91 H 5.5864 2.0565 0.531194 0
M  V30 92 H 7.8494 0.90024 0.297106 0
M  V30 93 H 7.5554 3.10684 1.64828 0
M  V30 94 H 7.4294 2.13923 3.10672 0
M  V30 95 H 9.8164 1.24632 2.6749 0
M  V30 96 H 9.8974 2.2488 1.21912 0
M  V30 97 H 9.5414 4.32791 2.65808 0
M  V30 98 H 9.4714 3.29491 4.10784 0
M  V30 99 H 11.9624 2.6658 2.6785 0
M  V30 100 H 12.2754 5.87684 5.01844 0
M  V30 101 H 10.6204 5.28068 4.5185 0
M  V30 102 H 13.8114 3.36127 3.25785 0
M  V30 103 H 13.9844 4.82538 4.32505 0
M  V30 104 N 7.3905 -1.2043 1.01659 0
M  V30 105 C 8.6185 -1.93777 0.725132 0
M  V30 106 C 9.0335 -1.74772 -0.714166 0
M  V30 107 O 8.3905 -1.06169 -1.4844 0
M  V30 108 C 8.4415 -3.45876 1.05129 0
M  V30 109 O 8.1625 -3.6426 2.43406 0
M  V30 110 C 9.6635 -4.36368 0.780891 0
M  V30 111 H 6.8835 -0.615901 0.266284 0
M  V30 112 H 9.4275 -1.52922 1.35776 0
M  V30 113 H 7.5825 -3.8461 0.464065 0
M  V30 114 H 7.9965 -4.58246 2.55169 0
M  V30 115 H 9.4705 -5.41743 1.05918 0
M  V30 116 H 9.9475 -4.38275 -0.284937 0
M  V30 117 H 10.5535 -4.03296 1.35027 0
M  V30 118 N 8.8686 -0.792821 -1.36206 0
M  V30 119 C 10.1146 -0.36733 -1.99446 0
M  V30 120 C 10.4476 1.05917 -1.62774 0
M  V30 121 O 9.7226 1.7324 -0.88421 0
M  V30 122 C 10.0056 -0.535044 -3.56103 0
M  V30 123 C 9.8586 -2.00548 -4.02617 0
M  V30 124 C 11.1776 0.0478191 -4.40074 0
M  V30 125 H 8.2966 -0.134941 -0.724541 0
M  V30 126 H 10.9386 -0.999794 -1.61568 0
M  V30 127 H 9.0886 0.00336329 -3.885 0
M  V30 128 H 10.7606 -2.60521 -3.80692 0
M  V30 129 H 9.0036 -2.50686 -3.54032 0
M  V30 130 H 9.6746 -2.07377 -5.11565 0
M  V30 131 H 12.1506 -0.411822 -4.14057 0
M  V30 132 H 11.0266 -0.0995336 -5.4881 0
M  V30 133 H 11.2876 1.14025 -4.27142 0
M  V30 134 N 10.3467 1.47872 -0.545128 0
M  V30 135 C 11.2967 2.26842 0.229456 0
M  V30 136 C 12.2807 1.33626 0.896267 0
M  V30 137 O 13.4727 1.58063 0.79657 0
M  V30 138 C 10.6017 3.19089 1.26638 0
M  V30 139 C 9.6877 4.19783 0.603598 0
M  V30 140 N 10.0787 5.0479 -0.319405 0
M  V30 141 C 8.3767 4.3765 0.858989 0
M  V30 142 C 9.0777 5.77433 -0.703241 0
M  V30 143 N 8.0537 5.43566 -0.0608309 0
M  V30 144 H 11.8557 2.89947 -0.480391 0
M  V30 145 H 9.3697 1.58263 -0.364209 0
M  V30 146 H 11.3667 3.74337 1.83515 0
M  V30 147 H 10.0267 2.5754 1.97745 0
M  V30 148 H 11.0377 5.13244 -0.692889 0
M  V30 149 H 7.7147 3.87281 1.55948 0
M  V30 150 H 9.1047 6.55824 -1.46098 0
M  V30 151 N 11.8248 0.280983 1.55075 0
M  V30 152 C 13.0728 -0.333455 1.9933 0
M  V30 153 C 13.3938 -1.55937 1.17085 0
M  V30 154 O 12.6638 -1.94143 0.261805 0
M  V30 155 H 11.2438 -0.126197 0.736263 0
M  V30 156 H 13.9058 0.387678 1.91005 0
M  V30 157 H 13.0018 -0.619292 3.05894 0
M  V30 158 N 13.3029 -1.57598 0.00835791 0
M  V30 159 C 14.5509 -1.90551 -0.6734 0
M  V30 160 C 14.8719 -0.883301 -1.73847 0
M  V30 161 O 14.1419 0.0781442 -1.95744 0
M  V30 162 H 12.7219 -0.703312 -0.251717 0
M  V30 163 H 15.3839 -1.94833 0.0512592 0
M  V30 164 H 14.4799 -2.9056 -1.13935 0
M  V30 165 N 14.781 0.264519 -1.55364 0
M  V30 166 C 15.711 1.33121 -1.91836 0
M  V30 167 C 16.692 1.51101 -0.781192 0
M  V30 168 O 17.877 1.64003 -1.04003 0
M  V30 169 C 15.007 2.68921 -2.19769 0
M  V30 170 C 13.961 2.65661 -3.35571 0
M  V30 171 C 13.287 4.05093 -3.49004 0
M  V30 172 C 14.587 2.24187 -4.71739 0
M  V30 173 H 16.281 1.02844 -2.81182 0
M  V30 174 H 13.827 0.493286 -1.35287 0
M  V30 175 H 15.78 3.43663 -2.43872 0
M  V30 176 H 14.504 3.00799 -1.27231 0
M  V30 177 H 13.163 1.93377 -3.1145 0
M  V30 178 H 12.811 4.34206 -2.53917 0
M  V30 179 H 12.511 4.03804 -4.26868 0
M  V30 180 H 14.035 4.81561 -3.75408 0
M  V30 181 H 15.449 2.88654 -4.9533 0
M  V30 182 H 13.846 2.34044 -5.52579 0
M  V30 183 H 14.916 1.19327 -4.69988 0
M  V30 184 N 16.2591 1.48442 0.529413 0
M  V30 185 C 17.6751 1.34575 0.858004 0
M  V30 186 C 17.8751 0.3572 1.98309 0
M  V30 187 O 16.9311 -0.221379 2.51528 0
M  V30 188 C 18.2441 2.74617 1.22499 0
M  V30 189 C 19.7921 2.83109 1.33484 0
M  V30 190 C 20.2671 4.23854 1.73526 0
M  V30 191 N 21.7581 4.2653 1.80628 0
M  V30 192 C 22.4931 5.32372 2.12997 0
M  V30 193 N 21.9891 6.48491 2.43786 0
M  V30 194 N 23.7821 5.19766 2.14008 0
M  V30 195 H 15.9331 2.1133 -0.212925 0
M  V30 196 H 18.1961 0.947439 -0.0326199 0
M  V30 197 H 17.9021 3.4852 0.471905 0
M  V30 198 H 17.7761 3.08177 2.17501 0
M  V30 199 H 20.1631 2.09462 2.0787 0
M  V30 200 H 20.2441 2.53168 0.366027 0
M  V30 201 H 19.8881 4.98018 0.997013 0
M  V30 202 H 19.8181 4.5124 2.71459 0
M  V30 203 H 22.3091 3.42772 1.59108 0
M  V30 204 H 22.6221 7.24993 2.67592 0
M  V30 205 H 20.9671 6.51765 2.41304 0
M  V30 206 H 24.1581 4.28066 1.89412 0
M  V30 207 H 24.3311 6.02354 2.38902 0
M  V30 208 N 17.7372 -0.778329 1.37039 0
M  V30 209 C 18.6672 -1.90546 1.34962 0
M  V30 210 C 19.6482 -1.68681 0.219274 0
M  V30 211 O 20.8332 -1.89634 0.418624 0
M  V30 212 C 17.9632 -3.27734 1.14925 0
M  V30 213 C 16.9172 -3.64147 2.24902 0
M  V30 214 C 16.2432 -4.99806 1.89996 0
M  V30 215 C 17.5432 -3.71579 3.67051 0
M  V30 216 H 19.2372 -1.92541 2.29277 0
M  V30 217 H 16.7832 -0.924948 1.10366 0
M  V30 218 H 18.7362 -4.06215 1.12104 0
M  V30 219 H 17.4602 -3.26154 0.170631 0
M  V30 220 H 16.1192 -2.8797 2.26868 0
M  V30 221 H 15.7672 -4.94759 0.906796 0
M  V30 222 H 15.4672 -5.25139 2.63634 0
M  V30 223 H 16.9912 -5.80694 1.88749 0
M  V30 224 H 18.4052 -4.40227 3.67251 0
M  V30 225 H 16.8022 -4.08405 4.39688 0
M  V30 226 H 17.8722 -2.72404 4.01154 0
M  V30 227 N 19.2153 -1.21501 -1.00376 0
M  V30 228 C 20.1453 -0.999478 -2.11028 0
M  V30 229 C 21.1263 0.0759671 -1.6993 0
M  V30 230 O 22.3113 -0.0841106 -1.94018 0
M  V30 231 C 19.4413 -0.564709 -3.42678 0
M  V30 232 C 18.3953 -1.58486 -3.97576 0
M  V30 233 C 17.7213 -1.00628 -5.25146 0
M  V30 234 C 19.0213 -2.97204 -4.29496 0
M  V30 235 H 20.7153 -1.92495 -2.29317 0
M  V30 236 H 18.2613 -0.92693 -1.102 0
M  V30 237 H 20.2143 -0.401091 -4.19487 0
M  V30 238 H 18.9383 0.396411 -3.24185 0
M  V30 239 H 17.5973 -1.73606 -3.22888 0
M  V30 240 H 17.2453 -0.0368439 -5.02987 0
M  V30 241 H 16.9453 -1.68771 -5.62841 0
M  V30 242 H 18.4693 -0.854015 -6.04598 0
M  V30 243 H 19.8833 -2.8552 -4.97143 0
M  V30 244 H 18.2803 -3.62372 -4.78338 0
M  V30 245 H 19.3503 -3.47956 -3.3772 0
M  V30 246 N 20.6934 1.19889 -1.02296 0
M  V30 247 C 21.9414 1.89046 -0.714558 0
M  V30 248 C 22.2624 1.79636 0.758681 0
M  V30 249 O 21.5324 1.20292 1.54618 0
M  V30 250 H 20.1124 0.699802 -0.261317 0
M  V30 251 H 22.7744 1.45574 -1.29592 0
M  V30 252 H 21.8704 2.95524 -1.0036 0
M  V30 253 N 22.1715 0.800033 1.35784 0
M  V30 254 C 23.4205 0.37387 1.98205 0
M  V30 255 C 23.7335 -1.06302 1.64193 0
M  V30 256 O 24.9395 -1.59198 2.19928 0
M  V30 257 C 23.3955 0.617532 3.54562 0
M  V30 258 C 23.0035 2.06654 3.9749 0
M  V30 259 C 24.7475 0.256401 4.23725 0
M  V30 260 C 22.6545 2.2563 5.46667 0
M  V30 261 H 21.5845 0.136055 0.741623 0
M  V30 262 H 24.2355 0.983166 1.54939 0
M  V30 263 H 22.6175 -0.0616248 3.95952 0
M  V30 264 H 23.7915 2.78296 3.67271 0
M  V30 265 H 22.1065 2.38691 3.41197 0
M  V30 266 H 24.7035 0.376318 5.33374 0
M  V30 267 H 25.0465 -0.796692 4.08606 0
M  V30 268 H 25.5795 0.889214 3.87734 0
M  V30 269 H 22.3185 3.2936 5.66747 0
M  V30 270 H 21.8385 1.58504 5.78478 0
M  V30 271 H 23.5175 2.06861 6.1304 0
M  V30 272 N 23.6496 -1.47581 0.552962 0
M  V30 273 C 25.0656 -1.5818 0.212424 0
M  V30 274 C 25.2656 -1.55213 -1.28496 0
M  V30 275 O 24.3216 -1.45329 -2.06484 0
M  V30 276 C 25.6346 -2.88865 0.835318 0
M  V30 277 C 27.1826 -3.0244 0.806156 0
M  V30 278 C 27.6576 -4.35819 1.40804 0
M  V30 279 N 29.1486 -4.42444 1.37103 0
M  V30 280 C 29.8836 -5.44202 1.80641 0
M  V30 281 N 29.3796 -6.52795 2.32015 0
M  V30 282 N 31.1726 -5.35222 1.71738 0
M  V30 283 H 23.3236 -1.47753 1.52587 0
M  V30 284 H 25.5866 -0.702941 0.636064 0
M  V30 285 H 25.2926 -2.9676 1.88749 0
M  V30 286 H 25.1666 -3.7579 0.325848 0
M  V30 287 H 27.5536 -2.94144 -0.237317 0
M  V30 288 H 27.6346 -2.17068 1.35334 0
M  V30 289 H 27.2786 -4.44871 2.45056 0
M  V30 290 H 27.2086 -5.19916 0.836338 0
M  V30 291 H 29.6996 -3.6456 0.995202 0
M  V30 292 H 30.0126 -7.26609 2.63171 0
M  V30 293 H 28.3576 -6.53696 2.36023 0
M  V30 294 H 31.5486 -4.49284 1.31382 0
M  V30 295 H 31.7216 -6.14389 2.05987 0
M  V30 296 N 25.1277 -0.289203 -1.54924 0
M  V30 297 C 26.5437 0.0645403 -1.59469 0
M  V30 298 C 26.7437 1.53419 -1.30632 0
M  V30 299 O 25.7997 2.2852 -1.074 0
M  V30 300 C 27.1127 -0.32278 -2.98963 0
M  V30 301 C 28.6607 -0.270564 -3.11828 0
M  V30 302 C 29.1357 -0.632532 -4.53611 0
M  V30 303 N 30.6267 -0.584617 -4.59496 0
M  V30 304 C 31.3617 -0.837314 -5.67254 0
M  V30 305 N 30.8577 -1.15536 -6.83098 0
M  V30 306 N 32.6507 -0.765166 -5.56868 0
M  V30 307 H 24.8017 -1.24714 -1.71931 0
M  V30 308 H 27.0647 -0.504809 -0.802416 0
M  V30 309 H 26.7707 -1.34541 -3.24948 0
M  V30 310 H 26.6447 0.32944 -3.75759 0
M  V30 311 H 29.0317 0.742805 -2.85598 0
M  V30 312 H 29.1127 -0.957242 -2.37214 0
M  V30 313 H 28.7567 -1.64365 -4.80569 0
M  V30 314 H 28.6867 0.07609 -5.26545 0
M  V30 315 H 31.1777 -0.349248 -3.76283 0
M  V30 316 H 31.4907 -1.33447 -7.61191 0
M  V30 317 H 29.8357 -1.19328 -6.84679 0
M  V30 318 H 33.0267 -0.516432 -4.65243 0
M  V30 319 H 33.1997 -0.965477 -6.40767 0
M  V30 320 N 26.6058 1.57591 -0.0167156 0
M  V30 321 C 27.8338 1.95575 0.675128 0
M  V30 322 C 28.2488 0.892542 1.6637 0
M  V30 323 O 27.6058 -0.126912 1.82058 0
M  V30 324 C 27.6568 3.33608 1.39239 0
M  V30 325 O 27.3778 4.3585 0.443444 0
M  V30 326 C 28.8788 3.86151 2.17721 0
M  V30 327 H 26.0988 0.644423 0.186978 0
M  V30 328 H 28.6428 2.0437 -0.0728 0
M  V30 329 H 26.7978 3.2607 2.09182 0
M  V30 330 H 27.2118 5.158 0.951358 0
M  V30 331 H 28.6858 4.85114 2.63379 0
M  V30 332 H 29.1628 3.19738 3.01105 0
M  V30 333 H 29.7688 3.96918 1.52761 0
M  V30 334 N 28.0839 -0.256276 1.55502 0
M  V30 335 C 29.3089 -1.00766 1.81276 0
M  V30 336 C 29.7339 -1.78524 0.59252 0
M  V30 337 O 29.0919 -1.75413 -0.45827 0
M  V30 338 C 29.1399 -1.92869 3.04687 0
M  V30 339 O 28.2439 -3.019 2.80945 0
M  V30 340 H 27.5849 -0.287224 0.598664 0
M  V30 341 H 30.1149 -0.280109 2.02674 0
M  V30 342 H 30.1249 -2.34511 3.33869 0
M  V30 343 H 28.7999 -1.35689 3.93143 0
M  V30 344 H 27.3769 -2.64454 2.62904 0
M  V30 345 N 29.562 -1.4872 -0.521534 0
M  V30 346 C 30.79 -1.60843 -1.30142 0
M  V30 347 C 31.205 -0.271897 -1.86832 0
M  V30 348 O 30.562 0.739969 -1.66825 0
M  V30 349 C 30.613 -2.66155 -2.4463 0
M  V30 350 O 30.334 -3.94623 -1.90275 0
M  V30 351 C 31.835 -2.88795 -3.36322 0
M  V30 352 H 29.055 -0.542075 -0.395468 0
M  V30 353 H 31.599 -1.94609 -0.628285 0
M  V30 354 H 29.754 -2.35224 -3.07812 0
M  V30 355 H 30.168 -4.52468 -2.65279 0
M  V30 356 H 31.642 -3.66264 -4.12983 0
M  V30 357 H 32.119 -1.97934 -3.9207 0
M  V30 358 H 32.725 -3.21063 -2.78924 0
M  V30 359 N 31.0401 0.771051 -1.3745 0
M  V30 360 C 32.0031 1.86598 -1.33093 0
M  V30 361 C 33.0031 1.59076 -0.234845 0
M  V30 362 O 34.1931 1.67145 -0.490732 0
M  V30 363 C 31.3251 3.23747 -1.06773 0
M  V30 364 H 32.5181 1.91873 -2.30488 0
M  V30 365 H 30.0711 0.970876 -1.2249 0
M  V30 366 H 30.8061 3.24148 -0.099129 0
M  V30 367 H 30.5911 3.45115 -1.86112 0
M  V30 368 H 32.0811 4.03824 -1.06377 0
M  V30 369 N 32.5182 1.22032 0.997298 0
M  V30 370 C 33.9292 1.0397 1.55071 0
M  V30 371 C 34.2802 -0.398192 1.92117 0
M  V30 372 O 33.4052 -1.28254 1.74298 0
M  V30 373 C 34.0002 1.88109 2.81781 0
M  V30 374 C 32.5592 1.74357 3.33581 0
M  V30 375 C 31.7062 1.84846 2.06706 0
M  V30 376 H 34.6572 1.35941 0.818883 0
M  V30 377 H 34.6782 1.39589 3.53971 0
M  V30 378 H 34.1902 2.92754 2.54787 0
M  V30 379 H 32.2912 0.72427 3.65493 0
M  V30 380 H 32.4042 2.56772 4.04481 0
M  V30 381 H 30.7682 1.28238 2.20062 0
M  V30 382 H 31.5512 2.91014 1.82114 0
M  V30 383 N 33.9963 -1.19345 1.0293 0
M  V30 384 C 34.9593 -2.20793 0.615069 0
M  V30 385 C 35.9593 -1.57553 -0.321533 0
M  V30 386 O 37.1493 -1.73862 -0.108483 0
M  V30 387 C 34.2813 -3.40754 -0.0999222 0
M  V30 388 H 35.4743 -2.58955 1.51269 0
M  V30 389 H 33.0273 -1.3303 0.820534 0
M  V30 390 H 33.7623 -3.0811 -1.01187 0
M  V30 391 H 33.5473 -3.87889 0.57309 0
M  V30 392 H 35.0373 -4.15898 -0.376645 0
M  V30 393 N 35.4744 -0.807222 -1.35358 0
M  V30 394 C 36.4374 -0.223665 -2.28106 0
M  V30 395 C 37.4374 0.589354 -1.4961 0
M  V30 396 O 38.6274 0.407745 -1.69361 0
M  V30 397 C 35.7594 0.688149 -3.33882 0
M  V30 398 H 36.9524 -1.04169 -2.81227 0
M  V30 399 H 34.5054 -0.577921 -1.45223 0
M  V30 400 H 35.2404 1.52984 -2.85948 0
M  V30 401 H 35.0254 0.10687 -3.91954 0
M  V30 402 H 36.5154 1.09075 -4.03104 0
M  V30 403 N 36.9525 1.47285 -0.560781 0
M  V30 404 C 38.1775 2.07359 -0.0410566 0
M  V30 405 C 38.6025 1.41017 1.24483 0
M  V30 406 O 37.9605 0.486368 1.74654 0
M  V30 407 C 38.0085 3.6035 0.134123 0
M  V30 408 O 37.1125 3.94681 1.19587 0
M  V30 409 H 36.4535 0.661887 -0.0529291 0
M  V30 410 H 38.9835 1.89252 -0.777482 0
M  V30 411 H 38.9935 4.0652 0.347207 0
M  V30 412 H 37.6685 4.08034 -0.805047 0
M  V30 413 H 36.2455 3.60251 0.962987 0
M  V30 414 N 38.4306 0.297415 1.54768 0
M  V30 415 C 39.8416 -0.195947 1.85669 0
M  V30 416 C 40.1926 -1.53707 1.21937 0
M  V30 417 O 39.3176 -2.10164 0.515754 0
M  V30 418 C 39.9126 -0.362318 3.36857 0
M  V30 419 C 38.4716 -0.799901 3.67802 0
M  V30 420 C 37.6186 0.0938578 2.77141 0
M  V30 421 H 40.5696 0.518538 1.4999 0
M  V30 422 H 40.5906 -1.19745 3.61167 0
M  V30 423 H 40.1026 0.613921 3.83214 0
M  V30 424 H 38.2036 -1.78682 3.26961 0
M  V30 425 H 38.3166 -0.621773 4.75048 0
M  V30 426 H 36.6806 -0.426254 2.51108 0
M  V30 427 H 37.4636 1.06639 3.26318 0
M  V30 428 N 39.9087 -1.5758 0.0250728 0
M  V30 429 C 40.8567 -2.11125 -0.97617 0
M  V30 430 C 41.8507 -1.03689 -1.33959 0
M  V30 431 O 43.0567 -1.22128 -1.3223 0
M  V30 432 H 39.4317 -0.674468 -0.332561 0
M  V30 433 H 41.4027 -2.94194 -0.499223 0
M  V30 434 C 40.1517 -2.65017 -2.2508 0
M  V30 435 H 39.4747 -3.47333 -1.9799 0
M  V30 436 H 40.9147 -3.06133 -2.93357 0
M  V30 437 C 39.3737 -1.57574 -2.97779 0
M  V30 438 O 39.9037 -0.973203 -3.89733 0
M  V30 439 N 38.1097 -1.29716 -2.60043 0
M  V30 440 H 37.6567 -1.789 -1.85345 0
M  V30 441 H 37.6147 -0.58051 -3.08994 0
M  V30 442 N 41.3868 0.248026 -1.55636 0
M  V30 443 C 42.6328 0.97767 -1.77678 0
M  V30 444 C 42.9658 1.85016 -0.590135 0
M  V30 445 O 42.2408 1.90095 0.411611 0
M  V30 446 C 42.5238 1.83914 -3.09593 0
M  V30 447 C 42.3768 0.99491 -4.38659 0
M  V30 448 C 43.6958 2.82183 -3.37729 0
M  V30 449 H 40.8148 0.354005 -0.646413 0
M  V30 450 H 43.4568 0.248253 -1.88371 0
M  V30 451 H 41.6068 2.46104 -3.00608 0
M  V30 452 H 43.2788 0.391789 -4.59633 0
M  V30 453 H 41.5218 0.299231 -4.32767 0
M  V30 454 H 42.1928 1.63145 -5.2734 0
M  V30 455 H 44.6688 2.30129 -3.4667 0
M  V30 456 H 43.5448 3.39582 -4.31249 0
M  V30 457 H 43.8058 3.58588 -2.58586 0
M  V30 458 N 42.8649 1.48995 0.513639 0
M  V30 459 C 44.2809 1.35478 0.843682 0
M  V30 460 C 44.4809 0.378213 1.97919 0
M  V30 461 O 43.5369 -0.194689 2.51748 0
M  V30 462 C 44.8499 2.75901 1.1958 0
M  V30 463 C 46.3979 2.84509 1.30474 0
M  V30 464 C 46.8729 4.25671 1.69021 0
M  V30 465 N 48.3639 4.28422 1.76094 0
M  V30 466 C 49.0989 5.34601 2.07338 0
M  V30 467 N 48.5949 6.5104 2.36894 0
M  V30 468 N 50.3879 5.22007 2.08483 0
M  V30 469 H 42.5389 2.11092 -0.235328 0
M  V30 470 H 44.8019 0.947039 -0.0426669 0
M  V30 471 H 44.5079 3.49001 0.434913 0
M  V30 472 H 44.3819 3.10467 2.1422 0
M  V30 473 H 46.7689 2.11655 2.05637 0
M  V30 474 H 46.8499 2.53542 0.339155 0
M  V30 475 H 46.4939 4.99048 0.944135 0
M  V30 476 H 46.4239 4.54094 2.66658 0
M  V30 477 H 48.9149 3.44441 1.55464 0
M  V30 478 H 49.2279 7.2779 2.59887 0
M  V30 479 H 47.5729 6.54287 2.34378 0
M  V30 480 H 50.7639 4.30051 1.84861 0
M  V30 481 H 50.9369 6.04854 2.325 0
M  V30 482 N 44.343 -0.763751 1.37857 0
M  V30 483 C 45.759 -1.06542 1.18832 0
M  V30 484 C 45.959 -2.01478 0.0299722 0
M  V30 485 O 45.015 -2.4458 -0.627447 0
M  V30 486 C 46.328 -1.65525 2.51042 0
M  V30 487 C 47.876 -1.77745 2.57635 0
M  V30 488 C 48.351 -2.4014 3.89996 0
M  V30 489 N 49.842 -2.47582 3.91481 0
M  V30 490 C 50.577 -2.96732 4.9065 0
M  V30 491 N 50.073 -3.45993 6.00217 0
M  V30 492 N 51.866 -2.95679 4.78048 0
M  V30 493 H 44.017 -0.133556 2.1198 0
M  V30 494 H 46.28 -0.121879 0.940133 0
M  V30 495 H 45.986 -1.03236 3.36207 0
M  V30 496 H 45.86 -2.64719 2.68707 0
M  V30 497 H 48.247 -2.39164 1.72872 0
M  V30 498 H 48.328 -0.772836 2.43846 0
M  V30 499 H 47.972 -1.79358 4.75177 0
M  V30 500 H 47.902 -3.41223 4.01092 0
M  V30 501 H 50.393 -2.1273 3.12337 0
M  V30 502 H 50.706 -3.81922 6.7183 0
M  V30 503 H 49.051 -3.44077 6.03851 0
M  V30 504 H 52.242 -2.56499 3.91568 0
M  V30 505 H 52.415 -3.33672 5.55488 0
M  V30 506 N 45.8211 -1.22559 -0.990812 0
M  V30 507 C 46.7511 -1.0218 -2.09956 0
M  V30 508 C 47.7321 0.0579394 -1.70001 0
M  V30 509 O 48.9171 -0.104684 -1.93918 0
M  V30 510 C 46.0471 -0.601023 -3.4206 0
M  V30 511 C 45.0011 -1.62694 -3.95872 0
M  V30 512 C 44.3271 -1.06193 -5.24049 0
M  V30 513 C 45.6271 -3.01743 -4.2632 0
M  V30 514 H 47.3211 -1.94916 -2.27262 0
M  V30 515 H 44.8671 -0.938566 -1.09211 0
M  V30 516 H 46.8201 -0.445561 -4.19038 0
M  V30 517 H 45.5441 0.362005 -3.24588 0
M  V30 518 H 44.2031 -1.77021 -3.21028 0
M  V30 519 H 43.8511 -0.0901903 -5.02919 0
M  V30 520 H 43.5511 -1.74732 -5.61019 0
M  V30 521 H 45.0751 -0.918092 -6.03658 0
M  V30 522 H 46.4891 -2.90777 -4.94087 0
M  V30 523 H 44.8861 -3.67425 -4.74467 0
M  V30 524 H 45.9561 -3.51518 -3.34011 0
M  V30 525 N 47.2992 1.18797 -1.03562 0
M  V30 526 C 48.2092 2.25913 -0.632505 0
M  V30 527 C 49.2252 1.70668 0.338882 0
M  V30 528 O 50.4012 2.00453 0.195076 0
M  V30 529 C 47.4662 3.467 0.00350942 0
M  V30 530 C 46.5272 4.17098 -1.01624 0
M  V30 531 C 45.7602 5.32119 -0.410478 0
M  V30 532 O 45.9832 5.64976 0.784725 0
M  V30 533 O 44.9172 5.9107 -1.13667 0
M  V30 534 H 48.7432 2.62648 -1.52478 0
M  V30 535 H 46.3282 1.25781 -0.806195 0
M  V30 536 H 48.2102 4.19878 0.35781 0
M  V30 537 H 46.8852 3.11798 0.869686 0
M  V30 538 H 45.7922 3.4601 -1.42224 0
M  V30 539 H 47.1252 4.55987 -1.85301 0
M  V30 540 N 48.7773 0.814389 1.34928 0
M  V30 541 C 50.0073 0.41054 2.0248 0
M  V30 542 C 50.4153 -0.985625 1.61499 0
M  V30 543 O 49.7583 -1.64781 0.811976 0
M  V30 544 C 49.8203 0.423384 3.56998 0
M  V30 545 C 49.4843 1.77141 4.21272 0
M  V30 546 C 50.4813 2.73093 4.42398 0
M  V30 547 C 48.1663 2.05755 4.58225 0
M  V30 548 C 50.1603 3.95838 4.9959 0
M  V30 549 C 47.8473 3.28762 5.1513 0
M  V30 550 C 48.8453 4.23621 5.35755 0
M  V30 551 O 48.5333 5.44456 5.91458 0
M  V30 552 H 48.2653 0.163997 0.655806 0
M  V30 553 H 50.8193 1.10155 1.73364 0
M  V30 554 H 49.0493 -0.324276 3.85338 0
M  V30 555 H 50.7383 0.0407683 4.0588 0
M  V30 556 H 51.5043 2.5228 4.14222 0
M  V30 557 H 47.3833 1.32727 4.4148 0
M  V30 558 H 50.9273 4.69891 5.15605 0
M  V30 559 H 46.8243 3.49443 5.42734 0
M  V30 560 H 47.5923 5.4586 6.09901 0
M  V30 561 N 50.2554 -1.46986 0.568584 0
M  V30 562 C 51.2024 -2.30153 -0.172707 0
M  V30 563 C 52.1724 -1.39759 -0.897586 0
M  V30 564 O 53.3574 -1.68716 -0.891044 0
M  V30 565 C 50.4974 -3.23952 -1.1895 0
M  V30 566 C 49.6104 -4.29441 -0.469517 0
M  V30 567 C 48.7454 -5.1038 -1.47259 0
M  V30 568 C 47.7844 -6.07632 -0.738225 0
M  V30 569 N 46.9214 -6.8149 -1.68868 0
M  V30 570 H 51.7614 -2.93019 0.542596 0
M  V30 571 H 49.2984 -1.44422 0.279401 0
M  V30 572 H 51.2564 -3.76767 -1.79173 0
M  V30 573 H 49.8864 -2.62926 -1.87269 0
M  V30 574 H 48.9384 -3.79594 0.247467 0
M  V30 575 H 50.2504 -4.98689 0.105241 0
M  V30 576 H 49.4044 -5.67402 -2.14803 0
M  V30 577 H 48.1434 -4.4106 -2.08128 0
M  V30 578 H 47.1484 -5.49778 -0.0489293 0
M  V30 579 H 48.3734 -6.78966 -0.135129 0
M  V30 580 H 46.3194 -6.14891 -2.28573 0
M  V30 581 H 46.2364 -7.46948 -1.16636 0
M  V30 582 H 47.5044 -7.43078 -2.3549 0
M  V30 583 N 51.7335 -0.305618 -1.54608 0
M  V30 584 C 53.1445 0.186098 -1.8577 0
M  V30 585 C 53.4955 1.53058 -1.22751 0
M  V30 586 O 52.6205 2.09888 -0.526893 0
M  V30 587 C 53.2155 0.344449 -3.37044 0
M  V30 588 C 51.7745 0.780384 -3.68221 0
M  V30 589 C 50.9215 -0.108554 -2.77087 0
M  V30 590 H 53.8725 -0.526485 -1.49712 0
M  V30 591 H 53.8935 1.17828 -3.61796 0
M  V30 592 H 53.4055 -0.634235 -3.82883 0
M  V30 593 H 51.5065 1.76945 -3.27904 0
M  V30 594 H 51.6195 0.596572 -4.75371 0
M  V30 595 H 49.9835 0.412931 -2.5133 0
M  V30 596 H 50.7665 -1.08368 -3.25747 0
M  V30 597 N 53.2116 1.57565 -0.0334293 0
M  V30 598 C 54.4606 1.91155 0.643639 0
M  V30 599 C 54.7736 0.91192 1.73042 0
M  V30 600 O 55.9796 1.13923 2.46442 0
M  V30 601 C 54.4356 3.39443 1.1961 0
M  V30 602 C 54.0436 4.47774 0.142381 0
M  V30 603 C 55.7876 3.82094 1.84944 0
M  V30 604 C 53.6946 5.87162 0.706727 0
M  V30 605 H 52.6246 0.713368 0.244176 0
M  V30 606 H 55.2756 1.8323 -0.0994323 0
M  V30 607 H 53.6576 3.42313 1.99092 0
M  V30 608 H 54.8316 4.56469 -0.630296 0
M  V30 609 H 53.1466 4.14352 -0.412446 0
M  V30 610 H 55.7436 4.83591 2.2813 0
M  V30 611 H 56.0866 3.17386 2.69392 0
M  V30 612 H 56.6196 3.81665 1.12145 0
M  V30 613 H 53.3586 6.55424 -0.0997178 0
M  V30 614 H 52.8786 5.82064 1.44779 0
M  V30 615 H 54.5576 6.35866 1.19514 0
M  V30 616 N 54.6897 -0.239769 1.55765 0
M  V30 617 C 55.6367 -1.29696 1.90913 0
M  V30 618 C 56.6067 -1.47478 0.764164 0
M  V30 619 O 57.7917 -1.61345 1.01845 0
M  V30 620 C 54.9317 -2.64598 2.21544 0
M  V30 621 C 54.0447 -2.54765 3.48882 0
M  V30 622 C 53.1797 -3.82069 3.69049 0
M  V30 623 C 52.2187 -3.66883 4.89963 0
M  V30 624 N 51.3557 -4.86094 5.06614 0
M  V30 625 H 56.1957 -0.990224 2.81067 0
M  V30 626 H 53.7327 -0.477684 1.39128 0
M  V30 627 H 55.6907 -3.43132 2.3731 0
M  V30 628 H 54.3207 -2.93405 1.34585 0
M  V30 629 H 53.3727 -1.67763 3.41409 0
M  V30 630 H 54.6847 -2.39457 4.37563 0
M  V30 631 H 53.8387 -4.69046 3.84812 0
M  V30 632 H 52.5777 -4.00282 2.78614 0
M  V30 633 H 51.5827 -2.78289 4.74168 0
M  V30 634 H 52.8077 -3.50157 5.81865 0
M  V30 635 H 50.7537 -5.04655 4.19117 0
M  V30 636 H 50.6707 -4.73443 5.89396 0
M  V30 637 H 51.9387 -5.74549 5.26795 0
M  V30 638 N 56.1678 -1.49265 -0.50573 0
M  V30 639 C 57.1148 -1.65585 -1.6078 0
M  V30 640 C 58.0848 -0.497396 -1.58478 0
M  V30 641 O 59.2698 -0.72385 -1.76536 0
M  V30 642 C 56.4098 -1.72408 -2.98948 0
M  V30 643 C 55.5228 -2.99525 -3.11301 0
M  V30 644 C 54.6578 -2.97356 -4.40174 0
M  V30 645 C 53.6968 -4.19074 -4.46143 0
M  V30 646 N 52.8338 -4.14841 -5.66437 0
M  V30 647 H 57.6738 -2.59688 -1.46172 0
M  V30 648 H 55.2108 -1.28761 -0.711261 0
M  V30 649 H 57.1688 -1.74344 -3.79025 0
M  V30 650 H 55.7988 -0.817753 -3.1227 0
M  V30 651 H 54.8508 -3.07222 -2.24318 0
M  V30 652 H 56.1628 -3.89518 -3.11572 0
M  V30 653 H 55.3168 -2.97829 -5.28567 0
M  V30 654 H 54.0558 -2.05133 -4.42461 0
M  V30 655 H 53.0608 -4.1885 -3.56153 0
M  V30 656 H 54.2858 -5.12483 -4.45575 0
M  V30 657 H 52.2318 -3.25453 -5.69575 0
M  V30 658 H 52.1488 -4.98564 -5.68304 0
M  V30 659 H 53.4168 -4.1941 -6.57051 0
M  V30 660 N 57.6459 0.756429 -1.3826 0
M  V30 661 C 58.8919 1.51772 -1.34511 0
M  V30 662 C 59.2249 1.94089 0.0656691 0
M  V30 663 O 58.4999 1.65221 1.02626 0
M  V30 664 C 58.7829 2.77226 -2.29821 0
M  V30 665 C 58.6359 2.41065 -3.79747 0
M  V30 666 C 59.9549 3.79236 -2.23312 0
M  V30 667 H 57.0739 0.550578 -0.489931 0
M  V30 668 H 59.7159 0.866607 -1.69086 0
M  V30 669 H 57.8659 3.32784 -2.00467 0
M  V30 670 H 59.5379 1.91303 -4.19763 0
M  V30 671 H 57.7809 1.7356 -3.97567 0
M  V30 672 H 58.4519 3.3081 -4.41892 0
M  V30 673 H 60.9279 3.3321 -2.49219 0
M  V30 674 H 59.8039 4.64714 -2.92116 0
M  V30 675 H 60.0649 4.24615 -1.23102 0
M  V30 676 N 59.124 1.23083 0.984299 0
M  V30 677 C 60.057 0.951786 2.07404 0
M  V30 678 C 61.035 -0.10848 1.62238 0
M  V30 679 O 62.219 0.0249467 1.88483 0
M  V30 680 C 59.346 0.433142 3.35919 0
M  V30 681 C 58.392 1.47941 4.0002 0
M  V30 682 S 59.225 3.05556 4.39768 0
M  V30 683 C 60.381 2.55351 5.71442 0
M  V30 684 H 60.614 1.87456 2.30754 0
M  V30 685 H 58.147 1.06284 1.11996 0
M  V30 686 H 60.105 0.140506 4.10259 0
M  V30 687 H 58.766 -0.468656 3.10584 0
M  V30 688 H 57.959 1.06658 4.92585 0
M  V30 689 H 57.561 1.7212 3.3204 0
M  V30 690 H 59.853 1.97128 6.48187 0
M  V30 691 H 60.796 3.46441 6.17563 0
M  V30 692 H 61.204 1.96339 5.29255 0
M  V30 693 N 60.6021 -1.18246 1.0419 0
M  V30 694 C 61.8481 -1.88536 0.747122 0
M  V30 695 C 62.1811 -1.80223 -0.723409 0
M  V30 696 O 61.4561 -1.20337 -1.52804 0
M  V30 697 C 61.7391 -3.38968 1.21544 0
M  V30 698 C 61.5921 -3.56084 2.74816 0
M  V30 699 C 62.9111 -4.32648 0.806482 0
M  V30 700 H 60.0301 -0.684619 0.272883 0
M  V30 701 H 62.6721 -1.39113 1.29413 0
M  V30 702 H 60.8221 -3.8119 0.750081 0
M  V30 703 H 62.4941 -3.22946 3.29399 0
M  V30 704 H 60.7371 -2.98699 3.14582 0
M  V30 705 H 61.4081 -4.61639 3.02644 0
M  V30 706 H 63.8841 -3.98211 1.20695 0
M  V30 707 H 62.7601 -5.36462 1.1619 0
M  V30 708 H 63.0211 -4.41146 -0.29029 0
M  V30 709 N 62.0802 -0.821533 -1.34494 0
M  V30 710 C 63.0432 -0.247847 -2.27856 0
M  V30 711 C 64.0432 0.573453 -1.50227 0
M  V30 712 O 65.2332 0.389759 -1.69784 0
M  V30 713 C 62.3652 0.652698 -3.34593 0
M  V30 714 H 63.5582 -1.07146 -2.80107 0
M  V30 715 H 61.1112 -0.593291 -1.44602 0
M  V30 716 H 61.8462 1.49943 -2.87555 0
M  V30 717 H 61.6312 0.065292 -3.92046 0
M  V30 718 H 63.1212 1.04793 -4.04238 0
M  V30 719 N 63.5583 1.46682 -0.576371 0
M  V30 720 C 64.5063 2.31953 0.17335 0
M  V30 721 C 65.5003 1.44098 0.89062 0
M  V30 722 O 66.7063 1.60759 0.809728 0
M  V30 723 H 63.0813 0.748273 0.0747727 0
M  V30 724 H 65.0523 2.93007 -0.564738 0
M  V30 725 C 63.8013 3.27142 1.17786 0
M  V30 726 H 63.1243 3.94719 0.635361 0
M  V30 727 H 64.5643 3.896 1.67296 0
M  V30 728 C 63.0233 2.52036 2.23561 0
M  V30 729 O 63.5533 2.27877 3.3081 0
M  V30 730 N 61.7593 2.12709 1.97998 0
M  V30 731 H 61.3063 2.32557 1.10792 0
M  V30 732 H 61.2643 1.62776 2.68982 0
M  V30 733 N 65.0364 0.313813 1.54444 0
M  V30 734 C 66.4524 -0.0391619 1.59552 0
M  V30 735 C 66.6524 -1.51322 1.33056 0
M  V30 736 O 65.7084 -2.26782 1.11022 0
M  V30 737 C 67.0214 0.370302 2.98411 0
M  V30 738 C 68.5694 0.320139 3.11358 0
M  V30 739 C 69.0444 0.704617 4.52547 0
M  V30 740 N 70.5354 0.657645 4.58508 0
M  V30 741 C 71.2704 0.927453 5.6585 0
M  V30 742 N 70.7664 1.26389 6.81174 0
M  V30 743 N 72.5594 0.853662 5.5558 0
M  V30 744 H 64.7104 1.27433 1.69925 0
M  V30 745 H 66.9734 0.517511 0.794284 0
M  V30 746 H 66.6794 1.39694 3.22767 0
M  V30 747 H 66.5534 -0.269619 3.76235 0
M  V30 748 H 68.9404 -0.697275 2.86744 0
M  V30 749 H 69.0214 0.99486 2.35661 0
M  V30 750 H 68.6654 1.7199 4.77893 0
M  V30 751 H 68.5954 0.00768843 5.26599 0
M  V30 752 H 71.0864 0.409067 3.75679 0
M  V30 753 H 71.3994 1.4554 7.58972 0
M  V30 754 H 69.7444 1.30206 6.82694 0
M  V30 755 H 72.9354 0.590383 4.64362 0
M  V30 756 H 73.1084 1.0673 6.3915 0
M  V30 757 N 66.5145 -1.57545 0.0417849 0
M  V30 758 C 67.7625 -1.91937 -0.632829 0
M  V30 759 C 68.0835 -0.919978 -1.71934 0
M  V30 760 O 67.3535 0.0366064 -1.95866 0
M  V30 761 H 65.9335 -0.708493 -0.236742 0
M  V30 762 H 68.5955 -1.9468 0.0925745 0
M  V30 763 H 67.6915 -2.92912 -1.07746 0
M  V30 764 N 67.9926 0.231505 -1.5589 0
M  V30 765 C 68.9026 1.308 -1.94752 0
M  V30 766 C 69.9186 1.51826 -0.849989 0
M  V30 767 O 71.0946 1.6515 -1.15271 0
M  V30 768 C 68.1596 2.63968 -2.24771 0
M  V30 769 C 67.2206 2.51331 -3.48039 0
M  V30 770 C 66.4536 3.78148 -3.76616 0
M  V30 771 O 66.6766 4.80722 -3.07022 0
M  V30 772 O 65.6106 3.75857 -4.70123 0
M  V30 773 H 69.4366 1.0083 -2.86474 0
M  V30 774 H 67.0216 0.433547 -1.42971 0
M  V30 775 H 68.9036 3.42633 -2.45318 0
M  V30 776 H 67.5786 2.9364 -1.36225 0
M  V30 777 H 66.4856 1.709 -3.32782 0
M  V30 778 H 67.8186 2.26601 -4.36936 0
M  V30 779 N 69.4707 1.49531 0.497807 0
M  V30 780 C 70.7197 1.58426 1.24837 0
M  V30 781 C 71.0327 0.277643 1.93619 0
M  V30 782 O 72.2387 0.24517 2.70391 0
M  V30 783 C 70.6947 2.79538 2.26686 0
M  V30 784 C 70.3027 4.16971 1.63828 0
M  V30 785 C 72.0467 2.97764 3.0255 0
M  V30 786 C 69.9537 5.29301 2.63807 0
M  V30 787 H 68.8837 0.58989 0.469623 0
M  V30 788 H 71.5347 1.75923 0.521857 0
M  V30 789 H 69.9167 2.55542 3.02514 0
M  V30 790 H 71.0907 4.51116 0.939711 0
M  V30 791 H 69.4057 4.04129 1.00342 0
M  V30 792 H 72.0027 3.78856 3.77323 0
M  V30 793 H 72.3457 2.08448 3.60354 0
M  V30 794 H 72.8787 3.21815 2.33838 0
M  V30 795 H 69.6177 6.20687 2.10779 0
M  V30 796 H 69.1377 4.99606 3.31894 0
M  V30 797 H 70.8167 5.58768 3.2617 0
M  V30 798 N 70.9488 -0.749086 1.3866 0
M  V30 799 C 71.9118 -1.84457 1.36045 0
M  V30 800 C 72.9118 -1.58682 0.260122 0
M  V30 801 O 74.1018 -1.66343 0.517261 0
M  V30 802 C 71.2338 -3.22008 1.11911 0
M  V30 803 H 72.4268 -1.88182 2.33512 0
M  V30 804 H 69.9798 -0.951266 1.24019 0
M  V30 805 H 70.7148 -3.2395 0.150686 0
M  V30 806 H 70.4998 -3.42111 1.91579 0
M  V30 807 H 71.9898 -4.0208 1.12788 0
M  V30 808 N 72.4269 -1.23603 -0.977757 0
M  V30 809 C 73.6759 -1.06377 -1.71368 0
M  V30 810 C 73.9889 0.399062 -1.91486 0
M  V30 811 O 75.1949 0.691312 -2.62551 0
M  V30 812 C 73.6509 -1.85512 -3.08404 0
M  V30 813 C 73.2589 -3.36141 -2.96164 0
M  V30 814 C 75.0029 -1.76783 -3.85938 0
M  V30 815 C 72.9099 -4.07659 -4.28449 0
M  V30 816 H 71.8399 -0.394452 -0.642591 0
M  V30 817 H 74.4909 -1.47594 -1.09034 0
M  V30 818 H 72.8729 -1.37103 -3.71509 0
M  V30 819 H 74.0469 -3.92056 -2.42133 0
M  V30 820 H 72.3619 -3.45712 -2.32104 0
M  V30 821 H 74.9589 -2.27526 -4.83876 0
M  V30 822 H 75.3019 -0.731116 -4.0983 0
M  V30 823 H 75.8349 -2.22818 -3.2954 0
M  V30 824 H 72.5739 -5.11648 -4.09752 0
M  V30 825 H 72.0939 -3.5653 -4.82334 0
M  V30 826 H 73.7729 -4.141 -4.97122 0
M  V30 827 N 73.905 1.17692 -1.04816 0
M  V30 828 C 75.321 1.39863 -0.768794 0
M  V30 829 C 75.521 1.91118 0.638451 0
M  V30 830 O 74.577 2.10036 1.40146 0
M  V30 831 C 75.89 2.39274 -1.82122 0
M  V30 832 C 77.438 2.52987 -1.843 0
M  V30 833 C 77.913 3.55669 -2.88555 0
M  V30 834 N 79.404 3.63183 -2.87493 0
M  V30 835 C 80.139 4.42381 -3.64811 0
M  V30 836 N 79.635 5.25125 -4.51903 0
M  V30 837 N 81.428 4.37217 -3.53267 0
M  V30 838 H 73.579 0.82752 -1.95617 0
M  V30 839 H 75.842 0.426123 -0.846831 0
M  V30 840 H 75.548 2.08678 -2.83102 0
M  V30 841 H 75.422 3.38725 -1.65967 0
M  V30 842 H 77.809 2.82896 -0.839869 0
M  V30 843 H 77.89 1.53623 -2.04532 0
M  V30 844 H 77.534 3.26499 -3.89051 0
M  V30 845 H 77.464 4.54728 -2.65575 0
M  V30 846 H 79.955 3.04103 -2.24343 0
M  V30 847 H 80.268 5.82728 -5.07591 0
M  V30 848 H 78.613 5.24519 -4.55966 0
M  V30 849 H 81.804 3.71626 -2.84625 0
M  V30 850 H 81.977 4.98696 -4.13771 0
M  V30 851 N 75.3831 0.828654 1.34056 0
M  V30 852 C 76.6291 0.42008 1.98402 0
M  V30 853 C 76.9621 -1.01564 1.65525 0
M  V30 854 O 76.2371 -1.70834 0.929831 0
M  V30 855 C 76.5201 0.62927 3.54559 0
M  V30 856 C 76.3731 2.11152 3.97159 0
M  V30 857 C 77.6921 0.0688756 4.40046 0
M  V30 858 H 74.8111 0.154104 0.720709 0
M  V30 859 H 77.4531 1.04228 1.5886 0
M  V30 860 H 75.6031 0.0996418 3.88372 0
M  V30 861 H 77.2751 2.70522 3.73651 0
M  V30 862 H 75.5181 2.59985 3.47261 0
M  V30 863 H 76.1891 2.20868 5.05887 0
M  V30 864 H 78.6651 0.521458 4.1282 0
M  V30 865 H 77.5411 0.245006 5.48353 0
M  V30 866 H 77.8021 -1.0266 4.30015 0
M  V30 867 N 76.8612 -1.46375 0.584142 0
M  V30 868 C 78.1082 -2.02378 0.0702675 0
M  V30 869 C 78.4362 -1.45545 -1.29023 0
M  V30 870 O 77.6912 -0.610967 -1.85918 0
M  V30 871 C 77.9902 -3.57373 -0.0439342 0
M  V30 872 C 77.6562 -4.33252 1.24915 0
M  V30 873 C 76.3182 -4.53701 1.60341 0
M  V30 874 C 78.6702 -4.7681 2.1048 0
M  V30 875 C 75.9982 -5.1496 2.81128 0
M  V30 876 C 78.3502 -5.39404 3.30494 0
M  V30 877 C 77.0142 -5.5808 3.66201 0
M  V30 878 H 76.2842 -0.740554 0.0257127 0
M  V30 879 H 78.9312 -1.75727 0.761065 0
M  V30 880 H 77.2362 -3.83169 -0.817869 0
M  V30 881 H 78.9332 -3.98384 -0.457318 0
M  V30 882 H 75.5232 -4.17633 0.963364 0
M  V30 883 H 79.7072 -4.60766 1.84414 0
M  V30 884 H 74.9632 -5.27611 3.08928 0
M  V30 885 H 79.1372 -5.72114 3.97063 0
M  V30 886 H 76.7642 -6.05318 4.59885 0
M  V30 887 N 78.3393 -0.321999 -1.54275 0
M  V30 888 C 79.7553 0.0306999 -1.5957 0
M  V30 889 C 79.9553 1.50614 -1.33857 0
M  V30 890 O 79.0113 2.2619 -1.12223 0
M  V30 891 C 80.3243 -0.386122 -2.98211 0
M  V30 892 C 81.8723 -0.336647 -3.11184 0
M  V30 893 C 82.3473 -0.728607 -4.52167 0
M  V30 894 N 83.8383 -0.681952 -4.58152 0
M  V30 895 C 84.5733 -0.957449 -5.6535 0
M  V30 896 N 84.0693 -1.3 -6.80494 0
M  V30 897 N 85.8623 -0.883113 -5.55119 0
M  V30 898 H 78.0133 -1.28332 -1.69247 0
M  V30 899 H 80.2763 -0.521716 -0.791528 0
M  V30 900 H 79.9823 -1.41404 -3.22022 0
M  V30 901 H 79.8563 0.249662 -3.76373 0
M  V30 902 H 82.2433 0.682058 -2.8711 0
M  V30 903 H 82.3243 -1.00734 -2.3513 0
M  V30 904 H 81.9683 -1.74522 -4.76974 0
M  V30 905 H 81.8983 -0.0356152 -5.26588 0
M  V30 906 H 84.3893 -0.428985 -3.75457 0
M  V30 907 H 84.7023 -1.49563 -7.58189 0
M  V30 908 H 83.0473 -1.33824 -6.81994 0
M  V30 909 H 86.2383 -0.615001 -4.64042 0
M  V30 910 H 86.4113 -1.10118 -6.38575 0
M  V30 911 N 79.8174 1.5752 -0.0501392 0
M  V30 912 C 80.7804 2.1037 0.909786 0
M  V30 913 C 81.7804 1.02308 1.24056 0
M  V30 914 O 82.9704 1.28385 1.17741 0
M  V30 915 C 80.1024 2.58708 2.21998 0
M  V30 916 H 81.2954 2.96479 0.451665 0
M  V30 917 H 78.8484 1.55038 0.198248 0
M  V30 918 H 79.5834 1.75989 2.72394 0
M  V30 919 H 79.3684 3.37675 1.99295 0
M  V30 920 H 80.8584 2.99747 2.9076 0
M  V30 921 N 81.2955 -0.223234 1.56011 0
M  V30 922 C 82.5355 -0.954962 1.8072 0
M  V30 923 C 82.8995 -1.81598 0.623384 0
M  V30 924 O 84.1005 -2.58132 0.749745 0
M  V30 925 C 82.3715 -1.77313 3.10314 0
M  V30 926 S 83.9305 -2.56073 3.56332 0
M  V30 927 H 80.7485 -0.320812 0.634508 0
M  V30 928 H 83.3505 -0.220686 1.9425 0
M  V30 929 H 82.0545 -1.13071 3.94516 0
M  V30 930 H 81.5855 -2.54974 2.99586 0
M  V30 931 H 83.6005 -3.79619 3.19536 0
M  V30 932 N 82.7736 -1.49793 -0.48987 0
M  V30 933 C 84.0016 -1.63568 -1.26701 0
M  V30 934 C 84.4166 -0.311465 -1.86213 0
M  V30 935 O 83.7736 0.704416 -1.68357 0
M  V30 936 C 83.8246 -2.71284 -2.38929 0
M  V30 937 O 83.5456 -3.9857 -1.81861 0
M  V30 938 C 85.0466 -2.95864 -3.3012 0
M  V30 939 H 82.2666 -0.550342 -0.383881 0
M  V30 940 H 84.8106 -1.95898 -0.586864 0
M  V30 941 H 82.9656 -2.417 -3.02753 0
M  V30 942 H 83.3796 -4.57993 -2.55622 0
M  V30 943 H 84.8536 -3.74941 -4.05121 0
M  V30 944 H 85.3306 -2.06206 -3.87783 0
M  V30 945 H 85.9366 -3.26907 -2.72051 0
M  V30 946 N 84.2517 0.741722 -1.39055 0
M  V30 947 C 85.1617 1.88621 -1.39496 0
M  V30 948 C 86.1777 1.71557 -0.290578 0
M  V30 949 O 87.3537 1.94275 -0.530954 0
M  V30 950 C 84.4187 3.24134 -1.23037 0
M  V30 951 C 83.4797 3.5364 -2.43387 0
M  V30 952 C 82.7127 4.82687 -2.27703 0
M  V30 953 O 82.9357 5.55922 -1.27696 0
M  V30 954 O 81.8697 5.1194 -3.16545 0
M  V30 955 H 85.6957 1.91203 -2.35956 0
M  V30 956 H 83.2807 0.888625 -1.20099 0
M  V30 957 H 85.1627 4.0513 -1.15964 0
M  V30 958 H 83.8377 3.22337 -0.296691 0
M  V30 959 H 82.7447 2.72758 -2.56035 0
M  V30 960 H 84.0777 3.60209 -3.35425 0
M  V30 961 N 85.7298 1.2412 0.971189 0
M  V30 962 C 86.6598 1.05508 2.08304 0
M  V30 963 C 87.6408 -0.0308864 1.70072 0
M  V30 964 O 88.8258 0.135521 1.93727 0
M  V30 965 C 85.9558 0.655365 3.4106 0
M  V30 966 C 84.9098 1.68971 3.93234 0
M  V30 967 C 84.2358 1.14516 5.22293 0
M  V30 968 C 85.5358 3.08487 4.21465 0
M  V30 969 H 87.2298 1.98507 2.24132 0
M  V30 970 H 84.7758 0.955821 1.07704 0
M  V30 971 H 86.7288 0.51217 4.18276 0
M  V30 972 H 85.4528 -0.31032 3.25122 0
M  V30 973 H 84.1118 1.82106 3.18171 0
M  V30 974 H 83.7598 0.170189 5.02712 0
M  V30 975 H 83.4598 1.83635 5.58168 0
M  V30 976 H 84.9838 1.01401 6.02121 0
M  V30 977 H 86.3978 2.98601 4.89398 0
M  V30 978 H 84.7948 3.74926 4.68562 0
M  V30 979 H 85.8648 3.56787 3.28376 0
M  V30 980 N 87.2079 -1.17134 1.05439 0
M  V30 981 C 88.4559 -1.87085 0.764429 0
M  V30 982 C 88.7769 -1.81584 -0.710787 0
M  V30 983 O 88.0469 -1.24349 -1.51374 0
M  V30 984 H 86.6269 -0.692627 0.279779 0
M  V30 985 H 89.2889 -1.42087 1.33406 0
M  V30 986 H 88.3849 -2.92759 1.0816 0
M  V30 987 N 88.686 -0.835752 -1.33615 0
M  V30 988 C 89.935 -0.426289 -1.97144 0
M  V30 989 C 90.248 1.01912 -1.66953 0
M  V30 990 O 91.454 1.53311 -2.24072 0
M  V30 991 C 89.91 -0.711321 -3.52801 0
M  V30 992 C 89.518 -2.1712 -3.91871 0
M  V30 993 C 91.262 -0.368654 -4.22896 0
M  V30 994 C 89.169 -2.40044 -5.40493 0
M  V30 995 H 88.099 -0.15567 -0.737755 0
M  V30 996 H 90.75 -1.0239 -1.52278 0
M  V30 997 H 89.132 -0.0433766 -3.95976 0
M  V30 998 H 90.306 -2.87936 -3.59763 0
M  V30 999 H 88.621 -2.47654 -3.34749 0
M  V30 1000 H 91.218 -0.517601 -5.32189 0
M  V30 1001 H 91.561 0.688078 -4.10574 0
M  V30 1002 H 92.094 -0.991702 -3.8524 0
M  V30 1003 H 88.833 -3.44271 -5.57815 0
M  V30 1004 H 88.353 -1.73785 -5.74072 0
M  V30 1005 H 90.032 -2.23042 -6.0734 0
M  V30 1006 N 90.1641 1.46063 -0.591896 0
M  V30 1007 C 91.5801 1.57561 -0.254288 0
M  V30 1008 C 91.7801 1.58565 1.24336 0
M  V30 1009 O 90.8361 1.50753 2.02558 0
M  V30 1010 C 92.1491 2.86549 -0.911611 0
M  V30 1011 C 93.6971 3.00197 -0.886059 0
M  V30 1012 C 94.1721 4.31933 -1.5231 0
M  V30 1013 N 95.6631 4.38654 -1.48786 0
M  V30 1014 C 96.3981 5.39222 -1.95006 0
M  V30 1015 N 95.8941 6.46414 -2.49241 0
M  V30 1016 N 97.6871 5.3048 -1.85868 0
M  V30 1017 H 89.8381 1.43655 -1.56451 0
M  V30 1018 H 92.1011 0.68583 -0.654478 0
M  V30 1019 H 91.8071 2.91651 -1.96551 0
M  V30 1020 H 91.6811 3.74794 -0.425368 0
M  V30 1021 H 94.0681 2.9467 0.159246 0
M  V30 1022 H 94.1491 2.13403 -1.41041 0
M  V30 1023 H 93.7931 4.38217 -2.56765 0
M  V30 1024 H 93.7231 5.17516 -0.973891 0
M  V30 1025 H 96.2141 3.61793 -1.09151 0
M  V30 1026 H 96.5271 7.19376 -2.82344 0
M  V30 1027 H 94.8721 6.47208 -2.53272 0
M  V30 1028 H 98.0631 4.45643 -1.43248 0
M  V30 1029 H 98.2361 6.08711 -2.22204 0
M  V30 1030 N 91.6422 0.330177 1.54103 0
M  V30 1031 C 92.8702 -0.272179 2.05102 0
M  V30 1032 C 93.2852 -1.45267 1.20595 0
M  V30 1033 O 92.6422 -1.8094 0.238144 0
M  V30 1034 C 92.6932 -0.70023 3.54653 0
M  V30 1035 O 92.4142 0.433301 4.35952 0
M  V30 1036 C 93.9152 -1.3647 4.21771 0
M  V30 1037 H 91.1352 -0.0549159 0.668749 0
M  V30 1038 H 93.6792 0.478285 1.98828 0
M  V30 1039 H 91.8342 -1.40066 3.61193 0
M  V30 1040 H 92.2482 0.0947539 5.24414 0
M  V30 1041 H 93.7222 -1.61509 5.27843 0
M  V30 1042 H 94.1992 -2.31409 3.73292 0
M  V30 1043 H 94.8052 -0.706675 4.19388 0
M  V30 1044 N 93.1203 -1.57491 0.0584922 0
M  V30 1045 C 94.3663 -1.93264 -0.614558 0
M  V30 1046 C 94.6993 -0.937717 -1.7006 0
M  V30 1047 O 93.9743 0.0351652 -1.94468 0
M  V30 1048 C 94.2573 -3.3938 -1.20386 0
M  V30 1049 C 94.1103 -4.49625 -0.125375 0
M  V30 1050 C 95.4293 -3.86039 -2.11334 0
M  V30 1051 H 92.5483 -0.702791 -0.221933 0
M  V30 1052 H 95.1903 -1.8961 0.12175 0
M  V30 1053 H 93.3403 -3.42626 -1.83139 0
M  V30 1054 H 95.0123 -4.58506 0.506971 0
M  V30 1055 H 93.2553 -4.30354 0.545672 0
M  V30 1056 H 93.9263 -5.48967 -0.577861 0
M  V30 1057 H 96.4023 -3.84716 -1.58534 0
M  V30 1058 H 95.2783 -4.88914 -2.49507 0
M  V30 1059 H 95.5393 -3.23215 -3.01636 0
M  V30 1060 N 94.5984 0.214957 -1.56127 0
M  V30 1061 C 95.5614 1.24997 -1.92116 0
M  V30 1062 C 96.5614 1.39467 -0.800344 0
M  V30 1063 O 97.7514 1.37619 -1.06802 0
M  V30 1064 C 94.8834 2.62271 -2.17777 0
M  V30 1065 H 96.0764 0.942875 -2.84693 0
M  V30 1066 H 93.6294 0.455654 -1.49511 0
M  V30 1067 H 94.3644 2.98068 -1.27773 0
M  V30 1068 H 94.1494 2.53143 -2.99434 0
M  V30 1069 H 95.6394 3.36946 -2.46693 0
M  V30 1070 N 96.0765 1.50051 0.48192 0
M  V30 1071 C 97.3255 1.59741 1.23149 0
M  V30 1072 C 97.6385 0.298163 1.93314 0
M  V30 1073 O 98.8445 0.273835 2.70116 0
M  V30 1074 C 97.3005 2.81926 2.23708 0
M  V30 1075 C 96.9085 4.18685 1.59396 0
M  V30 1076 C 98.6525 3.00956 2.99375 0
M  V30 1077 C 96.5595 5.3207 2.58178 0
M  V30 1078 H 95.4895 0.594838 0.46334 0
M  V30 1079 H 98.1405 1.76467 0.503169 0
M  V30 1080 H 96.5225 2.58736 2.99786 0
M  V30 1081 H 97.6965 4.52088 0.891811 0
M  V30 1082 H 96.0115 4.05171 0.960503 0
M  V30 1083 H 98.6085 3.82836 3.73283 0
M  V30 1084 H 98.9515 2.12258 3.58123 0
M  V30 1085 H 99.4845 3.24277 2.30411 0
M  V30 1086 H 96.2235 6.22888 2.04184 0
M  V30 1087 H 95.7435 5.03098 3.26577 0
M  V30 1088 H 97.4225 5.62196 3.20225 0
M  V30 1089 N 97.5546 -0.734337 1.39446 0
M  V30 1090 C 98.7846 -1.52137 1.39778 0
M  V30 1091 C 99.1926 -1.89198 -0.00929312 0
M  V30 1092 O 98.5356 -1.54666 -0.991168 0
M  V30 1093 C 98.5976 -2.83762 2.20724 0
M  V30 1094 C 98.2616 -2.69131 3.69347 0
M  V30 1095 C 99.2586 -2.37635 4.62413 0
M  V30 1096 C 96.9436 -2.85982 4.1294 0
M  V30 1097 C 98.9376 -2.23172 5.97054 0
M  V30 1098 C 96.6246 -2.71137 5.47657 0
M  V30 1099 C 97.6226 -2.39777 6.39528 0
M  V30 1100 O 97.3106 -2.25026 7.71763 0
M  V30 1101 H 97.0426 -0.476717 0.479288 0
M  V30 1102 H 99.5966 -0.915012 1.83893 0
M  V30 1103 H 97.8266 -3.4666 1.71359 0
M  V30 1104 H 99.5156 -3.45383 2.13226 0
M  V30 1105 H 100.282 -2.24267 4.30034 0
M  V30 1106 H 96.1606 -3.09383 3.41765 0
M  V30 1107 H 99.7046 -1.98617 6.68728 0
M  V30 1108 H 95.6016 -2.84083 5.79626 0
M  V30 1109 H 96.3696 -2.40091 7.82495 0
M  V30 1110 N 99.0327 -1.24633 -0.964593 0
M  V30 1111 C 100.258 -1.11596 -1.74818 0
M  V30 1112 C 100.683 0.32723 -1.85232 0
M  V30 1113 O 100.041 1.23695 -1.32549 0
M  V30 1114 C 100.089 -1.76397 -3.1451 0
M  V30 1115 O 99.1927 -1.03685 -3.99153 0
M  V30 1116 H 98.5337 -0.390196 -0.537255 0
M  V30 1117 H 101.064 -1.65002 -1.20977 0
M  V30 1118 H 101.074 -1.8228 -3.65018 0
M  V30 1119 H 99.7487 -2.81401 -3.06246 0
M  V30 1120 H 98.3257 -1.05611 -3.57632 0
M  V30 1121 N 100.511 1.16574 -1.06058 0
M  V30 1122 C 101.421 2.2452 -0.680282 0
M  V30 1123 C 102.437 1.71348 0.302604 0
M  V30 1124 O 103.613 2.00822 0.152513 0
M  V30 1125 C 100.678 3.46629 -0.0700315 0
M  V30 1126 C 99.7388 4.14849 -1.10448 0
M  V30 1127 C 98.9718 5.31129 -0.523256 0
M  V30 1128 O 99.1948 5.66514 0.664709 0
M  V30 1129 O 98.1288 5.88526 -1.26179 0
M  V30 1130 H 101.955 2.59355 -1.58015 0
M  V30 1131 H 99.5398 1.24043 -0.832694 0
M  V30 1132 H 101.422 4.20543 0.268667 0
M  V30 1133 H 100.097 3.13573 0.803353 0
M  V30 1134 H 99.0038 3.42916 -1.49532 0
M  V30 1135 H 100.337 4.51954 -1.94931 0
M  V30 1136 N 101.989 0.842826 1.3317 0
M  V30 1137 C 102.921 0.236245 2.27979 0
M  V30 1138 C 103.934 -0.585282 1.51915 0
M  V30 1139 O 105.123 -0.411705 1.73687 0
M  V30 1140 C 102.223 -0.685717 3.3189 0
M  V30 1141 C 101.396 0.0973448 4.37292 0
M  V30 1142 C 100.455 -0.748565 5.20848 0
M  V30 1143 O 99.4809 -0.186339 5.68895 0
M  V30 1144 N 100.683 -2.06527 5.42519 0
M  V30 1145 H 103.448 1.05088 2.80672 0
M  V30 1146 H 101.009 0.701667 1.45905 0
M  V30 1147 H 103.001 -1.25669 3.84694 0
M  V30 1148 H 101.571 -1.40105 2.79445 0
M  V30 1149 H 100.791 0.849706 3.84933 0
M  V30 1150 H 102.079 0.635643 5.04814 0
M  V30 1151 H 101.477 -2.54554 5.05192 0
M  V30 1152 H 100.034 -2.58464 5.98364 0
M  V30 1153 N 103.467 -1.45747 0.599634 0
M  V30 1154 C 104.744 -1.95585 0.0240846 0
M  V30 1155 C 105.124 -1.54217 -1.44154 0
M  V30 1156 O 104.472 -0.800903 -2.14004 0
M  V30 1157 C 104.682 -3.48344 0.21385 0
M  V30 1158 C 106.03 -4.24504 0.0904902 0
M  V30 1159 O 107.054 -3.55911 0.143558 0
M  V30 1160 O 105.913 -5.46491 -0.0310766 0
M  V30 1161 H 103.007 -0.82602 -0.0402478 0
M  V30 1162 H 105.553 -1.55951 0.669139 0
M  V30 1163 H 104.325 -3.71397 1.23206 0
M  V30 1164 H 103.948 -3.9485 -0.466842 0
M  V30 1165 N 104.945 -0.338344 -1.53925 0
M  V30 1166 C 106.173 0.261298 -2.05243 0
M  V30 1167 C 106.588 1.44625 -1.21363 0
M  V30 1168 O 105.945 1.80811 -0.247736 0
M  V30 1169 C 105.996 0.681412 -3.5502 0
M  V30 1170 O 105.717 -0.456414 -4.35716 0
M  V30 1171 C 107.218 1.34232 -4.22489 0
M  V30 1172 H 104.438 0.0513685 -0.669031 0
M  V30 1173 H 106.982 -0.488822 -1.98572 0
M  V30 1174 H 105.137 1.38148 -3.61931 0
M  V30 1175 H 105.551 -0.122564 -5.24357 0
M  V30 1176 H 107.025 1.58708 -5.28693 0
M  V30 1177 H 107.502 2.29426 -3.74514 0
M  V30 1178 H 108.108 0.684424 -4.19757 0
M  V30 1179 N 106.423 1.57458 -0.0668435 0
M  V30 1180 C 107.671 1.92919 0.602214 0
M  V30 1181 C 107.992 0.947215 1.70449 0
M  V30 1182 O 107.262 -0.00544117 1.95899 0
M  V30 1183 H 105.842 0.71217 0.22544 0
M  V30 1184 H 108.504 1.94508 -0.123535 0
M  V30 1185 H 107.6 2.94589 1.03073 0
M  V30 1186 N 107.901 -0.206675 1.56239 0
M  V30 1187 C 108.833 -1.27997 1.9013 0
M  V30 1188 C 109.846 -1.42299 0.790883 0
M  V30 1189 O 111.035 -1.42931 1.06925 0
M  V30 1190 C 108.135 -2.65368 2.10792 0
M  V30 1191 C 107.308 -2.72824 3.41886 0
M  V30 1192 C 106.367 -3.9131 3.51799 0
M  V30 1193 O 105.393 -3.78953 4.24716 0
M  V30 1194 N 106.595 -5.06265 2.84035 0
M  V30 1195 H 109.36 -0.992444 2.82791 0
M  V30 1196 H 106.921 -0.396652 1.56966 0
M  V30 1197 H 108.913 -3.43039 2.14724 0
M  V30 1198 H 107.483 -2.86657 1.24685 0
M  V30 1199 H 106.703 -1.81515 3.49923 0
M  V30 1200 H 107.991 -2.74786 4.28217 0
M  V30 1201 H 107.389 -5.19203 2.246 0
M  V30 1202 H 105.946 -5.81925 2.93609 0
M  V30 1203 N 109.379 -1.50304 -0.473955 0
M  V30 1204 C 110.312 -1.63595 -1.59097 0
M  V30 1205 C 111.29 -0.484142 -1.55225 0
M  V30 1206 O 112.474 -0.703271 -1.7489 0
M  V30 1207 C 109.601 -1.61589 -2.97669 0
M  V30 1208 C 108.647 -2.82295 -3.19705 0
M  V30 1209 S 109.48 -4.43635 -2.99913 0
M  V30 1210 C 110.636 -4.44317 -4.40832 0
M  V30 1211 H 110.869 -2.58082 -1.47583 0
M  V30 1212 H 108.402 -1.39531 -0.661087 0
M  V30 1213 H 110.36 -1.61116 -3.7756 0
M  V30 1214 H 109.021 -0.683421 -3.06575 0
M  V30 1215 H 108.214 -2.77188 -4.20931 0
M  V30 1216 H 107.816 -2.8032 -2.47582 0
M  V30 1217 H 110.108 -4.17703 -5.33414 0
M  V30 1218 H 111.051 -5.45911 -4.50984 0
M  V30 1219 H 111.459 -3.74059 -4.22777 0
M  V30 1220 N 110.857 0.726932 -1.39834 0
M  V30 1221 C 111.807 1.83232 -1.35683 0
M  V30 1222 C 112.791 1.59155 -0.236295 0
M  V30 1223 O 113.983 1.70522 -0.474488 0
M  V30 1224 C 111.112 3.21246 -1.21062 0
M  V30 1225 C 110.198 3.51125 -2.37849 0
M  V30 1226 N 110.589 3.51889 -3.63329 0
M  V30 1227 C 108.887 3.81527 -2.30982 0
M  V30 1228 C 109.588 3.79791 -4.40606 0
M  V30 1229 N 108.564 3.97971 -3.70297 0
M  V30 1230 H 112.366 1.8214 -2.30656 0
M  V30 1231 H 109.88 0.925545 -1.33444 0
M  V30 1232 H 111.877 4.00387 -1.16171 0
M  V30 1233 H 110.537 3.23572 -0.270458 0
M  V30 1234 H 111.548 3.33008 -3.96643 0
M  V30 1235 H 108.225 3.91411 -1.45272 0
M  V30 1236 H 109.615 3.86783 -5.49408 0
M  V30 1237 N 112.336 1.25143 0.95797 0
M  V30 1238 C 113.752 1.01892 1.22842 0
M  V30 1239 C 113.952 -0.266311 1.99732 0
M  V30 1240 O 113.008 -0.979913 2.3271 0
M  V30 1241 C 114.321 2.24004 2.00606 0
M  V30 1242 C 115.869 2.28731 2.13662 0
M  V30 1243 C 116.344 3.5049 2.94823 0
M  V30 1244 N 117.835 3.50866 3.02403 0
M  V30 1245 C 118.57 4.4174 3.65586 0
M  V30 1246 N 118.066 5.42882 4.30408 0
M  V30 1247 N 119.859 4.29429 3.62694 0
M  V30 1248 H 112.01 2.07718 0.443493 0
M  V30 1249 H 114.273 0.912031 0.258657 0
M  V30 1250 H 113.979 3.17395 1.51503 0
M  V30 1251 H 113.853 2.26907 3.01319 0
M  V30 1252 H 116.24 1.35865 2.61963 0
M  V30 1253 H 116.321 2.29848 1.12265 0
M  V30 1254 H 115.965 4.43676 2.47213 0
M  V30 1255 H 115.895 3.46617 3.96439 0
M  V30 1256 H 118.386 2.777 2.56302 0
M  V30 1257 H 118.699 6.0844 4.76467 0
M  V30 1258 H 117.044 5.46758 4.29047 0
M  V30 1259 H 120.235 3.49643 3.11236 0
M  V30 1260 H 120.408 5.00448 4.1165 0
M  V30 1261 N 113.814 -1.1601 1.06675 0
M  V30 1262 C 114.746 -2.20115 0.638921 0
M  V30 1263 C 115.759 -1.59916 -0.305057 0
M  V30 1264 O 116.948 -1.78245 -0.0954446 0
M  V30 1265 C 114.048 -3.38798 -0.0830083 0
M  V30 1266 C 113.221 -4.2855 0.875426 0
M  V30 1267 C 112.28 -5.25849 0.192042 0
M  V30 1268 O 111.306 -5.63102 0.830921 0
M  V30 1269 N 112.508 -5.70648 -1.06493 0
M  V30 1270 H 115.273 -2.57439 1.53444 0
M  V30 1271 H 112.834 -1.31057 0.950557 0
M  V30 1272 H 114.826 -4.00936 -0.550685 0
M  V30 1273 H 113.396 -2.99947 -0.880386 0
M  V30 1274 H 112.616 -3.63617 1.52238 0
M  V30 1275 H 113.904 -4.85393 1.52548 0
M  V30 1276 H 113.302 -5.42482 -1.60405 0
M  V30 1277 H 111.859 -6.34859 -1.47641 0
M  V30 1278 N 115.292 -0.849877 -1.32721 0
M  V30 1279 C 116.239 -0.289033 -2.28983 0
M  V30 1280 C 117.209 0.601324 -1.54833 0
M  V30 1281 O 118.394 0.537253 -1.8308 0
M  V30 1282 C 115.534 0.520623 -3.4115 0
M  V30 1283 C 114.647 -0.394989 -4.3019 0
M  V30 1284 C 113.782 0.426834 -5.29482 0
M  V30 1285 C 112.821 -0.486476 -6.10164 0
M  V30 1286 N 111.958 0.297879 -7.01468 0
M  V30 1287 H 116.798 -1.11519 -2.76347 0
M  V30 1288 H 114.335 -0.56138 -1.35967 0
M  V30 1289 H 116.293 1.00563 -4.04899 0
M  V30 1290 H 114.923 1.31165 -2.9495 0
M  V30 1291 H 113.975 -0.99836 -3.67065 0
M  V30 1292 H 115.287 -1.09612 -4.86607 0
M  V30 1293 H 114.441 0.975205 -5.98811 0
M  V30 1294 H 113.18 1.16136 -4.73671 0
M  V30 1295 H 112.185 -1.04677 -5.39743 0
M  V30 1296 H 113.41 -1.21953 -6.6806 0
M  V30 1297 H 111.356 1.01558 -6.48091 0
M  V30 1298 H 111.273 -0.344318 -7.55216 0
M  V30 1299 H 112.541 0.828131 -7.75089 0
M  V30 1300 N 116.77 1.45427 -0.607355 0
M  V30 1301 C 117.733 2.28974 0.101693 0
M  V30 1302 C 118.733 1.39754 0.795329 0
M  V30 1303 O 119.923 1.61878 0.643527 0
M  V30 1304 C 117.055 3.20768 1.15414 0
M  V30 1305 H 118.248 2.93147 -0.632844 0
M  V30 1306 H 115.801 1.51945 -0.366391 0
M  V30 1307 H 116.536 2.61395 1.91945 0
M  V30 1308 H 116.321 3.86489 0.66098 0
M  V30 1309 H 117.811 3.83589 1.65073 0
M  V30 1310 N 118.248 0.346503 1.53744 0
M  V30 1311 C 119.525 -0.304532 1.93215 0
M  V30 1312 C 119.905 -1.67993 1.27834 0
M  V30 1313 O 119.253 -2.24411 0.430352 0
M  V30 1314 C 119.463 -0.373852 3.46992 0
M  V30 1315 C 120.811 -0.62329 4.2 0
M  V30 1316 O 121.835 -0.455847 3.53271 0
M  V30 1317 O 120.694 -0.947879 5.38217 0
M  V30 1318 H 117.788 -0.178318 0.807547 0
M  V30 1319 H 120.334 0.397895 1.64969 0
M  V30 1320 H 119.106 0.591224 3.86808 0
M  V30 1321 H 118.729 -1.12294 3.81413 0
M  V30 1322 N 119.726 -1.57421 0.075193 0
M  V30 1323 C 120.636 -2.1642 -0.905511 0
M  V30 1324 C 121.652 -1.12828 -1.32461 0
M  V30 1325 O 122.828 -1.45109 -1.39661 0
M  V30 1326 C 119.893 -2.71693 -2.15369 0
M  V30 1327 C 118.954 -3.90171 -1.79068 0
M  V30 1328 C 118.187 -4.42798 -2.97936 0
M  V30 1329 O 118.41 -3.94416 -4.12058 0
M  V30 1330 O 117.344 -5.34085 -2.77555 0
M  V30 1331 H 121.17 -3.00588 -0.433626 0
M  V30 1332 H 118.755 -1.48664 -0.148067 0
M  V30 1333 H 120.637 -3.07104 -2.88557 0
M  V30 1334 H 119.312 -1.90582 -2.61649 0
M  V30 1335 H 118.219 -3.59606 -1.03122 0
M  V30 1336 H 119.552 -4.72584 -1.37569 0
M  V30 1337 N 121.204 0.198386 -1.56346 0
M  V30 1338 C 122.167 1.22952 -1.93431 0
M  V30 1339 C 123.167 1.38611 -0.815092 0
M  V30 1340 O 124.357 1.36479 -1.08255 0
M  V30 1341 C 121.489 2.59946 -2.20546 0
M  V30 1342 H 122.682 0.912626 -2.85677 0
M  V30 1343 H 120.235 0.43977 -1.49986 0
M  V30 1344 H 120.97 2.96696 -1.30927 0
M  V30 1345 H 120.755 2.49953 -3.02102 0
M  V30 1346 H 122.245 3.3431 -2.50253 0
M  V30 1347 N 122.682 1.50554 0.465978 0
M  V30 1348 C 123.912 1.65323 1.23903 0
M  V30 1349 C 124.32 0.338051 1.86155 0
M  V30 1350 O 123.663 -0.690518 1.70228 0
M  V30 1351 C 123.725 2.69048 2.3844 0
M  V30 1352 C 123.389 4.12462 1.96784 0
M  V30 1353 C 124.386 4.98168 1.48745 0
M  V30 1354 C 122.071 4.58407 2.05349 0
M  V30 1355 C 124.065 6.27868 1.0982 0
M  V30 1356 C 121.752 5.88112 1.66035 0
M  V30 1357 C 122.75 6.72668 1.18349 0
M  V30 1358 O 122.438 7.99951 0.795825 0
M  V30 1359 H 122.17 0.558629 0.38067 0
M  V30 1360 H 124.724 1.97561 0.562022 0
M  V30 1361 H 122.954 2.32062 3.09328 0
M  V30 1362 H 124.643 2.72985 3.0039 0
M  V30 1363 H 125.409 4.63885 1.41546 0
M  V30 1364 H 121.288 3.92735 2.41414 0
M  V30 1365 H 124.832 6.93819 0.725293 0
M  V30 1366 H 120.729 6.21914 1.72895 0
M  V30 1367 H 121.497 8.13265 0.924222 0
M  V30 1368 N 124.16 -0.719506 1.40217 0
M  V30 1369 C 125.09 -1.8465 1.42922 0
M  V30 1370 C 126.071 -1.67599 0.29062 0
M  V30 1371 O 127.256 -1.87688 0.498677 0
M  V30 1372 C 124.386 -3.22565 1.28722 0
M  V30 1373 C 123.34 -3.54281 2.40144 0
M  V30 1374 C 122.666 -4.91298 2.11023 0
M  V30 1375 C 123.966 -3.55676 3.82481 0
M  V30 1376 H 125.66 -1.82644 2.37237 0
M  V30 1377 H 123.206 -0.877305 1.1419 0
M  V30 1378 H 125.159 -4.01095 1.29232 0
M  V30 1379 H 123.883 -3.25137 0.308811 0
M  V30 1380 H 122.542 -2.78088 2.38877 0
M  V30 1381 H 122.19 -4.90468 1.11582 0
M  V30 1382 H 121.89 -5.13485 2.8567 0
M  V30 1383 H 123.414 -5.72166 2.13209 0
M  V30 1384 H 124.828 -4.24254 3.85592 0
M  V30 1385 H 123.225 -3.89388 4.56614 0
M  V30 1386 H 124.295 -2.55144 4.12346 0
M  V30 1387 N 125.638 -1.25649 -0.95132 0
M  V30 1388 C 126.887 -1.09988 -1.69073 0
M  V30 1389 C 127.2 0.358355 -1.92289 0
M  V30 1390 O 128.406 0.635466 -2.63958 0
M  V30 1391 C 126.862 -1.92012 -3.044 0
M  V30 1392 C 126.47 -3.42347 -2.88968 0
M  V30 1393 C 128.214 -1.8493 -3.82101 0
M  V30 1394 C 126.121 -4.16655 -4.19705 0
M  V30 1395 H 125.051 -0.407993 -0.63408 0
M  V30 1396 H 127.702 -1.49873 -1.05879 0
M  V30 1397 H 126.084 -1.44952 -3.68517 0
M  V30 1398 H 127.258 -3.97104 -2.33762 0
M  V30 1399 H 125.573 -3.50557 -2.24719 0
M  V30 1400 H 128.17 -2.37739 -4.78941 0
M  V30 1401 H 128.513 -0.817883 -4.08187 0
M  V30 1402 H 129.046 -2.29758 -3.2474 0
M  V30 1403 H 125.785 -5.20224 -3.98807 0
M  V30 1404 H 125.305 -3.66681 -4.74663 0
M  V30 1405 H 126.984 -4.24551 -4.88227 0
M  V30 1406 N 127.117 1.15442 -1.07289 0
M  V30 1407 C 128.365 1.85845 -0.794096 0
M  V30 1408 C 128.686 1.82692 0.681809 0
M  V30 1409 O 127.956 1.26741 1.49377 0
M  V30 1410 H 126.536 0.688089 -0.290763 0
M  V30 1411 H 129.198 1.39947 -1.3565 0
M  V30 1412 H 128.294 2.91001 -1.12804 0
M  V30 1413 N 128.595 0.856903 1.32268 0
M  V30 1414 C 130.011 0.547061 1.49931 0
M  V30 1415 C 130.211 -0.921781 1.7918 0
M  V30 1416 O 129.267 -1.70469 1.8627 0
M  V30 1417 C 130.58 1.43599 2.64196 0
M  V30 1418 C 132.128 1.43665 2.78081 0
M  V30 1419 C 132.603 2.31085 3.95428 0
M  V30 1420 N 134.094 2.28893 4.02694 0
M  V30 1421 C 134.829 2.93262 4.92732 0
M  V30 1422 N 134.325 3.66751 5.87763 0
M  V30 1423 N 136.118 2.82638 4.85873 0
M  V30 1424 H 128.269 1.8075 1.11549 0
M  V30 1425 H 130.532 0.772144 0.549997 0
M  V30 1426 H 130.238 2.48058 2.49319 0
M  V30 1427 H 130.112 1.12502 3.60032 0
M  V30 1428 H 132.499 0.399701 2.92381 0
M  V30 1429 H 132.58 1.7878 1.82952 0
M  V30 1430 H 132.224 3.34849 3.81888 0
M  V30 1431 H 132.154 1.93302 4.89839 0
M  V30 1432 H 134.645 1.75466 3.34694 0
M  V30 1433 H 134.958 4.13027 6.53168 0
M  V30 1434 H 133.303 3.70859 5.87783 0
M  V30 1435 H 136.494 2.24774 4.10602 0
M  V30 1436 H 136.667 3.33084 5.55841 0
M  V30 1437 N 130.073 -1.45103 0.615059 0
M  V30 1438 C 131.321 -2.01784 0.112955 0
M  V30 1439 C 131.642 -1.48504 -1.26378 0
M  V30 1440 O 130.912 -0.682245 -1.83636 0
M  V30 1441 H 129.492 -0.745993 0.0387668 0
M  V30 1442 H 132.154 -1.77808 0.798141 0
M  V30 1443 H 131.25 -3.12025 0.0684069 0
M  V30 1444 N 131.551 -0.354651 -1.53558 0
M  V30 1445 C 132.481 0.489091 -2.2832 0
M  V30 1446 C 133.462 1.09324 -1.30316 0
M  V30 1447 O 134.647 1.11255 -1.59173 0
M  V30 1448 C 131.777 1.63456 -3.0643 0
M  V30 1449 C 130.731 1.1582 -4.12031 0
M  V30 1450 C 130.057 2.39305 -4.7816 0
M  V30 1451 C 131.357 0.250731 -5.21698 0
M  V30 1452 H 133.051 -0.134614 -2.99097 0
M  V30 1453 H 130.597 -0.0661826 -1.43848 0
M  V30 1454 H 132.55 2.23136 -3.57475 0
M  V30 1455 H 131.274 2.28533 -2.33325 0
M  V30 1456 H 129.933 0.584146 -3.61916 0
M  V30 1457 H 129.581 3.02814 -4.01637 0
M  V30 1458 H 129.281 2.08109 -5.49513 0
M  V30 1459 H 130.805 2.99691 -5.31994 0
M  V30 1460 H 132.219 0.754695 -5.68311 0
M  V30 1461 H 130.616 0.0301468 -6.00092 0
M  V30 1462 H 131.686 -0.710125 -4.79672 0
M  V30 1463 N 133.029 1.57378 -0.0835403 0
M  V30 1464 C 133.992 2.12252 0.864959 0
M  V30 1465 C 134.992 1.04916 1.21858 0
M  V30 1466 O 136.182 1.30853 1.14991 0
M  V30 1467 C 133.314 2.63358 2.16461 0
M  V30 1468 H 134.507 2.97371 0.388676 0
M  V30 1469 H 132.06 1.55423 0.165317 0
M  V30 1470 H 132.795 1.81727 2.686 0
M  V30 1471 H 132.58 3.41826 1.92087 0
M  V30 1472 H 134.07 3.05847 2.84337 0
M  V30 1473 N 134.507 -0.190092 1.56449 0
M  V30 1474 C 135.918 -0.754312 1.70784 0
M  V30 1475 C 136.269 -1.83631 0.690951 0
M  V30 1476 O 135.394 -2.15868 -0.151604 0
M  V30 1477 C 135.989 -1.37503 3.09642 0
M  V30 1478 C 134.548 -1.88628 3.25725 0
M  V30 1479 C 133.695 -0.758098 2.66736 0
M  V30 1480 H 136.646 0.0350524 1.58661 0
M  V30 1481 H 136.667 -2.2445 3.0725 0
M  V30 1482 H 136.179 -0.587302 3.83631 0
M  V30 1483 H 134.28 -2.70103 2.56661 0
M  V30 1484 H 134.393 -2.04462 4.3328 0
M  V30 1485 H 132.757 -1.17369 2.26046 0
M  V30 1486 H 133.54 0.0174705 3.43296 0
M  V30 1487 N 135.985 -1.50799 -0.457987 0
M  V30 1488 C 137.231 -1.62683 -1.21088 0
M  V30 1489 C 137.564 -0.332268 -1.91336 0
M  V30 1490 O 136.839 0.667043 -1.82704 0
M  V30 1491 C 137.122 -2.81615 -2.24422 0
M  V30 1492 C 136.975 -4.20989 -1.58392 0
M  V30 1493 C 138.294 -2.96085 -3.2561 0
M  V30 1494 H 135.413 -0.592087 -0.438864 0
M  V30 1495 H 138.055 -1.83225 -0.50286 0
M  V30 1496 H 136.205 -2.64231 -2.84806 0
M  V30 1497 H 137.877 -4.49994 -1.01504 0
M  V30 1498 H 136.12 -4.24641 -0.886704 0
M  V30 1499 H 136.791 -5.0016 -2.33547 0
M  V30 1500 H 139.267 -3.12042 -2.75262 0
M  V30 1501 H 138.143 -3.80902 -3.95228 0
M  V30 1502 H 138.404 -2.0726 -3.90507 0
M  V30 1503 N 137.463 0.71206 -1.40597 0
M  V30 1504 C 138.395 1.83704 -1.37061 0
M  V30 1505 C 139.408 1.60453 -0.275426 0
M  V30 1506 O 140.597 1.70262 -0.53602 0
M  V30 1507 C 137.697 3.20172 -1.11099 0
M  V30 1508 C 136.87 3.7059 -2.3234 0
M  V30 1509 C 135.929 4.85681 -2.02485 0
M  V30 1510 O 134.955 4.9815 -2.75382 0
M  V30 1511 N 136.157 5.71735 -1.00497 0
M  V30 1512 H 138.922 1.87235 -2.34016 0
M  V30 1513 H 136.483 0.893739 -1.34996 0
M  V30 1514 H 138.475 3.94768 -0.891064 0
M  V30 1515 H 137.045 3.11767 -0.227989 0
M  V30 1516 H 136.265 2.87085 -2.7014 0
M  V30 1517 H 137.553 4.01011 -3.13157 0
M  V30 1518 H 136.951 5.64275 -0.401298 0
M  V30 1519 H 135.508 6.463 -0.844942 0
M  V30 1520 N 138.941 1.26152 0.944643 0
M  V30 1521 C 139.904 1.07474 2.0244 0
M  V30 1522 C 140.904 0.0242064 1.60782 0
M  V30 1523 O 142.094 0.267302 1.72137 0
M  V30 1524 C 139.226 0.633956 3.34953 0
M  V30 1525 H 140.419 2.03336 2.20442 0
M  V30 1526 H 137.972 1.087 1.12312 0
M  V30 1527 H 138.707 -0.326811 3.22649 0
M  V30 1528 H 138.492 1.39247 3.66542 0
M  V30 1529 H 139.982 0.52501 4.14287 0
M  V30 1530 N 140.419 -1.14872 1.07899 0
M  V30 1531 C 141.649 -1.89386 0.825631 0
M  V30 1532 C 142.057 -1.78565 -0.625406 0
M  V30 1533 O 141.4 -1.13918 -1.44113 0
M  V30 1534 C 141.462 -3.40206 1.16191 0
M  V30 1535 C 141.126 -3.74812 2.61467 0
M  V30 1536 C 142.123 -3.75367 3.59716 0
M  V30 1537 C 139.808 -4.0495 2.97189 0
M  V30 1538 C 141.802 -4.05574 4.9172 0
M  V30 1539 C 139.489 -4.34821 4.29388 0
M  V30 1540 C 140.487 -4.35116 5.26463 0
M  V30 1541 O 140.175 -4.64267 6.56286 0
M  V30 1542 H 139.907 -0.606894 0.297751 0
M  V30 1543 H 142.461 -1.46438 1.44031 0
M  V30 1544 H 140.691 -3.8358 0.490214 0
M  V30 1545 H 142.38 -3.96018 0.890193 0
M  V30 1546 H 143.146 -3.52176 3.33462 0
M  V30 1547 H 139.025 -4.03876 2.22273 0
M  V30 1548 H 142.569 -4.05719 5.67484 0
M  V30 1549 H 138.466 -4.5748 4.55392 0
M  V30 1550 H 139.234 -4.82007 6.61522 0
M  V30 1551 N 141.898 -0.863906 -1.31812 0
M  V30 1552 C 142.828 -0.330843 -2.31144 0
M  V30 1553 C 143.809 0.575005 -1.60087 0
M  V30 1554 O 144.994 0.493304 -1.8783 0
M  V30 1555 C 142.124 0.47374 -3.44054 0
M  V30 1556 C 141.078 -0.338481 -4.26659 0
M  V30 1557 C 140.404 0.591412 -5.31419 0
M  V30 1558 C 141.704 -1.56926 -4.98168 0
M  V30 1559 H 143.398 -1.16086 -2.75979 0
M  V30 1560 H 140.944 -0.559657 -1.32679 0
M  V30 1561 H 142.897 0.857143 -4.12591 0
M  V30 1562 H 141.621 1.33721 -2.9797 0
M  V30 1563 H 140.28 -0.703754 -3.59782 0
M  V30 1564 H 139.928 1.45199 -4.81587 0
M  V30 1565 H 139.628 0.0519022 -5.87577 0
M  V30 1566 H 141.152 0.97179 -6.02817 0
M  V30 1567 H 142.566 -1.25764 -5.59336 0
M  V30 1568 H 140.963 -2.04739 -5.64094 0
M  V30 1569 H 142.033 -2.32544 -4.25501 0
M  V30 1570 N 143.376 1.44774 -0.622745 0
M  V30 1571 C 144.326 2.2774 0.108889 0
M  V30 1572 C 145.31 1.38189 0.824175 0
M  V30 1573 O 146.502 1.62063 0.711664 0
M  V30 1574 C 143.631 3.25353 1.09546 0
M  V30 1575 C 142.717 4.22392 0.380232 0
M  V30 1576 N 143.108 5.02388 -0.586535 0
M  V30 1577 C 141.406 4.41588 0.625792 0
M  V30 1578 C 142.107 5.72894 -1.00834 0
M  V30 1579 N 141.083 5.42479 -0.348878 0
M  V30 1580 H 144.885 2.86993 -0.63341 0
M  V30 1581 H 142.399 1.5611 -0.447589 0
M  V30 1582 H 144.396 3.83538 1.63414 0
M  V30 1583 H 143.056 2.6766 1.83815 0
M  V30 1584 H 144.067 5.0885 -0.963975 0
M  V30 1585 H 140.744 3.95003 1.352 0
M  V30 1586 H 142.134 6.47158 -1.80656 0
M  V30 1587 N 144.854 0.36279 1.53368 0
M  V30 1588 C 146.103 -0.22888 2.00397 0
M  V30 1589 C 146.416 -1.50096 1.25421 0
M  V30 1590 O 147.622 -2.17106 1.63025 0
M  V30 1591 C 146.078 -0.458417 3.56969 0
M  V30 1592 C 145.686 0.798877 4.4082 0
M  V30 1593 C 147.43 -1.00789 4.12361 0
M  V30 1594 C 145.337 0.539078 5.88938 0
M  V30 1595 H 144.267 -0.089305 0.748693 0
M  V30 1596 H 146.918 0.481099 1.77081 0
M  V30 1597 H 145.3 -1.22959 3.76427 0
M  V30 1598 H 146.474 1.57262 4.33134 0
M  V30 1599 H 144.789 1.27137 3.96516 0
M  V30 1600 H 147.386 -1.21754 5.20653 0
M  V30 1601 H 147.729 -1.9692 3.66781 0
M  V30 1602 H 148.262 -0.296961 3.9669 0
M  V30 1603 H 145.001 1.47064 6.3879 0
M  V30 1604 H 144.521 -0.196222 5.99479 0
M  V30 1605 H 146.2 0.163542 6.46793 0
M  V30 1606 N 146.332 -1.57332 0.0918853 0
M  V30 1607 C 147.743 -1.81496 -0.437739 0
M  V30 1608 C 148.094 -1.00727 -1.6837 0
M  V30 1609 O 147.219 -0.235694 -2.15113 0
M  V30 1610 C 147.814 -3.29197 -0.800939 0
M  V30 1611 C 146.373 -3.54136 -1.27532 0
M  V30 1612 C 145.52 -2.75979 -0.270392 0
M  V30 1613 H 148.471 -1.55494 0.317366 0
M  V30 1614 H 148.492 -3.42344 -1.66074 0
M  V30 1615 H 148.004 -3.87955 0.106078 0
M  V30 1616 H 146.105 -3.00705 -2.20016 0
M  V30 1617 H 146.218 -4.62792 -1.23938 0
M  V30 1618 H 144.582 -2.43349 -0.751872 0
M  V30 1619 H 145.365 -3.37484 0.629248 0
M  V30 1620 N 147.81 0.181792 -1.56548 0
M  V30 1621 C 149.087 0.926765 -1.72251 0
M  V30 1622 C 149.467 2.00831 -0.650386 0
M  V30 1623 O 148.815 2.26008 0.336521 0
M  V30 1624 C 149.025 1.50106 -3.1507 0
M  V30 1625 C 150.373 1.97805 -3.75711 0
M  V30 1626 O 151.397 1.59922 -3.18282 0
M  V30 1627 O 150.256 2.67555 -4.76525 0
M  V30 1628 H 147.35 0.435506 -0.703039 0
M  V30 1629 H 149.896 0.170443 -1.68842 0
M  V30 1630 H 148.668 0.72212 -3.84579 0
M  V30 1631 H 148.291 2.32186 -3.22763 0
M  V30 1632 N 149.288 1.51039 0.449983 0
M  V30 1633 C 150.537 1.62317 1.19733 0
M  V30 1634 C 150.85 0.339101 1.92638 0
M  V30 1635 O 152.056 0.331069 2.69474 0
M  V30 1636 C 150.512 2.86608 2.17678 0
M  V30 1637 C 150.12 4.21972 1.50479 0
M  V30 1638 C 151.864 3.07239 2.92924 0
M  V30 1639 C 149.771 5.37426 2.46834 0
M  V30 1640 H 148.701 0.604532 0.450619 0
M  V30 1641 H 151.352 1.77494 0.465625 0
M  V30 1642 H 149.734 2.65037 2.94231 0
M  V30 1643 H 150.908 4.53878 0.795716 0
M  V30 1644 H 149.223 4.07117 0.874344 0
M  V30 1645 H 151.82 3.90668 3.65079 0
M  V30 1646 H 152.163 2.19807 3.5354 0
M  V30 1647 H 152.696 3.29091 2.23481 0
M  V30 1648 H 149.435 6.27079 1.90926 0
M  V30 1649 H 148.955 5.09912 3.15832 0
M  V30 1650 H 150.634 5.68862 3.08228 0
M  V30 1651 N 150.766 -0.704594 1.40972 0
M  V30 1652 C 152.015 -1.46018 1.39146 0
M  V30 1653 C 152.328 -1.956 0.000589254 0
M  V30 1654 O 153.534 -2.71137 -0.1403 0
M  V30 1655 C 151.99 -2.63996 2.4461 0
M  V30 1656 C 151.598 -2.21238 3.89561 0
M  V30 1657 C 153.342 -3.41677 2.51907 0
M  V30 1658 C 151.249 -3.3612 4.86598 0
M  V30 1659 H 150.179 -0.548444 0.517422 0
M  V30 1660 H 152.83 -0.765784 1.66757 0
M  V30 1661 H 151.212 -3.3566 2.10115 0
M  V30 1662 H 152.386 -1.56923 4.33257 0
M  V30 1663 H 150.701 -1.56574 3.85841 0
M  V30 1664 H 153.298 -4.27182 3.2159 0
M  V30 1665 H 153.641 -3.86247 1.55303 0
M  V30 1666 H 154.174 -2.77064 2.85448 0
M  V30 1667 H 150.913 -2.96572 5.84573 0
M  V30 1668 H 150.433 -3.99315 4.47557 0
M  V30 1669 H 152.112 -4.02029 5.06934 0
M  V30 1670 N 152.244 -1.26651 -0.937939 0
M  V30 1671 C 153.191 -1.0849 -2.03712 0
M  V30 1672 C 154.161 0.011033 -1.66096 0
M  V30 1673 O 155.346 -0.149353 -1.90215 0
M  V30 1674 C 152.486 -0.72735 -3.37348 0
M  V30 1675 C 151.599 -1.89986 -3.87981 0
M  V30 1676 C 150.734 -1.48513 -5.10017 0
M  V30 1677 C 149.773 -2.62575 -5.5292 0
M  V30 1678 N 148.91 -2.21762 -6.66158 0
M  V30 1679 H 153.75 -2.02551 -2.18579 0
M  V30 1680 H 151.287 -1.00844 -1.07093 0
M  V30 1681 H 153.245 -0.50092 -4.14182 0
M  V30 1682 H 151.875 0.176298 -3.22318 0
M  V30 1683 H 150.927 -2.23913 -3.07518 0
M  V30 1684 H 152.239 -2.75586 -4.15757 0
M  V30 1685 H 151.393 -1.21934 -5.94321 0
M  V30 1686 H 150.132 -0.60009 -4.83994 0
M  V30 1687 H 149.137 -2.8988 -4.67172 0
M  V30 1688 H 150.362 -3.51685 -5.80943 0
M  V30 1689 H 148.308 -1.35696 -6.41812 0
M  V30 1690 H 148.225 -3.00903 -6.93537 0
M  V30 1691 H 149.493 -1.98403 -7.53828 0
M  V30 1692 N 153.722 1.14298 -1.08507 0
M  V30 1693 C 154.968 1.85633 -0.816581 0
M  V30 1694 C 155.301 1.82784 0.656021 0
M  V30 1695 O 154.576 1.25926 1.48233 0
M  V30 1696 C 154.859 3.34223 -1.34041 0
M  V30 1697 C 154.712 3.45639 -2.87843 0
M  V30 1698 C 156.031 4.29356 -0.9665 0
M  V30 1699 H 153.15 0.67402 -0.298104 0
M  V30 1700 H 155.792 1.34214 -1.34487 0
M  V30 1701 H 153.942 3.78144 -0.89104 0
M  V30 1702 H 155.614 3.10498 -3.41158 0
M  V30 1703 H 153.857 2.86817 -3.25451 0
M  V30 1704 H 154.528 4.50089 -3.19569 0
M  V30 1705 H 157.004 3.93457 -1.35391 0
M  V30 1706 H 155.88 5.3178 -1.3602 0
M  V30 1707 H 156.141 4.41919 0.126362 0
M  V30 1708 N 155.201 0.870884 1.31352 0
M  V30 1709 C 156.164 0.332243 2.26779 0
M  V30 1710 C 157.164 -0.517302 1.52252 0
M  V30 1711 O 158.354 -0.326477 1.71113 0
M  V30 1712 C 155.486 -0.528066 3.36785 0
M  V30 1713 H 156.679 1.17469 2.75937 0
M  V30 1714 H 154.232 0.64655 1.423 0
M  V30 1715 H 154.967 -1.39167 2.92922 0
M  V30 1716 H 154.752 0.0802582 3.92018 0
M  V30 1717 H 156.242 -0.897179 4.07849 0
M  V30 1718 N 156.679 -1.44442 0.630414 0
M  V30 1719 C 157.626 -2.30678 -0.0749355 0
M  V30 1720 C 158.596 -1.4344 -0.837502 0
M  V30 1721 O 159.781 -1.72343 -0.818684 0
M  V30 1722 C 156.921 -3.28706 -1.05103 0
M  V30 1723 C 156.034 -4.31046 -0.286954 0
M  V30 1724 C 155.169 -5.16167 -1.2548 0
M  V30 1725 C 154.208 -6.10216 -0.479843 0
M  V30 1726 N 153.345 -6.88039 -1.39811 0
M  V30 1727 H 158.185 -2.90454 0.666386 0
M  V30 1728 H 155.722 -1.43107 0.340404 0
M  V30 1729 H 157.68 -3.84027 -1.63031 0
M  V30 1730 H 156.31 -2.70632 -1.75949 0
M  V30 1731 H 155.362 -3.78203 0.408243 0
M  V30 1732 H 156.674 -4.97794 0.316657 0
M  V30 1733 H 155.828 -5.76002 -1.90544 0
M  V30 1734 H 154.567 -4.49491 -1.89233 0
M  V30 1735 H 153.572 -5.49491 0.184295 0
M  V30 1736 H 154.797 -6.78928 0.152965 0
M  V30 1737 H 152.743 -6.24032 -2.02287 0
M  V30 1738 H 152.66 -7.51223 -0.848508 0
M  V30 1739 H 153.928 -7.52397 -2.03762 0
M  V30 1740 N 158.157 -0.370918 -1.53173 0
M  V30 1741 C 159.067 0.480823 -2.2962 0
M  V30 1742 C 160.083 1.08789 -1.35798 0
M  V30 1743 O 161.259 1.09768 -1.68858 0
M  V30 1744 C 158.324 1.60227 -3.07454 0
M  V30 1745 C 157.385 1.0222 -4.16953 0
M  V30 1746 C 156.618 2.0902 -4.91066 0
M  V30 1747 O 156.841 3.30222 -4.65091 0
M  V30 1748 O 155.775 1.71778 -5.76867 0
M  V30 1749 H 159.601 -0.141421 -3.03371 0
M  V30 1750 H 157.186 -0.135146 -1.48787 0
M  V30 1751 H 159.068 2.25417 -3.56041 0
M  V30 1752 H 157.743 2.20982 -2.36535 0
M  V30 1753 H 156.65 0.334064 -3.72605 0
M  V30 1754 H 157.983 0.459131 -4.90054 0
M  V30 1755 N 159.635 1.57281 -0.100228 0
M  V30 1756 C 160.583 2.15542 0.874328 0
M  V30 1757 C 161.577 1.09962 1.28859 0
M  V30 1758 O 162.783 1.28298 1.26252 0
M  V30 1759 H 159.158 0.689567 0.300003 0
M  V30 1760 H 161.129 2.96241 0.35829 0
M  V30 1761 C 159.878 2.75454 2.1218 0
M  V30 1762 H 159.201 3.56384 1.81193 0
M  V30 1763 H 160.641 3.19781 2.78417 0
M  V30 1764 C 159.1 1.71602 2.89921 0
M  V30 1765 O 159.63 1.15804 3.84646 0
M  V30 1766 N 157.836 1.41975 2.53558 0
M  V30 1767 H 157.383 1.87539 1.76598 0
M  V30 1768 H 157.341 0.727274 3.05873 0
M  V30 1769 N 161.113 -0.173488 1.56642 0
M  V30 1770 C 162.061 -1.23417 1.97157 0
M  V30 1771 C 163.055 -1.45946 0.860013 0
M  V30 1772 O 164.261 -1.46551 1.04512 0
M  V30 1773 H 160.636 -0.414818 0.62724 0
M  V30 1774 H 162.607 -0.865582 2.8557 0
M  V30 1775 C 161.356 -2.5665 2.34576 0
M  V30 1776 H 160.679 -2.40137 3.19647 0
M  V30 1777 H 162.119 -3.2956 2.6677 0
M  V30 1778 C 160.578 -3.15245 1.18836 0
M  V30 1779 O 161.108 -3.98883 0.474869 0
M  V30 1780 N 159.314 -2.74303 0.959497 0
M  V30 1781 H 158.861 -2.0639 1.54146 0
M  V30 1782 H 158.819 -3.13844 0.186932 0
M  V30 1783 N 162.591 -1.51276 -0.441967 0
M  V30 1784 C 163.837 -1.63958 -1.19355 0
M  V30 1785 C 164.17 -0.352543 -1.90973 0
M  V30 1786 O 163.445 0.647627 -1.83401 0
M  V30 1787 C 163.728 -2.83979 -2.21422 0
M  V30 1788 C 163.581 -4.22646 -1.53918 0
M  V30 1789 C 164.9 -2.99521 -3.22451 0
M  V30 1790 H 162.019 -0.596709 -0.432559 0
M  V30 1791 H 164.661 -1.83748 -0.483398 0
M  V30 1792 H 162.811 -2.67237 -2.81987 0
M  V30 1793 H 164.483 -4.51045 -0.967256 0
M  V30 1794 H 162.726 -4.25558 -0.841615 0
M  V30 1795 H 163.397 -5.02609 -2.28229 0
M  V30 1796 H 165.873 -3.14944 -2.71937 0
M  V30 1797 H 164.749 -3.85072 -3.91166 0
M  V30 1798 H 165.01 -2.11391 -3.88287 0
M  V30 1799 N 164.069 0.697108 -1.41344 0
M  V30 1800 C 165.346 1.45154 -1.31109 0
M  V30 1801 C 165.726 2.11009 0.0620449 0
M  V30 1802 O 165.074 2.01571 1.07618 0
M  V30 1803 C 165.284 2.47223 -2.46337 0
M  V30 1804 C 166.632 3.1252 -2.87431 0
M  V30 1805 O 167.656 2.57547 -2.46065 0
M  V30 1806 O 166.515 4.12083 -3.58957 0
M  V30 1807 H 163.609 0.646365 -0.515889 0
M  V30 1808 H 166.155 0.727716 -1.53305 0
M  V30 1809 H 164.927 1.97204 -3.37974 0
M  V30 1810 H 164.55 3.27116 -2.2601 0
M  V30 1811 N 165.547 1.27147 0.931209 0
M  V30 1812 C 166.51 1.09615 2.01289 0
M  V30 1813 C 167.51 0.0412581 1.60747 0
M  V30 1814 O 168.7 0.285545 1.71844 0
M  V30 1815 C 165.832 0.669447 3.34262 0
M  V30 1816 H 167.025 2.05662 2.18273 0
M  V30 1817 H 164.578 1.09885 1.11153 0
M  V30 1818 H 165.313 -0.292572 3.22978 0
M  V30 1819 H 165.098 1.43127 3.65044 0
M  V30 1820 H 166.588 0.568921 4.13706 0
M  V30 1821 N 167.025 -1.13721 1.09112 0
M  V30 1822 C 168.271 -1.85198 0.826414 0
M  V30 1823 C 168.604 -1.83129 -0.646319 0
M  V30 1824 O 167.879 -1.2671 -1.47563 0
M  V30 1825 C 168.162 -3.33507 1.35812 0
M  V30 1826 C 168.015 -3.44108 2.89672 0
M  V30 1827 C 169.334 -4.28838 0.989256 0
M  V30 1828 H 166.453 -0.67243 0.301675 0
M  V30 1829 H 169.095 -1.33499 1.35197 0
M  V30 1830 H 167.245 -3.77666 0.911082 0
M  V30 1831 H 168.917 -3.08684 3.428 0
M  V30 1832 H 167.16 -2.85087 3.26967 0
M  V30 1833 H 167.831 -4.48388 3.21951 0
M  V30 1834 H 170.307 -3.92734 1.37475 0
M  V30 1835 H 169.183 -5.31051 1.38838 0
M  V30 1836 H 169.444 -4.4198 -0.102924 0
M  V30 1837 N 168.503 -0.877838 -1.30888 0
M  V30 1838 C 169.453 -0.310872 -2.25871 0
M  V30 1839 C 170.437 0.556596 -1.50966 0
M  V30 1840 O 171.629 0.402187 -1.7237 0
M  V30 1841 C 168.758 0.479821 -3.3993 0
M  V30 1842 C 167.844 -0.401333 -4.22197 0
M  V30 1843 N 168.235 -1.49848 -4.83093 0
M  V30 1844 C 166.533 -0.195167 -4.45573 0
M  V30 1845 C 167.234 -2.0425 -5.44662 0
M  V30 1846 N 166.21 -1.33843 -5.26865 0
M  V30 1847 H 170.012 -1.1493 -2.70496 0
M  V30 1848 H 167.526 -0.726458 -1.45246 0
M  V30 1849 H 169.523 0.902582 -4.07012 0
M  V30 1850 H 168.183 1.31577 -2.96846 0
M  V30 1851 H 169.194 -1.88137 -4.82519 0
M  V30 1852 H 165.871 0.604192 -4.13105 0
M  V30 1853 H 167.261 -2.96345 -6.03017 0
M  V30 1854 N 169.982 1.44106 -0.638065 0
M  V30 1855 C 171.393 1.85316 -0.226894 0
M  V30 1856 C 171.744 1.53399 1.22324 0
M  V30 1857 O 170.869 0.975463 1.93167 0
M  V30 1858 C 171.464 3.3637 -0.405013 0
M  V30 1859 C 170.023 3.76369 -0.0482902 0
M  V30 1860 C 169.17 2.67921 -0.715108 0
M  V30 1861 H 172.121 1.34474 -0.842764 0
M  V30 1862 H 172.142 3.7885 0.354 0
M  V30 1863 H 171.654 3.59569 -1.46053 0
M  V30 1864 H 169.755 3.58784 1.00522 0
M  V30 1865 H 169.868 4.76856 -0.463187 0
M  V30 1866 H 168.232 2.54259 -0.149753 0
M  V30 1867 H 169.015 2.93951 -1.77335 0
M  V30 1868 N 171.46 0.379036 1.52974 0
M  V30 1869 C 172.708 -0.206014 2.01047 0
M  V30 1870 C 173.029 -1.48175 1.26765 0
M  V30 1871 O 172.299 -1.92085 0.384743 0
M  V30 1872 H 170.879 -0.0791184 0.742798 0
M  V30 1873 H 173.541 0.508366 1.88153 0
M  V30 1874 H 172.637 -0.423501 3.09213 0
M  V30 1875 N 172.938 -1.57226 0.108567 0
M  V30 1876 C 174.168 -1.9889 -0.559142 0
M  V30 1877 C 174.576 -0.986889 -1.61422 0
M  V30 1878 O 173.919 0.0298705 -1.83676 0
M  V30 1879 C 173.981 -3.36952 -1.25315 0
M  V30 1880 C 173.645 -4.55679 -0.347248 0
M  V30 1881 C 174.642 -5.18281 0.409996 0
M  V30 1882 C 172.327 -5.0162 -0.261367 0
M  V30 1883 C 174.321 -6.25203 1.24096 0
M  V30 1884 C 172.008 -6.08405 0.573238 0
M  V30 1885 C 173.006 -6.70063 1.32304 0
M  V30 1886 O 172.694 -7.74788 2.14381 0
M  V30 1887 H 172.426 -0.658343 -0.153492 0
M  V30 1888 H 174.98 -2.04532 0.188584 0
M  V30 1889 H 173.21 -3.28032 -2.04773 0
M  V30 1890 H 174.899 -3.62974 -1.81673 0
M  V30 1891 H 175.665 -4.8371 0.353457 0
M  V30 1892 H 171.544 -4.53381 -0.834656 0
M  V30 1893 H 175.088 -6.73259 1.82669 0
M  V30 1894 H 170.985 -6.42406 0.631208 0
M  V30 1895 H 171.753 -7.91837 2.07209 0
M  V30 1896 N 174.416 0.165178 -1.56732 0
M  V30 1897 C 175.664 0.879068 -1.8198 0
M  V30 1898 C 175.985 1.82514 -0.686561 0
M  V30 1899 O 175.255 1.93694 0.293146 0
M  V30 1900 H 173.835 0.327608 -0.671329 0
M  V30 1901 H 176.497 0.163526 -1.94213 0
M  V30 1902 H 175.593 1.45228 -2.76252 0
M  V30 1903 N 175.894 1.51508 0.433938 0
M  V30 1904 C 177.141 1.64345 1.18309 0
M  V30 1905 C 177.469 0.361315 1.91115 0
M  V30 1906 O 176.724 -0.654753 1.84422 0
M  V30 1907 C 177.023 2.79928 2.22205 0
M  V30 1908 C 176.689 4.19078 1.66387 0
M  V30 1909 C 175.351 4.56932 1.50887 0
M  V30 1910 C 177.703 5.05894 1.25381 0
M  V30 1911 C 175.031 5.79305 0.928608 0
M  V30 1912 C 177.383 6.2885 0.687823 0
M  V30 1913 C 176.047 6.65473 0.519755 0
M  V30 1914 H 175.317 0.601381 0.432923 0
M  V30 1915 H 177.964 1.85549 0.473676 0
M  V30 1916 H 176.269 2.52959 2.99197 0
M  V30 1917 H 177.966 2.87059 2.79997 0
M  V30 1918 H 174.556 3.89234 1.79428 0
M  V30 1919 H 178.74 4.77253 1.36175 0
M  V30 1920 H 173.996 6.06324 0.786186 0
M  V30 1921 H 178.17 6.95461 0.361581 0
M  V30 1922 H 175.797 7.6017 0.0679979 0
M  V30 1923 N 177.372 -0.689602 1.41712 0
M  V30 1924 C 178.302 -1.81577 1.46806 0
M  V30 1925 C 179.283 -1.66945 0.326105 0
M  V30 1926 O 180.468 -1.86588 0.538377 0
M  V30 1927 C 177.598 -3.19762 1.35535 0
M  V30 1928 C 176.552 -3.49107 2.47605 0
M  V30 1929 C 175.878 -4.86711 2.21397 0
M  V30 1930 C 177.178 -3.47483 3.89939 0
M  V30 1931 H 178.872 -1.7757 2.41058 0
M  V30 1932 H 176.418 -0.852887 1.16025 0
M  V30 1933 H 178.371 -3.98263 1.3771 0
M  V30 1934 H 177.095 -3.24409 0.377708 0
M  V30 1935 H 175.754 -2.72959 2.44722 0
M  V30 1936 H 175.402 -4.8799 1.21961 0
M  V30 1937 H 175.102 -5.0731 2.96497 0
M  V30 1938 H 176.626 -5.67515 2.25297 0
M  V30 1939 H 178.04 -4.1598 3.94505 0
M  V30 1940 H 176.437 -3.79615 4.64771 0
M  V30 1941 H 177.507 -2.46341 4.17665 0
M  V30 1942 N 178.85 -1.27639 -0.924453 0
M  V30 1943 C 180.075 -1.17101 -1.71179 0
M  V30 1944 C 180.5 0.268134 -1.86179 0
M  V30 1945 O 179.858 1.19415 -1.36418 0
M  V30 1946 C 179.906 -1.86313 -3.08739 0
M  V30 1947 O 179.01 -1.16331 -3.95652 0
M  V30 1948 H 178.351 -0.407091 -0.524569 0
M  V30 1949 H 180.881 -1.68767 -1.15666 0
M  V30 1950 H 180.891 -1.938 -3.59034 0
M  V30 1951 H 179.566 -2.91001 -2.97138 0
M  V30 1952 H 178.143 -1.16935 -3.54091 0
M  V30 1953 N 180.328 1.1314 -1.09713 0
M  V30 1954 C 181.238 2.22242 -0.751367 0
M  V30 1955 C 182.254 1.72224 0.247938 0
M  V30 1956 O 183.43 2.01205 0.0885463 0
M  V30 1957 C 180.495 3.46231 -0.180274 0
M  V30 1958 C 179.556 4.11125 -1.2359 0
M  V30 1959 C 178.789 5.29195 -0.691966 0
M  V30 1960 O 179.012 5.68342 0.48414 0
M  V30 1961 O 177.946 5.84214 -1.44838 0
M  V30 1962 H 181.772 2.54197 -1.66186 0
M  V30 1963 H 179.357 1.21331 -0.871735 0
M  V30 1964 H 181.239 4.21185 0.134739 0
M  V30 1965 H 179.914 3.1597 0.703185 0
M  V30 1966 H 178.821 3.37985 -1.60366 0
M  V30 1967 H 180.154 4.45524 -2.09211 0
M  V30 1968 N 181.806 0.884767 1.30421 0
M  V30 1969 C 183.222 0.57874 1.48737 0
M  V30 1970 C 183.422 -0.883567 1.81095 0
M  V30 1971 O 182.478 -1.6648 1.89844 0
M  V30 1972 C 183.791 1.49171 2.61091 0
M  V30 1973 C 185.339 1.49532 2.74971 0
M  V30 1974 C 185.814 2.39421 3.90438 0
M  V30 1975 N 187.305 2.37383 3.97748 0
M  V30 1976 C 188.04 3.03647 4.86401 0
M  V30 1977 N 187.536 3.79136 5.79852 0
M  V30 1978 N 189.329 2.9288 4.79768 0
M  V30 1979 H 181.48 1.83075 1.0769 0
M  V30 1980 H 183.743 0.783637 0.533495 0
M  V30 1981 H 183.449 2.53291 2.44001 0
M  V30 1982 H 183.323 1.20113 3.57565 0
M  V30 1983 H 185.71 0.46163 2.91467 0
M  V30 1984 H 185.791 1.8262 1.79119 0
M  V30 1985 H 185.435 3.42874 3.74699 0
M  V30 1986 H 185.365 2.03649 4.85628 0
M  V30 1987 H 187.856 1.82525 3.30897 0
M  V30 1988 H 188.169 4.26789 6.4426 0
M  V30 1989 H 186.514 3.83243 5.79784 0
M  V30 1990 H 189.705 2.33433 4.05742 0
M  V30 1991 H 189.878 3.448 5.4865 0
M  V30 1992 N 183.284 -1.43765 0.645699 0
M  V30 1993 C 184.247 -2.29163 -0.0409488 0
M  V30 1994 C 185.247 -1.41813 -0.757996 0
M  V30 1995 O 186.437 -1.63527 -0.600382 0
M  V30 1996 C 183.569 -3.23716 -1.06869 0
M  V30 1997 H 184.762 -2.91366 0.710345 0
M  V30 1998 H 182.315 -1.5092 0.406547 0
M  V30 1999 H 183.05 -2.66393 -1.84947 0
M  V30 2000 H 182.835 -3.88105 -0.558277 0
M  V30 2001 H 184.325 -3.87831 -1.54845 0
M  V30 2002 N 184.763 -0.387143 -1.52771 0
M  V30 2003 C 186.04 0.253197 -1.93954 0
M  V30 2004 C 186.42 1.64545 -1.32243 0
M  V30 2005 O 185.768 2.23191 -0.489699 0
M  V30 2006 C 185.978 0.281722 -3.47861 0
M  V30 2007 C 187.326 0.511715 -4.21505 0
M  V30 2008 O 188.35 0.362023 -3.54356 0
M  V30 2009 O 187.209 0.804847 -5.40541 0
M  V30 2010 H 184.303 0.156845 -0.811991 0
M  V30 2011 H 186.849 -0.441494 -1.63856 0
M  V30 2012 H 185.621 -0.693571 -3.85104 0
M  V30 2013 H 185.244 1.02142 -3.84256 0
M  V30 2014 N 186.241 1.57166 -0.116904 0
M  V30 2015 C 187.488 1.95123 0.541603 0
M  V30 2016 C 187.816 1.00006 1.6682 0
M  V30 2017 O 187.071 0.0235658 1.95686 0
M  V30 2018 C 187.37 3.39508 1.11664 0
M  V30 2019 C 187.036 4.50762 0.111606 0
M  V30 2020 C 185.698 4.80918 -0.164758 0
M  V30 2021 C 188.05 5.18036 -0.573438 0
M  V30 2022 C 185.378 5.75666 -1.13249 0
M  V30 2023 C 187.73 6.13824 -1.52978 0
M  V30 2024 C 186.394 6.42374 -1.81415 0
M  V30 2025 H 185.664 0.714005 0.198187 0
M  V30 2026 H 188.311 1.9048 -0.197365 0
M  V30 2027 H 186.616 3.40835 1.93232 0
M  V30 2028 H 188.313 3.66189 1.63422 0
M  V30 2029 H 184.903 4.27272 0.337192 0
M  V30 2030 H 189.087 4.94896 -0.373092 0
M  V30 2031 H 184.343 5.96092 -1.35958 0
M  V30 2032 H 188.517 6.65039 -2.06629 0
M  V30 2033 H 186.144 7.15599 -2.56557 0
M  V30 2034 N 187.719 -0.156864 1.56817 0
M  V30 2035 C 188.682 -1.17781 1.96622 0
M  V30 2036 C 189.682 -1.36401 0.851555 0
M  V30 2037 O 190.872 -1.33561 1.11836 0
M  V30 2038 C 188.004 -2.54008 2.27361 0
M  V30 2039 H 189.197 -0.836564 2.87996 0
M  V30 2040 H 186.75 -0.39985 1.51099 0
M  V30 2041 H 187.485 -2.9312 1.38748 0
M  V30 2042 H 187.27 -2.41856 3.08623 0
M  V30 2043 H 188.76 -3.27558 2.59029 0
M  V30 2044 N 189.197 -1.51736 -0.425897 0
M  V30 2045 C 190.129 -1.70083 -1.53638 0
M  V30 2046 C 191.142 -0.581349 -1.52066 0
M  V30 2047 O 192.331 -0.856017 -1.56635 0
M  V30 2048 C 189.431 -1.71078 -2.9255 0
M  V30 2049 C 188.604 -2.99795 -3.185 0
M  V30 2050 C 187.663 -2.92825 -4.37196 0
M  V30 2051 O 186.689 -3.66756 -4.35291 0
M  V30 2052 N 187.891 -2.0946 -5.41393 0
M  V30 2053 H 190.656 -2.65882 -1.383 0
M  V30 2054 H 188.217 -1.49765 -0.614988 0
M  V30 2055 H 190.209 -1.63969 -3.69995 0
M  V30 2056 H 188.779 -0.828242 -3.01428 0
M  V30 2057 H 187.999 -3.20684 -2.2925 0
M  V30 2058 H 189.287 -3.84977 -3.32671 0
M  V30 2059 H 188.685 -1.48792 -5.45781 0
M  V30 2060 H 187.242 -2.08221 -6.17647 0
M  V30 2061 N 190.675 0.682077 -1.42076 0
M  V30 2062 C 191.638 1.77756 -1.44691 0
M  V30 2063 C 192.638 1.5726 -0.335535 0
M  V30 2064 O 193.828 1.63686 -0.596037 0
M  V30 2065 C 190.96 3.16301 -1.27146 0
M  V30 2066 H 192.153 1.76826 -2.42224 0
M  V30 2067 H 189.706 0.891012 -1.28416 0
M  V30 2068 H 190.441 3.22862 -0.305075 0
M  V30 2069 H 190.226 3.32581 -2.07683 0
M  V30 2070 H 191.716 3.96241 -1.31843 0
M  V30 2071 N 192.153 1.28127 0.917671 0
M  V30 2072 C 193.393 1.163 1.68088 0
M  V30 2073 C 193.757 -0.284515 1.8988 0
M  V30 2074 O 194.958 -0.525413 2.63615 0
M  V30 2075 C 193.229 1.93546 3.00457 0
M  V30 2076 S 194.788 1.98048 3.91564 0
M  V30 2077 H 191.606 0.415005 0.577315 0
M  V30 2078 H 194.208 1.62173 1.09179 0
M  V30 2079 H 192.912 2.97888 2.82295 0
M  V30 2080 H 192.443 1.48207 3.64415 0
M  V30 2081 H 194.458 1.08415 4.84211 0
M  V30 2082 N 193.631 -1.12557 1.10312 0
M  V30 2083 C 194.563 -2.17971 0.708625 0
M  V30 2084 C 195.576 -1.60806 -0.254027 0
M  V30 2085 O 196.765 -1.78458 -0.0386891 0
M  V30 2086 C 193.865 -3.38891 0.0248198 0
M  V30 2087 C 193.038 -4.25548 1.01132 0
M  V30 2088 C 192.097 -5.24972 0.35924 0
M  V30 2089 O 191.123 -5.60174 1.00965 0
M  V30 2090 N 192.325 -5.73747 -0.882847 0
M  V30 2091 H 195.09 -2.52427 1.61557 0
M  V30 2092 H 192.651 -1.27967 0.991771 0
M  V30 2093 H 194.643 -4.02485 -0.422852 0
M  V30 2094 H 193.213 -3.02596 -0.784514 0
M  V30 2095 H 192.433 -3.58589 1.6373 0
M  V30 2096 H 193.721 -4.80294 1.67914 0
M  V30 2097 H 193.119 -5.4731 -1.43065 0
M  V30 2098 H 191.676 -6.39234 -1.27369 0
M  V30 2099 N 195.109 -0.891671 -1.2995 0
M  V30 2100 C 196.386 -0.433307 -1.9074 0
M  V30 2101 C 196.766 1.08646 -1.80995 0
M  V30 2102 O 196.114 1.92476 -1.23147 0
M  V30 2103 C 196.324 -0.938895 -3.36134 0
M  V30 2104 C 197.672 -0.977829 -4.13187 0
M  V30 2105 O 198.696 -0.886015 -3.45005 0
M  V30 2106 O 197.555 -1.11453 -5.35015 0
M  V30 2107 H 194.649 -0.133699 -0.816121 0
M  V30 2108 H 197.195 -0.981011 -1.38471 0
M  V30 2109 H 195.967 -1.98281 -3.37343 0
M  V30 2110 H 195.59 -0.37074 -3.95868 0
M  V30 2111 N 196.587 1.43421 -0.653314 0
M  V30 2112 C 197.55 2.29182 0.0287951 0
M  V30 2113 C 198.55 1.42213 0.750465 0
M  V30 2114 O 199.74 1.63843 0.591701 0
M  V30 2115 C 196.872 3.24278 1.05151 0
M  V30 2116 H 198.065 2.90985 -0.725786 0
M  V30 2117 H 195.618 1.50702 -0.414545 0
M  V30 2118 H 196.353 2.6737 1.83532 0
M  V30 2119 H 196.138 3.88396 0.537687 0
M  V30 2120 H 197.628 3.88647 1.52786 0
M  V30 2121 N 198.065 0.39524 1.52563 0
M  V30 2122 C 199.313 -0.184678 2.01254 0
M  V30 2123 C 199.634 -1.46822 1.28329 0
M  V30 2124 O 198.904 -1.91666 0.405094 0
M  V30 2125 H 197.484 -0.0712355 0.743596 0
M  V30 2126 H 200.146 0.528293 1.87603 0
M  V30 2127 H 199.242 -0.390681 3.09645 0
M  V30 2128 N 199.544 -1.57102 0.125237 0
M  V30 2129 C 200.79 -1.95697 -0.532035 0
M  V30 2130 C 201.123 -1.009 -1.6593 0
M  V30 2131 O 200.398 -0.047347 -1.94442 0
M  V30 2132 C 200.681 -3.44181 -1.05884 0
M  V30 2133 C 200.534 -4.49752 0.0654392 0
M  V30 2134 C 201.853 -3.94655 -1.9477 0
M  V30 2135 H 198.972 -0.711571 -0.191925 0
M  V30 2136 H 201.614 -1.88923 0.20206 0
M  V30 2137 H 199.764 -3.50085 -1.68442 0
M  V30 2138 H 201.436 -4.55943 0.700982 0
M  V30 2139 H 199.679 -4.27653 0.727709 0
M  V30 2140 H 200.35 -5.50924 -0.344505 0
M  V30 2141 H 202.826 -3.91094 -1.42074 0
M  V30 2142 H 201.702 -4.99057 -2.28546 0
M  V30 2143 H 201.963 -3.35718 -2.87656 0
M  V30 2144 N 201.022 0.148545 -1.56898 0
M  V30 2145 C 202.438 0.501131 -1.51528 0
M  V30 2146 C 202.638 1.83458 -0.833399 0
M  V30 2147 O 201.694 2.49259 -0.40328 0
M  V30 2148 C 203.007 0.512864 -2.96294 0
M  V30 2149 C 204.555 0.598487 -3.07225 0
M  V30 2150 C 205.03 0.640897 -4.53494 0
M  V30 2151 N 206.521 0.703163 -4.57832 0
M  V30 2152 C 207.256 0.756935 -5.68382 0
M  V30 2153 N 206.752 0.770147 -6.88506 0
M  V30 2154 N 208.545 0.797698 -5.56411 0
M  V30 2155 H 200.696 -0.725532 -1.99624 0
M  V30 2156 H 202.959 -0.264358 -0.910395 0
M  V30 2157 H 202.665 -0.398691 -3.49433 0
M  V30 2158 H 202.539 1.35133 -3.52163 0
M  V30 2159 H 204.926 1.50046 -2.54106 0
M  V30 2160 H 205.007 -0.267093 -2.54402 0
M  V30 2161 H 204.651 -0.256915 -5.0725 0
M  V30 2162 H 204.581 1.52295 -5.04097 0
M  V30 2163 H 207.072 0.700314 -3.71354 0
M  V30 2164 H 207.385 0.812983 -7.68512 0
M  V30 2165 H 205.73 0.738049 -6.9107 0
M  V30 2166 H 208.921 0.784535 -4.61479 0
M  V30 2167 H 209.094 0.83614 -6.42583 0
M  V30 2168 N 202.5 1.5196 0.417844 0
M  V30 2169 C 203.747 1.65591 1.16559 0
M  V30 2170 C 204.075 0.381565 1.90721 0
M  V30 2171 O 203.33 -0.635156 1.85106 0
M  V30 2172 C 203.629 2.82269 2.19223 0
M  V30 2173 C 203.295 4.20819 1.61933 0
M  V30 2174 C 201.957 4.58506 1.46033 0
M  V30 2175 C 204.309 5.07196 1.20008 0
M  V30 2176 C 201.637 5.80257 0.867113 0
M  V30 2177 C 203.989 6.29544 0.621086 0
M  V30 2178 C 202.653 6.65987 0.449144 0
M  V30 2179 H 201.923 0.605939 0.42652 0
M  V30 2180 H 204.57 1.86041 0.45397 0
M  V30 2181 H 202.875 2.56118 2.96498 0
M  V30 2182 H 204.572 2.90012 2.76936 0
M  V30 2183 H 201.162 3.91116 1.7529 0
M  V30 2184 H 205.346 4.7867 1.31105 0
M  V30 2185 H 200.602 6.07124 0.721833 0
M  V30 2186 H 204.776 6.95805 0.287798 0
M  V30 2187 H 202.403 7.60199 -0.012632 0
M  V30 2188 N 203.978 -0.674533 1.42435 0
M  V30 2189 C 205.227 -1.43034 1.42212 0
M  V30 2190 C 205.54 -1.95555 0.0420788 0
M  V30 2191 O 206.746 -2.71374 -0.0827558 0
M  V30 2192 C 205.202 -2.58748 2.50155 0
M  V30 2193 C 204.81 -2.12925 3.94166 0
M  V30 2194 C 206.554 -3.36257 2.59098 0
M  V30 2195 C 204.461 -3.25723 4.93618 0
M  V30 2196 H 203.391 -0.537345 0.528939 0
M  V30 2197 H 206.042 -0.73024 1.68344 0
M  V30 2198 H 204.424 -3.31128 2.17188 0
M  V30 2199 H 205.598 -1.47697 4.36488 0
M  V30 2200 H 203.913 -1.48354 3.89076 0
M  V30 2201 H 206.51 -4.20264 3.30578 0
M  V30 2202 H 206.853 -3.82866 1.63461 0
M  V30 2203 H 207.386 -2.70947 2.9126 0
M  V30 2204 H 204.125 -2.84105 5.90732 0
M  V30 2205 H 203.645 -3.89732 4.55926 0
M  V30 2206 H 205.324 -3.91186 5.15347 0
M  V30 2207 N 205.456 -1.28612 -0.910864 0
M  V30 2208 C 206.704 -1.15705 -1.65701 0
M  V30 2209 C 207.025 0.29416 -1.92769 0
M  V30 2210 O 206.295 1.20331 -1.54588 0
M  V30 2211 H 204.875 -0.425216 -0.614167 0
M  V30 2212 H 207.537 -1.61381 -1.0928 0
M  V30 2213 H 206.633 -1.6988 -2.61815 0
M  V30 2214 N 206.934 1.1197 -1.10907 0
M  V30 2215 C 208.345 1.65114 -0.871446 0
M  V30 2216 C 208.696 1.86885 0.597353 0
M  V30 2217 O 207.821 1.59896 1.45816 0
M  V30 2218 C 208.416 2.99944 -1.5754 0
M  V30 2219 C 206.975 3.50018 -1.38435 0
M  V30 2220 C 206.122 2.24941 -1.62164 0
M  V30 2221 H 209.073 0.956851 -1.2661 0
M  V30 2222 H 209.094 3.66651 -1.01721 0
M  V30 2223 H 208.606 2.84067 -2.64438 0
M  V30 2224 H 206.707 3.71071 -0.337214 0
M  V30 2225 H 206.82 4.29165 -2.12965 0
M  V30 2226 H 205.184 2.3229 -1.04467 0
M  V30 2227 H 205.967 2.11612 -2.70324 0
M  V30 2228 N 208.412 0.89855 1.29475 0
M  V30 2229 C 209.637 0.538561 2.00285 0
M  V30 2230 C 210.062 -0.869135 1.66816 0
M  V30 2231 O 209.42 -1.57831 0.892145 0
M  V30 2232 C 209.468 0.736475 3.52999 0
M  V30 2233 O 208.572 -0.211537 4.11857 0
M  V30 2234 H 207.913 0.210563 0.62973 0
M  V30 2235 H 210.443 1.20982 1.64998 0
M  V30 2236 H 210.453 0.640685 4.02938 0
M  V30 2237 H 209.128 1.76276 3.76696 0
M  V30 2238 H 207.705 -0.0682991 3.72837 0
M  V30 2239 N 209.89 -1.43072 0.660911 0
M  V30 2240 C 211.301 -1.84932 0.256348 0
M  V30 2241 C 211.652 -1.55325 -1.19868 0
M  V30 2242 O 210.777 -1.00607 -1.91591 0
M  V30 2243 C 211.372 -3.35684 0.458475 0
M  V30 2244 C 209.931 -3.76245 0.108161 0
M  V30 2245 C 209.078 -2.66749 0.757641 0
M  V30 2246 H 212.029 -1.33116 0.864051 0
M  V30 2247 H 212.05 -3.79365 -0.293683 0
M  V30 2248 H 211.562 -3.572 1.51755 0
M  V30 2249 H 209.663 -3.60338 -0.948014 0
M  V30 2250 H 209.776 -4.76058 0.538992 0
M  V30 2251 H 208.14 -2.53989 0.190185 0
M  V30 2252 H 208.923 -2.91092 1.81989 0
M  V30 2253 N 211.368 -0.403325 -1.52352 0
M  V30 2254 C 212.278 0.432009 -2.30588 0
M  V30 2255 C 213.294 1.05884 -1.38075 0
M  V30 2256 O 214.47 1.06161 -1.71148 0
M  V30 2257 C 211.535 1.53669 -3.10784 0
M  V30 2258 C 210.596 0.933525 -4.19027 0
M  V30 2259 C 209.829 1.98557 -4.9539 0
M  V30 2260 O 210.052 3.20283 -4.71991 0
M  V30 2261 O 208.986 1.59504 -5.80381 0
M  V30 2262 H 212.812 -0.205739 -3.03002 0
M  V30 2263 H 210.397 -0.166675 -1.48467 0
M  V30 2264 H 212.279 2.17814 -3.60742 0
M  V30 2265 H 210.954 2.15915 -2.41169 0
M  V30 2266 H 209.861 0.254954 -3.7323 0
M  V30 2267 H 211.194 0.35508 -4.90918 0
M  V30 2268 N 212.846 1.57033 -0.133567 0
M  V30 2269 C 214.092 1.95976 0.521649 0
M  V30 2270 C 214.425 1.01779 1.65393 0
M  V30 2271 O 213.7 0.0576581 1.94415 0
M  V30 2272 C 213.983 3.44738 1.04057 0
M  V30 2273 C 213.836 4.49711 -0.0892897 0
M  V30 2274 C 215.155 3.95682 1.92675 0
M  V30 2275 H 212.274 0.712579 0.188149 0
M  V30 2276 H 214.916 1.88813 -0.212076 0
M  V30 2277 H 213.066 3.50973 1.66583 0
M  V30 2278 H 214.738 4.55565 -0.725152 0
M  V30 2279 H 212.981 4.27261 -0.750378 0
M  V30 2280 H 213.652 5.51099 0.315284 0
M  V30 2281 H 216.128 3.91841 1.39998 0
M  V30 2282 H 215.004 5.00262 2.25897 0
M  V30 2283 H 215.265 3.37239 2.85872 0
M  V30 2284 N 214.325 -0.140222 1.56975 0
M  V30 2285 C 215.571 -0.852949 1.83991 0
M  V30 2286 C 215.904 -1.80512 0.716187 0
M  V30 2287 O 215.179 -1.92479 -0.279681 0
M  V30 2288 C 215.462 -1.6215 3.21527 0
M  V30 2289 C 215.315 -0.690363 4.4447 0
M  V30 2290 C 216.634 -2.58247 3.56366 0
M  V30 2291 H 213.753 -0.308634 0.669264 0
M  V30 2292 H 216.395 -0.117898 1.89634 0
M  V30 2293 H 214.545 -2.24812 3.16847 0
M  V30 2294 H 216.217 -0.0742264 4.6124 0
M  V30 2295 H 214.46 -0.000396433 4.338 0
M  V30 2296 H 215.131 -1.2643 5.37326 0
M  V30 2297 H 217.607 -2.05701 3.61699 0
M  V30 2298 H 216.483 -3.09067 4.53617 0
M  V30 2299 H 216.744 -3.39923 2.82674 0
M  V30 2300 N 215.803 -1.52179 -0.40978 0
M  V30 2301 C 217.219 -1.40968 -0.74835 0
M  V30 2302 C 217.419 -0.513657 -1.94843 0
M  V30 2303 O 216.475 0.0208026 -2.52491 0
M  V30 2304 C 217.788 -2.83483 -1.0029 0
M  V30 2305 C 219.336 -2.92821 -1.10565 0
M  V30 2306 C 219.811 -4.36303 -1.39296 0
M  V30 2307 N 221.302 -4.39535 -1.46162 0
M  V30 2308 C 222.037 -5.47614 -1.70018 0
M  V30 2309 N 221.533 -6.65812 -1.91483 0
M  V30 2310 N 223.326 -5.35129 -1.72027 0
M  V30 2311 H 215.477 -2.0897 0.380186 0
M  V30 2312 H 217.74 -0.94185 0.107805 0
M  V30 2313 H 217.446 -3.51168 -0.193461 0
M  V30 2314 H 217.32 -3.24487 -1.92323 0
M  V30 2315 H 219.707 -2.25318 -1.90568 0
M  V30 2316 H 219.788 -2.55276 -0.16369 0
M  V30 2317 H 219.432 -5.04366 -0.598109 0
M  V30 2318 H 219.362 -4.71385 -2.34743 0
M  V30 2319 H 221.853 -3.54332 -1.31367 0
M  V30 2320 H 222.166 -7.43964 -2.09134 0
M  V30 2321 H 220.511 -6.68879 -1.88749 0
M  V30 2322 H 223.702 -4.41764 -1.54796 0
M  V30 2323 H 223.875 -6.19433 -1.9028 0
M  V30 2324 N 217.281 0.66697 -1.42791 0
M  V30 2325 C 218.228 1.7803 -1.4688 0
M  V30 2326 C 219.198 1.6299 -0.319919 0
M  V30 2327 O 220.383 1.83432 -0.525118 0
M  V30 2328 C 217.523 3.1611 -1.38451 0
M  V30 2329 C 216.636 3.42381 -2.63437 0
M  V30 2330 C 215.771 4.70232 -2.47094 0
M  V30 2331 C 214.81 4.89564 -3.67415 0
M  V30 2332 N 213.947 6.08661 -3.49966 0
M  V30 2333 H 218.787 1.7387 -2.42019 0
M  V30 2334 H 216.324 0.84868 -1.20149 0
M  V30 2335 H 218.282 3.95914 -1.31561 0
M  V30 2336 H 216.912 3.19374 -0.469033 0
M  V30 2337 H 215.964 2.56774 -2.80662 0
M  V30 2338 H 217.276 3.52557 -3.52853 0
M  V30 2339 H 216.43 5.5814 -2.37834 0
M  V30 2340 H 215.169 4.62353 -1.5518 0
M  V30 2341 H 214.174 4.00096 -3.77099 0
M  V30 2342 H 215.399 4.99282 -4.6032 0
M  V30 2343 H 213.345 6.0194 -2.60776 0
M  V30 2344 H 213.262 6.19733 -4.32975 0
M  V30 2345 H 214.53 6.99226 -3.44532 0
M  V30 2346 N 218.759 1.29093 0.90403 0
M  V30 2347 C 219.692 1.08176 2.00931 0
M  V30 2348 C 220.67 -0.005083 1.62599 0
M  V30 2349 O 221.854 0.144765 1.87943 0
M  V30 2350 C 218.981 0.645897 3.32484 0
M  V30 2351 C 218.027 1.73081 3.89801 0
M  V30 2352 S 218.86 3.32905 4.19446 0
M  V30 2353 C 220.016 2.91176 5.54046 0
M  V30 2354 H 220.249 2.01752 2.18365 0
M  V30 2355 H 217.782 1.13191 1.0501 0
M  V30 2356 H 219.74 0.401131 4.08535 0
M  V30 2357 H 218.401 -0.270188 3.12936 0
M  V30 2358 H 217.594 1.37768 4.84805 0
M  V30 2359 H 217.196 1.92888 3.20422 0
M  V30 2360 H 219.488 2.37952 6.34338 0
M  V30 2361 H 220.431 3.85014 5.94281 0
M  V30 2362 H 220.839 2.296 5.15698 0
M  V30 2363 N 220.237 -1.11381 1.11499 0
M  V30 2364 C 221.485 -1.8277 0.862524 0
M  V30 2365 C 221.806 -1.85097 -0.613534 0
M  V30 2366 O 221.076 -1.32198 -1.4457 0
M  V30 2367 H 219.656 -0.676823 0.316101 0
M  V30 2368 H 222.318 -1.34816 1.4075 0
M  V30 2369 H 221.414 -2.86614 1.23527 0
M  V30 2370 N 221.715 -0.905404 -1.28997 0
M  V30 2371 C 222.992 -0.453513 -1.9027 0
M  V30 2372 C 223.372 1.06721 -1.82137 0
M  V30 2373 O 222.72 1.91159 -1.25182 0
M  V30 2374 C 222.93 -0.974494 -3.35119 0
M  V30 2375 C 224.278 -1.0216 -4.12127 0
M  V30 2376 O 225.302 -0.922557 -3.44046 0
M  V30 2377 O 224.161 -1.17121 -5.33802 0
M  V30 2378 H 221.255 -0.142347 -0.814657 0
M  V30 2379 H 223.801 -0.995642 -1.37423 0
M  V30 2380 H 222.573 -2.01848 -3.35221 0
M  V30 2381 H 222.196 -0.412706 -3.95452 0
M  V30 2382 N 223.193 1.4272 -0.668489 0
M  V30 2383 C 224.14 2.30796 0.0137489 0
M  V30 2384 C 225.11 1.4561 0.799177 0
M  V30 2385 O 226.295 1.74453 0.772702 0
M  V30 2386 C 223.435 3.31377 0.963507 0
M  V30 2387 C 222.548 4.31655 0.172569 0
M  V30 2388 C 221.683 5.19312 1.1175 0
M  V30 2389 C 220.722 6.11274 0.317886 0
M  V30 2390 N 219.859 6.91504 1.2152 0
M  V30 2391 H 224.699 2.88585 -0.743161 0
M  V30 2392 H 222.236 1.42154 -0.378226 0
M  V30 2393 H 224.194 3.88214 1.52792 0
M  V30 2394 H 222.824 2.75202 1.68712 0
M  V30 2395 H 221.876 3.76988 -0.508374 0
M  V30 2396 H 223.188 4.96779 -0.448527 0
M  V30 2397 H 222.342 5.80851 1.75206 0
M  V30 2398 H 221.081 4.5435 1.77249 0
M  V30 2399 H 220.086 5.48809 -0.329918 0
M  V30 2400 H 221.311 6.78283 -0.332917 0
M  V30 2401 H 219.257 6.29176 1.85671 0
M  V30 2402 H 219.174 7.53209 0.649036 0
M  V30 2403 H 220.442 7.57535 1.83742 0
M  V30 2404 N 224.671 0.411399 1.52136 0
M  V30 2405 C 225.917 -0.163888 2.02137 0
M  V30 2406 C 226.25 -1.44597 1.29636 0
M  V30 2407 O 225.525 -1.90272 0.403353 0
M  V30 2408 C 225.808 -0.40927 3.57767 0
M  V30 2409 C 225.661 0.889643 4.40914 0
M  V30 2410 C 226.98 -1.19042 4.23694 0
M  V30 2411 H 224.099 -0.0580896 0.734707 0
M  V30 2412 H 226.741 0.54531 1.82007 0
M  V30 2413 H 224.891 -1.0134 3.7505 0
M  V30 2414 H 226.563 1.52575 4.35337 0
M  V30 2415 H 224.806 1.50011 4.07037 0
M  V30 2416 H 225.477 0.672314 5.4789 0
M  V30 2417 H 227.953 -0.678942 4.10524 0
M  V30 2418 H 226.829 -1.33086 5.32522 0
M  V30 2419 H 227.09 -2.21166 3.82803 0
M  V30 2420 N 226.149 -1.5696 0.141893 0
M  V30 2421 C 227.059 -2.20066 -0.812905 0
M  V30 2422 C 228.075 -1.18344 -1.27557 0
M  V30 2423 O 229.251 -1.50902 -1.33381 0
M  V30 2424 C 226.316 -2.80583 -2.03652 0
M  V30 2425 C 225.377 -3.97414 -1.62359 0
M  V30 2426 C 224.61 -4.55036 -2.78887 0
M  V30 2427 O 224.833 -4.11538 -3.94959 0
M  V30 2428 O 223.767 -5.45376 -2.54653 0
M  V30 2429 H 227.593 -3.02157 -0.305746 0
M  V30 2430 H 225.178 -1.49159 -0.0848799 0
M  V30 2431 H 227.06 -3.19067 -2.75272 0
M  V30 2432 H 225.735 -2.01508 -2.5333 0
M  V30 2433 H 224.642 -3.63656 -0.877775 0
M  V30 2434 H 225.975 -4.77994 -1.17401 0
M  V30 2435 N 227.627 0.131896 -1.57047 0
M  V30 2436 C 228.59 1.14638 -1.98471 0
M  V30 2437 C 229.59 1.35029 -0.873148 0
M  V30 2438 O 230.78 1.31764 -1.13946 0
M  V30 2439 C 227.912 2.50358 -2.31373 0
M  V30 2440 H 229.105 0.79064 -2.8929 0
M  V30 2441 H 226.658 0.375761 -1.51716 0
M  V30 2442 H 227.393 2.90876 -1.43393 0
M  V30 2443 H 227.178 2.36915 -3.12432 0
M  V30 2444 H 228.668 3.23395 -2.64207 0
M  V30 2445 N 229.106 1.52395 0.401703 0
M  V30 2446 C 230.522 1.41363 0.740864 0
M  V30 2447 C 230.722 0.523982 1.94568 0
M  V30 2448 O 229.778 -0.00741204 2.52499 0
M  V30 2449 C 231.091 2.84011 0.987847 0
M  V30 2450 C 232.639 2.93404 1.09011 0
M  V30 2451 C 233.114 4.37036 1.3698 0
M  V30 2452 N 234.605 4.40304 1.43829 0
M  V30 2453 C 235.34 5.48508 1.67112 0
M  V30 2454 N 234.836 6.66819 1.87949 0
M  V30 2455 N 236.629 5.36034 1.69187 0
M  V30 2456 H 228.78 2.08765 -0.391262 0
M  V30 2457 H 231.043 0.941265 -0.112798 0
M  V30 2458 H 230.749 3.51265 0.174835 0
M  V30 2459 H 230.623 3.25502 1.906 0
M  V30 2460 H 233.01 2.26325 1.8937 0
M  V30 2461 H 233.091 2.55359 0.15015 0
M  V30 2462 H 232.735 5.04676 0.571353 0
M  V30 2463 H 232.665 4.72623 2.3224 0
M  V30 2464 H 235.156 3.55024 1.29486 0
M  V30 2465 H 235.469 7.45063 2.05185 0
M  V30 2466 H 233.814 6.6987 1.85199 0
M  V30 2467 H 237.005 4.42579 1.52451 0
M  V30 2468 H 237.178 6.20434 1.86993 0
M  V30 2469 N 230.584 -0.659388 1.43143 0
M  V30 2470 C 231.547 -1.75432 1.47501 0
M  V30 2471 C 232.547 -1.56707 0.360512 0
M  V30 2472 O 233.737 -1.62717 0.622002 0
M  V30 2473 C 230.869 -3.14239 1.32162 0
M  V30 2474 H 232.062 -1.7295 2.45006 0
M  V30 2475 H 229.615 -0.870469 1.29817 0
M  V30 2476 H 230.35 -3.22336 0.356401 0
M  V30 2477 H 230.135 -3.29235 2.12948 0
M  V30 2478 H 231.625 -3.94094 1.3813 0
M  V30 2479 N 232.062 -1.29571 -0.897171 0
M  V30 2480 C 233.311 -1.1706 -1.64256 0
M  V30 2481 C 233.624 0.276476 -1.93636 0
M  V30 2482 O 234.83 0.52294 -2.66416 0
M  V30 2483 C 233.286 -2.0475 -2.95982 0
M  V30 2484 C 232.894 -3.54295 -2.74187 0
M  V30 2485 C 234.638 -2.0097 -3.73914 0
M  V30 2486 C 232.545 -4.34081 -4.01656 0
M  V30 2487 H 231.475 -0.43452 -0.616205 0
M  V30 2488 H 234.126 -1.54229 -0.994268 0
M  V30 2489 H 232.508 -1.60452 -3.62038 0
M  V30 2490 H 233.682 -4.06662 -2.1671 0
M  V30 2491 H 231.997 -3.59773 -2.09648 0
M  V30 2492 H 234.594 -2.57838 -4.68427 0
M  V30 2493 H 234.937 -0.990273 -4.0435 0
M  V30 2494 H 235.47 -2.43325 -3.14703 0
M  V30 2495 H 232.209 -5.36671 -3.76384 0
M  V30 2496 H 231.729 -3.86483 -4.58684 0
M  V30 2497 H 233.408 -4.44877 -4.69781 0
M  V30 2498 N 233.54 1.10788 -1.12088 0
M  V30 2499 C 234.503 2.15207 -0.788577 0
M  V30 2500 C 235.503 1.59609 0.195317 0
M  V30 2501 O 236.693 1.74174 -0.0300193 0
M  V30 2502 C 233.825 3.4047 -0.171174 0
M  V30 2503 H 235.018 2.46116 -1.71368 0
M  V30 2504 H 232.571 1.26089 -0.923652 0
M  V30 2505 H 233.306 3.15176 0.763832 0
M  V30 2506 H 233.091 3.82109 -0.879514 0
M  V30 2507 H 234.581 4.17576 0.04496 0
M  V30 2508 N 235.018 0.912232 1.28515 0
M  V30 2509 C 236.267 0.540504 1.94323 0
M  V30 2510 C 236.58 -0.920044 1.72611 0
M  V30 2511 O 237.786 -1.39986 2.32629 0
M  V30 2512 C 236.242 0.915803 3.48053 0
M  V30 2513 C 235.85 2.39598 3.78546 0
M  V30 2514 C 237.594 0.614588 4.20027 0
M  V30 2515 C 235.501 2.71148 5.25578 0
M  V30 2516 H 234.431 0.198418 0.727424 0
M  V30 2517 H 237.082 1.11094 1.46049 0
M  V30 2518 H 235.464 0.274168 3.9505 0
M  V30 2519 H 236.638 3.08422 3.42364 0
M  V30 2520 H 234.953 2.66749 3.1974 0
M  V30 2521 H 237.55 0.827002 5.28266 0
M  V30 2522 H 237.893 -0.447531 4.13887 0
M  V30 2523 H 238.426 1.21462 3.78803 0
M  V30 2524 H 235.165 3.76207 5.36794 0
M  V30 2525 H 234.685 2.0696 5.62963 0
M  V30 2526 H 236.364 2.58072 5.93302 0
M  V30 2527 N 236.496 -1.42363 0.676048 0
M  V30 2528 C 237.459 -2.29199 0.00766941 0
M  V30 2529 C 238.459 -1.43389 -0.727745 0
M  V30 2530 O 239.649 -1.64764 -0.56556 0
M  V30 2531 C 236.781 -3.2591 -0.999785 0
M  V30 2532 H 237.974 -2.89794 0.771988 0
M  V30 2533 H 235.527 -1.50024 0.438468 0
M  V30 2534 H 236.262 -2.70256 -1.79255 0
M  V30 2535 H 236.047 -3.89202 -0.475829 0
M  V30 2536 H 237.537 -3.91028 -1.46583 0
M  V30 2537 N 237.974 -0.419461 -1.51915 0
M  V30 2538 C 238.937 0.389116 -2.25873 0
M  V30 2539 C 239.937 0.964924 -1.28631 0
M  V30 2540 O 241.127 0.842179 -1.52489 0
M  V30 2541 C 238.259 1.54874 -3.03689 0
M  V30 2542 H 239.452 -0.258799 -2.98781 0
M  V30 2543 H 237.005 -0.172209 -1.55348 0
M  V30 2544 H 237.74 2.23323 -2.35154 0
M  V30 2545 H 237.525 1.14223 -3.75094 0
M  V30 2546 H 239.015 2.12046 -3.59759 0
M  V30 2547 N 239.452 1.56882 -0.150215 0
M  V30 2548 C 240.7 1.9584 0.499105 0
M  V30 2549 C 241.021 1.03623 1.65188 0
M  V30 2550 O 240.291 0.0984084 1.95653 0
M  V30 2551 H 238.871 0.723119 0.187373 0
M  V30 2552 H 241.533 1.9358 -0.226466 0
M  V30 2553 H 240.629 2.99638 0.873122 0
M  V30 2554 N 240.93 -0.123565 1.57115 0
M  V30 2555 C 242.176 -0.833386 1.84885 0
M  V30 2556 C 242.509 -1.79742 0.735292 0
M  V30 2557 O 241.784 -1.92764 -0.25925 0
M  V30 2558 C 242.067 -1.5873 3.23228 0
M  V30 2559 C 241.92 -0.643183 4.45178 0
M  V30 2560 C 243.239 -2.54453 3.59085 0
M  V30 2561 H 240.358 -0.301518 0.6725 0
M  V30 2562 H 243 -0.097778 1.89748 0
M  V30 2563 H 241.15 -2.21438 3.19214 0
M  V30 2564 H 242.822 -0.0253015 4.61293 0
M  V30 2565 H 241.065 0.0456139 4.33776 0
M  V30 2566 H 241.736 -1.20724 5.38637 0
M  V30 2567 H 244.212 -2.01853 3.63861 0
M  V30 2568 H 243.088 -3.04238 4.5687 0
M  V30 2569 H 243.349 -3.36906 2.86264 0
M  V30 2570 N 242.408 -1.52605 -0.393616 0
M  V30 2571 C 243.819 -1.59417 -0.971761 0
M  V30 2572 C 244.17 -0.444173 -1.91106 0
M  V30 2573 O 243.295 0.433382 -2.12016 0
M  V30 2574 C 243.89 -2.88936 -1.76921 0
M  V30 2575 C 242.449 -2.98175 -2.29714 0
M  V30 2576 C 241.596 -2.54491 -1.10135 0
M  V30 2577 H 244.547 -1.57751 -0.173317 0
M  V30 2578 H 244.568 -2.75163 -2.62804 0
M  V30 2579 H 244.08 -3.72616 -1.08532 0
M  V30 2580 H 242.181 -2.19024 -3.01429 0
M  V30 2581 H 242.294 -4.02726 -2.59517 0
M  V30 2582 H 240.658 -2.08702 -1.45999 0
M  V30 2583 H 241.441 -3.4056 -0.432874 0
M  V30 2584 N 243.887 0.651787 -1.4349 0
M  V30 2585 C 245.133 1.41376 -1.45398 0
M  V30 2586 C 245.466 1.94041 -0.0784823 0
M  V30 2587 O 244.741 1.72379 0.900878 0
M  V30 2588 C 245.024 2.59414 -2.49752 0
M  V30 2589 C 244.877 2.12232 -3.96582 0
M  V30 2590 C 246.196 3.61626 -2.50827 0
M  V30 2591 H 243.315 0.512719 -0.529422 0
M  V30 2592 H 245.957 0.738796 -1.75048 0
M  V30 2593 H 244.107 3.16997 -2.246 0
M  V30 2594 H 245.779 1.59639 -4.32797 0
M  V30 2595 H 244.022 1.43592 -4.09346 0
M  V30 2596 H 244.693 2.9712 -4.65214 0
M  V30 2597 H 247.169 3.13805 -2.7325 0
M  V30 2598 H 246.045 4.41766 -3.25783 0
M  V30 2599 H 246.306 4.14314 -1.5426 0
M  V30 2600 N 245.365 1.30045 0.890287 0
M  V30 2601 C 246.611 1.18737 1.64406 0
M  V30 2602 C 246.944 -0.258525 1.92472 0
M  V30 2603 O 246.219 -1.18562 1.54186 0
M  V30 2604 C 246.502 2.01087 2.98724 0
M  V30 2605 C 246.355 3.53867 2.77665 0
M  V30 2606 C 247.674 1.84457 3.9958 0
M  V30 2607 H 244.793 0.432698 0.596608 0
M  V30 2608 H 247.435 1.5962 1.0306 0
M  V30 2609 H 245.585 1.66349 3.51084 0
M  V30 2610 H 247.257 3.98637 2.32133 0
M  V30 2611 H 245.5 3.78318 2.12269 0
M  V30 2612 H 246.171 4.06772 3.7315 0
M  V30 2613 H 248.647 2.14817 3.56361 0
M  V30 2614 H 247.523 2.44411 4.91482 0
M  V30 2615 H 247.784 0.802276 4.3476 0
M  V30 2616 N 246.843 -1.10192 1.12674 0
M  V30 2617 C 248.254 -1.63707 0.897604 0
M  V30 2618 C 248.605 -1.87812 -0.567546 0
M  V30 2619 O 247.73 -1.62196 -1.43253 0
M  V30 2620 C 248.325 -2.974 1.62292 0
M  V30 2621 C 246.884 -3.47772 1.43986 0
M  V30 2622 C 246.031 -2.22332 1.65722 0
M  V30 2623 H 248.982 -0.936587 1.28116 0
M  V30 2624 H 249.003 -3.64986 1.07541 0
M  V30 2625 H 248.515 -2.79824 2.68924 0
M  V30 2626 H 246.616 -3.70487 0.396206 0
M  V30 2627 H 246.729 -4.25723 2.19765 0
M  V30 2628 H 245.093 -2.30599 1.08149 0
M  V30 2629 H 245.876 -2.07285 2.73657 0
M  V30 2630 N 248.321 -0.919034 -1.28029 0
M  V30 2631 C 249.569 -0.553838 -1.94363 0
M  V30 2632 C 249.89 0.906357 -1.72656 0
M  V30 2633 O 249.16 1.64143 -1.0693 0
M  V30 2634 H 247.74 -0.201834 -0.719216 0
M  V30 2635 H 250.402 -1.16954 -1.55909 0
M  V30 2636 H 249.498 -0.752758 -3.02886 0
M  V30 2637 N 249.799 1.42003 -0.683588 0
M  V30 2638 C 251.027 2.05746 -0.218182 0
M  V30 2639 C 251.442 1.51396 1.12804 0
M  V30 2640 O 250.799 0.657303 1.70252 0
M  V30 2641 C 250.85 3.61171 -0.154131 0
M  V30 2642 O 250.571 4.13508 -1.44716 0
M  V30 2643 C 252.072 4.42042 0.333713 0
M  V30 2644 H 249.292 0.662888 -0.10402 0
M  V30 2645 H 251.836 1.81987 -0.9328 0
M  V30 2646 H 249.991 3.84012 0.511231 0
M  V30 2647 H 250.405 5.07453 -1.32632 0
M  V30 2648 H 251.879 5.51028 0.327423 0
M  V30 2649 H 252.356 4.17269 1.37053 0
M  V30 2650 H 252.962 4.24239 -0.300222 0
M  V30 2651 N 251.277 0.427512 1.51691 0
M  V30 2652 C 252.554 -0.201684 1.94557 0
M  V30 2653 C 252.934 -1.60981 1.36559 0
M  V30 2654 O 252.282 -2.21814 0.548702 0
M  V30 2655 C 252.492 -0.189394 3.48486 0
M  V30 2656 C 253.84 -0.39978 4.22714 0
M  V30 2657 O 254.864 -0.267945 3.55191 0
M  V30 2658 O 253.723 -0.661249 5.42485 0
M  V30 2659 H 250.817 -0.135261 0.815864 0
M  V30 2660 H 253.363 0.484782 1.62628 0
M  V30 2661 H 252.135 0.795431 3.8313 0
M  V30 2662 H 251.758 -0.919187 3.86829 0
M  V30 2663 N 252.755 -1.56801 0.158532 0
M  V30 2664 C 253.718 -2.16138 -0.762705 0
M  V30 2665 C 254.718 -1.1061 -1.16713 0
M  V30 2666 O 255.908 -1.36191 -1.08617 0
M  V30 2667 C 253.04 -2.73386 -2.03649 0
M  V30 2668 H 254.233 -2.98886 -0.246354 0
M  V30 2669 H 251.786 -1.56035 -0.0909744 0
M  V30 2670 H 252.521 -1.94335 -2.59623 0
M  V30 2671 H 252.306 -3.50601 -1.75559 0
M  V30 2672 H 253.796 -3.19065 -2.6942 0
M  V30 2673 N 254.233 0.115231 -1.57178 0
M  V30 2674 C 255.644 0.67197 -1.74188 0
M  V30 2675 C 255.995 1.80125 -0.777777 0
M  V30 2676 O 255.12 2.16346 0.0484376 0
M  V30 2677 C 255.715 1.22573 -3.1585 0
M  V30 2678 C 254.274 1.72872 -3.34353 0
M  V30 2679 C 253.421 0.629972 -2.70049 0
M  V30 2680 H 256.372 -0.110712 -1.58313 0
M  V30 2681 H 256.393 2.09535 -3.17609 0
M  V30 2682 H 255.905 0.403598 -3.85996 0
M  V30 2683 H 254.006 2.5755 -2.69256 0
M  V30 2684 H 254.119 1.83557 -4.42542 0
M  V30 2685 H 252.483 1.0645 -2.31388 0
M  V30 2686 H 253.266 -0.181241 -3.42821 0
M  V30 2687 N 255.711 1.52812 0.385517 0
M  V30 2688 C 256.96 1.67249 1.12741 0
M  V30 2689 C 257.273 0.4205 1.91027 0
M  V30 2690 O 258.479 0.445064 2.67827 0
M  V30 2691 C 256.935 2.95583 2.05326 0
M  V30 2692 C 256.543 4.27974 1.32447 0
M  V30 2693 C 258.287 3.19386 2.7963 0
M  V30 2694 C 256.194 5.47412 2.23818 0
M  V30 2695 H 255.124 0.6231 0.424573 0
M  V30 2696 H 257.775 1.79309 0.389924 0
M  V30 2697 H 256.157 2.77277 2.82725 0
M  V30 2698 H 257.331 4.56844 0.602495 0
M  V30 2699 H 255.646 4.10459 0.700885 0
M  V30 2700 H 258.243 4.05801 3.48181 0
M  V30 2701 H 258.586 2.34604 3.43899 0
M  V30 2702 H 259.119 3.38274 2.09322 0
M  V30 2703 H 255.858 6.34612 1.64157 0
M  V30 2704 H 255.378 5.22849 2.93921 0
M  V30 2705 H 257.057 5.81423 2.83824 0
M  V30 2706 N 257.189 -0.644168 1.43834 0
M  V30 2707 C 258.417 -1.43147 1.49387 0
M  V30 2708 C 258.832 -1.88452 0.114583 0
M  V30 2709 O 258.189 -1.60047 -0.876989 0
M  V30 2710 C 258.24 -2.66046 2.44748 0
M  V30 2711 O 257.961 -2.22633 3.77314 0
M  V30 2712 C 259.462 -3.59311 2.59635 0
M  V30 2713 H 256.682 -0.439447 0.507077 0
M  V30 2714 H 259.226 -0.78895 1.88669 0
M  V30 2715 H 257.381 -3.26418 2.08638 0
M  V30 2716 H 257.795 -3.02216 4.28679 0
M  V30 2717 H 259.269 -4.42187 3.30416 0
M  V30 2718 H 259.746 -4.07259 1.64427 0
M  V30 2719 H 260.352 -3.04816 2.96593 0
M  V30 2720 N 258.668 -1.30515 -0.883378 0
M  V30 2721 C 259.893 -1.22487 -1.67367 0
M  V30 2722 C 260.318 0.208767 -1.86938 0
M  V30 2723 O 259.676 1.15015 -1.40148 0
M  V30 2724 C 259.724 -1.96041 -3.02655 0
M  V30 2725 O 258.828 -1.28859 -3.91751 0
M  V30 2726 H 258.169 -0.423573 -0.511353 0
M  V30 2727 H 260.699 -1.72362 -1.10239 0
M  V30 2728 H 260.709 -2.05124 -3.52687 0
M  V30 2729 H 259.384 -3.00307 -2.8773 0
M  V30 2730 H 257.961 -1.28141 -3.50192 0
M  V30 2731 N 260.146 1.09593 -1.13257 0
M  V30 2732 C 261.076 2.18214 -0.830946 0
M  V30 2733 C 262.057 1.68812 0.208966 0
M  V30 2734 O 263.242 1.9408 0.0682666 0
M  V30 2735 C 260.372 3.46051 -0.294296 0
M  V30 2736 C 259.326 4.08778 -1.26826 0
M  V30 2737 C 258.652 5.31419 -0.591449 0
M  V30 2738 C 259.952 4.51476 -2.62615 0
M  V30 2739 H 261.646 2.43703 -1.73923 0
M  V30 2740 H 259.192 1.17128 -0.837675 0
M  V30 2741 H 261.145 4.2134 -0.0709606 0
M  V30 2742 H 259.869 3.20079 0.649366 0
M  V30 2743 H 258.528 3.35505 -1.47756 0
M  V30 2744 H 258.176 5.01727 0.357633 0
M  V30 2745 H 257.876 5.74341 -1.24123 0
M  V30 2746 H 259.4 6.09433 -0.377355 0
M  V30 2747 H 260.814 5.17999 -2.45663 0
M  V30 2748 H 259.211 5.05277 -3.23752 0
M  V30 2749 H 260.281 3.63962 -3.20406 0
M  V30 2750 N 261.624 0.925811 1.2754 0
M  V30 2751 C 262.574 0.394488 2.24561 0
M  V30 2752 C 263.558 -0.500183 1.52928 0
M  V30 2753 O 264.75 -0.337936 1.73744 0
M  V30 2754 C 261.879 -0.353328 3.41477 0
M  V30 2755 C 260.965 0.557752 4.20416 0
M  V30 2756 N 261.356 1.67674 4.77199 0
M  V30 2757 C 259.654 0.360404 4.44541 0
M  V30 2758 C 260.355 2.24324 5.36706 0
M  V30 2759 N 259.331 1.53305 5.21535 0
M  V30 2760 H 263.133 1.2489 2.66045 0
M  V30 2761 H 260.647 0.779864 1.4245 0
M  V30 2762 H 262.644 -0.7509 4.10082 0
M  V30 2763 H 261.304 -1.20469 3.01525 0
M  V30 2764 H 262.315 2.05915 4.75204 0
M  V30 2765 H 258.992 -0.450454 4.15063 0
M  V30 2766 H 260.382 3.18521 5.91603 0
M  V30 2767 N 263.102 -1.41638 0.69111 0
M  V30 2768 C 264.012 -2.34588 0.0233487 0
M  V30 2769 C 265.028 -1.55987 -0.770984 0
M  V30 2770 O 266.204 -1.88486 -0.709569 0
M  V30 2771 C 263.269 -3.34684 -0.904851 0
M  V30 2772 C 262.33 -4.29176 -0.103225 0
M  V30 2773 C 261.563 -5.2449 -0.987216 0
M  V30 2774 O 261.786 -5.2514 -2.22674 0
M  V30 2775 O 260.72 -6.00295 -0.439281 0
M  V30 2776 H 264.546 -2.93261 0.789416 0
M  V30 2777 H 262.131 -1.42417 0.45142 0
M  V30 2778 H 264.013 -3.96133 -1.43724 0
M  V30 2779 H 262.688 -2.78461 -1.65049 0
M  V30 2780 H 261.595 -3.71089 0.473655 0
M  V30 2781 H 262.928 -4.88484 0.60365 0
M  V30 2782 N 264.58 -0.43555 -1.51462 0
M  V30 2783 C 265.543 0.365137 -2.26273 0
M  V30 2784 C 266.543 0.951227 -1.29647 0
M  V30 2785 O 267.733 0.825958 -1.53374 0
M  V30 2786 C 264.865 1.51645 -3.05314 0
M  V30 2787 H 266.058 -0.290474 -2.9849 0
M  V30 2788 H 263.611 -0.188676 -1.55157 0
M  V30 2789 H 264.346 2.20816 -2.3751 0
M  V30 2790 H 264.131 1.10238 -3.76284 0
M  V30 2791 H 265.621 2.08218 -3.61987 0
M  V30 2792 N 266.058 1.56714 -0.166846 0
M  V30 2793 C 267.008 2.14338 0.777382 0
M  V30 2794 C 267.992 1.07642 1.19591 0
M  V30 2795 O 269.184 1.33775 1.15902 0
M  V30 2796 C 266.313 2.78417 2.00846 0
M  V30 2797 C 265.399 3.92264 1.61212 0
M  V30 2798 N 265.79 4.97268 0.925104 0
M  V30 2799 C 264.088 4.03342 1.90346 0
M  V30 2800 C 264.789 5.77093 0.730627 0
M  V30 2801 N 263.765 5.2854 1.27067 0
M  V30 2802 H 267.567 2.9289 0.243466 0
M  V30 2803 H 265.081 1.62364 0.0339954 0
M  V30 2804 H 267.078 3.18073 2.69509 0
M  V30 2805 H 265.738 2.01344 2.54736 0
M  V30 2806 H 266.749 5.14601 0.583646 0
M  V30 2807 H 263.426 3.37368 2.45946 0
M  V30 2808 H 264.816 6.71638 0.187668 0
M  V30 2809 N 267.536 -0.106894 1.57237 0
M  V30 2810 C 268.446 -1.14911 2.0453 0
M  V30 2811 C 269.462 -1.44592 0.96795 0
M  V30 2812 O 270.638 -1.55468 1.2803 0
M  V30 2813 C 267.703 -2.45272 2.45036 0
M  V30 2814 C 266.764 -2.22879 3.66911 0
M  V30 2815 C 265.997 -3.47024 4.05475 0
M  V30 2816 O 266.22 -4.54804 3.44252 0
M  V30 2817 O 265.154 -3.3731 4.98504 0
M  V30 2818 H 268.98 -0.777461 2.9358 0
M  V30 2819 H 266.565 -0.318563 1.45964 0
M  V30 2820 H 268.447 -3.22055 2.71769 0
M  V30 2821 H 267.122 -2.81886 1.59129 0
M  V30 2822 H 266.029 -1.43915 3.45311 0
M  V30 2823 H 267.362 -1.91163 4.53561 0
M  V30 2824 N 269.014 -1.53014 -0.377408 0
M  V30 2825 C 270.261 -1.68623 -1.12128 0
M  V30 2826 C 270.589 -0.431997 -1.89642 0
M  V30 2827 O 269.844 0.585855 -1.86725 0
M  V30 2828 C 270.143 -2.87982 -2.11663 0
M  V30 2829 C 269.809 -4.24964 -1.50719 0
M  V30 2830 C 268.471 -4.62217 -1.33825 0
M  V30 2831 C 270.823 -5.10199 -1.06519 0
M  V30 2832 C 268.151 -5.82352 -0.712963 0
M  V30 2833 C 270.503 -6.30969 -0.453955 0
M  V30 2834 C 269.167 -6.66944 -0.272411 0
M  V30 2835 H 268.437 -0.617034 -0.410305 0
M  V30 2836 H 271.084 -1.8718 -0.404484 0
M  V30 2837 H 269.389 -2.63889 -2.89603 0
M  V30 2838 H 271.086 -2.97253 -2.6915 0
M  V30 2839 H 267.676 -3.95626 -1.64858 0
M  V30 2840 H 271.86 -4.81978 -1.18368 0
M  V30 2841 H 267.116 -6.08824 -0.560611 0
M  V30 2842 H 271.29 -6.96324 -0.103217 0
M  V30 2843 H 268.917 -7.59898 0.214181 0
M  V30 2844 N 270.492 0.636531 -1.44174 0
M  V30 2845 C 271.717 1.42847 -1.50364 0
M  V30 2846 C 272.142 1.87665 -0.127867 0
M  V30 2847 O 271.5 1.58408 0.88185 0
M  V30 2848 C 271.548 2.62854 -2.4686 0
M  V30 2849 O 270.652 3.62501 -1.9664 0
M  V30 2850 H 269.993 0.427642 -0.507955 0
M  V30 2851 H 272.523 0.777422 -1.89255 0
M  V30 2852 H 272.533 3.10465 -2.64718 0
M  V30 2853 H 271.208 2.29578 -3.46795 0
M  V30 2854 H 269.785 3.21735 -1.88523 0
M  V30 2855 N 271.97 1.30982 0.876444 0
M  V30 2856 C 272.918 1.18006 2.00443 0
M  V30 2857 C 273.912 0.0898871 1.69161 0
M  V30 2858 O 275.118 0.251333 1.78237 0
M  V30 2859 H 271.493 0.365196 0.65737 0
M  V30 2860 H 273.464 2.13453 2.0852 0
M  V30 2861 C 272.213 0.897521 3.35916 0
M  V30 2862 H 271.536 1.7285 3.60504 0
M  V30 2863 H 272.976 0.846874 4.15456 0
M  V30 2864 C 271.435 -0.399674 3.34521 0
M  V30 2865 O 271.965 -1.41852 3.7582 0
M  V30 2866 N 270.171 -0.413893 2.87637 0
M  V30 2867 H 269.718 0.41571 2.54224 0
M  V30 2868 H 269.676 -1.28175 2.87086 0
M  V30 2869 N 273.449 -1.08991 1.13837 0
M  V30 2870 C 274.677 -1.85011 0.926202 0
M  V30 2871 C 275.092 -1.8135 -0.525127 0
M  V30 2872 O 274.449 -1.21287 -1.36366 0
M  V30 2873 C 274.5 -3.32802 1.41155 0
M  V30 2874 O 274.221 -3.36444 2.80601 0
M  V30 2875 C 275.722 -4.25649 1.23847 0
M  V30 2876 H 272.942 -0.584249 0.32999 0
M  V30 2877 H 275.486 -1.37688 1.51202 0
M  V30 2878 H 273.641 -3.77536 0.868631 0
M  V30 2879 H 274.055 -4.28657 3.02248 0
M  V30 2880 H 275.529 -5.27485 1.62675 0
M  V30 2881 H 276.006 -4.38828 0.18065 0
M  V30 2882 H 276.612 -3.86735 1.76964 0
M  V30 2883 N 274.927 -0.932562 -1.27047 0
M  V30 2884 C 276.157 -0.591173 -1.97961 0
M  V30 2885 C 276.565 0.836219 -1.69717 0
M  V30 2886 O 275.908 1.56801 -0.957036 0
M  V30 2887 C 275.97 -0.743082 -3.51736 0
M  V30 2888 C 275.634 -2.1435 -4.03613 0
M  V30 2889 C 276.631 -3.11815 -4.16014 0
M  V30 2890 C 274.316 -2.46175 -4.37839 0
M  V30 2891 C 276.31 -4.39211 -4.61923 0
M  V30 2892 C 273.997 -3.73806 -4.83438 0
M  V30 2893 C 274.995 -4.70137 -4.95439 0
M  V30 2894 O 274.683 -5.95496 -5.40037 0
M  V30 2895 H 274.415 -0.222375 -0.638377 0
M  V30 2896 H 276.969 -1.25317 -1.62742 0
M  V30 2897 H 275.199 -0.0239739 -3.86693 0
M  V30 2898 H 276.888 -0.40603 -4.03864 0
M  V30 2899 H 277.654 -2.88549 -3.89826 0
M  V30 2900 H 273.533 -1.71936 -4.27737 0
M  V30 2901 H 277.077 -5.14404 -4.71205 0
M  V30 2902 H 272.974 -3.96888 -5.09068 0
M  V30 2903 H 273.742 -5.98554 -5.58279 0
M  V30 2904 N 276.405 1.4127 -0.698611 0
M  V30 2905 C 277.653 2.00782 -0.230409 0
M  V30 2906 C 277.974 1.5562 1.17505 0
M  V30 2907 O 277.244 0.78815 1.79346 0
M  V30 2908 H 275.824 0.742464 -0.0821944 0
M  V30 2909 H 278.486 1.72852 -0.90045 0
M  V30 2910 H 277.582 3.11095 -0.25021 0
M  V30 2911 N 277.883 0.443576 1.51229 0
M  V30 2912 C 279.13 -0.120796 2.02139 0
M  V30 2913 C 279.458 -1.42166 1.32736 0
M  V30 2914 O 278.713 -1.90849 0.43301 0
M  V30 2915 C 279.012 -0.380579 3.55368 0
M  V30 2916 C 278.678 0.83523 4.43097 0
M  V30 2917 C 277.34 1.16864 4.66794 0
M  V30 2918 C 279.692 1.64601 4.94526 0
M  V30 2919 C 277.02 2.31339 5.39165 0
M  V30 2920 C 279.372 2.78181 5.68153 0
M  V30 2921 C 278.036 3.11969 5.90112 0
M  V30 2922 H 277.306 -0.0442023 0.73968 0
M  V30 2923 H 279.953 0.592046 1.82118 0
M  V30 2924 H 278.258 -1.17538 3.73754 0
M  V30 2925 H 279.955 -0.830777 3.923 0
M  V30 2926 H 276.545 0.565437 4.24854 0
M  V30 2927 H 280.729 1.40163 4.76097 0
M  V30 2928 H 275.985 2.57823 5.5438 0
M  V30 2929 H 280.159 3.41371 6.06992 0
M  V30 2930 H 277.786 4.00784 6.45969 0
M  V30 2931 N 279.361 -1.56624 0.175154 0
M  V30 2932 C 280.772 -1.83561 -0.340916 0
M  V30 2933 C 281.123 -1.09511 -1.62794 0
M  V30 2934 O 280.248 -0.349389 -2.13561 0
M  V30 2935 C 280.843 -3.32979 -0.625313 0
M  V30 2936 C 279.402 -3.60399 -1.08581 0
M  V30 2937 C 278.549 -2.77024 -0.123722 0
M  V30 2938 H 281.5 -1.53593 0.399344 0
M  V30 2939 H 281.521 -3.50666 -1.47694 0
M  V30 2940 H 281.033 -3.86847 0.311575 0
M  V30 2941 H 279.134 -3.11945 -2.03767 0
M  V30 2942 H 279.247 -4.68711 -0.992317 0
M  V30 2943 H 277.611 -2.46993 -0.621821 0
M  V30 2944 H 278.394 -3.33674 0.807256 0
M  V30 2945 N 280.839 0.0985539 -1.57292 0
M  V30 2946 C 282.088 0.801358 -1.85098 0
M  V30 2947 C 282.401 1.80066 -0.763902 0
M  V30 2948 O 283.607 2.55112 -0.928981 0
M  V30 2949 C 282.063 1.47599 -3.28242 0
M  V30 2950 C 281.671 0.516624 -4.45011 0
M  V30 2951 C 283.415 2.16272 -3.65276 0
M  V30 2952 C 281.322 1.19564 -5.79188 0
M  V30 2953 H 280.252 0.303022 -0.69043 0
M  V30 2954 H 282.903 0.0542623 -1.8342 0
M  V30 2955 H 281.285 2.27042 -3.2445 0
M  V30 2956 H 282.459 -0.246065 -4.60143 0
M  V30 2957 H 280.774 -0.064227 -4.1635 0
M  V30 2958 H 283.371 2.67802 -4.62803 0
M  V30 2959 H 283.714 2.95009 -2.93727 0
M  V30 2960 H 284.247 1.43693 -3.70941 0
M  V30 2961 H 280.986 0.449157 -6.53959 0
M  V30 2962 H 280.506 1.92984 -5.67906 0
M  V30 2963 H 282.185 1.7231 -6.23633 0
M  V30 2964 N 282.317 1.53212 0.369288 0
M  V30 2965 C 283.566 1.68436 1.10961 0
M  V30 2966 C 283.879 0.440738 1.9057 0
M  V30 2967 O 285.085 0.473446 2.6734 0
M  V30 2968 C 283.541 2.97744 2.0218 0
M  V30 2969 C 283.149 4.29355 1.279 0
M  V30 2970 C 284.893 3.22334 2.76226 0
M  V30 2971 C 282.8 5.49755 2.17999 0
M  V30 2972 H 281.73 0.627568 0.41794 0
M  V30 2973 H 284.381 1.79713 0.370884 0
M  V30 2974 H 282.763 2.8026 2.79768 0
M  V30 2975 H 283.937 4.57458 0.554007 0
M  V30 2976 H 282.252 4.11179 0.657311 0
M  V30 2977 H 284.849 4.09471 3.43857 0
M  V30 2978 H 285.192 2.38238 3.41392 0
M  V30 2979 H 285.725 3.40475 2.05723 0
M  V30 2980 H 282.464 6.36318 1.57417 0
M  V30 2981 H 281.984 5.25937 2.88359 0
M  V30 2982 H 283.663 5.84401 2.77641 0
M  V30 2983 N 283.795 -0.628877 1.44509 0
M  V30 2984 C 285.042 -1.38839 1.47411 0
M  V30 2985 C 285.37 -1.94202 0.10757 0
M  V30 2986 O 284.625 -1.74243 -0.890947 0
M  V30 2987 C 284.924 -2.56995 2.48371 0
M  V30 2988 C 284.59 -2.19908 3.93639 0
M  V30 2989 C 283.252 -2.09506 4.33198 0
M  V30 2990 C 285.604 -1.9064 4.85083 0
M  V30 2991 C 282.932 -1.68028 5.62124 0
M  V30 2992 C 285.284 -1.50655 6.14399 0
M  V30 2993 C 283.948 -1.38796 6.5291 0
M  V30 2994 H 283.218 -0.508048 0.539414 0
M  V30 2995 H 285.865 -0.712913 1.77735 0
M  V30 2996 H 284.17 -3.29786 2.11538 0
M  V30 2997 H 285.867 -3.15223 2.47861 0
M  V30 2998 H 282.457 -2.28922 3.62343 0
M  V30 2999 H 286.641 -1.97585 4.55273 0
M  V30 3000 H 281.897 -1.57452 5.90778 0
M  V30 3001 H 286.071 -1.27048 6.84713 0
M  V30 3002 H 283.698 -1.06429 7.52713 0
M  V30 3003 N 285.273 -1.31445 -0.869486 0
M  V30 3004 C 286.22 -1.19135 -1.97675 0
M  V30 3005 C 287.19 -0.0770266 -1.65921 0
M  V30 3006 O 288.375 -0.249972 -1.89155 0
M  V30 3007 C 285.515 -0.905149 -3.33018 0
M  V30 3008 C 284.628 -2.10285 -3.77365 0
M  V30 3009 C 283.763 -1.75339 -5.01427 0
M  V30 3010 C 282.802 -2.91515 -5.38224 0
M  V30 3011 N 281.939 -2.56762 -6.53466 0
M  V30 3012 H 286.779 -2.13853 -2.07535 0
M  V30 3013 H 284.316 -1.06379 -1.01597 0
M  V30 3014 H 286.274 -0.719765 -4.10944 0
M  V30 3015 H 284.904 0.00519624 -3.228 0
M  V30 3016 H 283.956 -2.39899 -2.95216 0
M  V30 3017 H 285.268 -2.97237 -4.00564 0
M  V30 3018 H 284.422 -1.53266 -5.87022 0
M  V30 3019 H 283.161 -0.855801 -4.80133 0
M  V30 3020 H 282.166 -3.14237 -4.51149 0
M  V30 3021 H 283.391 -3.81985 -5.61484 0
M  V30 3022 H 281.337 -1.69526 -6.33717 0
M  V30 3023 H 281.254 -3.37243 -6.76612 0
M  V30 3024 H 282.522 -2.38083 -7.42251 0
M  V30 3025 N 286.751 1.08385 -1.14413 0
M  V30 3026 C 287.714 2.13486 -0.834048 0
M  V30 3027 C 288.714 1.59988 0.161418 0
M  V30 3028 O 289.904 1.74071 -0.0669575 0
M  V30 3029 C 287.036 3.4003 -0.243354 0
M  V30 3030 H 288.229 2.42425 -1.7655 0
M  V30 3031 H 285.782 1.24101 -0.950189 0
M  V30 3032 H 286.517 3.16726 0.696807 0
M  V30 3033 H 286.302 3.80157 -0.960367 0
M  V30 3034 H 287.792 4.17577 -0.0436242 0
M  V30 3035 N 288.23 0.939286 1.26551 0
M  V30 3036 C 289.193 0.451987 2.24699 0
M  V30 3037 C 290.193 -0.435869 1.5478 0
M  V30 3038 O 291.383 -0.235314 1.72603 0
M  V30 3039 C 288.515 -0.348801 3.39111 0
M  V30 3040 H 289.708 1.3193 2.69322 0
M  V30 3041 H 287.261 0.721072 1.38673 0
M  V30 3042 H 287.996 -1.23444 2.99887 0
M  V30 3043 H 287.781 0.287945 3.91041 0
M  V30 3044 H 289.271 -0.679726 4.12031 0
M  V30 3045 N 289.708 -1.40897 0.706093 0
M  V30 3046 C 290.938 -2.05075 0.250523 0
M  V30 3047 C 291.346 -1.53275 -1.10921 0
M  V30 3048 O 290.689 -0.680281 -1.7064 0
M  V30 3049 C 290.751 -3.59219 0.142178 0
M  V30 3050 C 290.415 -4.33864 1.43566 0
M  V30 3051 C 291.412 -4.62448 2.37566 0
M  V30 3052 C 289.097 -4.72946 1.69195 0
M  V30 3053 C 291.091 -5.29088 3.5545 0
M  V30 3054 C 288.778 -5.3932 2.87362 0
M  V30 3055 C 289.776 -5.6732 3.80312 0
M  V30 3056 O 289.464 -6.32325 4.96408 0
M  V30 3057 H 289.196 -0.666645 0.112074 0
M  V30 3058 H 291.75 -1.81467 0.962239 0
M  V30 3059 H 289.98 -3.81609 -0.6254 0
M  V30 3060 H 291.669 -4.0495 -0.277584 0
M  V30 3061 H 292.435 -4.32727 2.19027 0
M  V30 3062 H 288.314 -4.50527 0.977042 0
M  V30 3063 H 291.858 -5.50859 4.28018 0
M  V30 3064 H 287.755 -5.68461 3.05814 0
M  V30 3065 H 288.523 -6.50821 4.9636 0
M  V30 3066 N 291.186 -0.45159 -1.50991 0
M  V30 3067 C 292.434 0.109857 -2.01801 0
M  V30 3068 C 292.755 1.41958 -1.3369 0
M  V30 3069 O 292.025 1.9003 -0.475951 0
M  V30 3070 H 290.605 0.0435884 -0.745727 0
M  V30 3071 H 293.267 -0.597557 -1.85514 0
M  V30 3072 H 292.363 0.275489 -3.10882 0
M  V30 3073 N 292.664 1.56529 -0.183458 0
M  V30 3074 C 293.912 1.96855 0.457452 0
M  V30 3075 C 294.233 1.07104 1.62953 0
M  V30 3076 O 293.503 0.139887 1.954 0
M  V30 3077 H 292.083 0.72693 0.171992 0
M  V30 3078 H 294.745 1.93056 -0.267476 0
M  V30 3079 H 293.841 3.01423 0.809368 0
M  V30 3080 N 294.142 -0.090211 1.57342 0
M  V30 3081 C 295.39 -0.791241 1.85967 0
M  V30 3082 C 295.711 -1.7903 0.772859 0
M  V30 3083 O 294.981 -1.94872 -0.200398 0
M  V30 3084 H 293.561 -0.295205 0.686195 0
M  V30 3085 H 296.223 -0.0706782 1.94772 0
M  V30 3086 H 295.319 -1.31882 2.82867 0
M  V30 3087 N 295.62 -1.53406 -0.361157 0
M  V30 3088 C 296.868 -1.69467 -1.10115 0
M  V30 3089 C 297.189 -0.451352 -1.89705 0
M  V30 3090 O 296.459 0.534636 -1.88463 0
M  V30 3091 H 295.039 -0.624749 -0.409508 0
M  V30 3092 H 297.701 -1.90609 -0.406699 0
M  V30 3093 H 296.797 -2.55774 -1.78847 0
M  V30 3094 N 297.098 0.621204 -1.44841 0
M  V30 3095 C 298.514 0.94048 -1.28946 0
M  V30 3096 C 298.714 2.00154 -0.23249 0
M  V30 3097 O 297.77 2.49651 0.378237 0
M  V30 3098 C 299.083 1.39433 -2.66419 0
M  V30 3099 C 300.631 1.50927 -2.74208 0
M  V30 3100 C 301.106 1.99692 -4.12174 0
M  V30 3101 N 302.597 2.06947 -4.144 0
M  V30 3102 C 303.332 2.45871 -5.1801 0
M  V30 3103 N 302.828 2.83862 -6.31977 0
M  V30 3104 N 304.621 2.46092 -5.05366 0
M  V30 3105 H 296.772 -0.0803548 -2.12248 0
M  V30 3106 H 299.035 0.0266913 -0.947624 0
M  V30 3107 H 298.741 0.688925 -3.44887 0
M  V30 3108 H 298.615 2.36347 -2.93973 0
M  V30 3109 H 301.002 2.20561 -1.96053 0
M  V30 3110 H 301.083 0.523627 -2.50383 0
M  V30 3111 H 300.727 1.30649 -4.90809 0
M  V30 3112 H 300.657 2.99146 -4.33381 0
M  V30 3113 H 303.148 1.80232 -3.32152 0
M  V30 3114 H 303.461 3.12405 -7.0684 0
M  V30 3115 H 301.806 2.8159 -6.35399 0
M  V30 3116 H 304.997 2.1581 -4.15384 0
M  V30 3117 H 305.17 2.76102 -5.86235 0
M  V30 3118 N 298.576 1.31904 0.862503 0
M  V30 3119 C 299.824 1.21776 1.61292 0
M  V30 3120 C 300.145 -0.222413 1.93727 0
M  V30 3121 O 299.415 -1.1451 1.58947 0
M  V30 3122 H 297.995 0.447717 0.597962 0
M  V30 3123 H 300.657 1.65326 1.03215 0
M  V30 3124 H 299.753 1.7948 2.5533 0
M  V30 3125 N 300.054 -1.07777 1.14986 0
M  V30 3126 C 300.987 -2.14228 0.786243 0
M  V30 3127 C 301.965 -1.60888 -0.235347 0
M  V30 3128 O 303.149 -1.88099 -0.122909 0
M  V30 3129 C 300.276 -3.38281 0.168433 0
M  V30 3130 C 299.322 -4.10387 1.16123 0
M  V30 3131 S 300.155 -4.62371 2.70135 0
M  V30 3132 C 301.311 -5.89704 2.09762 0
M  V30 3133 H 301.544 -2.44741 1.68787 0
M  V30 3134 H 299.077 -1.19984 0.971756 0
M  V30 3135 H 301.035 -4.10098 -0.181588 0
M  V30 3136 H 299.696 -3.05953 -0.710725 0
M  V30 3137 H 298.889 -4.99431 0.677086 0
M  V30 3138 H 298.491 -3.44513 1.45556 0
M  V30 3139 H 300.783 -6.61648 1.45701 0
M  V30 3140 H 301.726 -6.42824 2.96955 0
M  V30 3141 H 302.134 -5.4302 1.54239 0
M  V30 3142 N 301.532 -0.945985 -1.26051 0
M  V30 3143 C 302.948 -0.649045 -1.45807 0
M  V30 3144 C 303.148 0.796158 -1.85104 0
M  V30 3145 O 302.204 1.57233 -1.97571 0
M  V30 3146 C 303.517 -1.61458 -2.53677 0
M  V30 3147 C 305.065 -1.62481 -2.67524 0
M  V30 3148 C 305.54 -2.57776 -3.7857 0
M  V30 3149 N 307.031 -2.5609 -3.85969 0
M  V30 3150 C 307.766 -3.26508 -4.7136 0
M  V30 3151 N 307.262 -4.0637 -5.61102 0
M  V30 3152 N 309.055 -3.15437 -4.65248 0
M  V30 3153 H 301.206 -1.88005 -0.988328 0
M  V30 3154 H 303.469 -0.808198 -0.4955 0
M  V30 3155 H 303.175 -2.64644 -2.31638 0
M  V30 3156 H 303.049 -1.37036 -3.51427 0
M  V30 3157 H 305.436 -0.600167 -2.88933 0
M  V30 3158 H 305.517 -1.90958 -1.70202 0
M  V30 3159 H 305.161 -3.60361 -3.57913 0
M  V30 3160 H 305.091 -2.26587 -4.75359 0
M  V30 3161 H 307.582 -1.98105 -3.21812 0
M  V30 3162 H 307.895 -4.57042 -6.23164 0
M  V30 3163 H 306.24 -4.10469 -5.60839 0
M  V30 3164 H 309.431 -2.52525 -3.94143 0
M  V30 3165 H 309.604 -3.70584 -5.31575 0
M  V30 3166 N 303.011 1.40521 -0.713556 0
M  V30 3167 C 304.257 2.01221 -0.252564 0
M  V30 3168 C 304.59 1.56444 1.1506 0
M  V30 3169 O 303.865 0.783597 1.78017 0
M  V30 3170 C 304.148 3.58582 -0.330332 0
M  V30 3171 C 304.001 4.13437 -1.77173 0
M  V30 3172 C 305.32 4.39079 0.299641 0
M  V30 3173 H 302.439 0.731077 -0.0932471 0
M  V30 3174 H 305.081 1.67026 -0.905673 0
M  V30 3175 H 303.231 3.87844 0.225737 0
M  V30 3176 H 304.903 3.9498 -2.38303 0
M  V30 3177 H 303.146 3.67801 -2.3001 0
M  V30 3178 H 303.817 5.22597 -1.77755 0
M  V30 3179 H 306.293 4.15735 -0.174139 0
M  V30 3180 H 305.169 5.4848 0.214771 0
M  V30 3181 H 305.43 4.19915 1.38288 0
M  V30 3182 N 304.489 0.459591 1.5075 0
M  V30 3183 C 305.735 -0.0994966 2.02556 0
M  V30 3184 C 306.068 -1.40399 1.3417 0
M  V30 3185 O 305.343 -1.88892 0.463683 0
M  V30 3186 C 305.626 -0.295242 3.58888 0
M  V30 3187 C 305.479 1.02947 4.37861 0
M  V30 3188 C 306.798 -1.05502 4.27267 0
M  V30 3189 H 303.917 -0.034686 0.736183 0
M  V30 3190 H 306.559 0.602938 1.8018 0
M  V30 3191 H 304.709 -0.893563 3.78084 0
M  V30 3192 H 306.381 1.66348 4.30263 0
M  V30 3193 H 304.624 1.62885 4.02058 0
M  V30 3194 H 305.295 0.846281 5.45474 0
M  V30 3195 H 307.771 -0.547993 4.12476 0
M  V30 3196 H 306.647 -1.16077 5.36486 0
M  V30 3197 H 306.908 -2.08875 3.89645 0
M  V30 3198 N 305.967 -1.56429 0.191757 0
M  V30 3199 C 306.917 -2.15548 -0.743184 0
M  V30 3200 C 307.901 -1.09531 -1.17863 0
M  V30 3201 O 309.093 -1.35602 -1.13759 0
M  V30 3202 C 306.222 -2.81577 -1.96391 0
M  V30 3203 C 305.308 -3.9478 -1.54951 0
M  V30 3204 N 305.699 -4.98677 -0.845876 0
M  V30 3205 C 303.997 -4.06319 -1.83905 0
M  V30 3206 C 304.698 -5.78183 -0.638724 0
M  V30 3207 N 303.674 -5.30495 -1.18643 0
M  V30 3208 H 307.476 -2.9324 -0.196839 0
M  V30 3209 H 304.99 -1.62398 -0.0081603 0
M  V30 3210 H 306.987 -3.22321 -2.64415 0
M  V30 3211 H 305.647 -2.05371 -2.51501 0
M  V30 3212 H 306.658 -5.15464 -0.501704 0
M  V30 3213 H 303.335 -3.41238 -2.40548 0
M  V30 3214 H 304.725 -6.71851 -0.0807929 0
M  V30 3215 N 307.445 0.0818655 -1.57387 0
M  V30 3216 C 308.67 0.799946 -1.91352 0
M  V30 3217 C 309.095 1.70833 -0.787258 0
M  V30 3218 O 308.453 1.79419 0.26048 0
M  V30 3219 C 308.501 1.57812 -3.24234 0
M  V30 3220 O 307.605 2.68806 -3.12757 0
M  V30 3221 H 306.946 0.21891 -0.626877 0
M  V30 3222 H 309.476 0.0531256 -2.04531 0
M  V30 3223 H 309.486 1.95952 -3.57864 0
M  V30 3224 H 308.161 0.911548 -4.05788 0
M  V30 3225 H 306.738 2.33597 -2.90666 0
M  V30 3226 N 308.923 1.53595 0.353017 0
M  V30 3227 C 310.153 1.74058 1.11299 0
M  V30 3228 C 310.561 0.475205 1.83135 0
M  V30 3229 O 309.904 -0.562344 1.74881 0
M  V30 3230 C 309.966 2.85994 2.17825 0
M  V30 3231 C 309.63 4.25923 1.65647 0
M  V30 3232 C 310.627 5.07829 1.11383 0
M  V30 3233 C 308.312 4.72377 1.7078 0
M  V30 3234 C 310.306 6.34285 0.629439 0
M  V30 3235 C 307.993 5.98808 1.21953 0
M  V30 3236 C 308.991 6.79594 0.681265 0
M  V30 3237 O 308.679 8.03651 0.200248 0
M  V30 3238 H 308.411 0.585327 0.338183 0
M  V30 3239 H 310.965 2.01186 0.413927 0
M  V30 3240 H 309.195 2.54368 2.91262 0
M  V30 3241 H 310.884 2.94515 2.79313 0
M  V30 3242 H 311.65 4.73107 1.06746 0
M  V30 3243 H 307.529 4.0956 2.11617 0
M  V30 3244 H 311.073 6.97288 0.208636 0
M  V30 3245 H 306.97 6.33026 1.26287 0
M  V30 3246 H 307.738 8.1788 0.318416 0
M  V30 3247 N 310.401 -0.613514 1.45168 0
M  V30 3248 C 311.311 -1.75296 1.55912 0
M  V30 3249 C 312.327 -1.68244 0.443856 0
M  V30 3250 O 313.503 -1.88706 0.70371 0
M  V30 3251 C 310.568 -3.1174 1.5172 0
M  V30 3252 C 309.629 -3.30291 2.74238 0
M  V30 3253 C 308.862 -4.60226 2.70236 0
M  V30 3254 O 309.085 -5.42168 1.77229 0
M  V30 3255 O 308.019 -4.81361 3.61352 0
M  V30 3256 H 311.845 -1.69183 2.52212 0
M  V30 3257 H 309.43 -0.776886 1.27612 0
M  V30 3258 H 311.312 -3.93044 1.51968 0
M  V30 3259 H 309.987 -3.18357 0.585697 0
M  V30 3260 H 308.894 -2.48598 2.79553 0
M  V30 3261 H 310.227 -3.28547 3.66494 0
M  V30 3262 N 311.879 -1.3236 -0.855495 0
M  V30 3263 C 312.789 -1.23221 -1.99634 0
M  V30 3264 C 313.805 -0.145983 -1.73387 0
M  V30 3265 O 314.981 -0.366502 -1.98037 0
M  V30 3266 C 312.046 -0.954782 -3.33294 0
M  V30 3267 C 311.107 -2.12937 -3.72769 0
M  V30 3268 C 310.34 -1.86508 -5.00051 0
M  V30 3269 O 310.563 -0.807231 -5.64659 0
M  V30 3270 O 309.497 -2.72591 -5.36636 0
M  V30 3271 H 313.323 -2.19126 -2.1028 0
M  V30 3272 H 310.908 -1.12241 -0.986018 0
M  V30 3273 H 312.79 -0.816519 -4.13414 0
M  V30 3274 H 311.465 -0.0258854 -3.2369 0
M  V30 3275 H 310.372 -2.3231 -2.93228 0
M  V30 3276 H 311.705 -3.04102 -3.87018 0
M  V30 3277 N 313.357 1.07166 -1.15556 0
M  V30 3278 C 314.287 2.16403 -0.877046 0
M  V30 3279 C 315.268 1.69217 0.173111 0
M  V30 3280 O 316.453 1.94181 0.027084 0
M  V30 3281 C 313.583 3.45349 -0.367632 0
M  V30 3282 C 312.537 4.05995 -1.35468 0
M  V30 3283 C 311.863 5.30045 -0.704038 0
M  V30 3284 C 313.163 4.45804 -2.72132 0
M  V30 3285 H 314.857 2.39959 -1.79053 0
M  V30 3286 H 312.403 1.15325 -0.862331 0
M  V30 3287 H 314.356 4.21095 -0.160317 0
M  V30 3288 H 313.08 3.21385 0.581326 0
M  V30 3289 H 311.739 3.32296 -1.54839 0
M  V30 3290 H 311.387 5.02373 0.251128 0
M  V30 3291 H 311.087 5.71579 -1.36277 0
M  V30 3292 H 312.611 6.08495 -0.50654 0
M  V30 3293 H 314.025 5.12671 -2.56595 0
M  V30 3294 H 312.422 4.98296 -3.34397 0
M  V30 3295 H 313.492 3.57083 -3.28054 0
M  V30 3296 N 314.835 0.952656 1.25548 0
M  V30 3297 C 315.745 0.47782 2.29682 0
M  V30 3298 C 316.761 -0.453859 1.67977 0
M  V30 3299 O 317.937 -0.330587 1.98668 0
M  V30 3300 C 315.002 -0.238655 3.45878 0
M  V30 3301 C 314.063 0.730994 4.23031 0
M  V30 3302 C 313.296 0.0486165 5.33678 0
M  V30 3303 O 313.519 -1.16612 5.58353 0
M  V30 3304 O 312.453 0.733152 5.97418 0
M  V30 3305 H 316.279 1.34312 2.72386 0
M  V30 3306 H 313.864 0.719026 1.30959 0
M  V30 3307 H 315.746 -0.641774 4.16484 0
M  V30 3308 H 314.421 -1.07916 3.05181 0
M  V30 3309 H 313.328 1.18428 3.5486 0
M  V30 3310 H 314.661 1.53946 4.67506 0
M  V30 3311 N 316.313 -1.40141 0.720998 0
M  V30 3312 C 317.223 -2.34486 0.0731031 0
M  V30 3313 C 318.239 -1.57587 -0.737723 0
M  V30 3314 O 319.415 -1.89949 -0.669429 0
M  V30 3315 C 316.48 -3.36528 -0.833656 0
M  V30 3316 C 315.541 -4.29298 -0.0121673 0
M  V30 3317 C 314.774 -5.26466 -0.875742 0
M  V30 3318 O 314.997 -5.29745 -2.11485 0
M  V30 3319 O 313.931 -6.01092 -0.31185 0
M  V30 3320 H 317.757 -2.9152 0.851444 0
M  V30 3321 H 315.342 -1.41427 0.481527 0
M  V30 3322 H 317.224 -3.99093 -1.35289 0
M  V30 3323 H 315.899 -2.81899 -1.59105 0
M  V30 3324 H 314.806 -3.70001 0.552262 0
M  V30 3325 H 316.139 -4.87094 0.707129 0
M  V30 3326 N 317.792 -0.46758 -1.50504 0
M  V30 3327 C 318.74 0.342482 -2.30065 0
M  V30 3328 C 319.734 0.993596 -1.37201 0
M  V30 3329 O 320.94 0.925102 -1.54408 0
M  V30 3330 H 317.315 0.129283 -0.740803 0
M  V30 3331 H 319.286 -0.34899 -2.96352 0
M  V30 3332 C 318.035 1.4139 -3.17654 0
M  V30 3333 H 317.358 0.922264 -3.89017 0
M  V30 3334 H 318.798 1.95335 -3.76325 0
M  V30 3335 C 317.257 2.4139 -2.35016 0
M  V30 3336 O 317.787 3.46586 -2.03079 0
M  V30 3337 N 315.993 2.13021 -1.97662 0
M  V30 3338 H 315.54 1.27499 -2.23834 0
M  V30 3339 H 315.498 2.80164 -1.42673 0
M  V30 3340 N 319.27 1.56325 -0.20005 0
M  V30 3341 C 320.5 2.01811 0.442232 0
M  V30 3342 C 320.908 1.07932 1.55394 0
M  V30 3343 O 320.251 0.0772685 1.83537 0
M  V30 3344 C 320.313 3.43685 1.05457 0
M  V30 3345 C 319.977 4.56928 0.0809833 0
M  V30 3346 C 320.974 5.15009 -0.711471 0
M  V30 3347 C 318.659 5.0229 -0.0315364 0
M  V30 3348 C 320.653 6.16904 -1.60336 0
M  V30 3349 C 318.34 6.04028 -0.926981 0
M  V30 3350 C 319.338 6.6121 -1.71146 0
M  V30 3351 O 319.026 7.60971 -2.59189 0
M  V30 3352 H 318.758 0.666173 0.114848 0
M  V30 3353 H 321.312 2.03085 -0.307511 0
M  V30 3354 H 319.542 3.39413 1.85299 0
M  V30 3355 H 321.231 3.72948 1.60201 0
M  V30 3356 H 321.997 4.80827 -0.634873 0
M  V30 3357 H 317.876 4.57476 0.568902 0
M  V30 3358 H 321.42 6.61464 -2.21611 0
M  V30 3359 H 317.317 6.37634 -1.00468 0
M  V30 3360 H 318.085 7.7841 -2.53023 0
M  V30 3361 N 320.748 -0.0735177 1.57428 0
M  V30 3362 C 321.976 -0.785969 1.9139 0
M  V30 3363 C 322.391 -1.71207 0.795847 0
M  V30 3364 O 321.748 -1.81033 -0.230915 0
M  V30 3365 C 321.799 -1.58107 3.25091 0
M  V30 3366 O 321.52 -0.6922 4.32597 0
M  V30 3367 C 323.021 -2.39467 3.73055 0
M  V30 3368 H 320.241 -0.223558 0.632663 0
M  V30 3369 H 322.785 -0.044302 2.04452 0
M  V30 3370 H 320.94 -2.27503 3.13562 0
M  V30 3371 H 321.354 -1.24504 5.09508 0
M  V30 3372 H 322.828 -2.90716 4.69242 0
M  V30 3373 H 323.305 -3.18913 3.01979 0
M  V30 3374 H 323.911 -1.7523 3.87523 0
M  V30 3375 N 322.226 -1.5378 -0.344866 0
M  V30 3376 C 323.642 -1.44015 -0.687888 0
M  V30 3377 C 323.842 -0.595834 -1.92489 0
M  V30 3378 O 322.898 -0.0863064 -2.52352 0
M  V30 3379 C 324.211 -2.87481 -0.881758 0
M  V30 3380 C 325.759 -2.97247 -0.980459 0
M  V30 3381 C 326.234 -4.41819 -1.20665 0
M  V30 3382 N 327.725 -4.45339 -1.27389 0
M  V30 3383 C 328.46 -5.54333 -1.46639 0
M  V30 3384 N 327.956 -6.73335 -1.63071 0
M  V30 3385 N 329.749 -5.41944 -1.49176 0
M  V30 3386 H 321.9 -2.07169 0.468475 0
M  V30 3387 H 324.163 -0.93643 0.147655 0
M  V30 3388 H 323.869 -3.51672 -0.0443444 0
M  V30 3389 H 323.743 -3.32352 -1.78388 0
M  V30 3390 H 326.13 -2.33197 -1.8084 0
M  V30 3391 H 326.211 -2.5574 -0.0552713 0
M  V30 3392 H 325.855 -5.06449 -0.383652 0
M  V30 3393 H 325.785 -4.80917 -2.14539 0
M  V30 3394 H 328.276 -3.59585 -1.1622 0
M  V30 3395 H 328.589 -7.52165 -1.77391 0
M  V30 3396 H 326.934 -6.76282 -1.60209 0
M  V30 3397 H 330.125 -4.47932 -1.3592 0
M  V30 3398 H 330.298 -6.26946 -1.63837 0
M  V30 3399 N 323.704 0.605807 -1.45491 0
M  V30 3400 C 324.667 1.69836 -1.5391 0
M  V30 3401 C 325.667 1.55261 -0.418424 0
M  V30 3402 O 326.857 1.60296 -0.681965 0
M  V30 3403 C 323.989 3.09117 -1.43734 0
M  V30 3404 H 325.182 1.63738 -2.51257 0
M  V30 3405 H 322.735 0.821689 -1.32959 0
M  V30 3406 H 323.47 3.20791 -0.475788 0
M  V30 3407 H 323.255 3.21104 -2.25021 0
M  V30 3408 H 324.745 3.88696 -1.52661 0
M  V30 3409 N 325.182 1.32811 0.848464 0
M  V30 3410 C 326.412 1.26556 1.63301 0
M  V30 3411 C 326.82 -0.1676 1.88456 0
M  V30 3412 O 326.163 -1.11713 1.45828 0
M  V30 3413 C 326.225 1.96202 3.01239 0
M  V30 3414 C 325.889 3.45528 2.99098 0
M  V30 3415 C 326.886 4.40903 2.75501 0
M  V30 3416 C 324.571 3.87558 3.19537 0
M  V30 3417 C 326.565 5.76282 2.72356 0
M  V30 3418 C 324.252 5.23044 3.16019 0
M  V30 3419 C 325.25 6.17217 2.92458 0
M  V30 3420 O 324.938 7.50223 2.88825 0
M  V30 3421 H 324.67 0.43771 0.515156 0
M  V30 3422 H 327.224 1.7559 1.0657 0
M  V30 3423 H 325.454 1.41746 3.59785 0
M  V30 3424 H 327.143 1.83573 3.62016 0
M  V30 3425 H 327.909 4.09756 2.5947 0
M  V30 3426 H 323.788 3.14674 3.369 0
M  V30 3427 H 327.332 6.4976 2.53886 0
M  V30 3428 H 323.229 5.53818 3.31596 0
M  V30 3429 H 323.997 7.59657 3.04735 0
M  V30 3430 N 326.66 -1.06551 1.16123 0
M  V30 3431 C 327.885 -1.83544 0.965735 0
M  V30 3432 C 328.31 -1.81843 -0.481102 0
M  V30 3433 O 327.668 -1.21732 -1.34354 0
M  V30 3434 C 327.716 -3.28169 1.49457 0
M  V30 3435 O 326.82 -4.0643 0.699157 0
M  V30 3436 H 326.161 -0.568026 0.343864 0
M  V30 3437 H 328.691 -1.34362 1.54299 0
M  V30 3438 H 328.701 -3.78992 1.51092 0
M  V30 3439 H 327.376 -3.28722 2.54784 0
M  V30 3440 H 325.953 -3.65216 0.7531 0
M  V30 3441 N 328.138 -0.959301 -1.25041 0
M  V30 3442 C 329.048 -0.489994 -2.29426 0
M  V30 3443 C 330.064 0.444944 -1.68215 0
M  V30 3444 O 331.24 0.320046 -1.98841 0
M  V30 3445 C 328.305 0.220309 -3.45999 0
M  V30 3446 C 327.366 -0.753418 -4.22637 0
M  V30 3447 C 326.599 -0.076918 -5.33645 0
M  V30 3448 O 326.822 1.13649 -5.58963 0
M  V30 3449 O 325.756 -0.764824 -5.97021 0
M  V30 3450 H 329.582 -1.35755 -2.71669 0
M  V30 3451 H 327.167 -0.725961 -1.30576 0
M  V30 3452 H 329.049 0.619677 -4.16819 0
M  V30 3453 H 327.724 1.06296 -3.0575 0
M  V30 3454 H 326.631 -1.20308 -3.54227 0
M  V30 3455 H 327.964 -1.56423 -4.66683 0
M  V30 3456 N 329.616 1.39756 -0.72842 0
M  V30 3457 C 330.579 2.29012 -0.0927297 0
M  V30 3458 C 331.579 1.45992 0.674025 0
M  V30 3459 O 332.769 1.66749 0.50402 0
M  V30 3460 C 329.901 3.29396 0.878137 0
M  V30 3461 H 331.094 2.86729 -0.879011 0
M  V30 3462 H 328.647 1.48293 -0.493847 0
M  V30 3463 H 329.382 2.76722 1.69101 0
M  V30 3464 H 329.167 3.907 0.331051 0
M  V30 3465 H 330.657 3.96199 1.3197 0
M  V30 3466 N 331.094 0.475555 1.50254 0
M  V30 3467 C 332.024 -0.30611 2.31485 0
M  V30 3468 C 333.005 -0.986228 1.38591 0
M  V30 3469 O 334.19 -0.982541 1.67511 0
M  V30 3470 C 331.32 -1.38588 3.1845 0
M  V30 3471 C 330.274 -0.827115 4.19932 0
M  V30 3472 C 329.6 -2.00551 4.95665 0
M  V30 3473 C 330.9 0.16463 5.2204 0
M  V30 3474 H 332.594 0.371866 2.97082 0
M  V30 3475 H 330.14 0.180282 1.42867 0
M  V30 3476 H 332.093 -1.94023 3.74076 0
M  V30 3477 H 330.817 -2.09269 2.50747 0
M  V30 3478 H 329.476 -0.294702 3.65414 0
M  V30 3479 H 329.124 -2.6994 4.2443 0
M  V30 3480 H 328.824 -1.63784 5.64313 0
M  V30 3481 H 330.348 -2.56468 5.54127 0
M  V30 3482 H 331.762 -0.300699 5.72511 0
M  V30 3483 H 330.159 0.446813 5.98434 0
M  V30 3484 H 331.229 1.08905 4.72512 0
M  V30 3485 N 332.573 -1.56217 0.208337 0
M  V30 3486 C 333.536 -2.18455 -0.693557 0
M  V30 3487 C 334.536 -1.14268 -1.13135 0
M  V30 3488 O 335.726 -1.39577 -1.0423 0
M  V30 3489 C 332.858 -2.79727 -1.94848 0
M  V30 3490 H 334.051 -2.99519 -0.15114 0
M  V30 3491 H 331.604 -1.56245 -0.041287 0
M  V30 3492 H 332.339 -2.02497 -2.53309 0
M  V30 3493 H 332.124 -3.56009 -1.64316 0
M  V30 3494 H 333.614 -3.27475 -2.59133 0
M  V30 3495 N 334.051 0.0651679 -1.57465 0
M  V30 3496 C 335.014 1.06117 -2.03155 0
M  V30 3497 C 336.014 1.31204 -0.929632 0
M  V30 3498 O 337.204 1.26813 -1.19432 0
M  V30 3499 C 334.336 2.4032 -2.41783 0
M  V30 3500 H 335.529 0.667231 -2.92383 0
M  V30 3501 H 333.082 0.311075 -1.53173 0
M  V30 3502 H 333.817 2.84532 -1.55601 0
M  V30 3503 H 333.602 2.23451 -3.22199 0
M  V30 3504 H 335.092 3.11898 -2.77685 0
M  V30 3505 N 335.529 1.53961 0.336706 0
M  V30 3506 C 336.776 1.71536 1.07618 0
M  V30 3507 C 337.104 0.482125 1.8843 0
M  V30 3508 O 336.359 -0.536142 1.88213 0
M  V30 3509 C 336.658 2.93493 2.03953 0
M  V30 3510 C 336.324 4.28811 1.39399 0
M  V30 3511 C 334.986 4.65602 1.21523 0
M  V30 3512 C 337.338 5.12844 0.929541 0
M  V30 3513 C 334.666 5.84037 0.558312 0
M  V30 3514 C 337.018 6.31951 0.286505 0
M  V30 3515 C 335.682 6.67432 0.0954869 0
M  V30 3516 H 334.952 0.627696 0.393801 0
M  V30 3517 H 337.599 1.88186 0.354715 0
M  V30 3518 H 335.904 2.71475 2.82504 0
M  V30 3519 H 337.601 3.04285 2.61174 0
M  V30 3520 H 334.191 3.99858 1.54311 0
M  V30 3521 H 338.375 4.84947 1.05548 0
M  V30 3522 H 333.631 6.10097 0.398995 0
M  V30 3523 H 337.805 6.96352 -0.0814376 0
M  V30 3524 H 335.432 7.59063 -0.415579 0
M  V30 3525 N 337.007 -0.598083 1.45811 0
M  V30 3526 C 338.255 -1.35413 1.50026 0
M  V30 3527 C 338.576 -1.94444 0.147177 0
M  V30 3528 O 337.846 -1.77701 -0.824571 0
M  V30 3529 H 336.426 -0.502727 0.552517 0
M  V30 3530 H 339.088 -0.701606 1.81834 0
M  V30 3531 H 338.184 -2.16871 2.2444 0
M  V30 3532 N 338.485 -1.33259 -0.841409 0
M  V30 3533 C 339.433 -1.23279 -1.97244 0
M  V30 3534 C 340.427 -0.134706 -1.68864 0
M  V30 3535 O 341.633 -0.298501 -1.77508 0
M  V30 3536 H 338.008 -0.382497 -0.647457 0
M  V30 3537 H 339.979 -2.18906 -2.02787 0
M  V30 3538 C 338.728 -0.986268 -3.33419 0
M  V30 3539 H 338.051 -1.82347 -3.55794 0
M  V30 3540 H 339.491 -0.956728 -4.13065 0
M  V30 3541 C 337.95 0.310842 -3.35463 0
M  V30 3542 O 338.48 1.31838 -3.79449 0
M  V30 3543 N 336.686 0.337485 -2.88634 0
M  V30 3544 H 336.233 -0.482967 -2.53032 0
M  V30 3545 H 336.191 1.20518 -2.90384 0
M  V30 3546 N 339.963 1.05934 -1.16686 0
M  V30 3547 C 341.211 1.78447 -0.948744 0
M  V30 3548 C 341.532 1.87813 0.524523 0
M  V30 3549 O 340.802 1.38945 1.38098 0
M  V30 3550 H 339.382 0.660971 -0.348033 0
M  V30 3551 H 342.044 1.27947 -1.47022 0
M  V30 3552 H 341.14 2.80394 -1.37061 0
M  V30 3553 N 341.441 0.965919 1.2453 0
M  V30 3554 C 342.404 0.499547 2.2369 0
M  V30 3555 C 343.404 -0.40294 1.5567 0
M  V30 3556 O 344.594 -0.19865 1.73064 0
M  V30 3557 C 341.726 -0.276792 3.39774 0
M  V30 3558 H 342.919 1.37613 2.66463 0
M  V30 3559 H 340.472 0.750324 1.37112 0
M  V30 3560 H 341.207 -1.17055 3.02438 0
M  V30 3561 H 340.992 0.370826 3.90343 0
M  V30 3562 H 342.482 -0.592175 4.1338 0
M  V30 3563 N 342.919 -1.39368 0.735821 0
M  V30 3564 C 343.849 -2.33234 0.111506 0
M  V30 3565 C 344.83 -1.53954 -0.723334 0
M  V30 3566 O 346.015 -1.82344 -0.668147 0
M  V30 3567 C 343.145 -3.38057 -0.795917 0
M  V30 3568 C 342.099 -4.2795 -0.065172 0
M  V30 3569 C 341.425 -5.23479 -1.08967 0
M  V30 3570 C 342.725 -5.10741 1.09273 0
M  V30 3571 H 344.419 -2.85692 0.895571 0
M  V30 3572 H 341.965 -1.37364 0.432109 0
M  V30 3573 H 343.918 -4.02675 -1.24221 0
M  V30 3574 H 342.642 -2.8404 -1.61211 0
M  V30 3575 H 341.301 -3.64813 0.361511 0
M  V30 3576 H 340.949 -4.65758 -1.89944 0
M  V30 3577 H 340.649 -5.84472 -0.605489 0
M  V30 3578 H 342.173 -5.90974 -1.53565 0
M  V30 3579 H 343.587 -5.68699 0.724841 0
M  V30 3580 H 341.984 -5.8088 1.50659 0
M  V30 3581 H 343.054 -4.45525 1.91404 0
M  V30 3582 N 344.397 -0.483516 -1.5 0
M  V30 3583 C 345.644 0.0671597 -2.02389 0
M  V30 3584 C 345.972 1.38597 -1.36459 0
M  V30 3585 O 345.227 1.89634 -0.483458 0
M  V30 3586 C 345.526 0.286226 -3.56252 0
M  V30 3587 C 345.192 -0.952416 -4.40726 0
M  V30 3588 C 343.854 -1.29199 -4.63531 0
M  V30 3589 C 346.206 -1.77655 -4.89988 0
M  V30 3590 C 343.534 -2.45553 -5.32842 0
M  V30 3591 C 345.886 -2.93147 -5.60578 0
M  V30 3592 C 344.55 -3.27505 -5.81633 0
M  V30 3593 H 343.82 0.0245755 -0.740592 0
M  V30 3594 H 346.467 -0.640124 -1.80485 0
M  V30 3595 H 344.772 1.07587 -3.76739 0
M  V30 3596 H 346.469 0.726473 -3.94365 0
M  V30 3597 H 343.059 -0.677881 -4.23205 0
M  V30 3598 H 347.243 -1.52737 -4.72213 0
M  V30 3599 H 342.499 -2.72431 -5.47349 0
M  V30 3600 H 346.673 -3.57344 -5.97727 0
M  V30 3601 H 344.3 -4.1777 -6.35116 0
M  V30 3602 N 345.875 1.56104 -0.216619 0
M  V30 3603 C 347.121 1.98466 0.417033 0
M  V30 3604 C 347.454 1.10403 1.59765 0
M  V30 3605 O 346.729 0.160632 1.93836 0
M  V30 3606 C 347.012 3.49769 0.85637 0
M  V30 3607 C 346.865 4.48606 -0.327546 0
M  V30 3608 C 348.184 4.05339 1.7143 0
M  V30 3609 H 345.303 0.721551 0.150112 0
M  V30 3610 H 347.945 1.87423 -0.311864 0
M  V30 3611 H 346.095 3.5931 1.47745 0
M  V30 3612 H 347.767 4.5108 -0.965618 0
M  V30 3613 H 346.01 4.22682 -0.975805 0
M  V30 3614 H 346.681 5.51995 0.0227149 0
M  V30 3615 H 349.157 3.98712 1.19031 0
M  V30 3616 H 348.033 5.11533 1.99061 0
M  V30 3617 H 348.294 3.51918 2.67593 0
M  V30 3618 N 347.353 -0.0568162 1.57498 0
M  V30 3619 C 348.263 -1.08346 2.08083 0
M  V30 3620 C 349.279 -1.41439 1.01346 0
M  V30 3621 O 350.455 -1.51316 1.32912 0
M  V30 3622 C 347.52 -2.37352 2.52715 0
M  V30 3623 C 346.581 -2.11093 3.73816 0
M  V30 3624 C 345.814 -3.33949 4.1631 0
M  V30 3625 O 346.037 -4.43622 3.58547 0
M  V30 3626 O 344.971 -3.21279 5.08983 0
M  V30 3627 H 348.797 -0.683667 2.95905 0
M  V30 3628 H 346.382 -0.271965 1.46904 0
M  V30 3629 H 348.264 -3.13246 2.81877 0
M  V30 3630 H 346.939 -2.76681 1.68016 0
M  V30 3631 H 345.846 -1.32856 3.49714 0
M  V30 3632 H 347.179 -1.76637 4.59413 0
M  V30 3633 N 348.832 -1.54138 -0.328536 0
M  V30 3634 C 349.779 -1.83176 -1.40411 0
M  V30 3635 C 350.749 -0.678494 -1.5161 0
M  V30 3636 O 351.934 -0.92443 -1.6691 0
M  V30 3637 C 349.074 -2.06035 -2.76846 0
M  V30 3638 C 348.187 -3.33727 -2.74318 0
M  V30 3639 C 347.322 -3.46574 -4.02567 0
M  V30 3640 C 346.361 -4.68159 -3.94327 0
M  V30 3641 N 345.498 -4.77959 -5.14296 0
M  V30 3642 H 350.338 -2.74938 -1.14948 0
M  V30 3643 H 347.875 -1.36166 -0.556538 0
M  V30 3644 H 349.833 -2.1728 -3.56153 0
M  V30 3645 H 348.463 -1.1757 -3.00628 0
M  V30 3646 H 347.515 -3.31246 -1.8703 0
M  V30 3647 H 348.827 -4.23139 -2.64111 0
M  V30 3648 H 347.981 -3.57333 -4.90304 0
M  V30 3649 H 346.72 -2.55245 -4.15574 0
M  V30 3650 H 345.725 -4.57461 -3.04974 0
M  V30 3651 H 346.95 -5.60868 -3.82889 0
M  V30 3652 H 344.896 -3.89544 -5.27818 0
M  V30 3653 H 344.813 -5.6133 -5.06404 0
M  V30 3654 H 346.081 -4.93044 -6.03761 0
M  V30 3655 N 350.31 0.590341 -1.46126 0
M  V30 3656 C 351.557 1.34882 -1.5104 0
M  V30 3657 C 351.885 1.93849 -0.159021 0
M  V30 3658 O 351.14 1.76544 0.844436 0
M  V30 3659 C 351.439 2.5032 -2.55097 0
M  V30 3660 C 351.105 2.09394 -3.99331 0
M  V30 3661 C 349.767 1.97947 -4.38601 0
M  V30 3662 C 352.119 1.77712 -4.89967 0
M  V30 3663 C 349.447 1.53065 -5.66381 0
M  V30 3664 C 351.799 1.34312 -6.18177 0
M  V30 3665 C 350.463 1.21436 -6.56361 0
M  V30 3666 H 349.733 0.493568 -0.552695 0
M  V30 3667 H 352.38 0.665539 -1.79563 0
M  V30 3668 H 350.685 3.24062 -2.20207 0
M  V30 3669 H 352.382 3.08541 -2.56132 0
M  V30 3670 H 348.972 2.19235 -3.68285 0
M  V30 3671 H 353.156 1.85445 -4.60352 0
M  V30 3672 H 348.412 1.41733 -5.94745 0
M  V30 3673 H 352.586 1.08849 -6.87841 0
M  V30 3674 H 350.213 0.864345 -7.5527 0
M  V30 3675 N 351.788 1.33704 0.83433 0
M  V30 3676 C 353.037 1.24763 1.58484 0
M  V30 3677 C 353.35 -0.183775 1.94735 0
M  V30 3678 O 354.556 -0.395234 2.68608 0
M  V30 3679 C 353.012 2.18638 2.85876 0
M  V30 3680 C 352.62 3.66974 2.56971 0
M  V30 3681 C 354.364 2.18581 3.63899 0
M  V30 3682 C 352.271 4.5275 3.80488 0
M  V30 3683 H 351.201 0.463425 0.594772 0
M  V30 3684 H 353.852 1.58797 0.919551 0
M  V30 3685 H 352.234 1.77542 3.5397 0
M  V30 3686 H 353.408 4.16538 1.9706 0
M  V30 3687 H 351.723 3.69366 1.92244 0
M  V30 3688 H 354.32 2.79894 4.55591 0
M  V30 3689 H 354.663 1.18207 3.99165 0
M  V30 3690 H 355.196 2.58062 3.02735 0
M  V30 3691 H 351.935 5.54017 3.5035 0
M  V30 3692 H 351.455 4.07927 4.39722 0
M  V30 3693 H 353.134 4.66784 4.4802 0
M  V30 3694 N 353.266 -1.05314 1.17247 0
M  V30 3695 C 354.176 -2.16538 0.90268 0
M  V30 3696 C 355.192 -1.73523 -0.128707 0
M  V30 3697 O 356.368 -2.01337 0.0502701 0
M  V30 3698 C 353.433 -3.44167 0.418356 0
M  V30 3699 C 352.494 -4.01635 1.51618 0
M  V30 3700 C 351.727 -5.23171 1.05487 0
M  V30 3701 O 351.95 -5.70327 -0.0914715 0
M  V30 3702 O 350.884 -5.72848 1.8474 0
M  V30 3703 H 354.71 -2.42145 1.83302 0
M  V30 3704 H 352.295 -1.15037 0.953246 0
M  V30 3705 H 354.177 -4.21112 0.155726 0
M  V30 3706 H 352.852 -3.20063 -0.48385 0
M  V30 3707 H 351.759 -3.26135 1.83268 0
M  V30 3708 H 353.092 -4.30053 2.39405 0
M  V30 3709 N 354.744 -0.972509 -1.24016 0
M  V30 3710 C 355.691 -0.505969 -2.25186 0
M  V30 3711 C 356.661 0.451009 -1.5986 0
M  V30 3712 O 357.846 0.360307 -1.87367 0
M  V30 3713 C 354.986 0.193089 -3.44559 0
M  V30 3714 C 354.099 -0.803222 -4.24467 0
M  V30 3715 C 353.234 -0.0797793 -5.3114 0
M  V30 3716 C 352.273 -1.06583 -6.02749 0
M  V30 3717 N 351.41 -0.372074 -7.01113 0
M  V30 3718 H 356.25 -1.37351 -2.64459 0
M  V30 3719 H 353.787 -0.688419 -1.29997 0
M  V30 3720 H 355.745 0.615125 -4.1264 0
M  V30 3721 H 354.375 1.02455 -3.06109 0
M  V30 3722 H 353.427 -1.34368 -3.55878 0
M  V30 3723 H 354.739 -1.55494 -4.73944 0
M  V30 3724 H 353.893 0.400015 -6.0538 0
M  V30 3725 H 352.632 0.704597 -4.82583 0
M  V30 3726 H 351.637 -1.55645 -5.27309 0
M  V30 3727 H 352.862 -1.85074 -6.53395 0
M  V30 3728 H 350.808 0.393238 -6.5482 0
M  V30 3729 H 350.725 -1.06258 -7.48495 0
M  V30 3730 H 351.993 0.0855932 -7.79453 0
M  V30 3731 N 356.222 1.38976 -0.743202 0
M  V30 3732 C 357.633 1.83123 -0.363732 0
M  V30 3733 C 357.984 1.6205 1.10609 0
M  V30 3734 O 357.109 1.11606 1.854 0
M  V30 3735 C 357.704 3.32439 -0.653408 0
M  V30 3736 C 356.263 3.74974 -0.327338 0
M  V30 3737 C 355.41 2.61878 -0.911875 0
M  V30 3738 H 358.361 1.27852 -0.940191 0
M  V30 3739 H 358.382 3.80432 0.0720031 0
M  V30 3740 H 357.894 3.47745 -1.72323 0
M  V30 3741 H 355.995 3.65252 0.736314 0
M  V30 3742 H 356.108 4.72106 -0.815631 0
M  V30 3743 H 354.472 2.52448 -0.337944 0
M  V30 3744 H 355.255 2.79987 -1.98651 0
M  V30 3745 N 357.7 0.491464 1.49741 0
M  V30 3746 C 359.116 0.146835 1.58923 0
M  V30 3747 C 359.316 -1.34804 1.49767 0
M  V30 3748 O 358.372 -2.12317 1.36667 0
M  V30 3749 C 359.685 0.715157 2.92072 0
M  V30 3750 C 361.233 0.680407 3.05515 0
M  V30 3751 C 361.708 1.22663 4.41269 0
M  V30 3752 N 363.199 1.18691 4.47735 0
M  V30 3753 C 363.934 1.57984 5.51207 0
M  V30 3754 N 363.43 2.04824 6.6183 0
M  V30 3755 N 365.223 1.49459 5.41866 0
M  V30 3756 H 357.374 1.46347 1.53936 0
M  V30 3757 H 359.637 0.606453 0.728642 0
M  V30 3758 H 359.343 1.76317 3.04311 0
M  V30 3759 H 359.217 0.17018 3.76816 0
M  V30 3760 H 361.604 -0.358743 2.92911 0
M  V30 3761 H 361.685 1.26242 2.22478 0
M  V30 3762 H 361.329 2.26451 4.54623 0
M  V30 3763 H 361.259 0.620637 5.2293 0
M  V30 3764 H 363.75 0.843605 3.68364 0
M  V30 3765 H 364.063 2.32901 7.3687 0
M  V30 3766 H 362.408 2.08791 6.62896 0
M  V30 3767 H 365.599 1.12692 4.54333 0
M  V30 3768 H 365.772 1.80406 6.22381 0
M  V30 3769 N 359.178 -1.55987 0.224894 0
M  V30 3770 C 360.128 -2.17076 -0.697296 0
M  V30 3771 C 361.112 -1.12006 -1.15514 0
M  V30 3772 O 362.304 -1.37985 -1.10857 0
M  V30 3773 C 359.433 -2.85679 -1.90374 0
M  V30 3774 C 358.519 -3.97977 -1.46543 0
M  V30 3775 N 358.91 -5.00359 -0.739909 0
M  V30 3776 C 357.208 -4.10128 -1.75245 0
M  V30 3777 C 357.909 -5.79407 -0.515939 0
M  V30 3778 N 356.885 -5.32892 -1.07364 0
M  V30 3779 H 360.687 -2.93592 -0.134594 0
M  V30 3780 H 358.201 -1.62379 0.0262885 0
M  V30 3781 H 360.198 -3.27857 -2.57518 0
M  V30 3782 H 358.858 -2.1066 -2.47088 0
M  V30 3783 H 359.869 -5.16412 -0.392253 0
M  V30 3784 H 356.546 -3.46263 -2.33255 0
M  V30 3785 H 357.936 -6.71872 0.0617349 0
M  V30 3786 N 360.656 0.0484629 -1.57525 0
M  V30 3787 C 361.905 0.742065 -1.87553 0
M  V30 3788 C 362.218 1.77545 -0.820802 0
M  V30 3789 O 363.424 2.52027 -1.00967 0
M  V30 3790 C 361.88 1.37081 -3.32771 0
M  V30 3791 C 361.488 0.374786 -4.4643 0
M  V30 3792 C 363.232 2.04542 -3.71972 0
M  V30 3793 C 361.139 1.01077 -5.82698 0
M  V30 3794 H 360.069 0.280903 -0.699721 0
M  V30 3795 H 362.72 -0.00411877 -1.835 0
M  V30 3796 H 361.102 2.16605 -3.31509 0
M  V30 3797 H 362.276 -0.392331 -4.59127 0
M  V30 3798 H 360.591 -0.196653 -4.15935 0
M  V30 3799 H 363.188 2.52943 -4.71088 0
M  V30 3800 H 363.531 2.85515 -3.02964 0
M  V30 3801 H 364.064 1.31819 -3.75325 0
M  V30 3802 H 360.803 0.240878 -6.55057 0
M  V30 3803 H 360.323 1.74819 -5.73758 0
M  V30 3804 H 362.002 1.52383 -6.28799 0
M  V30 3805 N 362.134 1.5431 0.320358 0
M  V30 3806 C 363.044 1.86946 1.41734 0
M  V30 3807 C 364.06 0.761689 1.56443 0
M  V30 3808 O 365.236 1.05629 1.71477 0
M  V30 3809 C 362.301 2.09293 2.76401 0
M  V30 3810 C 361.362 3.33082 2.70841 0
M  V30 3811 C 360.595 3.54353 3.99086 0
M  V30 3812 O 360.818 2.79002 4.97508 0
M  V30 3813 O 359.752 4.47838 4.0215 0
M  V30 3814 H 363.578 2.80232 1.17062 0
M  V30 3815 H 361.163 1.40255 0.514673 0
M  V30 3816 H 363.045 2.25303 3.56113 0
M  V30 3817 H 361.72 1.19194 3.00956 0
M  V30 3818 H 360.627 3.22454 1.89668 0
M  V30 3819 H 361.96 4.23249 2.5124 0
M  V30 3820 N 363.613 -0.582584 1.46437 0
M  V30 3821 C 364.859 -1.34278 1.51978 0
M  V30 3822 C 365.192 -1.93446 0.170973 0
M  V30 3823 O 364.467 -1.76481 -0.817608 0
M  V30 3824 C 364.75 -2.47203 2.61845 0
M  V30 3825 C 364.603 -1.93069 4.06257 0
M  V30 3826 C 365.922 -3.49247 2.67795 0
M  V30 3827 H 363.041 -0.486876 0.553282 0
M  V30 3828 H 365.683 -0.654437 1.78374 0
M  V30 3829 H 363.833 -3.0592 2.39469 0
M  V30 3830 H 365.505 -1.38808 4.3992 0
M  V30 3831 H 363.748 -1.23898 4.1573 0
M  V30 3832 H 364.419 -2.74586 4.7886 0
M  V30 3833 H 366.895 -3.00411 2.8791 0
M  V30 3834 H 365.771 -4.25719 3.46489 0
M  V30 3835 H 366.032 -4.06482 1.73852 0
M  V30 3836 N 365.091 -1.34144 -0.827227 0
M  V30 3837 C 366.023 -1.21206 -1.9453 0
M  V30 3838 C 367.036 -0.140176 -1.62195 0
M  V30 3839 O 368.225 -0.391647 -1.7415 0
M  V30 3840 C 365.325 -0.839141 -3.28347 0
M  V30 3841 C 364.498 -2.0051 -3.88734 0
M  V30 3842 C 363.557 -1.61128 -5.00923 0
M  V30 3843 O 362.583 -2.32726 -5.19449 0
M  V30 3844 N 363.785 -0.522958 -5.7814 0
M  V30 3845 H 366.55 -2.17525 -2.06162 0
M  V30 3846 H 364.111 -1.27043 -1.00358 0
M  V30 3847 H 366.103 -0.557556 -4.00841 0
M  V30 3848 H 364.673 0.0337293 -3.12582 0
M  V30 3849 H 363.893 -2.45166 -3.08686 0
M  V30 3850 H 365.181 -2.78498 -4.25812 0
M  V30 3851 H 364.579 0.0723518 -5.65654 0
M  V30 3852 H 363.136 -0.301089 -6.51104 0
M  V30 3853 N 366.569 1.04691 -1.17803 0
M  V30 3854 C 367.818 1.77176 -0.963931 0
M  V30 3855 C 368.131 1.88888 0.508015 0
M  V30 3856 O 369.337 2.58164 0.840465 0
M  V30 3857 C 367.793 3.18518 -1.67555 0
M  V30 3858 C 367.401 3.14919 -3.18637 0
M  V30 3859 C 369.145 3.95424 -1.54402 0
M  V30 3860 C 367.052 4.51081 -3.82466 0
M  V30 3861 H 365.982 0.664116 -0.357023 0
M  V30 3862 H 368.633 1.17303 -1.4111 0
M  V30 3863 H 367.015 3.78748 -1.15613 0
M  V30 3864 H 368.189 2.64178 -3.77554 0
M  V30 3865 H 366.504 2.51512 -3.31859 0
M  V30 3866 H 369.101 4.96106 -1.99456 0
M  V30 3867 H 369.444 4.13343 -0.495329 0
M  V30 3868 H 369.977 3.41754 -2.0359 0
M  V30 3869 H 366.716 4.38368 -4.87354 0
M  V30 3870 H 366.236 5.01951 -3.28337 0
M  V30 3871 H 367.915 5.2001 -3.84965 0
M  V30 3872 N 368.047 0.979072 1.23499 0
M  V30 3873 C 368.977 0.537606 2.27227 0
M  V30 3874 C 369.958 -0.428539 1.64613 0
M  V30 3875 O 371.143 -0.322191 1.91509 0
M  V30 3876 C 368.273 -0.162052 3.46922 0
M  V30 3877 C 367.227 0.721242 4.21879 0
M  V30 3878 C 366.553 -0.110555 5.34586 0
M  V30 3879 C 367.853 2.01141 4.82016 0
M  V30 3880 H 369.547 1.40462 2.64406 0
M  V30 3881 H 367.093 0.67684 1.27102 0
M  V30 3882 H 369.046 -0.482192 4.18632 0
M  V30 3883 H 367.77 -1.06351 3.08799 0
M  V30 3884 H 366.429 1.02482 3.51984 0
M  V30 3885 H 366.077 -1.0125 4.92704 0
M  V30 3886 H 365.777 0.477325 5.85658 0
M  V30 3887 H 367.301 -0.425107 6.09118 0
M  V30 3888 H 368.715 1.75612 5.45741 0
M  V30 3889 H 367.112 2.54695 5.43369 0
M  V30 3890 H 368.182 2.69909 4.02836 0
M  V30 3891 N 369.525 -1.3858 0.750561 0
M  V30 3892 C 370.773 -1.99789 0.30477 0
M  V30 3893 C 371.094 -1.59874 -1.11649 0
M  V30 3894 O 370.364 -0.85417 -1.76297 0
M  V30 3895 H 368.944 -0.738902 0.109694 0
M  V30 3896 H 371.606 -1.69391 0.963983 0
M  V30 3897 H 370.702 -3.09952 0.365499 0
M  V30 3898 N 371.003 -0.499398 -1.49478 0
M  V30 3899 C 372.28 0.108629 -1.95298 0
M  V30 3900 C 372.66 1.54282 -1.44084 0
M  V30 3901 O 372.008 2.18944 -0.653908 0
M  V30 3902 C 372.218 0.0229111 -3.48992 0
M  V30 3903 C 373.566 0.197643 -4.2414 0
M  V30 3904 O 374.59 0.0981735 -3.56065 0
M  V30 3905 O 373.449 0.401669 -5.45022 0
M  V30 3906 H 370.543 0.096181 -0.821388 0
M  V30 3907 H 373.089 -0.561822 -1.6013 0
M  V30 3908 H 371.861 -0.977321 -3.78899 0
M  V30 3909 H 371.484 0.733579 -3.90774 0
M  V30 3910 N 372.481 1.55866 -0.233164 0
M  V30 3911 C 373.413 2.18099 0.704668 0
M  V30 3912 C 374.426 1.15334 1.14899 0
M  V30 3913 O 375.615 1.42262 1.07814 0
M  V30 3914 C 372.715 2.7592 1.96777 0
M  V30 3915 C 371.888 4.03969 1.67713 0
M  V30 3916 C 370.947 4.46242 2.78845 0
M  V30 3917 O 369.973 5.12903 2.46818 0
M  V30 3918 N 371.175 4.12886 4.08051 0
M  V30 3919 H 373.94 2.99205 0.172258 0
M  V30 3920 H 371.501 1.61815 -0.0525945 0
M  V30 3921 H 373.493 3.01165 2.70337 0
M  V30 3922 H 372.063 1.99051 2.41034 0
M  V30 3923 H 371.283 3.86459 0.777391 0
M  V30 3924 H 372.571 4.8748 1.4574 0
M  V30 3925 H 371.969 3.59342 4.3691 0
M  V30 3926 H 370.526 4.42997 4.78118 0
M  V30 3927 N 373.959 -0.0401083 1.57549 0
M  V30 3928 C 375.189 -0.744115 1.92734 0
M  V30 3929 C 375.597 -1.70005 0.830348 0
M  V30 3930 O 374.94 -1.82576 -0.20286 0
M  V30 3931 C 375.002 -1.56516 3.2364 0
M  V30 3932 C 374.666 -0.7752 4.50377 0
M  V30 3933 C 375.663 -0.0803326 5.19838 0
M  V30 3934 C 373.348 -0.733002 4.96923 0
M  V30 3935 C 375.342 0.646154 6.34116 0
M  V30 3936 C 373.029 -0.00276321 6.111 0
M  V30 3937 C 374.027 0.685585 6.7955 0
M  V30 3938 O 373.715 1.40399 7.91545 0
M  V30 3939 H 373.447 -0.214861 0.640945 0
M  V30 3940 H 376.001 -0.00503675 2.05399 0
M  V30 3941 H 374.231 -2.3478 3.07271 0
M  V30 3942 H 375.92 -2.15076 3.44234 0
M  V30 3943 H 376.686 -0.104035 4.84888 0
M  V30 3944 H 372.565 -1.25827 4.43496 0
M  V30 3945 H 376.109 1.18398 6.87479 0
M  V30 3946 H 372.006 0.0229012 6.45496 0
M  V30 3947 H 372.774 1.31653 8.07843 0
M  V30 3948 N 375.437 -1.54477 -0.31217 0
M  V30 3949 C 376.685 -1.72884 -1.04668 0
M  V30 3950 C 377.006 -0.511477 -1.88173 0
M  V30 3951 O 376.276 0.474407 -1.90069 0
M  V30 3952 H 374.856 -0.637461 -0.389425 0
M  V30 3953 H 377.518 -1.91807 -0.345852 0
M  V30 3954 H 376.614 -2.61334 -1.70619 0
M  V30 3955 N 376.915 0.57481 -1.46744 0
M  V30 3956 C 377.863 1.70435 -1.58286 0
M  V30 3957 C 378.857 1.63287 -0.450956 0
M  V30 3958 O 380.063 1.68685 -0.628121 0
M  V30 3959 H 376.438 0.56364 -0.497809 0
M  V30 3960 H 378.409 1.57833 -2.53242 0
M  V30 3961 C 377.158 3.08815 -1.59776 0
M  V30 3962 H 376.481 3.1499 -2.46214 0
M  V30 3963 H 377.921 3.87588 -1.71905 0
M  V30 3964 C 376.38 3.35301 -0.327812 0
M  V30 3965 O 376.91 3.97511 0.57861 0
M  V30 3966 N 375.116 2.89816 -0.213274 0
M  V30 3967 H 374.663 2.39371 -0.951798 0
M  V30 3968 H 374.621 3.0791 0.63553 0
M  V30 3969 N 378.394 1.34581 0.820102 0
M  V30 3970 C 379.643 1.26437 1.57151 0
M  V30 3971 C 379.956 -0.163111 1.94919 0
M  V30 3972 O 381.162 -0.366722 2.69012 0
M  V30 3973 C 379.618 2.21658 2.83541 0
M  V30 3974 C 379.226 3.69679 2.53065 0
M  V30 3975 C 380.97 2.22428 3.61561 0
M  V30 3976 C 378.877 4.56761 3.75664 0
M  V30 3977 H 377.807 0.469707 0.589823 0
M  V30 3978 H 380.458 1.59763 0.902656 0
M  V30 3979 H 378.84 1.81287 3.52067 0
M  V30 3980 H 380.014 4.18605 1.92631 0
M  V30 3981 H 378.329 3.71384 1.88316 0
M  V30 3982 H 380.926 2.8471 4.52597 0
M  V30 3983 H 381.269 1.22434 3.97889 0
M  V30 3984 H 381.802 2.61259 2.99981 0
M  V30 3985 H 378.541 5.57702 3.44454 0
M  V30 3986 H 378.061 4.12568 4.35371 0
M  V30 3987 H 379.74 4.71509 4.43044 0
M  V30 3988 N 379.872 -1.04064 1.18357 0
M  V30 3989 C 380.802 -2.14001 0.934113 0
M  V30 3990 C 381.783 -1.69616 -0.128186 0
M  V30 3991 O 382.968 -1.94185 0.0244093 0
M  V30 3992 C 380.098 -3.44253 0.459066 0
M  V30 3993 C 379.052 -4.02261 1.46185 0
M  V30 3994 C 378.378 -5.27992 0.844322 0
M  V30 3995 C 379.678 -4.38432 2.83856 0
M  V30 3996 H 381.372 -2.35127 1.85352 0
M  V30 3997 H 378.918 -1.12998 0.892604 0
M  V30 3998 H 380.871 -4.20522 0.271907 0
M  V30 3999 H 379.595 -3.22813 -0.495912 0
M  V30 4000 H 378.254 -3.28074 1.63595 0
M  V30 4001 H 377.902 -5.02862 -0.117845 0
M  V30 4002 H 377.602 -5.67765 1.51384 0
M  V30 4003 H 379.126 -6.06938 0.667693 0
M  V30 4004 H 380.54 -5.05688 2.70098 0
M  V30 4005 H 378.937 -4.89254 3.47491 0
M  V30 4006 H 380.007 -3.4826 3.37406 0
M  V30 4007 N 381.35 -0.985608 -1.22978 0
M  V30 4008 C 382.3 -0.50118 -2.22423 0
M  V30 4009 C 383.284 0.426649 -1.5514 0
M  V30 4010 O 384.476 0.254656 -1.75159 0
M  V30 4011 C 381.605 0.190003 -3.42774 0
M  V30 4012 C 380.691 -0.757703 -4.17276 0
M  V30 4013 N 381.082 -1.90251 -4.68656 0
M  V30 4014 C 379.38 -0.57209 -4.42316 0
M  V30 4015 C 380.081 -2.49676 -5.25392 0
M  V30 4016 N 379.057 -1.78013 -5.13627 0
M  V30 4017 H 382.859 -1.37441 -2.59783 0
M  V30 4018 H 380.373 -0.846941 -1.38567 0
M  V30 4019 H 382.37 0.55439 -4.13197 0
M  V30 4020 H 381.03 1.05946 -3.06929 0
M  V30 4021 H 382.041 -2.28354 -4.64839 0
M  V30 4022 H 378.718 0.251909 -4.16739 0
M  V30 4023 H 380.108 -3.46384 -5.75732 0
M  V30 4024 N 382.828 1.3818 -0.7579 0
M  V30 4025 C 383.758 2.33027 -0.148597 0
M  V30 4026 C 384.739 1.55085 0.69875 0
M  V30 4027 O 385.924 1.83384 0.639053 0
M  V30 4028 C 383.054 3.3928 0.742034 0
M  V30 4029 C 382.008 4.28 -0.00291946 0
M  V30 4030 C 381.334 5.25146 1.00625 0
M  V30 4031 C 382.634 5.08938 -1.17385 0
M  V30 4032 H 384.328 2.84231 -0.940909 0
M  V30 4033 H 381.874 1.36659 -0.453908 0
M  V30 4034 H 383.827 4.046 1.17799 0
M  V30 4035 H 382.551 2.86569 1.56671 0
M  V30 4036 H 381.21 3.64192 -0.419504 0
M  V30 4037 H 380.858 4.68721 1.8251 0
M  V30 4038 H 380.558 5.85361 0.512428 0
M  V30 4039 H 382.082 5.93342 1.44143 0
M  V30 4040 H 383.496 5.67474 -0.815224 0
M  V30 4041 H 381.893 5.7841 -1.59882 0
M  V30 4042 H 382.963 4.42424 -1.98468 0
M  V30 4043 N 384.306 0.507319 1.49211 0
M  V30 4044 C 385.536 -0.0315292 2.06576 0
M  V30 4045 C 385.944 -1.30791 1.36713 0
M  V30 4046 O 385.287 -1.78324 0.441181 0
M  V30 4047 C 385.349 -0.349104 3.57801 0
M  V30 4048 C 385.013 0.830475 4.49391 0
M  V30 4049 C 386.01 1.72271 4.90529 0
M  V30 4050 C 383.695 1.03107 4.91604 0
M  V30 4051 C 385.689 2.79964 5.72625 0
M  V30 4052 C 383.376 2.11116 5.73475 0
M  V30 4053 C 384.374 2.99379 6.1389 0
M  V30 4054 O 384.062 4.05523 6.94123 0
M  V30 4055 H 383.794 0.0201002 0.675701 0
M  V30 4056 H 386.348 0.705737 1.92895 0
M  V30 4057 H 384.578 -1.14005 3.69513 0
M  V30 4058 H 386.267 -0.827319 3.97379 0
M  V30 4059 H 387.033 1.57958 4.58557 0
M  V30 4060 H 382.912 0.353417 4.59643 0
M  V30 4061 H 386.456 3.48884 6.04091 0
M  V30 4062 H 382.353 2.25421 6.0486 0
M  V30 4063 H 383.121 4.02953 7.1244 0
M  V30 4064 N 385.784 -1.5574 0.241426 0
M  V30 4065 C 386.694 -2.2479 -0.671305 0
M  V30 4066 C 387.71 -1.26217 -1.19772 0
M  V30 4067 O 388.886 -1.59079 -1.23514 0
M  V30 4068 C 385.951 -2.92966 -1.85396 0
M  V30 4069 C 385.012 -4.06935 -1.36756 0
M  V30 4070 C 384.245 -4.71851 -2.49384 0
M  V30 4071 O 384.468 -4.35823 -3.67987 0
M  V30 4072 O 383.402 -5.60467 -2.19454 0
M  V30 4073 H 387.228 -3.0349 -0.112966 0
M  V30 4074 H 384.813 -1.49397 0.0101513 0
M  V30 4075 H 386.695 -3.35927 -2.54423 0
M  V30 4076 H 385.37 -2.17211 -2.40002 0
M  V30 4077 H 384.277 -3.68503 -0.644726 0
M  V30 4078 H 385.61 -4.84492 -0.867647 0
M  V30 4079 N 387.262 0.0317525 -1.57568 0
M  V30 4080 C 388.678 0.38735 -1.54828 0
M  V30 4081 C 388.878 1.7677 -0.967187 0
M  V30 4082 O 387.934 2.45581 -0.587063 0
M  V30 4083 C 389.247 0.291667 -2.99282 0
M  V30 4084 C 390.795 0.368946 -3.10818 0
M  V30 4085 C 391.27 0.302741 -4.56998 0
M  V30 4086 N 392.761 0.361617 -4.61786 0
M  V30 4087 C 393.496 0.333238 -5.72431 0
M  V30 4088 N 392.992 0.257308 -6.92322 0
M  V30 4089 N 394.785 0.382769 -5.60795 0
M  V30 4090 H 386.936 -0.871609 -1.93692 0
M  V30 4091 H 389.199 -0.331161 -0.888277 0
M  V30 4092 H 388.905 -0.656794 -3.45513 0
M  V30 4093 H 388.779 1.08638 -3.61217 0
M  V30 4094 H 391.166 1.30784 -2.64536 0
M  V30 4095 H 391.247 -0.455066 -2.5172 0
M  V30 4096 H 390.891 -0.632473 -5.03947 0
M  V30 4097 H 390.821 1.14482 -5.14005 0
M  V30 4098 H 393.312 0.422923 -3.75526 0
M  V30 4099 H 393.625 0.24068 -7.72425 0
M  V30 4100 H 391.97 0.223396 -6.94641 0
M  V30 4101 H 395.161 0.44006 -4.66027 0
M  V30 4102 H 395.334 0.357184 -6.47015 0
M  V30 4103 N 388.74 1.54641 0.303973 0
M  V30 4104 C 390.017 1.64455 1.05896 0
M  V30 4105 C 390.397 0.490923 2.05312 0
M  V30 4106 O 389.745 -0.512685 2.22674 0
M  V30 4107 C 389.955 3.02331 1.74347 0
M  V30 4108 C 391.303 3.59045 2.26653 0
M  V30 4109 O 392.327 3.04764 1.84384 0
M  V30 4110 O 391.186 4.54081 3.04093 0
M  V30 4111 H 388.28 0.666729 0.489287 0
M  V30 4112 H 390.826 1.66986 0.302298 0
M  V30 4113 H 389.598 3.77734 1.02142 0
M  V30 4114 H 389.221 3.03565 2.56777 0
M  V30 4115 N 390.218 -0.567019 1.47046 0
M  V30 4116 C 391.458 -1.3355 1.54738 0
M  V30 4117 C 391.822 -1.90947 0.200772 0
M  V30 4118 O 393.023 -2.68367 0.152489 0
M  V30 4119 C 391.294 -2.42317 2.62712 0
M  V30 4120 S 392.853 -3.29383 2.89918 0
M  V30 4121 H 389.671 -0.454788 0.546525 0
M  V30 4122 H 392.273 -0.650191 1.84371 0
M  V30 4123 H 390.977 -1.98568 3.59164 0
M  V30 4124 H 390.508 -3.15601 2.34861 0
M  V30 4125 H 392.523 -4.41548 2.26384 0
M  V30 4126 N 391.696 -1.35014 -0.812953 0
M  V30 4127 C 392.921 -1.31187 -1.60639 0
M  V30 4128 C 393.346 0.109382 -1.87782 0
M  V30 4129 O 392.704 1.07424 -1.46047 0
M  V30 4130 C 392.752 -2.11809 -2.91838 0
M  V30 4131 O 391.856 -1.49444 -3.8437 0
M  V30 4132 H 391.197 -0.450084 -0.488181 0
M  V30 4133 H 393.727 -1.77963 -1.00947 0
M  V30 4134 H 393.737 -2.23531 -3.41318 0
M  V30 4135 H 392.412 -3.15137 -2.71407 0
M  V30 4136 H 390.989 -1.46524 -3.42907 0
M  V30 4137 N 393.175 1.03435 -1.18907 0
M  V30 4138 C 394.424 1.76143 -0.982669 0
M  V30 4139 C 394.737 1.89416 0.487953 0
M  V30 4140 O 395.943 2.59041 0.813036 0
M  V30 4141 C 394.399 3.16722 -1.70924 0
M  V30 4142 C 394.007 3.11522 -3.21959 0
M  V30 4143 C 395.751 3.93764 -1.58588 0
M  V30 4144 C 393.658 4.46999 -3.87228 0
M  V30 4145 H 392.588 0.660292 -0.364047 0
M  V30 4146 H 395.239 1.158 -1.42347 0
M  V30 4147 H 393.621 3.775 -1.19623 0
M  V30 4148 H 394.795 2.60158 -3.80335 0
M  V30 4149 H 393.11 2.47978 -3.34508 0
M  V30 4150 H 395.707 4.93963 -2.04707 0
M  V30 4151 H 396.05 4.12794 -0.539142 0
M  V30 4152 H 396.583 3.39576 -2.07203 0
M  V30 4153 H 393.322 4.33174 -4.91976 0
M  V30 4154 H 392.842 4.98441 -3.33642 0
M  V30 4155 H 394.521 5.15898 -3.90459 0
M  V30 4156 N 394.653 0.992116 1.22453 0
M  V30 4157 C 395.585 0.500024 2.23679 0
M  V30 4158 C 396.598 -0.404463 1.57696 0
M  V30 4159 O 397.787 -0.206722 1.77299 0
M  V30 4160 C 394.887 -0.294711 3.37616 0
M  V30 4161 C 394.06 0.605723 4.33186 0
M  V30 4162 C 393.119 -0.13717 5.26021 0
M  V30 4163 O 392.145 0.477164 5.67196 0
M  V30 4164 N 393.347 -1.4197 5.62872 0
M  V30 4165 H 396.112 1.37045 2.66531 0
M  V30 4166 H 393.673 0.866741 1.36745 0
M  V30 4167 H 395.665 -0.800329 3.96707 0
M  V30 4168 H 394.235 -1.06623 2.93854 0
M  V30 4169 H 393.455 1.29202 3.72425 0
M  V30 4170 H 394.743 1.21896 4.93983 0
M  V30 4171 H 394.141 -1.94015 5.31389 0
M  V30 4172 H 392.698 -1.87052 6.24383 0
M  V30 4173 N 396.131 -1.37776 0.765217 0
M  V30 4174 C 397.547 -1.53297 0.444108 0
M  V30 4175 C 397.747 -1.72515 -1.04119 0
M  V30 4176 O 396.803 -1.74278 -1.82711 0
M  V30 4177 C 398.116 -2.73328 1.25349 0
M  V30 4178 C 399.664 -2.87185 1.24473 0
M  V30 4179 C 400.139 -4.10191 2.03733 0
M  V30 4180 N 401.63 -4.17291 2.01053 0
M  V30 4181 C 402.365 -5.11488 2.59166 0
M  V30 4182 N 401.861 -6.11285 3.26041 0
M  V30 4183 N 403.654 -5.03924 2.49032 0
M  V30 4184 H 395.805 -1.23552 1.72768 0
M  V30 4185 H 398.068 -0.601103 0.733062 0
M  V30 4186 H 397.774 -2.6557 2.30577 0
M  V30 4187 H 397.648 -3.66834 0.87823 0
M  V30 4188 H 400.035 -2.94418 0.20047 0
M  V30 4189 H 400.116 -1.94657 1.65959 0
M  V30 4190 H 399.76 -4.0372 3.08176 0
M  V30 4191 H 399.69 -5.01821 1.59633 0
M  V30 4192 H 402.181 -3.45825 1.5236 0
M  V30 4193 H 402.494 -6.79678 3.67774 0
M  V30 4194 H 400.839 -6.11583 3.30138 0
M  V30 4195 H 404.03 -4.24902 1.96407 0
M  V30 4196 H 404.203 -5.77152 2.94617 0
M  V30 4197 N 397.609 -0.515225 -1.4894 0
M  V30 4198 C 399.025 -0.172099 -1.58669 0
M  V30 4199 C 399.225 1.32405 -1.51892 0
M  V30 4200 O 398.281 2.10116 -1.40027 0
M  V30 4201 C 399.594 -0.761533 -2.90897 0
M  V30 4202 C 401.142 -0.728926 -3.04394 0
M  V30 4203 C 401.617 -1.29667 -4.39261 0
M  V30 4204 N 403.108 -1.25799 -4.4579 0
M  V30 4205 C 403.843 -1.66733 -5.48623 0
M  V30 4206 N 403.339 -2.15327 -6.58488 0
M  V30 4207 N 405.132 -1.58061 -5.39419 0
M  V30 4208 H 397.283 -1.48778 -1.51588 0
M  V30 4209 H 399.546 -0.617968 -0.718901 0
M  V30 4210 H 399.252 -1.81136 -3.01468 0
M  V30 4211 H 399.126 -0.230106 -3.76497 0
M  V30 4212 H 401.513 0.312098 -2.93445 0
M  V30 4213 H 401.594 -1.29766 -2.20442 0
M  V30 4214 H 401.238 -2.33655 -4.50963 0
M  V30 4215 H 401.168 -0.703752 -5.21876 0
M  V30 4216 H 403.659 -0.902102 -3.66975 0
M  V30 4217 H 403.972 -2.44594 -7.33071 0
M  V30 4218 H 402.317 -2.19311 -6.59491 0
M  V30 4219 H 405.508 -1.19906 -4.52482 0
M  V30 4220 H 405.681 -1.90284 -6.19432 0
M  V30 4221 N 399.087 1.5561 -0.249682 0
M  V30 4222 C 400.037 2.18157 0.662673 0
M  V30 4223 C 401.021 1.1383 1.13717 0
M  V30 4224 O 402.213 1.39731 1.08648 0
M  V30 4225 C 399.342 2.88672 1.85805 0
M  V30 4226 C 398.428 4.00258 1.40193 0
M  V30 4227 N 398.819 5.01473 0.660213 0
M  V30 4228 C 397.117 4.12864 1.68698 0
M  V30 4229 C 397.818 5.80155 0.423695 0
M  V30 4230 N 396.794 5.34533 0.988721 0
M  V30 4231 H 400.596 2.93769 0.0878688 0
M  V30 4232 H 398.11 1.62316 -0.0521183 0
M  V30 4233 H 400.107 3.31912 2.5227 0
M  V30 4234 H 398.767 2.14564 2.43705 0
M  V30 4235 H 399.778 5.16971 0.310047 0
M  V30 4236 H 396.455 3.4993 2.27717 0
M  V30 4237 H 397.845 6.71688 -0.168616 0
M  V30 4238 N 400.565 -0.0233959 1.57583 0
M  V30 4239 C 401.497 -1.04994 2.03737 0
M  V30 4240 C 402.51 -1.32125 0.951152 0
M  V30 4241 O 403.699 -1.29512 1.22837 0
M  V30 4242 C 400.799 -2.39026 2.40249 0
M  V30 4243 C 399.972 -2.31171 3.7132 0
M  V30 4244 C 399.031 -3.47698 3.94959 0
M  V30 4245 O 398.057 -3.26937 4.65941 0
M  V30 4246 N 399.259 -4.6976 3.41037 0
M  V30 4247 H 402.024 -0.656507 2.92421 0
M  V30 4248 H 399.585 -0.211235 1.60516 0
M  V30 4249 H 401.577 -3.15712 2.53196 0
M  V30 4250 H 400.147 -2.70194 1.57207 0
M  V30 4251 H 399.367 -1.39547 3.68674 0
M  V30 4252 H 400.655 -2.23071 4.57293 0
M  V30 4253 H 400.053 -4.89528 2.83512 0
M  V30 4254 H 398.61 -5.43791 3.59353 0
M  V30 4255 N 402.043 -1.548 -0.295768 0
M  V30 4256 C 402.99 -1.86113 -1.36494 0
M  V30 4257 C 403.96 -0.7105 -1.50137 0
M  V30 4258 O 405.145 -0.959626 -1.64912 0
M  V30 4259 C 402.285 -2.11861 -2.72413 0
M  V30 4260 C 401.398 -3.39471 -2.67177 0
M  V30 4261 C 400.533 -3.55035 -3.95125 0
M  V30 4262 C 399.572 -4.76418 -3.84308 0
M  V30 4263 N 398.709 -4.8876 -5.04042 0
M  V30 4264 H 403.549 -2.77314 -1.09091 0
M  V30 4265 H 401.086 -1.37315 -0.52753 0
M  V30 4266 H 403.044 -2.24786 -3.51464 0
M  V30 4267 H 401.674 -1.2392 -2.98066 0
M  V30 4268 H 400.726 -3.35139 -1.79962 0
M  V30 4269 H 402.038 -4.28646 -2.55076 0
M  V30 4270 H 401.192 -3.67653 -4.82614 0
M  V30 4271 H 399.931 -2.64002 -4.10066 0
M  V30 4272 H 398.936 -4.63827 -2.95202 0
M  V30 4273 H 400.161 -5.68863 -3.70906 0
M  V30 4274 H 398.107 -4.00652 -5.19436 0
M  V30 4275 H 398.024 -5.71945 -4.94384 0
M  V30 4276 H 399.292 -5.0574 -5.93167 0
M  V30 4277 N 403.521 0.559213 -1.47345 0
M  V30 4278 C 404.767 1.31843 -1.54095 0
M  V30 4279 C 405.1 1.93149 -0.201726 0
M  V30 4280 O 404.375 1.77759 0.789428 0
M  V30 4281 C 404.658 2.43006 -2.65744 0
M  V30 4282 C 404.511 1.86581 -4.09277 0
M  V30 4283 C 405.83 3.44943 -2.73318 0
M  V30 4284 H 402.949 0.478012 -0.560957 0
M  V30 4285 H 405.591 0.625977 -1.79392 0
M  V30 4286 H 403.741 3.02072 -2.44305 0
M  V30 4287 H 405.413 1.31792 -4.42073 0
M  V30 4288 H 403.656 1.17268 -4.17649 0
M  V30 4289 H 404.327 2.66933 -4.83168 0
M  V30 4290 H 406.803 2.95793 -2.92653 0
M  V30 4291 H 405.679 4.20153 -3.53218 0
M  V30 4292 H 405.94 4.03665 -1.80296 0
M  V30 4293 N 404.999 1.35443 0.805782 0
M  V30 4294 C 406.245 1.28952 1.56522 0
M  V30 4295 C 406.578 -0.135597 1.93726 0
M  V30 4296 O 405.853 -1.08516 1.61414 0
M  V30 4297 C 406.136 2.19678 2.85331 0
M  V30 4298 C 405.989 3.7081 2.54598 0
M  V30 4299 C 407.308 2.09495 3.8704 0
M  V30 4300 H 404.427 0.469764 0.567883 0
M  V30 4301 H 407.069 1.65851 0.927001 0
M  V30 4302 H 405.219 1.8834 3.39795 0
M  V30 4303 H 406.891 4.12593 2.06312 0
M  V30 4304 H 405.134 3.91051 1.8778 0
M  V30 4305 H 405.805 4.29679 3.46525 0
M  V30 4306 H 408.281 2.37045 3.41978 0
M  V30 4307 H 407.157 2.75173 4.74943 0
M  V30 4308 H 407.418 1.07714 4.28777 0
M  V30 4309 N 406.477 -1.02803 1.19454 0
M  V30 4310 C 407.387 -2.14575 0.948408 0
M  V30 4311 C 408.403 -1.73757 -0.091871 0
M  V30 4312 O 409.579 -2.01185 0.0929654 0
M  V30 4313 C 406.644 -3.43202 0.491265 0
M  V30 4314 C 405.705 -3.98328 1.60103 0
M  V30 4315 C 404.938 -5.20816 1.16561 0
M  V30 4316 O 405.161 -5.70392 0.0295238 0
M  V30 4317 O 404.095 -5.68801 1.96849 0
M  V30 4318 H 407.921 -2.38202 1.88397 0
M  V30 4319 H 405.506 -1.12989 0.977433 0
M  V30 4320 H 407.388 -4.20687 0.245015 0
M  V30 4321 H 406.063 -3.21018 -0.415851 0
M  V30 4322 H 404.97 -3.22174 1.90144 0
M  V30 4323 H 406.303 -4.24879 2.48473 0
M  V30 4324 N 407.956 -0.998596 -1.21925 0
M  V30 4325 C 409.205 -0.673085 -1.90138 0
M  V30 4326 C 409.518 0.79895 -1.78539 0
M  V30 4327 O 410.724 1.23628 -2.4172 0
M  V30 4328 C 409.18 -1.15339 -3.40918 0
M  V30 4329 C 408.788 -2.65106 -3.61141 0
M  V30 4330 C 410.532 -0.902476 -4.14796 0
M  V30 4331 C 408.439 -3.0671 -5.05651 0
M  V30 4332 H 407.369 -0.248057 -0.712028 0
M  V30 4333 H 410.02 -1.20891 -1.38049 0
M  V30 4334 H 408.402 -0.545658 -3.92223 0
M  V30 4335 H 409.576 -3.31274 -3.20304 0
M  V30 4336 H 407.891 -2.88142 -3.00605 0
M  V30 4337 H 410.488 -1.18895 -5.21314 0
M  V30 4338 H 410.831 0.161349 -4.15987 0
M  V30 4339 H 411.364 -1.47269 -3.69536 0
M  V30 4340 H 408.103 -4.12292 -5.09603 0
M  V30 4341 H 407.623 -2.45249 -5.47369 0
M  V30 4342 H 409.302 -2.9833 -5.74115 0
M  V30 4343 N 409.434 1.37368 -0.772513 0
M  V30 4344 C 410.397 2.28601 -0.165541 0
M  V30 4345 C 411.397 1.48062 0.627238 0
M  V30 4346 O 412.587 1.68268 0.450715 0
M  V30 4347 C 409.719 3.32023 0.772897 0
M  V30 4348 H 410.912 2.83787 -0.969787 0
M  V30 4349 H 408.465 1.46647 -0.540775 0
M  V30 4350 H 409.2 2.81962 1.60212 0
M  V30 4351 H 408.985 3.91555 0.206585 0
M  V30 4352 H 410.475 4.00197 1.19298 0
M  V30 4353 N 410.912 0.523116 1.48665 0
M  V30 4354 C 412.323 0.0808997 1.86525 0
M  V30 4355 C 412.674 -1.33975 1.43336 0
M  V30 4356 O 411.799 -2.00221 0.821009 0
M  V30 4357 C 412.394 0.140037 3.3851 0
M  V30 4358 C 410.953 -0.246948 3.75589 0
M  V30 4359 C 410.1 0.502845 2.72703 0
M  V30 4360 H 413.051 0.734736 1.40667 0
M  V30 4361 H 413.072 -0.649945 3.74908 0
M  V30 4362 H 412.584 1.17412 3.69914 0
M  V30 4363 H 410.685 -1.28343 3.49798 0
M  V30 4364 H 410.798 0.0878859 4.79019 0
M  V30 4365 H 409.162 -0.0500581 2.54651 0
M  V30 4366 H 409.945 1.53743 3.0695 0
M  V30 4367 N 412.39 -1.55475 0.257931 0
M  V30 4368 C 413.353 -2.20551 -0.623706 0
M  V30 4369 C 414.353 -1.17809 -1.09443 0
M  V30 4370 O 415.543 -1.42823 -0.997362 0
M  V30 4371 C 412.675 -2.85784 -1.8585 0
M  V30 4372 H 413.868 -2.99848 -0.0557743 0
M  V30 4373 H 411.421 -1.56298 0.0084422 0
M  V30 4374 H 412.156 -2.10453 -2.46739 0
M  V30 4375 H 411.941 -3.61057 -1.52907 0
M  V30 4376 H 413.431 -3.35553 -2.48584 0
M  V30 4377 N 413.868 0.0150385 -1.57593 0
M  V30 4378 C 414.831 0.995996 -2.06428 0
M  V30 4379 C 415.831 1.2818 -0.970903 0
M  V30 4380 O 417.021 1.22949 -1.23406 0
M  V30 4381 C 414.153 2.32506 -2.49307 0
M  V30 4382 H 415.346 0.573873 -2.94358 0
M  V30 4383 H 412.899 0.262186 -1.54085 0
M  V30 4384 H 413.634 2.79438 -1.64575 0
M  V30 4385 H 413.419 2.13087 -3.29145 0
M  V30 4386 H 414.909 3.02906 -2.87468 0
M  V30 4387 N 415.346 1.54954 0.287554 0
M  V30 4388 C 416.296 1.8322 1.357 0
M  V30 4389 C 417.28 0.690152 1.45347 0
M  V30 4390 O 418.472 0.951137 1.49273 0
M  V30 4391 C 415.601 2.09481 2.71979 0
M  V30 4392 C 414.687 3.29906 2.66502 0
M  V30 4393 N 415.078 4.50154 2.30641 0
M  V30 4394 C 413.376 3.32203 2.97585 0
M  V30 4395 C 414.077 5.32209 2.34794 0
M  V30 4396 N 413.053 4.70258 2.72688 0
M  V30 4397 H 416.855 2.73746 1.0696 0
M  V30 4398 H 414.369 1.54635 0.496167 0
M  V30 4399 H 416.366 2.27882 3.49107 0
M  V30 4400 H 415.026 1.2023 3.0162 0
M  V30 4401 H 416.037 4.76515 2.02865 0
M  V30 4402 H 412.714 2.53101 3.32034 0
M  V30 4403 H 414.104 6.38321 2.09753 0
M  V30 4404 N 416.824 -0.551391 1.4764 0
M  V30 4405 C 417.754 -1.66757 1.63445 0
M  V30 4406 C 418.735 -1.63077 0.483742 0
M  V30 4407 O 419.92 -1.80607 0.71377 0
M  V30 4408 C 417.05 -3.05387 1.65396 0
M  V30 4409 C 416.004 -3.23918 2.79752 0
M  V30 4410 C 415.33 -4.63393 2.66779 0
M  V30 4411 C 416.63 -3.08735 4.21284 0
M  V30 4412 H 418.324 -1.53786 2.56886 0
M  V30 4413 H 415.87 -0.738415 1.23626 0
M  V30 4414 H 417.823 -3.83325 1.75043 0
M  V30 4415 H 416.547 -3.19332 0.685195 0
M  V30 4416 H 415.206 -2.48391 2.69625 0
M  V30 4417 H 414.854 -4.74144 1.67918 0
M  V30 4418 H 414.554 -4.7674 3.43501 0
M  V30 4419 H 416.078 -5.43458 2.78364 0
M  V30 4420 H 417.492 -3.76484 4.32357 0
M  V30 4421 H 415.889 -3.33588 4.98838 0
M  V30 4422 H 416.959 -2.0541 4.39243 0
M  V30 4423 N 418.302 -1.35869 -0.798587 0
M  V30 4424 C 419.579 -1.20145 -1.54352 0
M  V30 4425 C 419.959 0.216161 -2.0999 0
M  V30 4426 O 419.307 1.22068 -1.93162 0
M  V30 4427 C 419.517 -2.27602 -2.64572 0
M  V30 4428 C 420.865 -2.63811 -3.32699 0
M  V30 4429 O 421.889 -2.26576 -2.74849 0
M  V30 4430 O 420.748 -3.27866 -4.37226 0
M  V30 4431 H 417.842 -0.467248 -0.682355 0
M  V30 4432 H 420.388 -1.47574 -0.837859 0
M  V30 4433 H 419.16 -3.2265 -2.21388 0
M  V30 4434 H 418.783 -2.01488 -3.42766 0
M  V30 4435 N 419.78 1.02168 -1.19998 0
M  V30 4436 C 421.191 1.57135 -1.00825 0
M  V30 4437 C 421.542 1.91276 0.436818 0
M  V30 4438 O 420.667 1.71679 1.3174 0
M  V30 4439 C 421.262 2.85514 -1.82393 0
M  V30 4440 C 419.821 3.37027 -1.67601 0
M  V30 4441 C 418.968 2.10388 -1.80644 0
M  V30 4442 H 421.919 0.846106 -1.34264 0
M  V30 4443 H 421.94 3.56711 -1.32429 0
M  V30 4444 H 421.452 2.60634 -2.87561 0
M  V30 4445 H 419.553 3.66878 -0.650485 0
M  V30 4446 H 419.666 4.09572 -2.4857 0
M  V30 4447 H 418.03 2.22601 -1.23778 0
M  V30 4448 H 418.813 1.8794 -2.87286 0
M  V30 4449 N 421.258 1.00505 1.21394 0
M  V30 4450 C 422.19 0.52372 2.23136 0
M  V30 4451 C 423.203 -0.387714 1.58116 0
M  V30 4452 O 424.392 -0.187905 1.77508 0
M  V30 4453 C 421.492 -0.258885 3.3791 0
M  V30 4454 C 420.665 0.651634 4.32519 0
M  V30 4455 C 419.724 -0.0813705 5.26137 0
M  V30 4456 O 418.75 0.537295 5.66658 0
M  V30 4457 N 419.952 -1.35992 5.64346 0
M  V30 4458 H 422.717 1.39865 2.65062 0
M  V30 4459 H 420.278 0.881196 1.35818 0
M  V30 4460 H 422.27 -0.758208 3.97534 0
M  V30 4461 H 420.84 -1.035 2.94968 0
M  V30 4462 H 420.06 1.33145 3.71034 0
M  V30 4463 H 421.348 1.27129 4.92662 0
M  V30 4464 H 420.746 -1.88368 5.33417 0
M  V30 4465 H 419.303 -1.8042 6.26332 0
M  V30 4466 N 422.737 -1.36956 0.779787 0
M  V30 4467 C 423.667 -2.32761 0.185651 0
M  V30 4468 C 424.648 -1.56177 -0.673989 0
M  V30 4469 O 425.833 -1.84378 -0.609797 0
M  V30 4470 C 422.963 -3.40418 -0.687964 0
M  V30 4471 C 421.917 -4.27941 0.0710102 0
M  V30 4472 C 421.243 -5.26681 -0.922573 0
M  V30 4473 C 422.543 -5.07006 1.25467 0
M  V30 4474 H 424.237 -2.82698 0.986008 0
M  V30 4475 H 421.783 -1.3592 0.475592 0
M  V30 4476 H 423.736 -4.06423 -1.11348 0
M  V30 4477 H 422.46 -2.89025 -1.52093 0
M  V30 4478 H 421.119 -3.63478 0.47739 0
M  V30 4479 H 420.767 -4.71565 -1.7503 0
M  V30 4480 H 420.467 -5.86103 -0.419237 0
M  V30 4481 H 421.991 -5.9556 -1.34686 0
M  V30 4482 H 423.405 -5.66105 0.905401 0
M  V30 4483 H 421.802 -5.75793 1.69063 0
M  V30 4484 H 422.872 -4.3921 2.05481 0
M  V30 4485 N 424.215 -0.530993 -1.48385 0
M  V30 4486 C 425.631 -0.188919 -1.58478 0
M  V30 4487 C 425.831 1.30786 -1.53288 0
M  V30 4488 O 424.887 2.08619 -1.42248 0
M  V30 4489 C 426.2 -0.792343 -2.90073 0
M  V30 4490 C 427.748 -0.76117 -3.03604 0
M  V30 4491 C 428.223 -1.34319 -4.37861 0
M  V30 4492 N 429.714 -1.3052 -4.44431 0
M  V30 4493 C 430.449 -1.72543 -5.46824 0
M  V30 4494 N 429.945 -2.22299 -6.56167 0
M  V30 4495 N 431.738 -1.63773 -5.37712 0
M  V30 4496 H 423.889 -1.50377 -1.50002 0
M  V30 4497 H 426.152 -0.625559 -0.712306 0
M  V30 4498 H 425.858 -1.84323 -2.99529 0
M  V30 4499 H 425.732 -0.270026 -3.76232 0
M  V30 4500 H 428.119 0.280957 -2.93759 0
M  V30 4501 H 428.2 -1.32097 -2.19053 0
M  V30 4502 H 427.844 -2.38425 -4.4846 0
M  V30 4503 H 427.774 -0.759064 -5.21101 0
M  V30 4504 H 430.265 -0.940973 -3.65997 0
M  V30 4505 H 430.578 -2.52356 -7.30436 0
M  V30 4506 H 428.923 -2.26293 -6.57127 0
M  V30 4507 H 432.114 -1.24698 -4.51185 0
M  V30 4508 H 432.287 -1.96844 -6.17379 0
M  V30 4509 N 425.693 1.55336 -0.266172 0
M  V30 4510 C 426.921 2.03801 0.356756 0
M  V30 4511 C 427.336 1.14485 1.50129 0
M  V30 4512 O 426.693 0.163121 1.8177 0
M  V30 4513 C 426.744 3.51455 0.846281 0
M  V30 4514 O 426.465 4.37371 -0.252663 0
M  V30 4515 C 427.966 4.15767 1.53794 0
M  V30 4516 H 425.186 0.665906 0.0825218 0
M  V30 4517 H 427.73 2.00636 -0.39566 0
M  V30 4518 H 425.885 3.55092 1.54881 0
M  V30 4519 H 426.299 5.24358 0.122173 0
M  V30 4520 H 427.773 5.20714 1.83198 0
M  V30 4521 H 428.25 3.63404 2.46646 0
M  V30 4522 H 428.856 4.16107 0.879488 0
M  V30 4523 N 427.171 -0.0066808 1.57599 0
M  V30 4524 C 428.587 -0.36267 1.55425 0
M  V30 4525 C 428.787 -1.75209 0.995187 0
M  V30 4526 O 427.843 -2.44616 0.626058 0
M  V30 4527 C 429.156 -0.244017 2.99708 0
M  V30 4528 C 430.704 -0.319451 3.11366 0
M  V30 4529 C 431.179 -0.229998 4.57422 0
M  V30 4530 N 432.67 -0.288105 4.62303 0
M  V30 4531 C 433.405 -0.242127 5.72889 0
M  V30 4532 N 432.901 -0.147133 6.92644 0
M  V30 4533 N 434.694 -0.293502 5.61333 0
M  V30 4534 H 426.845 0.902314 1.92281 0
M  V30 4535 H 429.108 0.34525 0.882896 0
M  V30 4536 H 428.814 0.711678 3.44424 0
M  V30 4537 H 428.688 -1.02877 3.629 0
M  V30 4538 H 431.075 -1.26559 2.66584 0
M  V30 4539 H 431.156 0.495055 2.50964 0
M  V30 4540 H 430.8 0.712566 5.02877 0
M  V30 4541 H 430.73 -1.0629 5.15761 0
M  V30 4542 H 433.221 -0.363126 3.76151 0
M  V30 4543 H 433.534 -0.117763 7.7271 0
M  V30 4544 H 431.879 -0.112857 6.94908 0
M  V30 4545 H 435.07 -0.365864 4.66668 0
M  V30 4546 H 435.243 -0.254204 6.47501 0
M  V30 4547 N 428.649 -1.55105 -0.279332 0
M  V30 4548 C 429.579 -1.90557 -1.34945 0
M  V30 4549 C 430.56 -0.766738 -1.51839 0
M  V30 4550 O 431.745 -1.02434 -1.64988 0
M  V30 4551 C 428.875 -2.17193 -2.71006 0
M  V30 4552 C 427.829 -3.33021 -2.68851 0
M  V30 4553 C 427.155 -3.45123 -4.08405 0
M  V30 4554 C 428.455 -4.69578 -2.28678 0
M  V30 4555 H 430.149 -2.80188 -1.05522 0
M  V30 4556 H 427.695 -1.34811 -0.506173 0
M  V30 4557 H 429.648 -2.40581 -3.45975 0
M  V30 4558 H 428.372 -1.24355 -3.01999 0
M  V30 4559 H 427.031 -3.0959 -1.9634 0
M  V30 4560 H 426.679 -2.49762 -4.3661 0
M  V30 4561 H 426.379 -4.22995 -4.07859 0
M  V30 4562 H 427.903 -3.70796 -4.85121 0
M  V30 4563 H 429.317 -4.92553 -2.93368 0
M  V30 4564 H 427.714 -5.5032 -2.39306 0
M  V30 4565 H 428.784 -4.68828 -1.23807 0
M  V30 4566 N 430.127 0.543554 -1.4793 0
M  V30 4567 C 431.355 1.32516 -1.58894 0
M  V30 4568 C 431.77 1.87215 -0.244131 0
M  V30 4569 O 431.127 1.65709 0.764652 0
M  V30 4570 C 431.178 2.48554 -2.62494 0
M  V30 4571 O 430.899 1.96112 -3.91755 0
M  V30 4572 C 432.4 3.40572 -2.8377 0
M  V30 4573 H 429.62 0.403472 -0.536145 0
M  V30 4574 H 432.164 0.657106 -1.93655 0
M  V30 4575 H 430.319 3.1127 -2.30629 0
M  V30 4576 H 430.733 2.71967 -4.4848 0
M  V30 4577 H 432.207 4.18375 -3.60093 0
M  V30 4578 H 432.684 3.94965 -1.92092 0
M  V30 4579 H 433.29 2.8366 -3.16887 0
M  V30 4580 N 431.605 1.3629 0.791371 0
M  V30 4581 C 432.83 1.33726 1.58531 0
M  V30 4582 C 433.255 -0.0794933 1.87932 0
M  V30 4583 O 432.613 -1.05087 1.47738 0
M  V30 4584 C 432.661 2.16425 2.88431 0
M  V30 4585 O 431.765 1.5554 3.81944 0
M  V30 4586 H 431.106 0.457793 0.480959 0
M  V30 4587 H 433.636 1.79547 0.981031 0
M  V30 4588 H 433.646 2.28933 3.37718 0
M  V30 4589 H 432.321 3.19415 2.66359 0
M  V30 4590 H 430.898 1.51961 3.40532 0
M  V30 4591 N 433.083 -1.0153 1.20538 0
M  V30 4592 C 434.36 -1.72327 0.925343 0
M  V30 4593 C 434.74 -2.03383 -0.565547 0
M  V30 4594 O 434.088 -1.69934 -1.52757 0
M  V30 4595 C 434.298 -2.9902 1.79967 0
M  V30 4596 C 435.646 -3.72258 2.04228 0
M  V30 4597 O 436.67 -3.08979 1.77231 0
M  V30 4598 O 435.529 -4.86053 2.4983 0
M  V30 4599 H 432.623 -0.751099 0.346092 0
M  V30 4600 H 435.169 -1.07366 1.31417 0
M  V30 4601 H 433.941 -2.72402 2.80915 0
M  V30 4602 H 433.564 -3.71721 1.41099 0
M  V30 4603 N 434.561 -1.01147 -1.20859 0
M  V30 4604 C 435.786 -0.716698 -1.94623 0
M  V30 4605 C 436.211 0.715415 -1.73964 0
M  V30 4606 O 435.569 1.49157 -1.03062 0
M  V30 4607 C 435.617 -1.0513 -3.44935 0
M  V30 4608 O 434.721 -0.160131 -4.12089 0
M  V30 4609 H 434.062 -0.266404 -0.608214 0
M  V30 4610 H 436.592 -1.35346 -1.53436 0
M  V30 4611 H 436.602 -1.00086 -3.95533 0
M  V30 4612 H 435.277 -2.09475 -3.59295 0
M  V30 4613 H 433.854 -0.267657 -3.71938 0
M  V30 4614 N 436.039 1.36541 -0.78704 0
M  V30 4615 C 437.285 1.99599 -0.358872 0
M  V30 4616 C 437.618 1.62323 1.06606 0
M  V30 4617 O 436.893 0.876858 1.73613 0
M  V30 4618 C 437.176 3.56327 -0.519944 0
M  V30 4619 C 437.029 4.03464 -1.98839 0
M  V30 4620 C 438.348 4.4005 0.0664737 0
M  V30 4621 H 435.467 0.725107 -0.131869 0
M  V30 4622 H 438.109 1.6199 -0.992936 0
M  V30 4623 H 436.259 3.88495 0.0198321 0
M  V30 4624 H 437.931 3.81793 -2.58905 0
M  V30 4625 H 436.174 3.55092 -2.49183 0
M  V30 4626 H 436.845 5.12439 -2.05207 0
M  V30 4627 H 439.321 4.14228 -0.394267 0
M  V30 4628 H 438.197 5.48847 -0.0762682 0
M  V30 4629 H 438.458 4.26655 1.15835 0
M  V30 4630 N 437.518 0.538854 1.48102 0
M  V30 4631 C 438.465 -0.219042 2.29758 0
M  V30 4632 C 439.435 -0.925562 1.37922 0
M  V30 4633 O 440.62 -0.924855 1.66886 0
M  V30 4634 C 437.76 -1.25452 3.2149 0
M  V30 4635 C 436.873 -0.555943 4.28408 0
M  V30 4636 C 436.008 -1.57512 5.0731 0
M  V30 4637 C 435.047 -0.860498 6.06021 0
M  V30 4638 N 434.184 -1.82564 6.77949 0
M  V30 4639 H 439.024 0.483449 2.94052 0
M  V30 4640 H 436.561 0.250247 1.44956 0
M  V30 4641 H 438.519 -1.86727 3.7308 0
M  V30 4642 H 437.149 -1.92528 2.591 0
M  V30 4643 H 436.201 0.170938 3.80016 0
M  V30 4644 H 437.513 0.00474616 4.988 0
M  V30 4645 H 436.667 -2.26191 5.62959 0
M  V30 4646 H 435.406 -2.16972 4.36778 0
M  V30 4647 H 434.411 -0.159686 5.49568 0
M  V30 4648 H 435.636 -0.271897 6.78555 0
M  V30 4649 H 433.582 -2.40915 6.10161 0
M  V30 4650 H 433.499 -1.31662 7.44447 0
M  V30 4651 H 434.767 -2.50414 7.38182 0
M  V30 4652 N 438.996 -1.55193 0.274407 0
M  V30 4653 C 439.926 -2.25471 -0.607032 0
M  V30 4654 C 440.907 -1.24461 -1.15946 0
M  V30 4655 O 442.092 -1.53179 -1.19373 0
M  V30 4656 C 439.222 -2.97526 -1.79153 0
M  V30 4657 C 438.176 -4.05459 -1.37067 0
M  V30 4658 C 437.502 -4.65084 -2.6382 0
M  V30 4659 C 438.802 -5.19691 -0.521389 0
M  V30 4660 H 440.496 -2.99393 -0.0209343 0
M  V30 4661 H 438.042 -1.43997 -0.00862866 0
M  V30 4662 H 439.995 -3.45402 -2.41404 0
M  V30 4663 H 438.719 -2.21138 -2.40344 0
M  V30 4664 H 437.378 -3.58393 -0.771355 0
M  V30 4665 H 437.026 -3.85365 -3.23268 0
M  V30 4666 H 436.726 -5.37961 -2.36372 0
M  V30 4667 H 438.25 -5.15708 -3.26921 0
M  V30 4668 H 439.664 -5.63623 -1.04889 0
M  V30 4669 H 438.061 -5.99126 -0.341825 0
M  V30 4670 H 439.131 -4.82713 0.46 0
M  V30 4671 N 440.474 -0.00167713 -1.576 0
M  V30 4672 C 441.437 0.974046 -2.07473 0
M  V30 4673 C 442.437 1.27143 -0.984444 0
M  V30 4674 O 443.627 1.21633 -1.24703 0
M  V30 4675 C 440.759 2.29849 -2.51759 0
M  V30 4676 H 441.952 0.54262 -2.9495 0
M  V30 4677 H 439.505 0.245829 -1.54355 0
M  V30 4678 H 440.24 2.77677 -1.67529 0
M  V30 4679 H 440.025 2.09584 -3.31386 0
M  V30 4680 H 441.515 2.9984 -2.90664 0
M  V30 4681 N 441.952 1.55251 0.271103 0
M  V30 4682 C 442.899 1.88261 1.33516 0
M  V30 4683 C 443.869 0.734296 1.48988 0
M  V30 4684 O 445.054 0.985741 1.63364 0
M  V30 4685 C 442.194 2.16168 2.69008 0
M  V30 4686 C 441.307 3.43678 2.61743 0
M  V30 4687 C 440.442 3.61276 3.89427 0
M  V30 4688 C 439.481 4.82472 3.7668 0
M  V30 4689 N 438.618 4.96717 4.96202 0
M  V30 4690 H 443.458 2.79015 1.04665 0
M  V30 4691 H 440.995 1.38137 0.505618 0
M  V30 4692 H 442.953 2.30349 3.47844 0
M  V30 4693 H 441.583 1.28646 2.96057 0
M  V30 4694 H 440.635 3.37959 1.74607 0
M  V30 4695 H 441.947 4.3265 2.48224 0
M  V30 4696 H 441.101 3.75284 4.76704 0
M  V30 4697 H 439.84 2.70492 4.05814 0
M  V30 4698 H 438.845 4.68465 2.87786 0
M  V30 4699 H 440.07 5.74692 3.61809 0
M  V30 4700 H 438.016 4.08865 5.12997 0
M  V30 4701 H 437.933 5.79738 4.85222 0
M  V30 4702 H 439.201 5.15113 5.85046 0
M  V30 4703 N 443.43 -0.535701 1.48216 0
M  V30 4704 C 444.362 -1.65662 1.58394 0
M  V30 4705 C 445.375 -1.5591 0.468607 0
M  V30 4706 O 446.564 -1.62475 0.7392 0
M  V30 4707 C 443.664 -3.04276 1.4923 0
M  V30 4708 C 442.837 -3.39567 2.75705 0
M  V30 4709 C 441.896 -4.57436 2.60075 0
M  V30 4710 O 440.922 -4.60942 3.33948 0
M  V30 4711 N 442.124 -5.55259 1.69315 0
M  V30 4712 H 444.889 -1.5737 2.55058 0
M  V30 4713 H 442.45 -0.722845 1.44867 0
M  V30 4714 H 444.442 -3.80994 1.36477 0
M  V30 4715 H 443.012 -3.06677 0.605632 0
M  V30 4716 H 442.232 -2.52083 3.03064 0
M  V30 4717 H 443.52 -3.59929 3.59623 0
M  V30 4718 H 442.918 -5.552 1.08489 0
M  V30 4719 H 441.475 -6.31218 1.62504 0
M  V30 4720 N 444.908 -1.36708 -0.784132 0
M  V30 4721 C 446.154 -1.31426 -1.54451 0
M  V30 4722 C 446.487 0.10476 -1.93917 0
M  V30 4723 O 445.762 1.05934 -1.6312 0
M  V30 4724 C 446.045 -2.24189 -2.818 0
M  V30 4725 C 445.898 -3.74813 -2.48667 0
M  V30 4726 C 447.217 -2.15626 -3.83658 0
M  V30 4727 H 444.336 -0.478739 -0.560337 0
M  V30 4728 H 446.978 -1.67305 -0.900498 0
M  V30 4729 H 445.128 -1.93722 -3.36755 0
M  V30 4730 H 446.8 -4.15823 -1.99722 0
M  V30 4731 H 445.043 -3.93989 -1.81535 0
M  V30 4732 H 445.714 -4.35138 -3.39646 0
M  V30 4733 H 448.19 -2.42456 -3.38163 0
M  V30 4734 H 447.066 -2.82694 -4.70506 0
M  V30 4735 H 447.327 -1.14522 -4.27009 0
M  V30 4736 N 446.386 1.0089 -1.21074 0
M  V30 4737 C 447.634 1.74262 -1.02358 0
M  V30 4738 C 447.955 1.89869 0.444393 0
M  V30 4739 O 447.225 1.44677 1.32081 0
M  V30 4740 H 445.805 0.645615 -0.375754 0
M  V30 4741 H 448.467 1.21596 -1.52317 0
M  V30 4742 H 447.563 2.74328 -1.4883 0
M  V30 4743 N 447.864 1.01787 1.20321 0
M  V30 4744 C 449.094 0.72614 1.93419 0
M  V30 4745 C 449.502 -0.717317 1.75075 0
M  V30 4746 O 448.845 -1.49836 1.06278 0
M  V30 4747 C 448.907 0.983621 3.45782 0
M  V30 4748 C 448.571 2.41645 3.87888 0
M  V30 4749 C 449.568 3.39732 3.93545 0
M  V30 4750 C 447.253 2.75752 4.19841 0
M  V30 4751 C 449.247 4.69988 4.30569 0
M  V30 4752 C 446.934 4.06221 4.56539 0
M  V30 4753 C 447.932 5.0315 4.61876 0
M  V30 4754 O 447.62 6.31284 4.97731 0
M  V30 4755 H 447.352 0.265824 0.621541 0
M  V30 4756 H 449.906 1.3623 1.53722 0
M  V30 4757 H 448.136 0.290301 3.85609 0
M  V30 4758 H 449.825 0.683279 4.00108 0
M  V30 4759 H 450.591 3.14718 3.69022 0
M  V30 4760 H 446.47 2.00993 4.14877 0
M  V30 4761 H 450.014 5.45642 4.3465 0
M  V30 4762 H 445.911 4.31013 4.80518 0
M  V30 4763 H 446.679 6.35591 5.15719 0
M  V30 4764 N 449.342 -1.36122 0.79427 0
M  V30 4765 C 450.252 -2.33769 0.197296 0
M  V30 4766 C 451.268 -1.61276 -0.653153 0
M  V30 4767 O 452.444 -1.9323 -0.5678 0
M  V30 4768 C 449.509 -3.40474 -0.654098 0
M  V30 4769 C 448.57 -4.28759 0.215411 0
M  V30 4770 C 447.803 -5.30368 -0.595443 0
M  V30 4771 O 448.026 -5.40211 -1.83107 0
M  V30 4772 O 446.96 -6.019 0.00721351 0
M  V30 4773 H 450.786 -2.86597 1.00478 0
M  V30 4774 H 448.371 -1.38676 0.555818 0
M  V30 4775 H 450.253 -4.05703 -1.13944 0
M  V30 4776 H 448.928 -2.89937 -1.43938 0
M  V30 4777 H 447.835 -3.66554 0.747615 0
M  V30 4778 H 449.168 -4.82661 0.964332 0
M  V30 4779 N 450.82 -0.546701 -1.47814 0
M  V30 4780 C 451.768 0.220048 -2.31557 0
M  V30 4781 C 452.762 0.919472 -1.42275 0
M  V30 4782 O 453.968 0.841953 -1.59095 0
M  V30 4783 H 450.343 0.0898334 -0.746615 0
M  V30 4784 H 452.314 -0.505589 -2.94086 0
M  V30 4785 C 451.063 1.24353 -3.24702 0
M  V30 4786 H 450.386 0.714758 -3.93359 0
M  V30 4787 H 451.826 1.75112 -3.8615 0
M  V30 4788 C 450.285 2.28593 -2.47481 0
M  V30 4789 O 450.815 3.35334 -2.21165 0
M  V30 4790 N 449.021 2.02244 -2.08676 0
M  V30 4791 H 448.568 1.15455 -2.30278 0
M  V30 4792 H 448.526 2.72207 -1.57323 0
M  V30 4793 N 452.299 1.55045 -0.282633 0
M  V30 4794 C 453.262 2.21515 0.588539 0
M  V30 4795 C 454.262 1.19535 1.07554 0
M  V30 4796 O 455.452 1.44391 0.974514 0
M  V30 4797 C 452.584 2.88704 1.8128 0
M  V30 4798 H 453.777 2.99899 0.00806397 0
M  V30 4799 H 451.33 1.56265 -0.0333067 0
M  V30 4800 H 452.065 2.14352 2.43359 0
M  V30 4801 H 451.85 3.63443 1.47144 0
M  V30 4802 H 453.34 3.39465 2.43214 0
M  V30 4803 N 453.777 0.010035 1.57597 0
M  V30 4804 C 455.025 -0.671371 1.90623 0
M  V30 4805 C 455.346 -1.73753 0.885151 0
M  V30 4806 O 454.616 -1.95752 -0.0760611 0
M  V30 4807 H 453.196 -0.250968 0.703579 0
M  V30 4808 H 455.858 0.0533325 1.94827 0
M  V30 4809 H 454.954 -1.13626 2.90681 0
M  V30 4810 N 455.255 -1.55392 -0.262866 0
M  V30 4811 C 456.483 -1.80513 -1.01108 0
M  V30 4812 C 456.898 -0.583533 -1.79556 0
M  V30 4813 O 456.255 0.447585 -1.76926 0
M  V30 4814 C 456.306 -3.03648 -1.96164 0
M  V30 4815 O 456.027 -4.2109 -1.20893 0
M  V30 4816 C 457.528 -3.41448 -2.82715 0
M  V30 4817 H 454.748 -0.601079 -0.298236 0
M  V30 4818 H 457.292 -2.02425 -0.290582 0
M  V30 4819 H 455.447 -2.83832 -2.63663 0
M  V30 4820 H 455.861 -4.90771 -1.85051 0
M  V30 4821 H 457.335 -4.30751 -3.45192 0
M  V30 4822 H 457.812 -2.61308 -3.53008 0
M  V30 4823 H 458.418 -3.63559 -2.20693 0
M  V30 4824 N 456.733 0.527833 -1.48498 0
M  V30 4825 C 457.979 1.28545 -1.56857 0
M  V30 4826 C 458.312 1.92678 -0.242651 0
M  V30 4827 O 457.587 1.79394 0.751545 0
M  V30 4828 C 457.87 2.37314 -2.70839 0
M  V30 4829 C 457.723 1.77858 -4.13142 0
M  V30 4830 C 459.042 3.39068 -2.80573 0
M  V30 4831 H 456.161 0.466006 -0.570971 0
M  V30 4832 H 458.803 0.587784 -1.8068 0
M  V30 4833 H 456.953 2.96821 -2.50658 0
M  V30 4834 H 458.625 1.22385 -4.44769 0
M  V30 4835 H 456.868 1.08383 -4.20042 0
M  V30 4836 H 457.539 2.56624 -4.88721 0
M  V30 4837 H 460.015 2.89518 -2.98862 0
M  V30 4838 H 458.891 4.12566 -3.6205 0
M  V30 4839 H 459.152 3.9975 -1.88818 0
M  V30 4840 N 458.211 1.37122 0.776871 0
M  V30 4841 C 459.121 1.34651 1.9211 0
M  V30 4842 C 460.137 0.246824 1.7224 0
M  V30 4843 O 461.313 0.48134 1.95563 0
M  V30 4844 C 458.378 1.14748 3.2716 0
M  V30 4845 C 457.439 2.34308 3.5972 0
M  V30 4846 C 456.672 2.15345 4.88326 0
M  V30 4847 O 456.895 1.13507 5.58992 0
M  V30 4848 O 455.829 3.03414 5.1983 0
M  V30 4849 H 459.655 2.31013 1.97146 0
M  V30 4850 H 457.24 1.17799 0.918901 0
M  V30 4851 H 459.122 1.05616 4.0795 0
M  V30 4852 H 457.797 0.214562 3.22988 0
M  V30 4853 H 456.704 2.49011 2.79185 0
M  V30 4854 H 458.037 3.26149 3.68629 0
M  V30 4855 N 459.689 -1.00246 1.21608 0
M  V30 4856 C 460.936 -1.74061 1.03485 0
M  V30 4857 C 461.264 -1.89658 -0.431308 0
M  V30 4858 O 460.519 -1.42976 -1.33627 0
M  V30 4859 C 460.818 -3.15448 1.68009 0
M  V30 4860 C 460.484 -3.19792 3.17874 0
M  V30 4861 C 459.146 -3.20685 3.58768 0
M  V30 4862 C 461.498 -3.16835 4.13842 0
M  V30 4863 C 458.826 -3.16309 4.94131 0
M  V30 4864 C 461.178 -3.14001 5.49169 0
M  V30 4865 C 459.842 -3.13204 5.89457 0
M  V30 4866 H 459.112 -0.636934 0.378677 0
M  V30 4867 H 461.759 -1.17473 1.51236 0
M  V30 4868 H 460.064 -3.75284 1.12557 0
M  V30 4869 H 461.761 -3.71285 1.51487 0
M  V30 4870 H 458.351 -3.19842 2.85305 0
M  V30 4871 H 462.535 -3.15303 3.83272 0
M  V30 4872 H 457.791 -3.14032 5.24589 0
M  V30 4873 H 461.965 -3.10667 6.23265 0
M  V30 4874 H 459.592 -3.09568 6.94314 0
M  V30 4875 N 461.167 -1.02423 -1.1978 0
M  V30 4876 C 462.097 -0.62157 -2.25075 0
M  V30 4877 C 463.078 0.367148 -1.6609 0
M  V30 4878 O 464.263 0.250892 -1.92573 0
M  V30 4879 C 461.393 0.0331826 -3.47284 0
M  V30 4880 C 460.347 -0.877323 -4.18912 0
M  V30 4881 C 459.673 -0.0879296 -5.34628 0
M  V30 4882 C 460.973 -2.18892 -4.74219 0
M  V30 4883 H 462.667 -1.50179 -2.59011 0
M  V30 4884 H 460.213 -0.723547 -1.24502 0
M  V30 4885 H 462.166 0.326488 -4.20133 0
M  V30 4886 H 460.89 0.948164 -3.12534 0
M  V30 4887 H 459.549 -1.15475 -3.47938 0
M  V30 4888 H 459.197 0.828941 -4.96123 0
M  V30 4889 H 458.897 -0.694359 -5.83483 0
M  V30 4890 H 460.421 0.198743 -6.10276 0
M  V30 4891 H 461.835 -1.95746 -5.38847 0
M  V30 4892 H 460.232 -2.74686 -5.33542 0
M  V30 4893 H 461.302 -2.84674 -3.92541 0
M  V30 4894 N 462.645 1.35699 -0.801477 0
M  V30 4895 C 463.891 1.99208 -0.380022 0
M  V30 4896 C 464.224 1.63445 1.04878 0
M  V30 4897 O 463.499 0.895223 1.72673 0
M  V30 4898 C 463.782 3.55755 -0.557708 0
M  V30 4899 C 463.635 4.01332 -2.03107 0
M  V30 4900 C 464.954 4.40096 0.0197968 0
M  V30 4901 H 462.073 0.723667 -0.139552 0
M  V30 4902 H 464.715 1.60928 -1.01006 0
M  V30 4903 H 462.865 3.88494 -0.0213741 0
M  V30 4904 H 464.537 3.79026 -2.62939 0
M  V30 4905 H 462.78 3.52429 -2.52936 0
M  V30 4906 H 463.451 5.10234 -2.1063 0
M  V30 4907 H 465.927 4.13786 -0.438179 0
M  V30 4908 H 464.803 5.48735 -0.134477 0
M  V30 4909 H 465.064 4.2786 1.11303 0
M  V30 4910 N 464.123 0.554532 1.47522 0
M  V30 4911 C 465.4 -0.0360704 1.95567 0
M  V30 4912 C 465.78 -1.48828 1.49711 0
M  V30 4913 O 465.128 -2.16366 0.734717 0
M  V30 4914 C 465.338 0.106631 3.48837 0
M  V30 4915 C 466.686 -0.0400899 4.24581 0
M  V30 4916 O 467.71 0.0340453 3.56184 0
M  V30 4917 O 466.569 -0.199111 5.46137 0
M  V30 4918 H 463.663 -0.0656294 0.824392 0
M  V30 4919 H 466.209 0.620867 1.57935 0
M  V30 4920 H 464.981 1.11727 3.7501 0
M  V30 4921 H 464.604 -0.58804 3.93227 0
M  V30 4922 N 465.601 -1.54893 0.290851 0
M  V30 4923 C 467.017 -1.59476 -0.0628432 0
M  V30 4924 C 467.217 -1.30795 -1.5328 0
M  V30 4925 O 466.273 -1.07644 -2.28406 0
M  V30 4926 C 467.586 -2.98928 0.325962 0
M  V30 4927 C 469.134 -3.11799 0.273882 0
M  V30 4928 C 469.609 -4.53544 0.637359 0
M  V30 4929 N 471.1 -4.59433 0.589507 0
M  V30 4930 C 471.835 -5.67164 0.84335 0
M  V30 4931 N 471.331 -6.82975 1.16263 0
M  V30 4932 N 473.124 -5.56786 0.771091 0
M  V30 4933 H 465.275 -1.71798 1.24896 0
M  V30 4934 H 467.538 -0.801879 0.505663 0
M  V30 4935 H 467.244 -3.24805 1.34887 0
M  V30 4936 H 467.118 -3.75793 -0.325441 0
M  V30 4937 H 469.505 -2.85677 -0.739765 0
M  V30 4938 H 469.586 -2.37112 0.959766 0
M  V30 4939 H 469.23 -4.80394 1.64877 0
M  V30 4940 H 469.16 -5.26553 -0.0704866 0
M  V30 4941 H 471.651 -3.76245 0.353252 0
M  V30 4942 H 471.964 -7.61048 1.34257 0
M  V30 4943 H 470.309 -6.84552 1.20057 0
M  V30 4944 H 473.5 -4.65187 0.521383 0
M  V30 4945 H 473.673 -6.40664 0.972295 0
M  V30 4946 N 467.08 -0.0183926 -1.57589 0
M  V30 4947 C 468.03 0.975944 -2.06057 0
M  V30 4948 C 469.014 1.29204 -0.958908 0
M  V30 4949 O 470.206 1.27995 -1.22255 0
M  V30 4950 C 467.335 2.26194 -2.58247 0
M  V30 4951 C 466.421 1.97467 -3.75323 0
M  V30 4952 N 466.812 1.38968 -4.86335 0
M  V30 4953 C 465.11 2.27515 -3.83605 0
M  V30 4954 C 465.811 1.27131 -5.67638 0
M  V30 4955 N 464.787 1.76319 -5.14211 0
M  V30 4956 H 468.589 0.518444 -2.89291 0
M  V30 4957 H 466.103 0.18688 -1.61321 0
M  V30 4958 H 468.1 2.98289 -2.91255 0
M  V30 4959 H 466.76 2.7258 -1.76438 0
M  V30 4960 H 467.771 1.06608 -5.06809 0
M  V30 4961 H 464.448 2.76649 -3.12684 0
M  V30 4962 H 465.838 0.819882 -6.66879 0
M  V30 4963 N 468.558 1.5553 0.254621 0
M  V30 4964 C 469.806 1.7665 0.981793 0
M  V30 4965 C 470.127 0.580963 1.86145 0
M  V30 4966 O 469.397 -0.403537 1.91699 0
M  V30 4967 H 467.977 0.651475 0.365498 0
M  V30 4968 H 470.639 1.92958 0.274426 0
M  V30 4969 H 469.735 2.67486 1.60802 0
M  V30 4970 N 470.036 -0.519951 1.48776 0
M  V30 4971 C 470.983 -1.62352 1.64044 0
M  V30 4972 C 471.953 -1.58945 0.482251 0
M  V30 4973 O 473.138 -1.77219 0.706971 0
M  V30 4974 C 470.278 -3.00579 1.69547 0
M  V30 4975 C 469.391 -3.14145 2.96541 0
M  V30 4976 C 468.526 -4.42991 2.93142 0
M  V30 4977 C 467.565 -4.50122 4.14797 0
M  V30 4978 N 466.702 -5.7037 4.09418 0
M  V30 4979 H 471.542 -1.48643 2.58281 0
M  V30 4980 H 469.079 -0.723516 1.28077 0
M  V30 4981 H 471.037 -3.80671 1.70719 0
M  V30 4982 H 469.667 -3.13036 0.787918 0
M  V30 4983 H 468.719 -2.27239 3.05068 0
M  V30 4984 H 470.031 -3.15275 3.86527 0
M  V30 4985 H 469.185 -5.31385 2.92772 0
M  V30 4986 H 467.924 -4.44398 2.00902 0
M  V30 4987 H 466.929 -3.60133 4.15433 0
M  V30 4988 H 468.154 -4.50445 5.08208 0
M  V30 4989 H 466.1 -5.72655 3.20004 0
M  V30 4990 H 466.017 -5.73036 4.93119 0
M  V30 4991 H 467.285 -6.61023 4.13121 0
M  V30 4992 N 471.514 -1.37532 -0.769588 0
M  V30 4993 C 472.464 -1.29984 -1.87318 0
M  V30 4994 C 473.448 -0.187242 -1.59807 0
M  V30 4995 O 474.64 -0.421827 -1.719 0
M  V30 4996 C 471.769 -1.11126 -3.24817 0
M  V30 4997 C 470.855 -2.26939 -3.58273 0
M  V30 4998 N 471.246 -3.52336 -3.62895 0
M  V30 4999 C 469.544 -2.19141 -3.8845 0
M  V30 5000 C 470.245 -4.28719 -3.9316 0
M  V30 5001 N 469.221 -3.57884 -4.0917 0
M  V30 5002 H 473.023 -2.24946 -1.89147 0
M  V30 5003 H 470.537 -1.30535 -0.966143 0
M  V30 5004 H 472.534 -1.03803 -4.0377 0
M  V30 5005 H 471.194 -0.17083 -3.2425 0
M  V30 5006 H 472.205 -3.86216 -3.45048 0
M  V30 5007 H 468.882 -1.33167 -3.95693 0
M  V30 5008 H 470.272 -5.37254 -4.03494 0
M  V30 5009 N 472.992 0.995999 -1.22138 0
M  V30 5010 C 474.222 1.76809 -1.06874 0
M  V30 5011 C 474.63 1.85265 0.383866 0
M  V30 5012 O 473.973 1.31969 1.27789 0
M  V30 5013 C 474.035 3.2186 -1.60144 0
M  V30 5014 C 473.699 3.36958 -3.0872 0
M  V30 5015 C 474.696 3.2452 -4.0618 0
M  V30 5016 C 472.381 3.62109 -3.48112 0
M  V30 5017 C 474.375 3.37013 -5.41019 0
M  V30 5018 C 472.062 3.74243 -4.831 0
M  V30 5019 C 473.06 3.61702 -5.79362 0
M  V30 5020 O 472.748 3.73436 -7.119 0
M  V30 5021 H 472.48 0.562207 -0.375365 0
M  V30 5022 H 475.034 1.26113 -1.62125 0
M  V30 5023 H 473.264 3.73734 -0.992981 0
M  V30 5024 H 474.953 3.80775 -1.40589 0
M  V30 5025 H 475.719 3.05004 -3.77091 0
M  V30 5026 H 471.598 3.70949 -2.73712 0
M  V30 5027 H 475.142 3.27141 -6.16137 0
M  V30 5028 H 471.039 3.93266 -5.11872 0
M  V30 5029 H 471.807 3.90328 -7.19435 0
M  V30 5030 N 474.47 1.03057 1.19235 0
M  V30 5031 C 475.717 0.728019 1.88961 0
M  V30 5032 C 476.045 -0.743515 1.79728 0
M  V30 5033 O 475.3 -1.55729 1.1852 0
M  V30 5034 C 475.599 1.1268 3.39172 0
M  V30 5035 C 475.265 2.5969 3.68608 0
M  V30 5036 C 473.927 2.99854 3.76352 0
M  V30 5037 C 476.279 3.54793 3.81801 0
M  V30 5038 C 473.607 4.34031 3.94758 0
M  V30 5039 C 475.959 4.88675 4.0172 0
M  V30 5040 C 474.623 5.28526 4.07697 0
M  V30 5041 H 473.893 0.266401 0.691456 0
M  V30 5042 H 476.54 1.29373 1.41191 0
M  V30 5043 H 474.845 0.479722 3.88852 0
M  V30 5044 H 476.542 0.870203 3.91444 0
M  V30 5045 H 473.132 2.27575 3.63191 0
M  V30 5046 H 477.316 3.24914 3.7516 0
M  V30 5047 H 472.572 4.6444 3.97625 0
M  V30 5048 H 476.746 5.6228 4.1087 0
M  V30 5049 H 474.373 6.32506 4.21712 0
M  V30 5050 N 475.948 -1.35272 0.808662 0
M  V30 5051 C 477.197 -1.97963 0.386483 0
M  V30 5052 C 477.51 -1.64866 -1.05255 0
M  V30 5053 O 478.716 -2.20937 -1.57794 0
M  V30 5054 C 477.172 -3.54162 0.640096 0
M  V30 5055 C 476.78 -3.96166 2.0918 0
M  V30 5056 C 478.524 -4.23553 0.283376 0
M  V30 5057 C 476.431 -5.4522 2.29106 0
M  V30 5058 H 475.361 -0.740742 0.140774 0
M  V30 5059 H 478.012 -1.5431 0.993012 0
M  V30 5060 H 476.394 -3.95983 -0.0364117 0
M  V30 5061 H 477.568 -3.65491 2.80629 0
M  V30 5062 H 475.883 -3.3967 2.40859 0
M  V30 5063 H 478.48 -5.33124 0.410273 0
M  V30 5064 H 478.823 -4.09105 -0.770659 0
M  V30 5065 H 479.356 -3.8716 0.913884 0
M  V30 5066 H 476.095 -5.64638 3.32962 0
M  V30 5067 H 475.615 -5.77457 1.62184 0
M  V30 5068 H 477.294 -6.1171 2.1076 0
M  V30 5069 N 477.426 -0.562348 -1.47226 0
M  V30 5070 C 478.336 0.185466 -2.33866 0
M  V30 5071 C 479.352 0.906713 -1.48508 0
M  V30 5072 O 480.528 0.874458 -1.81425 0
M  V30 5073 C 477.593 1.19904 -3.25306 0
M  V30 5074 C 476.654 0.484669 -4.26555 0
M  V30 5075 C 475.887 1.44996 -5.13626 0
M  V30 5076 O 476.11 2.68515 -5.03245 0
M  V30 5077 O 475.044 0.971642 -5.94006 0
M  V30 5078 H 478.87 -0.525361 -2.99121 0
M  V30 5079 H 476.455 -0.322916 -1.45868 0
M  V30 5080 H 478.337 1.78399 -3.81774 0
M  V30 5081 H 477.012 1.8917 -2.62672 0
M  V30 5082 H 475.919 -0.141605 -3.73832 0
M  V30 5083 H 477.252 -0.166634 -4.91918 0
M  V30 5084 N 478.904 1.54736 -0.299062 0
M  V30 5085 C 480.15 2.00397 0.311244 0
M  V30 5086 C 480.483 1.18716 1.53688 0
M  V30 5087 O 479.758 0.263154 1.92712 0
M  V30 5088 C 480.041 3.53817 0.669761 0
M  V30 5089 C 479.894 4.46239 -0.564882 0
M  V30 5090 C 481.213 4.13856 1.49702 0
M  V30 5091 H 478.332 0.728493 0.111653 0
M  V30 5092 H 480.974 1.85506 -0.410774 0
M  V30 5093 H 479.124 3.66637 1.28491 0
M  V30 5094 H 480.796 4.45328 -1.20337 0
M  V30 5095 H 479.039 4.16916 -1.19849 0
M  V30 5096 H 479.71 5.5134 -0.269918 0
M  V30 5097 H 482.186 4.04461 0.977284 0
M  V30 5098 H 481.062 5.21365 1.71666 0
M  V30 5099 H 481.323 3.65608 2.48563 0
M  V30 5100 N 480.382 0.0267497 1.57577 0
M  V30 5101 C 481.33 -0.973923 2.11229 0
M  V30 5102 C 482.324 -1.33849 1.03831 0
M  V30 5103 O 483.53 -1.321 1.22269 0
M  V30 5104 H 479.905 -0.331844 0.674821 0
M  V30 5105 H 481.876 -0.496092 2.94247 0
M  V30 5106 C 480.625 -2.24798 2.65257 0
M  V30 5107 H 479.948 -1.9762 3.47543 0
M  V30 5108 H 481.388 -2.93031 3.06445 0
M  V30 5109 C 479.847 -2.97611 1.57891 0
M  V30 5110 O 480.377 -3.89629 0.97735 0
M  V30 5111 N 478.583 -2.59905 1.29992 0
M  V30 5112 H 478.13 -1.85154 1.79097 0
M  V30 5113 H 478.088 -3.08932 0.583798 0
M  V30 5114 N 481.861 -1.55662 -0.24637 0
M  V30 5115 C 483.086 -1.81914 -0.996093 0
M  V30 5116 C 483.511 -0.603875 -1.78143 0
M  V30 5117 O 482.869 0.447091 -1.75701 0
M  V30 5118 C 482.917 -3.05908 -1.90925 0
M  V30 5119 O 482.021 -2.82861 -3.00105 0
M  V30 5120 H 481.362 -0.600481 -0.283406 0
M  V30 5121 H 483.892 -2.02848 -0.267199 0
M  V30 5122 H 483.902 -3.35356 -2.3238 0
M  V30 5123 H 482.577 -3.93999 -1.33183 0
M  V30 5124 H 481.154 -2.64583 -2.62775 0
M  V30 5125 N 483.339 0.512053 -1.4905 0
M  V30 5126 C 484.755 0.84224 -1.35567 0
M  V30 5127 C 484.955 1.97878 -0.380319 0
M  V30 5128 O 484.011 2.51769 0.19201 0
M  V30 5129 C 485.324 1.19286 -2.76028 0
M  V30 5130 C 486.872 1.30171 -2.84648 0
M  V30 5131 C 487.347 1.68568 -4.25851 0
M  V30 5132 N 488.838 1.75638 -4.28609 0
M  V30 5133 C 489.573 2.06769 -5.34821 0
M  V30 5134 N 489.069 2.36201 -6.51292 0
M  V30 5135 N 490.862 2.07927 -5.22229 0
M  V30 5136 H 483.013 -0.237574 -2.11067 0
M  V30 5137 H 485.276 -0.0436747 -0.946993 0
M  V30 5138 H 484.982 0.431199 -3.49047 0
M  V30 5139 H 484.856 2.13889 -3.10695 0
M  V30 5140 H 487.243 2.05411 -2.11873 0
M  V30 5141 H 487.324 0.336457 -2.53578 0
M  V30 5142 H 486.968 0.938824 -4.99148 0
M  V30 5143 H 486.898 2.66174 -4.54377 0
M  V30 5144 H 489.389 1.55097 -3.44606 0
M  V30 5145 H 489.702 2.59112 -7.28066 0
M  V30 5146 H 488.047 2.33681 -6.54536 0
M  V30 5147 H 491.238 1.84403 -4.30248 0
M  V30 5148 H 491.411 2.31856 -6.05101 0
M  V30 5149 N 484.817 1.37938 0.762283 0
M  V30 5150 C 485.747 1.37176 1.88958 0
M  V30 5151 C 486.728 0.238945 1.68413 0
M  V30 5152 O 487.913 0.440726 1.89133 0
M  V30 5153 C 485.043 1.18742 3.2637 0
M  V30 5154 C 483.997 2.29136 3.61498 0
M  V30 5155 C 483.323 1.95816 4.97554 0
M  V30 5156 C 484.623 3.71363 3.6727 0
M  V30 5157 H 486.317 2.31509 1.89853 0
M  V30 5158 H 483.863 1.11438 0.912005 0
M  V30 5159 H 485.816 1.16837 4.04879 0
M  V30 5160 H 484.54 0.208683 3.25933 0
M  V30 5161 H 483.199 2.30213 2.85303 0
M  V30 5162 H 482.847 0.964475 4.93667 0
M  V30 5163 H 482.547 2.69745 5.22026 0
M  V30 5164 H 484.071 1.95513 5.78452 0
M  V30 5165 H 485.485 3.72364 4.35911 0
M  V30 5166 H 483.882 4.44425 4.03245 0
M  V30 5167 H 484.952 4.04305 2.67704 0
M  V30 5168 N 486.295 -0.989507 1.22664 0
M  V30 5169 C 487.227 -2.0824 0.957542 0
M  V30 5170 C 488.24 -1.6267 -0.0651098 0
M  V30 5171 O 489.429 -1.77695 0.169312 0
M  V30 5172 C 486.529 -3.36298 0.419145 0
M  V30 5173 C 485.702 -4.10882 1.49982 0
M  V30 5174 C 484.761 -5.17221 0.967904 0
M  V30 5175 O 483.787 -5.44613 1.65487 0
M  V30 5176 N 484.989 -5.80124 -0.20896 0
M  V30 5177 H 487.754 -2.31904 1.89843 0
M  V30 5178 H 485.315 -1.15552 1.13399 0
M  V30 5179 H 487.307 -4.04671 0.0485451 0
M  V30 5180 H 485.877 -3.09671 -0.426937 0
M  V30 5181 H 485.097 -3.37092 2.04359 0
M  V30 5182 H 486.385 -4.57482 2.22682 0
M  V30 5183 H 485.783 -5.60244 -0.783818 0
M  V30 5184 H 484.34 -6.49715 -0.520913 0
M  V30 5185 N 487.773 -1.03688 -1.18687 0
M  V30 5186 C 489.019 -0.739123 -1.88851 0
M  V30 5187 C 489.352 0.731042 -1.79915 0
M  V30 5188 O 488.627 1.53313 -1.19688 0
M  V30 5189 C 488.91 -1.20106 -3.3948 0
M  V30 5190 C 488.763 -2.73304 -3.57246 0
M  V30 5191 C 490.082 -0.788134 -4.32986 0
M  V30 5192 H 487.201 -0.269978 -0.68577 0
M  V30 5193 H 489.843 -1.28822 -1.3966 0
M  V30 5194 H 487.993 -0.733915 -3.81505 0
M  V30 5195 H 489.665 -3.28027 -3.24339 0
M  V30 5196 H 487.908 -3.13313 -3.00029 0
M  V30 5197 H 488.579 -3.00684 -4.62918 0
M  V30 5198 H 491.055 -1.19005 -3.98719 0
M  V30 5199 H 489.931 -1.13915 -5.36949 0
M  V30 5200 H 490.192 0.308988 -4.41019 0
M  V30 5201 N 489.251 1.34841 -0.815825 0
M  V30 5202 C 490.161 2.33425 -0.234462 0
M  V30 5203 C 491.177 1.62295 0.627413 0
M  V30 5204 O 492.353 1.94109 0.536987 0
M  V30 5205 C 489.418 3.41471 0.599849 0
M  V30 5206 C 488.479 4.28362 -0.283596 0
M  V30 5207 C 487.712 5.31248 0.51099 0
M  V30 5208 O 487.935 5.43056 1.7449 0
M  V30 5209 O 486.869 6.01812 -0.10297 0
M  V30 5210 H 490.695 2.84962 -1.05024 0
M  V30 5211 H 488.28 1.37774 -0.577809 0
M  V30 5212 H 490.162 4.07464 1.07475 0
M  V30 5213 H 488.837 2.9219 1.39308 0
M  V30 5214 H 487.744 3.65318 -0.805836 0
M  V30 5215 H 489.077 4.81066 -1.041 0
M  V30 5216 N 490.729 0.570148 1.46925 0
M  V30 5217 C 491.679 -0.190921 2.27199 0
M  V30 5218 C 492.663 -0.873457 1.35128 0
M  V30 5219 O 493.855 -0.769627 1.59392 0
M  V30 5220 C 490.984 -1.21204 3.21192 0
M  V30 5221 C 490.07 -0.532261 4.20747 0
M  V30 5222 N 490.461 0.405038 5.04176 0
M  V30 5223 C 488.759 -0.784582 4.39045 0
M  V30 5224 C 489.46 0.801149 5.76157 0
M  V30 5225 N 488.436 0.153082 5.43384 0
M  V30 5226 H 492.238 0.529535 2.8909 0
M  V30 5227 H 489.752 0.391019 1.57622 0
M  V30 5228 H 491.749 -1.77135 3.77398 0
M  V30 5229 H 490.409 -1.93345 2.6086 0
M  V30 5230 H 491.42 0.779903 5.11994 0
M  V30 5231 H 488.097 -1.49352 3.89872 0
M  V30 5232 H 489.487 1.57208 6.5325 0
M  V30 5233 N 492.207 -1.54576 0.307264 0
M  V30 5234 C 493.435 -2.04675 -0.302597 0
M  V30 5235 C 493.85 -1.18425 -1.47041 0
M  V30 5236 O 493.207 -0.211257 -1.81273 0
M  V30 5237 C 493.258 -3.53575 -0.752801 0
M  V30 5238 O 492.979 -4.36547 0.368536 0
M  V30 5239 C 494.48 -4.19699 -1.42717 0
M  V30 5240 H 491.7 -0.66786 -0.0648374 0
M  V30 5241 H 494.244 -1.99516 0.448716 0
M  V30 5242 H 492.399 -3.59074 -1.45412 0
M  V30 5243 H 492.813 -5.24497 0.0168937 0
M  V30 5244 H 494.287 -5.25388 -1.69327 0
M  V30 5245 H 494.764 -3.69815 -2.36925 0
M  V30 5246 H 495.37 -4.18293 -0.768856 0
M  V30 5247 N 493.685 -0.035106 -1.57561 0
M  V30 5248 C 494.931 0.64318 -1.92331 0
M  V30 5249 C 495.264 1.71434 -0.912368 0
M  V30 5250 O 494.539 1.94395 0.0640303 0
M  V30 5251 C 494.822 1.25411 -3.37556 0
M  V30 5252 C 494.675 0.192109 -4.4939 0
M  V30 5253 C 495.994 2.17041 -3.82859 0
M  V30 5254 H 493.113 0.232341 -0.699419 0
M  V30 5255 H 495.755 -0.0935889 -1.89769 0
M  V30 5256 H 493.905 1.88205 -3.39869 0
M  V30 5257 H 495.577 -0.438849 -4.59208 0
M  V30 5258 H 493.82 -0.481725 -4.31117 0
M  V30 5259 H 494.491 0.659292 -5.48049 0
M  V30 5260 H 496.967 1.64228 -3.8232 0
M  V30 5261 H 495.843 2.56738 -4.85157 0
M  V30 5262 H 496.104 3.06401 -3.18702 0
M  V30 5263 N 495.163 1.55791 0.238111 0
M  V30 5264 C 496.391 1.82098 0.982233 0
M  V30 5265 C 496.806 0.612025 1.78605 0
M  V30 5266 O 496.163 -0.419381 1.77616 0
M  V30 5267 C 496.214 3.0673 1.91309 0
M  V30 5268 O 495.935 4.2296 1.14179 0
M  V30 5269 C 497.436 3.45903 2.77248 0
M  V30 5270 H 494.656 0.605748 0.288635 0
M  V30 5271 H 497.2 2.02862 0.258341 0
M  V30 5272 H 495.355 2.87991 2.59114 0
M  V30 5273 H 495.769 4.93653 1.7722 0
M  V30 5274 H 497.243 4.36189 3.38295 0
M  V30 5275 H 497.72 2.66891 3.48806 0
M  V30 5276 H 498.326 3.67024 2.14881 0
M  V30 5277 N 496.642 -0.504142 1.49319 0
M  V30 5278 C 497.552 -1.63248 1.68486 0
M  V30 5279 C 498.568 -1.64488 0.567432 0
M  V30 5280 O 499.744 -1.82966 0.841749 0
M  V30 5281 C 496.809 -2.99627 1.74426 0
M  V30 5282 C 495.87 -3.09039 2.97982 0
M  V30 5283 C 495.103 -4.38913 3.0363 0
M  V30 5284 O 495.326 -5.27528 2.16958 0
M  V30 5285 O 494.26 -4.53231 3.96062 0
M  V30 5286 H 498.086 -1.50008 2.64067 0
M  V30 5287 H 495.671 -0.680086 1.33023 0
M  V30 5288 H 497.553 -3.80689 1.80705 0
M  V30 5289 H 496.228 -3.13136 0.820233 0
M  V30 5290 H 495.135 -2.27177 2.97223 0
M  V30 5291 H 496.468 -3.00456 3.89855 0
M  V30 5292 N 498.12 -1.38341 -0.754957 0
M  V30 5293 C 499.03 -1.3769 -1.89944 0
M  V30 5294 C 500.046 -0.274194 -1.71826 0
M  V30 5295 O 501.222 -0.512391 -1.94773 0
M  V30 5296 C 498.287 -1.19938 -3.25293 0
M  V30 5297 C 497.348 -2.40001 -3.55946 0
M  V30 5298 C 496.581 -2.23087 -4.84838 0
M  V30 5299 O 496.804 -1.22386 -5.57116 0
M  V30 5300 O 495.738 -3.11646 -5.14937 0
M  V30 5301 H 499.564 -2.3412 -1.93446 0
M  V30 5302 H 497.149 -1.19246 -0.900044 0
M  V30 5303 H 499.031 -1.12093 -4.06218 0
M  V30 5304 H 497.706 -0.265919 -3.22606 0
M  V30 5305 H 496.613 -2.53421 -2.75188 0
M  V30 5306 H 497.946 -3.31973 -3.63394 0
M  V30 5307 N 499.598 0.982988 -1.23187 0
M  V30 5308 C 500.847 1.71817 -1.05649 0
M  V30 5309 C 501.16 1.91315 0.407176 0
M  V30 5310 O 502.366 2.62256 0.702436 0
M  V30 5311 C 500.822 3.09188 -1.84203 0
M  V30 5312 C 500.43 2.97586 -3.34882 0
M  V30 5313 C 502.174 3.86684 -1.75146 0
M  V30 5314 C 500.081 4.30173 -4.05839 0
M  V30 5315 H 499.011 0.644258 -0.391724 0
M  V30 5316 H 501.662 1.09659 -1.4713 0
M  V30 5317 H 500.044 3.72087 -1.35527 0
M  V30 5318 H 501.218 2.43793 -3.91026 0
M  V30 5319 H 499.533 2.33567 -3.44725 0
M  V30 5320 H 502.13 4.84836 -2.25473 0
M  V30 5321 H 502.473 4.10136 -0.713737 0
M  V30 5322 H 503.006 3.30482 -2.21419 0
M  V30 5323 H 499.745 4.11918 -5.09906 0
M  V30 5324 H 499.265 4.83841 -3.54482 0
M  V30 5325 H 500.944 4.98873 -4.11989 0
M  V30 5326 N 501.076 1.04316 1.18135 0
M  V30 5327 C 502.304 0.768117 1.92113 0
M  V30 5328 C 502.719 -0.675057 1.76319 0
M  V30 5329 O 502.076 -1.46038 1.09449 0
M  V30 5330 C 502.127 1.12808 3.43448 0
M  V30 5331 O 501.848 2.5146 3.58747 0
M  V30 5332 C 503.349 0.8779 4.3452 0
M  V30 5333 H 500.569 0.279937 0.609817 0
M  V30 5334 H 503.113 1.39149 1.49859 0
M  V30 5335 H 501.268 0.549623 3.83481 0
M  V30 5336 H 501.682 2.65313 4.52448 0
M  V30 5337 H 503.156 1.17959 5.39249 0
M  V30 5338 H 503.633 -0.187239 4.38801 0
M  V30 5339 H 504.239 1.43977 4.00188 0
M  V30 5340 N 502.554 -1.34406 0.822964 0
M  V30 5341 C 503.831 -1.92733 0.333641 0
M  V30 5342 C 504.211 -1.75107 -1.17901 0
M  V30 5343 O 503.559 -1.12983 -1.98613 0
M  V30 5344 C 503.769 -3.40557 0.763023 0
M  V30 5345 C 505.117 -4.17709 0.761879 0
M  V30 5346 O 506.141 -3.49141 0.705606 0
M  V30 5347 O 505 -5.40082 0.835109 0
M  V30 5348 H 502.094 -0.821964 0.0911249 0
M  V30 5349 H 504.64 -1.4338 0.907757 0
M  V30 5350 H 503.412 -3.47187 1.8049 0
M  V30 5351 H 503.035 -3.97259 0.164605 0
M  V30 5352 N 504.032 -0.577932 -1.46621 0
M  V30 5353 C 505.278 -0.0617793 -2.02706 0
M  V30 5354 C 505.611 1.29294 -1.44903 0
M  V30 5355 O 504.886 1.8461 -0.61232 0
M  V30 5356 C 505.169 0.00911824 -3.60099 0
M  V30 5357 C 505.022 -1.37416 -4.28295 0
M  V30 5358 C 506.341 0.712159 -4.343 0
M  V30 5359 H 503.46 -0.0239246 -0.736612 0
M  V30 5360 H 506.102 -0.744211 -1.74818 0
M  V30 5361 H 504.252 0.590292 -3.83989 0
M  V30 5362 H 505.924 -2.00013 -4.15683 0
M  V30 5363 H 504.167 -1.94319 -3.87843 0
M  V30 5364 H 504.838 -1.27707 -5.37024 0
M  V30 5365 H 507.314 0.218486 -4.15526 0
M  V30 5366 H 506.19 0.730782 -5.44014 0
M  V30 5367 H 506.451 1.77251 -4.05012 0
M  V30 5368 N 505.51 1.54411 -0.315457 0
M  V30 5369 C 506.787 1.92562 0.343398 0
M  V30 5370 C 507.167 1.24423 1.70535 0
M  V30 5371 O 506.515 0.385051 2.25232 0
M  V30 5372 C 506.725 3.46168 0.443687 0
M  V30 5373 C 508.073 4.18659 0.707783 0
M  V30 5374 O 509.097 3.52281 0.52693 0
M  V30 5375 O 507.956 5.36198 1.05612 0
M  V30 5376 H 505.05 0.80379 0.194552 0
M  V30 5377 H 507.596 1.65738 -0.364577 0
M  V30 5378 H 506.368 3.8792 -0.513172 0
M  V30 5379 H 505.991 3.79073 1.19956 0
M  V30 5380 N 506.988 0.0434614 1.5754 0
M  V30 5381 C 507.918 -0.931651 2.14109 0
M  V30 5382 C 508.899 -1.32971 1.06079 0
M  V30 5383 O 510.084 -1.40579 1.33982 0
M  V30 5384 C 507.214 -2.20914 2.67982 0
M  V30 5385 C 506.168 -1.95139 3.80926 0
M  V30 5386 C 505.494 -3.29276 4.21285 0
M  V30 5387 C 506.794 -1.27913 5.06395 0
M  V30 5388 H 508.488 -0.460497 2.95837 0
M  V30 5389 H 506.034 -0.220058 1.42309 0
M  V30 5390 H 507.987 -2.89522 3.06194 0
M  V30 5391 H 506.711 -2.70221 1.83434 0
M  V30 5392 H 505.37 -1.28945 3.43175 0
M  V30 5393 H 505.018 -3.76369 3.33699 0
M  V30 5394 H 504.718 -3.12831 4.97404 0
M  V30 5395 H 506.242 -3.99129 4.62091 0
M  V30 5396 H 507.656 -1.86544 5.42102 0
M  V30 5397 H 506.053 -1.2182 5.87605 0
M  V30 5398 H 507.123 -0.254066 4.84234 0
M  V30 5399 N 508.466 -1.55915 -0.229846 0
M  V30 5400 C 509.712 -1.78807 -0.956868 0
M  V30 5401 C 510.045 -0.611687 -1.84315 0
M  V30 5402 O 509.32 0.389398 -1.90562 0
M  V30 5403 C 509.603 -3.11718 -1.80288 0
M  V30 5404 C 509.456 -4.3979 -0.943649 0
M  V30 5405 C 510.775 -3.40999 -2.78222 0
M  V30 5406 H 507.894 -0.6505 -0.346437 0
M  V30 5407 H 510.536 -1.88648 -0.226252 0
M  V30 5408 H 508.686 -3.03459 -2.42579 0
M  V30 5409 H 510.358 -4.60059 -0.338121 0
M  V30 5410 H 508.601 -4.33086 -0.248705 0
M  V30 5411 H 509.272 -5.29208 -1.5698 0
M  V30 5412 H 511.748 -3.49332 -2.26067 0
M  V30 5413 H 510.624 -4.35183 -3.34526 0
M  V30 5414 H 510.885 -2.62754 -3.55546 0
M  V30 5415 N 509.944 0.496216 -1.49584 0
M  V30 5416 C 510.894 1.59422 -1.62999 0
M  V30 5417 C 511.878 1.53402 -0.485457 0
M  V30 5418 O 513.07 1.60851 -0.738649 0
M  V30 5419 C 510.199 2.98009 -1.70427 0
M  V30 5420 C 509.285 3.09008 -2.90473 0
M  V30 5421 N 509.676 2.89884 -4.14489 0
M  V30 5422 C 507.974 3.40115 -2.8851 0
M  V30 5423 C 508.675 3.0519 -4.95211 0
M  V30 5424 N 507.651 3.3428 -4.2867 0
M  V30 5425 H 511.453 1.43297 -2.56599 0
M  V30 5426 H 508.967 0.702443 -1.46422 0
M  V30 5427 H 510.964 3.76926 -1.78136 0
M  V30 5428 H 509.624 3.152 -0.77967 0
M  V30 5429 H 510.635 2.65963 -4.44392 0
M  V30 5430 H 507.312 3.63452 -2.05448 0
M  V30 5431 H 508.702 2.94856 -6.03746 0
M  V30 5432 N 511.423 1.38739 0.74761 0
M  V30 5433 C 512.386 1.36241 1.84312 0
M  V30 5434 C 513.386 0.261811 1.58654 0
M  V30 5435 O 514.576 0.519031 1.66288 0
M  V30 5436 C 511.708 1.12253 3.21888 0
M  V30 5437 H 512.901 2.33712 1.87933 0
M  V30 5438 H 510.454 1.2412 0.949946 0
M  V30 5439 H 511.189 0.154133 3.23934 0
M  V30 5440 H 510.974 1.91943 3.41907 0
M  V30 5441 H 512.464 1.13215 4.0196 0
M  V30 5442 N 512.901 -0.976442 1.23707 0
M  V30 5443 C 513.833 -2.07212 0.979574 0
M  V30 5444 C 514.846 -1.6273 -0.0478528 0
M  V30 5445 O 516.035 -1.77506 0.18815 0
M  V30 5446 C 513.135 -3.35835 0.45479 0
M  V30 5447 C 512.308 -4.09268 1.54331 0
M  V30 5448 C 511.367 -5.16166 1.02271 0
M  V30 5449 O 510.393 -5.42827 1.71254 0
M  V30 5450 N 511.595 -5.80313 -0.147419 0
M  V30 5451 H 514.36 -2.29878 1.92292 0
M  V30 5452 H 511.921 -1.14343 1.14618 0
M  V30 5453 H 513.913 -4.04597 0.0914631 0
M  V30 5454 H 512.483 -3.10106 -0.394068 0
M  V30 5455 H 511.703 -3.34906 2.07923 0
M  V30 5456 H 512.991 -4.55095 2.27522 0
M  V30 5457 H 512.389 -5.61043 -0.724353 0
M  V30 5458 H 510.946 -6.50231 -0.451972 0
M  V30 5459 N 514.379 -1.04941 -1.1758 0
M  V30 5460 C 515.628 -0.753124 -1.87112 0
M  V30 5461 C 515.941 0.722507 -1.81767 0
M  V30 5462 O 517.147 1.13265 -2.46746 0
M  V30 5463 C 515.603 -1.29695 -3.35719 0
M  V30 5464 C 515.211 -2.80184 -3.49572 0
M  V30 5465 C 516.955 -1.07759 -4.10595 0
M  V30 5466 C 514.862 -3.2788 -4.92187 0
M  V30 5467 H 513.792 -0.278034 -0.700866 0
M  V30 5468 H 516.443 -1.26637 -1.32798 0
M  V30 5469 H 514.825 -0.711522 -3.89555 0
M  V30 5470 H 515.999 -3.44561 -3.05965 0
M  V30 5471 H 514.314 -3.00632 -2.88113 0
M  V30 5472 H 516.911 -1.40899 -5.15802 0
M  V30 5473 H 517.254 -0.0152302 -4.16297 0
M  V30 5474 H 517.787 -1.62809 -3.62957 0
M  V30 5475 H 514.526 -4.33535 -4.91658 0
M  V30 5476 H 514.046 -2.68245 -5.36475 0
M  V30 5477 H 515.725 -3.22412 -5.60945 0
M  V30 5478 N 515.857 1.33968 -0.830081 0
M  V30 5479 C 516.807 2.26845 -0.229242 0
M  V30 5480 C 517.791 1.48862 0.610659 0
M  V30 5481 O 518.983 1.70808 0.464067 0
M  V30 5482 C 516.112 3.3798 0.602057 0
M  V30 5483 C 515.198 4.23369 -0.248866 0
M  V30 5484 N 515.589 4.88182 -1.32334 0
M  V30 5485 C 513.887 4.45987 -0.0344077 0
M  V30 5486 C 514.588 5.51671 -1.84482 0
M  V30 5487 N 513.564 5.31348 -1.14762 0
M  V30 5488 H 517.366 2.74464 -1.05104 0
M  V30 5489 H 514.88 1.4777 -0.673623 0
M  V30 5490 H 516.877 4.03494 1.04873 0
M  V30 5491 H 515.537 2.9191 1.42193 0
M  V30 5492 H 516.548 4.88988 -1.70619 0
M  V30 5493 H 513.225 4.10658 0.752727 0
M  V30 5494 H 514.615 6.13308 -2.74413 0
M  V30 5495 N 517.335 0.585699 1.46312 0
M  V30 5496 C 518.581 0.0725284 2.0267 0
M  V30 5497 C 518.914 -1.28523 1.45586 0
M  V30 5498 O 518.189 -1.84283 0.622101 0
M  V30 5499 C 518.472 0.0099788 3.60099 0
M  V30 5500 C 518.325 1.39685 4.27561 0
M  V30 5501 C 519.644 -0.689117 4.34671 0
M  V30 5502 H 516.763 0.0278307 0.736474 0
M  V30 5503 H 519.405 0.753472 1.74421 0
M  V30 5504 H 517.555 -0.56992 3.84297 0
M  V30 5505 H 519.227 2.02215 4.14617 0
M  V30 5506 H 517.47 1.96374 3.86807 0
M  V30 5507 H 518.141 1.30553 5.36339 0
M  V30 5508 H 520.617 -0.196446 4.15636 0
M  V30 5509 H 519.493 -0.701921 5.44393 0
M  V30 5510 H 519.754 -1.75101 4.05946 0
M  V30 5511 N 518.813 -1.54241 0.323641 0
M  V30 5512 C 519.776 -2.22997 -0.529602 0
M  V30 5513 C 520.776 -1.22345 -1.04347 0
M  V30 5514 O 521.966 -1.46924 -0.935889 0
M  V30 5515 C 519.098 -2.93409 -1.73562 0
M  V30 5516 H 520.291 -2.99815 0.0714518 0
M  V30 5517 H 517.844 -1.56121 0.0747258 0
M  V30 5518 H 518.579 -2.20729 -2.37591 0
M  V30 5519 H 518.364 -3.67217 -1.37456 0
M  V30 5520 H 519.854 -3.45794 -2.34128 0
M  V30 5521 N 520.291 -0.0518155 -1.57515 0
M  V30 5522 C 521.201 0.937539 -2.15052 0
M  V30 5523 C 522.217 1.34121 -1.10849 0
M  V30 5524 O 523.393 1.418 -1.4302 0
M  V30 5525 C 520.458 2.19379 -2.68466 0
M  V30 5526 C 519.519 1.84841 -3.87469 0
M  V30 5527 C 518.752 3.04477 -4.38326 0
M  V30 5528 O 518.975 4.17868 -3.88256 0
M  V30 5529 O 517.909 2.85453 -5.29906 0
M  V30 5530 H 521.735 0.478201 -2.99912 0
M  V30 5531 H 519.32 0.17012 -1.48428 0
M  V30 5532 H 521.202 2.93084 -3.02787 0
M  V30 5533 H 519.877 2.64449 -1.86677 0
M  V30 5534 H 518.784 1.08449 -3.58036 0
M  V30 5535 H 520.117 1.44569 -4.7049 0
M  V30 5536 N 521.769 1.56035 0.221574 0
M  V30 5537 C 523.017 1.78693 0.944102 0
M  V30 5538 C 523.338 0.620317 1.8487 0
M  V30 5539 O 522.608 -0.362784 1.92512 0
M  V30 5540 H 521.188 0.659082 0.351597 0
M  V30 5541 H 523.85 1.93497 0.233435 0
M  V30 5542 H 522.946 2.70837 1.55093 0
M  V30 5543 N 523.247 -0.488276 1.49845 0
M  V30 5544 C 524.663 -0.820566 1.3689 0
M  V30 5545 C 524.863 -1.97248 0.411752 0
M  V30 5546 O 523.919 -2.52042 -0.151931 0
M  V30 5547 C 525.232 -1.1488 2.77891 0
M  V30 5548 C 526.78 -1.25626 2.86683 0
M  V30 5549 C 527.255 -1.61772 4.28479 0
M  V30 5550 N 528.746 -1.68797 4.31349 0
M  V30 5551 C 529.481 -1.98235 5.38043 0
M  V30 5552 N 528.977 -2.2581 6.54967 0
M  V30 5553 N 530.77 -1.99593 5.2547 0
M  V30 5554 H 522.921 0.271123 2.10662 0
M  V30 5555 H 525.184 0.058735 0.946179 0
M  V30 5556 H 524.89 -0.375614 3.49688 0
M  V30 5557 H 524.764 -2.08919 3.14058 0
M  V30 5558 H 527.151 -2.02014 2.15114 0
M  V30 5559 H 527.232 -0.296072 2.54081 0
M  V30 5560 H 526.876 -0.859295 5.00578 0
M  V30 5561 H 526.806 -2.58912 4.58554 0
M  V30 5562 H 529.297 -1.49595 3.4703 0
M  V30 5563 H 529.61 -2.47497 7.32096 0
M  V30 5564 H 527.955 -2.23239 6.58171 0
M  V30 5565 H 531.146 -1.77535 4.33127 0
M  V30 5566 H 531.319 -2.222 6.08713 0
M  V30 5567 N 524.725 -1.39134 -0.740242 0
M  V30 5568 C 525.95 -1.39518 -1.53459 0
M  V30 5569 C 526.375 0.00968883 -1.88098 0
M  V30 5570 O 525.733 0.995312 -1.51536 0
M  V30 5571 C 525.781 -2.26981 -2.802 0
M  V30 5572 O 524.885 -1.69609 -3.75908 0
M  V30 5573 H 524.226 -0.475328 -0.463637 0
M  V30 5574 H 526.756 -1.83064 -0.913717 0
M  V30 5575 H 526.766 -2.41309 -3.28989 0
M  V30 5576 H 525.441 -3.29081 -2.5432 0
M  V30 5577 H 524.018 -1.64495 -3.34658 0
M  V30 5578 N 526.204 0.969867 -1.24223 0
M  V30 5579 C 527.134 2.08191 -1.05729 0
M  V30 5580 C 528.115 1.70075 0.0290765 0
M  V30 5581 O 529.3 1.93712 -0.137583 0
M  V30 5582 C 526.43 3.40991 -0.658995 0
M  V30 5583 C 525.384 3.93054 -1.69389 0
M  V30 5584 C 524.71 5.22171 -1.15072 0
M  V30 5585 C 526.01 4.21137 -3.08935 0
M  V30 5586 H 527.704 2.23921 -1.98746 0
M  V30 5587 H 525.25 1.07602 -0.956967 0
M  V30 5588 H 527.203 4.18221 -0.51662 0
M  V30 5589 H 525.927 3.25155 0.30686 0
M  V30 5590 H 524.586 3.17977 -1.82444 0
M  V30 5591 H 524.234 5.02694 -0.175539 0
M  V30 5592 H 523.934 5.57973 -1.84229 0
M  V30 5593 H 525.458 6.02013 -1.02042 0
M  V30 5594 H 526.872 4.8908 -2.99121 0
M  V30 5595 H 525.269 4.68163 -3.75425 0
M  V30 5596 H 526.339 3.27996 -3.57137 0
M  V30 5597 N 527.682 1.05563 1.17022 0
M  V30 5598 C 529.093 0.793475 1.69 0
M  V30 5599 C 529.444 -0.683882 1.83895 0
M  V30 5600 O 528.569 -1.53116 1.5292 0
M  V30 5601 C 529.164 1.43376 3.06967 0
M  V30 5602 C 527.723 1.21956 3.56095 0
M  V30 5603 C 526.87 1.51494 2.3226 0
M  V30 5604 H 529.821 1.22008 1.01487 0
M  V30 5605 H 529.842 0.845068 3.70997 0
M  V30 5606 H 529.354 2.50899 2.96093 0
M  V30 5607 H 527.455 0.163749 3.7224 0
M  V30 5608 H 527.568 1.92713 4.38633 0
M  V30 5609 H 525.932 0.935175 2.3691 0
M  V30 5610 H 526.715 2.60159 2.23992 0
M  V30 5611 N 529.16 -1.33526 0.837174 0
M  V30 5612 C 530.437 -1.92369 0.354065 0
M  V30 5613 C 530.817 -1.76348 -1.16038 0
M  V30 5614 O 530.165 -1.15083 -1.97403 0
M  V30 5615 C 530.375 -3.39728 0.799101 0
M  V30 5616 C 531.723 -4.16877 0.806139 0
M  V30 5617 O 532.747 -3.48373 0.742597 0
M  V30 5618 O 531.606 -5.39166 0.892345 0
M  V30 5619 H 528.7 -0.820952 0.0998378 0
M  V30 5620 H 531.246 -1.42409 0.922913 0
M  V30 5621 H 530.018 -3.45254 1.84162 0
M  V30 5622 H 529.641 -3.97062 0.206731 0
M  V30 5623 N 530.638 -0.59345 -1.46 0
M  V30 5624 C 531.568 0.121192 -2.33185 0
M  V30 5625 C 532.549 0.872977 -1.4599 0
M  V30 5626 O 533.734 0.846321 -1.74789 0
M  V30 5627 C 530.864 1.12844 -3.28456 0
M  V30 5628 C 529.818 0.4908 -4.25177 0
M  V30 5629 C 529.144 1.60529 -5.10034 0
M  V30 5630 C 530.444 -0.578949 -5.19081 0
M  V30 5631 H 532.138 -0.606767 -2.93187 0
M  V30 5632 H 529.684 -0.293242 -1.40983 0
M  V30 5633 H 531.637 1.63684 -3.88311 0
M  V30 5634 H 530.361 1.88681 -2.66584 0
M  V30 5635 H 529.02 0.00339328 -3.666 0
M  V30 5636 H 528.668 2.35359 -4.44539 0
M  V30 5637 H 528.368 1.18422 -5.75543 0
M  V30 5638 H 529.892 2.11623 -5.72755 0
M  V30 5639 H 531.306 -0.155199 -5.7309 0
M  V30 5640 H 529.703 -0.920947 -5.92991 0
M  V30 5641 H 530.773 -1.46109 -4.62364 0
M  V30 5642 N 532.116 1.54067 -0.331816 0
M  V30 5643 C 533.364 2.00319 0.267739 0
M  V30 5644 C 533.685 1.22148 1.52003 0
M  V30 5645 O 532.955 0.325494 1.93177 0
M  V30 5646 H 531.535 0.740014 0.101922 0
M  V30 5647 H 534.197 1.89628 -0.450267 0
M  V30 5648 H 533.293 3.07765 0.518385 0
M  V30 5649 N 533.594 0.0601682 1.57485 0
M  V30 5650 C 534.524 -0.90889 2.15085 0
M  V30 5651 C 535.505 -1.31838 1.07484 0
M  V30 5652 O 536.69 -1.3915 1.35466 0
M  V30 5653 C 533.82 -2.18059 2.7031 0
M  V30 5654 C 532.774 -1.91088 3.82974 0
M  V30 5655 C 532.1 -3.24789 4.24754 0
M  V30 5656 C 533.4 -1.22535 5.07723 0
M  V30 5657 H 535.094 -0.429093 2.96309 0
M  V30 5658 H 532.64 -0.204952 1.42534 0
M  V30 5659 H 534.593 -2.86258 3.09248 0
M  V30 5660 H 533.317 -2.6826 1.8629 0
M  V30 5661 H 531.976 -1.25297 3.44523 0
M  V30 5662 H 531.624 -3.72809 3.37672 0
M  V30 5663 H 531.324 -3.07538 5.00694 0
M  V30 5664 H 532.848 -3.94205 4.66299 0
M  V30 5665 H 534.262 -1.80783 5.4405 0
M  V30 5666 H 532.659 -1.1558 5.88864 0
M  V30 5667 H 533.729 -0.202692 4.84476 0
M  V30 5668 N 535.072 -1.5615 -0.213296 0
M  V30 5669 C 536.488 -1.49327 -0.56336 0
M  V30 5670 C 536.688 -0.756826 -1.86747 0
M  V30 5671 O 535.744 -0.299866 -2.50713 0
M  V30 5672 C 537.057 -2.9392 -0.634944 0
M  V30 5673 C 538.605 -3.04487 -0.725013 0
M  V30 5674 C 539.08 -4.50456 -0.82787 0
M  V30 5675 N 540.571 -4.54533 -0.891876 0
M  V30 5676 C 541.306 -5.64766 -0.991315 0
M  V30 5677 N 540.802 -6.84733 -1.05419 0
M  V30 5678 N 542.595 -5.52637 -1.02709 0
M  V30 5679 H 534.746 -2.02453 0.642366 0
M  V30 5680 H 537.009 -0.920548 0.226487 0
M  V30 5681 H 536.715 -3.50783 0.253859 0
M  V30 5682 H 536.589 -3.46274 -1.49579 0
M  V30 5683 H 538.976 -2.47685 -1.60425 0
M  V30 5684 H 539.057 -2.55289 0.161669 0
M  V30 5685 H 538.701 -5.07878 0.0469464 0
M  V30 5686 H 538.631 -4.97369 -1.73009 0
M  V30 5687 H 541.122 -3.68141 -0.85327 0
M  V30 5688 H 541.435 -7.64493 -1.13007 0
M  V30 5689 H 539.78 -6.87427 -1.02318 0
M  V30 5690 H 542.971 -4.5784 -0.974687 0
M  V30 5691 H 543.144 -6.38576 -1.10113 0
M  V30 5692 N 536.55 0.480323 -1.50102 0
M  V30 5693 C 537.482 1.59669 -1.64433 0
M  V30 5694 C 538.495 1.54063 -0.52615 0
M  V30 5695 O 539.684 1.59619 -0.798992 0
M  V30 5696 C 536.784 2.98527 -1.6042 0
M  V30 5697 C 535.957 3.291 -2.88117 0
M  V30 5698 C 535.016 4.47468 -2.76873 0
M  V30 5699 O 534.042 4.4823 -3.50825 0
M  V30 5700 N 535.244 5.48593 -1.89806 0
M  V30 5701 H 538.009 1.47795 -2.60723 0
M  V30 5702 H 535.57 0.66858 -1.4745 0
M  V30 5703 H 537.562 3.75666 -1.50523 0
M  V30 5704 H 536.132 3.04218 -0.719036 0
M  V30 5705 H 535.352 2.40662 -3.12211 0
M  V30 5706 H 536.64 3.46334 -3.72734 0
M  V30 5707 H 536.038 5.50791 -1.2902 0
M  V30 5708 H 534.595 6.24752 -1.85819 0
M  V30 5709 N 538.028 1.39524 0.732853 0
M  V30 5710 C 538.938 1.40695 1.87729 0
M  V30 5711 C 539.954 0.301496 1.71368 0
M  V30 5712 O 541.13 0.543313 1.93933 0
M  V30 5713 C 538.195 1.25098 3.23344 0
M  V30 5714 C 537.256 2.45634 3.52083 0
M  V30 5715 C 536.489 2.30772 4.81228 0
M  V30 5716 O 536.712 1.31233 5.55098 0
M  V30 5717 O 535.646 3.19799 5.09914 0
M  V30 5718 H 539.472 2.37168 1.89697 0
M  V30 5719 H 537.057 1.20663 0.880959 0
M  V30 5720 H 538.939 1.18541 4.04383 0
M  V30 5721 H 537.614 0.317209 3.22142 0
M  V30 5722 H 536.521 2.57767 2.71122 0
M  V30 5723 H 537.854 3.37712 3.58066 0
M  V30 5724 N 539.506 -0.963266 1.24736 0
M  V30 5725 C 540.454 -2.07985 1.04139 0
M  V30 5726 C 541.448 -1.69381 -0.0250556 0
M  V30 5727 O 542.654 -1.79531 0.129863 0
M  V30 5728 H 539.029 -0.680627 0.319768 0
M  V30 5729 H 541 -2.22517 1.98818 0
M  V30 5730 C 539.749 -3.4123 0.667615 0
M  V30 5731 H 539.072 -3.71397 1.48 0
M  V30 5732 H 540.512 -4.20244 0.563136 0
M  V30 5733 C 538.971 -3.3104 -0.625647 0
M  V30 5734 O 539.501 -3.65334 -1.67016 0
M  V30 5735 N 537.707 -2.84168 -0.608033 0
M  V30 5736 H 537.254 -2.56458 0.242323 0
M  V30 5737 H 537.212 -2.77732 -1.47352 0
M  V30 5738 N 540.985 -1.06182 -1.16461 0
M  V30 5739 C 542.234 -0.772927 -1.86303 0
M  V30 5740 C 542.547 0.703187 -1.82523 0
M  V30 5741 O 543.753 1.10641 -2.47933 0
M  V30 5742 C 542.209 -1.33249 -3.34324 0
M  V30 5743 C 541.817 -2.83876 -3.46581 0
M  V30 5744 C 543.561 -1.12108 -4.09429 0
M  V30 5745 C 541.468 -3.33082 -4.88682 0
M  V30 5746 H 540.398 -0.285452 -0.697878 0
M  V30 5747 H 543.049 -1.28039 -1.31447 0
M  V30 5748 H 541.431 -0.7528 -3.88779 0
M  V30 5749 H 542.605 -3.47786 -3.02293 0
M  V30 5750 H 540.92 -3.03671 -2.84909 0
M  V30 5751 H 543.517 -1.46361 -5.14279 0
M  V30 5752 H 543.86 -0.0593832 -4.16258 0
M  V30 5753 H 544.393 -1.6665 -3.6121 0
M  V30 5754 H 541.132 -4.38726 -4.87032 0
M  V30 5755 H 540.652 -2.73919 -5.33599 0
M  V30 5756 H 542.331 -3.28344 -5.57494 0
M  V30 5757 N 542.463 1.3308 -0.844243 0
M  V30 5758 C 543.879 1.50447 -0.532729 0
M  V30 5759 C 544.079 1.78292 0.938837 0
M  V30 5760 O 543.135 1.84635 1.72239 0
M  V30 5761 C 544.448 2.65555 -1.41072 0
M  V30 5762 C 545.996 2.7944 -1.41005 0
M  V30 5763 C 546.471 3.97616 -2.27301 0
M  V30 5764 N 547.962 4.0486 -2.2504 0
M  V30 5765 C 548.697 4.95508 -2.88547 0
M  V30 5766 N 548.193 5.91236 -3.61126 0
M  V30 5767 N 549.986 4.88548 -2.77989 0
M  V30 5768 H 542.137 1.13269 -1.79677 0
M  V30 5769 H 544.4 0.55734 -0.766861 0
M  V30 5770 H 544.106 2.51675 -2.45668 0
M  V30 5771 H 543.98 3.61089 -1.09061 0
M  V30 5772 H 546.367 2.92749 -0.371784 0
M  V30 5773 H 546.448 1.8465 -1.77026 0
M  V30 5774 H 546.092 3.85066 -3.3119 0
M  V30 5775 H 546.022 4.91661 -1.88619 0
M  V30 5776 H 548.513 3.36353 -1.72264 0
M  V30 5777 H 548.826 6.57079 -4.06776 0
M  V30 5778 H 547.171 5.91295 -3.65234 0
M  V30 5779 H 550.362 4.12729 -2.20846 0
M  V30 5780 H 550.535 5.58994 -3.27765 0
M  V30 5781 N 543.941 0.601185 1.45683 0
M  V30 5782 C 545.19 0.0914953 2.01492 0
M  V30 5783 C 545.503 -1.28331 1.47616 0
M  V30 5784 O 546.709 -1.88537 1.95362 0
M  V30 5785 C 545.165 0.11291 3.59723 0
M  V30 5786 C 544.773 1.48717 4.22596 0
M  V30 5787 C 546.517 -0.341871 4.23121 0
M  V30 5788 C 544.424 1.46531 5.7296 0
M  V30 5789 H 543.354 0.0304365 0.753385 0
M  V30 5790 H 546.005 0.755568 1.67223 0
M  V30 5791 H 544.387 -0.617692 3.91153 0
M  V30 5792 H 545.561 2.23897 4.02749 0
M  V30 5793 H 543.876 1.88351 3.71366 0
M  V30 5794 H 546.473 -0.377304 5.33367 0
M  V30 5795 H 546.816 -1.36325 3.93346 0
M  V30 5796 H 547.349 0.335256 3.96385 0
M  V30 5797 H 544.088 2.46408 6.07423 0
M  V30 5798 H 543.608 0.755997 5.95017 0
M  V30 5799 H 545.287 1.18618 6.36034 0
M  V30 5800 N 545.419 -1.53889 0.339982 0
M  V30 5801 C 546.367 -2.26391 -0.533822 0
M  V30 5802 C 547.361 -1.28404 -1.10493 0
M  V30 5803 O 548.567 -1.46124 -1.05108 0
M  V30 5804 H 544.942 -0.727385 -0.190828 0
M  V30 5805 H 546.913 -2.98233 0.0997484 0
M  V30 5806 C 545.662 -3.04707 -1.67479 0
M  V30 5807 H 544.985 -3.79934 -1.2446 0
M  V30 5808 H 546.425 -3.58657 -2.26144 0
M  V30 5809 C 544.884 -2.13989 -2.60212 0
M  V30 5810 O 545.414 -1.73361 -3.62366 0
M  V30 5811 N 543.62 -1.79141 -2.28816 0
M  V30 5812 H 543.167 -2.12378 -1.45785 0
M  V30 5813 H 543.125 -1.18725 -2.91121 0
M  V30 5814 N 546.897 -0.0685191 -1.57451 0
M  V30 5815 C 548.145 0.60016 -1.92983 0
M  V30 5816 C 548.466 1.70348 -0.949028 0
M  V30 5817 O 547.736 1.959 0.00335647 0
M  V30 5818 H 546.316 0.224682 -0.712409 0
M  V30 5819 H 548.978 -0.125605 -1.94495 0
M  V30 5820 H 548.074 1.02759 -2.94698 0
M  V30 5821 N 548.375 1.56261 0.205012 0
M  V30 5822 C 549.615 1.81823 0.933806 0
M  V30 5823 C 549.979 0.644534 1.80858 0
M  V30 5824 O 551.18 0.779819 2.5724 0
M  V30 5825 C 549.451 3.12362 1.7368 0
M  V30 5826 S 551.01 3.59296 2.51897 0
M  V30 5827 H 547.828 0.638209 0.313386 0
M  V30 5828 H 550.43 1.94495 0.198001 0
M  V30 5829 H 549.134 3.95809 1.08459 0
M  V30 5830 H 548.665 3.02542 2.5146 0
M  V30 5831 H 550.68 3.23945 3.75864 0
M  V30 5832 N 549.853 -0.472356 1.50355 0
M  V30 5833 C 550.816 -1.5529 1.68576 0
M  V30 5834 C 551.816 -1.50863 0.556511 0
M  V30 5835 O 553.006 -1.53505 0.823516 0
M  V30 5836 C 550.138 -2.94921 1.70981 0
M  V30 5837 H 551.331 -1.40451 2.64978 0
M  V30 5838 H 548.884 -0.698645 1.39816 0
M  V30 5839 H 549.619 -3.15204 0.762675 0
M  V30 5840 H 549.404 -2.99541 2.53017 0
M  V30 5841 H 550.894 -3.73372 1.87037 0
M  V30 5842 N 551.331 -1.39911 -0.725443 0
M  V30 5843 C 552.58 -1.36963 -1.48068 0
M  V30 5844 C 552.893 0.0284478 -1.95579 0
M  V30 5845 O 554.099 0.180535 -2.70899 0
M  V30 5846 C 552.555 -2.40664 -2.67598 0
M  V30 5847 C 552.163 -3.86234 -2.26997 0
M  V30 5848 C 553.907 -2.46807 -3.45379 0
M  V30 5849 C 551.814 -4.81554 -3.43307 0
M  V30 5850 H 550.744 -0.509223 -0.556065 0
M  V30 5851 H 553.395 -1.65602 -0.790454 0
M  V30 5852 H 551.777 -2.05109 -3.38742 0
M  V30 5853 H 552.951 -4.3088 -1.63337 0
M  V30 5854 H 551.266 -3.83475 -1.62284 0
M  V30 5855 H 553.863 -3.15213 -4.31909 0
M  V30 5856 H 554.206 -1.49552 -3.8851 0
M  V30 5857 H 554.739 -2.81303 -2.81271 0
M  V30 5858 H 551.478 -5.80106 -3.05217 0
M  V30 5859 H 550.998 -4.4158 -4.05915 0
M  V30 5860 H 552.677 -5.0091 -4.0951 0
M  V30 5861 N 552.809 0.956637 -1.25245 0
M  V30 5862 C 553.741 2.05628 -1.01242 0
M  V30 5863 C 554.754 1.62785 0.0219579 0
M  V30 5864 O 555.943 1.77184 -0.216365 0
M  V30 5865 C 553.043 3.35069 -0.508161 0
M  V30 5866 C 552.216 4.06761 -1.60823 0
M  V30 5867 C 551.275 5.14473 -1.1047 0
M  V30 5868 O 550.301 5.40033 -1.79868 0
M  V30 5869 N 551.503 5.80474 0.0550773 0
M  V30 5870 H 554.268 2.2679 -1.95925 0
M  V30 5871 H 551.829 1.12505 -1.16423 0
M  V30 5872 H 553.821 4.044 -0.155819 0
M  V30 5873 H 552.391 3.10694 0.344683 0
M  V30 5874 H 551.611 3.31555 -2.13224 0
M  V30 5875 H 552.899 4.51418 -2.34733 0
M  V30 5876 H 552.297 5.62125 0.635004 0
M  V30 5877 H 550.854 6.50868 0.348469 0
M  V30 5878 N 554.287 1.06798 1.15896 0
M  V30 5879 C 555.527 0.797041 1.8822 0
M  V30 5880 C 555.891 -0.664549 1.80133 0
M  V30 5881 O 557.092 -1.0503 2.47431 0
M  V30 5882 C 555.363 1.28431 3.33527 0
M  V30 5883 S 556.922 1.14319 4.23647 0
M  V30 5884 H 553.74 0.288988 0.649621 0
M  V30 5885 H 556.342 1.36594 1.39865 0
M  V30 5886 H 555.046 2.34286 3.36954 0
M  V30 5887 H 554.577 0.710371 3.86933 0
M  V30 5888 H 556.592 0.0772467 4.9614 0
M  V30 5889 N 555.766 -1.3263 0.851289 0
M  V30 5890 C 557.182 -1.50162 0.5407 0
M  V30 5891 C 557.382 -1.78788 -0.929369 0
M  V30 5892 O 556.438 -1.85545 -1.71258 0
M  V30 5893 C 557.751 -2.64803 1.42478 0
M  V30 5894 C 559.299 -2.78688 1.42485 0
M  V30 5895 C 559.774 -3.96405 2.29407 0
M  V30 5896 N 561.265 -4.0366 2.27184 0
M  V30 5897 C 562 -4.93971 2.9117 0
M  V30 5898 N 561.496 -5.89313 3.64256 0
M  V30 5899 N 563.289 -4.87066 2.80576 0
M  V30 5900 H 555.44 -1.12315 1.80275 0
M  V30 5901 H 557.703 -0.553266 0.769806 0
M  V30 5902 H 557.409 -2.50368 2.46999 0
M  V30 5903 H 557.283 -3.60506 1.10974 0
M  V30 5904 H 559.67 -2.92547 0.387304 0
M  V30 5905 H 559.751 -1.83708 1.78002 0
M  V30 5906 H 559.395 -3.83304 3.33228 0
M  V30 5907 H 559.325 -4.90654 1.91224 0
M  V30 5908 H 561.816 -3.35435 1.74045 0
M  V30 5909 H 562.129 -6.54913 4.10255 0
M  V30 5910 H 560.474 -5.8935 3.68364 0
M  V30 5911 H 563.665 -4.11552 2.23031 0
M  V30 5912 H 563.838 -5.57248 3.30725 0
M  V30 5913 N 557.244 -0.608902 -1.45362 0
M  V30 5914 C 558.49 -0.104762 -2.02529 0
M  V30 5915 C 558.823 1.26191 -1.47613 0
M  V30 5916 O 558.098 1.8327 -0.65134 0
M  V30 5917 C 558.381 -0.0672661 -3.60037 0
M  V30 5918 C 558.234 -1.4647 -4.25284 0
M  V30 5919 C 559.553 0.619877 -4.35713 0
M  V30 5920 H 556.672 -0.0395438 -0.735938 0
M  V30 5921 H 559.314 -0.781126 -1.73201 0
M  V30 5922 H 557.464 0.50871 -3.85155 0
M  V30 5923 H 559.136 -2.08785 -4.11347 0
M  V30 5924 H 557.379 -2.02502 -3.83634 0
M  V30 5925 H 558.05 -1.39069 -5.34195 0
M  V30 5926 H 560.526 0.130297 -4.15896 0
M  V30 5927 H 559.402 0.615224 -5.45441 0
M  V30 5928 H 559.663 1.68621 -4.0868 0
M  V30 5929 N 558.722 1.53707 -0.348139 0
M  V30 5930 C 559.95 2.05406 0.248224 0
M  V30 5931 C 560.365 1.22282 1.43849 0
M  V30 5932 O 559.722 0.259244 1.80649 0
M  V30 5933 C 559.773 3.55446 0.658793 0
M  V30 5934 O 559.494 4.35417 -0.484149 0
M  V30 5935 C 560.995 4.23335 1.31539 0
M  V30 5936 H 558.215 0.669344 0.0471075 0
M  V30 5937 H 560.759 1.98257 -0.501456 0
M  V30 5938 H 558.914 3.62803 1.35841 0
M  V30 5939 H 559.328 5.24268 -0.155949 0
M  V30 5940 H 560.802 5.29692 1.55338 0
M  V30 5941 H 561.279 3.75967 2.27036 0
M  V30 5942 H 561.885 4.20184 0.657683 0
M  V30 5943 N 560.2 0.0768682 1.57412 0
M  V30 5944 C 561.428 -0.59997 1.9801 0
M  V30 5945 C 561.843 -1.62842 0.955408 0
M  V30 5946 O 561.2 -1.8241 -0.057314 0
M  V30 5947 C 561.251 -1.26401 3.38681 0
M  V30 5948 O 560.972 -0.276723 4.37225 0
M  V30 5949 C 562.473 -2.0282 3.94182 0
M  V30 5950 H 559.693 -0.162239 0.651091 0
M  V30 5951 H 562.237 0.150771 2.03943 0
M  V30 5952 H 560.392 -1.96581 3.33819 0
M  V30 5953 H 560.806 -0.753744 5.19056 0
M  V30 5954 H 562.28 -2.44667 4.94815 0
M  V30 5955 H 562.757 -2.88678 3.31001 0
M  V30 5956 H 563.363 -1.37496 4.02461 0
M  V30 5957 N 561.678 -1.56367 -0.196722 0
M  V30 5958 C 562.588 -1.97617 -1.2643 0
M  V30 5959 C 563.604 -0.883598 -1.49895 0
M  V30 5960 O 564.78 -1.18921 -1.62541 0
M  V30 5961 C 561.845 -2.30595 -2.58895 0
M  V30 5962 C 560.906 -3.53551 -2.43516 0
M  V30 5963 C 560.139 -3.84946 -3.69665 0
M  V30 5964 O 560.362 -3.17655 -4.73763 0
M  V30 5965 O 559.296 -4.78379 -3.65291 0
M  V30 5966 H 563.122 -2.88648 -0.944233 0
M  V30 5967 H 560.707 -1.43901 -0.401592 0
M  V30 5968 H 562.589 -2.52889 -3.37083 0
M  V30 5969 H 561.264 -1.42732 -2.90533 0
M  V30 5970 H 560.171 -3.36507 -1.63445 0
M  V30 5971 H 561.504 -4.41875 -2.16812 0
M  V30 5972 N 563.156 0.464375 -1.50603 0
M  V30 5973 C 564.433 1.22549 -1.5245 0
M  V30 5974 C 564.813 2.09327 -0.273035 0
M  V30 5975 O 564.161 2.16074 0.743242 0
M  V30 5976 C 564.371 2.05074 -2.82393 0
M  V30 5977 C 565.719 2.63036 -3.33313 0
M  V30 5978 O 566.743 2.1531 -2.8376 0
M  V30 5979 O 565.602 3.5001 -4.19709 0
M  V30 5980 H 562.696 0.556471 -0.611775 0
M  V30 5981 H 565.242 0.475648 -1.62898 0
M  V30 5982 H 564.014 1.41169 -3.64948 0
M  V30 5983 H 563.637 2.87179 -2.7498 0
M  V30 5984 N 564.634 1.40294 0.718013 0
M  V30 5985 C 566.045 1.34289 1.29705 0
M  V30 5986 C 566.396 0.0152228 1.96194 0
M  V30 5987 O 565.521 -0.88682 1.97394 0
M  V30 5988 C 566.116 2.43219 2.3586 0
M  V30 5989 C 564.675 2.40682 2.89394 0
M  V30 5990 C 563.822 2.24223 1.63154 0
M  V30 5991 H 566.773 1.50135 0.514312 0
M  V30 5992 H 566.794 2.10986 3.16647 0
M  V30 5993 H 566.306 3.39836 1.87439 0
M  V30 5994 H 564.407 1.47756 3.42051 0
M  V30 5995 H 564.52 3.36177 3.41353 0
M  V30 5996 H 562.884 1.71696 1.88129 0
M  V30 5997 H 563.667 3.22834 1.16761 0
M  V30 5998 N 566.112 -0.949982 1.2575 0
M  V30 5999 C 567.075 -2.02894 1.06615 0
M  V30 6000 C 568.075 -1.60791 0.0173905 0
M  V30 6001 O 569.265 -1.72249 0.260003 0
M  V30 6002 C 566.397 -3.35219 0.619751 0
M  V30 6003 H 567.59 -2.21302 2.02399 0
M  V30 6004 H 565.143 -1.12772 1.08223 0
M  V30 6005 H 565.878 -3.22508 -0.340486 0
M  V30 6006 H 565.663 -3.67129 1.37692 0
M  V30 6007 H 567.153 -4.14505 0.507443 0
M  V30 6008 N 567.59 -1.07411 -1.15328 0
M  V30 6009 C 569.006 -0.799759 -1.38116 0
M  V30 6010 C 569.206 0.59572 -1.92493 0
M  V30 6011 O 568.262 1.35433 -2.13106 0
M  V30 6012 C 569.575 -1.87407 -2.35158 0
M  V30 6013 C 571.123 -1.89889 -2.48819 0
M  V30 6014 C 571.598 -2.96406 -3.49153 0
M  V30 6015 N 573.089 -2.95512 -3.56689 0
M  V30 6016 C 573.824 -3.74575 -4.34144 0
M  V30 6017 N 573.32 -4.63488 -5.14928 0
M  V30 6018 N 575.113 -3.62919 -4.29239 0
M  V30 6019 H 567.264 -1.97411 -0.78374 0
M  V30 6020 H 569.527 -0.856113 -0.407154 0
M  V30 6021 H 569.233 -2.8768 -2.0232 0
M  V30 6022 H 569.107 -1.73471 -3.34944 0
M  V30 6023 H 571.494 -0.902677 -2.80955 0
M  V30 6024 H 571.575 -2.07904 -1.49029 0
M  V30 6025 H 571.219 -3.96227 -3.17752 0
M  V30 6026 H 571.149 -2.75638 -4.48699 0
M  V30 6027 H 573.64 -2.31061 -2.99031 0
M  V30 6028 H 573.953 -5.20445 -5.71276 0
M  V30 6029 H 572.298 -4.67537 -5.14232 0
M  V30 6030 H 575.489 -2.92833 -3.65194 0
M  V30 6031 H 575.662 -4.24777 -4.89355 0
M  V30 6032 N 569.068 1.32177 -0.85831 0
M  V30 6033 C 570.293 2.01847 -0.476718 0
M  V30 6034 C 570.718 1.64065 0.920021 0
M  V30 6035 O 570.076 0.843189 1.60499 0
M  V30 6036 C 570.124 3.55097 -0.627578 0
M  V30 6037 O 569.228 4.11012 0.338086 0
M  V30 6038 H 568.569 0.635907 -0.191099 0
M  V30 6039 H 571.099 1.68641 -1.15851 0
M  V30 6040 H 571.109 4.04718 -0.516476 0
M  V30 6041 H 569.784 3.81938 -1.64609 0
M  V30 6042 H 568.361 3.72451 0.182917 0
M  V30 6043 N 570.547 0.616602 1.45037 0
M  V30 6044 C 571.794 0.115331 2.02171 0
M  V30 6045 C 572.122 -1.25748 1.48383 0
M  V30 6046 O 571.377 -1.84511 0.652229 0
M  V30 6047 C 571.676 0.0356829 3.57382 0
M  V30 6048 C 571.342 1.34535 4.30362 0
M  V30 6049 C 570.004 1.70408 4.50016 0
M  V30 6050 C 572.356 2.21049 4.72003 0
M  V30 6051 C 569.684 2.92529 5.0857 0
M  V30 6052 C 572.036 3.42427 5.31908 0
M  V30 6053 C 570.7 3.78541 5.49784 0
M  V30 6054 H 569.97 0.0422024 0.739797 0
M  V30 6055 H 572.617 0.80002 1.73988 0
M  V30 6056 H 570.922 -0.732314 3.84895 0
M  V30 6057 H 572.619 -0.368463 3.99304 0
M  V30 6058 H 569.209 1.05615 4.15383 0
M  V30 6059 H 573.393 1.94632 4.56544 0
M  V30 6060 H 568.649 3.20605 5.20598 0
M  V30 6061 H 572.823 4.09709 5.63127 0
M  V30 6062 H 570.45 4.73255 5.94923 0
M  V30 6063 N 572.025 -1.5352 0.356285 0
M  V30 6064 C 572.957 -2.23009 -0.529127 0
M  V30 6065 C 573.97 -1.241 -1.05371 0
M  V30 6066 O 575.159 -1.50379 -0.961679 0
M  V30 6067 C 572.259 -2.90685 -1.74229 0
M  V30 6068 C 571.432 -4.16019 -1.35081 0
M  V30 6069 C 570.491 -4.66989 -2.42502 0
M  V30 6070 O 569.517 -5.30895 -2.05279 0
M  V30 6071 N 570.719 -4.44006 -3.7395 0
M  V30 6072 H 573.484 -2.99627 0.0660501 0
M  V30 6073 H 571.045 -1.60885 0.181014 0
M  V30 6074 H 573.037 -3.21695 -2.4555 0
M  V30 6075 H 571.607 -2.17575 -2.24454 0
M  V30 6076 H 570.827 -3.91414 -0.467833 0
M  V30 6077 H 572.115 -4.9752 -1.06542 0
M  V30 6078 H 571.513 -3.92924 -4.06973 0
M  V30 6079 H 570.07 -4.7959 -4.41403 0
M  V30 6080 N 573.503 -0.0852151 -1.57369 0
M  V30 6081 C 574.914 0.445428 -1.81309 0
M  V30 6082 C 575.265 1.68795 -1.00013 0
M  V30 6083 O 574.39 2.15211 -0.226573 0
M  V30 6084 C 574.985 0.814887 -3.28854 0
M  V30 6085 C 573.544 1.29032 -3.53592 0
M  V30 6086 C 572.691 0.282089 -2.75861 0
M  V30 6087 H 575.642 -0.310771 -1.55627 0
M  V30 6088 H 575.663 1.67524 -3.41637 0
M  V30 6089 H 575.175 -0.0896309 -3.87996 0
M  V30 6090 H 573.276 2.21289 -2.9977 0
M  V30 6091 H 573.389 1.25898 -4.62262 0
M  V30 6092 H 571.753 0.762182 -2.43029 0
M  V30 6093 H 572.536 -0.614936 -3.37748 0
M  V30 6094 N 574.981 1.5647 0.188427 0
M  V30 6095 C 576.258 1.71857 0.934058 0
M  V30 6096 C 576.638 0.641867 2.01105 0
M  V30 6097 O 575.986 -0.346098 2.25864 0
M  V30 6098 C 576.196 3.14431 1.5144 0
M  V30 6099 C 577.544 3.74869 1.99396 0
M  V30 6100 O 578.568 3.17601 1.61269 0
M  V30 6101 O 577.427 4.75387 2.69573 0
M  V30 6102 H 574.521 0.701186 0.438483 0
M  V30 6103 H 577.067 1.68768 0.177599 0
M  V30 6104 H 575.839 3.8427 0.738416 0
M  V30 6105 H 575.462 3.21775 2.33552 0
M  V30 6106 N 576.459 -0.456382 1.50847 0
M  V30 6107 C 577.687 -1.23026 1.66349 0
M  V30 6108 C 578.102 -1.85473 0.352868 0
M  V30 6109 O 577.459 -1.69885 -0.666739 0
M  V30 6110 C 577.51 -2.32827 2.76539 0
M  V30 6111 O 577.231 -1.72938 4.02522 0
M  V30 6112 C 578.732 -3.23448 3.03144 0
M  V30 6113 H 575.952 -0.371527 0.558756 0
M  V30 6114 H 578.496 -0.543082 1.97157 0
M  V30 6115 H 576.651 -2.97294 2.48384 0
M  V30 6116 H 577.065 -2.45357 4.63573 0
M  V30 6117 H 578.539 -3.96669 3.83872 0
M  V30 6118 H 579.016 -3.83094 2.14793 0
M  V30 6119 H 579.622 -2.64702 3.32886 0
M  V30 6120 N 577.937 -1.40673 -0.710563 0
M  V30 6121 C 579.185 -1.38947 -1.46759 0
M  V30 6122 C 579.506 0.00572879 -1.94999 0
M  V30 6123 O 578.776 0.961358 -1.70689 0
M  V30 6124 H 577.356 -0.5114 -0.544499 0
M  V30 6125 H 580.018 -1.75773 -0.842012 0
M  V30 6126 H 579.114 -2.06745 -2.33801 0
M  V30 6127 N 579.415 0.9433 -1.26252 0
M  V30 6128 C 580.831 1.21644 -1.03319 0
M  V30 6129 C 581.031 2.0003 0.242983 0
M  V30 6130 O 580.087 2.33838 0.952688 0
M  V30 6131 C 581.4 1.97978 -2.2633 0
M  V30 6132 C 582.948 2.10978 -2.31209 0
M  V30 6133 C 583.423 2.90713 -3.53907 0
M  V30 6134 N 584.914 2.98287 -3.54371 0
M  V30 6135 C 585.649 3.60406 -4.45976 0
M  V30 6136 N 585.145 4.24043 -5.47868 0
M  V30 6137 N 586.938 3.57658 -4.33633 0
M  V30 6138 H 579.089 0.419221 -2.08222 0
M  V30 6139 H 581.352 0.247995 -0.914988 0
M  V30 6140 H 581.058 1.47788 -3.19142 0
M  V30 6141 H 580.932 2.9865 -2.30408 0
M  V30 6142 H 583.319 2.6036 -1.38913 0
M  V30 6143 H 583.4 1.09575 -2.31143 0
M  V30 6144 H 583.044 2.42018 -4.46531 0
M  V30 6145 H 582.974 3.92367 -3.5122 0
M  V30 6146 H 585.465 2.53044 -2.80673 0
M  V30 6147 H 585.778 4.69334 -6.13959 0
M  V30 6148 H 584.123 4.22637 -5.51728 0
M  V30 6149 H 587.314 3.07134 -3.53251 0
M  V30 6150 H 587.487 4.05782 -5.05218 0
M  V30 6151 N 580.893 1.08022 1.14757 0
M  V30 6152 C 582.142 0.802468 1.8505 0
M  V30 6153 C 582.455 -0.674061 1.83619 0
M  V30 6154 O 583.661 -1.06683 2.49662 0
M  V30 6155 C 582.117 1.38551 3.32162 0
M  V30 6156 C 581.725 2.89354 3.42021 0
M  V30 6157 C 583.469 1.18608 4.07594 0
M  V30 6158 C 581.376 3.40815 4.83321 0
M  V30 6159 H 580.306 0.296518 0.693248 0
M  V30 6160 H 582.957 1.30114 1.29393 0
M  V30 6161 H 581.339 0.814556 3.87532 0
M  V30 6162 H 582.513 3.52552 2.96722 0
M  V30 6163 H 580.828 3.08165 2.80041 0
M  V30 6164 H 583.425 1.54525 5.11885 0
M  V30 6165 H 583.768 0.125599 4.1611 0
M  V30 6166 H 584.301 1.72375 3.58513 0
M  V30 6167 H 581.04 4.46418 4.79991 0
M  V30 6168 H 580.56 2.82374 5.29174 0
M  V30 6169 H 582.239 3.37171 5.522 0
M  V30 6170 N 582.371 -1.3172 0.865308 0
M  V30 6171 C 583.281 -2.32394 0.320935 0
M  V30 6172 C 584.297 -1.64511 -0.566746 0
M  V30 6173 O 585.473 -1.95969 -0.464575 0
M  V30 6174 C 582.538 -3.43462 -0.472701 0
M  V30 6175 C 581.599 -4.27015 0.442385 0
M  V30 6176 C 580.832 -5.32779 -0.313469 0
M  V30 6177 O 581.055 -5.49158 -1.54214 0
M  V30 6178 O 579.989 -6.01015 0.326257 0
M  V30 6179 H 583.815 -2.80868 1.15528 0
M  V30 6180 H 581.4 -1.35535 0.628545 0
M  V30 6181 H 583.282 -4.11172 -0.922781 0
M  V30 6182 H 581.957 -2.97159 -1.28367 0
M  V30 6183 H 580.864 -3.62075 0.940866 0
M  V30 6184 H 582.197 -4.76871 1.21882 0
M  V30 6185 N 583.85 -0.624285 -1.44708 0
M  V30 6186 C 585.096 -0.126237 -2.02407 0
M  V30 6187 C 585.428 1.24618 -1.48943 0
M  V30 6188 O 584.704 1.82569 -0.670742 0
M  V30 6189 C 584.986 -0.105449 -3.59946 0
M  V30 6190 C 584.84 -1.50972 -4.23707 0
M  V30 6191 C 586.159 0.573629 -4.36346 0
M  V30 6192 H 583.278 -0.0473472 -0.735478 0
M  V30 6193 H 585.92 -0.799452 -1.72362 0
M  V30 6194 H 584.07 0.46783 -3.85673 0
M  V30 6195 H 585.742 -2.13136 -4.0911 0
M  V30 6196 H 583.985 -2.0656 -3.81465 0
M  V30 6197 H 584.656 -1.44727 -5.32689 0
M  V30 6198 H 587.132 0.0861787 -4.16011 0
M  V30 6199 H 586.008 0.557338 -5.46063 0
M  V30 6200 H 586.269 1.64276 -4.10446 0
M  V30 6201 N 585.328 1.53329 -0.364422 0
M  V30 6202 C 586.575 2.01239 0.225634 0
M  V30 6203 C 586.903 1.25172 1.48869 0
M  V30 6204 O 586.158 0.333289 1.92841 0
M  V30 6205 C 586.457 3.52911 0.564661 0
M  V30 6206 C 586.123 4.46837 -0.603936 0
M  V30 6207 C 584.785 4.72234 -0.924585 0
M  V30 6208 C 587.137 5.02409 -1.38691 0
M  V30 6209 C 584.465 5.50454 -2.0302 0
M  V30 6210 C 586.817 5.81836 -2.48293 0
M  V30 6211 C 585.481 6.0552 -2.80894 0
M  V30 6212 H 584.751 0.736386 0.0825654 0
M  V30 6213 H 587.398 1.84948 -0.496645 0
M  V30 6214 H 585.703 3.67144 1.36794 0
M  V30 6215 H 587.4 3.87455 1.03344 0
M  V30 6216 H 583.99 4.27217 -0.343983 0
M  V30 6217 H 588.174 4.82735 -1.15243 0
M  V30 6218 H 583.43 5.67024 -2.28678 0
M  V30 6219 H 587.604 6.23905 -3.0938 0
M  V30 6220 H 585.231 6.65916 -3.66688 0
M  V30 6221 N 586.806 0.0935595 1.57322 0
M  V30 6222 C 588.222 -0.263091 1.57417 0
M  V30 6223 C 588.422 -1.68526 1.1046 0
M  V30 6224 O 587.478 -2.40139 0.780357 0
M  V30 6225 C 588.791 -0.0529201 3.00653 0
M  V30 6226 C 590.339 -0.120788 3.12767 0
M  V30 6227 C 590.814 0.0613707 4.57959 0
M  V30 6228 N 592.305 0.00648534 4.632 0
M  V30 6229 C 593.04 0.122699 5.73269 0
M  V30 6230 N 592.536 0.29366 6.92177 0
M  V30 6231 N 594.329 0.0640787 5.62063 0
M  V30 6232 H 586.48 1.02277 1.86154 0
M  V30 6233 H 588.743 0.4007 0.859153 0
M  V30 6234 H 588.449 0.929279 3.39201 0
M  V30 6235 H 588.323 -0.795899 3.68708 0
M  V30 6236 H 590.71 -1.09349 2.74093 0
M  V30 6237 H 590.791 0.653656 2.47307 0
M  V30 6238 H 590.435 1.03093 4.97327 0
M  V30 6239 H 590.365 -0.732748 5.21477 0
M  V30 6240 H 592.856 -0.123173 3.77699 0
M  V30 6241 H 593.169 0.37389 7.71895 0
M  V30 6242 H 591.514 0.329307 6.94219 0
M  V30 6243 H 594.705 -0.0683396 4.6805 0
M  V30 6244 H 594.878 0.158097 6.47807 0
M  V30 6245 N 588.284 -1.56567 -0.180126 0
M  V30 6246 C 589.509 -1.85975 -0.918041 0
M  V30 6247 C 589.934 -0.678888 -1.75422 0
M  V30 6248 O 589.292 0.372168 -1.77439 0
M  V30 6249 C 589.34 -3.13731 -1.77779 0
M  V30 6250 O 588.444 -2.95335 -2.87838 0
M  V30 6251 H 587.785 -0.61196 -0.257683 0
M  V30 6252 H 590.315 -2.03798 -0.180923 0
M  V30 6253 H 590.325 -3.4491 -2.17948 0
M  V30 6254 H 589 -3.99293 -1.16352 0
M  V30 6255 H 587.577 -2.7549 -2.51316 0
M  V30 6256 N 589.762 0.448376 -1.51087 0
M  V30 6257 C 591.01 1.19635 -1.62886 0
M  V30 6258 C 591.331 1.91977 -0.342024 0
M  V30 6259 O 590.601 1.85094 0.641636 0
M  V30 6260 H 589.181 0.444598 -0.600285 0
M  V30 6261 H 591.843 0.515138 -1.87969 0
M  V30 6262 H 590.939 1.93194 -2.45117 0
M  V30 6263 N 591.24 1.41047 0.703093 0
M  V30 6264 C 592.15 1.44645 1.84703 0
M  V30 6265 C 593.166 0.337778 1.7069 0
M  V30 6266 O 594.342 0.584327 1.92737 0
M  V30 6267 C 591.407 1.31928 3.20618 0
M  V30 6268 C 590.468 2.53047 3.46794 0
M  V30 6269 C 589.701 2.40927 4.76224 0
M  V30 6270 O 589.924 1.42978 5.5219 0
M  V30 6271 O 588.858 3.30543 5.03016 0
M  V30 6272 H 592.684 2.41139 1.84624 0
M  V30 6273 H 590.269 1.22504 0.855167 0
M  V30 6274 H 592.151 1.27092 4.01778 0
M  V30 6275 H 590.826 0.385469 3.21397 0
M  V30 6276 H 589.733 2.6346 2.65593 0
M  V30 6277 H 591.066 3.45231 3.50822 0
M  V30 6278 N 592.718 -0.936591 1.26751 0
M  V30 6279 C 593.966 -1.67998 1.12343 0
M  V30 6280 C 594.287 -1.92137 -0.332938 0
M  V30 6281 O 593.557 -1.52132 -1.23421 0
M  V30 6282 H 592.137 -0.622609 0.412756 0
M  V30 6283 H 594.799 -1.12509 1.59147 0
M  V30 6284 H 593.895 -2.65185 1.64571 0
M  V30 6285 N 594.196 -1.08629 -1.14182 0
M  V30 6286 C 595.129 -0.662329 -2.18377 0
M  V30 6287 C 596.107 0.327054 -1.59277 0
M  V30 6288 O 597.291 0.230376 -1.87087 0
M  V30 6289 C 594.418 0.0254765 -3.3869 0
M  V30 6290 C 593.464 -0.924414 -4.16361 0
M  V30 6291 S 594.297 -2.43226 -4.77076 0
M  V30 6292 C 595.453 -1.75663 -6.00744 0
M  V30 6293 H 595.686 -1.54501 -2.54001 0
M  V30 6294 H 593.219 -0.901484 -1.2535 0
M  V30 6295 H 595.177 0.416032 -4.08386 0
M  V30 6296 H 593.838 0.884689 -3.01384 0
M  V30 6297 H 593.031 -0.390099 -5.02488 0
M  V30 6298 H 592.633 -1.25598 -3.5228 0
M  V30 6299 H 594.925 -1.07589 -6.68903 0
M  V30 6300 H 595.868 -2.59673 -6.58768 0
M  V30 6301 H 596.276 -1.22903 -5.50958 0
M  V30 6302 N 595.674 1.31259 -0.872281 0
M  V30 6303 C 596.922 1.96233 -0.483409 0
M  V30 6304 C 597.243 1.69276 0.968012 0
M  V30 6305 O 596.513 1.00943 1.67891 0
M  V30 6306 H 595.093 0.726025 -0.175774 0
M  V30 6307 H 597.755 1.60024 -1.11258 0
M  V30 6308 H 596.851 3.05403 -0.643075 0
M  V30 6309 N 597.152 0.631951 1.44375 0
M  V30 6310 C 598.401 0.134214 2.01253 0
M  V30 6311 C 598.714 -1.25171 1.50305 0
M  V30 6312 O 599.92 -1.8435 1.99317 0
M  V30 6313 C 598.376 0.189187 3.59402 0
M  V30 6314 C 597.984 1.57647 4.19346 0
M  V30 6315 C 599.728 -0.252044 4.23751 0
M  V30 6316 C 597.635 1.58651 5.69722 0
M  V30 6317 H 596.565 0.0464101 0.75257 0
M  V30 6318 H 599.216 0.790868 1.65582 0
M  V30 6319 H 597.598 -0.534584 3.92375 0
M  V30 6320 H 598.772 2.32389 3.97909 0
M  V30 6321 H 597.087 1.96186 3.67288 0
M  V30 6322 H 599.684 -0.264084 5.34047 0
M  V30 6323 H 600.027 -1.27951 3.96149 0
M  V30 6324 H 600.56 0.41926 3.95584 0
M  V30 6325 H 597.299 2.59237 6.0206 0
M  V30 6326 H 596.819 0.882039 5.93279 0
M  V30 6327 H 598.498 1.32082 6.33375 0
M  V30 6328 N 598.631 -1.53133 0.372548 0
M  V30 6329 C 600.047 -1.59585 0.02178 0
M  V30 6330 C 600.247 -1.38736 -1.46132 0
M  V30 6331 O 599.303 -1.19599 -2.22379 0
M  V30 6332 C 600.616 -2.9678 0.483959 0
M  V30 6333 C 602.164 -3.09909 0.438775 0
M  V30 6334 C 602.639 -4.49527 0.876876 0
M  V30 6335 N 604.13 -4.55663 0.832214 0
M  V30 6336 C 604.865 -5.61896 1.14281 0
M  V30 6337 N 604.361 -6.75852 1.52303 0
M  V30 6338 N 606.154 -5.51916 1.06515 0
M  V30 6339 H 598.305 -1.64936 1.33827 0
M  V30 6340 H 600.568 -0.773947 0.547458 0
M  V30 6341 H 600.274 -3.17198 1.51915 0
M  V30 6342 H 600.148 -3.7699 -0.125784 0
M  V30 6343 H 602.535 -2.89197 -0.587294 0
M  V30 6344 H 602.616 -2.31691 1.0841 0
M  V30 6345 H 602.26 -4.70979 1.90109 0
M  V30 6346 H 602.19 -5.26186 0.208727 0
M  V30 6347 H 604.681 -3.73844 0.552195 0
M  V30 6348 H 604.994 -7.52862 1.7441 0
M  V30 6349 H 603.339 -6.77226 1.56175 0
M  V30 6350 H 606.53 -4.6177 0.767235 0
M  V30 6351 H 606.703 -6.34609 1.31053 0
M  V30 6352 N 600.109 -0.101901 -1.5727 0
M  V30 6353 C 601.039 0.851544 -2.17419 0
M  V30 6354 C 602.02 1.28942 -1.10941 0
M  V30 6355 O 603.205 1.35509 -1.39107 0
M  V30 6356 C 600.335 2.10816 -2.75996 0
M  V30 6357 C 599.289 1.80867 -3.87906 0
M  V30 6358 C 598.615 3.13413 -4.33216 0
M  V30 6359 C 599.915 1.0903 -5.10793 0
M  V30 6360 H 601.609 0.350381 -2.97343 0
M  V30 6361 H 599.155 0.16709 -1.43027 0
M  V30 6362 H 601.108 2.77959 -3.16729 0
M  V30 6363 H 599.832 2.63227 -1.93337 0
M  V30 6364 H 598.491 1.16119 -3.47724 0
M  V30 6365 H 598.139 3.63725 -3.47438 0
M  V30 6366 H 597.839 2.94155 -5.08671 0
M  V30 6367 H 599.363 3.81704 -4.76586 0
M  V30 6368 H 600.777 1.66295 -5.48652 0
M  V30 6369 H 599.174 0.99927 -5.91722 0
M  V30 6370 H 600.244 0.0741704 -4.84843 0
M  V30 6371 N 601.587 1.56661 0.17182 0
M  V30 6372 C 602.864 1.72838 0.915778 0
M  V30 6373 C 603.244 0.66316 2.00413 0
M  V30 6374 O 602.592 -0.322123 2.26218 0
M  V30 6375 C 602.802 3.16019 1.48097 0
M  V30 6376 C 604.15 3.76962 1.95408 0
M  V30 6377 O 605.174 3.19294 1.57892 0
M  V30 6378 O 604.033 4.78219 2.64516 0
M  V30 6379 H 601.127 0.705797 0.431021 0
M  V30 6380 H 603.673 1.68947 0.159689 0
M  V30 6381 H 602.445 3.85031 0.697618 0
M  V30 6382 H 602.068 3.24234 2.30126 0
M  V30 6383 N 603.065 -0.440357 1.51323 0
M  V30 6384 C 604.013 -1.55492 1.72988 0
M  V30 6385 C 605.007 -1.58564 0.596138 0
M  V30 6386 O 606.213 -1.62345 0.777443 0
M  V30 6387 H 602.588 -0.516532 0.546533 0
M  V30 6388 H 604.559 -1.34392 2.66423 0
M  V30 6389 C 603.308 -2.93176 1.86931 0
M  V30 6390 H 602.631 -2.91543 2.73574 0
M  V30 6391 H 604.071 -3.70537 2.06103 0
M  V30 6392 C 602.53 -3.30988 0.628365 0
M  V30 6393 O 603.06 -4.01106 -0.218367 0
M  V30 6394 N 601.266 -2.86719 0.473339 0
M  V30 6395 H 600.813 -2.2983 1.16345 0
M  V30 6396 H 600.771 -3.12381 -0.355727 0
M  V30 6397 N 604.543 -1.41418 -0.695603 0
M  V30 6398 C 605.506 -1.42988 -1.79129 0
M  V30 6399 C 606.506 -0.320514 -1.57573 0
M  V30 6400 O 607.696 -0.58039 -1.64247 0
M  V30 6401 C 604.828 -1.24122 -3.175 0
M  V30 6402 H 606.021 -2.40526 -1.7913 0
M  V30 6403 H 603.574 -1.2756 -0.903225 0
M  V30 6404 H 604.309 -0.274253 -3.23138 0
M  V30 6405 H 604.094 -2.045 -3.34547 0
M  V30 6406 H 605.584 -1.28056 -3.97481 0
M  V30 6407 N 606.021 0.929856 -1.27246 0
M  V30 6408 C 607.246 1.71674 -1.16374 0
M  V30 6409 C 607.671 1.86064 0.276024 0
M  V30 6410 O 607.029 1.3591 1.19992 0
M  V30 6411 C 607.077 3.09526 -1.85003 0
M  V30 6412 O 606.181 3.96142 -1.14653 0
M  V30 6413 H 605.522 0.52629 -0.404863 0
M  V30 6414 H 608.052 1.16381 -1.68276 0
M  V30 6415 H 608.062 3.59852 -1.92276 0
M  V30 6416 H 606.737 2.98369 -2.89739 0
M  V30 6417 H 605.314 3.54584 -1.15433 0
M  V30 6418 N 607.499 1.09233 1.13605 0
M  V30 6419 C 608.462 0.733553 2.17144 0
M  V30 6420 C 609.462 -0.235873 1.59061 0
M  V30 6421 O 610.652 -0.0143167 1.74194 0
M  V30 6422 C 607.784 0.084471 3.40795 0
M  V30 6423 H 608.977 1.65049 2.50397 0
M  V30 6424 H 606.53 0.891264 1.28399 0
M  V30 6425 H 607.265 -0.843795 3.1313 0
M  V30 6426 H 607.05 0.781985 3.84223 0
M  V30 6427 H 608.54 -0.151216 4.17326 0
M  V30 6428 N 608.977 -1.30795 0.87923 0
M  V30 6429 C 610.224 -1.96362 0.494786 0
M  V30 6430 C 610.552 -1.69448 -0.954868 0
M  V30 6431 O 609.807 -0.988711 -1.68888 0
M  V30 6432 C 610.106 -3.50287 0.709476 0
M  V30 6433 C 609.772 -3.9724 2.13333 0
M  V30 6434 C 608.434 -4.09772 2.52271 0
M  V30 6435 C 610.786 -4.21807 3.06151 0
M  V30 6436 C 608.114 -4.44227 3.83248 0
M  V30 6437 C 610.466 -4.5773 4.36654 0
M  V30 6438 C 609.13 -4.68469 4.75492 0
M  V30 6439 H 608.4 -0.71854 0.181055 0
M  V30 6440 H 611.047 -1.55764 1.11399 0
M  V30 6441 H 609.352 -3.91799 0.0072 0
M  V30 6442 H 611.049 -3.99082 0.391703 0
M  V30 6443 H 607.639 -3.87988 1.82107 0
M  V30 6444 H 611.823 -4.11611 2.77291 0
M  V30 6445 H 607.079 -4.50741 4.13089 0
M  V30 6446 H 611.253 -4.7569 5.08617 0
M  V30 6447 H 608.88 -4.94923 5.77022 0
M  V30 6448 N 610.455 -0.639598 -1.44038 0
M  V30 6449 C 611.387 0.0987684 -2.28987 0
M  V30 6450 C 612.4 0.80058 -1.41755 0
M  V30 6451 O 613.589 0.660611 -1.65826 0
M  V30 6452 C 610.689 1.16242 -3.18341 0
M  V30 6453 C 609.862 0.541447 -4.34036 0
M  V30 6454 C 608.921 1.50017 -5.04362 0
M  V30 6455 O 607.947 1.01403 -5.60095 0
M  V30 6456 N 609.149 2.83441 -5.06598 0
M  V30 6457 H 611.914 -0.630305 -2.92997 0
M  V30 6458 H 609.475 -0.481376 -1.54578 0
M  V30 6459 H 611.467 1.80429 -3.62253 0
M  V30 6460 H 610.037 1.79362 -2.56024 0
M  V30 6461 H 609.257 -0.27923 -3.9321 0
M  V30 6462 H 610.545 0.107379 -5.08687 0
M  V30 6463 H 609.943 3.2551 -4.62666 0
M  V30 6464 H 608.5 3.42966 -5.54272 0
M  V30 6465 N 611.933 1.52934 -0.380664 0
M  V30 6466 C 613.181 2.01069 0.203874 0
M  V30 6467 C 613.502 1.26922 1.4804 0
M  V30 6468 O 612.772 0.386787 1.92044 0
M  V30 6469 H 611.352 0.742882 0.0783279 0
M  V30 6470 H 614.014 1.88099 -0.510368 0
M  V30 6471 H 613.11 3.09258 0.42021 0
M  V30 6472 N 613.412 0.11024 1.57214 0
M  V30 6473 C 614.375 -0.828808 2.1369 0
M  V30 6474 C 615.375 -1.20059 1.06969 0
M  V30 6475 O 616.565 -1.12754 1.32786 0
M  V30 6476 C 613.697 -2.11959 2.66994 0
M  V30 6477 H 614.89 -0.338146 2.97988 0
M  V30 6478 H 612.443 -0.138913 1.55681 0
M  V30 6479 H 613.178 -2.65476 1.8626 0
M  V30 6480 H 612.963 -1.86258 3.45037 0
M  V30 6481 H 614.453 -2.79105 3.10629 0
M  V30 6482 N 614.89 -1.56749 -0.16351 0
M  V30 6483 C 616.136 -1.82704 -0.880168 0
M  V30 6484 C 616.469 -0.689311 -1.81555 0
M  V30 6485 O 615.744 0.308224 -1.92042 0
M  V30 6486 C 616.027 -3.19084 -1.66905 0
M  V30 6487 C 615.88 -4.43397 -0.756269 0
M  V30 6488 C 617.199 -3.52493 -2.63509 0
M  V30 6489 H 614.318 -0.664608 -0.318535 0
M  V30 6490 H 616.96 -1.89438 -0.146036 0
M  V30 6491 H 615.11 -3.13475 -2.2949 0
M  V30 6492 H 616.782 -4.61079 -0.14269 0
M  V30 6493 H 615.025 -4.33752 -0.0647944 0
M  V30 6494 H 615.696 -5.3539 -1.34393 0
M  V30 6495 H 618.172 -3.58606 -2.11047 0
M  V30 6496 H 617.048 -4.48979 -3.15767 0
M  V30 6497 H 617.309 -2.77597 -3.44082 0
M  V30 6498 N 616.368 0.432326 -1.51554 0
M  V30 6499 C 617.617 1.17831 -1.63703 0
M  V30 6500 C 617.93 1.92229 -0.36156 0
M  V30 6501 O 619.136 2.69069 -0.362495 0
M  V30 6502 C 617.592 2.14318 -2.89129 0
M  V30 6503 C 617.2 1.45544 -4.23699 0
M  V30 6504 C 618.944 2.89319 -3.10636 0
M  V30 6505 C 616.851 2.40545 -5.4027 0
M  V30 6506 H 615.781 0.443533 -0.60975 0
M  V30 6507 H 618.432 0.444878 -1.78026 0
M  V30 6508 H 616.814 2.91117 -2.68452 0
M  V30 6509 H 617.988 0.742693 -4.54775 0
M  V30 6510 H 616.303 0.826772 -4.0811 0
M  V30 6511 H 618.9 3.60495 -3.94902 0
M  V30 6512 H 619.243 3.50951 -2.23918 0
M  V30 6513 H 619.776 2.19625 -3.31677 0
M  V30 6514 H 616.515 1.83594 -6.29264 0
M  V30 6515 H 616.035 3.09859 -5.13563 0
M  V30 6516 H 617.714 3.01569 -5.72421 0
M  V30 6517 N 617.846 1.41785 0.688094 0
M  V30 6518 C 619.071 1.45117 1.48175 0
M  V30 6519 C 619.496 0.060129 1.88004 0
M  V30 6520 O 618.854 -0.938385 1.55126 0
M  V30 6521 C 618.902 2.37224 2.71583 0
M  V30 6522 O 618.006 1.83443 3.69354 0
M  V30 6523 H 617.347 0.492208 0.445676 0
M  V30 6524 H 619.877 1.86329 0.845145 0
M  V30 6525 H 619.887 2.53353 3.19806 0
M  V30 6526 H 618.562 3.38293 2.41931 0
M  V30 6527 H 617.139 1.76802 3.28322 0
M  V30 6528 N 619.324 -0.923095 1.27737 0
M  V30 6529 C 620.735 -1.48626 1.12993 0
M  V30 6530 C 621.086 -1.94142 -0.283439 0
M  V30 6531 O 620.211 -1.81605 -1.17681 0
M  V30 6532 C 620.806 -2.70117 2.04505 0
M  V30 6533 C 619.365 -3.22642 1.93853 0
M  V30 6534 C 618.512 -1.95368 1.96791 0
M  V30 6535 H 621.463 -0.736737 1.40563 0
M  V30 6536 H 621.484 -3.4506 1.60356 0
M  V30 6537 H 620.996 -2.36959 3.07363 0
M  V30 6538 H 619.097 -3.60549 0.939968 0
M  V30 6539 H 619.21 -3.88525 2.80331 0
M  V30 6540 H 617.574 -2.12061 1.41076 0
M  V30 6541 H 618.357 -1.64517 3.01312 0
M  V30 6542 N 620.802 -1.09834 -1.13024 0
M  V30 6543 C 621.752 -0.710899 -2.16634 0
M  V30 6544 C 622.736 0.276836 -1.58501 0
M  V30 6545 O 623.928 0.0865457 -1.76788 0
M  V30 6546 C 621.057 -0.137574 -3.43024 0
M  V30 6547 C 620.143 -1.15198 -4.08155 0
M  V30 6548 N 620.534 -2.34054 -4.48388 0
M  V30 6549 C 618.832 -0.991074 -4.34849 0
M  V30 6550 C 619.533 -2.98616 -4.99203 0
M  V30 6551 N 618.509 -2.26159 -4.94321 0
M  V30 6552 H 622.311 -1.61576 -2.455 0
M  V30 6553 H 619.825 -0.975158 -1.29863 0
M  V30 6554 H 621.822 0.158031 -4.166 0
M  V30 6555 H 620.482 0.762088 -3.1563 0
M  V30 6556 H 621.493 -2.7162 -4.40957 0
M  V30 6557 H 618.17 -0.146448 -4.17243 0
M  V30 6558 H 619.56 -3.99683 -5.40096 0
M  V30 6559 N 622.28 1.30327 -0.886154 0
M  V30 6560 C 623.51 1.99964 -0.519421 0
M  V30 6561 C 623.918 1.66593 0.89686 0
M  V30 6562 O 623.261 0.899886 1.60149 0
M  V30 6563 C 623.323 3.54187 -0.615795 0
M  V30 6564 C 622.987 4.11078 -1.9966 0
M  V30 6565 C 623.984 4.26985 -2.96614 0
M  V30 6566 C 621.669 4.46429 -2.30231 0
M  V30 6567 C 623.663 4.77456 -4.22273 0
M  V30 6568 C 621.35 4.966 -3.56135 0
M  V30 6569 C 622.348 5.12066 -4.5197 0
M  V30 6570 O 622.036 5.61154 -5.7564 0
M  V30 6571 H 621.768 0.645979 -0.199217 0
M  V30 6572 H 624.322 1.67154 -1.19368 0
M  V30 6573 H 622.552 3.86528 0.115448 0
M  V30 6574 H 624.241 4.05065 -0.26017 0
M  V30 6575 H 625.007 3.99975 -2.74308 0
M  V30 6576 H 620.886 4.33658 -1.56404 0
M  V30 6577 H 624.43 4.89444 -4.97082 0
M  V30 6578 H 620.327 5.23045 -3.78277 0
M  V30 6579 H 621.095 5.79494 -5.78039 0
M  V30 6580 N 623.758 0.647228 1.43697 0
M  V30 6581 C 625.035 0.0883758 1.954 0
M  V30 6582 C 625.415 -1.39006 1.58873 0
M  V30 6583 O 624.763 -2.11255 0.87083 0
M  V30 6584 C 624.973 0.328263 3.47453 0
M  V30 6585 C 626.321 0.230009 4.23977 0
M  V30 6586 O 627.345 0.260496 3.55246 0
M  V30 6587 O 626.204 0.148615 5.46298 0
M  V30 6588 H 623.298 -0.0130683 0.826897 0
M  V30 6589 H 625.844 0.72005 1.53666 0
M  V30 6590 H 624.616 1.3535 3.67146 0
M  V30 6591 H 624.239 -0.336772 3.96171 0
M  V30 6592 N 625.236 -1.5273 0.388769 0
M  V30 6593 C 626.461 -2.0647 -0.19621 0
M  V30 6594 C 626.886 -1.25865 -1.39784 0
M  V30 6595 O 626.244 -0.283562 -1.79069 0
M  V30 6596 C 626.292 -3.56456 -0.5451 0
M  V30 6597 O 625.396 -3.78426 -1.63912 0
M  V30 6598 H 624.737 -0.663599 -0.023067 0
M  V30 6599 H 627.267 -1.96898 0.556084 0
M  V30 6600 H 627.277 -3.99888 -0.809557 0
M  V30 6601 H 625.952 -4.14561 0.333417 0
M  V30 6602 H 624.529 -3.46884 -1.36842 0
M  V30 6603 N 626.714 -0.118576 -1.57153 0
M  V30 6604 C 627.644 0.828436 -2.1831 0
M  V30 6605 C 628.625 1.27758 -1.12303 0
M  V30 6606 O 629.81 1.34026 -1.40537 0
M  V30 6607 C 626.94 2.07876 -2.78217 0
M  V30 6608 C 625.894 1.76742 -3.89803 0
M  V30 6609 C 625.22 3.08801 -4.36516 0
M  V30 6610 C 626.52 1.03606 -5.11921 0
M  V30 6611 H 628.214 0.318824 -2.97698 0
M  V30 6612 H 625.76 0.151911 -1.43196 0
M  V30 6613 H 627.713 2.74584 -3.19659 0
M  V30 6614 H 626.437 2.61161 -1.96118 0
M  V30 6615 H 625.096 1.12424 -3.48936 0
M  V30 6616 H 624.744 3.6002 -3.51276 0
M  V30 6617 H 624.444 2.88743 -5.11763 0
M  V30 6618 H 625.968 3.76627 -4.80608 0
M  V30 6619 H 627.382 1.60467 -5.50385 0
M  V30 6620 H 625.779 0.936454 -5.92748 0
M  V30 6621 H 626.849 0.0227421 -4.84895 0
M  V30 6622 N 628.193 1.56834 0.155195 0
M  V30 6623 C 629.123 2.00678 1.19376 0
M  V30 6624 C 630.104 0.884973 1.45266 0
M  V30 6625 O 631.289 1.1522 1.56326 0
M  V30 6626 C 628.419 2.38042 2.5289 0
M  V30 6627 C 627.373 3.53332 2.41538 0
M  V30 6628 C 626.699 3.76485 3.79688 0
M  V30 6629 C 627.999 4.86265 1.9064 0
M  V30 6630 H 629.693 2.87688 0.829232 0
M  V30 6631 H 627.239 1.38407 0.397445 0
M  V30 6632 H 629.192 2.67314 3.25763 0
M  V30 6633 H 627.916 1.4796 2.91162 0
M  V30 6634 H 626.575 3.24213 1.71117 0
M  V30 6635 H 626.223 2.83667 4.15382 0
M  V30 6636 H 625.923 4.54068 3.72956 0
M  V30 6637 H 627.447 4.08174 4.54122 0
M  V30 6638 H 628.861 5.14308 2.53299 0
M  V30 6639 H 627.258 5.67597 1.94818 0
M  V30 6640 H 628.328 4.77184 0.861596 0
M  V30 6641 N 629.671 -0.424282 1.51781 0
M  V30 6642 C 630.917 -1.17434 1.6534 0
M  V30 6643 C 631.25 -1.90549 0.374806 0
M  V30 6644 O 630.525 -1.84145 -0.626179 0
M  V30 6645 C 630.808 -2.18093 2.86544 0
M  V30 6646 C 630.661 -1.48975 4.24413 0
M  V30 6647 C 631.98 -3.18934 3.03264 0
M  V30 6648 H 629.099 -0.425566 0.601716 0
M  V30 6649 H 631.741 -0.461921 1.84299 0
M  V30 6650 H 629.891 -2.78849 2.7051 0
M  V30 6651 H 631.563 -0.914551 4.52143 0
M  V30 6652 H 629.806 -0.791893 4.26511 0
M  V30 6653 H 630.477 -2.22347 5.05238 0
M  V30 6654 H 632.953 -2.68243 3.18096 0
M  V30 6655 H 631.829 -3.86645 3.89611 0
M  V30 6656 H 632.09 -3.85793 2.15908 0
M  V30 6657 N 631.149 -1.42148 -0.680565 0
M  V30 6658 C 632.096 -1.45175 -1.79424 0
M  V30 6659 C 633.066 -0.304352 -1.63288 0
M  V30 6660 O 634.251 -0.507591 -1.83924 0
M  V30 6661 C 631.391 -1.35429 -3.17416 0
M  V30 6662 C 630.504 -2.60158 -3.4488 0
M  V30 6663 C 629.639 -2.42596 -4.72568 0
M  V30 6664 C 628.678 -3.62727 -4.93047 0
M  V30 6665 N 627.815 -3.44143 -6.11973 0
M  V30 6666 H 632.655 -2.40349 -1.76172 0
M  V30 6667 H 630.192 -1.19334 -0.860107 0
M  V30 6668 H 632.15 -1.27777 -3.97151 0
M  V30 6669 H 630.78 -0.438536 -3.19807 0
M  V30 6670 H 629.832 -2.78199 -2.5944 0
M  V30 6671 H 631.144 -3.49473 -3.55908 0
M  V30 6672 H 630.298 -2.32497 -5.60384 0
M  V30 6673 H 629.037 -1.50761 -4.63813 0
M  V30 6674 H 628.042 -3.73264 -4.03676 0
M  V30 6675 H 629.267 -4.55534 -5.03652 0
M  V30 6676 H 627.213 -2.5502 -6.04401 0
M  V30 6677 H 627.13 -4.27041 -6.23836 0
M  V30 6678 H 628.398 -3.37845 -7.02482 0
M  V30 6679 N 632.627 0.916307 -1.28225 0
M  V30 6680 C 633.873 1.66765 -1.154 0
M  V30 6681 C 634.206 1.91912 0.297251 0
M  V30 6682 O 633.481 1.51766 1.21644 0
M  V30 6683 C 633.764 3.02715 -1.95028 0
M  V30 6684 C 633.617 2.84738 -3.48201 0
M  V30 6685 C 634.936 4.03215 -1.76369 0
M  V30 6686 H 632.055 0.605205 -0.42059 0
M  V30 6687 H 634.697 1.06255 -1.57512 0
M  V30 6688 H 632.847 3.54365 -1.59242 0
M  V30 6689 H 634.519 2.40118 -3.9388 0
M  V30 6690 H 632.762 2.19848 -3.73964 0
M  V30 6691 H 633.433 3.8127 -3.99171 0
M  V30 6692 H 635.909 3.60617 -2.07593 0
M  V30 6693 H 634.785 4.96306 -2.34459 0
M  V30 6694 H 635.046 4.36288 -0.71452 0
M  V30 6695 N 634.105 1.10431 1.1244 0
M  V30 6696 C 635.354 0.841539 1.83306 0
M  V30 6697 C 635.667 -0.634961 1.85007 0
M  V30 6698 O 636.873 -1.01363 2.51869 0
M  V30 6699 C 635.329 1.45565 3.29149 0
M  V30 6700 C 634.937 2.96544 3.35806 0
M  V30 6701 C 636.681 1.27227 4.04986 0
M  V30 6702 C 634.588 3.5099 4.75983 0
M  V30 6703 H 633.518 0.311156 0.686803 0
M  V30 6704 H 636.169 1.32829 1.26604 0
M  V30 6705 H 634.551 0.896574 3.85717 0
M  V30 6706 H 635.725 3.58766 2.89177 0
M  V30 6707 H 634.04 3.14036 2.73442 0
M  V30 6708 H 636.637 1.65348 5.08492 0
M  V30 6709 H 636.98 0.213834 4.1575 0
M  V30 6710 H 637.513 1.79941 3.54776 0
M  V30 6711 H 634.252 4.56499 4.70413 0
M  V30 6712 H 633.772 2.93535 5.23065 0
M  V30 6713 H 635.451 3.48808 5.44924 0
M  V30 6714 N 635.583 -1.29855 0.893053 0
M  V30 6715 C 636.546 -2.26183 0.370687 0
M  V30 6716 C 637.546 -1.53108 -0.491385 0
M  V30 6717 O 638.736 -1.71643 -0.297386 0
M  V30 6718 C 635.868 -3.37633 -0.470827 0
M  V30 6719 H 637.061 -2.73903 1.22135 0
M  V30 6720 H 634.614 -1.41183 0.67061 0
M  V30 6721 H 635.349 -2.95241 -1.34175 0
M  V30 6722 H 635.134 -3.91825 0.146784 0
M  V30 6723 H 636.624 -4.09313 -0.827825 0
M  V30 6724 N 637.061 -0.65484 -1.43351 0
M  V30 6725 C 638.011 0.0581325 -2.27926 0
M  V30 6726 C 638.995 0.793188 -1.3999 0
M  V30 6727 O 640.187 0.675387 -1.63608 0
M  V30 6728 C 637.316 1.02272 -3.27712 0
M  V30 6729 C 636.402 0.286048 -4.23134 0
M  V30 6730 N 636.793 -0.698298 -5.00957 0
M  V30 6731 C 635.091 0.527272 -4.42872 0
M  V30 6732 C 635.792 -1.1357 -5.70506 0
M  V30 6733 N 634.768 -0.469631 -5.41568 0
M  V30 6734 H 638.57 -0.697182 -2.85511 0
M  V30 6735 H 636.084 -0.482252 -1.55074 0
M  V30 6736 H 638.081 1.5483 -3.87083 0
M  V30 6737 H 636.741 1.77807 -2.71688 0
M  V30 6738 H 637.752 -1.07708 -5.06576 0
M  V30 6739 H 634.429 1.26367 -3.97916 0
M  V30 6740 H 635.819 -1.95027 -6.42973 0
M  V30 6741 N 638.539 1.52521 -0.396863 0
M  V30 6742 C 639.787 2.01274 0.182536 0
M  V30 6743 C 640.108 1.28485 1.46685 0
M  V30 6744 O 639.378 0.407134 1.91623 0
M  V30 6745 H 637.958 0.743671 0.0704442 0
M  V30 6746 H 640.62 1.87547 -0.530289 0
M  V30 6747 H 639.716 3.09687 0.387385 0
M  V30 6748 N 640.017 0.126909 1.57088 0
M  V30 6749 C 640.964 -0.82036 2.15728 0
M  V30 6750 C 641.934 -1.25811 1.08447 0
M  V30 6751 O 643.119 -1.33422 1.36393 0
M  V30 6752 C 640.259 -2.06199 2.76724 0
M  V30 6753 C 639.372 -1.67188 3.98337 0
M  V30 6754 C 638.507 -2.86378 4.47393 0
M  V30 6755 C 637.546 -2.43644 5.61519 0
M  V30 6756 N 636.683 -3.55775 6.05284 0
M  V30 6757 H 641.523 -0.313472 2.96347 0
M  V30 6758 H 639.06 -0.14303 1.46403 0
M  V30 6759 H 641.018 -2.78959 3.10222 0
M  V30 6760 H 639.648 -2.54333 1.98782 0
M  V30 6761 H 638.7 -0.842714 3.70948 0
M  V30 6762 H 640.012 -1.31789 4.81075 0
M  V30 6763 H 639.166 -3.67353 4.82842 0
M  V30 6764 H 637.905 -3.25009 3.63621 0
M  V30 6765 H 636.91 -1.61104 5.25667 0
M  V30 6766 H 638.135 -2.06122 6.47063 0
M  V30 6767 H 636.081 -3.94065 5.24451 0
M  V30 6768 H 635.998 -3.24325 6.82898 0
M  V30 6769 H 637.266 -4.37166 6.45373 0
M  V30 6770 N 641.495 -1.56914 -0.146875 0
M  V30 6771 C 642.772 -1.74273 -0.888165 0
M  V30 6772 C 643.152 -0.69496 -1.99333 0
M  V30 6773 O 642.5 0.286093 -2.26702 0
M  V30 6774 C 642.71 -3.18336 -1.43051 0
M  V30 6775 C 644.058 -3.80024 -1.89387 0
M  V30 6776 O 645.082 -3.21765 -1.52792 0
M  V30 6777 O 643.941 -4.82367 -2.56874 0
M  V30 6778 H 641.035 -0.712565 -0.419738 0
M  V30 6779 H 643.581 -1.6918 -0.132791 0
M  V30 6780 H 642.353 -3.86092 -0.636274 0
M  V30 6781 H 641.976 -3.27854 -2.24938 0
M  V30 6782 N 642.974 0.416227 -1.52004 0
M  V30 6783 C 643.924 1.50558 -1.7122 0
M  V30 6784 C 644.908 1.50613 -0.56609 0
M  V30 6785 O 646.1 1.56709 -0.822874 0
M  V30 6786 C 643.229 2.88556 -1.85984 0
M  V30 6787 C 642.315 2.93177 -3.06445 0
M  V30 6788 N 642.706 2.67505 -4.29272 0
M  V30 6789 C 641.004 3.24343 -3.06133 0
M  V30 6790 C 641.705 2.78511 -5.10692 0
M  V30 6791 N 640.681 3.11087 -4.45787 0
M  V30 6792 H 644.483 1.29494 -2.63834 0
M  V30 6793 H 641.997 0.62384 -1.4994 0
M  V30 6794 H 643.994 3.66954 -1.97865 0
M  V30 6795 H 642.654 3.10624 -0.945654 0
M  V30 6796 H 643.665 2.42033 -4.57865 0
M  V30 6797 H 640.342 3.52051 -2.24425 0
M  V30 6798 H 641.732 2.62438 -6.18527 0
M  V30 6799 N 644.452 1.42507 0.673017 0
M  V30 6800 C 645.863 1.38347 1.25367 0
M  V30 6801 C 646.214 0.0776327 1.96046 0
M  V30 6802 O 645.339 -0.823571 2.00116 0
M  V30 6803 C 645.934 2.506 2.28002 0
M  V30 6804 C 644.493 2.49767 2.81591 0
M  V30 6805 C 643.64 2.293 1.55938 0
M  V30 6806 H 646.591 1.51695 0.466288 0
M  V30 6807 H 646.612 2.20953 3.09774 0
M  V30 6808 H 646.124 3.45627 1.76532 0
M  V30 6809 H 644.225 1.58563 3.37177 0
M  V30 6810 H 644.338 3.46867 3.30485 0
M  V30 6811 H 642.702 1.77594 1.82572 0
M  V30 6812 H 643.485 3.26385 1.06431 0
M  V30 6813 N 645.93 -0.909495 1.28709 0
M  V30 6814 C 647.158 -1.69272 1.18973 0
M  V30 6815 C 647.573 -1.87123 -0.251048 0
M  V30 6816 O 646.93 -1.40127 -1.16922 0
M  V30 6817 C 646.981 -3.08257 1.88839 0
M  V30 6818 O 646.702 -2.91228 3.27289 0
M  V30 6819 C 648.203 -4.02642 1.85457 0
M  V30 6820 H 645.423 -0.528999 0.412797 0
M  V30 6821 H 647.967 -1.13803 1.69909 0
M  V30 6822 H 646.122 -3.6053 1.41762 0
M  V30 6823 H 646.536 -3.79223 3.6234 0
M  V30 6824 H 648.01 -4.97613 2.38925 0
M  V30 6825 H 648.487 -4.31327 0.827893 0
M  V30 6826 H 649.093 -3.56298 2.32233 0
M  V30 6827 N 647.408 -1.11026 -1.11852 0
M  V30 6828 C 648.371 -0.768006 -2.1595 0
M  V30 6829 C 649.371 0.210538 -1.59416 0
M  V30 6830 O 650.561 -0.0133978 -1.74195 0
M  V30 6831 C 647.693 -0.138678 -3.40618 0
M  V30 6832 H 648.886 -1.69012 -2.4774 0
M  V30 6833 H 646.439 -0.911578 -1.26964 0
M  V30 6834 H 647.174 0.793872 -3.14433 0
M  V30 6835 H 646.959 -0.843012 -3.8293 0
M  V30 6836 H 648.449 0.0848039 -4.17514 0
M  V30 6837 N 648.886 1.2938 -0.899927 0
M  V30 6838 C 649.849 2.25983 -0.382677 0
M  V30 6839 C 650.849 1.53366 0.483259 0
M  V30 6840 O 652.039 1.71798 0.28828 0
M  V30 6841 C 649.171 3.37878 0.452915 0
M  V30 6842 H 650.364 2.73252 -1.23586 0
M  V30 6843 H 647.917 1.40825 -0.678088 0
M  V30 6844 H 648.652 2.95949 1.32608 0
M  V30 6845 H 648.437 3.91742 -0.167562 0
M  V30 6846 H 649.927 4.09746 0.806107 0
M  V30 6847 N 650.364 0.662433 1.43002 0
M  V30 6848 C 651.592 0.187615 2.06048 0
M  V30 6849 C 652.007 -1.15039 1.49705 0
M  V30 6850 O 651.364 -1.71209 0.631956 0
M  V30 6851 C 651.415 0.100498 3.6136 0
M  V30 6852 O 651.136 1.38562 4.15611 0
M  V30 6853 C 652.637 -0.399298 4.41498 0
M  V30 6854 H 649.857 0.0941675 0.664359 0
M  V30 6855 H 652.401 0.905681 1.83351 0
M  V30 6856 H 650.556 -0.568181 3.83211 0
M  V30 6857 H 650.97 1.25084 5.09366 0
M  V30 6858 H 652.444 -0.409187 5.50481 0
M  V30 6859 H 652.921 -1.43232 4.15188 0
M  V30 6860 H 653.527 0.23721 4.24638 0
M  V30 6861 N 651.842 -1.52309 0.404946 0
M  V30 6862 C 652.789 -2.26898 -0.422597 0
M  V30 6863 C 653.759 -1.2914 -1.04461 0
M  V30 6864 O 654.944 -1.57996 -1.06967 0
M  V30 6865 C 652.084 -3.09053 -1.53559 0
M  V30 6866 C 651.197 -4.21762 -0.934908 0
M  V30 6867 C 650.332 -4.91283 -2.02025 0
M  V30 6868 C 649.371 -5.95962 -1.39628 0
M  V30 6869 N 648.508 -6.59017 -2.42159 0
M  V30 6870 H 653.348 -2.97188 0.219903 0
M  V30 6871 H 650.885 -1.46607 0.120282 0
M  V30 6872 H 652.843 -3.54987 -2.19181 0
M  V30 6873 H 651.473 -2.40942 -2.14818 0
M  V30 6874 H 650.525 -3.80029 -0.167854 0
M  V30 6875 H 651.837 -4.96864 -0.439073 0
M  V30 6876 H 650.991 -5.40601 -2.75383 0
M  V30 6877 H 649.73 -4.15741 -2.54973 0
M  V30 6878 H 648.735 -5.45968 -0.648023 0
M  V30 6879 H 649.96 -6.73445 -0.874553 0
M  V30 6880 H 647.906 -5.86306 -2.94247 0
M  V30 6881 H 647.823 -7.2978 -1.97376 0
M  V30 6882 H 649.091 -7.12974 -3.15099 0
M  V30 6883 N 653.32 -0.135238 -1.57019 0
M  V30 6884 C 654.253 0.846618 -2.11914 0
M  V30 6885 C 655.231 1.25019 -1.03966 0
M  V30 6886 O 656.415 1.34838 -1.31723 0
M  V30 6887 C 653.542 2.1352 -2.6292 0
M  V30 6888 C 652.588 1.87846 -3.82905 0
M  V30 6889 S 653.421 1.08005 -5.24495 0
M  V30 6890 C 654.577 2.38008 -5.78881 0
M  V30 6891 H 654.81 0.379752 -2.94865 0
M  V30 6892 H 652.343 0.0788387 -1.54199 0
M  V30 6893 H 654.301 2.87551 -2.92958 0
M  V30 6894 H 652.962 2.57323 -1.80121 0
M  V30 6895 H 652.155 2.83365 -4.16797 0
M  V30 6896 H 651.757 1.21929 -3.53567 0
M  V30 6897 H 654.049 3.33742 -5.89595 0
M  V30 6898 H 654.992 2.08638 -6.76665 0
M  V30 6899 H 655.4 2.48119 -5.07048 0
M  V30 6900 N 654.798 1.5699 0.138552 0
M  V30 6901 C 656.023 1.88344 0.86841 0
M  V30 6902 C 656.448 0.725159 1.7356 0
M  V30 6903 O 655.806 -0.324992 1.78363 0
M  V30 6904 C 655.854 3.18334 1.69398 0
M  V30 6905 O 654.958 3.02863 2.79907 0
M  V30 6906 H 654.299 0.618577 0.241367 0
M  V30 6907 H 656.829 2.04207 0.126826 0
M  V30 6908 H 656.839 3.50567 2.08726 0
M  V30 6909 H 655.514 4.02238 1.05725 0
M  V30 6910 H 654.091 2.82056 2.43924 0
M  V30 6911 N 656.276 -0.40816 1.52223 0
M  V30 6912 C 657.692 -0.74685 1.41047 0
M  V30 6913 C 657.892 -1.94788 0.51573 0
M  V30 6914 O 656.948 -2.52494 -0.0181156 0
M  V30 6915 C 658.261 -0.999878 2.83589 0
M  V30 6916 C 659.809 -1.10253 2.92939 0
M  V30 6917 C 660.284 -1.38832 4.36451 0
M  V30 6918 N 661.775 -1.45694 4.3969 0
M  V30 6919 C 662.51 -1.69435 5.47795 0
M  V30 6920 N 662.006 -1.90774 6.66016 0
M  V30 6921 N 663.799 -1.71458 5.35312 0
M  V30 6922 H 655.95 0.382409 2.08929 0
M  V30 6923 H 658.213 0.108807 0.941735 0
M  V30 6924 H 657.919 -0.189723 3.51188 0
M  V30 6925 H 657.793 -1.91978 3.24691 0
M  V30 6926 H 660.18 -1.90328 2.2552 0
M  V30 6927 H 660.261 -0.160973 2.55293 0
M  V30 6928 H 659.905 -0.592741 5.04429 0
M  V30 6929 H 659.835 -2.34241 4.71634 0
M  V30 6930 H 662.326 -1.3099 3.54472 0
M  V30 6931 H 662.639 -2.08342 7.44186 0
M  V30 6932 H 660.984 -1.88037 6.69079 0
M  V30 6933 H 664.175 -1.54326 4.41929 0
M  V30 6934 H 664.348 -1.89621 6.19635 0
M  V30 6935 N 657.755 -1.42862 -0.66545 0
M  V30 6936 C 658.718 -1.46756 -1.76055 0
M  V30 6937 C 659.718 -0.353866 -1.56858 0
M  V30 6938 O 660.908 -0.615099 -1.62979 0
M  V30 6939 C 658.04 -1.30829 -3.14796 0
M  V30 6940 H 659.233 -2.44271 -1.73987 0
M  V30 6941 H 656.786 -1.29447 -0.875965 0
M  V30 6942 H 657.521 -0.342733 -3.22484 0
M  V30 6943 H 657.306 -2.11551 -3.30134 0
M  V30 6944 H 658.796 -1.36458 -3.94676 0
M  V30 6945 N 659.233 0.902656 -1.29189 0
M  V30 6946 C 660.163 2.02294 -1.16616 0
M  V30 6947 C 661.144 1.6999 -0.0611175 0
M  V30 6948 O 662.329 1.9271 -0.240072 0
M  V30 6949 C 659.459 3.37018 -0.83882 0
M  V30 6950 C 658.413 3.83522 -1.89986 0
M  V30 6951 C 657.739 5.15337 -1.42589 0
M  V30 6952 C 659.039 4.04169 -3.30824 0
M  V30 6953 H 660.733 2.13071 -2.10336 0
M  V30 6954 H 658.279 1.02378 -1.01266 0
M  V30 6955 H 660.232 4.14895 -0.737584 0
M  V30 6956 H 658.956 3.26325 0.134071 0
M  V30 6957 H 657.615 3.07859 -1.99043 0
M  V30 6958 H 657.263 5.01056 -0.441759 0
M  V30 6959 H 656.963 5.47423 -2.13547 0
M  V30 6960 H 658.487 5.95758 -1.3381 0
M  V30 6961 H 659.901 4.72537 -3.24626 0
M  V30 6962 H 658.298 4.47604 -3.99713 0
M  V30 6963 H 659.368 3.08604 -3.74021 0
M  V30 6964 N 660.711 1.11618 1.11262 0
M  V30 6965 C 661.674 0.779447 2.15539 0
M  V30 6966 C 662.674 -0.202081 1.59525 0
M  V30 6967 O 663.864 0.0226356 1.74185 0
M  V30 6968 C 660.996 0.15674 3.40539 0
M  V30 6969 H 662.189 1.70324 2.4684 0
M  V30 6970 H 659.742 0.918298 1.26479 0
M  V30 6971 H 660.477 -0.777186 3.1485 0
M  V30 6972 H 660.262 0.863308 3.82478 0
M  V30 6973 H 661.752 -0.062661 4.17553 0
M  V30 6974 N 662.189 -1.289 0.906776 0
M  V30 6975 C 663.099 -2.31256 0.394707 0
M  V30 6976 C 664.115 -1.66231 -0.514121 0
M  V30 6977 O 665.291 -1.97347 -0.401994 0
M  V30 6978 C 662.356 -3.44792 -0.363191 0
M  V30 6979 C 661.417 -4.25391 0.578012 0
M  V30 6980 C 660.65 -5.33506 -0.143811 0
M  V30 6981 O 660.873 -5.53786 -1.36665 0
M  V30 6982 O 659.807 -5.99673 0.5173 0
M  V30 6983 H 663.633 -2.77051 1.24405 0
M  V30 6984 H 661.218 -1.33466 0.671346 0
M  V30 6985 H 663.1 -4.139 -0.791503 0
M  V30 6986 H 661.775 -3.01093 -1.18848 0
M  V30 6987 H 660.682 -3.58899 1.05558 0
M  V30 6988 H 662.015 -4.72752 1.36992 0
M  V30 6989 N 663.667 -0.670007 -1.42649 0
M  V30 6990 C 664.914 -0.190286 -2.01604 0
M  V30 6991 C 665.242 1.20155 -1.52948 0
M  V30 6992 O 664.497 1.81964 -0.72026 0
M  V30 6993 C 664.796 -0.168298 -3.57004 0
M  V30 6994 C 664.462 -1.50415 -4.25072 0
M  V30 6995 C 663.124 -1.86992 -4.43382 0
M  V30 6996 C 665.476 -2.38414 -4.63474 0
M  V30 6997 C 662.804 -3.11203 -4.97363 0
M  V30 6998 C 665.156 -3.61933 -5.18833 0
M  V30 6999 C 663.82 -3.98685 -5.35356 0
M  V30 7000 H 663.09 -0.0696305 -0.737721 0
M  V30 7001 H 665.737 -0.864044 -1.70899 0
M  V30 7002 H 664.042 0.588958 -3.87348 0
M  V30 7003 H 665.739 0.22001 -4.00396 0
M  V30 7004 H 662.329 -1.20959 -4.11177 0
M  V30 7005 H 666.513 -2.11442 -4.49006 0
M  V30 7006 H 661.769 -3.39705 -5.08341 0
M  V30 7007 H 665.943 -4.30326 -5.47533 0
M  V30 7008 H 663.57 -4.95009 -5.76949 0
M  V30 7009 N 665.145 1.52092 -0.413018 0
M  V30 7010 C 666.561 1.59471 -0.0640836 0
M  V30 7011 C 666.761 1.42562 1.42402 0
M  V30 7012 O 665.817 1.25453 2.19129 0
M  V30 7013 C 667.13 2.95392 -0.562474 0
M  V30 7014 C 668.678 3.08637 -0.520788 0
M  V30 7015 C 669.153 4.47044 -0.995752 0
M  V30 7016 N 670.644 4.53296 -0.952732 0
M  V30 7017 C 671.379 5.58669 -1.29138 0
M  V30 7018 N 670.875 6.71576 -1.70168 0
M  V30 7019 N 672.668 5.48898 -1.2111 0
M  V30 7020 H 664.819 1.6133 -1.38153 0
M  V30 7021 H 667.082 0.75916 -0.567785 0
M  V30 7022 H 666.788 3.13059 -1.60271 0
M  V30 7023 H 666.662 3.77191 0.0257875 0
M  V30 7024 H 669.049 2.90652 0.510412 0
M  V30 7025 H 669.13 2.28735 -1.14515 0
M  V30 7026 H 668.774 4.65773 -2.0253 0
M  V30 7027 H 668.704 5.25448 -0.348162 0
M  V30 7028 H 671.195 3.72248 -0.651119 0
M  V30 7029 H 671.508 7.47973 -1.9431 0
M  V30 7030 H 669.853 6.72847 -1.74075 0
M  V30 7031 H 673.044 4.59573 -0.889396 0
M  V30 7032 H 673.217 6.30912 -1.47833 0
M  V30 7033 N 666.623 0.143563 1.56945 0
M  V30 7034 C 667.869 -0.50916 1.96304 0
M  V30 7035 C 668.202 -1.64741 1.0283 0
M  V30 7036 O 667.477 -1.94374 0.0700361 0
M  V30 7037 C 667.76 -1.0186 3.45393 0
M  V30 7038 C 667.613 0.117923 4.49645 0
M  V30 7039 C 668.932 -1.90151 3.96901 0
M  V30 7040 H 666.051 -0.183608 0.713763 0
M  V30 7041 H 668.693 0.224095 1.88674 0
M  V30 7042 H 666.843 -1.64345 3.52027 0
M  V30 7043 H 668.515 0.754145 4.55094 0
M  V30 7044 H 666.758 0.777568 4.26774 0
M  V30 7045 H 667.429 -0.280187 5.51288 0
M  V30 7046 H 669.905 -1.375 3.92725 0
M  V30 7047 H 668.781 -2.22707 5.0169 0
M  V30 7048 H 669.042 -2.83718 3.39052 0
M  V30 7049 N 668.101 -1.57061 -0.130224 0
M  V30 7050 C 669.517 -1.52103 -0.483413 0
M  V30 7051 C 669.717 -0.854752 -1.82473 0
M  V30 7052 O 668.773 -0.432342 -2.48771 0
M  V30 7053 C 670.086 -2.96872 -0.47825 0
M  V30 7054 C 671.634 -3.07902 -0.562592 0
M  V30 7055 C 672.109 -4.54211 -0.587929 0
M  V30 7056 N 673.6 -4.58621 -0.649684 0
M  V30 7057 C 674.335 -5.69227 -0.690551 0
M  V30 7058 N 673.831 -6.89358 -0.689743 0
M  V30 7059 N 675.624 -5.57304 -0.732708 0
M  V30 7060 H 667.775 -1.98764 0.748779 0
M  V30 7061 H 670.038 -0.907248 0.274965 0
M  V30 7062 H 669.744 -3.48944 0.439444 0
M  V30 7063 H 669.618 -3.53716 -1.31013 0
M  V30 7064 H 672.005 -2.5584 -1.47071 0
M  V30 7065 H 672.086 -2.54073 0.296764 0
M  V30 7066 H 671.73 -5.06915 0.316096 0
M  V30 7067 H 671.66 -5.0584 -1.46401 0
M  V30 7068 H 674.151 -3.72146 -0.656927 0
M  V30 7069 H 674.464 -7.69408 -0.723239 0
M  V30 7070 H 672.809 -6.91884 -0.657347 0
M  V30 7071 H 676 -4.62363 -0.730625 0
M  V30 7072 H 676.173 -6.43515 -0.76109 0
M  V30 7073 N 669.579 0.400081 -1.52437 0
M  V30 7074 C 670.827 1.14392 -1.6661 0
M  V30 7075 C 671.148 1.90792 -0.402927 0
M  V30 7076 O 670.418 1.87042 0.582425 0
M  V30 7077 H 668.998 0.425275 -0.614125 0
M  V30 7078 H 671.66 0.455076 -1.89513 0
M  V30 7079 H 670.756 1.85298 -2.51139 0
M  V30 7080 N 671.057 1.43213 0.657864 0
M  V30 7081 C 672.303 1.44798 1.41991 0
M  V30 7082 C 672.636 0.070256 1.94073 0
M  V30 7083 O 671.911 -0.908177 1.71995 0
M  V30 7084 C 672.194 2.4865 2.60471 0
M  V30 7085 C 672.047 3.95679 2.13911 0
M  V30 7086 C 673.366 2.49292 3.62686 0
M  V30 7087 H 670.485 0.527244 0.514959 0
M  V30 7088 H 673.127 1.74733 0.74621 0
M  V30 7089 H 671.277 2.23254 3.17946 0
M  V30 7090 H 672.949 4.32116 1.61472 0
M  V30 7091 H 671.192 4.08733 1.45325 0
M  V30 7092 H 671.863 4.6395 2.99089 0
M  V30 7093 H 674.339 2.71917 3.14961 0
M  V30 7094 H 673.215 3.23907 4.43143 0
M  V30 7095 H 673.476 1.52502 4.14964 0
M  V30 7096 N 672.536 -0.895792 1.29666 0
M  V30 7097 C 673.483 -2.00035 1.15129 0
M  V30 7098 C 674.453 -1.66043 0.0435819 0
M  V30 7099 O 675.638 -1.89621 0.211811 0
M  V30 7100 C 672.778 -3.34774 0.83787 0
M  V30 7101 C 671.891 -3.81525 2.0264 0
M  V30 7102 C 671.026 -5.04858 1.65201 0
M  V30 7103 C 670.065 -5.43988 2.80612 0
M  V30 7104 N 669.202 -6.58507 2.43544 0
M  V30 7105 H 674.042 -2.11802 2.09628 0
M  V30 7106 H 671.579 -1.03719 1.04311 0
M  V30 7107 H 673.537 -4.12311 0.636824 0
M  V30 7108 H 672.167 -3.22724 -0.0702314 0
M  V30 7109 H 671.219 -2.9999 2.33903 0
M  V30 7110 H 672.531 -4.06472 2.89106 0
M  V30 7111 H 671.685 -5.8999 1.41408 0
M  V30 7112 H 670.424 -4.81759 0.758893 0
M  V30 7113 H 669.429 -4.57388 3.05083 0
M  V30 7114 H 670.654 -5.69066 3.70595 0
M  V30 7115 H 668.6 -6.37004 1.56724 0
M  V30 7116 H 668.517 -6.83269 3.23542 0
M  V30 7117 H 669.785 -7.46897 2.2308 0
M  V30 7118 N 674.014 -1.12206 -1.10668 0
M  V30 7119 C 675.242 -0.898635 -1.86366 0
M  V30 7120 C 675.657 0.551991 -1.80551 0
M  V30 7121 O 675.014 1.38152 -1.19249 0
M  V30 7122 C 675.065 -1.36199 -3.34861 0
M  V30 7123 O 674.786 -2.75576 -3.40573 0
M  V30 7124 C 676.287 -1.17515 -4.2744 0
M  V30 7125 H 673.507 -0.321281 -0.589084 0
M  V30 7126 H 676.051 -1.49142 -1.39918 0
M  V30 7127 H 674.206 -0.81249 -3.78784 0
M  V30 7128 H 674.62 -2.95851 -4.33096 0
M  V30 7129 H 676.094 -1.54827 -5.29842 0
M  V30 7130 H 676.571 -0.115486 -4.39048 0
M  V30 7131 H 677.177 -1.71203 -3.89319 0
M  V30 7132 N 675.492 1.28418 -0.913599 0
M  V30 7133 C 676.44 2.29272 -0.392037 0
M  V30 7134 C 677.434 1.61344 0.516198 0
M  V30 7135 O 678.64 1.75557 0.39746 0
M  V30 7136 H 675.015 0.744178 -0.108178 0
M  V30 7137 H 676.986 2.70691 -1.25574 0
M  V30 7138 C 675.735 3.45905 0.352815 0
M  V30 7139 H 675.058 3.98378 -0.336848 0
M  V30 7140 H 676.498 4.18473 0.682398 0
M  V30 7141 C 674.957 2.98572 1.56065 0
M  V30 7142 O 675.487 3.01033 2.65974 0
M  V30 7143 N 673.693 2.54235 1.40759 0
M  V30 7144 H 673.24 2.52432 0.513403 0
M  V30 7145 H 673.198 2.22925 2.21702 0
M  V30 7146 N 676.97 0.677563 1.42291 0
M  V30 7147 C 678.219 0.198173 2.00724 0
M  V30 7148 C 678.532 -1.20325 1.54211 0
M  V30 7149 O 679.738 -1.77916 2.05081 0
M  V30 7150 C 678.194 0.303432 3.58619 0
M  V30 7151 C 677.802 1.70909 4.14119 0
M  V30 7152 C 679.546 -0.117103 4.24338 0
M  V30 7153 C 677.453 1.76696 5.64387 0
M  V30 7154 H 676.383 0.070329 0.750713 0
M  V30 7155 H 679.034 0.843147 1.62982 0
M  V30 7156 H 677.416 -0.409482 3.93877 0
M  V30 7157 H 678.59 2.44931 3.90315 0
M  V30 7158 H 676.905 2.07771 3.6086 0
M  V30 7159 H 679.502 -0.0940471 5.34617 0
M  V30 7160 H 679.845 -1.15283 4.00019 0
M  V30 7161 H 680.378 0.5449 3.9405 0
M  V30 7162 H 677.117 2.7826 5.93508 0
M  V30 7163 H 676.637 1.07034 5.90173 0
M  V30 7164 H 678.316 1.52166 6.28852 0
M  V30 7165 N 678.448 -1.51871 0.421078 0
M  V30 7166 C 679.411 -2.25914 -0.386712 0
M  V30 7167 C 680.411 -1.28733 -0.963555 0
M  V30 7168 O 681.601 -1.52579 -0.840556 0
M  V30 7169 C 678.733 -3.03853 -1.54551 0
M  V30 7170 H 679.926 -2.98754 0.261978 0
M  V30 7171 H 677.479 -1.5533 0.173862 0
M  V30 7172 H 678.214 -2.35392 -2.23072 0
M  V30 7173 H 677.999 -3.75215 -1.13824 0
M  V30 7174 H 679.489 -3.59984 -2.11663 0
M  V30 7175 N 679.926 -0.151884 -1.56866 0
M  V30 7176 C 681.173 0.498004 -1.96281 0
M  V30 7177 C 681.501 1.64551 -1.03698 0
M  V30 7178 O 680.756 1.95585 -0.0671497 0
M  V30 7179 C 681.055 1.04074 -3.41911 0
M  V30 7180 C 680.721 0.0111688 -4.50899 0
M  V30 7181 C 679.383 -0.271844 -4.80432 0
M  V30 7182 C 681.735 -0.68869 -5.1663 0
M  V30 7183 C 679.063 -1.26044 -5.73001 0
M  V30 7184 C 681.415 -1.66613 -6.10264 0
M  V30 7185 C 680.079 -1.9568 -6.38174 0
M  V30 7186 H 679.349 0.182233 -0.718242 0
M  V30 7187 H 681.996 -0.239746 -1.89993 0
M  V30 7188 H 680.301 1.85592 -3.45055 0
M  V30 7189 H 681.998 1.55224 -3.69738 0
M  V30 7190 H 678.588 0.241932 -4.27917 0
M  V30 7191 H 682.772 -0.48324 -4.93942 0
M  V30 7192 H 678.028 -1.49202 -5.92915 0
M  V30 7193 H 682.202 -2.21392 -6.60272 0
M  V30 7194 H 679.829 -2.72434 -7.09707 0
M  V30 7195 N 681.404 1.57128 0.121893 0
M  V30 7196 C 682.334 2.03165 1.15092 0
M  V30 7197 C 683.315 0.915587 1.43356 0
M  V30 7198 O 684.5 1.1851 1.53847 0
M  V30 7199 C 681.63 2.43352 2.47784 0
M  V30 7200 C 680.584 3.58376 2.33989 0
M  V30 7201 C 679.91 3.84454 3.71617 0
M  V30 7202 C 681.21 4.90199 1.80283 0
M  V30 7203 H 682.904 2.89382 0.768023 0
M  V30 7204 H 680.45 1.39218 0.367998 0
M  V30 7205 H 682.403 2.74163 3.20019 0
M  V30 7206 H 681.127 1.54103 2.87958 0
M  V30 7207 H 679.786 3.2777 1.64202 0
M  V30 7208 H 679.434 2.92414 4.09271 0
M  V30 7209 H 679.134 4.61877 3.6324 0
M  V30 7210 H 680.658 4.17714 4.45362 0
M  V30 7211 H 682.072 5.19565 2.42333 0
M  V30 7212 H 680.469 5.71601 1.82735 0
M  V30 7213 H 681.539 4.78904 0.760184 0
M  V30 7214 N 682.882 -0.391992 1.52647 0
M  V30 7215 C 683.814 -1.49811 1.73463 0
M  V30 7216 C 684.827 -1.50734 0.615078 0
M  V30 7217 O 686.016 -1.5469 0.890696 0
M  V30 7218 C 683.116 -2.88667 1.77552 0
M  V30 7219 C 682.289 -3.11743 3.06815 0
M  V30 7220 C 681.348 -4.30564 3.02491 0
M  V30 7221 O 680.374 -4.27014 3.76361 0
M  V30 7222 N 681.576 -5.36593 2.21468 0
M  V30 7223 H 684.341 -1.32343 2.68897 0
M  V30 7224 H 681.902 -0.581475 1.51098 0
M  V30 7225 H 683.894 -3.66251 1.7217 0
M  V30 7226 H 682.464 -2.99508 0.895181 0
M  V30 7227 H 681.684 -2.2205 3.25711 0
M  V30 7228 H 682.972 -3.24013 3.92292 0
M  V30 7229 H 682.37 -5.42332 1.60913 0
M  V30 7230 H 680.927 -6.12855 2.21928 0
M  V30 7231 N 684.36 -1.4356 -0.65026 0
M  V30 7232 C 685.308 -1.49219 -1.78427 0
M  V30 7233 C 686.302 -0.365528 -1.65409 0
M  V30 7234 O 687.508 -0.539649 -1.7172 0
M  V30 7235 H 683.883 -0.467858 -0.588738 0
M  V30 7236 H 685.854 -2.44701 -1.70774 0
M  V30 7237 C 684.603 -1.43519 -3.16698 0
M  V30 7238 H 683.926 -2.2952 -3.27354 0
M  V30 7239 H 685.366 -1.5154 -3.95995 0
M  V30 7240 C 683.825 -0.153197 -3.36552 0
M  V30 7241 O 684.355 0.784317 -3.93969 0
M  V30 7242 N 682.561 -0.0624402 -2.90533 0
M  V30 7243 H 682.108 -0.826172 -2.43992 0
M  V30 7244 H 682.066 0.794616 -3.04193 0
M  V30 7245 N 685.838 0.888903 -1.30139 0
M  V30 7246 C 687.084 1.6428 -1.18912 0
M  V30 7247 C 687.417 1.92499 0.256477 0
M  V30 7248 O 686.692 1.54312 1.18397 0
M  V30 7249 C 686.975 2.9851 -2.01405 0
M  V30 7250 C 686.828 2.77288 -3.54163 0
M  V30 7251 C 688.147 3.99383 -1.84882 0
M  V30 7252 H 685.266 0.596148 -0.433333 0
M  V30 7253 H 687.908 1.0289 -1.5973 0
M  V30 7254 H 686.058 3.50907 -1.66722 0
M  V30 7255 H 687.73 2.31709 -3.98884 0
M  V30 7256 H 685.973 2.11867 -3.78543 0
M  V30 7257 H 686.644 3.72717 -4.07168 0
M  V30 7258 H 689.12 3.56132 -2.15196 0
M  V30 7259 H 687.996 4.91222 -2.44934 0
M  V30 7260 H 688.257 4.34674 -0.806902 0
M  V30 7261 N 687.317 1.12792 1.10072 0
M  V30 7262 C 688.247 0.821688 2.18565 0
M  V30 7263 C 689.228 -0.21612 1.68721 0
M  V30 7264 O 690.413 -0.0764932 1.94049 0
M  V30 7265 C 687.543 0.279624 3.46172 0
M  V30 7266 C 686.497 1.25092 4.09312 0
M  V30 7267 C 685.823 0.568916 5.31665 0
M  V30 7268 C 687.123 2.60699 4.52585 0
M  V30 7269 H 688.817 1.72888 2.44438 0
M  V30 7270 H 686.363 0.832702 1.17482 0
M  V30 7271 H 688.316 0.053099 4.21367 0
M  V30 7272 H 687.04 -0.662929 3.19801 0
M  V30 7273 H 685.699 1.46332 3.36129 0
M  V30 7274 H 685.347 -0.378898 5.01571 0
M  V30 7275 H 685.047 1.21687 5.74862 0
M  V30 7276 H 686.571 0.351517 6.09587 0
M  V30 7277 H 687.985 2.43465 5.19035 0
M  V30 7278 H 686.382 3.21608 5.06644 0
M  V30 7279 H 687.452 3.1886 3.65317 0
M  V30 7280 N 688.795 -1.27931 0.920396 0
M  V30 7281 C 689.743 -2.29061 0.404191 0
M  V30 7282 C 690.737 -1.61615 -0.507634 0
M  V30 7283 O 691.943 -1.75765 -0.388144 0
M  V30 7284 H 688.318 -0.743594 0.112123 0
M  V30 7285 H 690.289 -2.70021 1.27008 0
M  V30 7286 C 689.038 -3.46088 -0.334466 0
M  V30 7287 H 688.361 -3.98194 0.35797 0
M  V30 7288 H 689.801 -4.18829 -0.660196 0
M  V30 7289 C 688.26 -2.99396 -1.54479 0
M  V30 7290 O 688.79 -3.02439 -2.64374 0
M  V30 7291 N 686.996 -2.54978 -1.39408 0
M  V30 7292 H 686.543 -2.52701 -0.500009 0
M  V30 7293 H 686.501 -2.24098 -2.20516 0
M  V30 7294 N 690.273 -0.685099 -1.4193 0
M  V30 7295 C 691.221 -0.00165985 -2.326 0
M  V30 7296 C 692.215 0.779678 -1.50391 0
M  V30 7297 O 693.421 0.68648 -1.66395 0
M  V30 7298 H 689.796 0.0182616 -0.751778 0
M  V30 7299 H 691.767 -0.783592 -2.87928 0
M  V30 7300 C 690.516 0.928385 -3.35077 0
M  V30 7301 H 689.839 0.336578 -3.98381 0
M  V30 7302 H 691.279 1.37509 -4.01083 0
M  V30 7303 C 689.738 2.03964 -2.68142 0
M  V30 7304 O 690.268 3.12727 -2.5212 0
M  V30 7305 N 688.474 1.81433 -2.27003 0
M  V30 7306 H 688.021 0.929807 -2.40234 0
M  V30 7307 H 687.979 2.55973 -1.82552 0
M  V30 7308 N 691.751 1.51645 -0.429126 0
M  V30 7309 C 692.683 2.25279 0.422124 0
M  V30 7310 C 693.696 1.28986 0.993299 0
M  V30 7311 O 694.885 1.54797 0.888836 0
M  V30 7312 C 691.985 2.98666 1.60162 0
M  V30 7313 C 691.158 4.2199 1.15078 0
M  V30 7314 C 690.217 4.78028 2.19946 0
M  V30 7315 O 689.243 5.40084 1.79716 0
M  V30 7316 N 690.445 4.61342 3.5234 0
M  V30 7317 H 693.21 2.98971 -0.208931 0
M  V30 7318 H 690.771 1.59838 -0.257568 0
M  V30 7319 H 692.763 3.33044 2.29922 0
M  V30 7320 H 691.333 2.28036 2.13818 0
M  V30 7321 H 690.553 3.932 0.280552 0
M  V30 7322 H 691.841 5.02037 0.826831 0
M  V30 7323 H 691.239 4.11894 3.87763 0
M  V30 7324 H 689.796 5.00104 4.18019 0
M  V30 7325 N 693.229 0.160201 1.56784 0
M  V30 7326 C 694.161 -0.80564 2.14574 0
M  V30 7327 C 695.174 -1.20154 1.09849 0
M  V30 7328 O 696.363 -1.14333 1.37078 0
M  V30 7329 C 693.463 -2.09434 2.6644 0
M  V30 7330 C 692.636 -1.86375 3.95706 0
M  V30 7331 C 691.695 -2.99358 4.32749 0
M  V30 7332 O 690.721 -2.70475 5.00831 0
M  V30 7333 N 691.923 -4.26867 3.93402 0
M  V30 7334 H 694.688 -0.311644 2.98075 0
M  V30 7335 H 692.249 -0.0229465 1.61884 0
M  V30 7336 H 694.241 -2.84091 2.88226 0
M  V30 7337 H 692.811 -2.50057 1.8759 0
M  V30 7338 H 692.031 -0.956821 3.82412 0
M  V30 7339 H 693.319 -1.68322 4.80151 0
M  V30 7340 H 692.717 -4.53197 3.38569 0
M  V30 7341 H 691.274 -4.98263 4.20211 0
M  V30 7342 N 694.707 -1.5719 -0.113559 0
M  V30 7343 C 695.954 -1.85138 -0.820382 0
M  V30 7344 C 696.282 -0.74608 -1.79622 0
M  V30 7345 O 695.537 0.262077 -1.93937 0
M  V30 7346 C 695.836 -3.19593 -1.59984 0
M  V30 7347 C 695.502 -4.44315 -0.767809 0
M  V30 7348 C 694.164 -4.78179 -0.538379 0
M  V30 7349 C 696.516 -5.2086 -0.188203 0
M  V30 7350 C 693.844 -5.86028 0.28082 0
M  V30 7351 C 696.196 -6.29572 0.618217 0
M  V30 7352 C 694.86 -6.61964 0.857912 0
M  V30 7353 H 694.13 -0.677467 -0.300199 0
M  V30 7354 H 696.777 -1.91322 -0.0825443 0
M  V30 7355 H 695.082 -3.0901 -2.40874 0
M  V30 7356 H 696.779 -3.3844 -2.1508 0
M  V30 7357 H 693.369 -4.17786 -0.956724 0
M  V30 7358 H 697.553 -4.95045 -0.352658 0
M  V30 7359 H 692.809 -6.09547 0.475693 0
M  V30 7360 H 696.983 -6.88064 1.0743 0
M  V30 7361 H 694.61 -7.45365 1.49451 0
M  V30 7362 N 696.185 0.383891 -1.52853 0
M  V30 7363 C 697.115 1.47559 -1.80965 0
M  V30 7364 C 698.096 1.5669 -0.661986 0
M  V30 7365 O 699.281 1.71556 -0.910072 0
M  V30 7366 C 696.411 2.85114 -1.98312 0
M  V30 7367 C 695.365 2.9082 -3.14019 0
M  V30 7368 C 694.691 4.30873 -3.16627 0
M  V30 7369 C 695.991 2.60001 -4.52986 0
M  V30 7370 H 697.685 1.24283 -2.72386 0
M  V30 7371 H 695.231 0.596445 -1.31067 0
M  V30 7372 H 697.184 3.61496 -2.16561 0
M  V30 7373 H 695.908 3.09738 -1.03585 0
M  V30 7374 H 694.567 2.16886 -2.9556 0
M  V30 7375 H 694.215 4.52545 -2.19573 0
M  V30 7376 H 693.915 4.3561 -3.94357 0
M  V30 7377 H 695.439 5.09154 -3.37038 0
M  V30 7378 H 696.853 3.261 -4.71521 0
M  V30 7379 H 695.25 2.76081 -5.32822 0
M  V30 7380 H 696.32 1.5532 -4.59351 0
M  V30 7381 N 697.663 1.43903 0.642637 0
M  V30 7382 C 698.626 1.49538 1.73698 0
M  V30 7383 C 699.626 0.378776 1.56275 0
M  V30 7384 O 700.816 0.64095 1.6198 0
M  V30 7385 C 697.948 1.35821 3.12675 0
M  V30 7386 H 699.141 2.47008 1.70079 0
M  V30 7387 H 696.694 1.30824 0.85526 0
M  V30 7388 H 697.429 0.393994 3.21898 0
M  V30 7389 H 697.214 2.16776 3.26727 0
M  V30 7390 H 698.704 1.4272 3.92455 0
M  V30 7391 N 699.141 -0.881989 1.30609 0
M  V30 7392 C 700.389 -1.63082 1.19368 0
M  V30 7393 C 700.71 -1.93376 -0.251147 0
M  V30 7394 O 699.98 -1.5723 -1.16857 0
M  V30 7395 H 698.56 -0.604542 0.438791 0
M  V30 7396 H 701.222 -1.05658 1.63776 0
M  V30 7397 H 700.318 -2.57966 1.7567 0
M  V30 7398 N 700.619 -1.13374 -1.09472 0
M  V30 7399 C 701.847 -0.918351 -1.85402 0
M  V30 7400 C 702.262 0.53281 -1.81126 0
M  V30 7401 O 701.619 1.36879 -1.20708 0
M  V30 7402 C 701.67 -1.39743 -3.33398 0
M  V30 7403 O 701.391 -2.79172 -3.37631 0
M  V30 7404 C 702.892 -1.22042 -4.2617 0
M  V30 7405 H 700.112 -0.327511 -0.585643 0
M  V30 7406 H 702.656 -1.50617 -1.38328 0
M  V30 7407 H 700.811 -0.852619 -3.77901 0
M  V30 7408 H 701.225 -3.00428 -4.29934 0
M  V30 7409 H 702.699 -1.60438 -5.2817 0
M  V30 7410 H 703.176 -0.162047 -4.38901 0
M  V30 7411 H 703.782 -1.75323 -3.87482 0
M  V30 7412 N 702.098 1.27442 -0.927168 0
M  V30 7413 C 703.344 1.94679 -0.568164 0
M  V30 7414 C 703.677 1.72697 0.888219 0
M  V30 7415 O 702.952 1.05573 1.63354 0
M  V30 7416 C 703.235 3.4882 -0.894253 0
M  V30 7417 C 703.088 3.80146 -2.40435 0
M  V30 7418 C 704.407 4.38281 -0.399766 0
M  V30 7419 H 701.526 0.707071 -0.207892 0
M  V30 7420 H 704.168 1.50568 -1.15885 0
M  V30 7421 H 702.318 3.86522 -0.391566 0
M  V30 7422 H 703.99 3.52238 -2.97869 0
M  V30 7423 H 702.233 3.26716 -2.85375 0
M  V30 7424 H 702.904 4.87835 -2.58304 0
M  V30 7425 H 705.38 4.07726 -0.83058 0
M  V30 7426 H 704.256 5.44955 -0.656885 0
M  V30 7427 H 704.517 4.36521 0.700153 0
M  V30 7428 N 703.576 0.692616 1.41565 0
M  V30 7429 C 704.853 0.150496 1.9502 0
M  V30 7430 C 705.233 -1.33881 1.63215 0
M  V30 7431 O 704.581 -2.08378 0.937598 0
M  V30 7432 C 704.791 0.438636 3.46233 0
M  V30 7433 C 706.139 0.364777 4.2303 0
M  V30 7434 O 707.163 0.373383 3.54238 0
M  V30 7435 O 706.022 0.32234 5.45549 0
M  V30 7436 H 703.116 0.0132454 0.826894 0
M  V30 7437 H 705.662 0.768574 1.51298 0
M  V30 7438 H 704.434 1.46962 3.62654 0
M  V30 7439 H 704.057 -0.210562 3.97042 0
M  V30 7440 N 705.054 -1.51416 0.437162 0
M  V30 7441 C 706.282 -2.06503 -0.128045 0
M  V30 7442 C 706.697 -1.30461 -1.36475 0
M  V30 7443 O 706.054 -0.364127 -1.78831 0
M  V30 7444 C 706.105 -3.58683 -0.450437 0
M  V30 7445 O 705.826 -4.31853 0.737186 0
M  V30 7446 C 707.327 -4.30284 -1.06633 0
M  V30 7447 H 704.547 -0.670952 -0.00800269 0
M  V30 7448 H 707.091 -1.94996 0.616193 0
M  V30 7449 H 705.246 -3.70106 -1.14457 0
M  V30 7450 H 705.66 -5.22467 0.461347 0
M  V30 7451 H 707.134 -5.37848 -1.24191 0
M  V30 7452 H 707.611 -3.88564 -2.0473 0
M  V30 7453 H 708.217 -4.23304 -0.411585 0
M  V30 7454 N 706.532 -0.168513 -1.56696 0
M  V30 7455 C 707.464 0.794249 -2.14998 0
M  V30 7456 C 708.477 1.1957 -1.10485 0
M  V30 7457 O 709.666 1.13604 -1.37682 0
M  V30 7458 C 706.766 2.08018 -2.67547 0
M  V30 7459 C 705.939 1.84274 -3.96689 0
M  V30 7460 C 704.998 2.97059 -4.3433 0
M  V30 7461 O 704.024 2.67815 -5.02259 0
M  V30 7462 N 705.226 4.24775 -3.9566 0
M  V30 7463 H 707.991 0.295832 -2.98236 0
M  V30 7464 H 705.552 0.0143611 -1.61894 0
M  V30 7465 H 707.544 2.82559 -2.89729 0
M  V30 7466 H 706.114 2.49059 -1.88914 0
M  V30 7467 H 705.334 0.936528 -3.82914 0
M  V30 7468 H 706.622 1.65773 -4.81037 0
M  V30 7469 H 706.02 4.51395 -3.40968 0
M  V30 7470 H 704.577 4.96027 -4.22848 0
M  V30 7471 N 708.01 1.57248 0.105221 0
M  V30 7472 C 709.257 1.8557 0.810552 0
M  V30 7473 C 709.585 0.755595 1.79223 0
M  V30 7474 O 708.84 -0.251788 1.94073 0
M  V30 7475 C 709.139 3.20437 1.58287 0
M  V30 7476 C 708.805 4.44716 0.744235 0
M  V30 7477 C 707.467 4.78458 0.513013 0
M  V30 7478 C 709.819 5.20953 0.160578 0
M  V30 7479 C 707.147 5.8587 -0.311894 0
M  V30 7480 C 709.499 6.29235 -0.651596 0
M  V30 7481 C 708.163 6.615 -0.893005 0
M  V30 7482 H 707.433 0.67905 0.296602 0
M  V30 7483 H 710.08 1.91363 0.0723968 0
M  V30 7484 H 708.385 3.10283 2.39232 0
M  V30 7485 H 710.082 3.39576 2.13282 0
M  V30 7486 H 706.672 4.18287 0.934555 0
M  V30 7487 H 710.856 4.95226 0.3264 0
M  V30 7488 H 706.112 6.09286 -0.508012 0
M  V30 7489 H 710.286 6.87484 -1.11077 0
M  V30 7490 H 707.913 7.44562 -1.53401 0
M  V30 7491 N 709.488 -0.375779 1.53054 0
M  V30 7492 C 710.737 -1.11674 1.67964 0
M  V30 7493 C 711.05 -1.90755 0.432655 0
M  V30 7494 O 712.256 -2.67538 0.462109 0
M  V30 7495 C 710.712 -2.0344 2.96884 0
M  V30 7496 C 710.32 -1.29719 4.28809 0
M  V30 7497 C 712.064 -2.7759 3.2116 0
M  V30 7498 C 709.971 -2.20327 5.48826 0
M  V30 7499 H 708.901 -0.420597 0.625791 0
M  V30 7500 H 711.552 -0.378499 1.79554 0
M  V30 7501 H 709.934 -2.80953 2.79072 0
M  V30 7502 H 711.108 -0.573394 4.57219 0
M  V30 7503 H 709.423 -0.674735 4.10897 0
M  V30 7504 H 712.02 -3.4559 4.0801 0
M  V30 7505 H 712.363 -3.42399 2.36789 0
M  V30 7506 H 712.896 -2.07164 3.396 0
M  V30 7507 H 709.635 -1.60113 6.35645 0
M  V30 7508 H 709.155 -2.90585 5.2471 0
M  V30 7509 H 710.834 -2.80116 5.83219 0
M  V30 7510 N 710.966 -1.44241 -0.634997 0
M  V30 7511 C 712.243 -1.37296 -1.39317 0
M  V30 7512 C 712.623 -0.0297532 -2.11079 0
M  V30 7513 O 711.971 0.987524 -2.06059 0
M  V30 7514 C 712.181 -2.56853 -2.36279 0
M  V30 7515 C 713.529 -3.00747 -2.99728 0
M  V30 7516 O 714.553 -2.5703 -2.46605 0
M  V30 7517 O 713.412 -3.76533 -3.96087 0
M  V30 7518 H 710.506 -0.543503 -0.623325 0
M  V30 7519 H 713.052 -1.56324 -0.660376 0
M  V30 7520 H 711.824 -3.46228 -1.82324 0
M  V30 7521 H 711.447 -2.40019 -3.16981 0
M  V30 7522 N 712.444 0.87505 -1.31075 0
M  V30 7523 C 713.354 2.01441 -1.20244 0
M  V30 7524 C 714.37 1.73584 -0.120227 0
M  V30 7525 O 715.546 1.98559 -0.337063 0
M  V30 7526 C 712.611 3.34675 -0.905199 0
M  V30 7527 C 711.672 3.75889 -2.0738 0
M  V30 7528 C 710.905 5.02764 -1.79064 0
M  V30 7529 O 711.128 5.65795 -0.723318 0
M  V30 7530 O 710.062 5.40623 -2.64594 0
M  V30 7531 H 713.888 2.13509 -2.1598 0
M  V30 7532 H 711.473 1.00257 -1.10765 0
M  V30 7533 H 713.355 4.1458 -0.755057 0
M  V30 7534 H 712.03 3.23692 0.0221695 0
M  V30 7535 H 710.937 2.96645 -2.27931 0
M  V30 7536 H 712.27 3.91489 -2.98324 0
M  V30 7537 N 713.922 1.13953 1.08869 0
M  V30 7538 C 714.87 0.817664 2.17754 0
M  V30 7539 C 715.864 -0.202444 1.68186 0
M  V30 7540 O 717.07 -0.0590159 1.79903 0
M  V30 7541 H 713.445 0.246671 0.710392 0
M  V30 7542 H 715.416 1.74401 2.4213 0
M  V30 7543 C 714.165 0.3063 3.46348 0
M  V30 7544 H 713.488 1.08259 3.84864 0
M  V30 7545 H 714.928 0.119584 4.23831 0
M  V30 7546 C 713.387 -0.969158 3.22659 0
M  V30 7547 O 713.917 -2.04386 3.45817 0
M  V30 7548 N 712.123 -0.902516 2.7623 0
M  V30 7549 H 711.67 -0.027801 2.57585 0
M  V30 7550 H 711.628 -1.75649 2.60758 0
M  V30 7551 N 715.4 -1.26948 0.933913 0
M  V30 7552 C 716.811 -1.76058 0.621324 0
M  V30 7553 C 717.162 -1.76175 -0.863522 0
M  V30 7554 O 716.287 -1.36921 -1.67576 0
M  V30 7555 C 716.882 -3.19713 1.12111 0
M  V30 7556 C 715.441 -3.66465 0.859074 0
M  V30 7557 C 714.588 -2.46186 1.27624 0
M  V30 7558 H 717.539 -1.13127 1.11301 0
M  V30 7559 H 717.56 -3.77566 0.471608 0
M  V30 7560 H 717.072 -3.19596 2.20182 0
M  V30 7561 H 715.173 -3.72021 -0.207566 0
M  V30 7562 H 715.286 -4.55636 1.48098 0
M  V30 7563 H 713.65 -2.45042 0.694727 0
M  V30 7564 H 714.433 -2.48774 2.36572 0
M  V30 7565 N 716.879 -0.700114 -1.41195 0
M  V30 7566 C 717.789 -0.0382854 -2.34569 0
M  V30 7567 C 718.805 0.761036 -1.56474 0
M  V30 7568 O 719.981 0.697553 -1.88934 0
M  V30 7569 C 717.046 0.883522 -3.35253 0
M  V30 7570 C 716.107 0.0758957 -4.29233 0
M  V30 7571 C 715.34 0.9538 -5.25108 0
M  V30 7572 O 715.563 2.19326 -5.26547 0
M  V30 7573 O 714.497 0.401049 -6.00562 0
M  V30 7574 H 718.323 -0.808073 -2.92752 0
M  V30 7575 H 715.908 -0.460479 -1.42127 0
M  V30 7576 H 717.79 1.41199 -3.9704 0
M  V30 7577 H 716.465 1.63272 -2.79506 0
M  V30 7578 H 715.372 -0.497274 -3.7078 0
M  V30 7579 H 716.705 -0.634741 -4.8809 0
M  V30 7580 N 718.357 1.51182 -0.445186 0
M  V30 7581 C 719.287 2.30821 0.352686 0
M  V30 7582 C 720.268 1.36576 1.01395 0
M  V30 7583 O 721.453 1.65497 1.01609 0
M  V30 7584 C 718.583 3.15593 1.44976 0
M  V30 7585 C 717.537 4.1818 0.911553 0
M  V30 7586 C 716.863 4.91523 2.10497 0
M  V30 7587 C 718.163 5.22266 -0.059418 0
M  V30 7588 H 719.857 2.97771 -0.311936 0
M  V30 7589 H 717.403 1.43201 -0.151461 0
M  V30 7590 H 719.356 3.70091 2.01521 0
M  V30 7591 H 718.08 2.4648 2.14278 0
M  V30 7592 H 716.739 3.64746 0.368264 0
M  V30 7593 H 716.387 4.18906 2.78437 0
M  V30 7594 H 716.087 5.60898 1.7512 0
M  V30 7595 H 717.611 5.48847 2.6758 0
M  V30 7596 H 719.025 5.71789 0.415985 0
M  V30 7597 H 717.422 5.99213 -0.326152 0
M  V30 7598 H 718.492 4.7461 -0.993631 0
M  V30 7599 N 719.835 0.176821 1.56605 0
M  V30 7600 C 721.082 -0.466715 1.97048 0
M  V30 7601 C 721.41 -1.6288 1.06302 0
M  V30 7602 O 720.665 -1.95453 0.0982571 0
M  V30 7603 C 720.964 -0.986208 3.43524 0
M  V30 7604 C 720.63 0.0605667 4.50859 0
M  V30 7605 C 719.292 0.348242 4.79938 0
M  V30 7606 C 721.644 0.770794 5.15469 0
M  V30 7607 C 718.972 1.35144 5.70923 0
M  V30 7608 C 721.324 1.76301 6.07537 0
M  V30 7609 C 719.988 2.05808 6.3498 0
M  V30 7610 H 719.258 -0.170783 0.721051 0
M  V30 7611 H 721.905 0.269942 1.89588 0
M  V30 7612 H 720.21 -1.80079 3.47964 0
M  V30 7613 H 721.907 -1.49323 3.72161 0
M  V30 7614 H 718.497 -0.173823 4.28247 0
M  V30 7615 H 722.681 0.56176 4.9311 0
M  V30 7616 H 717.937 1.58616 5.90467 0
M  V30 7617 H 722.111 2.31868 6.56666 0
M  V30 7618 H 719.738 2.8369 7.05283 0
M  V30 7619 N 721.313 -1.57302 -0.09688 0
M  V30 7620 C 722.245 -1.98618 -1.14384 0
M  V30 7621 C 723.258 -0.888483 -1.36418 0
M  V30 7622 O 724.447 -1.16661 -1.35101 0
M  V30 7623 C 721.547 -2.28838 -2.49973 0
M  V30 7624 C 720.72 -3.60132 -2.48241 0
M  V30 7625 C 719.779 -3.7831 -3.65743 0
M  V30 7626 O 718.805 -4.50183 -3.48316 0
M  V30 7627 N 720.007 -3.18752 -4.85157 0
M  V30 7628 H 722.772 -2.8904 -0.792202 0
M  V30 7629 H 720.333 -1.59356 -0.285883 0
M  V30 7630 H 722.325 -2.38193 -3.27179 0
M  V30 7631 H 720.895 -1.44431 -2.77233 0
M  V30 7632 H 720.115 -3.61763 -1.56593 0
M  V30 7633 H 721.403 -4.46389 -2.4416 0
M  V30 7634 H 720.801 -2.60368 -5.0222 0
M  V30 7635 H 719.358 -3.33595 -5.59962 0
M  V30 7636 N 722.791 0.367657 -1.53252 0
M  V30 7637 C 723.721 1.45632 -1.8252 0
M  V30 7638 C 724.702 1.55979 -0.678568 0
M  V30 7639 O 725.887 1.70581 -0.928217 0
M  V30 7640 C 723.017 2.82994 -2.01325 0
M  V30 7641 C 721.971 2.87473 -3.17086 0
M  V30 7642 C 721.297 4.2749 -3.21179 0
M  V30 7643 C 722.597 2.55182 -4.55719 0
M  V30 7644 H 724.291 1.21387 -2.73689 0
M  V30 7645 H 721.837 0.58251 -1.31692 0
M  V30 7646 H 723.79 3.59179 -2.20383 0
M  V30 7647 H 722.514 3.08622 -1.06864 0
M  V30 7648 H 721.173 2.13739 -2.97844 0
M  V30 7649 H 720.821 4.5019 -2.24361 0
M  V30 7650 H 720.521 4.31403 -3.98955 0
M  V30 7651 H 722.045 5.0555 -3.42419 0
M  V30 7652 H 723.459 3.21081 -4.74953 0
M  V30 7653 H 721.856 2.70414 -5.3572 0
M  V30 7654 H 722.926 1.5044 -4.60973 0
M  V30 7655 N 724.269 1.44576 0.627338 0
M  V30 7656 C 725.685 1.28546 0.945938 0
M  V30 7657 C 725.885 0.224003 2.00251 0
M  V30 7658 O 724.941 -0.388817 2.49488 0
M  V30 7659 C 726.254 2.65825 1.40561 0
M  V30 7660 C 727.802 2.73566 1.52088 0
M  V30 7661 C 728.277 4.11323 2.01438 0
M  V30 7662 N 729.768 4.13519 2.08702 0
M  V30 7663 C 730.503 5.16964 2.48065 0
M  V30 7664 N 729.999 6.30768 2.86538 0
M  V30 7665 N 731.792 5.04319 2.48232 0
M  V30 7666 H 723.943 2.1228 -0.0713567 0
M  V30 7667 H 726.206 0.947503 0.0307081 0
M  V30 7668 H 725.912 3.44591 0.703539 0
M  V30 7669 H 725.786 2.92969 2.37591 0
M  V30 7670 H 728.173 1.95116 2.21391 0
M  V30 7671 H 728.254 2.50159 0.534237 0
M  V30 7672 H 727.898 4.9025 1.32729 0
M  V30 7673 H 727.828 4.32109 3.0098 0
M  V30 7674 H 730.319 3.31385 1.81638 0
M  V30 7675 H 730.632 7.0551 3.15398 0
M  V30 7676 H 728.977 6.342 2.84281 0
M  V30 7677 H 732.168 4.14465 2.17569 0
M  V30 7678 H 732.341 5.85059 2.78585 0
M  V30 7679 N 725.747 -0.868086 1.31537 0
M  V30 7680 C 727.158 -1.437 1.19195 0
M  V30 7681 C 727.509 -1.95169 -0.200842 0
M  V30 7682 O 726.634 -1.86432 -1.09872 0
M  V30 7683 C 727.229 -2.612 2.15778 0
M  V30 7684 C 725.788 -3.1413 2.07363 0
M  V30 7685 C 724.935 -1.86845 2.049 0
M  V30 7686 H 727.886 -0.676457 1.43561 0
M  V30 7687 H 727.907 -3.37948 1.74847 0
M  V30 7688 H 727.419 -2.23709 3.17137 0
M  V30 7689 H 725.52 -3.56238 1.09204 0
M  V30 7690 H 725.633 -3.76285 2.96557 0
M  V30 7691 H 723.997 -2.05886 1.49943 0
M  V30 7692 H 724.78 -1.51589 3.08019 0
M  V30 7693 N 727.225 -1.14528 -1.08264 0
M  V30 7694 C 728.188 -0.83632 -2.13397 0
M  V30 7695 C 729.188 0.159715 -1.60005 0
M  V30 7696 O 730.378 -0.0688098 -1.74064 0
M  V30 7697 C 727.51 -0.246973 -3.40004 0
M  V30 7698 H 728.703 -1.76808 -2.42237 0
M  V30 7699 H 726.256 -0.951509 -1.24 0
M  V30 7700 H 726.991 0.693436 -3.168 0
M  V30 7701 H 726.776 -0.964412 -3.80055 0
M  V30 7702 H 728.266 -0.0480679 -4.17572 0
M  V30 7703 N 728.703 1.26451 -0.940633 0
M  V30 7704 C 729.635 2.25556 -0.407104 0
M  V30 7705 C 730.648 1.55888 0.469324 0
M  V30 7706 O 731.837 1.76292 0.279858 0
M  V30 7707 C 728.937 3.36109 0.434064 0
M  V30 7708 C 728.11 4.3532 -0.426082 0
M  V30 7709 C 727.169 5.25004 0.354563 0
M  V30 7710 O 726.195 5.68684 -0.242219 0
M  V30 7711 N 727.397 5.5652 1.65123 0
M  V30 7712 H 730.162 2.7197 -1.25907 0
M  V30 7713 H 727.723 1.40212 -0.809456 0
M  V30 7714 H 729.715 3.93059 0.963684 0
M  V30 7715 H 728.285 2.89194 1.18683 0
M  V30 7716 H 727.505 3.77449 -1.13692 0
M  V30 7717 H 728.793 4.986 -1.01366 0
M  V30 7718 H 728.191 5.22912 2.15822 0
M  V30 7719 H 726.748 6.16115 2.12711 0
M  V30 7720 N 730.181 0.707592 1.40822 0
M  V30 7721 C 731.129 0.0386643 2.32568 0
M  V30 7722 C 732.123 -0.755653 1.51612 0
M  V30 7723 O 733.329 -0.659921 1.67467 0
M  V30 7724 H 729.704 -0.00629912 0.751974 0
M  V30 7725 H 731.675 0.8293 2.86645 0
M  V30 7726 C 730.424 -0.87496 3.36511 0
M  V30 7727 H 729.747 -0.273157 3.98866 0
M  V30 7728 H 731.187 -1.31111 4.03219 0
M  V30 7729 C 729.646 -1.99672 2.71353 0
M  V30 7730 O 730.176 -3.08676 2.57064 0
M  V30 7731 N 728.382 -1.77799 2.29861 0
M  V30 7732 H 727.929 -0.89147 2.41683 0
M  V30 7733 H 727.887 -2.53036 1.86601 0
M  V30 7734 N 731.66 -1.50943 0.453197 0
M  V30 7735 C 733.076 -1.59245 0.106342 0
M  V30 7736 C 733.276 -1.46287 -1.38572 0
M  V30 7737 O 732.332 -1.31219 -2.15726 0
M  V30 7738 C 733.645 -2.93797 0.640595 0
M  V30 7739 C 735.193 -3.07148 0.602435 0
M  V30 7740 C 735.668 -4.44247 1.11393 0
M  V30 7741 N 737.159 -4.50611 1.07258 0
M  V30 7742 C 737.894 -5.55049 1.43905 0
M  V30 7743 N 737.39 -6.66828 1.87914 0
M  V30 7744 N 739.183 -5.45494 1.35621 0
M  V30 7745 H 731.334 -1.5761 1.42382 0
M  V30 7746 H 733.597 -0.74384 0.587713 0
M  V30 7747 H 733.303 -3.087 1.68515 0
M  V30 7748 H 733.177 -3.77127 0.0742272 0
M  V30 7749 H 735.564 -2.91903 -0.433171 0
M  V30 7750 H 735.645 -2.25619 1.20539 0
M  V30 7751 H 735.289 -4.60239 2.14808 0
M  V30 7752 H 735.219 -5.2434 0.487353 0
M  V30 7753 H 737.71 -3.70391 0.749585 0
M  V30 7754 H 738.023 -7.42558 2.14072 0
M  V30 7755 H 736.368 -6.67995 1.91853 0
M  V30 7756 H 739.559 -4.57053 1.01093 0
M  V30 7757 H 739.732 -6.2677 1.64508 0
M  V30 7758 N 733.138 -0.185124 -1.56509 0
M  V30 7759 C 734.101 0.72591 -2.17401 0
M  V30 7760 C 735.101 1.14819 -1.12575 0
M  V30 7761 O 736.291 1.0629 -1.38015 0
M  V30 7762 C 733.423 1.98979 -2.76803 0
M  V30 7763 H 734.616 0.195588 -2.99262 0
M  V30 7764 H 732.169 0.0644772 -1.56167 0
M  V30 7765 H 732.904 2.56287 -1.98714 0
M  V30 7766 H 732.689 1.69583 -3.53531 0
M  V30 7767 H 734.179 2.63966 -3.23592 0
M  V30 7768 N 734.616 1.57351 0.0885366 0
M  V30 7769 C 735.548 1.99221 1.13329 0
M  V30 7770 C 736.561 0.895705 1.35945 0
M  V30 7771 O 737.75 1.17376 1.34481 0
M  V30 7772 C 734.85 2.3016 2.48756 0
M  V30 7773 C 734.023 3.61444 2.46327 0
M  V30 7774 C 733.082 3.80244 3.63732 0
M  V30 7775 O 732.108 4.52024 3.45924 0
M  V30 7776 N 733.31 3.2132 4.8346 0
M  V30 7777 H 736.075 2.89456 0.776862 0
M  V30 7778 H 733.636 1.59505 0.277428 0
M  V30 7779 H 735.628 2.39925 3.25911 0
M  V30 7780 H 734.198 1.459 2.76464 0
M  V30 7781 H 733.418 3.62588 1.54673 0
M  V30 7782 H 734.706 4.47678 2.41789 0
M  V30 7783 H 734.104 2.63028 5.00832 0
M  V30 7784 H 732.661 3.3656 5.58185 0
M  V30 7785 N 736.094 -0.359525 1.53444 0
M  V30 7786 C 737.041 -1.44073 1.8031 0
M  V30 7787 C 738.011 -1.52946 0.647811 0
M  V30 7788 O 739.196 -1.68739 0.890614 0
M  V30 7789 C 736.336 -2.80941 2.00416 0
M  V30 7790 C 735.449 -2.80986 3.28132 0
M  V30 7791 C 734.584 -4.09468 3.38393 0
M  V30 7792 C 733.623 -4.03679 4.60119 0
M  V30 7793 N 732.76 -5.23821 4.675 0
M  V30 7794 H 737.6 -1.20464 2.72566 0
M  V30 7795 H 735.137 -0.583859 1.35017 0
M  V30 7796 H 737.095 -3.60459 2.1006 0
M  V30 7797 H 735.725 -3.02936 1.11489 0
M  V30 7798 H 734.777 -1.93666 3.27411 0
M  V30 7799 H 736.089 -2.72583 4.17732 0
M  V30 7800 H 735.243 -4.97404 3.47382 0
M  V30 7801 H 733.982 -4.20632 2.4682 0
M  V30 7802 H 732.987 -3.14129 4.51224 0
M  V30 7803 H 734.212 -3.94112 5.5304 0
M  V30 7804 H 732.158 -5.35559 3.7883 0
M  V30 7805 H 732.075 -5.17611 5.51013 0
M  V30 7806 H 733.343 -6.13572 4.8078 0
M  V30 7807 N 737.572 -1.44907 -0.619662 0
M  V30 7808 C 738.502 -1.55488 -1.742 0
M  V30 7809 C 739.483 -0.407143 -1.65156 0
M  V30 7810 O 740.668 -0.628743 -1.8374 0
M  V30 7811 C 737.798 -1.5097 -3.1277 0
M  V30 7812 C 736.752 -2.64337 -3.36615 0
M  V30 7813 C 736.078 -2.44872 -4.75333 0
M  V30 7814 C 737.378 -4.06423 -3.28051 0
M  V30 7815 H 739.072 -2.49432 -1.65602 0
M  V30 7816 H 736.618 -1.20047 -0.795281 0
M  V30 7817 H 738.571 -1.56971 -3.91073 0
M  V30 7818 H 737.295 -0.535486 -3.2218 0
M  V30 7819 H 735.954 -2.57744 -2.60698 0
M  V30 7820 H 735.602 -1.45617 -4.81461 0
M  V30 7821 H 735.302 -3.20888 -4.92244 0
M  V30 7822 H 736.826 -2.52709 -5.55851 0
M  V30 7823 H 738.24 -4.14324 -3.96243 0
M  V30 7824 H 736.637 -4.82733 -3.56495 0
M  V30 7825 H 737.707 -4.29183 -2.25676 0
M  V30 7826 N 739.05 0.861098 -1.31996 0
M  V30 7827 C 739.98 1.98482 -1.22993 0
M  V30 7828 C 740.961 1.6971 -0.115168 0
M  V30 7829 O 742.146 1.91849 -0.30126 0
M  V30 7830 C 739.276 3.34179 -0.945615 0
M  V30 7831 C 738.23 3.77284 -2.02091 0
M  V30 7832 C 737.556 5.1054 -1.58912 0
M  V30 7833 C 738.856 3.93439 -3.43515 0
M  V30 7834 H 740.55 2.06271 -2.17008 0
M  V30 7835 H 738.096 0.991043 -1.04472 0
M  V30 7836 H 740.049 4.12338 -0.869206 0
M  V30 7837 H 738.773 3.26586 0.0301849 0
M  V30 7838 H 737.432 3.01371 -2.08737 0
M  V30 7839 H 737.08 4.99397 -0.600942 0
M  V30 7840 H 736.78 5.40352 -2.30854 0
M  V30 7841 H 738.304 5.91199 -1.52696 0
M  V30 7842 H 739.718 4.6197 -3.39495 0
M  V30 7843 H 738.115 4.34661 -4.13751 0
M  V30 7844 H 739.185 2.96548 -3.8365 0
M  V30 7845 N 740.528 1.15101 1.07655 0
M  V30 7846 C 741.478 0.813448 2.12995 0
M  V30 7847 C 742.462 -0.200899 1.59641 0
M  V30 7848 O 743.654 -0.00209918 1.77 0
M  V30 7849 C 740.783 0.301078 3.41977 0
M  V30 7850 C 739.869 1.3454 4.02194 0
M  V30 7851 N 740.26 2.55181 4.36711 0
M  V30 7852 C 738.558 1.19742 4.29625 0
M  V30 7853 C 739.259 3.22094 4.84387 0
M  V30 7854 N 738.235 2.49486 4.82968 0
M  V30 7855 H 742.037 1.73105 2.37511 0
M  V30 7856 H 739.551 1.03601 1.25063 0
M  V30 7857 H 741.548 0.040914 4.1688 0
M  V30 7858 H 740.208 -0.610629 3.18907 0
M  V30 7859 H 741.219 2.92349 4.27496 0
M  V30 7860 H 737.896 0.345353 4.16069 0
M  V30 7861 H 739.286 4.24996 5.20411 0
M  V30 7862 N 742.006 -1.2595 0.947325 0
M  V30 7863 C 743.236 -1.97258 0.614235 0
M  V30 7864 C 743.644 -1.70682 -0.816355 0
M  V30 7865 O 742.987 -0.97527 -1.55673 0
M  V30 7866 C 743.049 -3.50845 0.784081 0
M  V30 7867 C 742.713 -4.01084 2.19045 0
M  V30 7868 C 743.71 -4.12347 3.16648 0
M  V30 7869 C 741.395 -4.34936 2.51268 0
M  V30 7870 C 743.389 -4.56766 4.44572 0
M  V30 7871 C 741.076 -4.79043 3.79422 0
M  V30 7872 C 742.074 -4.89919 4.75887 0
M  V30 7873 O 741.762 -5.3305 6.01758 0
M  V30 7874 H 741.494 -0.635738 0.22981 0
M  V30 7875 H 744.048 -1.61268 1.27207 0
M  V30 7876 H 742.278 -3.86638 0.069101 0
M  V30 7877 H 743.967 -4.03363 0.453135 0
M  V30 7878 H 744.733 -3.86432 2.93079 0
M  V30 7879 H 740.612 -4.25702 1.76916 0
M  V30 7880 H 744.156 -4.6517 5.19868 0
M  V30 7881 H 740.053 -5.04402 4.02802 0
M  V30 7882 H 740.821 -5.51255 6.05029 0
M  V30 7883 N 743.484 -0.715051 -1.40445 0
M  V30 7884 C 744.414 -0.0768699 -2.33373 0
M  V30 7885 C 745.395 0.746109 -1.52863 0
M  V30 7886 O 746.58 0.695142 -1.81332 0
M  V30 7887 C 743.71 0.846014 -3.36838 0
M  V30 7888 C 742.664 0.128694 -4.27806 0
M  V30 7889 C 741.99 1.16726 -5.21804 0
M  V30 7890 C 743.29 -1.01679 -5.12307 0
M  V30 7891 H 744.984 -0.853061 -2.8699 0
M  V30 7892 H 742.53 -0.41167 -1.3799 0
M  V30 7893 H 744.483 1.30185 -4.00786 0
M  V30 7894 H 743.207 1.6541 -2.81615 0
M  V30 7895 H 741.866 -0.307314 -3.6531 0
M  V30 7896 H 741.514 1.96838 -4.62887 0
M  V30 7897 H 741.214 0.692188 -5.83509 0
M  V30 7898 H 742.738 1.62321 -5.88629 0
M  V30 7899 H 744.152 -0.640337 -5.69713 0
M  V30 7900 H 742.549 -1.4202 -5.83053 0
M  V30 7901 H 743.619 -1.84769 -4.48317 0
M  V30 7902 N 744.962 1.50701 -0.461195 0
M  V30 7903 C 746.21 2.01867 0.0970051 0
M  V30 7904 C 746.531 1.34591 1.41104 0
M  V30 7905 O 745.801 0.488041 1.89723 0
M  V30 7906 H 744.381 0.74599 0.0388392 0
M  V30 7907 H 747.043 1.85129 -0.609357 0
M  V30 7908 H 746.139 3.11051 0.255688 0
M  V30 7909 N 746.441 0.193421 1.56409 0
M  V30 7910 C 747.391 -0.74089 2.15627 0
M  V30 7911 C 748.375 -1.17747 1.09656 0
M  V30 7912 O 749.567 -1.13615 1.35723 0
M  V30 7913 C 746.696 -1.96091 2.81786 0
M  V30 7914 C 745.782 -1.54531 3.94944 0
M  V30 7915 N 746.173 -0.840569 4.98767 0
M  V30 7916 C 744.471 -1.83473 4.06514 0
M  V30 7917 C 745.172 -0.632571 5.7825 0
M  V30 7918 N 744.148 -1.18078 5.30621 0
M  V30 7919 H 747.95 -0.193718 2.93261 0
M  V30 7920 H 745.464 -0.00643211 1.62399 0
M  V30 7921 H 747.461 -2.64071 3.22602 0
M  V30 7922 H 746.121 -2.51282 2.05639 0
M  V30 7923 H 747.132 -0.496218 5.15517 0
M  V30 7924 H 743.809 -2.40184 3.41493 0
M  V30 7925 H 745.199 -0.0736433 6.7186 0
M  V30 7926 N 747.919 -1.57396 -0.0801906 0
M  V30 7927 C 749.165 -1.87113 -0.782083 0
M  V30 7928 C 749.498 -0.78458 -1.77646 0
M  V30 7929 O 748.773 0.205993 -1.93406 0
M  V30 7930 C 749.056 -3.27483 -1.49756 0
M  V30 7931 C 748.909 -4.46782 -0.520171 0
M  V30 7932 C 750.228 -3.65965 -2.44454 0
M  V30 7933 H 747.347 -0.680559 -0.282858 0
M  V30 7934 H 749.989 -1.89946 -0.0454139 0
M  V30 7935 H 748.139 -3.25199 -2.12551 0
M  V30 7936 H 749.811 -4.61187 0.101919 0
M  V30 7937 H 748.054 -4.33485 0.165219 0
M  V30 7938 H 748.725 -5.41761 -1.05824 0
M  V30 7939 H 751.201 -3.69289 -1.91742 0
M  V30 7940 H 750.077 -4.65086 -2.91524 0
M  V30 7941 H 750.338 -2.95446 -3.28883 0
M  V30 7942 N 749.397 0.351382 -1.53633 0
M  V30 7943 C 750.33 1.45407 -1.75875 0
M  V30 7944 C 751.308 1.50822 -0.607566 0
M  V30 7945 O 752.492 1.68658 -0.841818 0
M  V30 7946 C 749.619 2.8369 -1.85034 0
M  V30 7947 C 748.665 2.95935 -3.07123 0
M  V30 7948 S 749.498 2.63215 -4.66345 0
M  V30 7949 C 750.654 4.03622 -4.78373 0
M  V30 7950 H 750.887 1.26322 -2.69128 0
M  V30 7951 H 748.42 0.546581 -1.44402 0
M  V30 7952 H 750.378 3.6336 -1.90996 0
M  V30 7953 H 749.039 3.00076 -0.928074 0
M  V30 7954 H 748.232 3.97243 -3.10183 0
M  V30 7955 H 747.834 2.24205 -2.99346 0
M  V30 7956 H 750.126 4.98046 -4.593 0
M  V30 7957 H 751.069 4.05559 -5.80454 0
M  V30 7958 H 751.477 3.91282 -4.06889 0
M  V30 7959 N 750.875 1.45233 0.611969 0
M  V30 7960 C 752.121 1.49242 1.37312 0
M  V30 7961 C 752.454 0.131963 1.93751 0
M  V30 7962 O 751.729 -0.852999 1.74798 0
M  V30 7963 C 752.012 2.56811 2.52428 0
M  V30 7964 C 751.865 4.02284 2.01215 0
M  V30 7965 C 753.184 2.60705 3.54572 0
M  V30 7966 H 750.303 0.54336 0.497925 0
M  V30 7967 H 752.945 1.77019 0.690242 0
M  V30 7968 H 751.095 2.33256 3.10683 0
M  V30 7969 H 752.767 4.37035 1.47643 0
M  V30 7970 H 751.01 4.1315 1.32248 0
M  V30 7971 H 751.681 4.7323 2.84178 0
M  V30 7972 H 754.157 2.81799 3.06151 0
M  V30 7973 H 753.033 3.37841 4.32614 0
M  V30 7974 H 753.294 1.65627 4.09903 0
M  V30 7975 N 752.353 -0.854086 1.3245 0
M  V30 7976 C 753.301 -1.98411 1.21391 0
M  V30 7977 C 754.295 -1.68984 0.118586 0
M  V30 7978 O 755.501 -1.77784 0.281549 0
M  V30 7979 H 751.876 -0.651077 0.376301 0
M  V30 7980 H 753.847 -2.04867 2.16961 0
M  V30 7981 C 752.596 -3.34345 0.954407 0
M  V30 7982 H 751.919 -3.57518 1.78944 0
M  V30 7983 H 753.359 -4.13959 0.917269 0
M  V30 7984 C 751.818 -3.35151 -0.342838 0
M  V30 7985 O 752.348 -3.78174 -1.35452 0
M  V30 7986 N 750.554 -2.88298 -0.365012 0
M  V30 7987 H 750.101 -2.53481 0.4588 0
M  V30 7988 H 750.059 -2.8922 -1.23284 0
M  V30 7989 N 753.831 -1.1567 -1.07043 0
M  V30 7990 C 755.079 -0.931673 -1.79344 0
M  V30 7991 C 755.4 0.542421 -1.87304 0
M  V30 7992 O 754.67 1.39418 -1.37621 0
M  V30 7993 H 753.25 -0.34171 -0.664262 0
M  V30 7994 H 755.912 -1.45795 -1.29344 0
M  V30 7995 H 755.008 -1.34379 -2.81689 0
M  V30 7996 N 755.309 1.25446 -0.953992 0
M  V30 7997 C 756.72 1.75047 -0.649255 0
M  V30 7998 C 757.071 1.77527 0.835385 0
M  V30 7999 O 756.196 1.39569 1.65377 0
M  V30 8000 C 756.791 3.17889 -1.17183 0
M  V30 8001 C 755.35 3.65052 -0.917267 0
M  V30 8002 C 754.497 2.44124 -1.31525 0
M  V30 8003 H 757.448 1.11342 -1.13087 0
M  V30 8004 H 757.469 3.76768 -0.531616 0
M  V30 8005 H 756.981 3.16052 -2.25239 0
M  V30 8006 H 755.082 3.72305 0.148354 0
M  V30 8007 H 755.195 4.53222 -1.55328 0
M  V30 8008 H 753.559 2.43906 -0.733624 0
M  V30 8009 H 754.342 2.44979 -2.405 0
M  V30 8010 N 756.787 0.722489 1.40064 0
M  V30 8011 C 758.015 0.274838 2.05066 0
M  V30 8012 C 758.43 -1.08586 1.54449 0
M  V30 8013 O 757.787 -1.68375 0.704003 0
M  V30 8014 C 757.838 0.253673 3.60609 0
M  V30 8015 O 757.559 1.56064 4.0936 0
M  V30 8016 C 759.06 -0.211684 4.42794 0
M  V30 8017 H 756.28 0.12226 0.659768 0
M  V30 8018 H 758.824 0.982632 1.79345 0
M  V30 8019 H 756.979 -0.405137 3.85276 0
M  V30 8020 H 757.393 1.46576 5.03603 0
M  V30 8021 H 758.867 -0.175341 5.51721 0
M  V30 8022 H 759.344 -1.25493 4.2089 0
M  V30 8023 H 759.95 0.4171 4.2325 0
M  V30 8024 N 758.265 -1.50454 0.469181 0
M  V30 8025 C 759.493 -2.06729 -0.0842134 0
M  V30 8026 C 759.908 -1.33326 -1.33677 0
M  V30 8027 O 759.265 -0.401977 -1.78018 0
M  V30 8028 C 759.316 -3.59557 -0.374253 0
M  V30 8029 O 759.037 -4.30192 0.828622 0
M  V30 8030 C 760.538 -4.32449 -0.974824 0
M  V30 8031 H 757.758 -0.670971 0.006231 0
M  V30 8032 H 760.302 -1.93645 0.657415 0
M  V30 8033 H 758.457 -3.7245 -1.06581 0
M  V30 8034 H 758.871 -5.21371 0.572066 0
M  V30 8035 H 760.345 -5.40361 -1.12755 0
M  V30 8036 H 760.822 -3.92819 -1.96442 0
M  V30 8037 H 761.428 -4.24082 -0.321703 0
M  V30 8038 N 759.743 -0.201713 -1.56304 0
M  V30 8039 C 761.154 0.309711 -1.84113 0
M  V30 8040 C 761.505 1.60912 -1.12258 0
M  V30 8041 O 760.63 2.12937 -0.385587 0
M  V30 8042 C 761.225 0.568706 -3.33993 0
M  V30 8043 C 759.784 1.02448 -3.6219 0
M  V30 8044 C 758.931 0.0766842 -2.77194 0
M  V30 8045 H 761.882 -0.425356 -1.52893 0
M  V30 8046 H 761.903 1.41721 -3.53122 0
M  V30 8047 H 761.415 -0.37719 -3.86263 0
M  V30 8048 H 759.516 1.98443 -3.15359 0
M  V30 8049 H 759.629 0.912619 -4.70328 0
M  V30 8050 H 757.993 0.579809 -2.48013 0
M  V30 8051 H 758.776 -0.863774 -3.32256 0
M  V30 8052 N 761.222 1.57436 0.0718424 0
M  V30 8053 C 762.471 1.86431 0.769826 0
M  V30 8054 C 762.784 0.794355 1.78744 0
M  V30 8055 O 763.99 0.972148 2.53499 0
M  V30 8056 C 762.446 3.307 1.42006 0
M  V30 8057 C 762.054 4.45824 0.441017 0
M  V30 8058 C 763.798 3.68894 2.10041 0
M  V30 8059 C 761.705 5.81134 1.09717 0
M  V30 8060 H 760.635 0.695474 0.291259 0
M  V30 8061 H 763.286 1.83485 0.0231224 0
M  V30 8062 H 761.668 3.28257 2.21502 0
M  V30 8063 H 762.842 4.59659 -0.32413 0
M  V30 8064 H 761.157 4.16181 -0.134886 0
M  V30 8065 H 763.754 4.67281 2.59908 0
M  V30 8066 H 764.097 2.98692 2.89981 0
M  V30 8067 H 764.63 3.73326 1.37376 0
M  V30 8068 H 761.369 6.54628 0.338095 0
M  V30 8069 H 760.889 5.711 1.83317 0
M  V30 8070 H 762.568 6.26468 1.617 0
M  V30 8071 N 762.7 -0.34323 1.53817 0
M  V30 8072 C 764.111 -0.918823 1.62525 0
M  V30 8073 C 764.462 -1.89542 0.506765 0
M  V30 8074 O 763.587 -2.13326 -0.363441 0
M  V30 8075 C 764.182 -1.67326 2.94597 0
M  V30 8076 C 762.741 -2.19786 3.05567 0
M  V30 8077 C 761.888 -1.01708 2.57974 0
M  V30 8078 H 764.839 -0.121358 1.58235 0
M  V30 8079 H 764.86 -2.53615 2.83654 0
M  V30 8080 H 764.372 -0.962223 3.75983 0
M  V30 8081 H 762.473 -2.94065 2.28816 0
M  V30 8082 H 762.586 -2.46135 4.1104 0
M  V30 8083 H 760.95 -1.39058 2.13389 0
M  V30 8084 H 761.733 -0.320671 3.41799 0
M  V30 8085 N 764.178 -1.45556 -0.604258 0
M  V30 8086 C 765.424 -1.49968 -1.36519 0
M  V30 8087 C 765.757 -0.142236 -1.93678 0
M  V30 8088 O 765.032 0.843717 -1.75247 0
M  V30 8089 C 765.315 -2.58146 -2.51063 0
M  V30 8090 C 765.168 -4.03346 -1.99078 0
M  V30 8091 C 766.487 -2.62581 -3.53184 0
M  V30 8092 H 763.606 -0.545993 -0.495036 0
M  V30 8093 H 766.248 -1.77382 -0.680845 0
M  V30 8094 H 764.398 -2.34901 -3.09441 0
M  V30 8095 H 766.07 -4.37811 -1.45323 0
M  V30 8096 H 764.313 -4.13845 -1.30055 0
M  V30 8097 H 764.984 -4.74731 -2.81664 0
M  V30 8098 H 767.46 -2.83419 -3.04652 0
M  V30 8099 H 766.336 -3.40131 -4.30816 0
M  V30 8100 H 766.597 -1.67798 -4.09019 0
M  V30 8101 N 765.656 0.84705 -1.32902 0
M  V30 8102 C 766.603 1.95624 -1.22473 0
M  V30 8103 C 767.573 1.65767 -0.105178 0
M  V30 8104 O 768.758 1.88704 -0.282042 0
M  V30 8105 C 765.898 3.31434 -0.961542 0
M  V30 8106 C 765.011 3.73741 -2.1666 0
M  V30 8107 C 764.146 4.98379 -1.83825 0
M  V30 8108 C 763.185 5.33199 -3.00609 0
M  V30 8109 N 762.322 6.49014 -2.67816 0
M  V30 8110 H 767.162 2.03875 -2.17345 0
M  V30 8111 H 764.699 0.997764 -1.08088 0
M  V30 8112 H 766.657 4.09663 -0.789411 0
M  V30 8113 H 765.287 3.22762 -0.0495938 0
M  V30 8114 H 764.339 2.91102 -2.44875 0
M  V30 8115 H 765.651 3.95462 -3.03993 0
M  V30 8116 H 764.805 5.84336 -1.63208 0
M  V30 8117 H 763.544 4.78611 -0.937172 0
M  V30 8118 H 762.549 4.4575 -3.21849 0
M  V30 8119 H 763.774 5.5492 -3.9146 0
M  V30 8120 H 761.72 6.30748 -1.80258 0
M  V30 8121 H 761.637 6.7079 -3.48679 0
M  V30 8122 H 762.905 7.38103 -2.50647 0
M  V30 8123 N 767.134 1.16236 1.06428 0
M  V30 8124 C 768.097 0.870163 2.1204 0
M  V30 8125 C 769.097 -0.134239 1.60239 0
M  V30 8126 O 770.287 0.0964932 1.73933 0
M  V30 8127 C 767.419 0.301033 3.39568 0
M  V30 8128 H 768.612 1.8064 2.39394 0
M  V30 8129 H 766.165 0.971116 1.2247 0
M  V30 8130 H 766.9 -0.642948 3.17863 0
M  V30 8131 H 766.685 1.02475 3.78472 0
M  V30 8132 H 768.175 0.114494 4.17443 0
M  V30 8133 N 768.612 -1.24939 0.960631 0
M  V30 8134 C 769.837 -1.9742 0.635608 0
M  V30 8135 C 770.262 -1.70857 -0.786737 0
M  V30 8136 O 769.62 -0.968063 -1.53291 0
M  V30 8137 C 769.668 -3.48987 0.907771 0
M  V30 8138 O 768.772 -4.12399 -0.0104053 0
M  V30 8139 H 768.113 -0.61871 0.241027 0
M  V30 8140 H 770.643 -1.58901 1.28886 0
M  V30 8141 H 770.653 -3.99334 0.836453 0
M  V30 8142 H 769.328 -3.6765 1.94439 0
M  V30 8143 H 767.905 -3.72727 0.113631 0
M  V30 8144 N 770.09 -0.729906 -1.39679 0
M  V30 8145 C 771.501 -0.346241 -1.83461 0
M  V30 8146 C 771.852 1.1215 -1.60987 0
M  V30 8147 O 770.977 1.86456 -1.09832 0
M  V30 8148 C 771.572 -0.621656 -3.33048 0
M  V30 8149 C 770.131 -0.291543 -3.75269 0
M  V30 8150 C 769.278 -0.886844 -2.62736 0
M  V30 8151 H 772.229 -0.927949 -1.28743 0
M  V30 8152 H 772.25 0.108301 -3.80346 0
M  V30 8153 H 771.762 -1.68996 -3.49373 0
M  V30 8154 H 769.863 0.771133 -3.64533 0
M  V30 8155 H 769.976 -0.770544 -4.72863 0
M  V30 8156 H 768.34 -0.313839 -2.52759 0
M  V30 8157 H 769.123 -1.95971 -2.81869 0
M  V30 8158 N 771.568 1.50203 -0.477153 0
M  V30 8159 C 772.793 2.07263 0.0754986 0
M  V30 8160 C 773.218 1.33801 1.32208 0
M  V30 8161 O 772.576 0.387482 1.77111 0
M  V30 8162 C 772.624 3.59028 0.336348 0
M  V30 8163 O 771.728 3.87339 1.4157 0
M  V30 8164 H 771.069 0.663815 -0.015662 0
M  V30 8165 H 773.599 1.93321 -0.669936 0
M  V30 8166 H 773.609 4.03927 0.575034 0
M  V30 8167 H 772.284 4.11912 -0.574551 0
M  V30 8168 H 770.861 3.54272 1.16385 0
M  V30 8169 N 773.046 0.209999 1.56195 0
M  V30 8170 C 774.457 -0.299943 1.84275 0
M  V30 8171 C 774.808 -1.60314 1.1311 0
M  V30 8172 O 773.933 -2.1273 0.396874 0
M  V30 8173 C 774.528 -0.550986 3.3429 0
M  V30 8174 C 773.087 -1.00526 3.62728 0
M  V30 8175 C 772.234 -0.0619828 2.77231 0
M  V30 8176 H 775.185 0.433458 1.52666 0
M  V30 8177 H 775.206 -1.39846 3.53869 0
M  V30 8178 H 774.718 0.397669 3.86057 0
M  V30 8179 H 772.819 -1.96768 3.16407 0
M  V30 8180 H 772.932 -0.887664 4.70805 0
M  V30 8181 H 771.296 -0.566648 2.48317 0
M  V30 8182 H 772.079 0.881383 3.31793 0
M  V30 8183 N 774.524 -1.57472 -0.0634922 0
M  V30 8184 C 775.752 -1.91887 -0.773767 0
M  V30 8185 C 776.167 -0.806733 -1.70696 0
M  V30 8186 O 775.524 0.219383 -1.81177 0
M  V30 8187 C 775.575 -3.26092 -1.56034 0
M  V30 8188 O 775.296 -4.33029 -0.66464 0
M  V30 8189 C 776.797 -3.74573 -2.37087 0
M  V30 8190 H 774.017 -0.634074 -0.219525 0
M  V30 8191 H 776.561 -2.04476 -0.0312828 0
M  V30 8192 H 774.716 -3.15004 -2.25502 0
M  V30 8193 H 775.13 -5.10291 -1.21258 0
M  V30 8194 H 776.604 -4.71084 -2.87722 0
M  V30 8195 H 777.081 -3.04003 -3.16984 0
M  V30 8196 H 777.687 -3.88631 -1.72759 0
M  V30 8197 N 776.003 0.335068 -1.53997 0
M  V30 8198 C 777.28 1.09188 -1.62288 0
M  V30 8199 C 777.66 2.0626 -0.449458 0
M  V30 8200 O 777.008 2.21596 0.557444 0
M  V30 8201 C 777.218 1.80403 -2.98757 0
M  V30 8202 C 778.566 2.33841 -3.54406 0
M  V30 8203 O 779.59 1.90487 -3.00987 0
M  V30 8204 O 778.449 3.1318 -4.47862 0
M  V30 8205 H 775.543 0.502621 -0.656736 0
M  V30 8206 H 778.089 0.33588 -1.66343 0
M  V30 8207 H 776.861 1.09732 -3.75599 0
M  V30 8208 H 776.484 2.62841 -2.9833 0
M  V30 8209 N 777.481 1.45874 0.596531 0
M  V30 8210 C 778.892 1.44798 1.17857 0
M  V30 8211 C 779.243 0.181443 1.95359 0
M  V30 8212 O 778.368 -0.716336 2.042 0
M  V30 8213 C 778.963 2.62333 2.14398 0
M  V30 8214 C 777.522 2.64342 2.67955 0
M  V30 8215 C 776.669 2.37244 1.43564 0
M  V30 8216 H 779.62 1.53954 0.385222 0
M  V30 8217 H 779.641 2.37063 2.97626 0
M  V30 8218 H 779.153 3.54499 1.57963 0
M  V30 8219 H 777.254 1.76213 3.28298 0
M  V30 8220 H 777.367 3.63897 3.11634 0
M  V30 8221 H 775.731 1.87022 1.72901 0
M  V30 8222 H 776.514 3.31568 0.889805 0
M  V30 8223 N 778.959 -0.83999 1.33349 0
M  V30 8224 C 780.205 -1.59753 1.24927 0
M  V30 8225 C 780.538 -1.93318 -0.184855 0
M  V30 8226 O 779.813 -1.586 -1.12589 0
M  V30 8227 C 780.096 -2.90829 2.12345 0
M  V30 8228 C 779.949 -2.63953 3.6421 0
M  V30 8229 C 781.268 -3.92246 1.99577 0
M  V30 8230 H 778.387 -0.579654 0.45516 0
M  V30 8231 H 781.029 -0.968909 1.63439 0
M  V30 8232 H 779.179 -3.44478 1.79631 0
M  V30 8233 H 780.851 -2.16745 4.07209 0
M  V30 8234 H 779.094 -1.97671 3.86146 0
M  V30 8235 H 779.765 -3.57348 4.20721 0
M  V30 8236 H 782.241 -3.479 2.28265 0
M  V30 8237 H 781.117 -4.81793 2.62996 0
M  V30 8238 H 781.378 -4.3138 0.967673 0
M  V30 8239 N 780.437 -1.16799 -1.0581 0
M  V30 8240 C 781.683 -0.953935 -1.78963 0
M  V30 8241 C 782.016 0.516638 -1.87202 0
M  V30 8242 O 781.291 1.38338 -1.36721 0
M  V30 8243 C 781.574 -1.58808 -3.23191 0
M  V30 8244 C 781.427 -3.13032 -3.23003 0
M  V30 8245 C 782.746 -1.2868 -4.20867 0
M  V30 8246 H 779.865 -0.347972 -0.64968 0
M  V30 8247 H 782.507 -1.44204 -1.23715 0
M  V30 8248 H 780.657 -1.17303 -3.70368 0
M  V30 8249 H 782.329 -3.63553 -2.83949 0
M  V30 8250 H 780.572 -3.46108 -2.61518 0
M  V30 8251 H 781.243 -3.52527 -4.24769 0
M  V30 8252 H 783.719 -1.6461 -3.82155 0
M  V30 8253 H 782.595 -1.75645 -5.20038 0
M  V30 8254 H 782.856 -0.206491 -4.41618 0
M  V30 8255 N 781.915 1.24427 -0.967243 0
M  V30 8256 C 783.326 1.74349 -0.667785 0
M  V30 8257 C 783.677 1.78403 0.816509 0
M  V30 8258 O 782.802 1.41315 1.63887 0
M  V30 8259 C 783.397 3.16628 -1.20548 0
M  V30 8260 C 781.956 3.64059 -0.955934 0
M  V30 8261 C 781.103 2.42715 -1.34106 0
M  V30 8262 H 784.054 1.10136 -1.14262 0
M  V30 8263 H 784.075 3.76183 -0.571547 0
M  V30 8264 H 783.587 3.13646 -2.28578 0
M  V30 8265 H 781.688 3.72441 0.108858 0
M  V30 8266 H 781.801 4.51549 -1.60126 0
M  V30 8267 H 780.165 2.43114 -0.759452 0
M  V30 8268 H 780.948 2.42414 -2.43085 0
M  V30 8269 N 783.393 0.737304 1.3929 0
M  V30 8270 C 784.356 0.10731 2.28949 0
M  V30 8271 C 785.356 -0.664716 1.46418 0
M  V30 8272 O 786.546 -0.493392 1.67067 0
M  V30 8273 C 783.678 -0.857145 3.29948 0
M  V30 8274 H 784.871 0.89725 2.86163 0
M  V30 8275 H 782.424 0.503279 1.47976 0
M  V30 8276 H 783.159 -1.67336 2.77794 0
M  V30 8277 H 782.944 -0.306167 3.90903 0
M  V30 8278 H 784.434 -1.29444 3.97031 0
M  V30 8279 N 784.871 -1.49948 0.485112 0
M  V30 8280 C 786.117 -2.02695 -0.0651022 0
M  V30 8281 C 786.45 -1.36534 -1.38102 0
M  V30 8282 O 785.725 -0.495677 -1.88078 0
M  V30 8283 C 786.008 -3.59337 -0.234285 0
M  V30 8284 C 785.861 -4.3605 1.10364 0
M  V30 8285 C 787.18 -4.28996 -0.982351 0
M  V30 8286 H 784.299 -0.736666 -0.0221856 0
M  V30 8287 H 786.941 -1.7913 0.633433 0
M  V30 8288 H 785.091 -3.79546 -0.829262 0
M  V30 8289 H 786.763 -4.27377 1.73627 0
M  V30 8290 H 785.006 -3.99236 1.69686 0
M  V30 8291 H 785.677 -5.43959 0.938743 0
M  V30 8292 H 788.153 -4.13346 -0.477904 0
M  V30 8293 H 787.029 -5.38379 -1.06955 0
M  V30 8294 H 787.29 -3.93135 -2.02231 0
M  V30 8295 N 786.349 -0.21828 -1.56081 0
M  V30 8296 C 787.76 0.290166 -1.84431 0
M  V30 8297 C 788.111 1.59712 -1.13958 0
M  V30 8298 O 787.236 2.12516 -0.40815 0
M  V30 8299 C 787.831 0.53325 -3.34577 0
M  V30 8300 C 786.39 0.986011 -3.63256 0
M  V30 8301 C 785.537 0.0472798 -2.7726 0
M  V30 8302 H 788.488 -0.441548 -1.52434 0
M  V30 8303 H 788.509 1.37967 -3.54606 0
M  V30 8304 H 788.021 -0.418137 -3.85841 0
M  V30 8305 H 786.122 1.95087 -3.17446 0
M  V30 8306 H 786.235 0.862684 -4.71269 0
M  V30 8307 H 784.599 0.553471 -2.48614 0
M  V30 8308 H 785.382 -0.898966 -3.31321 0
M  V30 8309 N 787.827 1.57504 0.0551401 0
M  V30 8310 C 789.076 1.87237 0.750009 0
M  V30 8311 C 789.389 0.813268 1.77891 0
M  V30 8312 O 790.595 0.99898 2.52453 0
M  V30 8313 C 789.051 3.32187 1.38491 0
M  V30 8314 C 788.659 4.46267 0.393707 0
M  V30 8315 C 790.403 3.71101 2.06117 0
M  V30 8316 C 788.31 5.82265 1.03547 0
M  V30 8317 H 787.24 0.698524 0.283866 0
M  V30 8318 H 789.891 1.835 0.00365997 0
M  V30 8319 H 788.273 3.30588 2.18008 0
M  V30 8320 H 789.447 4.59289 -0.372865 0
M  V30 8321 H 787.762 4.16015 -0.17902 0
M  V30 8322 H 790.359 4.70012 2.54937 0
M  V30 8323 H 790.702 3.01751 2.86796 0
M  V30 8324 H 791.235 3.74762 1.33409 0
M  V30 8325 H 787.974 6.54949 0.268644 0
M  V30 8326 H 787.494 5.73012 1.7725 0
M  V30 8327 H 789.173 6.28148 1.55047 0
M  V30 8328 N 789.305 -0.326896 1.54172 0
M  V30 8329 C 790.553 -1.06313 1.71878 0
M  V30 8330 C 790.874 -1.88652 0.493498 0
M  V30 8331 O 790.144 -1.89608 -0.492522 0
M  V30 8332 H 788.724 -0.39549 0.633716 0
M  V30 8333 H 791.386 -0.364139 1.91468 0
M  V30 8334 H 790.482 -1.73105 2.59694 0
M  V30 8335 N 790.784 -1.46188 -0.588786 0
M  V30 8336 C 792.195 -1.45421 -1.17088 0
M  V30 8337 C 792.546 -0.191801 -1.9526 0
M  V30 8338 O 791.671 0.705497 -2.04577 0
M  V30 8339 C 792.266 -2.63467 -2.13004 0
M  V30 8340 C 790.825 -2.6576 -2.6655 0
M  V30 8341 C 789.972 -2.38002 -1.42304 0
M  V30 8342 H 792.923 -1.54156 -0.377052 0
M  V30 8343 H 792.944 -2.38638 -2.96365 0
M  V30 8344 H 792.456 -3.55331 -1.56081 0
M  V30 8345 H 790.557 -1.77952 -3.27359 0
M  V30 8346 H 790.67 -3.65545 -3.09699 0
M  V30 8347 H 789.034 -1.87936 -1.71907 0
M  V30 8348 H 789.817 -3.32035 -0.872209 0
M  V30 8349 N 792.262 0.832906 -1.33792 0
M  V30 8350 C 793.673 1.40489 -1.22963 0
M  V30 8351 C 794.024 1.95633 0.149026 0
M  V30 8352 O 793.149 1.8928 1.04891 0
M  V30 8353 C 793.744 2.55387 -2.22627 0
M  V30 8354 C 792.303 3.08522 -2.15618 0
M  V30 8355 C 791.45 1.81347 -2.09782 0
M  V30 8356 H 794.401 0.638156 -1.45304 0
M  V30 8357 H 794.422 3.33193 -1.83746 0
M  V30 8358 H 793.934 2.15222 -3.22957 0
M  V30 8359 H 792.035 3.53217 -1.18611 0
M  V30 8360 H 792.148 3.6829 -3.0643 0
M  V30 8361 H 790.512 2.01839 -1.55349 0
M  V30 8362 H 791.295 1.43369 -3.1193 0
M  V30 8363 N 793.74 1.17359 1.05189 0
M  V30 8364 C 795.151 0.96793 1.5965 0
M  V30 8365 C 795.502 -0.485355 1.90102 0
M  V30 8366 O 794.627 -1.36066 1.6827 0
M  V30 8367 C 795.222 1.75068 2.90063 0
M  V30 8368 C 793.781 1.58969 3.41183 0
M  V30 8369 C 792.928 1.75231 2.14917 0
M  V30 8370 H 795.879 1.32067 0.880001 0
M  V30 8371 H 795.9 1.23308 3.59966 0
M  V30 8372 H 795.412 2.80835 2.67868 0
M  V30 8373 H 793.513 0.556906 3.68415 0
M  V30 8374 H 793.626 2.38067 4.15766 0
M  V30 8375 H 791.99 1.18073 2.25679 0
M  V30 8376 H 792.773 2.8241 1.95191 0
M  V30 8377 N 795.218 -1.23913 0.973828 0
M  V30 8378 C 796.181 -2.23367 0.51378 0
M  V30 8379 C 797.181 -1.55923 -0.39302 0
M  V30 8380 O 798.371 -1.73187 -0.187626 0
M  V30 8381 C 795.503 -3.39944 -0.255152 0
M  V30 8382 H 796.696 -2.65581 1.39307 0
M  V30 8383 H 794.249 -1.36632 0.759039 0
M  V30 8384 H 794.984 -3.03177 -1.15127 0
M  V30 8385 H 794.769 -3.90098 0.395673 0
M  V30 8386 H 796.259 -4.13749 -0.565842 0
M  V30 8387 N 796.696 -0.74468 -1.38897 0
M  V30 8388 C 797.944 -0.296298 -1.99916 0
M  V30 8389 C 798.265 1.12325 -1.59399 0
M  V30 8390 O 797.535 1.76658 -0.846689 0
M  V30 8391 H 796.115 -0.106561 -0.73936 0
M  V30 8392 H 798.777 -0.956793 -1.69798 0
M  V30 8393 H 797.873 -0.352356 -3.10105 0
M  V30 8394 N 798.174 1.49689 -0.493057 0
M  V30 8395 C 799.421 2.02427 0.0542714 0
M  V30 8396 C 799.749 1.37339 1.37725 0
M  V30 8397 O 799.004 0.495523 1.89323 0
M  V30 8398 C 799.303 3.56427 0.263536 0
M  V30 8399 C 798.969 4.40111 -0.98046 0
M  V30 8400 C 797.631 4.62699 -1.32148 0
M  V30 8401 C 799.983 4.88847 -1.80771 0
M  V30 8402 C 797.311 5.31268 -2.48941 0
M  V30 8403 C 799.663 5.587 -2.96711 0
M  V30 8404 C 798.327 5.79536 -3.31202 0
M  V30 8405 H 797.597 0.740734 0.0198593 0
M  V30 8406 H 800.244 1.80073 -0.651603 0
M  V30 8407 H 798.549 3.77416 1.05186 0
M  V30 8408 H 800.246 3.94819 0.701348 0
M  V30 8409 H 796.836 4.22765 -0.704814 0
M  V30 8410 H 801.02 4.71231 -1.55741 0
M  V30 8411 H 796.276 5.45603 -2.75911 0
M  V30 8412 H 800.45 5.9544 -3.61143 0
M  V30 8413 H 798.077 6.32443 -4.21805 0
M  V30 8414 N 799.652 0.226554 1.55963 0
M  V30 8415 C 801.068 -0.128733 1.5908 0
M  V30 8416 C 801.268 -1.58558 1.24345 0
M  V30 8417 O 800.324 -2.32661 0.981069 0
M  V30 8418 C 801.637 0.202076 3.0002 0
M  V30 8419 C 803.185 0.144718 3.12665 0
M  V30 8420 C 803.66 0.449272 4.55791 0
M  V30 8421 N 805.151 0.399026 4.61478 0
M  V30 8422 C 805.886 0.608106 5.70166 0
M  V30 8423 N 805.382 0.879227 6.87198 0
M  V30 8424 N 807.175 0.5402 5.59498 0
M  V30 8425 H 799.326 1.17686 1.76816 0
M  V30 8426 H 801.589 0.472072 0.822102 0
M  V30 8427 H 801.295 1.21341 3.30105 0
M  V30 8428 H 801.169 -0.480554 3.74126 0
M  V30 8429 H 803.556 -0.857261 2.82374 0
M  V30 8430 H 803.637 0.860899 2.40878 0
M  V30 8431 H 803.281 1.44871 4.86801 0
M  V30 8432 H 803.211 -0.288157 5.25811 0
M  V30 8433 H 805.702 0.197372 3.77384 0
M  V30 8434 H 806.015 1.02673 7.65949 0
M  V30 8435 H 804.36 0.916477 6.88931 0
M  V30 8436 H 807.551 0.328581 4.66945 0
M  V30 8437 H 807.724 0.706548 6.44137 0
M  V30 8438 N 801.13 -1.57531 -0.0467866 0
M  V30 8439 C 802.407 -1.79568 -0.775536 0
M  V30 8440 C 802.787 -0.820322 -1.94509 0
M  V30 8441 O 802.135 0.14134 -2.28062 0
M  V30 8442 C 802.345 -3.26789 -1.22516 0
M  V30 8443 C 803.693 -3.91299 -1.64835 0
M  V30 8444 O 804.717 -3.30831 -1.3202 0
M  V30 8445 O 803.576 -4.97727 -2.25677 0
M  V30 8446 H 800.67 -0.737817 -0.373572 0
M  V30 8447 H 803.216 -1.69682 -0.0249302 0
M  V30 8448 H 801.988 -3.89357 -0.389446 0
M  V30 8449 H 801.611 -3.41496 -2.03633 0
M  V30 8450 N 802.608 0.318715 -1.54344 0
M  V30 8451 C 803.857 1.05363 -1.71993 0
M  V30 8452 C 804.17 1.89018 -0.503155 0
M  V30 8453 O 805.376 2.65639 -0.561085 0
M  V30 8454 C 803.832 1.92281 -3.0423 0
M  V30 8455 C 803.44 1.13715 -4.33328 0
M  V30 8456 C 805.184 2.65479 -3.31242 0
M  V30 8457 C 803.091 1.99806 -5.56625 0
M  V30 8458 H 802.021 0.397081 -0.64097 0
M  V30 8459 H 804.672 0.311598 -1.80835 0
M  V30 8460 H 803.054 2.70402 -2.89307 0
M  V30 8461 H 804.228 0.403305 -4.59032 0
M  V30 8462 H 802.543 0.521769 -4.13118 0
M  V30 8463 H 805.14 3.30209 -4.20555 0
M  V30 8464 H 805.483 3.33374 -2.49334 0
M  V30 8465 H 806.016 1.94417 -3.47054 0
M  V30 8466 H 802.755 1.36411 -6.41149 0
M  V30 8467 H 802.275 2.70911 -5.35133 0
M  V30 8468 H 803.954 2.58277 -5.93213 0
M  V30 8469 N 804.086 1.46499 0.581025 0
M  V30 8470 C 805.016 1.60052 1.70017 0
M  V30 8471 C 805.997 0.450788 1.64018 0
M  V30 8472 O 807.182 0.677237 1.82009 0
M  V30 8473 C 804.312 1.5921 3.08658 0
M  V30 8474 C 803.266 2.73169 3.29488 0
M  V30 8475 C 802.592 2.57389 4.68674 0
M  V30 8476 C 803.892 4.14978 3.1716 0
M  V30 8477 H 805.586 2.53735 1.5893 0
M  V30 8478 H 803.132 1.22113 0.763173 0
M  V30 8479 H 805.085 1.67285 3.86773 0
M  V30 8480 H 803.809 0.620718 3.20647 0
M  V30 8481 H 802.468 2.64566 2.53773 0
M  V30 8482 H 802.116 1.58331 4.77431 0
M  V30 8483 H 801.816 3.33826 4.83564 0
M  V30 8484 H 803.34 2.67358 5.48956 0
M  V30 8485 H 804.754 4.24684 3.85119 0
M  V30 8486 H 803.151 4.92016 3.4357 0
M  V30 8487 H 804.221 4.35016 2.14218 0
M  V30 8488 N 805.565 -0.825799 1.34232 0
M  V30 8489 C 806.495 -1.95151 1.28212 0
M  V30 8490 C 807.476 -1.69345 0.160123 0
M  V30 8491 O 808.661 -1.90983 0.352019 0
M  V30 8492 C 805.791 -3.31554 1.03388 0
M  V30 8493 C 804.745 -3.71793 2.12023 0
M  V30 8494 C 804.071 -5.06147 1.72392 0
M  V30 8495 C 805.371 -3.84193 3.53826 0
M  V30 8496 H 807.065 -2.00445 2.22401 0
M  V30 8497 H 804.611 -0.962996 1.07063 0
M  V30 8498 H 806.564 -4.09889 0.978225 0
M  V30 8499 H 805.288 -3.26551 0.0564142 0
M  V30 8500 H 803.947 -2.95731 2.16654 0
M  V30 8501 H 803.595 -4.97628 0.733137 0
M  V30 8502 H 803.295 -5.34041 2.451 0
M  V30 8503 H 804.819 -5.86943 1.68317 0
M  V30 8504 H 806.233 -4.52806 3.51624 0
M  V30 8505 H 804.63 -4.23538 4.2513 0
M  V30 8506 H 805.7 -2.86272 3.91377 0
M  V30 8507 N 807.043 -1.17915 -1.04565 0
M  V30 8508 C 808.459 -0.927761 -1.29864 0
M  V30 8509 C 808.659 0.409536 -1.97294 0
M  V30 8510 O 807.715 1.14505 -2.25044 0
M  V30 8511 C 809.028 -2.08967 -2.16225 0
M  V30 8512 C 810.576 -2.12741 -2.29587 0
M  V30 8513 C 811.051 -3.28335 -3.19312 0
M  V30 8514 N 812.542 -3.28164 -3.26898 0
M  V30 8515 C 813.277 -4.14249 -3.96466 0
M  V30 8516 N 812.773 -5.10457 -4.68407 0
M  V30 8517 N 814.566 -4.02179 -3.92694 0
M  V30 8518 H 806.717 -2.03983 -0.592011 0
M  V30 8519 H 808.98 -0.891023 -0.323701 0
M  V30 8520 H 808.686 -3.05654 -1.73979 0
M  V30 8521 H 808.56 -2.04606 -3.16885 0
M  V30 8522 H 810.947 -1.16636 -2.71072 0
M  V30 8523 H 811.028 -2.21162 -1.28535 0
M  V30 8524 H 810.672 -4.2471 -2.78539 0
M  V30 8525 H 810.602 -3.17151 -4.20384 0
M  V30 8526 H 813.093 -2.58511 -2.75646 0
M  V30 8527 H 813.406 -5.72526 -5.1907 0
M  V30 8528 H 811.751 -5.14422 -4.67328 0
M  V30 8529 H 814.942 -3.26308 -3.3562 0
M  V30 8530 H 815.115 -4.69486 -4.4664 0
M  V30 8531 N 808.521 1.23394 -0.980386 0
M  V30 8532 C 809.431 2.28561 -0.528864 0
M  V30 8533 C 810.447 1.68946 0.416329 0
M  V30 8534 O 811.623 1.99355 0.286251 0
M  V30 8535 C 808.688 3.46323 0.16155 0
M  V30 8536 C 807.749 4.21297 -0.825044 0
M  V30 8537 C 806.982 5.33437 -0.167483 0
M  V30 8538 O 807.205 5.60812 1.04146 0
M  V30 8539 O 806.139 5.95637 -0.866047 0
M  V30 8540 H 809.965 2.69326 -1.40346 0
M  V30 8541 H 807.55 1.29325 -0.748019 0
M  V30 8542 H 809.432 4.17811 0.548841 0
M  V30 8543 H 808.107 3.0751 1.01092 0
M  V30 8544 H 807.014 3.52134 -1.26303 0
M  V30 8545 H 808.347 4.6396 -1.64322 0
M  V30 8546 N 809.999 0.752036 1.385 0
M  V30 8547 C 811.247 0.306895 1.99756 0
M  V30 8548 C 811.568 -1.11478 1.59992 0
M  V30 8549 O 810.838 -1.76206 0.856045 0
M  V30 8550 H 809.418 0.11048 0.738785 0
M  V30 8551 H 812.08 0.965785 1.69289 0
M  V30 8552 H 811.176 0.368797 3.09913 0
M  V30 8553 N 811.477 -1.49425 0.500989 0
M  V30 8554 C 812.888 -1.86624 0.0532011 0
M  V30 8555 C 813.239 -1.41331 -1.36088 0
M  V30 8556 O 812.364 -0.791195 -2.01418 0
M  V30 8557 C 812.959 -3.38681 0.0897693 0
M  V30 8558 C 811.518 -3.75181 -0.302677 0
M  V30 8559 C 810.665 -2.73419 0.462307 0
M  V30 8560 H 813.616 -1.41743 0.713773 0
M  V30 8561 H 813.637 -3.73902 -0.705528 0
M  V30 8562 H 813.149 -3.71616 1.11907 0
M  V30 8563 H 811.25 -3.47855 -1.33521 0
M  V30 8564 H 811.363 -4.79097 0.0167653 0
M  V30 8565 H 809.727 -2.54548 -0.0878557 0
M  V30 8566 H 810.51 -3.09198 1.49169 0
M  V30 8567 N 812.955 -0.234822 -1.55841 0
M  V30 8568 C 813.865 0.680828 -2.24504 0
M  V30 8569 C 814.881 1.20306 -1.25708 0
M  V30 8570 O 816.057 1.24188 -1.58554 0
M  V30 8571 C 813.122 1.86636 -2.92178 0
M  V30 8572 C 812.183 1.3848 -4.06352 0
M  V30 8573 C 811.416 2.51382 -4.70789 0
M  V30 8574 O 811.639 3.69831 -4.34259 0
M  V30 8575 O 810.573 2.21828 -5.59532 0
M  V30 8576 H 814.399 0.12583 -3.03439 0
M  V30 8577 H 811.984 -0.00381817 -1.494 0
M  V30 8578 H 813.866 2.55845 -3.34845 0
M  V30 8579 H 812.541 2.40921 -2.16192 0
M  V30 8580 H 811.448 0.660341 -3.68226 0
M  V30 8581 H 812.781 0.888177 -4.8412 0
M  V30 8582 N 814.433 1.57553 0.0384317 0
M  V30 8583 C 815.681 1.88468 0.729672 0
M  V30 8584 C 816.002 0.831302 1.76393 0
M  V30 8585 O 815.272 -0.13622 1.95426 0
M  V30 8586 H 813.852 0.695529 0.272485 0
M  V30 8587 H 816.514 1.94899 0.0066032 0
M  V30 8588 H 815.61 2.8705 1.22511 0
M  V30 8589 N 815.911 -0.310526 1.54511 0
M  V30 8590 C 817.158 -1.04691 1.73338 0
M  V30 8591 C 817.486 -1.87584 0.514038 0
M  V30 8592 O 816.741 -1.89096 -0.504119 0
M  V30 8593 C 817.04 -1.98942 2.96912 0
M  V30 8594 C 816.706 -1.321 4.31115 0
M  V30 8595 C 815.368 -1.13603 4.67598 0
M  V30 8596 C 817.72 -0.842362 5.14348 0
M  V30 8597 C 815.048 -0.459102 5.84901 0
M  V30 8598 C 817.4 -0.179202 6.32346 0
M  V30 8599 C 816.064 0.0178111 6.67498 0
M  V30 8600 H 815.334 -0.38309 0.634289 0
M  V30 8601 H 817.981 -0.322723 1.88761 0
M  V30 8602 H 816.286 -2.77856 2.76231 0
M  V30 8603 H 817.983 -2.55972 3.08674 0
M  V30 8604 H 814.573 -1.47502 4.02419 0
M  V30 8605 H 818.757 -0.973013 4.86668 0
M  V30 8606 H 814.013 -0.295385 6.10686 0
M  V30 8607 H 818.187 0.199619 6.96114 0
M  V30 8608 H 815.814 0.544356 7.58249 0
M  V30 8609 N 817.389 -1.46805 -0.573248 0
M  V30 8610 C 818.352 -1.57655 -1.66366 0
M  V30 8611 C 819.352 -0.452905 -1.5429 0
M  V30 8612 O 820.542 -0.717502 -1.58737 0
M  V30 8613 C 817.674 -1.50584 -3.05839 0
M  V30 8614 H 818.867 -2.54842 -1.581 0
M  V30 8615 H 816.42 -1.34756 -0.791868 0
M  V30 8616 H 817.155 -0.547127 -3.19651 0
M  V30 8617 H 816.94 -2.32118 -3.16012 0
M  V30 8618 H 818.43 -1.61282 -3.85199 0
M  V30 8619 N 818.867 0.818669 -1.34668 0
M  V30 8620 C 820.283 1.11243 -1.14443 0
M  V30 8621 C 820.483 2.01435 0.0512212 0
M  V30 8622 O 819.539 2.41854 0.725471 0
M  V30 8623 C 820.852 1.75504 -2.4417 0
M  V30 8624 C 822.4 1.8798 -2.50265 0
M  V30 8625 C 822.875 2.55657 -3.80004 0
M  V30 8626 N 824.366 2.63153 -3.81189 0
M  V30 8627 C 825.101 3.16258 -4.78298 0
M  V30 8628 N 824.597 3.69893 -5.85791 0
M  V30 8629 N 826.39 3.14698 -4.65748 0
M  V30 8630 H 818.541 0.218848 -2.1127 0
M  V30 8631 H 820.804 0.159655 -0.934459 0
M  V30 8632 H 820.51 1.16697 -3.31775 0
M  V30 8633 H 820.384 2.75329 -2.57825 0
M  V30 8634 H 822.771 2.45934 -1.63096 0
M  V30 8635 H 822.852 0.870447 -2.40535 0
M  V30 8636 H 822.496 1.98356 -4.67565 0
M  V30 8637 H 822.426 3.57105 -3.87019 0
M  V30 8638 H 824.917 2.2514 -3.03513 0
M  V30 8639 H 825.23 4.08678 -6.55898 0
M  V30 8640 H 823.575 3.68125 -5.89499 0
M  V30 8641 H 826.766 2.72066 -3.80917 0
M  V30 8642 H 826.939 3.5578 -5.41594 0
M  V30 8643 N 820.346 1.18468 1.03938 0
M  V30 8644 C 821.309 0.914944 2.10146 0
M  V30 8645 C 822.309 -0.10022 1.60487 0
M  V30 8646 O 823.499 0.133365 1.73689 0
M  V30 8647 C 820.631 0.372993 3.38853 0
M  V30 8648 H 821.824 1.85677 2.35508 0
M  V30 8649 H 819.377 0.996876 1.20383 0
M  V30 8650 H 820.112 -0.57538 3.19155 0
M  V30 8651 H 819.897 1.1048 3.76213 0
M  V30 8652 H 821.387 0.203014 4.17106 0
M  V30 8653 N 821.824 -1.22873 0.986916 0
M  V30 8654 C 823.07 -1.91746 0.660401 0
M  V30 8655 C 823.403 -1.76738 -0.804812 0
M  V30 8656 O 822.678 -1.13246 -1.58131 0
M  V30 8657 C 822.961 -3.44156 1.05966 0
M  V30 8658 C 822.814 -3.68242 2.58298 0
M  V30 8659 C 824.133 -4.35874 0.60842 0
M  V30 8660 H 821.252 -0.696347 0.241391 0
M  V30 8661 H 823.894 -1.44867 1.22937 0
M  V30 8662 H 822.044 -3.84213 0.575534 0
M  V30 8663 H 823.716 -3.37626 3.14335 0
M  V30 8664 H 821.959 -3.12728 3.00638 0
M  V30 8665 H 822.63 -4.74956 2.81285 0
M  V30 8666 H 825.106 -4.03299 1.02417 0
M  V30 8667 H 823.982 -5.41201 0.916142 0
M  V30 8668 H 824.243 -4.39364 -0.491086 0
M  V30 8669 N 823.302 -0.75937 -1.38099 0
M  V30 8670 C 824.718 -0.437606 -1.53483 0
M  V30 8671 C 824.918 1.04849 -1.72072 0
M  V30 8672 O 823.974 1.83448 -1.73502 0
M  V30 8673 C 825.287 -1.24189 -2.73857 0
M  V30 8674 C 826.835 -1.23255 -2.8771 0
M  V30 8675 C 827.31 -2.01992 -4.11051 0
M  V30 8676 N 828.801 -1.99282 -4.1814 0
M  V30 8677 C 829.536 -2.56996 -5.12583 0
M  V30 8678 N 829.032 -3.23446 -6.12662 0
M  V30 8679 N 830.825 -2.46894 -5.04975 0
M  V30 8680 H 822.976 -1.72242 -1.24283 0
M  V30 8681 H 825.239 -0.730507 -0.604205 0
M  V30 8682 H 824.945 -2.29449 -2.66545 0
M  V30 8683 H 824.819 -0.862672 -3.67203 0
M  V30 8684 H 827.206 -0.187988 -2.94501 0
M  V30 8685 H 827.287 -1.65132 -1.95359 0
M  V30 8686 H 826.931 -3.06462 -4.05023 0
M  V30 8687 H 826.861 -1.57505 -5.02494 0
M  V30 8688 H 829.352 -1.50893 -3.46467 0
M  V30 8689 H 829.665 -3.6489 -6.81231 0
M  V30 8690 H 828.01 -3.27543 -6.12977 0
M  V30 8691 H 831.201 -1.94604 -4.25731 0
M  V30 8692 H 831.374 -2.92168 -5.78396 0
M  V30 8693 N 824.78 1.49157 -0.508906 0
M  V30 8694 C 825.728 2.30922 0.278906 0
M  V30 8695 C 826.722 1.39889 0.955382 0
M  V30 8696 O 827.928 1.56901 0.882169 0
M  V30 8697 H 824.303 0.744087 0.108805 0
M  V30 8698 H 826.274 2.95277 -0.430583 0
M  V30 8699 C 825.023 3.21432 1.32576 0
M  V30 8700 H 824.346 3.91413 0.814634 0
M  V30 8701 H 825.786 3.81568 1.84882 0
M  V30 8702 C 824.245 2.41583 2.34817 0
M  V30 8703 O 824.775 2.1256 3.40854 0
M  V30 8704 N 822.981 2.03462 2.07489 0
M  V30 8705 H 822.528 2.27265 1.21278 0
M  V30 8706 H 822.486 1.50345 2.76123 0
M  V30 8707 N 826.258 0.243083 1.55714 0
M  V30 8708 C 827.208 -0.671915 2.17875 0
M  V30 8709 C 828.192 -1.14199 1.13347 0
M  V30 8710 O 829.384 -1.09239 1.39269 0
M  V30 8711 C 826.513 -1.87027 2.87881 0
M  V30 8712 C 825.599 -1.41888 3.99661 0
M  V30 8713 N 825.99 -0.681465 5.01188 0
M  V30 8714 C 824.288 -1.70447 4.12145 0
M  V30 8715 C 824.989 -0.448285 5.7997 0
M  V30 8716 N 823.965 -1.01137 5.34109 0
M  V30 8717 H 827.767 -0.100321 2.93729 0
M  V30 8718 H 825.281 0.0452371 1.62337 0
M  V30 8719 H 827.278 -2.53674 3.3084 0
M  V30 8720 H 825.938 -2.44613 2.13529 0
M  V30 8721 H 826.949 -0.331959 5.16835 0
M  V30 8722 H 823.626 -2.29198 3.48962 0
M  V30 8723 H 825.016 0.140141 6.71754 0
M  V30 8724 N 827.736 -1.57571 -0.0300757 0
M  V30 8725 C 829.147 -1.77567 -0.576802 0
M  V30 8726 C 829.498 -0.874034 -1.75656 0
M  V30 8727 O 828.623 -0.0686124 -2.16291 0
M  V30 8728 C 829.218 -3.22016 -1.05315 0
M  V30 8729 C 827.777 -3.43212 -1.5454 0
M  V30 8730 C 826.924 -2.73061 -0.483033 0
M  V30 8731 H 829.875 -1.57483 0.196151 0
M  V30 8732 H 829.896 -3.28474 -1.92055 0
M  V30 8733 H 829.408 -3.87613 -0.194298 0
M  V30 8734 H 827.509 -2.82788 -2.42615 0
M  V30 8735 H 827.622 -4.5182 -1.5936 0
M  V30 8736 H 825.986 -2.36805 -0.937835 0
M  V30 8737 H 826.769 -3.4134 0.366341 0
M  V30 8738 N 829.214 0.302327 -1.54673 0
M  V30 8739 C 830.462 1.03565 -1.73547 0
M  V30 8740 C 830.783 1.87843 -0.523448 0
M  V30 8741 O 830.053 1.90367 0.462295 0
M  V30 8742 H 828.633 0.385358 -0.639928 0
M  V30 8743 H 831.295 0.333632 -1.92023 0
M  V30 8744 H 830.391 1.68952 -2.62415 0
M  V30 8745 N 830.692 1.47107 0.565454 0
M  V30 8746 C 831.622 1.61846 1.68309 0
M  V30 8747 C 832.603 0.468159 1.63531 0
M  V30 8748 O 833.788 0.696504 1.8128 0
M  V30 8749 C 830.918 1.62474 3.06952 0
M  V30 8750 C 829.872 2.76649 3.26572 0
M  V30 8751 C 829.198 2.62345 4.65917 0
M  V30 8752 C 830.498 4.18319 3.12741 0
M  V30 8753 H 832.192 2.55407 1.5623 0
M  V30 8754 H 829.738 1.22916 0.750179 0
M  V30 8755 H 831.691 1.71378 3.84977 0
M  V30 8756 H 830.415 0.654692 3.19971 0
M  V30 8757 H 829.074 2.67242 2.50952 0
M  V30 8758 H 828.722 1.63386 4.75725 0
M  V30 8759 H 828.422 3.38936 4.79996 0
M  V30 8760 H 829.946 2.73165 5.46089 0
M  V30 8761 H 831.36 4.28745 3.80593 0
M  V30 8762 H 829.757 4.95632 3.38333 0
M  V30 8763 H 830.827 4.37263 2.09592 0
M  V30 8764 N 832.17 -0.811516 1.35101 0
M  V30 8765 C 833.1 -1.9378 1.30275 0
M  V30 8766 C 834.081 -1.69165 0.178075 0
M  V30 8767 O 835.266 -1.90599 0.372256 0
M  V30 8768 C 832.396 -3.30439 1.06899 0
M  V30 8769 C 831.35 -3.69523 2.15955 0
M  V30 8770 C 830.676 -5.0429 1.77751 0
M  V30 8771 C 831.976 -3.80419 3.57881 0
M  V30 8772 H 833.67 -1.98075 2.24514 0
M  V30 8773 H 831.216 -0.951586 1.08078 0
M  V30 8774 H 833.169 -4.08828 1.02164 0
M  V30 8775 H 831.893 -3.26473 0.0910462 0
M  V30 8776 H 830.552 -2.93416 2.19778 0
M  V30 8777 H 830.2 -4.96823 0.785876 0
M  V30 8778 H 829.9 -5.31411 2.5075 0
M  V30 8779 H 831.424 -5.85125 1.74533 0
M  V30 8780 H 832.838 -4.49051 3.56407 0
M  V30 8781 H 831.235 -4.19005 4.29598 0
M  V30 8782 H 832.305 -2.82105 3.94391 0
M  V30 8783 N 833.648 -1.19017 -1.03309 0
M  V30 8784 C 834.578 -0.94772 -2.13402 0
M  V30 8785 C 835.559 0.117383 -1.69694 0
M  V30 8786 O 836.744 -0.0367733 -1.94165 0
M  V30 8787 C 833.874 -0.480977 -3.43953 0
M  V30 8788 C 832.828 -1.48743 -4.01322 0
M  V30 8789 C 832.154 -0.877924 -5.27443 0
M  V30 8790 C 833.454 -2.86642 -4.36616 0
M  V30 8791 H 835.148 -1.86846 -2.33942 0
M  V30 8792 H 832.694 -0.899781 -1.12427 0
M  V30 8793 H 834.647 -0.298677 -4.2034 0
M  V30 8794 H 833.371 0.475348 -3.23122 0
M  V30 8795 H 832.03 -1.65681 -3.27025 0
M  V30 8796 H 831.678 0.0858232 -5.02927 0
M  V30 8797 H 831.378 -1.54996 -5.66789 0
M  V30 8798 H 832.902 -0.706326 -6.06501 0
M  V30 8799 H 834.316 -2.73312 -5.03958 0
M  V30 8800 H 832.713 -3.50599 -4.87032 0
M  V30 8801 H 833.783 -3.39617 -3.46105 0
M  V30 8802 N 835.127 1.22348 -0.993418 0
M  V30 8803 C 836.06 2.22898 -0.489073 0
M  V30 8804 C 837.038 1.56222 0.450927 0
M  V30 8805 O 838.222 1.84705 0.376351 0
M  V30 8806 C 835.349 3.37448 0.290946 0
M  V30 8807 C 834.395 4.22328 -0.595123 0
M  V30 8808 S 835.228 4.94677 -2.05072 0
M  V30 8809 C 836.384 6.12667 -1.28021 0
M  V30 8810 H 836.617 2.65333 -1.34111 0
M  V30 8811 H 834.15 1.32032 -0.800429 0
M  V30 8812 H 836.108 4.03867 0.734944 0
M  V30 8813 H 834.769 2.93519 1.11826 0
M  V30 8814 H 833.962 5.04 0.00507413 0
M  V30 8815 H 833.564 3.61043 -0.975906 0
M  V30 8816 H 835.856 6.75279 -0.548129 0
M  V30 8817 H 836.799 6.771 -2.07223 0
M  V30 8818 H 837.207 5.58898 -0.793272 0
M  V30 8819 N 836.605 0.766683 1.37694 0
M  V30 8820 C 837.882 0.25366 1.93948 0
M  V30 8821 C 838.262 -1.25041 1.70082 0
M  V30 8822 O 837.61 -2.03115 1.04674 0
M  V30 8823 C 837.82 0.621549 3.43421 0
M  V30 8824 C 839.168 0.588504 4.20502 0
M  V30 8825 O 840.192 0.560632 3.5176 0
M  V30 8826 O 839.051 0.61107 5.43073 0
M  V30 8827 H 836.145 0.0570586 0.825029 0
M  V30 8828 H 838.691 0.847693 1.47011 0
M  V30 8829 H 837.463 1.65979 3.54354 0
M  V30 8830 H 837.086 0.000197027 3.976 0
M  V30 8831 N 838.083 -1.48885 0.516809 0
M  V30 8832 C 839.311 -2.06892 -0.0184017 0
M  V30 8833 C 839.726 -1.37511 -1.29368 0
M  V30 8834 O 839.083 -0.458409 -1.76649 0
M  V30 8835 C 839.134 -3.60566 -0.259673 0
M  V30 8836 O 838.855 -4.27338 0.965065 0
M  V30 8837 C 840.356 -4.35331 -0.836751 0
M  V30 8838 H 837.576 -0.670433 0.0275743 0
M  V30 8839 H 840.12 -1.91455 0.718689 0
M  V30 8840 H 838.275 -3.75653 -0.94678 0
M  V30 8841 H 838.689 -5.19287 0.737647 0
M  V30 8842 H 840.163 -5.43675 -0.955065 0
M  V30 8843 H 840.64 -3.9887 -1.83845 0
M  V30 8844 H 841.246 -4.2489 -0.186622 0
M  V30 8845 N 839.561 -0.251338 -1.55583 0
M  V30 8846 C 840.789 0.376187 -2.03451 0
M  V30 8847 C 841.204 1.51215 -1.13047 0
M  V30 8848 O 840.561 1.81917 -0.145769 0
M  V30 8849 C 840.612 0.879779 -3.50631 0
M  V30 8850 O 840.333 -0.210917 -4.37592 0
M  V30 8851 C 841.834 1.57754 -4.14281 0
M  V30 8852 H 839.054 0.0888722 -0.665089 0
M  V30 8853 H 841.598 -0.376497 -2.01004 0
M  V30 8854 H 839.753 1.58263 -3.53598 0
M  V30 8855 H 840.167 0.172203 -5.24217 0
M  V30 8856 H 841.641 1.88158 -5.18942 0
M  V30 8857 H 842.118 2.50103 -3.61034 0
M  V30 8858 H 842.724 0.919154 -4.15249 0
M  V30 8859 N 841.039 1.57585 0.0217189 0
M  V30 8860 C 842.286 1.89606 0.711045 0
M  V30 8861 C 842.614 0.849535 1.74966 0
M  V30 8862 O 841.869 -0.14856 1.95135 0
M  V30 8863 C 842.168 3.28377 1.41079 0
M  V30 8864 C 841.834 4.48035 0.507454 0
M  V30 8865 C 840.496 4.80504 0.258672 0
M  V30 8866 C 842.848 5.21071 -0.115793 0
M  V30 8867 C 840.176 5.83393 -0.622013 0
M  V30 8868 C 842.528 6.24897 -0.984224 0
M  V30 8869 C 841.192 6.55836 -1.2424 0
M  V30 8870 H 840.462 0.693817 0.26019 0
M  V30 8871 H 843.109 1.91478 -0.0291424 0
M  V30 8872 H 841.414 3.22528 2.22448 0
M  V30 8873 H 843.111 3.50404 1.94982 0
M  V30 8874 H 839.701 4.22653 0.711516 0
M  V30 8875 H 843.885 4.96259 0.0634327 0
M  V30 8876 H 839.141 6.05736 -0.830267 0
M  V30 8877 H 843.315 6.8063 -1.47363 0
M  V30 8878 H 840.942 7.35383 -1.92653 0
M  V30 8879 N 842.517 -0.29412 1.54831 0
M  V30 8880 C 843.933 -0.640167 1.46199 0
M  V30 8881 C 844.133 -1.90426 0.658798 0
M  V30 8882 O 843.189 -2.51932 0.169228 0
M  V30 8883 C 844.502 -0.786763 2.90225 0
M  V30 8884 C 846.05 -0.882201 3.0031 0
M  V30 8885 C 846.525 -1.06074 4.45547 0
M  V30 8886 N 848.016 -1.12678 4.49286 0
M  V30 8887 C 848.751 -1.28334 5.58854 0
M  V30 8888 N 848.247 -1.40845 6.78332 0
M  V30 8889 N 850.04 -1.31277 5.46555 0
M  V30 8890 H 842.191 0.536334 2.05517 0
M  V30 8891 H 844.454 0.178363 0.93107 0
M  V30 8892 H 844.16 0.0713018 3.51628 0
M  V30 8893 H 844.034 -1.67364 3.38037 0
M  V30 8894 H 846.421 -1.73075 2.39017 0
M  V30 8895 H 846.502 0.0288405 2.55784 0
M  V30 8896 H 846.146 -0.216935 5.07437 0
M  V30 8897 H 846.076 -1.98611 4.8771 0
M  V30 8898 H 848.567 -1.04335 3.63212 0
M  V30 8899 H 848.88 -1.52566 7.57591 0
M  V30 8900 H 847.225 -1.37888 6.81184 0
M  V30 8901 H 850.416 -1.2112 4.52159 0
M  V30 8902 H 850.589 -1.43136 6.31994 0
M  V30 8903 N 843.995 -1.47404 -0.557645 0
M  V30 8904 C 845.272 -1.44488 -1.31843 0
M  V30 8905 C 845.652 -0.1416 -2.10625 0
M  V30 8906 O 845 0.876908 -2.11004 0
M  V30 8907 C 845.21 -2.69016 -2.22331 0
M  V30 8908 C 846.558 -3.16212 -2.83364 0
M  V30 8909 O 847.582 -2.69741 -2.32634 0
M  V30 8910 O 846.441 -3.96999 -3.75571 0
M  V30 8911 H 843.535 -0.57578 -0.593639 0
M  V30 8912 H 846.081 -1.59605 -0.576584 0
M  V30 8913 H 844.853 -3.55406 -1.63715 0
M  V30 8914 H 844.476 -2.56484 -3.03812 0
M  V30 8915 N 845.473 0.80434 -1.35529 0
M  V30 8916 C 846.436 1.89788 -1.28503 0
M  V30 8917 C 847.436 1.59601 -0.195983 0
M  V30 8918 O 848.626 1.68292 -0.449827 0
M  V30 8919 C 845.758 3.26255 -0.98847 0
M  V30 8920 H 846.951 1.97436 -2.25741 0
M  V30 8921 H 844.504 1.00046 -1.20086 0
M  V30 8922 H 845.239 3.24294 -0.0200541 0
M  V30 8923 H 845.024 3.49551 -1.77641 0
M  V30 8924 H 846.514 4.06298 -0.964975 0
M  V30 8925 N 846.951 1.19563 1.02676 0
M  V30 8926 C 847.901 0.903055 2.09354 0
M  V30 8927 C 848.885 -0.133009 1.60349 0
M  V30 8928 O 850.077 0.0729744 1.7685 0
M  V30 8929 C 847.206 0.445852 3.40392 0
M  V30 8930 C 846.292 1.51477 3.96126 0
M  V30 8931 N 846.683 2.73474 4.25495 0
M  V30 8932 C 844.981 1.37856 4.2416 0
M  V30 8933 C 845.682 3.42348 4.7029 0
M  V30 8934 N 844.658 2.69746 4.71952 0
M  V30 8935 H 848.46 1.83023 2.29956 0
M  V30 8936 H 845.974 1.08812 1.20556 0
M  V30 8937 H 847.971 0.21769 4.16331 0
M  V30 8938 H 846.631 -0.47482 3.2121 0
M  V30 8939 H 847.642 3.10217 4.14711 0
M  V30 8940 H 844.319 0.521512 4.1423 0
M  V30 8941 H 845.709 4.46686 5.01917 0
M  V30 8942 N 848.429 -1.21819 0.999893 0
M  V30 8943 C 849.361 -2.23356 0.514256 0
M  V30 8944 C 850.374 -1.5795 -0.394413 0
M  V30 8945 O 851.563 -1.77427 -0.195428 0
M  V30 8946 C 848.663 -3.37797 -0.273207 0
M  V30 8947 C 847.836 -4.32791 0.633293 0
M  V30 8948 C 846.895 -5.26098 -0.103673 0
M  V30 8949 O 845.921 -5.66881 0.513269 0
M  V30 8950 N 847.123 -5.63764 -1.38383 0
M  V30 8951 H 849.888 -2.65653 1.3874 0
M  V30 8952 H 847.449 -1.3619 0.875431 0
M  V30 8953 H 849.441 -3.97209 -0.775053 0
M  V30 8954 H 848.011 -2.94527 -1.0475 0
M  V30 8955 H 847.231 -3.71595 1.31571 0
M  V30 8956 H 848.519 -4.93196 1.25039 0
M  V30 8957 H 847.917 -5.32614 -1.90627 0
M  V30 8958 H 846.474 -6.25562 -1.83073 0
M  V30 8959 N 849.908 -0.773975 -1.37286 0
M  V30 8960 C 851.133 -0.349561 -2.04433 0
M  V30 8961 C 851.558 1.02082 -1.5799 0
M  V30 8962 O 850.916 1.65458 -0.741172 0
M  V30 8963 C 850.964 -0.404292 -3.58326 0
M  V30 8964 O 850.068 0.594447 -4.08093 0
M  V30 8965 H 849.409 -0.150959 -0.646612 0
M  V30 8966 H 851.939 -1.05079 -1.75555 0
M  V30 8967 H 851.949 -0.262378 -4.07155 0
M  V30 8968 H 850.624 -1.40403 -3.91484 0
M  V30 8969 H 849.201 0.415468 -3.70578 0
M  V30 8970 N 851.386 1.48609 -0.524698 0
M  V30 8971 C 852.316 2.32366 0.229837 0
M  V30 8972 C 853.297 1.41759 0.940129 0
M  V30 8973 O 854.482 1.7065 0.926936 0
M  V30 8974 C 851.612 3.22835 1.28043 0
M  V30 8975 C 850.566 4.22424 0.688603 0
M  V30 8976 C 849.892 5.0199 1.84146 0
M  V30 8977 C 851.192 5.21217 -0.336176 0
M  V30 8978 H 852.886 2.95698 -0.469339 0
M  V30 8979 H 850.432 1.42197 -0.227156 0
M  V30 8980 H 852.385 3.80253 1.8162 0
M  V30 8981 H 851.109 2.57492 2.00912 0
M  V30 8982 H 849.768 3.66185 0.174402 0
M  V30 8983 H 849.416 4.33076 2.5584 0
M  V30 8984 H 849.116 5.69392 1.45142 0
M  V30 8985 H 850.64 5.62259 2.38111 0
M  V30 8986 H 852.054 5.7319 0.112307 0
M  V30 8987 H 850.451 5.96642 -0.643324 0
M  V30 8988 H 851.521 4.68676 -1.24381 0
M  V30 8989 N 852.864 0.259585 1.55447 0
M  V30 8990 C 853.794 -0.62852 2.24882 0
M  V30 8991 C 854.775 -1.17128 1.23349 0
M  V30 8992 O 855.96 -1.20829 1.52033 0
M  V30 8993 C 853.09 -1.81983 2.95803 0
M  V30 8994 C 852.044 -1.40929 4.04132 0
M  V30 8995 C 851.37 -2.68246 4.62545 0
M  V30 8996 C 852.67 -0.570956 5.1917 0
M  V30 8997 H 854.364 -0.0495021 2.99359 0
M  V30 8998 H 851.91 -0.0223688 1.43983 0
M  V30 8999 H 853.863 -2.44689 3.43082 0
M  V30 9000 H 852.587 -2.42444 2.18835 0
M  V30 9001 H 851.246 -0.805519 3.57641 0
M  V30 9002 H 850.894 -3.26931 3.82263 0
M  V30 9003 H 850.594 -2.41495 5.35681 0
M  V30 9004 H 852.118 -3.31827 5.12565 0
M  V30 9005 H 853.532 -1.10262 5.62597 0
M  V30 9006 H 851.929 -0.398979 5.98772 0
M  V30 9007 H 852.999 0.413918 4.8313 0
M  V30 9008 N 854.342 -1.57594 -0.0133615 0
M  V30 9009 C 855.305 -2.06534 -0.993799 0
M  V30 9010 C 856.305 -0.972267 -1.28077 0
M  V30 9011 O 857.495 -1.23537 -1.22818 0
M  V30 9012 C 854.627 -2.49554 -2.3224 0
M  V30 9013 H 855.82 -2.94419 -0.570741 0
M  V30 9014 H 853.373 -1.54113 -0.260546 0
M  V30 9015 H 854.108 -1.64872 -2.79263 0
M  V30 9016 H 853.893 -3.29371 -2.12737 0
M  V30 9017 H 855.383 -2.8779 -3.026 0
M  V30 9018 N 855.82 0.285905 -1.54985 0
M  V30 9019 C 857.048 1.03776 -1.78992 0
M  V30 9020 C 857.463 1.80402 -0.556814 0
M  V30 9021 O 856.82 1.76242 0.473801 0
M  V30 9022 C 856.871 2.0065 -3.00702 0
M  V30 9023 O 856.592 1.27131 -4.19249 0
M  V30 9024 C 858.093 2.87753 -3.37214 0
M  V30 9025 H 855.313 0.307126 -0.596586 0
M  V30 9026 H 857.857 0.3206 -2.01971 0
M  V30 9027 H 856.012 2.67847 -2.79887 0
M  V30 9028 H 856.426 1.92316 -4.8797 0
M  V30 9029 H 857.9 3.51548 -4.2558 0
M  V30 9030 H 858.377 3.56848 -2.56039 0
M  V30 9031 H 858.983 2.26065 -3.60242 0
M  V30 9032 N 857.298 1.47698 0.54982 0
M  V30 9033 C 858.714 1.3338 0.876468 0
M  V30 9034 C 858.914 0.329837 1.98782 0
M  V30 9035 O 857.97 -0.256022 2.51199 0
M  V30 9036 C 859.283 2.72903 1.26272 0
M  V30 9037 C 860.831 2.81243 1.37373 0
M  V30 9038 C 861.306 4.21423 1.79351 0
M  V30 9039 N 862.797 4.24 1.86489 0
M  V30 9040 C 863.532 5.29386 2.20313 0
M  V30 9041 N 863.028 6.4507 2.527 0
M  V30 9042 N 864.821 5.16768 2.2115 0
M  V30 9043 H 856.972 2.11603 -0.183781 0
M  V30 9044 H 859.235 0.947798 -0.0195601 0
M  V30 9045 H 858.941 3.47836 0.519889 0
M  V30 9046 H 858.815 3.05151 2.21727 0
M  V30 9047 H 861.202 2.06577 2.10737 0
M  V30 9048 H 861.283 2.52639 0.400882 0
M  V30 9049 H 860.927 4.96597 1.06555 0
M  V30 9050 H 860.857 4.47456 2.77652 0
M  V30 9051 H 863.348 3.40547 1.63817 0
M  V30 9052 H 863.661 7.21236 2.77557 0
M  V30 9053 H 862.006 6.48377 2.50263 0
M  V30 9054 H 865.197 4.25416 1.95293 0
M  V30 9055 H 865.37 5.99004 2.4718 0
M  V30 9056 N 858.776 -0.797141 1.35954 0
M  V30 9057 C 860.022 -1.55698 1.29946 0
M  V30 9058 C 860.355 -1.93808 -0.123259 0
M  V30 9059 O 859.63 -1.62102 -1.07486 0
M  V30 9060 C 859.913 -2.83926 2.2149 0
M  V30 9061 C 859.766 -2.52232 3.72423 0
M  V30 9062 C 861.085 -3.85698 2.11955 0
M  V30 9063 H 858.204 -0.56488 0.47337 0
M  V30 9064 H 860.846 -0.916421 1.66438 0
M  V30 9065 H 858.996 -3.38588 1.905 0
M  V30 9066 H 860.668 -2.0368 4.13899 0
M  V30 9067 H 858.911 -1.85286 3.92239 0
M  V30 9068 H 859.582 -3.43782 4.31877 0
M  V30 9069 H 862.058 -3.40462 2.39218 0
M  V30 9070 H 860.934 -4.73182 2.78191 0
M  V30 9071 H 861.195 -4.28083 1.10442 0
M  V30 9072 N 860.254 -1.20106 -1.0204 0
M  V30 9073 C 861.67 -0.955099 -1.27867 0
M  V30 9074 C 861.87 0.367595 -1.98119 0
M  V30 9075 O 860.926 1.09705 -2.27423 0
M  V30 9076 C 862.239 -2.13507 -2.11744 0
M  V30 9077 C 863.787 -2.17563 -2.25023 0
M  V30 9078 C 864.262 -3.35035 -3.12275 0
M  V30 9079 N 865.753 -3.35024 -3.19864 0
M  V30 9080 C 866.488 -4.22566 -3.8759 0
M  V30 9081 N 865.984 -5.20278 -4.57474 0
M  V30 9082 N 867.777 -4.10418 -3.84075 0
M  V30 9083 H 859.928 -2.05193 -0.54861 0
M  V30 9084 H 862.191 -0.897689 -0.304728 0
M  V30 9085 H 861.897 -3.09275 -1.67456 0
M  V30 9086 H 861.771 -2.11281 -3.12474 0
M  V30 9087 H 864.158 -1.22359 -2.68537 0
M  V30 9088 H 864.239 -2.23838 -1.23815 0
M  V30 9089 H 863.883 -4.30522 -2.69468 0
M  V30 9090 H 863.813 -3.25996 -4.13563 0
M  V30 9091 H 866.304 -2.64299 -2.701 0
M  V30 9092 H 866.617 -5.83408 -5.06809 0
M  V30 9093 H 864.962 -5.24219 -4.56311 0
M  V30 9094 H 868.153 -3.33353 -3.28623 0
M  V30 9095 H 868.326 -4.78854 -4.36581 0
M  V30 9096 N 861.732 1.21287 -1.00634 0
M  V30 9097 C 862.96 1.94385 -0.708678 0
M  V30 9098 C 863.375 1.7416 0.728957 0
M  V30 9099 O 862.732 1.04906 1.49335 0
M  V30 9100 C 862.783 3.46755 -1.02193 0
M  V30 9101 O 862.504 3.6631 -2.40309 0
M  V30 9102 C 864.005 4.37014 -0.743867 0
M  V30 9103 H 861.225 0.618136 -0.261052 0
M  V30 9104 H 863.769 1.54067 -1.34475 0
M  V30 9105 H 861.924 3.8499 -0.431441 0
M  V30 9106 H 862.338 4.60393 -2.51274 0
M  V30 9107 H 863.812 5.42621 -1.01321 0
M  V30 9108 H 864.289 4.38017 0.322084 0
M  V30 9109 H 864.895 4.04426 -1.31603 0
M  V30 9110 N 863.21 0.781244 1.36873 0
M  V30 9111 C 864.16 0.147313 2.27524 0
M  V30 9112 C 865.144 -0.663928 1.46563 0
M  V30 9113 O 866.336 -0.525343 1.69024 0
M  V30 9114 C 863.465 -0.723511 3.35589 0
M  V30 9115 C 862.551 0.0960763 4.23991 0
M  V30 9116 N 862.942 1.14649 4.92635 0
M  V30 9117 C 861.24 -0.126397 4.45821 0
M  V30 9118 C 861.941 1.64474 5.57964 0
M  V30 9119 N 860.917 0.955316 5.3514 0
M  V30 9120 H 864.719 0.951406 2.78075 0
M  V30 9121 H 862.233 0.619913 1.50103 0
M  V30 9122 H 864.23 -1.19351 3.99451 0
M  V30 9123 H 862.89 -1.52624 2.86594 0
M  V30 9124 H 863.901 1.5288 4.94821 0
M  V30 9125 H 860.578 -0.900284 4.07678 0
M  V30 9126 H 861.968 2.52124 6.22803 0
M  V30 9127 N 864.689 -1.48329 0.532571 0
M  V30 9128 C 865.966 -1.95492 -0.0650985 0
M  V30 9129 C 866.346 -1.47485 -1.51034 0
M  V30 9130 O 865.694 -0.702516 -2.17433 0
M  V30 9131 C 865.904 -3.48957 0.0548341 0
M  V30 9132 C 867.252 -4.24475 -0.103115 0
M  V30 9133 O 868.276 -3.56195 -0.0188343 0
M  V30 9134 O 867.135 -5.45781 -0.280164 0
M  V30 9135 H 864.229 -0.823327 -0.0778603 0
M  V30 9136 H 866.775 -1.58839 0.597353 0
M  V30 9137 H 865.547 -3.76628 1.06148 0
M  V30 9138 H 865.17 -3.92311 -0.64635 0
M  V30 9139 N 866.167 -0.267825 -1.55308 0
M  V30 9140 C 867.097 0.616585 -2.25212 0
M  V30 9141 C 868.078 1.16472 -1.23969 0
M  V30 9142 O 869.263 1.20021 -1.52672 0
M  V30 9143 C 866.393 1.80412 -2.96764 0
M  V30 9144 C 865.347 1.38784 -4.04874 0
M  V30 9145 C 864.673 2.65789 -4.63961 0
M  V30 9146 C 865.973 0.543415 -5.19465 0
M  V30 9147 H 867.667 0.0336257 -2.99381 0
M  V30 9148 H 865.213 0.0147328 -1.43992 0
M  V30 9149 H 867.166 2.42866 -3.44375 0
M  V30 9150 H 865.89 2.4128 -2.20118 0
M  V30 9151 H 864.549 0.786541 -3.58063 0
M  V30 9152 H 864.197 3.24899 -3.83992 0
M  V30 9153 H 863.897 2.38651 -5.36954 0
M  V30 9154 H 865.421 3.29104 -5.14318 0
M  V30 9155 H 866.835 1.07277 -5.63174 0
M  V30 9156 H 865.232 0.367219 -5.98975 0
M  V30 9157 H 866.302 -0.439534 -4.82904 0
M  V30 9158 N 867.645 1.57599 0.00500368 0
M  V30 9159 C 868.592 2.08106 0.998025 0
M  V30 9160 C 869.562 0.975374 1.34446 0
M  V30 9161 O 870.747 1.24749 1.44369 0
M  V30 9162 C 867.887 2.58496 2.28635 0
M  V30 9163 C 867 3.82947 1.99939 0
M  V30 9164 C 866.135 4.21857 3.22816 0
M  V30 9165 C 865.174 5.39159 2.89783 0
M  V30 9166 N 864.311 5.73386 4.05183 0
M  V30 9167 H 869.151 2.92684 0.560385 0
M  V30 9168 H 866.688 1.44692 0.265053 0
M  V30 9169 H 868.646 2.85787 3.03943 0
M  V30 9170 H 867.276 1.768 2.70077 0
M  V30 9171 H 866.328 3.62594 1.1502 0
M  V30 9172 H 867.64 4.68358 1.71588 0
M  V30 9173 H 866.794 4.50404 4.06474 0
M  V30 9174 H 865.533 3.35145 3.54301 0
M  V30 9175 H 864.538 5.1034 2.04532 0
M  V30 9176 H 865.763 6.27543 2.59551 0
M  V30 9177 H 863.709 4.89632 4.36574 0
M  V30 9178 H 863.626 6.53359 3.80339 0
M  V30 9179 H 864.894 6.06522 4.89644 0
M  V30 9180 N 869.123 -0.277682 1.55134 0
M  V30 9181 C 870.07 -1.34313 1.87693 0
M  V30 9182 C 871.04 -1.49298 0.727973 0
M  V30 9183 O 872.225 -1.6378 0.978807 0
M  V30 9184 C 869.365 -2.69922 2.15026 0
M  V30 9185 C 868.478 -2.63197 3.42565 0
M  V30 9186 C 867.613 -3.90955 3.59622 0
M  V30 9187 C 866.652 -3.78722 4.8087 0
M  V30 9188 N 865.789 -4.98303 4.94609 0
M  V30 9189 H 870.629 -1.05847 2.78569 0
M  V30 9190 H 868.166 -0.511469 1.37922 0
M  V30 9191 H 870.124 -3.48817 2.28872 0
M  V30 9192 H 868.754 -2.966 1.2739 0
M  V30 9193 H 867.806 -1.76038 3.37216 0
M  V30 9194 H 869.118 -2.50056 4.31594 0
M  V30 9195 H 868.272 -4.78291 3.7326 0
M  V30 9196 H 867.011 -4.06957 2.6877 0
M  V30 9197 H 866.016 -2.89769 4.67241 0
M  V30 9198 H 867.241 -3.64242 5.73153 0
M  V30 9199 H 865.187 -5.14725 4.06687 0
M  V30 9200 H 865.104 -4.87675 5.77676 0
M  V30 9201 H 866.372 -5.87225 5.12628 0
M  V30 9202 N 870.601 -1.47988 -0.541979 0
M  V30 9203 C 871.85 -1.5465 -1.29485 0
M  V30 9204 C 872.163 -0.220041 -1.94358 0
M  V30 9205 O 873.369 -0.164792 -2.70999 0
M  V30 9206 C 871.825 -2.72685 -2.34885 0
M  V30 9207 C 871.433 -4.11923 -1.76134 0
M  V30 9208 C 873.177 -2.88651 -3.11257 0
M  V30 9209 C 871.084 -5.21237 -2.79404 0
M  V30 9210 H 870.014 -0.575688 -0.486928 0
M  V30 9211 H 872.665 -1.74296 -0.573853 0
M  V30 9212 H 871.047 -2.46448 -3.09966 0
M  V30 9213 H 872.221 -4.48128 -1.07322 0
M  V30 9214 H 870.536 -4.00972 -1.12295 0
M  V30 9215 H 873.133 -3.67487 -3.88404 0
M  V30 9216 H 873.476 -1.97658 -3.66384 0
M  V30 9217 H 874.009 -3.14731 -2.43288 0
M  V30 9218 H 870.748 -6.14156 -2.29113 0
M  V30 9219 H 870.268 -4.89533 -3.4658 0
M  V30 9220 H 871.947 -5.48839 -3.42615 0
M  V30 9221 N 872.079 0.78992 -1.36375 0
M  V30 9222 C 873.042 1.88414 -1.30509 0
M  V30 9223 C 874.042 1.59384 -0.2129 0
M  V30 9224 O 875.232 1.67805 -0.467651 0
M  V30 9225 C 872.364 3.25188 -1.02302 0
M  V30 9226 H 873.557 1.95031 -2.27822 0
M  V30 9227 H 871.11 0.987664 -1.2114 0
M  V30 9228 H 871.845 3.24254 -0.0544486 0
M  V30 9229 H 871.63 3.47647 -1.81338 0
M  V30 9230 H 873.12 4.05252 -1.00801 0
M  V30 9231 N 873.557 1.20646 1.01402 0
M  V30 9232 C 874.968 1.01823 1.56489 0
M  V30 9233 C 875.319 -0.42463 1.9155 0
M  V30 9234 O 874.444 -1.30644 1.72514 0
M  V30 9235 C 875.039 1.84208 2.84347 0
M  V30 9236 C 873.598 1.69743 3.35953 0
M  V30 9237 C 872.745 1.8198 2.09233 0
M  V30 9238 H 875.696 1.348 0.837539 0
M  V30 9239 H 875.717 1.34698 3.55861 0
M  V30 9240 H 875.229 2.89215 2.58798 0
M  V30 9241 H 873.33 0.673833 3.66456 0
M  V30 9242 H 873.443 2.51173 4.07981 0
M  V30 9243 H 871.807 1.25193 2.21808 0
M  V30 9244 H 872.59 2.88477 1.86107 0
M  V30 9245 N 875.035 -1.20752 1.01276 0
M  V30 9246 C 876.265 -1.93725 0.717934 0
M  V30 9247 C 876.673 -1.74769 -0.724732 0
M  V30 9248 O 876.016 -1.05642 -1.50285 0
M  V30 9249 C 876.078 -3.46196 0.968954 0
M  V30 9250 C 875.742 -3.88909 2.39998 0
M  V30 9251 C 876.739 -3.94982 3.38061 0
M  V30 9252 C 874.424 -4.21006 2.7397 0
M  V30 9253 C 876.418 -4.32558 4.68159 0
M  V30 9254 C 874.105 -4.58257 4.04282 0
M  V30 9255 C 875.103 -4.64004 5.01187 0
M  V30 9256 O 874.791 -5.00403 6.29168 0
M  V30 9257 H 874.523 -0.622663 0.263186 0
M  V30 9258 H 877.077 -1.54299 1.35577 0
M  V30 9259 H 875.307 -3.85728 0.273952 0
M  V30 9260 H 876.996 -4.00394 0.666312 0
M  V30 9261 H 877.762 -3.70353 3.13151 0
M  V30 9262 H 873.641 -4.15725 1.99233 0
M  V30 9263 H 877.185 -4.36959 5.43795 0
M  V30 9264 H 873.082 -4.82341 4.28973 0
M  V30 9265 H 873.85 -5.18409 6.33399 0
M  V30 9266 N 876.513 -0.788492 -1.36457 0
M  V30 9267 C 877.759 -0.360995 -1.99561 0
M  V30 9268 C 878.092 1.06433 -1.62437 0
M  V30 9269 O 877.367 1.7352 -0.878705 0
M  V30 9270 C 877.65 -0.523735 -3.56271 0
M  V30 9271 C 877.503 -1.99268 -4.03252 0
M  V30 9272 C 878.822 0.0617908 -4.40057 0
M  V30 9273 H 875.941 -0.13264 -0.724966 0
M  V30 9274 H 878.583 -0.994659 -1.61884 0
M  V30 9275 H 876.733 0.0156979 -3.88497 0
M  V30 9276 H 878.405 -2.59311 -3.81518 0
M  V30 9277 H 876.648 -2.49561 -3.54826 0
M  V30 9278 H 877.319 -2.05752 -5.12221 0
M  V30 9279 H 879.795 -0.398674 -4.14186 0
M  V30 9280 H 878.671 -0.0821089 -5.48839 0
M  V30 9281 H 878.932 1.15381 -4.26778 0
M  V30 9282 N 877.991 1.48044 -0.54043 0
M  V30 9283 C 878.954 2.28273 0.205966 0
M  V30 9284 C 879.954 1.35983 0.858209 0
M  V30 9285 O 881.144 1.58776 0.716651 0
M  V30 9286 C 878.276 3.15174 1.29917 0
M  V30 9287 H 879.469 2.95727 -0.498555 0
M  V30 9288 H 877.022 1.53457 -0.296745 0
M  V30 9289 H 877.757 2.52374 2.03661 0
M  V30 9290 H 877.542 3.83074 0.836475 0
M  V30 9291 H 879.032 3.75666 1.82387 0
M  V30 9292 N 879.47 0.276058 1.55163 0
M  V30 9293 C 880.42 -0.625549 2.19251 0
M  V30 9294 C 881.404 -1.11769 1.15744 0
M  V30 9295 O 882.596 -1.0626 1.41555 0
M  V30 9296 C 879.725 -1.80879 2.91784 0
M  V30 9297 C 878.811 -1.33379 4.0258 0
M  V30 9298 N 879.202 -0.575002 5.02521 0
M  V30 9299 C 877.5 -1.61666 4.15668 0
M  V30 9300 C 878.201 -0.325164 5.8079 0
M  V30 9301 N 877.177 -0.897851 5.36134 0
M  V30 9302 H 880.979 -0.0379943 2.93875 0
M  V30 9303 H 878.493 0.079661 1.62205 0
M  V30 9304 H 880.49 -2.466 3.36146 0
M  V30 9305 H 879.15 -2.40028 2.1867 0
M  V30 9306 H 880.161 -0.222256 5.17423 0
M  V30 9307 H 876.838 -2.21745 3.53745 0
M  V30 9308 H 878.228 0.282598 6.71305 0
M  V30 9309 N 880.948 -1.576 0.00335426 0
M  V30 9310 C 881.896 -2.09759 -1.00517 0
M  V30 9311 C 882.89 -1.01833 -1.35375 0
M  V30 9312 O 884.096 -1.20294 -1.339 0
M  V30 9313 H 880.471 -0.669821 -0.341825 0
M  V30 9314 H 882.442 -2.93478 -0.539718 0
M  V30 9315 C 881.191 -2.6189 -2.28711 0
M  V30 9316 H 880.514 -3.44571 -2.02758 0
M  V30 9317 H 881.954 -3.02061 -2.97548 0
M  V30 9318 C 880.413 -1.53455 -2.99922 0
M  V30 9319 O 880.943 -0.919402 -3.91037 0
M  V30 9320 N 879.149 -1.2612 -2.61806 0
M  V30 9321 H 878.696 -1.76329 -1.87792 0
M  V30 9322 H 878.654 -0.537872 -3.09765 0
M  V30 9323 N 882.426 0.269451 -1.5528 0
M  V30 9324 C 883.673 1.00058 -1.76053 0
M  V30 9325 C 884.001 1.86156 -0.563592 0
M  V30 9326 O 883.256 1.90366 0.453806 0
M  V30 9327 C 883.555 1.91 -3.02082 0
M  V30 9328 C 883.221 1.20623 -4.34466 0
M  V30 9329 C 881.883 1.01165 -4.70446 0
M  V30 9330 C 884.235 0.705695 -5.164 0
M  V30 9331 C 881.563 0.303865 -5.85913 0
M  V30 9332 C 883.915 0.0114838 -6.32599 0
M  V30 9333 C 882.579 -0.19478 -6.67216 0
M  V30 9334 H 881.849 0.366138 -0.644223 0
M  V30 9335 H 884.496 0.272563 -1.8955 0
M  V30 9336 H 882.801 2.70435 -2.835 0
M  V30 9337 H 884.498 2.47698 -3.15352 0
M  V30 9338 H 881.088 1.36781 -4.06188 0
M  V30 9339 H 885.272 0.84364 -4.89077 0
M  V30 9340 H 880.528 0.133368 -6.11255 0
M  V30 9341 H 884.702 -0.384111 -6.9534 0
M  V30 9342 H 882.329 -0.745201 -7.56539 0
M  V30 9343 N 883.904 1.48273 0.534124 0
M  V30 9344 C 885.129 1.59988 1.31979 0
M  V30 9345 C 885.554 0.258824 1.86311 0
M  V30 9346 O 884.912 -0.768885 1.64188 0
M  V30 9347 C 884.96 2.64642 2.44943 0
M  V30 9348 O 884.064 2.21515 3.47858 0
M  V30 9349 H 883.405 0.536625 0.391063 0
M  V30 9350 H 885.935 1.94229 0.643135 0
M  V30 9351 H 885.945 2.85786 2.91187 0
M  V30 9352 H 884.62 3.62004 2.04758 0
M  V30 9353 H 883.197 2.10567 3.0776 0
M  V30 9354 N 885.382 -0.782676 1.36792 0
M  V30 9355 C 886.329 -1.89558 1.31667 0
M  V30 9356 C 887.299 -1.65076 0.184147 0
M  V30 9357 O 888.484 -1.87143 0.371753 0
M  V30 9358 C 885.624 -3.26469 1.11858 0
M  V30 9359 C 884.737 -3.62978 2.34245 0
M  V30 9360 C 883.872 -4.89041 2.07394 0
M  V30 9361 C 882.911 -5.18249 3.25706 0
M  V30 9362 N 882.048 -6.35497 2.98476 0
M  V30 9363 H 886.888 -1.93274 2.26824 0
M  V30 9364 H 884.425 -0.945057 1.12726 0
M  V30 9365 H 886.383 -4.05431 0.983968 0
M  V30 9366 H 885.013 -3.22158 0.203531 0
M  V30 9367 H 884.065 -2.79087 2.58485 0
M  V30 9368 H 885.377 -3.80507 3.22514 0
M  V30 9369 H 884.531 -5.75883 1.90901 0
M  V30 9370 H 883.27 -4.73594 1.16446 0
M  V30 9371 H 882.275 -4.29887 3.4275 0
M  V30 9372 H 883.5 -5.35611 4.1749 0
M  V30 9373 H 881.446 -6.21429 2.10146 0
M  V30 9374 H 881.363 -6.5339 3.80286 0
M  V30 9375 H 882.631 -7.25304 2.85577 0
M  V30 9376 N 886.86 -1.21182 -1.00761 0
M  V30 9377 C 887.79 -0.992773 -2.11344 0
M  V30 9378 C 888.771 0.0813618 -1.69905 0
M  V30 9379 O 889.956 -0.0779503 -1.94043 0
M  V30 9380 C 887.086 -0.553826 -3.42856 0
M  V30 9381 C 886.04 -1.57223 -3.98077 0
M  V30 9382 C 885.366 -0.989605 -5.25463 0
M  V30 9383 C 886.666 -2.95839 -4.30438 0
M  V30 9384 H 888.36 -1.91766 -2.29927 0
M  V30 9385 H 885.906 -0.923426 -1.10494 0
M  V30 9386 H 887.859 -0.387771 -4.19612 0
M  V30 9387 H 886.583 0.406702 -3.24058 0
M  V30 9388 H 885.242 -1.7258 -3.23437 0
M  V30 9389 H 884.89 -0.0208743 -5.02996 0
M  V30 9390 H 884.59 -1.66984 -5.63374 0
M  V30 9391 H 886.114 -0.834815 -6.04866 0
M  V30 9392 H 887.528 -2.8394 -4.98047 0
M  V30 9393 H 885.925 -3.60851 -4.79486 0
M  V30 9394 H 886.995 -3.46882 -3.38823 0
M  V30 9395 N 888.338 1.20213 -1.01915 0
M  V30 9396 C 889.585 1.89647 -0.709955 0
M  V30 9397 C 889.913 1.7901 0.760631 0
M  V30 9398 O 889.168 1.17028 1.56853 0
M  V30 9399 C 889.467 3.40232 -1.09438 0
M  V30 9400 C 889.133 3.7107 -2.5616 0
M  V30 9401 C 887.795 3.79196 -2.96249 0
M  V30 9402 C 890.147 3.85169 -3.51133 0
M  V30 9403 C 887.475 3.98882 -4.30244 0
M  V30 9404 C 889.827 4.06365 -4.8482 0
M  V30 9405 C 888.491 4.12722 -5.24611 0
M  V30 9406 H 887.761 0.693967 -0.259791 0
M  V30 9407 H 890.408 1.42419 -1.2802 0
M  V30 9408 H 888.713 3.89292 -0.442596 0
M  V30 9409 H 890.41 3.92257 -0.832811 0
M  V30 9410 H 887 3.65346 -2.24099 0
M  V30 9411 H 891.184 3.78243 -3.21319 0
M  V30 9412 H 886.44 4.02039 -4.60624 0
M  V30 9413 H 890.614 4.16216 -5.58334 0
M  V30 9414 H 888.241 4.27728 -6.28453 0
M  V30 9415 N 889.816 0.795718 1.36037 0
M  V30 9416 C 891.041 0.38204 2.03851 0
M  V30 9417 C 891.466 -0.995553 1.59594 0
M  V30 9418 O 890.824 -1.64258 0.767401 0
M  V30 9419 C 890.872 0.461248 3.57638 0
M  V30 9420 O 889.976 -0.529448 4.08987 0
M  V30 9421 H 889.317 0.161227 0.644129 0
M  V30 9422 H 891.847 1.07858 1.73861 0
M  V30 9423 H 891.857 0.32712 4.06687 0
M  V30 9424 H 890.532 1.46613 3.89201 0
M  V30 9425 H 889.109 -0.35646 3.71192 0
M  V30 9426 N 891.294 -1.47756 0.548274 0
M  V30 9427 C 892.227 -2.26804 -0.252059 0
M  V30 9428 C 893.205 -1.3349 -0.928389 0
M  V30 9429 O 894.389 -1.6286 -0.949156 0
M  V30 9430 C 891.516 -3.10266 -1.35841 0
M  V30 9431 C 890.562 -4.1909 -0.791578 0
M  V30 9432 S 891.395 -5.34323 0.354878 0
M  V30 9433 C 892.551 -6.21348 -0.753511 0
M  V30 9434 H 892.784 -2.94336 0.418744 0
M  V30 9435 H 890.317 -1.50735 0.334413 0
M  V30 9436 H 892.275 -3.58925 -1.99207 0
M  V30 9437 H 890.936 -2.42112 -2.00101 0
M  V30 9438 H 890.129 -4.77183 -1.62212 0
M  V30 9439 H 889.731 -3.73266 -0.234274 0
M  V30 9440 H 892.023 -6.57156 -1.6478 0
M  V30 9441 H 892.966 -7.07788 -0.210141 0
M  V30 9442 H 893.374 -5.54797 -1.04216 0
M  V30 9443 N 892.772 -0.284283 -1.55015 0
M  V30 9444 C 893.682 0.60906 -2.26556 0
M  V30 9445 C 894.698 1.16246 -1.29472 0
M  V30 9446 O 895.874 1.1908 -1.62425 0
M  V30 9447 C 892.939 1.77246 -2.97968 0
M  V30 9448 C 892 1.25482 -4.10552 0
M  V30 9449 C 891.233 2.36277 -4.78549 0
M  V30 9450 O 891.456 3.55829 -4.45805 0
M  V30 9451 O 890.39 2.03914 -5.66306 0
M  V30 9452 H 894.216 0.0292298 -3.03686 0
M  V30 9453 H 891.801 -0.0513466 -1.49312 0
M  V30 9454 H 893.683 2.45062 -3.42815 0
M  V30 9455 H 892.358 2.33921 -2.23747 0
M  V30 9456 H 891.265 0.542859 -3.7014 0
M  V30 9457 H 892.598 0.733708 -4.86701 0
M  V30 9458 N 894.251 1.57596 -0.0117121 0
M  V30 9459 C 895.199 2.1029 0.994035 0
M  V30 9460 C 896.193 1.02549 1.34833 0
M  V30 9461 O 897.399 1.21003 1.3326 0
M  V30 9462 H 893.774 0.671624 0.338268 0
M  V30 9463 H 895.745 2.93761 0.524147 0
M  V30 9464 C 894.494 2.63099 2.27319 0
M  V30 9465 H 893.817 3.45642 2.00927 0
M  V30 9466 H 895.257 3.03635 2.95942 0
M  V30 9467 C 893.716 1.55044 2.99104 0
M  V30 9468 O 894.246 0.940127 3.90544 0
M  V30 9469 N 892.452 1.27506 2.61133 0
M  V30 9470 H 891.999 1.77322 1.86855 0
M  V30 9471 H 891.957 0.554292 3.09475 0
M  V30 9472 N 895.729 -0.261212 1.5542 0
M  V30 9473 C 896.975 -0.988533 1.77763 0
M  V30 9474 C 897.33 -1.83504 0.578286 0
M  V30 9475 O 896.623 -1.8674 -0.428808 0
M  V30 9476 C 896.817 -1.89395 3.03091 0
M  V30 9477 C 896.646 -1.13658 4.351 0
M  V30 9478 C 895.416 -0.847467 4.98143 0
M  V30 9479 C 897.614 -0.52118 5.11652 0
M  V30 9480 N 895.596 -0.0645324 6.13866 0
M  V30 9481 C 896.967 0.127016 6.1987 0
M  V30 9482 C 899.022 -0.430206 4.96038 0
M  V30 9483 C 897.725 0.857433 7.14171 0
M  V30 9484 C 899.751 0.286645 5.90705 0
M  V30 9485 C 899.113 0.923534 6.9832 0
M  V30 9486 H 895.212 -0.343317 0.702608 0
M  V30 9487 H 897.796 -0.263035 1.92915 0
M  V30 9488 H 895.967 -2.5916 2.89293 0
M  V30 9489 H 897.699 -2.55576 3.13788 0
M  V30 9490 H 894.454 -1.15569 4.59283 0
M  V30 9491 H 894.878 0.31461 6.76269 0
M  V30 9492 H 899.52 -0.908278 4.12929 0
M  V30 9493 H 897.238 1.34715 7.96792 0
M  V30 9494 H 900.824 0.357511 5.80701 0
M  V30 9495 H 899.704 1.46939 7.70311 0
M  V30 9496 N 897.207 -1.48554 -0.526253 0
M  V30 9497 C 898.455 -1.56452 -1.27935 0
M  V30 9498 C 898.776 -0.24184 -1.93495 0
M  V30 9499 O 898.046 0.736917 -1.81511 0
M  V30 9500 H 896.626 -0.576379 -0.47518 0
M  V30 9501 H 899.288 -1.85039 -0.612083 0
M  V30 9502 H 898.384 -2.34751 -2.05666 0
M  V30 9503 N 898.685 0.775411 -1.37205 0
M  V30 9504 C 899.933 1.53081 -1.3195 0
M  V30 9505 C 900.254 1.9476 0.0966864 0
M  V30 9506 O 899.524 1.66019 1.03993 0
M  V30 9507 H 898.104 0.567762 -0.485444 0
M  V30 9508 H 900.766 0.92309 -1.71654 0
M  V30 9509 H 899.862 2.4319 -1.95614 0
M  V30 9510 N 900.163 1.21714 1.00117 0
M  V30 9511 C 901.126 0.981338 2.07129 0
M  V30 9512 C 902.126 -0.0491116 1.60725 0
M  V30 9513 O 903.316 0.188555 1.73177 0
M  V30 9514 C 900.448 0.480608 3.37495 0
M  V30 9515 H 901.641 1.93075 2.29482 0
M  V30 9516 H 899.194 1.03467 1.17151 0
M  V30 9517 H 899.929 -0.473552 3.20824 0
M  V30 9518 H 899.714 1.22393 3.72508 0
M  V30 9519 H 901.204 0.33561 4.16249 0
M  V30 9520 N 901.641 -1.19671 1.02551 0
M  V30 9521 C 902.869 -1.93233 0.739513 0
M  V30 9522 C 903.284 -1.75298 -0.701158 0
M  V30 9523 O 902.641 -1.07269 -1.47647 0
M  V30 9524 C 902.692 -3.45085 1.07697 0
M  V30 9525 O 902.413 -3.62441 2.46106 0
M  V30 9526 C 903.914 -4.35776 0.813298 0
M  V30 9527 H 901.134 -0.613905 0.270853 0
M  V30 9528 H 903.678 -1.51909 1.36909 0
M  V30 9529 H 901.833 -3.84255 0.492635 0
M  V30 9530 H 902.247 -4.56337 2.58567 0
M  V30 9531 H 903.721 -5.40941 1.09941 0
M  V30 9532 H 904.198 -4.38474 -0.252359 0
M  V30 9533 H 904.804 -4.02282 1.38021 0
M  V30 9534 N 903.119 -0.802921 -1.35613 0
M  V30 9535 C 904.366 -0.381576 -1.98872 0
M  V30 9536 C 904.694 1.0503 -1.63704 0
M  V30 9537 O 903.949 1.7427 -0.890418 0
M  V30 9538 C 904.248 -0.507806 -3.53774 0
M  V30 9539 C 903.914 -1.90245 -4.088 0
M  V30 9540 C 902.576 -2.28401 -4.2354 0
M  V30 9541 C 904.928 -2.81504 -4.3864 0
M  V30 9542 C 902.256 -3.57192 -4.65436 0
M  V30 9543 C 904.608 -4.09737 -4.81973 0
M  V30 9544 C 903.272 -4.47897 -4.94919 0
M  V30 9545 H 902.542 -0.139629 -0.727726 0
M  V30 9546 H 905.189 -1.023 -1.61886 0
M  V30 9547 H 903.494 0.21708 -3.91198 0
M  V30 9548 H 905.191 -0.162625 -4.0067 0
M  V30 9549 H 901.781 -1.596 -3.97776 0
M  V30 9550 H 905.965 -2.53276 -4.26808 0
M  V30 9551 H 901.221 -3.86611 -4.73648 0
M  V30 9552 H 905.395 -4.80555 -5.04024 0
M  V30 9553 H 903.022 -5.47747 -5.27141 0
M  V30 9554 N 904.597 1.47463 -0.556102 0
M  V30 9555 C 905.874 1.9557 0.0339892 0
M  V30 9556 C 906.254 1.49869 1.48669 0
M  V30 9557 O 905.602 0.737019 2.16288 0
M  V30 9558 C 905.812 3.48826 -0.110343 0
M  V30 9559 C 907.16 4.24585 0.0355716 0
M  V30 9560 O 908.184 3.5618 -0.0378356 0
M  V30 9561 O 907.043 5.46158 0.193299 0
M  V30 9562 H 904.137 0.824461 0.0647521 0
M  V30 9563 H 906.683 1.57868 -0.622547 0
M  V30 9564 H 905.455 3.74891 -1.12126 0
M  V30 9565 H 905.078 3.9329 0.583855 0
M  V30 9566 N 906.075 0.2925 1.54862 0
M  V30 9567 C 907.321 -0.319736 2.00264 0
M  V30 9568 C 907.654 -1.5419 1.18064 0
M  V30 9569 O 906.929 -1.92821 0.254983 0
M  V30 9570 C 907.212 -0.684753 3.5353 0
M  V30 9571 C 907.065 0.545961 4.46474 0
M  V30 9572 C 908.384 -1.51456 4.13218 0
M  V30 9573 H 905.503 -0.11474 0.728014 0
M  V30 9574 H 908.145 0.402907 1.85679 0
M  V30 9575 H 906.295 -1.30044 3.66089 0
M  V30 9576 H 907.967 1.18448 4.45834 0
M  V30 9577 H 906.21 1.1808 4.1742 0
M  V30 9578 H 906.881 0.246544 5.51449 0
M  V30 9579 H 909.357 -0.994421 4.04043 0
M  V30 9580 H 908.233 -1.73875 5.20633 0
M  V30 9581 H 908.494 -2.5011 3.64551 0
M  V30 9582 N 907.553 -1.57587 0.0200696 0
M  V30 9583 C 908.516 -2.08595 -0.949767 0
M  V30 9584 C 909.516 -0.999215 -1.25985 0
M  V30 9585 O 910.706 -1.26115 -1.2017 0
M  V30 9586 C 907.838 -2.54424 -2.26895 0
M  V30 9587 H 909.031 -2.95563 -0.508161 0
M  V30 9588 H 906.584 -1.54631 -0.227798 0
M  V30 9589 H 907.319 -1.70758 -2.75703 0
M  V30 9590 H 907.104 -3.3381 -2.05702 0
M  V30 9591 H 908.594 -2.94144 -2.96427 0
M  V30 9592 N 909.032 0.252966 -1.55557 0
M  V30 9593 C 909.965 1.33928 -1.84766 0
M  V30 9594 C 910.943 1.46653 -0.702254 0
M  V30 9595 O 912.127 1.62963 -0.947375 0
M  V30 9596 C 909.254 2.71348 -2.02701 0
M  V30 9597 C 908.3 2.75804 -3.25322 0
M  V30 9598 S 909.133 2.33025 -4.82141 0
M  V30 9599 C 910.289 3.72382 -5.03073 0
M  V30 9600 H 910.522 1.08951 -2.76617 0
M  V30 9601 H 908.055 0.45364 -1.47585 0
M  V30 9602 H 910.013 3.50478 -2.13718 0
M  V30 9603 H 908.674 2.93566 -1.11703 0
M  V30 9604 H 907.867 3.76713 -3.34819 0
M  V30 9605 H 907.469 2.04713 -3.12999 0
M  V30 9606 H 909.761 4.67828 -4.90044 0
M  V30 9607 H 910.704 3.67824 -6.05071 0
M  V30 9608 H 911.112 3.64614 -4.30949 0
M  V30 9609 N 910.51 1.48831 0.518367 0
M  V30 9610 C 911.926 1.35209 0.847979 0
M  V30 9611 C 912.126 0.371927 1.98038 0
M  V30 9612 O 911.182 -0.202681 2.51685 0
M  V30 9613 C 912.495 2.7552 1.20455 0
M  V30 9614 C 914.043 2.84094 1.31377 0
M  V30 9615 C 914.518 4.25132 1.70372 0
M  V30 9616 N 916.009 4.27861 1.77453 0
M  V30 9617 C 916.744 5.3394 2.09035 0
M  V30 9618 N 916.24 6.50285 2.3896 0
M  V30 9619 N 918.033 5.21343 2.10139 0
M  V30 9620 H 910.184 2.11166 -0.228624 0
M  V30 9621 H 912.447 0.94717 -0.0396599 0
M  V30 9622 H 912.153 3.48861 0.445991 0
M  V30 9623 H 912.027 3.09785 2.15204 0
M  V30 9624 H 914.414 2.11001 2.06307 0
M  V30 9625 H 914.495 2.53433 0.347203 0
M  V30 9626 H 914.139 4.98745 0.959975 0
M  V30 9627 H 914.069 4.53245 2.68098 0
M  V30 9628 H 916.56 3.43945 1.56557 0
M  V30 9629 H 916.873 7.26961 2.62196 0
M  V30 9630 H 915.218 6.5354 2.36454 0
M  V30 9631 H 918.409 4.29462 1.86225 0
M  V30 9632 H 918.582 6.04112 2.34419 0
M  V30 9633 N 911.988 -0.768124 1.37614 0
M  V30 9634 C 913.235 -1.5268 1.33022 0
M  V30 9635 C 913.563 -1.94318 -0.0841918 0
M  V30 9636 O 912.818 -1.64623 -1.0582 0
M  V30 9637 C 913.117 -2.80204 2.21856 0
M  V30 9638 C 912.783 -2.57602 3.7007 0
M  V30 9639 C 911.445 -2.51146 4.10462 0
M  V30 9640 C 913.797 -2.37482 4.63952 0
M  V30 9641 C 911.125 -2.22566 5.42846 0
M  V30 9642 C 913.477 -2.10425 5.96577 0
M  V30 9643 C 912.141 -2.02416 6.36069 0
M  V30 9644 H 911.411 -0.558697 0.486763 0
M  V30 9645 H 914.058 -0.88447 1.69851 0
M  V30 9646 H 912.363 -3.49014 1.78034 0
M  V30 9647 H 914.06 -3.38099 2.15615 0
M  V30 9648 H 910.65 -2.63491 3.38039 0
M  V30 9649 H 914.834 -2.41457 4.33604 0
M  V30 9650 H 910.09 -2.14863 5.72402 0
M  V30 9651 H 914.264 -1.93857 6.68874 0
M  V30 9652 H 911.891 -1.80034 7.38574 0
M  V30 9653 N 913.466 -1.22244 -0.994698 0
M  V30 9654 C 914.396 -1.01513 -2.10279 0
M  V30 9655 C 915.377 0.0633365 -1.69982 0
M  V30 9656 O 916.562 -0.0985268 -1.9395 0
M  V30 9657 C 913.692 -0.59016 -3.42249 0
M  V30 9658 C 912.646 -1.61436 -3.96387 0
M  V30 9659 C 911.972 -1.04528 -5.24383 0
M  V30 9660 C 913.272 -3.00388 -4.27276 0
M  V30 9661 H 914.966 -1.94194 -2.2788 0
M  V30 9662 H 912.512 -0.935094 -1.09508 0
M  V30 9663 H 914.465 -0.432254 -4.19177 0
M  V30 9664 H 913.189 0.372308 -3.24471 0
M  V30 9665 H 911.848 -1.76001 -3.21589 0
M  V30 9666 H 911.496 -0.0742225 -5.02945 0
M  V30 9667 H 911.196 -1.72949 -5.61571 0
M  V30 9668 H 912.72 -0.898922 -6.03947 0
M  V30 9669 H 914.134 -2.89207 -4.95007 0
M  V30 9670 H 912.531 -3.65916 -4.75631 0
M  V30 9671 H 913.601 -3.50456 -3.35125 0
M  V30 9672 N 914.944 1.19125 -1.03184 0
M  V30 9673 C 916.174 1.92558 -0.748663 0
M  V30 9674 C 916.582 1.759 0.696837 0
M  V30 9675 O 915.925 1.08019 1.48585 0
M  V30 9676 C 915.987 3.4461 -1.02391 0
M  V30 9677 C 915.651 3.85041 -2.46155 0
M  V30 9678 C 916.648 3.89554 -3.44302 0
M  V30 9679 C 914.333 4.16594 -2.80633 0
M  V30 9680 C 916.327 4.25055 -4.74981 0
M  V30 9681 C 914.014 4.51767 -4.11521 0
M  V30 9682 C 915.012 4.55972 -5.08506 0
M  V30 9683 O 914.7 4.9033 -6.37049 0
M  V30 9684 H 914.432 0.618397 -0.273059 0
M  V30 9685 H 916.986 1.52122 -1.38015 0
M  V30 9686 H 915.216 3.85244 -0.335284 0
M  V30 9687 H 916.905 3.99283 -0.729927 0
M  V30 9688 H 917.671 3.65324 -3.19003 0
M  V30 9689 H 913.55 4.12503 -2.05821 0
M  V30 9690 H 917.094 4.28252 -5.50678 0
M  V30 9691 H 912.991 4.75455 -4.36592 0
M  V30 9692 H 913.759 5.08266 -6.41566 0
M  V30 9693 N 916.422 0.810101 1.35185 0
M  V30 9694 C 917.332 0.224565 2.33523 0
M  V30 9695 C 918.348 -0.634287 1.62027 0
M  V30 9696 O 919.524 -0.545211 1.9388 0
M  V30 9697 C 916.589 -0.614319 3.41214 0
M  V30 9698 C 915.65 0.265435 4.28479 0
M  V30 9699 C 914.883 -0.533506 5.31027 0
M  V30 9700 O 915.106 -1.7679 5.42311 0
M  V30 9701 O 914.04 0.0774573 6.0185 0
M  V30 9702 H 917.866 1.03815 2.85405 0
M  V30 9703 H 915.451 0.571964 1.38018 0
M  V30 9704 H 917.333 -1.09201 4.07005 0
M  V30 9705 H 916.008 -1.40545 2.91597 0
M  V30 9706 H 914.915 0.790343 3.65656 0
M  V30 9707 H 916.248 1.0206 4.81503 0
M  V30 9708 N 917.9 -1.47166 0.563914 0
M  V30 9709 C 919.14 -2.04351 0.0448121 0
M  V30 9710 C 919.504 -1.42808 -1.28336 0
M  V30 9711 O 920.705 -1.91079 -1.89056 0
M  V30 9712 C 918.976 -3.57378 -0.0395795 0
M  V30 9713 S 920.535 -4.35898 -0.503833 0
M  V30 9714 H 917.353 -0.710433 0.0283795 0
M  V30 9715 H 919.955 -1.80451 0.752166 0
M  V30 9716 H 918.659 -3.99693 0.931326 0
M  V30 9717 H 918.19 -3.85785 -0.770282 0
M  V30 9718 H 920.205 -4.63852 -1.76225 0
M  V30 9719 N 919.378 -0.300708 -1.54705 0
M  V30 9720 C 920.789 0.191995 -1.8571 0
M  V30 9721 C 921.14 1.53447 -1.22264 0
M  V30 9722 O 920.265 2.10054 -0.520226 0
M  V30 9723 C 920.86 0.355148 -3.36933 0
M  V30 9724 C 919.419 0.792071 -3.67972 0
M  V30 9725 C 918.566 -0.099756 -2.77121 0
M  V30 9726 H 921.517 -0.521729 -1.49879 0
M  V30 9727 H 921.538 1.18977 -3.61421 0
M  V30 9728 H 921.05 -0.622075 -3.83082 0
M  V30 9729 H 919.151 1.77986 -3.27341 0
M  V30 9730 H 919.264 0.611661 -4.75179 0
M  V30 9731 H 917.628 0.420909 -2.51198 0
M  V30 9732 H 918.411 -1.07333 -3.2609 0
M  V30 9733 N 920.856 1.57574 -0.0284266 0
M  V30 9734 C 922.102 1.92884 0.645544 0
M  V30 9735 C 922.457 0.905203 1.69776 0
M  V30 9736 O 921.75 -0.0788509 1.91438 0
M  V30 9737 C 921.944 3.32699 1.3056 0
M  V30 9738 C 921.773 4.48568 0.318848 0
M  V30 9739 C 920.543 5.05235 -0.0810373 0
M  V30 9740 C 922.741 5.12528 -0.426575 0
M  V30 9741 N 920.723 6.04626 -1.06303 0
M  V30 9742 C 922.094 6.07013 -1.26235 0
M  V30 9743 C 924.149 4.95509 -0.48735 0
M  V30 9744 C 922.852 6.8631 -2.15341 0
M  V30 9745 C 924.878 5.75414 -1.36575 0
M  V30 9746 C 924.24 6.69514 -2.1893 0
M  V30 9747 H 920.339 0.753677 0.208555 0
M  V30 9748 H 922.923 1.94466 -0.095439 0
M  V30 9749 H 921.094 3.31938 2.01673 0
M  V30 9750 H 922.826 3.55359 1.93655 0
M  V30 9751 H 919.581 4.72691 0.293264 0
M  V30 9752 H 920.005 6.59012 -1.55025 0
M  V30 9753 H 924.647 4.22584 0.135112 0
M  V30 9754 H 922.365 7.58541 -2.78642 0
M  V30 9755 H 925.951 5.64279 -1.41705 0
M  V30 9756 H 924.831 7.30266 -2.85799 0
M  V30 9757 N 922.334 -0.244713 1.55689 0
M  V30 9758 C 923.75 -0.593331 1.48161 0
M  V30 9759 C 923.95 -1.88234 0.719047 0
M  V30 9760 O 923.006 -2.51266 0.249292 0
M  V30 9761 C 924.319 -0.694032 2.92581 0
M  V30 9762 C 925.867 -0.786213 3.02965 0
M  V30 9763 C 926.342 -0.918457 4.48696 0
M  V30 9764 N 927.833 -0.983272 4.52643 0
M  V30 9765 C 928.568 -1.1049 5.62654 0
M  V30 9766 N 928.064 -1.19193 6.8247 0
M  V30 9767 N 929.857 -1.13823 5.50455 0
M  V30 9768 H 922.008 0.601446 2.03707 0
M  V30 9769 H 924.271 0.207894 0.924924 0
M  V30 9770 H 923.977 0.183133 3.51223 0
M  V30 9771 H 923.851 -1.56525 3.4319 0
M  V30 9772 H 926.238 -1.65383 2.44402 0
M  V30 9773 H 926.319 0.110202 2.55563 0
M  V30 9774 H 925.963 -0.0553881 5.0787 0
M  V30 9775 H 925.893 -1.82994 4.93782 0
M  V30 9776 H 928.384 -0.927269 3.66347 0
M  V30 9777 H 928.697 -1.28387 7.62061 0
M  V30 9778 H 927.042 -1.16147 6.85226 0
M  V30 9779 H 930.233 -1.06673 4.55783 0
M  V30 9780 H 930.406 -1.22957 6.36228 0
M  V30 9781 N 923.813 -1.49104 -0.510467 0
M  V30 9782 C 925.229 -1.35657 -0.840797 0
M  V30 9783 C 925.429 -0.382425 -1.97838 0
M  V30 9784 O 924.485 0.189331 -2.51789 0
M  V30 9785 C 925.798 -2.76155 -1.18992 0
M  V30 9786 C 927.346 -2.84786 -1.29868 0
M  V30 9787 C 927.821 -4.2603 -1.68115 0
M  V30 9788 N 929.312 -4.28796 -1.75181 0
M  V30 9789 C 930.047 -5.35041 -2.062 0
M  V30 9790 N 929.543 -6.51543 -2.35508 0
M  V30 9791 N 931.336 -5.2245 -2.07371 0
M  V30 9792 H 923.487 -2.11042 0.23982 0
M  V30 9793 H 925.75 -0.946946 0.0446824 0
M  V30 9794 H 925.456 -3.49092 -0.427484 0
M  V30 9795 H 925.33 -3.10922 -2.13558 0
M  V30 9796 H 927.717 -2.12092 -2.05186 0
M  V30 9797 H 927.798 -2.53613 -0.333758 0
M  V30 9798 H 927.442 -4.99247 -0.933512 0
M  V30 9799 H 927.372 -4.5466 -2.65691 0
M  V30 9800 H 929.863 -3.44771 -1.5473 0
M  V30 9801 H 930.176 -7.28342 -2.58337 0
M  V30 9802 H 928.521 -6.54785 -2.32985 0
M  V30 9803 H 931.712 -4.30444 -1.83945 0
M  V30 9804 H 931.885 -6.05347 -2.31212 0
M  V30 9805 N 925.291 0.760815 -1.38019 0
M  V30 9806 C 926.221 1.88811 -1.37377 0
M  V30 9807 C 927.202 1.68388 -0.240737 0
M  V30 9808 O 928.387 1.89086 -0.442739 0
M  V30 9809 C 925.517 3.26244 -1.1909 0
M  V30 9810 C 924.471 3.61254 -2.29521 0
M  V30 9811 C 923.797 4.97346 -1.96345 0
M  V30 9812 C 925.097 3.66874 -3.71753 0
M  V30 9813 H 926.791 1.89606 -2.31711 0
M  V30 9814 H 924.337 0.910818 -1.11535 0
M  V30 9815 H 926.29 4.04755 -1.17267 0
M  V30 9816 H 925.014 3.2591 -0.212152 0
M  V30 9817 H 923.673 2.85057 -2.30517 0
M  V30 9818 H 923.321 4.93564 -0.969728 0
M  V30 9819 H 923.021 5.21739 -2.703 0
M  V30 9820 H 924.545 5.78244 -1.96129 0
M  V30 9821 H 925.959 4.35514 -3.72828 0
M  V30 9822 H 924.356 4.02772 -4.44853 0
M  V30 9823 H 925.426 2.67273 -4.0459 0
M  V30 9824 N 926.769 1.22769 0.988202 0
M  V30 9825 C 927.701 0.959757 2.08138 0
M  V30 9826 C 928.714 -0.0633787 1.62677 0
M  V30 9827 O 929.903 0.171203 1.77677 0
M  V30 9828 C 927.003 0.422724 3.36253 0
M  V30 9829 C 926.176 1.50419 4.10722 0
M  V30 9830 C 925.235 0.973407 5.17118 0
M  V30 9831 O 924.261 1.66066 5.44436 0
M  V30 9832 N 925.463 -0.202787 5.80146 0
M  V30 9833 H 928.228 1.9009 2.31702 0
M  V30 9834 H 925.789 1.13522 1.15431 0
M  V30 9835 H 927.781 0.0528514 4.04665 0
M  V30 9836 H 926.351 -0.423642 3.09716 0
M  V30 9837 H 925.571 2.04718 3.36874 0
M  V30 9838 H 926.859 2.23169 4.57245 0
M  V30 9839 H 926.257 -0.777856 5.60327 0
M  V30 9840 H 924.814 -0.513998 6.4977 0
M  V30 9841 N 928.247 -1.18576 1.03814 0
M  V30 9842 C 929.157 -2.25778 0.637311 0
M  V30 9843 C 930.173 -1.7074 -0.335248 0
M  V30 9844 O 931.349 -2.00494 -0.19081 0
M  V30 9845 C 928.414 -3.467 0.00386953 0
M  V30 9846 C 927.475 -4.16881 1.02511 0
M  V30 9847 C 926.708 -5.32031 0.421802 0
M  V30 9848 O 926.931 -5.65142 -0.772699 0
M  V30 9849 O 925.865 -5.90826 1.14925 0
M  V30 9850 H 929.691 -2.62323 1.53037 0
M  V30 9851 H 927.276 -1.25609 0.80887 0
M  V30 9852 H 929.158 -4.19953 -0.348873 0
M  V30 9853 H 927.833 -3.11983 -0.863047 0
M  V30 9854 H 926.74 -3.45707 1.4296 0
M  V30 9855 H 928.073 -4.55592 1.86271 0
M  V30 9856 N 929.725 -0.817259 -1.34754 0
M  V30 9857 C 930.655 -0.249769 -2.3216 0
M  V30 9858 C 931.636 0.630663 -1.57977 0
M  V30 9859 O 932.821 0.558719 -1.85989 0
M  V30 9860 C 929.951 0.593825 -3.42186 0
M  V30 9861 C 928.905 -0.188997 -4.27583 0
M  V30 9862 C 928.231 0.776979 -5.29025 0
M  V30 9863 C 929.531 -1.39401 -5.03354 0
M  V30 9864 H 931.225 -1.06359 -2.79872 0
M  V30 9865 H 928.771 -0.512894 -1.34556 0
M  V30 9866 H 930.724 1.00097 -4.09339 0
M  V30 9867 H 929.448 1.44064 -2.93109 0
M  V30 9868 H 928.107 -0.577445 -3.62024 0
M  V30 9869 H 927.755 1.61959 -4.76212 0
M  V30 9870 H 927.455 0.257448 -5.87036 0
M  V30 9871 H 928.979 1.18211 -5.99048 0
M  V30 9872 H 930.393 -1.06117 -5.63393 0
M  V30 9873 H 928.79 -1.84878 -5.70912 0
M  V30 9874 H 929.86 -2.17515 -4.33377 0
M  V30 9875 N 931.203 1.46865 -0.571711 0
M  V30 9876 C 932.619 1.57897 -0.23255 0
M  V30 9877 C 932.819 1.56836 1.26509 0
M  V30 9878 O 931.875 1.47947 2.04617 0
M  V30 9879 C 933.188 2.87778 -0.872036 0
M  V30 9880 C 934.736 3.01389 -0.844605 0
M  V30 9881 C 935.211 4.33991 -1.46343 0
M  V30 9882 N 936.702 4.40662 -1.42727 0
M  V30 9883 C 937.437 5.41858 -1.87557 0
M  V30 9884 N 936.933 6.49787 -2.4031 0
M  V30 9885 N 938.726 5.32992 -1.7854 0
M  V30 9886 H 930.877 1.45798 -1.54457 0
M  V30 9887 H 933.14 0.694785 -0.644964 0
M  V30 9888 H 932.846 2.94332 -1.92513 0
M  V30 9889 H 932.72 3.75345 -0.373677 0
M  V30 9890 H 935.107 2.94423 0.19984 0
M  V30 9891 H 935.188 2.15327 -1.38087 0
M  V30 9892 H 934.832 4.41714 -2.50701 0
M  V30 9893 H 934.762 5.18809 -0.902479 0
M  V30 9894 H 937.253 3.63263 -1.04155 0
M  V30 9895 H 937.566 7.23199 -2.72403 0
M  V30 9896 H 935.911 6.50637 -2.44329 0
M  V30 9897 H 939.102 4.47575 -1.37093 0
M  V30 9898 H 939.275 6.11716 -2.13794 0
M  V30 9899 N 932.681 0.308908 1.54543 0
M  V30 9900 C 933.591 -0.572939 2.27496 0
M  V30 9901 C 934.607 -1.14171 1.31305 0
M  V30 9902 O 935.783 -1.16481 1.64299 0
M  V30 9903 C 932.848 -1.72483 3.0075 0
M  V30 9904 C 931.909 -1.18934 4.12496 0
M  V30 9905 C 931.142 -2.28634 4.82247 0
M  V30 9906 O 931.365 -3.48691 4.5141 0
M  V30 9907 O 930.299 -1.94879 5.69478 0
M  V30 9908 H 934.125 0.0190877 3.03694 0
M  V30 9909 H 931.71 0.0750943 1.49211 0
M  V30 9910 H 933.592 -2.39578 3.46671 0
M  V30 9911 H 932.267 -2.30332 2.2744 0
M  V30 9912 H 931.174 -0.483904 3.70957 0
M  V30 9913 H 932.507 -0.656185 4.87806 0
M  V30 9914 N 934.159 -1.57557 0.0367827 0
M  V30 9915 C 935.089 -2.13712 -0.940719 0
M  V30 9916 C 936.07 -1.05515 -1.33419 0
M  V30 9917 O 937.255 -1.33385 -1.41146 0
M  V30 9918 C 934.385 -2.67043 -2.22048 0
M  V30 9919 C 933.339 -3.80096 -1.96752 0
M  V30 9920 C 932.665 -4.19886 -3.31059 0
M  V30 9921 C 933.965 -5.05848 -1.30058 0
M  V30 9922 H 935.659 -2.9564 -0.473033 0
M  V30 9923 H 933.205 -1.42214 -0.226089 0
M  V30 9924 H 935.158 -3.04964 -2.90818 0
M  V30 9925 H 933.882 -1.82287 -2.70996 0
M  V30 9926 H 932.541 -3.42625 -1.30398 0
M  V30 9927 H 932.189 -3.32101 -3.77781 0
M  V30 9928 H 931.889 -4.96073 -3.14937 0
M  V30 9929 H 933.413 -4.60395 -4.01084 0
M  V30 9930 H 934.827 -5.41306 -1.8884 0
M  V30 9931 H 933.224 -5.87084 -1.24309 0
M  V30 9932 H 934.294 -4.84122 -0.274591 0
M  V30 9933 N 935.637 0.236453 -1.55816 0
M  V30 9934 C 936.886 0.960981 -1.77336 0
M  V30 9935 C 937.199 1.86085 -0.602641 0
M  V30 9936 O 938.405 2.62291 -0.701106 0
M  V30 9937 C 936.861 1.75884 -3.13995 0
M  V30 9938 C 936.469 0.905849 -4.38746 0
M  V30 9939 C 938.213 2.47548 -3.44848 0
M  V30 9940 C 936.12 1.7002 -5.66434 0
M  V30 9941 H 935.05 0.362547 -0.661117 0
M  V30 9942 H 937.701 0.215303 -1.82233 0
M  V30 9943 H 936.083 2.54687 -3.03234 0
M  V30 9944 H 937.257 0.159415 -4.60524 0
M  V30 9945 H 935.572 0.30205 -4.15303 0
M  V30 9946 H 938.169 3.07452 -4.37467 0
M  V30 9947 H 938.512 3.19689 -2.66655 0
M  V30 9948 H 939.045 1.75747 -3.56872 0
M  V30 9949 H 935.784 1.02234 -6.47479 0
M  V30 9950 H 935.304 2.42164 -5.48741 0
M  V30 9951 H 936.983 2.26469 -6.0607 0
M  V30 9952 N 937.115 1.49373 0.502552 0
M  V30 9953 C 938.526 1.52 1.0841 0
M  V30 9954 C 938.877 0.305317 1.9381 0
M  V30 9955 O 938.002 -0.585023 2.08342 0
M  V30 9956 C 938.597 2.75437 1.97281 0
M  V30 9957 C 937.156 2.80848 2.50602 0
M  V30 9958 C 936.303 2.45894 1.28186 0
M  V30 9959 H 939.254 1.56092 0.286533 0
M  V30 9960 H 939.275 2.55511 2.81947 0
M  V30 9961 H 938.787 3.63827 1.35098 0
M  V30 9962 H 936.888 1.96735 3.16427 0
M  V30 9963 H 937.001 3.82979 2.8786 0
M  V30 9964 H 935.365 1.97639 1.60657 0
M  V30 9965 H 936.148 3.36556 0.677139 0
M  V30 9966 N 938.594 -0.753485 1.38421 0
M  V30 9967 C 939.542 -1.8886 1.35774 0
M  V30 9968 C 940.536 -1.67639 0.243608 0
M  V30 9969 O 941.742 -1.75206 0.412649 0
M  V30 9970 H 938.117 -0.62137 0.42356 0
M  V30 9971 H 940.088 -1.88209 2.3156 0
M  V30 9972 C 938.837 -3.26344 1.19979 0
M  V30 9973 H 938.16 -3.43259 2.04971 0
M  V30 9974 H 939.6 -4.06015 1.22181 0
M  V30 9975 C 938.059 -3.36771 -0.0932867 0
M  V30 9976 O 938.589 -3.8718 -1.07027 0
M  V30 9977 N 936.795 -2.90212 -0.150154 0
M  V30 9978 H 936.342 -2.4938 0.645562 0
M  V30 9979 H 936.3 -2.97569 -1.0149 0
M  V30 9980 N 940.072 -1.23292 -0.981677 0
M  V30 9981 C 941.321 -1.05832 -1.71705 0
M  V30 9982 C 941.634 0.40514 -1.91358 0
M  V30 9983 O 942.84 0.699645 -2.6233 0
M  V30 9984 C 941.296 -1.84532 -3.08992 0
M  V30 9985 C 940.904 -3.35199 -2.9723 0
M  V30 9986 C 942.648 -1.75557 -3.86497 0
M  V30 9987 C 940.555 -4.06296 -4.29741 0
M  V30 9988 H 939.485 -0.39241 -0.64384 0
M  V30 9989 H 942.136 -1.47247 -1.09502 0
M  V30 9990 H 940.518 -1.35923 -3.71942 0
M  V30 9991 H 941.692 -3.91286 -2.43377 0
M  V30 9992 H 940.007 -3.44973 -2.332 0
M  V30 9993 H 942.604 -2.25989 -4.84596 0
M  V30 9994 H 942.947 -0.718101 -4.1006 0
M  V30 9995 H 943.48 -2.21771 -3.30246 0
M  V30 9996 H 940.219 -5.10344 -4.11375 0
M  V30 9997 H 939.739 -3.54997 -4.83464 0
M  V30 9998 H 941.418 -4.12519 -4.98434 0
M  V30 9999 N 941.55 1.18024 -1.04442 0
M  V30 10000 C 942.961 1.69749 -0.777312 0
M  V30 10001 C 943.312 1.83234 0.701399 0
M  V30 10002 O 942.437 1.51452 1.54568 0
M  V30 10003 C 943.032 3.08321 -1.40441 0
M  V30 10004 C 941.591 3.57243 -1.18553 0
M  V30 10005 C 940.738 2.33695 -1.49271 0
M  V30 10006 H 943.689 1.02647 -1.21035 0
M  V30 10007 H 943.71 3.71787 -0.809628 0
M  V30 10008 H 943.222 2.98474 -2.48062 0
M  V30 10009 H 941.323 3.72379 -0.128221 0
M  V30 10010 H 941.436 4.40451 -1.88519 0
M  V30 10011 H 939.8 2.37792 -0.912526 0
M  V30 10012 H 940.583 2.26464 -2.5801 0
M  V30 10013 N 943.028 0.824394 1.34319 0
M  V30 10014 C 944.275 0.413167 1.9824 0
M  V30 10015 C 944.603 -1.02412 1.65354 0
M  V30 10016 O 943.858 -1.72831 0.91803 0
M  V30 10017 C 944.157 0.564024 3.52921 0
M  V30 10018 C 943.823 1.96725 4.05722 0
M  V30 10019 C 942.485 2.35111 4.19853 0
M  V30 10020 C 944.837 2.88447 4.34106 0
M  V30 10021 C 942.165 3.64551 4.59695 0
M  V30 10022 C 944.517 4.17353 4.75394 0
M  V30 10023 C 943.181 4.55714 4.8773 0
M  V30 10024 H 942.451 0.151188 0.725412 0
M  V30 10025 H 945.098 1.04863 1.60238 0
M  V30 10026 H 943.403 -0.154816 3.91494 0
M  V30 10027 H 945.1 0.226347 4.00361 0
M  V30 10028 H 941.69 1.65908 3.95187 0
M  V30 10029 H 945.874 2.60034 4.22725 0
M  V30 10030 H 941.13 3.94097 4.67437 0
M  V30 10031 H 945.304 4.88512 4.96315 0
M  V30 10032 H 942.931 5.56064 5.1836 0
M  V30 10033 N 944.506 -1.46559 0.579492 0
M  V30 10034 C 945.438 -2.28383 -0.19337 0
M  V30 10035 C 946.451 -1.38324 -0.858511 0
M  V30 10036 O 947.64 -1.62952 -0.728615 0
M  V30 10037 C 944.74 -3.13262 -1.29306 0
M  V30 10038 C 943.913 -4.31426 -0.720459 0
M  V30 10039 C 942.972 -4.97728 -1.70744 0
M  V30 10040 O 941.998 -5.55423 -1.24476 0
M  V30 10041 N 943.2 -4.94445 -3.04146 0
M  V30 10042 H 945.965 -2.95353 0.508611 0
M  V30 10043 H 943.526 -1.56436 0.417046 0
M  V30 10044 H 945.518 -3.54483 -1.95254 0
M  V30 10045 H 944.088 -2.48388 -1.89795 0
M  V30 10046 H 943.308 -3.94028 0.116398 0
M  V30 10047 H 944.596 -5.07808 -0.31763 0
M  V30 10048 H 943.994 -4.4881 -3.44363 0
M  V30 10049 H 942.551 -5.39616 -3.65592 0
M  V30 10050 N 945.984 -0.3171 -1.54377 0
M  V30 10051 C 946.917 0.594178 -2.20329 0
M  V30 10052 C 947.895 1.12067 -1.17812 0
M  V30 10053 O 949.079 1.18588 -1.46524 0
M  V30 10054 C 946.206 1.81463 -2.85987 0
M  V30 10055 C 945.252 1.41996 -4.02168 0
M  V30 10056 S 946.085 0.462159 -5.33502 0
M  V30 10057 C 947.241 1.69004 -6.02651 0
M  V30 10058 H 947.474 0.0339261 -2.97281 0
M  V30 10059 H 945.007 -0.101196 -1.54068 0
M  V30 10060 H 946.965 2.51494 -3.2444 0
M  V30 10061 H 945.626 2.34606 -2.08851 0
M  V30 10062 H 944.819 2.32921 -4.4695 0
M  V30 10063 H 944.421 0.799423 -3.65356 0
M  V30 10064 H 946.713 2.62839 -6.24437 0
M  V30 10065 H 947.656 1.28451 -6.96352 0
M  V30 10066 H 948.064 1.87408 -5.32483 0
M  V30 10067 N 947.462 1.57535 -0.0451378 0
M  V30 10068 C 948.392 2.14208 0.929372 0
M  V30 10069 C 949.373 1.06221 1.32858 0
M  V30 10070 O 950.558 1.34132 1.40436 0
M  V30 10071 C 947.688 2.68217 2.20629 0
M  V30 10072 C 946.642 3.81134 1.94734 0
M  V30 10073 C 945.968 4.21636 3.28828 0
M  V30 10074 C 947.268 5.06531 1.27374 0
M  V30 10075 H 948.962 2.95886 0.457348 0
M  V30 10076 H 946.508 1.42332 0.218544 0
M  V30 10077 H 948.461 3.06502 2.89196 0
M  V30 10078 H 947.185 1.83722 2.70026 0
M  V30 10079 H 945.844 3.43312 1.28579 0
M  V30 10080 H 945.492 3.34099 3.76014 0
M  V30 10081 H 945.192 4.97736 3.12302 0
M  V30 10082 H 946.716 4.62516 3.98637 0
M  V30 10083 H 948.13 5.423 1.85967 0
M  V30 10084 H 946.527 5.87735 1.21194 0
M  V30 10085 H 947.597 4.84261 0.248913 0
M  V30 10086 N 948.94 -0.228186 1.55939 0
M  V30 10087 C 949.87 -1.28607 1.94891 0
M  V30 10088 C 950.851 -1.49236 0.816245 0
M  V30 10089 O 952.036 -1.61531 1.07803 0
M  V30 10090 C 949.166 -2.63719 2.25986 0
M  V30 10091 C 948.12 -2.57757 3.4168 0
M  V30 10092 C 947.446 -3.96837 3.58364 0
M  V30 10093 C 948.746 -2.13116 4.76843 0
M  V30 10094 H 950.44 -0.962531 2.83506 0
M  V30 10095 H 947.986 -0.461577 1.36402 0
M  V30 10096 H 949.939 -3.37878 2.51826 0
M  V30 10097 H 948.663 -2.97747 1.34217 0
M  V30 10098 H 947.322 -1.86055 3.15878 0
M  V30 10099 H 946.97 -4.28162 2.63982 0
M  V30 10100 H 946.67 -3.93731 4.36176 0
M  V30 10101 H 948.194 -4.72668 3.86545 0
M  V30 10102 H 949.608 -2.77015 5.01932 0
M  V30 10103 H 948.005 -2.21083 5.57891 0
M  V30 10104 H 949.075 -1.08326 4.72645 0
M  V30 10105 N 950.418 -1.49637 -0.494624 0
M  V30 10106 C 951.834 -1.36541 -0.826361 0
M  V30 10107 C 952.034 -0.403386 -1.97421 0
M  V30 10108 O 951.09 0.162614 -2.51976 0
M  V30 10109 C 952.403 -2.77401 -1.16057 0
M  V30 10110 C 953.951 -2.86148 -1.26841 0
M  V30 10111 C 954.426 -4.27789 -1.63587 0
M  V30 10112 N 955.917 -4.3063 -1.70624 0
M  V30 10113 C 956.652 -5.37198 -2.00514 0
M  V30 10114 N 956.148 -6.54004 -2.28584 0
M  V30 10115 N 957.941 -5.2462 -2.01818 0
M  V30 10116 H 950.092 -2.10776 0.26219 0
M  V30 10117 H 952.355 -0.946419 0.0547235 0
M  V30 10118 H 952.061 -3.49526 -0.390434 0
M  V30 10119 H 951.935 -3.1317 -2.10249 0
M  V30 10120 H 954.322 -2.14256 -2.02925 0
M  V30 10121 H 954.403 -2.53953 -0.30684 0
M  V30 10122 H 954.047 -5.00209 -0.880507 0
M  V30 10123 H 953.977 -4.57453 -2.60854 0
M  V30 10124 H 956.468 -3.46393 -1.51065 0
M  V30 10125 H 956.781 -7.31041 -2.50598 0
M  V30 10126 H 955.126 -6.57219 -2.26027 0
M  V30 10127 H 958.317 -4.32371 -1.79369 0
M  V30 10128 H 958.49 -6.07765 -2.24778 0
M  V30 10129 N 951.896 0.746133 -1.38819 0
M  V30 10130 C 953.144 1.50247 -1.35167 0
M  V30 10131 C 953.465 1.94921 0.0553531 0
M  V30 10132 O 952.735 1.68187 1.00449 0
M  V30 10133 H 951.315 0.557337 -0.497377 0
M  V30 10134 H 953.977 0.886472 -1.73573 0
M  V30 10135 H 953.073 2.38986 -2.00728 0
M  V30 10136 N 953.375 1.23811 0.975125 0
M  V30 10137 C 954.338 1.02505 2.05001 0
M  V30 10138 C 955.338 -0.0150084 1.60793 0
M  V30 10139 O 956.528 0.225246 1.72738 0
M  V30 10140 C 953.66 0.552087 3.364 0
M  V30 10141 H 954.853 1.979 2.25335 0
M  V30 10142 H 952.406 1.05929 1.1493 0
M  V30 10143 H 953.141 -0.405394 3.21756 0
M  V30 10144 H 952.926 1.30267 3.69828 0
M  V30 10145 H 954.416 0.423828 4.15444 0
M  V30 10146 N 954.853 -1.17469 1.05066 0
M  V30 10147 C 955.801 -2.23495 0.644418 0
M  V30 10148 C 956.795 -1.66081 -0.333685 0
M  V30 10149 O 958.001 -1.78887 -0.199886 0
M  V30 10150 H 954.376 -0.727546 0.190214 0
M  V30 10151 H 956.347 -2.55058 1.5488 0
M  V30 10152 C 955.096 -3.47684 0.0338051 0
M  V30 10153 H 954.419 -3.92167 0.777513 0
M  V30 10154 H 955.859 -4.23464 -0.213086 0
M  V30 10155 C 954.318 -3.14067 -1.21915 0
M  V30 10156 O 954.848 -3.28728 -2.3087 0
M  V30 10157 N 953.054 -2.68304 -1.11631 0
M  V30 10158 H 952.601 -2.56574 -0.229673 0
M  V30 10159 H 952.559 -2.46184 -1.95553 0
M  V30 10160 N 956.331 -0.831506 -1.3388 0
M  V30 10161 C 957.294 -0.264773 -2.27666 0
M  V30 10162 C 958.294 0.562273 -1.50649 0
M  V30 10163 O 959.484 0.377131 -1.70069 0
M  V30 10164 C 956.616 0.627814 -3.35069 0
M  V30 10165 H 957.809 -1.09225 -2.79303 0
M  V30 10166 H 955.362 -0.604021 -1.44157 0
M  V30 10167 H 956.097 1.47802 -2.88661 0
M  V30 10168 H 955.882 0.0361552 -3.92083 0
M  V30 10169 H 957.372 1.01786 -4.05005 0
M  V30 10170 N 957.809 1.4625 -0.587256 0
M  V30 10171 C 959.055 2.02662 -0.0746851 0
M  V30 10172 C 959.388 1.45723 1.28368 0
M  V30 10173 O 958.663 0.624062 1.84216 0
M  V30 10174 C 958.946 3.60097 -0.0138109 0
M  V30 10175 C 958.799 4.27412 -1.4014 0
M  V30 10176 C 960.118 4.34744 0.684491 0
M  V30 10177 H 957.237 0.736444 -0.0286144 0
M  V30 10178 H 959.879 1.74341 -0.755328 0
M  V30 10179 H 958.029 3.84357 0.56583 0
M  V30 10180 H 959.701 4.14401 -2.02656 0
M  V30 10181 H 957.944 3.86598 -1.96785 0
M  V30 10182 H 958.615 5.362 -1.31124 0
M  V30 10183 H 961.091 4.15657 0.192023 0
M  V30 10184 H 959.967 5.44468 0.696127 0
M  V30 10185 H 960.228 4.06132 1.74669 0
M  V30 10186 N 959.287 0.325282 1.54207 0
M  V30 10187 C 960.535 -0.276229 2.00203 0
M  V30 10188 C 960.856 -1.52519 1.21503 0
M  V30 10189 O 960.126 -1.93313 0.317302 0
M  V30 10190 H 958.706 -0.105059 0.739575 0
M  V30 10191 H 961.368 0.442225 1.89817 0
M  V30 10192 H 960.464 -0.531427 3.07542 0
M  V30 10193 N 960.765 -1.57509 0.0534917 0
M  V30 10194 C 961.995 -1.96812 -0.628386 0
M  V30 10195 C 962.403 -0.929808 -1.64776 0
M  V30 10196 O 961.746 0.0941155 -1.83459 0
M  V30 10197 C 961.808 -3.32361 -1.37027 0
M  V30 10198 C 961.472 -4.54185 -0.506465 0
M  V30 10199 C 962.469 -5.19398 0.228412 0
M  V30 10200 C 960.154 -5.00398 -0.43671 0
M  V30 10201 C 962.148 -6.29162 1.02146 0
M  V30 10202 C 959.835 -6.10039 0.360022 0
M  V30 10203 C 960.833 -6.74282 1.08779 0
M  V30 10204 O 960.521 -7.81814 1.87142 0
M  V30 10205 H 960.253 -0.65257 -0.176432 0
M  V30 10206 H 962.807 -2.05067 0.116908 0
M  V30 10207 H 961.037 -3.20667 -2.16125 0
M  V30 10208 H 962.726 -3.56395 -1.94261 0
M  V30 10209 H 963.492 -4.84651 0.184003 0
M  V30 10210 H 959.371 -4.50183 -0.992772 0
M  V30 10211 H 962.915 -6.79238 1.59002 0
M  V30 10212 H 958.812 -6.44222 0.406061 0
M  V30 10213 H 959.58 -7.98602 1.79378 0
M  V30 10214 N 962.243 0.219913 -1.56058 0
M  V30 10215 C 963.471 0.960915 -1.83232 0
M  V30 10216 C 963.886 1.77878 -0.632828 0
M  V30 10217 O 963.243 1.78093 0.398624 0
M  V30 10218 C 963.294 1.87716 -3.08942 0
M  V30 10219 O 963.015 1.09235 -4.24263 0
M  V30 10220 C 964.516 2.73192 -3.49115 0
M  V30 10221 H 961.736 0.281546 -0.609075 0
M  V30 10222 H 964.28 0.234648 -2.03149 0
M  V30 10223 H 962.435 2.55736 -2.90995 0
M  V30 10224 H 962.849 1.71446 -4.95688 0
M  V30 10225 H 964.323 3.33181 -4.40107 0
M  V30 10226 H 964.8 3.45668 -2.70943 0
M  V30 10227 H 965.406 2.10583 -3.69506 0
M  V30 10228 N 963.721 1.49897 0.486681 0
M  V30 10229 C 964.669 1.68125 1.60738 0
M  V30 10230 C 965.663 0.547097 1.60322 0
M  V30 10231 O 966.869 0.727153 1.64659 0
M  V30 10232 H 963.244 0.530391 0.533094 0
M  V30 10233 H 965.215 2.62165 1.42521 0
M  V30 10234 C 963.964 1.77827 2.98786 0
M  V30 10235 H 963.287 2.6448 2.99818 0
M  V30 10236 H 964.727 1.94611 3.76699 0
M  V30 10237 C 963.186 0.526287 3.32764 0
M  V30 10238 O 963.716 -0.341607 4.00245 0
M  V30 10239 N 961.922 0.384947 2.88039 0
M  V30 10240 H 961.469 1.09222 2.33299 0
M  V30 10241 H 961.427 -0.451618 3.11139 0
M  V30 10242 N 965.199 -0.738761 1.39212 0
M  V30 10243 C 966.429 -1.5258 1.39295 0
M  V30 10244 C 966.837 -1.89194 -0.0153 0
M  V30 10245 O 966.18 -1.5435 -0.996073 0
M  V30 10246 C 966.242 -2.84462 2.19822 0
M  V30 10247 C 965.906 -2.70303 3.68491 0
M  V30 10248 C 966.903 -2.39102 4.61656 0
M  V30 10249 C 964.588 -2.87291 4.1203 0
M  V30 10250 C 966.582 -2.25066 5.96342 0
M  V30 10251 C 964.269 -2.72874 5.46793 0
M  V30 10252 C 965.267 -2.41807 6.38763 0
M  V30 10253 O 964.955 -2.27475 7.71045 0
M  V30 10254 H 964.687 -0.478236 0.477772 0
M  V30 10255 H 967.241 -0.920846 1.83602 0
M  V30 10256 H 965.471 -3.47202 1.70257 0
M  V30 10257 H 967.16 -3.46058 2.12129 0
M  V30 10258 H 967.926 -2.25632 4.2932 0
M  V30 10259 H 963.805 -3.10466 3.40781 0
M  V30 10260 H 967.349 -2.00739 6.68094 0
M  V30 10261 H 963.246 -2.85922 5.78722 0
M  V30 10262 H 964.014 -2.42574 7.81729 0
M  V30 10263 N 966.677 -1.24326 -0.968545 0
M  V30 10264 C 968.088 -1.07561 -1.52603 0
M  V30 10265 C 968.439 0.353245 -1.92994 0
M  V30 10266 O 967.564 1.24151 -1.77244 0
M  V30 10267 C 968.159 -1.94634 -2.77314 0
M  V30 10268 C 966.718 -1.82095 -3.29421 0
M  V30 10269 C 965.865 -1.8962 -2.02335 0
M  V30 10270 H 968.816 -1.37815 -0.786932 0
M  V30 10271 H 968.837 -1.47812 -3.50616 0
M  V30 10272 H 968.349 -2.98621 -2.47885 0
M  V30 10273 H 966.45 -0.809376 -3.63703 0
M  V30 10274 H 966.563 -2.66142 -3.98378 0
M  V30 10275 H 964.927 -1.33339 -2.17009 0
M  V30 10276 H 965.71 -2.95185 -1.75273 0
M  V30 10277 N 968.156 1.1691 -1.05688 0
M  V30 10278 C 969.433 1.83266 -0.683601 0
M  V30 10279 C 969.813 1.93858 0.835602 0
M  V30 10280 O 969.161 1.47696 1.7435 0
M  V30 10281 C 969.371 3.20625 -1.37842 0
M  V30 10282 C 970.719 3.96473 -1.51967 0
M  V30 10283 O 971.743 3.30122 -1.33783 0
M  V30 10284 O 970.602 5.15393 -1.81749 0
M  V30 10285 H 967.696 0.791028 -0.241254 0
M  V30 10286 H 970.242 1.24165 -1.15677 0
M  V30 10287 H 969.014 3.07914 -2.41463 0
M  V30 10288 H 968.637 3.87398 -0.894921 0
M  V30 10289 N 969.634 0.838594 1.33437 0
M  V30 10290 C 970.582 0.260158 2.31141 0
M  V30 10291 C 971.576 -0.607706 1.58124 0
M  V30 10292 O 972.782 -0.497298 1.72994 0
M  V30 10293 H 969.157 0.0654031 0.74915 0
M  V30 10294 H 971.128 1.09874 2.77435 0
M  V30 10295 C 969.877 -0.550234 3.43319 0
M  V30 10296 H 969.2 0.108262 3.99653 0
M  V30 10297 H 970.64 -0.920815 4.1388 0
M  V30 10298 C 969.099 -1.729 2.89149 0
M  V30 10299 O 969.629 -2.82769 2.85315 0
M  V30 10300 N 967.835 -1.5508 2.45761 0
M  V30 10301 H 967.382 -0.657055 2.49079 0
M  V30 10302 H 967.34 -2.34099 2.0987 0
M  V30 10303 N 971.112 -1.45937 0.595003 0
M  V30 10304 C 972.358 -2.0262 0.0854317 0
M  V30 10305 C 972.691 -1.46402 -1.27594 0
M  V30 10306 O 971.966 -0.633823 -1.83883 0
M  V30 10307 C 972.249 -3.60085 0.0329075 0
M  V30 10308 C 972.102 -4.26663 1.42405 0
M  V30 10309 C 973.421 -4.35101 -0.661426 0
M  V30 10310 H 970.54 -0.736282 0.0325196 0
M  V30 10311 H 973.182 -1.73938 0.764563 0
M  V30 10312 H 971.332 -3.84652 -0.545439 0
M  V30 10313 H 973.004 -4.13321 2.04851 0
M  V30 10314 H 971.247 -3.85549 1.98833 0
M  V30 10315 H 971.918 -5.35497 1.33965 0
M  V30 10316 H 974.394 -4.15753 -0.169977 0
M  V30 10317 H 973.27 -5.44829 -0.667243 0
M  V30 10318 H 973.531 -4.07053 -1.72513 0
M  V30 10319 N 972.59 -0.333456 -1.54032 0
M  V30 10320 C 973.836 0.266527 -2.01041 0
M  V30 10321 C 974.169 1.51006 -1.2211 0
M  V30 10322 O 973.444 1.92078 -0.306016 0
M  V30 10323 C 973.727 0.59078 -3.55221 0
M  V30 10324 C 973.58 -0.664143 -4.4487 0
M  V30 10325 C 974.899 1.40447 -4.17088 0
M  V30 10326 H 972.018 0.0953979 -0.7308 0
M  V30 10327 H 974.66 -0.451995 -1.84545 0
M  V30 10328 H 972.81 1.20292 -3.69408 0
M  V30 10329 H 974.482 -1.30227 -4.42537 0
M  V30 10330 H 972.725 -1.29106 -4.14143 0
M  V30 10331 H 973.396 -0.392664 -5.50602 0
M  V30 10332 H 975.872 0.886946 -4.06537 0
M  V30 10333 H 974.748 1.6001 -5.2506 0
M  V30 10334 H 975.009 2.40357 -3.71054 0
M  V30 10335 N 974.068 1.57479 -0.061844 0
M  V30 10336 C 975.315 1.93108 0.60954 0
M  V30 10337 C 975.643 0.941086 1.70217 0
M  V30 10338 O 974.898 -0.044914 1.95648 0
M  V30 10339 C 975.197 3.35394 1.23474 0
M  V30 10340 C 974.863 4.50095 0.269247 0
M  V30 10341 C 973.525 4.812 0.00360316 0
M  V30 10342 C 975.877 5.19725 -0.391839 0
M  V30 10343 C 973.205 5.79276 -0.930383 0
M  V30 10344 C 975.557 6.18801 -1.31408 0
M  V30 10345 C 974.221 6.48328 -1.58829 0
M  V30 10346 H 973.491 0.706634 0.223046 0
M  V30 10347 H 976.138 1.91054 -0.1306 0
M  V30 10348 H 974.443 3.33866 2.05039 0
M  V30 10349 H 976.14 3.60247 1.76134 0
M  V30 10350 H 972.73 4.2583 0.486477 0
M  V30 10351 H 976.914 4.95898 -0.199713 0
M  V30 10352 H 972.17 6.00484 -1.15019 0
M  V30 10353 H 976.344 6.71862 -1.83234 0
M  V30 10354 H 973.971 7.24137 -2.31363 0
M  V30 10355 N 975.546 -0.211634 1.56173 0
M  V30 10356 C 976.493 -1.26231 1.93221 0
M  V30 10357 C 977.463 -1.46076 0.790641 0
M  V30 10358 O 978.648 -1.59482 1.04739 0
M  V30 10359 C 975.788 -2.60559 2.26281 0
M  V30 10360 C 974.901 -2.48431 3.5342 0
M  V30 10361 C 974.036 -3.7535 3.7588 0
M  V30 10362 C 973.075 -3.57985 4.96501 0
M  V30 10363 N 972.212 -4.76877 5.15299 0
M  V30 10364 H 977.052 -0.939367 2.82807 0
M  V30 10365 H 974.589 -0.452511 1.39967 0
M  V30 10366 H 976.547 -3.38796 2.43461 0
M  V30 10367 H 975.177 -2.9093 1.39855 0
M  V30 10368 H 974.229 -1.61577 3.44379 0
M  V30 10369 H 975.541 -2.31526 4.41811 0
M  V30 10370 H 974.695 -4.62029 3.9321 0
M  V30 10371 H 973.434 -3.95191 2.85788 0
M  V30 10372 H 972.439 -2.69691 4.79111 0
M  V30 10373 H 973.664 -3.39605 5.88086 0
M  V30 10374 H 971.61 -4.97013 4.28152 0
M  V30 10375 H 971.527 -4.62735 5.9784 0
M  V30 10376 H 972.795 -5.64954 5.37073 0
M  V30 10377 N 977.024 -1.50153 -0.478725 0
M  V30 10378 C 978.271 -1.6076 -1.23136 0
M  V30 10379 C 978.599 -0.30442 -1.92103 0
M  V30 10380 O 977.854 0.709213 -1.82397 0
M  V30 10381 C 978.153 -2.73208 -2.30417 0
M  V30 10382 C 977.819 -4.13953 -1.78755 0
M  V30 10383 C 976.481 -4.52251 -1.64386 0
M  V30 10384 C 978.833 -5.01949 -1.40344 0
M  V30 10385 C 976.161 -5.76292 -1.10018 0
M  V30 10386 C 978.513 -6.2653 -0.874206 0
M  V30 10387 C 977.177 -6.63637 -0.717085 0
M  V30 10388 H 976.447 -0.588264 -0.450585 0
M  V30 10389 H 979.094 -1.84061 -0.528551 0
M  V30 10390 H 977.399 -2.43965 -3.06575 0
M  V30 10391 H 979.096 -2.7862 -2.88395 0
M  V30 10392 H 975.686 -3.83736 -1.90904 0
M  V30 10393 H 979.87 -4.73 -1.50283 0
M  V30 10394 H 975.126 -6.03723 -0.965838 0
M  V30 10395 H 979.3 -6.94081 -0.567883 0
M  V30 10396 H 976.927 -7.59633 -0.293639 0
M  V30 10397 N 978.502 0.731368 -1.39602 0
M  V30 10398 C 979.742 1.5036 -1.3846 0
M  V30 10399 C 980.106 1.91991 0.018784 0
M  V30 10400 O 981.307 2.68351 0.155236 0
M  V30 10401 C 979.578 2.70755 -2.33295 0
M  V30 10402 S 981.137 3.6036 -2.50372 0
M  V30 10403 H 977.955 0.514271 -0.490964 0
M  V30 10404 H 980.557 0.856654 -1.75732 0
M  V30 10405 H 979.261 2.38316 -3.34116 0
M  V30 10406 H 978.792 3.40376 -1.97251 0
M  V30 10407 H 980.807 4.64529 -1.74435 0
M  V30 10408 N 979.98 1.24838 0.961938 0
M  V30 10409 C 980.89 1.06304 2.09133 0
M  V30 10410 C 981.906 0.00221475 1.74 0
M  V30 10411 O 983.082 0.201611 2.00388 0
M  V30 10412 C 980.147 0.676117 3.40043 0
M  V30 10413 C 979.208 1.81407 3.89089 0
M  V30 10414 C 978.441 1.44551 5.13752 0
M  V30 10415 O 978.664 0.337894 5.69398 0
M  V30 10416 O 977.598 2.27316 5.57325 0
M  V30 10417 H 981.424 2.01001 2.27667 0
M  V30 10418 H 979.009 1.0371 1.07539 0
M  V30 10419 H 980.891 0.472124 4.18747 0
M  V30 10420 H 979.566 -0.241667 3.22797 0
M  V30 10421 H 978.473 2.07286 3.11421 0
M  V30 10422 H 979.806 2.71083 4.10822 0
M  V30 10423 N 981.458 -1.16348 1.06306 0
M  V30 10424 C 982.704 -1.87158 0.781007 0
M  V30 10425 C 983.037 -1.81499 -0.690784 0
M  V30 10426 O 982.312 -1.23074 -1.50609 0
M  V30 10427 C 982.595 -3.3672 1.27639 0
M  V30 10428 C 982.448 -3.51069 2.81194 0
M  V30 10429 C 983.767 -4.31122 0.884388 0
M  V30 10430 H 980.886 -0.679586 0.285187 0
M  V30 10431 H 983.528 -1.36756 1.31901 0
M  V30 10432 H 981.678 -3.79775 0.818715 0
M  V30 10433 H 983.35 -3.16952 3.35171 0
M  V30 10434 H 981.593 -2.92976 3.19918 0
M  V30 10435 H 982.264 -4.56105 3.10921 0
M  V30 10436 H 984.74 -3.95969 1.27858 0
M  V30 10437 H 983.616 -5.34279 1.25847 0
M  V30 10438 H 983.877 -4.41598 -0.210673 0
M  V30 10439 N 982.937 -0.845659 -1.3299 0
M  V30 10440 C 983.9 -0.288905 -2.27372 0
M  V30 10441 C 984.9 0.546263 -1.51237 0
M  V30 10442 O 986.09 0.359072 -1.70459 0
M  V30 10443 C 983.222 0.59224 -3.35716 0
M  V30 10444 H 984.415 -1.12181 -2.78128 0
M  V30 10445 H 981.968 -0.619276 -1.43508 0
M  V30 10446 H 982.703 1.44732 -2.90212 0
M  V30 10447 H 982.488 -0.00543255 -3.921 0
M  V30 10448 H 983.978 0.974848 -4.06062 0
M  V30 10449 N 984.415 1.45619 -0.602734 0
M  V30 10450 C 985.362 2.30493 0.118944 0
M  V30 10451 C 986.332 1.41816 0.864723 0
M  V30 10452 O 987.517 1.7075 0.851424 0
M  V30 10453 C 984.657 3.2664 1.11356 0
M  V30 10454 C 983.77 4.3042 0.369161 0
M  V30 10455 C 982.905 5.13678 1.35307 0
M  V30 10456 C 981.944 6.09189 0.596207 0
M  V30 10457 N 981.081 6.85245 1.52916 0
M  V30 10458 H 985.921 2.91672 -0.610836 0
M  V30 10459 H 983.458 1.43731 -0.313032 0
M  V30 10460 H 985.416 3.80846 1.7033 0
M  V30 10461 H 984.046 2.67225 1.81081 0
M  V30 10462 H 983.098 3.78913 -0.335994 0
M  V30 10463 H 984.41 4.98307 -0.221603 0
M  V30 10464 H 983.564 5.7226 2.01502 0
M  V30 10465 H 982.303 4.45798 1.97777 0
M  V30 10466 H 981.308 5.49743 -0.0793984 0
M  V30 10467 H 982.533 6.79096 -0.0233734 0
M  V30 10468 H 980.479 6.20058 2.14159 0
M  V30 10469 H 980.396 7.49467 0.991713 0
M  V30 10470 H 981.664 7.48371 2.18083 0
M  V30 10471 N 985.893 0.34162 1.53853 0
M  V30 10472 C 986.803 -0.524555 2.2866 0
M  V30 10473 C 987.819 -1.1136 1.33697 0
M  V30 10474 O 988.995 -1.1297 1.66732 0
M  V30 10475 C 986.06 -1.66065 3.04341 0
M  V30 10476 C 985.121 -1.10158 4.14926 0
M  V30 10477 C 984.354 -2.18353 4.86988 0
M  V30 10478 O 984.577 -3.39038 4.58704 0
M  V30 10479 O 983.511 -1.82756 5.73484 0
M  V30 10480 H 987.337 0.0835014 3.03585 0
M  V30 10481 H 984.922 0.106727 1.49018 0
M  V30 10482 H 986.804 -2.3217 3.51674 0
M  V30 10483 H 985.479 -2.25456 2.32275 0
M  V30 10484 H 984.386 -0.405109 3.719 0
M  V30 10485 H 985.719 -0.552567 4.89088 0
M  V30 10486 N 987.371 -1.57444 0.0701946 0
M  V30 10487 C 988.319 -2.13834 -0.915302 0
M  V30 10488 C 989.313 -1.07483 -1.30934 0
M  V30 10489 O 990.519 -1.25865 -1.28678 0
M  V30 10490 H 986.894 -0.683716 -0.313108 0
M  V30 10491 H 988.865 -2.95503 -0.414758 0
M  V30 10492 C 987.614 -2.71355 -2.17398 0
M  V30 10493 H 986.937 -3.52861 -1.87961 0
M  V30 10494 H 988.377 -3.1441 -2.84469 0
M  V30 10495 C 986.836 -1.66038 -2.93143 0
M  V30 10496 O 987.366 -1.08443 -3.86786 0
M  V30 10497 N 985.572 -1.3711 -2.56221 0
M  V30 10498 H 985.119 -1.84135 -1.80145 0
M  V30 10499 H 985.077 -0.66877 -3.07205 0
M  V30 10500 N 988.849 0.203349 -1.56283 0
M  V30 10501 C 990.097 0.923183 -1.79782 0
M  V30 10502 C 990.418 1.84134 -0.64185 0
M  V30 10503 O 989.688 1.92922 0.340292 0
M  V30 10504 H 988.268 0.343881 -0.66314 0
M  V30 10505 H 990.93 0.210837 -1.93756 0
M  V30 10506 H 990.026 1.51921 -2.72629 0
M  V30 10507 N 990.327 1.50405 0.470755 0
M  V30 10508 C 991.26 1.63933 1.58749 0
M  V30 10509 C 992.238 0.487444 1.55122 0
M  V30 10510 O 993.422 0.706992 1.74739 0
M  V30 10511 C 990.549 1.62222 2.97324 0
M  V30 10512 C 989.595 2.82975 3.19104 0
M  V30 10513 S 990.428 4.44272 2.98969 0
M  V30 10514 C 991.584 4.45254 4.39886 0
M  V30 10515 H 991.817 2.58396 1.47034 0
M  V30 10516 H 989.35 1.39672 0.658115 0
M  V30 10517 H 991.308 1.6192 3.77217 0
M  V30 10518 H 989.969 0.689944 3.06429 0
M  V30 10519 H 989.162 2.78083 4.2034 0
M  V30 10520 H 988.764 2.80846 2.46984 0
M  V30 10521 H 991.056 4.18837 5.32524 0
M  V30 10522 H 991.999 5.4687 4.49821 0
M  V30 10523 H 992.407 3.74958 4.2198 0
M  V30 10524 N 991.805 -0.723954 1.39988 0
M  V30 10525 C 993.082 -1.4763 1.28316 0
M  V30 10526 C 993.462 -2.10852 -0.102302 0
M  V30 10527 O 992.81 -1.9948 -1.11445 0
M  V30 10528 C 993.02 -2.51878 2.41574 0
M  V30 10529 C 994.368 -3.17948 2.81415 0
M  V30 10530 O 995.392 -2.62195 2.41106 0
M  V30 10531 O 994.251 -4.18858 3.51027 0
M  V30 10532 H 991.345 -0.656092 0.50346 0
M  V30 10533 H 993.891 -0.75684 1.51888 0
M  V30 10534 H 992.663 -2.03618 3.34149 0
M  V30 10535 H 992.286 -3.3137 2.19727 0
M  V30 10536 N 993.283 -1.25346 -0.955304 0
M  V30 10537 C 994.529 -1.10218 -1.70235 0
M  V30 10538 C 994.862 0.356124 -1.90907 0
M  V30 10539 O 994.137 1.26253 -1.47954 0
M  V30 10540 C 994.42 -1.85627 -3.08569 0
M  V30 10541 C 994.273 -3.39281 -2.95311 0
M  V30 10542 C 995.592 -1.63886 -4.08448 0
M  V30 10543 H 992.711 -0.401781 -0.617852 0
M  V30 10544 H 995.353 -1.5417 -1.11048 0
M  V30 10545 H 993.503 -1.48269 -3.59094 0
M  V30 10546 H 995.175 -3.8631 -2.52116 0
M  V30 10547 H 993.418 -3.67027 -2.31244 0
M  V30 10548 H 994.089 -3.87258 -3.93364 0
M  V30 10549 H 996.565 -1.96406 -3.6683 0
M  V30 10550 H 995.441 -2.19087 -5.03281 0
M  V30 10551 H 995.702 -0.580021 -4.38279 0
M  V30 10552 N 994.761 1.15782 -1.06922 0
M  V30 10553 C 996.008 1.86465 -0.789752 0
M  V30 10554 C 996.336 1.82075 0.684022 0
M  V30 10555 O 995.591 1.23576 1.51748 0
M  V30 10556 C 995.89 3.35284 -1.2377 0
M  V30 10557 C 995.556 3.59871 -2.71668 0
M  V30 10558 C 994.218 3.6629 -3.12066 0
M  V30 10559 C 996.57 3.69929 -3.67154 0
M  V30 10560 C 993.898 3.80275 -4.46775 0
M  V30 10561 C 996.25 3.85436 -5.01619 0
M  V30 10562 C 994.914 3.901 -5.41644 0
M  V30 10563 H 994.184 0.682324 -0.288991 0
M  V30 10564 H 996.831 1.36861 -1.33945 0
M  V30 10565 H 995.136 3.87065 -0.607309 0
M  V30 10566 H 996.833 3.88371 -0.998431 0
M  V30 10567 H 993.423 3.55512 -2.39393 0
M  V30 10568 H 997.607 3.64274 -3.37073 0
M  V30 10569 H 992.863 3.8214 -4.77262 0
M  V30 10570 H 997.037 3.92161 -5.75485 0
M  V30 10571 H 994.664 4.00688 -6.46029 0
M  V30 10572 N 996.239 0.8527 1.3254 0
M  V30 10573 C 997.655 0.542298 1.50104 0
M  V30 10574 C 997.855 -0.927465 1.78886 0
M  V30 10575 O 996.911 -1.7106 1.85728 0
M  V30 10576 C 998.224 1.4276 2.64651 0
M  V30 10577 C 999.772 1.42782 2.78536 0
M  V30 10578 C 1000.25 2.29828 3.9616 0
M  V30 10579 N 1001.74 2.27613 4.03418 0
M  V30 10580 C 1002.47 2.91696 4.93661 0
M  V30 10581 N 1001.97 3.64883 5.88925 0
M  V30 10582 N 1003.76 2.81094 4.86768 0
M  V30 10583 H 995.913 1.80395 1.12123 0
M  V30 10584 H 998.176 0.770394 0.552446 0
M  V30 10585 H 997.882 2.47266 2.50105 0
M  V30 10586 H 997.756 1.11358 3.60388 0
M  V30 10587 H 1000.14 0.390417 2.92506 0
M  V30 10588 H 1000.22 1.78198 1.83519 0
M  V30 10589 H 999.868 3.33635 3.82949 0
M  V30 10590 H 999.798 1.91746 4.9045 0
M  V30 10591 H 1002.29 1.74402 3.3525 0
M  V30 10592 H 1002.6 4.10952 6.54476 0
M  V30 10593 H 1000.95 3.68991 5.88957 0
M  V30 10594 H 1004.14 2.23469 4.11314 0
M  V30 10595 H 1004.31 3.31318 5.56895 0
M  V30 10596 N 997.718 -1.45297 0.610449 0
M  V30 10597 C 998.964 -2.02518 0.106917 0
M  V30 10598 C 999.297 -1.47747 -1.26034 0
M  V30 10599 O 998.572 -0.65329 -1.832 0
M  V30 10600 C 998.855 -3.6003 0.0710975 0
M  V30 10601 C 998.708 -4.25128 1.46922 0
M  V30 10602 C 1000.03 -4.35778 -0.61524 0
M  V30 10603 H 997.146 -0.735896 0.040327 0
M  V30 10604 H 999.788 -1.73117 0.782968 0
M  V30 10605 H 997.938 -3.85209 -0.504611 0
M  V30 10606 H 999.61 -4.11125 2.09223 0
M  V30 10607 H 997.853 -3.83418 2.02911 0
M  V30 10608 H 998.524 -5.34046 1.39637 0
M  V30 10609 H 1001 -4.1591 -0.125871 0
M  V30 10610 H 999.876 -5.45506 -0.609419 0
M  V30 10611 H 1000.14 -4.08859 -1.68186 0
M  V30 10612 N 999.196 -0.349774 -1.5367 0
M  V30 10613 C 1000.44 0.244827 -2.01015 0
M  V30 10614 C 1000.77 1.50057 -1.23746 0
M  V30 10615 O 1000.03 1.9315 -0.314872 0
M  V30 10616 C 1000.32 0.598311 -3.52356 0
M  V30 10617 C 999.991 -0.56127 -4.47393 0
M  V30 10618 C 998.653 -0.879481 -4.73095 0
M  V30 10619 C 1001 -1.3389 -5.03709 0
M  V30 10620 C 998.333 -1.97758 -5.52366 0
M  V30 10621 C 1000.68 -2.4273 -5.84179 0
M  V30 10622 C 999.349 -2.75103 -6.08173 0
M  V30 10623 H 998.619 0.0895884 -0.735564 0
M  V30 10624 H 1001.27 -0.478975 -1.85413 0
M  V30 10625 H 999.571 1.40291 -3.65822 0
M  V30 10626 H 1001.27 1.07036 -3.86451 0
M  V30 10627 H 997.858 -0.303201 -4.27526 0
M  V30 10628 H 1002.04 -1.10632 -4.83812 0
M  V30 10629 H 997.298 -2.23257 -5.6918 0
M  V30 10630 H 1001.47 -3.03412 -6.26828 0
M  V30 10631 H 999.099 -3.60317 -6.69385 0
M  V30 10632 N 1000.67 1.57404 -0.0785433 0
M  V30 10633 C 1001.95 1.85163 0.630389 0
M  V30 10634 C 1002.33 0.972295 1.87376 0
M  V30 10635 O 1001.68 0.0403375 2.28464 0
M  V30 10636 C 1001.89 3.35491 0.961604 0
M  V30 10637 C 1003.24 4.0316 1.33219 0
M  V30 10638 O 1004.26 3.40276 1.05313 0
M  V30 10639 O 1003.12 5.14086 1.85412 0
M  V30 10640 H 1000.21 0.765169 0.31376 0
M  V30 10641 H 1002.76 1.69343 -0.109986 0
M  V30 10642 H 1001.53 3.91221 0.0788113 0
M  V30 10643 H 1001.15 3.56598 1.75852 0
M  V30 10644 N 1002.15 -0.195058 1.56388 0
M  V30 10645 C 1003.38 -0.935745 1.85091 0
M  V30 10646 C 1003.8 -1.76061 0.662118 0
M  V30 10647 O 1003.16 -1.77076 -0.389083 0
M  V30 10648 C 1003.21 -1.80764 3.1202 0
M  V30 10649 O 1002.31 -2.90643 2.92575 0
M  V30 10650 H 1001.65 -0.26351 0.609474 0
M  V30 10651 H 1004.18 -0.200362 2.03617 0
M  V30 10652 H 1004.19 -2.21229 3.42815 0
M  V30 10653 H 1002.87 -1.20157 3.98165 0
M  V30 10654 H 1001.44 -2.53934 2.73079 0
M  V30 10655 N 1003.63 -1.50653 -0.462772 0
M  V30 10656 C 1004.56 -1.73056 -1.5676 0
M  V30 10657 C 1005.54 -0.579699 -1.59917 0
M  V30 10658 O 1006.73 -0.819729 -1.76051 0
M  V30 10659 C 1003.86 -1.83234 -2.9503 0
M  V30 10660 C 1002.81 -2.98488 -3.06739 0
M  V30 10661 C 1002.14 -2.93818 -4.46738 0
M  V30 10662 C 1003.44 -4.38869 -2.83181 0
M  V30 10663 H 1005.13 -2.65562 -1.38265 0
M  V30 10664 H 1002.68 -1.27792 -0.663722 0
M  V30 10665 H 1004.63 -1.97491 -3.72257 0
M  V30 10666 H 1003.35 -0.873558 -3.14701 0
M  V30 10667 H 1002.01 -2.83895 -2.31946 0
M  V30 10668 H 1001.66 -1.95769 -4.63339 0
M  V30 10669 H 1001.36 -3.71197 -4.55507 0
M  V30 10670 H 1002.88 -3.10135 -5.25974 0
M  V30 10671 H 1004.3 -4.53945 -3.50153 0
M  V30 10672 H 1002.69 -5.17762 -3.03386 0
M  V30 10673 H 1003.76 -4.50663 -1.78972 0
M  V30 10674 N 1005.11 0.71652 -1.4037 0
M  V30 10675 C 1006.06 1.85194 -1.40734 0
M  V30 10676 C 1007.05 1.66934 -0.287969 0
M  V30 10677 O 1008.26 1.74051 -0.458957 0
M  V30 10678 H 1004.63 0.609922 -0.439885 0
M  V30 10679 H 1006.6 1.82003 -2.36468 0
M  V30 10680 C 1005.35 3.23048 -1.28589 0
M  V30 10681 H 1004.67 3.37704 -2.13999 0
M  V30 10682 H 1006.11 4.02633 -1.32902 0
M  V30 10683 C 1004.57 3.369 0.00396512 0
M  V30 10684 O 1005.1 3.89881 0.967243 0
M  V30 10685 N 1003.31 2.90508 0.0731565 0
M  V30 10686 H 1002.86 2.4758 -0.711454 0
M  V30 10687 H 1002.81 3.00155 0.935652 0
M  V30 10688 N 1006.59 1.25851 0.948643 0
M  V30 10689 C 1007.82 1.13546 1.726 0
M  V30 10690 C 1008.22 -0.312857 1.86595 0
M  V30 10691 O 1007.57 -1.22657 1.36751 0
M  V30 10692 C 1007.63 1.72315 3.15512 0
M  V30 10693 C 1007.29 3.2136 3.24926 0
M  V30 10694 C 1008.29 4.18274 3.08777 0
M  V30 10695 C 1005.98 3.61683 3.48555 0
M  V30 10696 C 1007.97 5.53491 3.16112 0
M  V30 10697 C 1005.66 4.97035 3.55526 0
M  V30 10698 C 1006.65 5.92749 3.3932 0
M  V30 10699 O 1006.34 7.25637 3.45985 0
M  V30 10700 H 1006.07 0.396555 0.547467 0
M  V30 10701 H 1008.63 1.66822 1.19832 0
M  V30 10702 H 1006.86 1.13494 3.6967 0
M  V30 10703 H 1008.55 1.55024 3.7513 0
M  V30 10704 H 1009.31 3.88461 2.90385 0
M  V30 10705 H 1005.19 2.87674 3.60229 0
M  V30 10706 H 1008.74 6.28177 3.0338 0
M  V30 10707 H 1004.63 5.26512 3.73437 0
M  V30 10708 H 1005.4 7.33812 3.62577 0
M  V30 10709 N 1008.06 -1.15214 1.07534 0
M  V30 10710 C 1008.99 -2.2216 0.718837 0
M  V30 10711 C 1009.98 -1.6753 -0.29459 0
M  V30 10712 O 1011.16 -1.93481 -0.166931 0
M  V30 10713 C 1008.29 -3.471 0.117836 0
M  V30 10714 C 1007.24 -4.14701 1.05862 0
M  V30 10715 C 1006.57 -5.3374 0.320284 0
M  V30 10716 C 1007.87 -4.64254 2.39302 0
M  V30 10717 H 1009.56 -2.52237 1.61297 0
M  V30 10718 H 1007.11 -1.21239 0.776992 0
M  V30 10719 H 1009.06 -4.21156 -0.143519 0
M  V30 10720 H 1007.79 -3.16361 -0.811389 0
M  V30 10721 H 1006.45 -3.42589 1.30493 0
M  V30 10722 H 1006.09 -4.99257 -0.61246 0
M  V30 10723 H 1005.79 -5.79912 0.947381 0
M  V30 10724 H 1007.32 -6.10563 0.0667721 0
M  V30 10725 H 1008.73 -5.29827 2.18988 0
M  V30 10726 H 1007.13 -5.21095 2.97623 0
M  V30 10727 H 1008.2 -3.79793 3.01472 0
M  V30 10728 N 1009.54 -0.859717 -1.32086 0
M  V30 10729 C 1010.95 -0.519529 -1.79326 0
M  V30 10730 C 1011.3 0.96295 -1.70944 0
M  V30 10731 O 1010.43 1.75139 -1.27104 0
M  V30 10732 C 1011.02 -0.936267 -3.25606 0
M  V30 10733 C 1009.58 -0.647899 -3.70782 0
M  V30 10734 C 1008.73 -1.13323 -2.53087 0
M  V30 10735 H 1011.68 -1.04643 -1.19312 0
M  V30 10736 H 1011.7 -0.254714 -3.79646 0
M  V30 10737 H 1011.21 -2.01527 -3.31675 0
M  V30 10738 H 1009.32 0.420172 -3.70223 0
M  V30 10739 H 1009.43 -1.21774 -4.63366 0
M  V30 10740 H 1007.79 -0.553325 -2.48617 0
M  V30 10741 H 1008.58 -2.21945 -2.61907 0
M  V30 10742 N 1011.02 1.44971 -0.618145 0
M  V30 10743 C 1011.97 2.32354 0.106846 0
M  V30 10744 C 1012.96 1.4659 0.848984 0
M  V30 10745 O 1014.17 1.63012 0.763354 0
M  V30 10746 H 1010.54 0.750108 0.0533109 0
M  V30 10747 H 1012.51 2.9127 -0.648426 0
M  V30 10748 C 1011.26 3.30381 1.08368 0
M  V30 10749 H 1010.59 3.96377 0.52205 0
M  V30 10750 H 1012.03 3.94231 1.56069 0
M  V30 10751 C 1010.49 2.58336 2.1625 0
M  V30 10752 O 1011.02 2.37258 3.24148 0
M  V30 10753 N 1009.22 2.18292 1.91825 0
M  V30 10754 H 1008.77 2.35635 1.04086 0
M  V30 10755 H 1008.73 1.70413 2.6421 0
M  V30 10756 N 1012.5 0.357919 1.53482 0
M  V30 10757 C 1013.43 -0.535553 2.21827 0
M  V30 10758 C 1014.41 -1.08904 1.20742 0
M  V30 10759 O 1015.59 -1.14661 1.49616 0
M  V30 10760 C 1012.72 -1.73817 2.90698 0
M  V30 10761 C 1011.77 -1.31283 4.05792 0
M  V30 10762 S 1012.6 -0.320548 5.3454 0
M  V30 10763 C 1013.76 -1.52967 6.0692 0
M  V30 10764 H 1013.99 0.0449045 2.97266 0
M  V30 10765 H 1011.52 0.142009 1.53746 0
M  V30 10766 H 1013.48 -2.42803 3.30994 0
M  V30 10767 H 1012.14 -2.28987 2.14998 0
M  V30 10768 H 1011.33 -2.20989 4.52968 0
M  V30 10769 H 1010.94 -0.702275 3.67347 0
M  V30 10770 H 1013.23 -2.46191 6.31186 0
M  V30 10771 H 1014.17 -1.09943 6.99513 0
M  V30 10772 H 1014.58 -1.73224 5.37265 0
M  V30 10773 N 1013.98 -1.5736 0.0868897 0
M  V30 10774 C 1014.91 -2.16596 -0.872252 0
M  V30 10775 C 1015.89 -1.09706 -1.29995 0
M  V30 10776 O 1017.07 -1.37808 -1.36831 0
M  V30 10777 C 1014.2 -2.73972 -2.1344 0
M  V30 10778 C 1013.16 -3.86163 -1.8456 0
M  V30 10779 C 1012.48 -4.30206 -3.17533 0
M  V30 10780 C 1013.78 -5.0973 -1.13899 0
M  V30 10781 H 1015.48 -2.96995 -0.378738 0
M  V30 10782 H 1013.02 -1.42861 -0.18073 0
M  V30 10783 H 1014.98 -3.14062 -2.80968 0
M  V30 10784 H 1013.7 -1.90817 -2.6506 0
M  V30 10785 H 1012.36 -3.466 -1.19432 0
M  V30 10786 H 1012.01 -3.43951 -3.67024 0
M  V30 10787 H 1011.71 -5.05841 -2.98996 0
M  V30 10788 H 1013.23 -4.72922 -3.86234 0
M  V30 10789 H 1014.64 -5.4704 -1.71523 0
M  V30 10790 H 1013.04 -5.90741 -1.05569 0
M  V30 10791 H 1014.11 -4.8475 -0.120432 0
M  V30 10792 N 1015.45 0.186762 -1.56489 0
M  V30 10793 C 1016.38 1.23395 -1.98232 0
M  V30 10794 C 1017.37 1.4702 -0.855526 0
M  V30 10795 O 1018.55 1.58616 -1.12048 0
M  V30 10796 C 1015.68 2.57635 -2.32898 0
M  V30 10797 C 1014.63 2.48607 -3.48394 0
M  V30 10798 C 1013.96 3.87196 -3.68759 0
M  V30 10799 C 1015.26 2.00398 -4.82325 0
M  V30 10800 H 1016.95 0.887026 -2.85958 0
M  V30 10801 H 1014.5 0.42525 -1.37578 0
M  V30 10802 H 1016.45 3.31082 -2.60696 0
M  V30 10803 H 1015.18 2.94084 -1.42064 0
M  V30 10804 H 1013.84 1.77615 -3.207 0
M  V30 10805 H 1013.48 4.21012 -2.75241 0
M  V30 10806 H 1013.18 3.82029 -4.46462 0
M  V30 10807 H 1014.71 4.62253 -3.98941 0
M  V30 10808 H 1016.12 2.6361 -5.091 0
M  V30 10809 H 1014.52 2.06214 -5.63556 0
M  V30 10810 H 1015.59 0.957562 -4.75351 0
M  V30 10811 N 1016.93 1.50896 0.454776 0
M  V30 10812 C 1018.18 1.62378 1.20324 0
M  V30 10813 C 1018.5 0.333883 1.9212 0
M  V30 10814 O 1017.77 -0.649477 1.8482 0
M  V30 10815 H 1016.35 0.598395 0.447139 0
M  V30 10816 H 1019.01 1.87749 0.523102 0
M  V30 10817 H 1018.11 2.44296 1.94232 0
M  V30 10818 N 1018.41 -0.709066 1.40748 0
M  V30 10819 C 1019.34 -1.83293 1.35937 0
M  V30 10820 C 1020.32 -1.60983 0.22871 0
M  V30 10821 O 1021.51 -1.8391 0.413435 0
M  V30 10822 C 1018.63 -3.19746 1.11714 0
M  V30 10823 C 1017.68 -3.60872 2.27319 0
M  V30 10824 S 1018.51 -3.67233 3.89743 0
M  V30 10825 C 1019.67 -5.06434 3.67797 0
M  V30 10826 H 1019.9 -1.87095 2.31047 0
M  V30 10827 H 1017.43 -0.876479 1.27111 0
M  V30 10828 H 1019.39 -3.98526 0.984245 0
M  V30 10829 H 1018.05 -3.1357 0.182472 0
M  V30 10830 H 1017.25 -4.59965 2.06029 0
M  V30 10831 H 1016.85 -2.89366 2.36946 0
M  V30 10832 H 1019.14 -5.93544 3.26668 0
M  V30 10833 H 1020.08 -5.32761 4.66445 0
M  V30 10834 H 1020.49 -4.77336 3.01348 0
M  V30 10835 N 1019.89 -1.26353 -0.941956 0
M  V30 10836 C 1020.8 -1.09618 -2.07415 0
M  V30 10837 C 1021.82 -0.0298963 -1.73974 0
M  V30 10838 O 1022.99 -0.233466 -2.00042 0
M  V30 10839 C 1020.06 -0.73013 -3.38925 0
M  V30 10840 C 1019.12 -1.87574 -3.86153 0
M  V30 10841 C 1018.35 -1.52706 -5.11387 0
M  V30 10842 O 1018.57 -0.428438 -5.68789 0
M  V30 10843 O 1017.51 -2.36154 -5.53638 0
M  V30 10844 H 1021.33 -2.04598 -2.2444 0
M  V30 10845 H 1018.92 -1.05407 -1.05876 0
M  V30 10846 H 1020.8 -0.538684 -4.17943 0
M  V30 10847 H 1019.48 0.190282 -3.2314 0
M  V30 10848 H 1018.38 -2.12214 -3.08084 0
M  V30 10849 H 1019.72 -2.77585 -4.06457 0
M  V30 10850 N 1021.37 1.14642 -1.08144 0
M  V30 10851 C 1022.33 2.17834 -0.712799 0
M  V30 10852 C 1023.33 1.58828 0.251041 0
M  V30 10853 O 1024.52 1.74173 0.0309381 0
M  V30 10854 C 1021.65 3.4086 -0.0519477 0
M  V30 10855 H 1022.85 2.51961 -1.62653 0
M  V30 10856 H 1020.4 1.29243 -0.878971 0
M  V30 10857 H 1021.13 3.12311 0.873636 0
M  V30 10858 H 1020.92 3.84952 -0.745286 0
M  V30 10859 H 1022.41 4.17163 0.191031 0
M  V30 10860 N 1022.85 0.866709 1.31628 0
M  V30 10861 C 1023.81 0.325041 2.26883 0
M  V30 10862 C 1024.81 -0.522133 1.52087 0
M  V30 10863 O 1026 -0.331908 1.71009 0
M  V30 10864 C 1023.13 -0.538756 3.36616 0
M  V30 10865 H 1024.32 1.16592 2.76308 0
M  V30 10866 H 1021.88 0.642029 1.42505 0
M  V30 10867 H 1022.61 -1.40096 2.92478 0
M  V30 10868 H 1022.4 0.0678115 3.92041 0
M  V30 10869 H 1023.89 -0.910123 4.07562 0
M  V30 10870 N 1024.32 -1.44642 0.625825 0
M  V30 10871 C 1025.57 -2.01695 0.127948 0
M  V30 10872 C 1025.89 -1.49439 -1.25271 0
M  V30 10873 O 1025.16 -0.695873 -1.83124 0
M  V30 10874 H 1023.74 -0.745685 0.0443096 0
M  V30 10875 H 1026.4 -1.7721 0.811332 0
M  V30 10876 H 1025.5 -3.11966 0.0915933 0
M  V30 10877 N 1025.8 -0.366053 -1.5329 0
M  V30 10878 C 1027.03 0.226839 -2.06156 0
M  V30 10879 C 1027.45 1.41637 -1.23776 0
M  V30 10880 O 1026.81 1.7947 -0.256948 0
M  V30 10881 C 1026.86 0.597956 -3.55608 0
M  V30 10882 O 1025.96 1.69512 -3.75951 0
M  V30 10883 H 1025.3 0.0329156 -0.663184 0
M  V30 10884 H 1027.83 -0.526793 -1.97702 0
M  V30 10885 H 1027.84 0.868831 -3.98642 0
M  V30 10886 H 1026.52 -0.271838 -4.15011 0
M  V30 10887 H 1025.09 1.41976 -3.44815 0
M  V30 10888 N 1027.28 1.57312 -0.0952337 0
M  V30 10889 C 1028.24 2.12889 0.849161 0
M  V30 10890 C 1029.24 1.05819 1.21075 0
M  V30 10891 O 1030.43 1.31704 1.14016 0
M  V30 10892 C 1027.56 2.6496 2.14498 0
M  V30 10893 H 1028.76 2.97651 0.366566 0
M  V30 10894 H 1026.31 1.55542 0.153762 0
M  V30 10895 H 1027.05 1.83718 2.67242 0
M  V30 10896 H 1026.83 3.43244 1.89542 0
M  V30 10897 H 1028.32 3.07952 2.82056 0
M  V30 10898 N 1028.76 -0.17846 1.56586 0
M  V30 10899 C 1030.01 -0.894464 1.81228 0
M  V30 10900 C 1030.33 -1.83089 0.671062 0
M  V30 10901 O 1029.6 -1.93439 -0.309557 0
M  V30 10902 H 1028.18 -0.333288 0.668527 0
M  V30 10903 H 1030.84 -0.179986 1.94067 0
M  V30 10904 H 1029.93 -1.47565 2.75011 0
M  V30 10905 N 1030.24 -1.51135 -0.446768 0
M  V30 10906 C 1031.48 -1.63013 -1.19461 0
M  V30 10907 C 1031.8 -0.344067 -1.91941 0
M  V30 10908 O 1031.07 0.639666 -1.85162 0
M  V30 10909 H 1029.65 -0.600757 -0.443959 0
M  V30 10910 H 1032.32 -1.88024 -0.513137 0
M  V30 10911 H 1031.41 -2.45322 -1.92933 0
M  V30 10912 N 1031.71 0.701592 -1.41122 0
M  V30 10913 C 1032.96 1.46376 -1.40363 0
M  V30 10914 C 1033.29 1.94197 -0.0105442 0
M  V30 10915 O 1032.57 1.69121 0.960637 0
M  V30 10916 C 1032.85 2.67994 -2.40523 0
M  V30 10917 C 1032.7 2.25977 -3.88914 0
M  V30 10918 C 1034.02 3.70181 -2.38022 0
M  V30 10919 H 1031.14 0.530929 -0.511159 0
M  V30 10920 H 1033.78 0.799588 -1.72356 0
M  V30 10921 H 1031.93 3.24661 -2.13372 0
M  V30 10922 H 1033.61 1.74684 -4.26946 0
M  V30 10923 H 1031.85 1.57826 -4.04071 0
M  V30 10924 H 1032.52 3.13215 -4.54533 0
M  V30 10925 H 1035 3.23174 -2.62103 0
M  V30 10926 H 1033.87 4.52894 -3.10127 0
M  V30 10927 H 1034.13 4.19458 -1.3967 0
M  V30 10928 N 1033.19 1.2685 0.935242 0
M  V30 10929 C 1034.44 1.12912 1.6846 0
M  V30 10930 C 1034.77 -0.325708 1.91449 0
M  V30 10931 O 1034.05 -1.23884 1.49944 0
M  V30 10932 C 1034.33 1.90513 3.05576 0
M  V30 10933 C 1034.18 3.43936 2.89876 0
M  V30 10934 C 1035.5 1.70363 4.05789 0
M  V30 10935 H 1032.62 0.411559 0.611382 0
M  V30 10936 H 1035.26 1.55917 1.08582 0
M  V30 10937 H 1033.41 1.53963 3.5669 0
M  V30 10938 H 1035.08 3.90272 2.45939 0
M  V30 10939 H 1033.33 3.70659 2.25376 0
M  V30 10940 H 1034 3.93467 3.87153 0
M  V30 10941 H 1036.47 2.02217 3.63659 0
M  V30 10942 H 1035.35 2.27066 4.99732 0
M  V30 10943 H 1035.61 0.649674 4.373 0
M  V30 10944 N 1034.67 -1.14067 1.0875 0
M  V30 10945 C 1035.58 -2.22871 0.732498 0
M  V30 10946 C 1036.6 -1.72008 -0.26253 0
M  V30 10947 O 1037.77 -2.01123 -0.105601 0
M  V30 10948 C 1034.84 -3.46371 0.150913 0
M  V30 10949 C 1033.9 -4.12158 1.201 0
M  V30 10950 C 1033.13 -5.29763 0.647075 0
M  V30 10951 O 1033.35 -5.67911 -0.532307 0
M  V30 10952 O 1032.29 -5.8542 1.3988 0
M  V30 10953 H 1036.11 -2.55596 1.64025 0
M  V30 10954 H 1033.7 -1.22065 0.861417 0
M  V30 10955 H 1035.58 -4.21055 -0.170442 0
M  V30 10956 H 1034.26 -3.15362 -0.729948 0
M  V30 10957 H 1033.16 -3.39332 1.57494 0
M  V30 10958 H 1034.5 -4.47282 2.05426 0
M  V30 10959 N 1036.15 -0.873678 -1.31166 0
M  V30 10960 C 1037.11 -0.337069 -2.26708 0
M  V30 10961 C 1038.11 0.51406 -1.52362 0
M  V30 10962 O 1039.3 0.322834 -1.71182 0
M  V30 10963 C 1036.43 0.520897 -3.36897 0
M  V30 10964 H 1037.63 -1.18056 -2.75686 0
M  V30 10965 H 1035.18 -0.649577 -1.42163 0
M  V30 10966 H 1035.91 1.38543 -2.93217 0
M  V30 10967 H 1035.7 -0.0886015 -3.92 0
M  V30 10968 H 1037.19 0.888497 -4.08039 0
M  V30 10969 N 1037.63 1.44308 -0.633487 0
M  V30 10970 C 1038.59 2.2912 0.060376 0
M  V30 10971 C 1039.59 1.41166 0.769992 0
M  V30 10972 O 1040.78 1.63012 0.614224 0
M  V30 10973 C 1037.91 3.22798 1.0961 0
M  V30 10974 H 1039.1 2.91958 -0.685617 0
M  V30 10975 H 1036.66 1.51259 -0.393738 0
M  V30 10976 H 1037.39 2.64815 1.87199 0
M  V30 10977 H 1037.18 3.87618 0.591161 0
M  V30 10978 H 1038.67 3.86504 1.58127 0
M  V30 10979 N 1039.1 0.374177 1.53094 0
M  V30 10980 C 1040.35 -0.213981 2.00562 0
M  V30 10981 C 1040.67 -1.4916 1.26533 0
M  V30 10982 O 1041.87 -2.15889 1.64634 0
M  V30 10983 C 1040.33 -0.431876 3.57299 0
M  V30 10984 C 1039.94 0.831615 4.40214 0
M  V30 10985 C 1041.68 -0.977222 4.13099 0
M  V30 10986 C 1039.59 0.582831 5.88521 0
M  V30 10987 H 1038.52 -0.0837386 0.749336 0
M  V30 10988 H 1041.17 0.494245 1.76719 0
M  V30 10989 H 1039.55 -1.20158 3.7733 0
M  V30 10990 H 1040.72 1.60477 4.31953 0
M  V30 10991 H 1039.04 1.30081 3.9556 0
M  V30 10992 H 1041.64 -1.17881 5.21544 0
M  V30 10993 H 1041.98 -1.94189 3.68234 0
M  V30 10994 H 1042.51 -0.267473 3.969 0
M  V30 10995 H 1039.25 1.51807 6.37679 0
M  V30 10996 H 1038.77 -0.151666 5.99608 0
M  V30 10997 H 1040.45 0.211604 6.46654 0
M  V30 10998 N 1040.58 -1.57259 0.103575 0
M  V30 10999 C 1041.81 -1.99424 -0.569638 0
M  V30 11000 C 1042.23 -0.982475 -1.60403 0
M  V30 11001 O 1041.59 0.0479231 -1.81237 0
M  V30 11002 C 1041.64 -3.40527 -1.18633 0
M  V30 11003 O 1040.74 -3.42167 -2.30208 0
M  V30 11004 H 1040.08 -0.648251 -0.143759 0
M  V30 11005 H 1042.61 -2.03739 0.187493 0
M  V30 11006 H 1042.62 -3.78404 -1.5256 0
M  V30 11007 H 1041.3 -4.13686 -0.428582 0
M  V30 11008 H 1039.88 -3.16093 -1.97837 0
M  V30 11009 N 1042.06 0.170153 -1.56679 0
M  V30 11010 C 1043.29 0.900826 -1.85927 0
M  V30 11011 C 1043.7 1.76285 -0.687033 0
M  V30 11012 O 1043.04 1.80276 0.353029 0
M  V30 11013 C 1043.1 1.82723 -3.096 0
M  V30 11014 C 1042.77 1.14469 -4.42432 0
M  V30 11015 C 1043.76 0.509598 -5.17396 0
M  V30 11016 C 1041.45 1.1411 -4.89167 0
M  V30 11017 C 1043.44 -0.119976 -6.37287 0
M  V30 11018 C 1041.13 0.507703 -6.08987 0
M  V30 11019 C 1042.13 -0.121731 -6.82892 0
M  V30 11020 O 1041.82 -0.74514 -8.00439 0
M  V30 11021 H 1041.55 0.267087 -0.621 0
M  V30 11022 H 1044.1 0.17474 -2.04655 0
M  V30 11023 H 1042.33 2.59367 -2.8682 0
M  V30 11024 H 1044.02 2.42784 -3.25285 0
M  V30 11025 H 1044.79 0.504341 -4.82371 0
M  V30 11026 H 1040.67 1.62043 -4.31582 0
M  V30 11027 H 1044.21 -0.611872 -6.94911 0
M  V30 11028 H 1040.11 0.510548 -6.43478 0
M  V30 11029 H 1040.88 -0.644506 -8.15959 0
M  V30 11030 N 1043.54 1.5137 0.438746 0
M  V30 11031 C 1044.77 1.67774 1.21077 0
M  V30 11032 C 1045.18 0.374489 1.85049 0
M  V30 11033 O 1044.54 -0.646867 1.70651 0
M  V30 11034 C 1044.59 2.79238 2.29584 0
M  V30 11035 O 1044.31 4.04513 1.68228 0
M  V30 11036 C 1045.81 3.06898 3.19888 0
M  V30 11037 H 1043.03 0.563054 0.364981 0
M  V30 11038 H 1045.58 1.97777 0.520035 0
M  V30 11039 H 1043.73 2.51837 2.94375 0
M  V30 11040 H 1044.14 4.66405 2.3993 0
M  V30 11041 H 1045.62 3.88476 3.92162 0
M  V30 11042 H 1046.1 2.19249 3.80561 0
M  V30 11043 H 1046.7 3.35952 2.60799 0
M  V30 11044 N 1045.02 -0.694098 1.41492 0
M  V30 11045 C 1046.26 -1.45127 1.4065 0
M  V30 11046 C 1046.59 -1.94993 0.0170289 0
M  V30 11047 O 1045.86 -1.71799 -0.941372 0
M  V30 11048 H 1044.44 -0.538493 0.51772 0
M  V30 11049 H 1047.1 -0.821441 1.76744 0
M  V30 11050 H 1046.19 -2.31372 2.0946 0
M  V30 11051 N 1046.49 -1.27344 -0.928501 0
M  V30 11052 C 1047.77 -1.04362 -1.65433 0
M  V30 11053 C 1048.15 0.421896 -2.06841 0
M  V30 11054 O 1047.5 1.40496 -1.80203 0
M  V30 11055 C 1047.71 -2.00442 -2.85699 0
M  V30 11056 C 1049.06 -2.29767 -3.57061 0
M  V30 11057 O 1050.08 -1.98409 -2.95825 0
M  V30 11058 O 1048.94 -2.83217 -4.67387 0
M  V30 11059 H 1046.03 -0.397783 -0.72505 0
M  V30 11060 H 1048.58 -1.38606 -0.979109 0
M  V30 11061 H 1047.35 -2.99281 -2.52085 0
M  V30 11062 H 1046.98 -1.66755 -3.60941 0
M  V30 11063 N 1047.97 1.13488 -1.09353 0
M  V30 11064 C 1049.22 1.85022 -0.830354 0
M  V30 11065 C 1049.55 1.83266 0.64242 0
M  V30 11066 O 1048.83 1.27024 1.47293 0
M  V30 11067 C 1049.11 3.33218 -1.36521 0
M  V30 11068 C 1048.96 3.43491 -2.90404 0
M  V30 11069 C 1050.28 4.28626 -0.998381 0
M  V30 11070 H 1047.4 0.671786 -0.303105 0
M  V30 11071 H 1050.04 1.33211 -1.3548 0
M  V30 11072 H 1048.19 3.77471 -0.919117 0
M  V30 11073 H 1049.86 3.07954 -3.43456 0
M  V30 11074 H 1048.11 2.84391 -3.27573 0
M  V30 11075 H 1048.78 4.47702 -3.22905 0
M  V30 11076 H 1051.25 3.9244 -1.38311 0
M  V30 11077 H 1050.13 5.30754 -1.39968 0
M  V30 11078 H 1050.39 4.42001 0.093517 0
M  V30 11079 N 1049.45 0.880621 1.30701 0
M  V30 11080 C 1050.41 0.349087 2.26526 0
M  V30 11081 C 1051.41 -0.505973 1.52632 0
M  V30 11082 O 1052.6 -0.313751 1.71351 0
M  V30 11083 C 1049.74 -0.503023 3.37168 0
M  V30 11084 H 1050.93 1.19516 2.75056 0
M  V30 11085 H 1048.48 0.657107 1.41816 0
M  V30 11086 H 1049.22 -1.36986 2.93948 0
M  V30 11087 H 1049 0.109389 3.91947 0
M  V30 11088 H 1050.49 -0.866845 4.08504 0
M  V30 11089 N 1050.93 -1.4397 0.641131 0
M  V30 11090 C 1052.21 -1.95436 0.0800918 0
M  V30 11091 C 1052.59 -1.58282 -1.39678 0
M  V30 11092 O 1051.93 -0.861867 -2.11623 0
M  V30 11093 C 1052.14 -3.47589 0.313531 0
M  V30 11094 C 1053.49 -4.2407 0.212034 0
M  V30 11095 O 1054.52 -3.55353 0.245434 0
M  V30 11096 O 1053.38 -5.46356 0.125455 0
M  V30 11097 H 1050.47 -0.826834 -0.0165735 0
M  V30 11098 H 1053.02 -1.5397 0.71353 0
M  V30 11099 H 1051.79 -3.67716 1.33793 0
M  V30 11100 H 1051.41 -3.96025 -0.353563 0
M  V30 11101 N 1052.41 -0.382291 -1.52893 0
M  V30 11102 C 1053.82 0.0932841 -1.86467 0
M  V30 11103 C 1054.17 1.4675 -1.30226 0
M  V30 11104 O 1053.29 2.07001 -0.63084 0
M  V30 11105 C 1053.89 0.176048 -3.38342 0
M  V30 11106 C 1052.45 0.595904 -3.71653 0
M  V30 11107 C 1051.6 -0.246511 -2.76202 0
M  V30 11108 H 1054.55 -0.600443 -1.46903 0
M  V30 11109 H 1054.57 0.996512 -3.67219 0
M  V30 11110 H 1054.08 -0.824264 -3.79246 0
M  V30 11111 H 1052.18 1.60384 -3.36315 0
M  V30 11112 H 1052.29 0.358919 -4.77754 0
M  V30 11113 H 1050.66 0.287162 -2.53076 0
M  V30 11114 H 1051.44 -1.24467 -3.19942 0
M  V30 11115 N 1053.89 1.57202 -0.111913 0
M  V30 11116 C 1055.11 1.99723 0.559054 0
M  V30 11117 C 1055.54 0.990968 1.59879 0
M  V30 11118 O 1054.89 -0.038311 1.8126 0
M  V30 11119 C 1054.94 3.41151 1.16826 0
M  V30 11120 O 1054.05 3.43383 2.2839 0
M  V30 11121 H 1053.39 0.649004 0.140319 0
M  V30 11122 H 1055.92 2.03637 -0.198295 0
M  V30 11123 H 1055.93 3.79208 1.50551 0
M  V30 11124 H 1054.6 4.13907 0.406637 0
M  V30 11125 H 1053.18 3.17138 1.96158 0
M  V30 11126 N 1055.36 -0.161842 1.56767 0
M  V30 11127 C 1056.78 -0.51396 1.51098 0
M  V30 11128 C 1056.98 -1.84158 0.817815 0
M  V30 11129 O 1056.04 -2.49592 0.382133 0
M  V30 11130 C 1057.35 -0.537966 2.95849 0
M  V30 11131 C 1058.9 -0.624512 3.06706 0
M  V30 11132 C 1059.37 -0.679322 4.52934 0
M  V30 11133 N 1060.86 -0.741953 4.57219 0
M  V30 11134 C 1061.6 -0.805096 5.6772 0
M  V30 11135 N 1061.09 -0.828492 6.87828 0
M  V30 11136 N 1062.89 -0.844843 5.55715 0
M  V30 11137 H 1055.04 0.708581 2.00232 0
M  V30 11138 H 1057.3 0.25663 0.912603 0
M  V30 11139 H 1057.01 0.369052 3.49758 0
M  V30 11140 H 1056.88 -1.38113 3.51005 0
M  V30 11141 H 1059.27 -1.52195 2.52825 0
M  V30 11142 H 1059.35 0.245515 2.54619 0
M  V30 11143 H 1058.99 0.213901 5.07449 0
M  V30 11144 H 1058.92 -1.56563 5.02788 0
M  V30 11145 H 1061.41 -0.731772 3.70747 0
M  V30 11146 H 1061.73 -0.878109 7.67795 0
M  V30 11147 H 1060.07 -0.796612 6.9042 0
M  V30 11148 H 1063.26 -0.823632 4.60797 0
M  V30 11149 H 1063.44 -0.890588 6.41851 0
M  V30 11150 N 1056.84 -1.516 -0.430713 0
M  V30 11151 C 1058.07 -1.68414 -1.20185 0
M  V30 11152 C 1058.48 -0.384297 -1.84847 0
M  V30 11153 O 1057.84 0.637808 -1.70992 0
M  V30 11154 C 1057.89 -2.80451 -2.28099 0
M  V30 11155 O 1057.61 -4.05399 -1.66081 0
M  V30 11156 C 1059.11 -3.0859 -3.18256 0
M  V30 11157 H 1056.33 -0.564982 -0.361989 0
M  V30 11158 H 1058.88 -1.9805 -0.50954 0
M  V30 11159 H 1057.03 -2.53395 -2.93036 0
M  V30 11160 H 1057.45 -4.67671 -2.37453 0
M  V30 11161 H 1058.92 -3.9055 -3.90096 0
M  V30 11162 H 1059.4 -2.21264 -3.79393 0
M  V30 11163 H 1060 -3.37331 -2.59014 0
M  V30 11164 N 1058.32 0.686584 -1.41858 0
M  V30 11165 C 1059.27 1.80038 -1.44413 0
M  V30 11166 C 1060.24 1.63415 -0.297427 0
M  V30 11167 O 1061.42 1.84138 -0.499789 0
M  V30 11168 C 1058.56 3.17988 -1.34082 0
M  V30 11169 C 1057.67 3.45979 -2.58693 0
M  V30 11170 C 1056.81 4.73592 -2.4059 0
M  V30 11171 C 1055.85 4.94581 -3.60633 0
M  V30 11172 N 1054.99 6.13426 -3.41545 0
M  V30 11173 H 1059.83 1.77189 -2.396 0
M  V30 11174 H 1057.36 0.865158 -1.18968 0
M  V30 11175 H 1059.32 3.97689 -1.26092 0
M  V30 11176 H 1057.95 3.1999 -0.424975 0
M  V30 11177 H 1057 2.60617 -2.77097 0
M  V30 11178 H 1058.31 3.57386 -3.47961 0
M  V30 11179 H 1057.47 5.61364 -2.30119 0
M  V30 11180 H 1056.21 4.64448 -1.48794 0
M  V30 11181 H 1055.21 4.05254 -3.71549 0
M  V30 11182 H 1056.44 5.05578 -4.53395 0
M  V30 11183 H 1054.38 6.05477 -2.52456 0
M  V30 11184 H 1054.3 6.25641 -4.24393 0
M  V30 11185 H 1055.57 7.03908 -3.34864 0
M  V30 11186 N 1059.8 1.27835 0.921735 0
M  V30 11187 C 1061.03 1.17182 1.70153 0
M  V30 11188 C 1061.44 -0.273207 1.87217 0
M  V30 11189 O 1060.78 -1.19729 1.39322 0
M  V30 11190 C 1060.84 1.78969 3.11786 0
M  V30 11191 C 1060.5 3.28179 3.18037 0
M  V30 11192 C 1061.5 4.24729 2.99835 0
M  V30 11193 C 1059.19 3.68995 3.40805 0
M  V30 11194 C 1061.18 5.60071 3.04301 0
M  V30 11195 C 1058.87 5.04465 3.44904 0
M  V30 11196 C 1059.87 5.99813 3.2667 0
M  V30 11197 O 1059.55 7.32813 3.30515 0
M  V30 11198 H 1059.29 0.408079 0.538932 0
M  V30 11199 H 1061.84 1.69326 1.16266 0
M  V30 11200 H 1060.07 1.2131 3.6718 0
M  V30 11201 H 1061.76 1.62946 3.71757 0
M  V30 11202 H 1062.52 3.94533 2.8208 0
M  V30 11203 H 1058.4 2.9525 3.54045 0
M  V30 11204 H 1061.95 6.34471 2.89987 0
M  V30 11205 H 1057.84 5.34315 3.62185 0
M  V30 11206 H 1058.61 7.41338 3.4693 0
M  V30 11207 N 1061.28 -1.12907 1.09954 0
M  V30 11208 C 1062.5 -1.88679 0.861099 0
M  V30 11209 C 1062.93 -1.78853 -0.582499 0
M  V30 11210 O 1062.28 -1.13992 -1.4098 0
M  V30 11211 C 1062.33 -3.36047 1.30785 0
M  V30 11212 O 1061.44 -4.09716 0.469728 0
M  V30 11213 H 1060.78 -0.586447 0.31141 0
M  V30 11214 H 1063.31 -1.42818 1.46507 0
M  V30 11215 H 1063.32 -3.86882 1.29562 0
M  V30 11216 H 1061.99 -3.42516 2.35914 0
M  V30 11217 H 1060.57 -3.6887 0.54674 0
M  V30 11218 N 1062.75 -0.88754 -1.30232 0
M  V30 11219 C 1063.68 -0.372481 -2.3051 0
M  V30 11220 C 1064.66 0.546037 -1.61098 0
M  V30 11221 O 1065.85 0.459345 -1.88689 0
M  V30 11222 C 1062.98 0.411605 -3.44852 0
M  V30 11223 C 1061.93 -0.415383 -4.2598 0
M  V30 11224 C 1061.26 0.495463 -5.324 0
M  V30 11225 C 1062.56 -1.65886 -4.95257 0
M  V30 11226 H 1064.25 -1.21045 -2.7384 0
M  V30 11227 H 1061.8 -0.583498 -1.31648 0
M  V30 11228 H 1063.75 0.782584 -4.1407 0
M  V30 11229 H 1062.48 1.28325 -3.00334 0
M  V30 11230 H 1061.14 -0.768534 -3.58454 0
M  V30 11231 H 1060.78 1.36489 -4.84128 0
M  V30 11232 H 1060.48 -0.0540885 -5.87575 0
M  V30 11233 H 1062.01 0.862901 -6.04472 0
M  V30 11234 H 1063.42 -1.35832 -5.56976 0
M  V30 11235 H 1061.82 -2.14881 -5.60309 0
M  V30 11236 H 1062.89 -2.40181 -4.21237 0
M  V30 11237 N 1064.23 1.43628 -0.648757 0
M  V30 11238 C 1065.16 2.29045 0.0841858 0
M  V30 11239 C 1066.18 1.42262 0.791537 0
M  V30 11240 O 1067.37 1.66243 0.650039 0
M  V30 11241 C 1064.47 3.19075 1.14212 0
M  V30 11242 C 1063.64 4.34372 0.513799 0
M  V30 11243 C 1062.7 5.05307 1.46803 0
M  V30 11244 O 1061.72 5.60729 0.978346 0
M  V30 11245 N 1062.93 5.08393 2.80209 0
M  V30 11246 H 1065.69 2.9259 -0.648948 0
M  V30 11247 H 1063.25 1.54268 -0.491209 0
M  V30 11248 H 1065.24 3.63395 1.78119 0
M  V30 11249 H 1063.81 2.57161 1.77728 0
M  V30 11250 H 1063.03 3.93024 -0.304262 0
M  V30 11251 H 1064.32 5.08745 0.0749871 0
M  V30 11252 H 1063.72 4.64729 3.22557 0
M  V30 11253 H 1062.28 5.56445 3.3943 0
M  V30 11254 N 1065.71 0.390394 1.52688 0
M  V30 11255 C 1066.94 -0.191207 2.05713 0
M  V30 11256 C 1067.35 -1.40973 1.26188 0
M  V30 11257 O 1066.69 -1.81202 0.301938 0
M  V30 11258 C 1066.75 -0.624794 3.54029 0
M  V30 11259 C 1066.42 0.480413 4.54468 0
M  V30 11260 C 1067.41 1.33816 5.02384 0
M  V30 11261 C 1065.1 0.647754 4.98106 0
M  V30 11262 C 1067.09 2.34836 5.92563 0
M  V30 11263 C 1064.78 1.66129 5.88085 0
M  V30 11264 C 1065.78 2.51001 6.35206 0
M  V30 11265 O 1065.47 3.50622 7.23408 0
M  V30 11266 H 1065.2 -0.032221 0.675232 0
M  V30 11267 H 1067.75 0.554431 1.97776 0
M  V30 11268 H 1065.98 -1.42243 3.59589 0
M  V30 11269 H 1067.67 -1.13219 3.8979 0
M  V30 11270 H 1068.44 1.22019 4.694 0
M  V30 11271 H 1064.32 -0.00314511 4.61 0
M  V30 11272 H 1067.86 3.01117 6.29265 0
M  V30 11273 H 1063.76 1.77964 6.20483 0
M  V30 11274 H 1064.53 3.46644 7.41472 0
M  V30 11275 N 1067.19 -1.57141 0.120249 0
M  V30 11276 C 1068.42 -1.993 -0.544346 0
M  V30 11277 C 1068.83 -0.998858 -1.60684 0
M  V30 11278 O 1068.17 0.0162197 -1.83693 0
M  V30 11279 C 1068.23 -3.37874 -1.22808 0
M  V30 11280 C 1067.9 -4.55924 -0.313374 0
M  V30 11281 C 1068.89 -5.17962 0.448501 0
M  V30 11282 C 1066.58 -5.018 -0.224082 0
M  V30 11283 C 1068.57 -6.24264 1.28739 0
M  V30 11284 C 1066.26 -6.07963 0.618437 0
M  V30 11285 C 1067.26 -6.69061 1.3728 0
M  V30 11286 O 1066.94 -7.73173 2.20133 0
M  V30 11287 H 1066.68 -0.659466 -0.148596 0
M  V30 11288 H 1069.23 -2.04387 0.203779 0
M  V30 11289 H 1067.46 -3.29545 -2.02329 0
M  V30 11290 H 1069.15 -3.64314 -1.7897 0
M  V30 11291 H 1069.92 -4.83434 0.389395 0
M  V30 11292 H 1065.79 -4.53989 -0.80094 0
M  V30 11293 H 1069.34 -6.71883 1.87667 0
M  V30 11294 H 1065.24 -6.4192 0.678932 0
M  V30 11295 H 1066 -7.90276 2.13088 0
M  V30 11296 N 1068.67 0.153526 -1.5685 0
M  V30 11297 C 1069.6 1.21906 -1.9291 0
M  V30 11298 C 1070.58 1.4189 -0.794098 0
M  V30 11299 O 1071.76 1.56609 -1.0491 0
M  V30 11300 C 1068.89 2.57908 -2.19548 0
M  V30 11301 C 1067.93 2.54557 -3.42203 0
M  V30 11302 S 1068.77 2.01891 -4.95984 0
M  V30 11303 C 1069.92 3.39635 -5.25737 0
M  V30 11304 H 1070.16 0.911382 -2.82986 0
M  V30 11305 H 1067.69 0.358863 -1.50172 0
M  V30 11306 H 1069.65 3.36177 -2.35575 0
M  V30 11307 H 1068.31 2.85868 -1.30147 0
M  V30 11308 H 1067.5 3.54657 -3.58098 0
M  V30 11309 H 1067.1 1.84393 -3.25385 0
M  V30 11310 H 1069.4 4.35716 -5.18804 0
M  V30 11311 H 1070.34 3.28599 -6.27239 0
M  V30 11312 H 1070.75 3.36469 -4.53265 0
M  V30 11313 N 1070.14 1.51827 0.422667 0
M  V30 11314 C 1071.39 1.64893 1.16853 0
M  V30 11315 C 1071.71 0.37456 1.91369 0
M  V30 11316 O 1070.98 -0.610128 1.86157 0
M  V30 11317 H 1069.56 0.607744 0.434345 0
M  V30 11318 H 1072.23 1.88816 0.483159 0
M  V30 11319 H 1071.32 2.48361 1.89006 0
M  V30 11320 N 1071.62 -0.679052 1.4222 0
M  V30 11321 C 1072.55 -1.80481 1.48152 0
M  V30 11322 C 1073.53 -1.66698 0.338502 0
M  V30 11323 O 1074.72 -1.86183 0.552228 0
M  V30 11324 C 1071.85 -3.18746 1.37908 0
M  V30 11325 C 1070.8 -3.47258 2.50192 0
M  V30 11326 C 1070.13 -4.85052 2.25008 0
M  V30 11327 C 1071.43 -3.44576 3.92511 0
M  V30 11328 H 1073.12 -1.75774 2.42371 0
M  V30 11329 H 1070.67 -0.844241 1.16656 0
M  V30 11330 H 1072.62 -3.97229 1.40666 0
M  V30 11331 H 1071.35 -3.24119 0.401806 0
M  V30 11332 H 1070 -2.71133 2.46744 0
M  V30 11333 H 1069.65 -4.8707 1.25584 0
M  V30 11334 H 1069.35 -5.05092 3.00259 0
M  V30 11335 H 1070.88 -5.65825 2.29508 0
M  V30 11336 H 1072.29 -4.13036 3.97585 0
M  V30 11337 H 1070.69 -3.76151 4.67579 0
M  V30 11338 H 1071.76 -2.4323 4.19484 0
M  V30 11339 N 1073.1 -1.28322 -0.914942 0
M  V30 11340 C 1074.06 -1.12169 -1.99877 0
M  V30 11341 C 1075.06 -0.0617252 -1.60681 0
M  V30 11342 O 1076.25 -0.307405 -1.71466 0
M  V30 11343 C 1073.39 -0.711959 -3.33383 0
M  V30 11344 H 1074.58 -2.08425 -2.15636 0
M  V30 11345 H 1072.13 -1.11291 -1.09745 0
M  V30 11346 H 1072.87 0.251418 -3.23324 0
M  V30 11347 H 1072.65 -1.47764 -3.63192 0
M  V30 11348 H 1074.14 -0.621558 -4.12948 0
M  V30 11349 N 1074.58 1.12322 -1.10551 0
M  V30 11350 C 1075.49 2.21678 -0.767862 0
M  V30 11351 C 1076.5 1.72404 0.235132 0
M  V30 11352 O 1077.68 2.01266 0.0735912 0
M  V30 11353 C 1074.75 3.46087 -0.205999 0
M  V30 11354 C 1073.81 4.10195 -1.26642 0
M  V30 11355 C 1073.04 5.28666 -0.731274 0
M  V30 11356 O 1073.26 5.68686 0.44189 0
M  V30 11357 O 1072.2 5.83121 -1.49176 0
M  V30 11358 H 1076.02 2.52955 -1.6807 0
M  V30 11359 H 1073.61 1.2068 -0.880728 0
M  V30 11360 H 1075.49 4.21273 0.103435 0
M  V30 11361 H 1074.16 3.16484 0.679685 0
M  V30 11362 H 1073.07 3.36784 -1.62873 0
M  V30 11363 H 1074.4 4.43957 -2.12516 0
M  V30 11364 N 1076.06 0.894434 1.2976 0
M  V30 11365 C 1076.97 0.372622 2.31622 0
M  V30 11366 C 1077.98 -0.52996 1.65733 0
M  V30 11367 O 1079.16 -0.420807 1.96955 0
M  V30 11368 C 1076.22 -0.396076 3.4443 0
M  V30 11369 C 1075.28 0.537394 4.25923 0
M  V30 11370 C 1074.52 -0.194713 5.33345 0
M  V30 11371 O 1074.74 -1.41943 5.52457 0
M  V30 11372 O 1073.67 0.460055 6.00139 0
M  V30 11373 H 1077.5 1.21756 2.78225 0
M  V30 11374 H 1075.09 0.65858 1.34101 0
M  V30 11375 H 1076.97 -0.830962 4.13126 0
M  V30 11376 H 1075.64 -1.21716 2.99945 0
M  V30 11377 H 1074.55 1.02129 3.5989 0
M  V30 11378 H 1075.88 1.32475 4.74037 0
M  V30 11379 N 1077.53 -1.43282 0.656365 0
M  V30 11380 C 1078.46 -2.33492 -0.0196962 0
M  V30 11381 C 1079.45 -1.49647 -0.80868 0
M  V30 11382 O 1080.63 -1.78303 -0.769529 0
M  V30 11383 C 1077.76 -3.33052 -0.984574 0
M  V30 11384 C 1076.71 -4.26908 -0.305483 0
M  V30 11385 C 1076.04 -5.16531 -1.38202 0
M  V30 11386 C 1077.34 -5.16073 0.804081 0
M  V30 11387 H 1079.03 -2.90272 0.733661 0
M  V30 11388 H 1076.58 -1.39574 0.354259 0
M  V30 11389 H 1078.53 -3.9506 -1.46647 0
M  V30 11390 H 1077.26 -2.74535 -1.76913 0
M  V30 11391 H 1075.92 -3.66268 0.155995 0
M  V30 11392 H 1075.56 -4.54351 -2.1581 0
M  V30 11393 H 1075.26 -5.80148 -0.932878 0
M  V30 11394 H 1076.79 -5.81414 -1.86522 0
M  V30 11395 H 1078.2 -5.71873 0.404212 0
M  V30 11396 H 1076.6 -5.88427 1.17789 0
M  V30 11397 H 1077.67 -4.55574 1.66073 0
M  V30 11398 N 1079.01 -0.398486 -1.52479 0
M  V30 11399 C 1080.26 0.181019 -2.0199 0
M  V30 11400 C 1080.59 1.45691 -1.28405 0
M  V30 11401 O 1079.87 1.90607 -0.387207 0
M  V30 11402 C 1080.15 0.439587 -3.57407 0
M  V30 11403 C 1080 -0.85223 -4.41653 0
M  V30 11404 C 1081.32 1.2263 -4.2267 0
M  V30 11405 H 1078.44 0.0643164 -0.734188 0
M  V30 11406 H 1081.08 -0.52986 -1.82462 0
M  V30 11407 H 1079.23 1.04516 -3.74177 0
M  V30 11408 H 1080.91 -1.48879 -4.36615 0
M  V30 11409 H 1079.15 -1.46555 -4.08294 0
M  V30 11410 H 1079.82 -0.625839 -5.48441 0
M  V30 11411 H 1082.3 0.713722 -4.09933 0
M  V30 11412 H 1081.17 1.37596 -5.31374 0
M  V30 11413 H 1081.43 2.24403 -3.80914 0
M  V30 11414 N 1080.49 1.57075 -0.12858 0
M  V30 11415 C 1081.91 1.57964 0.227961 0
M  V30 11416 C 1082.11 1.14186 1.66023 0
M  V30 11417 O 1081.16 0.833655 2.38341 0
M  V30 11418 C 1082.48 3.00697 -0.0140648 0
M  V30 11419 C 1084.02 3.12958 0.0510876 0
M  V30 11420 C 1084.5 4.57709 -0.163368 0
M  V30 11421 N 1085.99 4.6307 -0.109663 0
M  V30 11422 C 1086.73 5.72853 -0.250366 0
M  V30 11423 N 1086.22 6.91351 -0.447772 0
M  V30 11424 N 1088.01 5.61781 -0.189265 0
M  V30 11425 H 1080.17 1.83829 -1.06398 0
M  V30 11426 H 1082.43 0.850014 -0.419739 0
M  V30 11427 H 1082.13 3.37047 -1.00461 0
M  V30 11428 H 1082.01 3.70389 0.713571 0
M  V30 11429 H 1084.4 2.7646 1.03216 0
M  V30 11430 H 1084.48 2.4579 -0.708583 0
M  V30 11431 H 1084.12 4.94907 -1.14146 0
M  V30 11432 H 1084.05 5.2298 0.616405 0
M  V30 11433 H 1086.54 3.7788 0.0390086 0
M  V30 11434 H 1086.85 7.70871 -0.54574 0
M  V30 11435 H 1085.2 6.93314 -0.483866 0
M  V30 11436 H 1088.39 4.68086 -0.0359374 0
M  V30 11437 H 1088.56 6.47294 -0.302359 0
M  V30 11438 N 1081.97 -0.145205 1.5693 0
M  V30 11439 C 1082.93 -1.16316 1.97492 0
M  V30 11440 C 1083.93 -1.35764 0.861668 0
M  V30 11441 O 1085.12 -1.32726 1.12825 0
M  V30 11442 C 1082.25 -2.52311 2.29242 0
M  V30 11443 H 1083.45 -0.815138 2.8861 0
M  V30 11444 H 1081 -0.38861 1.51392 0
M  V30 11445 H 1081.74 -2.92081 1.40922 0
M  V30 11446 H 1081.52 -2.39555 3.10412 0
M  V30 11447 H 1083.01 -3.25624 2.61456 0
M  V30 11448 N 1083.45 -1.52049 -0.414609 0
M  V30 11449 C 1084.7 -1.65511 -1.15977 0
M  V30 11450 C 1085.02 -0.384703 -1.91168 0
M  V30 11451 O 1084.29 0.600247 -1.86477 0
M  V30 11452 H 1082.87 -0.610039 -0.431116 0
M  V30 11453 H 1085.53 -1.8907 -0.473139 0
M  V30 11454 H 1084.62 -2.4936 -1.87686 0
M  V30 11455 N 1084.93 0.6715 -1.42579 0
M  V30 11456 C 1086.15 1.45972 -1.46628 0
M  V30 11457 C 1086.57 1.88636 -0.0785986 0
M  V30 11458 O 1085.93 1.58345 0.907372 0
M  V30 11459 C 1085.98 2.70668 -2.39627 0
M  V30 11460 O 1085.7 2.29793 -3.72997 0
M  V30 11461 C 1087.2 3.64201 -2.52731 0
M  V30 11462 H 1084.42 0.449044 -0.498598 0
M  V30 11463 H 1086.96 0.824811 -1.87129 0
M  V30 11464 H 1085.12 3.3034 -2.02371 0
M  V30 11465 H 1085.53 3.10341 -4.22834 0
M  V30 11466 H 1087.01 4.48412 -3.21918 0
M  V30 11467 H 1087.48 4.10323 -1.56626 0
M  V30 11468 H 1088.09 3.1042 -2.90722 0
M  V30 11469 N 1086.4 1.28806 0.908124 0
M  V30 11470 C 1087.35 1.09849 1.99793 0
M  V30 11471 C 1088.34 0.0204321 1.60887 0
M  V30 11472 O 1089.53 0.241204 1.75349 0
M  V30 11473 C 1086.66 0.768263 3.34593 0
M  V30 11474 C 1085.74 1.88544 3.79884 0
M  V30 11475 N 1086.14 3.12784 3.97492 0
M  V30 11476 C 1084.43 1.77657 4.09089 0
M  V30 11477 C 1085.13 3.85615 4.35518 0
M  V30 11478 N 1084.11 3.13501 4.44092 0
M  V30 11479 H 1087.91 2.04108 2.11464 0
M  V30 11480 H 1085.43 1.19807 1.09636 0
M  V30 11481 H 1087.42 0.613521 4.12361 0
M  V30 11482 H 1086.08 -0.166501 3.24273 0
M  V30 11483 H 1087.09 3.48333 3.83255 0
M  V30 11484 H 1083.77 0.913956 4.07373 0
M  V30 11485 H 1085.16 4.92492 4.57057 0
M  V30 11486 N 1087.88 -1.11734 1.11145 0
M  V30 11487 C 1089.13 -1.82766 0.853194 0
M  V30 11488 C 1089.44 -1.85408 -0.623168 0
M  V30 11489 O 1090.65 -2.52509 -0.997574 0
M  V30 11490 C 1089.11 -3.28215 1.47658 0
M  V30 11491 C 1088.71 -3.33911 2.98676 0
M  V30 11492 C 1090.46 -4.04168 1.29803 0
M  V30 11493 C 1088.36 -4.73739 3.54013 0
M  V30 11494 H 1087.29 -0.684807 0.315523 0
M  V30 11495 H 1089.95 -1.25756 1.33633 0
M  V30 11496 H 1088.33 -3.85138 0.921116 0
M  V30 11497 H 1089.5 -2.86887 3.606 0
M  V30 11498 H 1087.82 -2.71437 3.15771 0
M  V30 11499 H 1090.41 -5.07429 1.68582 0
M  V30 11500 H 1090.76 -4.15606 0.240302 0
M  V30 11501 H 1091.29 -3.53623 1.82196 0
M  V30 11502 H 1088.03 -4.67497 4.59485 0
M  V30 11503 H 1087.55 -5.21186 2.9686 0
M  V30 11504 H 1089.23 -5.42691 3.52271 0
M  V30 11505 N 1089.36 -0.901303 -1.29284 0
M  V30 11506 C 1090.29 -0.396909 -2.30102 0
M  V30 11507 C 1091.27 0.528919 -1.61668 0
M  V30 11508 O 1092.46 0.439306 -1.89166 0
M  V30 11509 C 1089.59 0.375006 -3.45269 0
M  V30 11510 C 1088.54 -0.46054 -4.25515 0
M  V30 11511 C 1087.87 0.438967 -5.32895 0
M  V30 11512 C 1089.17 -1.7113 -4.93469 0
M  V30 11513 H 1090.86 -1.23943 -2.72541 0
M  V30 11514 H 1088.41 -0.597428 -1.31022 0
M  V30 11515 H 1090.36 0.738622 -4.14876 0
M  V30 11516 H 1089.08 1.25132 -3.01678 0
M  V30 11517 H 1087.74 -0.80651 -3.57618 0
M  V30 11518 H 1087.39 1.31346 -4.85548 0
M  V30 11519 H 1087.09 -0.116406 -5.87485 0
M  V30 11520 H 1088.61 0.79874 -6.05353 0
M  V30 11521 H 1090.03 -1.41732 -5.55504 0
M  V30 11522 H 1088.42 -2.20811 -5.57999 0
M  V30 11523 H 1089.49 -2.44636 -4.18666 0
M  V30 11524 N 1090.84 1.42931 -0.663954 0
M  V30 11525 C 1092.08 2.03557 -0.185479 0
M  V30 11526 C 1092.44 1.51309 1.18193 0
M  V30 11527 O 1093.64 2.03649 1.75444 0
M  V30 11528 C 1091.91 3.56802 -0.206705 0
M  V30 11529 S 1093.47 4.38333 0.202356 0
M  V30 11530 H 1090.29 0.706791 -0.0772523 0
M  V30 11531 H 1092.89 1.74841 -0.874688 0
M  V30 11532 H 1091.6 3.92328 -1.20445 0
M  V30 11533 H 1091.13 3.90175 0.502693 0
M  V30 11534 H 1093.14 4.7489 1.43853 0
M  V30 11535 N 1092.32 0.406567 1.52266 0
M  V30 11536 C 1093.56 -0.171391 2.00971 0
M  V30 11537 C 1093.88 -1.46443 1.29668 0
M  V30 11538 O 1095.08 -2.12348 1.69176 0
M  V30 11539 C 1093.54 -0.35599 3.58135 0
M  V30 11540 C 1093.15 0.924803 4.38351 0
M  V30 11541 C 1094.89 -0.889378 4.15079 0
M  V30 11542 C 1092.8 0.707534 5.87152 0
M  V30 11543 H 1091.73 -0.0678253 0.750943 0
M  V30 11544 H 1094.38 0.531619 1.7563 0
M  V30 11545 H 1092.76 -1.12127 3.79794 0
M  V30 11546 H 1093.94 1.69603 4.28452 0
M  V30 11547 H 1092.25 1.38442 3.92712 0
M  V30 11548 H 1094.85 -1.06792 5.23927 0
M  V30 11549 H 1095.19 -1.86334 3.7227 0
M  V30 11550 H 1095.72 -0.183224 3.97378 0
M  V30 11551 H 1092.46 1.65299 6.34316 0
M  V30 11552 H 1091.98 -0.024446 5.99795 0
M  V30 11553 H 1093.66 0.348721 6.4606 0
M  V30 11554 N 1093.79 -1.57004 0.136909 0
M  V30 11555 C 1094.74 -2.16246 -0.806607 0
M  V30 11556 C 1095.71 -1.09246 -1.25118 0
M  V30 11557 O 1096.9 -1.3724 -1.32551 0
M  V30 11558 C 1094.04 -2.78031 -2.04433 0
M  V30 11559 C 1093.15 -3.99393 -1.64649 0
M  V30 11560 C 1092.28 -4.49208 -2.83524 0
M  V30 11561 C 1091.32 -5.63059 -2.40064 0
M  V30 11562 N 1090.46 -6.07537 -3.51913 0
M  V30 11563 H 1095.3 -2.9654 -0.294596 0
M  V30 11564 H 1092.84 -1.46491 -0.133705 0
M  V30 11565 H 1094.8 -3.11992 -2.76978 0
M  V30 11566 H 1093.43 -2.00398 -2.53062 0
M  V30 11567 H 1092.48 -3.71477 -0.819077 0
M  V30 11568 H 1093.79 -4.81904 -1.28723 0
M  V30 11569 H 1092.94 -4.85171 -3.64271 0
M  V30 11570 H 1091.68 -3.65683 -3.22688 0
M  V30 11571 H 1090.69 -5.26682 -1.57754 0
M  V30 11572 H 1091.91 -6.48362 -2.01997 0
M  V30 11573 H 1089.86 -5.2695 -3.90717 0
M  V30 11574 H 1089.78 -6.84949 -3.1997 0
M  V30 11575 H 1091.04 -6.48143 -4.33048 0
M  V30 11576 N 1095.27 0.136881 -1.57004 0
M  V30 11577 C 1096.55 0.87705 -1.74835 0
M  V30 11578 C 1096.93 1.98886 -0.707639 0
M  V30 11579 O 1096.28 2.26879 0.271652 0
M  V30 11580 C 1096.49 1.41021 -3.1924 0
M  V30 11581 C 1097.84 1.86963 -3.81222 0
M  V30 11582 O 1098.86 1.5074 -3.22732 0
M  V30 11583 O 1097.72 2.53798 -4.83993 0
M  V30 11584 H 1094.81 0.415192 -0.715223 0
M  V30 11585 H 1097.36 0.122016 -1.69261 0
M  V30 11586 H 1096.13 0.611677 -3.8649 0
M  V30 11587 H 1095.75 2.22846 -3.2928 0
M  V30 11588 N 1096.75 1.52266 0.40654 0
M  V30 11589 C 1097.68 1.70519 1.51653 0
M  V30 11590 C 1098.66 0.552798 1.52915 0
M  V30 11591 O 1099.85 0.780468 1.71584 0
M  V30 11592 C 1096.97 1.74686 2.90176 0
M  V30 11593 C 1096.02 2.96255 3.06815 0
M  V30 11594 S 1096.85 4.56553 2.79856 0
M  V30 11595 C 1098.01 4.63511 4.20605 0
M  V30 11596 H 1098.24 2.64399 1.35942 0
M  V30 11597 H 1095.77 1.42337 0.598284 0
M  V30 11598 H 1097.73 1.77773 3.7001 0
M  V30 11599 H 1096.39 0.819291 3.03227 0
M  V30 11600 H 1095.59 2.95661 4.08167 0
M  V30 11601 H 1095.19 2.91069 2.34851 0
M  V30 11602 H 1097.48 4.41047 5.1428 0
M  V30 11603 H 1098.42 5.65456 4.26222 0
M  V30 11604 H 1098.83 3.92518 4.05697 0
M  V30 11605 N 1098.23 -0.663929 1.42933 0
M  V30 11606 C 1099.19 -1.75899 1.46943 0
M  V30 11607 C 1100.19 -1.5682 0.355535 0
M  V30 11608 O 1101.38 -1.62914 0.616833 0
M  V30 11609 C 1098.51 -3.14657 1.31164 0
M  V30 11610 H 1099.71 -1.73727 2.44456 0
M  V30 11611 H 1097.26 -0.874587 1.2954 0
M  V30 11612 H 1097.99 -3.22447 0.346165 0
M  V30 11613 H 1097.78 -3.29909 2.11902 0
M  V30 11614 H 1099.27 -3.9453 1.36878 0
M  V30 11615 N 1099.71 -1.29285 -0.901281 0
M  V30 11616 C 1100.95 -1.16934 -1.64836 0
M  V30 11617 C 1101.28 0.279826 -1.92982 0
M  V30 11618 O 1100.55 1.19179 -1.55478 0
M  V30 11619 H 1099.13 -0.429768 -0.61099 0
M  V30 11620 H 1101.79 -1.62189 -1.08077 0
M  V30 11621 H 1100.88 -1.71821 -2.60545 0
M  V30 11622 N 1101.18 1.11143 -1.11736 0
M  V30 11623 C 1102.11 2.19339 -0.800795 0
M  V30 11624 C 1103.1 1.68508 0.23221 0
M  V30 11625 O 1104.28 1.93967 0.0950063 0
M  V30 11626 C 1101.41 3.46424 -0.246579 0
M  V30 11627 C 1100.36 4.10487 -1.21181 0
M  V30 11628 C 1099.69 5.32183 -0.518158 0
M  V30 11629 C 1100.99 4.55052 -2.56368 0
M  V30 11630 H 1102.68 2.46077 -1.70548 0
M  V30 11631 H 1100.23 1.18271 -0.821454 0
M  V30 11632 H 1102.18 4.21398 -0.0128889 0
M  V30 11633 H 1100.91 3.19154 0.693415 0
M  V30 11634 H 1099.57 3.3751 -1.43118 0
M  V30 11635 H 1099.21 5.01187 0.426742 0
M  V30 11636 H 1098.91 5.75997 -1.16196 0
M  V30 11637 H 1100.44 6.09895 -0.293333 0
M  V30 11638 H 1101.85 5.21335 -2.38501 0
M  V30 11639 H 1100.25 5.0969 -3.16758 0
M  V30 11640 H 1101.32 3.68343 -3.1536 0
M  V30 11641 N 1102.66 0.908147 1.28804 0
M  V30 11642 C 1103.59 0.409106 2.29888 0
M  V30 11643 C 1104.57 -0.520338 1.61946 0
M  V30 11644 O 1105.76 -0.429268 1.89396 0
M  V30 11645 C 1102.89 -0.35669 3.45463 0
M  V30 11646 C 1101.84 0.4831 4.25265 0
M  V30 11647 C 1101.17 -0.4107 5.3312 0
M  V30 11648 C 1102.47 1.73744 4.92555 0
M  V30 11649 H 1104.16 1.25386 2.7188 0
M  V30 11650 H 1101.71 0.604368 1.30703 0
M  V30 11651 H 1103.66 -0.71661 4.15262 0
M  V30 11652 H 1102.39 -1.2353 3.02337 0
M  V30 11653 H 1101.04 0.825464 3.57186 0
M  V30 11654 H 1100.69 -1.28769 4.86238 0
M  V30 11655 H 1100.39 0.14756 5.87415 0
M  V30 11656 H 1101.92 -0.766626 6.05768 0
M  V30 11657 H 1103.33 1.44676 5.54745 0
M  V30 11658 H 1101.73 2.23767 5.5682 0
M  V30 11659 H 1102.8 2.46853 4.17363 0
M  V30 11660 N 1104.14 -1.42577 0.671525 0
M  V30 11661 C 1105.09 -2.30798 -0.00883676 0
M  V30 11662 C 1106.06 -1.4578 -0.796076 0
M  V30 11663 O 1107.24 -1.74617 -0.768987 0
M  V30 11664 C 1104.38 -3.31581 -0.956452 0
M  V30 11665 C 1103.5 -4.31691 -0.163381 0
M  V30 11666 C 1102.63 -5.19549 -1.10645 0
M  V30 11667 C 1101.67 -6.1134 -0.304876 0
M  V30 11668 N 1100.81 -6.91761 -1.20048 0
M  V30 11669 H 1105.65 -2.88426 0.749301 0
M  V30 11670 H 1103.18 -1.42074 0.381251 0
M  V30 11671 H 1105.14 -3.88539 -1.51966 0
M  V30 11672 H 1103.77 -2.75561 -1.68126 0
M  V30 11673 H 1102.82 -3.76879 0.516396 0
M  V30 11674 H 1104.14 -4.96683 0.459099 0
M  V30 11675 H 1103.29 -5.81223 -1.73969 0
M  V30 11676 H 1102.03 -4.54726 -1.76282 0
M  V30 11677 H 1101.03 -5.48738 0.341597 0
M  V30 11678 H 1102.26 -6.78211 0.347352 0
M  V30 11679 H 1100.2 -6.2957 -1.84331 0
M  V30 11680 H 1100.12 -7.53345 -0.633003 0
M  V30 11681 H 1101.39 -7.57924 -1.82129 0
M  V30 11682 N 1105.62 -0.414636 -1.52048 0
M  V30 11683 C 1107.03 0.0537107 -1.86623 0
M  V30 11684 C 1107.38 1.43955 -1.3331 0
M  V30 11685 O 1106.51 2.05616 -0.674606 0
M  V30 11686 C 1107.1 0.104241 -3.3864 0
M  V30 11687 C 1105.66 0.516936 -3.72833 0
M  V30 11688 C 1104.81 -0.305042 -2.75617 0
M  V30 11689 H 1107.76 -0.631469 -1.45596 0
M  V30 11690 H 1107.78 0.918395 -3.6925 0
M  V30 11691 H 1107.29 -0.904523 -3.77412 0
M  V30 11692 H 1105.39 1.53214 -3.39641 0
M  V30 11693 H 1105.5 0.2575 -4.78408 0
M  V30 11694 H 1103.87 0.233416 -2.53628 0
M  V30 11695 H 1104.65 -1.31226 -3.1723 0
M  V30 11696 N 1107.1 1.56929 -0.145233 0
M  V30 11697 C 1108.32 2.00431 0.513314 0
M  V30 11698 C 1108.74 1.0253 1.58534 0
M  V30 11699 O 1108.1 0.0220459 1.82487 0
M  V30 11700 C 1108.15 3.43856 1.11557 0
M  V30 11701 O 1107.87 4.38015 0.0863707 0
M  V30 11702 C 1109.37 4.02627 1.8549 0
M  V30 11703 H 1106.59 0.657529 0.133778 0
M  V30 11704 H 1109.13 2.03095 -0.239296 0
M  V30 11705 H 1107.29 3.4205 1.81881 0
M  V30 11706 H 1107.7 5.21842 0.527363 0
M  V30 11707 H 1109.18 5.04985 2.22923 0
M  V30 11708 H 1109.65 3.43239 2.74014 0
M  V30 11709 H 1110.26 4.08058 1.19869 0
M  V30 11710 N 1108.58 -0.128553 1.57075 0
M  V30 11711 C 1109.54 -1.14215 1.98715 0
M  V30 11712 C 1110.54 -1.34843 0.876019 0
M  V30 11713 O 1111.73 -1.31522 1.14227 0
M  V30 11714 C 1108.86 -2.49865 2.31905 0
M  V30 11715 H 1110.05 -0.784481 2.89458 0
M  V30 11716 H 1107.61 -0.372531 1.51796 0
M  V30 11717 H 1108.34 -2.9057 1.44012 0
M  V30 11718 H 1108.13 -2.3625 3.12935 0
M  V30 11719 H 1109.62 -3.22832 2.64895 0
M  V30 11720 N 1110.05 -1.5248 -0.398459 0
M  V30 11721 C 1111.29 -1.68744 -1.15346 0
M  V30 11722 C 1111.66 -0.413739 -1.87489 0
M  V30 11723 O 1112.86 -0.452624 -2.64962 0
M  V30 11724 C 1111.13 -2.8824 -2.11311 0
M  V30 11725 S 1112.69 -3.25043 -2.94775 0
M  V30 11726 H 1109.51 -0.594099 -0.390598 0
M  V30 11727 H 1112.11 -1.90502 -0.439228 0
M  V30 11728 H 1110.81 -3.79175 -1.57017 0
M  V30 11729 H 1110.34 -2.68787 -2.87258 0
M  V30 11730 H 1112.36 -2.74495 -4.13361 0
M  V30 11731 N 1111.53 0.65634 -1.43283 0
M  V30 11732 C 1112.76 1.44408 -1.48168 0
M  V30 11733 C 1113.17 1.88542 -0.0986016 0
M  V30 11734 O 1112.53 1.59298 0.890527 0
M  V30 11735 C 1112.58 2.68111 -2.42484 0
M  V30 11736 O 1112.3 2.25824 -3.75413 0
M  V30 11737 C 1113.8 3.61499 -2.56579 0
M  V30 11738 H 1111.02 0.443731 -0.503333 0
M  V30 11739 H 1113.57 0.804917 -1.87993 0
M  V30 11740 H 1111.72 3.28175 -2.05863 0
M  V30 11741 H 1112.14 3.05839 -4.26102 0
M  V30 11742 H 1113.61 4.44972 -3.26655 0
M  V30 11743 H 1114.09 4.08639 -1.60969 0
M  V30 11744 H 1114.69 3.07319 -2.93998 0
M  V30 11745 N 1113.01 1.29761 0.894412 0
M  V30 11746 C 1113.94 1.09666 2.00121 0
M  V30 11747 C 1114.92 0.00700077 1.62598 0
M  V30 11748 O 1116.1 0.158728 1.87831 0
M  V30 11749 C 1113.23 0.670588 3.31995 0
M  V30 11750 C 1112.28 1.75974 3.88504 0
M  V30 11751 S 1113.11 3.36013 4.1696 0
M  V30 11752 C 1114.27 2.95285 5.51867 0
M  V30 11753 H 1114.5 2.03369 2.1686 0
M  V30 11754 H 1112.03 1.13968 1.04166 0
M  V30 11755 H 1113.99 0.431481 4.08226 0
M  V30 11756 H 1112.65 -0.246924 3.13128 0
M  V30 11757 H 1111.84 1.41367 4.83768 0
M  V30 11758 H 1111.45 1.95264 3.1898 0
M  V30 11759 H 1113.74 2.42659 6.32553 0
M  V30 11760 H 1114.68 3.8942 5.91403 0
M  V30 11761 H 1115.09 2.33426 5.13977 0
M  V30 11762 N 1114.49 -1.10549 1.12324 0
M  V30 11763 C 1115.42 -2.18911 0.812416 0
M  V30 11764 C 1116.4 -1.68628 -0.22327 0
M  V30 11765 O 1117.58 -1.94015 -0.0847184 0
M  V30 11766 C 1114.71 -3.46288 0.264947 0
M  V30 11767 C 1113.67 -4.09838 1.23356 0
M  V30 11768 C 1112.99 -5.31901 0.546374 0
M  V30 11769 C 1114.29 -4.53686 2.58778 0
M  V30 11770 H 1115.99 -2.45169 1.71851 0
M  V30 11771 H 1113.53 -1.17834 0.827715 0
M  V30 11772 H 1115.49 -4.21385 0.0352364 0
M  V30 11773 H 1114.21 -3.19517 -0.676479 0
M  V30 11774 H 1112.87 -3.36746 1.44906 0
M  V30 11775 H 1112.52 -5.01406 -0.400157 0
M  V30 11776 H 1112.22 -5.75372 1.19249 0
M  V30 11777 H 1113.74 -6.09731 0.325673 0
M  V30 11778 H 1115.16 -5.20063 2.41263 0
M  V30 11779 H 1113.55 -5.08003 3.19457 0
M  V30 11780 H 1114.62 -3.66665 3.17309 0
M  V30 11781 N 1115.97 -0.914965 -1.28321 0
M  V30 11782 C 1117.21 -0.549562 -1.95212 0
M  V30 11783 C 1117.54 0.904658 -1.71842 0
M  V30 11784 O 1116.82 1.64354 -1.04009 0
M  V30 11785 C 1117.1 -0.860927 -3.49657 0
M  V30 11786 C 1116.96 -2.36797 -3.82423 0
M  V30 11787 C 1118.27 -0.357926 -4.38642 0
M  V30 11788 H 1115.39 -0.201136 -0.709023 0
M  V30 11789 H 1118.04 -1.14443 -1.51667 0
M  V30 11790 H 1116.19 -0.354665 -3.86878 0
M  V30 11791 H 1117.86 -2.94494 -3.55065 0
M  V30 11792 H 1116.1 -2.82245 -3.29424 0
M  V30 11793 H 1116.77 -2.53637 -4.90278 0
M  V30 11794 H 1119.25 -0.791636 -4.085 0
M  V30 11795 H 1118.12 -0.604855 -5.45557 0
M  V30 11796 H 1118.38 0.741775 -4.35833 0
M  V30 11797 N 1117.44 1.42219 -0.679077 0
M  V30 11798 C 1118.67 2.06333 -0.210097 0
M  V30 11799 C 1119.09 1.50703 1.12562 0
M  V30 11800 O 1118.45 0.627241 1.70104 0
M  V30 11801 C 1118.5 3.60243 -0.160322 0
M  V30 11802 O 1117.6 4.03122 0.869872 0
M  V30 11803 H 1116.94 0.655362 -0.106754 0
M  V30 11804 H 1119.47 1.82278 -0.929294 0
M  V30 11805 H 1119.48 4.07997 0.014384 0
M  V30 11806 H 1118.16 4.00106 -1.13526 0
M  V30 11807 H 1116.74 3.66907 0.66586 0
M  V30 11808 N 1118.92 0.422693 1.51826 0
M  V30 11809 C 1120.15 -0.15017 2.06856 0
M  V30 11810 C 1120.57 -1.36946 1.28948 0
M  V30 11811 O 1119.93 -1.78393 0.32338 0
M  V30 11812 C 1119.98 -0.465563 3.57582 0
M  V30 11813 O 1119.08 -1.55442 3.81984 0
M  V30 11814 H 1118.42 -0.00827931 0.663948 0
M  V30 11815 H 1120.95 0.599806 1.95611 0
M  V30 11816 H 1120.96 -0.720279 4.01592 0
M  V30 11817 H 1119.64 0.425679 4.13716 0
M  V30 11818 H 1118.21 -1.29081 3.49846 0
M  V30 11819 N 1120.4 -1.5685 0.153553 0
M  V30 11820 C 1121.33 -2.20101 -0.779601 0
M  V30 11821 C 1122.31 -1.15121 -1.25225 0
M  V30 11822 O 1123.5 -1.43487 -1.30862 0
M  V30 11823 C 1120.63 -2.82778 -2.01628 0
M  V30 11824 C 1119.58 -3.93643 -1.68015 0
M  V30 11825 C 1118.91 -4.43286 -2.99001 0
M  V30 11826 C 1120.21 -5.14102 -0.921774 0
M  V30 11827 H 1121.9 -2.98334 -0.252432 0
M  V30 11828 H 1119.45 -1.43499 -0.119975 0
M  V30 11829 H 1121.4 -3.25696 -2.67395 0
M  V30 11830 H 1120.12 -2.01887 -2.56728 0
M  V30 11831 H 1118.78 -3.51354 -1.04624 0
M  V30 11832 H 1118.43 -3.59208 -3.52106 0
M  V30 11833 H 1118.13 -5.18068 -2.77272 0
M  V30 11834 H 1119.65 -4.88878 -3.65828 0
M  V30 11835 H 1121.07 -5.53823 -1.48167 0
M  V30 11836 H 1119.46 -5.94687 -0.804185 0
M  V30 11837 H 1120.53 -4.84825 0.0852757 0
M  V30 11838 N 1121.88 0.120221 -1.57141 0
M  V30 11839 C 1123.29 0.473718 -1.52408 0
M  V30 11840 C 1123.49 1.81925 -0.866354 0
M  V30 11841 O 1122.55 2.48491 -0.448173 0
M  V30 11842 C 1123.86 0.459338 -2.97171 0
M  V30 11843 C 1125.41 0.542975 -3.08254 0
M  V30 11844 C 1125.89 0.558996 -4.54576 0
M  V30 11845 N 1127.38 0.620469 -4.59026 0
M  V30 11846 C 1128.11 0.654292 -5.69655 0
M  V30 11847 N 1127.61 0.645835 -6.89783 0
M  V30 11848 N 1129.4 0.697208 -5.57759 0
M  V30 11849 H 1121.55 -0.76142 -1.98283 0
M  V30 11850 H 1123.81 -0.280736 -0.905479 0
M  V30 11851 H 1123.52 -0.461654 -3.48657 0
M  V30 11852 H 1123.39 1.28759 -3.54543 0
M  V30 11853 H 1125.78 1.45439 -2.56772 0
M  V30 11854 H 1125.86 -0.312936 -2.53879 0
M  V30 11855 H 1125.51 -0.348367 -5.06704 0
M  V30 11856 H 1125.44 1.43177 -5.06762 0
M  V30 11857 H 1127.93 0.633218 -3.72557 0
M  V30 11858 H 1128.24 0.674233 -7.69853 0
M  V30 11859 H 1126.59 0.613279 -6.92289 0
M  V30 11860 H 1129.78 0.70117 -4.62819 0
M  V30 11861 H 1129.95 0.7201 -6.43986 0
M  V30 11862 N 1123.36 1.52689 0.390367 0
M  V30 11863 C 1124.63 1.58246 1.14968 0
M  V30 11864 C 1125.01 0.374808 2.07746 0
M  V30 11865 O 1124.36 -0.636969 2.19442 0
M  V30 11866 C 1124.57 2.92059 1.91056 0
M  V30 11867 C 1125.92 3.45745 2.46466 0
M  V30 11868 O 1126.94 2.93924 2.01214 0
M  V30 11869 O 1125.8 4.3628 3.29122 0
M  V30 11870 H 1122.9 0.638189 0.52597 0
M  V30 11871 H 1125.44 1.65024 0.39563 0
M  V30 11872 H 1124.21 3.71399 1.23201 0
M  V30 11873 H 1123.84 2.8866 2.73425 0
M  V30 11874 N 1124.83 -0.648732 1.43629 0
M  V30 11875 C 1126.25 -0.964917 1.27128 0
M  V30 11876 C 1126.45 -2.00561 0.194251 0
M  V30 11877 O 1125.51 -2.48884 -0.42581 0
M  V30 11878 C 1126.82 -1.44491 2.6371 0
M  V30 11879 C 1128.37 -1.56133 2.71278 0
M  V30 11880 C 1128.84 -2.07521 4.08288 0
M  V30 11881 N 1130.33 -2.14817 4.10375 0
M  V30 11882 C 1131.07 -2.55712 5.13224 0
M  V30 11883 N 1130.56 -2.9587 6.26444 0
M  V30 11884 N 1132.36 -2.55691 5.00578 0
M  V30 11885 H 1124.51 0.0398357 2.12363 0
M  V30 11886 H 1126.77 -0.0447705 0.946942 0
M  V30 11887 H 1126.48 -0.754616 3.43509 0
M  V30 11888 H 1126.35 -2.41914 2.89409 0
M  V30 11889 H 1128.74 -2.24263 1.91808 0
M  V30 11890 H 1128.82 -0.571314 2.49338 0
M  V30 11891 H 1128.46 -1.39992 4.88226 0
M  V30 11892 H 1128.39 -3.07362 4.27594 0
M  V30 11893 H 1130.88 -1.86538 3.28652 0
M  V30 11894 H 1131.2 -3.25837 7.0075 0
M  V30 11895 H 1129.54 -2.93664 6.2991 0
M  V30 11896 H 1132.73 -2.23697 4.1119 0
M  V30 11897 H 1132.91 -2.87239 5.80859 0
M  V30 11898 N 1126.31 -1.30234 -0.887518 0
M  V30 11899 C 1127.56 -1.1891 -1.6391 0
M  V30 11900 C 1127.89 0.256749 -1.92798 0
M  V30 11901 O 1127.14 1.20047 -1.54555 0
M  V30 11902 C 1127.44 -1.96046 -2.98832 0
M  V30 11903 C 1127.11 -3.45683 -2.89507 0
M  V30 11904 C 1125.77 -3.86489 -2.8667 0
M  V30 11905 C 1128.12 -4.40983 -2.7782 0
M  V30 11906 C 1125.45 -5.2089 -2.69982 0
M  V30 11907 C 1127.8 -5.75489 -2.6267 0
M  V30 11908 C 1126.47 -6.15537 -2.58207 0
M  V30 11909 H 1125.74 -0.435123 -0.599791 0
M  V30 11910 H 1128.38 -1.61308 -1.03209 0
M  V30 11911 H 1126.69 -1.46275 -3.6347 0
M  V30 11912 H 1128.38 -1.84678 -3.55942 0
M  V30 11913 H 1124.97 -3.13255 -2.92523 0
M  V30 11914 H 1129.16 -4.10401 -2.79079 0
M  V30 11915 H 1124.41 -5.51014 -2.6494 0
M  V30 11916 H 1128.59 -6.48973 -2.526 0
M  V30 11917 H 1126.22 -7.19627 -2.45034 0
M  V30 11918 N 1127.79 1.09952 -1.12909 0
M  V30 11919 C 1129.2 1.63516 -0.901087 0
M  V30 11920 C 1129.55 1.87932 0.563547 0
M  V30 11921 O 1128.68 1.625 1.42908 0
M  V30 11922 C 1129.27 2.97054 -1.62924 0
M  V30 11923 C 1127.83 3.47464 -1.44725 0
M  V30 11924 C 1126.98 2.21979 -1.66194 0
M  V30 11925 H 1129.93 0.933858 -1.28315 0
M  V30 11926 H 1129.95 3.64757 -1.08318 0
M  V30 11927 H 1129.46 2.79251 -2.69519 0
M  V30 11928 H 1127.56 3.70402 -0.40409 0
M  V30 11929 H 1127.68 4.25254 -2.20671 0
M  V30 11930 H 1126.04 2.30368 -1.0864 0
M  V30 11931 H 1126.82 2.06702 -2.74097 0
M  V30 11932 N 1129.27 0.921757 1.27833 0
M  V30 11933 C 1130.55 0.477706 1.89677 0
M  V30 11934 C 1130.93 -1.04392 1.83481 0
M  V30 11935 O 1130.27 -1.89549 1.27606 0
M  V30 11936 C 1130.48 1.01709 3.33851 0
M  V30 11937 C 1131.83 1.074 4.10792 0
M  V30 11938 O 1132.86 0.966295 3.42843 0
M  V30 11939 O 1131.71 1.23909 5.32268 0
M  V30 11940 H 1128.81 0.15271 0.812778 0
M  V30 11941 H 1131.35 1.01306 1.36144 0
M  V30 11942 H 1130.13 2.061 3.32623 0
M  V30 11943 H 1129.75 0.463031 3.94895 0
M  V30 11944 N 1130.75 -1.41857 0.686609 0
M  V30 11945 C 1131.68 -2.33481 0.0298353 0
M  V30 11946 C 1132.66 -1.51329 -0.776756 0
M  V30 11947 O 1133.84 -1.79895 -0.731535 0
M  V30 11948 C 1130.97 -3.35065 -0.913707 0
M  V30 11949 C 1129.93 -4.2746 -0.214861 0
M  V30 11950 C 1129.25 -5.19346 -1.27215 0
M  V30 11951 C 1130.55 -5.14252 0.913367 0
M  V30 11952 H 1132.25 -2.8865 0.795067 0
M  V30 11953 H 1129.79 -1.38792 0.383785 0
M  V30 11954 H 1131.75 -3.98082 -1.38234 0
M  V30 11955 H 1130.47 -2.78226 -1.7105 0
M  V30 11956 H 1129.13 -3.65855 0.233651 0
M  V30 11957 H 1128.78 -4.58827 -2.06124 0
M  V30 11958 H 1128.48 -5.81996 -0.80961 0
M  V30 11959 H 1130 -5.85239 -1.74147 0
M  V30 11960 H 1131.41 -5.70887 0.525424 0
M  V30 11961 H 1129.81 -5.85796 1.30244 0
M  V30 11962 H 1130.88 -4.51949 1.75699 0
M  V30 11963 N 1132.22 -0.430739 -1.51599 0
M  V30 11964 C 1133.64 0.0339139 -1.86669 0
M  V30 11965 C 1133.99 1.42533 -1.34829 0
M  V30 11966 O 1133.11 2.04889 -0.696376 0
M  V30 11967 C 1133.71 0.0683174 -3.38731 0
M  V30 11968 C 1132.27 0.477363 -3.73361 0
M  V30 11969 C 1131.41 -0.334258 -2.75278 0
M  V30 11970 H 1134.36 -0.646875 -1.44918 0
M  V30 11971 H 1134.38 0.879179 -3.70204 0
M  V30 11972 H 1133.9 -0.944501 -3.76432 0
M  V30 11973 H 1132 1.49603 -3.41247 0
M  V30 11974 H 1132.11 0.206744 -4.78654 0
M  V30 11975 H 1130.47 0.206503 -2.53861 0
M  V30 11976 H 1131.26 -1.34583 -3.1582 0
M  V30 11977 N 1133.7 1.56767 -0.161869 0
M  V30 11978 C 1134.63 2.20511 0.767918 0
M  V30 11979 C 1135.61 1.15783 1.24612 0
M  V30 11980 O 1136.8 1.44179 1.301 0
M  V30 11981 C 1133.93 2.83844 2.00125 0
M  V30 11982 C 1132.88 3.94528 1.65926 0
M  V30 11983 C 1132.21 4.44866 2.96646 0
M  V30 11984 C 1133.51 5.14583 0.894497 0
M  V30 11985 H 1135.2 2.98464 0.236607 0
M  V30 11986 H 1132.75 1.43561 0.112363 0
M  V30 11987 H 1134.7 3.27109 2.65664 0
M  V30 11988 H 1133.43 2.03246 2.55654 0
M  V30 11989 H 1132.08 3.51904 1.02759 0
M  V30 11990 H 1131.73 3.61071 3.50196 0
M  V30 11991 H 1131.43 5.19531 2.74521 0
M  V30 11992 H 1132.96 4.90812 3.6323 0
M  V30 11993 H 1134.37 5.54601 1.45228 0
M  V30 11994 H 1132.77 5.95105 0.772636 0
M  V30 11995 H 1133.84 4.84773 -0.110986 0
M  V30 11996 N 1135.18 -0.111886 1.57202 0
M  V30 11997 C 1136.13 -1.14287 1.97288 0
M  V30 11998 C 1137.11 -1.36686 0.848868 0
M  V30 11999 O 1138.31 -1.37659 1.11261 0
M  V30 12000 C 1135.44 -2.46759 2.38673 0
M  V30 12001 C 1134.52 -2.27805 3.57723 0
M  V30 12002 N 1134.91 -1.78679 4.73189 0
M  V30 12003 C 1133.21 -2.58435 3.63494 0
M  V30 12004 C 1133.91 -1.736 5.55192 0
M  V30 12005 N 1132.89 -2.18205 4.97883 0
M  V30 12006 H 1136.69 -0.755711 2.84018 0
M  V30 12007 H 1134.2 -0.31954 1.59225 0
M  V30 12008 H 1136.2 -3.21335 2.65611 0
M  V30 12009 H 1134.86 -2.86227 1.53311 0
M  V30 12010 H 1135.87 -1.48121 4.96267 0
M  V30 12011 H 1132.55 -3.0154 2.88755 0
M  V30 12012 H 1133.94 -1.36812 6.57824 0
M  V30 12013 N 1136.66 -1.52894 -0.382264 0
M  V30 12014 C 1137.91 -1.67489 -1.12385 0
M  V30 12015 C 1138.22 -0.424565 -1.90937 0
M  V30 12016 O 1139.43 -0.450763 -2.67732 0
M  V30 12017 C 1137.88 -2.96019 -2.04697 0
M  V30 12018 C 1137.49 -4.28255 -1.31535 0
M  V30 12019 C 1139.23 -3.19981 -2.78949 0
M  V30 12020 C 1137.14 -5.47887 -2.22652 0
M  V30 12021 H 1136.07 -0.624002 -0.423246 0
M  V30 12022 H 1138.72 -1.79392 -0.386107 0
M  V30 12023 H 1137.1 -2.77878 -2.82134 0
M  V30 12024 H 1138.28 -4.56971 -0.592771 0
M  V30 12025 H 1136.59 -4.10607 -0.692148 0
M  V30 12026 H 1139.19 -4.06541 -3.47316 0
M  V30 12027 H 1139.53 -2.35335 -3.43399 0
M  V30 12028 H 1140.07 -3.38718 -2.08602 0
M  V30 12029 H 1136.81 -6.3496 -1.62806 0
M  V30 12030 H 1136.33 -5.23473 -2.92807 0
M  V30 12031 H 1138 -5.82026 -2.82586 0
M  V30 12032 N 1138.14 0.641106 -1.43971 0
M  V30 12033 C 1139.09 1.74699 -1.46507 0
M  V30 12034 C 1140.07 1.57437 -0.332037 0
M  V30 12035 O 1141.26 1.67343 -0.576663 0
M  V30 12036 C 1138.39 3.13344 -1.40252 0
M  V30 12037 C 1137.48 3.3611 -2.58632 0
M  V30 12038 N 1137.87 3.29291 -3.83929 0
M  V30 12039 C 1136.17 3.66873 -2.53615 0
M  V30 12040 C 1136.87 3.52472 -4.62751 0
M  V30 12041 N 1135.84 3.74868 -3.93668 0
M  V30 12042 H 1139.65 1.67869 -2.41241 0
M  V30 12043 H 1137.16 0.843217 -1.38793 0
M  V30 12044 H 1139.16 3.92636 -1.40153 0
M  V30 12045 H 1137.82 3.21346 -0.46549 0
M  V30 12046 H 1138.83 3.08431 -4.16041 0
M  V30 12047 H 1135.51 3.81917 -1.68659 0
M  V30 12048 H 1136.9 3.52876 -5.71776 0
M  V30 12049 N 1139.62 1.30703 0.880598 0
M  V30 12050 C 1140.84 1.22714 1.6658 0
M  V30 12051 C 1141.26 -0.209303 1.87636 0
M  V30 12052 O 1140.62 -1.13771 1.42697 0
M  V30 12053 C 1140.67 1.95659 3.03974 0
M  V30 12054 O 1140.39 3.33695 2.83865 0
M  V30 12055 C 1141.89 1.9438 3.98411 0
M  V30 12056 H 1139.11 0.424478 0.519673 0
M  V30 12057 H 1141.65 1.72402 1.0999 0
M  V30 12058 H 1139.81 1.49758 3.57283 0
M  V30 12059 H 1140.22 3.70697 3.71058 0
M  V30 12060 H 1141.7 2.4995 4.92168 0
M  V30 12061 H 1142.17 0.923767 4.29375 0
M  V30 12062 H 1142.78 2.40112 3.51036 0
M  V30 12063 N 1141.09 -1.09351 1.1349 0
M  V30 12064 C 1142.04 -2.14179 0.781739 0
M  V30 12065 C 1143.03 -1.59325 -0.224575 0
M  V30 12066 O 1144.22 -1.76977 -0.0283747 0
M  V30 12067 C 1141.35 -3.42386 0.250278 0
M  V30 12068 C 1140.43 -4.04147 1.28555 0
M  V30 12069 N 1140.83 -4.40451 2.4867 0
M  V30 12070 C 1139.12 -4.31356 1.13351 0
M  V30 12071 C 1139.82 -4.89115 3.14867 0
M  V30 12072 N 1138.8 -4.86618 2.42289 0
M  V30 12073 H 1142.6 -2.40055 1.69561 0
M  V30 12074 H 1140.12 -1.26587 1.01733 0
M  V30 12075 H 1142.11 -4.16895 -0.0209767 0
M  V30 12076 H 1140.77 -3.17965 -0.657904 0
M  V30 12077 H 1141.78 -4.31789 2.8597 0
M  V30 12078 H 1138.46 -4.16536 0.28355 0
M  V30 12079 H 1139.85 -5.26663 4.17224 0
M  V30 12080 N 1142.57 -0.928524 -1.27343 0
M  V30 12081 C 1143.85 -0.487758 -1.89421 0
M  V30 12082 C 1144.23 1.03418 -1.84032 0
M  V30 12083 O 1143.58 1.8887 -1.2861 0
M  V30 12084 C 1143.79 -1.03478 -3.33307 0
M  V30 12085 C 1145.13 -1.09577 -4.10217 0
M  V30 12086 O 1146.16 -0.984463 -3.42326 0
M  V30 12087 O 1145.02 -1.2673 -5.31603 0
M  V30 12088 H 1142.11 -0.157018 -0.811957 0
M  V30 12089 H 1144.66 -1.02027 -1.35605 0
M  V30 12090 H 1143.43 -2.07861 -3.31526 0
M  V30 12091 H 1143.05 -0.483967 -3.94644 0
M  V30 12092 N 1144.05 1.41491 -0.694123 0
M  V30 12093 C 1145.28 2.05579 -0.233466 0
M  V30 12094 C 1145.69 1.5223 1.11675 0
M  V30 12095 O 1145.05 0.669937 1.69759 0
M  V30 12096 C 1145.1 3.61047 -0.180967 0
M  V30 12097 O 1144.82 4.12421 -1.47785 0
M  V30 12098 C 1146.32 4.42278 0.300853 0
M  V30 12099 H 1143.54 0.662097 -0.108943 0
M  V30 12100 H 1146.09 1.81288 -0.946299 0
M  V30 12101 H 1144.24 3.84381 0.482678 0
M  V30 12102 H 1144.66 5.06454 -1.364 0
M  V30 12103 H 1146.13 5.51256 0.286464 0
M  V30 12104 H 1146.61 4.18276 1.33948 0
M  V30 12105 H 1147.21 4.24004 -0.331741 0
M  V30 12106 N 1145.53 0.438773 1.51369 0
M  V30 12107 C 1146.75 -0.128221 2.07003 0
M  V30 12108 C 1147.18 -1.3557 1.30393 0
M  V30 12109 O 1146.54 -1.7804 0.342283 0
M  V30 12110 C 1146.58 -0.42761 3.58056 0
M  V30 12111 O 1145.69 -1.51382 3.83611 0
M  V30 12112 H 1145.03 -0.00123679 0.663999 0
M  V30 12113 H 1147.56 0.62052 1.94963 0
M  V30 12114 H 1147.57 -0.677645 4.02333 0
M  V30 12115 H 1146.24 0.469535 4.13241 0
M  V30 12116 H 1144.82 -1.25363 3.51196 0
M  V30 12117 N 1147.01 -1.56678 0.170181 0
M  V30 12118 C 1148.25 -1.9646 -0.474125 0
M  V30 12119 C 1148.57 -1.05719 -1.63855 0
M  V30 12120 O 1147.84 -0.123316 -1.95511 0
M  V30 12121 H 1146.42 -0.725446 -0.178149 0
M  V30 12122 H 1149.09 -1.93276 0.251099 0
M  V30 12123 H 1148.18 -3.00726 -0.834894 0
M  V30 12124 N 1148.48 0.103547 -1.57259 0
M  V30 12125 C 1149.45 1.11039 -2.00507 0
M  V30 12126 C 1150.45 1.33432 -0.897361 0
M  V30 12127 O 1151.64 1.29688 -1.16304 0
M  V30 12128 C 1148.77 2.46144 -2.35851 0
M  V30 12129 H 1149.96 0.738332 -2.90669 0
M  V30 12130 H 1147.51 0.348334 -1.52369 0
M  V30 12131 H 1148.25 2.88242 -1.48617 0
M  V30 12132 H 1148.03 2.31241 -3.16654 0
M  V30 12133 H 1149.52 3.18577 -2.69997 0
M  V30 12134 N 1149.96 1.53094 0.37415 0
M  V30 12135 C 1151.21 1.68527 1.11548 0
M  V30 12136 C 1151.53 0.435253 1.9008 0
M  V30 12137 O 1150.8 -0.550594 1.88003 0
M  V30 12138 H 1149.38 0.621255 0.41479 0
M  V30 12139 H 1152.04 1.90258 0.422844 0
M  V30 12140 H 1151.14 2.54248 1.81009 0
M  V30 12141 N 1151.44 -0.633461 1.44309 0
M  V30 12142 C 1152.69 -1.39513 1.47187 0
M  V30 12143 C 1153.02 -1.93926 0.103186 0
M  V30 12144 O 1152.29 -1.73512 -0.878853 0
M  V30 12145 C 1152.58 -2.56213 2.53036 0
M  V30 12146 C 1152.43 -2.07164 3.99253 0
M  V30 12147 C 1153.75 -3.58403 2.55412 0
M  V30 12148 H 1150.87 -0.505936 0.535908 0
M  V30 12149 H 1153.51 -0.716445 1.75975 0
M  V30 12150 H 1151.66 -3.14111 2.28619 0
M  V30 12151 H 1153.33 -1.54115 4.34795 0
M  V30 12152 H 1151.57 -1.38367 4.11141 0
M  V30 12153 H 1152.25 -2.91172 4.6896 0
M  V30 12154 H 1154.72 -3.103 2.77224 0
M  V30 12155 H 1153.6 -4.37581 3.31382 0
M  V30 12156 H 1153.86 -4.12316 1.59523 0
M  V30 12157 N 1152.92 -1.31168 -0.873655 0
M  V30 12158 C 1153.88 -1.18471 -1.96207 0
M  V30 12159 C 1154.88 -0.112814 -1.60404 0
M  V30 12160 O 1156.07 -0.3618 -1.70401 0
M  V30 12161 C 1153.2 -0.817662 -3.30949 0
M  V30 12162 H 1154.4 -2.1518 -2.08896 0
M  V30 12163 H 1151.95 -1.14727 -1.06149 0
M  V30 12164 H 1152.68 0.148428 -3.2396 0
M  V30 12165 H 1152.47 -1.59244 -3.58307 0
M  V30 12166 H 1153.96 -0.75262 -4.10762 0
M  V30 12167 N 1154.4 1.08748 -1.14068 0
M  V30 12168 C 1155.36 2.1375 -0.827266 0
M  V30 12169 C 1156.36 1.59936 0.166496 0
M  V30 12170 O 1157.55 1.74092 -0.0614305 0
M  V30 12171 C 1154.68 3.40106 -0.232557 0
M  V30 12172 H 1155.87 2.42985 -1.7578 0
M  V30 12173 H 1153.43 1.24402 -0.946244 0
M  V30 12174 H 1154.16 3.16503 0.706859 0
M  V30 12175 H 1153.95 3.8046 -0.948293 0
M  V30 12176 H 1155.44 4.17589 -0.0303662 0
M  V30 12177 N 1155.87 0.935264 1.26849 0
M  V30 12178 C 1156.81 0.384563 2.24936 0
M  V30 12179 C 1157.79 -0.523311 1.53949 0
M  V30 12180 O 1158.97 -0.462103 1.82748 0
M  V30 12181 C 1156.1 -0.448043 3.35723 0
M  V30 12182 C 1155.14 0.397466 4.24644 0
M  V30 12183 S 1155.98 1.81773 5.03705 0
M  V30 12184 C 1157.13 0.99302 6.17972 0
M  V30 12185 H 1157.36 1.21588 2.713 0
M  V30 12186 H 1154.9 0.737966 1.35622 0
M  V30 12187 H 1156.86 -0.922541 3.99999 0
M  V30 12188 H 1155.52 -1.25397 2.87983 0
M  V30 12189 H 1154.71 -0.240176 5.03427 0
M  V30 12190 H 1154.31 0.806423 3.65202 0
M  V30 12191 H 1156.6 0.232526 6.77101 0
M  V30 12192 H 1157.55 1.75412 6.86029 0
M  V30 12193 H 1157.95 0.531692 5.6199 0
M  V30 12194 N 1157.35 -1.41121 0.701616 0
M  V30 12195 C 1158.28 -2.33436 0.0545974 0
M  V30 12196 C 1159.26 -1.52144 -0.760662 0
M  V30 12197 O 1160.45 -1.80661 -0.712414 0
M  V30 12198 C 1157.58 -3.36015 -0.878117 0
M  V30 12199 C 1156.53 -4.27664 -0.169511 0
M  V30 12200 C 1155.86 -5.20666 -1.21699 0
M  V30 12201 C 1157.16 -5.13254 0.967859 0
M  V30 12202 H 1158.85 -2.87791 0.825637 0
M  V30 12203 H 1156.4 -1.38377 0.398484 0
M  V30 12204 H 1158.35 -3.99526 -1.34004 0
M  V30 12205 H 1157.08 -2.80024 -1.68089 0
M  V30 12206 H 1155.73 -3.65586 0.272441 0
M  V30 12207 H 1155.38 -4.60987 -2.01246 0
M  V30 12208 H 1155.08 -5.82822 -0.747836 0
M  V30 12209 H 1156.61 -5.87053 -1.6793 0
M  V30 12210 H 1158.02 -5.70298 0.585944 0
M  V30 12211 H 1156.42 -5.84381 1.3645 0
M  V30 12212 H 1157.49 -4.5006 1.80483 0
M  V30 12213 N 1158.83 -0.446794 -1.51134 0
M  V30 12214 C 1159.79 0.348311 -2.26538 0
M  V30 12215 C 1160.79 0.941566 -1.3035 0
M  V30 12216 O 1161.98 0.814537 -1.53984 0
M  V30 12217 C 1159.12 1.49371 -3.06433 0
M  V30 12218 H 1160.31 -0.312648 -2.98266 0
M  V30 12219 H 1157.86 -0.200201 -1.55013 0
M  V30 12220 H 1158.6 2.19045 -2.39144 0
M  V30 12221 H 1158.38 1.07439 -3.77093 0
M  V30 12222 H 1159.87 2.05522 -3.63525 0
M  V30 12223 N 1160.31 1.56586 -0.178487 0
M  V30 12224 C 1161.55 1.98994 0.466987 0
M  V30 12225 C 1161.91 1.06229 1.59935 0
M  V30 12226 O 1163.11 1.37806 2.30788 0
M  V30 12227 C 1161.38 3.45064 0.930899 0
M  V30 12228 S 1162.94 4.095 1.57655 0
M  V30 12229 H 1159.76 0.695007 0.149955 0
M  V30 12230 H 1162.36 1.93519 -0.27764 0
M  V30 12231 H 1161.07 4.10287 0.0964476 0
M  V30 12232 H 1160.6 3.54321 1.70939 0
M  V30 12233 H 1162.61 4.05139 2.86491 0
M  V30 12234 N 1161.79 -0.095206 1.57312 0
M  V30 12235 C 1162.75 -1.09974 2.01093 0
M  V30 12236 C 1163.75 -1.32954 0.904424 0
M  V30 12237 O 1164.94 -1.29069 1.16991 0
M  V30 12238 C 1162.07 -2.4489 2.37153 0
M  V30 12239 H 1163.26 -0.722906 2.91057 0
M  V30 12240 H 1160.82 -0.340249 1.52552 0
M  V30 12241 H 1161.55 -2.8745 1.50143 0
M  V30 12242 H 1161.34 -2.29559 3.17876 0
M  V30 12243 H 1162.83 -3.17141 2.71683 0
M  V30 12244 N 1163.26 -1.53291 -0.366026 0
M  V30 12245 C 1164.2 -1.75981 -1.46845 0
M  V30 12246 C 1165.21 -0.640574 -1.49668 0
M  V30 12247 O 1166.4 -0.916823 -1.53155 0
M  V30 12248 C 1163.5 -1.82426 -2.85611 0
M  V30 12249 C 1162.67 -3.12062 -3.0649 0
M  V30 12250 C 1161.73 -3.09755 -4.25368 0
M  V30 12251 O 1160.76 -3.83555 -4.20564 0
M  V30 12252 N 1161.96 -2.30544 -5.32757 0
M  V30 12253 H 1164.72 -2.71104 -1.2776 0
M  V30 12254 H 1162.28 -1.52063 -0.555745 0
M  V30 12255 H 1164.28 -1.78361 -3.63276 0
M  V30 12256 H 1162.85 -0.945888 -2.97946 0
M  V30 12257 H 1162.07 -3.29433 -2.16489 0
M  V30 12258 H 1163.35 -3.97735 -3.17308 0
M  V30 12259 H 1162.75 -1.70095 -5.39522 0
M  V30 12260 H 1161.31 -2.32298 -6.09 0
M  V30 12261 N 1164.74 0.6258 -1.44643 0
M  V30 12262 C 1165.71 1.71941 -1.51555 0
M  V30 12263 C 1166.71 1.55822 -0.396988 0
M  V30 12264 O 1167.9 1.61221 -0.65981 0
M  V30 12265 C 1165.03 3.11068 -1.39461 0
M  V30 12266 H 1166.22 1.67185 -2.48976 0
M  V30 12267 H 1163.77 0.839934 -1.31814 0
M  V30 12268 H 1164.51 3.21416 -0.431534 0
M  V30 12269 H 1164.29 3.24175 -2.20574 0
M  V30 12270 H 1165.78 3.90762 -1.4729 0
M  V30 12271 N 1166.22 1.31629 0.866686 0
M  V30 12272 C 1167.47 1.21263 1.61678 0
M  V30 12273 C 1167.79 -0.228562 1.93656 0
M  V30 12274 O 1167.06 -1.15014 1.58583 0
M  V30 12275 H 1165.64 0.445817 0.59938 0
M  V30 12276 H 1168.3 1.64998 1.03739 0
M  V30 12277 H 1167.4 1.78669 2.55898 0
M  V30 12278 N 1167.7 -1.08142 1.14644 0
M  V30 12279 C 1168.66 -2.13308 0.83859 0
M  V30 12280 C 1169.66 -1.60022 -0.158012 0
M  V30 12281 O 1170.85 -1.74057 0.0706621 0
M  V30 12282 C 1167.98 -3.39978 0.250591 0
M  V30 12283 H 1169.18 -2.42049 1.77066 0
M  V30 12284 H 1166.73 -1.23899 0.952828 0
M  V30 12285 H 1167.47 -3.16873 -0.690064 0
M  V30 12286 H 1167.25 -3.79952 0.968456 0
M  V30 12287 H 1168.74 -4.17567 0.0525115 0
M  V30 12288 N 1169.18 -0.941978 -1.26351 0
M  V30 12289 C 1170.45 -0.507822 -1.88893 0
M  V30 12290 C 1170.83 1.0146 -1.85119 0
M  V30 12291 O 1170.18 1.87495 -1.30606 0
M  V30 12292 C 1170.39 -1.07007 -3.3219 0
M  V30 12293 C 1171.74 -1.13922 -4.09032 0
M  V30 12294 O 1172.76 -1.02072 -3.41262 0
M  V30 12295 O 1171.62 -1.32362 -5.30229 0
M  V30 12296 H 1168.72 -0.165621 -0.810246 0
M  V30 12297 H 1171.26 -1.03459 -1.34515 0
M  V30 12298 H 1170.04 -2.11366 -3.29302 0
M  V30 12299 H 1169.66 -0.525797 -3.94108 0
M  V30 12300 N 1170.66 1.40747 -0.709091 0
M  V30 12301 C 1171.9 2.013 -0.246174 0
M  V30 12302 C 1172.23 1.56078 1.15556 0
M  V30 12303 O 1171.51 0.777941 1.78265 0
M  V30 12304 C 1171.79 3.58685 -0.318945 0
M  V30 12305 C 1171.65 4.13997 -1.75859 0
M  V30 12306 C 1172.96 4.38981 0.31358 0
M  V30 12307 H 1170.08 0.73137 -0.0909255 0
M  V30 12308 H 1172.73 1.67312 -0.900365 0
M  V30 12309 H 1170.88 3.8777 0.23805 0
M  V30 12310 H 1172.55 3.95735 -2.37047 0
M  V30 12311 H 1170.79 3.6853 -2.28841 0
M  V30 12312 H 1171.46 5.23158 -1.76095 0
M  V30 12313 H 1173.94 4.15789 -0.160939 0
M  V30 12314 H 1172.81 5.48409 0.232184 0
M  V30 12315 H 1173.07 4.19474 1.39621 0
M  V30 12316 N 1172.13 0.454803 1.50895 0
M  V30 12317 C 1173.38 -0.105927 2.02523 0
M  V30 12318 C 1173.71 -1.40825 1.33724 0
M  V30 12319 O 1172.99 -1.89038 0.457683 0
M  V30 12320 C 1173.27 -0.306635 3.58792 0
M  V30 12321 C 1173.12 1.01556 4.38185 0
M  V30 12322 C 1174.44 -1.06858 4.2693 0
M  V30 12323 H 1171.56 -0.0370232 0.736069 0
M  V30 12324 H 1174.2 0.597215 1.8037 0
M  V30 12325 H 1172.35 -0.905563 3.77799 0
M  V30 12326 H 1174.03 1.64981 4.30789 0
M  V30 12327 H 1172.27 1.61608 4.02574 0
M  V30 12328 H 1172.94 0.828959 5.4574 0
M  V30 12329 H 1175.42 -0.561086 4.123 0
M  V30 12330 H 1174.29 -1.1778 5.36115 0
M  V30 12331 H 1174.55 -2.10111 3.8898 0
M  V30 12332 N 1173.61 -1.56489 0.186789 0
M  V30 12333 C 1174.89 -1.89066 -0.501337 0
M  V30 12334 C 1175.27 -1.09906 -1.80233 0
M  V30 12335 O 1174.62 -0.197626 -2.27644 0
M  V30 12336 C 1174.83 -3.41318 -0.728207 0
M  V30 12337 C 1176.17 -4.11379 -1.0513 0
M  V30 12338 O 1177.2 -3.46722 -0.816216 0
M  V30 12339 O 1176.06 -5.25638 -1.49557 0
M  V30 12340 H 1173.15 -0.784966 -0.260303 0
M  V30 12341 H 1175.7 -1.68183 0.226382 0
M  V30 12342 H 1174.47 -3.90834 0.19088 0
M  V30 12343 H 1174.09 -3.67865 -1.50869 0
M  V30 12344 N 1175.09 0.086862 -1.5736 0
M  V30 12345 C 1176.34 0.790008 -1.8678 0
M  V30 12346 C 1176.67 1.77977 -0.777042 0
M  V30 12347 O 1175.94 1.93317 0.21419 0
M  V30 12348 C 1176.23 1.51143 -3.26845 0
M  V30 12349 C 1176.08 0.539106 -4.46558 0
M  V30 12350 C 1177.4 2.46003 -3.64926 0
M  V30 12351 H 1174.52 0.285741 -0.679354 0
M  V30 12352 H 1177.16 0.0534655 -1.89925 0
M  V30 12353 H 1175.31 2.13928 -3.24295 0
M  V30 12354 H 1176.98 -0.0823679 -4.61226 0
M  V30 12355 H 1175.22 -0.146842 -4.33551 0
M  V30 12356 H 1175.9 1.0812 -5.41308 0
M  V30 12357 H 1178.37 1.93306 -3.68473 0
M  V30 12358 H 1177.25 2.93493 -4.63846 0
M  V30 12359 H 1177.51 3.30133 -2.94049 0
M  V30 12360 N 1176.57 1.53483 0.357892 0
M  V30 12361 C 1177.53 1.79782 1.42166 0
M  V30 12362 C 1178.53 0.668441 1.46248 0
M  V30 12363 O 1179.72 0.936677 1.46874 0
M  V30 12364 C 1176.85 1.92686 2.8122 0
M  V30 12365 H 1178.05 2.74794 1.20117 0
M  V30 12366 H 1175.6 1.44677 0.591468 0
M  V30 12367 H 1176.33 0.997669 3.08573 0
M  V30 12368 H 1176.12 2.74837 2.79655 0
M  V30 12369 H 1177.61 2.14599 3.58242 0
M  V30 12370 N 1178.05 -0.61812 1.44973 0
M  V30 12371 C 1179.01 -1.71135 1.52465 0
M  V30 12372 C 1180.01 -1.5561 0.405246 0
M  V30 12373 O 1181.2 -1.60869 0.668351 0
M  V30 12374 C 1178.33 -3.10324 1.41108 0
M  V30 12375 H 1179.52 -1.65862 2.49859 0
M  V30 12376 H 1177.08 -0.832932 1.32257 0
M  V30 12377 H 1177.81 -3.21183 0.448574 0
M  V30 12378 H 1177.6 -3.23001 2.2229 0
M  V30 12379 H 1179.09 -3.89976 1.49361 0
M  V30 12380 N 1179.52 -1.32087 -0.859693 0
M  V30 12381 C 1180.8 -1.12984 -1.59668 0
M  V30 12382 C 1181.18 0.311661 -2.08787 0
M  V30 12383 O 1180.53 1.30746 -1.87397 0
M  V30 12384 C 1180.74 -2.15305 -2.74672 0
M  V30 12385 C 1182.09 -2.48371 -3.44379 0
M  V30 12386 O 1183.11 -2.13811 -2.84891 0
M  V30 12387 O 1181.97 -3.07594 -4.51717 0
M  V30 12388 H 1179.06 -0.435657 -0.702945 0
M  V30 12389 H 1181.61 -1.43601 -0.90426 0
M  V30 12390 H 1180.38 -3.12223 -2.35866 0
M  V30 12391 H 1180 -1.85653 -3.51594 0
M  V30 12392 N 1181 1.07532 -1.15215 0
M  V30 12393 C 1182.23 1.84356 -0.950139 0
M  V30 12394 C 1182.65 1.81429 0.496502 0
M  V30 12395 O 1182.01 1.20589 1.35381 0
M  V30 12396 C 1182.06 3.29425 -1.46669 0
M  V30 12397 O 1181.16 4.07008 -0.664674 0
M  V30 12398 H 1180.5 0.570921 -0.339036 0
M  V30 12399 H 1183.03 1.35665 -1.53154 0
M  V30 12400 H 1183.04 3.8026 -1.47873 0
M  V30 12401 H 1181.72 3.3087 -2.51988 0
M  V30 12402 H 1180.29 3.65841 -0.72211 0
M  V30 12403 N 1182.48 0.948665 1.2585 0
M  V30 12404 C 1183.41 0.408398 2.24516 0
M  V30 12405 C 1184.39 -0.506954 1.54495 0
M  V30 12406 O 1185.58 -0.442695 1.83228 0
M  V30 12407 C 1182.7 -0.41241 3.3618 0
M  V30 12408 C 1181.75 0.442483 4.24198 0
M  V30 12409 S 1182.58 1.87106 5.01749 0
M  V30 12410 C 1183.74 1.05851 6.16884 0
M  V30 12411 H 1183.97 1.24458 2.69995 0
M  V30 12412 H 1181.5 0.752309 1.34832 0
M  V30 12413 H 1183.46 -0.880064 4.00955 0
M  V30 12414 H 1182.12 -1.22335 2.89297 0
M  V30 12415 H 1181.32 -0.186767 5.03654 0
M  V30 12416 H 1180.92 0.845113 3.64327 0
M  V30 12417 H 1183.21 0.304329 6.76816 0
M  V30 12418 H 1184.15 1.82678 6.8413 0
M  V30 12419 H 1184.56 0.591269 5.61395 0
M  V30 12420 N 1183.96 -1.40369 0.716545 0
M  V30 12421 C 1185.18 -2.05704 0.264729 0
M  V30 12422 C 1185.61 -1.53634 -1.08527 0
M  V30 12423 O 1184.97 -0.67212 -1.68381 0
M  V30 12424 C 1185.01 -3.59692 0.255778 0
M  V30 12425 O 1184.12 -4.05286 -0.762686 0
M  V30 12426 H 1183.46 -0.652301 0.124092 0
M  V30 12427 H 1185.99 -1.7975 0.977295 0
M  V30 12428 H 1186 -4.07892 0.0937944 0
M  V30 12429 H 1184.67 -3.96955 1.24095 0
M  V30 12430 H 1183.25 -3.68543 -0.568347 0
M  V30 12431 N 1185.44 -0.462799 -1.50652 0
M  V30 12432 C 1186.68 0.0948568 -2.01877 0
M  V30 12433 C 1187.01 1.4096 -1.34741 0
M  V30 12434 O 1186.28 1.89671 -0.49006 0
M  V30 12435 H 1184.86 0.0380453 -0.746031 0
M  V30 12436 H 1187.52 -0.611327 -1.85064 0
M  V30 12437 H 1186.61 0.252378 -3.11078 0
M  V30 12438 N 1186.91 1.56388 -0.195085 0
M  V30 12439 C 1187.85 2.14992 0.765096 0
M  V30 12440 C 1188.83 1.08663 1.20959 0
M  V30 12441 O 1190.01 1.36775 1.29711 0
M  V30 12442 C 1187.14 2.7088 2.03327 0
M  V30 12443 C 1186.18 3.89797 1.7309 0
M  V30 12444 S 1187.02 5.28236 0.879025 0
M  V30 12445 C 1188.17 5.87545 2.15734 0
M  V30 12446 H 1188.4 2.961 0.266902 0
M  V30 12447 H 1185.94 1.54387 0.0199116 0
M  V30 12448 H 1187.9 3.03723 2.76157 0
M  V30 12449 H 1186.56 1.89814 2.50259 0
M  V30 12450 H 1185.75 4.27312 2.67246 0
M  V30 12451 H 1185.35 3.57964 1.08342 0
M  V30 12452 H 1187.64 6.01907 3.10989 0
M  V30 12453 H 1188.59 6.84137 1.82652 0
M  V30 12454 H 1188.99 5.16151 2.2858 0
M  V30 12455 N 1188.39 -0.0785156 1.57404 0
M  V30 12456 C 1189.62 -0.792042 1.9114 0
M  V30 12457 C 1190.04 -1.71458 0.790408 0
M  V30 12458 O 1189.39 -1.80959 -0.236662 0
M  V30 12459 C 1189.44 -1.59138 3.24588 0
M  V30 12460 O 1189.16 -0.705931 4.32375 0
M  V30 12461 C 1190.67 -2.4065 3.72293 0
M  V30 12462 H 1187.89 -0.225566 0.63195 0
M  V30 12463 H 1190.43 -0.0507929 2.04437 0
M  V30 12464 H 1188.58 -2.28498 3.12838 0
M  V30 12465 H 1189 -1.26121 5.09111 0
M  V30 12466 H 1190.47 -2.92204 4.68317 0
M  V30 12467 H 1190.95 -3.1987 3.00965 0
M  V30 12468 H 1191.56 -1.7646 3.86965 0
M  V30 12469 N 1189.87 -1.5367 -0.349747 0
M  V30 12470 C 1191.1 -1.74858 -1.11532 0
M  V30 12471 C 1191.52 -0.483591 -1.81777 0
M  V30 12472 O 1190.88 0.563399 -1.72324 0
M  V30 12473 C 1190.93 -2.92479 -2.10923 0
M  V30 12474 O 1190.03 -2.62194 -3.18321 0
M  V30 12475 H 1189.37 -0.580219 -0.322865 0
M  V30 12476 H 1191.9 -2.00611 -0.402033 0
M  V30 12477 H 1191.91 -3.19093 -2.54252 0
M  V30 12478 H 1190.59 -3.84228 -1.59191 0
M  V30 12479 H 1189.16 -2.46448 -2.79853 0
M  V30 12480 N 1191.35 0.610423 -1.45298 0
M  V30 12481 C 1192.28 1.73507 -1.4976 0
M  V30 12482 C 1193.29 1.58092 -0.38867 0
M  V30 12483 O 1194.48 1.66026 -0.655571 0
M  V30 12484 C 1191.58 3.11475 -1.33554 0
M  V30 12485 C 1190.76 3.53156 -2.5807 0
M  V30 12486 C 1189.81 4.70076 -2.36463 0
M  V30 12487 O 1188.84 4.77337 -3.10061 0
M  V30 12488 N 1190.04 5.63155 -1.40843 0
M  V30 12489 H 1192.81 1.70144 -2.46721 0
M  V30 12490 H 1190.37 0.79562 -1.41002 0
M  V30 12491 H 1192.36 3.87444 -1.16914 0
M  V30 12492 H 1190.93 3.09361 -0.448803 0
M  V30 12493 H 1190.15 2.67178 -2.89844 0
M  V30 12494 H 1191.44 3.77761 -3.40843 0
M  V30 12495 H 1190.84 5.60001 -0.800982 0
M  V30 12496 H 1189.39 6.38669 -1.30175 0
M  V30 12497 N 1192.83 1.32541 0.852676 0
M  V30 12498 C 1194.24 1.20863 1.42299 0
M  V30 12499 C 1194.59 -0.178051 1.9539 0
M  V30 12500 O 1193.71 -1.07689 1.87702 0
M  V30 12501 C 1194.31 2.18811 2.58664 0
M  V30 12502 C 1192.87 2.11015 3.11689 0
M  V30 12503 C 1192.01 2.07067 1.84441 0
M  V30 12504 H 1194.97 1.44341 0.659657 0
M  V30 12505 H 1194.99 1.78779 3.35884 0
M  V30 12506 H 1194.5 3.19726 2.19993 0
M  V30 12507 H 1192.6 1.13354 3.54939 0
M  V30 12508 H 1192.71 3.00929 3.72799 0
M  V30 12509 H 1191.08 1.52335 2.04123 0
M  V30 12510 H 1191.86 3.09767 1.47984 0
M  V30 12511 N 1194.3 -1.0692 1.15784 0
M  V30 12512 C 1195.53 -1.83849 0.959903 0
M  V30 12513 C 1195.95 -1.8169 -0.486873 0
M  V30 12514 O 1195.31 -1.21305 -1.34739 0
M  V30 12515 C 1195.36 -3.28642 1.48414 0
M  V30 12516 O 1194.46 -4.0665 0.686249 0
M  V30 12517 H 1193.81 -0.569115 0.342059 0
M  V30 12518 H 1196.34 -1.34851 1.53871 0
M  V30 12519 H 1196.35 -3.7947 1.49888 0
M  V30 12520 H 1195.02 -3.29529 2.53739 0
M  V30 12521 H 1193.6 -3.65453 0.741501 0
M  V30 12522 N 1195.78 -0.955326 -1.25345 0
M  V30 12523 C 1196.72 -0.420299 -2.24296 0
M  V30 12524 C 1197.69 0.498753 -1.54762 0
M  V30 12525 O 1198.88 0.432971 -1.8346 0
M  V30 12526 C 1196 0.394576 -3.36394 0
M  V30 12527 C 1195.05 -0.464973 -4.23958 0
M  V30 12528 S 1195.88 -1.89764 -5.00749 0
M  V30 12529 C 1197.04 -1.09121 -6.16314 0
M  V30 12530 H 1197.27 -1.25888 -2.69331 0
M  V30 12531 H 1194.81 -0.759449 -1.34431 0
M  V30 12532 H 1196.76 0.858788 -4.01416 0
M  V30 12533 H 1195.42 1.20799 -2.89942 0
M  V30 12534 H 1194.62 0.160055 -5.03746 0
M  V30 12535 H 1194.22 -0.864422 -3.63873 0
M  V30 12536 H 1196.51 -0.340218 -6.76645 0
M  V30 12537 H 1197.45 -1.86304 -6.83152 0
M  V30 12538 H 1197.86 -0.621033 -5.61073 0
M  V30 12539 N 1197.26 1.39987 -0.723979 0
M  V30 12540 C 1198.51 2.00334 -0.266587 0
M  V30 12541 C 1198.83 1.57714 1.14679 0
M  V30 12542 O 1198.1 0.82037 1.77895 0
M  V30 12543 H 1196.68 0.740861 -0.095573 0
M  V30 12544 H 1199.34 1.712 -0.931481 0
M  V30 12545 H 1198.44 3.10594 -0.306282 0
M  V30 12546 N 1198.74 0.470782 1.50404 0
M  V30 12547 C 1199.7 -0.312227 2.27063 0
M  V30 12548 C 1200.7 -0.920709 1.31832 0
M  V30 12549 O 1201.89 -0.789937 1.5526 0
M  V30 12550 C 1199.02 -1.44477 3.0877 0
M  V30 12551 H 1200.22 0.36006 2.97731 0
M  V30 12552 H 1197.77 0.224837 1.54674 0
M  V30 12553 H 1198.51 -2.15212 2.42599 0
M  V30 12554 H 1198.29 -1.01426 3.78755 0
M  V30 12555 H 1199.78 -1.99713 3.66749 0
M  V30 12556 N 1200.22 -1.56282 0.203376 0
M  V30 12557 C 1201.15 -2.2247 -0.709183 0
M  V30 12558 C 1202.13 -1.19046 -1.21499 0
M  V30 12559 O 1203.31 -1.47578 -1.26231 0
M  V30 12560 C 1200.44 -2.8905 -1.92529 0
M  V30 12561 C 1199.4 -3.98789 -1.55407 0
M  V30 12562 C 1198.72 -4.52574 -2.84747 0
M  V30 12563 C 1200.02 -5.16774 -0.75775 0
M  V30 12564 H 1201.72 -2.98986 -0.157392 0
M  V30 12565 H 1199.26 -1.43808 -0.0742613 0
M  V30 12566 H 1201.22 -3.34038 -2.56898 0
M  V30 12567 H 1199.94 -2.09952 -2.50175 0
M  V30 12568 H 1198.6 -3.54504 -0.933928 0
M  V30 12569 H 1198.25 -3.70229 -3.40499 0
M  V30 12570 H 1197.95 -5.26627 -2.6065 0
M  V30 12571 H 1199.47 -5.00269 -3.5009 0
M  V30 12572 H 1200.89 -5.58256 -1.30472 0
M  V30 12573 H 1199.28 -5.96945 -0.614583 0
M  V30 12574 H 1200.35 -4.84308 0.239476 0
M  V30 12575 N 1201.7 0.070167 -1.57444 0
M  V30 12576 C 1202.94 0.770153 -1.87607 0
M  V30 12577 C 1203.27 1.77143 -0.795875 0
M  V30 12578 O 1202.55 1.93533 0.193674 0
M  V30 12579 C 1202.83 1.47668 -3.2843 0
M  V30 12580 C 1202.69 0.491712 -4.47104 0
M  V30 12581 C 1204 2.42118 -3.67514 0
M  V30 12582 H 1201.12 0.278519 -0.682346 0
M  V30 12583 H 1203.77 0.0333184 -1.89971 0
M  V30 12584 H 1201.92 2.10476 -3.26546 0
M  V30 12585 H 1203.59 -0.131283 -4.61113 0
M  V30 12586 H 1201.83 -0.192817 -4.33371 0
M  V30 12587 H 1202.5 1.02372 -5.42424 0
M  V30 12588 H 1204.98 1.89387 -3.70502 0
M  V30 12589 H 1203.85 2.88556 -4.66933 0
M  V30 12590 H 1204.11 3.26995 -2.97534 0
M  V30 12591 N 1203.17 1.53854 0.341593 0
M  V30 12592 C 1204.14 1.8128 1.40251 0
M  V30 12593 C 1205.14 0.683915 1.45531 0
M  V30 12594 O 1206.33 0.952202 1.45872 0
M  V30 12595 C 1203.46 1.95658 2.79161 0
M  V30 12596 H 1204.65 2.76053 1.17195 0
M  V30 12597 H 1202.2 1.45296 0.57609 0
M  V30 12598 H 1202.94 1.03034 3.07497 0
M  V30 12599 H 1202.72 2.77788 2.76724 0
M  V30 12600 H 1204.21 2.18387 3.55945 0
M  V30 12601 N 1204.65 -0.602709 1.4562 0
M  V30 12602 C 1205.89 -1.37284 1.51435 0
M  V30 12603 C 1206.26 -1.9138 0.154148 0
M  V30 12604 O 1207.46 -2.68659 0.0870009 0
M  V30 12605 C 1205.73 -2.48651 2.56724 0
M  V30 12606 S 1207.29 -3.36354 2.818 0
M  V30 12607 H 1204.1 -0.46798 0.535272 0
M  V30 12608 H 1206.71 -0.694957 1.82731 0
M  V30 12609 H 1205.41 -2.07267 3.54215 0
M  V30 12610 H 1204.94 -3.21234 2.27095 0
M  V30 12611 H 1206.96 -4.46937 2.15549 0
M  V30 12612 N 1206.13 -1.32992 -0.845635 0
M  V30 12613 C 1207.36 -1.27087 -1.63268 0
M  V30 12614 C 1207.77 0.159481 -1.88125 0
M  V30 12615 O 1207.13 1.09948 -1.45663 0
M  V30 12616 C 1207.18 -2.03649 -2.98679 0
M  V30 12617 O 1206.9 -3.41104 -2.74918 0
M  V30 12618 C 1208.4 -2.04875 -3.93117 0
M  V30 12619 H 1205.62 -0.438107 -0.508236 0
M  V30 12620 H 1208.17 -1.75257 -1.05381 0
M  V30 12621 H 1206.32 -1.59178 -3.53187 0
M  V30 12622 H 1206.74 -3.80405 -3.61099 0
M  V30 12623 H 1208.21 -2.62911 -4.85368 0
M  V30 12624 H 1208.69 -1.03728 -4.26775 0
M  V30 12625 H 1209.29 -2.49334 -3.44547 0
M  V30 12626 N 1207.61 1.06304 -1.1635 0
M  V30 12627 C 1209.02 1.31227 -0.90838 0
M  V30 12628 C 1209.22 1.96665 0.438779 0
M  V30 12629 O 1208.28 2.2332 1.17833 0
M  V30 12630 C 1209.59 2.19303 -2.05734 0
M  V30 12631 C 1211.14 2.3272 -2.09309 0
M  V30 12632 C 1211.62 3.24151 -3.23559 0
M  V30 12633 N 1213.11 3.31734 -3.23275 0
M  V30 12634 C 1213.84 4.02572 -4.08318 0
M  V30 12635 N 1213.34 4.75933 -5.03448 0
M  V30 12636 N 1215.13 3.98621 -3.96305 0
M  V30 12637 H 1207.28 0.622228 -2.03081 0
M  V30 12638 H 1209.54 0.336892 -0.886119 0
M  V30 12639 H 1209.25 1.78497 -3.03037 0
M  V30 12640 H 1209.12 3.19888 -1.99879 0
M  V30 12641 H 1211.51 2.72774 -1.12599 0
M  V30 12642 H 1211.59 1.31804 -2.19229 0
M  V30 12643 H 1211.24 2.84813 -4.20528 0
M  V30 12644 H 1211.17 4.25046 -3.10875 0
M  V30 12645 H 1213.66 2.79453 -2.5439 0
M  V30 12646 H 1213.97 5.27512 -5.64758 0
M  V30 12647 H 1212.32 4.74913 -5.07427 0
M  V30 12648 H 1215.51 3.40427 -3.21289 0
M  V30 12649 H 1215.68 4.5356 -4.62804 0
M  V30 12650 N 1209.09 0.96196 1.24836 0
M  V30 12651 C 1210.33 0.619489 1.92371 0
M  V30 12652 C 1210.65 -0.847233 1.75633 0
M  V30 12653 O 1209.92 -1.60419 1.12439 0
M  V30 12654 H 1208.5 0.226129 0.711951 0
M  V30 12655 H 1211.17 1.22179 1.5185 0
M  V30 12656 H 1210.26 0.855128 3.00157 0
M  V30 12657 N 1210.56 -1.39601 0.731392 0
M  V30 12658 C 1211.79 -2.04887 0.28789 0
M  V30 12659 C 1212.21 -1.55138 -1.076 0
M  V30 12660 O 1211.56 -0.71471 -1.67923 0
M  V30 12661 C 1211.61 -3.6044 0.276629 0
M  V30 12662 O 1211.34 -4.08358 1.58668 0
M  V30 12663 C 1212.84 -4.4292 -0.183485 0
M  V30 12664 H 1210.06 -0.658976 0.126459 0
M  V30 12665 H 1212.6 -1.78716 0.994031 0
M  V30 12666 H 1210.76 -3.85526 -0.380597 0
M  V30 12667 H 1211.17 -5.02659 1.4978 0
M  V30 12668 H 1212.64 -5.51822 -0.140207 0
M  V30 12669 H 1213.12 -4.2168 -1.22811 0
M  V30 12670 H 1213.73 -4.22976 0.444042 0
M  V30 12671 N 1212.04 -0.478751 -1.50152 0
M  V30 12672 C 1213.45 -0.0254907 -1.86683 0
M  V30 12673 C 1213.8 1.38171 -1.39295 0
M  V30 12674 O 1212.93 2.0257 -0.761207 0
M  V30 12675 C 1213.52 -0.0394819 -3.38777 0
M  V30 12676 C 1212.08 0.35834 -3.7469 0
M  V30 12677 C 1211.23 -0.421667 -2.74075 0
M  V30 12678 H 1214.18 -0.692653 -1.42787 0
M  V30 12679 H 1214.2 0.760957 -3.72813 0
M  V30 12680 H 1213.71 -1.06378 -3.73236 0
M  V30 12681 H 1211.82 1.38671 -3.45834 0
M  V30 12682 H 1211.93 0.0543589 -4.79069 0
M  V30 12683 H 1210.29 0.125634 -2.5439 0
M  V30 12684 H 1211.08 -1.44562 -3.11379 0
M  V30 12685 N 1213.52 1.56172 -0.211661 0
M  V30 12686 C 1214.45 2.22843 0.697375 0
M  V30 12687 C 1215.43 1.19689 1.20866 0
M  V30 12688 O 1216.62 1.48245 1.25447 0
M  V30 12689 C 1213.75 2.90067 1.90993 0
M  V30 12690 C 1212.7 3.99608 1.5329 0
M  V30 12691 C 1212.03 4.54078 2.82343 0
M  V30 12692 C 1213.33 5.17169 0.730333 0
M  V30 12693 H 1215.02 2.99065 0.141533 0
M  V30 12694 H 1212.57 1.43846 0.0666337 0
M  V30 12695 H 1214.52 3.35396 2.55123 0
M  V30 12696 H 1213.24 2.11276 2.49058 0
M  V30 12697 H 1211.9 3.54995 0.915115 0
M  V30 12698 H 1211.55 3.72029 3.38531 0
M  V30 12699 H 1211.25 5.28001 2.57853 0
M  V30 12700 H 1212.77 5.02119 3.47432 0
M  V30 12701 H 1214.19 5.5894 1.2751 0
M  V30 12702 H 1212.59 5.97262 0.582916 0
M  V30 12703 H 1213.66 4.84174 -0.265157 0
M  V30 12704 N 1215 -0.0618163 1.57479 0
M  V30 12705 C 1216.28 -0.792636 1.7882 0
M  V30 12706 C 1216.66 -1.95283 0.801724 0
M  V30 12707 O 1216 -2.27917 -0.163095 0
M  V30 12708 C 1216.21 -1.25629 3.25605 0
M  V30 12709 C 1217.56 -1.68561 3.89708 0
M  V30 12710 O 1218.59 -1.35171 3.29556 0
M  V30 12711 O 1217.44 -2.30417 4.95551 0
M  V30 12712 H 1214.54 -0.380595 0.734218 0
M  V30 12713 H 1217.08 -0.0411205 1.6965 0
M  V30 12714 H 1215.86 -0.426582 3.88968 0
M  V30 12715 H 1215.48 -2.06882 3.39537 0
M  V30 12716 N 1216.48 -1.54033 -0.333429 0
M  V30 12717 C 1217.7 -1.75716 -1.09232 0
M  V30 12718 C 1218.12 -0.501076 -1.82029 0
M  V30 12719 O 1217.48 0.527772 -1.74702 0
M  V30 12720 C 1217.53 -2.9439 -2.09802 0
M  V30 12721 O 1217.25 -4.15141 -1.39963 0
M  V30 12722 C 1218.75 -3.28206 -2.97987 0
M  V30 12723 H 1215.97 -0.586859 -0.325326 0
M  V30 12724 H 1218.51 -2.0089 -0.382555 0
M  V30 12725 H 1216.67 -2.71518 -2.76327 0
M  V30 12726 H 1217.08 -4.81826 -2.0723 0
M  V30 12727 H 1218.56 -4.14568 -3.64469 0
M  V30 12728 H 1219.03 -2.44944 -3.64553 0
M  V30 12729 H 1219.64 -3.5312 -2.37036 0
M  V30 12730 N 1217.95 0.594978 -1.45938 0
M  V30 12731 C 1218.86 1.73296 -1.58132 0
M  V30 12732 C 1219.88 1.67665 -0.465245 0
M  V30 12733 O 1221.06 1.87794 -0.727684 0
M  V30 12734 C 1218.12 3.09783 -1.55677 0
M  V30 12735 C 1217.18 3.26772 -2.78422 0
M  V30 12736 C 1216.42 4.56748 -2.76075 0
M  V30 12737 O 1216.64 5.39867 -1.84119 0
M  V30 12738 O 1215.57 4.76721 -3.67452 0
M  V30 12739 H 1219.4 1.65957 -2.54346 0
M  V30 12740 H 1216.98 0.760572 -1.28591 0
M  V30 12741 H 1218.87 3.91077 -1.56961 0
M  V30 12742 H 1217.54 3.17585 -0.626191 0
M  V30 12743 H 1216.45 2.45018 -2.82696 0
M  V30 12744 H 1217.78 3.23853 -3.70648 0
M  V30 12745 N 1219.43 1.33438 0.838571 0
M  V30 12746 C 1220.68 1.25097 1.5962 0
M  V30 12747 C 1221.01 -0.182798 1.93338 0
M  V30 12748 O 1220.29 -1.1242 1.5872 0
M  V30 12749 C 1220.57 2.12655 2.90603 0
M  V30 12750 C 1220.42 3.64491 2.63565 0
M  V30 12751 C 1221.74 1.99994 3.92033 0
M  V30 12752 H 1218.86 0.455776 0.579169 0
M  V30 12753 H 1221.5 1.63542 0.967169 0
M  V30 12754 H 1219.65 1.79998 3.44286 0
M  V30 12755 H 1221.32 4.0744 2.16312 0
M  V30 12756 H 1219.57 3.86356 1.9726 0
M  V30 12757 H 1220.24 4.21101 3.569 0
M  V30 12758 H 1222.71 2.28635 3.47657 0
M  V30 12759 H 1221.59 2.63509 4.81512 0
M  V30 12760 H 1221.85 0.972263 4.31277 0
M  V30 12761 N 1220.91 -1.05686 1.16912 0
M  V30 12762 C 1222.32 -1.60059 0.961153 0
M  V30 12763 C 1222.67 -1.89894 -0.493409 0
M  V30 12764 O 1221.8 -1.67692 -1.36778 0
M  V30 12765 C 1222.39 -2.90803 1.73837 0
M  V30 12766 C 1220.95 -3.41854 1.57522 0
M  V30 12767 C 1220.1 -2.15658 1.74319 0
M  V30 12768 H 1223.05 -0.885592 1.31693 0
M  V30 12769 H 1223.07 -3.60485 1.21781 0
M  V30 12770 H 1222.58 -2.69056 2.79697 0
M  V30 12771 H 1220.68 -3.68647 0.541284 0
M  V30 12772 H 1220.8 -4.16771 2.36302 0
M  V30 12773 H 1219.16 -2.26177 1.17115 0
M  V30 12774 H 1219.94 -1.96386 2.8158 0
M  V30 12775 N 1222.39 -0.968567 -1.24324 0
M  V30 12776 C 1223.32 -0.444065 -2.23838 0
M  V30 12777 C 1224.3 0.482311 -1.55282 0
M  V30 12778 O 1225.48 0.413489 -1.83909 0
M  V30 12779 C 1222.61 0.358874 -3.36793 0
M  V30 12780 C 1221.66 -0.509913 -4.23441 0
M  V30 12781 S 1222.49 -1.95064 -4.98708 0
M  V30 12782 C 1223.65 -1.15652 -6.15122 0
M  V30 12783 H 1223.88 -1.28738 -2.67981 0
M  V30 12784 H 1221.41 -0.773665 -1.33618 0
M  V30 12785 H 1223.37 0.816164 -4.02305 0
M  V30 12786 H 1222.03 1.17717 -2.91207 0
M  V30 12787 H 1221.22 0.106617 -5.03887 0
M  V30 12788 H 1220.83 -0.902967 -3.62936 0
M  V30 12789 H 1223.12 -0.411966 -6.76246 0
M  V30 12790 H 1224.06 -1.93539 -6.81137 0
M  V30 12791 H 1224.47 -0.680507 -5.60383 0
M  V30 12792 N 1223.87 1.39211 -0.738786 0
M  V30 12793 C 1224.78 2.34374 -0.102958 0
M  V30 12794 C 1225.79 1.58514 0.717596 0
M  V30 12795 O 1226.97 1.90786 0.645186 0
M  V30 12796 C 1224.03 3.37562 0.790733 0
M  V30 12797 C 1223.09 4.29279 -0.0425028 0
M  V30 12798 C 1222.33 5.27539 0.808628 0
M  V30 12799 O 1222.55 5.32396 2.04722 0
M  V30 12800 O 1221.48 6.0144 0.235279 0
M  V30 12801 H 1225.31 2.90412 -0.888498 0
M  V30 12802 H 1222.9 1.40803 -0.499498 0
M  V30 12803 H 1224.78 4.00783 1.30196 0
M  V30 12804 H 1223.45 2.83903 1.55502 0
M  V30 12805 H 1222.36 3.69268 -0.599335 0
M  V30 12806 H 1223.69 4.86154 -0.7691 0
M  V30 12807 N 1225.34 0.486708 1.49896 0
M  V30 12808 C 1226.76 0.141788 1.58969 0
M  V30 12809 C 1226.96 -1.35279 1.49338 0
M  V30 12810 O 1226.02 -2.1275 1.35992 0
M  V30 12811 C 1227.33 0.70588 2.92297 0
M  V30 12812 C 1228.88 0.670704 3.0573 0
M  V30 12813 C 1229.35 1.21261 4.41656 0
M  V30 12814 N 1230.84 1.17269 4.4811 0
M  V30 12815 C 1231.58 1.56233 5.51705 0
M  V30 12816 N 1231.07 2.02721 6.62477 0
M  V30 12817 N 1232.87 1.47738 5.42337 0
M  V30 12818 H 1225.02 1.45858 1.544 0
M  V30 12819 H 1227.28 0.604137 0.730563 0
M  V30 12820 H 1226.99 1.7535 3.04869 0
M  V30 12821 H 1226.86 0.158215 3.76868 0
M  V30 12822 H 1229.25 -0.368041 2.92796 0
M  V30 12823 H 1229.33 1.25535 2.22878 0
M  V30 12824 H 1228.97 2.25006 4.5534 0
M  V30 12825 H 1228.9 0.604031 5.23124 0
M  V30 12826 H 1231.39 0.831905 3.6863 0
M  V30 12827 H 1231.71 2.3056 7.37606 0
M  V30 12828 H 1230.05 2.06686 6.63556 0
M  V30 12829 H 1233.24 1.11249 4.54688 0
M  V30 12830 H 1233.42 1.78429 6.2295 0
M  V30 12831 N 1226.82 -1.56058 0.219941 0
M  V30 12832 C 1228.07 -1.98554 -0.412808 0
M  V30 12833 C 1228.4 -1.10742 -1.5953 0
M  V30 12834 O 1227.68 -0.164757 -1.93801 0
M  V30 12835 C 1227.96 -3.4995 -0.848923 0
M  V30 12836 C 1227.81 -4.48535 0.337094 0
M  V30 12837 C 1229.13 -4.05703 -1.70567 0
M  V30 12838 H 1226.25 -0.721869 -0.148576 0
M  V30 12839 H 1228.89 -1.87356 0.315852 0
M  V30 12840 H 1227.04 -3.59624 -1.46979 0
M  V30 12841 H 1228.72 -4.50874 0.975216 0
M  V30 12842 H 1226.96 -4.22474 0.984798 0
M  V30 12843 H 1227.63 -5.51999 -0.0109665 0
M  V30 12844 H 1230.11 -3.98964 -1.18182 0
M  V30 12845 H 1228.98 -5.11955 -1.97972 0
M  V30 12846 H 1229.24 -3.52487 -2.66844 0
M  V30 12847 N 1228.3 0.053464 -1.57509 0
M  V30 12848 C 1229.55 0.749102 -1.88135 0
M  V30 12849 C 1229.88 1.76642 -0.814111 0
M  V30 12850 O 1229.13 1.94796 0.187845 0
M  V30 12851 C 1229.43 1.47666 -3.25468 0
M  V30 12852 C 1229.1 0.597619 -4.46922 0
M  V30 12853 C 1227.76 0.355429 -4.79886 0
M  V30 12854 C 1230.11 -0.0107869 -5.21199 0
M  V30 12855 C 1227.44 -0.504347 -5.84528 0
M  V30 12856 C 1229.79 -0.858123 -6.26753 0
M  V30 12857 C 1228.45 -1.11001 -6.58206 0
M  V30 12858 H 1227.72 0.274116 -0.688434 0
M  V30 12859 H 1230.37 0.00944162 -1.91498 0
M  V30 12860 H 1228.68 2.28901 -3.1798 0
M  V30 12861 H 1230.37 2.02002 -3.46404 0
M  V30 12862 H 1226.96 0.796526 -4.21134 0
M  V30 12863 H 1231.15 0.163404 -4.96031 0
M  V30 12864 H 1226.4 -0.708057 -6.07286 0
M  V30 12865 H 1230.58 -1.3362 -6.83461 0
M  V30 12866 H 1228.2 -1.77798 -7.39116 0
M  V30 12867 N 1229.78 1.54207 0.325255 0
M  V30 12868 C 1231.06 1.6298 1.08153 0
M  V30 12869 C 1231.44 0.462583 2.05969 0
M  V30 12870 O 1230.78 -0.543323 2.21947 0
M  V30 12871 C 1230.99 2.999 1.78497 0
M  V30 12872 C 1232.34 3.55888 2.3158 0
M  V30 12873 O 1233.37 3.02194 1.88566 0
M  V30 12874 O 1232.23 4.49847 3.10322 0
M  V30 12875 H 1229.32 0.659923 0.498429 0
M  V30 12876 H 1231.87 1.66553 0.325282 0
M  V30 12877 H 1230.64 3.7629 1.07338 0
M  V30 12878 H 1230.26 2.99997 2.60936 0
M  V30 12879 N 1231.26 -0.58723 1.46251 0
M  V30 12880 C 1232.49 -1.36976 1.54665 0
M  V30 12881 C 1232.9 -1.88293 0.185079 0
M  V30 12882 O 1232.24 -1.64028 -0.82707 0
M  V30 12883 C 1232.3 -2.59591 2.48702 0
M  V30 12884 C 1231.96 -2.29773 3.95036 0
M  V30 12885 C 1232.96 -1.88885 4.84374 0
M  V30 12886 C 1230.65 -2.42057 4.40129 0
M  V30 12887 C 1232.64 -1.60669 6.16818 0
M  V30 12888 C 1230.33 -2.13454 5.72609 0
M  V30 12889 C 1231.33 -1.72824 6.60773 0
M  V30 12890 O 1231.01 -1.44569 7.90794 0
M  V30 12891 H 1230.75 -0.424968 0.525717 0
M  V30 12892 H 1233.3 -0.721298 1.92319 0
M  V30 12893 H 1231.53 -3.27226 2.06058 0
M  V30 12894 H 1233.22 -3.21656 2.47573 0
M  V30 12895 H 1233.98 -1.78913 4.50794 0
M  V30 12896 H 1229.86 -2.72644 3.71734 0
M  V30 12897 H 1233.41 -1.28882 6.85591 0
M  V30 12898 H 1229.3 -2.23048 6.05739 0
M  V30 12899 H 1230.07 -1.58452 8.03016 0
M  V30 12900 N 1232.74 -1.33881 -0.831482 0
M  V30 12901 C 1233.96 -1.28961 -1.62431 0
M  V30 12902 C 1234.39 0.135249 -1.87613 0
M  V30 12903 O 1233.74 1.09426 -1.44553 0
M  V30 12904 C 1233.79 -2.07767 -2.94729 0
M  V30 12905 O 1232.9 -1.44133 -3.86393 0
M  V30 12906 H 1232.24 -0.443313 -0.494337 0
M  V30 12907 H 1234.77 -1.76555 -1.0339 0
M  V30 12908 H 1234.78 -2.18806 -3.44366 0
M  V30 12909 H 1233.45 -3.11367 -2.75724 0
M  V30 12910 H 1232.03 -1.41784 -3.44894 0
M  V30 12911 N 1234.21 1.05064 -1.1747 0
M  V30 12912 C 1235.12 2.16346 -0.907286 0
M  V30 12913 C 1236.14 1.7355 0.125013 0
M  V30 12914 O 1237.32 2.01326 -0.0545551 0
M  V30 12915 C 1234.38 3.44077 -0.425681 0
M  V30 12916 C 1233.44 4.01311 -1.52473 0
M  V30 12917 C 1232.67 5.22946 -1.06601 0
M  V30 12918 O 1232.9 5.70345 0.0793329 0
M  V30 12919 O 1231.83 5.72454 -1.85958 0
M  V30 12920 H 1235.66 2.41754 -1.83817 0
M  V30 12921 H 1233.24 1.14834 -0.955693 0
M  V30 12922 H 1235.12 4.21078 -0.164689 0
M  V30 12923 H 1233.8 3.20166 0.477037 0
M  V30 12924 H 1232.71 3.25744 -1.83961 0
M  V30 12925 H 1234.04 4.29543 -2.4032 0
M  V30 12926 N 1235.69 0.975146 1.23809 0
M  V30 12927 C 1236.92 0.658023 1.95841 0
M  V30 12928 C 1237.33 -0.778132 1.72458 0
M  V30 12929 O 1236.67 -1.53462 1.00971 0
M  V30 12930 C 1236.73 0.862038 3.49012 0
M  V30 12931 C 1236.4 2.27925 3.96105 0
M  V30 12932 C 1237.4 3.25755 4.05191 0
M  V30 12933 C 1235.08 2.60894 4.29231 0
M  V30 12934 C 1237.07 4.54636 4.46749 0
M  V30 12935 C 1234.76 3.89999 4.70472 0
M  V30 12936 C 1235.76 4.86682 4.79197 0
M  V30 12937 O 1235.45 6.13483 5.19513 0
M  V30 12938 H 1235.18 0.243915 0.630461 0
M  V30 12939 H 1237.73 1.30768 1.58395 0
M  V30 12940 H 1235.96 0.155209 3.86388 0
M  V30 12941 H 1237.65 0.542873 4.02253 0
M  V30 12942 H 1238.42 3.01614 3.79808 0
M  V30 12943 H 1234.3 1.86355 4.21655 0
M  V30 12944 H 1237.84 5.30101 4.53474 0
M  V30 12945 H 1233.74 4.13937 4.95304 0
M  V30 12946 H 1234.51 6.17158 5.37641 0
M  V30 12947 N 1237.17 -1.38817 0.746158 0
M  V30 12948 C 1238.42 -2.01049 0.308389 0
M  V30 12949 C 1238.77 -1.58162 -1.09556 0
M  V30 12950 O 1238.06 -0.805685 -1.73837 0
M  V30 12951 C 1238.26 -3.55571 0.361086 0
M  V30 12952 C 1238.09 -4.13461 1.76861 0
M  V30 12953 C 1236.86 -4.45556 2.38344 0
M  V30 12954 C 1239.05 -4.36233 2.72406 0
M  V30 12955 N 1237.04 -4.89011 3.71135 0
M  V30 12956 C 1238.41 -4.82016 3.8995 0
M  V30 12957 C 1240.46 -4.1832 2.70024 0
M  V30 12958 C 1239.17 -5.11763 5.05462 0
M  V30 12959 C 1241.19 -4.49187 3.84688 0
M  V30 12960 C 1240.55 -4.95186 5.00969 0
M  V30 12961 H 1236.65 -0.765593 0.159346 0
M  V30 12962 H 1239.24 -1.68556 0.97452 0
M  V30 12963 H 1237.41 -3.87427 -0.274742 0
M  V30 12964 H 1239.14 -4.04585 -0.0962937 0
M  V30 12965 H 1235.89 -4.33741 1.90172 0
M  V30 12966 H 1236.32 -5.15082 4.39339 0
M  V30 12967 H 1240.96 -3.8195 1.81312 0
M  V30 12968 H 1238.68 -5.47032 5.94795 0
M  V30 12969 H 1242.26 -4.36938 3.84156 0
M  V30 12970 H 1241.14 -5.18616 5.88224 0
M  V30 12971 N 1238.65 -0.49465 -1.49636 0
M  V30 12972 C 1239.56 0.291881 -2.32777 0
M  V30 12973 C 1240.57 0.973468 -1.44221 0
M  V30 12974 O 1241.75 0.956252 -1.77251 0
M  V30 12975 C 1238.81 1.34609 -3.19502 0
M  V30 12976 C 1237.88 0.678611 -4.23903 0
M  V30 12977 C 1237.11 1.68259 -5.06483 0
M  V30 12978 O 1237.33 2.91176 -4.90482 0
M  V30 12979 O 1236.27 1.24141 -5.88959 0
M  V30 12980 H 1240.09 -0.388459 -3.01205 0
M  V30 12981 H 1237.68 -0.256086 -1.47189 0
M  V30 12982 H 1239.56 1.95617 -3.73245 0
M  V30 12983 H 1238.23 2.00947 -2.53775 0
M  V30 12984 H 1237.14 0.0289541 -3.74089 0
M  V30 12985 H 1238.47 0.0577817 -4.92166 0
M  V30 12986 N 1240.13 1.55939 -0.228214 0
M  V30 12987 C 1241.37 1.98084 0.400884 0
M  V30 12988 C 1241.69 1.11727 1.59819 0
M  V30 12989 O 1240.96 0.195794 1.94919 0
M  V30 12990 H 1239.54 0.731558 0.151102 0
M  V30 12991 H 1242.21 1.92211 -0.322659 0
M  V30 12992 H 1241.3 3.03617 0.722706 0
M  V30 12993 N 1241.6 -0.0451101 1.57535 0
M  V30 12994 C 1242.57 -1.03521 2.0449 0
M  V30 12995 C 1243.57 -1.30009 0.946265 0
M  V30 12996 O 1244.76 -1.25282 1.21038 0
M  V30 12997 C 1241.89 -2.37221 2.44824 0
M  V30 12998 H 1243.08 -0.629943 2.93209 0
M  V30 12999 H 1240.64 -0.291544 1.53557 0
M  V30 13000 H 1241.37 -2.82528 1.59212 0
M  V30 13001 H 1241.16 -2.19329 3.25018 0
M  V30 13002 H 1242.65 -3.08337 2.81635 0
M  V30 13003 N 1243.08 -1.54377 -0.317073 0
M  V30 13004 C 1244.5 -1.45232 -0.6618 0
M  V30 13005 C 1244.7 -0.630457 -1.91383 0
M  V30 13006 O 1243.75 -0.13181 -2.52156 0
M  V30 13007 C 1245.07 -2.89025 -0.829761 0
M  V30 13008 C 1246.62 -2.98967 -0.926685 0
M  V30 13009 C 1247.09 -4.43923 -1.12677 0
M  V30 13010 N 1248.58 -4.47564 -1.19335 0
M  V30 13011 C 1249.32 -5.56887 -1.36617 0
M  V30 13012 N 1248.81 -6.76167 -1.50899 0
M  V30 13013 N 1250.61 -5.44546 -1.39377 0
M  V30 13014 H 1242.76 -2.0629 0.505766 0
M  V30 13015 H 1245.02 -0.933615 0.164522 0
M  V30 13016 H 1244.73 -3.51695 0.0190945 0
M  V30 13017 H 1244.6 -3.35515 -1.72364 0
M  V30 13018 H 1246.99 -2.36421 -1.76604 0
M  V30 13019 H 1247.07 -2.55798 -0.00913402 0
M  V30 13020 H 1246.71 -5.07059 -0.29224 0
M  V30 13021 H 1246.64 -4.84708 -2.05829 0
M  V30 13022 H 1249.13 -3.61623 -1.09715 0
M  V30 13023 H 1249.45 -7.55242 -1.63796 0
M  V30 13024 H 1247.79 -6.79062 -1.47985 0
M  V30 13025 H 1250.98 -4.50311 -1.27819 0
M  V30 13026 H 1251.15 -6.29799 -1.52502 0
M  V30 13027 N 1244.56 0.579466 -1.4656 0
M  V30 13028 C 1245.81 1.33492 -1.51738 0
M  V30 13029 C 1246.13 1.94241 -0.171926 0
M  V30 13030 O 1245.4 1.78737 0.801875 0
M  V30 13031 H 1243.98 0.49565 -0.558874 0
M  V30 13032 H 1246.64 0.678394 -1.82712 0
M  V30 13033 H 1245.74 2.13995 -2.27183 0
M  V30 13034 N 1246.04 1.3432 0.824371 0
M  V30 13035 C 1246.97 1.2842 1.95014 0
M  V30 13036 C 1247.95 0.161925 1.69328 0
M  V30 13037 O 1249.13 0.354052 1.90945 0
M  V30 13038 C 1246.26 1.03741 3.31444 0
M  V30 13039 C 1245.22 2.12419 3.71567 0
M  V30 13040 C 1244.54 1.72931 5.05963 0
M  V30 13041 C 1245.84 3.54235 3.83817 0
M  V30 13042 H 1247.54 2.22614 2.00209 0
M  V30 13043 H 1245.08 1.07165 0.961856 0
M  V30 13044 H 1247.04 0.982586 4.09784 0
M  V30 13045 H 1245.76 0.0598892 3.26545 0
M  V30 13046 H 1244.42 2.16968 2.955 0
M  V30 13047 H 1244.07 0.738433 4.9755 0
M  V30 13048 H 1243.77 2.45668 5.3378 0
M  V30 13049 H 1245.29 1.68941 5.86763 0
M  V30 13050 H 1246.71 3.52106 4.52432 0
M  V30 13051 H 1245.1 4.25581 4.23085 0
M  V30 13052 H 1246.17 3.91682 2.85856 0
M  V30 13053 N 1247.52 -1.0444 1.18026 0
M  V30 13054 C 1248.75 -1.80971 0.996642 0
M  V30 13055 C 1249.15 -1.83568 -0.458192 0
M  V30 13056 O 1248.5 -1.26713 -1.33002 0
M  V30 13057 C 1248.56 -3.28051 1.47048 0
M  V30 13058 C 1248.22 -3.49122 2.94895 0
M  V30 13059 C 1249.22 -3.40621 3.92777 0
M  V30 13060 C 1246.91 -3.7584 3.33241 0
M  V30 13061 C 1248.9 -3.58535 5.27002 0
M  V30 13062 C 1246.59 -3.93402 4.6763 0
M  V30 13063 C 1247.58 -3.84749 5.6432 0
M  V30 13064 O 1247.27 -4.01813 6.96277 0
M  V30 13065 H 1247 -0.576873 0.352411 0
M  V30 13066 H 1249.56 -1.32542 1.56913 0
M  V30 13067 H 1247.79 -3.77431 0.841609 0
M  V30 13068 H 1249.48 -3.8613 1.25135 0
M  V30 13069 H 1250.24 -3.19948 3.64497 0
M  V30 13070 H 1246.12 -3.81674 2.58545 0
M  V30 13071 H 1249.67 -3.51698 6.02457 0
M  V30 13072 H 1245.56 -4.13568 4.95613 0
M  V30 13073 H 1246.33 -4.18995 7.03126 0
M  V30 13074 N 1248.99 -0.981699 -1.2329 0
M  V30 13075 C 1249.96 -0.527992 -2.23036 0
M  V30 13076 C 1250.96 0.383083 -1.5617 0
M  V30 13077 O 1252.15 0.176595 -1.73303 0
M  V30 13078 C 1249.28 0.233501 -3.40099 0
M  V30 13079 H 1250.47 -1.40995 -2.64689 0
M  V30 13080 H 1248.03 -0.767724 -1.36146 0
M  V30 13081 H 1248.76 1.13194 -3.03904 0
M  V30 13082 H 1248.55 -0.420505 -3.89839 0
M  V30 13083 H 1250.04 0.539485 -4.14101 0
M  V30 13084 N 1250.47 1.3842 -0.753509 0
M  V30 13085 C 1251.44 2.28808 -0.134022 0
M  V30 13086 C 1252.44 1.47184 0.647583 0
M  V30 13087 O 1253.63 1.67631 0.473861 0
M  V30 13088 C 1250.76 3.30926 0.81858 0
M  V30 13089 H 1251.95 2.85097 -0.930586 0
M  V30 13090 H 1249.5 1.47378 -0.520514 0
M  V30 13091 H 1250.24 2.79728 1.64082 0
M  V30 13092 H 1250.02 3.91234 0.260526 0
M  V30 13093 H 1251.51 3.98515 1.24802 0
M  V30 13094 N 1251.95 0.502579 1.49372 0
M  V30 13095 C 1253.2 -0.041381 2.02458 0
M  V30 13096 C 1253.53 -1.36848 1.38213 0
M  V30 13097 O 1252.78 -1.89003 0.507568 0
M  V30 13098 C 1253.08 -0.240835 3.56588 0
M  V30 13099 C 1252.75 1.00846 4.39478 0
M  V30 13100 C 1251.41 1.35091 4.61848 0
M  V30 13101 C 1253.76 1.8388 4.87686 0
M  V30 13102 C 1251.09 2.52318 5.29672 0
M  V30 13103 C 1253.44 3.00262 5.56799 0
M  V30 13104 C 1252.1 3.34885 5.77415 0
M  V30 13105 H 1251.37 -0.0151424 0.740845 0
M  V30 13106 H 1254.02 0.663056 1.79655 0
M  V30 13107 H 1252.33 -1.02781 3.78078 0
M  V30 13108 H 1254.02 -0.676194 3.95258 0
M  V30 13109 H 1250.61 0.731719 4.22308 0
M  V30 13110 H 1254.8 1.58738 4.7023 0
M  V30 13111 H 1250.05 2.79379 5.43836 0
M  V30 13112 H 1254.23 3.64927 5.93128 0
M  V30 13113 H 1251.85 4.25824 6.29744 0
M  V30 13114 N 1253.43 -1.55816 0.23648 0
M  V30 13115 C 1254.71 -1.90565 -0.440933 0
M  V30 13116 C 1255.09 -1.15585 -1.76645 0
M  V30 13117 O 1254.43 -0.269949 -2.269 0
M  V30 13118 C 1254.64 -3.43462 -0.61925 0
M  V30 13119 C 1255.99 -4.14516 -0.91989 0
M  V30 13120 O 1257.02 -3.49144 -0.705496 0
M  V30 13121 O 1255.87 -5.3013 -1.32759 0
M  V30 13122 H 1252.97 -0.79285 -0.235199 0
M  V30 13123 H 1255.51 -1.67378 0.279774 0
M  V30 13124 H 1254.29 -3.90029 0.315124 0
M  V30 13125 H 1253.91 -3.72478 -1.39089 0
M  V30 13126 N 1254.91 0.036755 -1.57557 0
M  V30 13127 C 1256.15 0.734039 -1.90765 0
M  V30 13128 C 1256.51 1.7293 -0.834222 0
M  V30 13129 O 1257.71 2.47427 -1.0504 0
M  V30 13130 C 1255.98 1.39285 -3.29142 0
M  V30 13131 S 1257.54 2.12035 -3.8417 0
M  V30 13132 H 1254.36 0.243349 -0.668059 0
M  V30 13133 H 1256.96 -0.0110968 -1.95497 0
M  V30 13134 H 1255.67 0.655154 -4.05137 0
M  V30 13135 H 1255.2 2.17669 -3.27694 0
M  V30 13136 H 1257.21 3.39072 -3.62277 0
M  V30 13137 N 1256.39 1.54543 0.308881 0
M  V30 13138 C 1257.61 1.77431 1.06422 0
M  V30 13139 C 1258.03 0.529972 1.81209 0
M  V30 13140 O 1257.39 -0.499912 1.7552 0
M  V30 13141 C 1257.44 2.9769 2.05092 0
M  V30 13142 O 1257.16 4.17315 1.33341 0
M  V30 13143 C 1258.66 3.32905 2.92727 0
M  V30 13144 H 1255.88 0.591961 0.315948 0
M  V30 13145 H 1258.42 2.01473 0.350547 0
M  V30 13146 H 1256.58 2.7588 2.71973 0
M  V30 13147 H 1256.99 4.85061 1.99539 0
M  V30 13148 H 1258.47 4.20314 3.57827 0
M  V30 13149 H 1258.94 2.50713 3.6061 0
M  V30 13150 H 1259.55 3.56847 2.31388 0
M  V30 13151 N 1257.86 -0.571685 1.46866 0
M  V30 13152 C 1258.83 -1.66198 1.57832 0
M  V30 13153 C 1259.83 -1.54242 0.454547 0
M  V30 13154 O 1261.02 -1.58661 0.719191 0
M  V30 13155 C 1258.15 -3.05678 1.5091 0
M  V30 13156 H 1259.34 -1.57829 2.5501 0
M  V30 13157 H 1256.89 -0.790433 1.3484 0
M  V30 13158 H 1257.63 -3.19593 0.550529 0
M  V30 13159 H 1257.41 -3.15765 2.32454 0
M  V30 13160 H 1258.9 -3.85027 1.61692 0
M  V30 13161 N 1259.34 -1.34755 -0.817236 0
M  V30 13162 C 1260.57 -1.30522 -1.60536 0
M  V30 13163 C 1260.98 0.119541 -1.88421 0
M  V30 13164 O 1260.34 1.06833 -1.47962 0
M  V30 13165 C 1260.39 -2.09939 -2.94292 0
M  V30 13166 O 1260.11 -3.46858 -2.67621 0
M  V30 13167 C 1261.61 -2.13168 -3.88683 0
M  V30 13168 H 1258.83 -0.448789 -0.498828 0
M  V30 13169 H 1261.38 -1.77453 -1.01639 0
M  V30 13170 H 1259.53 -1.66634 -3.49731 0
M  V30 13171 H 1259.95 -3.87979 -3.52949 0
M  V30 13172 H 1261.42 -2.73147 -4.79682 0
M  V30 13173 H 1261.9 -1.12758 -4.24479 0
M  V30 13174 H 1262.5 -2.56587 -3.39181 0
M  V30 13175 N 1260.82 1.03812 -1.18578 0
M  V30 13176 C 1261.75 2.11436 -0.858502 0
M  V30 13177 C 1262.73 1.61594 0.180604 0
M  V30 13178 O 1263.91 1.88408 0.058995 0
M  V30 13179 C 1261.04 3.37514 -0.283154 0
M  V30 13180 C 1260.09 4.0621 -1.29985 0
M  V30 13181 S 1260.92 4.52936 -2.85673 0
M  V30 13182 C 1262.08 5.82245 -2.29656 0
M  V30 13183 H 1262.31 2.38871 -1.76997 0
M  V30 13184 H 1259.84 1.16617 -1.01192 0
M  V30 13185 H 1261.8 4.10478 0.0422898 0
M  V30 13186 H 1260.46 3.08189 0.60647 0
M  V30 13187 H 1259.65 4.96845 -0.84621 0
M  V30 13188 H 1259.26 3.39374 -1.57166 0
M  V30 13189 H 1261.55 6.56321 -1.68074 0
M  V30 13190 H 1262.49 6.32375 -3.18602 0
M  V30 13191 H 1262.9 5.37472 -1.72581 0
M  V30 13192 N 1262.3 0.988223 1.22768 0
M  V30 13193 C 1263.24 0.534605 2.24523 0
M  V30 13194 C 1264.21 -0.430615 1.60421 0
M  V30 13195 O 1265.4 -0.336417 1.87811 0
M  V30 13196 C 1262.54 -0.149195 3.44777 0
M  V30 13197 C 1261.65 0.85721 4.2341 0
M  V30 13198 C 1260.79 0.147411 5.30995 0
M  V30 13199 C 1259.83 1.1425 6.01343 0
M  V30 13200 N 1258.96 0.461327 7.00583 0
M  V30 13201 H 1263.8 1.40708 2.62689 0
M  V30 13202 H 1261.34 0.704918 1.2911 0
M  V30 13203 H 1263.3 -0.562527 4.1339 0
M  V30 13204 H 1261.93 -0.985485 3.07389 0
M  V30 13205 H 1260.98 1.38889 3.54138 0
M  V30 13206 H 1262.29 1.61517 4.71926 0
M  V30 13207 H 1261.45 -0.32289 6.0584 0
M  V30 13208 H 1260.19 -0.643085 4.83442 0
M  V30 13209 H 1259.19 1.62348 5.25284 0
M  V30 13210 H 1260.42 1.93379 6.50985 0
M  V30 13211 H 1258.36 -0.309818 6.55268 0
M  V30 13212 H 1258.28 1.15781 7.47082 0
M  V30 13213 H 1259.55 0.0136734 7.79499 0
M  V30 13214 N 1263.78 -1.38018 0.760839 0
M  V30 13215 C 1265 -2.04757 0.330038 0
M  V30 13216 C 1265.43 -1.57009 -1.03585 0
M  V30 13217 O 1264.78 -0.725349 -1.66158 0
M  V30 13218 C 1264.83 -3.58696 0.370082 0
M  V30 13219 O 1263.94 -4.07507 -0.633361 0
M  V30 13220 H 1263.28 -0.648023 0.144782 0
M  V30 13221 H 1265.81 -1.7655 1.03399 0
M  V30 13222 H 1265.82 -4.07387 0.223515 0
M  V30 13223 H 1264.49 -3.92806 1.36661 0
M  V30 13224 H 1263.07 -3.70165 -0.45081 0
M  V30 13225 N 1265.25 -0.510493 -1.49103 0
M  V30 13226 C 1266.5 0.0305831 -2.02077 0
M  V30 13227 C 1266.82 1.36602 -1.39157 0
M  V30 13228 O 1266.09 1.88016 -0.550154 0
M  V30 13229 H 1264.67 0.0142916 -0.746863 0
M  V30 13230 H 1267.33 -0.669895 -1.83026 0
M  V30 13231 H 1266.43 0.153283 -3.11723 0
M  V30 13232 N 1266.73 1.55688 -0.24474 0
M  V30 13233 C 1267.68 2.22682 0.67198 0
M  V30 13234 C 1268.67 1.21369 1.18178 0
M  V30 13235 O 1269.88 1.39387 1.13892 0
M  V30 13236 H 1266.25 0.714279 0.235181 0
M  V30 13237 H 1268.23 2.98282 0.0837704 0
M  V30 13238 C 1266.97 2.93835 1.85893 0
M  V30 13239 H 1266.3 3.71565 1.4758 0
M  V30 13240 H 1267.74 3.44077 2.47764 0
M  V30 13241 C 1266.2 1.97589 2.72874 0
M  V30 13242 O 1266.73 1.50758 3.72337 0
M  V30 13243 N 1264.93 1.64737 2.39395 0
M  V30 13244 H 1264.48 2.03015 1.58564 0
M  V30 13245 H 1264.44 1.00605 2.97869 0
M  V30 13246 N 1268.21 -0.0283989 1.57574 0
M  V30 13247 C 1269.43 -0.734537 1.93957 0
M  V30 13248 C 1269.86 -1.68062 0.844787 0
M  V30 13249 O 1269.22 -1.802 -0.199432 0
M  V30 13250 C 1269.27 -1.46716 3.29404 0
M  V30 13251 O 1268.37 -2.58036 3.217 0
M  V30 13252 H 1267.71 -0.197507 0.633946 0
M  V30 13253 H 1270.24 0.0163258 2.04593 0
M  V30 13254 H 1270.25 -1.83693 3.64309 0
M  V30 13255 H 1268.93 -0.773292 4.08648 0
M  V30 13256 H 1267.5 -2.23597 2.98427 0
M  V30 13257 N 1269.69 -1.54705 -0.300681 0
M  V30 13258 C 1270.96 -1.6468 -1.05546 0
M  V30 13259 C 1271.34 -0.495292 -2.05207 0
M  V30 13260 O 1270.69 0.507944 -2.22783 0
M  V30 13261 C 1270.9 -3.02702 -1.73703 0
M  V30 13262 C 1272.25 -3.59527 -2.25888 0
M  V30 13263 O 1273.27 -3.05156 -1.83735 0
M  V30 13264 O 1272.13 -4.54727 -3.03126 0
M  V30 13265 H 1269.23 -0.667769 -0.487867 0
M  V30 13266 H 1271.77 -1.6705 -0.298743 0
M  V30 13267 H 1270.55 -3.7795 -1.01338 0
M  V30 13268 H 1270.17 -3.0411 -2.5613 0
M  V30 13269 N 1271.17 0.563888 -1.47167 0
M  V30 13270 C 1272.41 1.32331 -1.53676 0
M  V30 13271 C 1272.75 1.93213 -0.195593 0
M  V30 13272 O 1272.02 1.77508 0.795068 0
M  V30 13273 C 1272.3 2.43848 -2.64972 0
M  V30 13274 C 1272.16 1.8788 -4.08682 0
M  V30 13275 C 1273.48 3.45809 -2.72221 0
M  V30 13276 H 1270.59 0.479791 -0.559437 0
M  V30 13277 H 1273.24 0.631669 -1.79192 0
M  V30 13278 H 1271.39 3.02846 -2.43345 0
M  V30 13279 H 1273.06 1.33195 -4.41652 0
M  V30 13280 H 1271.3 1.18593 -4.17275 0
M  V30 13281 H 1271.97 2.68465 -4.82318 0
M  V30 13282 H 1274.45 2.9672 -2.91713 0
M  V30 13283 H 1273.32 4.21272 -3.51882 0
M  V30 13284 H 1273.59 4.04236 -1.79014 0
M  V30 13285 N 1272.64 1.35187 0.810078 0
M  V30 13286 C 1273.87 1.31181 1.59609 0
M  V30 13287 C 1274.28 -0.113556 1.88859 0
M  V30 13288 O 1273.63 -1.07491 1.48968 0
M  V30 13289 C 1273.69 2.04749 2.95496 0
M  V30 13290 C 1273.35 3.53952 2.89079 0
M  V30 13291 C 1274.35 4.48612 2.6276 0
M  V30 13292 C 1272.03 3.96551 3.08306 0
M  V30 13293 C 1274.03 5.83846 2.5574 0
M  V30 13294 C 1271.71 5.31881 3.00909 0
M  V30 13295 C 1272.71 6.2534 2.74661 0
M  V30 13296 O 1272.4 7.58188 2.6722 0
M  V30 13297 H 1272.13 0.452285 0.502408 0
M  V30 13298 H 1274.69 1.78571 1.01497 0
M  V30 13299 H 1272.92 1.51992 3.55577 0
M  V30 13300 H 1274.61 1.93866 3.5661 0
M  V30 13301 H 1275.37 4.1702 2.47628 0
M  V30 13302 H 1271.25 3.24194 3.27749 0
M  V30 13303 H 1274.79 6.56765 2.35172 0
M  V30 13304 H 1270.69 5.63088 3.15598 0
M  V30 13305 H 1271.46 7.68073 2.82853 0
M  V30 13306 N 1274.12 -1.03182 1.19127 0
M  V30 13307 C 1275.03 -2.14875 0.94159 0
M  V30 13308 C 1276.05 -1.73727 -0.0973872 0
M  V30 13309 O 1277.22 -2.01214 0.0865775 0
M  V30 13310 C 1274.29 -3.43356 0.480366 0
M  V30 13311 C 1273.35 -3.98835 1.58838 0
M  V30 13312 C 1272.58 -5.21183 1.14907 0
M  V30 13313 O 1272.81 -5.70399 0.0114141 0
M  V30 13314 O 1271.74 -5.69423 1.95042 0
M  V30 13315 H 1275.57 -2.38799 1.8764 0
M  V30 13316 H 1273.15 -1.13299 0.973841 0
M  V30 13317 H 1275.03 -4.20763 0.231658 0
M  V30 13318 H 1273.71 -3.20884 -0.426041 0
M  V30 13319 H 1272.62 -3.22776 1.8912 0
M  V30 13320 H 1273.95 -4.25665 2.47123 0
M  V30 13321 N 1275.6 -0.99472 -1.22242 0
M  V30 13322 C 1276.55 -0.53946 -2.26258 0
M  V30 13323 C 1277.54 0.410796 -1.64344 0
M  V30 13324 O 1278.75 0.283116 -1.7776 0
M  V30 13325 H 1275.12 -0.156069 -0.735627 0
M  V30 13326 H 1277.09 -1.42814 -2.62005 0
M  V30 13327 C 1275.84 0.12842 -3.47463 0
M  V30 13328 H 1275.17 -0.593727 -3.95367 0
M  V30 13329 H 1276.61 0.410393 -4.22009 0
M  V30 13330 C 1275.07 1.36433 -3.08038 0
M  V30 13331 O 1275.6 2.45953 -3.176 0
M  V30 13332 N 1273.8 1.24026 -2.62804 0
M  V30 13333 H 1273.35 0.349111 -2.55223 0
M  V30 13334 H 1273.31 2.06824 -2.36794 0
M  V30 13335 N 1277.08 1.37613 -0.768148 0
M  V30 13336 C 1277.99 2.34103 -0.152649 0
M  V30 13337 C 1279 1.6 0.683811 0
M  V30 13338 O 1280.18 1.92112 0.604572 0
M  V30 13339 C 1277.25 3.39164 0.718954 0
M  V30 13340 C 1276.31 4.29092 -0.13355 0
M  V30 13341 C 1275.54 5.29135 0.696547 0
M  V30 13342 O 1275.76 5.36618 1.93383 0
M  V30 13343 O 1274.7 6.01804 0.107652 0
M  V30 13344 H 1278.52 2.88462 -0.949899 0
M  V30 13345 H 1276.11 1.39711 -0.529252 0
M  V30 13346 H 1277.99 4.03454 1.21665 0
M  V30 13347 H 1276.66 2.87137 1.49445 0
M  V30 13348 H 1275.57 3.67914 -0.677528 0
M  V30 13349 H 1276.9 4.84413 -0.872048 0
M  V30 13350 N 1278.56 0.518393 1.4883 0
M  V30 13351 C 1279.81 -0.0218436 2.01688 0
M  V30 13352 C 1280.12 -1.36421 1.40174 0
M  V30 13353 O 1281.32 -1.99214 1.84461 0
M  V30 13354 C 1279.78 -0.0893538 3.59789 0
M  V30 13355 C 1279.39 1.24741 4.30283 0
M  V30 13356 C 1281.13 -0.579032 4.20532 0
M  V30 13357 C 1279.04 1.14112 5.80286 0
M  V30 13358 H 1277.97 -0.0119353 0.753906 0
M  V30 13359 H 1280.62 0.660432 1.71203 0
M  V30 13360 H 1279 -0.836458 3.87065 0
M  V30 13361 H 1280.18 2.00917 4.14691 0
M  V30 13362 H 1278.49 1.67191 3.81361 0
M  V30 13363 H 1281.09 -0.676343 5.30405 0
M  V30 13364 H 1281.43 -1.58207 3.85067 0
M  V30 13365 H 1281.96 0.112046 3.97642 0
M  V30 13366 H 1278.7 2.11895 6.20307 0
M  V30 13367 H 1278.22 0.420535 5.98324 0
M  V30 13368 H 1279.9 0.826992 6.41693 0
M  V30 13369 N 1280.03 -1.55556 0.252993 0
M  V30 13370 C 1281.45 -1.85032 -0.249011 0
M  V30 13371 C 1281.8 -1.17488 -1.57134 0
M  V30 13372 O 1280.92 -0.455387 -2.11554 0
M  V30 13373 C 1281.52 -3.35682 -0.458589 0
M  V30 13374 C 1280.08 -3.65362 -0.90485 0
M  V30 13375 C 1279.22 -2.77296 0.0144927 0
M  V30 13376 H 1282.17 -1.51412 0.475394 0
M  V30 13377 H 1282.19 -3.57591 -1.30034 0
M  V30 13378 H 1281.71 -3.84814 0.503981 0
M  V30 13379 H 1279.81 -3.21713 -1.87967 0
M  V30 13380 H 1279.92 -4.73074 -0.757492 0
M  V30 13381 H 1278.28 -2.49785 -0.497954 0
M  V30 13382 H 1279.07 -3.29236 0.972546 0
M  V30 13383 N 1281.51 0.0200419 -1.57587 0
M  V30 13384 C 1282.76 0.707627 -1.89307 0
M  V30 13385 C 1283.08 1.7541 -0.851831 0
M  V30 13386 O 1282.35 1.95571 0.113404 0
M  V30 13387 H 1280.93 0.264349 -0.698662 0
M  V30 13388 H 1283.59 -0.0161428 -1.94893 0
M  V30 13389 H 1282.69 1.19152 -2.8846 0
M  V30 13390 N 1282.99 1.54862 0.292472 0
M  V30 13391 C 1284.24 1.74203 1.02458 0
M  V30 13392 C 1284.56 0.535398 1.87506 0
M  V30 13393 O 1283.83 -0.450164 1.90658 0
M  V30 13394 H 1282.41 0.642369 0.381276 0
M  V30 13395 H 1285.07 1.92232 0.321398 0
M  V30 13396 H 1284.17 2.63486 1.67277 0
M  V30 13397 N 1284.47 -0.556076 1.47464 0
M  V30 13398 C 1285.4 -1.67829 1.56096 0
M  V30 13399 C 1286.41 -1.56541 0.447077 0
M  V30 13400 O 1287.6 -1.63478 0.716739 0
M  V30 13401 C 1284.7 -3.06303 1.45023 0
M  V30 13402 C 1283.88 -3.43334 2.70999 0
M  V30 13403 C 1282.93 -4.60976 2.53746 0
M  V30 13404 O 1281.96 -4.65501 3.27564 0
M  V30 13405 N 1283.16 -5.5754 1.61647 0
M  V30 13406 H 1285.93 -1.6087 2.52865 0
M  V30 13407 H 1283.49 -0.74274 1.43857 0
M  V30 13408 H 1285.48 -3.82838 1.31214 0
M  V30 13409 H 1284.05 -3.07483 0.563311 0
M  V30 13410 H 1283.27 -2.56236 2.99561 0
M  V30 13411 H 1284.56 -3.64851 3.54629 0
M  V30 13412 H 1283.96 -5.56642 1.00827 0
M  V30 13413 H 1282.51 -6.33397 1.53789 0
M  V30 13414 N 1285.95 -1.35615 -0.802897 0
M  V30 13415 C 1287.18 -1.32025 -1.58911 0
M  V30 13416 C 1287.59 0.103539 -1.88916 0
M  V30 13417 O 1286.93 1.06699 -1.49536 0
M  V30 13418 C 1286.99 -2.06313 -2.94406 0
M  V30 13419 C 1286.65 -3.5548 -2.87198 0
M  V30 13420 C 1287.65 -4.5 -2.60377 0
M  V30 13421 C 1285.34 -3.9818 -3.06199 0
M  V30 13422 C 1287.33 -5.85194 -2.5264 0
M  V30 13423 C 1285.02 -5.33469 -2.98084 0
M  V30 13424 C 1286.02 -6.26788 -2.71341 0
M  V30 13425 O 1285.7 -7.59594 -2.63195 0
M  V30 13426 H 1285.44 -0.454943 -0.500003 0
M  V30 13427 H 1287.99 -1.79106 -1.00549 0
M  V30 13428 H 1286.22 -1.53875 -3.54766 0
M  V30 13429 H 1287.91 -1.95755 -3.55577 0
M  V30 13430 H 1288.67 -4.18327 -2.45413 0
M  V30 13431 H 1284.55 -3.25927 -3.26025 0
M  V30 13432 H 1288.1 -6.58003 -2.31686 0
M  V30 13433 H 1283.99 -5.64754 -3.12607 0
M  V30 13434 H 1284.76 -7.69562 -2.78776 0
M  V30 13435 N 1287.43 1.02549 -1.19673 0
M  V30 13436 C 1288.65 1.79623 -1.0268 0
M  V30 13437 C 1289.07 1.83969 0.424345 0
M  V30 13438 O 1288.43 1.28621 1.29472 0
M  V30 13439 C 1288.48 3.24514 -1.59289 0
M  V30 13440 O 1288.2 3.20462 -2.98723 0
M  V30 13441 C 1289.7 4.18173 -1.47126 0
M  V30 13442 H 1286.92 0.565167 -0.3617 0
M  V30 13443 H 1289.46 1.29143 -1.58564 0
M  V30 13444 H 1287.62 3.72173 -1.07546 0
M  V30 13445 H 1288.03 4.11341 -3.25421 0
M  V30 13446 H 1289.51 5.17714 -1.9151 0
M  V30 13447 H 1289.98 4.37165 -0.422315 0
M  V30 13448 H 1290.59 3.7639 -1.98017 0
M  V30 13449 N 1288.9 1.00119 1.21713 0
M  V30 13450 C 1289.85 0.551452 2.25969 0
M  V30 13451 C 1290.85 -0.402075 1.64559 0
M  V30 13452 O 1292.05 -0.273685 1.77907 0
M  V30 13453 H 1288.43 0.159968 0.734789 0
M  V30 13454 H 1290.4 1.44201 2.61244 0
M  V30 13455 C 1289.15 -0.109992 3.47526 0
M  V30 13456 H 1288.47 0.614686 3.95046 0
M  V30 13457 H 1289.91 -0.388007 4.22221 0
M  V30 13458 C 1288.37 -1.34798 3.08757 0
M  V30 13459 O 1288.9 -2.44266 3.189 0
M  V30 13460 N 1287.1 -1.2263 2.63458 0
M  V30 13461 H 1286.65 -0.335571 2.55405 0
M  V30 13462 H 1286.61 -2.05565 2.37887 0
M  V30 13463 N 1290.38 -1.37203 0.775435 0
M  V30 13464 C 1291.31 -2.32819 0.17826 0
M  V30 13465 C 1292.29 -1.55963 -0.678944 0
M  V30 13466 O 1293.48 -1.84183 -0.615648 0
M  V30 13467 C 1290.61 -3.40198 -0.698768 0
M  V30 13468 C 1289.56 -4.27961 0.057423 0
M  V30 13469 C 1288.89 -5.26385 -0.93929 0
M  V30 13470 C 1290.19 -5.07402 1.23856 0
M  V30 13471 H 1291.88 -2.8301 0.977028 0
M  V30 13472 H 1289.43 -1.3607 0.471274 0
M  V30 13473 H 1291.38 -4.06067 -1.12637 0
M  V30 13474 H 1290.1 -2.88541 -1.53009 0
M  V30 13475 H 1288.76 -3.63628 0.465848 0
M  V30 13476 H 1288.41 -4.71007 -1.76527 0
M  V30 13477 H 1288.11 -5.85966 -0.437844 0
M  V30 13478 H 1289.64 -5.9513 -1.36576 0
M  V30 13479 H 1291.05 -5.6639 0.887423 0
M  V30 13480 H 1289.45 -5.76327 1.67234 0
M  V30 13481 H 1290.52 -4.3986 2.04085 0
M  V30 13482 N 1291.86 -0.526279 -1.48553 0
M  V30 13483 C 1292.81 0.258285 -2.26532 0
M  V30 13484 C 1293.79 0.913187 -1.32475 0
M  V30 13485 O 1294.99 0.816606 -1.57037 0
M  V30 13486 C 1292.11 1.30686 -3.17452 0
M  V30 13487 C 1291.2 0.656933 -4.18981 0
M  V30 13488 N 1291.59 -0.255186 -5.05156 0
M  V30 13489 C 1289.89 0.914575 -4.36522 0
M  V30 13490 C 1290.59 -0.629753 -5.78281 0
M  V30 13491 N 1289.57 0.00829904 -5.43599 0
M  V30 13492 H 1293.37 -0.44348 -2.90535 0
M  V30 13493 H 1290.88 -0.344054 -1.58714 0
M  V30 13494 H 1292.88 1.8826 -3.71973 0
M  V30 13495 H 1291.54 2.01004 -2.55005 0
M  V30 13496 H 1292.55 -0.627564 -5.14084 0
M  V30 13497 H 1289.23 1.6086 -3.85266 0
M  V30 13498 H 1290.62 -1.37746 -6.57629 0
M  V30 13499 N 1293.34 1.5542 -0.261239 0
M  V30 13500 C 1294.58 1.99284 0.359487 0
M  V30 13501 C 1294.91 1.14954 1.56894 0
M  V30 13502 O 1294.17 0.203796 1.94636 0
M  V30 13503 C 1294.47 3.48354 0.799021 0
M  V30 13504 C 1294.13 4.49872 -0.30426 0
M  V30 13505 C 1292.79 4.77353 -0.607237 0
M  V30 13506 C 1295.15 5.10547 -1.04838 0
M  V30 13507 C 1292.47 5.62781 -1.65816 0
M  V30 13508 C 1294.83 5.97115 -2.08893 0
M  V30 13509 C 1293.49 6.22923 -2.3984 0
M  V30 13510 H 1292.76 0.72923 0.131546 0
M  V30 13511 H 1295.41 1.87851 -0.372058 0
M  V30 13512 H 1293.71 3.57192 1.61001 0
M  V30 13513 H 1295.41 3.7969 1.28981 0
M  V30 13514 H 1292 4.28561 -0.0579863 0
M  V30 13515 H 1296.18 4.89352 -0.827566 0
M  V30 13516 H 1291.44 5.81026 -1.90311 0
M  V30 13517 H 1295.61 6.43168 -2.67035 0
M  V30 13518 H 1293.24 6.88912 -3.2141 0
M  V30 13519 N 1294.82 -0.0116844 1.57596 0
M  V30 13520 C 1295.75 -1.03477 2.04512 0
M  V30 13521 C 1296.76 -1.31414 0.960945 0
M  V30 13522 O 1297.95 -1.28596 1.23796 0
M  V30 13523 C 1295.05 -2.37234 2.42019 0
M  V30 13524 C 1294.22 -2.28405 3.73028 0
M  V30 13525 C 1293.28 -3.44753 3.97532 0
M  V30 13526 O 1292.31 -3.23465 4.68358 0
M  V30 13527 N 1293.51 -4.67212 3.44518 0
M  V30 13528 H 1296.27 -0.634758 2.92901 0
M  V30 13529 H 1293.84 -0.1993 1.60669 0
M  V30 13530 H 1295.83 -3.13821 2.55535 0
M  V30 13531 H 1294.4 -2.69018 1.5921 0
M  V30 13532 H 1293.62 -1.36804 3.697 0
M  V30 13533 H 1294.91 -2.19666 4.58938 0
M  V30 13534 H 1294.3 -4.87407 2.87142 0
M  V30 13535 H 1292.86 -5.41105 3.63384 0
M  V30 13536 N 1296.29 -1.55015 -0.284256 0
M  V30 13537 C 1297.26 -1.8636 -1.33426 0
M  V30 13538 C 1298.26 -0.737457 -1.42892 0
M  V30 13539 O 1299.45 -1.00569 -1.42238 0
M  V30 13540 C 1296.58 -2.05884 -2.71707 0
M  V30 13541 H 1297.77 -2.80212 -1.06869 0
M  V30 13542 H 1295.32 -1.47334 -0.521767 0
M  V30 13543 H 1296.06 -1.14376 -3.03461 0
M  V30 13544 H 1295.84 -2.87867 -2.66224 0
M  V30 13545 H 1297.33 -2.31447 -3.47595 0
M  V30 13546 N 1297.77 0.548248 -1.47757 0
M  V30 13547 C 1298.72 1.65028 -1.57321 0
M  V30 13548 C 1299.71 1.55006 -0.431489 0
M  V30 13549 O 1300.9 1.63337 -0.681919 0
M  V30 13550 C 1298.03 3.0379 -1.59896 0
M  V30 13551 C 1297.11 3.18982 -2.79484 0
M  V30 13552 N 1297.5 3.04208 -4.04093 0
M  V30 13553 C 1295.8 3.50001 -2.76433 0
M  V30 13554 C 1296.5 3.2233 -4.8423 0
M  V30 13555 N 1295.48 3.49073 -4.16712 0
M  V30 13556 H 1299.28 1.52187 -2.51428 0
M  V30 13557 H 1296.79 0.753242 -1.43875 0
M  V30 13558 H 1298.79 3.82928 -1.64839 0
M  V30 13559 H 1297.45 3.17735 -0.668912 0
M  V30 13560 H 1298.46 2.81348 -4.34814 0
M  V30 13561 H 1295.14 3.70418 -1.92606 0
M  V30 13562 H 1296.53 3.15799 -5.9306 0
M  V30 13563 N 1299.25 1.36039 0.795694 0
M  V30 13564 C 1300.47 1.33222 1.58955 0
M  V30 13565 C 1300.9 -0.0854596 1.87906 0
M  V30 13566 O 1300.26 -1.05555 1.47403 0
M  V30 13567 C 1300.31 2.15508 2.89117 0
M  V30 13568 O 1299.41 1.54327 3.82436 0
M  V30 13569 H 1298.75 0.456264 0.48241 0
M  V30 13570 H 1301.28 1.79234 0.986726 0
M  V30 13571 H 1301.29 2.2786 3.38444 0
M  V30 13572 H 1299.97 3.18568 2.67371 0
M  V30 13573 H 1298.54 1.50879 3.41013 0
M  V30 13574 N 1300.73 -1.01913 1.20215 0
M  V30 13575 C 1301.66 -2.10043 0.89203 0
M  V30 13576 C 1302.64 -1.61861 -0.154873 0
M  V30 13577 O 1303.82 -1.88478 -0.0290135 0
M  V30 13578 C 1300.95 -3.37021 0.336813 0
M  V30 13579 C 1300 -4.0409 1.36431 0
M  V30 13580 S 1300.83 -4.48334 2.92843 0
M  V30 13581 C 1301.99 -5.78517 2.3889 0
M  V30 13582 H 1302.22 -2.36025 1.80775 0
M  V30 13583 H 1299.75 -1.14992 1.03035 0
M  V30 13584 H 1301.71 -4.10494 0.0230191 0
M  V30 13585 H 1300.37 -3.09115 -0.557363 0
M  V30 13586 H 1299.56 -4.95436 0.925147 0
M  V30 13587 H 1299.17 -3.36831 1.62545 0
M  V30 13588 H 1301.46 -6.53564 1.78494 0
M  V30 13589 H 1302.4 -6.27226 3.28623 0
M  V30 13590 H 1302.81 -5.34658 1.8111 0
M  V30 13591 N 1302.21 -1.00763 -1.2118 0
M  V30 13592 C 1303.45 -0.690459 -1.8994 0
M  V30 13593 C 1303.78 0.781464 -1.78656 0
M  V30 13594 O 1303.05 1.56135 -1.18316 0
M  V30 13595 H 1301.63 -0.252397 -0.703068 0
M  V30 13596 H 1304.29 -1.2773 -1.47211 0
M  V30 13597 H 1303.38 -0.96594 -2.96776 0
M  V30 13598 N 1303.68 1.3679 -0.7827 0
M  V30 13599 C 1304.61 2.32721 -0.190604 0
M  V30 13600 C 1305.6 1.56321 0.670663 0
M  V30 13601 O 1306.78 1.84507 0.605871 0
M  V30 13602 C 1303.91 3.40564 0.680717 0
M  V30 13603 C 1302.86 4.27925 -0.080118 0
M  V30 13604 C 1302.19 5.26876 0.911361 0
M  V30 13605 C 1303.49 5.06738 -1.26545 0
M  V30 13606 H 1305.18 2.82488 -0.992023 0
M  V30 13607 H 1302.73 1.35818 -0.478484 0
M  V30 13608 H 1304.68 4.06659 1.10482 0
M  V30 13609 H 1303.41 2.89348 1.51477 0
M  V30 13610 H 1302.07 3.63376 -0.485125 0
M  V30 13611 H 1301.71 4.71936 1.74026 0
M  V30 13612 H 1301.41 5.8619 0.406762 0
M  V30 13613 H 1302.94 5.95846 1.33418 0
M  V30 13614 H 1304.35 5.65911 -0.917448 0
M  V30 13615 H 1302.75 5.75432 -1.70289 0
M  V30 13616 H 1303.82 4.38772 -2.06415 0
M  V30 13617 N 1305.16 0.53415 1.48272 0
M  V30 13618 C 1306.41 0.00156948 2.021 0
M  V30 13619 C 1306.73 -1.34371 1.41313 0
M  V30 13620 O 1306 -1.87117 0.579996 0
M  V30 13621 H 1304.58 -0.00240789 0.746996 0
M  V30 13622 H 1307.24 0.698928 1.81937 0
M  V30 13623 H 1306.34 -0.103671 3.11928 0
M  V30 13624 N 1306.64 -1.55279 0.269478 0
M  V30 13625 C 1307.87 -2.04334 -0.355313 0
M  V30 13626 C 1308.29 -1.14677 -1.491 0
M  V30 13627 O 1307.65 -0.144215 -1.80726 0
M  V30 13628 C 1307.7 -3.51172 -0.819162 0
M  V30 13629 O 1306.8 -3.64615 -1.9269 0
M  V30 13630 H 1306.14 -0.659827 -0.0743229 0
M  V30 13631 H 1308.67 -2.00609 0.402131 0
M  V30 13632 H 1308.68 -3.92428 -1.11642 0
M  V30 13633 H 1307.36 -4.15898 0.0117821 0
M  V30 13634 H 1305.93 -3.35261 -1.63261 0
M  V30 13635 N 1308.12 0.00332656 -1.576 0
M  V30 13636 C 1309.07 0.99581 -2.08212 0
M  V30 13637 C 1310.04 1.34342 -0.976804 0
M  V30 13638 O 1311.22 1.44236 -1.24902 0
M  V30 13639 C 1308.36 2.2836 -2.58739 0
M  V30 13640 C 1307.47 1.99531 -3.8316 0
M  V30 13641 C 1306.61 3.22367 -4.222 0
M  V30 13642 C 1305.65 2.89209 -5.39467 0
M  V30 13643 N 1304.78 4.04572 -5.73817 0
M  V30 13644 H 1309.62 0.55727 -2.92743 0
M  V30 13645 H 1307.16 0.263513 -1.4472 0
M  V30 13646 H 1309.12 3.03639 -2.86111 0
M  V30 13647 H 1307.75 2.69889 -1.77087 0
M  V30 13648 H 1306.8 1.14634 -3.62716 0
M  V30 13649 H 1308.11 1.71089 -4.6854 0
M  V30 13650 H 1307.27 4.05994 -4.50837 0
M  V30 13651 H 1306.01 3.53944 -3.35522 0
M  V30 13652 H 1305.01 2.03989 -5.10557 0
M  V30 13653 H 1306.24 2.58883 -6.27819 0
M  V30 13654 H 1304.18 4.36052 -4.90096 0
M  V30 13655 H 1304.1 3.79643 -6.53764 0
M  V30 13656 H 1305.37 4.88998 -6.07043 0
M  V30 13657 N 1309.6 1.55164 0.276031 0
M  V30 13658 C 1310.84 1.75627 1.00803 0
M  V30 13659 C 1311.17 0.555696 1.86393 0
M  V30 13660 O 1310.43 -0.461872 1.90172 0
M  V30 13661 C 1310.73 3.0127 1.92279 0
M  V30 13662 C 1310.39 4.33951 1.22464 0
M  V30 13663 C 1309.05 4.70013 1.03158 0
M  V30 13664 C 1311.41 5.16097 0.72758 0
M  V30 13665 C 1308.73 5.85779 0.328699 0
M  V30 13666 C 1311.09 6.32588 0.0383001 0
M  V30 13667 C 1309.75 6.67292 -0.166494 0
M  V30 13668 H 1309.02 0.642665 0.368866 0
M  V30 13669 H 1311.67 1.89433 0.280595 0
M  V30 13670 H 1309.97 2.82351 2.71634 0
M  V30 13671 H 1311.67 3.14299 2.49032 0
M  V30 13672 H 1308.26 4.05605 1.38501 0
M  V30 13673 H 1312.44 4.88715 0.864365 0
M  V30 13674 H 1307.7 6.11192 0.159279 0
M  V30 13675 H 1311.87 6.95496 -0.354631 0
M  V30 13676 H 1309.5 7.56848 -0.713124 0
M  V30 13677 N 1311.07 -0.540404 1.48045 0
M  V30 13678 C 1312.02 -1.64598 1.61791 0
M  V30 13679 C 1312.99 -1.59595 0.460301 0
M  V30 13680 O 1314.18 -1.78176 0.682482 0
M  V30 13681 C 1311.32 -3.02887 1.65389 0
M  V30 13682 C 1310.43 -3.18202 2.92184 0
M  V30 13683 C 1309.56 -4.46989 2.87009 0
M  V30 13684 C 1308.6 -4.55795 4.08555 0
M  V30 13685 N 1307.74 -5.75958 4.01518 0
M  V30 13686 H 1312.58 -1.52188 2.56208 0
M  V30 13687 H 1310.12 -0.741097 1.27068 0
M  V30 13688 H 1312.08 -3.82988 1.65457 0
M  V30 13689 H 1310.71 -3.14092 0.744703 0
M  V30 13690 H 1309.76 -2.31422 3.01907 0
M  V30 13691 H 1311.07 -3.20571 3.82146 0
M  V30 13692 H 1310.22 -5.35369 2.85421 0
M  V30 13693 H 1308.96 -4.47125 1.94759 0
M  V30 13694 H 1307.97 -3.65824 4.1043 0
M  V30 13695 H 1309.19 -4.57406 5.01953 0
M  V30 13696 H 1307.14 -5.77011 3.12081 0
M  V30 13697 H 1307.06 -5.79777 4.85175 0
M  V30 13698 H 1308.32 -6.66653 4.03972 0
M  V30 13699 N 1312.55 -1.36459 -0.788468 0
M  V30 13700 C 1313.46 -1.33017 -1.93245 0
M  V30 13701 C 1314.48 -0.232212 -1.72444 0
M  V30 13702 O 1315.65 -0.464743 -1.95965 0
M  V30 13703 C 1312.72 -1.1197 -3.28121 0
M  V30 13704 C 1311.78 -2.3125 -3.61693 0
M  V30 13705 C 1311.01 -2.11197 -4.90134 0
M  V30 13706 O 1311.24 -1.08764 -5.59934 0
M  V30 13707 O 1310.17 -2.98996 -5.22384 0
M  V30 13708 H 1314 -2.29333 -1.99098 0
M  V30 13709 H 1311.58 -1.17016 -0.928856 0
M  V30 13710 H 1313.46 -1.02154 -4.08831 0
M  V30 13711 H 1312.14 -0.187171 -3.23158 0
M  V30 13712 H 1311.05 -2.46635 -2.81286 0
M  V30 13713 H 1312.38 -3.23012 -3.71381 0
M  V30 13714 N 1314.03 1.01274 -1.20754 0
M  V30 13715 C 1315.28 1.75191 -1.02156 0
M  V30 13716 C 1315.61 1.89038 0.444791 0
M  V30 13717 O 1314.88 1.41903 1.33018 0
M  V30 13718 C 1315.17 3.16892 -1.71031 0
M  V30 13719 C 1315.02 3.10816 -3.25136 0
M  V30 13720 C 1316.34 4.15648 -1.44654 0
M  V30 13721 H 1313.46 0.635922 -0.372521 0
M  V30 13722 H 1316.1 1.18119 -1.48822 0
M  V30 13723 H 1314.25 3.6562 -1.31357 0
M  V30 13724 H 1315.92 2.69863 -3.74128 0
M  V30 13725 H 1314.17 2.48113 -3.5584 0
M  V30 13726 H 1314.84 4.11001 -3.68487 0
M  V30 13727 H 1317.31 3.75592 -1.7908 0
M  V30 13728 H 1316.19 5.12954 -1.95371 0
M  V30 13729 H 1316.45 4.40507 -0.37494 0
M  V30 13730 N 1315.51 1.01404 1.20644 0
M  V30 13731 C 1316.46 0.582109 2.23339 0
M  V30 13732 C 1317.43 -0.39649 1.61298 0
M  V30 13733 O 1318.61 -0.296504 1.88482 0
M  V30 13734 C 1315.75 -0.076029 3.45016 0
M  V30 13735 C 1314.86 0.946829 4.21496 0
M  V30 13736 C 1314 0.26001 5.30563 0
M  V30 13737 C 1313.04 1.2698 5.98784 0
M  V30 13738 N 1312.18 0.609827 6.99447 0
M  V30 13739 H 1317.02 1.46248 2.59645 0
M  V30 13740 H 1314.55 0.732145 1.27585 0
M  V30 13741 H 1316.51 -0.474714 4.1449 0
M  V30 13742 H 1315.14 -0.920062 3.0941 0
M  V30 13743 H 1314.19 1.4637 3.51113 0
M  V30 13744 H 1315.5 1.71491 4.68393 0
M  V30 13745 H 1314.66 -0.19431 6.06389 0
M  V30 13746 H 1313.4 -0.540395 4.84697 0
M  V30 13747 H 1312.4 1.73453 5.21722 0
M  V30 13748 H 1313.63 2.07144 6.46737 0
M  V30 13749 H 1311.57 -0.170756 6.55778 0
M  V30 13750 H 1311.49 1.31601 7.44458 0
M  V30 13751 H 1312.76 0.179014 7.79294 0
M  V30 13752 N 1316.99 -1.36373 0.789944 0
M  V30 13753 C 1317.93 -2.30043 0.186798 0
M  V30 13754 C 1318.9 -1.52002 -0.669663 0
M  V30 13755 O 1320.09 -1.80506 -0.618232 0
M  V30 13756 C 1317.23 -3.38494 -0.671994 0
M  V30 13757 C 1316.34 -4.31522 0.203067 0
M  V30 13758 C 1315.48 -5.27057 -0.662148 0
M  V30 13759 C 1314.52 -6.11725 0.214335 0
M  V30 13760 N 1313.65 -6.99446 -0.609892 0
M  V30 13761 H 1318.49 -2.81038 0.991048 0
M  V30 13762 H 1316.03 -1.38331 0.500288 0
M  V30 13763 H 1317.99 -4.0002 -1.1849 0
M  V30 13764 H 1316.62 -2.88818 -1.44167 0
M  V30 13765 H 1315.67 -3.71146 0.833945 0
M  V30 13766 H 1316.98 -4.91005 0.878389 0
M  V30 13767 H 1316.14 -5.93875 -1.24084 0
M  V30 13768 H 1314.88 -4.6803 -1.37109 0
M  V30 13769 H 1313.88 -5.43868 0.805426 0
M  V30 13770 H 1315.11 -6.72827 0.92089 0
M  V30 13771 H 1313.05 -6.42927 -1.30312 0
M  V30 13772 H 1312.97 -7.56 0.00773786 0
M  V30 13773 H 1314.24 -7.70633 -1.1724 0
M  V30 13774 N 1318.47 -0.542005 -1.47987 0
M  V30 13775 C 1319.43 0.203537 -2.28294 0
M  V30 13776 C 1320.43 0.856762 -1.36074 0
M  V30 13777 O 1321.62 0.71496 -1.58852 0
M  V30 13778 C 1318.75 1.29581 -3.15312 0
M  V30 13779 H 1319.94 -0.501701 -2.95674 0
M  V30 13780 H 1317.5 -0.298378 -1.53426 0
M  V30 13781 H 1318.23 2.03393 -2.5259 0
M  V30 13782 H 1318.02 0.832398 -3.83163 0
M  V30 13783 H 1319.51 1.81988 -3.75859 0
M  V30 13784 N 1319.94 1.55134 -0.277709 0
M  V30 13785 C 1321.17 2.03765 0.341106 0
M  V30 13786 C 1321.58 1.15543 1.49822 0
M  V30 13787 O 1320.92 0.168642 1.82924 0
M  V30 13788 C 1320.99 3.48513 0.881974 0
M  V30 13789 C 1320.65 4.56764 -0.146837 0
M  V30 13790 C 1321.65 5.10823 -0.967252 0
M  V30 13791 C 1319.33 5.01509 -0.281824 0
M  V30 13792 C 1321.33 6.08147 -1.90882 0
M  V30 13793 C 1319.01 5.98658 -1.22686 0
M  V30 13794 C 1320.01 6.51859 -2.03886 0
M  V30 13795 O 1319.7 7.47108 -2.96791 0
M  V30 13796 H 1319.43 0.671068 0.0815052 0
M  V30 13797 H 1321.99 2.013 -0.408341 0
M  V30 13798 H 1320.22 3.48226 1.68154 0
M  V30 13799 H 1321.9 3.80469 1.41416 0
M  V30 13800 H 1322.67 4.77065 -0.873714 0
M  V30 13801 H 1318.55 4.59743 0.340203 0
M  V30 13802 H 1322.09 6.49597 -2.54301 0
M  V30 13803 H 1317.99 6.31834 -1.32121 0
M  V30 13804 H 1318.76 7.64832 -2.91502 0
M  V30 13805 N 1321.42 0.00503138 1.57599 0
M  V30 13806 C 1322.67 -0.679766 1.91068 0
M  V30 13807 C 1323 -1.73144 0.879486 0
M  V30 13808 O 1322.28 -1.94237 -0.101116 0
M  V30 13809 C 1322.56 -1.3183 3.35101 0
M  V30 13810 C 1322.41 -0.277833 4.48941 0
M  V30 13811 C 1323.73 -2.24308 3.78647 0
M  V30 13812 H 1320.85 -0.245646 0.694857 0
M  V30 13813 H 1323.49 0.057357 1.89913 0
M  V30 13814 H 1321.64 -1.94657 3.36216 0
M  V30 13815 H 1323.31 0.351136 4.59962 0
M  V30 13816 H 1321.56 0.399365 4.31958 0
M  V30 13817 H 1322.23 -0.763759 5.46691 0
M  V30 13818 H 1324.7 -1.71494 3.79116 0
M  V30 13819 H 1323.58 -2.6595 4.80169 0
M  V30 13820 H 1323.84 -3.12427 3.12797 0
M  V30 13821 N 1322.9 -1.55308 -0.267798 0
M  V30 13822 C 1323.81 -1.91649 -1.35307 0
M  V30 13823 C 1324.83 -0.814349 -1.53767 0
M  V30 13824 O 1326 -1.11388 -1.67793 0
M  V30 13825 C 1323.07 -2.18553 -2.69138 0
M  V30 13826 C 1322.13 -3.42083 -2.5938 0
M  V30 13827 C 1321.36 -3.67695 -3.86828 0
M  V30 13828 O 1321.58 -2.95728 -4.87751 0
M  V30 13829 O 1320.52 -4.61229 -3.86718 0
M  V30 13830 H 1324.34 -2.84044 -1.07483 0
M  V30 13831 H 1321.93 -1.41921 -0.466772 0
M  V30 13832 H 1323.81 -2.3726 -3.48261 0
M  V30 13833 H 1322.49 -1.2934 -2.96737 0
M  V30 13834 H 1321.39 -3.28706 -1.78614 0
M  V30 13835 H 1322.73 -4.31532 -2.36729 0
M  V30 13836 N 1324.38 0.532545 -1.4833 0
M  V30 13837 C 1325.34 1.61955 -1.62183 0
M  V30 13838 C 1326.34 1.52982 -0.495281 0
M  V30 13839 O 1327.53 1.56698 -0.761005 0
M  V30 13840 C 1324.66 3.0157 -1.58961 0
M  V30 13841 H 1325.86 1.51013 -2.59105 0
M  V30 13842 H 1323.41 0.754405 -1.36888 0
M  V30 13843 H 1324.14 3.18021 -0.635069 0
M  V30 13844 H 1323.93 3.09491 -2.40744 0
M  V30 13845 H 1325.42 3.80604 -1.71843 0
M  V30 13846 N 1325.86 1.36875 0.78122 0
M  V30 13847 C 1326.8 1.31941 1.91557 0
M  V30 13848 C 1327.8 0.209783 1.68096 0
M  V30 13849 O 1329 0.377266 1.76002 0
M  V30 13850 H 1325.38 0.410955 0.629778 0
M  V30 13851 H 1327.35 2.27721 1.92836 0
M  V30 13852 C 1326.1 1.13379 3.28695 0
M  V30 13853 H 1325.42 1.98013 3.47319 0
M  V30 13854 H 1326.86 1.13976 4.08394 0
M  V30 13855 C 1325.32 -0.161119 3.36515 0
M  V30 13856 O 1325.85 -1.14806 3.84945 0
M  V30 13857 N 1324.06 -0.208594 2.8985 0
M  V30 13858 H 1323.6 0.595187 2.5063 0
M  V30 13859 H 1323.56 -1.07465 2.95463 0
M  V30 13860 N 1327.33 -1.00632 1.21289 0
M  V30 13861 C 1328.27 -2.0954 0.928753 0
M  V30 13862 C 1329.28 -1.62565 -0.0875212 0
M  V30 13863 O 1330.47 -1.77912 0.144808 0
M  V30 13864 C 1327.57 -3.36844 0.37276 0
M  V30 13865 C 1326.74 -4.1291 1.44305 0
M  V30 13866 C 1325.8 -5.18506 0.896534 0
M  V30 13867 O 1324.83 -5.46841 1.57966 0
M  V30 13868 N 1326.03 -5.79781 -0.288888 0
M  V30 13869 H 1328.79 -2.34499 1.86629 0
M  V30 13870 H 1326.35 -1.17104 1.11796 0
M  V30 13871 H 1328.35 -4.04699 -0.00722737 0
M  V30 13872 H 1326.92 -3.09053 -0.469572 0
M  V30 13873 H 1326.14 -3.39876 1.99694 0
M  V30 13874 H 1327.42 -4.60508 2.16356 0
M  V30 13875 H 1326.82 -5.5911 -0.860951 0
M  V30 13876 H 1325.38 -6.48936 -0.6104 0
M  V30 13877 N 1328.81 -1.02043 -1.20104 0
M  V30 13878 C 1329.74 -0.538603 -2.21753 0
M  V30 13879 C 1330.72 0.416016 -1.57188 0
M  V30 13880 O 1331.91 0.335114 -1.85497 0
M  V30 13881 C 1329.03 0.215706 -3.38012 0
M  V30 13882 C 1328.08 -0.68905 -4.20897 0
M  V30 13883 S 1328.91 -2.16041 -4.89986 0
M  V30 13884 C 1330.07 -1.41637 -6.09664 0
M  V30 13885 H 1330.3 -1.39988 -2.6228 0
M  V30 13886 H 1327.83 -0.829641 -1.30216 0
M  V30 13887 H 1329.79 0.644798 -4.05404 0
M  V30 13888 H 1328.45 1.0526 -2.95938 0
M  V30 13889 H 1327.65 -0.107195 -5.03886 0
M  V30 13890 H 1327.25 -1.05609 -3.5878 0
M  V30 13891 H 1329.54 -0.698414 -6.73891 0
M  V30 13892 H 1330.48 -2.22254 -6.72316 0
M  V30 13893 H 1330.89 -0.917572 -5.56993 0
M  V30 13894 N 1330.29 1.35952 -0.797165 0
M  V30 13895 C 1331.22 2.32506 -0.215277 0
M  V30 13896 C 1332.2 1.57023 0.654046 0
M  V30 13897 O 1333.39 1.85139 0.586268 0
M  V30 13898 C 1330.52 3.41266 0.644557 0
M  V30 13899 C 1329.47 4.27816 -0.125501 0
M  V30 13900 C 1328.8 5.27813 0.855428 0
M  V30 13901 C 1330.1 5.05367 -1.31913 0
M  V30 13902 H 1331.79 2.8142 -1.02193 0
M  V30 13903 H 1329.34 1.35303 -0.492862 0
M  V30 13904 H 1331.29 4.07808 1.06163 0
M  V30 13905 H 1330.01 2.90938 1.484 0
M  V30 13906 H 1328.67 3.62841 -0.523639 0
M  V30 13907 H 1328.32 4.73755 1.69011 0
M  V30 13908 H 1328.02 5.86589 0.344566 0
M  V30 13909 H 1329.54 5.97227 1.2709 0
M  V30 13910 H 1330.96 5.64907 -0.977418 0
M  V30 13911 H 1329.36 5.73593 -1.76382 0
M  V30 13912 H 1330.43 4.36558 -2.11057 0
M  V30 13913 N 1331.77 0.549846 1.47697 0
M  V30 13914 C 1333.02 0.0230048 2.02087 0
M  V30 13915 C 1333.34 -1.32865 1.4273 0
M  V30 13916 O 1332.61 -1.86492 0.59981 0
M  V30 13917 H 1331.19 0.00551514 0.74698 0
M  V30 13918 H 1333.85 0.718185 1.81185 0
M  V30 13919 H 1332.95 -0.0705813 3.1202 0
M  V30 13920 N 1333.25 -1.54984 0.285932 0
M  V30 13921 C 1334.52 -1.91872 -0.380083 0
M  V30 13922 C 1334.9 -1.21146 -1.72878 0
M  V30 13923 O 1334.25 -0.341999 -2.25926 0
M  V30 13924 C 1334.46 -3.45258 -0.509667 0
M  V30 13925 C 1335.81 -4.17232 -0.787549 0
M  V30 13926 O 1336.83 -3.51211 -0.594062 0
M  V30 13927 O 1335.69 -5.34085 -1.15826 0
M  V30 13928 H 1332.79 -0.799931 -0.209856 0
M  V30 13929 H 1335.33 -1.66403 0.332882 0
M  V30 13930 H 1334.1 -3.88829 0.439049 0
M  V30 13931 H 1333.73 -3.76715 -1.27168 0
M  V30 13932 N 1334.72 -0.0133892 -1.57594 0
M  V30 13933 C 1335.65 0.972341 -2.12292 0
M  V30 13934 C 1336.64 1.34971 -1.03522 0
M  V30 13935 O 1337.82 1.4311 -1.31275 0
M  V30 13936 C 1334.95 2.25988 -2.63717 0
M  V30 13937 C 1333.9 2.02373 -3.77133 0
M  V30 13938 C 1333.23 3.37256 -4.14925 0
M  V30 13939 C 1334.53 1.37553 -5.03861 0
M  V30 13940 H 1336.22 0.516869 -2.94905 0
M  V30 13941 H 1333.77 0.247176 -1.41863 0
M  V30 13942 H 1335.72 2.95313 -3.00613 0
M  V30 13943 H 1334.45 2.73672 -1.78244 0
M  V30 13944 H 1333.11 1.3547 -3.40651 0
M  V30 13945 H 1332.75 3.82669 -3.26456 0
M  V30 13946 H 1332.45 3.22267 -4.91343 0
M  V30 13947 H 1333.98 4.07875 -4.5439 0
M  V30 13948 H 1335.39 1.96855 -5.38443 0
M  V30 13949 H 1333.79 1.33011 -5.85174 0
M  V30 13950 H 1334.86 0.346429 -4.83661 0
M  V30 13951 N 1336.2 1.55448 0.259558 0
M  V30 13952 C 1337.45 1.7589 0.987201 0
M  V30 13953 C 1337.76 0.574951 1.86959 0
M  V30 13954 O 1338.97 0.662091 2.63303 0
M  V30 13955 C 1337.43 3.11349 1.80526 0
M  V30 13956 C 1337.03 4.37353 0.970882 0
M  V30 13957 C 1338.78 3.41136 2.5264 0
M  V30 13958 C 1336.69 5.63847 1.7841 0
M  V30 13959 H 1335.62 0.655662 0.372321 0
M  V30 13960 H 1338.27 1.81893 0.242332 0
M  V30 13961 H 1336.65 2.9942 2.5916 0
M  V30 13962 H 1337.82 4.60237 0.227763 0
M  V30 13963 H 1336.14 4.14809 0.363669 0
M  V30 13964 H 1338.73 4.32855 3.13912 0
M  V30 13965 H 1339.08 2.61879 3.23612 0
M  V30 13966 H 1339.61 3.54224 1.81026 0
M  V30 13967 H 1336.35 6.4589 1.11834 0
M  V30 13968 H 1335.87 5.45086 2.50283 0
M  V30 13969 H 1337.55 6.02641 2.35441 0
M  V30 13970 N 1337.68 -0.524672 1.4861 0
M  V30 13971 C 1338.63 -1.62872 1.63527 0
M  V30 13972 C 1339.6 -1.59097 0.477202 0
M  V30 13973 O 1340.78 -1.77443 0.701341 0
M  V30 13974 C 1337.92 -3.01116 1.68592 0
M  V30 13975 C 1337.04 -3.15085 2.95542 0
M  V30 13976 C 1336.17 -4.4392 2.91734 0
M  V30 13977 C 1335.21 -4.51436 4.13366 0
M  V30 13978 N 1334.35 -5.71667 4.07605 0
M  V30 13979 H 1339.19 -1.49462 2.57808 0
M  V30 13980 H 1336.72 -0.727578 1.27846 0
M  V30 13981 H 1338.68 -3.81212 1.6951 0
M  V30 13982 H 1337.31 -3.13285 0.777975 0
M  V30 13983 H 1336.36 -2.28207 3.04345 0
M  V30 13984 H 1337.68 -3.165 3.85524 0
M  V30 13985 H 1336.83 -5.32312 2.91083 0
M  V30 13986 H 1335.57 -4.45034 1.9949 0
M  V30 13987 H 1334.57 -3.6145 4.14287 0
M  V30 13988 H 1335.8 -4.52057 5.06776 0
M  V30 13989 H 1333.74 -5.73668 3.18184 0
M  V30 13990 H 1333.66 -5.74599 4.91297 0
M  V30 13991 H 1334.93 -6.62331 4.1102 0
M  V30 13992 N 1339.16 -1.37287 -0.77395 0
M  V30 13993 C 1340.4 -1.3257 -1.5347 0
M  V30 13994 C 1340.74 0.090346 -1.9399 0
M  V30 13995 O 1340.01 1.04719 -1.63903 0
M  V30 13996 C 1340.3 -2.26277 -2.80126 0
M  V30 13997 C 1340.15 -3.76651 -2.45874 0
M  V30 13998 C 1341.47 -2.18471 -3.82045 0
M  V30 13999 H 1338.59 -0.48289 -0.556764 0
M  V30 14000 H 1341.23 -1.6797 -0.888039 0
M  V30 14001 H 1339.38 -1.96219 -3.35306 0
M  V30 14002 H 1341.05 -4.17296 -1.96626 0
M  V30 14003 H 1339.29 -3.95327 -1.78602 0
M  V30 14004 H 1339.96 -4.3765 -3.36403 0
M  V30 14005 H 1342.44 -2.44962 -3.36352 0
M  V30 14006 H 1341.32 -2.86183 -4.68392 0
M  V30 14007 H 1341.58 -1.17692 -4.26147 0
M  V30 14008 N 1340.64 0.999871 -1.21821 0
M  V30 14009 C 1341.86 1.77405 -1.06467 0
M  V30 14010 C 1342.28 1.84828 0.385227 0
M  V30 14011 O 1341.64 1.31338 1.26714 0
M  V30 14012 C 1341.69 3.21062 -1.66137 0
M  V30 14013 O 1341.41 3.14054 -3.05454 0
M  V30 14014 C 1342.91 4.14958 -1.55963 0
M  V30 14015 H 1340.13 0.557368 -0.373607 0
M  V30 14016 H 1342.67 1.2575 -1.61267 0
M  V30 14017 H 1340.83 3.69808 -1.15416 0
M  V30 14018 H 1341.24 4.04346 -3.34073 0
M  V30 14019 H 1342.72 5.13536 -2.02448 0
M  V30 14020 H 1343.19 4.36171 -0.514949 0
M  V30 14021 H 1343.8 3.72105 -2.05956 0
M  V30 14022 N 1342.11 1.02678 1.19562 0
M  V30 14023 C 1343.53 0.752027 1.70884 0
M  V30 14024 C 1343.88 -0.728523 1.82173 0
M  V30 14025 O 1343 -1.56799 1.49141 0
M  V30 14026 C 1343.6 1.35848 3.10372 0
M  V30 14027 C 1342.16 1.13236 3.58963 0
M  V30 14028 C 1341.3 1.45785 2.35886 0
M  V30 14029 H 1344.25 1.19497 1.04432 0
M  V30 14030 H 1344.27 0.754347 3.72948 0
M  V30 14031 H 1343.79 2.43604 3.02124 0
M  V30 14032 H 1341.89 0.0729271 3.72529 0
M  V30 14033 H 1342 1.81959 4.43202 0
M  V30 14034 H 1340.36 0.877125 2.3912 0
M  V30 14035 H 1341.15 2.54619 2.30269 0
M  V30 14036 N 1343.59 -1.35528 0.804364 0
M  V30 14037 C 1344.82 -2.03604 0.395013 0
M  V30 14038 C 1345.24 -1.60225 -0.985371 0
M  V30 14039 O 1344.6 -0.777844 -1.63766 0
M  V30 14040 C 1344.65 -3.57337 0.484011 0
M  V30 14041 O 1343.75 -4.09316 -0.503395 0
M  V30 14042 H 1343.09 -0.643089 0.165325 0
M  V30 14043 H 1345.62 -1.73171 1.08963 0
M  V30 14044 H 1345.63 -4.0647 0.353009 0
M  V30 14045 H 1344.31 -3.8826 1.49088 0
M  V30 14046 H 1342.89 -3.71412 -0.332817 0
M  V30 14047 N 1345.07 -0.557671 -1.47404 0
M  V30 14048 C 1346.3 -0.0366797 -2.07368 0
M  V30 14049 C 1346.72 1.2478 -1.40754 0
M  V30 14050 O 1346.08 1.74757 -0.48268 0
M  V30 14051 C 1346.13 0.141728 -3.60321 0
M  V30 14052 O 1345.23 1.20419 -3.94427 0
M  V30 14053 H 1344.57 -0.0515319 -0.661997 0
M  V30 14054 H 1347.1 -0.773485 -1.89416 0
M  V30 14055 H 1347.11 0.355787 -4.06446 0
M  V30 14056 H 1345.79 -0.796433 -4.08203 0
M  V30 14057 H 1344.36 0.970589 -3.60047 0
M  V30 14058 N 1346.55 1.54831 -0.294147 0
M  V30 14059 C 1347.5 2.23263 0.58499 0
M  V30 14060 C 1348.47 1.21278 1.13494 0
M  V30 14061 O 1349.65 1.49878 1.18073 0
M  V30 14062 C 1346.79 2.97185 1.75429 0
M  V30 14063 C 1345.9 4.1393 1.23638 0
M  V30 14064 C 1345.04 4.7545 2.36899 0
M  V30 14065 C 1344.08 5.84352 1.82207 0
M  V30 14066 N 1343.22 6.39855 2.89015 0
M  V30 14067 H 1348.06 2.98 -0.00519329 0
M  V30 14068 H 1345.59 1.47093 -0.0143313 0
M  V30 14069 H 1347.55 3.38271 2.4419 0
M  V30 14070 H 1346.18 2.24837 2.3162 0
M  V30 14071 H 1345.23 3.77832 0.441247 0
M  V30 14072 H 1346.54 4.92409 0.795946 0
M  V30 14073 H 1345.7 5.19353 3.1362 0
M  V30 14074 H 1344.44 3.96288 2.84266 0
M  V30 14075 H 1343.44 5.39879 1.03974 0
M  V30 14076 H 1344.67 6.65393 1.35753 0
M  V30 14077 H 1342.61 5.6358 3.35729 0
M  V30 14078 H 1342.53 7.13661 2.49447 0
M  V30 14079 H 1343.8 6.88417 3.65654 0
M  V30 14080 N 1348.03 0.0217466 1.57585 0
M  V30 14081 C 1349.28 -0.657793 1.90672 0
M  V30 14082 C 1349.59 -1.73713 0.899066 0
M  V30 14083 O 1350.8 -2.4728 1.12092 0
M  V30 14084 C 1349.25 -1.22124 3.38547 0
M  V30 14085 C 1348.86 -0.175575 4.47656 0
M  V30 14086 C 1350.6 -1.87771 3.80713 0
M  V30 14087 C 1348.51 -0.750239 5.86622 0
M  V30 14088 H 1347.44 -0.249459 0.711538 0
M  V30 14089 H 1350.09 0.0858449 1.83299 0
M  V30 14090 H 1348.47 -2.01625 3.40828 0
M  V30 14091 H 1349.65 0.596436 4.56924 0
M  V30 14092 H 1347.96 0.381715 4.14647 0
M  V30 14093 H 1350.56 -2.3171 4.81887 0
M  V30 14094 H 1350.9 -2.71737 3.1538 0
M  V30 14095 H 1351.44 -1.14971 3.80823 0
M  V30 14096 H 1348.17 0.0511222 6.5548 0
M  V30 14097 H 1347.69 -1.49091 5.80975 0
M  V30 14098 H 1349.37 -1.24225 6.34962 0
M  V30 14099 N 1349.51 -1.55583 -0.251311 0
M  V30 14100 C 1350.75 -1.77471 -0.981418 0
M  V30 14101 C 1351.08 -0.586228 -1.85141 0
M  V30 14102 O 1350.36 0.415623 -1.90007 0
M  V30 14103 C 1350.64 -3.09204 -1.84567 0
M  V30 14104 C 1350.5 -4.38448 -1.00417 0
M  V30 14105 C 1351.81 -3.37133 -2.82895 0
M  V30 14106 H 1348.93 -0.645664 -0.355369 0
M  V30 14107 H 1351.58 -1.88318 -0.252228 0
M  V30 14108 H 1349.73 -3.00087 -2.46738 0
M  V30 14109 H 1351.4 -4.5955 -0.40149 0
M  V30 14110 H 1349.64 -4.32703 -0.308365 0
M  V30 14111 H 1350.31 -5.26995 -1.64258 0
M  V30 14112 H 1352.79 -3.46183 -2.3086 0
M  V30 14113 H 1351.66 -4.30531 -3.40491 0
M  V30 14114 H 1351.92 -2.57829 -3.59133 0
M  V30 14115 N 1350.98 0.516783 -1.48886 0
M  V30 14116 C 1352.23 1.26936 -1.57263 0
M  V30 14117 C 1352.55 1.93337 -0.254156 0
M  V30 14118 O 1351.82 1.81977 0.725345 0
M  V30 14119 H 1350.4 0.4715 -0.579393 0
M  V30 14120 H 1353.06 0.600289 -1.85425 0
M  V30 14121 H 1352.16 2.04167 -2.36055 0
M  V30 14122 N 1352.46 1.37696 0.766659 0
M  V30 14123 C 1353.74 1.23715 1.51506 0
M  V30 14124 C 1354.12 -0.167091 2.10438 0
M  V30 14125 O 1353.47 -1.17526 1.95959 0
M  V30 14126 C 1353.68 2.33715 2.59188 0
M  V30 14127 C 1355.02 2.71504 3.26451 0
M  V30 14128 O 1356.05 2.32929 2.69486 0
M  V30 14129 O 1354.91 3.37981 4.29454 0
M  V30 14130 H 1352 0.483046 0.671264 0
M  V30 14131 H 1354.55 1.49489 0.803188 0
M  V30 14132 H 1353.32 3.27729 2.13797 0
M  V30 14133 H 1352.94 2.09433 3.3797 0
M  V30 14134 N 1353.94 -0.993397 1.22349 0
M  V30 14135 C 1354.87 -2.10171 1.01737 0
M  V30 14136 C 1355.85 -1.69989 -0.0615276 0
M  V30 14137 O 1357.04 -1.93939 0.100591 0
M  V30 14138 C 1354.17 -3.42186 0.593801 0
M  V30 14139 C 1353.12 -3.96215 1.61858 0
M  V30 14140 C 1352.45 -5.24272 1.05086 0
M  V30 14141 C 1353.75 -4.26956 3.00842 0
M  V30 14142 H 1355.44 -2.27673 1.94436 0
M  V30 14143 H 1352.99 -1.09408 0.936258 0
M  V30 14144 H 1354.94 -4.19131 0.436715 0
M  V30 14145 H 1353.66 -3.2451 -0.368855 0
M  V30 14146 H 1352.32 -3.21401 1.76343 0
M  V30 14147 H 1351.97 -5.02937 0.0795747 0
M  V30 14148 H 1351.67 -5.61387 1.73547 0
M  V30 14149 H 1353.19 -6.03851 0.905349 0
M  V30 14150 H 1354.61 -4.94699 2.89734 0
M  V30 14151 H 1353 -4.75242 3.66422 0
M  V30 14152 H 1354.07 -3.34752 3.50812 0
M  V30 14153 N 1355.42 -1.03311 -1.19015 0
M  V30 14154 C 1356.38 -0.622114 -2.20596 0
M  V30 14155 C 1357.38 0.316502 -1.57654 0
M  V30 14156 O 1358.57 0.102932 -1.73896 0
M  V30 14157 C 1355.7 0.0890432 -3.40784 0
M  V30 14158 H 1356.9 -1.52095 -2.58471 0
M  V30 14159 H 1354.45 -0.824777 -1.32767 0
M  V30 14160 H 1355.18 1.00203 -3.08431 0
M  V30 14161 H 1354.97 -0.58547 -3.87704 0
M  V30 14162 H 1356.46 0.363366 -4.16016 0
M  V30 14163 N 1356.9 1.35099 -0.81154 0
M  V30 14164 C 1357.83 2.28468 -0.183012 0
M  V30 14165 C 1358.84 1.50509 0.620553 0
M  V30 14166 O 1360.03 1.7268 0.4521 0
M  V30 14167 C 1357.13 3.30201 0.762933 0
M  V30 14168 C 1356.3 4.374 0.00466561 0
M  V30 14169 C 1355.36 5.18961 0.869832 0
M  V30 14170 O 1354.39 5.68306 0.318964 0
M  V30 14171 N 1355.59 5.37555 2.19123 0
M  V30 14172 H 1358.35 2.83046 -0.985132 0
M  V30 14173 H 1355.92 1.47502 -0.667449 0
M  V30 14174 H 1357.91 3.81659 1.34606 0
M  V30 14175 H 1356.48 2.76101 1.46584 0
M  V30 14176 H 1355.7 3.8681 -0.759702 0
M  V30 14177 H 1356.99 5.06159 -0.517739 0
M  V30 14178 H 1356.38 4.99118 2.66266 0
M  V30 14179 H 1354.94 5.92174 2.72348 0
M  V30 14180 N 1358.37 0.56548 1.47106 0
M  V30 14181 C 1359.62 0.0445255 2.02451 0
M  V30 14182 C 1359.95 -1.30863 1.43893 0
M  V30 14183 O 1359.2 -1.8668 0.587274 0
M  V30 14184 C 1359.5 -0.0893776 3.57288 0
M  V30 14185 C 1359.17 1.19395 4.34805 0
M  V30 14186 C 1357.83 1.54558 4.55703 0
M  V30 14187 C 1360.18 2.04399 4.79448 0
M  V30 14188 C 1357.51 2.74557 5.18494 0
M  V30 14189 C 1359.86 3.23608 5.43563 0
M  V30 14190 C 1358.53 3.59074 5.62692 0
M  V30 14191 H 1357.8 0.016293 0.740821 0
M  V30 14192 H 1360.44 0.738657 1.76681 0
M  V30 14193 H 1358.75 -0.86653 3.82097 0
M  V30 14194 H 1360.45 -0.507943 3.9777 0
M  V30 14195 H 1357.04 0.910176 4.18824 0
M  V30 14196 H 1361.22 1.78539 4.63074 0
M  V30 14197 H 1356.48 3.02194 5.31497 0
M  V30 14198 H 1360.65 3.89755 5.77117 0
M  V30 14199 H 1358.28 4.5215 6.11117 0
M  V30 14200 N 1359.85 -1.54672 0.302354 0
M  V30 14201 C 1360.79 -2.19752 -0.615175 0
M  V30 14202 C 1361.76 -1.16737 -1.13186 0
M  V30 14203 O 1362.95 -1.45385 -1.19981 0
M  V30 14204 C 1360.07 -2.84243 -1.84184 0
M  V30 14205 C 1359.12 -4.00795 -1.45827 0
M  V30 14206 S 1359.95 -5.33037 -0.513046 0
M  V30 14207 C 1361.11 -6.01011 -1.74747 0
M  V30 14208 H 1361.34 -2.97235 -0.0622917 0
M  V30 14209 H 1358.88 -1.54158 0.0864897 0
M  V30 14210 H 1360.83 -3.22025 -2.54578 0
M  V30 14211 H 1359.49 -2.06603 -2.36589 0
M  V30 14212 H 1358.69 -4.44707 -2.37175 0
M  V30 14213 H 1358.29 -3.64577 -0.83425 0
M  V30 14214 H 1360.58 -6.21901 -2.68786 0
M  V30 14215 H 1361.52 -6.95095 -1.35089 0
M  V30 14216 H 1361.93 -5.30671 -1.9248 0
M  V30 14217 N 1361.33 -0.0301034 -1.57571 0
M  V30 14218 C 1362.58 0.649283 -1.92125 0
M  V30 14219 C 1362.91 1.71722 -0.90692 0
M  V30 14220 O 1362.18 1.94373 0.0702019 0
M  V30 14221 C 1362.47 1.26482 -3.37156 0
M  V30 14222 C 1362.32 0.206375 -4.49326 0
M  V30 14223 C 1363.64 2.18256 -3.82168 0
M  V30 14224 H 1360.76 0.234561 -0.698678 0
M  V30 14225 H 1363.4 -0.0875634 -1.89798 0
M  V30 14226 H 1361.55 1.89283 -3.3927 0
M  V30 14227 H 1363.22 -0.424268 -4.59345 0
M  V30 14228 H 1361.47 -0.468035 -4.31268 0
M  V30 14229 H 1362.14 0.676689 -5.47837 0
M  V30 14230 H 1364.61 1.65441 -3.81797 0
M  V30 14231 H 1363.49 2.58277 -4.84339 0
M  V30 14232 H 1363.75 3.07411 -3.17727 0
M  V30 14233 N 1362.81 1.55714 0.243056 0
M  V30 14234 C 1363.74 1.87093 1.32396 0
M  V30 14235 C 1364.75 0.757482 1.44104 0
M  V30 14236 O 1365.94 1.03563 1.45386 0
M  V30 14237 C 1363.04 2.04546 2.70212 0
M  V30 14238 C 1362.22 3.3543 2.80723 0
M  V30 14239 C 1361.27 3.42578 3.99408 0
M  V30 14240 O 1360.3 4.15762 3.88755 0
M  V30 14241 N 1361.5 2.7215 5.12752 0
M  V30 14242 H 1364.27 2.80399 1.05813 0
M  V30 14243 H 1361.83 1.55998 0.433151 0
M  V30 14244 H 1363.82 2.06665 3.47954 0
M  V30 14245 H 1362.39 1.17966 2.89487 0
M  V30 14246 H 1361.61 3.45594 1.89626 0
M  V30 14247 H 1362.9 4.21692 2.84698 0
M  V30 14248 H 1362.3 2.1243 5.24299 0
M  V30 14249 H 1360.85 2.79957 5.88615 0
M  V30 14250 N 1364.29 -0.50888 1.49158 0
M  V30 14251 C 1365.23 -1.63216 1.6572 0
M  V30 14252 C 1366.23 -1.61117 0.523236 0
M  V30 14253 O 1367.43 -1.6572 0.702629 0
M  V30 14254 H 1363.81 -0.540909 0.522419 0
M  V30 14255 H 1365.78 -1.46397 2.6002 0
M  V30 14256 C 1364.53 -3.01393 1.73372 0
M  V30 14257 H 1363.85 -3.03711 2.6 0
M  V30 14258 H 1365.29 -3.79547 1.88998 0
M  V30 14259 C 1363.75 -3.33509 0.47683 0
M  V30 14260 O 1364.28 -3.99694 -0.400986 0
M  V30 14261 N 1362.49 -2.88579 0.342145 0
M  V30 14262 H 1362.03 -2.34894 1.05747 0
M  V30 14263 H 1361.99 -3.10435 -0.497757 0
M  V30 14264 N 1365.76 -1.381 -0.759346 0
M  V30 14265 C 1367.01 -1.33727 -1.5153 0
M  V30 14266 C 1367.33 0.0739504 -1.9486 0
M  V30 14267 O 1366.6 1.02049 -1.67221 0
M  V30 14268 H 1365.18 -0.492037 -0.562058 0
M  V30 14269 H 1367.85 -1.72719 -0.902995 0
M  V30 14270 H 1366.94 -1.98439 -2.40891 0
M  V30 14271 N 1367.24 0.986894 -1.22875 0
M  V30 14272 C 1368.17 2.09628 -1.0285 0
M  V30 14273 C 1369.15 1.70019 0.0525118 0
M  V30 14274 O 1370.34 1.93883 -0.110874 0
M  V30 14275 C 1367.47 3.41866 -0.61194 0
M  V30 14276 C 1366.42 3.95351 -1.63956 0
M  V30 14277 C 1365.75 5.23707 -1.07865 0
M  V30 14278 C 1367.05 4.25354 -3.03102 0
M  V30 14279 H 1368.74 2.26639 -1.95641 0
M  V30 14280 H 1366.29 1.0891 -0.942048 0
M  V30 14281 H 1368.24 4.18893 -0.458936 0
M  V30 14282 H 1366.97 3.24701 0.35164 0
M  V30 14283 H 1365.62 3.20462 -1.78045 0
M  V30 14284 H 1365.27 5.02888 -0.106246 0
M  V30 14285 H 1364.97 5.60459 -1.76522 0
M  V30 14286 H 1366.5 6.03362 -0.937359 0
M  V30 14287 H 1367.91 4.93156 -2.92353 0
M  V30 14288 H 1366.31 4.73292 -3.68938 0
M  V30 14289 H 1367.38 3.32887 -3.52583 0
M  V30 14290 N 1368.72 1.0394 1.18466 0
M  V30 14291 C 1369.95 0.761926 1.92897 0
M  V30 14292 C 1370.37 -0.674618 1.75586 0
M  V30 14293 O 1369.73 -1.46711 1.06515 0
M  V30 14294 C 1369.78 1.13152 3.42387 0
M  V30 14295 O 1368.88 0.256266 4.11603 0
M  V30 14296 H 1368.22 0.280527 0.601831 0
M  V30 14297 H 1370.75 1.3889 1.50235 0
M  V30 14298 H 1370.76 1.0929 3.9309 0
M  V30 14299 H 1369.44 2.17804 3.54308 0
M  V30 14300 H 1368.01 0.354392 3.71212 0
M  V30 14301 N 1370.2 -1.34667 0.818693 0
M  V30 14302 C 1371.61 -1.51436 0.503921 0
M  V30 14303 C 1371.81 -1.76468 -0.972691 0
M  V30 14304 O 1370.87 -1.81314 -1.75731 0
M  V30 14305 C 1372.18 -2.68198 1.35978 0
M  V30 14306 C 1373.73 -2.8208 1.35647 0
M  V30 14307 C 1374.21 -4.01881 2.19672 0
M  V30 14308 N 1375.7 -4.0908 2.17273 0
M  V30 14309 C 1376.43 -5.00925 2.79038 0
M  V30 14310 N 1375.93 -5.9802 3.49777 0
M  V30 14311 N 1377.72 -4.93764 2.68615 0
M  V30 14312 H 1369.87 -1.16677 1.77483 0
M  V30 14313 H 1372.14 -0.571873 0.756085 0
M  V30 14314 H 1371.84 -2.56317 2.4082 0
M  V30 14315 H 1371.72 -3.63105 1.0215 0
M  V30 14316 H 1374.1 -2.93405 0.315849 0
M  V30 14317 H 1374.18 -1.87994 1.7347 0
M  V30 14318 H 1373.83 -3.91316 3.23781 0
M  V30 14319 H 1373.76 -4.95171 1.79202 0
M  V30 14320 H 1376.25 -3.3958 1.65814 0
M  V30 14321 H 1376.56 -6.64722 3.94162 0
M  V30 14322 H 1374.91 -5.98157 3.53883 0
M  V30 14323 H 1378.1 -4.16868 2.12929 0
M  V30 14324 H 1378.27 -5.65147 3.17038 0
M  V30 14325 N 1371.68 -0.573274 -1.46804 0
M  V30 14326 C 1372.64 0.155066 -2.28675 0
M  V30 14327 C 1373.64 0.827706 -1.37861 0
M  V30 14328 O 1374.83 0.681105 -1.60333 0
M  V30 14329 C 1371.96 1.22864 -3.1799 0
M  V30 14330 H 1373.15 -0.564305 -2.94543 0
M  V30 14331 H 1370.71 -0.330855 -1.52758 0
M  V30 14332 H 1371.44 1.97989 -2.56848 0
M  V30 14333 H 1371.23 0.750936 -3.84842 0
M  V30 14334 H 1372.72 1.73974 -3.79635 0
M  V30 14335 N 1373.15 1.5451 -0.310553 0
M  V30 14336 C 1374.06 2.27557 0.570518 0
M  V30 14337 C 1375.08 1.31426 1.14032 0
M  V30 14338 O 1376.26 1.64423 1.16306 0
M  V30 14339 C 1373.32 3.00933 1.72163 0
M  V30 14340 C 1372.38 4.12623 1.18495 0
M  V30 14341 C 1371.62 4.8249 2.28121 0
M  V30 14342 O 1371.84 4.5178 3.48211 0
M  V30 14343 O 1370.77 5.69686 1.94273 0
M  V30 14344 H 1374.6 3.03692 -0.0223195 0
M  V30 14345 H 1372.18 1.49203 -0.0766821 0
M  V30 14346 H 1374.07 3.46925 2.39208 0
M  V30 14347 H 1372.74 2.27685 2.3009 0
M  V30 14348 H 1371.65 3.71008 0.479956 0
M  V30 14349 H 1372.98 4.87876 0.650994 0
M  V30 14350 N 1374.63 0.0384594 1.57553 0
M  V30 14351 C 1375.6 -0.925358 2.0969 0
M  V30 14352 C 1376.6 -1.24811 1.01385 0
M  V30 14353 O 1377.79 -1.1869 1.27508 0
M  V30 14354 C 1374.92 -2.2391 2.57055 0
M  V30 14355 H 1376.11 -0.473633 2.96136 0
M  V30 14356 H 1373.66 -0.209736 1.54886 0
M  V30 14357 H 1374.4 -2.73691 1.73964 0
M  V30 14358 H 1374.18 -2.01793 3.36188 0
M  V30 14359 H 1375.67 -2.92974 2.97583 0
M  V30 14360 N 1376.11 -1.55841 -0.234795 0
M  V30 14361 C 1377.02 -1.94476 -1.31211 0
M  V30 14362 C 1378.04 -0.846782 -1.52005 0
M  V30 14363 O 1379.21 -1.14922 -1.65393 0
M  V30 14364 C 1376.28 -2.24213 -2.64442 0
M  V30 14365 C 1375.34 -3.47508 -2.52065 0
M  V30 14366 C 1374.57 -3.75817 -3.78942 0
M  V30 14367 O 1374.8 -3.06007 -4.81369 0
M  V30 14368 O 1373.73 -4.69328 -3.76848 0
M  V30 14369 H 1377.56 -2.8626 -1.01434 0
M  V30 14370 H 1375.14 -1.42879 -0.436563 0
M  V30 14371 H 1377.02 -2.44594 -3.4315 0
M  V30 14372 H 1375.7 -1.35605 -2.93927 0
M  V30 14373 H 1374.6 -3.32421 -1.71602 0
M  V30 14374 H 1375.94 -4.36457 -2.27523 0
M  V30 14375 N 1377.59 0.500963 -1.49426 0
M  V30 14376 C 1378.55 1.58478 -1.65582 0
M  V30 14377 C 1379.55 1.51897 -0.52762 0
M  V30 14378 O 1380.74 1.55049 -0.794071 0
M  V30 14379 C 1377.87 2.9813 -1.65322 0
M  V30 14380 H 1379.07 1.45483 -2.6225 0
M  V30 14381 H 1376.62 0.725199 -1.38458 0
M  V30 14382 H 1377.36 3.16602 -0.702384 0
M  V30 14383 H 1377.14 3.04315 -2.47255 0
M  V30 14384 H 1378.63 3.76874 -1.79878 0
M  V30 14385 N 1379.07 1.38501 0.752011 0
M  V30 14386 C 1380 1.31746 1.87551 0
M  V30 14387 C 1381.01 0.229386 1.61176 0
M  V30 14388 O 1382.2 0.487066 1.71726 0
M  V30 14389 C 1379.3 1.01889 3.23221 0
M  V30 14390 C 1378.47 2.21637 3.77088 0
M  V30 14391 C 1377.53 1.885 4.91278 0
M  V30 14392 O 1376.56 2.61011 5.05828 0
M  V30 14393 N 1377.76 0.840909 5.74377 0
M  V30 14394 H 1380.53 2.28561 1.93856 0
M  V30 14395 H 1378.09 1.32383 0.932013 0
M  V30 14396 H 1380.08 0.777704 3.97157 0
M  V30 14397 H 1378.65 0.138658 3.12292 0
M  V30 14398 H 1377.87 2.61812 2.947 0
M  V30 14399 H 1379.16 3.01551 4.0981 0
M  V30 14400 H 1378.56 0.23962 5.65192 0
M  V30 14401 H 1377.11 0.659604 6.48454 0
M  V30 14402 N 1380.55 -0.980364 1.23396 0
M  V30 14403 C 1381.51 -2.05433 1.01635 0
M  V30 14404 C 1382.51 -1.60785 -0.0218244 0
M  V30 14405 O 1383.7 -1.72832 0.217922 0
M  V30 14406 C 1380.83 -3.36631 0.537822 0
M  V30 14407 H 1382.02 -2.26172 1.96943 0
M  V30 14408 H 1379.58 -1.15378 1.05441 0
M  V30 14409 H 1380.31 -3.21581 -0.41903 0
M  V30 14410 H 1380.1 -3.70377 1.28698 0
M  V30 14411 H 1381.59 -4.1562 0.406213 0
M  V30 14412 N 1382.02 -1.04567 -1.17913 0
M  V30 14413 C 1382.93 -0.651674 -2.25367 0
M  V30 14414 C 1383.95 0.32437 -1.7095 0
M  V30 14415 O 1385.13 0.178039 -2.00612 0
M  V30 14416 C 1382.19 -0.0259452 -3.4669 0
M  V30 14417 C 1381.25 -1.05163 -4.1622 0
M  V30 14418 C 1380.48 -0.45567 -5.31751 0
M  V30 14419 O 1380.71 0.736698 -5.65623 0
M  V30 14420 O 1379.64 -1.18684 -5.90083 0
M  V30 14421 H 1383.47 -1.54704 -2.61344 0
M  V30 14422 H 1381.05 -0.816852 -1.25092 0
M  V30 14423 H 1382.93 0.322126 -4.20167 0
M  V30 14424 H 1381.61 0.843165 -3.12526 0
M  V30 14425 H 1380.52 -1.45159 -3.44789 0
M  V30 14426 H 1381.85 -1.89168 -4.54397 0
M  V30 14427 N 1383.5 1.34231 -0.825823 0
M  V30 14428 C 1384.41 2.33245 -0.251803 0
M  V30 14429 C 1385.43 1.62756 0.615334 0
M  V30 14430 O 1386.6 1.94503 0.522547 0
M  V30 14431 C 1383.67 3.41908 0.574456 0
M  V30 14432 C 1382.73 4.2814 -0.315422 0
M  V30 14433 C 1381.96 5.31613 0.471496 0
M  V30 14434 O 1382.19 5.44337 1.70449 0
M  V30 14435 O 1381.12 6.01719 -0.147691 0
M  V30 14436 H 1384.95 2.84174 -1.07139 0
M  V30 14437 H 1382.53 1.37341 -0.588032 0
M  V30 14438 H 1384.41 4.08252 1.04444 0
M  V30 14439 H 1383.09 2.93217 1.37132 0
M  V30 14440 H 1381.99 3.64709 -0.832963 0
M  V30 14441 H 1383.33 4.80279 -1.07672 0
M  V30 14442 N 1384.98 0.581051 1.46498 0
M  V30 14443 C 1385.91 -0.140957 2.33074 0
M  V30 14444 C 1386.89 -0.885323 1.45245 0
M  V30 14445 O 1388.08 -0.86111 1.74065 0
M  V30 14446 C 1385.21 -1.15625 3.27488 0
M  V30 14447 C 1384.16 -0.526829 4.24745 0
M  V30 14448 C 1383.49 -1.64847 5.08655 0
M  V30 14449 C 1384.79 0.53492 5.19554 0
M  V30 14450 H 1386.48 0.581888 2.93691 0
M  V30 14451 H 1384.03 0.281278 1.41226 0
M  V30 14452 H 1385.98 -1.6697 3.8691 0
M  V30 14453 H 1384.7 -1.90935 2.64974 0
M  V30 14454 H 1383.36 -0.0344738 3.66584 0
M  V30 14455 H 1383.01 -2.3912 4.42528 0
M  V30 14456 H 1382.71 -1.23298 5.74518 0
M  V30 14457 H 1384.23 -2.16472 5.7094 0
M  V30 14458 H 1385.65 0.106606 5.73201 0
M  V30 14459 H 1384.04 0.870639 5.93751 0
M  V30 14460 H 1385.11 1.42184 4.63586 0
M  V30 14461 N 1386.46 -1.54343 0.318742 0
M  V30 14462 C 1387.68 -2.05361 -0.290126 0
M  V30 14463 C 1388.11 -1.19362 -1.45376 0
M  V30 14464 O 1387.47 -0.201639 -1.80175 0
M  V30 14465 C 1387.51 -3.53601 -0.707025 0
M  V30 14466 O 1386.62 -3.70561 -1.80992 0
M  V30 14467 H 1385.96 -0.661858 -0.0532933 0
M  V30 14468 H 1388.49 -1.99228 0.46575 0
M  V30 14469 H 1388.5 -3.95782 -0.991005 0
M  V30 14470 H 1387.17 -4.1565 0.144091 0
M  V30 14471 H 1385.75 -3.40286 -1.52513 0
M  V30 14472 N 1387.94 -0.0468143 -1.5753 0
M  V30 14473 C 1389.18 0.627939 -1.92518 0
M  V30 14474 C 1389.51 1.71107 -0.924801 0
M  V30 14475 O 1388.77 1.95597 0.0635812 0
M  V30 14476 C 1389.06 1.26669 -3.342 0
M  V30 14477 C 1388.73 0.312184 -4.49818 0
M  V30 14478 C 1387.39 0.0495202 -4.81175 0
M  V30 14479 C 1389.74 -0.342228 -5.20075 0
M  V30 14480 C 1387.07 -0.875064 -5.80137 0
M  V30 14481 C 1389.42 -1.25498 -6.20027 0
M  V30 14482 C 1388.09 -1.52636 -6.49814 0
M  V30 14483 H 1387.36 0.229779 -0.704473 0
M  V30 14484 H 1390.01 -0.112363 -1.9117 0
M  V30 14485 H 1388.31 2.08215 -3.31894 0
M  V30 14486 H 1390.01 1.79563 -3.5855 0
M  V30 14487 H 1386.6 0.527088 -4.25347 0
M  V30 14488 H 1390.78 -0.152384 -4.96066 0
M  V30 14489 H 1386.04 -1.09284 -6.01554 0
M  V30 14490 H 1390.21 -1.76815 -6.7358 0
M  V30 14491 H 1387.84 -2.24443 -7.26312 0
M  V30 14492 N 1389.41 1.55964 0.226527 0
M  V30 14493 C 1390.83 1.68978 0.793936 0
M  V30 14494 C 1391.18 0.647938 1.85192 0
M  V30 14495 O 1390.3 -0.201907 2.15456 0
M  V30 14496 C 1390.9 3.06351 1.44687 0
M  V30 14497 C 1389.46 3.21237 1.96173 0
M  V30 14498 C 1388.6 2.64896 0.8201 0
M  V30 14499 H 1391.55 1.587 0.00195967 0
M  V30 14500 H 1391.57 3.01932 2.31554 0
M  V30 14501 H 1391.09 3.82156 0.676611 0
M  V30 14502 H 1389.19 2.50292 2.76016 0
M  V30 14503 H 1389.3 4.28394 2.14512 0
M  V30 14504 H 1387.66 2.23247 1.22609 0
M  V30 14505 H 1388.45 3.43243 0.0625967 0
M  V30 14506 N 1390.89 -0.493031 1.4969 0
M  V30 14507 C 1392.31 -0.824908 1.36629 0
M  V30 14508 C 1392.51 -1.97378 0.405487 0
M  V30 14509 O 1391.56 -2.51993 -0.159933 0
M  V30 14510 C 1392.88 -1.15761 2.77524 0
M  V30 14511 C 1394.43 -1.26536 2.86282 0
M  V30 14512 C 1394.9 -1.63131 4.27963 0
M  V30 14513 N 1396.39 -1.70165 4.30811 0
M  V30 14514 C 1397.13 -1.99942 5.37411 0
M  V30 14515 N 1396.62 -2.27888 6.54247 0
M  V30 14516 N 1398.42 -2.0126 5.24834 0
M  V30 14517 H 1390.57 0.264433 2.10748 0
M  V30 14518 H 1392.83 0.0557306 0.94636 0
M  V30 14519 H 1392.54 -0.386714 3.49567 0
M  V30 14520 H 1392.41 -2.09915 3.13393 0
M  V30 14521 H 1394.8 -2.02696 2.14472 0
M  V30 14522 H 1394.88 -0.304137 2.53986 0
M  V30 14523 H 1394.52 -0.875184 5.00303 0
M  V30 14524 H 1394.45 -2.60367 4.5773 0
M  V30 14525 H 1396.94 -1.50696 3.46553 0
M  V30 14526 H 1397.26 -2.4982 7.31307 0
M  V30 14527 H 1395.6 -2.25327 6.57459 0
M  V30 14528 H 1398.79 -1.78909 4.32561 0
M  V30 14529 H 1398.96 -2.24131 6.08004 0
M  V30 14530 N 1392.37 -1.38898 -0.744656 0
M  V30 14531 C 1393.6 -1.3903 -1.53901 0
M  V30 14532 C 1394.02 0.0156607 -1.88093 0
M  V30 14533 O 1393.38 1.00012 -1.51219 0
M  V30 14534 C 1393.43 -2.2609 -2.80919 0
M  V30 14535 O 1392.53 -1.68414 -3.76444 0
M  V30 14536 H 1391.87 -0.473854 -0.465144 0
M  V30 14537 H 1394.4 -1.82773 -0.919525 0
M  V30 14538 H 1394.41 -2.40264 -3.29754 0
M  V30 14539 H 1393.09 -3.28271 -2.55364 0
M  V30 14540 H 1391.66 -1.63431 -3.35179 0
M  V30 14541 N 1393.85 0.973806 -1.23914 0
M  V30 14542 C 1395.09 1.71852 -1.07678 0
M  V30 14543 C 1395.43 1.90357 0.384425 0
M  V30 14544 O 1394.7 1.46063 1.28436 0
M  V30 14545 C 1394.99 3.1129 -1.81026 0
M  V30 14546 C 1394.84 3.00315 -3.3486 0
M  V30 14547 C 1396.16 4.10835 -1.57805 0
M  V30 14548 H 1393.28 0.623749 -0.392564 0
M  V30 14549 H 1395.92 1.13325 -1.52504 0
M  V30 14550 H 1394.07 3.61255 -1.42922 0
M  V30 14551 H 1395.74 2.57823 -3.82524 0
M  V30 14552 H 1393.98 2.36667 -3.63553 0
M  V30 14553 H 1394.65 3.9907 -3.81376 0
M  V30 14554 H 1397.13 3.69705 -1.90939 0
M  V30 14555 H 1396.01 5.06478 -2.11591 0
M  V30 14556 H 1396.27 4.39091 -0.514894 0
M  V30 14557 N 1395.33 1.05191 1.17357 0
M  V30 14558 C 1396.57 0.763113 1.87895 0
M  V30 14559 C 1396.91 -0.708071 1.80831 0
M  V30 14560 O 1396.18 -1.51777 1.21631 0
M  V30 14561 C 1396.46 1.2442 3.37923 0
M  V30 14562 C 1396.32 2.77832 3.53737 0
M  V30 14563 C 1397.64 0.843209 4.31947 0
M  V30 14564 H 1394.75 0.27869 0.682276 0
M  V30 14565 H 1397.4 1.3059 1.38008 0
M  V30 14566 H 1395.55 0.782438 3.80539 0
M  V30 14567 H 1397.22 3.32131 3.20135 0
M  V30 14568 H 1395.46 3.17108 2.96015 0
M  V30 14569 H 1396.13 3.06555 4.59052 0
M  V30 14570 H 1398.61 1.24073 3.97171 0
M  V30 14571 H 1397.48 1.20743 5.35455 0
M  V30 14572 H 1397.75 -0.252802 4.41377 0
M  V30 14573 N 1396.8 -1.33791 0.83293 0
M  V30 14574 C 1397.71 -2.33108 0.264169 0
M  V30 14575 C 1398.73 -1.6308 -0.606694 0
M  V30 14576 O 1399.91 -1.94777 -0.512225 0
M  V30 14577 C 1396.97 -3.42208 -0.556315 0
M  V30 14578 C 1396.03 -4.27966 0.338123 0
M  V30 14579 C 1395.27 -5.31856 -0.443297 0
M  V30 14580 O 1395.49 -5.45234 -1.6756 0
M  V30 14581 O 1394.42 -6.01632 0.179599 0
M  V30 14582 H 1398.25 -2.83602 1.08645 0
M  V30 14583 H 1395.83 -1.37027 0.595307 0
M  V30 14584 H 1397.72 -4.088 -1.02277 0
M  V30 14585 H 1396.39 -2.9394 -1.35575 0
M  V30 14586 H 1395.3 -3.64262 0.852293 0
M  V30 14587 H 1396.63 -4.79701 1.10217 0
M  V30 14588 N 1398.28 -0.588812 -1.46187 0
M  V30 14589 C 1399.53 -0.076728 -2.02355 0
M  V30 14590 C 1399.86 1.28557 -1.45956 0
M  V30 14591 O 1399.11 1.85722 -0.616899 0
M  V30 14592 C 1399.41 0.0325249 -3.57385 0
M  V30 14593 C 1399.08 -1.26298 -4.32851 0
M  V30 14594 C 1397.74 -1.61789 -4.53186 0
M  V30 14595 C 1400.09 -2.12001 -4.76136 0
M  V30 14596 C 1397.42 -2.82771 -5.1406 0
M  V30 14597 C 1399.77 -3.32214 -5.38346 0
M  V30 14598 C 1398.44 -3.6798 -5.56908 0
M  V30 14599 H 1397.71 -0.0280768 -0.740468 0
M  V30 14600 H 1400.35 -0.766671 -1.75483 0
M  V30 14601 H 1398.66 0.805632 -3.83428 0
M  V30 14602 H 1400.35 0.444597 -3.98528 0
M  V30 14603 H 1396.94 -0.976692 -4.17323 0
M  V30 14604 H 1401.13 -1.85884 -4.60175 0
M  V30 14605 H 1396.38 -3.10611 -5.26622 0
M  V30 14606 H 1400.56 -3.98888 -5.70843 0
M  V30 14607 H 1398.19 -4.61815 -6.03846 0
M  V30 14608 N 1399.76 1.54172 -0.326923 0
M  V30 14609 C 1400.69 2.27402 0.530154 0
M  V30 14610 C 1401.67 1.28325 1.11655 0
M  V30 14611 O 1402.86 1.57142 1.14105 0
M  V30 14612 C 1399.99 3.03435 1.68951 0
M  V30 14613 C 1398.94 4.09877 1.23226 0
M  V30 14614 C 1398.27 4.7377 2.47882 0
M  V30 14615 C 1399.57 5.21161 0.344698 0
M  V30 14616 H 1401.26 2.99291 -0.0806959 0
M  V30 14617 H 1398.81 1.43944 -0.0402511 0
M  V30 14618 H 1400.76 3.53396 2.29541 0
M  V30 14619 H 1399.48 2.29169 2.327 0
M  V30 14620 H 1398.14 3.60805 0.649267 0
M  V30 14621 H 1397.79 3.96116 3.10002 0
M  V30 14622 H 1397.49 5.45674 2.17977 0
M  V30 14623 H 1399.01 5.26507 3.09229 0
M  V30 14624 H 1400.43 5.66859 0.856979 0
M  V30 14625 H 1398.83 5.99941 0.138276 0
M  V30 14626 H 1399.9 4.80874 -0.623575 0
M  V30 14627 N 1401.24 0.0551678 1.57503 0
M  V30 14628 C 1402.17 -0.947102 2.08717 0
M  V30 14629 C 1403.18 -1.2722 1.01582 0
M  V30 14630 O 1404.37 -1.23229 1.29139 0
M  V30 14631 C 1401.47 -2.26756 2.51863 0
M  V30 14632 C 1400.65 -2.12378 3.8238 0
M  V30 14633 C 1399.7 -3.27582 4.11797 0
M  V30 14634 O 1398.73 -3.03309 4.81656 0
M  V30 14635 N 1399.93 -4.5218 3.64024 0
M  V30 14636 H 1402.7 -0.509957 2.9533 0
M  V30 14637 H 1400.26 -0.130976 1.61369 0
M  V30 14638 H 1402.25 -3.02701 2.68616 0
M  V30 14639 H 1400.82 -2.62024 1.70477 0
M  V30 14640 H 1400.04 -1.21 3.7517 0
M  V30 14641 H 1401.33 -2.00003 4.67842 0
M  V30 14642 H 1400.73 -4.7479 3.07556 0
M  V30 14643 H 1399.28 -5.25206 3.86008 0
M  V30 14644 N 1402.72 -1.56081 -0.218252 0
M  V30 14645 C 1403.96 -1.78893 -0.940296 0
M  V30 14646 C 1404.29 -0.62425 -1.84738 0
M  V30 14647 O 1403.56 0.358686 -1.92588 0
M  V30 14648 H 1402.14 -0.659828 -0.350193 0
M  V30 14649 H 1404.8 -1.93546 -0.229316 0
M  V30 14650 H 1403.89 -2.71167 -1.54516 0
M  V30 14651 N 1404.2 0.485086 -1.49949 0
M  V30 14652 C 1405.43 1.25996 -1.63733 0
M  V30 14653 C 1405.83 1.8657 -0.31435 0
M  V30 14654 O 1405.18 1.69336 0.71211 0
M  V30 14655 C 1405.24 2.41842 -2.65994 0
M  V30 14656 C 1404.9 2.02014 -4.09926 0
M  V30 14657 C 1405.9 1.55068 -4.96236 0
M  V30 14658 C 1403.58 2.11162 -4.55759 0
M  V30 14659 C 1405.58 1.17796 -6.26421 0
M  V30 14660 C 1403.27 1.73501 -5.85953 0
M  V30 14661 C 1404.26 1.26894 -6.71109 0
M  V30 14662 O 1403.95 0.89749 -7.98874 0
M  V30 14663 H 1403.68 0.387743 -0.553743 0
M  V30 14664 H 1406.24 0.5871 -1.96831 0
M  V30 14665 H 1404.47 3.12254 -2.2811 0
M  V30 14666 H 1406.16 3.03837 -2.69143 0
M  V30 14667 H 1406.92 1.47434 -4.62048 0
M  V30 14668 H 1402.8 2.46389 -3.89633 0
M  V30 14669 H 1406.35 0.813467 -6.92841 0
M  V30 14670 H 1402.24 1.8079 -6.19665 0
M  V30 14671 H 1403.01 1.02757 -8.12024 0
M  V30 14672 N 1405.67 1.39291 0.737279 0
M  V30 14673 C 1406.92 1.35702 1.49224 0
M  V30 14674 C 1407.24 -0.0450282 1.95548 0
M  V30 14675 O 1408.44 -0.203495 2.70736 0
M  V30 14676 C 1406.9 2.38387 2.69629 0
M  V30 14677 C 1406.51 3.84295 2.30263 0
M  V30 14678 C 1408.25 2.4387 3.47459 0
M  V30 14679 C 1406.16 4.78626 3.47377 0
M  V30 14680 H 1405.09 0.50449 0.560362 0
M  V30 14681 H 1407.74 1.64926 0.804466 0
M  V30 14682 H 1406.12 2.0223 3.40469 0
M  V30 14683 H 1407.29 4.2948 1.66984 0
M  V30 14684 H 1405.61 3.82085 1.6553 0
M  V30 14685 H 1408.21 3.11539 4.34566 0
M  V30 14686 H 1408.55 1.46253 3.89764 0
M  V30 14687 H 1409.08 2.78908 2.83646 0
M  V30 14688 H 1405.82 5.77497 3.10124 0
M  V30 14689 H 1405.34 4.38123 4.09645 0
M  V30 14690 H 1407.02 4.9742 4.13742 0
M  V30 14691 N 1407.15 -0.967221 1.24429 0
M  V30 14692 C 1408.4 -1.70688 1.08213 0
M  V30 14693 C 1408.72 -1.91268 -0.379693 0
M  V30 14694 O 1407.99 -1.49077 -1.27094 0
M  V30 14695 H 1406.57 -0.632489 0.39745 0
M  V30 14696 H 1409.23 -1.16356 1.56356 0
M  V30 14697 H 1408.33 -2.69119 1.58055 0
M  V30 14698 N 1408.63 -1.05812 -1.16797 0
M  V30 14699 C 1409.88 -0.773066 -1.87487 0
M  V30 14700 C 1410.21 0.698471 -1.81204 0
M  V30 14701 O 1409.48 1.51129 -1.22434 0
M  V30 14702 C 1409.77 -1.2621 -3.37258 0
M  V30 14703 C 1409.62 -2.79704 -3.52258 0
M  V30 14704 C 1410.94 -0.866104 -4.31494 0
M  V30 14705 H 1408.06 -0.282304 -0.680789 0
M  V30 14706 H 1410.7 -1.3132 -1.37314 0
M  V30 14707 H 1408.85 -0.802608 -3.80119 0
M  V30 14708 H 1410.52 -3.33824 -3.1837 0
M  V30 14709 H 1408.76 -3.18673 -2.94329 0
M  V30 14710 H 1409.44 -3.08985 -4.57419 0
M  V30 14711 H 1411.91 -1.26178 -3.96508 0
M  V30 14712 H 1410.79 -1.23581 -5.34807 0
M  V30 14713 H 1411.05 0.229391 -4.41504 0
M  V30 14714 N 1410.11 1.33347 -0.840014 0
M  V30 14715 C 1411.52 1.80077 -0.492851 0
M  V30 14716 C 1411.87 1.69495 0.988221 0
M  V30 14717 O 1410.99 1.2449 1.77006 0
M  V30 14718 C 1411.59 3.2696 -0.887827 0
M  V30 14719 C 1410.15 3.71703 -0.592785 0
M  V30 14720 C 1409.3 2.54742 -1.09554 0
M  V30 14721 H 1412.25 1.20853 -1.02861 0
M  V30 14722 H 1412.27 3.79983 -0.198327 0
M  V30 14723 H 1411.78 3.3463 -1.96581 0
M  V30 14724 H 1409.88 3.69559 0.475086 0
M  V30 14725 H 1409.99 4.65123 -1.14882 0
M  V30 14726 H 1408.36 2.49411 -0.516357 0
M  V30 14727 H 1409.14 2.65173 -2.18032 0
M  V30 14728 N 1411.59 0.596556 1.45873 0
M  V30 14729 C 1412.54 -0.14991 2.27507 0
M  V30 14730 C 1413.52 -0.848942 1.36681 0
M  V30 14731 O 1414.71 -0.740752 1.60754 0
M  V30 14732 C 1411.84 -1.15391 3.23326 0
M  V30 14733 C 1410.93 -0.456283 4.21638 0
M  V30 14734 N 1411.32 0.495911 5.03363 0
M  V30 14735 C 1409.62 -0.705263 4.40389 0
M  V30 14736 C 1410.32 0.904941 5.74618 0
M  V30 14737 N 1409.29 0.251069 5.4302 0
M  V30 14738 H 1413.09 0.581593 2.88088 0
M  V30 14739 H 1410.61 0.419386 1.56891 0
M  V30 14740 H 1412.61 -1.70299 3.80531 0
M  V30 14741 H 1411.27 -1.88609 2.64305 0
M  V30 14742 H 1412.28 0.872126 5.10504 0
M  V30 14743 H 1408.95 -1.42296 3.92502 0
M  V30 14744 H 1410.34 1.68965 6.50308 0
M  V30 14745 N 1413.06 -1.53996 0.335095 0
M  V30 14746 C 1414.31 -2.00375 -0.263475 0
M  V30 14747 C 1414.63 -1.22471 -1.51742 0
M  V30 14748 O 1413.9 -0.329604 -1.93107 0
M  V30 14749 H 1412.48 -0.740229 -0.100347 0
M  V30 14750 H 1415.14 -1.89531 0.454302 0
M  V30 14751 H 1414.24 -3.07874 -0.511834 0
M  V30 14752 N 1414.54 -0.0635198 -1.57472 0
M  V30 14753 C 1415.79 0.606285 -1.92792 0
M  V30 14754 C 1416.11 1.70648 -0.943615 0
M  V30 14755 O 1415.38 1.95898 0.00957612 0
M  V30 14756 H 1413.96 0.226943 -0.711692 0
M  V30 14757 H 1416.62 -0.119429 -1.94534 0
M  V30 14758 H 1415.72 1.03694 -2.9437 0
M  V30 14759 N 1416.02 1.56195 0.209972 0
M  V30 14760 C 1417.27 1.79745 0.932638 0
M  V30 14761 C 1417.59 0.634252 1.83868 0
M  V30 14762 O 1416.85 -0.380798 1.91959 0
M  V30 14763 C 1417.15 3.09154 1.79328 0
M  V30 14764 C 1416.81 4.38754 1.03949 0
M  V30 14765 C 1415.48 4.73965 0.831308 0
M  V30 14766 C 1417.83 5.18718 0.508031 0
M  V30 14767 C 1415.16 5.86646 0.0799547 0
M  V30 14768 C 1417.51 6.32182 -0.230037 0
M  V30 14769 C 1416.17 6.65986 -0.449366 0
M  V30 14770 H 1415.44 0.657732 0.341276 0
M  V30 14771 H 1418.09 1.90453 0.199998 0
M  V30 14772 H 1416.39 2.93618 2.59414 0
M  V30 14773 H 1418.09 3.24578 2.35478 0
M  V30 14774 H 1414.68 4.11114 1.21174 0
M  V30 14775 H 1418.87 4.91941 0.656306 0
M  V30 14776 H 1414.12 6.11318 -0.100092 0
M  V30 14777 H 1418.3 6.93367 -0.649296 0
M  V30 14778 H 1415.92 7.53142 -1.03349 0
M  V30 14779 N 1417.5 -0.477127 1.50204 0
M  V30 14780 C 1418.91 -1.05815 1.53819 0
M  V30 14781 C 1419.26 -1.93264 0.338169 0
M  V30 14782 O 1418.38 -2.09305 -0.549576 0
M  V30 14783 C 1418.98 -1.92577 2.78746 0
M  V30 14784 C 1417.54 -2.45799 2.85061 0
M  V30 14785 C 1416.69 -1.23994 2.48034 0
M  V30 14786 H 1419.64 -0.259998 1.56556 0
M  V30 14787 H 1419.66 -2.7757 2.6026 0
M  V30 14788 H 1419.17 -1.28904 3.66068 0
M  V30 14789 H 1417.27 -3.13042 2.02077 0
M  V30 14790 H 1417.38 -2.81318 3.8781 0
M  V30 14791 H 1415.75 -1.5728 2.00338 0
M  V30 14792 H 1416.53 -0.619917 3.37657 0
M  V30 14793 N 1418.98 -1.3968 -0.729882 0
M  V30 14794 C 1419.89 -1.41094 -1.87429 0
M  V30 14795 C 1420.9 -0.305142 -1.71303 0
M  V30 14796 O 1422.08 -0.54744 -1.93817 0
M  V30 14797 C 1419.14 -1.25786 -3.23077 0
M  V30 14798 C 1418.2 -2.46382 -3.5156 0
M  V30 14799 C 1417.44 -2.31795 -4.80735 0
M  V30 14800 O 1417.66 -1.32415 -5.54818 0
M  V30 14801 O 1416.59 -3.20883 -5.09232 0
M  V30 14802 H 1420.42 -2.37571 -1.89192 0
M  V30 14803 H 1418.01 -1.2085 -0.878389 0
M  V30 14804 H 1419.89 -1.19402 -4.0413 0
M  V30 14805 H 1418.56 -0.324065 -3.22074 0
M  V30 14806 H 1417.47 -2.58343 -2.70573 0
M  V30 14807 H 1418.8 -3.38473 -3.57347 0
M  V30 14808 N 1420.45 0.960609 -1.2494 0
M  V30 14809 C 1421.87 1.51915 -1.0853 0
M  V30 14810 C 1422.22 1.93215 0.340949 0
M  V30 14811 O 1421.34 1.78031 1.2302 0
M  V30 14812 C 1421.94 2.76069 -1.96396 0
M  V30 14813 C 1420.5 3.28255 -1.84189 0
M  V30 14814 C 1419.64 2.01124 -1.90905 0
M  V30 14815 H 1422.59 0.778141 -1.38314 0
M  V30 14816 H 1422.61 3.49668 -1.50042 0
M  V30 14817 H 1422.13 2.45979 -3.00193 0
M  V30 14818 H 1420.23 3.6318 -0.832518 0
M  V30 14819 H 1420.34 3.96675 -2.68673 0
M  V30 14820 H 1418.7 2.16155 -1.34718 0
M  V30 14821 H 1419.49 1.73389 -2.96295 0
M  V30 14822 N 1421.93 1.0643 1.16234 0
M  V30 14823 C 1423.18 0.78184 1.86798 0
M  V30 14824 C 1423.51 -0.691734 1.81784 0
M  V30 14825 O 1422.76 -1.52271 1.22931 0
M  V30 14826 C 1423.06 1.22348 3.35806 0
M  V30 14827 C 1422.73 2.7014 3.61019 0
M  V30 14828 C 1421.39 3.1051 3.6761 0
M  V30 14829 C 1423.74 3.65582 3.71482 0
M  V30 14830 C 1421.07 4.45159 3.82165 0
M  V30 14831 C 1423.42 4.99981 3.87559 0
M  V30 14832 C 1422.09 5.39986 3.92392 0
M  V30 14833 H 1421.36 0.286096 0.683542 0
M  V30 14834 H 1424 1.33364 1.37427 0
M  V30 14835 H 1422.31 0.590896 3.87319 0
M  V30 14836 H 1424 0.981959 3.88791 0
M  V30 14837 H 1420.59 2.37884 3.56524 0
M  V30 14838 H 1424.78 3.35525 3.657 0
M  V30 14839 H 1420.03 4.75637 3.8416 0
M  V30 14840 H 1424.21 5.73817 3.94597 0
M  V30 14841 H 1421.84 6.44324 4.03423 0
M  V30 14842 N 1423.41 -1.329 0.847073 0
M  V30 14843 C 1424.83 -1.50333 0.53593 0
M  V30 14844 C 1425.03 -1.78492 -0.93504 0
M  V30 14845 O 1424.08 -1.85001 -1.71846 0
M  V30 14846 C 1425.4 -2.65254 1.41636 0
M  V30 14847 C 1426.94 -2.79139 1.416 0
M  V30 14848 C 1427.42 -3.97131 2.28147 0
M  V30 14849 N 1428.91 -4.0438 2.25901 0
M  V30 14850 C 1429.64 -4.94893 2.89601 0
M  V30 14851 N 1429.14 -5.90466 3.62383 0
M  V30 14852 N 1430.93 -4.87955 2.79028 0
M  V30 14853 H 1423.08 -1.12886 1.79918 0
M  V30 14854 H 1425.35 -0.555707 0.768045 0
M  V30 14855 H 1425.05 -2.51151 2.46203 0
M  V30 14856 H 1424.93 -3.60856 1.09829 0
M  V30 14857 H 1427.31 -2.92669 0.378013 0
M  V30 14858 H 1427.4 -1.84273 1.77418 0
M  V30 14859 H 1427.04 -3.8436 3.32009 0
M  V30 14860 H 1426.97 -4.91258 1.89665 0
M  V30 14861 H 1429.46 -3.35986 1.72979 0
M  V30 14862 H 1429.77 -6.56212 4.08174 0
M  V30 14863 H 1428.12 -5.90516 3.66491 0
M  V30 14864 H 1431.31 -4.12258 2.21723 0
M  V30 14865 H 1431.48 -5.58295 3.28954 0
M  V30 14866 N 1424.89 -0.604284 -1.45555 0
M  V30 14867 C 1426.11 -0.102634 -2.07146 0
M  V30 14868 C 1426.54 1.20239 -1.44652 0
M  V30 14869 O 1425.9 1.73133 -0.538033 0
M  V30 14870 C 1425.94 0.0270231 -3.6059 0
M  V30 14871 O 1425.05 1.0781 -3.98059 0
M  V30 14872 H 1424.39 -0.0725667 -0.660023 0
M  V30 14873 H 1426.92 -0.833355 -1.86859 0
M  V30 14874 H 1426.93 0.226299 -4.07372 0
M  V30 14875 H 1425.6 -0.925896 -4.05463 0
M  V30 14876 H 1424.18 0.855552 -3.62953 0
M  V30 14877 N 1426.37 1.53816 -0.343257 0
M  V30 14878 C 1427.31 2.25011 0.513664 0
M  V30 14879 C 1428.28 1.24827 1.09578 0
M  V30 14880 O 1429.47 1.53558 1.13245 0
M  V30 14881 C 1426.61 3.02616 1.65885 0
M  V30 14882 C 1425.72 4.17653 1.10406 0
M  V30 14883 C 1424.86 4.82746 2.21653 0
M  V30 14884 C 1423.9 5.89853 1.63524 0
M  V30 14885 N 1423.03 6.48726 2.68512 0
M  V30 14886 H 1427.87 2.97832 -0.099997 0
M  V30 14887 H 1425.41 1.46973 -0.0611206 0
M  V30 14888 H 1427.37 3.45868 2.33304 0
M  V30 14889 H 1426 2.32092 2.2435 0
M  V30 14890 H 1425.05 3.79045 0.320819 0
M  V30 14891 H 1426.36 4.94691 0.638887 0
M  V30 14892 H 1425.52 5.29068 2.96938 0
M  V30 14893 H 1424.25 4.05131 2.71515 0
M  V30 14894 H 1423.26 5.42914 0.86745 0
M  V30 14895 H 1424.48 6.69375 1.14515 0
M  V30 14896 H 1422.43 5.73975 3.17629 0
M  V30 14897 H 1422.35 7.21236 2.26616 0
M  V30 14898 H 1423.62 6.99701 3.43567 0
M  V30 14899 N 1427.84 0.0718701 1.57436 0
M  V30 14900 C 1429.09 -0.598116 1.93779 0
M  V30 14901 C 1429.42 -1.69258 0.952131 0
M  V30 14902 O 1428.7 -1.94491 -0.0186426 0
M  V30 14903 C 1428.98 -1.17499 3.40391 0
M  V30 14904 C 1428.83 -0.0871719 4.49716 0
M  V30 14905 C 1430.15 -2.08047 3.8782 0
M  V30 14906 H 1427.27 -0.215954 0.704651 0
M  V30 14907 H 1429.91 0.137854 1.89499 0
M  V30 14908 H 1428.06 -1.80221 3.44169 0
M  V30 14909 H 1429.74 0.545906 4.58058 0
M  V30 14910 H 1427.98 0.582213 4.29875 0
M  V30 14911 H 1428.65 -0.531202 5.49438 0
M  V30 14912 H 1431.13 -1.5526 3.86049 0
M  V30 14913 H 1430 -2.45345 4.91016 0
M  V30 14914 H 1430.26 -2.98879 3.25766 0
M  V30 14915 N 1429.32 -1.56304 -0.201686 0
M  V30 14916 C 1430.25 -1.97046 -1.25281 0
M  V30 14917 C 1431.23 -0.841458 -1.47829 0
M  V30 14918 O 1432.42 -1.10529 -1.59678 0
M  V30 14919 C 1429.55 -2.30429 -2.59845 0
M  V30 14920 C 1428.5 -3.46006 -2.5192 0
M  V30 14921 C 1427.83 -3.65047 -3.90697 0
M  V30 14922 C 1429.13 -4.80391 -2.04992 0
M  V30 14923 H 1430.82 -2.85099 -0.914272 0
M  V30 14924 H 1428.37 -1.37166 -0.438359 0
M  V30 14925 H 1430.32 -2.57525 -3.33555 0
M  V30 14926 H 1429.05 -1.39251 -2.95426 0
M  V30 14927 H 1427.7 -3.18991 -1.80667 0
M  V30 14928 H 1427.35 -2.71211 -4.2362 0
M  V30 14929 H 1427.05 -4.42796 -3.86271 0
M  V30 14930 H 1428.58 -3.94512 -4.66039 0
M  V30 14931 H 1429.99 -5.06561 -2.68456 0
M  V30 14932 H 1428.39 -5.61563 -2.11582 0
M  V30 14933 H 1429.46 -4.74416 -1.00288 0
M  V30 14934 N 1430.8 0.469154 -1.50455 0
M  V30 14935 C 1431.75 1.56691 -1.6946 0
M  V30 14936 C 1432.72 1.57217 -0.535921 0
M  V30 14937 O 1433.9 1.74717 -0.766715 0
M  V30 14938 C 1431.04 2.94651 -1.79651 0
M  V30 14939 C 1430.16 3.03899 -3.07033 0
M  V30 14940 C 1429.29 4.32786 -3.08009 0
M  V30 14941 C 1428.33 4.35784 -4.29836 0
M  V30 14942 N 1427.47 5.56145 -4.28541 0
M  V30 14943 H 1432.31 1.39791 -2.63178 0
M  V30 14944 H 1429.84 0.679628 -1.30459 0
M  V30 14945 H 1431.8 3.74658 -1.83541 0
M  V30 14946 H 1430.43 3.10182 -0.893713 0
M  V30 14947 H 1429.48 2.16754 -3.12605 0
M  V30 14948 H 1430.8 3.01974 -3.97005 0
M  V30 14949 H 1429.95 5.21141 -3.10639 0
M  V30 14950 H 1428.69 4.37323 -2.1587 0
M  V30 14951 H 1427.69 3.45825 -4.27417 0
M  V30 14952 H 1428.92 4.32937 -5.23204 0
M  V30 14953 H 1426.86 5.61464 -3.39256 0
M  V30 14954 H 1426.78 5.55969 -5.12284 0
M  V30 14955 H 1428.05 6.4662 -4.35319 0
M  V30 14956 N 1432.28 1.40065 0.722464 0
M  V30 14957 C 1433.56 1.28473 1.47493 0
M  V30 14958 C 1433.94 -0.100058 2.10863 0
M  V30 14959 O 1433.28 -1.11232 1.99599 0
M  V30 14960 C 1433.49 2.41842 2.51621 0
M  V30 14961 C 1434.84 2.81753 3.17648 0
M  V30 14962 O 1435.87 2.41385 2.61939 0
M  V30 14963 O 1434.72 3.51473 4.18484 0
M  V30 14964 H 1431.82 0.504158 0.655556 0
M  V30 14965 H 1434.36 1.51969 0.755223 0
M  V30 14966 H 1433.14 3.34365 2.03263 0
M  V30 14967 H 1432.76 2.20079 3.31136 0
M  V30 14968 N 1433.76 -0.95397 1.25448 0
M  V30 14969 C 1434.69 -2.06828 1.08372 0
M  V30 14970 C 1435.67 -1.70098 -0.00741585 0
M  V30 14971 O 1436.85 -1.93521 0.16224 0
M  V30 14972 C 1433.98 -3.40124 0.702365 0
M  V30 14973 C 1432.94 -3.90865 1.74381 0
M  V30 14974 C 1432.26 -5.20663 1.21712 0
M  V30 14975 C 1433.56 -4.17169 3.14273 0
M  V30 14976 H 1435.26 -2.21372 2.01581 0
M  V30 14977 H 1432.8 -1.06374 0.970592 0
M  V30 14978 H 1434.76 -4.17529 0.569837 0
M  V30 14979 H 1433.48 -3.2552 -0.265428 0
M  V30 14980 H 1432.14 -3.15628 1.86479 0
M  V30 14981 H 1431.79 -5.02429 0.23954 0
M  V30 14982 H 1431.49 -5.55581 1.91319 0
M  V30 14983 H 1433.01 -6.00665 1.097 0
M  V30 14984 H 1434.43 -4.85231 3.05325 0
M  V30 14985 H 1432.82 -4.63344 3.81356 0
M  V30 14986 H 1433.89 -3.23421 3.61285 0
M  V30 14987 N 1435.24 -1.07045 -1.15668 0
M  V30 14988 C 1436.65 -0.814932 -1.67975 0
M  V30 14989 C 1437 0.660408 -1.84751 0
M  V30 14990 O 1436.12 1.51156 -1.54857 0
M  V30 14991 C 1436.72 -1.47274 -3.05116 0
M  V30 14992 C 1435.28 -1.26481 -3.54513 0
M  V30 14993 C 1434.42 -1.54439 -2.30312 0
M  V30 14994 H 1437.37 -1.23291 -0.999251 0
M  V30 14995 H 1437.4 -0.892244 -3.69891 0
M  V30 14996 H 1436.91 -2.54649 -2.92874 0
M  V30 14997 H 1435.01 -0.211138 -3.72001 0
M  V30 14998 H 1435.12 -1.98283 -4.36143 0
M  V30 14999 H 1433.49 -0.965269 -2.357 0
M  V30 15000 H 1434.27 -2.6299 -2.20661 0
M  V30 15001 N 1436.71 1.32449 -0.85411 0
M  V30 15002 C 1438.13 1.50046 -0.543895 0
M  V30 15003 C 1438.33 1.78985 0.925561 0
M  V30 15004 O 1437.39 1.85909 1.70862 0
M  V30 15005 C 1438.7 2.64499 -1.43041 0
M  V30 15006 C 1440.25 2.78384 -1.43078 0
M  V30 15007 C 1440.72 3.95915 -2.3025 0
M  V30 15008 N 1442.21 4.03176 -2.28043 0
M  V30 15009 C 1442.95 4.9335 -2.92221 0
M  V30 15010 N 1442.44 5.88536 -3.6551 0
M  V30 15011 N 1444.24 4.86468 -2.81612 0
M  V30 15012 H 1436.39 1.11931 -1.80514 0
M  V30 15013 H 1438.65 0.551626 -0.770982 0
M  V30 15014 H 1438.36 2.49842 -2.47532 0
M  V30 15015 H 1438.23 3.60269 -1.11742 0
M  V30 15016 H 1440.62 2.92464 -0.393529 0
M  V30 15017 H 1440.7 1.83329 -1.78393 0
M  V30 15018 H 1440.34 3.82594 -3.34043 0
M  V30 15019 H 1440.27 4.90245 -1.92268 0
M  V30 15020 H 1442.76 3.35064 -1.74759 0
M  V30 15021 H 1443.08 6.54038 -4.11648 0
M  V30 15022 H 1441.42 5.88564 -3.69618 0
M  V30 15023 H 1444.61 4.11076 -2.23907 0
M  V30 15024 H 1444.79 5.56542 -3.3191 0
M  V30 15025 N 1438.19 0.611994 1.45232 0
M  V30 15026 C 1439.44 0.109073 2.02506 0
M  V30 15027 C 1439.77 -1.25876 1.47881 0
M  V30 15028 O 1439.05 -1.83131 0.65524 0
M  V30 15029 C 1439.33 0.0749288 3.60022 0
M  V30 15030 C 1439.18 1.47374 4.24972 0
M  V30 15031 C 1440.5 -0.610602 4.35844 0
M  V30 15032 H 1437.62 0.0411101 0.735853 0
M  V30 15033 H 1440.26 0.78481 1.73034 0
M  V30 15034 H 1438.41 -0.500511 3.85262 0
M  V30 15035 H 1440.08 2.0966 4.10902 0
M  V30 15036 H 1438.33 2.03319 3.83202 0
M  V30 15037 H 1439 1.40206 5.33897 0
M  V30 15038 H 1441.47 -0.121445 4.15923 0
M  V30 15039 H 1440.35 -0.603614 5.45571 0
M  V30 15040 H 1440.61 -1.6775 4.09038 0
M  V30 15041 N 1439.67 -1.53632 0.351409 0
M  V30 15042 C 1440.58 -2.2899 -0.509985 0
M  V30 15043 C 1441.6 -1.34403 -1.10507 0
M  V30 15044 O 1442.77 -1.67448 -1.11906 0
M  V30 15045 C 1439.84 -3.05392 -1.64124 0
M  V30 15046 C 1438.9 -4.15619 -1.07514 0
M  V30 15047 C 1438.13 -4.88369 -2.15248 0
M  V30 15048 O 1438.35 -4.60854 -3.3611 0
M  V30 15049 O 1437.29 -5.74636 -1.79101 0
M  V30 15050 H 1441.11 -3.03526 0.10283 0
M  V30 15051 H 1438.7 -1.48947 0.116214 0
M  V30 15052 H 1440.58 -3.53146 -2.29926 0
M  V30 15053 H 1439.26 -2.33705 -2.23972 0
M  V30 15054 H 1438.16 -3.7215 -0.381421 0
M  V30 15055 H 1439.5 -4.8943 -0.521413 0
M  V30 15056 N 1441.15 -0.0802183 -1.57396 0
M  V30 15057 C 1442.4 0.585802 -1.93424 0
M  V30 15058 C 1442.72 1.69638 -0.961662 0
M  V30 15059 O 1441.99 1.95897 -0.011202 0
M  V30 15060 H 1440.57 0.219382 -0.714059 0
M  V30 15061 H 1443.23 -0.140055 -1.94396 0
M  V30 15062 H 1442.32 1.00566 -2.95454 0
M  V30 15063 N 1442.63 1.56409 0.193394 0
M  V30 15064 C 1444.04 1.50032 0.544298 0
M  V30 15065 C 1444.24 0.780546 1.85768 0
M  V30 15066 O 1443.3 0.331769 2.50311 0
M  V30 15067 C 1444.61 2.94705 0.597463 0
M  V30 15068 C 1446.16 3.05386 0.686179 0
M  V30 15069 C 1446.63 4.51473 0.770439 0
M  V30 15070 N 1448.12 4.55631 0.833921 0
M  V30 15071 C 1448.86 5.65982 0.919314 0
M  V30 15072 N 1448.36 6.8602 0.966904 0
M  V30 15073 N 1450.15 5.539 0.956634 0
M  V30 15074 H 1442.3 2.01619 -0.668096 0
M  V30 15075 H 1444.56 0.917589 -0.238191 0
M  V30 15076 H 1444.27 3.50431 -0.298509 0
M  V30 15077 H 1444.14 3.48151 1.45157 0
M  V30 15078 H 1446.53 2.49708 1.57258 0
M  V30 15079 H 1446.61 2.55062 -0.194165 0
M  V30 15080 H 1446.25 5.07777 -0.111619 0
M  V30 15081 H 1446.18 4.99531 1.66661 0
M  V30 15082 H 1448.68 3.69198 0.80632 0
M  V30 15083 H 1448.99 7.6587 1.03262 0
M  V30 15084 H 1447.33 6.88674 0.935552 0
M  V30 15085 H 1450.52 4.59044 0.916304 0
M  V30 15086 H 1450.7 6.39926 1.01972 0
M  V30 15087 N 1444.1 -0.461169 1.50702 0
M  V30 15088 C 1445.51 -1.04177 1.54932 0
M  V30 15089 C 1445.87 -1.92894 0.358648 0
M  V30 15090 O 1444.99 -2.09876 -0.527346 0
M  V30 15091 C 1445.59 -1.8961 2.80773 0
M  V30 15092 C 1444.14 -2.42761 2.87652 0
M  V30 15093 C 1443.29 -1.21356 2.49335 0
M  V30 15094 H 1446.24 -0.243379 1.56823 0
M  V30 15095 H 1446.26 -2.74794 2.63189 0
M  V30 15096 H 1445.78 -1.25014 3.67414 0
M  V30 15097 H 1443.88 -3.10881 2.05386 0
M  V30 15098 H 1443.99 -2.77189 3.90772 0
M  V30 15099 H 1442.35 -1.55146 2.01995 0
M  V30 15100 H 1443.14 -0.584069 3.38295 0
M  V30 15101 N 1445.58 -1.40446 -0.715026 0
M  V30 15102 C 1446.83 -1.3848 -1.47199 0
M  V30 15103 C 1447.15 0.0119198 -1.94996 0
M  V30 15104 O 1446.42 0.966772 -1.70383 0
M  V30 15105 H 1445 -0.509669 -0.54612 0
M  V30 15106 H 1447.66 -1.75505 -0.847588 0
M  V30 15107 H 1446.76 -2.06002 -2.34456 0
M  V30 15108 N 1447.06 0.947303 -1.25952 0
M  V30 15109 C 1448.02 2.02667 -1.07046 0
M  V30 15110 C 1449.02 1.60787 -0.0208127 0
M  V30 15111 O 1450.21 1.72193 -0.263668 0
M  V30 15112 C 1447.34 3.35087 -0.626885 0
M  V30 15113 H 1448.54 2.20871 -2.0287 0
M  V30 15114 H 1446.09 1.12541 -1.08462 0
M  V30 15115 H 1446.83 3.22579 0.333621 0
M  V30 15116 H 1446.61 3.66835 -1.38473 0
M  V30 15117 H 1448.1 4.14397 -0.516264 0
M  V30 15118 N 1448.54 1.07657 1.15099 0
M  V30 15119 C 1449.76 0.82291 1.90376 0
M  V30 15120 C 1450.19 -0.618415 1.77644 0
M  V30 15121 O 1449.55 -1.43248 1.11129 0
M  V30 15122 C 1449.59 1.23988 3.38614 0
M  V30 15123 O 1448.7 0.387085 4.10579 0
M  V30 15124 H 1448.04 0.299532 0.592602 0
M  V30 15125 H 1450.57 1.436 1.4574 0
M  V30 15126 H 1450.58 1.21741 3.89414 0
M  V30 15127 H 1449.25 2.28966 3.472 0
M  V30 15128 H 1447.83 0.472311 3.69897 0
M  V30 15129 N 1450.02 -1.31994 0.861122 0
M  V30 15130 C 1450.95 -2.31214 0.325963 0
M  V30 15131 C 1451.93 -1.59965 -0.578383 0
M  V30 15132 O 1453.11 -1.87726 -0.497268 0
M  V30 15133 C 1450.24 -3.43953 -0.481001 0
M  V30 15134 C 1449.2 -4.2673 0.329474 0
M  V30 15135 C 1448.52 -5.31293 -0.602627 0
M  V30 15136 C 1449.82 -4.98498 1.55874 0
M  V30 15137 H 1451.52 -2.76223 1.15503 0
M  V30 15138 H 1449.06 -1.32797 0.556856 0
M  V30 15139 H 1451.02 -4.12409 -0.86585 0
M  V30 15140 H 1449.74 -2.97687 -1.3435 0
M  V30 15141 H 1448.4 -3.59929 0.696159 0
M  V30 15142 H 1448.05 -4.8128 -1.46215 0
M  V30 15143 H 1447.75 -5.87565 -0.0643044 0
M  V30 15144 H 1449.27 -6.02611 -0.984512 0
M  V30 15145 H 1450.68 -5.596 1.24583 0
M  V30 15146 H 1449.08 -5.64525 2.03548 0
M  V30 15147 H 1450.15 -4.25991 2.31646 0
M  V30 15148 N 1451.49 -0.619688 -1.44906 0
M  V30 15149 C 1452.91 -0.203309 -1.8559 0
M  V30 15150 C 1453.26 1.24265 -1.51831 0
M  V30 15151 O 1452.38 1.94392 -0.950819 0
M  V30 15152 C 1452.98 -0.362204 -3.36858 0
M  V30 15153 C 1451.54 -0.000423575 -3.764 0
M  V30 15154 C 1450.68 -0.680979 -2.68808 0
M  V30 15155 H 1453.63 -0.825595 -1.35535 0
M  V30 15156 H 1453.65 0.402149 -3.78369 0
M  V30 15157 H 1453.17 -1.41468 -3.61398 0
M  V30 15158 H 1451.27 1.05077 -3.57477 0
M  V30 15159 H 1451.38 -0.402508 -4.77406 0
M  V30 15160 H 1449.74 -0.117407 -2.54429 0
M  V30 15161 H 1450.53 -1.73583 -2.96182 0
M  V30 15162 N 1452.97 1.53444 -0.359552 0
M  V30 15163 C 1454.38 1.86308 0.120955 0
M  V30 15164 C 1454.73 1.28033 1.48667 0
M  V30 15165 O 1453.86 0.600041 2.07915 0
M  V30 15166 C 1454.45 3.38044 0.226255 0
M  V30 15167 C 1453.01 3.70727 0.65101 0
M  V30 15168 C 1452.16 2.76538 -0.205482 0
M  V30 15169 H 1455.11 1.47778 -0.578569 0
M  V30 15170 H 1455.13 3.65699 1.05092 0
M  V30 15171 H 1454.64 3.80428 -0.767874 0
M  V30 15172 H 1452.75 3.33897 1.65359 0
M  V30 15173 H 1452.86 4.77168 0.429802 0
M  V30 15174 H 1451.22 2.52622 0.3247 0
M  V30 15175 H 1452.01 3.21754 -1.19704 0
M  V30 15176 N 1454.45 0.0885642 1.57351 0
M  V30 15177 C 1455.38 -0.869946 2.16689 0
M  V30 15178 C 1456.36 -1.29878 1.09844 0
M  V30 15179 O 1457.55 -1.36684 1.37954 0
M  V30 15180 C 1454.68 -2.13148 2.74199 0
M  V30 15181 C 1453.63 -1.84149 3.86359 0
M  V30 15182 C 1452.96 -3.17075 4.30543 0
M  V30 15183 C 1454.26 -1.13357 5.09851 0
M  V30 15184 H 1455.95 -0.375578 2.97035 0
M  V30 15185 H 1453.5 -0.17921 1.42881 0
M  V30 15186 H 1455.45 -2.80634 3.14361 0
M  V30 15187 H 1454.17 -2.64856 1.91098 0
M  V30 15188 H 1452.83 -1.19063 3.46727 0
M  V30 15189 H 1452.48 -3.66658 3.44342 0
M  V30 15190 H 1452.18 -2.98457 5.06159 0
M  V30 15191 H 1453.7 -3.85731 4.73333 0
M  V30 15192 H 1455.12 -1.70941 5.47222 0
M  V30 15193 H 1453.52 -1.0494 5.90853 0
M  V30 15194 H 1454.59 -0.115273 4.84763 0
M  V30 15195 N 1455.93 -1.56509 -0.185096 0
M  V30 15196 C 1457.21 -1.72055 -0.930398 0
M  V30 15197 C 1457.59 -0.646145 -2.00968 0
M  V30 15198 O 1456.93 0.34129 -2.25937 0
M  V30 15199 C 1457.14 -3.14752 -1.50771 0
M  V30 15200 C 1458.49 -3.75292 -1.98597 0
M  V30 15201 O 1459.52 -3.17944 -1.60593 0
M  V30 15202 O 1458.37 -4.7596 -2.68561 0
M  V30 15203 H 1455.47 -0.702118 -0.436989 0
M  V30 15204 H 1458.01 -1.68806 -0.174007 0
M  V30 15205 H 1456.79 -3.84426 -0.730236 0
M  V30 15206 H 1456.41 -3.22272 -2.32866 0
M  V30 15207 N 1457.41 0.45317 -1.50944 0
M  V30 15208 C 1458.34 1.55655 -1.74051 0
M  V30 15209 C 1459.32 1.59545 -0.58987 0
M  V30 15210 O 1460.5 1.75526 -0.830922 0
M  V30 15211 C 1457.63 2.93857 -1.85109 0
M  V30 15212 C 1456.59 3.04832 -3.00435 0
M  V30 15213 C 1455.91 4.44858 -2.96657 0
M  V30 15214 C 1457.21 2.80381 -4.40663 0
M  V30 15215 H 1458.91 1.36571 -2.66437 0
M  V30 15216 H 1456.45 0.655572 -1.28212 0
M  V30 15217 H 1458.41 3.70992 -1.99857 0
M  V30 15218 H 1457.13 3.14138 -0.893579 0
M  V30 15219 H 1455.79 2.30134 -2.85366 0
M  V30 15220 H 1455.44 4.62083 -1.98716 0
M  V30 15221 H 1455.14 4.53134 -3.7409 0
M  V30 15222 H 1456.66 5.23989 -3.13478 0
M  V30 15223 H 1458.07 3.47255 -4.56165 0
M  V30 15224 H 1456.47 3.00083 -5.19683 0
M  V30 15225 H 1457.54 1.76099 -4.51793 0
M  V30 15226 N 1458.88 1.40823 0.707568 0
M  V30 15227 C 1459.82 1.37646 1.83265 0
M  V30 15228 C 1460.83 0.280547 1.60365 0
M  V30 15229 O 1462.02 0.541453 1.7009 0
M  V30 15230 C 1459.12 1.12121 3.19816 0
M  V30 15231 C 1458.29 2.33522 3.69846 0
M  V30 15232 C 1457.35 2.04035 4.85032 0
M  V30 15233 O 1456.38 2.76971 4.97268 0
M  V30 15234 N 1457.58 1.02322 5.71411 0
M  V30 15235 H 1460.34 2.34612 1.86486 0
M  V30 15236 H 1457.9 1.35281 0.889424 0
M  V30 15237 H 1459.9 0.903663 3.94482 0
M  V30 15238 H 1458.47 0.237941 3.11693 0
M  V30 15239 H 1457.69 2.71055 2.86221 0
M  V30 15240 H 1458.97 3.14436 4.00009 0
M  V30 15241 H 1458.37 0.419311 5.64144 0
M  V30 15242 H 1456.93 0.865571 6.46027 0
M  V30 15243 N 1460.36 -0.94061 1.26453 0
M  V30 15244 C 1461.33 -2.02096 1.0812 0
M  V30 15245 C 1462.33 -1.60773 0.0293393 0
M  V30 15246 O 1463.52 -1.72051 0.272796 0
M  V30 15247 C 1460.65 -3.34749 0.644646 0
M  V30 15248 H 1461.84 -2.19792 2.04038 0
M  V30 15249 H 1459.39 -1.11965 1.09058 0
M  V30 15250 H 1460.13 -3.22752 -0.316509 0
M  V30 15251 H 1459.91 -3.66095 1.40416 0
M  V30 15252 H 1461.4 -4.14117 0.538233 0
M  V30 15253 N 1461.84 -1.08266 -1.14527 0
M  V30 15254 C 1462.77 -0.732968 -2.21698 0
M  V30 15255 C 1463.75 0.283917 -1.67714 0
M  V30 15256 O 1464.94 0.154607 -1.93584 0
M  V30 15257 C 1462.07 -0.139935 -3.47018 0
M  V30 15258 C 1461.02 -1.08501 -4.14019 0
M  V30 15259 C 1460.35 -0.354263 -5.33525 0
M  V30 15260 C 1461.65 -2.42254 -4.62721 0
M  V30 15261 H 1463.34 -1.629 -2.51205 0
M  V30 15262 H 1460.89 -0.784696 -1.20742 0
M  V30 15263 H 1462.84 0.1167 -4.21238 0
M  V30 15264 H 1461.56 0.791228 -3.16871 0
M  V30 15265 H 1460.22 -1.32672 -3.41751 0
M  V30 15266 H 1459.87 0.580658 -4.99637 0
M  V30 15267 H 1459.57 -0.984287 -5.79297 0
M  V30 15268 H 1461.09 -0.105648 -6.10509 0
M  V30 15269 H 1462.51 -2.22357 -5.28422 0
M  V30 15270 H 1460.91 -3.00935 -5.1919 0
M  V30 15271 H 1461.98 -3.03884 -3.77866 0
M  V30 15272 N 1463.32 1.31536 -0.86811 0
M  V30 15273 C 1464.23 2.32326 -0.32588 0
M  V30 15274 C 1465.25 1.64632 0.563243 0
M  V30 15275 O 1466.42 1.96067 0.460403 0
M  V30 15276 C 1463.49 3.43562 0.46539 0
M  V30 15277 C 1462.55 4.26919 -0.451472 0
M  V30 15278 C 1461.78 5.32844 0.302129 0
M  V30 15279 O 1462 5.49485 1.53045 0
M  V30 15280 O 1460.94 6.00944 -0.339048 0
M  V30 15281 H 1464.76 2.80622 -1.16126 0
M  V30 15282 H 1462.35 1.35401 -0.631428 0
M  V30 15283 H 1464.23 4.11368 0.914028 0
M  V30 15284 H 1462.91 2.97432 1.27734 0
M  V30 15285 H 1461.81 3.61874 -0.948571 0
M  V30 15286 H 1463.15 4.7661 -1.22897 0
M  V30 15287 N 1464.8 0.627364 1.44575 0
M  V30 15288 C 1465.74 -0.0798044 2.30662 0
M  V30 15289 C 1466.71 -0.840528 1.43263 0
M  V30 15290 O 1467.9 -0.82232 1.7217 0
M  V30 15291 C 1465.04 -1.05796 3.28483 0
M  V30 15292 C 1464.15 -0.296052 4.30984 0
M  V30 15293 C 1463.29 -1.26569 5.15901 0
M  V30 15294 C 1462.33 -0.492722 6.10114 0
M  V30 15295 N 1461.46 -1.41263 6.87742 0
M  V30 15296 H 1466.3 0.660254 2.90594 0
M  V30 15297 H 1463.84 0.337382 1.43179 0
M  V30 15298 H 1465.8 -1.63842 3.83682 0
M  V30 15299 H 1464.43 -1.7652 2.7026 0
M  V30 15300 H 1463.48 0.400259 3.78288 0
M  V30 15301 H 1464.79 0.306149 4.9786 0
M  V30 15302 H 1463.95 -1.9176 5.75598 0
M  V30 15303 H 1462.69 -1.90182 4.4909 0
M  V30 15304 H 1461.69 0.172696 5.49529 0
M  V30 15305 H 1462.92 0.138634 6.78958 0
M  V30 15306 H 1460.86 -2.03604 6.23604 0
M  V30 15307 H 1460.78 -0.864362 7.51042 0
M  V30 15308 H 1462.05 -2.0535 7.51965 0
M  V30 15309 N 1466.28 -1.53251 0.367684 0
M  V30 15310 C 1467.19 -2.29518 -0.485669 0
M  V30 15311 C 1468.2 -1.35568 -1.09075 0
M  V30 15312 O 1469.38 -1.68626 -1.10124 0
M  V30 15313 C 1466.44 -3.07115 -1.60876 0
M  V30 15314 C 1465.5 -4.16736 -1.031 0
M  V30 15315 C 1464.74 -4.90624 -2.10056 0
M  V30 15316 O 1464.96 -4.64393 -3.31203 0
M  V30 15317 O 1463.89 -5.76503 -1.72996 0
M  V30 15318 H 1467.72 -3.034 0.135017 0
M  V30 15319 H 1465.3 -1.48816 0.132005 0
M  V30 15320 H 1467.19 -3.55564 -2.26168 0
M  V30 15321 H 1465.86 -2.36068 -2.21481 0
M  V30 15322 H 1464.77 -3.72534 -0.341928 0
M  V30 15323 H 1466.1 -4.89956 -0.469473 0
M  V30 15324 N 1467.75 -0.0969077 -1.57302 0
M  V30 15325 C 1468.68 0.858443 -2.17147 0
M  V30 15326 C 1469.66 1.29294 -1.10531 0
M  V30 15327 O 1470.85 1.3595 -1.38676 0
M  V30 15328 C 1467.98 2.11691 -2.75326 0
M  V30 15329 C 1466.93 1.82097 -3.8733 0
M  V30 15330 C 1466.26 3.14787 -4.32219 0
M  V30 15331 C 1467.56 1.10651 -5.10444 0
M  V30 15332 H 1469.25 0.35982 -2.9723 0
M  V30 15333 H 1466.8 0.17163 -1.42974 0
M  V30 15334 H 1468.75 2.78963 -3.15844 0
M  V30 15335 H 1467.48 2.63839 -1.925 0
M  V30 15336 H 1466.14 1.17222 -3.47354 0
M  V30 15337 H 1465.78 3.64826 -3.46281 0
M  V30 15338 H 1465.48 2.95769 -5.07735 0
M  V30 15339 H 1467.01 3.83215 -4.75372 0
M  V30 15340 H 1468.42 1.68036 -5.48121 0
M  V30 15341 H 1466.82 1.01805 -5.91401 0
M  V30 15342 H 1467.89 0.0895634 -4.84817 0
M  V30 15343 N 1469.23 1.56605 0.176793 0
M  V30 15344 C 1470.48 1.81952 0.895627 0
M  V30 15345 C 1470.81 0.673893 1.82133 0
M  V30 15346 O 1470.09 -0.324494 1.91774 0
M  V30 15347 C 1470.37 3.17658 1.69604 0
M  V30 15348 C 1470.22 4.4274 0.793834 0
M  V30 15349 C 1471.54 3.50246 2.66488 0
M  V30 15350 H 1468.66 0.661884 0.324159 0
M  V30 15351 H 1471.3 1.89307 0.162092 0
M  V30 15352 H 1469.45 3.11518 2.3214 0
M  V30 15353 H 1471.12 4.60942 0.181775 0
M  V30 15354 H 1469.37 4.33681 0.101566 0
M  V30 15355 H 1470.04 5.34231 1.38927 0
M  V30 15356 H 1472.51 3.56804 2.1408 0
M  V30 15357 H 1471.39 4.46286 3.19562 0
M  V30 15358 H 1471.65 2.7467 3.46423 0
M  V30 15359 N 1470.71 -0.445159 1.51182 0
M  V30 15360 C 1471.99 -1.20598 1.53998 0
M  V30 15361 C 1472.37 -2.08962 0.29967 0
M  V30 15362 O 1471.71 -2.17003 -0.715666 0
M  V30 15363 C 1471.92 -2.01461 2.84982 0
M  V30 15364 C 1473.27 -2.5877 3.36635 0
M  V30 15365 O 1474.3 -2.11679 2.86479 0
M  V30 15366 O 1473.16 -3.44637 4.24132 0
M  V30 15367 H 1470.25 -0.548635 0.618812 0
M  V30 15368 H 1472.8 -0.454865 1.6349 0
M  V30 15369 H 1471.57 -1.36511 3.66716 0
M  V30 15370 H 1471.19 -2.83654 2.78615 0
M  V30 15371 N 1472.19 -1.41197 -0.700089 0
M  V30 15372 C 1473.6 -1.23567 -1.01012 0
M  V30 15373 C 1473.8 -0.121821 -2.01131 0
M  V30 15374 O 1472.86 0.515258 -2.47187 0
M  V30 15375 C 1474.17 -2.58329 -1.53904 0
M  V30 15376 C 1475.72 -2.65473 -1.65811 0
M  V30 15377 C 1476.2 -4.00541 -2.22106 0
M  V30 15378 N 1477.69 -4.02364 -2.29472 0
M  V30 15379 C 1478.42 -5.03672 -2.74048 0
M  V30 15380 N 1477.92 -6.15371 -3.18262 0
M  V30 15381 N 1479.71 -4.91035 -2.73571 0
M  V30 15382 H 1471.86 -2.12368 -0.0367488 0
M  V30 15383 H 1474.12 -0.944713 -0.0788795 0
M  V30 15384 H 1473.83 -3.40565 -0.877964 0
M  V30 15385 H 1473.7 -2.805 -2.5219 0
M  V30 15386 H 1476.09 -1.83598 -2.31032 0
M  V30 15387 H 1476.17 -2.47117 -0.660831 0
M  V30 15388 H 1475.82 -4.82862 -1.57502 0
M  V30 15389 H 1475.75 -4.16235 -3.22577 0
M  V30 15390 H 1478.24 -3.21713 -1.98265 0
M  V30 15391 H 1478.55 -6.88548 -3.50888 0
M  V30 15392 H 1476.9 -6.18914 -3.16182 0
M  V30 15393 H 1480.09 -4.02858 -2.38376 0
M  V30 15394 H 1480.26 -5.70127 -3.07993 0
M  V30 15395 N 1473.67 0.933891 -1.2695 0
M  V30 15396 C 1474.62 2.01966 -1.05801 0
M  V30 15397 C 1475.6 1.60896 0.0119868 0
M  V30 15398 O 1476.79 1.75799 -0.205827 0
M  V30 15399 C 1473.92 3.36073 -0.700695 0
M  V30 15400 C 1473.01 3.83606 -1.80852 0
M  V30 15401 N 1473.4 4.03713 -3.04712 0
M  V30 15402 C 1471.7 4.12586 -1.69378 0
M  V30 15403 C 1472.4 4.43199 -3.76762 0
M  V30 15404 N 1471.37 4.50319 -3.0449 0
M  V30 15405 H 1475.17 2.15534 -1.99806 0
M  V30 15406 H 1472.69 1.12027 -1.17574 0
M  V30 15407 H 1474.69 4.13513 -0.530316 0
M  V30 15408 H 1473.35 3.23872 0.231801 0
M  V30 15409 H 1474.36 3.90196 -3.4054 0
M  V30 15410 H 1471.03 4.09132 -0.831695 0
M  V30 15411 H 1472.42 4.66887 -4.83184 0
M  V30 15412 N 1475.14 1.08871 1.13951 0
M  V30 15413 C 1476.39 0.819665 1.84732 0
M  V30 15414 C 1476.71 -0.656535 1.83615 0
M  V30 15415 O 1475.98 -1.47614 1.28791 0
M  V30 15416 H 1474.56 0.30023 0.684011 0
M  V30 15417 H 1477.22 1.37568 1.38062 0
M  V30 15418 H 1476.32 1.16809 2.89417 0
M  V30 15419 N 1476.62 -1.31073 0.875073 0
M  V30 15420 C 1477.53 -2.3215 0.338196 0
M  V30 15421 C 1478.55 -1.64928 -0.554504 0
M  V30 15422 O 1479.72 -1.96308 -0.449998 0
M  V30 15423 C 1476.79 -3.43804 -0.447163 0
M  V30 15424 C 1475.85 -4.26674 0.474106 0
M  V30 15425 C 1475.08 -5.32997 -0.273867 0
M  V30 15426 O 1475.31 -5.50288 -1.50129 0
M  V30 15427 O 1474.24 -6.00756 0.370913 0
M  V30 15428 H 1478.07 -2.80002 1.17612 0
M  V30 15429 H 1475.65 -1.35064 0.6386 0
M  V30 15430 H 1477.53 -4.11847 -0.892199 0
M  V30 15431 H 1476.21 -2.98105 -1.26155 0
M  V30 15432 H 1475.11 -3.61366 0.967748 0
M  V30 15433 H 1476.45 -4.75952 1.25423 0
M  V30 15434 N 1478.1 -0.635022 -1.4424 0
M  V30 15435 C 1479.01 0.0686832 -2.34499 0
M  V30 15436 C 1480.03 0.831574 -1.52843 0
M  V30 15437 O 1481.2 0.782954 -1.85558 0
M  V30 15438 C 1478.27 1.03543 -3.30877 0
M  V30 15439 C 1477.33 0.271484 -4.28441 0
M  V30 15440 C 1476.56 1.19218 -5.20214 0
M  V30 15441 O 1476.78 2.43101 -5.16002 0
M  V30 15442 O 1475.72 0.6744 -5.9811 0
M  V30 15443 H 1479.54 -0.673781 -2.96132 0
M  V30 15444 H 1477.13 -0.395211 -1.44078 0
M  V30 15445 H 1479.01 1.59151 -3.90191 0
M  V30 15446 H 1477.69 1.75844 -2.71773 0
M  V30 15447 H 1476.59 -0.327736 -3.72662 0
M  V30 15448 H 1477.93 -0.411584 -4.90476 0
M  V30 15449 N 1479.58 1.53054 -0.375806 0
M  V30 15450 C 1480.82 2.017 0.210985 0
M  V30 15451 C 1481.16 1.26228 1.47581 0
M  V30 15452 O 1480.43 0.358869 1.91161 0
M  V30 15453 C 1480.72 3.56715 0.492596 0
M  V30 15454 C 1480.57 4.42869 -0.786573 0
M  V30 15455 C 1481.89 4.20803 1.28891 0
M  V30 15456 H 1479.01 0.733153 0.0752084 0
M  V30 15457 H 1481.65 1.83229 -0.502715 0
M  V30 15458 H 1479.8 3.72585 1.10059 0
M  V30 15459 H 1481.47 4.38777 -1.42381 0
M  V30 15460 H 1479.71 4.10425 -1.40478 0
M  V30 15461 H 1480.38 5.49309 -0.544354 0
M  V30 15462 H 1482.86 4.08828 0.774498 0
M  V30 15463 H 1481.74 5.29273 1.45469 0
M  V30 15464 H 1482 3.77541 2.30033 0
M  V30 15465 N 1481.06 0.105248 1.57248 0
M  V30 15466 C 1482.28 -0.564157 1.9906 0
M  V30 15467 C 1482.7 -1.61092 0.984624 0
M  V30 15468 O 1482.06 -1.82484 -0.0244031 0
M  V30 15469 C 1482.11 -1.20272 3.40906 0
M  V30 15470 O 1481.83 -0.197815 4.37653 0
M  V30 15471 C 1483.33 -1.95677 3.97776 0
M  V30 15472 H 1480.55 -0.150468 0.653912 0
M  V30 15473 H 1483.09 0.187532 2.03638 0
M  V30 15474 H 1481.25 -1.90528 3.3731 0
M  V30 15475 H 1481.66 -0.659998 5.20331 0
M  V30 15476 H 1483.14 -2.35702 4.99148 0
M  V30 15477 H 1483.61 -2.82661 3.36154 0
M  V30 15478 H 1484.22 -1.30215 4.04876 0
M  V30 15479 N 1482.53 -1.56697 -0.168486 0
M  V30 15480 C 1483.95 -1.71808 -0.730674 0
M  V30 15481 C 1484.3 -0.716224 -1.8266 0
M  V30 15482 O 1483.42 0.121803 -2.16057 0
M  V30 15483 C 1484.02 -3.1151 -1.33217 0
M  V30 15484 C 1482.58 -3.28297 -1.84115 0
M  V30 15485 C 1481.72 -2.67757 -0.72122 0
M  V30 15486 H 1484.67 -1.58598 0.0569421 0
M  V30 15487 H 1484.69 -3.10318 -2.20189 0
M  V30 15488 H 1484.21 -3.84404 -0.53431 0
M  V30 15489 H 1482.31 -2.60364 -2.66536 0
M  V30 15490 H 1482.42 -4.3606 -1.98464 0
M  V30 15491 H 1480.78 -2.27644 -1.14239 0
M  V30 15492 H 1481.57 -3.43239 0.0648388 0
M  V30 15493 N 1484.01 0.437135 -1.51416 0
M  V30 15494 C 1484.92 1.55581 -1.75589 0
M  V30 15495 C 1485.94 1.61797 -0.640132 0
M  V30 15496 O 1487.11 1.79035 -0.922406 0
M  V30 15497 C 1484.18 2.91561 -1.87598 0
M  V30 15498 C 1483.24 2.9546 -3.11451 0
M  V30 15499 C 1482.47 4.24954 -3.22878 0
M  V30 15500 O 1482.7 5.17341 -2.40238 0
M  V30 15501 O 1481.63 4.35141 -4.15856 0
M  V30 15502 H 1485.46 1.38098 -2.70486 0
M  V30 15503 H 1483.04 0.620163 -1.3592 0
M  V30 15504 H 1484.92 3.72262 -1.97481 0
M  V30 15505 H 1483.6 3.09171 -0.958889 0
M  V30 15506 H 1482.51 2.13713 -3.07046 0
M  V30 15507 H 1483.84 2.82794 -4.0285 0
M  V30 15508 N 1485.49 1.41566 0.692592 0
M  V30 15509 C 1486.77 1.31572 1.44735 0
M  V30 15510 C 1487.15 -0.0553081 2.11028 0
M  V30 15511 O 1486.5 -1.06974 2.01913 0
M  V30 15512 C 1486.71 2.47125 2.46435 0
M  V30 15513 C 1488.05 2.88427 3.11601 0
M  V30 15514 O 1489.08 2.46886 2.5676 0
M  V30 15515 O 1487.94 3.6027 4.10935 0
M  V30 15516 H 1485.03 0.517949 0.644715 0
M  V30 15517 H 1487.58 1.53536 0.722818 0
M  V30 15518 H 1486.35 3.38601 1.96124 0
M  V30 15519 H 1485.97 2.27054 3.26393 0
M  V30 15520 N 1486.97 -0.927146 1.27443 0
M  V30 15521 C 1488.21 -1.67738 1.13982 0
M  V30 15522 C 1488.55 -1.91653 -0.313511 0
M  V30 15523 O 1487.82 -1.50729 -1.22926 0
M  V30 15524 C 1488.11 -3.04357 1.92454 0
M  V30 15525 C 1487.96 -2.8768 3.45775 0
M  V30 15526 C 1489.28 -4.04696 1.72944 0
M  V30 15527 H 1486.4 -0.608749 0.415444 0
M  V30 15528 H 1489.04 -1.07587 1.56605 0
M  V30 15529 H 1487.19 -3.55702 1.56232 0
M  V30 15530 H 1488.86 -2.43449 3.9183 0
M  V30 15531 H 1487.1 -2.23011 3.72087 0
M  V30 15532 H 1487.77 -3.8464 3.95924 0
M  V30 15533 H 1490.25 -3.62364 2.04528 0
M  V30 15534 H 1489.13 -4.98276 2.30243 0
M  V30 15535 H 1489.39 -4.36878 0.677505 0
M  V30 15536 N 1488.45 -1.09474 -1.13372 0
M  V30 15537 C 1489.38 -0.756441 -2.20908 0
M  V30 15538 C 1490.36 0.266113 -1.68006 0
M  V30 15539 O 1491.54 0.134067 -1.93737 0
M  V30 15540 C 1488.67 -0.176733 -3.4685 0
M  V30 15541 C 1487.63 -1.12886 -4.12845 0
M  V30 15542 C 1486.95 -0.410831 -5.33119 0
M  V30 15543 C 1488.25 -2.47148 -4.60125 0
M  V30 15544 H 1489.95 -1.65555 -2.49463 0
M  V30 15545 H 1487.49 -0.797458 -1.19902 0
M  V30 15546 H 1489.45 0.0720151 -4.21338 0
M  V30 15547 H 1488.17 0.757576 -3.17692 0
M  V30 15548 H 1486.83 -1.36289 -3.40325 0
M  V30 15549 H 1486.48 0.527632 -5.00225 0
M  V30 15550 H 1486.18 -1.04567 -5.78221 0
M  V30 15551 H 1487.7 -0.170394 -6.10362 0
M  V30 15552 H 1489.11 -2.27949 -5.26034 0
M  V30 15553 H 1487.51 -3.06425 -5.15969 0
M  V30 15554 H 1488.58 -3.07874 -3.74622 0
M  V30 15555 N 1489.92 1.30607 -0.882012 0
M  V30 15556 C 1491.15 2.00954 -0.513048 0
M  V30 15557 C 1491.57 1.65697 0.890279 0
M  V30 15558 O 1490.93 0.872001 1.58952 0
M  V30 15559 C 1490.98 3.53907 -0.691525 0
M  V30 15560 O 1490.08 4.11555 0.263896 0
M  V30 15561 H 1489.43 0.632356 -0.202537 0
M  V30 15562 H 1491.96 1.66524 -1.18874 0
M  V30 15563 H 1491.97 4.0372 -0.589392 0
M  V30 15564 H 1490.64 3.78907 -1.71471 0
M  V30 15565 H 1489.22 3.7272 0.115707 0
M  V30 15566 N 1491.4 0.642663 1.43901 0
M  V30 15567 C 1492.37 -0.0457858 2.29154 0
M  V30 15568 C 1493.37 -0.760988 1.41653 0
M  V30 15569 O 1494.56 -0.603832 1.634 0
M  V30 15570 C 1491.69 -1.07552 3.23489 0
M  V30 15571 H 1492.88 0.704193 2.91515 0
M  V30 15572 H 1490.43 0.403361 1.51006 0
M  V30 15573 H 1491.17 -1.85509 2.66002 0
M  V30 15574 H 1490.95 -0.566468 3.87987 0
M  V30 15575 H 1492.44 -1.55663 3.87503 0
M  V30 15576 N 1492.88 -1.52852 0.383918 0
M  V30 15577 C 1493.84 -2.24904 -0.441687 0
M  V30 15578 C 1494.84 -1.26345 -0.99466 0
M  V30 15579 O 1496.03 -1.50484 -0.877513 0
M  V30 15580 C 1493.17 -2.99994 -1.61915 0
M  V30 15581 H 1494.36 -2.99304 0.189047 0
M  V30 15582 H 1491.91 -1.55708 0.135932 0
M  V30 15583 H 1492.65 -2.29882 -2.28746 0
M  V30 15584 H 1492.43 -3.72328 -1.2294 0
M  V30 15585 H 1493.92 -3.54716 -2.20378 0
M  V30 15586 N 1494.36 -0.113586 -1.5719 0
M  V30 15587 C 1495.29 0.875741 -2.10727 0
M  V30 15588 C 1496.27 1.2644 -1.02233 0
M  V30 15589 O 1497.45 1.36641 -1.29852 0
M  V30 15590 C 1494.58 2.17123 -2.59952 0
M  V30 15591 C 1493.63 1.93105 -3.8028 0
M  V30 15592 S 1494.46 1.15223 -5.22957 0
M  V30 15593 C 1495.62 2.45963 -5.75546 0
M  V30 15594 H 1495.85 0.420351 -2.94313 0
M  V30 15595 H 1493.38 0.100081 -1.54075 0
M  V30 15596 H 1495.34 2.91561 -2.88968 0
M  V30 15597 H 1494 2.59781 -1.76558 0
M  V30 15598 H 1493.19 2.89082 -4.12853 0
M  V30 15599 H 1492.8 1.2679 -3.51853 0
M  V30 15600 H 1495.09 3.41835 -5.8494 0
M  V30 15601 H 1496.03 2.17943 -6.73726 0
M  V30 15602 H 1496.44 2.55083 -5.0358 0
M  V30 15603 N 1495.84 1.56784 0.160173 0
M  V30 15604 C 1497.07 1.86496 0.888969 0
M  V30 15605 C 1497.48 0.698244 1.75844 0
M  V30 15606 O 1496.82 -0.341543 1.80497 0
M  V30 15607 C 1496.88 3.10758 1.80748 0
M  V30 15608 C 1496.54 4.43152 1.1165 0
M  V30 15609 C 1497.54 5.1771 0.476643 0
M  V30 15610 C 1495.23 4.89883 1.10993 0
M  V30 15611 C 1497.22 6.37198 -0.160552 0
M  V30 15612 C 1494.91 6.09298 0.468916 0
M  V30 15613 C 1495.91 6.828 -0.165211 0
M  V30 15614 O 1495.59 7.99948 -0.796092 0
M  V30 15615 H 1495.33 0.622688 0.263128 0
M  V30 15616 H 1497.88 2.04762 0.161706 0
M  V30 15617 H 1496.11 2.88466 2.57535 0
M  V30 15618 H 1497.8 3.26825 2.40708 0
M  V30 15619 H 1498.56 4.82682 0.473616 0
M  V30 15620 H 1494.44 4.32605 1.59292 0
M  V30 15621 H 1497.99 6.94508 -0.656107 0
M  V30 15622 H 1493.88 6.4379 0.469565 0
M  V30 15623 H 1494.65 8.15532 -0.696448 0
M  V30 15624 N 1497.32 -0.429099 1.51646 0
M  V30 15625 C 1498.73 -1.00868 1.57107 0
M  V30 15626 C 1499.08 -1.9209 0.399483 0
M  V30 15627 O 1498.2 -2.10948 -0.482709 0
M  V30 15628 C 1498.8 -1.83612 2.84732 0
M  V30 15629 C 1497.36 -2.36605 2.92737 0
M  V30 15630 C 1496.5 -1.1604 2.51853 0
M  V30 15631 H 1499.45 -0.21006 1.57304 0
M  V30 15632 H 1499.48 -2.69149 2.68959 0
M  V30 15633 H 1498.99 -1.17192 3.69983 0
M  V30 15634 H 1497.09 -3.06455 2.11934 0
M  V30 15635 H 1497.2 -2.68838 3.96564 0
M  V30 15636 H 1495.57 -1.50826 2.0524 0
M  V30 15637 H 1496.35 -0.51218 3.39458 0
M  V30 15638 N 1498.79 -1.41931 -0.685074 0
M  V30 15639 C 1500.07 -1.32338 -1.44035 0
M  V30 15640 C 1500.45 0.0441161 -2.11054 0
M  V30 15641 O 1499.8 1.05901 -2.02478 0
M  V30 15642 C 1500.01 -2.48429 -2.45121 0
M  V30 15643 C 1501.36 -2.90076 -3.10067 0
M  V30 15644 O 1502.38 -2.48245 -2.55447 0
M  V30 15645 O 1501.24 -3.62445 -4.09019 0
M  V30 15646 H 1498.33 -0.521361 -0.641959 0
M  V30 15647 H 1500.88 -1.53918 -0.714666 0
M  V30 15648 H 1499.65 -3.39637 -1.94326 0
M  V30 15649 H 1499.27 -2.28781 -3.25184 0
M  V30 15650 N 1500.27 0.920374 -1.27933 0
M  V30 15651 C 1501.52 1.67131 -1.1487 0
M  V30 15652 C 1501.85 1.91816 0.303343 0
M  V30 15653 O 1501.13 1.51379 1.22125 0
M  V30 15654 C 1501.41 3.03332 -1.94066 0
M  V30 15655 C 1501.26 2.85842 -3.47296 0
M  V30 15656 C 1502.58 4.03773 -1.75087 0
M  V30 15657 H 1499.7 0.606537 -0.418666 0
M  V30 15658 H 1502.34 1.06755 -1.57173 0
M  V30 15659 H 1500.49 3.54869 -1.58116 0
M  V30 15660 H 1502.16 2.41367 -3.93115 0
M  V30 15661 H 1500.41 2.21035 -3.73264 0
M  V30 15662 H 1501.08 3.82535 -3.97958 0
M  V30 15663 H 1503.55 3.61274 -2.06447 0
M  V30 15664 H 1502.43 4.97048 -2.32882 0
M  V30 15665 H 1502.69 4.36512 -0.700665 0
M  V30 15666 N 1501.75 1.10074 1.1279 0
M  V30 15667 C 1503 0.840873 1.84216 0
M  V30 15668 C 1503.32 -0.633551 1.83892 0
M  V30 15669 O 1502.58 -1.48283 1.27714 0
M  V30 15670 C 1502.88 1.32969 3.31744 0
M  V30 15671 C 1502.54 2.81489 3.52242 0
M  V30 15672 C 1501.21 3.22048 3.57545 0
M  V30 15673 C 1503.56 3.77216 3.59664 0
M  V30 15674 C 1500.89 4.57092 3.67809 0
M  V30 15675 C 1503.24 5.12057 3.71457 0
M  V30 15676 C 1501.9 5.52196 3.75014 0
M  V30 15677 H 1501.17 0.307697 0.674095 0
M  V30 15678 H 1503.82 1.37669 1.33115 0
M  V30 15679 H 1502.12 0.713819 3.85243 0
M  V30 15680 H 1503.82 1.10515 3.8547 0
M  V30 15681 H 1500.41 2.49106 3.48775 0
M  V30 15682 H 1504.6 3.4699 3.5484 0
M  V30 15683 H 1499.85 4.87618 3.68834 0
M  V30 15684 H 1504.03 5.86081 3.76142 0
M  V30 15685 H 1501.65 6.56833 3.8272 0
M  V30 15686 N 1503.23 -1.30138 0.888926 0
M  V30 15687 C 1504.19 -2.26299 0.363504 0
M  V30 15688 C 1505.19 -1.52951 -0.496244 0
M  V30 15689 O 1506.38 -1.71548 -0.302834 0
M  V30 15690 C 1503.51 -3.37482 -0.481544 0
M  V30 15691 H 1504.71 -2.7429 1.21265 0
M  V30 15692 H 1502.26 -1.41395 0.666124 0
M  V30 15693 H 1502.99 -2.94814 -1.35112 0
M  V30 15694 H 1502.78 -3.9187 0.134344 0
M  V30 15695 H 1504.27 -4.09048 -0.840816 0
M  V30 15696 N 1504.71 -0.650285 -1.43559 0
M  V30 15697 C 1505.66 0.0653687 -2.27906 0
M  V30 15698 C 1506.64 0.797628 -1.39738 0
M  V30 15699 O 1507.83 0.680579 -1.63393 0
M  V30 15700 C 1504.96 1.03311 -3.27386 0
M  V30 15701 C 1504.05 0.299481 -4.23041 0
M  V30 15702 N 1504.44 -0.68239 -5.01176 0
M  V30 15703 C 1502.74 0.54133 -4.42703 0
M  V30 15704 C 1503.44 -1.11758 -5.70863 0
M  V30 15705 N 1502.41 -0.452434 -5.41714 0
M  V30 15706 H 1506.21 -0.688114 -2.85731 0
M  V30 15707 H 1503.73 -0.477326 -1.55227 0
M  V30 15708 H 1505.73 1.56058 -3.86589 0
M  V30 15709 H 1504.39 1.78669 -2.71123 0
M  V30 15710 H 1505.4 -1.06099 -5.06915 0
M  V30 15711 H 1502.07 1.2763 -3.97513 0
M  V30 15712 H 1503.46 -1.92985 -6.43589 0
M  V30 15713 N 1506.18 1.52647 -0.392018 0
M  V30 15714 C 1507.43 2.01613 0.1893 0
M  V30 15715 C 1507.76 1.27837 1.46588 0
M  V30 15716 O 1507.01 0.368018 1.92209 0
M  V30 15717 C 1507.31 3.53872 0.500914 0
M  V30 15718 C 1506.98 4.45675 -0.684434 0
M  V30 15719 C 1505.64 4.70489 -1.00961 0
M  V30 15720 C 1507.99 4.99825 -1.4773 0
M  V30 15721 C 1505.32 5.46703 -2.12915 0
M  V30 15722 C 1507.67 5.77263 -2.58747 0
M  V30 15723 C 1506.34 6.00355 -2.9177 0
M  V30 15724 H 1505.61 0.737755 0.0692697 0
M  V30 15725 H 1508.25 1.84022 -0.529924 0
M  V30 15726 H 1506.56 3.69551 1.3015 0
M  V30 15727 H 1508.26 3.89256 0.963382 0
M  V30 15728 H 1504.85 4.26527 -0.420985 0
M  V30 15729 H 1509.03 4.80577 -1.23932 0
M  V30 15730 H 1504.29 5.62807 -2.38868 0
M  V30 15731 H 1508.46 6.18223 -3.20583 0
M  V30 15732 H 1506.09 6.59194 -3.7864 0
M  V30 15733 N 1507.66 0.121921 1.57128 0
M  V30 15734 C 1508.61 -0.827205 2.15467 0
M  V30 15735 C 1509.58 -1.26155 1.08047 0
M  V30 15736 O 1510.76 -1.33855 1.35969 0
M  V30 15737 C 1507.9 -2.07077 2.76067 0
M  V30 15738 C 1507.02 -1.68452 3.97804 0
M  V30 15739 C 1506.15 -2.87797 4.46482 0
M  V30 15740 C 1505.19 -2.45426 5.60743 0
M  V30 15741 N 1504.33 -3.57695 6.04151 0
M  V30 15742 H 1509.17 -0.322879 2.96246 0
M  V30 15743 H 1506.71 -0.147677 1.46357 0
M  V30 15744 H 1508.66 -2.79943 3.09335 0
M  V30 15745 H 1507.29 -2.54963 1.97974 0
M  V30 15746 H 1506.35 -0.854487 3.70679 0
M  V30 15747 H 1507.66 -1.33316 4.80654 0
M  V30 15748 H 1506.81 -3.68885 4.81673 0
M  V30 15749 H 1505.55 -3.26162 3.62587 0
M  V30 15750 H 1504.56 -1.62772 5.25153 0
M  V30 15751 H 1505.78 -2.08175 6.46405 0
M  V30 15752 H 1503.73 -3.95728 5.23197 0
M  V30 15753 H 1503.64 -3.26491 6.81865 0
M  V30 15754 H 1504.91 -4.39213 6.43981 0
M  V30 15755 N 1509.14 -1.56867 -0.151857 0
M  V30 15756 C 1510.42 -1.7399 -0.893694 0
M  V30 15757 C 1510.8 -0.688628 -1.99552 0
M  V30 15758 O 1510.15 0.293289 -2.2661 0
M  V30 15759 C 1510.36 -3.1788 -1.44061 0
M  V30 15760 C 1511.7 -3.7942 -1.90592 0
M  V30 15761 O 1512.73 -3.21279 -1.53813 0
M  V30 15762 O 1511.59 -4.81549 -2.58404 0
M  V30 15763 H 1508.68 -0.711229 -0.421998 0
M  V30 15764 H 1511.23 -1.69137 -0.138162 0
M  V30 15765 H 1510 -3.85888 -0.648529 0
M  V30 15766 H 1509.62 -3.27139 -2.25978 0
M  V30 15767 N 1510.62 0.421051 -1.51871 0
M  V30 15768 C 1511.87 1.16908 -1.65344 0
M  V30 15769 C 1512.19 1.90801 -0.377538 0
M  V30 15770 O 1511.45 1.84972 0.639061 0
M  V30 15771 C 1511.75 2.19819 -2.81806 0
M  V30 15772 C 1511.41 1.62821 -4.20476 0
M  V30 15773 C 1510.08 1.47 -4.58197 0
M  V30 15774 C 1512.43 1.21079 -5.06941 0
M  V30 15775 C 1509.76 0.879359 -5.80073 0
M  V30 15776 C 1512.11 0.634373 -6.29411 0
M  V30 15777 C 1510.77 0.4632 -6.65891 0
M  V30 15778 H 1510.04 0.427798 -0.605037 0
M  V30 15779 H 1512.69 0.457896 -1.85945 0
M  V30 15780 H 1510.99 2.97037 -2.55492 0
M  V30 15781 H 1512.69 2.77548 -2.89427 0
M  V30 15782 H 1509.28 1.76115 -3.90745 0
M  V30 15783 H 1513.46 1.32115 -4.78392 0
M  V30 15784 H 1508.72 0.734646 -6.0697 0
M  V30 15785 H 1512.89 0.302484 -6.95743 0
M  V30 15786 H 1510.52 0.00341397 -7.602 0
M  V30 15787 N 1512.1 1.42293 0.677538 0
M  V30 15788 C 1513.32 1.46008 1.46592 0
M  V30 15789 C 1513.74 0.0706015 1.88668 0
M  V30 15790 O 1513.1 -0.914076 1.57959 0
M  V30 15791 C 1513.15 2.38477 2.71682 0
M  V30 15792 O 1512.87 3.72019 2.31372 0
M  V30 15793 C 1514.37 2.51185 3.65269 0
M  V30 15794 H 1511.59 0.49669 0.451154 0
M  V30 15795 H 1514.13 1.86777 0.832736 0
M  V30 15796 H 1512.29 2.00969 3.31195 0
M  V30 15797 H 1512.7 4.21514 3.12131 0
M  V30 15798 H 1514.18 3.20014 4.49772 0
M  V30 15799 H 1514.65 1.54885 4.10983 0
M  V30 15800 H 1515.26 2.89404 3.1165 0
M  V30 15801 N 1513.57 -0.913576 1.28419 0
M  V30 15802 C 1514.54 -1.99757 1.12382 0
M  V30 15803 C 1515.54 -1.60675 0.063435 0
M  V30 15804 O 1516.73 -1.71433 0.30923 0
M  V30 15805 C 1513.86 -3.33307 0.715506 0
M  V30 15806 H 1515.05 -2.15414 2.08655 0
M  V30 15807 H 1512.61 -1.09626 1.11408 0
M  V30 15808 H 1513.34 -3.23351 -0.247977 0
M  V30 15809 H 1513.13 -3.63034 1.4815 0
M  V30 15810 H 1514.62 -4.12882 0.625953 0
M  V30 15811 N 1515.05 -1.1067 -1.12204 0
M  V30 15812 C 1516.28 -0.872867 -1.87586 0
M  V30 15813 C 1516.7 0.57682 -1.79773 0
M  V30 15814 O 1516.05 1.39782 -1.17334 0
M  V30 15815 C 1516.1 -1.31572 -3.36706 0
M  V30 15816 O 1515.82 -2.70856 -3.44338 0
M  V30 15817 C 1517.33 -1.11613 -4.29019 0
M  V30 15818 H 1514.55 -0.313132 -0.593455 0
M  V30 15819 H 1517.09 -1.47199 -1.4196 0
M  V30 15820 H 1515.24 -0.760212 -3.79868 0
M  V30 15821 H 1515.66 -2.89854 -4.37132 0
M  V30 15822 H 1517.13 -1.4751 -5.31925 0
M  V30 15823 H 1517.61 -0.0549698 -4.39166 0
M  V30 15824 H 1518.22 -1.65822 -3.91642 0
M  V30 15825 N 1516.53 1.29665 -0.895815 0
M  V30 15826 C 1517.78 1.95716 -0.519752 0
M  V30 15827 C 1518.11 1.7065 0.933212 0
M  V30 15828 O 1517.36 1.01014 1.67615 0
M  V30 15829 C 1517.66 3.49355 -0.754025 0
M  V30 15830 C 1517.33 3.94491 -2.18375 0
M  V30 15831 C 1515.99 4.06526 -2.57468 0
M  V30 15832 C 1518.34 4.17874 -3.11498 0
M  V30 15833 C 1515.67 4.39311 -3.88874 0
M  V30 15834 C 1518.02 4.52132 -4.42447 0
M  V30 15835 C 1516.68 4.62376 -4.81419 0
M  V30 15836 H 1515.95 0.716176 -0.190191 0
M  V30 15837 H 1518.6 1.54333 -1.13373 0
M  V30 15838 H 1516.91 3.91758 -0.0570932 0
M  V30 15839 H 1518.6 3.98551 -0.442493 0
M  V30 15840 H 1515.19 3.85638 -1.87033 0
M  V30 15841 H 1519.38 4.08046 -2.8251 0
M  V30 15842 H 1514.63 4.45444 -4.18795 0
M  V30 15843 H 1518.81 4.69175 -5.14634 0
M  V30 15844 H 1516.43 4.87535 -5.83278 0
M  V30 15845 N 1518.01 0.657889 1.43212 0
M  V30 15846 C 1519.26 0.172845 2.0136 0
M  V30 15847 C 1519.58 -1.21911 1.52193 0
M  V30 15848 O 1518.85 -1.81529 0.736492 0
M  V30 15849 H 1517.43 0.0609091 0.744513 0
M  V30 15850 H 1520.09 0.850605 1.75359 0
M  V30 15851 H 1519.19 0.161062 3.11684 0
M  V30 15852 N 1519.49 -1.52437 0.400108 0
M  V30 15853 C 1520.9 -1.86563 -0.0715162 0
M  V30 15854 C 1521.25 -1.3193 -1.4522 0
M  V30 15855 O 1520.37 -0.654955 -2.06251 0
M  V30 15856 C 1520.97 -3.38525 -0.13655 0
M  V30 15857 C 1519.53 -3.72323 -0.55249 0
M  V30 15858 C 1518.67 -2.75896 0.278729 0
M  V30 15859 H 1521.63 -1.46192 0.617547 0
M  V30 15860 H 1521.65 -3.68357 -0.953588 0
M  V30 15861 H 1521.16 -3.78258 0.868468 0
M  V30 15862 H 1519.26 -3.38164 -1.56448 0
M  V30 15863 H 1519.37 -4.7814 -0.303139 0
M  V30 15864 H 1517.74 -2.53394 -0.257608 0
M  V30 15865 H 1518.52 -3.18467 1.28193 0
M  V30 15866 N 1520.96 -0.130252 -1.57061 0
M  V30 15867 C 1521.89 0.812189 -2.18919 0
M  V30 15868 C 1522.88 1.2692 -1.13249 0
M  V30 15869 O 1524.06 1.32978 -1.41529 0
M  V30 15870 C 1521.19 2.05803 -2.79754 0
M  V30 15871 C 1520.14 1.73841 -3.91105 0
M  V30 15872 C 1519.47 3.05549 -4.38799 0
M  V30 15873 C 1520.77 0.997991 -5.12677 0
M  V30 15874 H 1522.46 0.296692 -2.97926 0
M  V30 15875 H 1520.01 0.141265 -1.43305 0
M  V30 15876 H 1521.96 2.72201 -3.21691 0
M  V30 15877 H 1520.69 2.59697 -1.98053 0
M  V30 15878 H 1519.35 1.09828 -3.49762 0
M  V30 15879 H 1518.99 3.57399 -3.53942 0
M  V30 15880 H 1518.69 2.84932 -5.13894 0
M  V30 15881 H 1520.22 3.73045 -4.83394 0
M  V30 15882 H 1521.63 1.56372 -5.51562 0
M  V30 15883 H 1520.03 0.892378 -5.93428 0
M  V30 15884 H 1521.1 -0.0132936 -4.84898 0
M  V30 15885 N 1522.44 1.56945 0.143535 0
M  V30 15886 C 1523.72 1.74461 0.884454 0
M  V30 15887 C 1524.1 0.699201 1.99184 0
M  V30 15888 O 1523.45 -0.281267 2.26762 0
M  V30 15889 C 1523.66 3.18639 1.42373 0
M  V30 15890 C 1525.01 3.80426 1.88577 0
M  V30 15891 O 1526.03 3.2209 1.52107 0
M  V30 15892 O 1524.89 4.82913 2.55847 0
M  V30 15893 H 1521.98 0.713457 0.41822 0
M  V30 15894 H 1524.53 1.69208 0.12919 0
M  V30 15895 H 1523.3 3.86227 0.628056 0
M  V30 15896 H 1522.92 3.28332 2.2424 0
M  V30 15897 N 1523.92 -0.412991 1.52093 0
M  V30 15898 C 1525.15 -1.18667 1.70096 0
M  V30 15899 C 1525.57 -1.83622 0.408012 0
M  V30 15900 O 1524.93 -1.69847 -0.634174 0
M  V30 15901 C 1524.98 -2.22837 2.83507 0
M  V30 15902 O 1524.08 -3.2889 2.48807 0
M  V30 15903 H 1523.42 -0.346581 0.566373 0
M  V30 15904 H 1525.95 -0.484642 1.98777 0
M  V30 15905 H 1525.96 -2.67229 3.08306 0
M  V30 15906 H 1524.64 -1.74942 3.77317 0
M  V30 15907 H 1523.21 -2.89804 2.34665 0
M  V30 15908 N 1525.4 -1.4265 -0.669982 0
M  V30 15909 C 1526.33 -1.49298 -1.79534 0
M  V30 15910 C 1527.31 -0.34911 -1.66479 0
M  V30 15911 O 1528.5 -0.564072 -1.85828 0
M  V30 15912 C 1525.63 -1.39935 -3.17861 0
M  V30 15913 C 1524.58 -2.52398 -3.45657 0
M  V30 15914 C 1523.91 -2.28092 -4.8361 0
M  V30 15915 C 1525.21 -3.94697 -3.4207 0
M  V30 15916 H 1526.9 -2.43486 -1.74227 0
M  V30 15917 H 1524.45 -1.17191 -0.836796 0
M  V30 15918 H 1526.4 -1.43193 -3.96325 0
M  V30 15919 H 1525.12 -0.422436 -3.23857 0
M  V30 15920 H 1523.78 -2.48465 -2.69556 0
M  V30 15921 H 1523.43 -1.28683 -4.86261 0
M  V30 15922 H 1523.13 -3.03469 -5.0317 0
M  V30 15923 H 1524.65 -2.33107 -5.64352 0
M  V30 15924 H 1526.07 -4.00207 -4.10496 0
M  V30 15925 H 1524.46 -4.69965 -3.73166 0
M  V30 15926 H 1525.53 -4.21025 -2.40554 0
M  V30 15927 N 1526.88 0.906753 -1.28902 0
M  V30 15928 C 1527.83 2.03141 -1.13299 0
M  V30 15929 C 1528.82 1.69325 -0.0504114 0
M  V30 15930 O 1530.03 1.78774 -0.209696 0
M  V30 15931 H 1526.4 0.665709 -0.349766 0
M  V30 15932 H 1528.37 2.13441 -2.08531 0
M  V30 15933 C 1527.12 3.37918 -0.818935 0
M  V30 15934 H 1526.44 3.64437 -1.64395 0
M  V30 15935 H 1527.88 4.17318 -0.749753 0
M  V30 15936 C 1526.34 3.33498 0.477582 0
M  V30 15937 O 1526.87 3.7241 1.50578 0
M  V30 15938 N 1525.08 2.86594 0.480862 0
M  V30 15939 H 1524.63 2.55124 -0.356308 0
M  V30 15940 H 1524.58 2.84019 1.34835 0
M  V30 15941 N 1528.36 1.11264 1.11616 0
M  V30 15942 C 1529.58 0.882802 1.87121 0
M  V30 15943 C 1530 -0.567279 1.80076 0
M  V30 15944 O 1529.36 -1.39158 1.18074 0
M  V30 15945 C 1529.41 1.33355 3.36004 0
M  V30 15946 O 1529.13 2.72678 3.42897 0
M  V30 15947 C 1530.63 1.13886 4.28421 0
M  V30 15948 H 1527.85 0.316275 0.591786 0
M  V30 15949 H 1530.39 1.4795 1.41177 0
M  V30 15950 H 1528.55 0.780347 3.79459 0
M  V30 15951 H 1528.96 2.92168 4.35589 0
M  V30 15952 H 1530.44 1.50329 5.31136 0
M  V30 15953 H 1530.91 0.078259 4.3913 0
M  V30 15954 H 1531.52 1.67896 3.90757 0
M  V30 15955 N 1529.83 -1.29188 0.902679 0
M  V30 15956 C 1531.25 -1.47924 0.599209 0
M  V30 15957 C 1531.45 -1.82297 -0.858494 0
M  V30 15958 O 1530.51 -1.92123 -1.63845 0
M  V30 15959 C 1531.82 -2.59008 1.52759 0
M  V30 15960 C 1533.37 -2.72882 1.53312 0
M  V30 15961 C 1533.84 -3.87097 2.44785 0
M  V30 15962 N 1535.33 -3.94435 2.42849 0
M  V30 15963 C 1536.07 -4.82165 3.1033 0
M  V30 15964 N 1535.56 -5.74565 3.87101 0
M  V30 15965 N 1537.36 -4.75681 2.99473 0
M  V30 15966 H 1529.51 -1.05154 1.84544 0
M  V30 15967 H 1531.77 -0.522632 0.790924 0
M  V30 15968 H 1531.48 -2.40483 2.56634 0
M  V30 15969 H 1531.35 -3.55873 1.25036 0
M  V30 15970 H 1533.74 -2.90802 0.501804 0
M  V30 15971 H 1533.82 -1.76582 1.85074 0
M  V30 15972 H 1533.46 -3.69932 3.48012 0
M  V30 15973 H 1533.39 -4.82772 2.10331 0
M  V30 15974 H 1535.88 -3.28347 1.87074 0
M  V30 15975 H 1536.2 -6.3831 4.35638 0
M  V30 15976 H 1534.54 -5.74441 3.91207 0
M  V30 15977 H 1537.73 -4.02483 2.39009 0
M  V30 15978 H 1537.91 -5.4384 3.52337 0
M  V30 15979 N 1531.31 -0.665475 -1.42861 0
M  V30 15980 C 1532.24 0.00482845 -2.335 0
M  V30 15981 C 1533.22 0.799135 -1.50159 0
M  V30 15982 O 1534.41 0.75816 -1.78789 0
M  V30 15983 C 1531.54 0.963347 -3.33672 0
M  V30 15984 C 1530.49 0.278294 -4.27094 0
M  V30 15985 C 1529.82 1.34911 -5.174 0
M  V30 15986 C 1531.12 -0.836925 -5.15551 0
M  V30 15987 H 1532.81 -0.752129 -2.89799 0
M  V30 15988 H 1530.36 -0.363139 -1.39346 0
M  V30 15989 H 1532.31 1.44128 -3.95986 0
M  V30 15990 H 1531.03 1.75161 -2.75656 0
M  V30 15991 H 1529.69 -0.179314 -3.66161 0
M  V30 15992 H 1529.34 2.12912 -4.55716 0
M  V30 15993 H 1529.04 0.895919 -5.8073 0
M  V30 15994 H 1530.57 1.82816 -5.8259 0
M  V30 15995 H 1531.98 -0.440617 -5.71604 0
M  V30 15996 H 1530.38 -1.21533 -5.87665 0
M  V30 15997 H 1531.45 -1.6897 -4.54507 0
M  V30 15998 N 1532.79 1.52222 -0.408187 0
M  V30 15999 C 1534.04 2.01803 0.167905 0
M  V30 16000 C 1534.36 1.29385 1.45223 0
M  V30 16001 O 1533.62 0.388383 1.91807 0
M  V30 16002 C 1533.92 3.54384 0.463353 0
M  V30 16003 C 1533.58 4.44924 -0.731665 0
M  V30 16004 C 1532.25 4.69392 -1.05946 0
M  V30 16005 C 1534.6 4.9823 -1.53023 0
M  V30 16006 C 1531.93 5.44414 -2.18702 0
M  V30 16007 C 1534.28 5.74486 -2.64855 0
M  V30 16008 C 1532.94 5.97227 -2.98121 0
M  V30 16009 H 1532.21 0.738448 0.0614409 0
M  V30 16010 H 1534.86 1.83449 -0.549412 0
M  V30 16011 H 1533.16 3.70911 1.26223 0
M  V30 16012 H 1534.86 3.90256 0.922042 0
M  V30 16013 H 1531.45 4.26057 -0.4662 0
M  V30 16014 H 1535.64 4.79236 -1.29022 0
M  V30 16015 H 1530.89 5.60242 -2.44824 0
M  V30 16016 H 1535.07 6.14788 -3.27122 0
M  V30 16017 H 1532.69 6.5514 -3.8561 0
M  V30 16018 N 1534.27 0.138579 1.5699 0
M  V30 16019 C 1535.2 -0.800568 2.19347 0
M  V30 16020 C 1536.18 -1.26318 1.13921 0
M  V30 16021 O 1537.36 -1.32226 1.42232 0
M  V30 16022 C 1534.49 -2.04317 2.80842 0
M  V30 16023 C 1533.45 -1.71764 3.92022 0
M  V30 16024 C 1532.77 -3.03217 4.40413 0
M  V30 16025 C 1534.07 -0.970789 5.13199 0
M  V30 16026 H 1535.77 -0.280888 2.98079 0
M  V30 16027 H 1533.31 -0.133663 1.43378 0
M  V30 16028 H 1535.27 -2.70491 3.2313 0
M  V30 16029 H 1533.99 -2.58643 1.99428 0
M  V30 16030 H 1532.65 -1.07972 3.50339 0
M  V30 16031 H 1532.3 -3.55517 3.55832 0
M  V30 16032 H 1532 -2.82203 5.15398 0
M  V30 16033 H 1533.52 -3.70477 4.85365 0
M  V30 16034 H 1534.94 -1.53445 5.52384 0
M  V30 16035 H 1533.33 -0.860895 5.93893 0
M  V30 16036 H 1534.4 0.0390088 4.84884 0
M  V30 16037 N 1535.75 -1.57019 -0.13521 0
M  V30 16038 C 1536.68 -1.95769 -1.19193 0
M  V30 16039 C 1537.69 -0.854953 -1.38544 0
M  V30 16040 O 1538.88 -1.13332 -1.37906 0
M  V30 16041 C 1535.98 -2.22674 -2.55479 0
M  V30 16042 C 1535.15 -3.53972 -2.56949 0
M  V30 16043 C 1534.21 -3.69278 -3.7486 0
M  V30 16044 O 1533.24 -4.41555 -3.59191 0
M  V30 16045 N 1534.44 -3.06826 -4.92786 0
M  V30 16046 H 1537.2 -2.87022 -0.862451 0
M  V30 16047 H 1534.77 -1.58611 -0.324658 0
M  V30 16048 H 1536.76 -2.30144 -3.3289 0
M  V30 16049 H 1535.33 -1.37628 -2.80673 0
M  V30 16050 H 1534.55 -3.57836 -1.65368 0
M  V30 16051 H 1535.84 -4.40303 -2.54973 0
M  V30 16052 H 1535.23 -2.48043 -5.0842 0
M  V30 16053 H 1533.79 -3.19841 -5.67931 0
M  V30 16054 N 1537.22 0.404919 -1.52309 0
M  V30 16055 C 1538.47 1.14921 -1.66246 0
M  V30 16056 C 1538.79 1.90919 -0.396868 0
M  V30 16057 O 1538.06 1.86856 0.588361 0
M  V30 16058 H 1536.64 0.427223 -0.612772 0
M  V30 16059 H 1539.31 0.461091 -1.89367 0
M  V30 16060 H 1538.4 1.86095 -2.5055 0
M  V30 16061 N 1538.7 1.43003 0.662408 0
M  V30 16062 C 1540.11 1.39275 1.24336 0
M  V30 16063 C 1540.46 0.0921999 1.95983 0
M  V30 16064 O 1539.59 -0.808677 2.00722 0
M  V30 16065 C 1540.18 2.52287 2.26134 0
M  V30 16066 C 1538.74 2.51853 2.79727 0
M  V30 16067 C 1537.89 2.30453 1.5423 0
M  V30 16068 H 1540.84 1.52038 0.455002 0
M  V30 16069 H 1540.86 2.23249 3.08123 0
M  V30 16070 H 1540.37 3.46929 1.73959 0
M  V30 16071 H 1538.48 1.61064 3.3599 0
M  V30 16072 H 1538.59 3.49313 3.27898 0
M  V30 16073 H 1536.95 1.78946 1.81247 0
M  V30 16074 H 1537.74 3.27167 1.04003 0
M  V30 16075 N 1540.18 -0.899904 1.29381 0
M  V30 16076 C 1541.13 -2.004 1.14493 0
M  V30 16077 C 1542.1 -1.66056 0.0383099 0
M  V30 16078 O 1543.28 -1.89687 0.20579 0
M  V30 16079 C 1540.42 -3.35039 0.827237 0
M  V30 16080 C 1539.54 -3.82166 2.01427 0
M  V30 16081 C 1538.67 -5.0538 1.63598 0
M  V30 16082 C 1537.71 -5.44876 2.78884 0
M  V30 16083 N 1536.85 -6.59276 2.41452 0
M  V30 16084 H 1541.69 -2.12466 2.08955 0
M  V30 16085 H 1539.22 -1.0405 1.03981 0
M  V30 16086 H 1541.18 -4.12511 0.62373 0
M  V30 16087 H 1539.81 -3.227 -0.0804772 0
M  V30 16088 H 1538.86 -3.00731 2.32949 0
M  V30 16089 H 1540.18 -4.07387 2.87814 0
M  V30 16090 H 1539.33 -5.90436 1.39534 0
M  V30 16091 H 1538.07 -4.81998 0.743593 0
M  V30 16092 H 1537.07 -4.58355 3.0363 0
M  V30 16093 H 1538.3 -5.7024 3.68786 0
M  V30 16094 H 1536.24 -6.37498 1.54701 0
M  V30 16095 H 1536.16 -6.84293 3.21372 0
M  V30 16096 H 1537.43 -7.47602 2.20708 0
M  V30 16097 N 1541.66 -1.11854 -1.11024 0
M  V30 16098 C 1542.91 -0.864814 -1.82219 0
M  V30 16099 C 1543.22 0.611349 -1.85801 0
M  V30 16100 O 1544.43 0.981475 -2.53139 0
M  V30 16101 C 1542.88 -1.49745 -3.27268 0
M  V30 16102 C 1542.49 -3.00796 -3.32003 0
M  V30 16103 C 1544.23 -1.32374 -4.03333 0
M  V30 16104 C 1542.14 -3.57023 -4.71475 0
M  V30 16105 H 1541.07 -0.319877 -0.682784 0
M  V30 16106 H 1543.72 -1.34431 -1.24903 0
M  V30 16107 H 1542.1 -0.94562 -3.84544 0
M  V30 16108 H 1543.28 -3.6242 -2.84585 0
M  V30 16109 H 1541.59 -3.17493 -2.6942 0
M  V30 16110 H 1544.19 -1.7181 -5.06345 0
M  V30 16111 H 1544.53 -0.26676 -4.15444 0
M  V30 16112 H 1545.07 -1.84444 -3.52456 0
M  V30 16113 H 1541.81 -4.62453 -4.64562 0
M  V30 16114 H 1541.33 -3.00172 -5.19285 0
M  V30 16115 H 1543 -3.5572 -5.40437 0
M  V30 16116 N 1543.14 1.28707 -0.909517 0
M  V30 16117 C 1544.1 2.25692 -0.39946 0
M  V30 16118 C 1545.1 1.53721 0.471848 0
M  V30 16119 O 1546.29 1.72008 0.275504 0
M  V30 16120 C 1543.42 3.38205 0.427793 0
M  V30 16121 H 1544.61 2.72326 -1.25613 0
M  V30 16122 H 1542.17 1.40317 -0.688535 0
M  V30 16123 H 1542.9 2.96926 1.30404 0
M  V30 16124 H 1542.69 3.91606 -0.19667 0
M  V30 16125 H 1544.18 4.10334 0.775634 0
M  V30 16126 N 1544.61 0.673042 1.42506 0
M  V30 16127 C 1545.52 -0.00648572 2.34599 0
M  V30 16128 C 1546.54 -0.790758 1.54994 0
M  V30 16129 O 1547.72 -0.733482 1.87569 0
M  V30 16130 C 1544.78 -0.94734 3.33506 0
M  V30 16131 C 1543.84 -0.157795 4.2901 0
M  V30 16132 C 1543.08 -1.05384 5.23192 0
M  V30 16133 O 1543.3 -2.29334 5.22266 0
M  V30 16134 O 1542.23 -0.515584 5.99688 0
M  V30 16135 H 1546.06 0.752059 2.94241 0
M  V30 16136 H 1543.64 0.433272 1.42979 0
M  V30 16137 H 1545.53 -1.4875 3.94273 0
M  V30 16138 H 1544.2 -1.68577 2.7634 0
M  V30 16139 H 1543.11 0.426426 3.71662 0
M  V30 16140 H 1544.44 0.54148 4.89212 0
M  V30 16141 N 1546.09 -1.52004 0.416254 0
M  V30 16142 C 1547 -2.30947 -0.412403 0
M  V30 16143 C 1548.02 -1.38969 -1.04707 0
M  V30 16144 O 1549.19 -1.72044 -1.04703 0
M  V30 16145 C 1546.26 -3.12078 -1.51024 0
M  V30 16146 C 1545.32 -4.19805 -0.897892 0
M  V30 16147 C 1544.55 -4.97059 -1.94341 0
M  V30 16148 O 1544.78 -4.74695 -3.16261 0
M  V30 16149 O 1543.71 -5.81715 -1.54567 0
M  V30 16150 H 1547.54 -3.02817 0.231473 0
M  V30 16151 H 1545.12 -1.4832 0.179283 0
M  V30 16152 H 1547 -3.6258 -2.14741 0
M  V30 16153 H 1545.68 -2.42995 -2.13858 0
M  V30 16154 H 1544.59 -3.73433 -0.223236 0
M  V30 16155 H 1545.92 -4.91201 -0.31336 0
M  V30 16156 N 1547.57 -0.146903 -1.56914 0
M  V30 16157 C 1548.82 0.504234 -1.96122 0
M  V30 16158 C 1549.15 1.64879 -1.03175 0
M  V30 16159 O 1548.4 1.95605 -0.0609397 0
M  V30 16160 C 1548.7 1.05159 -3.41579 0
M  V30 16161 C 1548.37 0.0254845 -4.50893 0
M  V30 16162 C 1547.03 -0.256589 -4.80515 0
M  V30 16163 C 1549.38 -0.672284 -5.16846 0
M  V30 16164 C 1546.71 -1.24224 -5.73398 0
M  V30 16165 C 1549.06 -1.64675 -6.1079 0
M  V30 16166 C 1547.72 -1.93652 -6.38792 0
M  V30 16167 H 1546.99 0.184512 -0.71766 0
M  V30 16168 H 1549.64 -0.233712 -1.90069 0
M  V30 16169 H 1547.95 1.86687 -3.44464 0
M  V30 16170 H 1549.64 1.56398 -3.69244 0
M  V30 16171 H 1546.23 0.255517 -4.27838 0
M  V30 16172 H 1550.42 -0.467555 -4.94093 0
M  V30 16173 H 1545.67 -1.47319 -5.93386 0
M  V30 16174 H 1549.85 -2.19294 -6.60971 0
M  V30 16175 H 1547.47 -2.70179 -7.10568 0
M  V30 16176 N 1549.05 1.57088 0.126881 0
M  V30 16177 C 1549.96 2.03053 1.17502 0
M  V30 16178 C 1550.97 0.949484 1.45811 0
M  V30 16179 O 1552.15 1.26043 1.57083 0
M  V30 16180 C 1549.22 2.41897 2.48368 0
M  V30 16181 C 1548.28 3.64047 2.27527 0
M  V30 16182 C 1547.51 4.01029 3.52153 0
M  V30 16183 O 1547.73 3.38441 4.59145 0
M  V30 16184 O 1546.67 4.94174 3.43622 0
M  V30 16185 H 1550.49 2.92568 0.814733 0
M  V30 16186 H 1548.08 1.45547 0.3371 0
M  V30 16187 H 1549.96 2.67652 3.25485 0
M  V30 16188 H 1548.63 1.55531 2.83887 0
M  V30 16189 H 1547.54 3.43452 1.48294 0
M  V30 16190 H 1548.87 4.51093 1.96916 0
M  V30 16191 N 1550.53 -0.396836 1.52522 0
M  V30 16192 C 1551.77 -1.14432 1.67431 0
M  V30 16193 C 1552.11 -1.89842 0.409115 0
M  V30 16194 O 1551.38 -1.85244 -0.592863 0
M  V30 16195 C 1551.66 -2.12889 2.90431 0
M  V30 16196 C 1551.52 -1.41295 4.27031 0
M  V30 16197 C 1552.84 -3.13412 3.08967 0
M  V30 16198 H 1549.95 -0.414643 0.609295 0
M  V30 16199 H 1552.6 -0.428604 1.85103 0
M  V30 16200 H 1550.75 -2.73924 2.75495 0
M  V30 16201 H 1552.42 -0.832848 4.53719 0
M  V30 16202 H 1550.66 -0.714834 4.2787 0
M  V30 16203 H 1551.33 -2.13198 5.09167 0
M  V30 16204 H 1553.81 -2.62462 3.22883 0
M  V30 16205 H 1552.68 -3.79555 3.96522 0
M  V30 16206 H 1552.95 -3.81836 2.22831 0
M  V30 16207 N 1552.01 -1.43353 -0.654814 0
M  V30 16208 C 1552.92 -1.50831 -1.79687 0
M  V30 16209 C 1553.93 -0.395518 -1.69445 0
M  V30 16210 O 1555.11 -0.649408 -1.90643 0
M  V30 16211 C 1552.17 -1.42735 -3.15955 0
M  V30 16212 C 1551.23 -2.64671 -3.38005 0
M  V30 16213 C 1550.47 -2.56952 -4.67773 0
M  V30 16214 O 1550.69 -1.61638 -5.47019 0
M  V30 16215 O 1549.62 -3.47425 -4.91507 0
M  V30 16216 H 1553.45 -2.47266 -1.76333 0
M  V30 16217 H 1551.03 -1.25336 -0.813095 0
M  V30 16218 H 1552.92 -1.40656 -3.97233 0
M  V30 16219 H 1551.59 -0.494334 -3.19903 0
M  V30 16220 H 1550.5 -2.72323 -2.56498 0
M  V30 16221 H 1551.83 -3.5694 -3.38903 0
M  V30 16222 N 1553.48 0.89303 -1.29857 0
M  V30 16223 C 1554.41 2.01422 -1.18117 0
M  V30 16224 C 1555.39 1.6994 -0.0737487 0
M  V30 16225 O 1556.58 1.92527 -0.254387 0
M  V30 16226 C 1553.71 3.36385 -0.863842 0
M  V30 16227 C 1552.66 3.821 -1.92831 0
M  V30 16228 C 1551.99 5.14263 -1.46415 0
M  V30 16229 C 1553.29 4.01699 -3.33819 0
M  V30 16230 H 1554.98 2.11502 -2.11913 0
M  V30 16231 H 1552.53 1.01622 -1.02024 0
M  V30 16232 H 1554.48 4.14335 -0.768397 0
M  V30 16233 H 1553.21 3.26415 0.109816 0
M  V30 16234 H 1551.87 3.06372 -2.01325 0
M  V30 16235 H 1551.51 5.00714 -0.478983 0
M  V30 16236 H 1551.21 5.45821 -2.17609 0
M  V30 16237 H 1552.74 5.94747 -1.38234 0
M  V30 16238 H 1554.15 4.70111 -3.28129 0
M  V30 16239 H 1552.55 4.44621 -4.03029 0
M  V30 16240 H 1553.62 3.05816 -3.76304 0
M  V30 16241 N 1554.96 1.12442 1.10429 0
M  V30 16242 C 1555.87 0.805377 2.20343 0
M  V30 16243 C 1556.89 -0.205836 1.72778 0
M  V30 16244 O 1558.06 -0.0394195 2.01361 0
M  V30 16245 C 1555.13 0.264711 3.45688 0
M  V30 16246 C 1554.19 1.33586 4.07987 0
M  V30 16247 C 1553.42 0.8209 5.27349 0
M  V30 16248 O 1553.65 -0.345303 5.69354 0
M  V30 16249 O 1552.58 1.59052 5.80505 0
M  V30 16250 H 1556.41 1.7234 2.50065 0
M  V30 16251 H 1553.99 0.901084 1.19167 0
M  V30 16252 H 1555.87 -0.0319164 4.21388 0
M  V30 16253 H 1554.55 -0.625869 3.17592 0
M  V30 16254 H 1553.45 1.68566 3.33971 0
M  V30 16255 H 1554.79 2.20021 4.40286 0
M  V30 16256 N 1556.44 -1.28223 0.91633 0
M  V30 16257 C 1557.86 -1.47281 0.614864 0
M  V30 16258 C 1558.06 -1.83197 -0.839111 0
M  V30 16259 O 1557.11 -1.9385 -1.61798 0
M  V30 16260 C 1558.42 -2.57373 1.55498 0
M  V30 16261 C 1559.97 -2.71241 1.56197 0
M  V30 16262 C 1560.45 -3.84479 2.48877 0
M  V30 16263 N 1561.94 -3.91837 2.47019 0
M  V30 16264 C 1562.67 -4.78846 3.15427 0
M  V30 16265 N 1562.17 -5.70427 3.93173 0
M  V30 16266 N 1563.96 -4.72478 3.04501 0
M  V30 16267 H 1556.11 -1.03191 1.85649 0
M  V30 16268 H 1558.38 -0.514213 0.796422 0
M  V30 16269 H 1558.08 -2.37747 2.5917 0
M  V30 16270 H 1557.96 -3.54527 1.28803 0
M  V30 16271 H 1560.34 -2.90254 0.532619 0
M  V30 16272 H 1560.42 -1.74609 1.86937 0
M  V30 16273 H 1560.07 -3.6622 3.51916 0
M  V30 16274 H 1560 -4.80514 2.15439 0
M  V30 16275 H 1562.49 -3.26344 1.90546 0
M  V30 16276 H 1562.8 -6.33653 4.42384 0
M  V30 16277 H 1561.15 -5.70259 3.97278 0
M  V30 16278 H 1564.34 -3.99925 2.43265 0
M  V30 16279 H 1564.51 -5.40073 3.58086 0
M  V30 16280 N 1557.92 -0.68059 -1.42147 0
M  V30 16281 C 1559.17 -0.204857 -2.01059 0
M  V30 16282 C 1559.49 1.19475 -1.54113 0
M  V30 16283 O 1558.76 1.80334 -0.765279 0
M  V30 16284 H 1557.34 -0.0727459 -0.743449 0
M  V30 16285 H 1560 -0.878396 -1.73983 0
M  V30 16286 H 1559.09 -0.210628 -3.11388 0
M  V30 16287 N 1559.4 1.51781 -0.424309 0
M  V30 16288 C 1560.34 2.27418 0.393668 0
M  V30 16289 C 1561.31 1.3046 1.02808 0
M  V30 16290 O 1562.5 1.59345 1.04946 0
M  V30 16291 C 1559.64 3.10983 1.49611 0
M  V30 16292 C 1558.75 4.22919 0.881123 0
M  V30 16293 C 1557.89 4.93816 1.95752 0
M  V30 16294 C 1556.92 5.97691 1.32028 0
M  V30 16295 N 1556.06 6.62047 2.33747 0
M  V30 16296 H 1560.9 2.96883 -0.257731 0
M  V30 16297 H 1558.44 1.46442 -0.138942 0
M  V30 16298 H 1560.4 3.57749 2.14642 0
M  V30 16299 H 1559.03 2.43658 2.11732 0
M  V30 16300 H 1558.08 3.80212 0.119445 0
M  V30 16301 H 1559.39 4.97383 0.375764 0
M  V30 16302 H 1558.54 5.44064 2.68476 0
M  V30 16303 H 1557.28 4.18954 2.49658 0
M  V30 16304 H 1556.29 5.46749 0.578444 0
M  V30 16305 H 1557.51 6.74504 0.788722 0
M  V30 16306 H 1555.46 5.90005 2.86757 0
M  V30 16307 H 1555.38 7.32234 1.88066 0
M  V30 16308 H 1556.64 7.16929 3.05995 0
M  V30 16309 N 1560.87 0.155222 1.56834 0
M  V30 16310 C 1562.1 -0.500542 2.00754 0
M  V30 16311 C 1562.52 -1.57878 1.03538 0
M  V30 16312 O 1561.87 -1.82469 0.0336651 0
M  V30 16313 C 1561.92 -1.09366 3.4456 0
M  V30 16314 O 1561.65 -0.0584788 4.38061 0
M  V30 16315 C 1563.15 -1.82923 4.038 0
M  V30 16316 H 1560.37 -0.129589 0.658368 0
M  V30 16317 H 1562.91 0.252223 2.02939 0
M  V30 16318 H 1561.07 -1.797 3.43201 0
M  V30 16319 H 1561.48 -0.494125 5.22167 0
M  V30 16320 H 1562.95 -2.19703 5.06394 0
M  V30 16321 H 1563.43 -2.71823 3.44976 0
M  V30 16322 H 1564.04 -1.17268 4.08813 0
M  V30 16323 N 1562.35 -1.57153 -0.118549 0
M  V30 16324 C 1563.28 -2.03409 -1.1466 0
M  V30 16325 C 1564.26 -0.918636 -1.43161 0
M  V30 16326 O 1565.45 -1.18838 -1.53594 0
M  V30 16327 C 1562.58 -2.43879 -2.47265 0
M  V30 16328 C 1561.53 -3.58873 -2.33225 0
M  V30 16329 C 1560.86 -3.85244 -3.70798 0
M  V30 16330 C 1562.16 -4.90582 -1.79239 0
M  V30 16331 H 1563.85 -2.89545 -0.761862 0
M  V30 16332 H 1561.4 -1.39296 -0.365034 0
M  V30 16333 H 1563.35 -2.74844 -3.19435 0
M  V30 16334 H 1562.07 -1.54715 -2.8763 0
M  V30 16335 H 1560.73 -3.28119 -1.63504 0
M  V30 16336 H 1560.38 -2.93285 -4.08648 0
M  V30 16337 H 1560.08 -4.62649 -3.62257 0
M  V30 16338 H 1561.61 -4.18661 -4.44472 0
M  V30 16339 H 1563.02 -5.20079 -2.41227 0
M  V30 16340 H 1561.42 -5.71989 -1.81518 0
M  V30 16341 H 1562.49 -4.79065 -0.74999 0
M  V30 16342 N 1563.83 0.388742 -1.5273 0
M  V30 16343 C 1564.78 1.47445 -1.73908 0
M  V30 16344 C 1565.76 1.49567 -0.593164 0
M  V30 16345 O 1566.96 1.552 -0.851006 0
M  V30 16346 C 1564.08 2.85155 -1.91159 0
M  V30 16347 C 1563.17 2.87601 -3.11683 0
M  V30 16348 N 1563.56 2.59718 -4.34028 0
M  V30 16349 C 1561.86 3.18769 -3.11933 0
M  V30 16350 C 1562.56 2.69254 -5.15633 0
M  V30 16351 N 1561.54 3.02996 -4.51325 0
M  V30 16352 H 1565.34 1.24714 -2.66127 0
M  V30 16353 H 1562.85 0.596694 -1.51041 0
M  V30 16354 H 1564.85 3.63325 -2.04452 0
M  V30 16355 H 1563.51 3.08868 -1.00153 0
M  V30 16356 H 1564.52 2.33735 -4.62156 0
M  V30 16357 H 1561.2 3.47946 -2.30738 0
M  V30 16358 H 1562.59 2.51239 -6.2316 0
M  V30 16359 N 1565.31 1.43698 0.647203 0
M  V30 16360 C 1566.56 1.44918 1.40292 0
M  V30 16361 C 1566.87 0.0794243 1.95439 0
M  V30 16362 O 1568.08 -0.0309052 2.71482 0
M  V30 16363 C 1566.53 2.55052 2.53923 0
M  V30 16364 C 1566.14 3.98161 2.05357 0
M  V30 16365 C 1567.88 2.65473 3.31246 0
M  V30 16366 C 1565.79 4.99749 3.16235 0
M  V30 16367 H 1564.72 0.539106 0.527144 0
M  V30 16368 H 1567.37 1.69708 0.697951 0
M  V30 16369 H 1565.75 2.23473 3.26919 0
M  V30 16370 H 1566.93 4.3923 1.39333 0
M  V30 16371 H 1565.24 3.91839 1.40896 0
M  V30 16372 H 1567.84 3.38546 4.13873 0
M  V30 16373 H 1568.18 1.70745 3.79673 0
M  V30 16374 H 1568.72 2.96383 2.65334 0
M  V30 16375 H 1565.45 5.96051 2.7277 0
M  V30 16376 H 1564.97 4.63288 3.80952 0
M  V30 16377 H 1566.65 5.22725 3.81271 0
M  V30 16378 N 1566.79 -0.886131 1.30328 0
M  V30 16379 C 1567.73 -1.99174 1.16612 0
M  V30 16380 C 1568.7 -1.66006 0.0559202 0
M  V30 16381 O 1569.89 -1.89458 0.225897 0
M  V30 16382 C 1567.03 -3.34142 0.862726 0
M  V30 16383 C 1566.14 -3.80008 2.05469 0
M  V30 16384 C 1565.28 -5.03617 1.68949 0
M  V30 16385 C 1564.32 -5.41888 2.84647 0
M  V30 16386 N 1563.45 -6.56678 2.48431 0
M  V30 16387 H 1568.29 -2.10238 2.11197 0
M  V30 16388 H 1565.83 -1.02941 1.05079 0
M  V30 16389 H 1567.79 -4.11826 0.667447 0
M  V30 16390 H 1566.42 -3.22767 -0.0462461 0
M  V30 16391 H 1565.47 -2.98243 2.36126 0
M  V30 16392 H 1566.78 -4.04312 2.92119 0
M  V30 16393 H 1565.94 -5.88923 1.45789 0
M  V30 16394 H 1564.67 -4.81182 0.794674 0
M  V30 16395 H 1563.68 -4.55109 3.08474 0
M  V30 16396 H 1564.9 -5.66296 3.74813 0
M  V30 16397 H 1562.85 -6.35821 1.61453 0
M  V30 16398 H 1562.77 -6.80846 3.28611 0
M  V30 16399 H 1564.04 -7.45219 2.28624 0
M  V30 16400 N 1568.26 -1.13026 -1.09832 0
M  V30 16401 C 1569.23 -0.806832 -2.14529 0
M  V30 16402 C 1570.23 0.18175 -1.5977 0
M  V30 16403 O 1571.42 -0.0448155 -1.74142 0
M  V30 16404 C 1568.55 -0.200093 -3.40312 0
M  V30 16405 H 1569.74 -1.73453 -2.44651 0
M  V30 16406 H 1567.3 -0.934331 -1.25299 0
M  V30 16407 H 1568.03 0.737028 -3.15814 0
M  V30 16408 H 1567.82 -0.911945 -3.81348 0
M  V30 16409 H 1569.31 0.00948247 -4.17599 0
M  V30 16410 N 1569.74 1.27735 -0.923117 0
M  V30 16411 C 1570.67 2.29395 -0.435907 0
M  V30 16412 C 1571.65 1.62542 0.501403 0
M  V30 16413 O 1572.84 1.89884 0.407135 0
M  V30 16414 C 1569.97 3.45856 0.316348 0
M  V30 16415 C 1568.92 4.24672 -0.532697 0
M  V30 16416 C 1568.25 5.33563 0.348454 0
M  V30 16417 C 1569.55 4.90494 -1.79481 0
M  V30 16418 H 1571.24 2.70398 -1.28551 0
M  V30 16419 H 1568.79 1.29989 -0.619581 0
M  V30 16420 H 1570.74 4.1607 0.668098 0
M  V30 16421 H 1569.47 3.03758 1.19994 0
M  V30 16422 H 1568.12 3.56198 -0.867093 0
M  V30 16423 H 1567.77 4.87708 1.23086 0
M  V30 16424 H 1567.47 5.87202 -0.216104 0
M  V30 16425 H 1569 6.06622 0.695878 0
M  V30 16426 H 1570.41 5.53019 -1.5114 0
M  V30 16427 H 1568.81 5.5417 -2.30251 0
M  V30 16428 H 1569.88 4.14454 -2.51707 0
M  V30 16429 N 1571.22 0.688118 1.41784 0
M  V30 16430 C 1572.18 0.0271411 2.29184 0
M  V30 16431 C 1573.18 -0.715537 1.44002 0
M  V30 16432 O 1574.37 -0.551542 1.65238 0
M  V30 16433 C 1571.51 -0.97206 3.26747 0
M  V30 16434 H 1572.7 0.79658 2.89127 0
M  V30 16435 H 1570.25 0.451198 1.49646 0
M  V30 16436 H 1570.99 -1.76953 2.71769 0
M  V30 16437 H 1570.77 -0.442746 3.89592 0
M  V30 16438 H 1572.26 -1.43256 3.92259 0
M  V30 16439 N 1572.7 -1.51554 0.432352 0
M  V30 16440 C 1573.94 -2.02344 -0.13598 0
M  V30 16441 C 1574.28 -1.31619 -1.42794 0
M  V30 16442 O 1573.55 -0.42957 -1.89697 0
M  V30 16443 C 1573.84 -3.58297 -0.359865 0
M  V30 16444 C 1573.69 -4.39645 0.950399 0
M  V30 16445 C 1575.01 -4.25297 -1.13184 0
M  V30 16446 H 1572.13 -0.735439 -0.0479461 0
M  V30 16447 H 1574.77 -1.81237 0.570373 0
M  V30 16448 H 1572.92 -3.76413 -0.961547 0
M  V30 16449 H 1574.59 -4.3319 1.58568 0
M  V30 16450 H 1572.83 -4.04928 1.55614 0
M  V30 16451 H 1573.5 -5.46911 0.747852 0
M  V30 16452 H 1575.98 -4.11421 -0.622231 0
M  V30 16453 H 1574.86 -5.34307 -1.25726 0
M  V30 16454 H 1575.12 -3.85818 -2.15862 0
M  V30 16455 N 1574.18 -0.163538 -1.56749 0
M  V30 16456 C 1575.4 0.493087 -2.01453 0
M  V30 16457 C 1575.83 1.56535 -1.043 0
M  V30 16458 O 1575.18 1.81287 -0.0213039 0
M  V30 16459 C 1575.23 1.05546 -3.44808 0
M  V30 16460 O 1574.34 2.16977 -3.50706 0
M  V30 16461 H 1573.68 0.118905 -0.653267 0
M  V30 16462 H 1576.21 -0.265139 -2.02875 0
M  V30 16463 H 1576.22 1.38002 -3.83953 0
M  V30 16464 H 1574.89 0.270333 -4.1502 0
M  V30 16465 H 1573.47 1.85625 -3.23416 0
M  V30 16466 N 1575.65 1.57214 0.110213 0
M  V30 16467 C 1576.93 1.76298 0.847249 0
M  V30 16468 C 1577.31 0.741294 1.97656 0
M  V30 16469 O 1576.66 -0.233104 2.27308 0
M  V30 16470 C 1576.87 3.21588 1.35582 0
M  V30 16471 C 1578.22 3.8434 1.80465 0
M  V30 16472 O 1579.24 3.25244 1.45241 0
M  V30 16473 O 1578.1 4.88231 2.45546 0
M  V30 16474 H 1575.19 0.722167 0.402993 0
M  V30 16475 H 1577.74 1.69443 0.0932694 0
M  V30 16476 H 1576.51 3.87472 0.54599 0
M  V30 16477 H 1576.14 3.33015 2.17225 0
M  V30 16478 N 1577.13 -0.380637 1.52934 0
M  V30 16479 C 1578.06 -1.47174 1.81279 0
M  V30 16480 C 1579.04 -1.56549 0.665319 0
M  V30 16481 O 1580.23 -1.71362 0.913722 0
M  V30 16482 C 1577.36 -2.84691 1.98918 0
M  V30 16483 C 1576.31 -2.90151 3.14637 0
M  V30 16484 C 1575.64 -4.30198 3.17544 0
M  V30 16485 C 1576.94 -2.59037 4.53539 0
M  V30 16486 H 1578.63 -1.23703 2.7265 0
M  V30 16487 H 1576.18 -0.593654 1.31194 0
M  V30 16488 H 1578.13 -3.61034 2.1733 0
M  V30 16489 H 1576.86 -3.09517 1.04244 0
M  V30 16490 H 1575.51 -2.16257 2.96021 0
M  V30 16491 H 1575.16 -4.52076 2.20536 0
M  V30 16492 H 1574.86 -4.3477 3.95284 0
M  V30 16493 H 1576.39 -5.08435 3.38121 0
M  V30 16494 H 1577.8 -3.25096 4.72214 0
M  V30 16495 H 1576.2 -2.74946 5.33408 0
M  V30 16496 H 1577.27 -1.54342 4.59681 0
M  V30 16497 N 1578.61 -1.44039 -0.639573 0
M  V30 16498 C 1579.56 -1.50541 -1.77314 0
M  V30 16499 C 1580.55 -0.37781 -1.65133 0
M  V30 16500 O 1581.76 -0.552396 -1.71314 0
M  V30 16501 H 1578.13 -0.472221 -0.585245 0
M  V30 16502 H 1580.1 -2.45964 -1.68951 0
M  V30 16503 C 1578.85 -1.45868 -3.15623 0
M  V30 16504 H 1578.18 -2.31946 -3.25639 0
M  V30 16505 H 1579.62 -1.54479 -3.94857 0
M  V30 16506 C 1578.08 -0.178204 -3.36428 0
M  V30 16507 O 1578.61 0.755017 -3.94541 0
M  V30 16508 N 1576.81 -0.0840295 -2.90478 0
M  V30 16509 H 1576.36 -0.844281 -2.43371 0
M  V30 16510 H 1576.32 0.771988 -3.04775 0
M  V30 16511 N 1580.09 0.879207 -1.30796 0
M  V30 16512 C 1581.5 1.16344 -1.09253 0
M  V30 16513 C 1581.7 2.00992 0.142993 0
M  V30 16514 O 1580.76 2.38295 0.834966 0
M  V30 16515 C 1582.07 1.86452 -2.35915 0
M  V30 16516 C 1583.62 1.99193 -2.41436 0
M  V30 16517 C 1584.1 2.72714 -3.67955 0
M  V30 16518 N 1585.59 2.80256 -3.68796 0
M  V30 16519 C 1586.32 3.37732 -4.63384 0
M  V30 16520 N 1585.82 3.96212 -5.6832 0
M  V30 16521 N 1587.61 3.35602 -4.50918 0
M  V30 16522 H 1579.76 0.314928 -2.10052 0
M  V30 16523 H 1582.03 0.202087 -0.92621 0
M  V30 16524 H 1581.73 1.31699 -3.26111 0
M  V30 16525 H 1581.61 2.86796 -2.45006 0
M  V30 16526 H 1583.99 2.53113 -1.51716 0
M  V30 16527 H 1584.07 0.97919 -2.36317 0
M  V30 16528 H 1583.72 2.19464 -4.58037 0
M  V30 16529 H 1583.65 3.74376 -3.70338 0
M  V30 16530 H 1586.14 2.38742 -2.92935 0
M  V30 16531 H 1586.45 4.38153 -6.36586 0
M  V30 16532 H 1584.8 3.94615 -5.72105 0
M  V30 16533 H 1587.99 2.89147 -3.68119 0
M  V30 16534 H 1588.16 3.80099 -5.24813 0
M  V30 16535 N 1581.57 1.13606 1.09231 0
M  V30 16536 C 1582.53 0.818197 2.14099 0
M  V30 16537 C 1583.53 -0.173275 1.59864 0
M  V30 16538 O 1584.72 0.05405 1.74116 0
M  V30 16539 C 1581.85 0.218138 3.40201 0
M  V30 16540 H 1583.05 1.74748 2.43727 0
M  V30 16541 H 1580.6 0.940962 1.24802 0
M  V30 16542 H 1581.33 -0.720269 3.162 0
M  V30 16543 H 1581.12 0.932156 3.80859 0
M  V30 16544 H 1582.61 0.0126639 4.17598 0
M  V30 16545 N 1583.05 -1.27244 0.929878 0
M  V30 16546 C 1584.29 -1.93886 0.570331 0
M  V30 16547 C 1584.61 -1.7342 -0.891656 0
M  V30 16548 O 1583.88 -1.0832 -1.63228 0
M  V30 16549 H 1582.46 -0.717476 0.207937 0
M  V30 16550 H 1585.13 -1.5491 1.18275 0
M  V30 16551 H 1584.22 -3.02236 0.778463 0
M  V30 16552 N 1584.52 -0.695628 -1.41417 0
M  V30 16553 C 1585.46 0.00883515 -2.29198 0
M  V30 16554 C 1586.47 0.744337 -1.44788 0
M  V30 16555 O 1587.66 0.59503 -1.6829 0
M  V30 16556 C 1584.76 1.0366 -3.22657 0
M  V30 16557 C 1583.93 0.37071 -4.35826 0
M  V30 16558 C 1582.99 1.3011 -5.09861 0
M  V30 16559 O 1582.02 0.793461 -5.63642 0
M  V30 16560 N 1583.22 2.63343 -5.1733 0
M  V30 16561 H 1585.98 -0.744795 -2.90298 0
M  V30 16562 H 1583.54 -0.541663 -1.5257 0
M  V30 16563 H 1585.54 1.66075 -3.69054 0
M  V30 16564 H 1584.11 1.69177 -2.62865 0
M  V30 16565 H 1583.33 -0.433315 -3.91811 0
M  V30 16566 H 1584.61 -0.0923178 -5.08716 0
M  V30 16567 H 1584.01 3.07103 -4.75083 0
M  V30 16568 H 1582.57 3.20952 -5.67303 0
M  V30 16569 N 1586 1.51322 -0.440383 0
M  V30 16570 C 1587.42 1.5933 -0.0928372 0
M  V30 16571 C 1587.62 1.45107 1.39807 0
M  V30 16572 O 1586.67 1.29385 2.16831 0
M  V30 16573 C 1587.99 2.9433 -0.615663 0
M  V30 16574 C 1589.53 3.07647 -0.576373 0
M  V30 16575 C 1590.01 4.45176 -1.07622 0
M  V30 16576 N 1591.5 4.51504 -1.03434 0
M  V30 16577 C 1592.24 5.56249 -1.39194 0
M  V30 16578 N 1591.73 6.68398 -1.82254 0
M  V30 16579 N 1593.52 5.46624 -1.30991 0
M  V30 16580 H 1585.68 1.58812 -1.41041 0
M  V30 16581 H 1587.94 0.748795 -0.581386 0
M  V30 16582 H 1587.64 3.10117 -1.65892 0
M  V30 16583 H 1587.52 3.77176 -0.0422513 0
M  V30 16584 H 1589.91 2.91526 0.457904 0
M  V30 16585 H 1589.99 2.26633 -1.18622 0
M  V30 16586 H 1589.63 4.62044 -2.10898 0
M  V30 16587 H 1589.56 5.24734 -0.442882 0
M  V30 16588 H 1592.05 3.71013 -0.718156 0
M  V30 16589 H 1592.36 7.44347 -2.07769 0
M  V30 16590 H 1590.71 6.69598 -1.86183 0
M  V30 16591 H 1593.9 4.57894 -0.972145 0
M  V30 16592 H 1594.07 6.28143 -1.59188 0
M  V30 16593 N 1587.48 0.171848 1.5666 0
M  V30 16594 C 1588.41 -0.789671 2.15167 0
M  V30 16595 C 1589.42 -1.19335 1.10739 0
M  V30 16596 O 1590.61 -1.13311 1.37924 0
M  V30 16597 C 1587.71 -2.07448 2.6799 0
M  V30 16598 C 1586.89 -1.83429 3.9708 0
M  V30 16599 C 1585.95 -2.96134 4.34961 0
M  V30 16600 O 1584.97 -2.66746 5.02827 0
M  V30 16601 N 1586.17 -4.23932 3.96563 0
M  V30 16602 H 1588.94 -0.289484 2.98299 0
M  V30 16603 H 1586.5 -0.0109154 1.61896 0
M  V30 16604 H 1588.49 -2.81941 2.90329 0
M  V30 16605 H 1587.06 -2.48656 1.89444 0
M  V30 16606 H 1586.28 -0.928376 3.83112 0
M  V30 16607 H 1587.57 -1.64749 4.81389 0
M  V30 16608 H 1586.97 -4.50668 3.41928 0
M  V30 16609 H 1585.52 -4.95126 4.23903 0
M  V30 16610 N 1588.96 -1.5727 -0.101874 0
M  V30 16611 C 1590.2 -1.86017 -0.807795 0
M  V30 16612 C 1590.54 -0.760024 -1.7871 0
M  V30 16613 O 1589.81 0.232627 -1.93104 0
M  V30 16614 C 1590.09 -3.25388 -1.54255 0
M  V30 16615 C 1589.95 -4.46023 -0.581693 0
M  V30 16616 C 1591.27 -3.62561 -2.49474 0
M  V30 16617 H 1588.39 -0.676596 -0.29221 0
M  V30 16618 H 1591.03 -1.89865 -0.0715861 0
M  V30 16619 H 1589.18 -3.22239 -2.17013 0
M  V30 16620 H 1590.85 -4.61284 0.0383529 0
M  V30 16621 H 1589.09 -4.33672 0.105465 0
M  V30 16622 H 1589.76 -5.40251 -1.1328 0
M  V30 16623 H 1592.24 -3.66611 -1.96813 0
M  V30 16624 H 1591.12 -4.61025 -2.97905 0
M  V30 16625 H 1591.38 -2.90885 -3.32924 0
M  V30 16626 N 1590.44 0.372521 -1.53134 0
M  V30 16627 C 1591.68 1.11589 -1.6898 0
M  V30 16628 C 1592.01 1.89503 -0.438049 0
M  V30 16629 O 1591.27 1.86911 0.579891 0
M  V30 16630 C 1591.56 2.10742 -2.88656 0
M  V30 16631 C 1591.23 1.49361 -4.25443 0
M  V30 16632 C 1589.89 1.32348 -4.62642 0
M  V30 16633 C 1592.24 1.04889 -5.10537 0
M  V30 16634 C 1589.57 0.694368 -5.82577 0
M  V30 16635 C 1591.92 0.433809 -6.31111 0
M  V30 16636 C 1590.59 0.251118 -6.67027 0
M  V30 16637 H 1589.86 0.408333 -0.618341 0
M  V30 16638 H 1592.51 0.398507 -1.87308 0
M  V30 16639 H 1590.81 2.88759 -2.64812 0
M  V30 16640 H 1592.51 2.682 -2.98111 0
M  V30 16641 H 1589.1 1.63594 -3.9615 0
M  V30 16642 H 1593.28 1.16829 -4.82353 0
M  V30 16643 H 1588.54 0.541171 -6.09 0
M  V30 16644 H 1592.71 0.0809859 -6.96353 0
M  V30 16645 H 1590.34 -0.23844 -7.59826 0
M  V30 16646 N 1591.91 1.44376 0.631925 0
M  V30 16647 C 1593.16 1.47117 1.3915 0
M  V30 16648 C 1593.49 0.10347 1.94225 0
M  V30 16649 O 1592.74 -0.894623 1.74055 0
M  V30 16650 C 1593.04 2.47828 2.57519 0
M  V30 16651 C 1592.71 3.93174 2.20738 0
M  V30 16652 C 1591.37 4.32755 2.1042 0
M  V30 16653 C 1593.72 4.8468 1.91664 0
M  V30 16654 C 1591.05 5.61768 1.69214 0
M  V30 16655 C 1593.4 6.14079 1.51951 0
M  V30 16656 C 1592.07 6.52616 1.40174 0
M  V30 16657 H 1591.34 0.538341 0.509186 0
M  V30 16658 H 1593.98 1.77584 0.716663 0
M  V30 16659 H 1592.29 2.10841 3.30232 0
M  V30 16660 H 1593.99 2.47196 3.15746 0
M  V30 16661 H 1590.58 3.61859 2.29687 0
M  V30 16662 H 1594.76 4.54855 1.98546 0
M  V30 16663 H 1590.02 5.90444 1.58699 0
M  V30 16664 H 1594.19 6.84443 1.28493 0
M  V30 16665 H 1591.82 7.52487 1.08017 0
M  V30 16666 N 1593.39 -0.872258 1.31261 0
M  V30 16667 C 1594.3 -2.01185 1.20673 0
M  V30 16668 C 1595.32 -1.73558 0.123921 0
M  V30 16669 O 1596.49 -1.98487 0.341288 0
M  V30 16670 C 1593.56 -3.34481 0.91232 0
M  V30 16671 C 1592.62 -3.75446 2.08179 0
M  V30 16672 C 1591.85 -5.02382 1.80134 0
M  V30 16673 O 1592.08 -5.6564 0.735358 0
M  V30 16674 O 1591.01 -5.40059 2.65744 0
M  V30 16675 H 1594.84 -2.13049 2.16434 0
M  V30 16676 H 1592.42 -1.00021 1.10978 0
M  V30 16677 H 1594.3 -4.14419 0.763879 0
M  V30 16678 H 1592.98 -3.23696 -0.0152802 0
M  V30 16679 H 1591.88 -2.96159 2.28562 0
M  V30 16680 H 1593.22 -3.90853 2.99156 0
M  V30 16681 N 1594.87 -1.14184 -1.08627 0
M  V30 16682 C 1595.8 -0.849455 -2.17501 0
M  V30 16683 C 1596.78 0.194617 -1.68983 0
M  V30 16684 O 1597.97 0.0517757 -1.94131 0
M  V30 16685 C 1595.1 -0.323685 -3.45788 0
M  V30 16686 C 1594.05 -1.30294 -4.07685 0
M  V30 16687 C 1593.38 -0.636575 -5.30897 0
M  V30 16688 C 1594.68 -2.66441 -4.49229 0
M  V30 16689 H 1596.37 -1.75987 -2.42217 0
M  V30 16690 H 1593.92 -0.847595 -1.16412 0
M  V30 16691 H 1595.87 -0.106754 -4.21265 0
M  V30 16692 H 1594.59 0.62215 -3.20619 0
M  V30 16693 H 1593.25 -1.50601 -3.34238 0
M  V30 16694 H 1592.9 0.314995 -5.02013 0
M  V30 16695 H 1592.6 -1.28998 -5.73266 0
M  V30 16696 H 1594.12 -0.429117 -6.0909 0
M  V30 16697 H 1595.54 -2.50055 -5.15893 0
M  V30 16698 H 1593.93 -3.28033 -5.02508 0
M  V30 16699 H 1595 -3.23486 -3.61226 0
M  V30 16700 N 1596.35 1.26749 -0.936613 0
M  V30 16701 C 1597.3 2.28528 -0.433328 0
M  V30 16702 C 1598.29 1.62248 0.487012 0
M  V30 16703 O 1599.5 1.76245 0.36573 0
M  V30 16704 H 1595.87 0.742106 -0.121583 0
M  V30 16705 H 1597.84 2.68382 -1.30436 0
M  V30 16706 C 1596.59 3.46485 0.290366 0
M  V30 16707 H 1595.91 3.97706 -0.408649 0
M  V30 16708 H 1597.35 4.19635 0.606807 0
M  V30 16709 C 1595.81 3.01339 1.50654 0
M  V30 16710 O 1596.34 3.05781 2.60501 0
M  V30 16711 N 1594.55 2.56732 1.3615 0
M  V30 16712 H 1594.1 2.53317 0.467788 0
M  V30 16713 H 1594.05 2.26888 2.17645 0
M  V30 16714 N 1597.83 0.703118 1.41046 0
M  V30 16715 C 1599.07 0.236818 2.00708 0
M  V30 16716 C 1599.4 -1.17008 1.55994 0
M  V30 16717 O 1598.67 -1.79094 0.793871 0
M  V30 16718 H 1597.25 0.0845643 0.742198 0
M  V30 16719 H 1599.91 0.905964 1.72564 0
M  V30 16720 H 1599 0.260141 3.11014 0
M  V30 16721 N 1599.3 -1.51086 0.448402 0
M  V30 16722 C 1600.24 -2.25799 -0.393401 0
M  V30 16723 C 1601.25 -1.30241 -0.976792 0
M  V30 16724 O 1602.44 -1.55916 -0.869051 0
M  V30 16725 C 1599.54 -3.00682 -1.56345 0
M  V30 16726 C 1598.71 -4.23421 -1.09695 0
M  V30 16727 C 1597.77 -4.8079 -2.1384 0
M  V30 16728 O 1596.8 -5.42329 -1.72823 0
M  V30 16729 N 1598 -4.65792 -3.46437 0
M  V30 16730 H 1600.76 -2.98681 0.246986 0
M  V30 16731 H 1598.32 -1.59497 0.277902 0
M  V30 16732 H 1600.32 -3.35945 -2.25662 0
M  V30 16733 H 1598.89 -2.30741 -2.10897 0
M  V30 16734 H 1598.11 -3.93526 -0.230457 0
M  V30 16735 H 1599.39 -5.03049 -0.762832 0
M  V30 16736 H 1598.79 -4.16799 -3.82486 0
M  V30 16737 H 1597.35 -5.05386 -4.11616 0
M  V30 16738 N 1600.78 -0.180154 -1.56567 0
M  V30 16739 C 1601.71 0.742131 -2.21393 0
M  V30 16740 C 1602.69 1.23253 -1.1723 0
M  V30 16741 O 1603.88 1.28408 -1.45688 0
M  V30 16742 C 1601.01 1.96799 -2.8616 0
M  V30 16743 C 1599.96 1.6131 -3.96438 0
M  V30 16744 C 1599.29 2.91434 -4.48297 0
M  V30 16745 C 1600.59 0.834382 -5.15592 0
M  V30 16746 H 1602.28 0.201759 -2.98719 0
M  V30 16747 H 1599.83 0.0956016 -1.43682 0
M  V30 16748 H 1601.78 2.61828 -3.30188 0
M  V30 16749 H 1600.51 2.53264 -2.06215 0
M  V30 16750 H 1599.16 0.986451 -3.53079 0
M  V30 16751 H 1598.81 3.45958 -3.65133 0
M  V30 16752 H 1598.51 2.68439 -5.22699 0
M  V30 16753 H 1600.04 3.57478 -4.95017 0
M  V30 16754 H 1601.45 1.38745 -5.56258 0
M  V30 16755 H 1599.85 0.703132 -5.95966 0
M  V30 16756 H 1600.92 -0.167554 -4.8461 0
M  V30 16757 N 1602.26 1.57322 0.0935319 0
M  V30 16758 C 1603.68 1.5319 0.447781 0
M  V30 16759 C 1603.88 0.897107 1.80428 0
M  V30 16760 O 1602.93 0.490285 2.47694 0
M  V30 16761 C 1604.25 2.97908 0.408832 0
M  V30 16762 C 1605.79 3.09132 0.490576 0
M  V30 16763 C 1606.27 4.55459 0.481759 0
M  V30 16764 N 1607.76 4.60013 0.542468 0
M  V30 16765 C 1608.49 5.70683 0.557509 0
M  V30 16766 N 1607.99 6.9078 0.528664 0
M  V30 16767 N 1609.78 5.58862 0.602438 0
M  V30 16768 H 1601.93 1.96962 -0.794965 0
M  V30 16769 H 1604.2 0.900583 -0.296064 0
M  V30 16770 H 1603.9 3.47823 -0.520766 0
M  V30 16771 H 1603.78 3.56678 1.22722 0
M  V30 16772 H 1606.16 2.59203 1.41059 0
M  V30 16773 H 1606.25 2.53311 -0.355982 0
M  V30 16774 H 1605.89 5.0604 -0.43432 0
M  V30 16775 H 1605.82 5.09119 1.34555 0
M  V30 16776 H 1608.31 3.73578 0.569892 0
M  V30 16777 H 1608.62 7.70887 0.543467 0
M  V30 16778 H 1606.97 6.9323 0.495687 0
M  V30 16779 H 1610.16 4.63942 0.622514 0
M  V30 16780 H 1610.33 6.45116 0.610691 0
M  V30 16781 N 1603.74 -0.364395 1.53329 0
M  V30 16782 C 1604.96 -1.13196 1.73786 0
M  V30 16783 C 1605.39 -1.82231 0.466224 0
M  V30 16784 O 1604.75 -1.71778 -0.579817 0
M  V30 16785 C 1604.79 -2.13704 2.90453 0
M  V30 16786 O 1603.9 -3.20808 2.59144 0
M  V30 16787 H 1603.24 -0.328387 0.577112 0
M  V30 16788 H 1605.77 -0.421157 2.00218 0
M  V30 16789 H 1605.78 -2.57285 3.16652 0
M  V30 16790 H 1604.45 -1.6285 3.82691 0
M  V30 16791 H 1603.03 -2.82192 2.43767 0
M  V30 16792 N 1605.22 -1.44709 -0.62426 0
M  V30 16793 C 1606.47 -1.47131 -1.37968 0
M  V30 16794 C 1606.78 -0.110507 -1.95288 0
M  V30 16795 O 1607.98 -0.0122892 -2.71497 0
M  V30 16796 C 1606.44 -2.59059 -2.49833 0
M  V30 16797 C 1606.05 -4.01378 -1.98997 0
M  V30 16798 C 1607.79 -2.70709 -3.26981 0
M  V30 16799 C 1605.7 -5.04717 -3.08244 0
M  V30 16800 H 1604.63 -0.547424 -0.5185 0
M  V30 16801 H 1607.28 -1.70797 -0.670863 0
M  V30 16802 H 1605.66 -2.28646 -3.23322 0
M  V30 16803 H 1606.84 -4.41391 -1.32327 0
M  V30 16804 H 1605.15 -3.9403 -1.34644 0
M  V30 16805 H 1607.75 -3.45087 -4.08435 0
M  V30 16806 H 1608.09 -1.76763 -3.76909 0
M  V30 16807 H 1608.62 -3.00566 -2.60585 0
M  V30 16808 H 1605.36 -6.00315 -2.63253 0
M  V30 16809 H 1604.88 -4.6929 -3.73534 0
M  V30 16810 H 1606.56 -5.28725 -3.72906 0
M  V30 16811 N 1606.69 0.865285 -1.31722 0
M  V30 16812 C 1607.62 1.98871 -1.22362 0
M  V30 16813 C 1608.61 1.69745 -0.109779 0
M  V30 16814 O 1609.79 1.91944 -0.295167 0
M  V30 16815 C 1606.92 3.34477 -0.935 0
M  V30 16816 C 1605.87 3.77924 -2.00892 0
M  V30 16817 C 1605.2 5.11042 -1.57291 0
M  V30 16818 C 1606.5 3.94528 -3.42264 0
M  V30 16819 H 1608.19 2.06959 -2.16352 0
M  V30 16820 H 1605.74 0.994355 -1.04157 0
M  V30 16821 H 1607.69 4.12612 -0.856111 0
M  V30 16822 H 1606.42 3.26575 0.0405536 0
M  V30 16823 H 1605.08 3.02032 -2.07779 0
M  V30 16824 H 1604.72 4.99586 -0.585084 0
M  V30 16825 H 1604.42 5.41082 -2.29138 0
M  V30 16826 H 1605.95 5.91681 -1.50818 0
M  V30 16827 H 1607.36 4.63045 -3.38027 0
M  V30 16828 H 1605.76 4.35972 -4.12369 0
M  V30 16829 H 1606.83 2.97765 -3.82706 0
M  V30 16830 N 1608.17 1.14759 1.0802 0
M  V30 16831 C 1609.42 0.919609 1.80751 0
M  V30 16832 C 1609.75 -0.552268 1.86182 0
M  V30 16833 O 1609.03 -1.40922 1.34057 0
M  V30 16834 C 1609.31 1.52611 3.26162 0
M  V30 16835 C 1609.16 3.06811 3.28918 0
M  V30 16836 C 1610.48 1.20625 4.23246 0
M  V30 16837 H 1607.6 0.33551 0.656203 0
M  V30 16838 H 1610.24 1.41816 1.26444 0
M  V30 16839 H 1608.39 1.10213 3.72539 0
M  V30 16840 H 1610.06 3.58068 2.90835 0
M  V30 16841 H 1608.31 3.41055 2.68075 0
M  V30 16842 H 1608.98 3.44357 4.31419 0
M  V30 16843 H 1611.45 1.57287 3.85227 0
M  V30 16844 H 1610.33 1.65689 5.23296 0
M  V30 16845 H 1610.59 0.122177 4.41931 0
M  V30 16846 N 1609.65 -1.26251 0.943322 0
M  V30 16847 C 1610.6 -2.26304 0.453315 0
M  V30 16848 C 1611.57 -1.58764 -0.488168 0
M  V30 16849 O 1612.75 -1.86476 -0.403906 0
M  V30 16850 C 1609.89 -3.44015 -0.273393 0
M  V30 16851 C 1609.01 -4.26225 0.70401 0
M  V30 16852 C 1608.14 -5.31182 -0.0441134 0
M  V30 16853 C 1607.18 -6.05071 0.924971 0
M  V30 16854 N 1606.32 -7.0179 0.208461 0
M  V30 16855 H 1611.16 -2.67591 1.31146 0
M  V30 16856 H 1608.69 -1.31567 0.657914 0
M  V30 16857 H 1610.65 -4.11094 -0.711192 0
M  V30 16858 H 1609.28 -3.03636 -1.09566 0
M  V30 16859 H 1608.33 -3.58915 1.26032 0
M  V30 16860 H 1609.65 -4.77442 1.44398 0
M  V30 16861 H 1608.8 -6.04282 -0.541091 0
M  V30 16862 H 1607.54 -4.80809 -0.816952 0
M  V30 16863 H 1606.54 -5.30795 1.43305 0
M  V30 16864 H 1607.77 -6.57533 1.69785 0
M  V30 16865 H 1605.71 -6.53725 -0.545846 0
M  V30 16866 H 1605.63 -7.5077 0.887725 0
M  V30 16867 H 1606.9 -7.79041 -0.267352 0
M  V30 16868 N 1611.13 -0.710588 -1.40671 0
M  V30 16869 C 1612.41 -0.175319 -1.94813 0
M  V30 16870 C 1612.79 1.31792 -1.64906 0
M  V30 16871 O 1612.13 2.07167 -0.964058 0
M  V30 16872 C 1612.34 -0.482691 -3.45646 0
M  V30 16873 C 1613.69 -0.418619 -4.22531 0
M  V30 16874 O 1614.72 -0.418463 -3.53733 0
M  V30 16875 O 1613.58 -0.391787 -5.45094 0
M  V30 16876 H 1610.67 -0.0237744 -0.826658 0
M  V30 16877 H 1613.22 -0.787778 -1.50307 0
M  V30 16878 H 1611.99 -1.51569 -3.60753 0
M  V30 16879 H 1611.61 0.159984 -3.97278 0
M  V30 16880 N 1612.61 1.50847 -0.456408 0
M  V30 16881 C 1613.84 2.0665 0.101737 0
M  V30 16882 C 1614.25 1.32188 1.34803 0
M  V30 16883 O 1613.61 0.38687 1.78352 0
M  V30 16884 C 1613.66 3.59227 0.404724 0
M  V30 16885 O 1613.38 4.30879 -0.79212 0
M  V30 16886 C 1614.88 4.31607 1.01145 0
M  V30 16887 H 1612.1 0.671 -0.000542219 0
M  V30 16888 H 1614.64 1.94195 -0.640974 0
M  V30 16889 H 1612.8 3.71533 1.09735 0
M  V30 16890 H 1613.21 5.21837 -0.527843 0
M  V30 16891 H 1614.69 5.39386 1.17332 0
M  V30 16892 H 1615.16 3.9114 1.99765 0
M  V30 16893 H 1615.77 4.23794 0.357645 0
M  V30 16894 N 1614.09 0.188454 1.56469 0
M  V30 16895 C 1615.02 -0.766806 2.15992 0
M  V30 16896 C 1616.03 -1.18153 1.11998 0
M  V30 16897 O 1617.22 -1.11842 1.39118 0
M  V30 16898 C 1614.32 -2.04594 2.70175 0
M  V30 16899 C 1613.49 -1.79207 3.99003 0
M  V30 16900 C 1612.55 -2.91504 4.38078 0
M  V30 16901 O 1611.58 -2.61397 5.05628 0
M  V30 16902 N 1612.78 -4.19702 4.01037 0
M  V30 16903 H 1615.54 -0.257829 2.98589 0
M  V30 16904 H 1613.11 0.00625645 1.61899 0
M  V30 16905 H 1615.1 -2.78846 2.93303 0
M  V30 16906 H 1613.67 -2.46633 1.9207 0
M  V30 16907 H 1612.89 -0.88769 3.84075 0
M  V30 16908 H 1614.18 -1.59634 4.83109 0
M  V30 16909 H 1613.57 -4.47016 3.46689 0
M  V30 16910 H 1612.13 -4.90602 4.2913 0
M  V30 16911 N 1615.56 -1.5737 -0.0851874 0
M  V30 16912 C 1616.53 -2.01789 -1.08692 0
M  V30 16913 C 1617.53 -0.912872 -1.32376 0
M  V30 16914 O 1618.72 -1.1781 -1.28322 0
M  V30 16915 C 1615.85 -2.38708 -2.43375 0
M  V30 16916 H 1617.04 -2.91511 -0.704359 0
M  V30 16917 H 1614.59 -1.52765 -0.330528 0
M  V30 16918 H 1615.33 -1.5197 -2.86488 0
M  V30 16919 H 1615.11 -3.19331 -2.2753 0
M  V30 16920 H 1616.6 -2.73697 -3.15404 0
M  V30 16921 N 1617.04 0.356258 -1.53521 0
M  V30 16922 C 1617.97 1.45965 -1.75413 0
M  V30 16923 C 1618.95 1.51015 -0.602774 0
M  V30 16924 O 1620.14 1.68925 -0.836459 0
M  V30 16925 C 1617.26 2.84276 -1.84132 0
M  V30 16926 C 1616.31 2.96909 -3.06182 0
M  V30 16927 S 1617.14 2.64695 -4.65507 0
M  V30 16928 C 1618.3 4.05138 -4.77089 0
M  V30 16929 H 1618.53 1.27176 -2.68726 0
M  V30 16930 H 1616.06 0.551163 -1.44227 0
M  V30 16931 H 1618.02 3.63965 -1.89842 0
M  V30 16932 H 1616.68 3.00369 -0.918542 0
M  V30 16933 H 1615.88 3.98226 -3.08921 0
M  V30 16934 H 1615.48 2.25154 -2.98633 0
M  V30 16935 H 1617.77 4.99502 -4.57717 0
M  V30 16936 H 1618.71 4.074 -5.79164 0
M  V30 16937 H 1619.12 3.92572 -4.05644 0
M  V30 16938 N 1618.52 1.45038 0.616577 0
M  V30 16939 C 1619.47 1.53022 1.7278 0
M  V30 16940 C 1620.44 0.376778 1.6177 0
M  V30 16941 O 1621.62 0.589006 1.81481 0
M  V30 16942 C 1618.76 1.49432 3.11069 0
M  V30 16943 C 1617.87 2.7526 3.3295 0
M  V30 16944 C 1617.01 2.63403 4.61294 0
M  V30 16945 C 1616.05 3.84327 4.76402 0
M  V30 16946 N 1615.19 3.71058 5.96037 0
M  V30 16947 H 1620.03 2.47957 1.65292 0
M  V30 16948 H 1617.56 1.23046 0.806102 0
M  V30 16949 H 1619.52 1.45339 3.91066 0
M  V30 16950 H 1618.15 0.580542 3.17537 0
M  V30 16951 H 1617.2 2.89479 2.46792 0
M  V30 16952 H 1618.51 3.64978 3.39989 0
M  V30 16953 H 1617.67 2.57226 5.49472 0
M  V30 16954 H 1616.41 1.7127 4.56638 0
M  V30 16955 H 1615.41 3.90873 3.8665 0
M  V30 16956 H 1616.64 4.77515 4.82863 0
M  V30 16957 H 1614.58 2.81687 5.92443 0
M  V30 16958 H 1614.5 4.54403 6.04197 0
M  V30 16959 H 1615.77 3.68798 6.86738 0
M  V30 16960 N 1620 -0.858287 1.32179 0
M  V30 16961 C 1620.91 -1.99894 1.228 0
M  V30 16962 C 1621.92 -1.73417 0.142323 0
M  V30 16963 O 1623.1 -1.98114 0.362321 0
M  V30 16964 C 1620.16 -3.33495 0.947745 0
M  V30 16965 C 1619.23 -3.73217 2.12149 0
M  V30 16966 C 1618.46 -5.00443 1.85452 0
M  V30 16967 O 1618.68 -5.64828 0.79531 0
M  V30 16968 O 1617.62 -5.3721 2.71457 0
M  V30 16969 H 1621.44 -2.10742 2.18682 0
M  V30 16970 H 1619.03 -0.988385 1.12033 0
M  V30 16971 H 1620.91 -4.13585 0.807791 0
M  V30 16972 H 1619.58 -3.23694 0.019053 0
M  V30 16973 H 1618.49 -2.93718 2.3169 0
M  V30 16974 H 1619.82 -3.87659 3.03285 0
M  V30 16975 N 1621.48 -1.1533 -1.07409 0
M  V30 16976 C 1622.41 -0.793078 -2.13976 0
M  V30 16977 C 1623.39 0.23021 -1.60962 0
M  V30 16978 O 1624.57 0.116904 -1.88137 0
M  V30 16979 C 1621.7 -0.179232 -3.38225 0
M  V30 16980 C 1620.74 -1.17432 -4.10015 0
M  V30 16981 S 1621.58 -2.7161 -4.61506 0
M  V30 16982 C 1622.73 -2.11643 -5.89031 0
M  V30 16983 H 1622.97 -1.69568 -2.44201 0
M  V30 16984 H 1620.5 -0.975582 -1.19674 0
M  V30 16985 H 1622.46 0.168494 -4.10154 0
M  V30 16986 H 1621.12 0.700954 -3.06179 0
M  V30 16987 H 1620.31 -0.693027 -4.99213 0
M  V30 16988 H 1619.91 -1.46655 -3.44047 0
M  V30 16989 H 1622.2 -1.47812 -6.61179 0
M  V30 16990 H 1623.15 -2.99006 -6.41873 0
M  V30 16991 H 1623.56 -1.55971 -5.42525 0
M  V30 16992 N 1622.95 1.25748 -0.950004 0
M  V30 16993 C 1623.9 2.23767 -0.43731 0
M  V30 16994 C 1624.89 1.53856 0.47088 0
M  V30 16995 O 1626.08 1.74358 0.304687 0
M  V30 16996 C 1623.21 3.4209 0.288037 0
M  V30 16997 C 1622.29 4.19274 -0.637955 0
M  V30 16998 N 1622.69 4.73909 -1.76759 0
M  V30 16999 C 1620.98 4.43772 -0.445251 0
M  V30 17000 C 1621.68 5.32323 -2.34535 0
M  V30 17001 N 1620.66 5.18511 -1.63239 0
M  V30 17002 H 1624.46 2.6361 -1.29949 0
M  V30 17003 H 1621.98 1.40934 -0.806931 0
M  V30 17004 H 1623.97 4.11441 0.672433 0
M  V30 17005 H 1622.63 3.03771 1.14688 0
M  V30 17006 H 1623.64 4.71184 -2.14955 0
M  V30 17007 H 1620.32 4.15848 0.37109 0
M  V30 17008 H 1621.71 5.85411 -3.29763 0
M  V30 17009 N 1624.43 0.718038 1.40292 0
M  V30 17010 C 1625.68 0.258603 2.00842 0
M  V30 17011 C 1626.01 -1.14894 1.56938 0
M  V30 17012 O 1625.26 -1.79414 0.781606 0
M  V30 17013 C 1625.56 0.289374 3.56227 0
M  V30 17014 C 1625.23 1.64756 4.19722 0
M  V30 17015 C 1623.89 2.01934 4.36779 0
M  V30 17016 C 1626.24 2.54008 4.55115 0
M  V30 17017 C 1623.57 3.27905 4.86513 0
M  V30 17018 C 1625.92 3.79334 5.06249 0
M  V30 17019 C 1624.58 4.16626 5.21516 0
M  V30 17020 H 1623.85 0.0946296 0.734933 0
M  V30 17021 H 1626.5 0.921552 1.67868 0
M  V30 17022 H 1624.81 -0.457147 3.89124 0
M  V30 17023 H 1626.5 -0.0839832 4.00912 0
M  V30 17024 H 1623.09 1.34846 4.06835 0
M  V30 17025 H 1627.28 2.2656 4.4157 0
M  V30 17026 H 1622.53 3.56763 4.96518 0
M  V30 17027 H 1626.71 4.48663 5.32611 0
M  V30 17028 H 1624.33 5.14306 5.59815 0
M  V30 17029 N 1625.91 -1.50602 0.464402 0
M  V30 17030 C 1626.86 -2.25271 -0.351736 0
M  V30 17031 C 1627.84 -1.28586 -0.967185 0
M  V30 17032 O 1629.04 -1.53526 -0.880843 0
M  V30 17033 C 1626.17 -3.11777 -1.43701 0
M  V30 17034 C 1625.25 -4.15906 -0.82962 0
M  V30 17035 N 1625.64 -5.05779 0.0460845 0
M  V30 17036 C 1623.94 -4.32367 -1.0943 0
M  V30 17037 C 1624.64 -5.80391 0.390094 0
M  V30 17038 N 1623.62 -5.431 -0.233071 0
M  V30 17039 H 1627.42 -2.9212 0.322964 0
M  V30 17040 H 1624.93 -1.60001 0.278131 0
M  V30 17041 H 1626.93 -3.6387 -2.03481 0
M  V30 17042 H 1625.59 -2.46475 -2.11377 0
M  V30 17043 H 1626.6 -5.16239 0.414453 0
M  V30 17044 H 1623.28 -3.78285 -1.76654 0
M  V30 17045 H 1624.67 -6.62762 1.10435 0
M  V30 17046 N 1627.39 -0.19675 -1.56367 0
M  V30 17047 C 1628.8 0.315555 -1.84014 0
M  V30 17048 C 1629.15 1.61267 -1.11747 0
M  V30 17049 O 1628.28 2.13058 -0.378824 0
M  V30 17050 C 1628.87 0.579307 -3.33811 0
M  V30 17051 C 1627.43 1.03598 -3.61862 0
M  V30 17052 C 1626.58 0.0854845 -2.77168 0
M  V30 17053 H 1629.53 -0.4205 -1.53028 0
M  V30 17054 H 1629.55 1.42841 -3.52671 0
M  V30 17055 H 1629.06 -0.364925 -3.86381 0
M  V30 17056 H 1627.16 1.99443 -3.14727 0
M  V30 17057 H 1627.27 0.927547 -4.70035 0
M  V30 17058 H 1625.64 0.58768 -2.47827 0
M  V30 17059 H 1626.42 -0.853221 -3.32528 0
M  V30 17060 N 1628.87 1.57413 0.0768405 0
M  V30 17061 C 1629.81 2.0334 1.09185 0
M  V30 17062 C 1630.78 0.913073 1.38752 0
M  V30 17063 O 1631.97 1.18038 1.49906 0
M  V30 17064 C 1629.11 2.47805 2.40181 0
M  V30 17065 C 1628.22 3.73435 2.17188 0
M  V30 17066 C 1627.36 4.06703 3.41711 0
M  V30 17067 C 1626.4 5.25388 3.1406 0
M  V30 17068 N 1625.53 5.54319 4.309 0
M  V30 17069 H 1630.37 2.89825 0.693223 0
M  V30 17070 H 1627.91 1.43334 0.330736 0
M  V30 17071 H 1629.87 2.71635 3.16655 0
M  V30 17072 H 1628.5 1.64305 2.77856 0
M  V30 17073 H 1627.55 3.56974 1.3143 0
M  V30 17074 H 1628.86 4.60049 1.9276 0
M  V30 17075 H 1628.02 4.31407 4.26583 0
M  V30 17076 H 1626.75 3.18646 3.6921 0
M  V30 17077 H 1625.76 5.00486 2.27583 0
M  V30 17078 H 1626.98 6.15059 2.87888 0
M  V30 17079 H 1624.93 4.69222 4.5844 0
M  V30 17080 H 1624.85 6.35342 4.09727 0
M  V30 17081 H 1626.12 5.83571 5.16783 0
M  V30 17082 N 1630.34 -0.348112 1.53707 0
M  V30 17083 C 1631.31 -1.41018 1.80683 0
M  V30 17084 C 1632.31 -1.4582 0.67774 0
M  V30 17085 O 1633.5 -1.46275 0.94601 0
M  V30 17086 C 1630.63 -2.79988 1.94473 0
M  V30 17087 H 1631.82 -1.18365 2.75554 0
M  V30 17088 H 1629.38 -0.582244 1.4505 0
M  V30 17089 H 1630.11 -3.07931 1.0173 0
M  V30 17090 H 1629.9 -2.77899 2.76612 0
M  V30 17091 H 1631.39 -3.56868 2.16876 0
M  V30 17092 N 1631.82 -1.45363 -0.608876 0
M  V30 17093 C 1632.75 -1.56778 -1.7304 0
M  V30 17094 C 1633.73 -0.419405 -1.64848 0
M  V30 17095 O 1634.92 -0.64238 -1.83268 0
M  V30 17096 C 1632.05 -1.5329 -3.1164 0
M  V30 17097 C 1631 -2.66832 -3.34641 0
M  V30 17098 C 1630.33 -2.48398 -4.735 0
M  V30 17099 C 1631.63 -4.0885 -3.25021 0
M  V30 17100 H 1633.32 -2.50656 -1.63743 0
M  V30 17101 H 1630.87 -1.20635 -0.786338 0
M  V30 17102 H 1632.82 -1.59873 -3.89895 0
M  V30 17103 H 1631.55 -0.559414 -3.21773 0
M  V30 17104 H 1630.2 -2.59675 -2.58775 0
M  V30 17105 H 1629.85 -1.49191 -4.80366 0
M  V30 17106 H 1629.55 -3.24537 -4.89846 0
M  V30 17107 H 1631.08 -2.56833 -5.53958 0
M  V30 17108 H 1632.49 -4.17257 -3.93153 0
M  V30 17109 H 1630.89 -4.85369 -3.52897 0
M  V30 17110 H 1631.96 -4.30849 -2.2248 0
M  V30 17111 N 1633.3 0.851265 -1.32632 0
M  V30 17112 C 1634.25 1.96012 -1.21852 0
M  V30 17113 C 1635.22 1.65799 -0.0999141 0
M  V30 17114 O 1636.4 1.88793 -0.276049 0
M  V30 17115 C 1633.54 3.31737 -0.951014 0
M  V30 17116 C 1632.66 3.74427 -2.15472 0
M  V30 17117 C 1631.79 4.9896 -1.82242 0
M  V30 17118 C 1630.83 5.3415 -2.98914 0
M  V30 17119 N 1629.97 6.49861 -2.65754 0
M  V30 17120 H 1634.81 2.04565 -2.16696 0
M  V30 17121 H 1632.34 1.00119 -1.07771 0
M  V30 17122 H 1634.3 4.09912 -0.776401 0
M  V30 17123 H 1632.93 3.22776 -0.0393461 0
M  V30 17124 H 1631.98 2.91878 -2.4395 0
M  V30 17125 H 1633.3 3.96425 -3.02736 0
M  V30 17126 H 1632.45 5.84851 -1.61352 0
M  V30 17127 H 1631.19 4.78906 -0.921971 0
M  V30 17128 H 1630.19 4.4677 -3.20432 0
M  V30 17129 H 1631.42 5.5616 -3.89696 0
M  V30 17130 H 1629.36 6.31317 -1.78254 0
M  V30 17131 H 1629.28 6.71894 -3.46547 0
M  V30 17132 H 1630.55 7.38895 -2.48302 0
M  V30 17133 N 1634.78 1.15898 1.06796 0
M  V30 17134 C 1636.06 0.847701 1.76276 0
M  V30 17135 C 1636.44 -0.655537 2.00664 0
M  V30 17136 O 1635.78 -1.60171 1.62964 0
M  V30 17137 C 1635.99 1.66475 3.06736 0
M  V30 17138 C 1637.34 1.87452 3.80982 0
M  V30 17139 O 1638.37 1.63298 3.16563 0
M  V30 17140 O 1637.22 2.27942 4.96694 0
M  V30 17141 H 1634.32 0.312308 0.765763 0
M  V30 17142 H 1636.86 1.26507 1.13111 0
M  V30 17143 H 1635.64 2.68508 2.84638 0
M  V30 17144 H 1635.26 1.24409 3.77635 0
M  V30 17145 N 1636.26 -1.25243 0.956659 0
M  V30 17146 C 1637.5 -1.93299 0.613446 0
M  V30 17147 C 1637.84 -1.74723 -0.847671 0
M  V30 17148 O 1637.11 -1.09357 -1.60846 0
M  V30 17149 C 1637.39 -3.46637 0.975421 0
M  V30 17150 C 1637.25 -3.74431 2.49242 0
M  V30 17151 C 1638.57 -4.37228 0.501948 0
M  V30 17152 H 1635.68 -0.702027 0.224338 0
M  V30 17153 H 1638.33 -1.47822 1.19368 0
M  V30 17154 H 1636.48 -3.85503 0.48167 0
M  V30 17155 H 1638.15 -3.4519 3.06009 0
M  V30 17156 H 1636.39 -3.19967 2.92923 0
M  V30 17157 H 1637.06 -4.81674 2.69619 0
M  V30 17158 H 1639.54 -4.05677 0.925514 0
M  V30 17159 H 1638.41 -5.43274 0.783895 0
M  V30 17160 H 1638.68 -4.38036 -0.598082 0
M  V30 17161 N 1637.73 -0.725468 -1.3991 0
M  V30 17162 C 1638.68 -0.0792833 -2.30664 0
M  V30 17163 C 1639.65 0.73984 -1.48713 0
M  V30 17164 O 1640.84 0.701762 -1.77426 0
M  V30 17165 C 1637.98 0.829164 -3.34991 0
M  V30 17166 C 1637.09 -0.00154779 -4.32 0
M  V30 17167 C 1636.22 0.907291 -5.23394 0
M  V30 17168 C 1635.26 0.0712573 -6.12059 0
M  V30 17169 N 1634.4 0.935508 -6.9584 0
M  V30 17170 H 1639.24 -0.858869 -2.85355 0
M  V30 17171 H 1636.78 -0.435214 -1.40514 0
M  V30 17172 H 1638.74 1.37021 -3.94057 0
M  V30 17173 H 1637.37 1.57483 -2.81778 0
M  V30 17174 H 1636.42 -0.659903 -3.74632 0
M  V30 17175 H 1637.73 -0.648387 -4.94568 0
M  V30 17176 H 1636.88 1.51652 -5.87441 0
M  V30 17177 H 1635.62 1.58793 -4.61125 0
M  V30 17178 H 1634.63 -0.550844 -5.47034 0
M  V30 17179 H 1635.85 -0.606025 -6.76391 0
M  V30 17180 H 1633.8 1.60162 -6.36148 0
M  V30 17181 H 1633.72 0.344932 -7.55213 0
M  V30 17182 H 1634.98 1.53061 -7.64325 0
M  V30 17183 N 1639.21 1.50354 -0.472382 0
M  V30 17184 C 1640.46 2.01934 0.0820006 0
M  V30 17185 C 1640.78 1.35636 1.401 0
M  V30 17186 O 1640.05 0.502127 1.89355 0
M  V30 17187 H 1638.63 0.746258 0.0332943 0
M  V30 17188 H 1641.29 1.84671 -0.623099 0
M  V30 17189 H 1640.39 3.11232 0.232565 0
M  V30 17190 N 1640.69 0.205039 1.56261 0
M  V30 17191 C 1641.62 -0.743854 2.16794 0
M  V30 17192 C 1642.64 -1.16959 1.13245 0
M  V30 17193 O 1643.83 -1.1036 1.40296 0
M  V30 17194 C 1640.93 -2.01717 2.7233 0
M  V30 17195 C 1640.1 -1.74965 4.00882 0
M  V30 17196 C 1639.16 -2.86841 4.41145 0
M  V30 17197 O 1638.18 -2.5602 5.08372 0
M  V30 17198 N 1639.39 -4.15425 4.05466 0
M  V30 17199 H 1642.15 -0.226145 2.98846 0
M  V30 17200 H 1639.71 0.0234276 1.61883 0
M  V30 17201 H 1641.7 -2.7572 2.96244 0
M  V30 17202 H 1640.27 -2.44582 1.94675 0
M  V30 17203 H 1639.49 -0.846903 3.84995 0
M  V30 17204 H 1640.78 -1.54501 4.84775 0
M  V30 17205 H 1640.18 -4.43314 3.5141 0
M  V30 17206 H 1638.74 -4.86023 4.3431 0
M  V30 17207 N 1642.17 -1.57451 -0.0684915 0
M  V30 17208 C 1643.42 -1.86595 -0.765856 0
M  V30 17209 C 1643.73 -0.798157 -1.78574 0
M  V30 17210 O 1644.94 -0.977541 -2.53291 0
M  V30 17211 C 1643.39 -3.31001 -1.41302 0
M  V30 17212 C 1643 -4.45917 -0.431528 0
M  V30 17213 C 1644.75 -3.6934 -2.09256 0
M  V30 17214 C 1642.65 -5.81366 -1.08479 0
M  V30 17215 H 1641.58 -0.696092 -0.289778 0
M  V30 17216 H 1644.23 -1.8349 -0.0192171 0
M  V30 17217 H 1642.62 -3.28728 -2.20803 0
M  V30 17218 H 1643.79 -4.59589 0.333913 0
M  V30 17219 H 1642.1 -4.16152 0.143743 0
M  V30 17220 H 1644.7 -4.67833 -2.58913 0
M  V30 17221 H 1645.04 -2.99308 -2.89344 0
M  V30 17222 H 1645.58 -3.73618 -1.36581 0
M  V30 17223 H 1642.32 -6.54698 -0.324162 0
M  V30 17224 H 1641.84 -5.71488 -1.82102 0
M  V30 17225 H 1643.52 -6.26811 -1.60367 0
M  V30 17226 N 1643.65 0.339955 -1.5389 0
M  V30 17227 C 1644.9 1.07766 -1.7097 0
M  V30 17228 C 1645.22 1.89064 -0.477486 0
M  V30 17229 O 1644.49 1.89183 0.508579 0
M  V30 17230 H 1643.07 0.400849 -0.630341 0
M  V30 17231 H 1645.73 0.380359 -1.91153 0
M  V30 17232 H 1644.82 1.75301 -2.58217 0
M  V30 17233 N 1645.13 1.45684 0.601159 0
M  V30 17234 C 1646.09 1.54451 1.69344 0
M  V30 17235 C 1647.09 0.423379 1.55126 0
M  V30 17236 O 1648.28 0.687079 1.60078 0
M  V30 17237 C 1645.41 1.4472 3.08657 0
M  V30 17238 H 1646.6 2.51778 1.62935 0
M  V30 17239 H 1644.16 1.3322 0.81744 0
M  V30 17240 H 1644.89 0.486027 3.20637 0
M  V30 17241 H 1644.68 2.26045 3.20384 0
M  V30 17242 H 1646.17 1.53902 3.88206 0
M  V30 17243 N 1646.6 -0.84422 1.33082 0
M  V30 17244 C 1648.01 -1.41526 1.21767 0
M  V30 17245 C 1648.37 -1.955 -0.165606 0
M  V30 17246 O 1647.49 -1.88384 -1.06492 0
M  V30 17247 C 1648.09 -2.57266 2.20454 0
M  V30 17248 C 1646.64 -3.10339 2.12995 0
M  V30 17249 C 1645.79 -1.83119 2.08237 0
M  V30 17250 H 1648.74 -0.650452 1.44758 0
M  V30 17251 H 1648.76 -3.34739 1.80914 0
M  V30 17252 H 1648.28 -2.17952 3.21121 0
M  V30 17253 H 1646.38 -3.5421 1.15612 0
M  V30 17254 H 1646.49 -3.70875 3.03296 0
M  V30 17255 H 1644.85 -2.03148 1.53632 0
M  V30 17256 H 1645.64 -1.46009 3.10703 0
M  V30 17257 N 1648.08 -1.16463 -1.0618 0
M  V30 17258 C 1649.01 -0.815728 -2.13122 0
M  V30 17259 C 1649.99 0.213124 -1.61197 0
M  V30 17260 O 1651.18 0.0969425 -1.88251 0
M  V30 17261 C 1648.3 -0.215095 -3.38016 0
M  V30 17262 C 1647.35 -1.21774 -4.08746 0
M  V30 17263 S 1648.18 -2.7649 -4.586 0
M  V30 17264 C 1649.34 -2.17879 -5.86753 0
M  V30 17265 H 1649.57 -1.72148 -2.42389 0
M  V30 17266 H 1647.1 -0.98822 -1.18632 0
M  V30 17267 H 1649.06 0.124982 -4.1031 0
M  V30 17268 H 1647.72 0.66844 -3.06905 0
M  V30 17269 H 1646.92 -0.745936 -4.98449 0
M  V30 17270 H 1646.52 -1.50296 -3.42472 0
M  V30 17271 H 1648.81 -1.54817 -6.59574 0
M  V30 17272 H 1649.75 -3.05797 -6.38666 0
M  V30 17273 H 1650.16 -1.61717 -5.4084 0
M  V30 17274 N 1649.56 1.24734 -0.963288 0
M  V30 17275 C 1650.97 1.7456 -0.662246 0
M  V30 17276 C 1651.32 1.78143 0.822169 0
M  V30 17277 O 1650.45 1.40794 1.64335 0
M  V30 17278 C 1651.04 3.1701 -1.19542 0
M  V30 17279 C 1649.6 3.64361 -0.944371 0
M  V30 17280 C 1648.75 2.4314 -1.33335 0
M  V30 17281 H 1651.7 1.10498 -1.13911 0
M  V30 17282 H 1651.72 3.76362 -0.559601 0
M  V30 17283 H 1651.23 3.1437 -2.27581 0
M  V30 17284 H 1649.33 3.72405 0.120682 0
M  V30 17285 H 1649.45 4.52055 -1.58692 0
M  V30 17286 H 1647.81 2.43354 -0.751729 0
M  V30 17287 H 1648.59 2.43185 -2.42314 0
M  V30 17288 N 1651.04 0.732878 1.39523 0
M  V30 17289 C 1652.29 0.279338 2.0016 0
M  V30 17290 C 1652.61 -1.13673 1.58441 0
M  V30 17291 O 1651.88 -1.77369 0.831681 0
M  V30 17292 H 1650.46 0.100288 0.740237 0
M  V30 17293 H 1653.12 0.942363 1.70603 0
M  V30 17294 H 1652.21 0.326053 3.10392 0
M  V30 17295 N 1652.52 -1.50101 0.480349 0
M  V30 17296 C 1653.46 -2.28722 -0.308993 0
M  V30 17297 C 1654.43 -1.34186 -0.978948 0
M  V30 17298 O 1655.62 -1.6313 -0.989602 0
M  V30 17299 C 1652.76 -3.16322 -1.37966 0
M  V30 17300 C 1651.87 -4.25898 -0.723552 0
M  V30 17301 C 1651.01 -5.00741 -1.7729 0
M  V30 17302 C 1650.04 -6.0218 -1.09754 0
M  V30 17303 N 1649.18 -6.70266 -2.09015 0
M  V30 17304 H 1654.02 -2.95722 0.367739 0
M  V30 17305 H 1651.56 -1.45826 0.193197 0
M  V30 17306 H 1653.52 -3.65469 -2.01217 0
M  V30 17307 H 1652.15 -2.51349 -2.02543 0
M  V30 17308 H 1651.2 -3.80394 0.0217507 0
M  V30 17309 H 1652.51 -4.98435 -0.190905 0
M  V30 17310 H 1651.66 -5.53653 -2.48098 0
M  V30 17311 H 1650.4 -4.27931 -2.33937 0
M  V30 17312 H 1649.41 -5.48519 -0.375123 0
M  V30 17313 H 1650.63 -6.76967 -0.537841 0
M  V30 17314 H 1648.58 -6.00242 -2.64662 0
M  V30 17315 H 1648.5 -7.3871 -1.6076 0
M  V30 17316 H 1649.76 -7.27792 -2.79175 0
M  V30 17317 N 1653.99 -0.213323 -1.5615 0
M  V30 17318 C 1655.24 0.421221 -1.98377 0
M  V30 17319 C 1655.57 1.59998 -1.10065 0
M  V30 17320 O 1654.85 1.93869 -0.15654 0
M  V30 17321 C 1655.13 0.86375 -3.49587 0
M  V30 17322 C 1654.98 -0.318077 -4.48674 0
M  V30 17323 C 1656.3 1.72285 -4.04976 0
M  V30 17324 H 1653.42 0.151635 -0.721232 0
M  V30 17325 H 1656.06 -0.307907 -1.87488 0
M  V30 17326 H 1654.21 1.48503 -3.58998 0
M  V30 17327 H 1655.89 -0.956094 -4.51283 0
M  V30 17328 H 1654.13 -0.966881 -4.22888 0
M  V30 17329 H 1654.8 0.0343662 -5.51989 0
M  V30 17330 H 1657.28 1.19872 -3.98459 0
M  V30 17331 H 1656.15 2.0014 -5.11112 0
M  V30 17332 H 1656.41 2.68336 -3.51352 0
M  V30 17333 N 1655.47 1.57485 0.0601405 0
M  V30 17334 C 1656.72 1.86998 0.75595 0
M  V30 17335 C 1657.03 0.807616 1.78149 0
M  V30 17336 O 1658.24 0.99096 2.52769 0
M  V30 17337 C 1656.7 3.31746 1.39545 0
M  V30 17338 C 1656.3 4.46139 0.407874 0
M  V30 17339 C 1658.05 3.70445 2.07294 0
M  V30 17340 C 1655.96 5.81933 1.05395 0
M  V30 17341 H 1654.89 0.697619 0.286083 0
M  V30 17342 H 1657.54 1.83498 0.00948593 0
M  V30 17343 H 1655.92 3.29894 2.19057 0
M  V30 17344 H 1657.09 4.59405 -0.358281 0
M  V30 17345 H 1655.41 4.1607 -0.16581 0
M  V30 17346 H 1658 4.692 2.56428 0
M  V30 17347 H 1658.35 3.00839 2.87753 0
M  V30 17348 H 1658.88 3.74337 1.34598 0
M  V30 17349 H 1655.62 6.54861 0.289437 0
M  V30 17350 H 1655.14 5.72446 1.79068 0
M  V30 17351 H 1656.82 6.27652 1.5704 0
M  V30 17352 N 1656.95 -0.331789 1.54068 0
M  V30 17353 C 1658.23 -1.08843 1.6252 0
M  V30 17354 C 1658.61 -2.06164 0.453847 0
M  V30 17355 O 1657.96 -2.21714 -0.552727 0
M  V30 17356 C 1658.17 -1.79767 2.9914 0
M  V30 17357 C 1659.51 -2.33086 3.54903 0
M  V30 17358 O 1660.54 -1.89846 3.01392 0
M  V30 17359 O 1659.4 -3.12226 4.48528 0
M  V30 17360 H 1656.49 -0.501222 0.657804 0
M  V30 17361 H 1659.04 -0.332339 1.66414 0
M  V30 17362 H 1657.81 -1.08932 3.75832 0
M  V30 17363 H 1657.43 -2.62205 2.98888 0
M  V30 17364 N 1658.43 -1.46001 -0.593424 0
M  V30 17365 C 1659.68 -1.50025 -1.34816 0
M  V30 17366 C 1659.99 -0.151905 -1.95009 0
M  V30 17367 O 1661.2 -0.0698751 -2.7141 0
M  V30 17368 C 1659.65 -2.643 -2.44282 0
M  V30 17369 C 1659.26 -4.05509 -1.90438 0
M  V30 17370 C 1661 -2.77584 -3.21165 0
M  V30 17371 C 1658.91 -5.11142 -2.97469 0
M  V30 17372 H 1657.84 -0.558299 -0.506772 0
M  V30 17373 H 1660.49 -1.72182 -0.634484 0
M  V30 17374 H 1658.87 -2.35453 -3.18399 0
M  V30 17375 H 1660.05 -4.44099 -1.22935 0
M  V30 17376 H 1658.36 -3.96798 -1.26256 0
M  V30 17377 H 1660.96 -3.53673 -4.01023 0
M  V30 17378 H 1661.3 -1.84718 -3.73075 0
M  V30 17379 H 1661.84 -3.06026 -2.54151 0
M  V30 17380 H 1658.58 -6.05764 -2.5046 0
M  V30 17381 H 1658.1 -4.77107 -3.63495 0
M  V30 17382 H 1659.77 -5.36516 -3.61607 0
M  V30 17383 N 1659.91 0.83715 -1.33527 0
M  V30 17384 C 1660.85 1.94709 -1.23924 0
M  V30 17385 C 1661.82 1.65684 -0.117494 0
M  V30 17386 O 1663.01 1.88489 -0.296057 0
M  V30 17387 C 1660.15 3.3071 -0.986146 0
M  V30 17388 C 1659.26 3.72121 -2.19432 0
M  V30 17389 C 1658.4 4.96999 -1.87524 0
M  V30 17390 C 1657.44 5.3095 -3.04563 0
M  V30 17391 N 1656.57 6.47006 -2.72632 0
M  V30 17392 H 1661.41 2.02255 -2.18854 0
M  V30 17393 H 1658.95 0.989703 -1.08827 0
M  V30 17394 H 1660.91 4.09065 -0.819834 0
M  V30 17395 H 1659.54 3.22716 -0.0735786 0
M  V30 17396 H 1658.59 2.89274 -2.47032 0
M  V30 17397 H 1659.9 3.93192 -3.06923 0
M  V30 17398 H 1659.06 5.83107 -1.67546 0
M  V30 17399 H 1657.79 4.77901 -0.972714 0
M  V30 17400 H 1656.8 4.43346 -3.25153 0
M  V30 17401 H 1658.02 5.51995 -3.95573 0
M  V30 17402 H 1655.97 6.29391 -1.8494 0
M  V30 17403 H 1655.89 6.6818 -3.53654 0
M  V30 17404 H 1657.16 7.3622 -2.56125 0
M  V30 17405 N 1661.38 1.17024 1.05561 0
M  V30 17406 C 1662.63 0.957742 1.7876 0
M  V30 17407 C 1662.96 -0.512652 1.87311 0
M  V30 17408 O 1662.24 -1.38047 1.37016 0
M  V30 17409 C 1662.52 1.59495 3.22852 0
M  V30 17410 C 1662.37 3.13719 3.22336 0
M  V30 17411 C 1663.69 1.29576 4.20593 0
M  V30 17412 H 1660.81 0.349354 0.648938 0
M  V30 17413 H 1663.45 1.44467 1.23408 0
M  V30 17414 H 1661.6 1.18091 3.70117 0
M  V30 17415 H 1663.28 3.64156 2.83175 0
M  V30 17416 H 1661.52 3.46664 2.60781 0
M  V30 17417 H 1662.19 3.5343 4.24018 0
M  V30 17418 H 1664.67 1.65423 3.81804 0
M  V30 17419 H 1663.54 1.76751 5.19663 0
M  V30 17420 H 1663.8 0.21589 4.41573 0
M  V30 17421 N 1662.86 -1.24221 0.969889 0
M  V30 17422 C 1664.11 -1.92638 0.633913 0
M  V30 17423 C 1664.44 -1.75612 -0.829092 0
M  V30 17424 O 1663.72 -1.11057 -1.59677 0
M  V30 17425 C 1664 -3.45583 1.01213 0
M  V30 17426 C 1663.85 -3.71766 2.53199 0
M  V30 17427 C 1665.17 -4.36671 0.548294 0
M  V30 17428 H 1662.29 -0.699608 0.231772 0
M  V30 17429 H 1664.93 -1.46548 1.20929 0
M  V30 17430 H 1663.08 -3.8497 0.522531 0
M  V30 17431 H 1664.75 -3.41925 3.09653 0
M  V30 17432 H 1663 -3.16842 2.963 0
M  V30 17433 H 1663.67 -4.78787 2.74713 0
M  V30 17434 H 1666.14 -4.04672 0.968489 0
M  V30 17435 H 1665.02 -5.42412 0.841472 0
M  V30 17436 H 1665.28 -4.38646 -0.551588 0
M  V30 17437 N 1664.34 -0.740267 -1.39132 0
M  V30 17438 C 1665.3 -0.112183 -2.28925 0
M  V30 17439 C 1666.3 0.661598 -1.46559 0
M  V30 17440 O 1667.49 0.489835 -1.67171 0
M  V30 17441 C 1664.63 0.850121 -3.3013 0
M  V30 17442 H 1665.82 -0.903339 -2.85972 0
M  V30 17443 H 1663.37 -0.506427 -1.47868 0
M  V30 17444 H 1664.11 1.66744 -2.78149 0
M  V30 17445 H 1663.89 0.297847 -3.90967 0
M  V30 17446 H 1665.38 1.28599 -3.97306 0
M  V30 17447 N 1665.82 1.49844 -0.488302 0
M  V30 17448 C 1667.07 2.02009 0.0605782 0
M  V30 17449 C 1667.39 1.37114 1.38653 0
M  V30 17450 O 1666.66 0.522182 1.88812 0
M  V30 17451 H 1665.24 0.746569 0.0253773 0
M  V30 17452 H 1667.9 1.84 -0.64265 0
M  V30 17453 H 1667 3.11461 0.199542 0
M  V30 17454 N 1667.3 0.221601 1.56034 0
M  V30 17455 C 1668.26 -0.674973 2.19036 0
M  V30 17456 C 1669.26 -1.1216 1.15225 0
M  V30 17457 O 1670.45 -1.0304 1.40458 0
M  V30 17458 C 1667.58 -1.92465 2.81372 0
M  V30 17459 H 1668.77 -0.125689 2.99637 0
M  V30 17460 H 1666.33 -0.0280114 1.56275 0
M  V30 17461 H 1667.06 -2.5158 2.04641 0
M  V30 17462 H 1666.85 -1.61286 3.57392 0
M  V30 17463 H 1668.34 -2.56342 3.29664 0
M  V30 17464 N 1668.77 -1.57515 -0.0517878 0
M  V30 17465 C 1669.72 -2.05051 -1.05937 0
M  V30 17466 C 1670.69 -0.935032 -1.37282 0
M  V30 17467 O 1671.88 -1.20408 -1.48009 0
M  V30 17468 C 1669.02 -2.51594 -2.36208 0
M  V30 17469 C 1668.13 -3.76843 -2.11219 0
M  V30 17470 C 1667.26 -4.12088 -3.35197 0
M  V30 17471 C 1666.3 -5.30318 -3.05662 0
M  V30 17472 N 1665.44 -5.61104 -4.22026 0
M  V30 17473 H 1670.28 -2.90891 -0.647027 0
M  V30 17474 H 1667.82 -1.43842 -0.307891 0
M  V30 17475 H 1669.78 -2.76638 -3.12293 0
M  V30 17476 H 1668.41 -1.68704 -2.75207 0
M  V30 17477 H 1667.46 -3.5902 -1.25734 0
M  V30 17478 H 1668.77 -4.63057 -1.85416 0
M  V30 17479 H 1667.92 -4.38139 -4.19666 0
M  V30 17480 H 1666.66 -3.24479 -3.64094 0
M  V30 17481 H 1665.67 -5.04043 -2.19592 0
M  V30 17482 H 1666.89 -6.19561 -2.78067 0
M  V30 17483 H 1664.84 -4.76456 -4.50917 0
M  V30 17484 H 1664.76 -6.4178 -3.99568 0
M  V30 17485 H 1666.02 -5.91719 -5.07434 0
M  V30 17486 N 1670.25 0.323614 -1.54242 0
M  V30 17487 C 1671.5 1.06314 -1.727 0
M  V30 17488 C 1671.83 1.87674 -0.499225 0
M  V30 17489 O 1671.11 1.87862 0.503805 0
M  V30 17490 C 1671.39 1.9879 -3.00258 0
M  V30 17491 C 1671.24 1.2076 -4.33286 0
M  V30 17492 C 1672.56 2.98314 -3.23569 0
M  V30 17493 H 1669.68 0.385101 -0.628384 0
M  V30 17494 H 1672.32 0.339801 -1.86937 0
M  V30 17495 H 1670.47 2.60468 -2.88251 0
M  V30 17496 H 1672.15 0.615425 -4.57176 0
M  V30 17497 H 1670.39 0.509878 -4.30793 0
M  V30 17498 H 1671.06 1.88662 -5.18759 0
M  V30 17499 H 1673.54 2.46757 -3.35037 0
M  V30 17500 H 1672.41 3.60204 -4.14179 0
M  V30 17501 H 1672.67 3.7077 -2.40795 0
M  V30 17502 N 1671.73 1.46313 0.585673 0
M  V30 17503 C 1672.69 1.56239 1.67696 0
M  V30 17504 C 1673.69 0.439808 1.54668 0
M  V30 17505 O 1674.88 0.704019 1.5934 0
M  V30 17506 C 1672.02 1.47986 3.07104 0
M  V30 17507 H 1673.21 2.53492 1.60255 0
M  V30 17508 H 1670.76 1.3408 0.803264 0
M  V30 17509 H 1671.5 0.520007 3.20104 0
M  V30 17510 H 1671.28 2.2943 3.17969 0
M  V30 17511 H 1672.77 1.5801 3.86552 0
M  V30 17512 N 1673.21 -0.830057 1.33969 0
M  V30 17513 C 1674.16 -1.94049 1.24955 0
M  V30 17514 C 1675.13 -1.65619 0.126279 0
M  V30 17515 O 1676.31 -1.88329 0.306049 0
M  V30 17516 C 1673.45 -3.30182 1.00367 0
M  V30 17517 C 1672.56 -3.70952 2.21402 0
M  V30 17518 C 1671.7 -4.95998 1.90157 0
M  V30 17519 C 1670.74 -5.29327 3.07374 0
M  V30 17520 N 1669.88 -6.45551 2.76059 0
M  V30 17521 H 1674.72 -2.01091 2.19923 0
M  V30 17522 H 1672.25 -0.983918 1.0935 0
M  V30 17523 H 1674.21 -4.08625 0.841516 0
M  V30 17524 H 1672.84 -3.22673 0.090692 0
M  V30 17525 H 1671.89 -2.8796 2.48563 0
M  V30 17526 H 1673.2 -3.91558 3.09004 0
M  V30 17527 H 1672.36 -5.8221 1.70636 0
M  V30 17528 H 1671.1 -4.77379 0.998045 0
M  V30 17529 H 1670.1 -4.41616 3.27499 0
M  V30 17530 H 1671.33 -5.4989 3.98495 0
M  V30 17531 H 1669.27 -6.28401 1.88275 0
M  V30 17532 H 1669.19 -6.66295 3.57193 0
M  V30 17533 H 1670.46 -7.34851 2.60026 0
M  V30 17534 N 1674.69 -1.17582 -1.04939 0
M  V30 17535 C 1675.94 -0.96387 -1.77634 0
M  V30 17536 C 1676.26 0.508548 -1.88252 0
M  V30 17537 O 1675.53 1.36913 -1.40113 0
M  V30 17538 H 1674.11 -0.353636 -0.65799 0
M  V30 17539 H 1676.77 -1.48104 -1.26693 0
M  V30 17540 H 1675.86 -1.39438 -2.79219 0
M  V30 17541 N 1676.17 1.23705 -0.976463 0
M  V30 17542 C 1677.1 2.24297 -0.471538 0
M  V30 17543 C 1678.11 1.57169 0.424484 0
M  V30 17544 O 1679.3 1.77022 0.229252 0
M  V30 17545 C 1676.4 3.37214 0.337621 0
M  V30 17546 C 1675.57 4.33921 -0.550586 0
M  V30 17547 C 1674.63 5.25804 0.204053 0
M  V30 17548 O 1673.66 5.67757 -0.404995 0
M  V30 17549 N 1674.86 5.61021 1.49116 0
M  V30 17550 H 1677.62 2.68252 -1.33645 0
M  V30 17551 H 1675.19 1.37836 -0.849281 0
M  V30 17552 H 1677.18 3.95658 0.850714 0
M  V30 17553 H 1675.75 2.92474 1.10351 0
M  V30 17554 H 1674.97 3.74038 -1.24455 0
M  V30 17555 H 1676.26 4.95493 -1.15604 0
M  V30 17556 H 1675.65 5.28879 2.00757 0
M  V30 17557 H 1674.21 6.21954 1.94978 0
M  V30 17558 N 1677.64 0.747635 1.38738 0
M  V30 17559 C 1679.05 0.369576 1.83006 0
M  V30 17560 C 1679.41 -1.10091 1.62402 0
M  V30 17561 O 1678.53 -1.85042 1.12198 0
M  V30 17562 C 1679.13 0.664018 3.32229 0
M  V30 17563 C 1677.68 0.339308 3.74868 0
M  V30 17564 C 1676.83 0.920231 2.61586 0
M  V30 17565 H 1679.78 0.944268 1.27551 0
M  V30 17566 H 1679.8 -0.0598575 3.80453 0
M  V30 17567 H 1679.32 1.73432 3.47193 0
M  V30 17568 H 1677.42 -0.724649 3.65485 0
M  V30 17569 H 1677.53 0.830699 4.71843 0
M  V30 17570 H 1675.89 0.346002 2.52339 0
M  V30 17571 H 1676.68 1.99544 2.79351 0
M  V30 17572 N 1679.12 -1.49583 0.496242 0
M  V30 17573 C 1680.05 -2.31885 -0.274139 0
M  V30 17574 C 1681.03 -1.39939 -0.96701 0
M  V30 17575 O 1682.22 -1.6885 -0.959333 0
M  V30 17576 C 1679.35 -3.20332 -1.34181 0
M  V30 17577 C 1678.3 -4.21033 -0.769091 0
M  V30 17578 C 1677.63 -4.98385 -1.93693 0
M  V30 17579 C 1678.93 -5.21764 0.236648 0
M  V30 17580 H 1680.62 -2.9654 0.412824 0
M  V30 17581 H 1678.17 -1.42605 0.199979 0
M  V30 17582 H 1680.12 -3.76718 -1.88843 0
M  V30 17583 H 1678.84 -2.53611 -2.05789 0
M  V30 17584 H 1677.5 -3.65785 -0.244252 0
M  V30 17585 H 1677.15 -4.28115 -2.64058 0
M  V30 17586 H 1676.85 -5.66519 -1.55981 0
M  V30 17587 H 1678.38 -5.57613 -2.48798 0
M  V30 17588 H 1679.79 -5.72871 -0.221672 0
M  V30 17589 H 1678.19 -5.97761 0.529346 0
M  V30 17590 H 1679.26 -4.70964 1.15415 0
M  V30 17591 N 1680.6 -0.229873 -1.55915 0
M  V30 17592 C 1681.84 0.40131 -2.00422 0
M  V30 17593 C 1682.2 1.56356 -1.1143 0
M  V30 17594 O 1683.4 2.26132 -1.45319 0
M  V30 17595 C 1681.68 0.816946 -3.47938 0
M  V30 17596 S 1683.23 1.44106 -4.14462 0
M  V30 17597 H 1680.05 0.127024 -0.699561 0
M  V30 17598 H 1682.65 -0.341114 -1.92501 0
M  V30 17599 H 1681.36 -0.038498 -4.10382 0
M  V30 17600 H 1680.89 1.59198 -3.59749 0
M  V30 17601 H 1682.9 2.73016 -4.14339 0
M  V30 17602 N 1682.08 1.5754 0.0434337 0
M  V30 17603 C 1683.32 1.88887 0.7382 0
M  V30 17604 C 1683.66 0.825827 1.75766 0
M  V30 17605 O 1682.93 -0.160797 1.93834 0
M  V30 17606 C 1683.21 3.30889 1.42072 0
M  V30 17607 C 1683.07 4.47874 0.415754 0
M  V30 17608 C 1684.39 3.71571 2.35846 0
M  V30 17609 H 1681.51 0.686975 0.266897 0
M  V30 17610 H 1684.15 1.9 0.00106957 0
M  V30 17611 H 1682.3 3.30071 2.04903 0
M  V30 17612 H 1683.97 4.60824 -0.209529 0
M  V30 17613 H 1682.21 4.32982 -0.266346 0
M  V30 17614 H 1682.88 5.44084 0.931509 0
M  V30 17615 H 1685.36 3.73663 1.83071 0
M  V30 17616 H 1684.24 4.71763 2.80589 0
M  V30 17617 H 1684.5 3.03041 3.21898 0
M  V30 17618 N 1683.56 -0.31543 1.54411 0
M  V30 17619 C 1684.49 -1.39353 1.87358 0
M  V30 17620 C 1685.47 -1.53586 0.731118 0
M  V30 17621 O 1686.65 -1.67332 0.98558 0
M  V30 17622 C 1683.78 -2.75998 2.10814 0
M  V30 17623 C 1682.74 -2.76545 3.2666 0
M  V30 17624 C 1682.06 -4.16343 3.35504 0
M  V30 17625 C 1683.36 -2.39567 4.64117 0
M  V30 17626 H 1685.06 -1.12028 2.77651 0
M  V30 17627 H 1682.6 -0.537476 1.33593 0
M  V30 17628 H 1684.55 -3.51491 2.32447 0
M  V30 17629 H 1683.28 -3.04817 1.17278 0
M  V30 17630 H 1681.94 -2.03507 3.04927 0
M  V30 17631 H 1681.59 -4.42316 2.39512 0
M  V30 17632 H 1681.29 -4.17613 4.13368 0
M  V30 17633 H 1682.81 -4.93637 3.59381 0
M  V30 17634 H 1684.22 -3.04775 4.85577 0
M  V30 17635 H 1682.62 -2.52075 5.4459 0
M  V30 17636 H 1683.69 -1.34707 4.65813 0
M  V30 17637 N 1685.03 -1.46622 -0.577906 0
M  V30 17638 C 1686.26 -1.56 -1.36671 0
M  V30 17639 C 1686.68 -0.2034 -1.86997 0
M  V30 17640 O 1686.04 0.817288 -1.61834 0
M  V30 17641 C 1686.09 -2.57254 -2.52691 0
M  V30 17642 O 1685.19 -2.1109 -3.54281 0
M  V30 17643 H 1684.54 -0.524779 -0.406821 0
M  V30 17644 H 1687.07 -1.92234 -0.700512 0
M  V30 17645 H 1687.08 -2.77016 -2.99543 0
M  V30 17646 H 1685.75 -3.55766 -2.15415 0
M  V30 17647 H 1684.33 -2.01337 -3.13875 0
M  V30 17648 N 1686.51 0.822941 -1.34408 0
M  V30 17649 C 1687.48 1.91541 -1.25876 0
M  V30 17650 C 1688.48 1.59856 -0.17397 0
M  V30 17651 O 1689.67 1.68896 -0.426592 0
M  V30 17652 C 1686.8 3.27586 -0.943415 0
M  V30 17653 H 1687.99 2.00529 -2.22998 0
M  V30 17654 H 1685.54 1.01691 -1.18695 0
M  V30 17655 H 1686.28 3.24291 0.0246389 0
M  V30 17656 H 1686.06 3.51966 -1.72807 0
M  V30 17657 H 1687.55 4.07589 -0.908891 0
M  V30 17658 N 1687.99 1.18137 1.04314 0
M  V30 17659 C 1688.92 0.849531 2.11798 0
M  V30 17660 C 1689.9 -0.187452 1.61516 0
M  V30 17661 O 1691.09 -0.0669812 1.88381 0
M  V30 17662 C 1688.21 0.268844 3.37631 0
M  V30 17663 C 1687.26 1.28262 4.06757 0
M  V30 17664 S 1688.09 2.83751 4.54143 0
M  V30 17665 C 1689.25 2.27186 5.83213 0
M  V30 17666 H 1689.48 1.75983 2.39619 0
M  V30 17667 H 1687.01 1.00697 1.17045 0
M  V30 17668 H 1688.97 -0.0596899 4.10457 0
M  V30 17669 H 1687.63 -0.619529 3.0793 0
M  V30 17670 H 1686.83 0.825141 4.972 0
M  V30 17671 H 1686.43 1.55726 3.40038 0
M  V30 17672 H 1688.72 1.6529 6.57028 0
M  V30 17673 H 1689.66 3.15919 6.3372 0
M  V30 17674 H 1690.07 1.70301 5.38199 0
M  V30 17675 N 1689.47 -1.23186 0.98301 0
M  V30 17676 C 1690.42 -2.24748 0.525082 0
M  V30 17677 C 1691.39 -1.60237 -0.437411 0
M  V30 17678 O 1692.57 -1.87666 -0.344376 0
M  V30 17679 C 1689.71 -3.44711 -0.163809 0
M  V30 17680 C 1688.82 -4.23769 0.839254 0
M  V30 17681 C 1687.96 -5.31053 0.1249 0
M  V30 17682 C 1687 -6.01822 1.117 0
M  V30 17683 N 1686.13 -7.00772 0.431625 0
M  V30 17684 H 1690.97 -2.63283 1.39593 0
M  V30 17685 H 1688.51 -1.29407 0.699438 0
M  V30 17686 H 1690.47 -4.13148 -0.580046 0
M  V30 17687 H 1689.1 -3.06969 -0.998507 0
M  V30 17688 H 1688.15 -3.54724 1.37386 0
M  V30 17689 H 1689.46 -4.72606 1.59515 0
M  V30 17690 H 1688.62 -6.05698 -0.348569 0
M  V30 17691 H 1687.36 -4.83165 -0.663573 0
M  V30 17692 H 1686.36 -5.25967 1.6012 0
M  V30 17693 H 1687.59 -6.51799 1.90618 0
M  V30 17694 H 1685.53 -6.55131 -0.337592 0
M  V30 17695 H 1685.45 -7.47566 1.12613 0
M  V30 17696 H 1686.72 -7.79498 -0.0193703 0
M  V30 17697 N 1690.95 -0.754982 -1.38339 0
M  V30 17698 C 1691.88 -0.0765954 -2.28071 0
M  V30 17699 C 1692.86 0.726851 -1.4545 0
M  V30 17700 O 1694.04 0.705183 -1.74813 0
M  V30 17701 C 1691.17 0.898289 -3.26571 0
M  V30 17702 C 1690.21 0.180904 -4.26116 0
M  V30 17703 S 1691.05 -1.11929 -5.23672 0
M  V30 17704 C 1692.2 -0.147519 -6.25726 0
M  V30 17705 H 1692.44 -0.837511 -2.8526 0
M  V30 17706 H 1689.97 -0.547625 -1.44362 0
M  V30 17707 H 1691.93 1.45541 -3.83833 0
M  V30 17708 H 1690.59 1.63219 -2.68363 0
M  V30 17709 H 1689.78 0.919305 -4.95545 0
M  V30 17710 H 1689.38 -0.304739 -3.72756 0
M  V30 17711 H 1691.68 0.686001 -6.74018 0
M  V30 17712 H 1692.62 -0.809506 -7.03458 0
M  V30 17713 H 1693.03 0.233798 -5.64016 0
M  V30 17714 N 1692.42 1.49318 -0.504168 0
M  V30 17715 C 1693.33 2.32958 0.277053 0
M  V30 17716 C 1694.35 1.44838 0.964266 0
M  V30 17717 O 1695.53 1.77856 0.944947 0
M  V30 17718 C 1692.59 3.20352 1.32572 0
M  V30 17719 C 1691.65 4.24326 0.651606 0
M  V30 17720 C 1690.89 5.07544 1.65031 0
M  V30 17721 O 1691.11 4.92326 2.88047 0
M  V30 17722 O 1690.04 5.89737 1.20388 0
M  V30 17723 H 1693.87 3.00952 -0.40763 0
M  V30 17724 H 1691.45 1.47023 -0.265453 0
M  V30 17725 H 1693.34 3.74483 1.93237 0
M  V30 17726 H 1692.01 2.5505 1.99327 0
M  V30 17727 H 1690.92 3.741 0.00513384 0
M  V30 17728 H 1692.25 4.92193 0.0264424 0
M  V30 17729 N 1693.9 0.238138 1.5579 0
M  V30 17730 C 1695.13 -0.393422 2.03125 0
M  V30 17731 C 1695.55 -1.52168 1.11761 0
M  V30 17732 O 1694.9 -1.82034 0.130341 0
M  V30 17733 C 1694.95 -0.909474 3.49873 0
M  V30 17734 O 1694.67 0.17381 4.37755 0
M  V30 17735 C 1696.18 -1.61261 4.12928 0
M  V30 17736 H 1693.4 -0.0945077 0.664311 0
M  V30 17737 H 1695.94 0.359442 2.01316 0
M  V30 17738 H 1694.09 -1.61255 3.52244 0
M  V30 17739 H 1694.51 -0.216641 5.24052 0
M  V30 17740 H 1695.98 -1.92551 5.17328 0
M  V30 17741 H 1696.46 -2.53155 3.589 0
M  V30 17742 H 1697.07 -0.954326 4.14455 0
M  V30 17743 N 1695.38 -1.57561 -0.0350783 0
M  V30 17744 C 1696.63 -1.89276 -0.728172 0
M  V30 17745 C 1696.96 -0.835137 -1.75326 0
M  V30 17746 O 1696.23 0.150516 -1.93917 0
M  V30 17747 C 1696.52 -3.31638 -1.40316 0
M  V30 17748 C 1696.37 -4.48089 -0.391996 0
M  V30 17749 C 1697.69 -3.72816 -2.33872 0
M  V30 17750 H 1694.81 -0.688381 -0.26325 0
M  V30 17751 H 1697.45 -1.89998 0.00900661 0
M  V30 17752 H 1695.6 -3.31153 -2.0315 0
M  V30 17753 H 1697.27 -4.60706 0.233965 0
M  V30 17754 H 1695.52 -4.32834 0.289305 0
M  V30 17755 H 1696.19 -5.4457 -0.902641 0
M  V30 17756 H 1698.66 -3.74629 -1.81086 0
M  V30 17757 H 1697.54 -4.73245 -2.78084 0
M  V30 17758 H 1697.8 -3.04744 -3.20287 0
M  V30 17759 N 1696.86 0.307236 -1.54576 0
M  V30 17760 C 1698.1 1.04476 -1.73818 0
M  V30 17761 C 1698.44 1.87134 -0.519102 0
M  V30 17762 O 1697.71 1.88386 0.483852 0
M  V30 17763 C 1698 1.95594 -3.02349 0
M  V30 17764 C 1697.85 1.16158 -4.34543 0
M  V30 17765 C 1699.17 2.94865 -3.26715 0
M  V30 17766 H 1696.29 0.378415 -0.632433 0
M  V30 17767 H 1698.93 0.319955 -1.87287 0
M  V30 17768 H 1697.08 2.57396 -2.90997 0
M  V30 17769 H 1698.75 0.5669 -4.57803 0
M  V30 17770 H 1696.99 0.464158 -4.3131 0
M  V30 17771 H 1697.66 1.8315 -5.2073 0
M  V30 17772 H 1700.14 2.4319 -3.37636 0
M  V30 17773 H 1699.02 3.55791 -4.17976 0
M  V30 17774 H 1699.28 3.68195 -2.44714 0
M  V30 17775 N 1698.34 1.46926 0.570122 0
M  V30 17776 C 1699.56 1.5648 1.35358 0
M  V30 17777 C 1699.98 0.210356 1.87624 0
M  V30 17778 O 1699.34 -0.794388 1.64304 0
M  V30 17779 C 1699.39 2.57973 2.53243 0
M  V30 17780 O 1699.11 3.88157 2.03139 0
M  V30 17781 C 1700.61 2.77587 3.4563 0
M  V30 17782 H 1697.83 0.528787 0.413068 0
M  V30 17783 H 1700.37 1.9244 0.691895 0
M  V30 17784 H 1698.53 2.24982 3.15375 0
M  V30 17785 H 1698.94 4.43506 2.80004 0
M  V30 17786 H 1700.42 3.52495 4.24795 0
M  V30 17787 H 1700.89 1.84944 3.98362 0
M  V30 17788 H 1701.5 3.11724 2.89324 0
M  V30 17789 N 1699.82 -0.815801 1.34842 0
M  V30 17790 C 1701.04 -1.60915 1.30848 0
M  V30 17791 C 1701.47 -1.87758 -0.113345 0
M  V30 17792 O 1700.82 -1.4582 -1.07732 0
M  V30 17793 C 1700.87 -2.92284 2.11192 0
M  V30 17794 O 1699.98 -3.84685 1.48632 0
M  V30 17795 H 1699.32 -0.48913 0.449052 0
M  V30 17796 H 1701.85 -1.01322 1.7775 0
M  V30 17797 H 1701.86 -3.41789 2.2281 0
M  V30 17798 H 1700.53 -2.72071 3.14563 0
M  V30 17799 H 1699.11 -3.43215 1.458 0
M  V30 17800 N 1701.29 -1.18689 -1.03686 0
M  V30 17801 C 1702.7 -0.988182 -1.58404 0
M  V30 17802 C 1703.06 0.461107 -1.90705 0
M  V30 17803 O 1702.18 1.33912 -1.6999 0
M  V30 17804 C 1702.78 -1.78748 -2.8781 0
M  V30 17805 C 1701.33 -1.63301 -3.39131 0
M  V30 17806 C 1700.48 -1.77954 -2.12668 0
M  V30 17807 H 1703.43 -1.33177 -0.863112 0
M  V30 17808 H 1703.45 -1.27882 -3.58366 0
M  V30 17809 H 1702.97 -2.84224 -2.6427 0
M  V30 17810 H 1701.07 -0.603777 -3.67676 0
M  V30 17811 H 1701.18 -2.43342 -4.127 0
M  V30 17812 H 1699.54 -1.20937 -2.24157 0
M  V30 17813 H 1700.33 -2.84873 -1.91579 0
M  V30 17814 N 1702.77 1.22662 -0.989529 0
M  V30 17815 C 1703.7 2.23052 -0.481994 0
M  V30 17816 C 1704.68 1.56078 0.455885 0
M  V30 17817 O 1705.87 1.84584 0.382214 0
M  V30 17818 C 1702.99 3.37354 0.301658 0
M  V30 17819 C 1702.04 4.22514 -0.581711 0
M  V30 17820 S 1702.87 4.95326 -2.03501 0
M  V30 17821 C 1704.03 6.13071 -1.26075 0
M  V30 17822 H 1704.26 2.65757 -1.33268 0
M  V30 17823 H 1701.79 1.32286 -0.796233 0
M  V30 17824 H 1703.75 4.03632 0.747763 0
M  V30 17825 H 1702.41 2.93163 1.12758 0
M  V30 17826 H 1701.61 5.03996 0.0210757 0
M  V30 17827 H 1701.21 3.61351 -0.964439 0
M  V30 17828 H 1703.5 6.7545 -0.526687 0
M  V30 17829 H 1704.44 6.77754 -2.05072 0
M  V30 17830 H 1704.85 5.59147 -0.775524 0
M  V30 17831 N 1704.25 0.762308 1.37937 0
M  V30 17832 C 1705.16 0.142724 2.34165 0
M  V30 17833 C 1706.18 -0.690588 1.59709 0
M  V30 17834 O 1707.35 -0.61271 1.91854 0
M  V30 17835 C 1704.42 -0.733325 3.38856 0
M  V30 17836 C 1703.48 0.115359 4.29145 0
M  V30 17837 C 1702.71 -0.718972 5.28835 0
M  V30 17838 O 1702.93 -1.95656 5.35794 0
M  V30 17839 O 1701.87 -0.133162 6.01753 0
M  V30 17840 H 1705.69 0.937662 2.88863 0
M  V30 17841 H 1703.28 0.523325 1.39935 0
M  V30 17842 H 1705.16 -1.23374 4.02935 0
M  V30 17843 H 1703.84 -1.50661 2.86501 0
M  V30 17844 H 1702.74 0.661926 3.68197 0
M  V30 17845 H 1704.08 0.851505 4.84779 0
M  V30 17846 N 1705.73 -1.49049 0.51208 0
M  V30 17847 C 1706.98 -2.0208 -0.0284326 0
M  V30 17848 C 1707.3 -1.39303 -1.36454 0
M  V30 17849 O 1706.57 -0.552155 -1.87958 0
M  V30 17850 H 1705.15 -0.746878 -0.0134968 0
M  V30 17851 H 1707.81 -1.82954 0.671842 0
M  V30 17852 H 1706.9 -3.11739 -0.149966 0
M  V30 17853 N 1707.21 -0.246397 -1.55662 0
M  V30 17854 C 1708.43 0.382645 -2.03331 0
M  V30 17855 C 1708.85 1.51573 -1.12566 0
M  V30 17856 O 1708.21 1.81962 -0.139992 0
M  V30 17857 C 1708.26 0.890907 -3.5035 0
M  V30 17858 O 1707.98 -0.197023 -4.37657 0
M  V30 17859 C 1709.48 1.59069 -4.13778 0
M  V30 17860 H 1706.7 0.0909834 -0.664803 0
M  V30 17861 H 1709.24 -0.370113 -2.01123 0
M  V30 17862 H 1707.4 1.59385 -3.53094 0
M  V30 17863 H 1707.81 0.188846 -5.2416 0
M  V30 17864 H 1709.29 1.89805 -5.18342 0
M  V30 17865 H 1709.76 2.51248 -3.60238 0
M  V30 17866 H 1710.37 0.932333 -4.14955 0
M  V30 17867 N 1708.68 1.57577 0.026722 0
M  V30 17868 C 1709.93 1.8966 0.718124 0
M  V30 17869 C 1710.26 0.844423 1.7488 0
M  V30 17870 O 1709.54 -0.14023 1.93994 0
M  V30 17871 C 1709.82 3.32377 1.38555 0
M  V30 17872 C 1709.67 4.4829 0.368227 0
M  V30 17873 C 1710.99 3.74051 2.31891 0
M  V30 17874 H 1708.11 0.689767 0.259596 0
M  V30 17875 H 1710.75 1.8999 -0.0190825 0
M  V30 17876 H 1708.9 3.32226 2.01391 0
M  V30 17877 H 1710.58 4.60576 -0.258394 0
M  V30 17878 H 1708.82 4.32675 -0.312255 0
M  V30 17879 H 1709.49 5.45041 0.873749 0
M  V30 17880 H 1711.97 3.75584 1.79097 0
M  V30 17881 H 1710.84 4.74713 2.7557 0
M  V30 17882 H 1711.1 3.06438 3.18666 0
M  V30 17883 N 1710.16 -0.299034 1.54737 0
M  V30 17884 C 1711.58 -0.644805 1.45995 0
M  V30 17885 C 1711.78 -1.90634 0.652749 0
M  V30 17886 O 1710.83 -2.51985 0.161228 0
M  V30 17887 C 1712.15 -0.795974 2.89974 0
M  V30 17888 C 1713.69 -0.891731 3.00029 0
M  V30 17889 C 1714.17 -1.07488 4.45208 0
M  V30 17890 N 1715.66 -1.14104 4.48926 0
M  V30 17891 C 1716.4 -1.30108 5.58444 0
M  V30 17892 N 1715.89 -1.42998 6.77882 0
M  V30 17893 N 1717.68 -1.33012 5.46136 0
M  V30 17894 H 1709.84 0.529806 2.05686 0
M  V30 17895 H 1712.1 0.175406 0.931631 0
M  V30 17896 H 1711.8 0.0601375 3.51649 0
M  V30 17897 H 1711.68 -1.68437 3.37504 0
M  V30 17898 H 1714.07 -1.73833 2.38466 0
M  V30 17899 H 1714.15 0.0207194 2.55792 0
M  V30 17900 H 1713.79 -0.233045 5.07365 0
M  V30 17901 H 1713.72 -2.00159 4.87077 0
M  V30 17902 H 1716.21 -1.05488 3.62878 0
M  V30 17903 H 1716.52 -1.5497 7.57102 0
M  V30 17904 H 1714.87 -1.4005 6.80743 0
M  V30 17905 H 1718.06 -1.22555 4.51772 0
M  V30 17906 H 1718.23 -1.45141 6.31536 0
M  V30 17907 N 1711.64 -1.47227 -0.562322 0
M  V30 17908 C 1712.59 -1.59329 -1.66981 0
M  V30 17909 C 1713.56 -0.436558 -1.6026 0
M  V30 17910 O 1714.74 -0.655956 -1.7917 0
M  V30 17911 C 1711.88 -1.60874 -3.05309 0
M  V30 17912 C 1710.99 -2.87428 -3.22505 0
M  V30 17913 C 1710.13 -2.80342 -4.512 0
M  V30 17914 C 1709.17 -4.01744 -4.6181 0
M  V30 17915 N 1708.31 -3.92924 -5.81855 0
M  V30 17916 H 1713.15 -2.53921 -1.55975 0
M  V30 17917 H 1710.68 -1.25953 -0.759879 0
M  V30 17918 H 1712.64 -1.59753 -3.85402 0
M  V30 17919 H 1711.27 -0.697994 -3.15163 0
M  V30 17920 H 1710.32 -2.98439 -2.35878 0
M  V30 17921 H 1711.63 -3.77345 -3.26209 0
M  V30 17922 H 1710.79 -2.77442 -5.39547 0
M  V30 17923 H 1709.53 -1.881 -4.49966 0
M  V30 17924 H 1708.53 -4.04954 -3.71877 0
M  V30 17925 H 1709.76 -4.95107 -4.64807 0
M  V30 17926 H 1707.7 -3.03481 -5.8158 0
M  V30 17927 H 1707.62 -4.76514 -5.86916 0
M  V30 17928 H 1708.89 -3.94031 -6.72577 0
M  V30 17929 N 1713.12 0.808639 -1.35273 0
M  V30 17930 C 1714.36 1.56794 -1.28621 0
M  V30 17931 C 1714.7 1.93697 0.139686 0
M  V30 17932 O 1713.97 1.61185 1.08856 0
M  V30 17933 C 1714.25 2.85794 -2.19075 0
M  V30 17934 C 1714.11 2.5538 -3.70271 0
M  V30 17935 C 1715.43 3.87481 -2.08678 0
M  V30 17936 H 1712.55 0.568873 -0.468564 0
M  V30 17937 H 1715.19 0.930499 -1.65655 0
M  V30 17938 H 1713.34 3.40191 -1.87622 0
M  V30 17939 H 1715.01 2.07182 -4.12157 0
M  V30 17940 H 1713.25 1.88605 -3.90654 0
M  V30 17941 H 1713.92 3.47432 -4.28947 0
M  V30 17942 H 1716.4 3.42478 -2.36323 0
M  V30 17943 H 1715.28 4.75523 -2.7417 0
M  V30 17944 H 1715.54 4.29004 -1.06809 0
M  V30 17945 N 1714.6 1.19237 1.03055 0
M  V30 17946 C 1715.55 0.896404 2.09639 0
M  V30 17947 C 1716.53 -0.138099 1.60306 0
M  V30 17948 O 1717.72 0.0673592 1.76872 0
M  V30 17949 C 1714.85 0.435042 3.40532 0
M  V30 17950 C 1713.94 1.50219 3.96604 0
M  V30 17951 N 1714.33 2.72121 4.26361 0
M  V30 17952 C 1712.63 1.36509 4.24596 0
M  V30 17953 C 1713.33 3.40853 4.71374 0
M  V30 17954 N 1712.3 2.68246 4.72806 0
M  V30 17955 H 1716.11 1.82292 2.30536 0
M  V30 17956 H 1713.62 1.08428 1.20901 0
M  V30 17957 H 1715.62 0.204471 4.16398 0
M  V30 17958 H 1714.28 -0.485016 3.21057 0
M  V30 17959 H 1715.29 3.08899 4.15694 0
M  V30 17960 H 1711.96 0.508358 4.14394 0
M  V30 17961 H 1713.35 4.4509 5.03333 0
M  V30 17962 N 1716.07 -1.22136 0.99602 0
M  V30 17963 C 1717.32 -1.9125 0.674632 0
M  V30 17964 C 1717.65 -1.77331 -0.791655 0
M  V30 17965 O 1716.93 -1.14419 -1.57285 0
M  V30 17966 C 1717.21 -3.43359 1.08521 0
M  V30 17967 C 1717.06 -3.66312 2.61028 0
M  V30 17968 C 1718.38 -4.3541 0.640795 0
M  V30 17969 H 1715.5 -0.694534 0.246559 0
M  V30 17970 H 1718.14 -1.4395 1.2401 0
M  V30 17971 H 1716.29 -3.83775 0.604071 0
M  V30 17972 H 1717.97 -3.3528 3.16836 0
M  V30 17973 H 1716.21 -3.10485 3.02954 0
M  V30 17974 H 1716.88 -4.72852 2.84807 0
M  V30 17975 H 1719.36 -4.02527 1.05411 0
M  V30 17976 H 1718.23 -5.40505 0.956337 0
M  V30 17977 H 1718.49 -4.39717 -0.458421 0
M  V30 17978 N 1717.55 -0.769612 -1.37531 0
M  V30 17979 C 1718.78 -0.344282 -2.04015 0
M  V30 17980 C 1719.2 1.03281 -1.58046 0
M  V30 17981 O 1718.55 1.65888 -0.760746 0
M  V30 17982 C 1718.6 -0.375922 -3.5954 0
M  V30 17983 O 1718.32 -1.69869 -4.03827 0
M  V30 17984 C 1719.83 0.0612715 -4.43258 0
M  V30 17985 H 1717.05 -0.144584 -0.655238 0
M  V30 17986 H 1719.59 -1.04294 -1.75906 0
M  V30 17987 H 1717.74 0.274136 -3.86429 0
M  V30 17988 H 1718.16 -1.63584 -4.98338 0
M  V30 17989 H 1719.63 -0.012022 -5.51999 0
M  V30 17990 H 1720.11 1.11136 -4.24906 0
M  V30 17991 H 1720.72 -0.560517 -4.2159 0
M  V30 17992 N 1719.03 1.48775 -0.519977 0
M  V30 17993 C 1719.98 2.29461 0.248242 0
M  V30 17994 C 1720.95 1.36734 0.943027 0
M  V30 17995 O 1722.13 1.65697 0.946003 0
M  V30 17996 C 1719.27 3.19868 1.29531 0
M  V30 17997 C 1718.39 4.27666 0.610379 0
M  V30 17998 C 1717.52 5.05266 1.63951 0
M  V30 17999 C 1716.56 6.04878 0.937496 0
M  V30 18000 N 1715.7 6.75573 1.91171 0
M  V30 18001 H 1720.54 2.94643 -0.446016 0
M  V30 18002 H 1718.07 1.45262 -0.231792 0
M  V30 18003 H 1720.03 3.70675 1.91456 0
M  V30 18004 H 1718.66 2.5663 1.95808 0
M  V30 18005 H 1717.71 3.80202 -0.122598 0
M  V30 18006 H 1719.03 4.98765 0.0586864 0
M  V30 18007 H 1718.18 5.60037 2.33332 0
M  V30 18008 H 1716.92 4.33983 2.22509 0
M  V30 18009 H 1715.92 5.49321 0.229562 0
M  V30 18010 H 1717.15 6.78155 0.358166 0
M  V30 18011 H 1715.09 6.07048 2.48655 0
M  V30 18012 H 1715.01 7.42712 1.41118 0
M  V30 18013 H 1716.28 7.34938 2.59781 0
M  V30 18014 N 1720.51 0.254649 1.55529 0
M  V30 18015 C 1721.79 -0.418663 1.91067 0
M  V30 18016 C 1722.17 -1.75284 1.17638 0
M  V30 18017 O 1721.51 -2.26569 0.296411 0
M  V30 18018 C 1721.72 -0.579125 3.44162 0
M  V30 18019 C 1723.07 -0.871451 4.15561 0
M  V30 18020 O 1724.1 -0.664702 3.49943 0
M  V30 18021 O 1722.95 -1.26563 5.31643 0
M  V30 18022 H 1720.05 -0.22593 0.795541 0
M  V30 18023 H 1722.59 0.299288 1.6704 0
M  V30 18024 H 1721.37 0.36062 3.89635 0
M  V30 18025 H 1720.99 -1.34732 3.74076 0
M  V30 18026 N 1721.99 -1.57589 -0.0183649 0
M  V30 18027 C 1722.92 -2.02659 -1.04903 0
M  V30 18028 C 1723.9 -0.912926 -1.34553 0
M  V30 18029 O 1725.08 -1.17961 -1.47029 0
M  V30 18030 C 1722.21 -2.40869 -2.38117 0
M  V30 18031 C 1721.25 -3.62785 -2.24253 0
M  V30 18032 S 1722.09 -5.11479 -1.58585 0
M  V30 18033 C 1723.24 -5.52942 -2.93268 0
M  V30 18034 H 1723.48 -2.89763 -0.665188 0
M  V30 18035 H 1721.01 -1.52697 -0.228676 0
M  V30 18036 H 1722.97 -2.63553 -3.14722 0
M  V30 18037 H 1721.63 -1.54197 -2.73646 0
M  V30 18038 H 1720.82 -3.87211 -3.2262 0
M  V30 18039 H 1720.42 -3.40007 -1.55792 0
M  V30 18040 H 1722.72 -5.5428 -3.8959 0
M  V30 18041 H 1723.66 -6.53123 -2.73563 0
M  V30 18042 H 1724.07 -4.80466 -2.96333 0
M  V30 18043 N 1723.46 0.290824 -1.54893 0
M  V30 18044 C 1724.69 1.04344 -1.78661 0
M  V30 18045 C 1725.11 1.80578 -0.551083 0
M  V30 18046 O 1724.46 1.76091 0.479394 0
M  V30 18047 C 1724.52 2.01604 -3.00064 0
M  V30 18048 O 1724.24 1.28461 -4.18843 0
M  V30 18049 C 1725.74 2.88822 -3.36298 0
M  V30 18050 H 1722.96 0.309018 -0.595608 0
M  V30 18051 H 1725.5 0.327011 -2.01868 0
M  V30 18052 H 1723.66 2.68735 -2.79035 0
M  V30 18053 H 1724.07 1.93864 -4.87357 0
M  V30 18054 H 1725.54 3.52898 -4.24461 0
M  V30 18055 H 1726.02 3.5766 -2.54904 0
M  V30 18056 H 1726.63 2.27208 -3.59523 0
M  V30 18057 N 1724.94 1.47523 0.554506 0
M  V30 18058 C 1725.87 1.63093 1.67102 0
M  V30 18059 C 1726.85 0.480298 1.63178 0
M  V30 18060 O 1728.04 0.709956 1.80757 0
M  V30 18061 C 1725.17 1.64751 3.05736 0
M  V30 18062 C 1724.12 2.79068 3.24507 0
M  V30 18063 C 1723.45 2.65801 4.63955 0
M  V30 18064 C 1724.75 4.20631 3.09623 0
M  V30 18065 H 1726.44 2.56561 1.54328 0
M  V30 18066 H 1723.99 1.2347 0.741023 0
M  V30 18067 H 1725.94 1.74234 3.83693 0
M  V30 18068 H 1724.67 0.678453 3.19475 0
M  V30 18069 H 1723.32 2.691 2.48959 0
M  V30 18070 H 1722.97 1.66917 4.74497 0
M  V30 18071 H 1722.67 3.42494 4.77464 0
M  V30 18072 H 1724.2 2.77216 5.44044 0
M  V30 18073 H 1725.61 4.31562 3.77396 0
M  V30 18074 H 1724.01 4.98133 3.3464 0
M  V30 18075 H 1725.08 4.38809 2.06336 0
M  V30 18076 N 1726.42 -0.801453 1.357 0
M  V30 18077 C 1727.33 -1.94505 1.31167 0
M  V30 18078 C 1728.35 -1.72657 0.215747 0
M  V30 18079 O 1729.52 -1.96399 0.446022 0
M  V30 18080 C 1726.59 -3.29175 1.08834 0
M  V30 18081 C 1725.65 -3.63883 2.27788 0
M  V30 18082 C 1724.88 -4.92127 2.06511 0
M  V30 18083 O 1725.1 -5.60947 1.03416 0
M  V30 18084 O 1724.04 -5.25213 2.93998 0
M  V30 18085 H 1727.86 -2.01277 2.27423 0
M  V30 18086 H 1725.45 -0.939979 1.16124 0
M  V30 18087 H 1727.33 -4.09787 0.98248 0
M  V30 18088 H 1726.01 -3.23322 0.156326 0
M  V30 18089 H 1724.91 -2.83627 2.4394 0
M  V30 18090 H 1726.25 -3.74446 3.19454 0
M  V30 18091 N 1727.9 -1.19782 -1.02421 0
M  V30 18092 C 1729.15 -1.00133 -1.7555 0
M  V30 18093 C 1729.47 0.468503 -1.89288 0
M  V30 18094 O 1728.74 1.3391 -1.42986 0
M  V30 18095 H 1727.32 -0.367513 -0.650341 0
M  V30 18096 H 1729.98 -1.50758 -1.23523 0
M  V30 18097 H 1729.08 -1.45329 -2.76199 0
M  V30 18098 N 1729.38 1.21606 -1.00248 0
M  V30 18099 C 1730.65 1.86191 -0.599348 0
M  V30 18100 C 1731.03 1.89847 0.923104 0
M  V30 18101 O 1730.38 1.39595 1.80902 0
M  V30 18102 C 1730.59 3.26576 -1.23082 0
M  V30 18103 C 1731.94 4.02989 -1.33736 0
M  V30 18104 O 1732.96 3.35877 -1.18595 0
M  V30 18105 O 1731.82 5.23142 -1.58065 0
M  V30 18106 H 1728.92 0.801204 -0.204943 0
M  V30 18107 H 1731.46 1.29309 -1.09897 0
M  V30 18108 H 1730.24 3.18601 -2.27176 0
M  V30 18109 H 1729.86 3.91074 -0.717394 0
M  V30 18110 N 1730.86 0.776895 1.37121 0
M  V30 18111 C 1732.13 0.268067 1.93754 0
M  V30 18112 C 1732.51 -1.23774 1.71007 0
M  V30 18113 O 1731.86 -2.02331 1.0618 0
M  V30 18114 C 1732.07 0.647054 3.42949 0
M  V30 18115 C 1733.42 0.619737 4.20053 0
M  V30 18116 O 1734.44 0.586757 3.51334 0
M  V30 18117 O 1733.3 0.651412 5.42604 0
M  V30 18118 H 1730.4 0.0631883 0.824582 0
M  V30 18119 H 1732.94 0.858594 1.46377 0
M  V30 18120 H 1731.71 1.68608 3.5311 0
M  V30 18121 H 1731.34 0.0297448 3.97589 0
M  V30 18122 N 1732.33 -1.48497 0.527859 0
M  V30 18123 C 1733.26 -2.32414 -0.224891 0
M  V30 18124 C 1734.24 -1.41959 -0.93711 0
M  V30 18125 O 1735.43 -1.70847 -0.923302 0
M  V30 18126 C 1732.56 -3.23106 -1.27356 0
M  V30 18127 C 1731.51 -4.2257 -0.679611 0
M  V30 18128 C 1730.84 -5.02381 -1.83077 0
M  V30 18129 C 1732.14 -5.21144 0.347269 0
M  V30 18130 H 1733.83 -2.95598 0.475632 0
M  V30 18131 H 1731.38 -1.42148 0.230182 0
M  V30 18132 H 1733.33 -3.80639 -1.8081 0
M  V30 18133 H 1732.06 -2.57919 -2.00363 0
M  V30 18134 H 1730.72 -3.66221 -0.166608 0
M  V30 18135 H 1730.36 -4.3362 -2.54918 0
M  V30 18136 H 1730.06 -5.697 -1.43929 0
M  V30 18137 H 1731.59 -5.62765 -2.36914 0
M  V30 18138 H 1733 -5.73213 -0.100107 0
M  V30 18139 H 1731.4 -5.96503 0.656021 0
M  V30 18140 H 1732.47 -4.6841 1.25379 0
M  V30 18141 N 1733.81 -0.262893 -1.55392 0
M  V30 18142 C 1735.06 0.357939 -1.98499 0
M  V30 18143 C 1735.37 1.5789 -1.15456 0
M  V30 18144 O 1736.58 2.2719 -1.4865 0
M  V30 18145 C 1735.04 0.688205 -3.53259 0
M  V30 18146 C 1734.64 -0.512257 -4.45062 0
M  V30 18147 C 1736.39 1.27234 -4.04984 0
M  V30 18148 C 1734.29 -0.157257 -5.91191 0
M  V30 18149 H 1733.22 0.137514 -0.741354 0
M  V30 18150 H 1735.88 -0.365626 -1.79821 0
M  V30 18151 H 1734.26 1.47034 -3.67692 0
M  V30 18152 H 1735.43 -1.28935 -4.42394 0
M  V30 18153 H 1733.75 -1.0124 -4.03905 0
M  V30 18154 H 1736.34 1.55155 -5.11694 0
M  V30 18155 H 1736.69 2.20217 -3.53285 0
M  V30 18156 H 1737.22 0.552763 -3.93941 0
M  V30 18157 H 1733.96 -1.05464 -6.4696 0
M  V30 18158 H 1733.48 0.583319 -5.96957 0
M  V30 18159 H 1735.16 0.254892 -6.46498 0
M  V30 18160 N 1735.29 1.57597 0.0100073 0
M  V30 18161 C 1736.22 2.10825 1.00375 0
M  V30 18162 C 1737.2 1.01507 1.36493 0
M  V30 18163 O 1738.39 1.29136 1.45043 0
M  V30 18164 C 1735.52 2.60334 2.29878 0
M  V30 18165 C 1734.47 3.74087 2.07949 0
M  V30 18166 C 1733.8 4.09873 3.43378 0
M  V30 18167 C 1735.1 5.01764 1.45018 0
M  V30 18168 H 1736.79 2.94105 0.560591 0
M  V30 18169 H 1734.34 1.4148 0.268208 0
M  V30 18170 H 1736.29 2.96196 2.99743 0
M  V30 18171 H 1735.01 1.74162 2.76288 0
M  V30 18172 H 1733.67 3.38603 1.40512 0
M  V30 18173 H 1733.32 3.20739 3.87473 0
M  V30 18174 H 1733.02 4.86505 3.29525 0
M  V30 18175 H 1734.54 4.48285 4.14575 0
M  V30 18176 H 1735.96 5.35462 2.04826 0
M  V30 18177 H 1734.35 5.83135 1.41683 0
M  V30 18178 H 1735.42 4.83093 0.41819 0
M  V30 18179 N 1736.77 -0.282606 1.55045 0
M  V30 18180 C 1737.68 -1.37129 1.90349 0
M  V30 18181 C 1738.69 -1.54537 0.799639 0
M  V30 18182 O 1739.87 -1.68849 1.09782 0
M  V30 18183 C 1736.93 -2.71211 2.15975 0
M  V30 18184 C 1736 -2.62632 3.39592 0
M  V30 18185 C 1735.23 -3.90319 3.63987 0
M  V30 18186 O 1735.45 -4.90551 2.9106 0
M  V30 18187 O 1734.39 -3.91102 4.57518 0
M  V30 18188 H 1738.21 -1.10189 2.83006 0
M  V30 18189 H 1735.8 -0.480293 1.41469 0
M  V30 18190 H 1737.68 -3.50509 2.33926 0
M  V30 18191 H 1736.35 -2.97958 1.26503 0
M  V30 18192 H 1735.26 -1.81743 3.26987 0
M  V30 18193 H 1736.59 -2.40836 4.29254 0
M  V30 18194 N 1738.25 -1.47815 -0.546675 0
M  V30 18195 C 1739.49 -1.54238 -1.29975 0
M  V30 18196 C 1739.81 -0.213869 -1.94427 0
M  V30 18197 O 1741.01 -0.156187 -2.7105 0
M  V30 18198 C 1739.47 -2.71938 -2.35749 0
M  V30 18199 C 1739.08 -4.11362 -1.77441 0
M  V30 18200 C 1740.82 -2.87661 -3.12172 0
M  V30 18201 C 1738.73 -5.20347 -2.81057 0
M  V30 18202 H 1737.66 -0.574139 -0.488754 0
M  V30 18203 H 1740.31 -1.74113 -0.579384 0
M  V30 18204 H 1738.69 -2.45463 -3.10747 0
M  V30 18205 H 1739.87 -4.47785 -1.08744 0
M  V30 18206 H 1738.18 -4.00614 -1.13568 0
M  V30 18207 H 1740.78 -3.66252 -3.89568 0
M  V30 18208 H 1741.12 -1.96494 -3.67009 0
M  V30 18209 H 1741.65 -3.13957 -2.44286 0
M  V30 18210 H 1738.39 -6.13426 -2.31061 0
M  V30 18211 H 1737.91 -4.8843 -3.48132 0
M  V30 18212 H 1739.59 -5.47748 -3.44355 0
M  V30 18213 N 1739.72 0.794246 -1.36123 0
M  V30 18214 C 1740.63 1.93807 -1.32197 0
M  V30 18215 C 1741.65 1.7254 -0.2249 0
M  V30 18216 O 1742.83 1.9616 -0.456431 0
M  V30 18217 C 1739.89 3.28593 -1.10578 0
M  V30 18218 C 1738.95 3.6267 -2.29715 0
M  V30 18219 C 1738.18 4.91025 -2.09118 0
M  V30 18220 O 1738.41 5.6039 -1.06389 0
M  V30 18221 O 1737.34 5.23647 -2.96779 0
M  V30 18222 H 1741.17 2.00068 -2.28487 0
M  V30 18223 H 1738.75 0.933808 -1.16621 0
M  V30 18224 H 1740.63 4.0926 -1.0042 0
M  V30 18225 H 1739.31 3.23235 -0.17347 0
M  V30 18226 H 1738.22 2.82329 -2.4544 0
M  V30 18227 H 1739.55 3.72747 -3.21435 0
M  V30 18228 O 1741.24 1.3178 0.933613 0
M  V30 18229 H 1741.93 1.14182 1.56468 0
M  V30 END ATOM
M  V30 BEGIN BOND
M  V30 END BOND
M  V30 END CTAB
M  END
$$$$
