drugbank_target|P11586 C-1-tetrahydrofolate synthase, cytoplasmic (DB00116; DB00157; DB02358; DB03461; DB04322)
 OpenBabel12092119353D

  0  0  0     0  0            999 V3000
M  V30 BEGIN CTAB
M  V30 COUNTS 14445 14576 0 0 0
M  V30 BEGIN ATOM
M  V30 1 H -0.908 1.98254 -0.117106 0
M  V30 2 N 0 1.576 0 0
M  V30 3 C 0.933 2.03868 1.02534 0
M  V30 4 C 1.911 0.928543 1.3348 0
M  V30 5 O 3.095 1.19667 1.45644 0
M  V30 6 C 0.222 2.43627 2.35294 0
M  V30 7 C -0.732 3.65373 2.2001 0
M  V30 8 S 0.101 5.13292 1.52614 0
M  V30 9 C 1.257 5.56322 2.86805 0
M  V30 10 H 1.49 2.90518 0.631377 0
M  V30 11 H -0.977 1.52953 0.210867 0
M  V30 12 H 0.981 2.67203 3.11629 0
M  V30 13 H -0.358 1.57376 2.7183 0
M  V30 14 H -1.165 3.90944 3.18086 0
M  V30 15 H -1.563 3.418 1.51819 0
M  V30 16 H 0.729 5.58782 3.83104 0
M  V30 17 H 1.672 6.56266 2.65933 0
M  V30 18 H 2.08 4.83886 2.90714 0
M  V30 19 N 1.4781 -0.272755 1.55222 0
M  V30 20 C 2.4411 -1.32041 1.87344 0
M  V30 21 C 3.4411 -1.42342 0.74803 0
M  V30 22 O 4.6311 -1.41488 1.0162 0
M  V30 23 C 1.7631 -2.70173 2.07893 0
M  V30 24 H 2.9561 -1.04789 2.80997 0
M  V30 25 H 0.5091 -0.51083 1.47717 0
M  V30 26 H 1.2441 -3.02605 1.16622 0
M  V30 27 H 1.0291 -2.64082 2.89833 0
M  V30 28 H 2.5191 -3.45869 2.34017 0
M  V30 29 N 2.9562 -1.48159 -0.537278 0
M  V30 30 C 4.3672 -1.49429 -1.11928 0
M  V30 31 C 4.7182 -0.26 -1.9447 0
M  V30 32 O 3.8432 0.633489 -2.0692 0
M  V30 33 C 4.4382 -2.70758 -2.03656 0
M  V30 34 C 2.9972 -2.74923 -2.57088 0
M  V30 35 C 2.1442 -2.42835 -1.3389 0
M  V30 36 H 5.0952 -1.55381 -0.322886 0
M  V30 37 H 5.1162 -2.48861 -2.87834 0
M  V30 38 H 4.6282 -3.60575 -1.43553 0
M  V30 39 H 2.7292 -1.89296 -3.20933 0
M  V30 40 H 2.8422 -3.76157 -2.9672 0
M  V30 41 H 1.2062 -1.93836 -1.65226 0
M  V30 42 H 1.9892 -3.34884 -0.755504 0
M  V30 43 N 4.4343 0.785586 -1.36625 0
M  V30 44 C 5.3973 1.87999 -1.31107 0
M  V30 45 C 6.3973 1.59316 -0.217959 0
M  V30 46 O 7.5873 1.67656 -0.472977 0
M  V30 47 C 4.7193 3.24861 -1.03334 0
M  V30 48 H 5.9123 1.94307 -2.2844 0
M  V30 49 H 3.4653 0.983813 -1.21453 0
M  V30 50 H 4.2003 3.24235 -0.0647432 0
M  V30 51 H 3.9853 3.4707 -1.82441 0
M  V30 52 H 5.4753 4.04929 -1.02088 0
M  V30 53 N 5.9124 1.20967 1.01018 0
M  V30 54 C 6.8224 0.980157 2.13143 0
M  V30 55 C 7.8384 -0.0660665 1.73875 0
M  V30 56 O 9.0144 0.122821 2.01025 0
M  V30 57 C 6.0794 0.54216 3.42435 0
M  V30 58 C 5.1404 1.65999 3.95908 0
M  V30 59 C 4.3734 1.2428 5.19028 0
M  V30 60 O 4.5964 0.114196 5.70286 0
M  V30 61 O 3.5304 2.05271 5.65816 0
M  V30 62 H 7.3564 1.91913 2.35379 0
M  V30 63 H 4.9414 0.994099 1.11526 0
M  V30 64 H 6.8234 0.30744 4.20277 0
M  V30 65 H 5.4984 -0.36815 3.216 0
M  V30 66 H 4.4054 1.94906 3.19316 0
M  V30 67 H 5.7384 2.54753 4.21143 0
M  V30 68 N 7.3905 -1.2043 1.01659 0
M  V30 69 C 8.6395 -1.89118 0.701237 0
M  V30 70 C 8.9525 -1.79705 -0.772358 0
M  V30 71 O 10.1585 -2.43528 -1.20026 0
M  V30 72 C 8.6145 -3.39168 1.20388 0
M  V30 73 C 8.2225 -3.57166 2.70438 0
M  V30 74 C 9.9665 -4.1341 0.963953 0
M  V30 75 C 7.8735 -5.01042 3.14183 0
M  V30 76 H 6.8035 -0.708267 0.2586 0
M  V30 77 H 9.4545 -1.36239 1.22927 0
M  V30 78 H 7.8365 -3.91369 0.603824 0
M  V30 79 H 9.0105 -3.15351 3.35992 0
M  V30 80 H 7.3255 -2.96294 2.92572 0
M  V30 81 H 9.9225 -5.19491 1.26621 0
M  V30 82 H 10.2655 -4.16181 -0.099578 0
M  V30 83 H 10.7985 -3.67309 1.52738 0
M  V30 84 H 7.5375 -5.03426 4.19812 0
M  V30 85 H 7.0575 -5.43668 2.53348 0
M  V30 86 H 8.7365 -5.69623 3.0682 0
M  V30 87 N 8.8686 -0.792821 -1.36206 0
M  V30 88 C 9.7986 -0.207853 -2.32573 0
M  V30 89 C 10.7796 0.659055 -1.56813 0
M  V30 90 O 11.9646 0.592176 -1.84951 0
M  V30 91 C 9.0946 0.655449 -3.41059 0
M  V30 92 C 8.0486 -0.111842 -4.27854 0
M  V30 93 C 7.3746 0.872274 -5.27537 0
M  V30 94 C 8.6746 -1.30299 -5.05786 0
M  V30 95 H 10.3686 -1.01294 -2.81744 0
M  V30 96 H 7.9146 -0.48854 -1.3546 0
M  V30 97 H 9.8676 1.07464 -4.07467 0
M  V30 98 H 8.5916 1.49328 -2.90463 0
M  V30 99 H 7.2506 -0.512053 -3.63006 0
M  V30 100 H 6.8986 1.70523 -4.73214 0
M  V30 101 H 6.5986 0.363291 -5.86476 0
M  V30 102 H 8.1226 1.28996 -5.96818 0
M  V30 103 H 9.5366 -0.959379 -5.65216 0
M  V30 104 H 7.9336 -1.7455 -5.74154 0
M  V30 105 H 9.0036 -2.09663 -4.37229 0
M  V30 106 N 10.3467 1.47872 -0.545128 0
M  V30 107 C 11.2947 2.31533 0.222512 0
M  V30 108 C 12.2887 1.42177 0.920985 0
M  V30 109 O 13.4947 1.59005 0.843645 0
M  V30 110 H 9.8697 0.746519 0.0906278 0
M  V30 111 H 11.8407 2.94139 -0.50246 0
M  V30 112 C 10.5897 3.2457 1.24699 0
M  V30 113 H 9.9127 3.93283 0.718944 0
M  V30 114 H 11.3527 3.85963 1.75523 0
M  V30 115 C 9.8117 2.47237 2.28856 0
M  V30 116 O 10.3417 2.20808 3.35569 0
M  V30 117 N 8.5477 2.08461 2.02466 0
M  V30 118 H 8.0947 2.30155 1.157 0
M  V30 119 H 8.0527 1.57033 2.72375 0
M  V30 120 N 11.8248 0.280983 1.55075 0
M  V30 121 C 13.0728 -0.333455 1.9933 0
M  V30 122 C 13.3938 -1.55937 1.17085 0
M  V30 123 O 12.6638 -1.94143 0.261805 0
M  V30 124 H 11.2438 -0.126197 0.736263 0
M  V30 125 H 13.9058 0.387678 1.91005 0
M  V30 126 H 13.0018 -0.619292 3.05894 0
M  V30 127 N 13.3029 -1.57598 0.00835791 0
M  V30 128 C 14.2499 -2.08945 -0.980346 0
M  V30 129 C 15.2199 -0.986738 -1.33614 0
M  V30 130 O 16.4049 -1.25968 -1.43306 0
M  V30 131 C 13.5449 -2.60425 -2.26435 0
M  V30 132 C 12.6579 -3.84628 -1.96685 0
M  V30 133 C 11.7929 -4.24579 -3.19228 0
M  V30 134 C 10.8319 -5.41596 -2.85202 0
M  V30 135 N 9.9689 -5.768 -4.00307 0
M  V30 136 H 14.8089 -2.93148 -0.535551 0
M  V30 137 H 12.3459 -1.44912 -0.252776 0
M  V30 138 H 14.3039 -2.88354 -3.01509 0
M  V30 139 H 12.9339 -1.79083 -2.68568 0
M  V30 140 H 11.9859 -3.63556 -1.11942 0
M  V30 141 H 13.2979 -4.69796 -1.67611 0
M  V30 142 H 12.4519 -4.53834 -4.02641 0
M  V30 143 H 11.1909 -3.38137 -3.51447 0
M  V30 144 H 10.1959 -5.12056 -2.00198 0
M  V30 145 H 11.4209 -6.29721 -2.54222 0
M  V30 146 H 9.3669 -4.93316 -4.32407 0
M  V30 147 H 9.2839 -6.5656 -3.74786 0
M  V30 148 H 10.5519 -6.10652 -4.84484 0
M  V30 149 N 14.781 0.264519 -1.55364 0
M  V30 150 C 15.691 1.34902 -1.91934 0
M  V30 151 C 16.707 1.53595 -0.817593 0
M  V30 152 O 17.883 1.67558 -1.11742 0
M  V30 153 C 14.948 2.68676 -2.19121 0
M  V30 154 C 14.009 2.58657 -3.4263 0
M  V30 155 C 13.242 3.86051 -3.68511 0
M  V30 156 O 13.465 4.87126 -2.96757 0
M  V30 157 O 12.399 3.85744 -4.62045 0
M  V30 158 H 16.225 1.06883 -2.8427 0
M  V30 159 H 13.81 0.463775 -1.42019 0
M  V30 160 H 15.692 3.47759 -2.37995 0
M  V30 161 H 14.367 2.96463 -1.29966 0
M  V30 162 H 13.274 1.7792 -3.29082 0
M  V30 163 H 14.607 2.35818 -4.32031 0
M  V30 164 N 16.2591 1.48442 0.529413 0
M  V30 165 C 17.5081 1.55742 1.28169 0
M  V30 166 C 17.8211 0.236511 1.94165 0
M  V30 167 O 19.0271 0.187761 2.7085 0
M  V30 168 C 17.4831 2.74667 2.32564 0
M  V30 169 C 17.0911 4.13402 1.72636 0
M  V30 170 C 18.8351 2.9128 3.08798 0
M  V30 171 C 16.7421 5.23587 2.74975 0
M  V30 172 H 15.6721 0.579796 0.48203 0
M  V30 173 H 18.3231 1.74776 0.559056 0
M  V30 174 H 16.7051 2.49067 3.07866 0
M  V30 175 H 17.8791 4.49022 1.03519 0
M  V30 176 H 16.1941 4.0191 1.08892 0
M  V30 177 H 18.7911 3.70767 3.85274 0
M  V30 178 H 19.1341 2.00757 3.64695 0
M  V30 179 H 19.6671 3.16782 2.40611 0
M  V30 180 H 16.4061 6.16076 2.23897 0
M  V30 181 H 15.9261 4.92454 3.42417 0
M  V30 182 H 17.6051 5.51724 3.37949 0
M  V30 183 N 17.7372 -0.778329 1.37039 0
M  V30 184 C 18.9622 -1.57248 1.35233 0
M  V30 185 C 19.3872 -1.87999 -0.0615568 0
M  V30 186 O 18.7452 -1.48734 -1.03672 0
M  V30 187 C 18.7932 -2.86353 2.19167 0
M  V30 188 O 17.8972 -3.80442 1.59178 0
M  V30 189 H 17.2382 -0.476569 0.462362 0
M  V30 190 H 19.7682 -0.963853 1.80474 0
M  V30 191 H 19.7782 -3.35519 2.32145 0
M  V30 192 H 18.4532 -2.63299 3.21942 0
M  V30 193 H 17.0302 -3.39067 1.55203 0
M  V30 194 N 19.2153 -1.21501 -1.00376 0
M  V30 195 C 20.1783 -0.976927 -2.07337 0
M  V30 196 C 21.1783 0.0525322 -1.60714 0
M  V30 197 O 22.3683 -0.184869 -1.73216 0
M  V30 198 C 19.5003 -0.473423 -3.37597 0
M  V30 199 H 20.6933 -1.92587 -2.29892 0
M  V30 200 H 18.2463 -1.03217 -1.17371 0
M  V30 201 H 18.9813 0.480379 -3.20722 0
M  V30 202 H 18.7663 -1.216 -3.72768 0
M  V30 203 H 20.2563 -0.32675 -4.1632 0
M  V30 204 N 20.6934 1.19889 -1.02296 0
M  V30 205 C 21.6254 2.22334 -0.556787 0
M  V30 206 C 22.6384 1.58674 0.364199 0
M  V30 207 O 23.8274 1.77768 0.161533 0
M  V30 208 C 20.9274 3.38257 0.208694 0
M  V30 209 C 20.1004 4.31504 -0.71577 0
M  V30 210 C 19.1594 5.262 0.00325597 0
M  V30 211 O 18.1854 5.65798 -0.621357 0
M  V30 212 N 19.3874 5.66303 1.27599 0
M  V30 213 H 22.1524 2.62957 -1.43784 0
M  V30 214 H 19.7134 1.34495 -0.901261 0
M  V30 215 H 21.7054 3.98616 0.699111 0
M  V30 216 H 20.2754 2.96472 0.991102 0
M  V30 217 H 19.4954 3.69016 -1.38638 0
M  V30 218 H 20.7834 4.9072 -1.34428 0
M  V30 219 H 20.1814 5.36155 1.80429 0
M  V30 220 H 18.7384 6.28942 1.71102 0
M  V30 221 N 22.1715 0.800033 1.35784 0
M  V30 222 C 23.4205 0.37387 1.98205 0
M  V30 223 C 23.7335 -1.06302 1.64193 0
M  V30 224 O 24.9395 -1.59198 2.19928 0
M  V30 225 C 23.3955 0.617532 3.54562 0
M  V30 226 C 23.0035 2.06654 3.9749 0
M  V30 227 C 24.7475 0.256401 4.23725 0
M  V30 228 C 22.6545 2.2563 5.46667 0
M  V30 229 H 21.5845 0.136055 0.741623 0
M  V30 230 H 24.2355 0.983166 1.54939 0
M  V30 231 H 22.6175 -0.0616248 3.95952 0
M  V30 232 H 23.7915 2.78296 3.67271 0
M  V30 233 H 22.1065 2.38691 3.41197 0
M  V30 234 H 24.7035 0.376318 5.33374 0
M  V30 235 H 25.0465 -0.796692 4.08606 0
M  V30 236 H 25.5795 0.889214 3.87734 0
M  V30 237 H 22.3185 3.2936 5.66747 0
M  V30 238 H 21.8385 1.58504 5.78478 0
M  V30 239 H 23.5175 2.06861 6.1304 0
M  V30 240 N 23.6496 -1.47581 0.552962 0
M  V30 241 C 25.0656 -1.5818 0.212424 0
M  V30 242 C 25.2656 -1.55213 -1.28496 0
M  V30 243 O 24.3216 -1.45329 -2.06484 0
M  V30 244 C 25.6346 -2.88865 0.835318 0
M  V30 245 C 27.1826 -3.0244 0.806156 0
M  V30 246 C 27.6576 -4.35819 1.40804 0
M  V30 247 N 29.1486 -4.42444 1.37103 0
M  V30 248 C 29.8836 -5.44202 1.80641 0
M  V30 249 N 29.3796 -6.52795 2.32015 0
M  V30 250 N 31.1726 -5.35222 1.71738 0
M  V30 251 H 23.3236 -1.47753 1.52587 0
M  V30 252 H 25.5866 -0.702941 0.636064 0
M  V30 253 H 25.2926 -2.9676 1.88749 0
M  V30 254 H 25.1666 -3.7579 0.325848 0
M  V30 255 H 27.5536 -2.94144 -0.237317 0
M  V30 256 H 27.6346 -2.17068 1.35334 0
M  V30 257 H 27.2786 -4.44871 2.45056 0
M  V30 258 H 27.2086 -5.19916 0.836338 0
M  V30 259 H 29.6996 -3.6456 0.995202 0
M  V30 260 H 30.0126 -7.26609 2.63171 0
M  V30 261 H 28.3576 -6.53696 2.36023 0
M  V30 262 H 31.5486 -4.49284 1.31382 0
M  V30 263 H 31.7216 -6.14389 2.05987 0
M  V30 264 N 25.1277 -0.289203 -1.54924 0
M  V30 265 C 26.0907 0.579144 -2.21762 0
M  V30 266 C 27.0907 1.07047 -1.1999 0
M  V30 267 O 28.2807 0.968384 -1.44803 0
M  V30 268 C 25.4127 1.80055 -2.8947 0
M  V30 269 H 26.6057 -0.00464908 -2.999 0
M  V30 270 H 24.1587 -0.0399306 -1.56249 0
M  V30 271 H 24.8937 2.42449 -2.15381 0
M  V30 272 H 24.6787 1.45602 -3.64064 0
M  V30 273 H 26.1687 2.41773 -3.40493 0
M  V30 274 N 26.6058 1.57591 -0.0167156 0
M  V30 275 C 28.0218 1.55946 0.339557 0
M  V30 276 C 28.2218 1.02109 1.73713 0
M  V30 277 O 27.2778 0.662303 2.43659 0
M  V30 278 C 28.5908 3.00037 0.199499 0
M  V30 279 C 30.1388 3.11805 0.273193 0
M  V30 280 C 30.6138 4.57713 0.162068 0
M  V30 281 N 32.1048 4.6268 0.219444 0
M  V30 282 C 32.8398 5.73185 0.157054 0
M  V30 283 N 32.3358 6.92786 0.0442936 0
M  V30 284 N 34.1288 5.61707 0.21014 0
M  V30 285 H 26.2798 1.90921 -0.930758 0
M  V30 286 H 28.5428 0.877674 -0.358319 0
M  V30 287 H 28.2488 3.4333 -0.76273 0
M  V30 288 H 28.1228 3.64387 0.974786 0
M  V30 289 H 30.5098 2.68433 1.22587 0
M  V30 290 H 30.5908 2.50201 -0.532256 0
M  V30 291 H 30.2348 5.01763 -0.78714 0
M  V30 292 H 30.1648 5.17283 0.986222 0
M  V30 293 H 32.6558 3.76649 0.307246 0
M  V30 294 H 32.9688 7.728 0.00304069 0
M  V30 295 H 31.3138 6.94999 0.00968457 0
M  V30 296 H 34.5048 4.6716 0.296546 0
M  V30 297 H 34.6778 6.47807 0.158054 0
M  V30 298 N 28.0839 -0.256276 1.55502 0
M  V30 299 C 29.0139 -1.32102 1.92539 0
M  V30 300 C 29.9949 -1.50684 0.789194 0
M  V30 301 O 31.1799 -1.63449 1.04872 0
M  V30 302 C 28.3099 -2.67752 2.21192 0
M  V30 303 C 27.2639 -2.63878 3.36975 0
M  V30 304 C 26.5899 -4.03236 3.51147 0
M  V30 305 C 27.8899 -2.21682 4.72921 0
M  V30 306 H 29.5839 -1.01351 2.81724 0
M  V30 307 H 27.1299 -0.486105 1.35547 0
M  V30 308 H 29.0829 -3.42365 2.45691 0
M  V30 309 H 27.8069 -3.0012 1.28824 0
M  V30 310 H 26.4659 -1.91722 3.12471 0
M  V30 311 H 26.1139 -4.32854 2.56216 0
M  V30 312 H 25.8139 -4.01535 4.29003 0
M  V30 313 H 27.3379 -4.79563 3.77957 0
M  V30 314 H 28.7519 -2.86023 4.96854 0
M  V30 315 H 27.1489 -2.3111 5.53812 0
M  V30 316 H 28.2189 -1.16833 4.70615 0
M  V30 317 N 29.562 -1.4872 -0.521534 0
M  V30 318 C 30.509 -1.63871 -1.62527 0
M  V30 319 C 31.479 -0.480559 -1.58996 0
M  V30 320 O 32.664 -0.705085 -1.77294 0
M  V30 321 C 29.804 -1.69227 -3.00759 0
M  V30 322 C 28.917 -2.96207 -3.14461 0
M  V30 323 C 28.052 -2.92671 -4.43303 0
M  V30 324 C 27.091 -4.14318 -4.50563 0
M  V30 325 N 26.228 -4.0881 -5.70805 0
M  V30 326 H 31.068 -2.58123 -1.48918 0
M  V30 327 H 28.605 -1.28 -0.724878 0
M  V30 328 H 30.563 -1.70314 -3.80853 0
M  V30 329 H 29.193 -0.784586 -3.1312 0
M  V30 330 H 28.245 -3.04826 -2.27564 0
M  V30 331 H 29.557 -3.86192 -3.15686 0
M  V30 332 H 28.711 -2.92206 -5.31696 0
M  V30 333 H 27.45 -2.00429 -4.44612 0
M  V30 334 H 26.455 -4.15049 -3.60575 0
M  V30 335 H 27.68 -5.07729 -4.50986 0
M  V30 336 H 25.626 -3.19394 -5.72995 0
M  V30 337 H 25.543 -4.92509 -5.7356 0
M  V30 338 H 26.811 -4.12418 -6.61462 0
M  V30 339 N 31.0401 0.771051 -1.3745 0
M  V30 340 C 31.9881 1.90574 -1.33358 0
M  V30 341 C 32.9821 1.67936 -0.22224 0
M  V30 342 O 34.1881 1.75717 -0.390304 0
M  V30 343 H 30.5631 0.626714 -0.415612 0
M  V30 344 H 32.5341 1.91142 -2.29144 0
M  V30 345 C 31.2831 3.27845 -1.15813 0
M  V30 346 H 30.6061 3.45842 -2.00583 0
M  V30 347 H 32.0461 4.07538 -1.17 0
M  V30 348 C 30.5051 3.36625 0.136165 0
M  V30 349 O 31.0351 3.85785 1.11949 0
M  V30 350 N 29.2411 2.89997 0.187099 0
M  V30 351 H 28.7881 2.50182 -0.613753 0
M  V30 352 H 28.7461 2.96252 1.05272 0
M  V30 353 N 32.5182 1.22032 0.997298 0
M  V30 354 C 33.4502 0.944263 2.08845 0
M  V30 355 C 34.4632 -0.0754663 1.62625 0
M  V30 356 O 35.6522 0.157994 1.77799 0
M  V30 357 C 32.7522 0.397723 3.36558 0
M  V30 358 C 31.9252 1.47362 4.11829 0
M  V30 359 C 30.9842 0.934951 5.17827 0
M  V30 360 O 30.0102 1.62016 5.45655 0
M  V30 361 N 31.2122 -0.245895 5.79979 0
M  V30 362 H 33.9772 1.88363 2.33109 0
M  V30 363 H 31.5382 1.12661 1.16272 0
M  V30 364 H 33.5302 0.0227771 4.04694 0
M  V30 365 H 32.1002 -0.446646 3.09393 0
M  V30 366 H 31.3202 2.02208 3.38386 0
M  V30 367 H 32.6082 2.19764 4.58891 0
M  V30 368 H 32.0062 -0.819475 5.59733 0
M  V30 369 H 30.5632 -0.562272 6.4937 0
M  V30 370 N 33.9963 -1.19345 1.0293 0
M  V30 371 C 35.2423 -1.89318 0.727083 0
M  V30 372 C 35.5753 -1.79446 -0.742483 0
M  V30 373 O 34.8503 -1.1871 -1.54072 0
M  V30 374 C 35.1333 -3.40238 1.17942 0
M  V30 375 C 34.9863 -3.58979 2.71024 0
M  V30 376 C 36.3053 -4.33479 0.760548 0
M  V30 377 H 33.4243 -0.687475 0.265606 0
M  V30 378 H 36.0663 -1.40477 1.2793 0
M  V30 379 H 34.2163 -3.81964 0.709608 0
M  V30 380 H 35.8883 -3.26421 3.25955 0
M  V30 381 H 34.1313 -3.02018 3.11396 0
M  V30 382 H 34.8023 -4.64823 2.9773 0
M  V30 383 H 37.2783 -3.99469 1.16464 0
M  V30 384 H 36.1543 -5.37664 1.10493 0
M  V30 385 H 36.4153 -4.40813 -0.337063 0
M  V30 386 N 35.4744 -0.807222 -1.35358 0
M  V30 387 C 36.7024 -0.400377 -2.02989 0
M  V30 388 C 37.1174 0.988859 -1.60832 0
M  V30 389 O 36.4744 1.63729 -0.806175 0
M  V30 390 C 36.5254 -0.474867 -3.58368 0
M  V30 391 O 36.2464 -1.80933 -3.98992 0
M  V30 392 C 37.7474 -0.0609112 -4.43258 0
M  V30 393 H 34.9674 -0.162587 -0.651004 0
M  V30 394 H 37.5114 -1.09102 -1.72965 0
M  V30 395 H 35.6664 0.167534 -3.87038 0
M  V30 396 H 36.0804 -1.77256 -4.9364 0
M  V30 397 H 37.5544 -0.164145 -5.51756 0
M  V30 398 H 38.0314 0.993831 -4.27808 0
M  V30 399 H 38.6374 -0.676492 -4.19885 0
M  V30 400 N 36.9525 1.47285 -0.560781 0
M  V30 401 C 37.8845 2.28118 0.222438 0
M  V30 402 C 38.8975 1.37219 0.876056 0
M  V30 403 O 40.0865 1.62011 0.749307 0
M  V30 404 C 37.1865 3.1159 1.33285 0
M  V30 405 C 36.3595 4.30473 0.77534 0
M  V30 406 C 35.4185 4.95513 1.77069 0
M  V30 407 O 34.4445 5.53792 1.31539 0
M  V30 408 N 35.6465 4.90531 3.10418 0
M  V30 409 H 38.4115 2.95976 -0.470958 0
M  V30 410 H 35.9725 1.56955 -0.39709 0
M  V30 411 H 37.9645 3.51967 1.99752 0
M  V30 412 H 36.5345 2.45951 1.92943 0
M  V30 413 H 35.7545 3.94144 -0.0662113 0
M  V30 414 H 37.0425 5.07362 0.382272 0
M  V30 415 H 36.4405 4.44389 3.5005 0
M  V30 416 H 34.9975 5.34917 3.72434 0
M  V30 417 N 38.4306 0.297415 1.54768 0
M  V30 418 C 39.3606 -0.573494 2.26348 0
M  V30 419 C 40.3416 -1.14085 1.26169 0
M  V30 420 O 41.5266 -1.17086 1.54934 0
M  V30 421 C 38.6566 -1.74716 3.00153 0
M  V30 422 C 37.6106 -1.31032 4.07449 0
M  V30 423 C 36.9366 -2.56887 4.68949 0
M  V30 424 C 38.2366 -0.444183 5.20408 0
M  V30 425 H 39.9306 0.0235131 2.99391 0
M  V30 426 H 37.4766 0.0127488 1.43994 0
M  V30 427 H 39.4296 -2.3625 3.48947 0
M  V30 428 H 38.1536 -2.37035 2.24682 0
M  V30 429 H 36.8126 -0.718066 3.59499 0
M  V30 430 H 36.4606 -3.17512 3.90122 0
M  V30 431 H 36.1606 -2.2836 5.41411 0
M  V30 432 H 37.6846 -3.19229 5.20505 0
M  V30 433 H 39.0986 -0.9651 5.65118 0
M  V30 434 H 37.4956 -0.252846 5.99567 0
M  V30 435 H 38.5656 0.531609 4.81977 0
M  V30 436 N 39.9087 -1.5758 0.0250728 0
M  V30 437 C 40.8557 -2.09973 -0.958129 0
M  V30 438 C 41.8257 -1.00085 -1.3256 0
M  V30 439 O 43.0107 -1.27481 -1.41962 0
M  V30 440 C 40.1507 -2.62812 -2.2366 0
M  V30 441 C 39.2637 -3.86693 -1.92594 0
M  V30 442 C 38.3987 -4.27941 -3.14707 0
M  V30 443 C 37.4377 -5.44591 -2.79442 0
M  V30 444 N 36.5747 -5.81014 -3.94167 0
M  V30 445 H 41.4147 -2.937 -0.504428 0
M  V30 446 H 38.9517 -1.45172 -0.237392 0
M  V30 447 H 40.9097 -2.91536 -2.98434 0
M  V30 448 H 39.5397 -1.81922 -2.66654 0
M  V30 449 H 38.5917 -3.64723 -1.0808 0
M  V30 450 H 39.9037 -4.71547 -1.62619 0
M  V30 451 H 39.0577 -4.58079 -3.97804 0
M  V30 452 H 37.7967 -3.41845 -3.4784 0
M  V30 453 H 36.8017 -5.1415 -1.94755 0
M  V30 454 H 38.0267 -6.32382 -2.47528 0
M  V30 455 H 35.9727 -4.97874 -4.2715 0
M  V30 456 H 35.8897 -6.60498 -3.67801 0
M  V30 457 H 37.1577 -6.15756 -4.7798 0
M  V30 458 N 41.3868 0.248026 -1.55636 0
M  V30 459 C 42.2968 1.32859 -1.93354 0
M  V30 460 C 43.3128 1.52719 -0.833838 0
M  V30 461 O 44.4888 1.66363 -1.13513 0
M  V30 462 C 41.5538 2.66337 -2.21958 0
M  V30 463 C 40.6148 2.55008 -3.45354 0
M  V30 464 C 39.8478 3.82121 -3.72584 0
M  V30 465 O 40.0708 4.83951 -3.01907 0
M  V30 466 O 39.0048 3.80822 -4.6611 0
M  V30 467 H 42.8308 1.03862 -2.85388 0
M  V30 468 H 40.4158 0.448686 -1.42503 0
M  V30 469 H 42.2978 3.45216 -2.4167 0
M  V30 470 H 40.9728 2.95068 -1.33103 0
M  V30 471 H 39.8798 1.7442 -3.30951 0
M  V30 472 H 41.2128 2.31222 -4.34508 0
M  V30 473 N 42.8649 1.48995 0.513639 0
M  V30 474 C 43.7969 1.60836 1.63293 0
M  V30 475 C 44.8099 0.491701 1.55197 0
M  V30 476 O 45.9989 0.763238 1.6136 0
M  V30 477 C 43.0989 1.53731 3.02027 0
M  V30 478 C 42.2719 2.80715 3.35437 0
M  V30 479 C 41.3309 2.66837 4.53525 0
M  V30 480 O 40.3569 3.40753 4.55934 0
M  V30 481 N 41.5589 1.77539 5.52684 0
M  V30 482 H 44.3239 2.57366 1.53566 0
M  V30 483 H 41.8849 1.45925 0.701259 0
M  V30 484 H 43.8769 1.42118 3.78926 0
M  V30 485 H 42.4469 0.651092 3.05744 0
M  V30 486 H 41.6669 3.06772 2.47557 0
M  V30 487 H 42.9549 3.64927 3.54551 0
M  V30 488 H 42.3529 1.16719 5.53528 0
M  V30 489 H 40.9099 1.71856 6.28736 0
M  V30 490 N 44.343 -0.763751 1.37857 0
M  V30 491 C 45.589 -1.52483 1.33704 0
M  V30 492 C 45.922 -1.94051 -0.0759612 0
M  V30 493 O 45.197 -1.64675 -1.03501 0
M  V30 494 C 45.48 -2.78441 2.28348 0
M  V30 495 C 45.333 -2.43075 3.78463 0
M  V30 496 C 46.652 -3.80415 2.21298 0
M  V30 497 H 43.771 -0.553169 0.487005 0
M  V30 498 H 46.413 -0.875562 1.68624 0
M  V30 499 H 44.563 -3.33842 1.987 0
M  V30 500 H 46.235 -1.93527 4.18742 0
M  V30 501 H 44.478 -1.75666 3.96641 0
M  V30 502 H 45.149 -3.33149 4.40132 0
M  V30 503 H 47.625 -3.34527 2.47449 0
M  V30 504 H 46.501 -4.66257 2.89647 0
M  V30 505 H 46.762 -4.25262 1.20849 0
M  V30 506 N 45.8211 -1.22559 -0.990812 0
M  V30 507 C 47.2321 -1.04791 -1.54518 0
M  V30 508 C 47.5831 0.387998 -1.92325 0
M  V30 509 O 46.7081 1.27328 -1.74976 0
M  V30 510 C 47.3031 -1.896 -2.80779 0
M  V30 511 C 45.8621 -1.76124 -3.32652 0
M  V30 512 C 45.0091 -1.8594 -2.05722 0
M  V30 513 H 47.9601 -1.36374 -0.811662 0
M  V30 514 H 47.9811 -1.41464 -3.53225 0
M  V30 515 H 47.4931 -2.94101 -2.53231 0
M  V30 516 H 45.5941 -0.743643 -3.65104 0
M  V30 517 H 45.7071 -2.58913 -4.03114 0
M  V30 518 H 44.0711 -1.29403 -2.19379 0
M  V30 519 H 44.8541 -2.91976 -1.80568 0
M  V30 520 N 47.2992 1.18797 -1.03562 0
M  V30 521 C 48.5472 1.88278 -0.734569 0
M  V30 522 C 48.8682 1.8043 0.739586 0
M  V30 523 O 48.1382 1.21925 1.53333 0
M  V30 524 H 46.7182 0.696991 -0.268725 0
M  V30 525 H 49.3802 1.44192 -1.31129 0
M  V30 526 H 48.4762 2.94443 -1.03489 0
M  V30 527 N 48.7773 0.814389 1.34928 0
M  V30 528 C 50.0243 0.398423 1.98542 0
M  V30 529 C 50.3523 -1.03638 1.64589 0
M  V30 530 O 49.6073 -1.73509 0.90516 0
M  V30 531 C 49.9063 0.537781 3.53331 0
M  V30 532 C 49.5723 1.93704 4.07172 0
M  V30 533 C 48.2343 2.31984 4.21589 0
M  V30 534 C 50.5863 2.85213 4.36237 0
M  V30 535 C 47.9143 3.61125 4.62391 0
M  V30 536 C 50.2663 4.13809 4.78482 0
M  V30 537 C 48.9303 4.52077 4.91104 0
M  V30 538 H 48.2003 0.145793 0.726516 0
M  V30 539 H 50.8473 1.03669 1.61012 0
M  V30 540 H 49.1523 -0.183906 3.91368 0
M  V30 541 H 50.8493 0.196588 4.00518 0
M  V30 542 H 47.4393 1.62966 3.96409 0
M  V30 543 H 51.6233 2.56885 4.24645 0
M  V30 544 H 46.8793 3.90612 4.70353 0
M  V30 545 H 51.0533 4.84811 4.99932 0
M  V30 546 H 48.6803 5.52196 5.22478 0
M  V30 547 N 50.2554 -1.46986 0.568584 0
M  V30 548 C 51.4834 -2.0683 0.0539956 0
M  V30 549 C 51.8984 -1.41953 -1.24478 0
M  V30 550 O 51.2554 -0.519933 -1.74937 0
M  V30 551 C 51.3064 -3.61254 -0.133362 0
M  V30 552 O 51.0274 -4.237 1.11399 0
M  V30 553 C 52.5284 -4.37992 -0.683927 0
M  V30 554 H 49.7484 -0.669058 0.0510141 0
M  V30 555 H 52.2924 -1.88824 0.785234 0
M  V30 556 H 50.4474 -3.78735 -0.81477 0
M  V30 557 H 50.8614 -5.16388 0.91888 0
M  V30 558 H 52.3354 -5.46684 -0.764263 0
M  V30 559 H 52.8124 -4.05058 -1.69778 0
M  V30 560 H 53.4184 -4.25283 -0.0378494 0
M  V30 561 N 51.7335 -0.305618 -1.54608 0
M  V30 562 C 53.1445 0.186098 -1.8577 0
M  V30 563 C 53.4955 1.53058 -1.22751 0
M  V30 564 O 52.6205 2.09888 -0.526893 0
M  V30 565 C 53.2155 0.344449 -3.37044 0
M  V30 566 C 51.7745 0.780384 -3.68221 0
M  V30 567 C 50.9215 -0.108554 -2.77087 0
M  V30 568 H 53.8725 -0.526485 -1.49712 0
M  V30 569 H 53.8935 1.17828 -3.61796 0
M  V30 570 H 53.4055 -0.634235 -3.82883 0
M  V30 571 H 51.5065 1.76945 -3.27904 0
M  V30 572 H 51.6195 0.596572 -4.75371 0
M  V30 573 H 49.9835 0.412931 -2.5133 0
M  V30 574 H 50.7665 -1.08368 -3.25747 0
M  V30 575 N 53.2116 1.57565 -0.0334293 0
M  V30 576 C 54.6276 1.56297 0.322997 0
M  V30 577 C 54.8276 1.03945 1.7262 0
M  V30 578 O 53.8836 0.688109 2.42943 0
M  V30 579 C 55.1966 3.00232 0.167664 0
M  V30 580 C 56.7446 3.12078 0.240107 0
M  V30 581 C 57.2196 4.57859 0.113513 0
M  V30 582 N 58.7106 4.62887 0.170359 0
M  V30 583 C 59.4456 5.73319 0.0962517 0
M  V30 584 N 58.9416 6.92794 -0.0291881 0
M  V30 585 N 60.7346 5.61898 0.150551 0
M  V30 586 H 52.8856 1.89923 -0.950956 0
M  V30 587 H 55.1486 0.873824 -0.367608 0
M  V30 588 H 54.8546 3.42501 -0.799102 0
M  V30 589 H 54.7286 3.654 0.936083 0
M  V30 590 H 57.1156 2.69718 1.19733 0
M  V30 591 H 57.1966 2.49623 -0.558763 0
M  V30 592 H 56.8406 5.009 -0.840314 0
M  V30 593 H 56.7706 5.18299 0.931302 0
M  V30 594 H 59.2616 3.76954 0.26728 0
M  V30 595 H 59.5746 7.7276 -0.0789252 0
M  V30 596 H 57.9196 6.94971 -0.0640299 0
M  V30 597 H 61.1106 4.67448 0.246981 0
M  V30 598 H 61.2836 6.47938 0.0893365 0
M  V30 599 N 54.6897 -0.239769 1.55765 0
M  V30 600 C 55.6197 -1.30052 1.9393 0
M  V30 601 C 56.6007 -1.49839 0.805132 0
M  V30 602 O 57.7857 -1.62328 1.06599 0
M  V30 603 C 54.9157 -2.65391 2.2402 0
M  V30 604 C 53.8697 -2.60289 3.39755 0
M  V30 605 C 53.1957 -3.99489 3.55405 0
M  V30 606 C 54.4957 -2.16654 4.75246 0
M  V30 607 H 56.1897 -0.983573 2.82783 0
M  V30 608 H 53.7357 -0.471701 1.36055 0
M  V30 609 H 55.6887 -3.3974 2.49308 0
M  V30 610 H 54.4127 -2.98736 1.32 0
M  V30 611 H 53.0717 -1.88398 3.14487 0
M  V30 612 H 52.7197 -4.30112 2.60793 0
M  V30 613 H 52.4197 -3.96962 4.33238 0
M  V30 614 H 53.9437 -4.75528 3.83022 0
M  V30 615 H 55.3577 -2.80737 4.99859 0
M  V30 616 H 53.7547 -2.25223 5.56232 0
M  V30 617 H 54.8247 -1.11835 4.71827 0
M  V30 618 N 56.1678 -1.49265 -0.50573 0
M  V30 619 C 57.1308 -1.65075 -1.59006 0
M  V30 620 C 58.1308 -0.522768 -1.52065 0
M  V30 621 O 59.3208 -0.789117 -1.55302 0
M  V30 622 C 56.4528 -1.64369 -2.98656 0
M  V30 623 H 57.6458 -2.61784 -1.46319 0
M  V30 624 H 55.1988 -1.38226 -0.729616 0
M  V30 625 H 55.9338 -0.692272 -3.16825 0
M  V30 626 H 55.7188 -2.46282 -3.05103 0
M  V30 627 H 57.2088 -1.78674 -3.77446 0
M  V30 628 N 57.6459 0.756429 -1.3826 0
M  V30 629 C 58.8949 1.51082 -1.3363 0
M  V30 630 C 59.2079 1.95467 0.0720068 0
M  V30 631 O 60.4139 2.7043 0.240834 0
M  V30 632 C 58.8699 2.72893 -2.34644 0
M  V30 633 C 58.4779 2.35544 -3.81081 0
M  V30 634 C 60.2219 3.50791 -2.39052 0
M  V30 635 C 58.1289 3.53948 -4.73787 0
M  V30 636 H 57.0589 0.56727 -0.49671 0
M  V30 637 H 59.7099 0.827147 -1.638 0
M  V30 638 H 58.0919 3.43227 -1.97513 0
M  V30 639 H 59.2659 1.72894 -4.27135 0
M  V30 640 H 57.5809 1.70786 -3.79764 0
M  V30 641 H 60.1779 4.38823 -3.05513 0
M  V30 642 H 60.5209 3.91745 -1.40861 0
M  V30 643 H 61.0539 2.87467 -2.74968 0
M  V30 644 H 57.7929 3.18064 -5.73163 0
M  V30 645 H 57.3129 4.15651 -4.32428 0
M  V30 646 H 58.9919 4.20566 -4.91663 0
M  V30 647 N 59.124 1.23083 0.984299 0
M  V30 648 C 60.054 1.03292 2.09411 0
M  V30 649 C 61.035 -0.048923 1.7003 0
M  V30 650 O 62.22 0.114967 1.93859 0
M  V30 651 C 59.35 0.619155 3.41736 0
M  V30 652 C 58.304 1.64791 3.95004 0
M  V30 653 C 57.63 1.0897 5.23478 0
M  V30 654 C 58.93 3.03999 4.24714 0
M  V30 655 H 60.624 1.96119 2.26225 0
M  V30 656 H 58.17 0.944344 1.08711 0
M  V30 657 H 60.123 0.467777 4.18796 0
M  V30 658 H 58.847 -0.344786 3.24775 0
M  V30 659 H 57.506 1.78721 3.20085 0
M  V30 660 H 57.154 0.11686 5.02864 0
M  V30 661 H 56.854 1.77704 5.60085 0
M  V30 662 H 58.378 0.950093 6.03163 0
M  V30 663 H 59.792 2.93393 4.92538 0
M  V30 664 H 58.189 3.69936 4.72512 0
M  V30 665 H 59.259 3.53285 3.32142 0
M  V30 666 N 60.6021 -1.18246 1.0419 0
M  V30 667 C 61.5341 -2.2142 0.592088 0
M  V30 668 C 62.5471 -1.59233 -0.338909 0
M  V30 669 O 63.7361 -1.78002 -0.133231 0
M  V30 670 C 60.8361 -3.38546 -0.154854 0
M  V30 671 C 60.0091 -4.3031 0.784328 0
M  V30 672 C 59.0681 -5.26138 0.0804583 0
M  V30 673 O 58.0941 -5.64738 0.711292 0
M  V30 674 N 59.2961 -5.68261 -1.18574 0
M  V30 675 H 62.0611 -2.60636 1.47949 0
M  V30 676 H 59.6221 -1.33044 0.922544 0
M  V30 677 H 61.6141 -3.99678 -0.635606 0
M  V30 678 H 60.1841 -2.98012 -0.943811 0
M  V30 679 H 59.4041 -3.66764 1.44491 0
M  V30 680 H 60.6921 -4.8852 1.42218 0
M  V30 681 H 60.0901 -5.38957 -1.71876 0
M  V30 682 H 58.6471 -6.31584 -1.61074 0
M  V30 683 N 62.0802 -0.821533 -1.34494 0
M  V30 684 C 63.3262 -0.409552 -1.98622 0
M  V30 685 C 63.6592 1.0244 -1.64984 0
M  V30 686 O 62.9342 1.71325 -0.920758 0
M  V30 687 C 63.2172 -0.610458 -3.54888 0
M  V30 688 C 63.0702 -2.09043 -3.98273 0
M  V30 689 C 64.3892 -0.0455379 -4.40076 0
M  V30 690 H 61.5082 -0.15028 -0.721516 0
M  V30 691 H 64.1502 -1.03384 -1.59411 0
M  V30 692 H 62.3002 -0.079044 -3.8842 0
M  V30 693 H 63.9722 -2.68537 -3.75081 0
M  V30 694 H 62.2152 -2.58139 -3.48635 0
M  V30 695 H 62.8862 -2.18182 -5.07051 0
M  V30 696 H 65.3622 -0.499557 -4.1309 0
M  V30 697 H 64.2382 -0.215922 -5.48475 0
M  V30 698 H 64.4992 1.04939 -4.29465 0
M  V30 699 N 63.5583 1.46682 -0.576371 0
M  V30 700 C 64.8063 2.02013 -0.0594163 0
M  V30 701 C 65.1273 1.45101 1.30271 0
M  V30 702 O 64.3973 0.633317 1.8538 0
M  V30 703 H 62.9773 0.746759 -0.0189745 0
M  V30 704 H 65.6393 1.79862 -0.750717 0
M  V30 705 H 64.7353 3.12097 0.014345 0
M  V30 706 N 65.0364 0.313813 1.54444 0
M  V30 707 C 65.9844 -0.572171 2.25453 0
M  V30 708 C 66.9784 -1.12657 1.2651 0
M  V30 709 O 68.1844 -1.07573 1.44319 0
M  V30 710 H 64.5594 -0.203146 0.724041 0
M  V30 711 H 66.5304 0.0491145 2.9836 0
M  V30 712 C 65.2794 -1.72626 3.0182 0
M  V30 713 H 64.6024 -1.30891 3.77767 0
M  V30 714 H 66.0424 -2.32199 3.54767 0
M  V30 715 C 64.5014 -2.63806 2.09542 0
M  V30 716 O 65.0314 -3.65256 1.67185 0
M  V30 717 N 63.2374 -2.31824 1.75232 0
M  V30 718 H 62.7844 -1.49368 2.09873 0
M  V30 719 H 62.7424 -2.93095 1.13767 0
M  V30 720 N 66.5145 -1.57545 0.0417849 0
M  V30 721 C 67.9305 -1.56467 -0.314704 0
M  V30 722 C 68.1305 -1.04859 -1.72066 0
M  V30 723 O 67.1865 -0.700983 -2.42575 0
M  V30 724 C 68.4995 -3.00317 -0.15174 0
M  V30 725 C 70.0475 -3.12201 -0.223553 0
M  V30 726 C 70.5225 -4.57913 -0.0892295 0
M  V30 727 N 72.0135 -4.6297 -0.145808 0
M  V30 728 C 72.7485 -5.73362 -0.0658459 0
M  V30 729 N 72.2445 -6.92769 0.0659282 0
M  V30 730 N 74.0375 -5.6197 -0.12075 0
M  V30 731 H 66.1885 -1.89416 0.961014 0
M  V30 732 H 68.4515 -0.871862 0.372237 0
M  V30 733 H 68.1575 -3.42073 0.817254 0
M  V30 734 H 68.0315 -3.65892 -0.916692 0
M  V30 735 H 70.4185 -2.70349 -1.18301 0
M  V30 736 H 70.4995 -2.49323 0.571994 0
M  V30 737 H 70.1435 -5.00448 0.866867 0
M  V30 738 H 70.0735 -5.18786 -0.903802 0
M  V30 739 H 72.5645 -3.7709 -0.247286 0
M  V30 740 H 72.8775 -7.72707 0.119905 0
M  V30 741 H 71.2225 -6.94927 0.100885 0
M  V30 742 H 74.4135 -4.67572 -0.222187 0
M  V30 743 H 74.5865 -6.47977 -0.0549735 0
M  V30 744 N 67.9926 0.231505 -1.5589 0
M  V30 745 C 69.2696 0.981096 -1.69215 0
M  V30 746 C 69.6496 2.02799 -0.586164 0
M  V30 747 O 68.9976 2.24823 0.408253 0
M  V30 748 C 69.2076 1.60054 -3.10135 0
M  V30 749 C 70.5556 2.09658 -3.69227 0
M  V30 750 O 71.5796 1.69967 -3.13033 0
M  V30 751 O 70.4386 2.8258 -4.67772 0
M  V30 752 H 67.5326 0.457653 -0.688827 0
M  V30 753 H 70.0786 0.224073 -1.68214 0
M  V30 754 H 68.8506 0.844105 -3.82087 0
M  V30 755 H 68.4736 2.42336 -3.15212 0
M  V30 756 N 69.4707 1.49531 0.497807 0
M  V30 757 C 70.7477 1.49682 1.25915 0
M  V30 758 C 71.1277 0.226339 2.09883 0
M  V30 759 O 70.4757 -0.791189 2.14365 0
M  V30 760 C 70.6857 2.77755 2.11313 0
M  V30 761 C 72.0337 3.27371 2.70395 0
M  V30 762 O 73.0577 2.78894 2.21578 0
M  V30 763 O 71.9167 4.11808 3.59272 0
M  V30 764 H 69.0107 0.599228 0.56996 0
M  V30 765 H 71.5567 1.61798 0.511816 0
M  V30 766 H 70.3287 3.61713 1.49264 0
M  V30 767 H 69.9517 2.68515 2.93233 0
M  V30 768 N 70.9488 -0.749086 1.3866 0
M  V30 769 C 72.1738 -1.54344 1.38538 0
M  V30 770 C 72.5988 -1.88088 -0.0216655 0
M  V30 771 O 71.9568 -1.50899 -1.00494 0
M  V30 772 C 72.0048 -2.8164 2.25192 0
M  V30 773 O 71.1088 -3.7698 1.67212 0
M  V30 774 H 70.4498 -0.466654 0.472367 0
M  V30 775 H 72.9798 -0.925355 1.82478 0
M  V30 776 H 72.9898 -3.30519 2.3921 0
M  V30 777 H 71.6648 -2.56411 3.27454 0
M  V30 778 H 70.2418 -3.35699 1.6236 0
M  V30 779 N 72.4269 -1.23603 -0.977757 0
M  V30 780 C 73.3749 -1.01704 -2.09187 0
M  V30 781 C 74.3689 0.0448214 -1.69341 0
M  V30 782 O 75.5749 -0.108902 -1.7967 0
M  V30 783 H 71.9499 -0.311803 -0.684312 0
M  V30 784 H 73.9209 -1.96207 -2.24823 0
M  V30 785 C 72.6699 -0.627746 -3.41986 0
M  V30 786 H 71.9929 -1.43656 -3.73099 0
M  V30 787 H 73.4329 -0.514053 -4.20872 0
M  V30 788 C 71.8919 0.664238 -3.30287 0
M  V30 789 O 72.4219 1.71268 -3.6336 0
M  V30 790 N 70.6279 0.641156 -2.83439 0
M  V30 791 H 70.1749 -0.212376 -2.56723 0
M  V30 792 H 70.1329 1.50583 -2.75993 0
M  V30 793 N 73.905 1.17692 -1.04816 0
M  V30 794 C 74.835 2.23777 -0.666791 0
M  V30 795 C 75.816 1.66796 0.33361 0
M  V30 796 O 77.001 1.93039 0.212042 0
M  V30 797 C 74.131 3.47281 -0.0367933 0
M  V30 798 C 73.085 4.17059 -0.961546 0
M  V30 799 C 72.411 5.34342 -0.195626 0
M  V30 800 C 73.711 4.69713 -2.28402 0
M  V30 801 H 75.405 2.55933 -1.55367 0
M  V30 802 H 72.951 1.23019 -0.748484 0
M  V30 803 H 74.904 4.20706 0.241775 0
M  V30 804 H 73.628 3.14381 0.885004 0
M  V30 805 H 72.287 3.45541 -1.22462 0
M  V30 806 H 71.935 4.97692 0.728816 0
M  V30 807 H 71.635 5.81966 -0.811775 0
M  V30 808 H 73.159 6.10553 0.0757473 0
M  V30 809 H 74.573 5.34794 -2.06563 0
M  V30 810 H 72.97 5.279 -2.8538 0
M  V30 811 H 74.04 3.86726 -2.92525 0
M  V30 812 N 75.3831 0.828654 1.34056 0
M  V30 813 C 76.6131 0.431993 2.02033 0
M  V30 814 C 77.0211 -0.96844 1.62536 0
M  V30 815 O 76.3641 -1.6391 0.829408 0
M  V30 816 C 76.4261 0.461224 3.56529 0
M  V30 817 C 76.0901 1.81599 4.1937 0
M  V30 818 C 77.0871 2.7777 4.39477 0
M  V30 819 C 74.7721 2.10604 4.56017 0
M  V30 820 C 76.7661 4.01115 4.95364 0
M  V30 821 C 74.4531 3.34207 5.11614 0
M  V30 822 C 75.4511 4.2928 5.31232 0
M  V30 823 O 75.1391 5.50699 5.8565 0
M  V30 824 H 74.8711 0.170943 0.654029 0
M  V30 825 H 77.4251 1.11988 1.72185 0
M  V30 826 H 75.6551 -0.283388 3.8566 0
M  V30 827 H 77.3441 0.0838149 4.05813 0
M  V30 828 H 78.1101 2.56659 4.11523 0
M  V30 829 H 73.9891 1.37402 4.40047 0
M  V30 830 H 77.5331 4.75333 5.10592 0
M  V30 831 H 73.4301 3.55179 5.38997 0
M  V30 832 H 74.1981 5.52298 6.04077 0
M  V30 833 N 76.8612 -1.46375 0.584142 0
M  V30 834 C 78.1102 -2.01585 0.0679741 0
M  V30 835 C 78.4232 -1.46109 -1.30045 0
M  V30 836 O 79.6292 -1.93148 -1.90804 0
M  V30 837 C 78.0852 -3.5983 0.0709207 0
M  V30 838 C 77.6932 -4.24303 1.43775 0
M  V30 839 C 79.4372 -4.22693 -0.391228 0
M  V30 840 C 77.3442 -5.74631 1.39834 0
M  V30 841 H 76.2742 -0.753689 0.0216421 0
M  V30 842 H 78.9252 -1.68093 0.736001 0
M  V30 843 H 77.3072 -3.90405 -0.663299 0
M  V30 844 H 78.4812 -4.05335 2.19181 0
M  V30 845 H 76.7962 -3.73539 1.84004 0
M  V30 846 H 79.3932 -5.3289 -0.439524 0
M  V30 847 H 79.7362 -3.91728 -1.40906 0
M  V30 848 H 80.2692 -3.96749 0.288974 0
M  V30 849 H 77.0082 -6.10258 2.39303 0
M  V30 850 H 76.5282 -5.95858 0.686505 0
M  V30 851 H 78.2072 -6.37375 1.11187 0
M  V30 852 N 78.3393 -0.321999 -1.54275 0
M  V30 853 C 79.2873 0.560206 -2.25753 0
M  V30 854 C 80.2813 1.11984 -1.27106 0
M  V30 855 O 81.4873 1.06806 -1.44888 0
M  V30 856 H 77.8623 0.199304 -0.725108 0
M  V30 857 H 79.8333 -0.0649365 -2.98329 0
M  V30 858 C 78.5823 1.71023 -3.02731 0
M  V30 859 H 77.9053 1.28885 -3.78456 0
M  V30 860 H 79.3453 2.30314 -3.55993 0
M  V30 861 C 77.8043 2.62692 -2.10938 0
M  V30 862 O 78.3343 3.64364 -1.6912 0
M  V30 863 N 76.5403 2.30891 -1.76459 0
M  V30 864 H 76.0873 1.48253 -2.10663 0
M  V30 865 H 76.0453 2.92487 -1.1532 0
M  V30 866 N 79.8174 1.5752 -0.0501392 0
M  V30 867 C 81.0634 1.92936 0.624798 0
M  V30 868 C 81.3964 0.928685 1.70555 0
M  V30 869 O 80.6714 -0.0454779 1.94447 0
M  V30 870 C 80.9544 3.38737 1.22185 0
M  V30 871 C 80.8074 4.49552 0.149218 0
M  V30 872 C 82.1264 3.84913 2.13378 0
M  V30 873 H 79.2454 0.701604 0.225657 0
M  V30 874 H 81.8874 1.89671 -0.111693 0
M  V30 875 H 80.0374 3.4165 1.84953 0
M  V30 876 H 81.7094 4.58768 -0.482648 0
M  V30 877 H 79.9524 4.30638 -0.522841 0
M  V30 878 H 80.6234 5.48653 0.606966 0
M  V30 879 H 83.0994 3.8387 1.60572 0
M  V30 880 H 81.9754 4.87584 2.52097 0
M  V30 881 H 82.2364 3.21611 3.03346 0
M  V30 882 N 81.2955 -0.223234 1.56011 0
M  V30 883 C 82.2425 -1.27664 1.92277 0
M  V30 884 C 83.2125 -1.46659 0.779763 0
M  V30 885 O 84.3975 -1.60256 1.03551 0
M  V30 886 C 81.5375 -2.62234 2.24338 0
M  V30 887 C 80.6505 -2.51051 3.51564 0
M  V30 888 C 79.7855 -3.78133 3.7308 0
M  V30 889 C 78.8245 -3.61665 4.93827 0
M  V30 890 N 77.9615 -4.80693 5.11741 0
M  V30 891 H 82.8015 -0.960358 2.82101 0
M  V30 892 H 80.3385 -0.462901 1.39627 0
M  V30 893 H 82.2965 -3.40596 2.40936 0
M  V30 894 H 80.9265 -2.91961 1.3769 0
M  V30 895 H 79.9785 -1.64132 3.43169 0
M  V30 896 H 81.2905 -2.34803 4.40079 0
M  V30 897 H 80.4445 -4.64938 3.89766 0
M  V30 898 H 79.1835 -3.97304 2.82844 0
M  V30 899 H 78.1885 -2.73244 4.77093 0
M  V30 900 H 79.4135 -3.43966 5.85546 0
M  V30 901 H 77.3595 -5.00181 4.24446 0
M  V30 902 H 77.2765 -4.67165 5.94384 0
M  V30 903 H 78.5445 -5.6893 5.3286 0
M  V30 904 N 82.7736 -1.49793 -0.48987 0
M  V30 905 C 83.7036 -1.70201 -1.59856 0
M  V30 906 C 84.6846 -0.55076 -1.60937 0
M  V30 907 O 85.8696 -0.787841 -1.77501 0
M  V30 908 C 82.9996 -1.77882 -2.98287 0
M  V30 909 C 81.9536 -2.92907 -3.12073 0
M  V30 910 C 81.2796 -2.85712 -4.51965 0
M  V30 911 C 82.5796 -4.3369 -2.91051 0
M  V30 912 H 84.2736 -2.63025 -1.43032 0
M  V30 913 H 81.8196 -1.26574 -0.686664 0
M  V30 914 H 83.7726 -1.90744 -3.75759 0
M  V30 915 H 82.4966 -0.816653 -3.16225 0
M  V30 916 H 81.1556 -2.79665 -2.37029 0
M  V30 917 H 80.8036 -1.8738 -4.66795 0
M  V30 918 H 80.5036 -3.62921 -4.62128 0
M  V30 919 H 82.0276 -3.00598 -5.31482 0
M  V30 920 H 83.4416 -4.47555 -3.58284 0
M  V30 921 H 81.8386 -5.12205 -3.12675 0
M  V30 922 H 82.9086 -4.47362 -1.87071 0
M  V30 923 N 84.2517 0.741722 -1.39055 0
M  V30 924 C 85.1987 1.85566 -1.37237 0
M  V30 925 C 86.1687 1.64457 -0.233072 0
M  V30 926 O 87.3537 1.85957 -0.427147 0
M  V30 927 C 84.4937 3.23004 -1.215 0
M  V30 928 C 83.6067 3.55864 -2.44918 0
M  V30 929 C 82.7417 4.82669 -2.21821 0
M  V30 930 C 81.7807 5.08351 -3.40948 0
M  V30 931 N 80.9177 6.26356 -3.17211 0
M  V30 932 H 85.7577 1.86455 -2.32462 0
M  V30 933 H 83.2947 0.911176 -1.15482 0
M  V30 934 H 85.2527 4.02331 -1.10389 0
M  V30 935 H 83.8827 3.21411 -0.29908 0
M  V30 936 H 82.9347 2.7129 -2.66657 0
M  V30 937 H 84.2467 3.70765 -3.33668 0
M  V30 938 H 83.4007 5.69962 -2.07914 0
M  V30 939 H 82.1397 4.69929 -1.30454 0
M  V30 940 H 81.1447 4.19522 -3.55361 0
M  V30 941 H 82.3697 5.22981 -4.33207 0
M  V30 942 H 80.3157 6.14917 -2.28502 0
M  V30 943 H 80.2327 6.41813 -3.99515 0
M  V30 944 H 81.5007 7.16506 -3.06984 0
M  V30 945 N 85.7298 1.2412 0.971189 0
M  V30 946 C 86.6928 1.03156 2.04674 0
M  V30 947 C 87.6928 -0.00990322 1.60797 0
M  V30 948 O 88.8828 0.230729 1.72665 0
M  V30 949 C 86.0148 0.562765 3.36223 0
M  V30 950 H 87.2078 1.98614 2.24705 0
M  V30 951 H 84.7608 1.06293 1.14593 0
M  V30 952 H 85.4958 -0.395176 3.21883 0
M  V30 953 H 85.2808 1.31441 3.69413 0
M  V30 954 H 86.7708 0.437015 4.15307 0
M  V30 955 N 87.2079 -1.17134 1.05439 0
M  V30 956 C 88.1709 -2.19439 0.661764 0
M  V30 957 C 89.1709 -1.58199 -0.288042 0
M  V30 958 O 90.3609 -1.74053 -0.0715803 0
M  V30 959 C 87.4929 -3.40889 -0.0276209 0
M  V30 960 H 88.6859 -2.55688 1.56728 0
M  V30 961 H 86.2389 -1.31259 0.848567 0
M  V30 962 H 86.9739 -3.10187 -0.94629 0
M  V30 963 H 86.7589 -3.86586 0.655238 0
M  V30 964 H 88.2489 -4.16603 -0.288342 0
M  V30 965 N 88.686 -0.835752 -1.33615 0
M  V30 966 C 89.596 -0.269088 -2.33052 0
M  V30 967 C 90.612 0.603251 -1.63208 0
M  V30 968 O 91.788 0.508112 -1.94885 0
M  V30 969 C 88.853 0.549091 -3.42324 0
M  V30 970 C 87.914 -0.347156 -4.27894 0
M  V30 971 C 87.147 0.43207 -5.31948 0
M  V30 972 O 87.37 1.66409 -5.45586 0
M  V30 973 O 86.304 -0.192298 -6.01593 0
M  V30 974 H 90.13 -1.09243 -2.83372 0
M  V30 975 H 87.715 -0.598198 -1.36901 0
M  V30 976 H 89.597 1.01414 -4.09015 0
M  V30 977 H 88.272 1.34955 -2.94226 0
M  V30 978 H 87.179 -0.859979 -3.64081 0
M  V30 979 H 88.512 -1.1123 -4.79467 0
M  V30 980 N 90.1641 1.46063 -0.591896 0
M  V30 981 C 91.0741 2.34192 0.13831 0
M  V30 982 C 92.0901 1.50305 0.876608 0
M  V30 983 O 93.2661 1.8315 0.837728 0
M  V30 984 C 90.3311 3.27656 1.13326 0
M  V30 985 C 89.3921 4.27445 0.39863 0
M  V30 986 C 88.6251 5.16443 1.34618 0
M  V30 987 O 88.8481 5.08553 2.58321 0
M  V30 988 O 87.7821 5.95843 0.851768 0
M  V30 989 H 91.6081 2.98002 -0.58552 0
M  V30 990 H 89.1931 1.45188 -0.352239 0
M  V30 991 H 91.0751 3.85291 1.70671 0
M  V30 992 H 89.7501 2.6643 1.83839 0
M  V30 993 H 88.6571 3.73471 -0.216895 0
M  V30 994 H 89.9901 4.91482 -0.265709 0
M  V30 995 N 91.6422 0.330177 1.54103 0
M  V30 996 C 92.8912 -0.271336 1.99867 0
M  V30 997 C 93.2042 -1.52723 1.22209 0
M  V30 998 O 94.4102 -2.20515 1.58383 0
M  V30 999 C 92.8662 -0.534032 3.55916 0
M  V30 1000 C 92.4742 0.705193 4.42415 0
M  V30 1001 C 94.2182 -1.09514 4.1013 0
M  V30 1002 C 92.1252 0.414035 5.89949 0
M  V30 1003 H 91.0552 -0.105166 0.74663 0
M  V30 1004 H 93.7062 0.443429 1.78062 0
M  V30 1005 H 92.0882 -1.30915 3.73734 0
M  V30 1006 H 93.2622 1.4804 4.36372 0
M  V30 1007 H 91.5772 1.18698 3.99124 0
M  V30 1008 H 94.1742 -1.3277 5.17954 0
M  V30 1009 H 94.5172 -2.04656 3.62521 0
M  V30 1010 H 95.0502 -0.381038 3.95971 0
M  V30 1011 H 91.7892 1.33481 6.41766 0
M  V30 1012 H 91.3092 -0.323336 5.98928 0
M  V30 1013 H 92.9882 0.0263105 6.46995 0
M  V30 1014 N 93.1203 -1.57491 0.0584922 0
M  V30 1015 C 94.3683 -1.92597 -0.612436 0
M  V30 1016 C 94.6893 -0.938162 -1.70949 0
M  V30 1017 O 93.9593 0.0158301 -1.95894 0
M  V30 1018 H 92.5393 -0.710964 -0.229214 0
M  V30 1019 H 95.2013 -1.94571 0.113218 0
M  V30 1020 H 94.2973 -2.94038 -1.04633 0
M  V30 1021 N 94.5984 0.214957 -1.56127 0
M  V30 1022 C 95.8474 0.936451 -1.78643 0
M  V30 1023 C 96.1604 1.85237 -0.628229 0
M  V30 1024 O 97.3664 2.613 -0.737186 0
M  V30 1025 C 95.8224 1.7154 -3.16389 0
M  V30 1026 C 95.4304 0.845299 -4.39953 0
M  V30 1027 C 97.1744 2.42772 -3.48227 0
M  V30 1028 C 95.0814 1.62198 -5.68723 0
M  V30 1029 H 94.0114 0.353401 -0.666051 0
M  V30 1030 H 96.6624 0.190169 -1.82512 0
M  V30 1031 H 95.0444 2.50484 -3.06715 0
M  V30 1032 H 96.2184 0.0959353 -4.607 0
M  V30 1033 H 94.5334 0.244789 -4.1568 0
M  V30 1034 H 97.1304 3.01394 -4.41663 0
M  V30 1035 H 97.4734 3.15984 -2.71035 0
M  V30 1036 H 98.0064 1.70813 -3.5926 0
M  V30 1037 H 94.7454 0.933011 -6.48826 0
M  V30 1038 H 94.2654 2.34579 -5.52026 0
M  V30 1039 H 95.9444 2.18095 -6.09133 0
M  V30 1040 N 96.0765 1.50051 0.48192 0
M  V30 1041 C 97.0235 1.68122 1.58125 0
M  V30 1042 C 97.9935 0.522545 1.57666 0
M  V30 1043 O 99.1785 0.751844 1.75362 0
M  V30 1044 C 96.3185 1.77142 2.96167 0
M  V30 1045 C 95.4315 3.0444 3.06497 0
M  V30 1046 C 94.5665 3.04321 4.35387 0
M  V30 1047 C 93.6055 4.26118 4.3942 0
M  V30 1048 N 92.7425 4.238 5.59766 0
M  V30 1049 H 97.5825 2.6198 1.42022 0
M  V30 1050 H 95.1195 1.29877 0.690687 0
M  V30 1051 H 97.0775 1.80352 3.76203 0
M  V30 1052 H 95.7075 0.867329 3.1093 0
M  V30 1053 H 94.7595 3.10752 2.19402 0
M  V30 1054 H 96.0715 3.94426 3.05336 0
M  V30 1055 H 95.2255 3.062 5.23762 0
M  V30 1056 H 93.9645 2.12147 4.39141 0
M  V30 1057 H 92.9695 4.24463 3.49444 0
M  V30 1058 H 94.1945 5.19507 4.37366 0
M  V30 1059 H 92.1405 3.34474 5.64326 0
M  V30 1060 H 92.0575 5.07542 5.60301 0
M  V30 1061 H 93.3255 4.2981 6.50295 0
M  V30 1062 N 97.5546 -0.734337 1.39446 0
M  V30 1063 C 98.5176 -1.83004 1.37994 0
M  V30 1064 C 99.5176 -1.58397 0.276938 0
M  V30 1065 O 100.708 -1.65785 0.534875 0
M  V30 1066 C 97.8396 -3.20802 1.1532 0
M  V30 1067 H 99.0326 -1.85694 2.35494 0
M  V30 1068 H 96.5856 -0.938059 1.25021 0
M  V30 1069 H 97.3206 -3.23772 0.185036 0
M  V30 1070 H 97.1056 -3.4006 1.95197 0
M  V30 1071 H 98.5956 -4.00862 1.17046 0
M  V30 1072 N 99.0327 -1.24633 -0.964593 0
M  V30 1073 C 100.261 -1.11501 -1.74285 0
M  V30 1074 C 100.676 0.332165 -1.85855 0
M  V30 1075 O 100.033 1.22903 -1.34911 0
M  V30 1076 C 100.084 -1.75258 -3.16175 0
M  V30 1077 O 99.8047 -3.14318 -3.05182 0
M  V30 1078 C 101.306 -1.67776 -4.10324 0
M  V30 1079 H 98.5257 -0.389407 -0.546446 0
M  V30 1080 H 101.07 -1.64801 -1.21083 0
M  V30 1081 H 99.2247 -1.25954 -3.66353 0
M  V30 1082 H 99.6387 -3.4551 -3.94618 0
M  V30 1083 H 101.113 -2.17064 -5.0753 0
M  V30 1084 H 101.59 -0.639584 -4.34518 0
M  V30 1085 H 102.196 -2.16522 -3.66058 0
M  V30 1086 N 100.511 1.16574 -1.06058 0
M  V30 1087 C 101.461 2.18854 -0.63929 0
M  V30 1088 C 102.445 1.57505 0.328798 0
M  V30 1089 O 103.637 1.76408 0.144623 0
M  V30 1090 C 100.766 3.43291 -0.0247203 0
M  V30 1091 C 99.8518 4.11722 -1.01716 0
M  V30 1092 N 100.243 4.55841 -2.19186 0
M  V30 1093 C 98.5408 4.37872 -0.847569 0
M  V30 1094 C 99.2418 5.08751 -2.82042 0
M  V30 1095 N 98.2178 5.01489 -2.09784 0
M  V30 1096 H 102.02 2.5068 -1.53417 0
M  V30 1097 H 99.5338 1.32999 -0.931935 0
M  V30 1098 H 101.531 4.15856 0.294915 0
M  V30 1099 H 100.191 3.12954 0.865448 0
M  V30 1100 H 101.202 4.49649 -2.56975 0
M  V30 1101 H 97.8788 4.17499 -0.00918848 0
M  V30 1102 H 99.2688 5.52944 -3.81709 0
M  V30 1103 N 101.989 0.842826 1.3317 0
M  V30 1104 C 103.238 0.436738 1.96915 0
M  V30 1105 C 103.551 -1.01025 1.67491 0
M  V30 1106 O 104.757 -1.5212 2.24881 0
M  V30 1107 C 103.213 0.730021 3.52418 0
M  V30 1108 C 102.821 2.19195 3.90714 0
M  V30 1109 C 104.565 0.391076 4.22695 0
M  V30 1110 C 102.472 2.42907 5.39212 0
M  V30 1111 H 101.402 0.15958 0.736919 0
M  V30 1112 H 104.053 1.03196 1.51733 0
M  V30 1113 H 102.435 0.0643755 3.95948 0
M  V30 1114 H 103.609 2.8984 3.58231 0
M  V30 1115 H 101.924 2.49425 3.33431 0
M  V30 1116 H 104.521 0.545817 5.31907 0
M  V30 1117 H 104.864 -0.666294 4.10933 0
M  V30 1118 H 105.397 1.01212 3.84709 0
M  V30 1119 H 102.136 3.47224 5.55982 0
M  V30 1120 H 101.656 1.76827 5.73142 0
M  V30 1121 H 103.335 2.2626 6.06148 0
M  V30 1122 N 103.467 -1.45747 0.599634 0
M  V30 1123 C 104.414 -2.30467 -0.123849 0
M  V30 1124 C 105.384 -1.41632 -0.86774 0
M  V30 1125 O 106.569 -1.70568 -0.855056 0
M  V30 1126 C 103.709 -3.26402 -1.12051 0
M  V30 1127 C 102.822 -4.3034 -0.37832 0
M  V30 1128 C 101.957 -5.13389 -1.364 0
M  V30 1129 C 100.996 -6.09061 -0.609171 0
M  V30 1130 N 100.133 -6.84918 -1.54374 0
M  V30 1131 H 104.973 -2.91802 0.604627 0
M  V30 1132 H 102.51 -1.43797 0.309972 0
M  V30 1133 H 104.468 -3.80482 -1.7114 0
M  V30 1134 H 103.098 -2.66839 -1.8165 0
M  V30 1135 H 102.15 -3.78984 0.327929 0
M  V30 1136 H 103.462 -4.98354 0.210997 0
M  V30 1137 H 102.616 -5.7183 -2.02719 0
M  V30 1138 H 101.355 -4.45376 -1.98725 0
M  V30 1139 H 100.36 -5.49758 0.0676979 0
M  V30 1140 H 101.585 -6.79099 0.00891991 0
M  V30 1141 H 99.531 -6.19601 -2.15478 0
M  V30 1142 H 99.448 -7.49254 -1.00766 0
M  V30 1143 H 100.716 -7.47906 -2.19676 0
M  V30 1144 N 104.945 -0.338344 -1.53925 0
M  V30 1145 C 105.875 0.51328 -2.27789 0
M  V30 1146 C 106.856 1.107 -1.29149 0
M  V30 1147 O 108.041 1.12937 -1.57984 0
M  V30 1148 C 105.171 1.66697 -3.04679 0
M  V30 1149 C 104.125 1.20183 -4.1078 0
M  V30 1150 C 103.451 2.44363 -4.75595 0
M  V30 1151 C 104.751 0.30605 -5.21403 0
M  V30 1152 H 106.445 -0.102883 -2.99223 0
M  V30 1153 H 103.991 -0.0509219 -1.4391 0
M  V30 1154 H 105.944 2.26915 -3.55088 0
M  V30 1155 H 104.668 2.30995 -2.30887 0
M  V30 1156 H 103.327 0.622499 -3.61276 0
M  V30 1157 H 102.975 3.07057 -3.98403 0
M  V30 1158 H 102.675 2.13925 -5.47275 0
M  V30 1159 H 104.199 3.05317 -5.28786 0
M  V30 1160 H 105.613 0.814929 -5.67478 0
M  V30 1161 H 104.01 0.0937929 -6.00027 0
M  V30 1162 H 105.08 -0.65921 -4.80398 0
M  V30 1163 N 106.423 1.57458 -0.0668435 0
M  V30 1164 C 107.834 1.80776 0.466558 0
M  V30 1165 C 108.185 0.980361 1.69951 0
M  V30 1166 O 107.31 0.201441 2.1546 0
M  V30 1167 C 107.905 3.27881 0.85321 0
M  V30 1168 C 106.464 3.52062 1.3315 0
M  V30 1169 C 105.611 2.75513 0.314264 0
M  V30 1170 H 108.562 1.5598 -0.292588 0
M  V30 1171 H 108.583 3.39659 1.715 0
M  V30 1172 H 108.095 3.88075 -0.0443439 0
M  V30 1173 H 106.196 2.97167 2.24772 0
M  V30 1174 H 106.309 4.60762 1.31285 0
M  V30 1175 H 104.673 2.42123 0.790492 0
M  V30 1176 H 105.456 3.38442 -0.575477 0
M  V30 1177 N 107.901 -0.206675 1.56239 0
M  V30 1178 C 109.317 -0.557025 1.49564 0
M  V30 1179 C 109.517 -1.86424 0.764735 0
M  V30 1180 O 108.573 -2.50584 0.310491 0
M  V30 1181 C 109.886 -0.622478 2.94186 0
M  V30 1182 C 111.434 -0.712099 3.04792 0
M  V30 1183 C 111.909 -0.808767 4.50803 0
M  V30 1184 N 113.4 -0.8726 4.54907 0
M  V30 1185 C 114.135 -0.967365 5.65181 0
M  V30 1186 N 113.631 -1.02515 6.85173 0
M  V30 1187 N 115.424 -1.00366 5.53067 0
M  V30 1188 H 107.575 0.650943 2.02179 0
M  V30 1189 H 109.838 0.230387 0.919579 0
M  V30 1190 H 109.544 0.268727 3.50672 0
M  V30 1191 H 109.418 -1.4811 3.46905 0
M  V30 1192 H 111.805 -1.59374 2.48363 0
M  V30 1193 H 111.886 0.172489 2.55218 0
M  V30 1194 H 111.53 0.0684754 5.07854 0
M  V30 1195 H 111.46 -1.70899 4.98098 0
M  V30 1196 H 113.951 -0.837657 3.68499 0
M  V30 1197 H 114.264 -1.09765 7.64965 0
M  V30 1198 H 112.609 -0.994026 6.87855 0
M  V30 1199 H 115.8 -0.95527 4.58249 0
M  V30 1200 H 115.973 -1.07405 6.39037 0
M  V30 1201 N 109.379 -1.50304 -0.473955 0
M  V30 1202 C 110.607 -1.64902 -1.24959 0
M  V30 1203 C 111.022 -0.331198 -1.85872 0
M  V30 1204 O 110.379 0.68652 -1.69095 0
M  V30 1205 C 110.43 -2.73803 -2.36038 0
M  V30 1206 O 110.151 -4.00477 -1.77624 0
M  V30 1207 C 111.652 -2.99349 -3.26964 0
M  V30 1208 H 108.872 -0.554383 -0.378022 0
M  V30 1209 H 111.416 -1.9651 -0.566054 0
M  V30 1210 H 109.571 -2.44898 -3.00173 0
M  V30 1211 H 109.985 -4.60678 -2.5075 0
M  V30 1212 H 111.459 -3.79217 -4.01121 0
M  V30 1213 H 111.936 -2.10307 -3.85574 0
M  V30 1214 H 112.542 -3.29774 -2.68569 0
M  V30 1215 N 110.857 0.726932 -1.39834 0
M  V30 1216 C 112.085 1.51613 -1.40787 0
M  V30 1217 C 112.5 1.88799 -0.00451505 0
M  V30 1218 O 111.857 1.54662 0.968809 0
M  V30 1219 C 111.908 2.79863 -2.28821 0
M  V30 1220 O 111.629 2.44253 -3.63692 0
M  V30 1221 C 113.13 3.73837 -2.38245 0
M  V30 1222 H 110.35 0.468264 -0.480593 0
M  V30 1223 H 112.894 0.897607 -1.83748 0
M  V30 1224 H 111.049 3.38027 -1.89252 0
M  V30 1225 H 111.463 3.26695 -4.1033 0
M  V30 1226 H 112.937 4.60699 -3.04073 0
M  V30 1227 H 113.414 4.16153 -1.40403 0
M  V30 1228 H 114.02 3.21589 -2.78317 0
M  V30 1229 N 112.336 1.25143 0.95797 0
M  V30 1230 C 113.564 1.12424 1.73691 0
M  V30 1231 C 113.979 -0.322304 1.86029 0
M  V30 1232 O 113.336 -1.22186 1.35561 0
M  V30 1233 C 113.387 1.76933 3.15241 0
M  V30 1234 O 113.108 3.15932 3.03511 0
M  V30 1235 C 114.609 1.6995 4.09429 0
M  V30 1236 H 111.829 0.3923 0.544373 0
M  V30 1237 H 114.373 1.6544 1.20207 0
M  V30 1238 H 112.528 1.27895 3.6568 0
M  V30 1239 H 112.942 3.47598 3.9278 0
M  V30 1240 H 114.416 2.19753 5.06372 0
M  V30 1241 H 114.893 0.662619 4.34173 0
M  V30 1242 H 115.499 2.18461 3.64904 0
M  V30 1243 N 113.814 -1.1601 1.06675 0
M  V30 1244 C 114.724 -2.24156 0.692179 0
M  V30 1245 C 115.74 -1.71507 -0.293513 0
M  V30 1246 O 116.916 -2.009 -0.141861 0
M  V30 1247 C 113.981 -3.46587 0.0884131 0
M  V30 1248 C 113.042 -4.14257 1.12646 0
M  V30 1249 C 112.275 -5.30844 0.551416 0
M  V30 1250 O 112.498 -5.66858 -0.634656 0
M  V30 1251 O 111.432 -5.87848 1.29298 0
M  V30 1252 H 115.258 -2.58513 1.59388 0
M  V30 1253 H 112.843 -1.23599 0.83926 0
M  V30 1254 H 114.725 -4.20679 -0.246361 0
M  V30 1255 H 113.4 -3.13994 -0.786712 0
M  V30 1256 H 112.307 -3.42118 1.51348 0
M  V30 1257 H 113.64 -4.50914 1.97325 0
M  V30 1258 N 115.292 -0.849877 -1.32721 0
M  V30 1259 C 116.517 -0.463856 -2.02146 0
M  V30 1260 C 116.942 0.930449 -1.63476 0
M  V30 1261 O 116.3 1.61033 -0.832952 0
M  V30 1262 C 116.348 -0.604955 -3.55489 0
M  V30 1263 O 115.452 0.36425 -4.10788 0
M  V30 1264 H 114.793 -0.187046 -0.637111 0
M  V30 1265 H 117.323 -1.14775 -1.69375 0
M  V30 1266 H 117.333 -0.490696 -4.05038 0
M  V30 1267 H 116.008 -1.62174 -3.82978 0
M  V30 1268 H 114.585 0.206628 -3.72327 0
M  V30 1269 N 116.77 1.45427 -0.607355 0
M  V30 1270 C 117.68 2.34325 0.113463 0
M  V30 1271 C 118.696 1.51226 0.860617 0
M  V30 1272 O 119.872 1.84029 0.818255 0
M  V30 1273 C 116.937 3.28839 1.09844 0
M  V30 1274 C 115.998 4.27844 0.353271 0
M  V30 1275 C 115.231 5.17842 1.29133 0
M  V30 1276 O 115.454 5.11264 2.52913 0
M  V30 1277 O 114.388 5.96713 0.788523 0
M  V30 1278 H 118.214 2.97364 -0.617094 0
M  V30 1279 H 115.799 1.44807 -0.367619 0
M  V30 1280 H 117.681 3.8708 1.66575 0
M  V30 1281 H 116.356 2.68365 1.81003 0
M  V30 1282 H 115.263 3.7322 -0.256494 0
M  V30 1283 H 116.596 4.91173 -0.317822 0
M  V30 1284 N 118.248 0.346503 1.53744 0
M  V30 1285 C 119.494 -0.249473 2.0126 0
M  V30 1286 C 119.827 -1.49965 1.23386 0
M  V30 1287 O 119.102 -1.91811 0.32229 0
M  V30 1288 C 119.385 -0.560643 3.55709 0
M  V30 1289 C 119.238 0.701836 4.44291 0
M  V30 1290 C 120.557 -1.36905 4.18264 0
M  V30 1291 H 117.676 -0.0891987 0.731582 0
M  V30 1292 H 120.318 0.467624 1.84156 0
M  V30 1293 H 118.468 -1.17156 3.70414 0
M  V30 1294 H 120.14 1.33974 4.41417 0
M  V30 1295 H 118.383 1.32612 4.13033 0
M  V30 1296 H 119.054 0.43933 5.50249 0
M  V30 1297 H 121.53 -0.852448 4.07275 0
M  V30 1298 H 120.406 -1.55553 5.26398 0
M  V30 1299 H 120.667 -2.37203 3.73078 0
M  V30 1300 N 119.726 -1.57421 0.075193 0
M  V30 1301 C 120.659 -2.08528 -0.926904 0
M  V30 1302 C 121.637 -0.991171 -1.28898 0
M  V30 1303 O 122.821 -1.26479 -1.39769 0
M  V30 1304 C 119.948 -2.54576 -2.23402 0
M  V30 1305 C 118.994 -3.75454 -2.02327 0
M  V30 1306 S 119.827 -5.19989 -1.27951 0
M  V30 1307 C 120.983 -5.69372 -2.59935 0
M  V30 1308 H 121.216 -2.932 -0.492048 0
M  V30 1309 H 118.749 -1.53785 -0.137651 0
M  V30 1310 H 120.707 -2.81767 -2.98526 0
M  V30 1311 H 119.368 -1.70166 -2.64012 0
M  V30 1312 H 118.561 -4.05675 -2.99071 0
M  V30 1313 H 118.163 -3.48654 -1.35339 0
M  V30 1314 H 120.455 -5.76424 -3.56008 0
M  V30 1315 H 121.398 -6.68207 -2.34319 0
M  V30 1316 H 121.806 -4.97205 -2.67296 0
M  V30 1317 N 121.204 0.198386 -1.56346 0
M  V30 1318 C 122.151 1.24589 -1.94284 0
M  V30 1319 C 123.121 1.454 -0.802997 0
M  V30 1320 O 124.306 1.58588 -1.06087 0
M  V30 1321 C 121.446 2.58631 -2.28482 0
M  V30 1322 C 120.559 2.45426 -3.55514 0
M  V30 1323 C 119.694 3.7215 -3.79049 0
M  V30 1324 C 118.733 3.53763 -4.99518 0
M  V30 1325 N 117.87 4.72491 -5.19323 0
M  V30 1326 H 122.71 0.915356 -2.83593 0
M  V30 1327 H 120.247 0.440629 -1.40346 0
M  V30 1328 H 122.205 3.3672 -2.46324 0
M  V30 1329 H 120.835 2.89734 -1.42317 0
M  V30 1330 H 119.887 1.58652 -3.45737 0
M  V30 1331 H 121.199 2.27772 -4.43758 0
M  V30 1332 H 120.353 4.58679 -3.97113 0
M  V30 1333 H 119.092 3.92754 -2.89129 0
M  V30 1334 H 118.097 2.65619 -4.8138 0
M  V30 1335 H 119.322 3.34607 -5.90944 0
M  V30 1336 H 117.268 4.93365 -4.3235 0
M  V30 1337 H 117.185 4.5765 -6.01741 0
M  V30 1338 H 118.453 5.6038 -5.41843 0
M  V30 1339 N 122.682 1.50554 0.465978 0
M  V30 1340 C 123.912 1.65323 1.23903 0
M  V30 1341 C 124.32 0.338051 1.86155 0
M  V30 1342 O 123.663 -0.690518 1.70228 0
M  V30 1343 C 123.725 2.69048 2.3844 0
M  V30 1344 C 123.389 4.12462 1.96784 0
M  V30 1345 C 124.386 4.98168 1.48745 0
M  V30 1346 C 122.071 4.58407 2.05349 0
M  V30 1347 C 124.065 6.27868 1.0982 0
M  V30 1348 C 121.752 5.88112 1.66035 0
M  V30 1349 C 122.75 6.72668 1.18349 0
M  V30 1350 O 122.438 7.99951 0.795825 0
M  V30 1351 H 122.17 0.558629 0.38067 0
M  V30 1352 H 124.724 1.97561 0.562022 0
M  V30 1353 H 122.954 2.32062 3.09328 0
M  V30 1354 H 124.643 2.72985 3.0039 0
M  V30 1355 H 125.409 4.63885 1.41546 0
M  V30 1356 H 121.288 3.92735 2.41414 0
M  V30 1357 H 124.832 6.93819 0.725293 0
M  V30 1358 H 120.729 6.21914 1.72895 0
M  V30 1359 H 121.497 8.13265 0.924222 0
M  V30 1360 N 124.16 -0.719506 1.40217 0
M  V30 1361 C 125.409 -1.47486 1.37589 0
M  V30 1362 C 125.722 -1.9559 -0.0201568 0
M  V30 1363 O 126.928 -2.70973 -0.169049 0
M  V30 1364 C 125.384 -2.66575 2.41796 0
M  V30 1365 C 124.992 -2.25358 3.87192 0
M  V30 1366 C 126.736 -3.4433 2.48269 0
M  V30 1367 C 124.643 -3.41262 4.83005 0
M  V30 1368 H 123.573 -0.553901 0.511576 0
M  V30 1369 H 126.224 -0.783427 1.65936 0
M  V30 1370 H 124.606 -3.3787 2.06543 0
M  V30 1371 H 125.78 -1.61509 4.31569 0
M  V30 1372 H 124.095 -1.60657 3.84159 0
M  V30 1373 H 126.692 -4.30569 3.17041 0
M  V30 1374 H 127.035 -3.87872 1.51198 0
M  V30 1375 H 127.568 -2.80076 2.82493 0
M  V30 1376 H 124.307 -3.02755 5.81394 0
M  V30 1377 H 123.827 -4.0404 4.43297 0
M  V30 1378 H 125.506 -4.07383 5.02641 0
M  V30 1379 N 125.638 -1.25649 -0.95132 0
M  V30 1380 C 126.866 -1.13343 -1.73092 0
M  V30 1381 C 127.281 0.312434 -1.86197 0
M  V30 1382 O 126.638 1.21465 -1.36207 0
M  V30 1383 C 126.689 -1.78602 -3.14299 0
M  V30 1384 O 126.41 -3.17537 -3.01831 0
M  V30 1385 C 127.911 -1.72119 -4.08522 0
M  V30 1386 H 125.131 -0.395181 -0.542285 0
M  V30 1387 H 127.675 -1.66076 -1.19328 0
M  V30 1388 H 125.83 -1.29832 -3.64996 0
M  V30 1389 H 126.244 -3.49676 -3.90931 0
M  V30 1390 H 127.718 -2.22435 -5.052 0
M  V30 1391 H 128.195 -0.685635 -4.33815 0
M  V30 1392 H 128.801 -2.20393 -3.63741 0
M  V30 1393 N 127.117 1.15442 -1.07289 0
M  V30 1394 C 128.342 1.90638 -0.816828 0
M  V30 1395 C 128.767 1.77445 0.624083 0
M  V30 1396 O 128.125 1.10671 1.43602 0
M  V30 1397 C 128.173 3.39008 -1.22906 0
M  V30 1398 O 127.277 4.10701 -0.373975 0
M  V30 1399 H 126.618 0.593555 -0.297638 0
M  V30 1400 H 129.148 1.46198 -1.43134 0
M  V30 1401 H 129.158 3.89801 -1.20497 0
M  V30 1402 H 127.833 3.47929 -2.27856 0
M  V30 1403 H 126.41 3.70046 -0.460499 0
M  V30 1404 N 128.595 0.856903 1.32268 0
M  V30 1405 C 129.525 0.31858 2.31316 0
M  V30 1406 C 130.506 -0.583487 1.59779 0
M  V30 1407 O 131.691 -0.503259 1.87566 0
M  V30 1408 C 128.821 -0.491979 3.43798 0
M  V30 1409 C 127.775 0.315849 4.26833 0
M  V30 1410 C 127.101 -0.619586 5.31098 0
M  V30 1411 C 128.401 1.54282 4.98993 0
M  V30 1412 H 130.095 1.14621 2.76591 0
M  V30 1413 H 127.641 0.552613 1.32974 0
M  V30 1414 H 129.594 -0.879012 4.1213 0
M  V30 1415 H 128.318 -1.35299 2.97257 0
M  V30 1416 H 126.977 0.684664 3.6015 0
M  V30 1417 H 126.625 -1.47751 4.8081 0
M  V30 1418 H 126.325 -0.0830621 5.87541 0
M  V30 1419 H 127.849 -1.00375 6.02293 0
M  V30 1420 H 129.263 1.22796 5.59995 0
M  V30 1421 H 127.66 2.01745 5.65172 0
M  V30 1422 H 128.73 2.30285 4.26728 0
M  V30 1423 N 130.073 -1.45103 0.615059 0
M  V30 1424 C 131.021 -2.32331 -0.111791 0
M  V30 1425 C 132.015 -1.46409 -0.852102 0
M  V30 1426 O 133.221 -1.62849 -0.766821 0
M  V30 1427 H 129.596 -0.749993 -0.0549072 0
M  V30 1428 H 131.567 -2.91407 0.642225 0
M  V30 1429 C 130.316 -3.3015 -1.09071 0
M  V30 1430 H 129.639 -3.96265 -0.530485 0
M  V30 1431 H 131.079 -3.93898 -1.56908 0
M  V30 1432 C 129.538 -2.57875 -2.168 0
M  V30 1433 O 130.068 -2.36567 -3.24652 0
M  V30 1434 N 128.274 -2.17884 -1.92289 0
M  V30 1435 H 127.821 -2.35413 -1.04587 0
M  V30 1436 H 127.779 -1.6985 -2.64572 0
M  V30 1437 N 131.551 -0.354651 -1.53558 0
M  V30 1438 C 132.461 0.50515 -2.29097 0
M  V30 1439 C 133.477 1.10223 -1.34636 0
M  V30 1440 O 134.653 1.11553 -1.67684 0
M  V30 1441 C 131.718 1.63479 -3.05738 0
M  V30 1442 C 130.779 1.06636 -4.15845 0
M  V30 1443 C 130.012 2.14217 -4.88822 0
M  V30 1444 O 130.235 3.35137 -4.61562 0
M  V30 1445 O 129.169 1.77887 -5.75013 0
M  V30 1446 H 132.995 -0.109237 -3.03503 0
M  V30 1447 H 130.58 -0.119357 -1.48922 0
M  V30 1448 H 132.462 2.2918 -3.5363 0
M  V30 1449 H 131.137 2.23478 -2.34178 0
M  V30 1450 H 130.044 0.373565 -3.7223 0
M  V30 1451 H 131.377 0.511081 -4.89539 0
M  V30 1452 N 133.029 1.57378 -0.0835403 0
M  V30 1453 C 134.306 1.85363 0.624507 0
M  V30 1454 C 134.686 0.978239 1.87066 0
M  V30 1455 O 134.034 0.0475908 2.2845 0
M  V30 1456 C 134.244 3.35795 0.950947 0
M  V30 1457 C 135.592 4.03581 1.31939 0
M  V30 1458 O 136.616 3.40609 1.04232 0
M  V30 1459 O 135.475 5.14672 1.83779 0
M  V30 1460 H 132.569 0.766162 0.311329 0
M  V30 1461 H 135.115 1.69307 -0.115362 0
M  V30 1462 H 133.887 3.91244 0.0663899 0
M  V30 1463 H 133.51 3.57154 1.74719 0
M  V30 1464 N 134.507 -0.190092 1.56449 0
M  V30 1465 C 135.732 -0.929864 1.85387 0
M  V30 1466 C 136.157 -1.7585 0.667704 0
M  V30 1467 O 135.515 -1.77198 -0.383459 0
M  V30 1468 C 135.563 -1.79773 3.12593 0
M  V30 1469 O 134.667 -2.89713 2.93496 0
M  V30 1470 H 134.008 -0.261574 0.610307 0
M  V30 1471 H 136.538 -0.193896 2.03679 0
M  V30 1472 H 136.548 -2.20139 3.43515 0
M  V30 1473 H 135.223 -1.18892 3.98544 0
M  V30 1474 H 133.8 -2.53065 2.73884 0
M  V30 1475 N 135.985 -1.50799 -0.457987 0
M  V30 1476 C 137.213 -1.66218 -1.23203 0
M  V30 1477 C 137.628 -0.350894 -1.85511 0
M  V30 1478 O 136.985 0.668546 -1.69814 0
M  V30 1479 C 137.036 -2.76291 -2.33121 0
M  V30 1480 O 136.757 -4.02338 -1.73366 0
M  V30 1481 C 138.258 -3.028 -3.2377 0
M  V30 1482 H 135.478 -0.558361 -0.372121 0
M  V30 1483 H 138.022 -1.97099 -0.545179 0
M  V30 1484 H 136.177 -2.48068 -2.97558 0
M  V30 1485 H 136.591 -4.63312 -2.4585 0
M  V30 1486 H 138.065 -3.8345 -3.97077 0
M  V30 1487 H 138.542 -2.14385 -3.83322 0
M  V30 1488 H 139.148 -3.32604 -2.65056 0
M  V30 1489 N 137.463 0.71206 -1.40597 0
M  V30 1490 C 138.709 1.47416 -1.39271 0
M  V30 1491 C 139.042 1.942 0.00388791 0
M  V30 1492 O 138.317 1.68403 0.973179 0
M  V30 1493 C 138.6 2.69774 -2.38525 0
M  V30 1494 C 138.453 2.28861 -3.87224 0
M  V30 1495 C 139.772 3.71939 -2.35264 0
M  V30 1496 H 136.891 0.534713 -0.5072 0
M  V30 1497 H 139.533 0.812375 -1.71757 0
M  V30 1498 H 137.683 3.26238 -2.10953 0
M  V30 1499 H 139.355 1.77852 -4.25636 0
M  V30 1500 H 137.598 1.60824 -4.02887 0
M  V30 1501 H 138.269 3.16584 -4.52193 0
M  V30 1502 H 140.745 3.25113 -2.59694 0
M  V30 1503 H 139.621 4.55186 -3.06753 0
M  V30 1504 H 139.882 4.20484 -1.36549 0
M  V30 1505 N 138.941 1.26152 0.944643 0
M  V30 1506 C 139.891 1.04081 2.02857 0
M  V30 1507 C 140.875 -0.0256555 1.6088 0
M  V30 1508 O 142.067 0.190884 1.75968 0
M  V30 1509 C 139.196 0.672118 3.36656 0
M  V30 1510 C 138.282 1.77586 3.85128 0
M  V30 1511 N 138.673 3.01272 4.06287 0
M  V30 1512 C 136.971 1.65867 4.1401 0
M  V30 1513 C 137.672 3.72983 4.46384 0
M  V30 1514 N 136.648 3.00653 4.52889 0
M  V30 1515 H 140.45 1.97968 2.17223 0
M  V30 1516 H 137.964 1.16618 1.13022 0
M  V30 1517 H 139.961 0.495166 4.13949 0
M  V30 1518 H 138.621 -0.259307 3.23663 0
M  V30 1519 H 139.632 3.37213 3.93075 0
M  V30 1520 H 136.309 0.796907 4.09824 0
M  V30 1521 H 137.699 4.792 4.70975 0
M  V30 1522 N 140.419 -1.14872 1.07899 0
M  V30 1523 C 141.667 -1.85422 0.803941 0
M  V30 1524 C 141.988 -1.83051 -0.67211 0
M  V30 1525 O 141.258 -1.27532 -1.48703 0
M  V30 1526 H 139.838 -0.686537 0.294408 0
M  V30 1527 H 142.5 -1.39226 1.3639 0
M  V30 1528 H 141.596 -2.90399 1.14346 0
M  V30 1529 N 141.898 -0.863906 -1.31812 0
M  V30 1530 C 143.145 -0.471836 -1.96926 0
M  V30 1531 C 143.473 0.974578 -1.68322 0
M  V30 1532 O 142.728 1.7003 -0.968933 0
M  V30 1533 C 143.027 -0.668547 -3.51091 0
M  V30 1534 C 142.693 -2.08683 -3.99703 0
M  V30 1535 C 141.355 -2.47471 -4.12688 0
M  V30 1536 C 143.707 -3.01207 -4.25351 0
M  V30 1537 C 141.035 -3.78037 -4.4867 0
M  V30 1538 C 143.387 -4.31282 -4.62794 0
M  V30 1539 C 142.051 -4.69992 -4.73987 0
M  V30 1540 H 141.321 -0.172657 -0.720604 0
M  V30 1541 H 143.968 -1.09573 -1.57054 0
M  V30 1542 H 142.273 0.0385252 -3.91781 0
M  V30 1543 H 143.97 -0.345102 -3.99512 0
M  V30 1544 H 140.56 -1.77566 -3.90087 0
M  V30 1545 H 144.744 -2.72469 -4.14819 0
M  V30 1546 H 140 -4.078 -4.55532 0
M  V30 1547 H 144.174 -5.03031 -4.81594 0
M  V30 1548 H 141.801 -5.71207 -5.01624 0
M  V30 1549 N 143.376 1.44774 -0.622745 0
M  V30 1550 C 144.306 2.33382 0.0741861 0
M  V30 1551 C 145.287 1.47719 0.843387 0
M  V30 1552 O 146.472 1.76458 0.810934 0
M  V30 1553 C 143.602 3.30663 1.06204 0
M  V30 1554 C 142.556 4.26079 0.405037 0
M  V30 1555 C 141.882 5.13165 1.5022 0
M  V30 1556 C 143.182 5.1781 -0.683414 0
M  V30 1557 H 144.876 2.91905 -0.665713 0
M  V30 1558 H 142.422 1.40363 -0.321587 0
M  V30 1559 H 144.375 3.9153 1.55827 0
M  V30 1560 H 143.099 2.70331 1.83272 0
M  V30 1561 H 141.758 3.66532 -0.0704683 0
M  V30 1562 H 141.406 4.49191 2.26355 0
M  V30 1563 H 141.106 5.77812 1.06803 0
M  V30 1564 H 142.63 5.76902 2.00041 0
M  V30 1565 H 144.044 5.72661 -0.270631 0
M  V30 1566 H 142.441 5.91015 -1.04023 0
M  V30 1567 H 143.511 4.59326 -1.55395 0
M  V30 1568 N 144.854 0.36279 1.53368 0
M  V30 1569 C 146.1 -0.228113 2.01513 0
M  V30 1570 C 146.433 -1.48648 1.2497 0
M  V30 1571 O 145.708 -1.91459 0.342616 0
M  V30 1572 C 145.991 -0.522884 3.56284 0
M  V30 1573 C 145.844 0.74892 4.43521 0
M  V30 1574 C 147.163 -1.32461 4.19693 0
M  V30 1575 H 144.282 -0.0814343 0.732487 0
M  V30 1576 H 146.924 0.48713 1.83649 0
M  V30 1577 H 145.074 -1.1322 3.71636 0
M  V30 1578 H 146.746 1.38648 4.39971 0
M  V30 1579 H 144.989 1.36986 4.11603 0
M  V30 1580 H 145.66 0.497667 5.49752 0
M  V30 1581 H 148.136 -0.809203 4.08156 0
M  V30 1582 H 147.012 -1.49961 5.28018 0
M  V30 1583 H 147.273 -2.33232 3.75573 0
M  V30 1584 N 146.332 -1.57332 0.0918853 0
M  V30 1585 C 147.264 -2.10869 -0.898168 0
M  V30 1586 C 148.277 -1.04521 -1.24817 0
M  V30 1587 O 149.466 -1.31977 -1.20184 0
M  V30 1588 C 146.566 -2.57083 -2.2082 0
M  V30 1589 C 145.739 -3.87229 -2.03402 0
M  V30 1590 C 144.798 -4.19324 -3.17889 0
M  V30 1591 O 143.824 -4.88598 -2.91994 0
M  V30 1592 N 145.026 -3.74471 -4.43567 0
M  V30 1593 H 147.791 -2.96439 -0.440943 0
M  V30 1594 H 145.352 -1.61631 -0.0933064 0
M  V30 1595 H 147.344 -2.75602 -2.96354 0
M  V30 1596 H 145.914 -1.76541 -2.57977 0
M  V30 1597 H 145.134 -3.7789 -1.12218 0
M  V30 1598 H 146.422 -4.72379 -1.89038 0
M  V30 1599 H 145.82 -3.18546 -4.67488 0
M  V30 1600 H 144.377 -3.98151 -5.16061 0
M  V30 1601 N 147.81 0.181792 -1.56548 0
M  V30 1602 C 148.74 1.22765 -1.98623 0
M  V30 1603 C 149.721 1.46747 -0.860189 0
M  V30 1604 O 150.906 1.58259 -1.12551 0
M  V30 1605 C 148.036 2.56894 -2.33715 0
M  V30 1606 C 146.99 2.475 -3.49182 0
M  V30 1607 C 146.316 3.86023 -3.69986 0
M  V30 1608 C 147.616 1.98866 -4.82959 0
M  V30 1609 H 149.31 0.877942 -2.86239 0
M  V30 1610 H 146.856 0.42088 -1.37712 0
M  V30 1611 H 148.809 3.30253 -2.61746 0
M  V30 1612 H 147.533 2.93632 -1.42997 0
M  V30 1613 H 146.192 1.76596 -3.21262 0
M  V30 1614 H 145.84 4.20136 -2.76576 0
M  V30 1615 H 145.54 3.80609 -4.47672 0
M  V30 1616 H 147.064 4.60984 -4.00407 0
M  V30 1617 H 148.478 2.61992 -5.09934 0
M  V30 1618 H 146.875 2.04424 -5.64208 0
M  V30 1619 H 147.945 0.942465 -4.75653 0
M  V30 1620 N 149.288 1.51039 0.449983 0
M  V30 1621 C 150.699 1.557 1.03026 0
M  V30 1622 C 151.05 0.372939 1.92623 0
M  V30 1623 O 150.175 -0.511771 2.10261 0
M  V30 1624 C 150.77 2.82171 1.87523 0
M  V30 1625 C 149.329 2.89444 2.40622 0
M  V30 1626 C 148.476 2.50228 1.19504 0
M  V30 1627 H 151.427 1.56999 0.231745 0
M  V30 1628 H 151.448 2.65219 2.72835 0
M  V30 1629 H 150.96 3.68331 1.22286 0
M  V30 1630 H 149.061 2.07685 3.0935 0
M  V30 1631 H 149.174 3.92816 2.74285 0
M  V30 1632 H 147.538 2.03139 1.53644 0
M  V30 1633 H 148.321 3.38719 0.558972 0
M  V30 1634 N 150.766 -0.704594 1.40972 0
M  V30 1635 C 151.696 -1.83124 1.44872 0
M  V30 1636 C 152.677 -1.67281 0.30838 0
M  V30 1637 O 153.862 -1.87149 0.518556 0
M  V30 1638 C 150.992 -3.21181 1.32136 0
M  V30 1639 C 149.946 -3.51714 2.43888 0
M  V30 1640 C 149.272 -4.89032 2.16222 0
M  V30 1641 C 150.572 -3.516 3.86232 0
M  V30 1642 H 152.266 -1.80117 2.39161 0
M  V30 1643 H 149.812 -0.865145 1.15114 0
M  V30 1644 H 151.765 -3.99702 1.33479 0
M  V30 1645 H 150.489 -3.24791 0.343279 0
M  V30 1646 H 149.148 -2.75539 2.41813 0
M  V30 1647 H 148.796 -4.89256 1.16778 0
M  V30 1648 H 148.496 -5.10426 2.911 0
M  V30 1649 H 150.02 -5.69873 2.19265 0
M  V30 1650 H 151.434 -4.2014 3.9007 0
M  V30 1651 H 149.831 -3.84523 4.60719 0
M  V30 1652 H 150.901 -2.50757 4.15029 0
M  V30 1653 N 152.244 -1.26651 -0.937939 0
M  V30 1654 C 153.521 -1.0313 -1.66204 0
M  V30 1655 C 153.901 0.437256 -2.06522 0
M  V30 1656 O 153.249 1.41831 -1.79154 0
M  V30 1657 C 153.459 -1.98314 -2.87181 0
M  V30 1658 C 154.807 -2.27107 -3.58758 0
M  V30 1659 O 155.831 -1.96205 -2.97291 0
M  V30 1660 O 154.69 -2.79736 -4.69479 0
M  V30 1661 H 151.784 -0.392384 -0.727986 0
M  V30 1662 H 154.33 -1.37874 -0.989382 0
M  V30 1663 H 153.102 -2.97399 -2.54302 0
M  V30 1664 H 152.725 -1.64068 -3.6217 0
M  V30 1665 N 153.722 1.14298 -1.08507 0
M  V30 1666 C 154.947 1.8976 -0.837001 0
M  V30 1667 C 155.372 1.78097 0.605228 0
M  V30 1668 O 154.73 1.12188 1.4242 0
M  V30 1669 C 154.778 3.37685 -1.26495 0
M  V30 1670 O 153.882 4.10281 -0.417514 0
M  V30 1671 H 153.223 0.590365 -0.303917 0
M  V30 1672 H 155.753 1.44672 -1.44676 0
M  V30 1673 H 155.763 3.88501 -1.24625 0
M  V30 1674 H 154.438 3.45492 -2.31534 0
M  V30 1675 H 153.015 3.69536 -0.499722 0
M  V30 1676 N 155.201 0.870884 1.31352 0
M  V30 1677 C 156.111 0.330783 2.32256 0
M  V30 1678 C 157.127 -0.559767 1.6475 0
M  V30 1679 O 158.303 -0.456263 1.96164 0
M  V30 1680 C 155.368 -0.458137 3.4366 0
M  V30 1681 C 154.429 0.460482 4.26823 0
M  V30 1682 C 153.662 -0.290881 5.32907 0
M  V30 1683 O 153.885 -1.51885 5.49806 0
M  V30 1684 O 152.819 0.351732 6.00871 0
M  V30 1685 H 156.645 1.16718 2.80376 0
M  V30 1686 H 154.23 0.634285 1.35267 0
M  V30 1687 H 156.112 -0.905343 4.1156 0
M  V30 1688 H 154.787 -1.27106 2.97701 0
M  V30 1689 H 153.694 0.956207 3.61673 0
M  V30 1690 H 155.027 1.23903 4.7635 0
M  V30 1691 N 156.679 -1.44442 0.630414 0
M  V30 1692 C 157.627 -2.32437 -0.0871428 0
M  V30 1693 C 158.621 -1.47304 -0.836525 0
M  V30 1694 O 159.827 -1.63653 -0.749506 0
M  V30 1695 H 156.202 -0.750533 -0.0469495 0
M  V30 1696 H 158.173 -2.90709 0.673096 0
M  V30 1697 C 156.922 -3.31288 -1.05563 0
M  V30 1698 H 156.245 -3.96805 -0.488426 0
M  V30 1699 H 157.685 -3.9554 -1.52721 0
M  V30 1700 C 156.144 -2.6016 -2.14052 0
M  V30 1701 O 156.674 -2.39997 -3.22124 0
M  V30 1702 N 154.88 -2.19911 -1.89967 0
M  V30 1703 H 154.427 -2.36509 -1.02085 0
M  V30 1704 H 154.385 -1.72646 -2.62756 0
M  V30 1705 N 158.157 -0.370918 -1.53173 0
M  V30 1706 C 159.382 0.220293 -2.06227 0
M  V30 1707 C 159.807 1.41243 -1.24225 0
M  V30 1708 O 159.165 1.79387 -0.262645 0
M  V30 1709 C 159.213 0.586663 -3.55796 0
M  V30 1710 O 158.317 1.68317 -3.76488 0
M  V30 1711 H 157.658 0.0308099 -0.663285 0
M  V30 1712 H 160.188 -0.533068 -1.97534 0
M  V30 1713 H 160.198 0.85617 -3.98916 0
M  V30 1714 H 158.873 -0.285013 -4.14922 0
M  V30 1715 H 157.45 1.40881 -3.45264 0
M  V30 1716 N 159.635 1.57281 -0.100228 0
M  V30 1717 C 160.884 1.93713 0.561984 0
M  V30 1718 C 161.197 0.984492 1.69018 0
M  V30 1719 O 162.403 1.24273 2.41389 0
M  V30 1720 C 160.859 3.4421 1.05106 0
M  V30 1721 C 160.467 4.47975 -0.0476628 0
M  V30 1722 C 162.211 3.89595 1.68571 0
M  V30 1723 C 160.118 5.89631 0.457055 0
M  V30 1724 H 159.048 0.723082 0.2137 0
M  V30 1725 H 161.699 1.82644 -0.177057 0
M  V30 1726 H 160.081 3.50449 1.84395 0
M  V30 1727 H 161.255 4.53385 -0.823333 0
M  V30 1728 H 159.57 4.1223 -0.587816 0
M  V30 1729 H 162.167 4.92832 2.07414 0
M  V30 1730 H 162.51 3.28526 2.55688 0
M  V30 1731 H 163.043 3.86078 0.958562 0
M  V30 1732 H 159.782 6.54411 -0.377616 0
M  V30 1733 H 159.302 5.87681 1.19962 0
M  V30 1734 H 160.981 6.40363 0.92437 0
M  V30 1735 N 161.113 -0.173488 1.56642 0
M  V30 1736 C 162.061 -1.23417 1.97157 0
M  V30 1737 C 163.055 -1.45946 0.860013 0
M  V30 1738 O 164.261 -1.46551 1.04512 0
M  V30 1739 H 160.636 -0.414818 0.62724 0
M  V30 1740 H 162.607 -0.865582 2.8557 0
M  V30 1741 C 161.356 -2.5665 2.34576 0
M  V30 1742 H 160.679 -2.40137 3.19647 0
M  V30 1743 H 162.119 -3.2956 2.6677 0
M  V30 1744 C 160.578 -3.15245 1.18836 0
M  V30 1745 O 161.108 -3.98883 0.474869 0
M  V30 1746 N 159.314 -2.74303 0.959497 0
M  V30 1747 H 158.861 -2.0639 1.54146 0
M  V30 1748 H 158.819 -3.13844 0.186932 0
M  V30 1749 N 162.591 -1.51276 -0.441967 0
M  V30 1750 C 163.819 -1.67516 -1.21434 0
M  V30 1751 C 164.234 -0.37055 -1.85128 0
M  V30 1752 O 163.591 0.650498 -1.70513 0
M  V30 1753 C 163.642 -2.78748 -2.30177 0
M  V30 1754 O 163.363 -4.04154 -1.69089 0
M  V30 1755 C 164.864 -3.06217 -3.20541 0
M  V30 1756 H 162.084 -0.562276 -0.366178 0
M  V30 1757 H 164.628 -1.97666 -0.524244 0
M  V30 1758 H 162.783 -2.5121 -2.94911 0
M  V30 1759 H 163.197 -4.65894 -2.40922 0
M  V30 1760 H 164.671 -3.8764 -3.92987 0
M  V30 1761 H 165.148 -2.18439 -3.81026 0
M  V30 1762 H 165.754 -3.35397 -2.61513 0
M  V30 1763 N 164.069 0.697108 -1.41344 0
M  V30 1764 C 164.979 1.84088 -1.45427 0
M  V30 1765 C 165.995 1.70545 -0.34501 0
M  V30 1766 O 167.171 1.92488 -0.592492 0
M  V30 1767 C 164.236 3.20056 -1.33286 0
M  V30 1768 C 163.297 3.45718 -2.54514 0
M  V30 1769 C 162.53 4.75199 -2.42944 0
M  V30 1770 O 162.753 5.51579 -1.45318 0
M  V30 1771 O 161.687 5.0161 -3.32672 0
M  V30 1772 H 165.513 1.836 -2.41919 0
M  V30 1773 H 163.098 0.849966 -1.22866 0
M  V30 1774 H 164.98 4.01236 -1.28794 0
M  V30 1775 H 163.655 3.2123 -0.39909 0
M  V30 1776 H 162.562 2.64474 -2.64583 0
M  V30 1777 H 163.895 3.49356 -3.46715 0
M  V30 1778 N 165.547 1.27147 0.931209 0
M  V30 1779 C 166.457 1.11372 2.06478 0
M  V30 1780 C 167.473 0.044645 1.73943 0
M  V30 1781 O 168.649 0.250417 1.99837 0
M  V30 1782 C 165.714 0.758838 3.38294 0
M  V30 1783 C 164.775 1.90841 3.84549 0
M  V30 1784 C 164.008 1.57036 5.10074 0
M  V30 1785 O 164.231 0.476645 5.68405 0
M  V30 1786 O 163.165 2.40839 5.51616 0
M  V30 1787 H 166.991 2.06493 2.22698 0
M  V30 1788 H 164.576 1.06301 1.04978 0
M  V30 1789 H 166.458 0.574098 4.17471 0
M  V30 1790 H 165.133 -0.162879 3.2329 0
M  V30 1791 H 164.04 2.14819 3.06274 0
M  V30 1792 H 165.373 2.81021 4.04089 0
M  V30 1793 N 167.025 -1.13721 1.09112 0
M  V30 1794 C 168.271 -1.85198 0.826414 0
M  V30 1795 C 168.604 -1.83129 -0.646319 0
M  V30 1796 O 167.879 -1.2671 -1.47563 0
M  V30 1797 C 168.162 -3.33507 1.35812 0
M  V30 1798 C 168.015 -3.44108 2.89672 0
M  V30 1799 C 169.334 -4.28838 0.989256 0
M  V30 1800 H 166.453 -0.67243 0.301675 0
M  V30 1801 H 169.095 -1.33499 1.35197 0
M  V30 1802 H 167.245 -3.77666 0.911082 0
M  V30 1803 H 168.917 -3.08684 3.428 0
M  V30 1804 H 167.16 -2.85087 3.26967 0
M  V30 1805 H 167.831 -4.48388 3.21951 0
M  V30 1806 H 170.307 -3.92734 1.37475 0
M  V30 1807 H 169.183 -5.31051 1.38838 0
M  V30 1808 H 169.444 -4.4198 -0.102924 0
M  V30 1809 N 168.503 -0.877838 -1.30888 0
M  V30 1810 C 169.752 -0.488793 -1.95688 0
M  V30 1811 C 170.065 0.965485 -1.70111 0
M  V30 1812 O 171.271 1.46104 -2.28836 0
M  V30 1813 C 169.727 -0.823201 -3.50359 0
M  V30 1814 C 169.335 -2.29477 -3.84765 0
M  V30 1815 C 171.079 -0.503009 -4.21509 0
M  V30 1816 C 168.986 -2.57118 -5.32583 0
M  V30 1817 H 167.916 -0.179062 -0.732429 0
M  V30 1818 H 170.567 -1.07183 -1.48943 0
M  V30 1819 H 168.949 -0.169331 -3.95638 0
M  V30 1820 H 170.123 -2.99236 -3.5042 0
M  V30 1821 H 168.438 -2.58178 -3.267 0
M  V30 1822 H 171.035 -0.68665 -5.30273 0
M  V30 1823 H 171.378 0.557109 -4.12555 0
M  V30 1824 H 171.911 -1.11376 -3.8189 0
M  V30 1825 H 168.65 -3.61843 -5.4658 0
M  V30 1826 H 168.17 -1.91961 -5.68253 0
M  V30 1827 H 169.849 -2.42251 -5.99936 0
M  V30 1828 N 169.982 1.44106 -0.638065 0
M  V30 1829 C 170.93 2.3248 0.0748149 0
M  V30 1830 C 171.924 1.47746 0.828702 0
M  V30 1831 O 173.13 1.64049 0.740816 0
M  V30 1832 H 169.505 0.750771 0.0429686 0
M  V30 1833 H 171.476 2.90348 -0.688504 0
M  V30 1834 C 170.225 3.31843 1.03805 0
M  V30 1835 H 169.548 3.97059 0.467375 0
M  V30 1836 H 170.988 3.96345 1.50622 0
M  V30 1837 C 169.447 2.61291 2.1267 0
M  V30 1838 O 169.977 2.41702 3.20847 0
M  V30 1839 N 168.183 2.20915 1.88798 0
M  V30 1840 H 167.73 2.37047 1.00829 0
M  V30 1841 H 167.688 1.74038 2.61836 0
M  V30 1842 N 171.46 0.379036 1.52974 0
M  V30 1843 C 172.423 -0.448865 2.24762 0
M  V30 1844 C 173.423 -0.998689 1.26027 0
M  V30 1845 O 174.613 -0.882313 1.50203 0
M  V30 1846 C 171.745 -1.62872 2.99476 0
M  V30 1847 H 172.938 0.179491 2.99362 0
M  V30 1848 H 170.491 0.13096 1.5575 0
M  V30 1849 H 171.226 -2.29479 2.29151 0
M  V30 1850 H 171.011 -1.24128 3.71934 0
M  V30 1851 H 172.501 -2.2151 3.5401 0
M  V30 1852 N 172.938 -1.57226 0.108567 0
M  V30 1853 C 174.187 -1.94008 -0.551703 0
M  V30 1854 C 174.5 -0.993442 -1.68494 0
M  V30 1855 O 175.706 -1.25551 -2.40726 0
M  V30 1856 C 174.162 -3.44763 -1.03279 0
M  V30 1857 C 173.77 -4.47943 0.0714193 0
M  V30 1858 C 175.514 -3.90483 -1.66503 0
M  V30 1859 C 173.421 -5.89865 -0.425779 0
M  V30 1860 H 172.351 -0.724206 -0.209863 0
M  V30 1861 H 175.002 -1.82547 0.186741 0
M  V30 1862 H 173.384 -3.51422 -1.82533 0
M  V30 1863 H 174.558 -4.52942 0.847365 0
M  V30 1864 H 172.873 -4.11913 0.609669 0
M  V30 1865 H 175.47 -4.93925 -2.04798 0
M  V30 1866 H 175.813 -3.29877 -2.53942 0
M  V30 1867 H 176.346 -3.86581 -0.938074 0
M  V30 1868 H 173.085 -6.54202 0.412316 0
M  V30 1869 H 172.605 -5.88309 -1.16843 0
M  V30 1870 H 174.284 -6.40844 -0.890397 0
M  V30 1871 N 174.416 0.165178 -1.56732 0
M  V30 1872 C 175.379 1.18822 -1.95995 0
M  V30 1873 C 176.379 1.3685 -0.84431 0
M  V30 1874 O 177.569 1.34152 -1.11126 0
M  V30 1875 C 174.701 2.5521 -2.26011 0
M  V30 1876 H 175.894 0.851825 -2.87548 0
M  V30 1877 H 173.447 0.407857 -1.50885 0
M  V30 1878 H 174.182 2.93852 -1.37191 0
M  V30 1879 H 173.967 2.43489 -3.07336 0
M  V30 1880 H 175.457 3.28927 -2.57288 0
M  V30 1881 N 175.894 1.51508 0.433938 0
M  V30 1882 C 177.305 1.56784 1.01369 0
M  V30 1883 C 177.656 0.393349 1.92217 0
M  V30 1884 O 176.781 -0.489441 2.10792 0
M  V30 1885 C 177.376 2.84144 1.8452 0
M  V30 1886 C 175.935 2.9198 2.37539 0
M  V30 1887 C 175.082 2.51482 1.16843 0
M  V30 1888 H 178.033 1.57236 0.215081 0
M  V30 1889 H 178.054 2.68098 2.70007 0
M  V30 1890 H 177.566 3.69607 1.18373 0
M  V30 1891 H 175.667 2.10955 3.0713 0
M  V30 1892 H 175.78 3.95704 2.70103 0
M  V30 1893 H 174.144 2.04758 1.51481 0
M  V30 1894 H 174.927 3.39293 0.523015 0
M  V30 1895 N 177.372 -0.689602 1.41712 0
M  V30 1896 C 178.282 -1.83314 1.46401 0
M  V30 1897 C 179.298 -1.7036 0.35405 0
M  V30 1898 O 180.474 -1.92171 0.602692 0
M  V30 1899 C 177.539 -3.19344 1.34982 0
M  V30 1900 C 176.6 -3.44363 2.56344 0
M  V30 1901 C 175.833 -4.73904 2.45461 0
M  V30 1902 O 176.056 -5.508 1.48241 0
M  V30 1903 O 174.99 -4.99839 3.35328 0
M  V30 1904 H 178.816 -1.82314 2.42889 0
M  V30 1905 H 176.401 -0.843438 1.23315 0
M  V30 1906 H 178.283 -4.00547 1.3092 0
M  V30 1907 H 176.958 -3.21014 0.41612 0
M  V30 1908 H 175.865 -2.63067 2.65982 0
M  V30 1909 H 177.198 -3.47512 3.48563 0
M  V30 1910 N 178.85 -1.27639 -0.924453 0
M  V30 1911 C 179.797 -1.10644 -2.0255 0
M  V30 1912 C 180.767 -0.00658438 -1.66099 0
M  V30 1913 O 181.952 -0.16952 -1.90045 0
M  V30 1914 C 179.092 -0.76309 -3.36557 0
M  V30 1915 C 178.205 -1.94091 -3.85944 0
M  V30 1916 C 177.34 -1.53914 -5.08413 0
M  V30 1917 C 176.379 -2.68425 -5.50104 0
M  V30 1918 N 175.516 -2.28815 -6.63768 0
M  V30 1919 H 180.356 -2.04858 -2.16419 0
M  V30 1920 H 177.893 -1.01974 -1.06017 0
M  V30 1921 H 179.851 -0.544822 -4.13627 0
M  V30 1922 H 178.481 0.142102 -3.22487 0
M  V30 1923 H 177.533 -2.27162 -3.05125 0
M  V30 1924 H 178.845 -2.7998 -4.12811 0
M  V30 1925 H 177.999 -1.28231 -5.92994 0
M  V30 1926 H 176.738 -0.651391 -4.8333 0
M  V30 1927 H 175.743 -2.94819 -4.64071 0
M  V30 1928 H 176.968 -3.57826 -5.7718 0
M  V30 1929 H 174.914 -1.42495 -6.40337 0
M  V30 1930 H 174.831 -3.08242 -6.90306 0
M  V30 1931 H 176.099 -2.06387 -7.51681 0
M  V30 1932 N 180.328 1.1314 -1.09713 0
M  V30 1933 C 181.605 1.80762 -0.747302 0
M  V30 1934 C 181.985 1.96663 0.767265 0
M  V30 1935 O 181.333 1.53706 1.69076 0
M  V30 1936 C 181.543 3.15606 -1.48975 0
M  V30 1937 C 182.891 3.90914 -1.65746 0
M  V30 1938 O 183.915 3.25239 -1.45251 0
M  V30 1939 O 182.774 5.08718 -1.9967 0
M  V30 1940 H 179.868 0.782103 -0.268782 0
M  V30 1941 H 182.414 1.20041 -1.19951 0
M  V30 1942 H 181.186 2.99278 -2.52088 0
M  V30 1943 H 180.809 3.84029 -1.02991 0
M  V30 1944 N 181.806 0.884767 1.30421 0
M  V30 1945 C 183.052 0.503851 1.96441 0
M  V30 1946 C 183.385 -0.944518 1.69684 0
M  V30 1947 O 182.66 -1.66737 1.00145 0
M  V30 1948 C 182.943 0.779085 3.51571 0
M  V30 1949 C 182.796 2.27807 3.87846 0
M  V30 1950 C 184.115 0.255452 4.39358 0
M  V30 1951 H 181.234 0.184533 0.713524 0
M  V30 1952 H 183.876 1.10872 1.54297 0
M  V30 1953 H 182.026 0.264274 3.876 0
M  V30 1954 H 183.698 2.86127 3.61841 0
M  V30 1955 H 181.941 2.74479 3.35922 0
M  V30 1956 H 182.612 2.42125 4.96064 0
M  V30 1957 H 185.088 0.696079 4.10236 0
M  V30 1958 H 183.964 0.477361 5.4682 0
M  V30 1959 H 184.225 -0.843293 4.33983 0
M  V30 1960 N 183.284 -1.43765 0.645699 0
M  V30 1961 C 184.561 -1.9541 0.0862963 0
M  V30 1962 C 184.941 -1.58725 -1.39175 0
M  V30 1963 O 184.289 -0.868581 -2.11348 0
M  V30 1964 C 184.499 -3.47488 0.324565 0
M  V30 1965 C 185.847 -4.24001 0.225497 0
M  V30 1966 O 186.871 -3.55274 0.256715 0
M  V30 1967 O 185.73 -5.46313 0.142801 0
M  V30 1968 H 182.824 -0.826882 -0.0139483 0
M  V30 1969 H 185.37 -1.53743 0.718415 0
M  V30 1970 H 184.142 -3.67289 1.3496 0
M  V30 1971 H 183.765 -3.96135 -0.340987 0
M  V30 1972 N 184.763 -0.387143 -1.52771 0
M  V30 1973 C 186.011 0.195349 -2.01154 0
M  V30 1974 C 186.332 1.475 -1.27549 0
M  V30 1975 O 185.602 1.91878 -0.394924 0
M  V30 1976 H 184.182 0.075178 -0.743207 0
M  V30 1977 H 186.844 -0.518337 -1.87881 0
M  V30 1978 H 185.94 0.407096 -3.09434 0
M  V30 1979 N 186.241 1.57166 -0.116904 0
M  V30 1980 C 187.171 2.18222 0.830759 0
M  V30 1981 C 188.152 1.12167 1.27877 0
M  V30 1982 O 189.337 1.40394 1.34176 0
M  V30 1983 C 186.467 2.77996 2.08172 0
M  V30 1984 C 185.421 3.89614 1.77157 0
M  V30 1985 C 184.747 4.36187 3.09265 0
M  V30 1986 C 186.047 5.1181 1.04151 0
M  V30 1987 H 187.741 2.97664 0.321992 0
M  V30 1988 H 185.287 1.4318 0.153434 0
M  V30 1989 H 187.24 3.19366 2.74924 0
M  V30 1990 H 185.964 1.9584 2.6137 0
M  V30 1991 H 184.623 3.48816 1.12796 0
M  V30 1992 H 184.271 3.50893 3.60393 0
M  V30 1993 H 183.971 5.11455 2.89288 0
M  V30 1994 H 185.495 4.80207 3.77139 0
M  V30 1995 H 186.909 5.50214 1.61052 0
M  V30 1996 H 185.306 5.92648 0.942762 0
M  V30 1997 H 186.376 4.84892 0.0279022 0
M  V30 1998 N 187.719 -0.156864 1.56817 0
M  V30 1999 C 188.947 -0.886316 1.86955 0
M  V30 2000 C 189.362 -1.75185 0.703975 0
M  V30 2001 O 188.719 -1.79555 -0.326552 0
M  V30 2002 C 188.77 -1.75117 3.16253 0
M  V30 2003 O 188.491 -0.920537 4.2832 0
M  V30 2004 C 189.992 -2.58905 3.59837 0
M  V30 2005 H 187.212 -0.25678 0.619923 0
M  V30 2006 H 189.756 -0.152615 2.0393 0
M  V30 2007 H 187.911 -2.43805 3.01062 0
M  V30 2008 H 188.325 -1.51337 5.02192 0
M  V30 2009 H 189.799 -3.1518 4.53172 0
M  V30 2010 H 190.276 -3.34472 2.84649 0
M  V30 2011 H 190.882 -1.95526 3.7769 0
M  V30 2012 N 189.197 -1.51736 -0.425897 0
M  V30 2013 C 190.422 -1.69082 -1.20108 0
M  V30 2014 C 190.847 -0.392398 -1.83962 0
M  V30 2015 O 190.205 0.64858 -1.69302 0
M  V30 2016 C 190.253 -2.81604 -2.25237 0
M  V30 2017 O 189.357 -2.46004 -3.30992 0
M  V30 2018 H 188.698 -0.563408 -0.35138 0
M  V30 2019 H 191.228 -1.98358 -0.501512 0
M  V30 2020 H 191.238 -3.06025 -2.69838 0
M  V30 2021 H 189.913 -3.75817 -1.78142 0
M  V30 2022 H 188.49 -2.32195 -2.91787 0
M  V30 2023 N 190.675 0.682077 -1.42076 0
M  V30 2024 C 191.924 1.43786 -1.41451 0
M  V30 2025 C 192.237 1.95574 -0.0317074 0
M  V30 2026 O 193.443 2.71326 0.0971462 0
M  V30 2027 C 191.899 2.60071 -2.48779 0
M  V30 2028 C 191.507 2.15013 -3.93031 0
M  V30 2029 C 193.251 3.37626 -2.57311 0
M  V30 2030 C 191.158 3.28336 -4.91883 0
M  V30 2031 H 190.088 0.540143 -0.526082 0
M  V30 2032 H 192.739 0.739157 -1.67955 0
M  V30 2033 H 191.121 3.32275 -2.15429 0
M  V30 2034 H 192.295 1.5001 -4.35699 0
M  V30 2035 H 190.61 1.50416 -3.88284 0
M  V30 2036 H 193.207 4.22012 -3.28345 0
M  V30 2037 H 193.55 3.83727 -1.61429 0
M  V30 2038 H 194.083 2.72488 -2.89819 0
M  V30 2039 H 190.822 2.87234 -5.89217 0
M  V30 2040 H 190.342 3.92145 -4.53853 0
M  V30 2041 H 192.021 3.93913 -5.13265 0
M  V30 2042 N 192.153 1.28127 0.917671 0
M  V30 2043 C 193.101 1.11569 2.04096 0
M  V30 2044 C 194.095 0.0360242 1.69362 0
M  V30 2045 O 195.301 0.194501 1.78946 0
M  V30 2046 H 191.676 0.344097 0.668656 0
M  V30 2047 H 193.647 2.06711 2.15205 0
M  V30 2048 C 192.396 0.790197 3.38602 0
M  V30 2049 H 191.719 1.61293 3.6582 0
M  V30 2050 H 193.159 0.714271 4.1794 0
M  V30 2051 C 191.618 -0.505897 3.3308 0
M  V30 2052 O 192.148 -1.53736 3.71117 0
M  V30 2053 N 190.354 -0.505193 2.86175 0
M  V30 2054 H 189.901 0.334621 2.55417 0
M  V30 2055 H 189.859 -1.37243 2.82863 0
M  V30 2056 N 193.631 -1.12557 1.10312 0
M  V30 2057 C 194.594 -2.16434 0.75424 0
M  V30 2058 C 195.594 -1.59278 -0.220685 0
M  V30 2059 O 196.784 -1.742 0.00230591 0
M  V30 2060 C 193.916 -3.40699 0.116987 0
M  V30 2061 H 195.109 -2.48811 1.67431 0
M  V30 2062 H 192.662 -1.27542 0.903475 0
M  V30 2063 H 193.397 -3.13921 -0.813877 0
M  V30 2064 H 193.182 -3.83459 0.818613 0
M  V30 2065 H 194.672 -4.17451 -0.111387 0
M  V30 2066 N 195.109 -0.891671 -1.2995 0
M  V30 2067 C 196.357 -0.512486 -1.95494 0
M  V30 2068 C 196.678 0.942776 -1.70695 0
M  V30 2069 O 195.948 1.66374 -1.03424 0
M  V30 2070 H 194.528 -0.186533 -0.723336 0
M  V30 2071 H 197.19 -1.13621 -1.58355 0
M  V30 2072 H 196.286 -0.688342 -3.04415 0
M  V30 2073 N 196.587 1.43421 -0.653314 0
M  V30 2074 C 198.003 1.56341 -0.320886 0
M  V30 2075 C 198.203 1.63696 1.17499 0
M  V30 2076 O 197.259 1.59208 1.95982 0
M  V30 2077 C 198.572 2.82424 -1.03233 0
M  V30 2078 C 200.12 2.96168 -1.01259 0
M  V30 2079 C 200.595 4.25084 -1.70492 0
M  V30 2080 N 202.086 4.31948 -1.67257 0
M  V30 2081 C 202.821 5.30466 -2.17701 0
M  V30 2082 N 202.317 6.35261 -2.76434 0
M  V30 2083 N 204.11 5.2212 -2.082 0
M  V30 2084 H 196.261 1.3689 -1.62403 0
M  V30 2085 H 198.524 0.657455 -0.682977 0
M  V30 2086 H 198.23 2.83053 -2.08744 0
M  V30 2087 H 198.104 3.72653 -0.583948 0
M  V30 2088 H 200.491 2.9508 0.0341235 0
M  V30 2089 H 200.572 2.07229 -1.49966 0
M  V30 2090 H 200.216 4.26932 -2.7512 0
M  V30 2091 H 200.146 5.1292 -1.19251 0
M  V30 2092 H 202.637 3.56838 -1.24398 0
M  V30 2093 H 202.95 7.06754 -3.12601 0
M  V30 2094 H 201.295 6.35884 -2.80495 0
M  V30 2095 H 204.486 4.39166 -1.62021 0
M  V30 2096 H 204.659 5.98739 -2.47822 0
M  V30 2097 N 198.065 0.39524 1.52563 0
M  V30 2098 C 198.995 -0.428384 2.29537 0
M  V30 2099 C 199.976 -1.05831 1.33169 0
M  V30 2100 O 201.161 -1.06995 1.62067 0
M  V30 2101 C 198.291 -1.55274 3.10656 0
M  V30 2102 C 197.245 -1.04855 4.14957 0
M  V30 2103 C 196.571 -2.26543 4.84337 0
M  V30 2104 C 197.871 -0.112324 5.22179 0
M  V30 2105 H 199.565 0.213867 2.98635 0
M  V30 2106 H 197.111 0.104298 1.43622 0
M  V30 2107 H 199.064 -2.1358 3.63265 0
M  V30 2108 H 197.788 -2.22266 2.39302 0
M  V30 2109 H 196.447 -0.487985 3.63338 0
M  V30 2110 H 196.095 -2.92059 4.09525 0
M  V30 2111 H 195.795 -1.93466 5.54837 0
M  V30 2112 H 197.319 -2.85481 5.39753 0
M  V30 2113 H 198.733 -0.603752 5.70112 0
M  V30 2114 H 197.13 0.128968 5.99961 0
M  V30 2115 H 198.2 0.837052 4.77621 0
M  V30 2116 N 199.544 -1.57102 0.125237 0
M  V30 2117 C 200.507 -2.14471 -0.80838 0
M  V30 2118 C 201.507 -1.0811 -1.19033 0
M  V30 2119 O 202.697 -1.33856 -1.11482 0
M  V30 2120 C 199.829 -2.69005 -2.09402 0
M  V30 2121 H 201.022 -2.98297 -0.309696 0
M  V30 2122 H 198.575 -1.55807 -0.124051 0
M  V30 2123 H 199.31 -1.88785 -2.63687 0
M  V30 2124 H 199.095 -3.46799 -1.82957 0
M  V30 2125 H 200.585 -3.13278 -2.76128 0
M  V30 2126 N 201.022 0.148545 -1.56898 0
M  V30 2127 C 202.438 0.501131 -1.51528 0
M  V30 2128 C 202.638 1.83458 -0.833399 0
M  V30 2129 O 201.694 2.49259 -0.40328 0
M  V30 2130 C 203.007 0.512864 -2.96294 0
M  V30 2131 C 204.555 0.598487 -3.07225 0
M  V30 2132 C 205.03 0.640897 -4.53494 0
M  V30 2133 N 206.521 0.703163 -4.57832 0
M  V30 2134 C 207.256 0.756935 -5.68382 0
M  V30 2135 N 206.752 0.770147 -6.88506 0
M  V30 2136 N 208.545 0.797698 -5.56411 0
M  V30 2137 H 200.696 -0.725532 -1.99624 0
M  V30 2138 H 202.959 -0.264358 -0.910395 0
M  V30 2139 H 202.665 -0.398691 -3.49433 0
M  V30 2140 H 202.539 1.35133 -3.52163 0
M  V30 2141 H 204.926 1.50046 -2.54106 0
M  V30 2142 H 205.007 -0.267093 -2.54402 0
M  V30 2143 H 204.651 -0.256915 -5.0725 0
M  V30 2144 H 204.581 1.52295 -5.04097 0
M  V30 2145 H 207.072 0.700314 -3.71354 0
M  V30 2146 H 207.385 0.812983 -7.68512 0
M  V30 2147 H 205.73 0.738049 -6.9107 0
M  V30 2148 H 208.921 0.784535 -4.61479 0
M  V30 2149 H 209.094 0.83614 -6.42583 0
M  V30 2150 N 202.5 1.5196 0.417844 0
M  V30 2151 C 203.748 1.65263 1.16329 0
M  V30 2152 C 204.069 0.380634 1.91249 0
M  V30 2153 O 203.339 -0.604214 1.86349 0
M  V30 2154 H 201.919 0.60912 0.432414 0
M  V30 2155 H 204.581 1.88969 0.477162 0
M  V30 2156 H 203.677 2.4896 1.88217 0
M  V30 2157 N 203.978 -0.674533 1.42435 0
M  V30 2158 C 205.255 -1.4305 1.33402 0
M  V30 2159 C 205.635 -2.11081 -0.0284674 0
M  V30 2160 O 204.983 -2.03257 -1.04397 0
M  V30 2161 C 205.193 -2.43272 2.50239 0
M  V30 2162 C 206.541 -3.07907 2.92367 0
M  V30 2163 O 207.565 -2.53599 2.50132 0
M  V30 2164 O 206.424 -4.0632 3.65467 0
M  V30 2165 H 203.518 -0.638076 0.526106 0
M  V30 2166 H 206.064 -0.703235 1.54443 0
M  V30 2167 H 204.836 -1.91803 3.41068 0
M  V30 2168 H 204.459 -3.23479 2.31186 0
M  V30 2169 N 205.456 -1.28612 -0.910864 0
M  V30 2170 C 206.386 -1.15326 -2.03032 0
M  V30 2171 C 207.367 -0.0502924 -1.70026 0
M  V30 2172 O 208.552 -0.227797 -1.92859 0
M  V30 2173 C 205.682 -0.817343 -3.37545 0
M  V30 2174 C 204.636 -1.8754 -3.84724 0
M  V30 2175 C 203.962 -1.39305 -5.16235 0
M  V30 2176 C 205.262 -3.28244 -4.06267 0
M  V30 2177 H 206.956 -2.08975 -2.14406 0
M  V30 2178 H 204.502 -1.00612 -1.03021 0
M  V30 2179 H 206.455 -0.711151 -4.15356 0
M  V30 2180 H 205.179 0.154846 -3.26233 0
M  V30 2181 H 203.838 -1.97079 -3.09121 0
M  V30 2182 H 203.486 -0.409846 -5.01328 0
M  V30 2183 H 203.186 -2.10057 -5.48771 0
M  V30 2184 H 204.71 -1.30014 -5.96598 0
M  V30 2185 H 206.124 -3.21611 -4.74594 0
M  V30 2186 H 204.521 -3.96855 -4.5014 0
M  V30 2187 H 205.591 -3.72048 -3.10979 0
M  V30 2188 N 206.934 1.1197 -1.10907 0
M  V30 2189 C 207.882 2.19927 -0.757303 0
M  V30 2190 C 208.876 1.67564 0.248747 0
M  V30 2191 O 210.082 1.79672 0.108605 0
M  V30 2192 H 206.457 0.716925 -0.226987 0
M  V30 2193 H 208.428 2.46847 -1.67658 0
M  V30 2194 C 207.177 3.47061 -0.210671 0
M  V30 2195 H 206.5 3.87703 -0.976049 0
M  V30 2196 H 207.94 4.24 -0.0026584 0
M  V30 2197 C 206.399 3.19864 1.05777 0
M  V30 2198 O 206.929 3.40049 2.13845 0
M  V30 2199 N 205.135 2.73636 0.978349 0
M  V30 2200 H 204.682 2.5741 0.0988246 0
M  V30 2201 H 204.64 2.55815 1.82773 0
M  V30 2202 N 208.412 0.89855 1.29475 0
M  V30 2203 C 209.689 0.443416 1.90508 0
M  V30 2204 C 210.069 -1.07685 1.81569 0
M  V30 2205 O 209.417 -1.9182 1.24166 0
M  V30 2206 C 209.627 0.956708 3.35631 0
M  V30 2207 C 210.975 0.999728 4.12663 0
M  V30 2208 O 211.999 0.904299 3.4453 0
M  V30 2209 O 210.858 1.14289 5.34416 0
M  V30 2210 H 207.952 0.138025 0.815401 0
M  V30 2211 H 210.498 0.98834 1.37949 0
M  V30 2212 H 209.27 2.00067 3.36287 0
M  V30 2213 H 208.893 0.391728 3.95666 0
M  V30 2214 N 209.89 -1.43072 0.660911 0
M  V30 2215 C 211.13 -2.03596 0.181146 0
M  V30 2216 C 211.494 -1.51057 -1.18515 0
M  V30 2217 O 212.695 -2.03275 -1.75877 0
M  V30 2218 C 210.966 -3.56845 0.19911 0
M  V30 2219 S 212.525 -4.38289 -0.211684 0
M  V30 2220 H 209.343 -0.706954 0.0757479 0
M  V30 2221 H 211.945 -1.75027 0.870965 0
M  V30 2222 H 210.649 -3.92583 1.1961 0
M  V30 2223 H 210.18 -3.90067 -0.510996 0
M  V30 2224 H 212.195 -4.74583 -1.44863 0
M  V30 2225 N 211.368 -0.403325 -1.52352 0
M  V30 2226 C 212.615 0.174347 -2.01748 0
M  V30 2227 C 212.943 1.45636 -1.2892 0
M  V30 2228 O 212.198 1.9193 -0.382258 0
M  V30 2229 C 212.497 0.474665 -3.54234 0
M  V30 2230 C 212.163 -0.717458 -4.45155 0
M  V30 2231 C 210.825 -1.04447 -4.69728 0
M  V30 2232 C 213.177 -1.51432 -4.98716 0
M  V30 2233 C 210.505 -2.16963 -5.45109 0
M  V30 2234 C 212.857 -2.6302 -5.75329 0
M  V30 2235 C 211.521 -2.96213 -5.98175 0
M  V30 2236 H 210.791 0.0637981 -0.738248 0
M  V30 2237 H 213.438 -0.543553 -1.83624 0
M  V30 2238 H 211.743 1.27406 -3.70506 0
M  V30 2239 H 213.44 0.934496 -3.89959 0
M  V30 2240 H 210.03 -0.452596 -4.26204 0
M  V30 2241 H 214.214 -1.27491 -4.79645 0
M  V30 2242 H 209.47 -2.43034 -5.61021 0
M  V30 2243 H 213.644 -3.25158 -6.15829 0
M  V30 2244 H 211.271 -3.83516 -6.56368 0
M  V30 2245 N 212.846 1.57033 -0.133567 0
M  V30 2246 C 214.095 1.94861 0.520768 0
M  V30 2247 C 214.408 1.02012 1.66892 0
M  V30 2248 O 215.614 1.29365 2.38699 0
M  V30 2249 C 214.07 3.46362 0.977809 0
M  V30 2250 C 213.678 4.47773 -0.142674 0
M  V30 2251 C 215.422 3.93083 1.60269 0
M  V30 2252 C 213.329 5.90468 0.331883 0
M  V30 2253 H 212.259 0.727453 0.198315 0
M  V30 2254 H 214.91 1.82227 -0.215759 0
M  V30 2255 H 213.292 3.54282 1.7692 0
M  V30 2256 H 214.466 4.51536 -0.919317 0
M  V30 2257 H 212.781 4.10891 -0.675124 0
M  V30 2258 H 215.378 4.97121 1.96914 0
M  V30 2259 H 215.721 3.33876 2.48662 0
M  V30 2260 H 216.254 3.88025 0.876453 0
M  V30 2261 H 212.993 6.53463 -0.516341 0
M  V30 2262 H 212.513 5.90094 1.07469 0
M  V30 2263 H 214.192 6.42179 0.788332 0
M  V30 2264 N 214.325 -0.140222 1.56975 0
M  V30 2265 C 215.736 -0.699596 1.73097 0
M  V30 2266 C 216.087 -1.8134 0.749022 0
M  V30 2267 O 215.212 -2.16241 -0.0828503 0
M  V30 2268 C 215.807 -1.27582 3.1386 0
M  V30 2269 C 214.366 -1.78169 3.31561 0
M  V30 2270 C 213.513 -0.672855 2.69013 0
M  V30 2271 H 216.464 0.0855115 1.58469 0
M  V30 2272 H 216.485 -2.14561 3.14235 0
M  V30 2273 H 215.997 -0.464955 3.85305 0
M  V30 2274 H 214.098 -2.61801 2.65124 0
M  V30 2275 H 214.211 -1.90574 4.39566 0
M  V30 2276 H 212.575 -1.10118 2.29665 0
M  V30 2277 H 213.358 0.126679 3.43066 0
M  V30 2278 N 215.803 -1.52179 -0.40978 0
M  V30 2279 C 217.043 -1.67882 -1.16597 0
M  V30 2280 C 217.407 -0.399795 -1.87791 0
M  V30 2281 O 218.608 -0.43292 -2.65291 0
M  V30 2282 C 216.879 -2.86662 -2.13448 0
M  V30 2283 S 218.438 -3.22843 -2.97183 0
M  V30 2284 H 215.256 -0.59118 -0.395002 0
M  V30 2285 H 217.858 -1.9017 -0.453373 0
M  V30 2286 H 216.562 -3.77998 -1.59831 0
M  V30 2287 H 216.093 -2.66645 -2.89247 0
M  V30 2288 H 218.108 -2.71415 -4.15389 0
M  V30 2289 N 217.281 0.66697 -1.42791 0
M  V30 2290 C 218.509 1.45505 -1.47091 0
M  V30 2291 C 218.924 1.8861 -0.0845873 0
M  V30 2292 O 218.281 1.58632 0.90234 0
M  V30 2293 C 218.332 2.69906 -2.40485 0
M  V30 2294 O 218.053 2.28608 -3.73725 0
M  V30 2295 C 219.554 3.63396 -2.53886 0
M  V30 2296 H 216.774 0.447459 -0.500022 0
M  V30 2297 H 219.318 0.818866 -1.8739 0
M  V30 2298 H 217.473 3.29696 -2.03419 0
M  V30 2299 H 217.887 3.08997 -4.23817 0
M  V30 2300 H 219.361 4.47387 -3.2334 0
M  V30 2301 H 219.838 4.09824 -1.57927 0
M  V30 2302 H 220.444 3.09495 -2.91706 0
M  V30 2303 N 218.759 1.29093 0.90403 0
M  V30 2304 C 220.17 1.15186 1.46932 0
M  V30 2305 C 220.521 -0.254587 1.94541 0
M  V30 2306 O 219.646 -1.14972 1.83332 0
M  V30 2307 C 220.241 2.08492 2.67051 0
M  V30 2308 C 218.8 1.98621 3.19729 0
M  V30 2309 C 217.947 1.9967 1.92425 0
M  V30 2310 H 220.898 1.41641 0.715789 0
M  V30 2311 H 220.919 1.65461 3.42641 0
M  V30 2312 H 220.431 3.10847 2.3237 0
M  V30 2313 H 218.532 0.993389 3.59114 0
M  V30 2314 H 218.645 2.86068 3.8432 0
M  V30 2315 H 217.009 1.44208 2.09943 0
M  V30 2316 H 217.792 3.03721 1.60026 0
M  V30 2317 N 220.237 -1.11381 1.11499 0
M  V30 2318 C 221.184 -2.17439 0.773887 0
M  V30 2319 C 222.154 -1.64132 -0.254899 0
M  V30 2320 O 223.339 -1.90345 -0.13168 0
M  V30 2321 C 220.479 -3.44373 0.223917 0
M  V30 2322 C 219.592 -4.1168 1.30934 0
M  V30 2323 C 218.727 -5.263 0.71984 0
M  V30 2324 C 217.766 -5.85493 1.78507 0
M  V30 2325 N 216.903 -6.91507 1.21502 0
M  V30 2326 H 221.743 -2.45962 1.68246 0
M  V30 2327 H 219.28 -1.20744 0.840191 0
M  V30 2328 H 221.238 -4.17047 -0.112921 0
M  V30 2329 H 219.868 -3.16232 -0.647851 0
M  V30 2330 H 218.92 -3.37073 1.76312 0
M  V30 2331 H 220.232 -4.51729 2.11524 0
M  V30 2332 H 219.386 -6.05785 0.333094 0
M  V30 2333 H 218.125 -4.87559 -0.117377 0
M  V30 2334 H 217.13 -5.04686 2.18111 0
M  V30 2335 H 218.355 -6.26301 2.62533 0
M  V30 2336 H 216.301 -6.54783 0.399455 0
M  V30 2337 H 216.218 -7.30214 1.95763 0
M  V30 2338 H 217.486 -7.74795 0.855181 0
M  V30 2339 N 221.715 -0.905404 -1.28997 0
M  V30 2340 C 222.963 -0.533192 -1.9494 0
M  V30 2341 C 223.284 0.924618 -1.71685 0
M  V30 2342 O 222.554 1.65268 -1.05183 0
M  V30 2343 H 221.134 -0.194194 -0.721317 0
M  V30 2344 H 223.796 -1.15294 -1.57141 0
M  V30 2345 H 222.892 -0.72059 -3.03667 0
M  V30 2346 N 223.193 1.4272 -0.668489 0
M  V30 2347 C 224.433 2.03497 -0.19194 0
M  V30 2348 C 224.797 1.51684 1.17712 0
M  V30 2349 O 225.998 2.04205 1.74796 0
M  V30 2350 C 224.269 3.56734 -0.218032 0
M  V30 2351 S 225.828 4.38395 0.188438 0
M  V30 2352 H 222.646 0.706542 -0.0794959 0
M  V30 2353 H 225.248 1.74563 -0.880235 0
M  V30 2354 H 223.952 3.91943 -1.2169 0
M  V30 2355 H 223.483 3.90333 0.490303 0
M  V30 2356 H 225.498 4.75345 1.42345 0
M  V30 2357 N 224.671 0.411399 1.52136 0
M  V30 2358 C 225.601 -0.404015 2.29978 0
M  V30 2359 C 226.582 -1.04412 1.34284 0
M  V30 2360 O 227.767 -1.0527 1.63192 0
M  V30 2361 C 224.897 -1.5197 3.12286 0
M  V30 2362 C 223.851 -1.00448 4.16046 0
M  V30 2363 C 223.177 -2.21393 4.86712 0
M  V30 2364 C 224.477 -0.0569336 5.22269 0
M  V30 2365 H 226.171 0.245529 2.98392 0
M  V30 2366 H 223.717 0.119525 1.43503 0
M  V30 2367 H 225.67 -2.09715 3.6551 0
M  V30 2368 H 224.394 -2.19716 2.41646 0
M  V30 2369 H 223.053 -0.449421 3.63835 0
M  V30 2370 H 222.701 -2.87699 4.12599 0
M  V30 2371 H 222.401 -1.87571 5.56858 0
M  V30 2372 H 223.925 -2.7974 5.4275 0
M  V30 2373 H 225.339 -0.54325 5.7072 0
M  V30 2374 H 223.736 0.192594 5.99791 0
M  V30 2375 H 224.806 0.887663 4.76706 0
M  V30 2376 N 226.149 -1.5696 0.141893 0
M  V30 2377 C 227.059 -2.20066 -0.812905 0
M  V30 2378 C 228.075 -1.18344 -1.27557 0
M  V30 2379 O 229.251 -1.50902 -1.33381 0
M  V30 2380 C 226.316 -2.80583 -2.03652 0
M  V30 2381 C 225.377 -3.97414 -1.62359 0
M  V30 2382 C 224.61 -4.55036 -2.78887 0
M  V30 2383 O 224.833 -4.11538 -3.94959 0
M  V30 2384 O 223.767 -5.45376 -2.54653 0
M  V30 2385 H 227.593 -3.02157 -0.305746 0
M  V30 2386 H 225.178 -1.49159 -0.0848799 0
M  V30 2387 H 227.06 -3.19067 -2.75272 0
M  V30 2388 H 225.735 -2.01508 -2.5333 0
M  V30 2389 H 224.642 -3.63656 -0.877775 0
M  V30 2390 H 225.975 -4.77994 -1.17401 0
M  V30 2391 N 227.627 0.131896 -1.57047 0
M  V30 2392 C 228.557 1.16384 -2.02428 0
M  V30 2393 C 229.538 1.43936 -0.90644 0
M  V30 2394 O 230.723 1.54599 -1.17528 0
M  V30 2395 C 227.853 2.49328 -2.4177 0
M  V30 2396 C 226.807 2.36266 -3.56879 0
M  V30 2397 C 226.133 3.74057 -3.8208 0
M  V30 2398 C 227.433 1.834 -4.89042 0
M  V30 2399 H 229.127 0.786433 -2.88887 0
M  V30 2400 H 226.673 0.376855 -1.38981 0
M  V30 2401 H 228.626 3.21759 -2.7212 0
M  V30 2402 H 227.35 2.88934 -1.52266 0
M  V30 2403 H 226.009 1.66286 -3.26718 0
M  V30 2404 H 225.657 4.11125 -2.89803 0
M  V30 2405 H 225.357 3.66174 -4.59554 0
M  V30 2406 H 226.881 4.48012 -4.1487 0
M  V30 2407 H 228.295 2.45636 -5.18011 0
M  V30 2408 H 226.692 1.8637 -5.70426 0
M  V30 2409 H 227.762 0.790662 -4.7841 0
M  V30 2410 N 229.106 1.52395 0.401703 0
M  V30 2411 C 230.355 1.66044 1.14509 0
M  V30 2412 C 230.668 0.400216 1.91462 0
M  V30 2413 O 231.874 0.416632 2.68284 0
M  V30 2414 C 230.33 2.93388 2.0845 0
M  V30 2415 C 229.938 4.26545 1.36978 0
M  V30 2416 C 231.682 3.16402 2.83001 0
M  V30 2417 C 229.589 5.45007 2.29611 0
M  V30 2418 H 228.519 0.618562 0.431158 0
M  V30 2419 H 231.17 1.78886 0.40892 0
M  V30 2420 H 229.552 2.74263 2.8565 0
M  V30 2421 H 230.726 4.56179 0.650916 0
M  V30 2422 H 229.041 4.09692 0.74438 0
M  V30 2423 H 231.638 4.02085 3.52465 0
M  V30 2424 H 231.981 2.30943 3.46368 0
M  V30 2425 H 232.514 3.36034 2.12898 0
M  V30 2426 H 229.253 6.32835 1.70879 0
M  V30 2427 H 228.773 5.19702 2.9945 0
M  V30 2428 H 230.452 5.7838 2.89974 0
M  V30 2429 N 230.584 -0.659388 1.43143 0
M  V30 2430 C 231.531 -1.77249 1.47822 0
M  V30 2431 C 232.501 -1.62818 0.328558 0
M  V30 2432 O 233.686 -1.83151 0.534838 0
M  V30 2433 C 230.826 -3.15371 1.40126 0
M  V30 2434 C 229.939 -3.4098 2.65249 0
M  V30 2435 C 229.074 -4.68915 2.49584 0
M  V30 2436 C 228.113 -4.87608 3.70006 0
M  V30 2437 N 227.25 -6.06796 3.53189 0
M  V30 2438 H 232.09 -1.72584 2.42938 0
M  V30 2439 H 229.627 -0.842297 1.20598 0
M  V30 2440 H 231.585 -3.9521 1.33659 0
M  V30 2441 H 230.215 -3.19121 0.485964 0
M  V30 2442 H 229.267 -2.55282 2.8202 0
M  V30 2443 H 230.579 -3.50681 3.54717 0
M  V30 2444 H 229.733 -5.56871 2.4079 0
M  V30 2445 H 228.472 -4.61524 1.5763 0
M  V30 2446 H 227.477 -3.9809 3.79215 0
M  V30 2447 H 228.702 -4.96834 4.62961 0
M  V30 2448 H 226.648 -6.00549 2.63965 0
M  V30 2449 H 226.565 -6.17428 4.36255 0
M  V30 2450 H 227.833 -6.9739 3.48236 0
M  V30 2451 N 232.062 -1.29571 -0.897171 0
M  V30 2452 C 232.972 -1.16808 -2.03453 0
M  V30 2453 C 233.988 -0.0907471 -1.73763 0
M  V30 2454 O 235.164 -0.303312 -1.99103 0
M  V30 2455 C 232.229 -0.848264 -3.36163 0
M  V30 2456 C 231.29 -2.0097 -3.79354 0
M  V30 2457 C 230.523 -1.70505 -5.05731 0
M  V30 2458 O 230.746 -0.62718 -5.66941 0
M  V30 2459 O 229.68 -2.5538 -5.45036 0
M  V30 2460 H 233.506 -2.12325 -2.17144 0
M  V30 2461 H 231.091 -1.09047 -1.02123 0
M  V30 2462 H 232.973 -0.684581 -4.15802 0
M  V30 2463 H 231.648 0.0771071 -3.23608 0
M  V30 2464 H 230.555 -2.22863 -3.00471 0
M  V30 2465 H 231.888 -2.91636 -3.96496 0
M  V30 2466 N 233.54 1.10788 -1.12088 0
M  V30 2467 C 234.768 1.86461 -0.896651 0
M  V30 2468 C 235.183 1.80492 0.553912 0
M  V30 2469 O 234.54 1.19102 1.38278 0
M  V30 2470 C 234.591 3.35006 -1.35843 0
M  V30 2471 O 234.312 3.40866 -2.75213 0
M  V30 2472 C 235.813 4.27565 -1.1706 0
M  V30 2473 H 233.033 0.589425 -0.320654 0
M  V30 2474 H 235.577 1.40076 -1.48993 0
M  V30 2475 H 233.732 3.7887 -0.808458 0
M  V30 2476 H 234.146 4.33411 -2.9539 0
M  V30 2477 H 235.62 5.30007 -1.54263 0
M  V30 2478 H 236.097 4.3906 -0.110814 0
M  V30 2479 H 236.703 3.89501 -1.70789 0
M  V30 2480 N 235.018 0.912232 1.28515 0
M  V30 2481 C 236.266 0.543523 1.94654 0
M  V30 2482 C 236.587 -0.9155 1.72173 0
M  V30 2483 O 235.857 -1.64708 1.06058 0
M  V30 2484 H 234.437 0.198017 0.720277 0
M  V30 2485 H 237.099 1.16126 1.56527 0
M  V30 2486 H 236.195 0.736684 3.03281 0
M  V30 2487 N 236.496 -1.42363 0.676048 0
M  V30 2488 C 237.742 -2.0182 0.199125 0
M  V30 2489 C 238.075 -1.53339 -1.19168 0
M  V30 2490 O 237.35 -0.736124 -1.80032 0
M  V30 2491 C 237.633 -3.59331 0.235144 0
M  V30 2492 C 237.486 -4.17989 1.66149 0
M  V30 2493 C 238.805 -4.3813 -0.41595 0
M  V30 2494 H 235.924 -0.733293 0.0738311 0
M  V30 2495 H 238.566 -1.69368 0.86107 0
M  V30 2496 H 236.716 -3.87109 -0.328487 0
M  V30 2497 H 238.388 -4.0116 2.27747 0
M  V30 2498 H 236.631 -3.7377 2.20178 0
M  V30 2499 H 237.302 -5.27126 1.63837 0
M  V30 2500 H 239.778 -4.16051 0.0638529 0
M  V30 2501 H 238.654 -5.47717 -0.360115 0
M  V30 2502 H 238.915 -4.16101 -1.49373 0
M  V30 2503 N 237.974 -0.419461 -1.51915 0
M  V30 2504 C 239.385 0.0477853 -1.86639 0
M  V30 2505 C 239.736 1.43531 -1.33766 0
M  V30 2506 O 238.861 2.05401 -0.68113 0
M  V30 2507 C 239.456 0.0934885 -3.38671 0
M  V30 2508 C 238.015 0.505097 -3.72996 0
M  V30 2509 C 237.162 -0.313792 -2.75519 0
M  V30 2510 H 240.113 -0.636088 -1.45395 0
M  V30 2511 H 240.134 0.906667 -3.6954 0
M  V30 2512 H 239.646 -0.916501 -3.77123 0
M  V30 2513 H 237.747 1.52135 -3.40126 0
M  V30 2514 H 237.86 0.242309 -4.78487 0
M  V30 2515 H 236.224 0.225363 -2.53701 0
M  V30 2516 H 237.007 -1.32232 -3.16812 0
M  V30 2517 N 239.452 1.56882 -0.150215 0
M  V30 2518 C 240.701 1.95403 0.500071 0
M  V30 2519 C 241.014 1.03777 1.658 0
M  V30 2520 O 242.22 1.31889 2.37313 0
M  V30 2521 C 240.676 3.4738 0.941018 0
M  V30 2522 C 240.284 4.47596 -0.190158 0
M  V30 2523 C 242.028 3.9476 1.56091 0
M  V30 2524 C 239.935 5.90787 0.269237 0
M  V30 2525 H 238.865 0.729515 0.190588 0
M  V30 2526 H 241.516 1.81988 -0.235074 0
M  V30 2527 H 239.898 3.56138 1.73152 0
M  V30 2528 H 241.072 4.50536 -0.967157 0
M  V30 2529 H 239.387 4.10151 -0.718666 0
M  V30 2530 H 241.984 4.99181 1.9163 0
M  V30 2531 H 242.327 3.36494 2.45107 0
M  V30 2532 H 242.86 3.88932 0.835249 0
M  V30 2533 H 239.599 6.52879 -0.585621 0
M  V30 2534 H 239.119 5.912 1.01204 0
M  V30 2535 H 240.798 6.42979 0.720176 0
M  V30 2536 N 240.93 -0.123565 1.57115 0
M  V30 2537 C 241.893 -1.13583 1.99076 0
M  V30 2538 C 242.893 -1.34564 0.880296 0
M  V30 2539 O 244.083 -1.31158 1.14644 0
M  V30 2540 C 241.215 -2.49128 2.32698 0
M  V30 2541 H 242.408 -0.775287 2.89706 0
M  V30 2542 H 239.961 -0.36771 1.51913 0
M  V30 2543 H 240.696 -2.90111 1.44934 0
M  V30 2544 H 240.481 -2.35255 3.13684 0
M  V30 2545 H 241.971 -3.2199 2.65918 0
M  V30 2546 N 242.408 -1.52605 -0.393616 0
M  V30 2547 C 243.656 -1.67093 -1.13685 0
M  V30 2548 C 243.977 -0.411011 -1.90619 0
M  V30 2549 O 243.247 0.574491 -1.87287 0
M  V30 2550 H 241.827 -0.615923 -0.422668 0
M  V30 2551 H 244.489 -1.89704 -0.447039 0
M  V30 2552 H 243.585 -2.51922 -1.84232 0
M  V30 2553 N 243.887 0.651787 -1.4349 0
M  V30 2554 C 245.303 0.96762 -1.26922 0
M  V30 2555 C 245.503 2.00602 -0.189982 0
M  V30 2556 O 244.559 2.48793 0.431107 0
M  V30 2557 C 245.872 1.45052 -2.63401 0
M  V30 2558 C 247.42 1.5671 -2.70945 0
M  V30 2559 C 247.895 2.0839 -4.07845 0
M  V30 2560 N 249.386 2.1569 -4.09917 0
M  V30 2561 C 250.121 2.56804 -5.12679 0
M  V30 2562 N 249.617 2.97203 -6.25813 0
M  V30 2563 N 251.41 2.56756 -5.00033 0
M  V30 2564 H 243.561 -0.0353158 -2.12371 0
M  V30 2565 H 245.824 0.0467858 -0.946845 0
M  V30 2566 H 245.53 0.761926 -3.43348 0
M  V30 2567 H 245.404 2.42529 -2.88894 0
M  V30 2568 H 247.791 2.2467 -1.9133 0
M  V30 2569 H 247.872 0.57662 -2.49216 0
M  V30 2570 H 247.516 1.41031 -4.87927 0
M  V30 2571 H 247.446 3.08271 -4.26938 0
M  V30 2572 H 249.937 1.87237 -3.28254 0
M  V30 2573 H 250.25 3.27328 -7.00055 0
M  V30 2574 H 248.595 2.95004 -6.29283 0
M  V30 2575 H 251.786 2.24572 -4.10713 0
M  V30 2576 H 251.959 2.88475 -5.80247 0
M  V30 2577 N 245.365 1.30045 0.890287 0
M  V30 2578 C 246.315 1.12592 1.9826 0
M  V30 2579 C 247.299 0.0426021 1.60844 0
M  V30 2580 O 248.491 0.265346 1.75 0
M  V30 2581 C 245.62 0.814301 3.33503 0
M  V30 2582 C 244.706 1.93761 3.7725 0
M  V30 2583 N 245.097 3.18232 3.93143 0
M  V30 2584 C 243.395 1.83277 4.06602 0
M  V30 2585 C 244.096 3.9158 4.30163 0
M  V30 2586 N 243.072 3.19591 4.3973 0
M  V30 2587 H 246.874 2.07003 2.08631 0
M  V30 2588 H 244.388 1.21307 1.07974 0
M  V30 2589 H 246.385 0.67029 4.11476 0
M  V30 2590 H 245.045 -0.121797 3.24471 0
M  V30 2591 H 246.056 3.53581 3.78419 0
M  V30 2592 H 242.733 0.97001 4.06075 0
M  V30 2593 H 244.123 4.98744 4.50226 0
M  V30 2594 N 246.843 -1.10192 1.12674 0
M  V30 2595 C 247.806 -2.14786 0.799979 0
M  V30 2596 C 248.806 -1.59711 -0.18685 0
M  V30 2597 O 249.996 -1.74156 0.0392558 0
M  V30 2598 C 247.128 -3.40374 0.189228 0
M  V30 2599 H 248.321 -2.45203 1.72671 0
M  V30 2600 H 245.874 -1.25597 0.930326 0
M  V30 2601 H 246.609 -3.15577 -0.747107 0
M  V30 2602 H 246.394 -3.81637 0.899766 0
M  V30 2603 H 247.884 -4.17594 -0.0228143 0
M  V30 2604 N 248.321 -0.919034 -1.28029 0
M  V30 2605 C 249.567 -0.555757 -1.95036 0
M  V30 2606 C 249.9 0.899198 -1.72128 0
M  V30 2607 O 249.175 1.64023 -1.04531 0
M  V30 2608 C 249.458 -0.872024 -3.49382 0
M  V30 2609 C 249.311 -2.3801 -3.81669 0
M  V30 2610 C 250.63 -0.37185 -4.38526 0
M  V30 2611 H 247.749 -0.203386 -0.708381 0
M  V30 2612 H 250.391 -1.14924 -1.51303 0
M  V30 2613 H 248.541 -0.366946 -3.86763 0
M  V30 2614 H 250.213 -2.9562 -3.54128 0
M  V30 2615 H 248.456 -2.83289 -3.28526 0
M  V30 2616 H 249.127 -2.55192 -4.8947 0
M  V30 2617 H 251.603 -0.804602 -4.08247 0
M  V30 2618 H 250.479 -0.622173 -5.45362 0
M  V30 2619 H 250.74 0.727934 -4.36066 0
M  V30 2620 N 249.799 1.42003 -0.683588 0
M  V30 2621 C 251.045 2.01712 -0.209825 0
M  V30 2622 C 251.378 1.53968 1.18353 0
M  V30 2623 O 250.653 0.745661 1.79639 0
M  V30 2624 C 250.936 3.59202 -0.254197 0
M  V30 2625 C 250.789 4.17102 -1.68363 0
M  V30 2626 C 252.108 4.38344 0.392709 0
M  V30 2627 H 249.227 0.732891 -0.0777189 0
M  V30 2628 H 251.869 1.68909 -0.87004 0
M  V30 2629 H 250.019 3.87278 0.307954 0
M  V30 2630 H 251.691 3.99946 -2.29871 0
M  V30 2631 H 249.934 3.72597 -2.22157 0
M  V30 2632 H 250.605 5.26249 -1.6663 0
M  V30 2633 H 253.081 4.16011 -0.0859162 0
M  V30 2634 H 251.957 5.47901 0.331063 0
M  V30 2635 H 252.218 4.16887 1.47164 0
M  V30 2636 N 251.277 0.427512 1.51691 0
M  V30 2637 C 252.523 -0.142439 2.02299 0
M  V30 2638 C 252.856 -1.43214 1.31162 0
M  V30 2639 O 252.131 -1.89833 0.423511 0
M  V30 2640 C 252.414 -0.371301 3.58181 0
M  V30 2641 C 252.267 0.936358 4.39946 0
M  V30 2642 C 253.586 -1.14542 4.24933 0
M  V30 2643 H 250.705 -0.0502937 0.735282 0
M  V30 2644 H 253.347 0.564584 1.81418 0
M  V30 2645 H 251.497 -0.973559 3.76104 0
M  V30 2646 H 253.169 1.57184 4.33694 0
M  V30 2647 H 251.412 1.5432 4.05423 0
M  V30 2648 H 252.083 0.730388 5.47147 0
M  V30 2649 H 254.559 -0.635362 4.11221 0
M  V30 2650 H 253.435 -1.27431 5.33903 0
M  V30 2651 H 253.696 -2.17093 3.85127 0
M  V30 2652 N 252.755 -1.56801 0.158532 0
M  V30 2653 C 254.003 -1.96102 -0.488712 0
M  V30 2654 C 254.324 -1.04498 -1.64636 0
M  V30 2655 O 253.594 -0.108783 -1.95598 0
M  V30 2656 H 252.174 -0.724102 -0.183535 0
M  V30 2657 H 254.836 -1.93457 0.236728 0
M  V30 2658 H 253.932 -3.00097 -0.857219 0
M  V30 2659 N 254.233 0.115231 -1.57178 0
M  V30 2660 C 255.649 0.468877 -1.52557 0
M  V30 2661 C 255.849 1.81649 -0.872125 0
M  V30 2662 O 254.905 2.48347 -0.45606 0
M  V30 2663 C 256.218 0.4499 -2.97315 0
M  V30 2664 C 257.766 0.533185 -3.08425 0
M  V30 2665 C 258.241 0.54456 -4.54751 0
M  V30 2666 N 259.732 0.605892 -4.5922 0
M  V30 2667 C 260.467 0.636203 -5.6986 0
M  V30 2668 N 259.963 0.623931 -6.89985 0
M  V30 2669 N 261.756 0.679496 -5.57978 0
M  V30 2670 H 253.907 -0.767712 -1.9804 0
M  V30 2671 H 256.17 -0.283609 -0.904583 0
M  V30 2672 H 255.876 -0.472721 -3.48509 0
M  V30 2673 H 255.75 1.27632 -3.5495 0
M  V30 2674 H 258.137 1.44623 -2.57232 0
M  V30 2675 H 258.218 -0.320995 -2.53778 0
M  V30 2676 H 257.862 -0.364452 -5.06591 0
M  V30 2677 H 257.792 1.41568 -5.07214 0
M  V30 2678 H 260.283 0.621386 -3.72756 0
M  V30 2679 H 260.596 0.649787 -7.70063 0
M  V30 2680 H 258.941 0.591296 -6.9248 0
M  V30 2681 H 262.132 0.686472 -4.63039 0
M  V30 2682 H 262.305 0.69965 -6.44212 0
M  V30 2683 N 255.711 1.52812 0.385517 0
M  V30 2684 C 256.936 1.72207 1.15583 0
M  V30 2685 C 257.361 0.441034 1.82857 0
M  V30 2686 O 256.719 -0.603465 1.70962 0
M  V30 2687 C 256.767 2.87476 2.17692 0
M  V30 2688 O 255.871 2.54693 3.24354 0
M  V30 2689 H 255.212 0.572526 0.336319 0
M  V30 2690 H 257.742 1.99618 0.448744 0
M  V30 2691 H 257.752 3.13072 2.6163 0
M  V30 2692 H 256.427 3.80408 1.68115 0
M  V30 2693 H 255.004 2.3985 2.85529 0
M  V30 2694 N 257.189 -0.644168 1.43834 0
M  V30 2695 C 258.136 -1.75671 1.49694 0
M  V30 2696 C 259.106 -1.6246 0.345809 0
M  V30 2697 O 260.291 -1.82573 0.554234 0
M  V30 2698 C 257.431 -3.13867 1.43463 0
M  V30 2699 C 256.544 -3.38147 2.6885 0
M  V30 2700 C 255.679 -4.66241 2.54544 0
M  V30 2701 C 254.718 -4.83657 3.75157 0
M  V30 2702 N 253.855 -6.03016 3.59605 0
M  V30 2703 H 258.695 -1.69998 2.44754 0
M  V30 2704 H 256.232 -0.829458 1.21484 0
M  V30 2705 H 258.19 -3.9377 1.37843 0
M  V30 2706 H 256.82 -3.18588 0.519783 0
M  V30 2707 H 255.872 -2.52276 2.84712 0
M  V30 2708 H 257.184 -3.46899 3.58417 0
M  V30 2709 H 256.338 -5.54285 2.46683 0
M  V30 2710 H 255.077 -4.59826 1.62516 0
M  V30 2711 H 254.082 -3.94046 3.83416 0
M  V30 2712 H 255.307 -4.91896 4.68204 0
M  V30 2713 H 253.253 -5.97715 2.7032 0
M  V30 2714 H 253.17 -6.12766 4.42779 0
M  V30 2715 H 254.438 -6.93657 3.55613 0
M  V30 2716 N 258.668 -1.30515 -0.883378 0
M  V30 2717 C 259.917 -1.18795 -1.63005 0
M  V30 2718 C 260.23 0.255923 -1.93919 0
M  V30 2719 O 261.436 0.494654 -2.66956 0
M  V30 2720 C 259.892 -2.07878 -2.93794 0
M  V30 2721 C 259.5 -3.57184 -2.70414 0
M  V30 2722 C 261.244 -2.04924 -3.71761 0
M  V30 2723 C 259.151 -4.38317 -3.97029 0
M  V30 2724 H 258.081 -0.441031 -0.611562 0
M  V30 2725 H 260.732 -1.55275 -0.977854 0
M  V30 2726 H 259.114 -1.64283 -3.60315 0
M  V30 2727 H 260.288 -4.08937 -2.12384 0
M  V30 2728 H 258.603 -3.61976 -2.0582 0
M  V30 2729 H 261.2 -2.62792 -4.65665 0
M  V30 2730 H 261.543 -1.0331 -4.03277 0
M  V30 2731 H 262.076 -2.46649 -3.12104 0
M  V30 2732 H 258.815 -5.40632 -3.70671 0
M  V30 2733 H 258.335 -3.91326 -4.54559 0
M  V30 2734 H 260.014 -4.49834 -4.65036 0
M  V30 2735 N 260.146 1.09593 -1.13257 0
M  V30 2736 C 261.392 1.82003 -0.89458 0
M  V30 2737 C 261.725 1.85402 0.577906 0
M  V30 2738 O 261 1.32099 1.42759 0
M  V30 2739 C 261.283 3.28237 -1.48096 0
M  V30 2740 C 261.136 3.3312 -3.02244 0
M  V30 2741 C 262.455 4.24871 -1.14774 0
M  V30 2742 H 259.574 0.66077 -0.326424 0
M  V30 2743 H 262.216 1.28389 -1.40058 0
M  V30 2744 H 260.366 3.74024 -1.05062 0
M  V30 2745 H 262.038 2.95748 -3.54021 0
M  V30 2746 H 260.281 2.72756 -3.37323 0
M  V30 2747 H 260.952 4.3613 -3.38371 0
M  V30 2748 H 263.428 3.87361 -1.51957 0
M  V30 2749 H 262.304 5.25532 -1.58452 0
M  V30 2750 H 262.565 4.42058 -0.0611849 0
M  V30 2751 N 261.624 0.925811 1.2754 0
M  V30 2752 C 262.872 0.564138 1.94067 0
M  V30 2753 C 263.193 -0.897188 1.73134 0
M  V30 2754 O 262.463 -1.63573 1.07799 0
M  V30 2755 H 261.043 0.205645 0.718136 0
M  V30 2756 H 263.705 1.1778 1.55287 0
M  V30 2757 H 262.801 0.76881 3.02483 0
M  V30 2758 N 263.102 -1.41638 0.69111 0
M  V30 2759 C 264.065 -2.29178 0.0319786 0
M  V30 2760 C 265.065 -1.44153 -0.712496 0
M  V30 2761 O 266.255 -1.65354 -0.548053 0
M  V30 2762 C 263.387 -3.26952 -0.965161 0
M  V30 2763 H 264.58 -2.88959 0.802681 0
M  V30 2764 H 262.133 -1.4955 0.454356 0
M  V30 2765 H 262.868 -2.72142 -1.76378 0
M  V30 2766 H 262.653 -3.89685 -0.434522 0
M  V30 2767 H 264.143 -3.92561 -1.42428 0
M  V30 2768 N 264.58 -0.43555 -1.51462 0
M  V30 2769 C 265.991 0.0279871 -1.86679 0
M  V30 2770 C 266.342 1.42104 -1.35281 0
M  V30 2771 O 265.467 2.04667 -0.702878 0
M  V30 2772 C 266.062 0.0575626 -3.38751 0
M  V30 2773 C 264.621 0.465507 -3.7351 0
M  V30 2774 C 263.768 -0.342996 -2.75171 0
M  V30 2775 H 266.719 -0.651473 -1.44712 0
M  V30 2776 H 266.74 0.867421 -3.70481 0
M  V30 2777 H 266.252 -0.956448 -3.7613 0
M  V30 2778 H 264.353 1.48519 -3.41721 0
M  V30 2779 H 264.466 0.191546 -4.78717 0
M  V30 2780 H 262.83 0.198442 -2.53926 0
M  V30 2781 H 263.613 -1.35585 -3.15391 0
M  V30 2782 N 266.058 1.56714 -0.166846 0
M  V30 2783 C 266.991 2.13577 0.80375 0
M  V30 2784 C 267.969 1.06464 1.22899 0
M  V30 2785 O 269.153 1.34413 1.32157 0
M  V30 2786 C 266.28 2.67168 2.0818 0
M  V30 2787 C 265.326 3.86612 1.80093 0
M  V30 2788 S 266.159 5.26565 0.97416 0
M  V30 2789 C 267.315 5.83558 2.26297 0
M  V30 2790 H 267.548 2.9557 0.320267 0
M  V30 2791 H 265.081 1.54326 0.0477555 0
M  V30 2792 H 267.039 2.98692 2.8159 0
M  V30 2793 H 265.7 1.85269 2.53642 0
M  V30 2794 H 264.893 4.22422 2.7491 0
M  V30 2795 H 264.495 3.55951 1.14781 0
M  V30 2796 H 266.787 5.962 3.21795 0
M  V30 2797 H 267.73 6.80731 1.94962 0
M  V30 2798 H 268.138 5.11944 2.37853 0
M  V30 2799 N 267.536 -0.106894 1.57237 0
M  V30 2800 C 268.486 -1.1366 1.9765 0
M  V30 2801 C 269.47 -1.36416 0.853203 0
M  V30 2802 O 270.662 -1.37305 1.11697 0
M  V30 2803 C 267.791 -2.46 2.39455 0
M  V30 2804 C 266.877 -2.26668 3.58445 0
M  V30 2805 N 267.268 -1.77176 4.73754 0
M  V30 2806 C 265.566 -2.57279 3.64312 0
M  V30 2807 C 266.267 -1.71836 5.5574 0
M  V30 2808 N 265.243 -2.16623 4.98573 0
M  V30 2809 H 269.045 -0.74669 2.84256 0
M  V30 2810 H 266.559 -0.314483 1.59326 0
M  V30 2811 H 268.556 -3.2049 2.6663 0
M  V30 2812 H 267.216 -2.85738 1.54219 0
M  V30 2813 H 268.227 -1.46545 4.96734 0
M  V30 2814 H 264.904 -3.00622 2.89711 0
M  V30 2815 H 266.294 -1.34723 6.58255 0
M  V30 2816 N 269.014 -1.53014 -0.377408 0
M  V30 2817 C 270.291 -1.59215 -1.13622 0
M  V30 2818 C 270.671 -0.392407 -2.07421 0
M  V30 2819 O 270.019 0.618342 -2.19975 0
M  V30 2820 C 270.229 -2.93669 -1.88573 0
M  V30 2821 C 271.577 -3.47822 -2.43526 0
M  V30 2822 O 272.601 -2.9562 -1.98715 0
M  V30 2823 O 271.46 -4.39055 -3.25412 0
M  V30 2824 H 268.554 -0.642625 -0.52054 0
M  V30 2825 H 271.1 -1.65353 -0.381625 0
M  V30 2826 H 269.872 -3.7243 -1.20048 0
M  V30 2827 H 269.495 -2.90968 -2.70968 0
M  V30 2828 N 270.492 0.636531 -1.44174 0
M  V30 2829 C 271.422 1.76003 -1.53444 0
M  V30 2830 C 272.403 1.65619 -0.387841 0
M  V30 2831 O 273.588 1.84461 -0.607257 0
M  V30 2832 C 270.718 3.14511 -1.4731 0
M  V30 2833 C 269.672 3.39677 -2.60391 0
M  V30 2834 C 268.998 4.78159 -2.39308 0
M  V30 2835 C 270.298 3.32772 -4.02567 0
M  V30 2836 H 271.992 1.68501 -2.47483 0
M  V30 2837 H 269.538 0.809237 -1.19111 0
M  V30 2838 H 271.491 3.92878 -1.52397 0
M  V30 2839 H 270.215 3.22783 -0.49785 0
M  V30 2840 H 268.874 2.63688 -2.54684 0
M  V30 2841 H 268.522 4.83128 -1.39988 0
M  V30 2842 H 268.222 4.95956 -3.15122 0
M  V30 2843 H 269.746 5.58762 -2.46205 0
M  V30 2844 H 271.16 4.01051 -4.09672 0
M  V30 2845 H 269.557 3.62104 -4.7854 0
M  V30 2846 H 270.627 2.30669 -4.2652 0
M  V30 2847 N 271.97 1.30982 0.876444 0
M  V30 2848 C 272.9 1.20668 1.99903 0
M  V30 2849 C 273.881 0.095354 1.69833 0
M  V30 2850 O 275.066 0.27885 1.92188 0
M  V30 2851 C 272.196 0.90655 3.3526 0
M  V30 2852 C 271.15 1.97675 3.79617 0
M  V30 2853 C 270.476 1.52943 5.1236 0
M  V30 2854 C 271.776 3.389 3.97422 0
M  V30 2855 H 273.47 2.14586 2.0879 0
M  V30 2856 H 271.016 1.03308 1.00317 0
M  V30 2857 H 272.969 0.821025 4.13324 0
M  V30 2858 H 271.693 -0.0682969 3.26529 0
M  V30 2859 H 270.352 2.05205 3.03787 0
M  V30 2860 H 270 0.54262 5.00065 0
M  V30 2861 H 269.7 2.24532 5.43009 0
M  V30 2862 H 271.224 1.45786 5.92941 0
M  V30 2863 H 272.638 3.34081 4.659 0
M  V30 2864 H 271.035 4.0865 4.3946 0
M  V30 2865 H 272.105 3.80163 3.01006 0
M  V30 2866 N 273.449 -1.08991 1.13837 0
M  V30 2867 C 274.379 -2.17771 0.842507 0
M  V30 2868 C 275.36 -1.6892 -0.20001 0
M  V30 2869 O 276.545 -1.94113 -0.0579731 0
M  V30 2870 C 273.675 -3.4589 0.312644 0
M  V30 2871 C 272.629 -4.08099 1.28992 0
M  V30 2872 C 271.955 -5.31098 0.619623 0
M  V30 2873 C 273.255 -4.50077 2.65005 0
M  V30 2874 H 274.949 -2.42777 1.75213 0
M  V30 2875 H 272.495 -1.16682 0.843875 0
M  V30 2876 H 274.448 -4.21297 0.0933043 0
M  V30 2877 H 273.172 -3.20419 -0.632382 0
M  V30 2878 H 271.831 -3.34717 1.49533 0
M  V30 2879 H 271.479 -5.0191 -0.33102 0
M  V30 2880 H 271.179 -5.73674 1.27167 0
M  V30 2881 H 272.703 -6.09224 0.409669 0
M  V30 2882 H 274.117 -5.16688 2.48407 0
M  V30 2883 H 272.514 -5.03553 3.26427 0
M  V30 2884 H 273.584 -3.62257 3.22332 0
M  V30 2885 N 274.927 -0.932562 -1.27047 0
M  V30 2886 C 276.173 -0.585913 -1.94778 0
M  V30 2887 C 276.528 0.864142 -1.71902 0
M  V30 2888 O 275.821 1.60894 -1.04037 0
M  V30 2889 C 276.015 -0.853713 -3.47054 0
M  V30 2890 C 275.844 -2.32825 -3.84737 0
M  V30 2891 C 274.614 -2.98184 -4.07939 0
M  V30 2892 C 276.812 -3.30612 -3.93954 0
M  V30 2893 N 274.794 -4.3574 -4.3244 0
M  V30 2894 C 276.165 -4.53395 -4.22887 0
M  V30 2895 C 278.22 -3.25755 -3.76548 0
M  V30 2896 C 276.923 -5.71927 -4.36224 0
M  V30 2897 C 278.949 -4.43604 -3.91113 0
M  V30 2898 C 278.311 -5.65166 -4.20437 0
M  V30 2899 H 274.41 -0.264617 -0.735868 0
M  V30 2900 H 276.994 -1.20019 -1.53309 0
M  V30 2901 H 275.165 -0.268557 -3.8747 0
M  V30 2902 H 276.897 -0.469202 -4.01971 0
M  V30 2903 H 273.652 -2.48835 -4.02961 0
M  V30 2904 H 274.076 -5.06915 -4.48738 0
M  V30 2905 H 278.718 -2.32835 -3.52913 0
M  V30 2906 H 276.436 -6.65308 -4.58683 0
M  V30 2907 H 280.022 -4.41368 -3.79059 0
M  V30 2908 H 278.902 -6.54836 -4.31462 0
M  V30 2909 N 276.405 1.4127 -0.698611 0
M  V30 2910 C 277.353 2.32588 -0.023855 0
M  V30 2911 C 278.347 1.51128 0.765292 0
M  V30 2912 O 279.553 1.67043 0.670571 0
M  V30 2913 H 275.928 0.751918 0.0110871 0
M  V30 2914 H 277.899 2.87167 -0.811031 0
M  V30 2915 C 276.648 3.35947 0.896369 0
M  V30 2916 H 275.971 3.98684 0.298548 0
M  V30 2917 H 277.411 4.02376 1.33676 0
M  V30 2918 C 275.87 2.70076 2.01396 0
M  V30 2919 O 276.4 2.55093 3.10307 0
M  V30 2920 N 274.606 2.28724 1.79259 0
M  V30 2921 H 274.153 2.4111 0.906841 0
M  V30 2922 H 274.111 1.84986 2.54219 0
M  V30 2923 N 277.883 0.443576 1.51229 0
M  V30 2924 C 278.831 -0.37904 2.29491 0
M  V30 2925 C 279.825 -1.0153 1.35603 0
M  V30 2926 O 281.031 -0.94955 1.52917 0
M  V30 2927 H 277.406 -0.141053 0.738653 0
M  V30 2928 H 279.377 0.301799 2.9687 0
M  V30 2929 C 278.126 -1.46426 3.15364 0
M  V30 2930 H 277.449 -0.984037 3.87501 0
M  V30 2931 H 278.889 -2.01297 3.7317 0
M  V30 2932 C 277.348 -2.45099 2.31146 0
M  V30 2933 O 277.878 -3.49773 1.9754 0
M  V30 2934 N 276.084 -2.16139 1.94249 0
M  V30 2935 H 275.631 -1.31044 2.21777 0
M  V30 2936 H 275.589 -2.82398 1.38198 0
M  V30 2937 N 279.361 -1.56624 0.175154 0
M  V30 2938 C 280.324 -2.16934 -0.739738 0
M  V30 2939 C 281.324 -1.11842 -1.15533 0
M  V30 2940 O 282.514 -1.37335 -1.07167 0
M  V30 2941 C 279.646 -2.75531 -2.00738 0
M  V30 2942 H 280.839 -2.99131 -0.214639 0
M  V30 2943 H 278.392 -1.56123 -0.0744197 0
M  V30 2944 H 279.127 -1.97078 -2.57548 0
M  V30 2945 H 278.912 -3.52444 -1.71831 0
M  V30 2946 H 280.402 -3.21904 -2.66021 0
M  V30 2947 N 280.839 0.0985539 -1.57292 0
M  V30 2948 C 282.067 0.816318 -1.90115 0
M  V30 2949 C 282.482 1.72451 -0.768509 0
M  V30 2950 O 281.839 1.80643 0.259687 0
M  V30 2951 C 281.89 1.63259 -3.22535 0
M  V30 2952 O 281.611 0.760934 -4.31441 0
M  V30 2953 C 283.112 2.45372 -3.69199 0
M  V30 2954 H 280.332 0.233595 -0.629027 0
M  V30 2955 H 282.876 0.0768229 -2.04356 0
M  V30 2956 H 281.031 2.32463 -3.09903 0
M  V30 2957 H 281.445 1.32595 -5.07463 0
M  V30 2958 H 282.919 2.98144 -4.64558 0
M  V30 2959 H 283.396 3.23677 -2.96867 0
M  V30 2960 H 284.002 1.81373 -3.84687 0
M  V30 2961 N 282.317 1.53212 0.369288 0
M  V30 2962 C 283.563 1.69466 1.11397 0
M  V30 2963 C 283.896 0.443257 1.89074 0
M  V30 2964 O 283.171 -0.559386 1.86282 0
M  V30 2965 C 283.454 2.9422 2.07621 0
M  V30 2966 C 283.307 4.29508 1.33577 0
M  V30 2967 C 284.626 3.14565 3.07794 0
M  V30 2968 H 281.745 0.616667 0.403597 0
M  V30 2969 H 284.387 1.85845 0.395179 0
M  V30 2970 H 282.537 2.80387 2.68916 0
M  V30 2971 H 284.209 4.55147 0.750955 0
M  V30 2972 H 282.452 4.29088 0.637618 0
M  V30 2973 H 283.123 5.12926 2.03989 0
M  V30 2974 H 285.599 3.2756 2.56601 0
M  V30 2975 H 284.475 4.03297 3.72348 0
M  V30 2976 H 284.736 2.29675 3.77759 0
M  V30 2977 N 283.795 -0.628877 1.44509 0
M  V30 2978 C 285.023 -1.41554 1.50897 0
M  V30 2979 C 285.438 -1.8832 0.134564 0
M  V30 2980 O 284.795 -1.60969 -0.859965 0
M  V30 2981 C 284.846 -2.63435 2.47556 0
M  V30 2982 O 284.567 -2.18619 3.79654 0
M  V30 2983 C 286.068 -3.56537 2.63431 0
M  V30 2984 H 283.288 -0.434044 0.511709 0
M  V30 2985 H 285.832 -0.768895 1.89495 0
M  V30 2986 H 283.987 -3.24187 2.12089 0
M  V30 2987 H 284.401 -2.97652 4.31861 0
M  V30 2988 H 285.875 -4.38657 3.35088 0
M  V30 2989 H 286.352 -4.05493 1.68738 0
M  V30 2990 H 286.958 -3.01653 2.9981 0
M  V30 2991 N 285.273 -1.31445 -0.869486 0
M  V30 2992 C 286.501 -1.24122 -1.65534 0
M  V30 2993 C 286.916 0.193387 -1.87807 0
M  V30 2994 O 286.273 1.12557 -1.43656 0
M  V30 2995 C 286.324 -1.98229 -3.02304 0
M  V30 2996 O 286.045 -3.3609 -2.81026 0
M  V30 2997 C 287.546 -1.97751 -3.96749 0
M  V30 2998 H 284.766 -0.428868 -0.516055 0
M  V30 2999 H 287.31 -1.73328 -1.08525 0
M  V30 3000 H 285.465 -1.52782 -3.56001 0
M  V30 3001 H 285.879 -3.7383 -3.67902 0
M  V30 3002 H 287.353 -2.54114 -4.90031 0
M  V30 3003 H 287.83 -0.960137 -4.28577 0
M  V30 3004 H 288.436 -2.43079 -3.48988 0
M  V30 3005 N 286.751 1.08385 -1.14413 0
M  V30 3006 C 287.991 1.8238 -0.922868 0
M  V30 3007 C 288.355 1.84225 0.540842 0
M  V30 3008 O 289.556 2.53985 0.880058 0
M  V30 3009 C 287.827 3.24048 -1.50757 0
M  V30 3010 S 289.386 4.14917 -1.4279 0
M  V30 3011 H 286.204 0.628524 -0.332384 0
M  V30 3012 H 288.806 1.30278 -1.45766 0
M  V30 3013 H 287.51 3.20288 -2.56601 0
M  V30 3014 H 287.041 3.81224 -0.971178 0
M  V30 3015 H 289.056 4.94473 -0.413582 0
M  V30 3016 N 288.23 0.939286 1.26551 0
M  V30 3017 C 289.18 0.418284 2.2413 0
M  V30 3018 C 290.164 -0.483935 1.5345 0
M  V30 3019 O 291.356 -0.319489 1.74093 0
M  V30 3020 C 288.485 -0.31709 3.41832 0
M  V30 3021 C 287.571 0.602311 4.19801 0
M  V30 3022 N 287.962 1.72726 4.75394 0
M  V30 3023 C 286.26 0.407534 4.44134 0
M  V30 3024 C 286.961 2.30004 5.34297 0
M  V30 3025 N 285.937 1.58828 5.1988 0
M  V30 3026 H 289.739 1.27705 2.64705 0
M  V30 3027 H 287.253 0.794929 1.41614 0
M  V30 3028 H 289.25 -0.707364 4.10855 0
M  V30 3029 H 287.91 -1.17264 3.02786 0
M  V30 3030 H 288.921 2.10944 4.72994 0
M  V30 3031 H 285.598 -0.406406 4.15517 0
M  V30 3032 H 286.988 3.24778 5.88191 0
M  V30 3033 N 289.708 -1.40897 0.706093 0
M  V30 3034 C 290.933 -2.05895 0.249435 0
M  V30 3035 C 291.358 -1.52823 -1.09666 0
M  V30 3036 O 290.716 -0.659589 -1.68876 0
M  V30 3037 C 290.764 -3.59872 0.22904 0
M  V30 3038 O 289.868 -4.04708 -0.792784 0
M  V30 3039 H 289.209 -0.653206 0.119241 0
M  V30 3040 H 291.739 -1.80471 0.96391 0
M  V30 3041 H 291.749 -4.07951 0.0634791 0
M  V30 3042 H 290.424 -3.97866 1.21141 0
M  V30 3043 H 289.001 -3.68111 -0.59572 0
M  V30 3044 N 291.186 -0.45159 -1.50991 0
M  V30 3045 C 292.133 0.352625 -2.2809 0
M  V30 3046 C 293.103 1.0044 -1.32291 0
M  V30 3047 O 294.288 1.02058 -1.6121 0
M  V30 3048 C 291.428 1.43983 -3.13629 0
M  V30 3049 C 290.541 0.804772 -4.24438 0
M  V30 3050 C 289.676 1.86822 -4.97263 0
M  V30 3051 C 288.715 1.21236 -5.99973 0
M  V30 3052 N 287.852 2.2178 -6.66152 0
M  V30 3053 H 292.692 -0.311186 -2.96371 0
M  V30 3054 H 290.229 -0.165308 -1.46168 0
M  V30 3055 H 292.187 2.08161 -3.61559 0
M  V30 3056 H 290.817 2.07307 -2.47434 0
M  V30 3057 H 289.869 0.0509129 -3.80366 0
M  V30 3058 H 291.181 0.286076 -4.97979 0
M  V30 3059 H 290.335 2.58628 -5.48813 0
M  V30 3060 H 289.074 2.42068 -4.23385 0
M  V30 3061 H 288.079 0.479828 -5.47702 0
M  V30 3062 H 289.304 0.667051 -6.75816 0
M  V30 3063 H 287.25 2.76079 -5.95077 0
M  V30 3064 H 287.167 1.74841 -7.35504 0
M  V30 3065 H 288.435 2.93026 -7.22327 0
M  V30 3066 N 292.664 1.56529 -0.183458 0
M  V30 3067 C 293.892 2.01623 0.464285 0
M  V30 3068 C 294.307 1.06366 1.55986 0
M  V30 3069 O 293.664 0.0665398 1.82379 0
M  V30 3070 C 293.715 3.46475 1.03139 0
M  V30 3071 O 293.436 4.38095 -0.0204675 0
M  V30 3072 C 294.937 4.0703 1.75617 0
M  V30 3073 H 292.157 0.660596 0.117704 0
M  V30 3074 H 294.701 2.02451 -0.288751 0
M  V30 3075 H 292.856 3.46383 1.73486 0
M  V30 3076 H 293.27 5.22973 0.399952 0
M  V30 3077 H 294.744 5.10271 2.10542 0
M  V30 3078 H 295.221 3.49819 2.65563 0
M  V30 3079 H 295.827 4.1086 1.09882 0
M  V30 3080 N 294.142 -0.090211 1.57342 0
M  V30 3081 C 295.105 -1.09335 2.01441 0
M  V30 3082 C 296.105 -1.32666 0.908641 0
M  V30 3083 O 297.295 -1.28697 1.174 0
M  V30 3084 C 294.427 -2.44136 2.3793 0
M  V30 3085 H 295.62 -0.713662 2.91285 0
M  V30 3086 H 293.173 -0.335404 1.52659 0
M  V30 3087 H 293.908 -2.86972 1.51055 0
M  V30 3088 H 293.693 -2.28548 3.18603 0
M  V30 3089 H 295.183 -3.16277 2.72688 0
M  V30 3090 N 295.62 -1.53406 -0.361157 0
M  V30 3091 C 296.57 -1.76536 -1.44287 0
M  V30 3092 C 297.554 -0.620019 -1.48474 0
M  V30 3093 O 298.746 -0.878834 -1.53641 0
M  V30 3094 C 295.875 -1.96266 -2.81664 0
M  V30 3095 C 294.961 -3.16815 -2.81938 0
M  V30 3096 N 295.352 -4.38637 -2.51855 0
M  V30 3097 C 293.65 -3.17627 -3.13096 0
M  V30 3098 C 294.351 -5.20401 -2.59919 0
M  V30 3099 N 293.327 -4.56712 -2.94814 0
M  V30 3100 H 297.129 -2.68331 -1.19899 0
M  V30 3101 H 294.643 -1.52091 -0.56938 0
M  V30 3102 H 296.64 -2.10966 -3.59582 0
M  V30 3103 H 295.3 -1.05702 -3.07013 0
M  V30 3104 H 296.311 -4.66293 -2.25369 0
M  V30 3105 H 292.988 -2.36971 -3.43731 0
M  V30 3106 H 294.378 -6.27586 -2.39969 0
M  V30 3107 N 297.098 0.621204 -1.44841 0
M  V30 3108 C 298.028 1.74366 -1.55303 0
M  V30 3109 C 299.009 1.65199 -0.405385 0
M  V30 3110 O 300.194 1.83807 -0.626787 0
M  V30 3111 C 297.324 3.12931 -1.50637 0
M  V30 3112 C 296.278 3.36896 -2.63979 0
M  V30 3113 C 295.604 4.75594 -2.44366 0
M  V30 3114 C 296.904 3.28483 -4.06074 0
M  V30 3115 H 298.598 1.65867 -2.49256 0
M  V30 3116 H 296.144 0.796558 -1.19962 0
M  V30 3117 H 298.097 3.9124 -1.56555 0
M  V30 3118 H 296.821 3.22237 -0.532057 0
M  V30 3119 H 295.48 2.60972 -2.57467 0
M  V30 3120 H 295.128 4.81616 -1.45105 0
M  V30 3121 H 294.828 4.92586 -3.20364 0
M  V30 3122 H 296.352 5.5612 -2.52117 0
M  V30 3123 H 297.766 3.96684 -4.13902 0
M  V30 3124 H 296.163 3.57008 -4.82354 0
M  V30 3125 H 297.233 2.26133 -4.28943 0
M  V30 3126 N 298.576 1.31904 0.862503 0
M  V30 3127 C 299.853 1.12644 1.59908 0
M  V30 3128 C 300.233 -0.316104 2.0872 0
M  V30 3129 O 299.581 -1.31145 1.87118 0
M  V30 3130 C 299.791 2.1472 2.7513 0
M  V30 3131 C 301.139 2.47637 3.44907 0
M  V30 3132 O 302.163 2.13205 2.85346 0
M  V30 3133 O 301.022 3.06632 4.52371 0
M  V30 3134 H 298.116 0.43416 0.703871 0
M  V30 3135 H 300.662 1.43408 0.907314 0
M  V30 3136 H 299.434 3.1172 2.3653 0
M  V30 3137 H 299.057 1.84905 3.51989 0
M  V30 3138 N 300.054 -1.07777 1.14986 0
M  V30 3139 C 300.964 -2.18404 0.856546 0
M  V30 3140 C 301.98 -1.73211 -0.165485 0
M  V30 3141 O 303.156 -2.01399 0.00755219 0
M  V30 3142 C 300.221 -3.44977 0.34526 0
M  V30 3143 C 299.282 -4.0476 1.43065 0
M  V30 3144 C 298.515 -5.25291 0.943663 0
M  V30 3145 O 298.738 -5.70004 -0.212426 0
M  V30 3146 O 297.672 -5.76638 1.72547 0
M  V30 3147 H 301.498 -2.45978 1.78125 0
M  V30 3148 H 299.083 -1.17033 0.928631 0
M  V30 3149 H 300.965 -4.21348 0.0663671 0
M  V30 3150 H 299.64 -3.18965 -0.551631 0
M  V30 3151 H 298.547 -3.29949 1.76309 0
M  V30 3152 H 299.88 -4.35035 2.30229 0
M  V30 3153 N 301.532 -0.945985 -1.26051 0
M  V30 3154 C 302.442 -0.465633 -2.29933 0
M  V30 3155 C 303.458 0.462761 -1.67733 0
M  V30 3156 O 304.634 0.341118 -1.9849 0
M  V30 3157 C 301.699 0.256994 -3.45746 0
M  V30 3158 C 300.76 -0.708549 -4.23412 0
M  V30 3159 C 299.993 -0.0203135 -5.33696 0
M  V30 3160 O 300.216 1.19571 -5.57726 0
M  V30 3161 O 299.15 -0.701459 -5.97799 0
M  V30 3162 H 302.976 -1.32866 -2.73094 0
M  V30 3163 H 300.561 -0.712071 -1.31339 0
M  V30 3164 H 302.443 0.663852 -4.16138 0
M  V30 3165 H 301.118 1.09533 -3.04605 0
M  V30 3166 H 300.025 -1.16545 -3.55483 0
M  V30 3167 H 301.358 -1.51465 -4.68315 0
M  V30 3168 N 303.011 1.40521 -0.713556 0
M  V30 3169 C 304.257 2.01221 -0.252564 0
M  V30 3170 C 304.59 1.56444 1.1506 0
M  V30 3171 O 303.865 0.783597 1.78017 0
M  V30 3172 C 304.148 3.58582 -0.330332 0
M  V30 3173 C 304.001 4.13437 -1.77173 0
M  V30 3174 C 305.32 4.39079 0.299641 0
M  V30 3175 H 302.439 0.731077 -0.0932471 0
M  V30 3176 H 305.081 1.67026 -0.905673 0
M  V30 3177 H 303.231 3.87844 0.225737 0
M  V30 3178 H 304.903 3.9498 -2.38303 0
M  V30 3179 H 303.146 3.67801 -2.3001 0
M  V30 3180 H 303.817 5.22597 -1.77755 0
M  V30 3181 H 306.293 4.15735 -0.174139 0
M  V30 3182 H 305.169 5.4848 0.214771 0
M  V30 3183 H 305.43 4.19915 1.38288 0
M  V30 3184 N 304.489 0.459591 1.5075 0
M  V30 3185 C 305.437 -0.354678 2.2988 0
M  V30 3186 C 306.431 -1.00086 1.36672 0
M  V30 3187 O 307.637 -0.933277 1.53915 0
M  V30 3188 H 304.012 -0.13321 0.740107 0
M  V30 3189 H 305.983 0.333269 2.96533 0
M  V30 3190 C 304.732 -1.43073 3.169 0
M  V30 3191 H 304.055 -0.942882 3.88523 0
M  V30 3192 H 305.495 -1.97328 3.75284 0
M  V30 3193 C 303.954 -2.42633 2.33732 0
M  V30 3194 O 304.484 -3.47658 2.01238 0
M  V30 3195 N 302.69 -2.14066 1.9653 0
M  V30 3196 H 302.237 -1.28685 2.23155 0
M  V30 3197 H 302.195 -2.80917 1.41185 0
M  V30 3198 N 305.967 -1.56429 0.191757 0
M  V30 3199 C 306.914 -2.18936 -0.730454 0
M  V30 3200 C 307.884 -1.13557 -1.21219 0
M  V30 3201 O 309.069 -1.41794 -1.27668 0
M  V30 3202 C 306.209 -2.85013 -1.9458 0
M  V30 3203 C 305.322 -4.04909 -1.50574 0
M  V30 3204 C 304.457 -4.58853 -2.67634 0
M  V30 3205 C 303.496 -5.71114 -2.20217 0
M  V30 3206 N 302.633 -6.19478 -3.30442 0
M  V30 3207 H 307.473 -2.97389 -0.190664 0
M  V30 3208 H 305.01 -1.46869 -0.0823694 0
M  V30 3209 H 306.968 -3.21492 -2.65893 0
M  V30 3210 H 305.598 -2.09129 -2.45896 0
M  V30 3211 H 304.65 -3.74115 -0.688605 0
M  V30 3212 H 305.962 -4.86113 -1.11784 0
M  V30 3213 H 305.116 -4.97619 -3.47074 0
M  V30 3214 H 303.855 -3.76749 -3.09696 0
M  V30 3215 H 302.86 -5.31879 -1.3923 0
M  V30 3216 H 304.085 -6.55033 -1.79189 0
M  V30 3217 H 302.031 -5.40297 -3.72041 0
M  V30 3218 H 301.948 -6.95725 -2.9581 0
M  V30 3219 H 303.216 -6.62898 -4.10106 0
M  V30 3220 N 307.445 0.0818655 -1.57387 0
M  V30 3221 C 308.693 0.781368 -1.86384 0
M  V30 3222 C 309.014 1.78618 -0.782342 0
M  V30 3223 O 308.284 1.94976 0.190061 0
M  V30 3224 H 306.864 0.291562 -0.687751 0
M  V30 3225 H 309.526 0.060348 -1.94807 0
M  V30 3226 H 308.622 1.3038 -2.83562 0
M  V30 3227 N 308.923 1.53595 0.353017 0
M  V30 3228 C 310.2 1.61002 1.11075 0
M  V30 3229 C 310.58 0.425356 2.0677 0
M  V30 3230 O 309.928 -0.583267 2.2093 0
M  V30 3231 C 310.138 2.96631 1.83877 0
M  V30 3232 C 311.486 3.51653 2.37961 0
M  V30 3233 O 312.51 2.98743 1.93987 0
M  V30 3234 O 311.369 4.44177 3.18386 0
M  V30 3235 H 308.463 0.650825 0.510251 0
M  V30 3236 H 311.009 1.6594 0.35527 0
M  V30 3237 H 309.781 3.74293 1.14108 0
M  V30 3238 H 309.404 2.95242 2.66304 0
M  V30 3239 N 310.401 -0.613514 1.45168 0
M  V30 3240 C 311.65 -1.36874 1.4815 0
M  V30 3241 C 311.963 -1.952 0.124982 0
M  V30 3242 O 313.169 -2.71481 0.0324176 0
M  V30 3243 C 311.625 -2.47905 2.60904 0
M  V30 3244 C 311.233 -1.96016 4.02842 0
M  V30 3245 C 312.977 -3.24965 2.73126 0
M  V30 3246 C 310.884 -3.04494 5.06988 0
M  V30 3247 H 309.814 -0.514428 0.551253 0
M  V30 3248 H 312.465 -0.658182 1.7129 0
M  V30 3249 H 310.847 -3.21618 2.31037 0
M  V30 3250 H 312.021 -1.29051 4.4236 0
M  V30 3251 H 310.336 -1.31719 3.95018 0
M  V30 3252 H 312.933 -4.05865 3.48106 0
M  V30 3253 H 313.276 -3.75588 1.79553 0
M  V30 3254 H 313.809 -2.5835 3.0249 0
M  V30 3255 H 310.548 -2.58795 6.0225 0
M  V30 3256 H 310.068 -3.70044 4.72046 0
M  V30 3257 H 311.747 -3.68976 5.31475 0
M  V30 3258 N 311.879 -1.3236 -0.855495 0
M  V30 3259 C 312.809 -1.23833 -1.97958 0
M  V30 3260 C 313.79 -0.122361 -1.69659 0
M  V30 3261 O 314.975 -0.30939 -1.9172 0
M  V30 3262 C 312.105 -0.959772 -3.33775 0
M  V30 3263 C 311.059 -2.03689 -3.76424 0
M  V30 3264 C 310.385 -1.61075 -5.09862 0
M  V30 3265 C 311.685 -3.4518 -3.9198 0
M  V30 3266 H 313.379 -2.1788 -2.0535 0
M  V30 3267 H 310.925 -1.04891 -0.986605 0
M  V30 3268 H 312.878 -0.886678 -4.11966 0
M  V30 3269 H 311.602 0.0163404 -3.26596 0
M  V30 3270 H 310.261 -2.10012 -3.00484 0
M  V30 3271 H 309.909 -0.622107 -4.99138 0
M  V30 3272 H 309.609 -2.33143 -5.39368 0
M  V30 3273 H 311.133 -1.55201 -5.90546 0
M  V30 3274 H 312.547 -3.4145 -4.60526 0
M  V30 3275 H 310.944 -4.1559 -4.32903 0
M  V30 3276 H 312.014 -3.84903 -2.94919 0
M  V30 3277 N 313.357 1.07166 -1.15556 0
M  V30 3278 C 314.603 1.80065 -0.932984 0
M  V30 3279 C 314.936 1.86586 0.53845 0
M  V30 3280 O 314.211 1.35098 1.39924 0
M  V30 3281 C 314.494 3.25022 -1.55025 0
M  V30 3282 C 314.347 3.26634 -3.09242 0
M  V30 3283 C 315.666 4.22341 -1.2376 0
M  V30 3284 H 312.785 0.653697 -0.340366 0
M  V30 3285 H 315.427 1.25389 -1.4275 0
M  V30 3286 H 313.577 3.71712 -1.12972 0
M  V30 3287 H 315.249 2.88173 -3.60214 0
M  V30 3288 H 313.492 2.65539 -3.43033 0
M  V30 3289 H 314.163 4.28854 -3.47546 0
M  V30 3290 H 316.639 3.8405 -1.60139 0
M  V30 3291 H 315.515 5.22053 -1.69564 0
M  V30 3292 H 315.776 4.41828 -0.154938 0
M  V30 3293 N 314.835 0.952656 1.25548 0
M  V30 3294 C 316.081 0.607272 1.93494 0
M  V30 3295 C 316.414 -0.853245 1.74452 0
M  V30 3296 O 315.689 -1.61194 1.08843 0
M  V30 3297 C 315.972 0.96435 3.46947 0
M  V30 3298 C 315.825 2.48045 3.75225 0
M  V30 3299 C 317.144 0.487987 4.37386 0
M  V30 3300 H 314.263 0.222096 0.702739 0
M  V30 3301 H 316.905 1.18895 1.48203 0
M  V30 3302 H 315.055 0.469361 3.85654 0
M  V30 3303 H 316.727 3.04905 3.46166 0
M  V30 3304 H 314.97 2.919 3.209 0
M  V30 3305 H 315.641 2.6808 4.82532 0
M  V30 3306 H 318.117 0.912558 4.0597 0
M  V30 3307 H 316.993 0.766547 5.43521 0
M  V30 3308 H 317.254 -0.612063 4.37843 0
M  V30 3309 N 316.313 -1.40141 0.720998 0
M  V30 3310 C 317.276 -2.29058 0.0805834 0
M  V30 3311 C 318.276 -1.45632 -0.681758 0
M  V30 3312 O 319.466 -1.6648 -0.512856 0
M  V30 3313 C 316.598 -3.28925 -0.895593 0
M  V30 3314 H 317.791 -2.87191 0.863793 0
M  V30 3315 H 315.344 -1.48553 0.485975 0
M  V30 3316 H 316.079 -2.75822 -1.70566 0
M  V30 3317 H 315.864 -3.90519 -0.351766 0
M  V30 3318 H 317.354 -3.95494 -1.34069 0
M  V30 3319 N 317.792 -0.46758 -1.50504 0
M  V30 3320 C 319.02 0.0864133 -2.06719 0
M  V30 3321 C 319.435 1.33819 -1.33184 0
M  V30 3322 O 318.792 1.78061 -0.400083 0
M  V30 3323 C 318.843 0.378079 -3.59517 0
M  V30 3324 O 318.564 -0.824044 -4.3028 0
M  V30 3325 C 320.065 0.979426 -4.32345 0
M  V30 3326 H 317.285 -0.00551697 -0.670977 0
M  V30 3327 H 319.829 -0.655354 -1.93715 0
M  V30 3328 H 317.984 1.06977 -3.72337 0
M  V30 3329 H 318.398 -0.566518 -5.21432 0
M  V30 3330 H 319.872 1.1333 -5.40241 0
M  V30 3331 H 320.349 1.9686 -3.9261 0
M  V30 3332 H 320.955 0.326216 -4.24047 0
M  V30 3333 N 319.27 1.56325 -0.20005 0
M  V30 3334 C 320.518 1.97329 0.436547 0
M  V30 3335 C 320.839 1.08826 1.61808 0
M  V30 3336 O 320.109 0.160604 1.95241 0
M  V30 3337 H 318.689 0.728714 0.164272 0
M  V30 3338 H 321.351 1.92761 -0.287937 0
M  V30 3339 H 320.447 3.02264 0.777353 0
M  V30 3340 N 320.748 -0.0735177 1.57428 0
M  V30 3341 C 321.68 -1.11423 2.00294 0
M  V30 3342 C 322.693 -1.35084 0.908637 0
M  V30 3343 O 323.882 -1.33355 1.18654 0
M  V30 3344 C 320.982 -2.46548 2.32523 0
M  V30 3345 C 320.155 -2.42867 3.63778 0
M  V30 3346 C 319.214 -3.60087 3.83697 0
M  V30 3347 O 318.24 -3.41595 4.55304 0
M  V30 3348 N 319.442 -4.80372 3.25919 0
M  V30 3349 H 322.207 -0.749206 2.90184 0
M  V30 3350 H 319.768 -0.262195 1.59763 0
M  V30 3351 H 321.76 -3.23607 2.43024 0
M  V30 3352 H 320.33 -2.75059 1.48531 0
M  V30 3353 H 319.55 -1.51206 3.64047 0
M  V30 3354 H 320.838 -2.37506 4.49965 0
M  V30 3355 H 320.236 -4.983 2.67795 0
M  V30 3356 H 318.793 -5.54948 3.41871 0
M  V30 3357 N 322.226 -1.5378 -0.344866 0
M  V30 3358 C 323.637 -1.62428 -0.920552 0
M  V30 3359 C 323.988 -0.504747 -1.89596 0
M  V30 3360 O 323.113 0.365711 -2.13287 0
M  V30 3361 C 323.708 -2.94419 -1.67639 0
M  V30 3362 C 322.267 -3.05333 -2.20111 0
M  V30 3363 C 321.414 -2.57866 -1.01982 0
M  V30 3364 H 324.365 -1.58222 -0.123042 0
M  V30 3365 H 324.386 -2.83384 -2.53917 0
M  V30 3366 H 323.898 -3.7588 -0.966224 0
M  V30 3367 H 321.999 -2.28502 -2.94308 0
M  V30 3368 H 322.112 -4.10778 -2.46573 0
M  V30 3369 H 320.476 -2.13241 -1.39285 0
M  V30 3370 H 321.259 -3.41765 -0.324308 0
M  V30 3371 N 323.704 0.605807 -1.45491 0
M  V30 3372 C 324.614 1.74466 -1.56839 0
M  V30 3373 C 325.63 1.68006 -0.452772 0
M  V30 3374 O 326.806 1.8833 -0.713708 0
M  V30 3375 C 323.871 3.10931 -1.53371 0
M  V30 3376 C 322.932 3.28832 -2.75986 0
M  V30 3377 C 322.165 4.58787 -2.72673 0
M  V30 3378 O 322.388 5.4122 -1.80102 0
M  V30 3379 O 321.322 4.79438 -3.63899 0
M  V30 3380 H 325.148 1.67843 -2.53106 0
M  V30 3381 H 322.733 0.770108 -1.28022 0
M  V30 3382 H 324.615 3.92233 -1.54051 0
M  V30 3383 H 323.29 3.18042 -0.602572 0
M  V30 3384 H 322.197 2.47112 -2.80867 0
M  V30 3385 H 323.53 3.26599 -3.68231 0
M  V30 3386 N 325.182 1.32811 0.848464 0
M  V30 3387 C 326.115 1.16601 1.96162 0
M  V30 3388 C 327.093 0.0638855 1.62474 0
M  V30 3389 O 328.277 0.224348 1.8716 0
M  V30 3390 C 325.404 0.786333 3.29446 0
M  V30 3391 C 324.45 1.89459 3.8211 0
M  V30 3392 S 325.283 3.50395 4.04949 0
M  V30 3393 C 326.439 3.14413 5.41198 0
M  V30 3394 H 326.672 2.10832 2.09612 0
M  V30 3395 H 324.205 1.17543 1.00115 0
M  V30 3396 H 326.163 0.574044 4.06466 0
M  V30 3397 H 324.824 -0.137218 3.138 0
M  V30 3398 H 324.017 1.58207 4.78526 0
M  V30 3399 H 323.619 2.06304 3.11953 0
M  V30 3400 H 325.911 2.64642 6.23675 0
M  V30 3401 H 326.854 4.09874 5.77416 0
M  V30 3402 H 327.262 2.51266 5.05495 0
M  V30 3403 N 326.66 -1.06551 1.16123 0
M  V30 3404 C 327.906 -1.79567 0.94252 0
M  V30 3405 C 328.239 -1.86869 -0.528547 0
M  V30 3406 O 327.514 -1.35838 -1.39206 0
M  V30 3407 C 327.797 -3.24195 1.56747 0
M  V30 3408 C 327.65 -3.24989 3.10969 0
M  V30 3409 C 328.969 -4.21678 1.25998 0
M  V30 3410 H 326.088 -0.651883 0.343828 0
M  V30 3411 H 328.73 -1.2463 1.43413 0
M  V30 3412 H 326.88 -3.71107 1.14942 0
M  V30 3413 H 328.552 -2.86258 3.61737 0
M  V30 3414 H 326.795 -2.63716 3.44436 0
M  V30 3415 H 327.466 -4.27005 3.49815 0
M  V30 3416 H 329.942 -3.83196 1.62174 0
M  V30 3417 H 328.818 -5.21146 1.7233 0
M  V30 3418 H 329.079 -4.4174 0.178367 0
M  V30 3419 N 328.138 -0.959301 -1.25041 0
M  V30 3420 C 329.085 -0.482057 -2.2571 0
M  V30 3421 C 330.055 0.467939 -1.59372 0
M  V30 3422 O 331.24 0.380159 -1.86974 0
M  V30 3423 C 328.38 0.229623 -3.44335 0
M  V30 3424 C 327.493 -0.758156 -4.25295 0
M  V30 3425 C 326.628 -0.0234403 -5.31195 0
M  V30 3426 C 325.667 -1.00184 -6.03846 0
M  V30 3427 N 324.804 -0.29769 -7.01469 0
M  V30 3428 H 329.644 -1.34538 -2.65901 0
M  V30 3429 H 327.181 -0.674592 -1.3072 0
M  V30 3430 H 329.139 0.658856 -4.11965 0
M  V30 3431 H 327.769 1.05696 -3.05005 0
M  V30 3432 H 326.821 -1.30586 -3.57284 0
M  V30 3433 H 328.133 -1.50458 -4.75567 0
M  V30 3434 H 327.287 0.464201 -6.04922 0
M  V30 3435 H 326.026 0.755741 -4.81809 0
M  V30 3436 H 325.031 -1.50044 -5.2893 0
M  V30 3437 H 326.256 -1.78133 -6.55321 0
M  V30 3438 H 324.202 0.462668 -6.54366 0
M  V30 3439 H 324.119 -0.983128 -7.4958 0
M  V30 3440 H 325.387 0.16826 -7.79318 0
M  V30 3441 N 329.616 1.39756 -0.72842 0
M  V30 3442 C 330.864 2.00248 -0.272946 0
M  V30 3443 C 331.185 1.58077 1.14178 0
M  V30 3444 O 330.455 0.826014 1.77634 0
M  V30 3445 H 329.035 0.740554 -0.0979247 0
M  V30 3446 H 331.697 1.70903 -0.936912 0
M  V30 3447 H 330.793 3.10495 -0.316142 0
M  V30 3448 N 331.094 0.475555 1.50254 0
M  V30 3449 C 332.004 -0.321501 2.32387 0
M  V30 3450 C 333.02 -0.991755 1.42969 0
M  V30 3451 O 334.196 -0.978747 1.76018 0
M  V30 3452 C 331.261 -1.38667 3.17762 0
M  V30 3453 C 330.322 -0.732538 4.23004 0
M  V30 3454 C 329.555 -1.74695 5.04299 0
M  V30 3455 O 329.778 -2.97399 4.86734 0
M  V30 3456 O 328.712 -1.31631 5.8733 0
M  V30 3457 H 332.538 0.350071 3.01676 0
M  V30 3458 H 330.123 0.237321 1.47503 0
M  V30 3459 H 332.005 -2.00354 3.70724 0
M  V30 3460 H 330.68 -2.04163 2.51196 0
M  V30 3461 H 329.587 -0.0765902 3.74022 0
M  V30 3462 H 330.92 -0.120452 4.92053 0
M  V30 3463 N 332.573 -1.56217 0.208337 0
M  V30 3464 C 333.819 -1.98998 -0.42086 0
M  V30 3465 C 334.174 -1.09331 -1.58317 0
M  V30 3466 O 333.467 -0.140466 -1.91084 0
M  V30 3467 C 333.661 -3.45441 -0.916797 0
M  V30 3468 C 333.49 -4.49273 0.195925 0
M  V30 3469 C 332.26 -5.00998 0.657956 0
M  V30 3470 C 334.458 -5.04294 1.00956 0
M  V30 3471 N 332.44 -5.88514 1.74712 0
M  V30 3472 C 333.811 -5.88607 1.94785 0
M  V30 3473 C 335.866 -4.86692 1.05049 0
M  V30 3474 C 334.569 -6.572 2.9237 0
M  V30 3475 C 336.595 -5.56034 2.01446 0
M  V30 3476 C 335.957 -6.40105 2.94016 0
M  V30 3477 H 332.056 -0.772574 -0.121048 0
M  V30 3478 H 334.64 -1.92101 0.317075 0
M  V30 3479 H 332.811 -3.52812 -1.62413 0
M  V30 3480 H 334.543 -3.75164 -1.51771 0
M  V30 3481 H 331.298 -4.72945 0.248912 0
M  V30 3482 H 331.722 -6.36975 2.2933 0
M  V30 3483 H 336.364 -4.21359 0.348759 0
M  V30 3484 H 334.082 -7.21723 3.63512 0
M  V30 3485 H 337.668 -5.44385 2.0527 0
M  V30 3486 H 336.548 -6.92816 3.6739 0
M  V30 3487 N 334.051 0.0651679 -1.57465 0
M  V30 3488 C 335.3 0.761916 -1.86756 0
M  V30 3489 C 335.613 1.78406 -0.801925 0
M  V30 3490 O 336.819 2.53084 -0.982885 0
M  V30 3491 C 335.275 1.40603 -3.31299 0
M  V30 3492 C 334.883 0.422115 -4.46007 0
M  V30 3493 C 336.627 2.08476 -3.69781 0
M  V30 3494 C 334.534 1.07252 -5.81593 0
M  V30 3495 H 333.464 0.288308 -0.696702 0
M  V30 3496 H 336.115 0.015344 -1.83494 0
M  V30 3497 H 334.497 2.20109 -3.29193 0
M  V30 3498 H 335.671 -0.343613 -4.59517 0
M  V30 3499 H 333.986 -0.152527 -4.16121 0
M  V30 3500 H 336.583 2.57925 -4.68379 0
M  V30 3501 H 336.926 2.88712 -2.99919 0
M  V30 3502 H 337.459 1.35792 -3.73905 0
M  V30 3503 H 334.198 0.310342 -6.54765 0
M  V30 3504 H 333.718 1.80895 -5.71872 0
M  V30 3505 H 335.397 1.59043 -6.27148 0
M  V30 3506 N 335.529 1.53961 0.336706 0
M  V30 3507 C 336.476 1.82428 1.41381 0
M  V30 3508 C 337.446 0.670444 1.51968 0
M  V30 3509 O 338.631 0.915565 1.67398 0
M  V30 3510 C 335.771 2.04564 2.77934 0
M  V30 3511 C 334.884 3.32267 2.76084 0
M  V30 3512 C 334.019 3.44434 4.04399 0
M  V30 3513 C 333.058 4.66061 3.96804 0
M  V30 3514 N 332.195 4.75224 5.16823 0
M  V30 3515 H 337.035 2.74324 1.16405 0
M  V30 3516 H 334.572 1.35869 0.563752 0
M  V30 3517 H 336.53 2.15388 3.57301 0
M  V30 3518 H 335.16 1.15974 3.01247 0
M  V30 3519 H 334.212 3.3025 1.88784 0
M  V30 3520 H 335.524 4.21733 2.66351 0
M  V30 3521 H 334.678 3.54728 4.92192 0
M  V30 3522 H 333.417 2.53037 4.16921 0
M  V30 3523 H 332.422 4.55838 3.07396 0
M  V30 3524 H 333.647 5.58829 3.85858 0
M  V30 3525 H 331.593 3.86739 5.29876 0
M  V30 3526 H 331.51 5.58636 5.09374 0
M  V30 3527 H 332.778 4.89835 6.06367 0
M  V30 3528 N 337.007 -0.598083 1.45811 0
M  V30 3529 C 338.418 -1.18011 1.44673 0
M  V30 3530 C 338.769 -1.95378 0.179364 0
M  V30 3531 O 337.894 -2.04124 -0.718509 0
M  V30 3532 C 338.489 -2.14677 2.62105 0
M  V30 3533 C 337.048 -2.68236 2.64057 0
M  V30 3534 C 336.195 -1.43816 2.37091 0
M  V30 3535 H 339.146 -0.38686 1.53913 0
M  V30 3536 H 339.167 -2.97878 2.36746 0
M  V30 3537 H 338.679 -1.5834 3.5433 0
M  V30 3538 H 336.78 -3.28486 1.75864 0
M  V30 3539 H 336.893 -3.12021 3.63566 0
M  V30 3540 H 335.257 -1.731 1.86838 0
M  V30 3541 H 336.04 -0.893333 3.31473 0
M  V30 3542 N 338.485 -1.33259 -0.841409 0
M  V30 3543 C 339.733 -1.24326 -1.59334 0
M  V30 3544 C 340.054 0.191564 -1.94057 0
M  V30 3545 O 339.324 1.11967 -1.60749 0
M  V30 3546 H 337.904 -0.457174 -0.590763 0
M  V30 3547 H 340.566 -1.66947 -1.00571 0
M  V30 3548 H 339.662 -1.8352 -2.52442 0
M  V30 3549 N 339.963 1.05934 -1.16686 0
M  V30 3550 C 340.926 2.11669 -0.879144 0
M  V30 3551 C 341.926 1.60294 0.127445 0
M  V30 3552 O 343.116 1.7389 -0.103865 0
M  V30 3553 C 340.248 3.39438 -0.315425 0
M  V30 3554 H 341.441 2.38626 -1.81653 0
M  V30 3555 H 338.994 1.22058 -0.976299 0
M  V30 3556 H 339.729 3.18132 0.629468 0
M  V30 3557 H 339.514 3.78034 -1.04079 0
M  V30 3558 H 341.004 4.17391 -0.132189 0
M  V30 3559 N 341.441 0.965919 1.2453 0
M  V30 3560 C 342.69 0.622437 1.91856 0
M  V30 3561 C 343.003 -0.846006 1.76358 0
M  V30 3562 O 344.209 -1.29993 2.38357 0
M  V30 3563 C 342.665 1.0626 3.43856 0
M  V30 3564 C 342.273 2.55437 3.68043 0
M  V30 3565 C 344.017 0.792183 4.17043 0
M  V30 3566 C 341.924 2.93196 5.13605 0
M  V30 3567 H 340.854 0.229092 0.718354 0
M  V30 3568 H 343.505 1.17189 1.41206 0
M  V30 3569 H 341.887 0.441476 3.93531 0
M  V30 3570 H 343.061 3.22665 3.28974 0
M  V30 3571 H 341.376 2.8007 3.08139 0
M  V30 3572 H 343.973 1.05031 5.24283 0
M  V30 3573 H 344.316 -0.271584 4.15413 0
M  V30 3574 H 344.849 1.37419 3.73311 0
M  V30 3575 H 341.588 3.98636 5.20355 0
M  V30 3576 H 341.108 2.30651 5.53679 0
M  V30 3577 H 342.787 2.83004 5.81823 0
M  V30 3578 N 342.919 -1.39368 0.735821 0
M  V30 3579 C 344.165 -2.00794 0.284544 0
M  V30 3580 C 344.498 -1.58255 -1.12557 0
M  V30 3581 O 343.773 -0.811819 -1.76748 0
M  V30 3582 C 344.056 -3.58011 0.387337 0
M  V30 3583 C 343.909 -4.10566 1.83728 0
M  V30 3584 C 345.228 -4.395 -0.22975 0
M  V30 3585 H 342.347 -0.729501 0.104866 0
M  V30 3586 H 344.989 -1.65564 0.93213 0
M  V30 3587 H 343.139 -3.88154 -0.164006 0
M  V30 3588 H 344.811 -3.91139 2.44556 0
M  V30 3589 H 343.054 -3.64095 2.35833 0
M  V30 3590 H 343.725 -5.19702 1.86047 0
M  V30 3591 H 346.201 -4.15406 0.240257 0
M  V30 3592 H 345.077 -5.48752 -0.127485 0
M  V30 3593 H 345.338 -4.22062 -1.3159 0
M  V30 3594 N 344.397 -0.483516 -1.5 0
M  V30 3595 C 345.646 0.0689102 -2.01582 0
M  V30 3596 C 345.959 1.39655 -1.36952 0
M  V30 3597 O 347.165 2.03465 -1.79762 0
M  V30 3598 C 345.621 0.173302 -3.59483 0
M  V30 3599 C 345.229 -1.14665 -4.33077 0
M  V30 3600 C 346.973 0.677024 -4.19066 0
M  V30 3601 C 344.88 -1.00537 -5.82792 0
M  V30 3602 H 343.81 0.0295277 -0.753422 0
M  V30 3603 H 346.461 -0.620295 -1.72698 0
M  V30 3604 H 344.843 0.926569 -3.85007 0
M  V30 3605 H 346.017 -1.91184 -4.19268 0
M  V30 3606 H 344.332 -1.58244 -3.85159 0
M  V30 3607 H 346.929 0.799952 -5.28682 0
M  V30 3608 H 347.272 1.67151 -3.81269 0
M  V30 3609 H 347.805 -0.0192083 -3.97795 0
M  V30 3610 H 344.544 -1.9736 -6.25083 0
M  V30 3611 H 344.064 -0.280776 -5.99142 0
M  V30 3612 H 345.743 -0.677 -6.43448 0
M  V30 3613 N 345.875 1.56104 -0.216619 0
M  V30 3614 C 347.152 1.89988 0.465165 0
M  V30 3615 C 347.532 1.13326 1.78102 0
M  V30 3616 O 346.88 0.241033 2.27225 0
M  V30 3617 C 347.09 3.42646 0.662939 0
M  V30 3618 C 348.438 4.13311 0.972602 0
M  V30 3619 O 349.462 3.48217 0.749901 0
M  V30 3620 O 348.321 5.28396 1.39499 0
M  V30 3621 H 345.415 0.78979 0.245276 0
M  V30 3622 H 347.961 1.67721 -0.258436 0
M  V30 3623 H 346.733 3.90399 -0.26543 0
M  V30 3624 H 346.356 3.70677 1.43821 0
M  V30 3625 N 347.353 -0.0568162 1.57498 0
M  V30 3626 C 348.593 -0.758273 1.89815 0
M  V30 3627 C 348.957 -1.73978 0.812132 0
M  V30 3628 O 350.158 -2.48744 1.01881 0
M  V30 3629 C 348.429 -1.43465 3.27342 0
M  V30 3630 S 349.988 -2.1691 3.81439 0
M  V30 3631 H 346.806 -0.251836 0.664906 0
M  V30 3632 H 349.408 -0.0137997 1.95495 0
M  V30 3633 H 348.112 -0.706693 4.0427 0
M  V30 3634 H 347.643 -2.21825 3.24896 0
M  V30 3635 H 349.658 -3.43658 3.5793 0
M  V30 3636 N 348.832 -1.54138 -0.328536 0
M  V30 3637 C 350.08 -1.71765 -1.06496 0
M  V30 3638 C 350.401 -0.49149 -1.88704 0
M  V30 3639 O 349.671 0.494539 -1.89555 0
M  V30 3640 H 348.251 -0.633295 -0.396164 0
M  V30 3641 H 350.913 -1.91429 -0.366176 0
M  V30 3642 H 350.009 -2.5951 -1.73381 0
M  V30 3643 N 350.31 0.590341 -1.46126 0
M  V30 3644 C 351.559 1.34499 -1.50309 0
M  V30 3645 C 351.872 1.94977 -0.156021 0
M  V30 3646 O 353.078 2.71395 -0.0756037 0
M  V30 3647 C 351.534 2.43723 -2.64815 0
M  V30 3648 C 351.142 1.89582 -4.0591 0
M  V30 3649 C 352.886 3.20579 -2.78262 0
M  V30 3650 C 350.793 2.9639 -5.11769 0
M  V30 3651 H 349.723 0.505593 -0.559368 0
M  V30 3652 H 352.374 0.630848 -1.72315 0
M  V30 3653 H 350.756 3.17902 -2.36124 0
M  V30 3654 H 351.93 1.21997 -4.44357 0
M  V30 3655 H 350.245 1.25418 -3.97063 0
M  V30 3656 H 352.842 4.00276 -3.54519 0
M  V30 3657 H 353.185 3.72684 -1.85505 0
M  V30 3658 H 353.718 2.53505 -3.06562 0
M  V30 3659 H 350.457 2.49181 -6.06291 0
M  V30 3660 H 349.977 3.62487 -4.77873 0
M  V30 3661 H 351.656 3.60474 -5.37278 0
M  V30 3662 N 351.788 1.33704 0.83433 0
M  V30 3663 C 352.736 1.24323 1.96587 0
M  V30 3664 C 353.73 0.143659 1.6879 0
M  V30 3665 O 354.936 0.30791 1.77347 0
M  V30 3666 H 351.311 0.385925 0.645419 0
M  V30 3667 H 353.282 2.19978 2.01624 0
M  V30 3668 C 352.031 1.00394 3.32891 0
M  V30 3669 H 351.354 1.84231 3.54822 0
M  V30 3670 H 352.794 0.97862 4.12552 0
M  V30 3671 C 351.253 -0.293047 3.35623 0
M  V30 3672 O 351.783 -1.29823 3.80143 0
M  V30 3673 N 349.989 -0.322174 2.88809 0
M  V30 3674 H 349.536 0.496379 2.52772 0
M  V30 3675 H 349.494 -1.18977 2.91019 0
M  V30 3676 N 353.266 -1.05314 1.17247 0
M  V30 3677 C 354.496 -1.81707 0.983166 0
M  V30 3678 C 354.904 -1.83222 -0.471822 0
M  V30 3679 O 354.247 -1.25721 -1.3394 0
M  V30 3680 C 354.309 -3.29134 1.44606 0
M  V30 3681 C 353.973 -3.51304 2.92292 0
M  V30 3682 C 354.97 -3.4353 3.90235 0
M  V30 3683 C 352.655 -3.78306 3.30439 0
M  V30 3684 C 354.649 -3.62442 5.24323 0
M  V30 3685 C 352.336 -3.96866 4.64694 0
M  V30 3686 C 353.334 -3.88933 5.61445 0
M  V30 3687 O 353.022 -4.06976 6.93272 0
M  V30 3688 H 352.754 -0.579476 0.348114 0
M  V30 3689 H 355.308 -1.33705 1.55924 0
M  V30 3690 H 353.538 -3.78046 0.813537 0
M  V30 3691 H 355.227 -3.87049 1.22262 0
M  V30 3692 H 355.993 -3.22648 3.62109 0
M  V30 3693 H 351.872 -3.83585 2.55702 0
M  V30 3694 H 355.416 -3.56165 5.99827 0
M  V30 3695 H 351.313 -4.1724 4.92525 0
M  V30 3696 H 352.081 -4.24209 6.99992 0
M  V30 3697 N 354.744 -0.972509 -1.24016 0
M  V30 3698 C 355.99 -0.637978 -1.92504 0
M  V30 3699 C 356.323 0.825383 -1.75787 0
M  V30 3700 O 355.598 1.59442 -1.11393 0
M  V30 3701 C 355.881 -1.01942 -3.45369 0
M  V30 3702 C 355.734 -2.53983 -3.71231 0
M  V30 3703 C 357.053 -0.55751 -4.36555 0
M  V30 3704 H 354.172 -0.233248 -0.699117 0
M  V30 3705 H 356.814 -1.21238 -1.46292 0
M  V30 3706 H 354.964 -0.530656 -3.84859 0
M  V30 3707 H 356.636 -3.10374 -3.41271 0
M  V30 3708 H 354.879 -2.96968 -3.16216 0
M  V30 3709 H 355.55 -2.75723 -4.78206 0
M  V30 3710 H 358.026 -0.977029 -4.04467 0
M  V30 3711 H 356.902 -0.85292 -5.42233 0
M  V30 3712 H 357.163 0.542328 -4.38761 0
M  V30 3713 N 356.222 1.38976 -0.743202 0
M  V30 3714 C 357.633 1.83123 -0.363732 0
M  V30 3715 C 357.984 1.6205 1.10609 0
M  V30 3716 O 357.109 1.11606 1.854 0
M  V30 3717 C 357.704 3.32439 -0.653408 0
M  V30 3718 C 356.263 3.74974 -0.327338 0
M  V30 3719 C 355.41 2.61878 -0.911875 0
M  V30 3720 H 358.361 1.27852 -0.940191 0
M  V30 3721 H 358.382 3.80432 0.0720031 0
M  V30 3722 H 357.894 3.47745 -1.72323 0
M  V30 3723 H 355.995 3.65252 0.736314 0
M  V30 3724 H 356.108 4.72106 -0.815631 0
M  V30 3725 H 354.472 2.52448 -0.337944 0
M  V30 3726 H 355.255 2.79987 -1.98651 0
M  V30 3727 N 357.7 0.491464 1.49741 0
M  V30 3728 C 358.977 -0.118984 1.95238 0
M  V30 3729 C 359.357 -1.55044 1.43264 0
M  V30 3730 O 358.705 -2.19287 0.642287 0
M  V30 3731 C 358.915 -0.0414187 3.48975 0
M  V30 3732 C 360.263 -0.220133 4.24029 0
M  V30 3733 O 361.287 -0.117055 3.56008 0
M  V30 3734 O 360.146 -0.430567 5.44801 0
M  V30 3735 H 357.24 -0.100536 0.820866 0
M  V30 3736 H 359.786 0.553322 1.60426 0
M  V30 3737 H 358.558 0.957214 3.79412 0
M  V30 3738 H 358.181 -0.754292 3.9038 0
M  V30 3739 N 359.178 -1.55987 0.224894 0
M  V30 3740 C 360.455 -1.90232 -0.455083 0
M  V30 3741 C 360.835 -1.14269 -1.77499 0
M  V30 3742 O 360.183 -0.253079 -2.27094 0
M  V30 3743 C 360.393 -3.42993 -0.644758 0
M  V30 3744 C 361.741 -4.13821 -0.950669 0
M  V30 3745 O 362.765 -3.4861 -0.731423 0
M  V30 3746 O 361.624 -5.29128 -1.36695 0
M  V30 3747 H 358.718 -0.79108 -0.241084 0
M  V30 3748 H 361.264 -1.67581 0.267327 0
M  V30 3749 H 360.036 -3.90252 0.28613 0
M  V30 3750 H 359.659 -3.71434 -1.41853 0
M  V30 3751 N 360.656 0.0484629 -1.57525 0
M  V30 3752 C 361.603 1.05504 -2.05275 0
M  V30 3753 C 362.573 1.37084 -0.937927 0
M  V30 3754 O 363.758 1.47754 -1.2072 0
M  V30 3755 C 360.898 2.35676 -2.52093 0
M  V30 3756 C 360.011 2.10423 -3.77288 0
M  V30 3757 C 359.146 3.34327 -4.12794 0
M  V30 3758 C 358.185 3.04542 -5.30962 0
M  V30 3759 N 357.322 4.20841 -5.61994 0
M  V30 3760 H 362.162 0.640885 -2.91027 0
M  V30 3761 H 359.699 0.304854 -1.43906 0
M  V30 3762 H 361.657 3.11709 -2.77297 0
M  V30 3763 H 360.287 2.7485 -1.69285 0
M  V30 3764 H 359.339 1.24976 -3.59284 0
M  V30 3765 H 360.651 1.84438 -4.63448 0
M  V30 3766 H 359.805 4.1874 -4.39024 0
M  V30 3767 H 358.544 3.63408 -3.25247 0
M  V30 3768 H 357.549 2.18528 -5.04505 0
M  V30 3769 H 358.774 2.76758 -6.20146 0
M  V30 3770 H 356.72 4.4991 -4.77406 0
M  V30 3771 H 356.637 3.98212 -6.42622 0
M  V30 3772 H 357.905 5.06184 -5.92789 0
M  V30 3773 N 362.134 1.5431 0.320358 0
M  V30 3774 C 363.081 1.83918 1.39438 0
M  V30 3775 C 364.051 0.686525 1.51248 0
M  V30 3776 O 365.236 0.933269 1.66417 0
M  V30 3777 C 362.376 2.075 2.75749 0
M  V30 3778 C 361.489 3.35177 2.72544 0
M  V30 3779 C 360.624 3.48704 4.00723 0
M  V30 3780 C 359.663 4.70244 3.91838 0
M  V30 3781 N 358.8 4.80679 5.11754 0
M  V30 3782 H 363.64 2.75544 1.13489 0
M  V30 3783 H 361.177 1.36459 0.549309 0
M  V30 3784 H 363.135 2.19166 3.54996 0
M  V30 3785 H 361.765 1.19163 3 0
M  V30 3786 H 360.817 3.32233 1.85271 0
M  V30 3787 H 362.129 4.24534 2.61863 0
M  V30 3788 H 361.283 3.59928 4.88402 0
M  V30 3789 H 360.022 2.57445 4.14214 0
M  V30 3790 H 359.027 4.59072 3.02544 0
M  V30 3791 H 360.252 5.6289 3.7991 0
M  V30 3792 H 358.198 3.92337 5.25745 0
M  V30 3793 H 358.115 5.64007 5.0342 0
M  V30 3794 H 359.383 4.96239 6.01138 0
M  V30 3795 N 363.613 -0.582584 1.46437 0
M  V30 3796 C 365.024 -1.1647 1.45916 0
M  V30 3797 C 365.375 -1.95177 0.200077 0
M  V30 3798 O 364.5 -2.04874 -0.696819 0
M  V30 3799 C 365.095 -2.11885 2.64367 0
M  V30 3800 C 363.654 -2.65421 2.66887 0
M  V30 3801 C 362.801 -1.41294 2.38603 0
M  V30 3802 H 365.752 -0.370514 1.54314 0
M  V30 3803 H 365.773 -2.9535 2.39892 0
M  V30 3804 H 365.285 -1.54573 3.5599 0
M  V30 3805 H 363.386 -3.26602 1.79338 0
M  V30 3806 H 363.499 -3.08147 3.66854 0
M  V30 3807 H 361.863 -1.71109 1.88663 0
M  V30 3808 H 362.646 -0.858125 3.32402 0
M  V30 3809 N 365.091 -1.34144 -0.827227 0
M  V30 3810 C 366.039 -1.25364 -1.95925 0
M  V30 3811 C 367.033 -0.152608 -1.68711 0
M  V30 3812 O 368.239 -0.317311 -1.77181 0
M  V30 3813 H 364.614 -0.389342 -0.643364 0
M  V30 3814 H 366.585 -2.21045 -2.00454 0
M  V30 3815 C 365.334 -1.02158 -3.32354 0
M  V30 3816 H 364.657 -1.86111 -3.5384 0
M  V30 3817 H 366.097 -1.00048 -4.12027 0
M  V30 3818 C 364.556 0.275244 -3.35774 0
M  V30 3819 O 365.086 1.27806 -3.80826 0
M  V30 3820 N 363.292 0.306853 -2.88975 0
M  V30 3821 H 362.839 -0.509777 -2.52506 0
M  V30 3822 H 362.797 1.17432 -2.91646 0
M  V30 3823 N 366.569 1.04691 -1.17803 0
M  V30 3824 C 367.817 1.7743 -0.967617 0
M  V30 3825 C 368.138 1.88359 0.504574 0
M  V30 3826 O 367.408 1.40402 1.36617 0
M  V30 3827 H 365.988 0.657242 -0.355024 0
M  V30 3828 H 368.65 1.2638 -1.48371 0
M  V30 3829 H 367.746 2.78924 -1.40027 0
M  V30 3830 N 368.047 0.979072 1.23499 0
M  V30 3831 C 369.463 0.687475 1.44034 0
M  V30 3832 C 369.663 -0.746801 1.8715 0
M  V30 3833 O 368.719 -1.51939 2.0167 0
M  V30 3834 C 370.032 1.68127 2.49307 0
M  V30 3835 C 371.58 1.69516 2.63122 0
M  V30 3836 C 372.055 2.67723 3.71603 0
M  V30 3837 N 373.546 2.66233 3.79044 0
M  V30 3838 C 374.281 3.38891 4.62537 0
M  V30 3839 N 373.777 4.21103 5.50131 0
M  V30 3840 N 375.57 3.27661 4.56721 0
M  V30 3841 H 367.721 1.90559 0.938135 0
M  V30 3842 H 369.984 0.821051 0.473897 0
M  V30 3843 H 369.69 2.70693 2.2454 0
M  V30 3844 H 369.564 1.46306 3.4767 0
M  V30 3845 H 371.951 0.676561 2.8724 0
M  V30 3846 H 372.032 1.95404 1.65079 0
M  V30 3847 H 371.676 3.69724 3.48233 0
M  V30 3848 H 371.606 2.39111 4.69184 0
M  V30 3849 H 374.097 2.06568 3.16446 0
M  V30 3850 H 374.41 4.73403 6.10827 0
M  V30 3851 H 372.755 4.25195 5.49759 0
M  V30 3852 H 375.946 2.62887 3.87309 0
M  V30 3853 H 376.119 3.84547 5.21562 0
M  V30 3854 N 369.525 -1.3858 0.750561 0
M  V30 3855 C 370.472 -2.30483 0.120835 0
M  V30 3856 C 371.442 -1.50022 -0.712923 0
M  V30 3857 O 372.627 -1.78662 -0.669676 0
M  V30 3858 C 369.767 -3.36431 -0.768666 0
M  V30 3859 C 368.88 -4.31927 0.0793922 0
M  V30 3860 C 368.015 -5.24944 -0.81283 0
M  V30 3861 C 367.054 -6.12088 0.0390447 0
M  V30 3862 N 366.191 -6.97412 -0.809969 0
M  V30 3863 H 371.031 -2.83761 0.91015 0
M  V30 3864 H 368.568 -1.39707 0.460463 0
M  V30 3865 H 370.526 -3.96462 -1.29898 0
M  V30 3866 H 369.156 -2.8457 -1.5238 0
M  V30 3867 H 368.208 -3.73382 0.727303 0
M  V30 3868 H 369.52 -4.93319 0.737401 0
M  V30 3869 H 368.674 -5.90078 -1.41042 0
M  V30 3870 H 367.413 -4.63911 -1.50458 0
M  V30 3871 H 366.418 -5.45952 0.649328 0
M  V30 3872 H 367.643 -6.75189 0.727809 0
M  V30 3873 H 365.589 -6.38931 -1.48672 0
M  V30 3874 H 365.506 -7.55712 -0.208789 0
M  V30 3875 H 366.774 -7.66959 -1.39263 0
M  V30 3876 N 371.003 -0.499398 -1.49478 0
M  V30 3877 C 372.249 0.0457576 -2.02748 0
M  V30 3878 C 372.582 1.36793 -1.37846 0
M  V30 3879 O 371.857 1.87596 -0.513601 0
M  V30 3880 C 372.14 0.199986 -3.59544 0
M  V30 3881 C 371.993 -1.1452 -4.34977 0
M  V30 3882 C 373.312 0.94137 -4.29914 0
M  V30 3883 H 370.431 0.0151552 -0.736844 0
M  V30 3884 H 373.073 -0.650498 -1.78518 0
M  V30 3885 H 371.223 0.793007 -3.8032 0
M  V30 3886 H 372.895 -1.77697 -4.25701 0
M  V30 3887 H 371.138 -1.73488 -3.97598 0
M  V30 3888 H 371.809 -0.990607 -5.43039 0
M  V30 3889 H 374.285 0.43844 -4.13784 0
M  V30 3890 H 373.161 1.01812 -5.39375 0
M  V30 3891 H 373.422 1.98471 -3.95046 0
M  V30 3892 N 372.481 1.55866 -0.233164 0
M  V30 3893 C 373.727 1.98897 0.395959 0
M  V30 3894 C 374.06 1.12091 1.58585 0
M  V30 3895 O 373.335 0.181182 1.93654 0
M  V30 3896 C 373.618 3.50658 0.819224 0
M  V30 3897 C 373.471 4.48233 -0.375109 0
M  V30 3898 C 374.79 4.07135 1.67121 0
M  V30 3899 H 371.909 0.723102 0.142451 0
M  V30 3900 H 374.551 1.87082 -0.331725 0
M  V30 3901 H 372.701 3.60857 1.43925 0
M  V30 3902 H 374.373 4.50031 -1.01341 0
M  V30 3903 H 372.616 4.21624 -1.02058 0
M  V30 3904 H 373.287 5.51988 -0.0358328 0
M  V30 3905 H 375.763 3.99952 1.14795 0
M  V30 3906 H 374.639 5.13615 1.93625 0
M  V30 3907 H 374.9 3.54736 2.63846 0
M  V30 3908 N 373.959 -0.0401083 1.57549 0
M  V30 3909 C 375.207 -0.731677 1.8839 0
M  V30 3910 C 375.528 -1.76481 0.829425 0
M  V30 3911 O 374.798 -1.95411 -0.1383 0
M  V30 3912 H 373.378 -0.273225 0.695239 0
M  V30 3913 H 376.04 -0.00867725 1.94898 0
M  V30 3914 H 375.136 -1.22816 2.86919 0
M  V30 3915 N 375.437 -1.54477 -0.31217 0
M  V30 3916 C 376.714 -1.63891 -1.06767 0
M  V30 3917 C 377.094 -0.480028 -2.0557 0
M  V30 3918 O 376.442 0.524487 -2.22399 0
M  V30 3919 C 376.652 -3.01402 -1.75948 0
M  V30 3920 C 378 -3.57838 -2.28554 0
M  V30 3921 O 379.024 -3.03782 -1.85998 0
M  V30 3922 O 377.883 -4.52462 -3.06497 0
M  V30 3923 H 374.977 -0.664125 -0.492816 0
M  V30 3924 H 377.523 -1.66823 -0.311149 0
M  V30 3925 H 376.295 -3.77187 -1.04144 0
M  V30 3926 H 375.918 -3.02199 -2.58383 0
M  V30 3927 N 376.915 0.57481 -1.46744 0
M  V30 3928 C 378.161 1.3347 -1.52688 0
M  V30 3929 C 378.494 1.93353 -0.181229 0
M  V30 3930 O 377.769 1.76912 0.808237 0
M  V30 3931 C 378.052 2.45811 -2.63152 0
M  V30 3932 C 377.905 1.90912 -4.07275 0
M  V30 3933 C 379.224 3.47822 -2.69644 0
M  V30 3934 H 376.343 0.483935 -0.555856 0
M  V30 3935 H 378.985 0.644968 -1.78718 0
M  V30 3936 H 377.135 3.04646 -2.41088 0
M  V30 3937 H 378.807 1.36473 -4.4065 0
M  V30 3938 H 377.05 1.21691 -4.16382 0
M  V30 3939 H 377.721 2.72042 -4.80309 0
M  V30 3940 H 380.197 2.9888 -2.895 0
M  V30 3941 H 379.073 4.23876 -3.48742 0
M  V30 3942 H 379.334 4.05555 -1.76005 0
M  V30 3943 N 378.394 1.34581 0.820102 0
M  V30 3944 C 379.357 1.2628 1.91275 0
M  V30 3945 C 380.357 0.177344 1.59819 0
M  V30 3946 O 381.547 0.430156 1.68806 0
M  V30 3947 C 378.679 0.950327 3.27386 0
M  V30 3948 H 379.872 2.23421 2.00057 0
M  V30 3949 H 377.425 1.1891 1.0144 0
M  V30 3950 H 378.16 -0.0177938 3.24295 0
M  V30 3951 H 377.945 1.73549 3.51601 0
M  V30 3952 H 379.435 0.917492 4.07396 0
M  V30 3953 N 379.872 -1.04064 1.18357 0
M  V30 3954 C 381.102 -1.80654 1.00238 0
M  V30 3955 C 381.51 -1.83713 -0.452362 0
M  V30 3956 O 380.853 -1.27135 -1.32599 0
M  V30 3957 C 380.915 -3.27582 1.48088 0
M  V30 3958 C 380.579 -3.48184 2.96002 0
M  V30 3959 C 381.576 -3.39372 3.93856 0
M  V30 3960 C 379.261 -3.7478 3.34433 0
M  V30 3961 C 381.255 -3.5686 5.28138 0
M  V30 3962 C 378.942 -3.91915 4.68877 0
M  V30 3963 C 379.94 -3.82956 5.65539 0
M  V30 3964 O 379.628 -3.996 6.97549 0
M  V30 3965 H 379.36 -0.575751 0.354241 0
M  V30 3966 H 381.914 -1.32044 1.57333 0
M  V30 3967 H 380.144 -3.77161 0.853588 0
M  V30 3968 H 381.833 -3.8573 1.2636 0
M  V30 3969 H 382.599 -3.18789 3.65511 0
M  V30 3970 H 378.478 -3.80852 2.59756 0
M  V30 3971 H 382.022 -3.49783 6.03571 0
M  V30 3972 H 377.919 -4.11992 4.96923 0
M  V30 3973 H 378.687 -4.1676 7.04452 0
M  V30 3974 N 381.35 -0.985608 -1.22978 0
M  V30 3975 C 382.627 -0.573599 -1.87001 0
M  V30 3976 C 383.007 0.949213 -1.88555 0
M  V30 3977 O 382.355 1.82811 -1.37086 0
M  V30 3978 C 382.565 -1.18564 -3.28243 0
M  V30 3979 C 383.913 -1.28163 -4.04796 0
M  V30 3980 O 384.937 -1.13949 -3.37482 0
M  V30 3981 O 383.796 -1.50832 -5.25273 0
M  V30 3982 H 380.89 -0.193868 -0.803955 0
M  V30 3983 H 383.436 -1.08102 -1.30813 0
M  V30 3984 H 382.208 -2.22758 -3.21706 0
M  V30 3985 H 381.831 -0.663363 -3.92027 0
M  V30 3986 N 382.828 1.3818 -0.7579 0
M  V30 3987 C 383.738 2.3421 -0.135247 0
M  V30 3988 C 384.754 1.59487 0.695683 0
M  V30 3989 O 385.93 1.91657 0.618832 0
M  V30 3990 C 382.995 3.3862 0.744139 0
M  V30 3991 C 382.056 4.2918 -0.101658 0
M  V30 3992 C 381.289 5.28603 0.735851 0
M  V30 3993 O 381.512 5.35166 1.97366 0
M  V30 3994 O 380.446 6.01707 0.152372 0
M  V30 3995 H 384.272 2.8916 -0.928436 0
M  V30 3996 H 381.857 1.40101 -0.518855 0
M  V30 3997 H 383.739 4.02539 1.2466 0
M  V30 3998 H 382.414 2.86019 1.51575 0
M  V30 3999 H 381.321 3.68407 -0.650167 0
M  V30 4000 H 382.654 4.85048 -0.836024 0
M  V30 4001 N 384.306 0.507319 1.49211 0
M  V30 4002 C 385.269 -0.256763 2.27757 0
M  V30 4003 C 386.269 -0.888287 1.34038 0
M  V30 4004 O 387.459 -0.751841 1.5714 0
M  V30 4005 C 384.591 -1.36905 3.12202 0
M  V30 4006 H 385.784 0.432557 2.96764 0
M  V30 4007 H 383.337 0.262488 1.5408 0
M  V30 4008 H 384.072 -2.09233 2.47775 0
M  V30 4009 H 383.857 -0.921599 3.81115 0
M  V30 4010 H 385.347 -1.9071 3.7151 0
M  V30 4011 N 385.784 -1.5574 0.241426 0
M  V30 4012 C 386.731 -2.21149 -0.660432 0
M  V30 4013 C 387.701 -1.17356 -1.17545 0
M  V30 4014 O 388.886 -1.45784 -1.23093 0
M  V30 4015 C 386.026 -2.91059 -1.85414 0
M  V30 4016 C 385.139 -4.09495 -1.37616 0
M  V30 4017 C 384.274 -4.67135 -2.529 0
M  V30 4018 C 383.313 -5.77831 -2.01936 0
M  V30 4019 N 382.45 -6.29677 -3.10566 0
M  V30 4020 H 387.29 -2.97845 -0.095955 0
M  V30 4021 H 384.827 -1.47057 -0.0356024 0
M  V30 4022 H 386.785 -3.29788 -2.5553 0
M  V30 4023 H 385.415 -2.16846 -2.39118 0
M  V30 4024 H 384.467 -3.76117 -0.569235 0
M  V30 4025 H 385.779 -4.89423 -0.962618 0
M  V30 4026 H 384.933 -5.08409 -3.31067 0
M  V30 4027 H 383.672 -3.86411 -2.97553 0
M  V30 4028 H 382.677 -5.36039 -1.22238 0
M  V30 4029 H 383.902 -6.60402 -1.58259 0
M  V30 4030 H 381.848 -5.5186 -3.54664 0
M  V30 4031 H 381.765 -7.04783 -2.73526 0
M  V30 4032 H 383.033 -6.75609 -3.88809 0
M  V30 4033 N 387.262 0.0317525 -1.57568 0
M  V30 4034 C 388.172 1.05021 -2.0978 0
M  V30 4035 C 389.188 1.39809 -1.03583 0
M  V30 4036 O 390.364 1.49182 -1.35302 0
M  V30 4037 C 387.429 2.33301 -2.56459 0
M  V30 4038 C 386.49 2.0512 -3.77127 0
M  V30 4039 C 385.723 3.27283 -4.2157 0
M  V30 4040 O 385.946 4.37861 -3.65559 0
M  V30 4041 O 384.88 3.13141 -5.14029 0
M  V30 4042 H 388.706 0.636505 -2.96955 0
M  V30 4043 H 386.291 0.248559 -1.47318 0
M  V30 4044 H 388.173 3.08722 -2.86825 0
M  V30 4045 H 386.848 2.73973 -1.72397 0
M  V30 4046 H 385.755 1.27276 -3.51784 0
M  V30 4047 H 387.088 1.69305 -4.62165 0
M  V30 4048 N 388.74 1.54641 0.303973 0
M  V30 4049 C 390.156 1.45788 0.649463 0
M  V30 4050 C 390.356 0.64666 1.90842 0
M  V30 4051 O 389.412 0.153183 2.52035 0
M  V30 4052 C 390.725 2.89718 0.805227 0
M  V30 4053 C 392.273 2.99742 0.901305 0
M  V30 4054 C 392.748 4.44863 1.08909 0
M  V30 4055 N 394.239 4.48559 1.15536 0
M  V30 4056 C 394.974 5.58026 1.3189 0
M  V30 4057 N 394.47 6.77422 1.45161 0
M  V30 4058 N 396.263 5.45708 1.34755 0
M  V30 4059 H 388.414 2.05854 -0.523237 0
M  V30 4060 H 390.677 0.932186 -0.172431 0
M  V30 4061 H 390.383 3.51666 -0.0489108 0
M  V30 4062 H 390.257 3.36964 1.69513 0
M  V30 4063 H 392.644 2.3791 1.74593 0
M  V30 4064 H 392.725 2.55797 -0.0125531 0
M  V30 4065 H 392.369 5.07288 0.249241 0
M  V30 4066 H 392.299 4.86436 2.01713 0
M  V30 4067 H 394.79 3.6254 1.06646 0
M  V30 4068 H 395.103 7.56604 1.57387 0
M  V30 4069 H 393.448 6.80292 1.42223 0
M  V30 4070 H 396.639 4.51378 1.23996 0
M  V30 4071 H 396.812 6.3107 1.47157 0
M  V30 4072 N 390.218 -0.567019 1.47046 0
M  V30 4073 C 391.181 -1.65696 1.58359 0
M  V30 4074 C 392.181 -1.54097 0.459441 0
M  V30 4075 O 393.371 -1.58432 0.724225 0
M  V30 4076 C 390.503 -3.05197 1.51879 0
M  V30 4077 H 391.696 -1.57019 2.5551 0
M  V30 4078 H 389.249 -0.786148 1.3509 0
M  V30 4079 H 389.984 -3.19417 0.560673 0
M  V30 4080 H 389.769 -3.15025 2.33455 0
M  V30 4081 H 391.259 -3.84511 1.62913 0
M  V30 4082 N 391.696 -1.35014 -0.812953 0
M  V30 4083 C 392.921 -1.31187 -1.60639 0
M  V30 4084 C 393.346 0.109382 -1.87782 0
M  V30 4085 O 392.704 1.07424 -1.46047 0
M  V30 4086 C 392.752 -2.11809 -2.91838 0
M  V30 4087 O 391.856 -1.49444 -3.8437 0
M  V30 4088 H 391.197 -0.450084 -0.488181 0
M  V30 4089 H 393.727 -1.77963 -1.00947 0
M  V30 4090 H 393.737 -2.23531 -3.41318 0
M  V30 4091 H 392.412 -3.15137 -2.71407 0
M  V30 4092 H 390.989 -1.46524 -3.42907 0
M  V30 4093 N 393.175 1.03435 -1.18907 0
M  V30 4094 C 394.422 1.76743 -0.988334 0
M  V30 4095 C 394.75 1.88447 0.481441 0
M  V30 4096 O 394.005 1.39383 1.37371 0
M  V30 4097 C 394.304 3.19792 -1.59586 0
M  V30 4098 C 393.97 3.28108 -3.09283 0
M  V30 4099 C 392.632 3.30084 -3.5014 0
M  V30 4100 C 394.984 3.27696 -4.05296 0
M  V30 4101 C 392.312 3.29299 -4.85571 0
M  V30 4102 C 394.664 3.28451 -5.4065 0
M  V30 4103 C 393.328 3.28723 -5.80946 0
M  V30 4104 H 392.598 0.64675 -0.361657 0
M  V30 4105 H 395.245 1.21442 -1.48068 0
M  V30 4106 H 393.55 3.78136 -1.02568 0
M  V30 4107 H 395.247 3.75171 -1.41589 0
M  V30 4108 H 391.837 3.27294 -2.76725 0
M  V30 4109 H 396.021 3.25354 -3.74778 0
M  V30 4110 H 391.277 3.2783 -5.16079 0
M  V30 4111 H 395.451 3.27082 -6.14809 0
M  V30 4112 H 393.078 3.27868 -6.85862 0
M  V30 4113 N 394.653 0.992116 1.22453 0
M  V30 4114 C 395.902 0.662992 1.90492 0
M  V30 4115 C 396.215 -0.808407 1.78113 0
M  V30 4116 O 397.421 -1.24908 2.41061 0
M  V30 4117 C 395.877 1.1353 3.41524 0
M  V30 4118 C 395.485 2.63187 3.62542 0
M  V30 4119 C 397.229 0.880465 4.15269 0
M  V30 4120 C 395.136 3.04024 5.0727 0
M  V30 4121 H 394.066 0.244278 0.713333 0
M  V30 4122 H 396.717 1.20157 1.38688 0
M  V30 4123 H 395.099 0.52485 3.92506 0
M  V30 4124 H 396.273 3.2957 3.22056 0
M  V30 4125 H 394.588 2.86543 3.02129 0
M  V30 4126 H 397.185 1.16128 5.21937 0
M  V30 4127 H 397.528 -0.183408 4.15896 0
M  V30 4128 H 398.061 1.45307 3.70312 0
M  V30 4129 H 394.8 4.09584 5.11782 0
M  V30 4130 H 394.32 2.42343 5.48662 0
M  V30 4131 H 395.999 2.95282 5.75689 0
M  V30 4132 N 396.131 -1.37776 0.765217 0
M  V30 4133 C 397.359 -2.04124 0.337767 0
M  V30 4134 C 397.774 -1.57715 -1.03785 0
M  V30 4135 O 397.131 -0.755447 -1.6613 0
M  V30 4136 C 397.182 -3.59658 0.364442 0
M  V30 4137 O 396.903 -4.04367 1.68579 0
M  V30 4138 C 398.404 -4.43236 -0.0754221 0
M  V30 4139 H 395.624 -0.655696 0.142491 0
M  V30 4140 H 398.168 -1.76238 1.03732 0
M  V30 4141 H 396.323 -3.86339 -0.286471 0
M  V30 4142 H 396.737 -4.98857 1.61993 0
M  V30 4143 H 398.211 -5.52 -0.00560067 0
M  V30 4144 H 398.688 -4.2455 -1.12491 0
M  V30 4145 H 399.294 -4.21767 0.547055 0
M  V30 4146 N 397.609 -0.515225 -1.4894 0
M  V30 4147 C 399.02 -0.0710067 -1.86565 0
M  V30 4148 C 399.371 1.34733 -1.42623 0
M  V30 4149 O 398.496 2.00653 -0.810379 0
M  V30 4150 C 399.091 -0.122083 -3.3858 0
M  V30 4151 C 397.65 0.266863 -3.75453 0
M  V30 4152 C 396.797 -0.488376 -2.72966 0
M  V30 4153 H 399.748 -0.727266 -1.41055 0
M  V30 4154 H 399.769 0.669818 -3.74558 0
M  V30 4155 H 399.281 -1.15448 -3.70531 0
M  V30 4156 H 397.382 1.30196 -3.49113 0
M  V30 4157 H 397.495 -0.0624811 -4.79059 0
M  V30 4158 H 395.859 0.0635622 -2.54621 0
M  V30 4159 H 396.642 -1.52113 -3.07761 0
M  V30 4160 N 399.087 1.5561 -0.249682 0
M  V30 4161 C 400.333 1.99306 0.374841 0
M  V30 4162 C 400.666 1.13767 1.57387 0
M  V30 4163 O 399.941 0.201711 1.93451 0
M  V30 4164 C 400.224 3.51507 0.781986 0
M  V30 4165 C 400.077 4.4781 -0.422629 0
M  V30 4166 C 401.396 4.08884 1.62793 0
M  V30 4167 H 398.515 0.724572 0.134773 0
M  V30 4168 H 401.157 1.86719 -0.351549 0
M  V30 4169 H 399.307 3.62363 1.4009 0
M  V30 4170 H 400.979 4.48931 -1.06108 0
M  V30 4171 H 399.222 4.20518 -1.06524 0
M  V30 4172 H 399.893 5.51919 -0.0943766 0
M  V30 4173 H 402.369 4.01147 1.10547 0
M  V30 4174 H 401.245 5.1564 1.88166 0
M  V30 4175 H 401.506 3.57515 2.60068 0
M  V30 4176 N 400.565 -0.0233959 1.57583 0
M  V30 4177 C 401.976 -0.56927 1.77809 0
M  V30 4178 C 402.327 -1.75284 0.881472 0
M  V30 4179 O 401.452 -2.1626 0.0777805 0
M  V30 4180 C 402.047 -1.03949 3.22459 0
M  V30 4181 C 400.606 -1.53084 3.43864 0
M  V30 4182 C 399.753 -0.471454 2.73263 0
M  V30 4183 H 402.704 0.202825 1.57399 0
M  V30 4184 H 402.725 -1.90661 3.29285 0
M  V30 4185 H 402.237 -0.177865 3.87692 0
M  V30 4186 H 400.338 -2.41414 2.83814 0
M  V30 4187 H 400.451 -1.57443 4.52491 0
M  V30 4188 H 398.815 -0.927788 2.37201 0
M  V30 4189 H 399.598 0.380808 3.41181 0
M  V30 4190 N 402.043 -1.548 -0.295768 0
M  V30 4191 C 403.291 -1.73985 -1.02828 0
M  V30 4192 C 403.612 -0.531406 -1.87619 0
M  V30 4193 O 402.882 0.454221 -1.90561 0
M  V30 4194 H 401.462 -0.641556 -0.382642 0
M  V30 4195 H 404.124 -1.92163 -0.325489 0
M  V30 4196 H 403.22 -2.63129 -1.67838 0
M  V30 4197 N 403.521 0.559213 -1.47345 0
M  V30 4198 C 404.769 1.31388 -1.53563 0
M  V30 4199 C 405.09 1.93985 -0.198678 0
M  V30 4200 O 404.36 1.79825 0.777167 0
M  V30 4201 H 402.94 0.487901 -0.565652 0
M  V30 4202 H 405.602 0.65315 -1.8363 0
M  V30 4203 H 404.698 2.10844 -2.30111 0
M  V30 4204 N 404.999 1.35443 0.805782 0
M  V30 4205 C 406.245 1.28952 1.56522 0
M  V30 4206 C 406.578 -0.135597 1.93726 0
M  V30 4207 O 405.853 -1.08516 1.61414 0
M  V30 4208 C 406.136 2.19678 2.85331 0
M  V30 4209 C 405.989 3.7081 2.54598 0
M  V30 4210 C 407.308 2.09495 3.8704 0
M  V30 4211 H 404.427 0.469764 0.567883 0
M  V30 4212 H 407.069 1.65851 0.927001 0
M  V30 4213 H 405.219 1.8834 3.39795 0
M  V30 4214 H 406.891 4.12593 2.06312 0
M  V30 4215 H 405.134 3.91051 1.8778 0
M  V30 4216 H 405.805 4.29679 3.46525 0
M  V30 4217 H 408.281 2.37045 3.41978 0
M  V30 4218 H 407.157 2.75173 4.74943 0
M  V30 4219 H 407.418 1.07714 4.28777 0
M  V30 4220 N 406.477 -1.02803 1.19454 0
M  V30 4221 C 407.725 -1.75869 0.995722 0
M  V30 4222 C 408.046 -1.89138 -0.474543 0
M  V30 4223 O 407.316 -1.42558 -1.34366 0
M  V30 4224 H 405.896 -0.651511 0.365435 0
M  V30 4225 H 408.558 -1.24004 1.50363 0
M  V30 4226 H 407.654 -2.76661 1.44447 0
M  V30 4227 N 407.956 -0.998596 -1.21925 0
M  V30 4228 C 409.367 -0.711939 -1.72593 0
M  V30 4229 C 409.718 0.770842 -1.80423 0
M  V30 4230 O 408.843 1.60237 -1.4544 0
M  V30 4231 C 409.438 -1.28567 -3.13458 0
M  V30 4232 C 407.997 -1.04828 -3.61508 0
M  V30 4233 C 407.144 -1.4024 -2.39224 0
M  V30 4234 H 410.095 -1.17027 -1.07193 0
M  V30 4235 H 410.116 -0.667098 -3.74607 0
M  V30 4236 H 409.628 -2.36486 -3.07727 0
M  V30 4237 H 407.729 0.0140383 -3.72597 0
M  V30 4238 H 407.842 -1.71566 -4.47328 0
M  V30 4239 H 406.206 -0.821077 -2.41103 0
M  V30 4240 H 406.989 -2.49176 -2.36149 0
M  V30 4241 N 409.434 1.37368 -0.772513 0
M  V30 4242 C 410.367 2.27956 -0.105593 0
M  V30 4243 C 411.345 1.46362 0.708295 0
M  V30 4244 O 412.529 1.75695 0.682895 0
M  V30 4245 C 409.656 3.27687 0.856686 0
M  V30 4246 C 408.702 4.26312 0.1267 0
M  V30 4247 S 409.535 5.22206 -1.1858 0
M  V30 4248 C 410.691 6.25488 -0.227081 0
M  V30 4249 H 410.924 2.84171 -0.87372 0
M  V30 4250 H 408.457 1.43654 -0.565939 0
M  V30 4251 H 410.415 3.85653 1.40648 0
M  V30 4252 H 409.076 2.70417 1.59793 0
M  V30 4253 H 408.269 4.96674 0.856212 0
M  V30 4254 H 407.871 3.72339 -0.352117 0
M  V30 4255 H 410.163 6.74836 0.600231 0
M  V30 4256 H 411.106 7.02371 -0.898899 0
M  V30 4257 H 411.514 5.64267 0.162053 0
M  V30 4258 N 410.912 0.523116 1.48665 0
M  V30 4259 C 412.14 -0.0096312 2.06898 0
M  V30 4260 C 412.555 -1.28784 1.38059 0
M  V30 4261 O 411.912 -1.76453 0.465893 0
M  V30 4262 C 411.963 -0.244386 3.60673 0
M  V30 4263 O 411.684 0.983172 4.26925 0
M  V30 4264 C 413.185 -0.818289 4.35682 0
M  V30 4265 H 410.405 0.0304161 0.67031 0
M  V30 4266 H 412.949 0.726799 1.91149 0
M  V30 4267 H 411.104 -0.930847 3.76051 0
M  V30 4268 H 411.518 0.759653 5.1897 0
M  V30 4269 H 412.992 -0.93201 5.44075 0
M  V30 4270 H 413.469 -1.82153 3.99646 0
M  V30 4271 H 414.075 -0.168609 4.24966 0
M  V30 4272 N 412.39 -1.55475 0.257931 0
M  V30 4273 C 413.636 -1.99502 -0.364266 0
M  V30 4274 C 413.969 -1.146 -1.56782 0
M  V30 4275 O 413.244 -0.211968 -1.93342 0
M  V30 4276 C 413.527 -3.51917 -0.763333 0
M  V30 4277 C 413.38 -4.4758 0.446371 0
M  V30 4278 C 414.699 -4.09742 -1.60623 0
M  V30 4279 H 411.818 -0.725277 -0.130929 0
M  V30 4280 H 414.46 -1.8653 0.361446 0
M  V30 4281 H 412.61 -3.63101 -1.38166 0
M  V30 4282 H 414.282 -4.48362 1.08487 0
M  V30 4283 H 412.525 -4.19947 1.08753 0
M  V30 4284 H 413.196 -5.51862 0.123645 0
M  V30 4285 H 415.672 -4.01727 -1.08418 0
M  V30 4286 H 414.548 -5.16631 -1.85429 0
M  V30 4287 H 414.809 -3.58889 -2.58169 0
M  V30 4288 N 413.868 0.0150385 -1.57593 0
M  V30 4289 C 414.831 0.995996 -2.06428 0
M  V30 4290 C 415.831 1.2818 -0.970903 0
M  V30 4291 O 417.021 1.22949 -1.23406 0
M  V30 4292 C 414.153 2.32506 -2.49307 0
M  V30 4293 H 415.346 0.573873 -2.94358 0
M  V30 4294 H 412.899 0.262186 -1.54085 0
M  V30 4295 H 413.634 2.79438 -1.64575 0
M  V30 4296 H 413.419 2.13087 -3.29145 0
M  V30 4297 H 414.909 3.02906 -2.87468 0
M  V30 4298 N 415.346 1.54954 0.287554 0
M  V30 4299 C 416.279 1.81737 1.3801 0
M  V30 4300 C 417.257 0.669412 1.48181 0
M  V30 4301 O 418.441 0.910839 1.65033 0
M  V30 4302 C 415.568 1.96606 2.75796 0
M  V30 4303 C 414.614 3.19098 2.82982 0
M  V30 4304 S 415.447 4.7683 2.43707 0
M  V30 4305 C 416.603 4.94653 3.83496 0
M  V30 4306 H 416.836 2.74122 1.15085 0
M  V30 4307 H 414.369 1.46538 0.486403 0
M  V30 4308 H 416.327 2.05858 3.55152 0
M  V30 4309 H 414.988 1.05136 2.95982 0
M  V30 4310 H 414.181 3.26344 3.84077 0
M  V30 4311 H 413.783 3.08361 2.11635 0
M  V30 4312 H 416.075 4.79502 4.78628 0
M  V30 4313 H 417.018 5.96728 3.8121 0
M  V30 4314 H 417.426 4.2272 3.74123 0
M  V30 4315 N 416.824 -0.551391 1.4764 0
M  V30 4316 C 417.754 -1.66757 1.63445 0
M  V30 4317 C 418.735 -1.63077 0.483742 0
M  V30 4318 O 419.92 -1.80607 0.71377 0
M  V30 4319 C 417.05 -3.05387 1.65396 0
M  V30 4320 C 416.004 -3.23918 2.79752 0
M  V30 4321 C 415.33 -4.63393 2.66779 0
M  V30 4322 C 416.63 -3.08735 4.21284 0
M  V30 4323 H 418.324 -1.53786 2.56886 0
M  V30 4324 H 415.87 -0.738415 1.23626 0
M  V30 4325 H 417.823 -3.83325 1.75043 0
M  V30 4326 H 416.547 -3.19332 0.685195 0
M  V30 4327 H 415.206 -2.48391 2.69625 0
M  V30 4328 H 414.854 -4.74144 1.67918 0
M  V30 4329 H 414.554 -4.7674 3.43501 0
M  V30 4330 H 416.078 -5.43458 2.78364 0
M  V30 4331 H 417.492 -3.76484 4.32357 0
M  V30 4332 H 415.889 -3.33588 4.98838 0
M  V30 4333 H 416.959 -2.0541 4.39243 0
M  V30 4334 N 418.302 -1.35869 -0.798587 0
M  V30 4335 C 419.235 -1.23801 -1.91699 0
M  V30 4336 C 420.213 -0.124143 -1.62125 0
M  V30 4337 O 421.397 -0.293656 -1.86199 0
M  V30 4338 C 418.524 -0.908063 -3.263 0
M  V30 4339 C 417.57 -2.0351 -3.74815 0
M  V30 4340 S 418.403 -3.65183 -3.91665 0
M  V30 4341 C 419.559 -3.34283 -5.29156 0
M  V30 4342 H 419.792 -2.18466 -2.01643 0
M  V30 4343 H 417.325 -1.21178 -0.956833 0
M  V30 4344 H 419.283 -0.724506 -4.04056 0
M  V30 4345 H 417.944 0.0206584 -3.14093 0
M  V30 4346 H 417.137 -1.75858 -4.72324 0
M  V30 4347 H 416.739 -2.1774 -3.04081 0
M  V30 4348 H 419.031 -2.87607 -6.13424 0
M  V30 4349 H 419.974 -4.31022 -5.61806 0
M  V30 4350 H 420.382 -2.69854 -4.95822 0
M  V30 4351 N 419.78 1.02168 -1.19998 0
M  V30 4352 C 420.712 2.10705 -0.901994 0
M  V30 4353 C 421.725 1.6244 0.108216 0
M  V30 4354 O 422.914 1.78082 -0.12214 0
M  V30 4355 C 420.014 3.37291 -0.329834 0
M  V30 4356 C 419.187 4.14714 -1.39035 0
M  V30 4357 C 418.246 5.19606 -0.830432 0
M  V30 4358 O 417.272 5.48809 -1.50989 0
M  V30 4359 N 418.474 5.79366 0.362696 0
M  V30 4360 H 421.239 2.36856 -1.83628 0
M  V30 4361 H 418.8 1.18518 -1.10296 0
M  V30 4362 H 420.792 4.04657 0.0587633 0
M  V30 4363 H 419.362 3.0843 0.508891 0
M  V30 4364 H 418.582 3.42392 -1.9535 0
M  V30 4365 H 419.87 4.63226 -2.10474 0
M  V30 4366 H 419.268 5.57968 0.932081 0
M  V30 4367 H 417.825 6.48106 0.69299 0
M  V30 4368 N 421.258 1.00505 1.21394 0
M  V30 4369 C 422.483 0.706367 1.95001 0
M  V30 4370 C 422.908 -0.72463 1.73582 0
M  V30 4371 O 422.266 -1.49702 1.0227 0
M  V30 4372 C 422.314 1.03299 3.45487 0
M  V30 4373 O 421.418 0.138275 4.12168 0
M  V30 4374 H 420.759 0.263175 0.609619 0
M  V30 4375 H 423.289 1.34531 1.54151 0
M  V30 4376 H 423.299 0.979872 3.96059 0
M  V30 4377 H 421.974 2.07567 3.60401 0
M  V30 4378 H 420.551 0.247928 3.72075 0
M  V30 4379 N 422.737 -1.36956 0.779787 0
M  V30 4380 C 423.965 -2.03755 0.359398 0
M  V30 4381 C 424.38 -1.58807 -1.02106 0
M  V30 4382 O 423.737 -0.773024 -1.6532 0
M  V30 4383 C 423.788 -3.59251 0.402568 0
M  V30 4384 O 423.509 -4.02557 1.72858 0
M  V30 4385 C 425.01 -4.43291 -0.0284068 0
M  V30 4386 H 422.23 -0.654148 0.149437 0
M  V30 4387 H 424.774 -1.75128 1.05595 0
M  V30 4388 H 422.929 -3.86621 -0.245478 0
M  V30 4389 H 423.343 -4.97111 1.67275 0
M  V30 4390 H 424.817 -5.51975 0.0529466 0
M  V30 4391 H 425.294 -4.25719 -1.07982 0
M  V30 4392 H 425.9 -4.21163 0.591758 0
M  V30 4393 N 424.215 -0.530993 -1.48385 0
M  V30 4394 C 425.461 0.00274135 -2.028 0
M  V30 4395 C 425.794 1.33838 -1.40716 0
M  V30 4396 O 425.069 1.86465 -0.553277 0
M  V30 4397 C 425.352 0.123676 -3.59888 0
M  V30 4398 C 425.205 -1.2372 -4.3245 0
M  V30 4399 C 426.524 0.849967 -4.31814 0
M  V30 4400 H 423.643 -0.000477758 -0.737 0
M  V30 4401 H 426.285 -0.688217 -1.77098 0
M  V30 4402 H 424.435 0.712157 -3.81917 0
M  V30 4403 H 426.107 -1.86687 -4.21836 0
M  V30 4404 H 424.35 -1.81882 -3.93829 0
M  V30 4405 H 425.021 -1.10557 -5.40815 0
M  V30 4406 H 427.497 0.350572 -4.14621 0
M  V30 4407 H 426.373 0.903486 -5.41413 0
M  V30 4408 H 426.634 1.90047 -3.99167 0
M  V30 4409 N 425.693 1.55336 -0.266172 0
M  V30 4410 C 426.603 2.2583 0.635458 0
M  V30 4411 C 427.619 1.28106 1.17749 0
M  V30 4412 O 428.795 1.61024 1.20968 0
M  V30 4413 C 425.86 2.95879 1.80712 0
M  V30 4414 C 424.921 4.09059 1.30265 0
M  V30 4415 C 424.154 4.75759 2.41846 0
M  V30 4416 O 424.377 4.41622 3.61007 0
M  V30 4417 O 423.311 5.63888 2.1051 0
M  V30 4418 H 427.137 3.03631 0.0646693 0
M  V30 4419 H 424.722 1.49361 -0.0339177 0
M  V30 4420 H 426.604 3.39932 2.49047 0
M  V30 4421 H 425.279 2.21002 2.36516 0
M  V30 4422 H 424.186 3.69482 0.586019 0
M  V30 4423 H 425.519 4.85811 0.790458 0
M  V30 4424 N 427.171 -0.0066808 1.57599 0
M  V30 4425 C 428.396 -0.707738 1.94951 0
M  V30 4426 C 428.821 -1.66882 0.867868 0
M  V30 4427 O 428.179 -1.80457 -0.17458 0
M  V30 4428 C 428.227 -1.42162 3.31394 0
M  V30 4429 O 427.331 -2.53578 3.25226 0
M  V30 4430 H 426.672 -0.188752 0.636607 0
M  V30 4431 H 429.202 0.0445193 2.04552 0
M  V30 4432 H 429.212 -1.78655 3.66806 0
M  V30 4433 H 427.887 -0.716903 4.09675 0
M  V30 4434 H 426.464 -2.19463 3.01481 0
M  V30 4435 N 428.649 -1.55105 -0.279332 0
M  V30 4436 C 429.612 -1.86783 -1.32834 0
M  V30 4437 C 430.612 -0.74199 -1.42657 0
M  V30 4438 O 431.802 -1.0102 -1.41918 0
M  V30 4439 C 428.934 -2.06746 -2.71052 0
M  V30 4440 H 430.127 -2.8055 -1.05979 0
M  V30 4441 H 427.68 -1.47499 -0.517087 0
M  V30 4442 H 428.415 -1.15339 -3.03097 0
M  V30 4443 H 428.2 -2.88711 -2.65309 0
M  V30 4444 H 429.69 -2.32549 -3.46858 0
M  V30 4445 N 430.127 0.543554 -1.4793 0
M  V30 4446 C 431.074 1.64942 -1.6144 0
M  V30 4447 C 432.044 1.59692 -0.456903 0
M  V30 4448 O 433.229 1.78321 -0.678688 0
M  V30 4449 C 430.369 3.03238 -1.64744 0
M  V30 4450 C 429.482 3.18823 -2.91506 0
M  V30 4451 C 428.617 4.47599 -2.86057 0
M  V30 4452 C 427.656 4.56664 -4.07584 0
M  V30 4453 N 426.793 5.76811 -4.00292 0
M  V30 4454 H 431.633 1.52733 -2.55884 0
M  V30 4455 H 429.17 0.7438 -1.2691 0
M  V30 4456 H 431.128 3.83339 -1.64641 0
M  V30 4457 H 429.758 3.1425 -0.738017 0
M  V30 4458 H 428.81 2.32064 -3.01414 0
M  V30 4459 H 430.122 3.21384 -3.81463 0
M  V30 4460 H 429.276 5.35975 -2.84281 0
M  V30 4461 H 428.015 4.47538 -1.93807 0
M  V30 4462 H 427.02 3.66697 -4.09651 0
M  V30 4463 H 428.245 4.58474 -5.00978 0
M  V30 4464 H 426.191 5.77673 -3.10853 0
M  V30 4465 H 426.108 5.80808 -4.8394 0
M  V30 4466 H 427.376 6.67512 -4.02553 0
M  V30 4467 N 431.605 1.3629 0.791371 0
M  V30 4468 C 433.021 1.16661 1.08914 0
M  V30 4469 C 433.221 -0.0106266 2.01497 0
M  V30 4470 O 432.277 -0.676596 2.43266 0
M  V30 4471 C 433.59 2.47656 1.70549 0
M  V30 4472 C 435.138 2.54002 1.82899 0
M  V30 4473 C 435.613 3.85078 2.47949 0
M  V30 4474 N 437.104 3.86413 2.5542 0
M  V30 4475 C 437.839 4.84572 3.06557 0
M  V30 4476 N 437.335 5.93124 3.58016 0
M  V30 4477 N 439.128 4.71994 3.05251 0
M  V30 4478 H 431.279 2.11668 0.176238 0
M  V30 4479 H 433.542 0.937486 0.140796 0
M  V30 4480 H 433.248 3.34059 1.09989 0
M  V30 4481 H 433.122 2.63319 2.70079 0
M  V30 4482 H 435.509 1.68018 2.42598 0
M  V30 4483 H 435.59 2.42239 0.821808 0
M  V30 4484 H 435.234 4.71467 1.88895 0
M  V30 4485 H 435.164 3.94135 3.49235 0
M  V30 4486 H 437.655 3.07988 2.18979 0
M  V30 4487 H 437.968 6.63999 3.95381 0
M  V30 4488 H 436.313 5.96796 3.56173 0
M  V30 4489 H 439.504 3.86321 2.64336 0
M  V30 4490 H 439.677 5.48653 3.44796 0
M  V30 4491 N 433.083 -1.0153 1.20538 0
M  V30 4492 C 434.33 -1.75149 1.01633 0
M  V30 4493 C 434.658 -1.89189 -0.451399 0
M  V30 4494 O 433.913 -1.41551 -1.35136 0
M  V30 4495 C 434.212 -3.17213 1.64654 0
M  V30 4496 C 433.878 -3.23146 3.14464 0
M  V30 4497 C 432.54 -3.24472 3.55347 0
M  V30 4498 C 434.892 -3.21207 4.10458 0
M  V30 4499 C 432.22 -3.21532 4.90748 0
M  V30 4500 C 434.572 -3.19808 5.45807 0
M  V30 4501 C 433.236 -3.19439 5.86102 0
M  V30 4502 H 432.506 -0.640914 0.3719 0
M  V30 4503 H 435.153 -1.19071 1.49981 0
M  V30 4504 H 433.458 -3.76457 1.08571 0
M  V30 4505 H 435.155 -3.72871 1.4754 0
M  V30 4506 H 431.745 -3.2285 2.81897 0
M  V30 4507 H 435.929 -3.19351 3.79906 0
M  V30 4508 H 431.185 -3.19578 5.21229 0
M  V30 4509 H 435.359 -3.1726 6.19935 0
M  V30 4510 H 432.986 -3.16915 6.90991 0
M  V30 4511 N 434.561 -1.01147 -1.20859 0
M  V30 4512 C 435.491 -0.597663 -2.25722 0
M  V30 4513 C 436.472 0.384744 -1.65692 0
M  V30 4514 O 437.657 0.271303 -1.92296 0
M  V30 4515 C 434.787 0.0700149 -3.47229 0
M  V30 4516 C 433.741 -0.832843 -4.19819 0
M  V30 4517 C 433.067 -0.0312202 -5.34691 0
M  V30 4518 C 434.367 -2.1385 -4.76514 0
M  V30 4519 H 436.061 -1.47423 -2.60589 0
M  V30 4520 H 433.607 -0.710301 -1.25263 0
M  V30 4521 H 435.56 0.37103 -4.19763 0
M  V30 4522 H 434.284 0.981259 -3.11511 0
M  V30 4523 H 432.943 -1.11778 -3.49144 0
M  V30 4524 H 432.591 0.881515 -4.95215 0
M  V30 4525 H 432.291 -0.632434 -5.84187 0
M  V30 4526 H 433.815 0.26346 -6.10031 0
M  V30 4527 H 435.229 -1.9002 -5.40893 0
M  V30 4528 H 433.626 -2.69012 -5.36426 0
M  V30 4529 H 434.696 -2.80495 -3.95538 0
M  V30 4530 N 436.039 1.36541 -0.78704 0
M  V30 4531 C 436.949 2.3387 -0.184896 0
M  V30 4532 C 437.965 1.60927 0.661697 0
M  V30 4533 O 439.141 1.92927 0.57804 0
M  V30 4534 C 436.206 3.40122 0.672145 0
M  V30 4535 C 435.267 4.28867 -0.19267 0
M  V30 4536 C 434.5 5.30045 0.623561 0
M  V30 4537 O 434.723 5.39232 1.8597 0
M  V30 4538 O 433.657 6.01895 0.0247068 0
M  V30 4539 H 437.483 2.87126 -0.989562 0
M  V30 4540 H 435.068 1.38969 -0.548455 0
M  V30 4541 H 436.95 4.05093 1.16094 0
M  V30 4542 H 435.625 2.89169 1.45474 0
M  V30 4543 H 434.532 3.66945 -0.728166 0
M  V30 4544 H 435.865 4.83165 -0.938722 0
M  V30 4545 N 437.518 0.538854 1.48102 0
M  V30 4546 C 438.465 -0.219042 2.29758 0
M  V30 4547 C 439.435 -0.925562 1.37922 0
M  V30 4548 O 440.62 -0.924855 1.66886 0
M  V30 4549 C 437.76 -1.25452 3.2149 0
M  V30 4550 C 436.873 -0.555943 4.28408 0
M  V30 4551 C 436.008 -1.57512 5.0731 0
M  V30 4552 C 435.047 -0.860498 6.06021 0
M  V30 4553 N 434.184 -1.82564 6.77949 0
M  V30 4554 H 439.024 0.483449 2.94052 0
M  V30 4555 H 436.561 0.250247 1.44956 0
M  V30 4556 H 438.519 -1.86727 3.7308 0
M  V30 4557 H 437.149 -1.92528 2.591 0
M  V30 4558 H 436.201 0.170938 3.80016 0
M  V30 4559 H 437.513 0.00474616 4.988 0
M  V30 4560 H 436.667 -2.26191 5.62959 0
M  V30 4561 H 435.406 -2.16972 4.36778 0
M  V30 4562 H 434.411 -0.159686 5.49568 0
M  V30 4563 H 435.636 -0.271897 6.78555 0
M  V30 4564 H 433.582 -2.40915 6.10161 0
M  V30 4565 H 433.499 -1.31662 7.44447 0
M  V30 4566 H 434.767 -2.50414 7.38182 0
M  V30 4567 N 438.996 -1.55193 0.274407 0
M  V30 4568 C 440.243 -1.99581 -0.342579 0
M  V30 4569 C 440.571 -1.1628 -1.55914 0
M  V30 4570 O 439.826 -0.22029 -1.94456 0
M  V30 4571 C 440.125 -3.49019 -0.769458 0
M  V30 4572 C 439.791 -4.49598 0.342389 0
M  V30 4573 C 438.453 -4.76821 0.647686 0
M  V30 4574 C 440.805 -5.0964 1.09163 0
M  V30 4575 C 438.133 -5.61354 1.70581 0
M  V30 4576 C 440.485 -5.95323 2.13948 0
M  V30 4577 C 439.149 -6.20867 2.45113 0
M  V30 4578 H 438.419 -0.730319 -0.125358 0
M  V30 4579 H 441.066 -1.87529 0.387971 0
M  V30 4580 H 439.371 -3.58544 -1.57967 0
M  V30 4581 H 441.068 -3.8077 -1.25757 0
M  V30 4582 H 437.658 -4.28496 0.094318 0
M  V30 4583 H 441.842 -4.88632 0.869024 0
M  V30 4584 H 437.098 -5.79392 1.9523 0
M  V30 4585 H 441.272 -6.40881 2.72478 0
M  V30 4586 H 438.899 -6.86162 3.27239 0
M  V30 4587 N 440.474 -0.00167713 -1.576 0
M  V30 4588 C 441.421 0.989195 -2.08527 0
M  V30 4589 C 442.391 1.34031 -0.981065 0
M  V30 4590 O 443.576 1.43839 -1.2536 0
M  V30 4591 C 440.716 2.27537 -2.59463 0
M  V30 4592 C 439.829 1.98314 -3.83791 0
M  V30 4593 C 438.964 3.21025 -4.23222 0
M  V30 4594 C 438.003 2.87495 -5.40382 0
M  V30 4595 N 437.14 4.02749 -5.75098 0
M  V30 4596 H 441.98 0.547973 -2.92919 0
M  V30 4597 H 439.517 0.258917 -1.44803 0
M  V30 4598 H 441.475 3.02729 -2.87073 0
M  V30 4599 H 440.105 2.69325 -1.77943 0
M  V30 4600 H 439.157 1.13482 -3.63078 0
M  V30 4601 H 440.469 1.69601 -4.69081 0
M  V30 4602 H 439.623 4.04561 -4.52123 0
M  V30 4603 H 438.362 3.52877 -3.36644 0
M  V30 4604 H 437.367 2.02367 -5.11202 0
M  V30 4605 H 438.592 2.56889 -6.28637 0
M  V30 4606 H 436.538 4.34494 -4.91478 0
M  V30 4607 H 436.455 3.77566 -6.54966 0
M  V30 4608 H 437.723 4.87068 -6.08592 0
M  V30 4609 N 441.952 1.55251 0.271103 0
M  V30 4610 C 443.363 1.66635 0.842007 0
M  V30 4611 C 443.714 0.594631 1.86972 0
M  V30 4612 O 442.839 -0.263532 2.14789 0
M  V30 4613 C 443.434 3.02082 1.53401 0
M  V30 4614 C 441.993 3.15487 2.05293 0
M  V30 4615 C 441.14 2.62438 0.895631 0
M  V30 4616 H 444.091 1.58629 0.0474117 0
M  V30 4617 H 444.112 2.95176 2.40107 0
M  V30 4618 H 443.624 3.80062 0.785786 0
M  V30 4619 H 441.725 2.42284 2.83071 0
M  V30 4620 H 441.838 4.22075 2.26693 0
M  V30 4621 H 440.202 2.19644 1.28953 0
M  V30 4622 H 440.985 3.42923 0.160878 0
M  V30 4623 N 443.43 -0.535701 1.48216 0
M  V30 4624 C 444.678 -1.28928 1.55634 0
M  V30 4625 C 444.999 -1.93645 0.229514 0
M  V30 4626 O 444.269 -1.81038 -0.74846 0
M  V30 4627 H 442.849 -0.47884 0.573342 0
M  V30 4628 H 445.511 -0.623853 1.84646 0
M  V30 4629 H 444.607 -2.07157 2.33436 0
M  V30 4630 N 444.908 -1.36708 -0.784132 0
M  V30 4631 C 445.855 -1.31466 -1.89698 0
M  V30 4632 C 446.825 -0.18239 -1.65096 0
M  V30 4633 O 448.01 -0.369762 -1.87183 0
M  V30 4634 C 445.15 -1.1151 -3.26588 0
M  V30 4635 C 444.263 -2.33859 -3.63227 0
M  V30 4636 C 443.398 -2.06873 -4.89262 0
M  V30 4637 C 442.437 -3.25154 -5.18595 0
M  V30 4638 N 441.574 -2.978 -6.35814 0
M  V30 4639 H 446.414 -2.26619 -1.93515 0
M  V30 4640 H 443.951 -1.12625 -0.946256 0
M  V30 4641 H 445.909 -0.979653 -4.05535 0
M  V30 4642 H 444.539 -0.200103 -3.22179 0
M  V30 4643 H 443.591 -2.58188 -2.79362 0
M  V30 4644 H 444.903 -3.22109 -3.8085 0
M  V30 4645 H 444.057 -1.90289 -5.76086 0
M  V30 4646 H 442.796 -1.15942 -4.73718 0
M  V30 4647 H 441.801 -3.42292 -4.30251 0
M  V30 4648 H 443.026 -4.1692 -5.36055 0
M  V30 4649 H 440.972 -2.09485 -6.21653 0
M  V30 4650 H 440.889 -3.7959 -6.53794 0
M  V30 4651 H 442.157 -2.84805 -7.25607 0
M  V30 4652 N 446.386 1.0089 -1.21074 0
M  V30 4653 C 447.632 1.7497 -1.03717 0
M  V30 4654 C 447.987 1.8764 0.425344 0
M  V30 4655 O 447.28 1.39679 1.3115 0
M  V30 4656 C 447.474 3.16335 -1.66334 0
M  V30 4657 C 447.303 3.17449 -3.18522 0
M  V30 4658 C 446.073 3.2425 -3.87543 0
M  V30 4659 C 448.271 3.02877 -4.15656 0
M  V30 4660 N 446.253 3.14949 -5.26954 0
M  V30 4661 C 447.624 3.0143 -5.41793 0
M  V30 4662 C 449.679 2.8715 -4.06755 0
M  V30 4663 C 448.382 2.85869 -6.60054 0
M  V30 4664 C 450.408 2.72944 -5.24648 0
M  V30 4665 C 449.77 2.72171 -6.49694 0
M  V30 4666 H 445.869 0.650627 -0.43383 0
M  V30 4667 H 448.453 1.19944 -1.53367 0
M  V30 4668 H 446.624 3.69638 -1.19256 0
M  V30 4669 H 448.356 3.78888 -1.42219 0
M  V30 4670 H 445.111 3.31288 -3.38446 0
M  V30 4671 H 445.535 3.13651 -5.9996 0
M  V30 4672 H 450.177 2.86557 -3.10878 0
M  V30 4673 H 447.895 2.8521 -7.56096 0
M  V30 4674 H 451.481 2.61782 -5.19578 0
M  V30 4675 H 450.361 2.61307 -7.39384 0
M  V30 4676 N 447.864 1.01787 1.20321 0
M  V30 4677 C 448.797 0.533882 2.21867 0
M  V30 4678 C 449.775 -0.419361 1.57099 0
M  V30 4679 O 450.959 -0.339062 1.85426 0
M  V30 4680 C 448.086 -0.222899 3.37966 0
M  V30 4681 C 447.132 0.680091 4.21043 0
M  V30 4682 S 447.965 2.14997 4.90445 0
M  V30 4683 C 449.121 1.40339 6.09964 0
M  V30 4684 H 449.354 1.39429 2.62577 0
M  V30 4685 H 446.887 0.826867 1.30393 0
M  V30 4686 H 448.845 -0.653425 4.05266 0
M  V30 4687 H 447.506 -1.0589 2.95713 0
M  V30 4688 H 446.699 0.0964704 5.03908 0
M  V30 4689 H 446.301 1.04845 3.59004 0
M  V30 4690 H 448.593 0.68407 6.74038 0
M  V30 4691 H 449.536 2.20823 6.72787 0
M  V30 4692 H 449.944 0.905716 5.57187 0
M  V30 4693 N 449.342 -1.36122 0.79427 0
M  V30 4694 C 450.591 -1.98361 0.365464 0
M  V30 4695 C 450.904 -1.6374 -1.06997 0
M  V30 4696 O 452.11 -2.19251 -1.60129 0
M  V30 4697 C 450.566 -3.54821 0.602496 0
M  V30 4698 C 450.174 -3.98362 2.04967 0
M  V30 4699 C 451.918 -4.2383 0.238437 0
M  V30 4700 C 449.825 -5.47619 2.2331 0
M  V30 4701 H 448.755 -0.742193 0.13291 0
M  V30 4702 H 451.406 -1.55354 0.976589 0
M  V30 4703 H 449.788 -3.95922 -0.078409 0
M  V30 4704 H 450.962 -3.68447 2.76737 0
M  V30 4705 H 449.277 -3.42206 2.37243 0
M  V30 4706 H 451.874 -5.33529 0.353705 0
M  V30 4707 H 452.217 -4.08264 -0.814006 0
M  V30 4708 H 452.75 -3.88108 0.872769 0
M  V30 4709 H 449.489 -5.68138 3.26955 0
M  V30 4710 H 449.009 -5.79145 1.5605 0
M  V30 4711 H 450.688 -6.13911 2.0426 0
M  V30 4712 N 450.82 -0.546701 -1.47814 0
M  V30 4713 C 451.752 0.244196 -2.27895 0
M  V30 4714 C 452.765 0.88911 -1.36377 0
M  V30 4715 O 453.954 0.764733 -1.61289 0
M  V30 4716 C 451.054 1.36252 -3.10304 0
M  V30 4717 C 450.227 0.816382 -4.29714 0
M  V30 4718 C 449.286 1.81789 -4.93801 0
M  V30 4719 O 448.312 1.36818 -5.52512 0
M  V30 4720 N 449.514 3.15085 -4.87547 0
M  V30 4721 H 452.279 -0.442694 -2.96412 0
M  V30 4722 H 449.84 -0.382095 -1.57327 0
M  V30 4723 H 451.832 2.03102 -3.50045 0
M  V30 4724 H 450.402 1.95281 -2.44099 0
M  V30 4725 H 449.622 -0.0285981 -3.9419 0
M  V30 4726 H 450.91 0.430668 -5.06974 0
M  V30 4727 H 450.308 3.54275 -4.41028 0
M  V30 4728 H 448.865 3.77522 -5.31339 0
M  V30 4729 N 452.299 1.55045 -0.282633 0
M  V30 4730 C 453.529 2.03872 0.334635 0
M  V30 4731 C 453.937 1.16018 1.49454 0
M  V30 4732 O 453.28 0.174449 1.8287 0
M  V30 4733 C 453.342 3.48791 0.870905 0
M  V30 4734 C 453.006 4.56715 -0.161338 0
M  V30 4735 C 454.003 5.10513 -0.983466 0
M  V30 4736 C 451.688 5.01417 -0.297745 0
M  V30 4737 C 453.682 6.07538 -1.92811 0
M  V30 4738 C 451.369 5.98265 -1.24586 0
M  V30 4739 C 452.367 6.51208 -2.05954 0
M  V30 4740 O 452.055 7.46162 -2.99162 0
M  V30 4741 H 451.787 0.671324 0.0793742 0
M  V30 4742 H 454.341 2.01169 -0.41473 0
M  V30 4743 H 452.571 3.48758 1.67047 0
M  V30 4744 H 454.26 3.80916 1.40207 0
M  V30 4745 H 455.026 4.76785 -0.888856 0
M  V30 4746 H 450.905 4.59849 0.325604 0
M  V30 4747 H 454.449 6.48787 -2.56363 0
M  V30 4748 H 450.346 6.31412 -1.34126 0
M  V30 4749 H 451.114 7.63903 -2.93929 0
M  V30 4750 N 453.777 0.010035 1.57597 0
M  V30 4751 C 454.725 -0.996272 2.10184 0
M  V30 4752 C 455.719 -1.34942 1.02406 0
M  V30 4753 O 456.925 -1.33389 1.20861 0
M  V30 4754 H 453.3 -0.338982 0.671264 0
M  V30 4755 H 455.271 -0.527272 2.93705 0
M  V30 4756 C 454.02 -2.27599 2.62857 0
M  V30 4757 H 453.343 -2.01295 3.45428 0
M  V30 4758 H 454.783 -2.96265 3.0332 0
M  V30 4759 C 453.242 -2.99269 1.54725 0
M  V30 4760 O 453.772 -3.90644 0.93597 0
M  V30 4761 N 451.978 -2.61269 1.27228 0
M  V30 4762 H 451.525 -1.87043 1.77123 0
M  V30 4763 H 451.483 -3.09534 0.550999 0
M  V30 4764 N 455.255 -1.55392 -0.262866 0
M  V30 4765 C 456.203 -1.8977 -1.345 0
M  V30 4766 C 457.197 -0.775063 -1.50629 0
M  V30 4767 O 458.403 -0.959519 -1.52293 0
M  V30 4768 H 454.778 -0.602467 -0.450041 0
M  V30 4769 H 456.749 -2.80147 -1.02762 0
M  V30 4770 C 455.498 -2.19501 -2.69657 0
M  V30 4771 H 454.821 -3.05378 -2.5804 0
M  V30 4772 H 456.261 -2.47469 -3.44289 0
M  V30 4773 C 454.72 -1.00597 -3.21531 0
M  V30 4774 O 455.25 -0.245768 -4.00947 0
M  V30 4775 N 453.456 -0.800911 -2.79345 0
M  V30 4776 H 453.003 -1.42079 -2.14875 0
M  V30 4777 H 452.961 -0.00697996 -3.14399 0
M  V30 4778 N 456.733 0.527833 -1.48498 0
M  V30 4779 C 457.663 1.64136 -1.66077 0
M  V30 4780 C 458.644 1.62286 -0.509625 0
M  V30 4781 O 459.829 1.79449 -0.742413 0
M  V30 4782 C 456.959 3.02717 -1.70234 0
M  V30 4783 C 455.913 3.19426 -2.8487 0
M  V30 4784 C 455.239 4.5909 -2.74118 0
M  V30 4785 C 456.539 3.01993 -4.26142 0
M  V30 4786 H 458.233 1.4968 -2.593 0
M  V30 4787 H 455.779 0.718654 -1.24785 0
M  V30 4788 H 457.732 3.80491 -1.8112 0
M  V30 4789 H 456.456 3.18201 -0.735911 0
M  V30 4790 H 455.115 2.4407 -2.73542 0
M  V30 4791 H 454.763 4.71413 -1.7544 0
M  V30 4792 H 454.463 4.71214 -3.51042 0
M  V30 4793 H 455.987 5.3896 -2.86974 0
M  V30 4794 H 457.401 3.69558 -4.38292 0
M  V30 4795 H 455.798 3.2561 -5.04082 0
M  V30 4796 H 456.868 1.98396 -4.42456 0
M  V30 4797 N 458.211 1.37122 0.776871 0
M  V30 4798 C 459.159 1.32549 1.91138 0
M  V30 4799 C 460.153 0.215119 1.68029 0
M  V30 4800 O 461.359 0.382852 1.75881 0
M  V30 4801 H 457.734 0.412952 0.62847 0
M  V30 4802 H 459.705 2.28332 1.92112 0
M  V30 4803 C 458.454 1.14422 3.28333 0
M  V30 4804 H 457.777 1.99115 3.46689 0
M  V30 4805 H 459.217 1.15272 4.0803 0
M  V30 4806 C 457.676 -0.150434 3.36564 0
M  V30 4807 O 458.206 -1.13584 3.85307 0
M  V30 4808 N 456.412 -0.19939 2.89915 0
M  V30 4809 H 455.959 0.603142 2.5044 0
M  V30 4810 H 455.917 -1.06526 2.95803 0
M  V30 4811 N 459.689 -1.00246 1.21608 0
M  V30 4812 C 460.619 -2.10921 1.00172 0
M  V30 4813 C 461.6 -1.69938 -0.0741587 0
M  V30 4814 O 462.785 -1.94009 0.0861753 0
M  V30 4815 C 459.915 -3.42618 0.568355 0
M  V30 4816 C 458.869 -3.97407 1.58909 0
M  V30 4817 C 458.195 -5.25038 1.01187 0
M  V30 4818 C 459.495 -4.2918 2.97661 0
M  V30 4819 H 461.189 -2.29112 1.92739 0
M  V30 4820 H 458.735 -1.10101 0.928102 0
M  V30 4821 H 460.688 -4.19444 0.405555 0
M  V30 4822 H 459.412 -3.24227 -0.392961 0
M  V30 4823 H 458.071 -3.22703 1.73949 0
M  V30 4824 H 457.719 -5.02982 0.0421965 0
M  V30 4825 H 457.419 -5.62661 1.6937 0
M  V30 4826 H 458.943 -6.04507 0.860448 0
M  V30 4827 H 460.357 -4.96839 2.86049 0
M  V30 4828 H 458.754 -4.77952 3.6288 0
M  V30 4829 H 459.824 -3.3735 3.48315 0
M  V30 4830 N 461.167 -1.02423 -1.1978 0
M  V30 4831 C 462.114 -0.601023 -2.22837 0
M  V30 4832 C 463.084 0.382801 -1.61629 0
M  V30 4833 O 464.269 0.280514 -1.88727 0
M  V30 4834 C 461.409 0.0467755 -3.45068 0
M  V30 4835 C 460.522 -0.98253 -4.20678 0
M  V30 4836 C 459.657 -0.304982 -5.30324 0
M  V30 4837 C 458.696 -1.32052 -5.97686 0
M  V30 4838 N 457.833 -0.669105 -6.98904 0
M  V30 4839 H 462.673 -1.48444 -2.58396 0
M  V30 4840 H 460.21 -0.742936 -1.2696 0
M  V30 4841 H 462.168 0.439556 -4.14878 0
M  V30 4842 H 460.798 0.893796 -3.10179 0
M  V30 4843 H 459.85 -1.49341 -3.49859 0
M  V30 4844 H 461.162 -1.75455 -4.66923 0
M  V30 4845 H 460.316 0.142893 -6.06532 0
M  V30 4846 H 459.055 0.499283 -4.85138 0
M  V30 4847 H 458.06 -1.7787 -5.20233 0
M  V30 4848 H 459.285 -2.1262 -6.44957 0
M  V30 4849 H 457.231 0.115152 -6.55899 0
M  V30 4850 H 457.148 -1.37908 -7.43315 0
M  V30 4851 H 458.416 -0.245076 -7.79115 0
M  V30 4852 N 462.645 1.35699 -0.801477 0
M  V30 4853 C 463.873 2.03157 -0.391768 0
M  V30 4854 C 464.288 1.60412 0.995668 0
M  V30 4855 O 463.645 0.799228 1.64069 0
M  V30 4856 C 463.696 3.58566 -0.459671 0
M  V30 4857 O 463.417 3.99756 -1.7924 0
M  V30 4858 C 464.918 4.4328 -0.0421205 0
M  V30 4859 H 462.138 0.651688 -0.159825 0
M  V30 4860 H 464.682 1.73426 -1.08368 0
M  V30 4861 H 462.837 3.86963 0.183939 0
M  V30 4862 H 463.251 4.94387 -1.75162 0
M  V30 4863 H 464.725 5.51821 -0.140754 0
M  V30 4864 H 465.202 4.27383 1.01196 0
M  V30 4865 H 465.808 4.20168 -0.658687 0
M  V30 4866 N 464.123 0.554532 1.47522 0
M  V30 4867 C 465.534 0.120446 1.86311 0
M  V30 4868 C 465.885 -1.30904 1.46145 0
M  V30 4869 O 465.01 -1.98434 0.863294 0
M  V30 4870 C 465.605 0.211808 3.38137 0
M  V30 4871 C 464.164 -0.167224 3.76028 0
M  V30 4872 C 463.311 0.560576 2.71575 0
M  V30 4873 H 466.262 0.764408 1.39077 0
M  V30 4874 H 466.283 -0.570275 3.76202 0
M  V30 4875 H 465.795 1.25232 3.6734 0
M  V30 4876 H 463.896 -1.20894 3.52442 0
M  V30 4877 H 464.009 0.189473 4.78725 0
M  V30 4878 H 462.373 0.00396836 2.547 0
M  V30 4879 H 463.156 1.60219 3.0362 0
M  V30 4880 N 465.601 -1.54893 0.290851 0
M  V30 4881 C 466.847 -2.0023 -0.321867 0
M  V30 4882 C 467.18 -1.179 -1.54316 0
M  V30 4883 O 466.455 -0.25293 -1.92848 0
M  V30 4884 C 466.738 -3.53456 -0.688515 0
M  V30 4885 C 466.591 -4.46532 0.541209 0
M  V30 4886 C 467.91 -4.13057 -1.51895 0
M  V30 4887 H 465.029 -0.727891 -0.115515 0
M  V30 4888 H 467.671 -1.85722 0.400931 0
M  V30 4889 H 465.821 -3.6595 -1.30433 0
M  V30 4890 H 467.493 -4.4596 1.17973 0
M  V30 4891 H 465.736 -4.17545 1.17636 0
M  V30 4892 H 466.407 -5.51475 0.240675 0
M  V30 4893 H 468.883 -4.03937 -0.99872 0
M  V30 4894 H 467.759 -5.20448 -1.74429 0
M  V30 4895 H 468.02 -3.64284 -2.50498 0
M  V30 4896 N 467.08 -0.0183926 -1.57589 0
M  V30 4897 C 468.491 0.521927 -1.79256 0
M  V30 4898 C 468.842 1.72885 -0.927636 0
M  V30 4899 O 467.967 2.15978 -0.135091 0
M  V30 4900 C 468.562 0.953632 -3.25102 0
M  V30 4901 C 467.121 1.43913 -3.47801 0
M  V30 4902 C 466.268 0.398837 -2.74417 0
M  V30 4903 H 469.219 -0.244485 -1.56805 0
M  V30 4904 H 469.24 1.81863 -3.34224 0
M  V30 4905 H 468.752 0.0750123 -3.88028 0
M  V30 4906 H 466.853 2.33804 -2.90115 0
M  V30 4907 H 466.966 1.45391 -4.56507 0
M  V30 4908 H 465.33 0.864572 -2.39577 0
M  V30 4909 H 466.113 -0.471132 -3.40052 0
M  V30 4910 N 468.558 1.5553 0.254621 0
M  V30 4911 C 469.783 1.81383 1.00573 0
M  V30 4912 C 470.208 0.594419 1.78461 0
M  V30 4913 O 469.566 -0.456403 1.75461 0
M  V30 4914 C 469.614 3.04892 1.92545 0
M  V30 4915 O 468.718 2.81266 3.01601 0
M  V30 4916 H 468.059 0.598969 0.286587 0
M  V30 4917 H 470.589 2.02703 0.277952 0
M  V30 4918 H 470.599 3.34119 2.34155 0
M  V30 4919 H 469.274 3.93287 1.3527 0
M  V30 4920 H 467.851 2.63185 2.64174 0
M  V30 4921 N 470.036 -0.519951 1.48776 0
M  V30 4922 C 471.313 -1.28123 1.47797 0
M  V30 4923 C 471.693 -2.10196 0.195157 0
M  V30 4924 O 471.041 -2.13167 -0.822925 0
M  V30 4925 C 471.251 -2.15413 2.74587 0
M  V30 4926 C 472.599 -2.75225 3.23321 0
M  V30 4927 O 473.623 -2.25694 2.75574 0
M  V30 4928 O 472.482 -3.65346 4.06429 0
M  V30 4929 H 469.576 -0.578793 0.590701 0
M  V30 4930 H 472.122 -0.535779 1.6102 0
M  V30 4931 H 470.894 -1.54617 3.59457 0
M  V30 4932 H 470.517 -2.97186 2.64132 0
M  V30 4933 N 471.514 -1.37532 -0.769588 0
M  V30 4934 C 472.763 -1.32183 -1.5235 0
M  V30 4935 C 473.076 0.0906555 -1.9539 0
M  V30 4936 O 474.282 0.266628 -2.70188 0
M  V30 4937 C 472.738 -2.32029 -2.75119 0
M  V30 4938 C 472.346 -3.78816 -2.3917 0
M  V30 4939 C 474.09 -2.35694 -3.53056 0
M  V30 4940 C 471.997 -4.70388 -3.58453 0
M  V30 4941 H 470.927 -0.491275 -0.571984 0
M  V30 4942 H 473.578 -1.63004 -0.842739 0
M  V30 4943 H 471.96 -1.94229 -3.45096 0
M  V30 4944 H 473.134 -4.25466 -1.76962 0
M  V30 4945 H 471.449 -3.78117 -1.74402 0
M  V30 4946 H 474.046 -3.01312 -4.41718 0
M  V30 4947 H 474.389 -1.37117 -3.93071 0
M  V30 4948 H 474.922 -2.72212 -2.90078 0
M  V30 4949 H 471.661 -5.70102 -3.23518 0
M  V30 4950 H 471.181 -4.28442 -4.19758 0
M  V30 4951 H 472.86 -4.87628 -4.25239 0
M  V30 4952 N 472.992 0.995999 -1.22138 0
M  V30 4953 C 474.269 1.70834 -0.952642 0
M  V30 4954 C 474.649 2.04257 0.533119 0
M  V30 4955 O 473.997 1.72343 1.50034 0
M  V30 4956 C 474.207 2.96119 -1.84701 0
M  V30 4957 C 475.555 3.68962 -2.10124 0
M  V30 4958 O 476.579 3.0612 -1.82124 0
M  V30 4959 O 475.438 4.82017 -2.57531 0
M  V30 4960 H 472.532 0.745498 -0.357997 0
M  V30 4961 H 475.078 1.05262 -1.33109 0
M  V30 4962 H 473.85 2.67898 -2.85213 0
M  V30 4963 H 473.473 3.6943 -1.46995 0
M  V30 4964 N 474.47 1.03057 1.19235 0
M  V30 4965 C 475.719 0.72326 1.88287 0
M  V30 4966 C 476.032 -0.751333 1.80594 0
M  V30 4967 O 477.238 -1.17176 2.44912 0
M  V30 4968 C 475.694 1.24338 3.3774 0
M  V30 4969 C 475.302 2.74587 3.53986 0
M  V30 4970 C 477.046 1.01213 4.12257 0
M  V30 4971 C 474.953 3.20009 4.97341 0
M  V30 4972 H 473.883 0.266848 0.705201 0
M  V30 4973 H 476.534 1.24509 1.34795 0
M  V30 4974 H 474.916 0.649457 3.90638 0
M  V30 4975 H 476.09 3.39649 3.11408 0
M  V30 4976 H 474.405 2.9601 2.9286 0
M  V30 4977 H 477.002 1.32675 5.17978 0
M  V30 4978 H 477.345 -0.051001 4.16269 0
M  V30 4979 H 477.878 1.57014 3.65501 0
M  V30 4980 H 474.617 4.25659 4.98493 0
M  V30 4981 H 474.137 2.59676 5.40674 0
M  V30 4982 H 475.816 3.13447 5.66003 0
M  V30 4983 N 475.948 -1.35272 0.808662 0
M  V30 4984 C 477.173 -2.03477 0.401475 0
M  V30 4985 C 477.598 -1.60537 -0.980279 0
M  V30 4986 O 476.956 -0.78304 -1.63518 0
M  V30 4987 C 477.004 -3.57181 0.495354 0
M  V30 4988 O 476.108 -4.09474 -0.490397 0
M  V30 4989 H 475.449 -0.642561 0.167366 0
M  V30 4990 H 477.979 -1.72824 1.09512 0
M  V30 4991 H 477.989 -4.06356 0.365912 0
M  V30 4992 H 476.664 -3.87784 1.5032 0
M  V30 4993 H 475.241 -3.71516 -0.321023 0
M  V30 4994 N 477.426 -0.562348 -1.47226 0
M  V30 4995 C 478.842 -0.222492 -1.58042 0
M  V30 4996 C 479.042 1.27505 -1.56028 0
M  V30 4997 O 478.098 2.05555 -1.46641 0
M  V30 4998 C 479.411 -0.853694 -2.88327 0
M  V30 4999 C 480.959 -0.825397 -3.01921 0
M  V30 5000 C 481.434 -1.43576 -4.34914 0
M  V30 5001 N 482.925 -1.39918 -4.41562 0
M  V30 5002 C 483.66 -1.84103 -5.43041 0
M  V30 5003 N 483.156 -2.36167 -6.51304 0
M  V30 5004 N 484.949 -1.75142 -5.34118 0
M  V30 5005 H 477.1 -1.53525 -1.46778 0
M  V30 5006 H 479.363 -0.640527 -0.698877 0
M  V30 5007 H 479.069 -1.90635 -2.95552 0
M  V30 5008 H 478.943 -0.34977 -3.75575 0
M  V30 5009 H 481.33 0.218583 -2.94289 0
M  V30 5010 H 481.411 -1.36713 -2.16202 0
M  V30 5011 H 481.055 -2.47884 -4.43301 0
M  V30 5012 H 480.985 -0.869427 -5.19373 0
M  V30 5013 H 483.476 -1.0184 -3.63919 0
M  V30 5014 H 483.789 -2.67793 -7.24919 0
M  V30 5015 H 482.134 -2.40181 -6.52179 0
M  V30 5016 H 485.325 -1.34241 -4.48439 0
M  V30 5017 H 485.498 -2.09895 -6.13065 0
M  V30 5018 N 478.904 1.54736 -0.299062 0
M  V30 5019 C 480.129 2.04975 0.316254 0
M  V30 5020 C 480.554 1.17501 1.46885 0
M  V30 5021 O 479.912 0.178678 1.80417 0
M  V30 5022 C 479.96 3.52672 0.751997 0
M  V30 5023 O 479.064 3.68226 1.85697 0
M  V30 5024 H 478.405 0.661126 0.0617175 0
M  V30 5025 H 480.935 1.99805 -0.440341 0
M  V30 5026 H 480.945 3.94488 1.04133 0
M  V30 5027 H 479.62 4.158 -0.0911482 0
M  V30 5028 H 478.197 3.38316 1.56834 0
M  V30 5029 N 480.382 0.0267497 1.57577 0
M  V30 5030 C 481.622 -0.65659 1.93567 0
M  V30 5031 C 481.986 -1.69429 0.903213 0
M  V30 5032 O 483.187 -2.42994 1.14923 0
M  V30 5033 C 481.458 -1.25912 3.34486 0
M  V30 5034 S 483.017 -1.96386 3.924 0
M  V30 5035 H 479.835 -0.216237 0.67732 0
M  V30 5036 H 482.437 0.0898475 1.95293 0
M  V30 5037 H 481.141 -0.491405 4.07447 0
M  V30 5038 H 480.672 -2.04291 3.36198 0
M  V30 5039 H 482.687 -3.24202 3.75643 0
M  V30 5040 N 481.861 -1.55662 -0.24637 0
M  V30 5041 C 482.808 -1.90361 -1.30504 0
M  V30 5042 C 483.778 -0.757905 -1.47801 0
M  V30 5043 O 484.963 -1.01161 -1.61775 0
M  V30 5044 C 482.103 -2.2042 -2.65535 0
M  V30 5045 C 481.216 -3.47799 -2.56242 0
M  V30 5046 C 480.351 -3.67426 -3.8363 0
M  V30 5047 C 479.39 -4.88403 -3.68956 0
M  V30 5048 N 478.527 -5.04548 -4.88237 0
M  V30 5049 H 483.367 -2.80645 -1.00213 0
M  V30 5050 H 480.904 -1.38924 -0.483577 0
M  V30 5051 H 482.862 -2.35853 -3.44135 0
M  V30 5052 H 481.492 -1.3334 -2.93973 0
M  V30 5053 H 480.544 -3.40694 -1.69208 0
M  V30 5054 H 481.856 -4.36544 -2.4131 0
M  V30 5055 H 481.01 -3.82821 -4.70673 0
M  V30 5056 H 479.749 -2.76914 -4.01459 0
M  V30 5057 H 478.754 -4.72984 -2.80296 0
M  V30 5058 H 479.979 -5.80375 -3.52621 0
M  V30 5059 H 477.925 -4.16974 -5.06427 0
M  V30 5060 H 477.842 -5.87384 -4.75937 0
M  V30 5061 H 479.11 -5.24355 -5.76777 0
M  V30 5062 N 483.339 0.512053 -1.4905 0
M  V30 5063 C 484.75 1.09376 -1.51307 0
M  V30 5064 C 485.101 1.94 -0.292971 0
M  V30 5065 O 484.226 2.07965 0.598277 0
M  V30 5066 C 484.821 1.99031 -2.74176 0
M  V30 5067 C 483.38 2.52385 -2.79247 0
M  V30 5068 C 482.527 1.29749 -2.45073 0
M  V30 5069 H 485.478 0.296467 -1.55906 0
M  V30 5070 H 485.499 2.83569 -2.53711 0
M  V30 5071 H 485.011 1.37412 -3.62959 0
M  V30 5072 H 483.112 3.17673 -1.94716 0
M  V30 5073 H 483.225 2.90293 -3.81139 0
M  V30 5074 H 481.589 1.61912 -1.96612 0
M  V30 5075 H 482.372 0.698555 -3.36118 0
M  V30 5076 N 484.817 1.37938 0.762283 0
M  V30 5077 C 485.764 1.34467 1.87583 0
M  V30 5078 C 486.734 0.208633 1.64785 0
M  V30 5079 O 487.919 0.399494 1.86571 0
M  V30 5080 C 485.059 1.16692 3.24772 0
M  V30 5081 C 484.172 2.39608 3.59461 0
M  V30 5082 C 483.307 2.14631 4.85908 0
M  V30 5083 C 482.346 3.33364 5.13357 0
M  V30 5084 N 481.483 3.07877 6.30996 0
M  V30 5085 H 486.323 2.29669 1.89885 0
M  V30 5086 H 483.86 1.14116 0.928219 0
M  V30 5087 H 485.818 1.04405 4.03925 0
M  V30 5088 H 484.448 0.251333 3.2182 0
M  V30 5089 H 483.5 2.626 2.75219 0
M  V30 5090 H 484.812 3.28128 3.75678 0
M  V30 5091 H 483.966 1.99429 5.72986 0
M  V30 5092 H 482.705 1.23463 4.71814 0
M  V30 5093 H 481.71 3.49094 4.24751 0
M  V30 5094 H 482.935 4.25395 5.29354 0
M  V30 5095 H 480.881 2.19348 6.18241 0
M  V30 5096 H 480.798 3.89944 6.47673 0
M  V30 5097 H 482.066 2.96313 7.20985 0
M  V30 5098 N 486.295 -0.989507 1.22664 0
M  V30 5099 C 487.706 -1.54406 1.04955 0
M  V30 5100 C 488.057 -1.92366 -0.385951 0
M  V30 5101 O 487.182 -1.75111 -1.27142 0
M  V30 5102 C 487.777 -2.80578 1.89899 0
M  V30 5103 C 486.336 -3.32464 1.76478 0
M  V30 5104 C 485.483 -2.05524 1.86159 0
M  V30 5105 H 488.434 -0.810211 1.3646 0
M  V30 5106 H 488.455 -3.53075 1.4184 0
M  V30 5107 H 487.967 -2.52918 2.94371 0
M  V30 5108 H 486.068 -3.65024 0.747528 0
M  V30 5109 H 486.181 -4.02838 2.59342 0
M  V30 5110 H 484.545 -2.19241 1.29636 0
M  V30 5111 H 485.328 -1.80258 2.92168 0
M  V30 5112 N 487.773 -1.03688 -1.18687 0
M  V30 5113 C 489.022 -0.733235 -1.879 0
M  V30 5114 C 489.335 0.741745 -1.8099 0
M  V30 5115 O 490.541 1.15875 -2.4553 0
M  V30 5116 C 488.997 -1.26127 -3.37076 0
M  V30 5117 C 488.605 -2.76461 -3.52524 0
M  V30 5118 C 490.349 -1.03398 -4.11715 0
M  V30 5119 C 488.256 -3.22642 -4.95637 0
M  V30 5120 H 487.186 -0.270584 -0.703776 0
M  V30 5121 H 489.837 -1.25222 -1.34133 0
M  V30 5122 H 488.219 -0.670165 -3.90288 0
M  V30 5123 H 489.393 -3.41296 -3.09602 0
M  V30 5124 H 487.708 -2.97559 -2.91286 0
M  V30 5125 H 490.305 -1.3542 -5.17267 0
M  V30 5126 H 490.648 0.0289246 -4.1629 0
M  V30 5127 H 491.181 -1.5895 -3.64664 0
M  V30 5128 H 487.92 -4.28296 -4.96228 0
M  V30 5129 H 487.44 -2.62539 -5.39289 0
M  V30 5130 H 489.119 -3.16444 -5.64333 0
M  V30 5131 N 489.251 1.34841 -0.815825 0
M  V30 5132 C 490.499 1.98107 -0.399744 0
M  V30 5133 C 490.82 1.65019 1.03894 0
M  V30 5134 O 490.09 0.937311 1.72021 0
M  V30 5135 H 488.67 0.732827 -0.144823 0
M  V30 5136 H 491.332 1.64599 -1.0437 0
M  V30 5137 H 490.428 3.07856 -0.512965 0
M  V30 5138 N 490.729 0.570148 1.46925 0
M  V30 5139 C 491.676 -0.170257 2.30171 0
M  V30 5140 C 492.646 -0.896099 1.39855 0
M  V30 5141 O 493.831 -0.889248 1.68811 0
M  V30 5142 C 490.971 -1.18605 3.24079 0
M  V30 5143 C 490.084 -0.464947 4.29491 0
M  V30 5144 C 489.219 -1.46716 5.10537 0
M  V30 5145 C 488.258 -0.731758 6.0771 0
M  V30 5146 N 487.395 -1.68142 6.81669 0
M  V30 5147 H 492.235 0.545713 2.92961 0
M  V30 5148 H 489.772 0.280938 1.44392 0
M  V30 5149 H 491.73 -1.78771 3.76957 0
M  V30 5150 H 490.36 -1.86989 2.63125 0
M  V30 5151 H 489.412 0.251506 3.79568 0
M  V30 5152 H 490.724 0.110548 4.98677 0
M  V30 5153 H 489.878 -2.14199 5.6763 0
M  V30 5154 H 488.617 -2.07658 4.41282 0
M  V30 5155 H 487.622 -0.0430787 5.49783 0
M  V30 5156 H 488.847 -0.127904 6.7898 0
M  V30 5157 H 486.793 -2.27918 6.15134 0
M  V30 5158 H 486.71 -1.15841 7.47072 0
M  V30 5159 H 487.978 -2.347 7.43328 0
M  V30 5160 N 492.207 -1.54576 0.307264 0
M  V30 5161 C 493.137 -2.26708 -0.55907 0
M  V30 5162 C 494.118 -1.26893 -1.1328 0
M  V30 5163 O 495.303 -1.55677 -1.16097 0
M  V30 5164 C 492.433 -3.01259 -1.72801 0
M  V30 5165 C 491.387 -4.08275 -1.28435 0
M  V30 5166 C 490.713 -4.70575 -2.53895 0
M  V30 5167 C 492.013 -5.2068 -0.411038 0
M  V30 5168 H 493.707 -2.9937 0.042576 0
M  V30 5169 H 491.253 -1.43983 0.0219173 0
M  V30 5170 H 493.206 -3.50444 -2.34023 0
M  V30 5171 H 491.93 -2.26187 -2.356 0
M  V30 5172 H 490.589 -3.59949 -0.695161 0
M  V30 5173 H 490.237 -3.92136 -3.15021 0
M  V30 5174 H 489.937 -5.42854 -2.24908 0
M  V30 5175 H 491.461 -5.22527 -3.15908 0
M  V30 5176 H 492.875 -5.65721 -0.929097 0
M  V30 5177 H 491.272 -5.99716 -0.214664 0
M  V30 5178 H 492.342 -4.81629 0.562287 0
M  V30 5179 N 493.685 -0.035106 -1.57561 0
M  V30 5180 C 494.648 0.929819 -2.09492 0
M  V30 5181 C 495.648 1.25026 -1.01119 0
M  V30 5182 O 496.838 1.18961 -1.27255 0
M  V30 5183 C 493.97 2.24457 -2.56577 0
M  V30 5184 H 495.163 0.479935 -2.96035 0
M  V30 5185 H 492.716 0.213033 -1.54841 0
M  V30 5186 H 493.451 2.74061 -1.73382 0
M  V30 5187 H 493.236 2.02508 -3.35757 0
M  V30 5188 H 494.726 2.93607 -2.96959 0
M  V30 5189 N 495.163 1.55791 0.238111 0
M  V30 5190 C 496.579 1.48411 0.587045 0
M  V30 5191 C 496.779 0.72702 1.87927 0
M  V30 5192 O 495.835 0.259942 2.51158 0
M  V30 5193 C 497.148 2.92873 0.681623 0
M  V30 5194 C 498.696 3.03295 0.773363 0
M  V30 5195 C 499.171 4.49082 0.899428 0
M  V30 5196 N 500.662 4.53056 0.964075 0
M  V30 5197 C 501.397 5.63117 1.08104 0
M  V30 5198 N 500.893 6.82969 1.16299 0
M  V30 5199 N 502.686 5.50933 1.11488 0
M  V30 5200 H 494.837 2.0345 -0.610076 0
M  V30 5201 H 497.1 0.924034 -0.211813 0
M  V30 5202 H 496.806 3.51142 -0.19802 0
M  V30 5203 H 496.68 3.43851 1.55069 0
M  V30 5204 H 499.067 2.45101 1.64346 0
M  V30 5205 H 499.148 2.55513 -0.121034 0
M  V30 5206 H 498.792 5.07889 0.0338586 0
M  V30 5207 H 498.722 4.94553 1.809 0
M  V30 5208 H 501.213 3.66737 0.91173 0
M  V30 5209 H 501.526 7.62598 1.25155 0
M  V30 5210 H 499.871 6.85712 1.13241 0
M  V30 5211 H 503.062 4.56231 1.0474 0
M  V30 5212 H 503.235 6.36743 1.20259 0
M  V30 5213 N 496.642 -0.504142 1.49319 0
M  V30 5214 C 497.552 -1.63248 1.68486 0
M  V30 5215 C 498.568 -1.64488 0.567432 0
M  V30 5216 O 499.744 -1.82966 0.841749 0
M  V30 5217 C 496.809 -2.99627 1.74426 0
M  V30 5218 C 495.87 -3.09039 2.97982 0
M  V30 5219 C 495.103 -4.38913 3.0363 0
M  V30 5220 O 495.326 -5.27528 2.16958 0
M  V30 5221 O 494.26 -4.53231 3.96062 0
M  V30 5222 H 498.086 -1.50008 2.64067 0
M  V30 5223 H 495.671 -0.680086 1.33023 0
M  V30 5224 H 497.553 -3.80689 1.80705 0
M  V30 5225 H 496.228 -3.13136 0.820233 0
M  V30 5226 H 495.135 -2.27177 2.97223 0
M  V30 5227 H 496.468 -3.00456 3.89855 0
M  V30 5228 N 498.12 -1.38341 -0.754957 0
M  V30 5229 C 499.369 -1.33791 -1.5094 0
M  V30 5230 C 499.682 0.0699267 -1.95475 0
M  V30 5231 O 500.888 0.237956 -2.70455 0
M  V30 5232 C 499.344 -2.34934 -2.72643 0
M  V30 5233 C 498.952 -3.81332 -2.35138 0
M  V30 5234 C 500.696 -2.39425 -3.50536 0
M  V30 5235 C 498.603 -4.74164 -3.53444 0
M  V30 5236 H 497.533 -0.497314 -0.566741 0
M  V30 5237 H 500.184 -1.63888 -0.825403 0
M  V30 5238 H 498.566 -1.97878 -3.43017 0
M  V30 5239 H 499.74 -4.27319 -1.7244 0
M  V30 5240 H 498.055 -3.79946 -1.70382 0
M  V30 5241 H 500.652 -3.0598 -4.38498 0
M  V30 5242 H 500.995 -1.41278 -3.91594 0
M  V30 5243 H 501.528 -2.75274 -2.87174 0
M  V30 5244 H 498.267 -5.73501 -3.17453 0
M  V30 5245 H 497.787 -4.3287 -4.15191 0
M  V30 5246 H 499.466 -4.92111 -4.20043 0
M  V30 5247 N 499.598 0.982988 -1.23187 0
M  V30 5248 C 500.846 1.72052 -1.06031 0
M  V30 5249 C 501.167 1.90769 0.404019 0
M  V30 5250 O 500.437 1.47446 1.28982 0
M  V30 5251 H 499.017 0.637499 -0.389363 0
M  V30 5252 H 501.679 1.18338 -1.54862 0
M  V30 5253 H 500.775 2.7111 -1.54615 0
M  V30 5254 N 501.076 1.04316 1.18135 0
M  V30 5255 C 502.006 0.657299 2.24058 0
M  V30 5256 C 502.987 -0.340678 1.66654 0
M  V30 5257 O 504.172 -0.220223 1.92947 0
M  V30 5258 C 501.302 0.0220715 3.47293 0
M  V30 5259 C 500.256 0.943857 4.17463 0
M  V30 5260 C 499.582 0.172973 5.3442 0
M  V30 5261 C 500.882 2.26409 4.70677 0
M  V30 5262 H 502.576 1.5428 2.56589 0
M  V30 5263 H 500.122 0.743263 1.23335 0
M  V30 5264 H 502.075 -0.259607 4.206 0
M  V30 5265 H 500.799 -0.898323 3.14003 0
M  V30 5266 H 499.458 1.20996 3.46057 0
M  V30 5267 H 499.106 -0.749907 4.97379 0
M  V30 5268 H 498.806 0.787098 5.82304 0
M  V30 5269 H 500.33 -0.101628 6.10515 0
M  V30 5270 H 501.744 2.04294 5.35665 0
M  V30 5271 H 500.141 2.8314 5.29105 0
M  V30 5272 H 501.211 2.90883 3.87962 0
M  V30 5273 N 502.554 -1.34406 0.822964 0
M  V30 5274 C 503.484 -2.32052 0.259608 0
M  V30 5275 C 504.465 -1.58243 -0.623961 0
M  V30 5276 O 505.65 -1.86224 -0.55083 0
M  V30 5277 C 502.78 -3.42434 -0.579314 0
M  V30 5278 C 501.734 -4.27499 0.20712 0
M  V30 5279 C 501.06 -5.29349 -0.754547 0
M  V30 5280 C 502.36 -5.02758 1.41533 0
M  V30 5281 H 504.054 -2.79418 1.07545 0
M  V30 5282 H 501.6 -1.34338 0.518593 0
M  V30 5283 H 503.553 -4.0976 -0.983612 0
M  V30 5284 H 502.277 -2.93717 -1.4282 0
M  V30 5285 H 500.936 -3.61776 0.592787 0
M  V30 5286 H 500.584 -4.76895 -1.59939 0
M  V30 5287 H 500.284 -5.8714 -0.232561 0
M  V30 5288 H 501.808 -5.99544 -1.1567 0
M  V30 5289 H 503.222 -5.62938 1.08504 0
M  V30 5290 H 501.619 -5.70123 1.87296 0
M  V30 5291 H 502.689 -4.32451 2.1935 0
M  V30 5292 N 504.032 -0.577932 -1.46621 0
M  V30 5293 C 505.257 -0.0652536 -2.07297 0
M  V30 5294 C 505.682 1.22828 -1.4246 0
M  V30 5295 O 505.04 1.74075 -0.506718 0
M  V30 5296 C 505.088 0.0920589 -3.60482 0
M  V30 5297 O 504.192 1.14972 -3.96049 0
M  V30 5298 H 503.533 -0.06065 -0.661224 0
M  V30 5299 H 506.063 -0.799515 -1.88332 0
M  V30 5300 H 506.073 0.299741 -4.06897 0
M  V30 5301 H 504.748 -0.852612 -4.07067 0
M  V30 5302 H 503.325 0.920879 -3.61351 0
M  V30 5303 N 505.51 1.54411 -0.315457 0
M  V30 5304 C 506.42 2.27737 0.56329 0
M  V30 5305 C 507.436 1.31787 1.13614 0
M  V30 5306 O 508.612 1.64791 1.15784 0
M  V30 5307 C 505.677 3.01478 1.71207 0
M  V30 5308 C 504.738 4.12997 1.17185 0
M  V30 5309 C 503.971 4.83212 2.26588 0
M  V30 5310 O 504.194 4.52884 3.46775 0
M  V30 5311 O 503.128 5.70299 1.92463 0
M  V30 5312 H 506.954 3.03683 -0.0319614 0
M  V30 5313 H 504.539 1.49178 -0.0814188 0
M  V30 5314 H 506.421 3.47683 2.38106 0
M  V30 5315 H 505.096 2.28414 2.29366 0
M  V30 5316 H 504.003 3.71159 0.468174 0
M  V30 5317 H 505.336 4.8808 0.635501 0
M  V30 5318 N 506.988 0.0434614 1.5754 0
M  V30 5319 C 507.898 -0.94893 2.14552 0
M  V30 5320 C 508.914 -1.34707 1.10136 0
M  V30 5321 O 510.09 -1.42557 1.42266 0
M  V30 5322 C 507.155 -2.208 2.67298 0
M  V30 5323 C 506.216 -1.86893 3.86484 0
M  V30 5324 C 505.449 -3.06797 4.36705 0
M  V30 5325 O 505.672 -4.19921 3.86034 0
M  V30 5326 O 504.606 -2.8826 5.28384 0
M  V30 5327 H 508.432 -0.494099 2.99654 0
M  V30 5328 H 506.017 -0.177989 1.48336 0
M  V30 5329 H 507.899 -2.94686 3.01228 0
M  V30 5330 H 506.574 -2.65436 1.85272 0
M  V30 5331 H 505.481 -1.10347 3.57455 0
M  V30 5332 H 506.814 -1.47062 4.69716 0
M  V30 5333 N 508.466 -1.55915 -0.229846 0
M  V30 5334 C 509.712 -1.78807 -0.956868 0
M  V30 5335 C 510.045 -0.611687 -1.84315 0
M  V30 5336 O 509.32 0.389398 -1.90562 0
M  V30 5337 C 509.603 -3.11718 -1.80288 0
M  V30 5338 C 509.456 -4.3979 -0.943649 0
M  V30 5339 C 510.775 -3.40999 -2.78222 0
M  V30 5340 H 507.894 -0.6505 -0.346437 0
M  V30 5341 H 510.536 -1.88648 -0.226252 0
M  V30 5342 H 508.686 -3.03459 -2.42579 0
M  V30 5343 H 510.358 -4.60059 -0.338121 0
M  V30 5344 H 508.601 -4.33086 -0.248705 0
M  V30 5345 H 509.272 -5.29208 -1.5698 0
M  V30 5346 H 511.748 -3.49332 -2.26067 0
M  V30 5347 H 510.624 -4.35183 -3.34526 0
M  V30 5348 H 510.885 -2.62754 -3.55546 0
M  V30 5349 N 509.944 0.496216 -1.49584 0
M  V30 5350 C 510.854 1.62352 -1.69349 0
M  V30 5351 C 511.87 1.64184 -0.576147 0
M  V30 5352 O 513.046 1.82517 -0.85144 0
M  V30 5353 C 510.111 2.98698 -1.76013 0
M  V30 5354 C 509.172 3.07454 -2.99617 0
M  V30 5355 C 508.405 4.37296 -3.05953 0
M  V30 5356 O 508.628 5.2637 -2.19752 0
M  V30 5357 O 507.562 4.51124 -3.9846 0
M  V30 5358 H 511.388 1.48606 -2.64859 0
M  V30 5359 H 508.973 0.673022 -1.33382 0
M  V30 5360 H 510.855 3.79725 -1.82721 0
M  V30 5361 H 509.53 3.12696 -0.836828 0
M  V30 5362 H 508.437 2.25597 -2.98424 0
M  V30 5363 H 509.77 2.98385 -3.91443 0
M  V30 5364 N 511.423 1.38739 0.74761 0
M  V30 5365 C 512.353 1.39173 1.87492 0
M  V30 5366 C 513.334 0.256794 1.6815 0
M  V30 5367 O 514.519 0.460762 1.88655 0
M  V30 5368 C 511.649 1.22197 3.25093 0
M  V30 5369 C 510.603 2.32957 3.59047 0
M  V30 5370 C 509.929 2.01082 4.95449 0
M  V30 5371 C 511.229 3.75237 3.6331 0
M  V30 5372 H 512.923 2.3351 1.87386 0
M  V30 5373 H 510.469 1.12399 0.900134 0
M  V30 5374 H 512.422 1.21124 4.03617 0
M  V30 5375 H 511.146 0.243241 3.25693 0
M  V30 5376 H 509.805 2.33226 2.82845 0
M  V30 5377 H 509.453 1.01678 4.92616 0
M  V30 5378 H 509.153 2.75267 5.19136 0
M  V30 5379 H 510.677 2.01638 5.76346 0
M  V30 5380 H 512.091 3.76966 4.31937 0
M  V30 5381 H 510.488 4.48677 3.98509 0
M  V30 5382 H 511.558 4.07122 2.634 0
M  V30 5383 N 512.901 -0.976442 1.23707 0
M  V30 5384 C 514.131 -1.75087 1.09673 0
M  V30 5385 C 514.539 -1.85852 -0.354344 0
M  V30 5386 O 513.882 -1.33985 -1.25673 0
M  V30 5387 C 513.944 -3.19272 1.65245 0
M  V30 5388 C 513.608 -3.32004 3.14042 0
M  V30 5389 C 514.605 -3.18017 4.11292 0
M  V30 5390 C 512.29 -3.56525 3.53829 0
M  V30 5391 C 514.284 -3.28363 5.46312 0
M  V30 5392 C 511.971 -3.6651 4.88993 0
M  V30 5393 C 512.969 -3.52439 5.85043 0
M  V30 5394 O 512.657 -3.62063 7.1775 0
M  V30 5395 H 512.389 -0.556164 0.384262 0
M  V30 5396 H 514.943 -1.23518 1.64111 0
M  V30 5397 H 513.173 -3.72107 1.05231 0
M  V30 5398 H 514.862 -3.7849 1.46629 0
M  V30 5399 H 515.628 -2.98966 3.81896 0
M  V30 5400 H 511.507 -3.66547 2.79579 0
M  V30 5401 H 515.051 -3.17297 6.21263 0
M  V30 5402 H 510.948 -3.85072 5.18063 0
M  V30 5403 H 511.716 -3.78833 7.25553 0
M  V30 5404 N 514.379 -1.04941 -1.1758 0
M  V30 5405 C 515.627 -0.756492 -1.87408 0
M  V30 5406 C 515.948 0.718478 -1.81281 0
M  V30 5407 O 515.218 1.519 -1.23706 0
M  V30 5408 H 513.798 -0.276841 -0.693807 0
M  V30 5409 H 516.46 -1.32803 -1.42652 0
M  V30 5410 H 515.556 -1.06918 -2.93215 0
M  V30 5411 N 515.857 1.33968 -0.830081 0
M  V30 5412 C 516.767 2.33164 -0.259207 0
M  V30 5413 C 517.783 1.62951 0.610164 0
M  V30 5414 O 518.959 1.94668 0.516369 0
M  V30 5415 C 516.024 3.42088 0.563598 0
M  V30 5416 C 515.085 4.28037 -0.329014 0
M  V30 5417 C 514.318 5.3176 0.454616 0
M  V30 5418 O 514.541 5.44876 1.6872 0
M  V30 5419 O 513.475 6.01669 -0.166794 0
M  V30 5420 H 517.301 2.83832 -1.08041 0
M  V30 5421 H 514.886 1.37154 -0.59239 0
M  V30 5422 H 516.768 4.08581 1.03147 0
M  V30 5423 H 515.443 2.93651 1.36201 0
M  V30 5424 H 514.35 3.64443 -0.844538 0
M  V30 5425 H 515.683 4.79934 -1.09196 0
M  V30 5426 N 517.335 0.585699 1.46312 0
M  V30 5427 C 518.563 0.0781299 2.06752 0
M  V30 5428 C 518.978 -1.22812 1.43396 0
M  V30 5429 O 518.335 -1.74318 0.540314 0
M  V30 5430 C 518.386 -0.0911927 3.61385 0
M  V30 5431 O 518.107 1.16336 4.22371 0
M  V30 5432 C 519.608 -0.632765 4.38761 0
M  V30 5433 H 516.828 0.0588188 0.668417 0
M  V30 5434 H 519.372 0.807218 1.87894 0
M  V30 5435 H 517.527 -0.770514 3.7966 0
M  V30 5436 H 517.941 0.979082 5.15281 0
M  V30 5437 H 519.415 -0.70041 5.47538 0
M  V30 5438 H 519.892 -1.65039 4.07012 0
M  V30 5439 H 520.498 0.0117856 4.25298 0
M  V30 5440 N 518.813 -1.54241 0.323641 0
M  V30 5441 C 519.76 -2.24339 -0.542277 0
M  V30 5442 C 520.73 -1.23421 -1.11159 0
M  V30 5443 O 521.915 -1.52104 -1.15192 0
M  V30 5444 C 519.055 -3.00479 -1.69725 0
M  V30 5445 C 518.168 -4.16214 -1.15716 0
M  V30 5446 C 517.303 -4.79884 -2.27783 0
M  V30 5447 C 516.342 -5.87722 -1.71023 0
M  V30 5448 N 515.479 -6.45254 -2.76752 0
M  V30 5449 H 520.319 -2.97935 0.0620613 0
M  V30 5450 H 517.856 -1.47039 0.0423993 0
M  V30 5451 H 519.814 -3.42869 -2.3769 0
M  V30 5452 H 518.444 -2.29217 -2.27288 0
M  V30 5453 H 517.496 -3.78605 -0.369063 0
M  V30 5454 H 518.808 -4.93838 -0.701832 0
M  V30 5455 H 517.962 -5.25243 -3.03651 0
M  V30 5456 H 516.701 -4.01641 -2.76652 0
M  V30 5457 H 515.706 -5.41765 -0.936518 0
M  V30 5458 H 516.931 -6.67863 -1.2303 0
M  V30 5459 H 514.877 -5.69884 -3.24912 0
M  V30 5460 H 514.794 -7.18292 -2.35782 0
M  V30 5461 H 516.062 -6.95269 -3.5245 0
M  V30 5462 N 520.291 -0.0518155 -1.57515 0
M  V30 5463 C 521.254 0.907547 -2.10467 0
M  V30 5464 C 522.254 1.23947 -1.02439 0
M  V30 5465 O 523.444 1.17604 -1.2851 0
M  V30 5466 C 520.576 2.21723 -2.58944 0
M  V30 5467 H 521.769 0.44851 -2.96527 0
M  V30 5468 H 519.322 0.196598 -1.55059 0
M  V30 5469 H 520.057 2.72206 -1.76279 0
M  V30 5470 H 519.842 1.98935 -3.37886 0
M  V30 5471 H 521.332 2.90441 -3.00056 0
M  V30 5472 N 521.769 1.56035 0.221574 0
M  V30 5473 C 522.716 1.92413 1.27459 0
M  V30 5474 C 523.686 0.781323 1.46576 0
M  V30 5475 O 524.871 1.03721 1.60145 0
M  V30 5476 C 522.011 2.24617 2.61995 0
M  V30 5477 C 521.124 3.51831 2.50677 0
M  V30 5478 C 520.259 3.73482 3.77736 0
M  V30 5479 C 519.298 4.94211 3.6114 0
M  V30 5480 N 518.435 5.12252 4.80148 0
M  V30 5481 H 523.275 2.82203 0.957355 0
M  V30 5482 H 520.812 1.39676 0.461415 0
M  V30 5483 H 522.77 2.41298 3.40339 0
M  V30 5484 H 521.4 1.38 2.91815 0
M  V30 5485 H 520.452 3.43343 1.63767 0
M  V30 5486 H 521.764 4.40328 2.34334 0
M  V30 5487 H 520.918 3.9026 4.64523 0
M  V30 5488 H 519.657 2.83266 3.97003 0
M  V30 5489 H 518.662 4.77384 2.72736 0
M  V30 5490 H 519.887 5.85912 3.43343 0
M  V30 5491 H 517.833 4.24978 4.99729 0
M  V30 5492 H 517.75 5.94881 4.66532 0
M  V30 5493 H 519.018 5.33465 5.68362 0
M  V30 5494 N 523.247 -0.488276 1.49845 0
M  V30 5495 C 524.493 -1.24341 1.6021 0
M  V30 5496 C 524.826 -1.91967 0.293651 0
M  V30 5497 O 524.101 -1.81323 -0.703718 0
M  V30 5498 C 524.384 -2.3005 2.77036 0
M  V30 5499 C 524.237 -1.66842 4.17713 0
M  V30 5500 C 525.556 -3.31509 2.89464 0
M  V30 5501 H 522.675 -0.450704 0.583125 0
M  V30 5502 H 525.317 -0.539673 1.82174 0
M  V30 5503 H 523.467 -2.90071 2.58439 0
M  V30 5504 H 525.139 -1.1055 4.47858 0
M  V30 5505 H 523.382 -0.972079 4.22768 0
M  V30 5506 H 524.053 -2.43576 4.95353 0
M  V30 5507 H 526.529 -2.81493 3.06433 0
M  V30 5508 H 525.405 -4.02822 3.72861 0
M  V30 5509 H 525.666 -3.94603 1.99351 0
M  V30 5510 N 524.725 -1.39134 -0.740242 0
M  V30 5511 C 525.655 -1.40165 -1.86751 0
M  V30 5512 C 526.636 -0.265708 -1.68012 0
M  V30 5513 O 527.821 -0.47076 -1.88408 0
M  V30 5514 C 524.951 -1.2392 -3.2444 0
M  V30 5515 C 523.905 -2.34858 -3.57807 0
M  V30 5516 C 523.231 -2.03707 -4.94376 0
M  V30 5517 C 524.531 -3.77159 -3.61315 0
M  V30 5518 H 526.225 -2.345 -1.86145 0
M  V30 5519 H 523.771 -1.12875 -0.89416 0
M  V30 5520 H 525.724 -1.23263 -4.02969 0
M  V30 5521 H 524.448 -0.26051 -3.25559 0
M  V30 5522 H 523.107 -2.34723 -2.81604 0
M  V30 5523 H 522.755 -1.04289 -4.9207 0
M  V30 5524 H 522.455 -2.78016 -5.17669 0
M  V30 5525 H 523.979 -2.04691 -5.75268 0
M  V30 5526 H 525.393 -3.79252 -4.29931 0
M  V30 5527 H 523.79 -4.50784 -3.96124 0
M  V30 5528 H 524.86 -4.08513 -2.61238 0
M  V30 5529 N 526.204 0.969867 -1.24223 0
M  V30 5530 C 527.134 2.08191 -1.05729 0
M  V30 5531 C 528.115 1.70075 0.0290765 0
M  V30 5532 O 529.3 1.93712 -0.137583 0
M  V30 5533 C 526.43 3.40991 -0.658995 0
M  V30 5534 C 525.384 3.93054 -1.69389 0
M  V30 5535 C 524.71 5.22171 -1.15072 0
M  V30 5536 C 526.01 4.21137 -3.08935 0
M  V30 5537 H 527.704 2.23921 -1.98746 0
M  V30 5538 H 525.25 1.07602 -0.956967 0
M  V30 5539 H 527.203 4.18221 -0.51662 0
M  V30 5540 H 525.927 3.25155 0.30686 0
M  V30 5541 H 524.586 3.17977 -1.82444 0
M  V30 5542 H 524.234 5.02694 -0.175539 0
M  V30 5543 H 523.934 5.57973 -1.84229 0
M  V30 5544 H 525.458 6.02013 -1.02042 0
M  V30 5545 H 526.872 4.8908 -2.99121 0
M  V30 5546 H 525.269 4.68163 -3.75425 0
M  V30 5547 H 526.339 3.27996 -3.57137 0
M  V30 5548 N 527.682 1.05563 1.17022 0
M  V30 5549 C 528.907 0.788437 1.91829 0
M  V30 5550 C 529.332 -0.650356 1.76499 0
M  V30 5551 O 528.69 -1.45229 1.08527 0
M  V30 5552 C 528.738 1.1786 3.40795 0
M  V30 5553 O 527.842 0.312965 4.11211 0
M  V30 5554 H 527.183 0.288794 0.597908 0
M  V30 5555 H 529.713 1.40948 1.48307 0
M  V30 5556 H 529.723 1.14697 3.91546 0
M  V30 5557 H 528.398 2.22666 3.51273 0
M  V30 5558 H 526.975 0.405515 3.70689 0
M  V30 5559 N 529.16 -1.33526 0.837174 0
M  V30 5560 C 530.123 -2.27551 0.274421 0
M  V30 5561 C 531.123 -1.50886 -0.555881 0
M  V30 5562 O 532.313 -1.70227 -0.369918 0
M  V30 5563 C 529.445 -3.35332 -0.613605 0
M  V30 5564 H 530.638 -2.78837 1.10408 0
M  V30 5565 H 528.191 -1.439 0.610126 0
M  V30 5566 H 528.926 -2.89285 -1.46577 0
M  V30 5567 H 528.711 -3.92095 -0.0195341 0
M  V30 5568 H 530.201 -4.05433 -1.00068 0
M  V30 5569 N 530.638 -0.59345 -1.46 0
M  V30 5570 C 531.568 0.121192 -2.33185 0
M  V30 5571 C 532.549 0.872977 -1.4599 0
M  V30 5572 O 533.734 0.846321 -1.74789 0
M  V30 5573 C 530.864 1.12844 -3.28456 0
M  V30 5574 C 529.818 0.4908 -4.25177 0
M  V30 5575 C 529.144 1.60529 -5.10034 0
M  V30 5576 C 530.444 -0.578949 -5.19081 0
M  V30 5577 H 532.138 -0.606767 -2.93187 0
M  V30 5578 H 529.684 -0.293242 -1.40983 0
M  V30 5579 H 531.637 1.63684 -3.88311 0
M  V30 5580 H 530.361 1.88681 -2.66584 0
M  V30 5581 H 529.02 0.00339328 -3.666 0
M  V30 5582 H 528.668 2.35359 -4.44539 0
M  V30 5583 H 528.368 1.18422 -5.75543 0
M  V30 5584 H 529.892 2.11623 -5.72755 0
M  V30 5585 H 531.306 -0.155199 -5.7309 0
M  V30 5586 H 529.703 -0.920947 -5.92991 0
M  V30 5587 H 530.773 -1.46109 -4.62364 0
M  V30 5588 N 532.116 1.54067 -0.331816 0
M  V30 5589 C 533.026 2.28322 0.539104 0
M  V30 5590 C 534.042 1.32985 1.1221 0
M  V30 5591 O 535.218 1.6601 1.1403 0
M  V30 5592 C 532.283 3.03277 1.68 0
M  V30 5593 C 531.344 4.14216 1.12798 0
M  V30 5594 C 530.577 4.85588 2.2145 0
M  V30 5595 O 530.8 4.56536 3.41952 0
M  V30 5596 O 529.734 5.72309 1.86404 0
M  V30 5597 H 533.56 3.03632 -0.0641692 0
M  V30 5598 H 531.145 1.49083 -0.0972365 0
M  V30 5599 H 533.027 3.50189 2.34405 0
M  V30 5600 H 531.702 2.30834 2.2693 0
M  V30 5601 H 530.609 3.71635 0.428782 0
M  V30 5602 H 531.942 4.88727 0.583698 0
M  V30 5603 N 533.594 0.0601682 1.57485 0
M  V30 5604 C 535.01 -0.296422 1.56823 0
M  V30 5605 C 535.21 -1.70831 1.0686 0
M  V30 5606 O 534.266 -2.4174 0.729245 0
M  V30 5607 C 535.579 -0.116681 3.00474 0
M  V30 5608 C 537.127 -0.187103 3.1244 0
M  V30 5609 C 537.602 -0.035783 4.57986 0
M  V30 5610 N 539.093 -0.0917676 4.63109 0
M  V30 5611 C 539.828 0.00107251 5.734 0
M  V30 5612 N 539.324 0.146773 6.92645 0
M  V30 5613 N 541.117 -0.0551577 5.62073 0
M  V30 5614 H 533.268 0.983055 1.88281 0
M  V30 5615 H 535.531 0.382386 0.867459 0
M  V30 5616 H 535.237 0.85712 3.41096 0
M  V30 5617 H 535.111 -0.873929 3.66936 0
M  V30 5618 H 537.498 -1.15138 2.71712 0
M  V30 5619 H 537.579 0.601052 2.48638 0
M  V30 5620 H 537.223 0.925212 4.99402 0
M  V30 5621 H 537.153 -0.843196 5.19806 0
M  V30 5622 H 539.644 -0.203261 3.77353 0
M  V30 5623 H 539.957 0.210076 7.72514 0
M  V30 5624 H 538.302 0.181979 6.94762 0
M  V30 5625 H 541.493 -0.167605 4.678 0
M  V30 5626 H 541.666 0.020652 6.47997 0
M  V30 5627 N 535.072 -1.5615 -0.213296 0
M  V30 5628 C 536.002 -1.96109 -1.26742 0
M  V30 5629 C 536.983 -0.830448 -1.48451 0
M  V30 5630 O 538.168 -1.09339 -1.60495 0
M  V30 5631 C 535.298 -2.28492 -2.61551 0
M  V30 5632 C 534.252 -3.44124 -2.54485 0
M  V30 5633 C 533.578 -3.62134 -3.93399 0
M  V30 5634 C 534.878 -4.78855 -2.08556 0
M  V30 5635 H 536.572 -2.84412 -0.935434 0
M  V30 5636 H 534.118 -1.36836 -0.44854 0
M  V30 5637 H 536.071 -2.55039 -3.3546 0
M  V30 5638 H 534.795 -1.37052 -2.96453 0
M  V30 5639 H 533.454 -3.17639 -1.83033 0
M  V30 5640 H 533.102 -2.68055 -4.25623 0
M  V30 5641 H 532.802 -4.39913 -3.89551 0
M  V30 5642 H 534.326 -3.91038 -4.68958 0
M  V30 5643 H 535.74 -5.04552 -2.72213 0
M  V30 5644 H 534.137 -5.59975 -2.1575 0
M  V30 5645 H 535.207 -4.73657 -1.03811 0
M  V30 5646 N 536.55 0.480323 -1.50102 0
M  V30 5647 C 537.497 1.57946 -1.6829 0
M  V30 5648 C 538.467 1.57611 -0.524223 0
M  V30 5649 O 539.652 1.75282 -0.753709 0
M  V30 5650 C 536.792 2.95978 -1.77457 0
M  V30 5651 C 535.905 3.06173 -3.04766 0
M  V30 5652 C 535.04 4.35063 -3.04784 0
M  V30 5653 C 534.079 4.38966 -4.26586 0
M  V30 5654 N 533.216 5.59314 -4.24396 0
M  V30 5655 H 538.056 1.41743 -2.62131 0
M  V30 5656 H 535.593 0.689304 -1.2995 0
M  V30 5657 H 537.551 3.76011 -1.80752 0
M  V30 5658 H 536.181 3.10837 -0.870637 0
M  V30 5659 H 535.233 2.19071 -3.10986 0
M  V30 5660 H 536.545 3.04916 -3.9475 0
M  V30 5661 H 535.699 5.23436 -3.06757 0
M  V30 5662 H 534.438 4.38915 -2.12614 0
M  V30 5663 H 533.443 3.48992 -4.24835 0
M  V30 5664 H 534.668 4.36813 -5.19972 0
M  V30 5665 H 532.614 5.63969 -3.35074 0
M  V30 5666 H 532.531 5.5976 -5.08138 0
M  V30 5667 H 533.799 6.49837 -4.30502 0
M  V30 5668 N 538.028 1.39524 0.732853 0
M  V30 5669 C 538.978 1.34905 1.83806 0
M  V30 5670 C 539.962 0.229546 1.59254 0
M  V30 5671 O 541.154 0.467255 1.70721 0
M  V30 5672 C 538.283 1.19699 3.21756 0
M  V30 5673 C 537.369 2.36359 3.5213 0
M  V30 5674 N 537.76 3.61834 3.53426 0
M  V30 5675 C 536.058 2.29363 3.82503 0
M  V30 5676 C 536.759 4.38992 3.81655 0
M  V30 5677 N 535.735 3.68606 3.99538 0
M  V30 5678 H 539.537 2.29882 1.83116 0
M  V30 5679 H 537.051 1.33051 0.931194 0
M  V30 5680 H 539.048 1.14472 4.00876 0
M  V30 5681 H 537.708 0.256739 3.23683 0
M  V30 5682 H 538.719 3.95228 3.34686 0
M  V30 5683 H 535.396 1.43612 3.92023 0
M  V30 5684 H 536.786 5.47763 3.89108 0
M  V30 5685 N 539.506 -0.963266 1.24736 0
M  V30 5686 C 540.922 -1.23273 1.01371 0
M  V30 5687 C 541.122 -1.99618 -0.274776 0
M  V30 5688 O 540.178 -2.32293 -0.989769 0
M  V30 5689 C 541.491 -2.01554 2.23152 0
M  V30 5690 C 543.039 -2.14629 2.27823 0
M  V30 5691 C 543.514 -2.96307 3.49237 0
M  V30 5692 N 545.005 -3.03887 3.49581 0
M  V30 5693 C 545.74 -3.67456 4.40186 0
M  V30 5694 N 545.236 -4.32706 5.41052 0
M  V30 5695 N 547.029 -3.64511 4.27888 0
M  V30 5696 H 539.18 -0.452294 2.07528 0
M  V30 5697 H 541.443 -0.262521 0.910926 0
M  V30 5698 H 541.149 -1.52847 3.1675 0
M  V30 5699 H 541.023 -3.02278 2.25628 0
M  V30 5700 H 543.41 -2.62537 1.34753 0
M  V30 5701 H 543.491 -1.13238 2.2937 0
M  V30 5702 H 543.135 -2.49091 4.42624 0
M  V30 5703 H 543.065 -3.97905 3.44933 0
M  V30 5704 H 545.556 -2.57477 2.76611 0
M  V30 5705 H 545.869 -4.79042 6.06415 0
M  V30 5706 H 544.214 -4.31361 5.44934 0
M  V30 5707 H 547.405 -3.12715 3.4832 0
M  V30 5708 H 547.578 -4.13768 4.98698 0
M  V30 5709 N 540.985 -1.06182 -1.16461 0
M  V30 5710 C 542.396 -0.802426 -1.68576 0
M  V30 5711 C 542.747 0.67412 -1.84255 0
M  V30 5712 O 541.872 1.52303 -1.5373 0
M  V30 5713 C 542.467 -1.45002 -3.06202 0
M  V30 5714 C 541.026 -1.23843 -3.55443 0
M  V30 5715 C 540.173 -1.52724 -2.31454 0
M  V30 5716 H 543.124 -1.22545 -1.00839 0
M  V30 5717 H 543.145 -0.864731 -3.70544 0
M  V30 5718 H 542.657 -2.52466 -2.94759 0
M  V30 5719 H 540.758 -0.183487 -3.72148 0
M  V30 5720 H 540.871 -1.95036 -4.37604 0
M  V30 5721 H 539.235 -0.947726 -2.36411 0
M  V30 5722 H 540.018 -2.61343 -2.22609 0
M  V30 5723 N 542.463 1.3308 -0.844243 0
M  V30 5724 C 543.74 1.92178 -0.364261 0
M  V30 5725 C 544.12 1.76961 1.15101 0
M  V30 5726 O 543.468 1.16128 1.9679 0
M  V30 5727 C 543.678 3.393 -0.817106 0
M  V30 5728 C 545.026 4.16444 -0.828236 0
M  V30 5729 O 546.05 3.47975 -0.761062 0
M  V30 5730 O 544.909 5.38685 -0.920926 0
M  V30 5731 H 542.003 0.820411 -0.10419 0
M  V30 5732 H 544.549 1.41918 -0.930453 0
M  V30 5733 H 543.321 3.44272 -1.85991 0
M  V30 5734 H 542.944 3.96947 -0.227785 0
M  V30 5735 N 543.941 0.601185 1.45683 0
M  V30 5736 C 545.189 0.0936957 2.01883 0
M  V30 5737 C 545.51 -1.2779 1.47291 0
M  V30 5738 O 544.78 -1.84279 0.664691 0
M  V30 5739 H 543.36 0.0316466 0.746329 0
M  V30 5740 H 546.022 0.781137 1.78562 0
M  V30 5741 H 545.118 0.0386297 3.12076 0
M  V30 5742 N 545.419 -1.53889 0.339982 0
M  V30 5743 C 546.366 -2.24902 -0.518452 0
M  V30 5744 C 547.336 -1.24593 -1.09844 0
M  V30 5745 O 548.521 -1.53317 -1.13572 0
M  V30 5746 C 545.661 -3.02262 -1.66529 0
M  V30 5747 C 544.774 -4.17418 -1.11295 0
M  V30 5748 C 543.909 -4.82273 -2.2268 0
M  V30 5749 C 542.948 -5.89503 -1.6478 0
M  V30 5750 N 542.085 -6.48153 -2.69893 0
M  V30 5751 H 546.925 -2.97853 0.0936579 0
M  V30 5752 H 544.462 -1.46986 0.0579924 0
M  V30 5753 H 546.42 -3.45371 -2.3404 0
M  V30 5754 H 545.05 -2.31614 -2.24844 0
M  V30 5755 H 544.102 -3.78976 -0.328886 0
M  V30 5756 H 545.414 -4.94554 -0.649414 0
M  V30 5757 H 544.568 -5.28435 -2.98063 0
M  V30 5758 H 543.307 -4.04552 -2.72376 0
M  V30 5759 H 542.312 -5.42728 -0.879004 0
M  V30 5760 H 543.537 -6.6913 -1.1594 0
M  V30 5761 H 541.483 -5.73298 -3.1885 0
M  V30 5762 H 541.4 -7.20752 -2.28151 0
M  V30 5763 H 542.668 -6.98968 -3.45056 0
M  V30 5764 N 546.897 -0.0685191 -1.57451 0
M  V30 5765 C 548.127 0.609577 -1.97402 0
M  V30 5766 C 548.535 1.63882 -0.945489 0
M  V30 5767 O 547.878 1.8354 0.0766052 0
M  V30 5768 C 547.94 1.3385 -3.33653 0
M  V30 5769 C 547.604 0.463103 -4.54648 0
M  V30 5770 C 548.601 -0.277964 -5.19156 0
M  V30 5771 C 546.286 0.388941 -5.00792 0
M  V30 5772 C 548.28 -1.08145 -6.28159 0
M  V30 5773 C 545.967 -0.418217 -6.09667 0
M  V30 5774 C 546.965 -1.15208 -6.73213 0
M  V30 5775 O 546.653 -1.94594 -7.79993 0
M  V30 5776 H 546.385 0.170197 -0.654224 0
M  V30 5777 H 548.939 -0.13647 -2.04946 0
M  V30 5778 H 547.169 2.13055 -3.22714 0
M  V30 5779 H 548.858 1.90851 -3.58233 0
M  V30 5780 H 549.624 -0.230241 -4.84453 0
M  V30 5781 H 545.503 0.949769 -4.5111 0
M  V30 5782 H 549.047 -1.65476 -6.7769 0
M  V30 5783 H 544.944 -0.467515 -6.43805 0
M  V30 5784 H 545.712 -1.8699 -7.96854 0
M  V30 5785 N 548.375 1.56261 0.205012 0
M  V30 5786 C 549.621 1.80306 0.9283 0
M  V30 5787 C 549.954 0.640932 1.83319 0
M  V30 5788 O 549.229 -0.359032 1.91158 0
M  V30 5789 C 549.512 3.14547 1.75306 0
M  V30 5790 C 549.365 4.41236 0.873562 0
M  V30 5791 C 550.684 3.45382 2.72762 0
M  V30 5792 H 547.803 0.655929 0.336044 0
M  V30 5793 H 550.445 1.88984 0.196211 0
M  V30 5794 H 548.595 3.0728 2.37721 0
M  V30 5795 H 550.267 4.60539 0.264887 0
M  V30 5796 H 548.51 4.33427 0.179773 0
M  V30 5797 H 549.181 5.31639 1.48541 0
M  V30 5798 H 551.657 3.52884 2.20481 0
M  V30 5799 H 550.533 4.40449 3.2756 0
M  V30 5800 H 550.794 2.68377 3.51321 0
M  V30 5801 N 549.853 -0.472356 1.50355 0
M  V30 5802 C 551.099 -1.22634 1.6152 0
M  V30 5803 C 551.432 -1.91645 0.313995 0
M  V30 5804 O 550.707 -1.82059 -0.684446 0
M  V30 5805 C 550.99 -2.27099 2.7946 0
M  V30 5806 C 550.843 -1.62402 4.19459 0
M  V30 5807 C 552.162 -3.28421 2.92964 0
M  V30 5808 H 549.281 -0.444494 0.587873 0
M  V30 5809 H 551.923 -0.520321 1.82737 0
M  V30 5810 H 550.073 -2.87314 2.61501 0
M  V30 5811 H 551.745 -1.05793 4.49005 0
M  V30 5812 H 549.988 -0.927184 4.23776 0
M  V30 5813 H 550.659 -2.38309 4.97909 0
M  V30 5814 H 553.135 -2.78227 3.09401 0
M  V30 5815 H 552.011 -3.98845 3.77113 0
M  V30 5816 H 552.272 -3.92467 2.03525 0
M  V30 5817 N 551.331 -1.39911 -0.725443 0
M  V30 5818 C 552.577 -1.37858 -1.48738 0
M  V30 5819 C 552.91 0.0224187 -1.94187 0
M  V30 5820 O 552.185 0.989204 -1.67466 0
M  V30 5821 C 552.468 -2.3594 -2.72038 0
M  V30 5822 C 552.321 -3.85023 -2.32546 0
M  V30 5823 C 553.64 -2.31704 -3.74167 0
M  V30 5824 H 550.759 -0.502074 -0.539528 0
M  V30 5825 H 553.401 -1.70974 -0.828728 0
M  V30 5826 H 551.551 -2.0783 -3.28236 0
M  V30 5827 H 553.223 -4.2392 -1.81905 0
M  V30 5828 H 551.466 -4.01334 -1.64661 0
M  V30 5829 H 552.137 -4.49152 -3.20884 0
M  V30 5830 H 554.613 -2.5658 -3.27576 0
M  V30 5831 H 553.489 -3.02395 -4.58092 0
M  V30 5832 H 553.75 -1.3253 -4.21768 0
M  V30 5833 N 552.809 0.956637 -1.25245 0
M  V30 5834 C 554.037 1.73571 -1.12608 0
M  V30 5835 C 554.452 1.86063 0.320324 0
M  V30 5836 O 553.809 1.35691 1.22042 0
M  V30 5837 C 553.86 3.15053 -1.77268 0
M  V30 5838 O 553.581 3.03174 -3.16255 0
M  V30 5839 C 555.082 4.09248 -1.70386 0
M  V30 5840 H 552.302 0.543955 -0.392879 0
M  V30 5841 H 554.846 1.20031 -1.65568 0
M  V30 5842 H 553.001 3.65543 -1.28284 0
M  V30 5843 H 553.415 3.9241 -3.48015 0
M  V30 5844 H 554.889 5.06138 -2.20291 0
M  V30 5845 H 555.366 4.34102 -0.667239 0
M  V30 5846 H 555.972 3.64672 -2.18849 0
M  V30 5847 N 554.287 1.06798 1.15896 0
M  V30 5848 C 555.535 0.786211 1.8618 0
M  V30 5849 C 555.856 -0.689547 1.82401 0
M  V30 5850 O 555.126 -1.49913 1.26107 0
M  V30 5851 H 553.706 0.287843 0.689315 0
M  V30 5852 H 556.368 1.35055 1.40521 0
M  V30 5853 H 555.464 1.1157 2.91477 0
M  V30 5854 N 555.766 -1.3263 0.851289 0
M  V30 5855 C 557.015 -1.96633 0.449267 0
M  V30 5856 C 557.328 -1.68131 -0.999562 0
M  V30 5857 O 558.534 -2.25845 -1.50685 0
M  V30 5858 C 556.99 -3.51946 0.752446 0
M  V30 5859 C 556.598 -3.89311 2.21678 0
M  V30 5860 C 558.342 -4.22437 0.417983 0
M  V30 5861 C 556.249 -5.37655 2.46336 0
M  V30 5862 H 555.179 -0.735888 0.164269 0
M  V30 5863 H 557.83 -1.51073 1.0416 0
M  V30 5864 H 556.212 -3.95899 0.0895858 0
M  V30 5865 H 557.386 -3.56378 2.92115 0
M  V30 5866 H 555.701 -3.31836 2.51543 0
M  V30 5867 H 558.298 -5.31549 0.579674 0
M  V30 5868 H 558.641 -4.11349 -0.640115 0
M  V30 5869 H 559.174 -3.84057 1.03659 0
M  V30 5870 H 555.913 -5.5376 3.50757 0
M  V30 5871 H 555.433 -5.72005 1.80473 0
M  V30 5872 H 557.112 -6.04695 2.30115 0
M  V30 5873 N 557.244 -0.608902 -1.45362 0
M  V30 5874 C 558.472 -0.111013 -2.06602 0
M  V30 5875 C 558.887 1.20516 -1.45332 0
M  V30 5876 O 558.244 1.73437 -0.567978 0
M  V30 5877 C 558.295 0.033688 -3.61484 0
M  V30 5878 O 558.016 -1.23041 -4.20467 0
M  V30 5879 C 559.517 0.562882 -4.39712 0
M  V30 5880 H 556.737 -0.0694453 -0.667397 0
M  V30 5881 H 559.281 -0.837008 -1.86586 0
M  V30 5882 H 557.436 0.710016 -3.80838 0
M  V30 5883 H 557.85 -1.06094 -5.13658 0
M  V30 5884 H 559.324 0.613213 -5.48583 0
M  V30 5885 H 559.801 1.58543 -4.09586 0
M  V30 5886 H 560.407 -0.0794454 -4.25226 0
M  V30 5887 N 558.722 1.53707 -0.348139 0
M  V30 5888 C 560.133 1.86213 0.134797 0
M  V30 5889 C 560.484 1.26925 1.49614 0
M  V30 5890 O 559.609 0.584573 2.08355 0
M  V30 5891 C 560.204 3.37866 0.251371 0
M  V30 5892 C 558.763 3.70233 0.678543 0
M  V30 5893 C 557.91 2.76683 -0.184925 0
M  V30 5894 H 560.861 1.48204 -0.567571 0
M  V30 5895 H 560.882 3.64908 1.07806 0
M  V30 5896 H 560.394 3.80988 -0.739581 0
M  V30 5897 H 558.495 3.32659 1.67835 0
M  V30 5898 H 558.608 4.76836 0.465251 0
M  V30 5899 H 556.972 2.52374 0.343465 0
M  V30 5900 H 557.755 3.22635 -1.1731 0
M  V30 5901 N 560.2 0.0768682 1.57412 0
M  V30 5902 C 561.428 -0.59997 1.9801 0
M  V30 5903 C 561.843 -1.62842 0.955408 0
M  V30 5904 O 561.2 -1.8241 -0.057314 0
M  V30 5905 C 561.251 -1.26401 3.38681 0
M  V30 5906 O 560.972 -0.276723 4.37225 0
M  V30 5907 C 562.473 -2.0282 3.94182 0
M  V30 5908 H 559.693 -0.162239 0.651091 0
M  V30 5909 H 562.237 0.150771 2.03943 0
M  V30 5910 H 560.392 -1.96581 3.33819 0
M  V30 5911 H 560.806 -0.753744 5.19056 0
M  V30 5912 H 562.28 -2.44667 4.94815 0
M  V30 5913 H 562.757 -2.88678 3.31001 0
M  V30 5914 H 563.363 -1.37496 4.02461 0
M  V30 5915 N 561.678 -1.56367 -0.196722 0
M  V30 5916 C 563.089 -1.70462 -0.761545 0
M  V30 5917 C 563.44 -0.683161 -1.83922 0
M  V30 5918 O 562.565 0.160753 -2.15802 0
M  V30 5919 C 563.16 -3.09057 -1.38814 0
M  V30 5920 C 561.719 -3.24922 -1.90007 0
M  V30 5921 C 560.866 -2.66412 -0.769399 0
M  V30 5922 H 563.817 -1.58675 0.0283263 0
M  V30 5923 H 563.838 -3.06296 -2.2575 0
M  V30 5924 H 563.35 -3.83378 -0.603559 0
M  V30 5925 H 561.451 -2.55514 -2.71189 0
M  V30 5926 H 561.564 -4.3241 -2.06297 0
M  V30 5927 H 559.928 -2.25546 -1.18326 0
M  V30 5928 H 560.711 -3.433 0.00291773 0
M  V30 5929 N 563.156 0.464375 -1.50603 0
M  V30 5930 C 564.086 1.56944 -1.72889 0
M  V30 5931 C 565.067 1.59979 -0.577997 0
M  V30 5932 O 566.252 1.76138 -0.817855 0
M  V30 5933 C 563.382 2.95225 -1.8292 0
M  V30 5934 C 562.336 3.07056 -2.98162 0
M  V30 5935 C 561.662 4.47051 -2.93343 0
M  V30 5936 C 562.962 2.83648 -4.38567 0
M  V30 5937 H 564.656 1.38547 -2.65415 0
M  V30 5938 H 562.202 0.665082 -1.27721 0
M  V30 5939 H 564.155 3.72467 -1.97095 0
M  V30 5940 H 562.879 3.14793 -0.870209 0
M  V30 5941 H 561.538 2.32248 -2.83648 0
M  V30 5942 H 561.186 4.63547 -1.95276 0
M  V30 5943 H 560.886 4.55902 -3.70712 0
M  V30 5944 H 562.41 5.26304 -3.09575 0
M  V30 5945 H 563.824 3.50636 -4.53572 0
M  V30 5946 H 562.221 3.03937 -5.17438 0
M  V30 5947 H 563.291 1.79451 -4.50472 0
M  V30 5948 N 564.634 1.40294 0.718013 0
M  V30 5949 C 565.882 1.38167 1.47494 0
M  V30 5950 C 566.203 -0.01607 1.94993 0
M  V30 5951 O 565.473 -0.970396 1.70177 0
M  V30 5952 H 564.053 0.508505 0.547203 0
M  V30 5953 H 566.715 1.75324 0.851322 0
M  V30 5954 H 565.811 2.05503 2.34894 0
M  V30 5955 N 566.112 -0.949982 1.2575 0
M  V30 5956 C 567.022 -2.08109 1.08295 0
M  V30 5957 C 568.038 -1.7399 0.0188181 0
M  V30 5958 O 569.214 -2.00187 0.220724 0
M  V30 5959 C 566.279 -3.39383 0.708534 0
M  V30 5960 C 565.34 -3.8734 1.85111 0
M  V30 5961 C 564.573 -5.12349 1.49447 0
M  V30 5962 O 564.796 -5.6905 0.392212 0
M  V30 5963 O 563.73 -5.5513 2.32624 0
M  V30 5964 H 567.556 -2.25738 2.03165 0
M  V30 5965 H 565.141 -1.06545 1.04731 0
M  V30 5966 H 567.023 -4.18277 0.512061 0
M  V30 5967 H 565.698 -3.23013 -0.210854 0
M  V30 5968 H 564.605 -3.09429 2.10248 0
M  V30 5969 H 565.938 -4.08216 2.74991 0
M  V30 5970 N 567.59 -1.07411 -1.15328 0
M  V30 5971 C 568.838 -0.796073 -1.85761 0
M  V30 5972 C 569.159 0.679864 -1.82764 0
M  V30 5973 O 568.429 1.49242 -1.269 0
M  V30 5974 H 567.009 -0.291495 -0.687779 0
M  V30 5975 H 569.671 -1.35799 -1.39802 0
M  V30 5976 H 568.767 -1.13114 -2.90881 0
M  V30 5977 N 569.068 1.32177 -0.85831 0
M  V30 5978 C 570.015 2.28794 -0.303607 0
M  V30 5979 C 570.985 1.55213 0.591453 0
M  V30 5980 O 572.17 1.83418 0.525585 0
M  V30 5981 C 569.31 3.41475 0.49889 0
M  V30 5982 C 568.423 4.2993 -0.422373 0
M  V30 5983 C 567.558 5.29743 0.393111 0
M  V30 5984 C 566.597 6.09842 -0.525317 0
M  V30 5985 N 565.734 7.01643 0.253208 0
M  V30 5986 H 570.574 2.75631 -1.13276 0
M  V30 5987 H 568.111 1.35606 -0.570026 0
M  V30 5988 H 570.069 4.05531 0.979826 0
M  V30 5989 H 568.699 2.95779 1.29284 0
M  V30 5990 H 567.751 3.66422 -1.02171 0
M  V30 5991 H 569.063 4.85899 -1.12709 0
M  V30 5992 H 568.217 5.9942 0.937056 0
M  V30 5993 H 566.956 4.744 1.13117 0
M  V30 5994 H 565.961 5.39066 -1.08112 0
M  V30 5995 H 567.186 6.6727 -1.26205 0
M  V30 5996 H 565.132 6.48725 0.974295 0
M  V30 5997 H 565.049 7.54981 -0.392398 0
M  V30 5998 H 566.317 7.756 0.778761 0
M  V30 5999 N 570.547 0.616602 1.45037 0
M  V30 6000 C 571.772 0.120192 2.07051 0
M  V30 6001 C 572.197 -1.19008 1.45666 0
M  V30 6002 O 571.555 -1.7267 0.552692 0
M  V30 6003 C 571.603 0.00354901 3.606 0
M  V30 6004 O 570.707 -1.04431 3.98958 0
M  V30 6005 H 570.048 0.0781599 0.659384 0
M  V30 6006 H 572.578 0.849167 1.86146 0
M  V30 6007 H 572.588 -0.191754 4.07549 0
M  V30 6008 H 571.263 0.960239 4.04663 0
M  V30 6009 H 569.84 -0.824749 3.63665 0
M  V30 6010 N 572.025 -1.5352 0.356285 0
M  V30 6011 C 573.253 -2.05534 -0.237328 0
M  V30 6012 C 573.668 -1.23043 -1.43199 0
M  V30 6013 O 573.025 -0.268821 -1.80509 0
M  V30 6014 C 573.076 -3.55791 -0.639933 0
M  V30 6015 O 572.797 -4.35154 0.507233 0
M  V30 6016 C 574.298 -4.24027 -1.29292 0
M  V30 6017 H 571.518 -0.669585 -0.0435572 0
M  V30 6018 H 574.062 -1.97988 0.511963 0
M  V30 6019 H 572.217 -3.63518 -1.33915 0
M  V30 6020 H 572.631 -5.24178 0.18375 0
M  V30 6021 H 574.105 -5.30509 -1.52527 0
M  V30 6022 H 574.582 -3.77166 -2.25039 0
M  V30 6023 H 575.188 -4.20527 -0.63539 0
M  V30 6024 N 573.503 -0.0852151 -1.57369 0
M  V30 6025 C 574.731 0.58946 -1.98325 0
M  V30 6026 C 575.146 1.62333 -0.96403 0
M  V30 6027 O 574.503 1.82438 0.0476395 0
M  V30 6028 C 574.554 1.24604 -3.39347 0
M  V30 6029 O 574.275 0.253532 -4.37366 0
M  V30 6030 C 575.776 2.00726 -3.95252 0
M  V30 6031 H 572.996 0.158783 -0.651942 0
M  V30 6032 H 575.54 -0.161584 -2.03861 0
M  V30 6033 H 573.695 1.94808 -3.34856 0
M  V30 6034 H 574.109 0.726207 -5.19448 0
M  V30 6035 H 575.583 2.42039 -4.96106 0
M  V30 6036 H 576.06 2.86919 -3.32527 0
M  V30 6037 H 576.666 1.3536 -4.03185 0
M  V30 6038 N 574.981 1.5647 0.188427 0
M  V30 6039 C 576.209 1.85131 0.923803 0
M  V30 6040 C 576.624 0.668537 1.76567 0
M  V30 6041 O 575.981 -0.362662 1.7886 0
M  V30 6042 C 576.032 3.12661 1.81453 0
M  V30 6043 O 575.753 4.26378 1.00665 0
M  V30 6044 C 577.254 3.54548 2.66103 0
M  V30 6045 H 574.474 0.614624 0.269218 0
M  V30 6046 H 577.018 2.03581 0.193671 0
M  V30 6047 H 575.173 2.96088 2.49821 0
M  V30 6048 H 575.587 4.99041 1.61425 0
M  V30 6049 H 577.061 4.4673 3.24247 0
M  V30 6050 H 577.538 2.77853 3.40139 0
M  V30 6051 H 578.144 3.73674 2.03096 0
M  V30 6052 N 576.459 -0.456382 1.50847 0
M  V30 6053 C 577.708 -1.2042 1.61808 0
M  V30 6054 C 578.021 -1.9278 0.330932 0
M  V30 6055 O 579.227 -2.69612 0.319643 0
M  V30 6056 C 577.683 -2.18891 2.85683 0
M  V30 6057 C 577.291 -1.52267 4.2133 0
M  V30 6058 C 579.035 -2.94224 3.05994 0
M  V30 6059 C 576.942 -2.4911 5.36375 0
M  V30 6060 H 575.872 -0.453177 0.602616 0
M  V30 6061 H 578.523 -0.473144 1.77295 0
M  V30 6062 H 576.905 -2.95351 2.63787 0
M  V30 6063 H 578.079 -0.814949 4.53536 0
M  V30 6064 H 576.394 -0.891594 4.06743 0
M  V30 6065 H 578.991 -3.66732 3.89117 0
M  V30 6066 H 579.334 -3.54469 2.18306 0
M  V30 6067 H 579.867 -2.24874 3.28141 0
M  V30 6068 H 576.606 -1.93582 6.26264 0
M  V30 6069 H 576.126 -3.17991 5.08569 0
M  V30 6070 H 577.805 -3.10637 5.67551 0
M  V30 6071 N 577.937 -1.40673 -0.710563 0
M  V30 6072 C 579.185 -1.38947 -1.46759 0
M  V30 6073 C 579.506 0.00572879 -1.94999 0
M  V30 6074 O 578.776 0.961358 -1.70689 0
M  V30 6075 H 577.356 -0.5114 -0.544499 0
M  V30 6076 H 580.018 -1.75773 -0.842012 0
M  V30 6077 H 579.114 -2.06745 -2.33801 0
M  V30 6078 N 579.415 0.9433 -1.26252 0
M  V30 6079 C 580.345 2.05902 -1.10122 0
M  V30 6080 C 581.326 1.70099 -0.00700552 0
M  V30 6081 O 582.511 1.93377 -0.178641 0
M  V30 6082 C 579.641 3.39516 -0.731175 0
M  V30 6083 C 578.595 3.89372 -1.77688 0
M  V30 6084 C 577.921 5.19613 -1.26122 0
M  V30 6085 C 579.221 4.14489 -3.17799 0
M  V30 6086 H 580.915 2.19655 -2.03451 0
M  V30 6087 H 578.461 1.05548 -0.979576 0
M  V30 6088 H 580.414 4.17031 -0.605215 0
M  V30 6089 H 579.138 3.25733 0.23782 0
M  V30 6090 H 577.797 3.14036 -1.89148 0
M  V30 6091 H 577.445 5.02208 -0.282128 0
M  V30 6092 H 577.145 5.53939 -1.96023 0
M  V30 6093 H 578.669 5.99713 -1.14789 0
M  V30 6094 H 580.083 4.82625 -3.09428 0
M  V30 6095 H 578.48 4.60094 -3.85271 0
M  V30 6096 H 579.55 3.20347 -3.64014 0
M  V30 6097 N 580.893 1.08022 1.14757 0
M  V30 6098 C 582.139 0.808705 1.85978 0
M  V30 6099 C 582.472 -0.663764 1.82504 0
M  V30 6100 O 581.747 -1.48765 1.25296 0
M  V30 6101 C 582.03 1.32623 3.34788 0
M  V30 6102 C 581.883 2.86375 3.46856 0
M  V30 6103 C 583.202 0.948291 4.29762 0
M  V30 6104 H 580.321 0.295244 0.675278 0
M  V30 6105 H 582.963 1.33917 1.34783 0
M  V30 6106 H 581.113 0.875002 3.78518 0
M  V30 6107 H 582.785 3.39839 3.11941 0
M  V30 6108 H 581.028 3.24232 2.88194 0
M  V30 6109 H 581.699 3.17658 4.51439 0
M  V30 6110 H 584.175 1.33722 3.94028 0
M  V30 6111 H 583.051 1.33765 5.32352 0
M  V30 6112 H 583.312 -0.145094 4.41862 0
M  V30 6113 N 582.371 -1.3172 0.865308 0
M  V30 6114 C 583.303 -2.27545 0.274906 0
M  V30 6115 C 584.316 -1.52887 -0.559413 0
M  V30 6116 O 585.505 -1.74361 -0.382166 0
M  V30 6117 C 582.605 -3.33006 -0.629286 0
M  V30 6118 C 581.778 -4.37063 0.171553 0
M  V30 6119 C 580.837 -5.22044 -0.660052 0
M  V30 6120 O 579.863 -5.69129 -0.0897527 0
M  V30 6121 N 581.065 -5.45946 -1.97289 0
M  V30 6122 H 583.83 -2.78848 1.09836 0
M  V30 6123 H 581.391 -1.44693 0.726331 0
M  V30 6124 H 583.383 -3.86772 -1.19121 0
M  V30 6125 H 581.953 -2.81782 -1.35342 0
M  V30 6126 H 581.173 -3.83436 0.914919 0
M  V30 6127 H 582.461 -5.03662 0.721235 0
M  V30 6128 H 581.859 -5.0944 -2.45942 0
M  V30 6129 H 580.416 -6.02665 -2.4827 0
M  V30 6130 N 583.85 -0.624285 -1.44708 0
M  V30 6131 C 584.812 0.0749638 -2.29077 0
M  V30 6132 C 585.812 0.778965 -1.40673 0
M  V30 6133 O 587.003 0.624591 -1.62618 0
M  V30 6134 C 584.135 1.11663 -3.22094 0
M  V30 6135 H 585.327 -0.667013 -2.92388 0
M  V30 6136 H 582.88 -0.384098 -1.51507 0
M  V30 6137 H 583.615 1.88881 -2.63618 0
M  V30 6138 H 583.401 0.61583 -3.87234 0
M  V30 6139 H 584.891 1.60585 -3.8549 0
M  V30 6140 N 585.328 1.53329 -0.364422 0
M  V30 6141 C 586.258 2.28627 0.474543 0
M  V30 6142 C 587.239 1.31009 1.08492 0
M  V30 6143 O 588.424 1.59878 1.10239 0
M  V30 6144 C 585.554 3.07465 1.61501 0
M  V30 6145 C 584.508 4.1276 1.13194 0
M  V30 6146 C 583.834 4.79674 2.36255 0
M  V30 6147 C 585.134 5.21847 0.217507 0
M  V30 6148 H 586.828 2.99005 -0.153656 0
M  V30 6149 H 584.374 1.43803 -0.0753406 0
M  V30 6150 H 586.327 3.58889 2.20855 0
M  V30 6151 H 585.051 2.34775 2.27042 0
M  V30 6152 H 583.71 3.62281 0.56109 0
M  V30 6153 H 583.358 4.03557 3.00251 0
M  V30 6154 H 583.058 5.50827 2.04606 0
M  V30 6155 H 584.582 5.33892 2.96297 0
M  V30 6156 H 585.996 5.6878 0.718493 0
M  V30 6157 H 584.393 6.00099 -0.00806408 0
M  V30 6158 H 585.463 4.7921 -0.740653 0
M  V30 6159 N 586.806 0.0935595 1.57322 0
M  V30 6160 C 588.054 -0.569383 1.93913 0
M  V30 6161 C 588.375 -1.68817 0.976009 0
M  V30 6162 O 587.645 -1.9588 0.0278099 0
M  V30 6163 H 586.225 -0.21332 0.715894 0
M  V30 6164 H 588.887 0.156531 1.9427 0
M  V30 6165 H 587.983 -0.980577 2.96296 0
M  V30 6166 N 588.284 -1.56567 -0.180126 0
M  V30 6167 C 589.247 -1.94852 -1.20686 0
M  V30 6168 C 590.247 -0.831212 -1.3765 0
M  V30 6169 O 591.437 -1.09841 -1.35206 0
M  V30 6170 C 588.569 -2.23565 -2.57355 0
M  V30 6171 H 589.762 -2.86722 -0.879225 0
M  V30 6172 H 587.315 -1.50489 -0.422237 0
M  V30 6173 H 588.05 -1.34381 -2.95148 0
M  V30 6174 H 587.835 -3.04999 -2.46411 0
M  V30 6175 H 589.325 -2.54137 -3.31367 0
M  V30 6176 N 589.762 0.448376 -1.51087 0
M  V30 6177 C 590.712 1.54156 -1.67988 0
M  V30 6178 C 591.696 1.5178 -0.534015 0
M  V30 6179 O 592.888 1.58419 -0.789448 0
M  V30 6180 C 590.017 2.92437 -1.79822 0
M  V30 6181 C 589.103 2.99611 -3.00157 0
M  V30 6182 N 589.494 2.7655 -4.23502 0
M  V30 6183 C 587.792 3.30764 -2.99184 0
M  V30 6184 C 588.493 2.89281 -5.0467 0
M  V30 6185 N 587.469 3.20473 -4.39088 0
M  V30 6186 H 591.271 1.35061 -2.61028 0
M  V30 6187 H 588.785 0.655504 -1.48583 0
M  V30 6188 H 590.782 3.71068 -1.90037 0
M  V30 6189 H 589.442 3.1256 -0.879554 0
M  V30 6190 H 590.453 2.5169 -4.52628 0
M  V30 6191 H 587.13 3.56732 -2.16907 0
M  V30 6192 H 588.52 2.75499 -6.12821 0
M  V30 6193 N 591.24 1.41047 0.703093 0
M  V30 6194 C 592.17 1.45067 1.82969 0
M  V30 6195 C 593.151 0.31016 1.67248 0
M  V30 6196 O 594.336 0.520548 1.87093 0
M  V30 6197 C 591.466 1.32478 3.2104 0
M  V30 6198 C 590.42 2.44262 3.51454 0
M  V30 6199 C 589.746 2.16742 4.88801 0
M  V30 6200 C 591.046 3.86606 3.51189 0
M  V30 6201 H 592.74 2.39353 1.79863 0
M  V30 6202 H 590.286 1.15206 0.863919 0
M  V30 6203 H 592.239 1.33904 3.99559 0
M  V30 6204 H 590.963 0.346735 3.24754 0
M  V30 6205 H 589.622 2.42107 2.75282 0
M  V30 6206 H 589.27 1.17299 4.89132 0
M  V30 6207 H 588.97 2.91643 5.10116 0
M  V30 6208 H 590.494 2.19872 5.69639 0
M  V30 6209 H 591.908 3.90517 4.19725 0
M  V30 6210 H 590.305 4.61128 3.84033 0
M  V30 6211 H 591.375 4.15296 2.50315 0
M  V30 6212 N 592.718 -0.936591 1.26751 0
M  V30 6213 C 593.948 -1.71509 1.15188 0
M  V30 6214 C 594.356 -1.86885 -0.295037 0
M  V30 6215 O 593.699 -1.37915 -1.21347 0
M  V30 6216 C 593.761 -3.13853 1.75318 0
M  V30 6217 C 593.425 -3.21845 3.24445 0
M  V30 6218 C 594.422 -3.04771 4.21201 0
M  V30 6219 C 592.107 -3.45088 3.64992 0
M  V30 6220 C 594.101 -3.10816 5.56482 0
M  V30 6221 C 591.788 -3.50767 5.00405 0
M  V30 6222 C 592.786 -3.33648 5.9596 0
M  V30 6223 O 592.474 -3.39045 7.28906 0
M  V30 6224 H 592.206 -0.543658 0.401761 0
M  V30 6225 H 594.76 -1.18234 1.67958 0
M  V30 6226 H 592.99 -3.6857 1.17016 0
M  V30 6227 H 594.679 -3.73634 1.58596 0
M  V30 6228 H 595.445 -2.86665 3.91214 0
M  V30 6229 H 591.324 -3.57467 2.91098 0
M  V30 6230 H 594.868 -2.97372 6.31043 0
M  V30 6231 H 590.765 -3.68396 5.30052 0
M  V30 6232 H 591.533 -3.55558 7.37238 0
M  V30 6233 N 594.196 -1.08629 -1.14182 0
M  V30 6234 C 595.128 -0.676189 -2.18998 0
M  V30 6235 C 596.141 0.277871 -1.60411 0
M  V30 6236 O 597.33 0.0651771 -1.78381 0
M  V30 6237 C 594.43 0.0254916 -3.3889 0
M  V30 6238 C 593.603 -0.948039 -4.27002 0
M  V30 6239 C 592.662 -0.281268 -5.25448 0
M  V30 6240 O 591.688 -0.926378 -5.61611 0
M  V30 6241 N 592.89 0.967923 -5.72374 0
M  V30 6242 H 595.655 -1.57792 -2.54798 0
M  V30 6243 H 593.216 -0.972665 -1.29425 0
M  V30 6244 H 595.208 0.482554 -4.01813 0
M  V30 6245 H 593.778 0.829348 -3.01398 0
M  V30 6246 H 592.998 -1.58388 -3.6098 0
M  V30 6247 H 594.286 -1.60765 -4.82734 0
M  V30 6248 H 593.684 1.51175 -5.45126 0
M  V30 6249 H 592.241 1.36844 -6.37273 0
M  V30 6250 N 595.674 1.31259 -0.872281 0
M  V30 6251 C 596.622 2.30404 -0.318897 0
M  V30 6252 C 597.616 1.5962 0.567267 0
M  V30 6253 O 598.822 1.74204 0.453111 0
M  V30 6254 H 595.197 0.747243 -0.0844474 0
M  V30 6255 H 597.168 2.74549 -1.16899 0
M  V30 6256 C 595.917 3.44608 0.462683 0
M  V30 6257 H 595.24 3.99248 -0.209936 0
M  V30 6258 H 596.68 4.1609 0.815187 0
M  V30 6259 C 595.139 2.93456 1.65485 0
M  V30 6260 O 595.669 2.92418 2.75417 0
M  V30 6261 N 593.875 2.49628 1.48776 0
M  V30 6262 H 593.422 2.50671 0.593452 0
M  V30 6263 H 593.38 2.15759 2.28682 0
M  V30 6264 N 597.152 0.631951 1.44375 0
M  V30 6265 C 598.398 0.13697 2.02337 0
M  V30 6266 C 598.731 -1.23826 1.49602 0
M  V30 6267 O 598.006 -1.8221 0.680415 0
M  V30 6268 C 598.289 0.124536 3.59885 0
M  V30 6269 C 598.142 1.53217 4.229 0
M  V30 6270 C 599.461 -0.550481 4.36644 0
M  V30 6271 H 596.58 0.051247 0.735216 0
M  V30 6272 H 599.222 0.808581 1.71936 0
M  V30 6273 H 597.372 -0.44737 3.85916 0
M  V30 6274 H 599.044 2.15303 4.07973 0
M  V30 6275 H 597.287 2.0858 3.80364 0
M  V30 6276 H 597.958 1.4755 5.31914 0
M  V30 6277 H 600.434 -0.0641154 4.16051 0
M  V30 6278 H 599.31 -0.528371 5.46351 0
M  V30 6279 H 599.571 -1.62097 4.11311 0
M  V30 6280 N 598.631 -1.53133 0.372548 0
M  V30 6281 C 599.878 -2.01356 -0.214959 0
M  V30 6282 C 600.206 -1.2596 -1.48204 0
M  V30 6283 O 599.461 -0.343511 -1.92662 0
M  V30 6284 C 599.76 -3.53206 -0.545938 0
M  V30 6285 C 599.426 -4.46511 0.627624 0
M  V30 6286 C 598.088 -4.71737 0.949615 0
M  V30 6287 C 600.44 -5.01666 1.41353 0
M  V30 6288 C 597.768 -5.4937 2.05936 0
M  V30 6289 C 600.12 -5.80511 2.51375 0
M  V30 6290 C 598.784 -6.04022 2.84101 0
M  V30 6291 H 598.054 -0.736813 -0.078659 0
M  V30 6292 H 600.701 -1.84682 0.506447 0
M  V30 6293 H 599.006 -3.67864 -1.34845 0
M  V30 6294 H 600.703 -3.87997 -1.01287 0
M  V30 6295 H 597.293 -4.27029 0.366635 0
M  V30 6296 H 601.477 -4.82117 1.17802 0
M  V30 6297 H 596.733 -5.65803 2.31682 0
M  V30 6298 H 600.907 -6.22255 3.12684 0
M  V30 6299 H 598.534 -6.63962 3.70214 0
M  V30 6300 N 600.109 -0.101901 -1.5727 0
M  V30 6301 C 601.072 0.840129 -2.13247 0
M  V30 6302 C 602.072 1.20625 -1.06331 0
M  V30 6303 O 603.262 1.13456 -1.32186 0
M  V30 6304 C 600.394 2.13372 -2.65867 0
M  V30 6305 H 601.587 0.353945 -2.97804 0
M  V30 6306 H 599.14 0.147167 -1.55606 0
M  V30 6307 H 599.875 2.66461 -1.84849 0
M  V30 6308 H 599.66 1.88085 -3.44044 0
M  V30 6309 H 601.15 2.80748 -3.09145 0
M  V30 6310 N 601.587 1.56661 0.17182 0
M  V30 6311 C 602.827 1.83762 0.895029 0
M  V30 6312 C 603.191 0.682752 1.79451 0
M  V30 6313 O 604.392 0.834208 2.55528 0
M  V30 6314 C 602.663 3.15976 1.67015 0
M  V30 6315 S 604.222 3.64558 2.44219 0
M  V30 6316 H 601.04 0.644713 0.299778 0
M  V30 6317 H 603.642 1.94871 0.156701 0
M  V30 6318 H 602.346 3.98021 1.00039 0
M  V30 6319 H 601.877 3.07807 2.44986 0
M  V30 6320 H 603.892 3.31845 3.68909 0
M  V30 6321 N 603.065 -0.440357 1.51323 0
M  V30 6322 C 604.311 -1.19181 1.64085 0
M  V30 6323 C 604.644 -1.90936 0.354575 0
M  V30 6324 O 603.919 -1.8347 -0.645675 0
M  V30 6325 C 604.202 -2.2112 2.84215 0
M  V30 6326 C 604.055 -1.53468 4.22809 0
M  V30 6327 C 605.374 -3.22133 2.99864 0
M  V30 6328 H 602.493 -0.431924 0.597169 0
M  V30 6329 H 605.135 -0.481443 1.83799 0
M  V30 6330 H 603.285 -2.81703 2.67537 0
M  V30 6331 H 604.957 -0.962455 4.51148 0
M  V30 6332 H 603.2 -0.837086 4.25647 0
M  V30 6333 H 603.871 -2.27694 5.02852 0
M  V30 6334 H 606.347 -2.71601 3.15233 0
M  V30 6335 H 605.223 -3.90756 3.85488 0
M  V30 6336 H 605.484 -3.88061 2.11804 0
M  V30 6337 N 604.543 -1.41418 -0.695603 0
M  V30 6338 C 605.959 -1.23887 -1.00619 0
M  V30 6339 C 606.159 -0.128206 -2.01092 0
M  V30 6340 O 605.215 0.507408 -2.47349 0
M  V30 6341 C 606.528 -2.58816 -1.53083 0
M  V30 6342 C 608.076 -2.65998 -1.64967 0
M  V30 6343 C 608.551 -4.01244 -2.20833 0
M  V30 6344 N 610.042 -4.0309 -2.28194 0
M  V30 6345 C 610.777 -5.04539 -2.72448 0
M  V30 6346 N 610.273 -6.16378 -3.16306 0
M  V30 6347 N 612.066 -4.91901 -2.72011 0
M  V30 6348 H 604.217 -2.12379 -0.0300061 0
M  V30 6349 H 606.48 -0.944958 -0.0758797 0
M  V30 6350 H 606.186 -3.40842 -0.867147 0
M  V30 6351 H 606.06 -2.81299 -2.51298 0
M  V30 6352 H 608.447 -1.84331 -2.30448 0
M  V30 6353 H 608.528 -2.47325 -0.652982 0
M  V30 6354 H 608.172 -4.83359 -1.55968 0
M  V30 6355 H 608.102 -4.17257 -3.21254 0
M  V30 6356 H 610.593 -3.22341 -1.97242 0
M  V30 6357 H 610.906 -6.89658 -3.487 0
M  V30 6358 H 609.251 -6.19914 -3.14215 0
M  V30 6359 H 612.442 -4.03613 -2.37095 0
M  V30 6360 H 612.615 -5.71102 -3.06181 0
M  V30 6361 N 606.021 0.929856 -1.27246 0
M  V30 6362 C 606.953 2.03434 -1.0558 0
M  V30 6363 C 607.966 1.62795 -0.0125762 0
M  V30 6364 O 609.155 1.76685 -0.2539 0
M  V30 6365 C 606.255 3.33915 -0.57912 0
M  V30 6366 C 605.428 4.03259 -1.69415 0
M  V30 6367 C 604.487 5.12014 -1.21357 0
M  V30 6368 O 603.513 5.36097 -1.91282 0
M  V30 6369 N 604.715 5.8046 -0.0680622 0
M  V30 6370 H 607.48 2.22583 -2.00691 0
M  V30 6371 H 605.041 1.1001 -1.18783 0
M  V30 6372 H 607.033 4.03978 -0.241563 0
M  V30 6373 H 605.603 3.11355 0.278703 0
M  V30 6374 H 604.823 3.26958 -2.20209 0
M  V30 6375 H 606.111 4.46337 -2.44255 0
M  V30 6376 H 605.509 5.63345 0.515626 0
M  V30 6377 H 604.066 6.51461 0.210332 0
M  V30 6378 N 607.499 1.09233 1.13605 0
M  V30 6379 C 608.91 0.846839 1.6639 0
M  V30 6380 C 609.261 -0.625031 1.85978 0
M  V30 6381 O 608.386 -1.48173 1.57714 0
M  V30 6382 C 608.981 1.5307 3.0225 0
M  V30 6383 C 607.54 1.33223 3.52035 0
M  V30 6384 C 606.687 1.58806 2.27323 0
M  V30 6385 H 609.638 1.25175 0.975541 0
M  V30 6386 H 609.659 0.96267 3.68121 0
M  V30 6387 H 609.171 2.60192 2.87961 0
M  V30 6388 H 607.272 0.282091 3.71531 0
M  V30 6389 H 607.385 2.0657 4.32279 0
M  V30 6390 H 605.749 1.01007 2.33815 0
M  V30 6391 H 606.532 2.67153 2.15602 0
M  V30 6392 N 608.977 -1.30795 0.87923 0
M  V30 6393 C 610.202 -2.01063 0.508769 0
M  V30 6394 C 610.627 -1.65508 -0.893803 0
M  V30 6395 O 609.985 -0.868616 -1.59138 0
M  V30 6396 C 610.033 -3.54054 0.683991 0
M  V30 6397 O 609.137 -4.11498 -0.272654 0
M  V30 6398 H 608.478 -0.632786 0.201191 0
M  V30 6399 H 611.008 -1.66776 1.18519 0
M  V30 6400 H 611.018 -4.03845 0.580798 0
M  V30 6401 H 609.693 -3.79271 1.70665 0
M  V30 6402 H 608.27 -3.72695 -0.12364 0
M  V30 6403 N 610.455 -0.639598 -1.44038 0
M  V30 6404 C 611.387 0.0987684 -2.28987 0
M  V30 6405 C 612.4 0.80058 -1.41755 0
M  V30 6406 O 613.589 0.660611 -1.65826 0
M  V30 6407 C 610.689 1.16242 -3.18341 0
M  V30 6408 C 609.862 0.541447 -4.34036 0
M  V30 6409 C 608.921 1.50017 -5.04362 0
M  V30 6410 O 607.947 1.01403 -5.60095 0
M  V30 6411 N 609.149 2.83441 -5.06598 0
M  V30 6412 H 611.914 -0.630305 -2.92997 0
M  V30 6413 H 609.475 -0.481376 -1.54578 0
M  V30 6414 H 611.467 1.80429 -3.62253 0
M  V30 6415 H 610.037 1.79362 -2.56024 0
M  V30 6416 H 609.257 -0.27923 -3.9321 0
M  V30 6417 H 610.545 0.107379 -5.08687 0
M  V30 6418 H 609.943 3.2551 -4.62666 0
M  V30 6419 H 608.5 3.42966 -5.54272 0
M  V30 6420 N 611.933 1.52934 -0.380664 0
M  V30 6421 C 613.181 2.01069 0.203874 0
M  V30 6422 C 613.502 1.26922 1.4804 0
M  V30 6423 O 612.772 0.386787 1.92044 0
M  V30 6424 H 611.352 0.742882 0.0783279 0
M  V30 6425 H 614.014 1.88099 -0.510368 0
M  V30 6426 H 613.11 3.09258 0.42021 0
M  V30 6427 N 613.412 0.11024 1.57214 0
M  V30 6428 C 614.823 -0.416527 1.81994 0
M  V30 6429 C 615.174 -1.67183 1.02686 0
M  V30 6430 O 614.299 -2.14823 0.260782 0
M  V30 6431 C 614.894 -0.762466 3.30109 0
M  V30 6432 C 613.453 -1.23391 3.556 0
M  V30 6433 C 612.6 -0.238166 2.76275 0
M  V30 6434 H 615.551 0.335491 1.55113 0
M  V30 6435 H 615.572 -1.62068 3.44259 0
M  V30 6436 H 615.084 0.151346 3.87805 0
M  V30 6437 H 613.185 -2.16492 3.03253 0
M  V30 6438 H 613.298 -1.18528 4.64207 0
M  V30 6439 H 611.662 -0.723421 2.4421 0
M  V30 6440 H 612.445 0.668591 3.36727 0
M  V30 6441 N 614.89 -1.56749 -0.16351 0
M  V30 6442 C 616.118 -1.86577 -0.894233 0
M  V30 6443 C 616.533 -0.696543 -1.75481 0
M  V30 6444 O 615.89 0.334161 -1.79415 0
M  V30 6445 C 615.941 -3.15508 -1.76456 0
M  V30 6446 O 615.662 -4.27926 -0.938685 0
M  V30 6447 C 617.163 -3.58737 -2.60428 0
M  V30 6448 H 614.383 -0.618829 -0.259405 0
M  V30 6449 H 616.927 -2.03863 -0.161259 0
M  V30 6450 H 615.082 -3.00025 -2.45079 0
M  V30 6451 H 615.496 -5.01546 -1.53465 0
M  V30 6452 H 616.97 -4.51832 -3.17099 0
M  V30 6453 H 617.447 -2.83229 -3.35675 0
M  V30 6454 H 618.053 -3.76858 -1.97125 0
M  V30 6455 N 616.368 0.432326 -1.51554 0
M  V30 6456 C 617.615 1.18134 -1.64471 0
M  V30 6457 C 617.943 1.91076 -0.363349 0
M  V30 6458 O 617.198 1.84492 0.65279 0
M  V30 6459 C 617.497 2.21907 -2.80164 0
M  V30 6460 C 617.163 1.65941 -4.19255 0
M  V30 6461 C 615.825 1.50401 -4.57092 0
M  V30 6462 C 618.177 1.24843 -5.06027 0
M  V30 6463 C 615.505 0.922443 -5.79403 0
M  V30 6464 C 617.857 0.68113 -6.28922 0
M  V30 6465 C 616.521 0.512673 -6.65528 0
M  V30 6466 H 615.791 0.432283 -0.601841 0
M  V30 6467 H 618.438 0.471701 -1.856 0
M  V30 6468 H 616.743 2.98928 -2.53277 0
M  V30 6469 H 618.44 2.79691 -2.87357 0
M  V30 6470 H 615.03 1.79014 -3.89425 0
M  V30 6471 H 619.214 1.35667 -4.77397 0
M  V30 6472 H 614.47 0.779733 -6.06408 0
M  V30 6473 H 618.644 0.35418 -6.95499 0
M  V30 6474 H 616.271 0.0599084 -7.60176 0
M  V30 6475 N 617.846 1.41785 0.688094 0
M  V30 6476 C 619.094 1.41264 1.4453 0
M  V30 6477 C 619.415 0.0252946 1.94984 0
M  V30 6478 O 618.685 -0.934081 1.72197 0
M  V30 6479 H 617.265 0.519998 0.536294 0
M  V30 6480 H 619.927 1.7709 0.813941 0
M  V30 6481 H 619.023 2.10439 2.30482 0
M  V30 6482 N 619.324 -0.923095 1.27737 0
M  V30 6483 C 620.573 -1.66581 1.13727 0
M  V30 6484 C 620.886 -1.9304 -0.315433 0
M  V30 6485 O 622.092 -2.65309 -0.57651 0
M  V30 6486 C 620.548 -3.00047 1.98745 0
M  V30 6487 C 620.156 -2.8127 3.48699 0
M  V30 6488 C 621.9 -3.77887 1.93395 0
M  V30 6489 C 619.807 -4.1032 4.25901 0
M  V30 6490 H 618.737 -0.624834 0.422017 0
M  V30 6491 H 621.388 -1.02514 1.52194 0
M  V30 6492 H 619.77 -3.65197 1.53125 0
M  V30 6493 H 620.944 -2.24859 4.02213 0
M  V30 6494 H 619.259 -2.16854 3.55476 0
M  V30 6495 H 621.856 -4.73526 2.48348 0
M  V30 6496 H 622.199 -4.06264 0.908605 0
M  V30 6497 H 622.732 -3.19541 2.36935 0
M  V30 6498 H 619.471 -3.8712 5.28978 0
M  V30 6499 H 618.991 -4.66377 3.77163 0
M  V30 6500 H 620.67 -4.78648 4.35321 0
M  V30 6501 N 620.802 -1.09834 -1.13024 0
M  V30 6502 C 621.749 -0.741522 -2.18564 0
M  V30 6503 C 622.719 0.279236 -1.63736 0
M  V30 6504 O 623.904 0.159923 -1.90129 0
M  V30 6505 C 621.044 -0.17277 -3.44667 0
M  V30 6506 C 620.157 -1.24808 -4.13578 0
M  V30 6507 C 619.292 -0.641631 -5.27311 0
M  V30 6508 C 618.331 -1.69795 -5.88078 0
M  V30 6509 N 617.468 -1.11223 -6.93234 0
M  V30 6510 H 622.308 -1.64576 -2.48432 0
M  V30 6511 H 619.845 -0.822174 -1.21978 0
M  V30 6512 H 621.803 0.17482 -4.16834 0
M  V30 6513 H 620.433 0.694725 -3.15235 0
M  V30 6514 H 619.485 -1.71288 -3.39653 0
M  V30 6515 H 620.797 -2.04795 -4.54819 0
M  V30 6516 H 619.951 -0.243128 -6.06213 0
M  V30 6517 H 618.69 0.189742 -4.87331 0
M  V30 6518 H 617.695 -2.10595 -5.07868 0
M  V30 6519 H 618.92 -2.53206 -6.3013 0
M  V30 6520 H 616.866 -0.302208 -6.55304 0
M  V30 6521 H 616.783 -1.84901 -7.3304 0
M  V30 6522 H 618.051 -0.740068 -7.75979 0
M  V30 6523 N 622.28 1.30327 -0.886154 0
M  V30 6524 C 623.528 1.9571 -0.504195 0
M  V30 6525 C 623.849 1.70294 0.950003 0
M  V30 6526 O 623.119 1.02718 1.66811 0
M  V30 6527 H 621.699 0.72412 -0.183465 0
M  V30 6528 H 624.361 1.58835 -1.12949 0
M  V30 6529 H 623.457 3.04704 -0.675431 0
M  V30 6530 N 623.758 0.647228 1.43697 0
M  V30 6531 C 625.006 0.157876 2.01482 0
M  V30 6532 C 625.327 -1.23039 1.51282 0
M  V30 6533 O 624.597 -1.82071 0.722982 0
M  V30 6534 H 623.177 0.0553745 0.744945 0
M  V30 6535 H 625.839 0.83755 1.75986 0
M  V30 6536 H 624.935 0.137895 3.11795 0
M  V30 6537 N 625.236 -1.5273 0.388769 0
M  V30 6538 C 626.199 -2.25043 -0.434544 0
M  V30 6539 C 627.199 -1.26661 -0.990644 0
M  V30 6540 O 628.389 -1.50762 -0.872731 0
M  V30 6541 C 625.521 -3.00507 -1.60961 0
M  V30 6542 H 626.714 -2.99242 0.198549 0
M  V30 6543 H 624.267 -1.55664 0.140875 0
M  V30 6544 H 625.002 -2.30607 -2.28015 0
M  V30 6545 H 624.787 -3.72716 -1.21757 0
M  V30 6546 H 626.277 -3.55413 -2.19251 0
M  V30 6547 N 626.714 -0.118576 -1.57153 0
M  V30 6548 C 627.677 0.817464 -2.14127 0
M  V30 6549 C 628.677 1.1949 -1.07604 0
M  V30 6550 O 629.867 1.12048 -1.33382 0
M  V30 6551 C 626.999 2.10541 -2.68115 0
M  V30 6552 H 628.192 0.322339 -2.98163 0
M  V30 6553 H 625.745 0.130655 -1.55753 0
M  V30 6554 H 626.48 2.64485 -1.87665 0
M  V30 6555 H 626.265 1.84425 -3.4602 0
M  V30 6556 H 627.755 2.77453 -3.12105 0
M  V30 6557 N 628.193 1.56834 0.155195 0
M  V30 6558 C 629.441 1.82536 0.867462 0
M  V30 6559 C 629.762 0.698168 1.82073 0
M  V30 6560 O 629.032 -0.280807 1.93877 0
M  V30 6561 H 627.612 0.673401 0.323327 0
M  V30 6562 H 630.274 1.94313 0.151156 0
M  V30 6563 H 629.37 2.77171 1.43466 0
M  V30 6564 N 629.671 -0.424282 1.51781 0
M  V30 6565 C 630.919 -1.17028 1.64769 0
M  V30 6566 C 631.24 -1.91409 0.372523 0
M  V30 6567 O 630.51 -1.86091 -0.612108 0
M  V30 6568 H 629.09 -0.434992 0.607282 0
M  V30 6569 H 631.752 -0.485169 1.88765 0
M  V30 6570 H 630.848 -1.8927 2.4816 0
M  V30 6571 N 631.149 -1.42148 -0.680565 0
M  V30 6572 C 632.397 -1.42029 -1.43779 0
M  V30 6573 C 632.718 -0.0356347 -1.94967 0
M  V30 6574 O 631.988 0.924936 -1.7269 0
M  V30 6575 H 630.568 -0.522835 -0.533529 0
M  V30 6576 H 633.23 -1.7752 -0.804538 0
M  V30 6577 H 632.326 -2.11658 -2.29363 0
M  V30 6578 N 632.627 0.916307 -1.28225 0
M  V30 6579 C 633.857 1.69654 -1.17902 0
M  V30 6580 C 634.265 1.87331 0.265268 0
M  V30 6581 O 633.608 1.39828 1.19137 0
M  V30 6582 C 633.67 3.11024 -1.80289 0
M  V30 6583 C 633.334 3.16643 -3.29525 0
M  V30 6584 C 634.331 2.98032 -4.25997 0
M  V30 6585 C 632.016 3.39238 -3.70436 0
M  V30 6586 C 634.01 3.01924 -5.61356 0
M  V30 6587 C 631.697 3.42762 -5.05922 0
M  V30 6588 C 632.695 3.24125 -6.01192 0
M  V30 6589 O 632.383 3.27406 -7.34208 0
M  V30 6590 H 632.115 0.537197 -0.41036 0
M  V30 6591 H 634.669 1.15547 -1.69817 0
M  V30 6592 H 632.899 3.66662 -1.22865 0
M  V30 6593 H 634.588 3.71063 -1.6452 0
M  V30 6594 H 635.354 2.80405 -3.95725 0
M  V30 6595 H 631.233 3.52791 -2.96749 0
M  V30 6596 H 634.777 2.87295 -6.35694 0
M  V30 6597 H 630.674 3.59916 -5.35846 0
M  V30 6598 H 631.442 3.43784 -7.42802 0
M  V30 6599 N 634.105 1.10431 1.1244 0
M  V30 6600 C 635.33 0.869089 1.88313 0
M  V30 6601 C 635.755 -0.574912 1.79099 0
M  V30 6602 O 635.113 -1.40496 1.14589 0
M  V30 6603 C 635.161 1.32208 3.3549 0
M  V30 6604 O 634.265 0.487092 4.09513 0
M  V30 6605 H 633.606 0.313894 0.585121 0
M  V30 6606 H 636.136 1.47111 1.42195 0
M  V30 6607 H 636.146 1.31201 3.86329 0
M  V30 6608 H 634.821 2.37364 3.41513 0
M  V30 6609 H 633.398 0.562372 3.68635 0
M  V30 6610 N 635.583 -1.29855 0.893053 0
M  V30 6611 C 636.515 -2.26911 0.32311 0
M  V30 6612 C 637.528 -1.54039 -0.526858 0
M  V30 6613 O 638.717 -1.75132 -0.345095 0
M  V30 6614 C 635.817 -3.34266 -0.558509 0
M  V30 6615 C 634.99 -4.36601 0.264222 0
M  V30 6616 C 634.049 -5.23326 -0.549171 0
M  V30 6617 O 633.075 -5.69192 0.0309883 0
M  V30 6618 N 634.277 -5.50008 -1.85664 0
M  V30 6619 H 637.042 -2.76455 1.15726 0
M  V30 6620 H 634.603 -1.4312 0.756859 0
M  V30 6621 H 636.595 -3.89211 -1.1089 0
M  V30 6622 H 635.165 -2.8459 -1.29334 0
M  V30 6623 H 634.385 -3.81409 0.996046 0
M  V30 6624 H 635.673 -5.02019 0.827906 0
M  V30 6625 H 635.071 -5.14542 -2.35081 0
M  V30 6626 H 633.628 -6.07796 -2.35431 0
M  V30 6627 N 637.061 -0.65484 -1.43351 0
M  V30 6628 C 638.307 -0.169142 -2.02093 0
M  V30 6629 C 638.64 1.21431 -1.51553 0
M  V30 6630 O 637.915 1.81105 -0.709317 0
M  V30 6631 C 638.198 -0.181775 -3.59641 0
M  V30 6632 C 638.051 -1.59926 -4.20409 0
M  V30 6633 C 639.37 0.480945 -4.37464 0
M  V30 6634 H 636.489 -0.0629371 -0.734308 0
M  V30 6635 H 639.131 -0.835833 -1.70628 0
M  V30 6636 H 637.281 0.385918 -3.86578 0
M  V30 6637 H 638.953 -2.21766 -4.04497 0
M  V30 6638 H 637.196 -2.14605 -3.76998 0
M  V30 6639 H 637.867 -1.55994 -5.295 0
M  V30 6640 H 640.343 -0.00208273 -4.161 0
M  V30 6641 H 639.219 0.441384 -5.47122 0
M  V30 6642 H 639.48 1.55533 -4.13838 0
M  V30 6643 N 638.539 1.52521 -0.396863 0
M  V30 6644 C 639.788 2.00857 0.184184 0
M  V30 6645 C 640.101 1.28733 1.47265 0
M  V30 6646 O 641.307 1.67821 2.13421 0
M  V30 6647 C 639.763 3.57901 0.378787 0
M  V30 6648 C 639.371 4.38931 -0.896873 0
M  V30 6649 C 641.115 4.14504 0.915789 0
M  V30 6650 C 639.022 5.87591 -0.670133 0
M  V30 6651 H 637.952 0.750496 0.0726055 0
M  V30 6652 H 640.603 1.75965 -0.520425 0
M  V30 6653 H 638.985 3.79072 1.14543 0
M  V30 6654 H 640.159 4.29524 -1.66872 0
M  V30 6655 H 638.474 3.93586 -1.35938 0
M  V30 6656 H 641.071 5.23236 1.10126 0
M  V30 6657 H 641.414 3.71076 1.88701 0
M  V30 6658 H 641.947 3.97253 0.208523 0
M  V30 6659 H 638.686 6.35355 -1.61257 0
M  V30 6660 H 638.206 5.99767 0.0626368 0
M  V30 6661 H 639.885 6.46268 -0.307577 0
M  V30 6662 N 640.017 0.126909 1.57088 0
M  V30 6663 C 641.428 -0.397201 1.82426 0
M  V30 6664 C 641.779 -1.66084 1.04453 0
M  V30 6665 O 640.904 -2.14534 0.283552 0
M  V30 6666 C 641.499 -0.727411 3.30899 0
M  V30 6667 C 640.058 -1.19612 3.56889 0
M  V30 6668 C 639.205 -0.20885 2.76512 0
M  V30 6669 H 642.156 0.351924 1.54749 0
M  V30 6670 H 642.177 -1.58407 3.45959 0
M  V30 6671 H 641.689 0.19247 3.87622 0
M  V30 6672 H 639.79 -2.13263 3.05532 0
M  V30 6673 H 639.903 -1.13598 4.65438 0
M  V30 6674 H 638.267 -0.697479 2.44964 0
M  V30 6675 H 639.05 0.704267 3.35998 0
M  V30 6676 N 641.495 -1.56914 -0.146875 0
M  V30 6677 C 642.428 -1.93425 -1.21087 0
M  V30 6678 C 643.406 -0.800106 -1.41552 0
M  V30 6679 O 644.59 -1.05572 -1.56162 0
M  V30 6680 C 641.717 -2.20639 -2.56975 0
M  V30 6681 C 640.763 -3.43279 -2.53104 0
M  V30 6682 S 641.596 -4.96836 -1.99786 0
M  V30 6683 C 642.752 -5.27172 -3.37403 0
M  V30 6684 H 642.985 -2.8337 -0.899378 0
M  V30 6685 H 640.518 -1.50322 -0.352494 0
M  V30 6686 H 642.476 -2.36998 -3.35175 0
M  V30 6687 H 641.137 -1.31357 -2.85314 0
M  V30 6688 H 640.33 -3.59599 -3.53136 0
M  V30 6689 H 639.932 -3.26163 -1.83012 0
M  V30 6690 H 642.224 -5.20647 -4.33513 0
M  V30 6691 H 643.167 -6.28626 -3.25937 0
M  V30 6692 H 643.575 -4.54687 -3.34544 0
M  V30 6693 N 642.974 0.416227 -1.52004 0
M  V30 6694 C 643.884 1.53147 -1.77717 0
M  V30 6695 C 644.9 1.609 -0.662368 0
M  V30 6696 O 646.076 1.77747 -0.946991 0
M  V30 6697 C 643.141 2.88948 -1.91598 0
M  V30 6698 C 642.202 2.9114 -3.15493 0
M  V30 6699 C 641.435 4.20464 -3.28703 0
M  V30 6700 O 641.658 5.13981 -2.47345 0
M  V30 6701 O 640.592 4.29368 -4.21813 0
M  V30 6702 H 644.418 1.34357 -2.72363 0
M  V30 6703 H 642.003 0.601373 -1.36762 0
M  V30 6704 H 643.885 3.69505 -2.02593 0
M  V30 6705 H 642.56 3.07821 -1.00141 0
M  V30 6706 H 641.467 2.09461 -3.09962 0
M  V30 6707 H 642.8 2.77216 -4.06709 0
M  V30 6708 N 644.452 1.42507 0.673017 0
M  V30 6709 C 645.362 1.4853 1.81593 0
M  V30 6710 C 646.378 0.373907 1.69935 0
M  V30 6711 O 647.554 0.625078 1.91454 0
M  V30 6712 C 644.619 1.387 3.17747 0
M  V30 6713 C 643.68 2.60346 3.41348 0
M  V30 6714 C 642.913 2.50975 4.71007 0
M  V30 6715 O 643.136 1.54659 5.49033 0
M  V30 6716 O 642.07 3.41138 4.95892 0
M  V30 6717 H 645.896 2.45001 1.79467 0
M  V30 6718 H 643.481 1.2429 0.82899 0
M  V30 6719 H 645.363 1.35586 3.98992 0
M  V30 6720 H 644.038 0.453555 3.20507 0
M  V30 6721 H 642.945 2.69034 2.59945 0
M  V30 6722 H 644.278 3.52595 3.43421 0
M  V30 6723 N 645.93 -0.909495 1.28709 0
M  V30 6724 C 647.177 -1.65905 1.16111 0
M  V30 6725 C 647.505 -1.92334 -0.289436 0
M  V30 6726 O 646.76 -1.52495 -1.22653 0
M  V30 6727 C 647.059 -3.02117 1.90945 0
M  V30 6728 C 646.725 -2.95332 3.40719 0
M  V30 6729 C 645.387 -2.93189 3.81567 0
M  V30 6730 C 647.739 -2.85264 4.36204 0
M  V30 6731 C 645.067 -2.78784 5.16233 0
M  V30 6732 C 647.419 -2.724 5.70948 0
M  V30 6733 C 646.083 -2.68617 6.11066 0
M  V30 6734 H 645.353 -0.60709 0.42488 0
M  V30 6735 H 648 -1.05932 1.59533 0
M  V30 6736 H 646.305 -3.65901 1.40085 0
M  V30 6737 H 648.002 -3.59026 1.7861 0
M  V30 6738 H 644.592 -2.97797 3.08245 0
M  V30 6739 H 648.776 -2.86005 4.05605 0
M  V30 6740 H 644.032 -2.74254 5.46438 0
M  V30 6741 H 648.206 -2.63579 6.44592 0
M  V30 6742 H 645.833 -2.57213 7.15364 0
M  V30 6743 N 647.408 -1.11026 -1.11852 0
M  V30 6744 C 648.356 -0.759643 -2.19846 0
M  V30 6745 C 649.35 0.246964 -1.6759 0
M  V30 6746 O 650.556 0.106693 -1.79684 0
M  V30 6747 H 646.931 -0.22775 -0.716683 0
M  V30 6748 H 648.902 -1.6792 -2.46669 0
M  V30 6749 C 647.651 -0.214364 -3.47039 0
M  V30 6750 H 646.974 -0.980175 -3.87599 0
M  V30 6751 H 648.414 -0.00717047 -4.23999 0
M  V30 6752 C 646.873 1.05436 -3.19976 0
M  V30 6753 O 647.403 2.13483 -3.40276 0
M  V30 6754 N 645.609 0.975436 -2.7374 0
M  V30 6755 H 645.156 0.0960853 -2.57421 0
M  V30 6756 H 645.114 1.82501 -2.5601 0
M  V30 6757 N 648.886 1.2938 -0.899927 0
M  V30 6758 C 649.816 2.30144 -0.39446 0
M  V30 6759 C 650.797 1.61611 0.530639 0
M  V30 6760 O 651.982 1.89119 0.441319 0
M  V30 6761 C 649.112 3.45229 0.37868 0
M  V30 6762 C 648.066 4.25564 -0.456012 0
M  V30 6763 C 647.392 5.32848 0.444637 0
M  V30 6764 C 648.692 4.93651 -1.70605 0
M  V30 6765 H 650.386 2.72673 -1.23653 0
M  V30 6766 H 647.932 1.31086 -0.596034 0
M  V30 6767 H 649.885 4.14797 0.743037 0
M  V30 6768 H 648.609 3.01545 1.25453 0
M  V30 6769 H 647.268 3.57704 -0.802704 0
M  V30 6770 H 646.916 4.85408 1.31863 0
M  V30 6771 H 646.616 5.87497 -0.110154 0
M  V30 6772 H 648.14 6.05268 0.805182 0
M  V30 6773 H 649.554 5.55655 -1.41141 0
M  V30 6774 H 647.951 5.58233 -2.20217 0
M  V30 6775 H 649.021 4.18926 -2.4419 0
M  V30 6776 N 650.364 0.662433 1.43002 0
M  V30 6777 C 651.314 -0.0460442 2.27954 0
M  V30 6778 C 652.298 -0.785753 1.40409 0
M  V30 6779 O 653.49 -0.666701 1.63964 0
M  V30 6780 C 650.619 -1.00532 3.2825 0
M  V30 6781 C 649.705 -0.263604 4.2328 0
M  V30 6782 N 650.096 0.724855 5.00579 0
M  V30 6783 C 648.394 -0.503778 4.43146 0
M  V30 6784 C 649.095 1.16594 5.69895 0
M  V30 6785 N 648.071 0.498345 5.41311 0
M  V30 6786 H 651.873 0.712314 2.85137 0
M  V30 6787 H 649.387 0.490469 1.54817 0
M  V30 6788 H 651.384 -1.52775 3.87899 0
M  V30 6789 H 650.044 -1.76364 2.72628 0
M  V30 6790 H 651.055 1.10393 5.05998 0
M  V30 6791 H 647.732 -1.24255 3.98581 0
M  V30 6792 H 649.122 1.98434 6.4193 0
M  V30 6793 N 651.842 -1.52309 0.404946 0
M  V30 6794 C 652.772 -2.29805 -0.41376 0
M  V30 6795 C 653.753 -1.3384 -1.0498 0
M  V30 6796 O 654.938 -1.62745 -1.05961 0
M  V30 6797 C 652.068 -3.11639 -1.53292 0
M  V30 6798 C 651.022 -4.15616 -1.02211 0
M  V30 6799 C 650.348 -4.8577 -2.23455 0
M  V30 6800 C 651.648 -5.2224 -0.0790725 0
M  V30 6801 H 653.342 -2.98493 0.232878 0
M  V30 6802 H 650.888 -1.43552 0.113441 0
M  V30 6803 H 652.841 -3.64618 -2.11262 0
M  V30 6804 H 651.565 -2.40712 -2.20738 0
M  V30 6805 H 650.224 -3.63641 -0.46484 0
M  V30 6806 H 649.872 -4.11376 -2.89445 0
M  V30 6807 H 649.572 -5.56058 -1.89929 0
M  V30 6808 H 651.096 -5.4156 -2.82038 0
M  V30 6809 H 652.51 -5.70485 -0.567438 0
M  V30 6810 H 650.907 -5.99867 0.167167 0
M  V30 6811 H 651.977 -4.77078 0.867447 0
M  V30 6812 N 653.32 -0.135238 -1.57019 0
M  V30 6813 C 654.548 0.526066 -2.001 0
M  V30 6814 C 654.963 1.59184 -1.01519 0
M  V30 6815 O 654.32 1.82497 -0.0104258 0
M  V30 6816 C 654.371 1.13744 -3.43139 0
M  V30 6817 O 654.092 0.114259 -4.37951 0
M  V30 6818 C 655.593 1.8805 -4.01438 0
M  V30 6819 H 652.813 0.137962 -0.656664 0
M  V30 6820 H 655.357 -0.226359 -2.03243 0
M  V30 6821 H 653.512 1.84056 -3.40885 0
M  V30 6822 H 653.926 0.56058 -5.21496 0
M  V30 6823 H 655.4 2.26133 -5.03555 0
M  V30 6824 H 655.877 2.76194 -3.41487 0
M  V30 6825 H 656.483 1.22464 -4.07287 0
M  V30 6826 N 654.798 1.5699 0.138552 0
M  V30 6827 C 656.046 1.83446 0.848053 0
M  V30 6828 C 656.367 0.71744 1.81322 0
M  V30 6829 O 655.637 -0.260228 1.94164 0
M  V30 6830 H 654.217 0.676792 0.316166 0
M  V30 6831 H 656.879 1.94462 0.130538 0
M  V30 6832 H 655.975 2.78677 1.40518 0
M  V30 6833 N 656.276 -0.40816 1.52223 0
M  V30 6834 C 657.553 -1.16807 1.56893 0
M  V30 6835 C 657.933 -2.08169 0.350537 0
M  V30 6836 O 657.281 -2.18684 -0.662536 0
M  V30 6837 C 657.491 -1.94451 2.8981 0
M  V30 6838 C 658.839 -2.50484 3.42845 0
M  V30 6839 O 659.863 -2.0463 2.91556 0
M  V30 6840 O 658.722 -3.34192 4.3241 0
M  V30 6841 H 655.816 -0.533382 0.632007 0
M  V30 6842 H 658.362 -0.414862 1.64551 0
M  V30 6843 H 657.134 -1.27527 3.69936 0
M  V30 6844 H 656.757 -2.76775 2.85449 0
M  V30 6845 N 657.755 -1.42862 -0.66545 0
M  V30 6846 C 659.004 -1.43119 -1.42126 0
M  V30 6847 C 659.317 -0.0545297 -1.95524 0
M  V30 6848 O 660.523 0.0654747 -2.71421 0
M  V30 6849 C 658.979 -2.51797 -2.5715 0
M  V30 6850 C 658.587 -3.95514 -2.10411 0
M  V30 6851 C 660.331 -2.61233 -3.346 0
M  V30 6852 C 658.238 -4.95682 -3.22573 0
M  V30 6853 H 657.168 -0.532349 -0.533966 0
M  V30 6854 H 659.819 -1.68806 -0.719506 0
M  V30 6855 H 658.201 -2.19292 -3.29738 0
M  V30 6856 H 659.375 -4.3742 -1.44915 0
M  V30 6857 H 657.69 -3.90012 -1.45874 0
M  V30 6858 H 660.287 -3.33248 -4.18151 0
M  V30 6859 H 660.63 -1.65896 -3.81817 0
M  V30 6860 H 661.163 -2.9298 -2.69087 0
M  V30 6861 H 657.902 -5.92529 -2.80338 0
M  V30 6862 H 657.422 -4.58399 -3.86821 0
M  V30 6863 H 659.101 -5.17828 -3.87896 0
M  V30 6864 N 659.233 0.902656 -1.29189 0
M  V30 6865 C 660.183 1.99326 -1.10695 0
M  V30 6866 C 661.167 1.60877 -0.0272521 0
M  V30 6867 O 662.359 1.75245 -0.248635 0
M  V30 6868 C 659.488 3.34265 -0.78244 0
M  V30 6869 C 658.574 3.79081 -1.90153 0
M  V30 6870 N 658.965 3.96162 -3.14466 0
M  V30 6871 C 657.263 4.08333 -1.79389 0
M  V30 6872 C 657.964 4.3388 -3.87458 0
M  V30 6873 N 656.94 4.42759 -3.15381 0
M  V30 6874 H 660.742 2.10597 -2.05003 0
M  V30 6875 H 658.256 1.09127 -1.20271 0
M  V30 6876 H 660.253 4.12097 -0.630996 0
M  V30 6877 H 658.913 3.2434 0.152754 0
M  V30 6878 H 659.924 3.81775 -3.49954 0
M  V30 6879 H 656.601 4.06982 -0.931217 0
M  V30 6880 H 657.991 4.54965 -4.94425 0
M  V30 6881 N 660.711 1.11618 1.11262 0
M  V30 6882 C 661.674 0.779447 2.15539 0
M  V30 6883 C 662.674 -0.202081 1.59525 0
M  V30 6884 O 663.864 0.0226356 1.74185 0
M  V30 6885 C 660.996 0.15674 3.40539 0
M  V30 6886 H 662.189 1.70324 2.4684 0
M  V30 6887 H 659.742 0.918298 1.26479 0
M  V30 6888 H 660.477 -0.777186 3.1485 0
M  V30 6889 H 660.262 0.863308 3.82478 0
M  V30 6890 H 661.752 -0.062661 4.17553 0
M  V30 6891 N 662.189 -1.289 0.906776 0
M  V30 6892 C 663.438 -1.9455 0.532262 0
M  V30 6893 C 663.751 -1.72219 -0.927353 0
M  V30 6894 O 664.957 -2.32033 -1.40971 0
M  V30 6895 C 663.413 -3.48438 0.901041 0
M  V30 6896 C 663.021 -3.79558 2.37991 0
M  V30 6897 C 664.765 -4.20284 0.596777 0
M  V30 6898 C 662.672 -5.26723 2.68918 0
M  V30 6899 H 661.602 -0.728259 0.195333 0
M  V30 6900 H 664.253 -1.46519 1.10474 0
M  V30 6901 H 662.635 -3.95162 0.257419 0
M  V30 6902 H 663.809 -3.43668 3.06967 0
M  V30 6903 H 662.124 -3.20868 2.65391 0
M  V30 6904 H 664.721 -5.28612 0.8046 0
M  V30 6905 H 665.064 -4.13694 -0.465072 0
M  V30 6906 H 665.597 -3.79315 1.19855 0
M  V30 6907 H 662.336 -5.38384 3.73928 0
M  V30 6908 H 661.856 -5.63836 2.04571 0
M  V30 6909 H 663.535 -5.94391 2.55555 0
M  V30 6910 N 663.667 -0.670007 -1.42649 0
M  V30 6911 C 664.895 -0.19854 -2.05945 0
M  V30 6912 C 665.31 1.14243 -1.50313 0
M  V30 6913 O 664.667 1.70872 -0.641027 0
M  V30 6914 C 664.718 -0.11966 -3.61302 0
M  V30 6915 O 664.439 -1.40764 -4.1487 0
M  V30 6916 C 665.94 0.375878 -4.41704 0
M  V30 6917 H 663.16 -0.0976894 -0.663851 0
M  V30 6918 H 665.704 -0.915392 -1.82868 0
M  V30 6919 H 663.859 0.547851 -3.83507 0
M  V30 6920 H 664.273 -1.27784 -5.08696 0
M  V30 6921 H 665.747 0.379988 -5.50691 0
M  V30 6922 H 666.224 1.41028 -4.15942 0
M  V30 6923 H 666.83 -0.259727 -4.24506 0
M  V30 6924 N 665.145 1.52092 -0.413018 0
M  V30 6925 C 666.108 2.25706 0.398687 0
M  V30 6926 C 667.108 1.28221 0.970368 0
M  V30 6927 O 668.298 1.52131 0.848635 0
M  V30 6928 C 665.43 3.03029 1.5616 0
M  V30 6929 H 666.623 2.98888 -0.246131 0
M  V30 6930 H 664.176 1.5542 -0.165622 0
M  V30 6931 H 664.911 2.34205 2.24317 0
M  V30 6932 H 664.696 3.74606 1.15812 0
M  V30 6933 H 666.186 3.58857 2.13569 0
M  V30 6934 N 666.623 0.143563 1.56945 0
M  V30 6935 C 667.586 -0.783295 2.154 0
M  V30 6936 C 668.586 -1.17763 1.09492 0
M  V30 6937 O 669.776 -1.09912 1.35148 0
M  V30 6938 C 666.908 -2.06248 2.7143 0
M  V30 6939 H 668.101 -0.274863 2.98638 0
M  V30 6940 H 665.654 -0.105859 1.55941 0
M  V30 6941 H 666.389 -2.61466 1.91849 0
M  V30 6942 H 666.174 -1.78897 3.4891 0
M  V30 6943 H 667.664 -2.72453 3.16479 0
M  V30 6944 N 668.101 -1.57061 -0.130224 0
M  V30 6945 C 669.049 -2.00486 -1.17933 0
M  V30 6946 C 670.043 -0.899933 -1.43519 0
M  V30 6947 O 671.249 -1.08514 -1.43613 0
M  V30 6948 H 667.624 -0.638441 -0.397363 0
M  V30 6949 H 669.595 -2.87848 -0.786501 0
M  V30 6950 C 668.344 -2.41565 -2.50084 0
M  V30 6951 H 667.667 -3.26148 -2.31231 0
M  V30 6952 H 669.107 -2.75757 -3.22078 0
M  V30 6953 C 667.566 -1.27485 -3.11848 0
M  V30 6954 O 668.096 -0.584688 -3.97422 0
M  V30 6955 N 666.302 -1.03478 -2.71552 0
M  V30 6956 H 665.849 -1.59779 -2.02061 0
M  V30 6957 H 665.807 -0.27341 -3.13209 0
M  V30 6958 N 669.579 0.400081 -1.52437 0
M  V30 6959 C 670.527 1.50851 -1.7705 0
M  V30 6960 C 671.521 1.56928 -0.637969 0
M  V30 6961 O 672.727 1.60226 -0.820212 0
M  V30 6962 H 669.102 0.50186 -0.560036 0
M  V30 6963 H 671.073 1.27281 -2.69893 0
M  V30 6964 C 669.822 2.88117 -1.94638 0
M  V30 6965 H 669.145 2.84187 -2.81208 0
M  V30 6966 H 670.585 3.64942 -2.15855 0
M  V30 6967 C 669.044 3.29206 -0.715899 0
M  V30 6968 O 669.574 4.01544 0.111944 0
M  V30 6969 N 667.78 2.85363 -0.549191 0
M  V30 6970 H 667.327 2.26664 -1.22397 0
M  V30 6971 H 667.285 3.13214 0.27278 0
M  V30 6972 N 671.057 1.43213 0.657864 0
M  V30 6973 C 671.987 1.50815 1.78262 0
M  V30 6974 C 672.968 0.363211 1.66177 0
M  V30 6975 O 674.153 0.579806 1.85343 0
M  V30 6976 C 671.283 1.42625 3.16663 0
M  V30 6977 C 670.237 2.5532 3.43505 0
M  V30 6978 C 669.563 2.32184 4.81658 0
M  V30 6979 C 670.863 3.97583 3.38711 0
M  V30 6980 H 672.557 2.44954 1.72157 0
M  V30 6981 H 670.103 1.17896 0.82683 0
M  V30 6982 H 672.056 1.46548 3.95097 0
M  V30 6983 H 670.78 0.449877 3.23487 0
M  V30 6984 H 669.439 2.50742 2.6744 0
M  V30 6985 H 669.087 1.32801 4.85153 0
M  V30 6986 H 668.787 3.07724 5.00579 0
M  V30 6987 H 670.311 2.37883 5.62356 0
M  V30 6988 H 671.725 4.03673 4.07089 0
M  V30 6989 H 670.122 4.73112 3.69168 0
M  V30 6990 H 671.192 4.23049 2.36976 0
M  V30 6991 N 672.536 -0.895792 1.29666 0
M  V30 6992 C 673.782 -1.64908 1.18039 0
M  V30 6993 C 674.115 -1.9236 -0.266682 0
M  V30 6994 O 673.39 -1.53682 -1.19214 0
M  V30 6995 C 673.673 -2.99574 1.99819 0
M  V30 6996 C 673.526 -2.79163 3.52687 0
M  V30 6997 C 674.845 -4.00358 1.82761 0
M  V30 6998 H 671.964 -0.598437 0.430165 0
M  V30 6999 H 674.606 -1.03736 1.59182 0
M  V30 7000 H 672.756 -3.51786 1.64859 0
M  V30 7001 H 674.428 -2.33821 3.9765 0
M  V30 7002 H 672.671 -2.13871 3.77414 0
M  V30 7003 H 673.342 -3.74871 4.05186 0
M  V30 7004 H 675.818 -3.57268 2.13304 0
M  V30 7005 H 674.694 -4.92514 2.42325 0
M  V30 7006 H 674.955 -4.35096 0.783839 0
M  V30 7007 N 674.014 -1.12206 -1.10668 0
M  V30 7008 C 674.977 -0.790867 -2.15123 0
M  V30 7009 C 675.977 0.193618 -1.5963 0
M  V30 7010 O 677.167 -0.0318728 -1.74171 0
M  V30 7011 C 674.299 -0.174797 -3.40452 0
M  V30 7012 H 675.492 -1.7163 -2.45933 0
M  V30 7013 H 673.045 -0.924993 -1.2599 0
M  V30 7014 H 673.78 0.760478 -3.15257 0
M  V30 7015 H 673.565 -0.88358 -3.82015 0
M  V30 7016 H 675.055 0.0405162 -4.1758 0
M  V30 7017 N 675.492 1.28418 -0.913599 0
M  V30 7018 C 676.455 2.25564 -0.406624 0
M  V30 7019 C 677.455 1.5387 0.466965 0
M  V30 7020 O 678.645 1.72094 0.270042 0
M  V30 7021 C 675.777 3.38339 0.417053 0
M  V30 7022 H 676.97 2.71926 -1.26477 0
M  V30 7023 H 674.523 1.40098 -0.692986 0
M  V30 7024 H 675.258 2.97339 1.29461 0
M  V30 7025 H 675.043 3.91542 -0.209102 0
M  V30 7026 H 676.533 4.10578 0.762602 0
M  V30 7027 N 676.97 0.677563 1.42291 0
M  V30 7028 C 677.933 0.0101085 2.29198 0
M  V30 7029 C 678.933 -0.726219 1.43467 0
M  V30 7030 O 680.123 -0.563807 1.64824 0
M  V30 7031 C 677.255 -0.996316 3.26016 0
M  V30 7032 H 678.448 0.775071 2.89711 0
M  V30 7033 H 676.001 0.440065 1.49977 0
M  V30 7034 H 676.736 -1.78967 2.70446 0
M  V30 7035 H 676.521 -0.471687 3.89253 0
M  V30 7036 H 678.011 -1.46167 3.91184 0
M  V30 7037 N 678.448 -1.51871 0.421078 0
M  V30 7038 C 679.697 -2.01125 -0.152206 0
M  V30 7039 C 680.01 -1.3106 -1.45199 0
M  V30 7040 O 681.216 -1.71195 -2.10724 0
M  V30 7041 C 679.672 -3.58458 -0.3218 0
M  V30 7042 C 679.28 -4.37448 0.96659 0
M  V30 7043 C 681.024 -4.15908 -0.84973 0
M  V30 7044 C 678.931 -5.86451 0.763529 0
M  V30 7045 H 677.861 -0.751556 -0.0606565 0
M  V30 7046 H 680.512 -1.75115 0.548354 0
M  V30 7047 H 678.894 -3.80847 -1.08498 0
M  V30 7048 H 680.068 -4.26814 1.73684 0
M  V30 7049 H 678.383 -3.91373 1.42183 0
M  V30 7050 H 680.98 -5.24922 -1.01788 0
M  V30 7051 H 681.323 -3.74031 -1.82774 0
M  V30 7052 H 681.856 -3.97535 -0.145297 0
M  V30 7053 H 678.595 -6.3271 1.71344 0
M  V30 7054 H 678.115 -5.99791 0.0327889 0
M  V30 7055 H 679.794 -6.45697 0.410354 0
M  V30 7056 N 679.926 -0.151884 -1.56866 0
M  V30 7057 C 681.203 0.543328 -1.87902 0
M  V30 7058 C 681.583 1.82636 -1.05864 0
M  V30 7059 O 680.931 2.28028 -0.146868 0
M  V30 7060 C 681.141 0.804056 -3.39611 0
M  V30 7061 C 682.489 1.14267 -4.08935 0
M  V30 7062 O 683.513 0.893248 -3.44818 0
M  V30 7063 O 682.372 1.61229 -5.22176 0
M  V30 7064 H 679.466 0.277724 -0.778973 0
M  V30 7065 H 682.012 -0.188862 -1.68646 0
M  V30 7066 H 680.784 -0.103772 -3.91162 0
M  V30 7067 H 680.407 1.59025 -3.64413 0
M  V30 7068 N 681.404 1.57128 0.121893 0
M  V30 7069 C 682.367 1.99197 1.13372 0
M  V30 7070 C 683.367 0.881728 1.3447 0
M  V30 7071 O 684.557 1.14783 1.31036 0
M  V30 7072 C 681.689 2.32963 2.4888 0
M  V30 7073 H 682.882 2.89788 0.772204 0
M  V30 7074 H 680.435 1.51952 0.366093 0
M  V30 7075 H 681.17 1.45243 2.89957 0
M  V30 7076 H 680.955 3.13934 2.34921 0
M  V30 7077 H 682.445 2.66261 3.21706 0
M  V30 7078 N 682.882 -0.391992 1.52647 0
M  V30 7079 C 684.298 -0.731848 1.41831 0
M  V30 7080 C 684.498 -1.9423 0.536361 0
M  V30 7081 O 683.554 -2.52499 0.00866571 0
M  V30 7082 C 684.867 -0.969743 2.84634 0
M  V30 7083 C 686.415 -1.0714 2.94092 0
M  V30 7084 C 686.89 -1.34195 4.37899 0
M  V30 7085 N 688.381 -1.41023 4.41211 0
M  V30 7086 C 689.116 -1.63616 5.49561 0
M  V30 7087 N 688.612 -1.83699 6.68002 0
M  V30 7088 N 690.405 -1.65771 5.371 0
M  V30 7089 H 682.556 0.404547 2.08512 0
M  V30 7090 H 684.819 0.11879 0.940528 0
M  V30 7091 H 684.525 -0.152465 3.51369 0
M  V30 7092 H 684.399 -1.88523 3.26709 0
M  V30 7093 H 686.786 -1.87925 2.27526 0
M  V30 7094 H 686.867 -0.133887 2.55449 0
M  V30 7095 H 686.511 -0.539207 5.0503 0
M  V30 7096 H 686.441 -2.29226 4.74092 0
M  V30 7097 H 688.932 -1.27223 3.55841 0
M  V30 7098 H 689.245 -2.00437 7.46354 0
M  V30 7099 H 687.59 -1.8093 6.71036 0
M  V30 7100 H 690.781 -1.4963 4.43541 0
M  V30 7101 H 690.954 -1.83038 6.21612 0
M  V30 7102 N 684.36 -1.4356 -0.65026 0
M  V30 7103 C 685.609 -1.44619 -1.406 0
M  V30 7104 C 685.922 -0.0752645 -1.95455 0
M  V30 7105 O 687.128 0.0366832 -2.71475 0
M  V30 7106 C 685.584 -2.54511 -2.54465 0
M  V30 7107 C 685.192 -3.97723 -2.06204 0
M  V30 7108 C 686.936 -2.64768 -3.31811 0
M  V30 7109 C 684.843 -4.99075 -3.17298 0
M  V30 7110 H 683.773 -0.537983 -0.52829 0
M  V30 7111 H 686.424 -1.69559 -0.701561 0
M  V30 7112 H 684.806 -2.22777 -3.27393 0
M  V30 7113 H 685.98 -4.38932 -1.40267 0
M  V30 7114 H 684.295 -3.91538 -1.41729 0
M  V30 7115 H 686.892 -3.37664 -4.14593 0
M  V30 7116 H 687.235 -1.69936 -3.80036 0
M  V30 7117 H 687.768 -2.95817 -2.65964 0
M  V30 7118 H 684.507 -5.95469 -2.74038 0
M  V30 7119 H 684.027 -4.62476 -3.81937 0
M  V30 7120 H 685.706 -5.21913 -3.82382 0
M  V30 7121 N 685.838 0.888903 -1.30139 0
M  V30 7122 C 687.085 1.64037 -1.18736 0
M  V30 7123 C 687.413 1.92771 0.258801 0
M  V30 7124 O 686.668 1.54427 1.20212 0
M  V30 7125 C 686.967 2.99041 -1.95728 0
M  V30 7126 C 686.633 2.89874 -3.45375 0
M  V30 7127 C 685.295 2.87082 -3.86183 0
M  V30 7128 C 687.647 2.78289 -4.40687 0
M  V30 7129 C 684.975 2.70536 -5.20603 0
M  V30 7130 C 687.327 2.63282 -5.75209 0
M  V30 7131 C 685.991 2.58861 -6.15262 0
M  V30 7132 H 685.261 0.600253 -0.434485 0
M  V30 7133 H 687.908 1.0338 -1.61198 0
M  V30 7134 H 686.213 3.63626 -1.45888 0
M  V30 7135 H 687.91 3.56139 -1.843 0
M  V30 7136 H 684.5 2.92856 -3.12943 0
M  V30 7137 H 688.684 2.79516 -4.10103 0
M  V30 7138 H 683.94 2.65526 -5.50732 0
M  V30 7139 H 688.114 2.5329 -6.48704 0
M  V30 7140 H 685.741 2.45799 -7.19366 0
M  V30 7141 N 687.317 1.12792 1.10072 0
M  V30 7142 C 688.267 0.768086 2.14673 0
M  V30 7143 C 689.251 -0.234716 1.59179 0
M  V30 7144 O 690.443 -0.039643 1.76956 0
M  V30 7145 C 687.572 0.228472 3.42539 0
M  V30 7146 C 686.658 1.25979 4.04957 0
M  V30 7147 N 687.049 2.4586 4.42025 0
M  V30 7148 C 685.347 1.10602 4.32069 0
M  V30 7149 C 686.048 3.11747 4.9111 0
M  V30 7150 N 685.024 2.39185 4.88151 0
M  V30 7151 H 688.826 1.68029 2.4113 0
M  V30 7152 H 686.34 1.00925 1.27232 0
M  V30 7153 H 688.337 -0.0475216 4.16873 0
M  V30 7154 H 686.997 -0.678136 3.1754 0
M  V30 7155 H 688.008 2.83215 4.33601 0
M  V30 7156 H 684.685 0.257021 4.16708 0
M  V30 7157 H 686.075 4.13862 5.29309 0
M  V30 7158 N 688.795 -1.27931 0.920396 0
M  V30 7159 C 689.705 -2.30824 0.419212 0
M  V30 7160 C 690.721 -1.66767 -0.496461 0
M  V30 7161 O 691.897 -1.97763 -0.38104 0
M  V30 7162 C 688.962 -3.45158 -0.326601 0
M  V30 7163 C 688.023 -4.24754 0.623098 0
M  V30 7164 C 687.256 -5.33629 -0.0872172 0
M  V30 7165 O 687.479 -5.55204 -1.30784 0
M  V30 7166 O 686.413 -5.99091 0.580875 0
M  V30 7167 H 690.239 -2.75716 1.27337 0
M  V30 7168 H 687.824 -1.32747 0.685465 0
M  V30 7169 H 689.706 -4.14716 -0.747559 0
M  V30 7170 H 688.381 -3.02336 -1.15648 0
M  V30 7171 H 687.288 -3.57759 1.09359 0
M  V30 7172 H 688.621 -4.71272 1.41998 0
M  V30 7173 N 690.273 -0.685099 -1.4193 0
M  V30 7174 C 691.203 -0.0273506 -2.33484 0
M  V30 7175 C 692.184 0.778366 -1.51246 0
M  V30 7176 O 693.369 0.733449 -1.79817 0
M  V30 7177 C 690.499 0.917272 -3.34968 0
M  V30 7178 C 689.453 0.21941 -4.27437 0
M  V30 7179 C 688.779 1.27768 -5.1921 0
M  V30 7180 C 690.079 -0.907894 -5.14349 0
M  V30 7181 H 691.773 -0.791994 -2.88735 0
M  V30 7182 H 689.319 -0.382308 -1.38832 0
M  V30 7183 H 691.272 1.38657 -3.97935 0
M  V30 7184 H 689.996 1.71346 -2.78043 0
M  V30 7185 H 688.655 -0.229757 -3.65879 0
M  V30 7186 H 688.303 2.06612 -4.58607 0
M  V30 7187 H 688.003 0.815803 -5.81909 0
M  V30 7188 H 689.527 1.7477 -5.85054 0
M  V30 7189 H 690.941 -0.519348 -5.70943 0
M  V30 7190 H 689.338 -1.2962 -5.85934 0
M  V30 7191 H 690.408 -1.75218 -4.52136 0
M  V30 7192 N 691.751 1.51645 -0.429126 0
M  V30 7193 C 692.979 2.06433 0.138994 0
M  V30 7194 C 693.394 1.29735 1.37165 0
M  V30 7195 O 692.751 0.354638 1.79021 0
M  V30 7196 C 692.802 3.58439 0.469452 0
M  V30 7197 O 692.523 4.32238 -0.714273 0
M  V30 7198 C 694.024 4.29712 1.08914 0
M  V30 7199 H 691.244 0.6709 0.0115608 0
M  V30 7200 H 693.788 1.9532 -0.605843 0
M  V30 7201 H 691.943 3.69494 1.16419 0
M  V30 7202 H 692.357 5.22704 -0.433633 0
M  V30 7203 H 693.831 5.37182 1.27042 0
M  V30 7204 H 694.308 3.87473 2.06788 0
M  V30 7205 H 694.914 4.2308 0.434028 0
M  V30 7206 N 693.229 0.160201 1.56784 0
M  V30 7207 C 694.161 -0.80564 2.14574 0
M  V30 7208 C 695.174 -1.20154 1.09849 0
M  V30 7209 O 696.363 -1.14333 1.37078 0
M  V30 7210 C 693.463 -2.09434 2.6644 0
M  V30 7211 C 692.636 -1.86375 3.95706 0
M  V30 7212 C 691.695 -2.99358 4.32749 0
M  V30 7213 O 690.721 -2.70475 5.00831 0
M  V30 7214 N 691.923 -4.26867 3.93402 0
M  V30 7215 H 694.688 -0.311644 2.98075 0
M  V30 7216 H 692.249 -0.0229465 1.61884 0
M  V30 7217 H 694.241 -2.84091 2.88226 0
M  V30 7218 H 692.811 -2.50057 1.8759 0
M  V30 7219 H 692.031 -0.956821 3.82412 0
M  V30 7220 H 693.319 -1.68322 4.80151 0
M  V30 7221 H 692.717 -4.53197 3.38569 0
M  V30 7222 H 691.274 -4.98263 4.20211 0
M  V30 7223 N 694.707 -1.5719 -0.113559 0
M  V30 7224 C 695.935 -1.89328 -0.834422 0
M  V30 7225 C 696.35 -0.752018 -1.73177 0
M  V30 7226 O 695.707 0.276912 -1.80387 0
M  V30 7227 C 695.758 -3.20962 -1.66329 0
M  V30 7228 O 695.479 -4.30695 -0.802069 0
M  V30 7229 C 696.98 -3.6684 -2.48884 0
M  V30 7230 H 694.2 -0.626769 -0.239587 0
M  V30 7231 H 696.744 -2.04273 -0.0963195 0
M  V30 7232 H 694.899 -3.0767 -2.35409 0
M  V30 7233 H 695.313 -5.06175 -1.37431 0
M  V30 7234 H 696.787 -4.61692 -3.02563 0
M  V30 7235 H 697.264 -2.93765 -3.26495 0
M  V30 7236 H 697.87 -3.82938 -1.85036 0
M  V30 7237 N 696.185 0.383891 -1.52853 0
M  V30 7238 C 697.462 1.14296 -1.58732 0
M  V30 7239 C 697.842 2.07585 -0.383611 0
M  V30 7240 O 697.19 2.1971 0.627661 0
M  V30 7241 C 697.4 1.89816 -2.92867 0
M  V30 7242 C 698.748 2.44998 -3.46787 0
M  V30 7243 O 699.772 1.99966 -2.94774 0
M  V30 7244 O 698.631 3.2727 -4.37672 0
M  V30 7245 H 695.725 0.52326 -0.640413 0
M  V30 7246 H 698.271 0.388631 -1.6519 0
M  V30 7247 H 697.043 1.21626 -3.71918 0
M  V30 7248 H 696.666 2.72199 -2.89816 0
M  V30 7249 N 697.663 1.43903 0.642637 0
M  V30 7250 C 698.61 1.49881 1.75512 0
M  V30 7251 C 699.58 0.347538 1.62423 0
M  V30 7252 O 700.765 0.556177 1.82514 0
M  V30 7253 C 697.905 1.43797 3.13714 0
M  V30 7254 C 697.018 2.6921 3.37861 0
M  V30 7255 C 696.153 2.5504 4.6597 0
M  V30 7256 C 695.192 3.75671 4.83257 0
M  V30 7257 N 694.329 3.60247 6.02633 0
M  V30 7258 H 699.169 2.44935 1.69737 0
M  V30 7259 H 696.706 1.21572 0.828165 0
M  V30 7260 H 698.664 1.38262 3.93624 0
M  V30 7261 H 697.294 0.523173 3.18532 0
M  V30 7262 H 696.346 2.8498 2.51973 0
M  V30 7263 H 697.658 3.58786 3.46517 0
M  V30 7264 H 696.812 2.47273 5.54023 0
M  V30 7265 H 695.551 1.63006 4.59653 0
M  V30 7266 H 694.556 3.83836 3.93637 0
M  V30 7267 H 695.781 4.68728 4.91397 0
M  V30 7268 H 693.727 2.70955 5.97427 0
M  V30 7269 H 693.644 4.43431 6.12295 0
M  V30 7270 H 694.912 3.56351 6.93278 0
M  V30 7271 N 699.141 -0.881989 1.30609 0
M  V30 7272 C 700.104 -1.96957 1.1722 0
M  V30 7273 C 701.104 -1.60472 0.102598 0
M  V30 7274 O 702.294 -1.70628 0.350943 0
M  V30 7275 C 699.426 -3.31463 0.796572 0
M  V30 7276 H 700.619 -2.10262 2.13846 0
M  V30 7277 H 698.172 -1.06877 1.14048 0
M  V30 7278 H 698.907 -3.23859 -0.169053 0
M  V30 7279 H 698.692 -3.59314 1.56959 0
M  V30 7280 H 700.182 -4.11233 0.72645 0
M  V30 7281 N 700.619 -1.13374 -1.09472 0
M  V30 7282 C 701.549 -0.833268 -2.18126 0
M  V30 7283 C 702.53 0.207169 -1.68834 0
M  V30 7284 O 703.715 0.0662012 -1.94087 0
M  V30 7285 C 700.845 -0.297979 -3.46019 0
M  V30 7286 C 699.799 -1.27261 -4.08642 0
M  V30 7287 C 699.125 -0.597104 -5.31356 0
M  V30 7288 C 700.425 -2.63095 -4.51197 0
M  V30 7289 H 702.119 -1.74182 -2.43518 0
M  V30 7290 H 699.665 -0.838921 -1.17039 0
M  V30 7291 H 701.618 -0.0754444 -4.21332 0
M  V30 7292 H 700.342 0.645959 -3.20148 0
M  V30 7293 H 699.001 -1.48113 -3.35348 0
M  V30 7294 H 698.649 0.352293 -5.01765 0
M  V30 7295 H 698.349 -1.24734 -5.74208 0
M  V30 7296 H 699.873 -0.38384 -6.09392 0
M  V30 7297 H 701.287 -2.46214 -5.17737 0
M  V30 7298 H 699.684 -3.2429 -5.04932 0
M  V30 7299 H 700.754 -3.20793 -3.6362 0
M  V30 7300 N 702.098 1.27442 -0.927168 0
M  V30 7301 C 703.345 1.94391 -0.567324 0
M  V30 7302 C 703.673 1.72875 0.891321 0
M  V30 7303 O 702.928 1.05071 1.65102 0
M  V30 7304 C 703.227 3.47413 -0.838994 0
M  V30 7305 C 702.893 3.89049 -2.2793 0
M  V30 7306 C 701.555 4.00127 -2.67305 0
M  V30 7307 C 703.907 4.10154 -3.21595 0
M  V30 7308 C 701.235 4.29697 -3.99471 0
M  V30 7309 C 703.587 4.41208 -4.53341 0
M  V30 7310 C 702.251 4.50499 -4.92551 0
M  V30 7311 H 701.521 0.711325 -0.207598 0
M  V30 7312 H 704.168 1.51523 -1.17103 0
M  V30 7313 H 702.473 3.91503 -0.152609 0
M  V30 7314 H 704.17 3.97354 -0.53955 0
M  V30 7315 H 700.76 3.80962 -1.96381 0
M  V30 7316 H 704.944 4.01036 -2.92377 0
M  V30 7317 H 700.2 4.35099 -4.29533 0
M  V30 7318 H 704.374 4.56486 -5.25922 0
M  V30 7319 H 702.001 4.73167 -5.94994 0
M  V30 7320 N 703.576 0.692616 1.41565 0
M  V30 7321 C 704.524 0.0139952 2.32596 0
M  V30 7322 C 705.518 -0.771691 1.50802 0
M  V30 7323 O 706.724 -0.677646 1.66757 0
M  V30 7324 H 703.099 -0.0142745 0.751865 0
M  V30 7325 H 705.07 0.798851 2.87508 0
M  V30 7326 C 703.819 -0.910602 3.35564 0
M  V30 7327 H 703.142 -0.315446 3.98554 0
M  V30 7328 H 704.582 -1.3538 4.01806 0
M  V30 7329 C 703.041 -2.02539 2.6922 0
M  V30 7330 O 703.571 -3.11386 2.53775 0
M  V30 7331 N 701.777 -1.80227 2.27962 0
M  V30 7332 H 701.324 -0.917054 2.40724 0
M  V30 7333 H 701.282 -2.55001 1.83907 0
M  V30 7334 N 705.054 -1.51416 0.437162 0
M  V30 7335 C 706.47 -1.59349 0.0894459 0
M  V30 7336 C 706.67 -1.44809 -1.40116 0
M  V30 7337 O 705.726 -1.28924 -2.17106 0
M  V30 7338 C 707.039 -2.9446 0.609398 0
M  V30 7339 C 708.587 -3.07769 0.569824 0
M  V30 7340 C 709.062 -4.45404 1.06675 0
M  V30 7341 N 710.553 -4.51723 1.02473 0
M  V30 7342 C 711.288 -5.56544 1.3801 0
M  V30 7343 N 710.784 -6.68784 1.80831 0
M  V30 7344 N 712.577 -5.46901 1.29828 0
M  V30 7345 H 704.728 -1.59112 1.40703 0
M  V30 7346 H 706.991 -0.750031 0.579791 0
M  V30 7347 H 706.697 -3.1047 1.65231 0
M  V30 7348 H 706.571 -3.77184 0.0342236 0
M  V30 7349 H 708.958 -2.91428 -0.464107 0
M  V30 7350 H 709.039 -2.26885 1.1814 0
M  V30 7351 H 708.683 -4.62492 2.09914 0
M  V30 7352 H 708.613 -5.24827 0.431712 0
M  V30 7353 H 711.104 -3.71165 0.710258 0
M  V30 7354 H 711.417 -7.44787 2.06185 0
M  V30 7355 H 709.762 -6.69992 1.84757 0
M  V30 7356 H 712.953 -4.581 0.962397 0
M  V30 7357 H 713.126 -6.2848 1.57851 0
M  V30 7358 N 706.532 -0.168513 -1.56696 0
M  V30 7359 C 707.462 0.758563 -2.20835 0
M  V30 7360 C 708.443 1.24121 -1.1631 0
M  V30 7361 O 709.628 1.29487 -1.4473 0
M  V30 7362 C 706.758 1.9892 -2.8469 0
M  V30 7363 C 705.712 1.64252 -3.95228 0
M  V30 7364 C 705.038 2.94757 -4.46119 0
M  V30 7365 C 706.338 0.872675 -5.14958 0
M  V30 7366 H 708.032 0.223953 -2.98561 0
M  V30 7367 H 705.578 0.106277 -1.43607 0
M  V30 7368 H 707.531 2.64275 -3.28233 0
M  V30 7369 H 706.255 2.5479 -2.04327 0
M  V30 7370 H 704.914 1.01266 -3.52336 0
M  V30 7371 H 704.562 3.48662 -3.62552 0
M  V30 7372 H 704.262 2.72316 -5.2069 0
M  V30 7373 H 705.786 3.61147 -4.92347 0
M  V30 7374 H 707.2 1.42875 -5.55211 0
M  V30 7375 H 705.597 0.747402 -5.95428 0
M  V30 7376 H 706.667 -0.131535 -4.84722 0
M  V30 7377 N 708.01 1.57248 0.105221 0
M  V30 7378 C 709.256 1.85845 0.811753 0
M  V30 7379 C 709.589 0.756219 1.78871 0
M  V30 7380 O 708.864 -0.236736 1.93054 0
M  V30 7381 C 709.147 3.25059 1.54947 0
M  V30 7382 C 709 4.45898 0.591185 0
M  V30 7383 C 710.319 3.6203 2.50245 0
M  V30 7384 H 707.438 0.675973 0.293649 0
M  V30 7385 H 710.08 1.89849 0.0756269 0
M  V30 7386 H 708.23 3.21776 2.17698 0
M  V30 7387 H 709.902 4.61291 -0.0285352 0
M  V30 7388 H 708.145 4.33693 -0.0962343 0
M  V30 7389 H 708.816 5.40009 1.1443 0
M  V30 7390 H 711.292 3.66192 1.97593 0
M  V30 7391 H 710.168 4.60389 2.98886 0
M  V30 7392 H 710.429 2.90176 3.33542 0
M  V30 7393 N 709.488 -0.375779 1.53054 0
M  V30 7394 C 710.899 -0.95309 1.6054 0
M  V30 7395 C 711.25 -1.90575 0.466446 0
M  V30 7396 O 710.375 -2.12507 -0.408609 0
M  V30 7397 C 710.97 -1.73537 2.90982 0
M  V30 7398 C 709.529 -2.26218 3.00836 0
M  V30 7399 C 708.676 -1.07157 2.55759 0
M  V30 7400 H 711.627 -0.154895 1.57942 0
M  V30 7401 H 711.648 -2.59574 2.78211 0
M  V30 7402 H 711.16 -1.04176 3.73857 0
M  V30 7403 H 709.261 -2.98852 2.22527 0
M  V30 7404 H 709.374 -2.54799 4.05727 0
M  V30 7405 H 707.738 -1.43553 2.10391 0
M  V30 7406 H 708.521 -0.393099 3.41042 0
M  V30 7407 N 710.966 -1.44241 -0.634997 0
M  V30 7408 C 712.191 -1.50516 -1.42687 0
M  V30 7409 C 712.616 -0.129864 -1.87651 0
M  V30 7410 O 711.974 0.880164 -1.58502 0
M  V30 7411 C 712.022 -2.4714 -2.62591 0
M  V30 7412 O 711.126 -1.97025 -3.62291 0
M  V30 7413 H 710.467 -0.50841 -0.427101 0
M  V30 7414 H 712.997 -1.89337 -0.775408 0
M  V30 7415 H 713.007 -2.65048 -3.10183 0
M  V30 7416 H 711.682 -3.47039 -2.29209 0
M  V30 7417 H 710.259 -1.88866 -3.21534 0
M  V30 7418 N 712.444 0.87505 -1.31075 0
M  V30 7419 C 713.69 1.63009 -1.20647 0
M  V30 7420 C 714.023 1.9276 0.236045 0
M  V30 7421 O 713.298 1.55559 1.16754 0
M  V30 7422 C 713.581 2.96357 -2.0456 0
M  V30 7423 C 713.434 2.73516 -3.57084 0
M  V30 7424 C 714.753 3.974 -1.89107 0
M  V30 7425 H 711.872 0.591518 -0.439631 0
M  V30 7426 H 714.514 1.0119 -1.60812 0
M  V30 7427 H 712.664 3.49119 -1.70435 0
M  V30 7428 H 714.336 2.27465 -4.01319 0
M  V30 7429 H 712.579 2.0784 -3.80769 0
M  V30 7430 H 713.25 3.68377 -4.11099 0
M  V30 7431 H 715.726 3.5383 -2.18961 0
M  V30 7432 H 714.602 4.88596 -2.5013 0
M  V30 7433 H 714.863 4.33794 -0.85296 0
M  V30 7434 N 713.922 1.13953 1.08869 0
M  V30 7435 C 714.87 0.817664 2.17754 0
M  V30 7436 C 715.864 -0.202444 1.68186 0
M  V30 7437 O 717.07 -0.0590159 1.79903 0
M  V30 7438 H 713.445 0.246671 0.710392 0
M  V30 7439 H 715.416 1.74401 2.4213 0
M  V30 7440 C 714.165 0.3063 3.46348 0
M  V30 7441 H 713.488 1.08259 3.84864 0
M  V30 7442 H 714.928 0.119584 4.23831 0
M  V30 7443 C 713.387 -0.969158 3.22659 0
M  V30 7444 O 713.917 -2.04386 3.45817 0
M  V30 7445 N 712.123 -0.902516 2.7623 0
M  V30 7446 H 711.67 -0.027801 2.57585 0
M  V30 7447 H 711.628 -1.75649 2.60758 0
M  V30 7448 N 715.4 -1.26948 0.933913 0
M  V30 7449 C 716.648 -1.93704 0.576484 0
M  V30 7450 C 716.969 -1.73702 -0.886145 0
M  V30 7451 O 716.239 -1.08838 -1.62884 0
M  V30 7452 H 714.819 -0.716812 0.210214 0
M  V30 7453 H 717.481 -1.54534 1.18766 0
M  V30 7454 H 716.577 -3.01987 0.788055 0
M  V30 7455 N 716.879 -0.700114 -1.41195 0
M  V30 7456 C 718.125 -0.233351 -2.01453 0
M  V30 7457 C 718.458 1.16548 -1.55339 0
M  V30 7458 O 717.733 1.78756 -0.766575 0
M  V30 7459 C 718.016 -0.2961 -3.58881 0
M  V30 7460 C 717.869 -1.7322 -4.15108 0
M  V30 7461 C 719.188 0.341525 -4.38773 0
M  V30 7462 H 716.307 -0.0862667 -0.731934 0
M  V30 7463 H 718.949 -0.889693 -1.67882 0
M  V30 7464 H 717.099 0.262736 -3.87611 0
M  V30 7465 H 718.771 -2.34523 -3.97236 0
M  V30 7466 H 717.014 -2.2649 -3.69979 0
M  V30 7467 H 717.685 -1.7276 -5.24269 0
M  V30 7468 H 720.161 -0.134461 -4.15883 0
M  V30 7469 H 719.037 0.267098 -5.4825 0
M  V30 7470 H 719.298 1.42289 -4.18577 0
M  V30 7471 N 718.357 1.51182 -0.445186 0
M  V30 7472 C 719.773 1.59299 -0.0978954 0
M  V30 7473 C 719.973 1.4555 1.39346 0
M  V30 7474 O 719.029 1.30073 2.16419 0
M  V30 7475 C 720.342 2.94133 -0.625005 0
M  V30 7476 C 721.89 3.07463 -0.586137 0
M  V30 7477 C 722.365 4.44832 -1.09035 0
M  V30 7478 N 723.856 4.51173 -1.04867 0
M  V30 7479 C 724.591 5.55804 -1.40959 0
M  V30 7480 N 724.087 6.67816 -1.84375 0
M  V30 7481 N 725.88 5.46205 -1.32726 0
M  V30 7482 H 718.031 1.58363 -1.41544 0
M  V30 7483 H 720.294 0.746946 -0.58376 0
M  V30 7484 H 720 3.09589 -1.66876 0
M  V30 7485 H 719.874 3.77161 -0.0542262 0
M  V30 7486 H 722.261 2.9167 0.448646 0
M  V30 7487 H 722.342 2.26255 -1.19341 0
M  V30 7488 H 721.986 4.61372 -2.12364 0
M  V30 7489 H 721.916 5.24591 -0.459539 0
M  V30 7490 H 724.407 3.70783 -0.729932 0
M  V30 7491 H 724.72 7.43683 -2.10131 0
M  V30 7492 H 723.065 6.69003 -1.88308 0
M  V30 7493 H 726.256 4.57583 -0.986678 0
M  V30 7494 H 726.429 6.27634 -1.61182 0
M  V30 7495 N 719.835 0.176821 1.56605 0
M  V30 7496 C 721.251 -0.179278 1.5859 0
M  V30 7497 C 721.451 -1.62433 1.19238 0
M  V30 7498 O 720.507 -2.35665 0.906552 0
M  V30 7499 C 721.82 0.106524 3.00511 0
M  V30 7500 C 723.368 0.0451731 3.12967 0
M  V30 7501 C 723.843 0.304038 4.5699 0
M  V30 7502 N 725.334 0.252008 4.62514 0
M  V30 7503 C 726.069 0.426404 5.71812 0
M  V30 7504 N 725.565 0.660155 6.89648 0
M  V30 7505 N 727.358 0.361926 5.60934 0
M  V30 7506 H 719.509 1.12001 1.8047 0
M  V30 7507 H 721.772 0.445679 0.836704 0
M  V30 7508 H 721.478 1.10778 3.33798 0
M  V30 7509 H 721.352 -0.599337 3.72408 0
M  V30 7510 H 723.739 -0.946662 2.79504 0
M  V30 7511 H 723.82 0.78383 2.43495 0
M  V30 7512 H 723.464 1.29311 4.91163 0
M  V30 7513 H 723.394 -0.455294 5.24628 0
M  V30 7514 H 725.885 0.0772102 3.77821 0
M  V30 7515 H 726.198 0.782529 7.68828 0
M  V30 7516 H 724.543 0.696835 6.91498 0
M  V30 7517 H 727.734 0.17986 4.67754 0
M  V30 7518 H 727.907 0.501263 6.46058 0
M  V30 7519 N 721.313 -1.57302 -0.09688 0
M  V30 7520 C 722.56 -1.85997 -0.800699 0
M  V30 7521 C 722.888 -0.765089 -1.7882 0
M  V30 7522 O 722.143 0.241492 -1.94204 0
M  V30 7523 C 722.442 -3.21272 -1.56586 0
M  V30 7524 C 722.108 -4.45104 -0.72064 0
M  V30 7525 C 720.77 -4.78723 -0.487632 0
M  V30 7526 C 723.122 -5.2103 -0.132948 0
M  V30 7527 C 720.45 -5.85697 0.34296 0
M  V30 7528 C 722.802 -6.28881 0.684957 0
M  V30 7529 C 721.466 -6.61017 0.928073 0
M  V30 7530 H 720.736 -0.680613 -0.292997 0
M  V30 7531 H 723.383 -1.91399 -0.0622474 0
M  V30 7532 H 721.688 -3.11547 -2.37583 0
M  V30 7533 H 723.385 -3.40702 -2.11478 0
M  V30 7534 H 719.975 -4.18777 -0.912359 0
M  V30 7535 H 724.159 -4.95392 -0.300132 0
M  V30 7536 H 719.415 -6.09008 0.540317 0
M  V30 7537 H 723.589 -6.86886 1.14721 0
M  V30 7538 H 721.216 -7.43738 1.57348 0
M  V30 7539 N 722.791 0.367657 -1.53252 0
M  V30 7540 C 724.016 1.13566 -1.73544 0
M  V30 7541 C 724.441 1.82329 -0.462344 0
M  V30 7542 O 723.799 1.71655 0.583472 0
M  V30 7543 C 723.847 2.14322 -2.89997 0
M  V30 7544 O 722.951 3.21359 -2.58461 0
M  V30 7545 H 722.292 0.329614 -0.576412 0
M  V30 7546 H 724.822 0.425417 -2.00128 0
M  V30 7547 H 724.832 2.57958 -3.16104 0
M  V30 7548 H 723.507 1.63664 -3.82344 0
M  V30 7549 H 722.084 2.8271 -2.43165 0
M  V30 7550 N 724.269 1.44576 0.627338 0
M  V30 7551 C 725.546 1.38033 1.38586 0
M  V30 7552 C 725.926 0.0409468 2.1106 0
M  V30 7553 O 725.274 -0.976582 2.0658 0
M  V30 7554 C 725.484 2.58102 2.34913 0
M  V30 7555 C 726.832 3.02332 2.98129 0
M  V30 7556 O 727.856 2.58334 2.45238 0
M  V30 7557 O 726.715 3.78628 3.94085 0
M  V30 7558 H 723.809 0.546801 0.620434 0
M  V30 7559 H 726.355 1.56672 0.652077 0
M  V30 7560 H 725.127 3.4719 1.80485 0
M  V30 7561 H 724.75 2.41696 3.15703 0
M  V30 7562 N 725.747 -0.868086 1.31537 0
M  V30 7563 C 726.996 -1.61607 1.20689 0
M  V30 7564 C 727.309 -1.94204 -0.233275 0
M  V30 7565 O 728.515 -2.67515 -0.463465 0
M  V30 7566 C 726.971 -2.91348 2.11292 0
M  V30 7567 C 726.579 -2.66227 3.60315 0
M  V30 7568 C 728.323 -3.69344 2.09249 0
M  V30 7569 C 726.23 -3.91887 4.42921 0
M  V30 7570 H 725.16 -0.606373 0.448138 0
M  V30 7571 H 727.811 -0.959666 1.56405 0
M  V30 7572 H 726.193 -3.58374 1.68477 0
M  V30 7573 H 727.367 -2.07597 4.11388 0
M  V30 7574 H 725.682 -2.01582 3.64354 0
M  V30 7575 H 728.279 -4.62567 2.68209 0
M  V30 7576 H 728.622 -4.02044 1.0801 0
M  V30 7577 H 729.155 -3.09205 2.50274 0
M  V30 7578 H 725.894 -3.64336 5.44922 0
M  V30 7579 H 725.414 -4.49961 3.96605 0
M  V30 7580 H 727.093 -4.59754 4.55231 0
M  V30 7581 N 727.225 -1.14528 -1.08264 0
M  V30 7582 C 728.157 -0.791325 -2.15106 0
M  V30 7583 C 729.17 0.192449 -1.61659 0
M  V30 7584 O 730.359 -0.0294704 -1.78476 0
M  V30 7585 C 727.459 -0.154183 -3.38549 0
M  V30 7586 C 726.632 -1.17305 -4.21377 0
M  V30 7587 C 725.691 -0.559401 -5.23218 0
M  V30 7588 O 724.717 -1.22277 -5.55911 0
M  V30 7589 N 725.919 0.663159 -5.767 0
M  V30 7590 H 728.684 -1.71076 -2.46075 0
M  V30 7591 H 726.245 -1.0399 -1.24087 0
M  V30 7592 H 728.237 0.268884 -4.03806 0
M  V30 7593 H 726.807 0.668418 -3.0537 0
M  V30 7594 H 726.027 -1.773 -3.52077 0
M  V30 7595 H 727.315 -1.86128 -4.73533 0
M  V30 7596 H 726.713 1.22066 -5.52373 0
M  V30 7597 H 725.27 1.02871 -6.43631 0
M  V30 7598 N 728.703 1.26451 -0.940633 0
M  V30 7599 C 729.952 1.93071 -0.583656 0
M  V30 7600 C 730.265 1.74618 0.881366 0
M  V30 7601 O 731.471 2.35689 1.34769 0
M  V30 7602 C 729.927 3.45927 -0.993106 0
M  V30 7603 C 729.535 3.73115 -2.4797 0
M  V30 7604 C 731.279 4.18554 -0.707998 0
M  V30 7605 C 729.186 5.19408 -2.82788 0
M  V30 7606 H 728.116 0.722824 -0.214572 0
M  V30 7607 H 730.767 1.43538 -1.1432 0
M  V30 7608 H 729.149 3.94341 -0.362099 0
M  V30 7609 H 730.323 3.35408 -3.15971 0
M  V30 7610 H 728.638 3.13719 -2.73805 0
M  V30 7611 H 731.235 5.26293 -0.94447 0
M  V30 7612 H 731.578 4.14782 0.355225 0
M  V30 7613 H 732.111 3.76003 -1.2987 0
M  V30 7614 H 728.85 5.28281 -3.88071 0
M  V30 7615 H 728.37 5.58214 -2.19449 0
M  V30 7616 H 730.049 5.87407 -2.71224 0
M  V30 7617 N 730.181 0.707592 1.40822 0
M  V30 7618 C 731.597 0.38034 1.55002 0
M  V30 7619 C 731.797 -1.11163 1.68062 0
M  V30 7620 O 730.853 -1.89761 1.66574 0
M  V30 7621 C 732.166 1.1394 2.78277 0
M  V30 7622 C 733.714 1.12492 2.92087 0
M  V30 7623 C 734.189 1.86597 4.18265 0
M  V30 7624 N 735.68 1.83626 4.25248 0
M  V30 7625 C 736.415 2.37794 5.21768 0
M  V30 7626 N 735.911 3.00485 6.24244 0
M  V30 7627 N 737.704 2.27982 5.13791 0
M  V30 7628 H 729.855 1.67511 1.3059 0
M  V30 7629 H 732.118 0.707579 0.630901 0
M  V30 7630 H 731.824 2.19398 2.74877 0
M  V30 7631 H 731.698 0.725793 3.70151 0
M  V30 7632 H 734.085 0.0785564 2.94995 0
M  V30 7633 H 734.166 1.57768 2.01353 0
M  V30 7634 H 733.81 2.91219 4.16118 0
M  V30 7635 H 733.74 1.38746 5.07993 0
M  V30 7636 H 736.231 1.3793 3.51829 0
M  V30 7637 H 736.544 3.39355 6.94304 0
M  V30 7638 H 734.889 3.04567 6.24711 0
M  V30 7639 H 738.08 1.78669 4.3266 0
M  V30 7640 H 738.253 2.70499 5.88841 0
M  V30 7641 N 731.66 -1.50943 0.453197 0
M  V30 7642 C 733.076 -1.59245 0.106342 0
M  V30 7643 C 733.276 -1.46287 -1.38572 0
M  V30 7644 O 732.332 -1.31219 -2.15726 0
M  V30 7645 C 733.645 -2.93797 0.640595 0
M  V30 7646 C 735.193 -3.07148 0.602435 0
M  V30 7647 C 735.668 -4.44247 1.11393 0
M  V30 7648 N 737.159 -4.50611 1.07258 0
M  V30 7649 C 737.894 -5.55049 1.43905 0
M  V30 7650 N 737.39 -6.66828 1.87914 0
M  V30 7651 N 739.183 -5.45494 1.35621 0
M  V30 7652 H 731.334 -1.5761 1.42382 0
M  V30 7653 H 733.597 -0.74384 0.587713 0
M  V30 7654 H 733.303 -3.087 1.68515 0
M  V30 7655 H 733.177 -3.77127 0.0742272 0
M  V30 7656 H 735.564 -2.91903 -0.433171 0
M  V30 7657 H 735.645 -2.25619 1.20539 0
M  V30 7658 H 735.289 -4.60239 2.14808 0
M  V30 7659 H 735.219 -5.2434 0.487353 0
M  V30 7660 H 737.71 -3.70391 0.749585 0
M  V30 7661 H 738.023 -7.42558 2.14072 0
M  V30 7662 H 736.368 -6.67995 1.91853 0
M  V30 7663 H 739.559 -4.57053 1.01093 0
M  V30 7664 H 739.732 -6.2677 1.64508 0
M  V30 7665 N 733.138 -0.185124 -1.56509 0
M  V30 7666 C 734.068 0.735098 -2.21627 0
M  V30 7667 C 735.049 1.2288 -1.1762 0
M  V30 7668 O 736.234 1.27945 -1.46095 0
M  V30 7669 C 733.364 1.95889 -2.86783 0
M  V30 7670 C 732.318 1.6005 -3.96948 0
M  V30 7671 C 731.644 2.90009 -4.4922 0
M  V30 7672 C 732.944 0.818008 -5.15855 0
M  V30 7673 H 734.638 0.192274 -2.98782 0
M  V30 7674 H 732.184 0.0910393 -1.43712 0
M  V30 7675 H 734.137 2.60779 -3.31017 0
M  V30 7676 H 732.861 2.52608 -2.07018 0
M  V30 7677 H 731.52 0.975237 -3.5339 0
M  V30 7678 H 731.168 3.44797 -3.6623 0
M  V30 7679 H 730.868 2.66778 -5.23549 0
M  V30 7680 H 732.392 3.55904 -4.9615 0
M  V30 7681 H 733.806 1.36979 -5.56695 0
M  V30 7682 H 732.203 0.684207 -5.96187 0
M  V30 7683 H 733.273 -0.182939 -4.84555 0
M  V30 7684 N 734.616 1.57351 0.0885366 0
M  V30 7685 C 735.563 2.02523 1.10693 0
M  V30 7686 C 736.533 0.902736 1.39427 0
M  V30 7687 O 737.718 1.16921 1.50779 0
M  V30 7688 C 734.858 2.46013 2.42016 0
M  V30 7689 C 733.971 3.7181 2.19957 0
M  V30 7690 C 733.106 4.04152 3.44724 0
M  V30 7691 C 732.145 5.2304 3.17956 0
M  V30 7692 N 731.282 5.51102 4.35007 0
M  V30 7693 H 736.122 2.89302 0.714742 0
M  V30 7694 H 733.659 1.43084 0.341378 0
M  V30 7695 H 735.617 2.69274 3.18665 0
M  V30 7696 H 734.247 1.62235 2.79069 0
M  V30 7697 H 733.299 3.55987 1.34079 0
M  V30 7698 H 734.611 4.58604 1.96173 0
M  V30 7699 H 733.765 4.28225 4.29777 0
M  V30 7700 H 732.504 3.15893 3.71568 0
M  V30 7701 H 731.509 4.98781 2.31296 0
M  V30 7702 H 732.734 6.12902 2.92451 0
M  V30 7703 H 730.68 4.65802 4.61914 0
M  V30 7704 H 730.597 6.3228 4.14437 0
M  V30 7705 H 731.865 5.79714 5.21106 0
M  V30 7706 N 736.094 -0.359525 1.53444 0
M  V30 7707 C 737.51 -0.701599 1.43352 0
M  V30 7708 C 737.71 -1.93049 0.577439 0
M  V30 7709 O 736.766 -2.52423 0.0622224 0
M  V30 7710 C 738.079 -0.90915 2.86627 0
M  V30 7711 C 739.627 -1.00878 2.96298 0
M  V30 7712 C 740.102 -1.24876 4.40647 0
M  V30 7713 N 741.593 -1.31632 4.44103 0
M  V30 7714 C 742.328 -1.51922 5.52908 0
M  V30 7715 N 741.824 -1.69489 6.71748 0
M  V30 7716 N 743.617 -1.54341 5.40496 0
M  V30 7717 H 735.768 0.448685 2.07607 0
M  V30 7718 H 738.031 0.138713 0.937797 0
M  V30 7719 H 737.737 -0.0778997 3.51614 0
M  V30 7720 H 737.611 -1.81551 3.30634 0
M  V30 7721 H 739.998 -1.83057 2.31461 0
M  V30 7722 H 740.079 -0.0796721 2.55676 0
M  V30 7723 H 739.723 -0.431961 5.0606 0
M  V30 7724 H 739.653 -2.19118 4.78848 0
M  V30 7725 H 742.144 -1.19646 3.5846 0
M  V30 7726 H 742.457 -1.84561 7.50438 0
M  V30 7727 H 740.802 -1.66655 6.74723 0
M  V30 7728 H 743.993 -1.40188 4.46615 0
M  V30 7729 H 744.166 -1.69812 6.25354 0
M  V30 7730 N 737.572 -1.44907 -0.619662 0
M  V30 7731 C 738.502 -1.55488 -1.742 0
M  V30 7732 C 739.483 -0.407143 -1.65156 0
M  V30 7733 O 740.668 -0.628743 -1.8374 0
M  V30 7734 C 737.798 -1.5097 -3.1277 0
M  V30 7735 C 736.752 -2.64337 -3.36615 0
M  V30 7736 C 736.078 -2.44872 -4.75333 0
M  V30 7737 C 737.378 -4.06423 -3.28051 0
M  V30 7738 H 739.072 -2.49432 -1.65602 0
M  V30 7739 H 736.618 -1.20047 -0.795281 0
M  V30 7740 H 738.571 -1.56971 -3.91073 0
M  V30 7741 H 737.295 -0.535486 -3.2218 0
M  V30 7742 H 735.954 -2.57744 -2.60698 0
M  V30 7743 H 735.602 -1.45617 -4.81461 0
M  V30 7744 H 735.302 -3.20888 -4.92244 0
M  V30 7745 H 736.826 -2.52709 -5.55851 0
M  V30 7746 H 738.24 -4.14324 -3.96243 0
M  V30 7747 H 736.637 -4.82733 -3.56495 0
M  V30 7748 H 737.707 -4.29183 -2.25676 0
M  V30 7749 N 739.05 0.861098 -1.31996 0
M  V30 7750 C 740.298 1.61162 -1.21947 0
M  V30 7751 C 740.619 1.93751 0.220351 0
M  V30 7752 O 739.889 1.59069 1.14341 0
M  V30 7753 H 738.469 0.597485 -0.448353 0
M  V30 7754 H 741.131 1.03039 -1.65436 0
M  V30 7755 H 740.227 2.55138 -1.79752 0
M  V30 7756 N 740.528 1.15101 1.07655 0
M  V30 7757 C 741.777 0.918528 1.79572 0
M  V30 7758 C 742.09 -0.555922 1.87534 0
M  V30 7759 O 743.296 -0.905893 2.55941 0
M  V30 7760 C 741.752 1.59394 3.22679 0
M  V30 7761 C 741.36 3.1052 3.22927 0
M  V30 7762 C 743.104 1.44289 3.99225 0
M  V30 7763 C 741.011 3.70862 4.60668 0
M  V30 7764 H 739.941 0.340006 0.672987 0
M  V30 7765 H 742.592 1.38079 1.20857 0
M  V30 7766 H 740.974 1.05936 3.81567 0
M  V30 7767 H 742.148 3.70708 2.737 0
M  V30 7768 H 740.463 3.25351 2.59876 0
M  V30 7769 H 743.06 1.86766 5.01022 0
M  V30 7770 H 743.403 0.389975 4.14469 0
M  V30 7771 H 743.936 1.94826 3.46825 0
M  V30 7772 H 740.675 4.7604 4.50628 0
M  V30 7773 H 740.195 3.15456 5.10145 0
M  V30 7774 H 741.874 3.71607 5.29639 0
M  V30 7775 N 742.006 -1.2595 0.947325 0
M  V30 7776 C 742.916 -2.29883 0.468079 0
M  V30 7777 C 743.932 -1.67783 -0.460975 0
M  V30 7778 O 745.108 -1.98526 -0.339006 0
M  V30 7779 C 742.173 -3.45773 -0.253315 0
M  V30 7780 C 741.234 -4.23337 0.713054 0
M  V30 7781 C 740.467 -5.33694 0.025993 0
M  V30 7782 O 740.69 -5.57853 -1.18978 0
M  V30 7783 O 739.624 -5.97724 0.70782 0
M  V30 7784 H 743.45 -2.72952 1.33156 0
M  V30 7785 H 741.035 -1.31263 0.713468 0
M  V30 7786 H 742.917 -4.16209 -0.659423 0
M  V30 7787 H 741.592 -3.04721 -1.09209 0
M  V30 7788 H 740.499 -3.55359 1.16923 0
M  V30 7789 H 741.832 -4.68154 1.51963 0
M  V30 7790 N 743.484 -0.715051 -1.40445 0
M  V30 7791 C 744.431 -0.0621393 -2.30716 0
M  V30 7792 C 745.401 0.750871 -1.48159 0
M  V30 7793 O 746.586 0.714928 -1.76899 0
M  V30 7794 C 743.726 0.854036 -3.34365 0
M  V30 7795 C 742.839 0.0305565 -4.31989 0
M  V30 7796 C 741.974 0.946162 -5.22706 0
M  V30 7797 C 741.013 0.116741 -6.11989 0
M  V30 7798 N 740.15 0.987194 -6.95125 0
M  V30 7799 H 744.99 -0.83764 -2.85985 0
M  V30 7800 H 742.527 -0.424759 -1.40834 0
M  V30 7801 H 744.485 1.39946 -3.93028 0
M  V30 7802 H 743.115 1.59572 -2.806 0
M  V30 7803 H 742.167 -0.632044 -3.75112 0
M  V30 7804 H 743.479 -0.611615 -4.95036 0
M  V30 7805 H 742.633 1.56014 -5.86297 0
M  V30 7806 H 741.372 1.62216 -4.59932 0
M  V30 7807 H 740.377 -0.510176 -5.47428 0
M  V30 7808 H 741.602 -0.555742 -6.76822 0
M  V30 7809 H 739.548 1.64885 -6.3494 0
M  V30 7810 H 739.465 0.401046 -7.54936 0
M  V30 7811 H 740.733 1.58737 -7.63166 0
M  V30 7812 N 744.962 1.50701 -0.461195 0
M  V30 7813 C 746.19 2.06681 0.0951756 0
M  V30 7814 C 746.605 1.32615 1.34382 0
M  V30 7815 O 745.962 0.392531 1.78229 0
M  V30 7816 C 746.013 3.59354 0.393316 0
M  V30 7817 O 745.734 4.30626 -0.805797 0
M  V30 7818 C 747.235 4.31926 0.997744 0
M  V30 7819 H 744.455 0.670995 -0.00267259 0
M  V30 7820 H 746.999 1.93991 -0.647137 0
M  V30 7821 H 745.154 3.7188 1.08555 0
M  V30 7822 H 745.568 5.21667 -0.544409 0
M  V30 7823 H 747.042 5.39756 1.15619 0
M  V30 7824 H 747.519 3.91772 1.98523 0
M  V30 7825 H 748.125 4.23905 0.344188 0
M  V30 7826 N 746.441 0.193421 1.56409 0
M  V30 7827 C 747.718 -0.493318 1.89277 0
M  V30 7828 C 748.098 -1.79765 1.10669 0
M  V30 7829 O 747.446 -2.27558 0.207274 0
M  V30 7830 C 747.656 -0.713732 3.41624 0
M  V30 7831 C 749.004 -1.03385 4.11821 0
M  V30 7832 O 750.028 -0.801511 3.47065 0
M  V30 7833 O 748.887 -1.47327 5.26267 0
M  V30 7834 H 745.981 -0.256973 0.786062 0
M  V30 7835 H 748.527 0.23351 1.68086 0
M  V30 7836 H 747.299 0.207446 3.9075 0
M  V30 7837 H 746.922 -1.49308 3.68501 0
M  V30 7838 N 747.919 -1.57396 -0.0801906 0
M  V30 7839 C 749.33 -1.75642 -0.633002 0
M  V30 7840 C 749.681 -0.817708 -1.78348 0
M  V30 7841 O 748.806 0.000233743 -2.164 0
M  V30 7842 C 749.401 -3.18502 -1.15507 0
M  V30 7843 C 747.96 -3.38121 -1.65381 0
M  V30 7844 C 747.107 -2.71386 -0.569661 0
M  V30 7845 H 750.058 -1.58027 0.145949 0
M  V30 7846 H 750.079 -3.22198 -2.02408 0
M  V30 7847 H 749.591 -3.86799 -0.317515 0
M  V30 7848 H 747.692 -2.74926 -2.51488 0
M  V30 7849 H 747.805 -4.46521 -1.73654 0
M  V30 7850 H 746.169 -2.33702 -1.0127 0
M  V30 7851 H 746.952 -3.42332 0.257561 0
M  V30 7852 N 749.397 0.351382 -1.53633 0
M  V30 7853 C 750.625 1.11275 -1.74429 0
M  V30 7854 C 751.04 1.82602 -0.479798 0
M  V30 7855 O 750.397 1.74074 0.548125 0
M  V30 7856 C 750.448 2.13223 -2.91921 0
M  V30 7857 O 750.169 1.44798 -4.13479 0
M  V30 7858 C 751.67 3.01797 -3.24706 0
M  V30 7859 H 748.89 0.332153 -0.583023 0
M  V30 7860 H 751.434 0.405974 -2.0043 0
M  V30 7861 H 749.589 2.79477 -2.68274 0
M  V30 7862 H 750.003 2.12839 -4.79374 0
M  V30 7863 H 751.477 3.69282 -4.10286 0
M  V30 7864 H 751.954 3.67387 -2.40673 0
M  V30 7865 H 752.56 2.41141 -3.5033 0
M  V30 7866 N 750.875 1.45233 0.611969 0
M  V30 7867 C 752.103 1.52539 1.39784 0
M  V30 7868 C 752.518 0.156533 1.8815 0
M  V30 7869 O 751.875 -0.84112 1.61961 0
M  V30 7870 C 751.926 2.50614 2.60528 0
M  V30 7871 O 751.647 3.8218 2.14173 0
M  V30 7872 C 753.148 2.67574 3.53439 0
M  V30 7873 H 750.368 0.51674 0.428043 0
M  V30 7874 H 752.912 1.90379 0.746727 0
M  V30 7875 H 751.067 2.15858 3.2169 0
M  V30 7876 H 751.481 4.35305 2.92592 0
M  V30 7877 H 752.955 3.40184 4.34717 0
M  V30 7878 H 753.432 1.73458 4.03496 0
M  V30 7879 H 754.038 3.0331 2.98133 0
M  V30 7880 N 752.353 -0.854086 1.3245 0
M  V30 7881 C 753.283 -1.97827 1.24044 0
M  V30 7882 C 754.264 -1.69646 0.124166 0
M  V30 7883 O 755.449 -1.91687 0.31143 0
M  V30 7884 C 752.579 -3.33673 0.963324 0
M  V30 7885 C 751.533 -3.76207 2.04089 0
M  V30 7886 C 750.859 -5.0969 1.61618 0
M  V30 7887 C 752.159 -3.91612 3.45597 0
M  V30 7888 H 753.853 -2.05118 2.18099 0
M  V30 7889 H 751.399 -0.985489 1.04996 0
M  V30 7890 H 753.352 -4.11871 0.891061 0
M  V30 7891 H 752.076 -3.26597 -0.0128649 0
M  V30 7892 H 750.735 -3.0026 2.10332 0
M  V30 7893 H 750.383 -4.99072 0.627418 0
M  V30 7894 H 750.083 -5.3912 2.33717 0
M  V30 7895 H 751.607 -5.90381 1.55829 0
M  V30 7896 H 753.021 -4.60163 3.4194 0
M  V30 7897 H 751.418 -4.3246 4.16051 0
M  V30 7898 H 752.488 -2.9451 3.85217 0
M  V30 7899 N 753.831 -1.1567 -1.07043 0
M  V30 7900 C 755.059 -0.957471 -1.83412 0
M  V30 7901 C 755.474 0.494271 -1.82215 0
M  V30 7902 O 754.831 1.34288 -1.23584 0
M  V30 7903 C 754.882 -1.46784 -3.30359 0
M  V30 7904 O 754.603 -2.86271 -3.31633 0
M  V30 7905 C 756.104 -1.31054 -4.23485 0
M  V30 7906 H 753.324 -0.33986 -0.578564 0
M  V30 7907 H 755.868 -1.53518 -1.35102 0
M  V30 7908 H 754.023 -0.932586 -3.76007 0
M  V30 7909 H 754.437 -3.0948 -4.23465 0
M  V30 7910 H 755.911 -1.71605 -5.24648 0
M  V30 7911 H 756.388 -0.255107 -4.38458 0
M  V30 7912 H 756.994 -1.83503 -3.83676 0
M  V30 7913 N 755.309 1.25446 -0.953992 0
M  V30 7914 C 756.586 1.884 -0.525823 0
M  V30 7915 C 756.966 1.86079 0.996891 0
M  V30 7916 O 756.314 1.32389 1.8624 0
M  V30 7917 C 756.524 3.31154 -1.10172 0
M  V30 7918 C 757.872 4.07926 -1.17819 0
M  V30 7919 O 758.896 3.40273 -1.05323 0
M  V30 7920 O 757.755 5.28942 -1.37415 0
M  V30 7921 H 754.849 0.808629 -0.173345 0
M  V30 7922 H 757.395 1.33522 -1.04738 0
M  V30 7923 H 756.167 3.27271 -2.14499 0
M  V30 7924 H 755.79 3.93588 -0.56338 0
M  V30 7925 N 756.787 0.722489 1.40064 0
M  V30 7926 C 757.697 0.0755984 2.34478 0
M  V30 7927 C 758.713 -0.736046 1.57665 0
M  V30 7928 O 759.889 -0.667407 1.9002 0
M  V30 7929 C 756.954 -0.830075 3.36616 0
M  V30 7930 C 756.015 -0.00759884 4.29299 0
M  V30 7931 C 755.248 -0.870139 5.26559 0
M  V30 7932 O 755.471 -2.10921 5.2997 0
M  V30 7933 O 754.405 -0.305454 6.01124 0
M  V30 7934 H 758.231 0.854545 2.9143 0
M  V30 7935 H 755.816 0.483032 1.41376 0
M  V30 7936 H 757.698 -1.34864 3.99236 0
M  V30 7937 H 756.373 -1.58805 2.82069 0
M  V30 7938 H 755.28 0.556199 3.69942 0
M  V30 7939 H 756.613 0.712312 4.87018 0
M  V30 7940 N 758.265 -1.50454 0.469181 0
M  V30 7941 C 759.175 -2.32248 -0.331349 0
M  V30 7942 C 760.191 -1.42548 -0.997807 0
M  V30 7943 O 761.367 -1.75602 -0.9862 0
M  V30 7944 C 758.432 -3.17171 -1.40012 0
M  V30 7945 C 757.493 -4.2269 -0.750463 0
M  V30 7946 C 756.726 -5.03554 -1.76831 0
M  V30 7947 O 756.949 -4.85469 -2.99459 0
M  V30 7948 O 755.883 -5.86767 -1.3412 0
M  V30 7949 H 759.709 -3.01821 0.337279 0
M  V30 7950 H 757.294 -1.47602 0.231066 0
M  V30 7951 H 759.176 -3.69871 -2.01924 0
M  V30 7952 H 757.851 -2.50328 -2.05226 0
M  V30 7953 H 756.758 -3.73986 -0.0924446 0
M  V30 7954 H 758.091 -4.91997 -0.14131 0
M  V30 7955 N 759.743 -0.201713 -1.56304 0
M  V30 7956 C 760.992 0.435557 -1.96941 0
M  V30 7957 C 761.305 1.62299 -1.09172 0
M  V30 7958 O 762.511 2.32849 -1.3962 0
M  V30 7959 C 760.967 0.826298 -3.50286 0
M  V30 7960 C 760.575 -0.337216 -4.46729 0
M  V30 7961 C 762.319 1.43028 -3.99679 0
M  V30 7962 C 760.226 0.0748539 -5.91353 0
M  V30 7963 H 759.156 0.1665 -0.735387 0
M  V30 7964 H 761.807 -0.294781 -1.81117 0
M  V30 7965 H 760.189 1.61349 -3.61639 0
M  V30 7966 H 761.363 -1.11476 -4.47113 0
M  V30 7967 H 759.678 -0.853126 -4.07567 0
M  V30 7968 H 762.275 1.75115 -5.05212 0
M  V30 7969 H 762.618 2.33911 -3.44371 0
M  V30 7970 H 763.151 0.706924 -3.91468 0
M  V30 7971 H 759.89 -0.799957 -6.506 0
M  V30 7972 H 759.41 0.817122 -5.94208 0
M  V30 7973 H 761.089 0.508389 -6.45 0
M  V30 7974 N 761.222 1.57436 0.0718424 0
M  V30 7975 C 762.17 2.04725 1.10411 0
M  V30 7976 C 763.164 0.952579 1.4008 0
M  V30 7977 O 764.37 1.13769 1.39487 0
M  V30 7978 H 760.745 0.652749 0.373393 0
M  V30 7979 H 762.716 2.90569 0.679126 0
M  V30 7980 C 761.465 2.5068 2.40946 0
M  V30 7981 H 760.788 3.34505 2.18967 0
M  V30 7982 H 762.228 2.87521 3.11621 0
M  V30 7983 C 760.687 1.38971 3.06902 0
M  V30 7984 O 761.217 0.731786 3.94978 0
M  V30 7985 N 759.423 1.13485 2.67525 0
M  V30 7986 H 758.97 1.67168 1.95991 0
M  V30 7987 H 758.928 0.389467 3.11978 0
M  V30 7988 N 762.7 -0.34323 1.53817 0
M  V30 7989 C 764.116 -0.686355 1.44088 0
M  V30 7990 C 764.316 -1.92426 0.597882 0
M  V30 7991 O 763.372 -2.52343 0.0889918 0
M  V30 7992 C 764.685 -0.878698 2.87575 0
M  V30 7993 C 766.233 -0.977296 2.97352 0
M  V30 7994 C 766.708 -1.20195 4.41947 0
M  V30 7995 N 768.199 -1.26915 4.45474 0
M  V30 7996 C 768.934 -1.46049 5.54488 0
M  V30 7997 N 768.43 -1.62354 6.73508 0
M  V30 7998 N 770.223 -1.48599 5.42102 0
M  V30 7999 H 762.374 0.470679 2.07119 0
M  V30 8000 H 764.637 0.148652 0.936273 0
M  V30 8001 H 764.343 -0.040602 3.51677 0
M  V30 8002 H 764.217 -1.78034 3.32541 0
M  V30 8003 H 766.604 -1.80591 2.3339 0
M  V30 8004 H 766.685 -0.0525498 2.55746 0
M  V30 8005 H 766.329 -0.378262 5.06489 0
M  V30 8006 H 766.259 -2.14027 4.81145 0
M  V30 8007 H 768.75 -1.15837 3.59708 0
M  V30 8008 H 769.063 -1.76591 7.52353 0
M  V30 8009 H 767.408 -1.5949 6.76453 0
M  V30 8010 H 770.599 -1.35443 4.48077 0
M  V30 8011 H 770.772 -1.6317 6.2712 0
M  V30 8012 N 764.178 -1.45556 -0.604258 0
M  V30 8013 C 765.425 -1.49746 -1.36317 0
M  V30 8014 C 765.753 -0.140516 -1.93992 0
M  V30 8015 O 765.008 0.861244 -1.7573 0
M  V30 8016 C 765.307 -2.52697 -2.52743 0
M  V30 8017 C 764.973 -3.97315 -2.13195 0
M  V30 8018 C 763.635 -4.36692 -2.02123 0
M  V30 8019 C 765.987 -4.88249 -1.8238 0
M  V30 8020 C 763.315 -5.64895 -1.58463 0
M  V30 8021 C 765.667 -6.16867 -1.40205 0
M  V30 8022 C 764.331 -6.55172 -1.27694 0
M  V30 8023 H 763.601 -0.54796 -0.49882 0
M  V30 8024 H 766.248 -1.7892 -0.682643 0
M  V30 8025 H 764.553 -2.17105 -3.26148 0
M  V30 8026 H 766.25 -2.53176 -3.10971 0
M  V30 8027 H 762.84 -3.66176 -2.22739 0
M  V30 8028 H 767.024 -4.58561 -1.89829 0
M  V30 8029 H 762.28 -5.93365 -1.47402 0
M  V30 8030 H 766.454 -6.86771 -1.15408 0
M  V30 8031 H 764.081 -7.54411 -0.936375 0
M  V30 8032 N 765.656 0.84705 -1.32902 0
M  V30 8033 C 766.619 1.9378 -1.224 0
M  V30 8034 C 767.619 1.60144 -0.145108 0
M  V30 8035 O 768.809 1.69638 -0.396058 0
M  V30 8036 C 765.941 3.29234 -0.884174 0
M  V30 8037 H 767.134 2.04518 -2.19345 0
M  V30 8038 H 764.687 1.03816 -1.16842 0
M  V30 8039 H 765.422 3.24193 0.0831277 0
M  V30 8040 H 765.207 3.55026 -1.6643 0
M  V30 8041 H 766.697 4.09162 -0.835226 0
M  V30 8042 N 767.134 1.16236 1.06428 0
M  V30 8043 C 768.55 0.906983 1.31324 0
M  V30 8044 C 768.75 -0.440872 1.96618 0
M  V30 8045 O 767.806 -1.1807 2.23194 0
M  V30 8046 C 769.119 2.05501 2.19522 0
M  V30 8047 C 770.667 2.09061 2.32943 0
M  V30 8048 C 771.142 3.23214 3.24495 0
M  V30 8049 N 772.633 3.22922 3.32078 0
M  V30 8050 C 773.368 4.07889 4.03006 0
M  V30 8051 N 772.864 5.02941 4.76469 0
M  V30 8052 N 774.657 3.95881 3.99043 0
M  V30 8053 H 766.808 2.03015 0.624388 0
M  V30 8054 H 769.071 0.88576 0.337835 0
M  V30 8055 H 768.777 3.02847 1.78819 0
M  V30 8056 H 768.651 1.99538 3.201 0
M  V30 8057 H 771.038 1.12308 2.72893 0
M  V30 8058 H 771.119 2.19089 1.32037 0
M  V30 8059 H 770.763 4.20225 2.85261 0
M  V30 8060 H 770.693 3.10423 4.25377 0
M  V30 8061 H 773.184 2.54093 2.79724 0
M  V30 8062 H 773.497 5.64196 5.28112 0
M  V30 8063 H 771.842 5.06922 4.75453 0
M  V30 8064 H 775.033 3.20927 3.40769 0
M  V30 8065 H 775.206 4.62321 4.54052 0
M  V30 8066 N 768.612 -1.24939 0.960631 0
M  V30 8067 C 769.542 -2.28 0.503815 0
M  V30 8068 C 770.523 -1.63959 -0.452928 0
M  V30 8069 O 771.708 -1.91009 -0.350585 0
M  V30 8070 C 768.838 -3.46643 -0.213535 0
M  V30 8071 C 767.792 -4.22903 0.658535 0
M  V30 8072 C 767.118 -5.34363 -0.189902 0
M  V30 8073 C 768.418 -4.84949 1.93963 0
M  V30 8074 H 770.112 -2.66462 1.36521 0
M  V30 8075 H 767.658 -1.28093 0.657897 0
M  V30 8076 H 769.611 -4.1787 -0.544286 0
M  V30 8077 H 768.335 -3.07187 -1.10923 0
M  V30 8078 H 766.994 -3.53467 0.972455 0
M  V30 8079 H 766.642 -4.91147 -1.08553 0
M  V30 8080 H 766.342 -5.86302 0.390331 0
M  V30 8081 H 767.866 -6.0842 -0.515484 0
M  V30 8082 H 769.28 -5.48288 1.67491 0
M  V30 8083 H 767.677 -5.47091 2.46601 0
M  V30 8084 H 768.747 -4.06799 2.639 0
M  V30 8085 N 770.09 -0.729906 -1.39679 0
M  V30 8086 C 771.367 -0.202149 -1.94553 0
M  V30 8087 C 771.747 1.29507 -1.66707 0
M  V30 8088 O 771.095 2.05819 -0.992517 0
M  V30 8089 C 771.305 -0.530279 -3.44948 0
M  V30 8090 C 772.653 -0.476808 -4.21914 0
M  V30 8091 O 773.677 -0.467171 -3.53123 0
M  V30 8092 O 772.536 -0.466869 -5.44502 0
M  V30 8093 H 769.63 -0.0351644 -0.826252 0
M  V30 8094 H 772.176 -0.808417 -1.49207 0
M  V30 8095 H 770.948 -1.56526 -3.5863 0
M  V30 8096 H 770.571 0.10522 -3.97461 0
M  V30 8097 N 771.568 1.50203 -0.477153 0
M  V30 8098 C 772.817 2.01551 0.0774548 0
M  V30 8099 C 773.13 1.36359 1.40234 0
M  V30 8100 O 774.336 1.78898 2.04225 0
M  V30 8101 C 772.792 3.59406 0.188539 0
M  V30 8102 C 772.4 4.3356 -1.12828 0
M  V30 8103 C 774.144 4.18776 0.694782 0
M  V30 8104 C 772.051 5.83213 -0.98066 0
M  V30 8105 H 770.981 0.75329 0.0327212 0
M  V30 8106 H 773.632 1.72959 -0.612969 0
M  V30 8107 H 772.014 3.84611 0.942881 0
M  V30 8108 H 773.188 4.20074 -1.89405 0
M  V30 8109 H 771.503 3.85827 -1.5661 0
M  V30 8110 H 774.1 5.28338 0.822356 0
M  V30 8111 H 774.443 3.80557 1.68766 0
M  V30 8112 H 774.976 3.978 -0.00234519 0
M  V30 8113 H 771.715 6.25914 -1.94709 0
M  V30 8114 H 771.235 5.99256 -0.255375 0
M  V30 8115 H 772.914 6.4373 -0.649717 0
M  V30 8116 N 773.046 0.209999 1.56195 0
M  V30 8117 C 774.323 -0.473214 1.89789 0
M  V30 8118 C 774.703 -1.78581 1.1257 0
M  V30 8119 O 774.051 -2.27325 0.231398 0
M  V30 8120 C 774.261 -0.677458 3.42362 0
M  V30 8121 C 775.609 -0.990114 4.12895 0
M  V30 8122 O 776.633 -0.764655 3.47896 0
M  V30 8123 O 775.492 -1.41737 5.278 0
M  V30 8124 H 772.586 -0.248622 0.788743 0
M  V30 8125 H 775.132 0.251324 1.67829 0
M  V30 8126 H 773.904 0.248878 3.90508 0
M  V30 8127 H 773.527 -1.45391 3.70064 0
M  V30 8128 N 774.524 -1.57472 -0.0634922 0
M  V30 8129 C 775.935 -1.76303 -0.614337 0
M  V30 8130 C 776.286 -0.836578 -1.77471 0
M  V30 8131 O 775.411 -0.0227184 -2.16388 0
M  V30 8132 C 776.006 -3.19709 -1.12122 0
M  V30 8133 C 774.565 -3.39856 -1.61786 0
M  V30 8134 C 773.712 -2.71975 -0.540845 0
M  V30 8135 H 776.663 -1.57864 0.162702 0
M  V30 8136 H 776.684 -3.24326 -1.98979 0
M  V30 8137 H 776.196 -3.87114 -0.276472 0
M  V30 8138 H 774.297 -2.77578 -2.48558 0
M  V30 8139 H 774.41 -4.48338 -1.68908 0
M  V30 8140 H 772.774 -2.34763 -0.987854 0
M  V30 8141 H 773.557 -3.4204 0.293856 0
M  V30 8142 N 776.003 0.335068 -1.53997 0
M  V30 8143 C 776.913 1.43511 -1.85585 0
M  V30 8144 C 777.929 1.57162 -0.746726 0
M  V30 8145 O 779.105 1.72477 -1.03988 0
M  V30 8146 C 776.17 2.78386 -2.06646 0
M  V30 8147 C 775.231 2.74007 -3.30483 0
M  V30 8148 C 774.464 4.02449 -3.50529 0
M  V30 8149 O 774.687 5.00147 -2.74242 0
M  V30 8150 O 773.621 4.06405 -4.4398 0
M  V30 8151 H 777.447 1.19731 -2.79102 0
M  V30 8152 H 775.032 0.528033 -1.39758 0
M  V30 8153 H 776.914 3.58247 -2.21894 0
M  V30 8154 H 775.589 3.0208 -1.16317 0
M  V30 8155 H 774.496 1.92736 -3.2063 0
M  V30 8156 H 775.829 2.55267 -4.20832 0
M  V30 8157 N 777.481 1.45874 0.596531 0
M  V30 8158 C 778.709 1.54013 1.38158 0
M  V30 8159 C 779.124 0.17648 1.87973 0
M  V30 8160 O 778.481 -0.823895 1.62844 0
M  V30 8161 C 778.532 2.53363 2.57855 0
M  V30 8162 O 778.253 3.8443 2.10108 0
M  V30 8163 C 779.754 2.71308 3.50581 0
M  V30 8164 H 776.974 0.521251 0.422538 0
M  V30 8165 H 779.518 1.9116 0.726493 0
M  V30 8166 H 777.673 2.19257 3.19382 0
M  V30 8167 H 778.087 4.38384 2.87958 0
M  V30 8168 H 779.561 3.44776 4.31084 0
M  V30 8169 H 780.038 1.77728 4.01633 0
M  V30 8170 H 780.644 3.06455 2.94899 0
M  V30 8171 N 778.959 -0.83999 1.33349 0
M  V30 8172 C 780.208 -1.59011 1.2409 0
M  V30 8173 C 780.521 -1.94655 -0.192029 0
M  V30 8174 O 781.727 -2.68438 -0.406617 0
M  V30 8175 C 780.183 -2.86801 2.17425 0
M  V30 8176 C 779.791 -2.58525 3.65881 0
M  V30 8177 C 781.535 -3.64823 2.17036 0
M  V30 8178 C 779.442 -3.82404 4.51133 0
M  V30 8179 H 778.372 -0.596731 0.460899 0
M  V30 8180 H 781.023 -0.926274 1.58406 0
M  V30 8181 H 779.405 -3.54719 1.7604 0
M  V30 8182 H 780.579 -1.98824 4.15699 0
M  V30 8183 H 778.894 -1.93808 3.68548 0
M  V30 8184 H 781.491 -4.56774 2.7796 0
M  V30 8185 H 781.834 -3.99663 1.16513 0
M  V30 8186 H 782.367 -3.03826 2.56777 0
M  V30 8187 H 779.106 -3.52696 5.52527 0
M  V30 8188 H 778.626 -4.41447 4.0606 0
M  V30 8189 H 780.305 -4.49995 4.6488 0
M  V30 8190 N 780.437 -1.16799 -1.0581 0
M  V30 8191 C 781.665 -0.97687 -1.82387 0
M  V30 8192 C 782.08 0.474917 -1.82729 0
M  V30 8193 O 781.437 1.3297 -1.25001 0
M  V30 8194 C 781.488 -1.50279 -3.28783 0
M  V30 8195 O 781.209 -2.89772 -3.28578 0
M  V30 8196 C 782.71 -1.35538 -4.22071 0
M  V30 8197 H 779.93 -0.345977 -0.574927 0
M  V30 8198 H 782.474 -1.54942 -1.33466 0
M  V30 8199 H 780.629 -0.972414 -3.74997 0
M  V30 8200 H 781.043 -3.13954 -4.20159 0
M  V30 8201 H 782.517 -1.7716 -5.22799 0
M  V30 8202 H 782.994 -0.301598 -4.38163 0
M  V30 8203 H 783.6 -1.87562 -3.81708 0
M  V30 8204 N 781.915 1.24427 -0.967243 0
M  V30 8205 C 783.161 1.93089 -0.639404 0
M  V30 8206 C 783.516 1.7422 0.816407 0
M  V30 8207 O 782.809 1.08435 1.57964 0
M  V30 8208 C 783.003 3.44568 -0.949096 0
M  V30 8209 C 782.832 3.7817 -2.43346 0
M  V30 8210 C 781.602 3.99561 -3.09321 0
M  V30 8211 C 783.8 3.84687 -3.41351 0
M  V30 8212 N 781.782 4.20259 -4.475 0
M  V30 8213 C 783.153 4.10223 -4.64884 0
M  V30 8214 C 785.208 3.67421 -3.36015 0
M  V30 8215 C 783.911 4.20286 -5.8374 0
M  V30 8216 C 785.937 3.78731 -4.54221 0
M  V30 8217 C 785.299 4.04691 -5.76545 0
M  V30 8218 H 781.398 0.728291 -0.284809 0
M  V30 8219 H 783.982 1.49941 -1.24201 0
M  V30 8220 H 782.153 3.86582 -0.375308 0
M  V30 8221 H 783.885 4.00524 -0.579876 0
M  V30 8222 H 780.64 3.95946 -2.59853 0
M  V30 8223 H 781.064 4.34588 -5.19097 0
M  V30 8224 H 785.706 3.46358 -2.42479 0
M  V30 8225 H 783.424 4.40162 -6.77704 0
M  V30 8226 H 787.01 3.66743 -4.51653 0
M  V30 8227 H 785.89 4.1324 -6.66485 0
M  V30 8228 N 783.393 0.737304 1.3929 0
M  V30 8229 C 784.325 0.0592106 2.29124 0
M  V30 8230 C 785.338 -0.701026 1.46934 0
M  V30 8231 O 786.527 -0.544808 1.69983 0
M  V30 8232 C 783.627 -0.940358 3.25592 0
M  V30 8233 C 782.8 -0.241163 4.36735 0
M  V30 8234 C 781.859 -1.14916 5.13498 0
M  V30 8235 O 780.885 -0.625783 5.6575 0
M  V30 8236 N 782.087 -2.47869 5.2492 0
M  V30 8237 H 784.852 0.830647 2.87959 0
M  V30 8238 H 782.413 0.586718 1.50895 0
M  V30 8239 H 784.405 -1.55046 3.73822 0
M  V30 8240 H 782.975 -1.61299 2.67771 0
M  V30 8241 H 782.195 0.549441 3.90352 0
M  V30 8242 H 783.483 0.243299 5.08218 0
M  V30 8243 H 782.881 -2.92864 4.83991 0
M  V30 8244 H 781.438 -3.03969 5.76581 0
M  V30 8245 N 784.871 -1.49948 0.485112 0
M  V30 8246 C 786.287 -1.58984 0.140096 0
M  V30 8247 C 786.487 -1.49194 -1.35438 0
M  V30 8248 O 785.543 -1.35765 -2.12894 0
M  V30 8249 C 786.856 -2.92372 0.702769 0
M  V30 8250 C 788.404 -3.05801 0.66745 0
M  V30 8251 C 788.879 -4.41785 1.20791 0
M  V30 8252 N 790.37 -4.48234 1.16792 0
M  V30 8253 C 791.105 -5.51871 1.55646 0
M  V30 8254 N 790.601 -6.62692 2.02016 0
M  V30 8255 N 792.394 -5.42494 1.47161 0
M  V30 8256 H 784.545 -1.54555 1.45693 0
M  V30 8257 H 786.808 -0.731206 0.603359 0
M  V30 8258 H 786.514 -3.05056 1.75025 0
M  V30 8259 H 786.388 -3.76885 0.154205 0
M  V30 8260 H 788.775 -2.92757 -0.371157 0
M  V30 8261 H 788.856 -2.23011 1.25298 0
M  V30 8262 H 788.5 -4.55579 2.24522 0
M  V30 8263 H 788.43 -5.23188 0.598464 0
M  V30 8264 H 790.921 -3.68718 0.827982 0
M  V30 8265 H 791.234 -7.3785 2.29775 0
M  V30 8266 H 789.579 -6.63775 2.05979 0
M  V30 8267 H 792.77 -4.54806 1.10765 0
M  V30 8268 H 792.943 -6.2314 1.77766 0
M  V30 8269 N 786.349 -0.21828 -1.56081 0
M  V30 8270 C 787.595 0.414921 -1.9851 0
M  V30 8271 C 787.928 1.59648 -1.10573 0
M  V30 8272 O 787.203 1.93818 -0.162695 0
M  V30 8273 C 787.486 0.852647 -3.4986 0
M  V30 8274 C 787.339 -0.33232 -4.48571 0
M  V30 8275 C 788.658 1.70998 -4.05521 0
M  V30 8276 H 785.777 0.149344 -0.72171 0
M  V30 8277 H 788.419 -0.313858 -1.8739 0
M  V30 8278 H 786.569 1.47362 -3.59467 0
M  V30 8279 H 788.241 -0.970418 -4.50977 0
M  V30 8280 H 786.484 -0.980302 -4.22578 0
M  V30 8281 H 787.155 0.0168407 -5.51997 0
M  V30 8282 H 789.631 1.18606 -3.98838 0
M  V30 8283 H 788.507 1.98517 -5.11744 0
M  V30 8284 H 788.768 2.67219 -3.52202 0
M  V30 8285 N 787.827 1.57504 0.0551401 0
M  V30 8286 C 788.757 2.07864 1.06372 0
M  V30 8287 C 789.738 0.975565 1.39344 0
M  V30 8288 O 790.923 1.24929 1.48682 0
M  V30 8289 C 788.053 2.53643 2.3724 0
M  V30 8290 C 787.007 3.67978 2.18578 0
M  V30 8291 C 786.333 3.9987 3.54976 0
M  V30 8292 C 787.633 4.97405 1.59329 0
M  V30 8293 H 789.327 2.92379 0.644595 0
M  V30 8294 H 786.873 1.40654 0.308619 0
M  V30 8295 H 788.826 2.8749 3.08103 0
M  V30 8296 H 787.55 1.66177 2.81163 0
M  V30 8297 H 786.209 3.3444 1.50152 0
M  V30 8298 H 785.857 3.0951 3.965 0
M  V30 8299 H 785.557 4.76867 3.43324 0
M  V30 8300 H 787.081 4.36228 4.27244 0
M  V30 8301 H 788.495 5.29375 2.20078 0
M  V30 8302 H 786.892 5.78837 1.58327 0
M  V30 8303 H 787.962 4.81697 0.55638 0
M  V30 8304 N 789.305 -0.326896 1.54172 0
M  V30 8305 C 790.582 -1.08326 1.62864 0
M  V30 8306 C 790.962 -2.06018 0.46039 0
M  V30 8307 O 790.31 -2.21889 -0.545685 0
M  V30 8308 C 790.52 -1.78816 2.9971 0
M  V30 8309 C 791.868 -2.31958 3.55641 0
M  V30 8310 O 792.892 -1.88888 3.01993 0
M  V30 8311 O 791.751 -3.10801 4.49517 0
M  V30 8312 H 788.845 -0.499131 0.659392 0
M  V30 8313 H 791.391 -0.327054 1.66519 0
M  V30 8314 H 790.163 -1.07739 3.76176 0
M  V30 8315 H 789.786 -2.61255 2.99719 0
M  V30 8316 N 790.784 -1.46188 -0.588786 0
M  V30 8317 C 792.012 -1.54743 -1.37339 0
M  V30 8318 C 792.427 -0.186446 -1.87877 0
M  V30 8319 O 791.784 0.815247 -1.63279 0
M  V30 8320 C 791.835 -2.54727 -2.56508 0
M  V30 8321 O 791.556 -3.85539 -2.08066 0
M  V30 8322 C 793.057 -2.73163 -3.49137 0
M  V30 8323 H 790.277 -0.523484 -0.419768 0
M  V30 8324 H 792.821 -1.91543 -0.716345 0
M  V30 8325 H 790.976 -2.20948 -3.18215 0
M  V30 8326 H 791.39 -4.39905 -2.85629 0
M  V30 8327 H 792.864 -3.47057 -4.2925 0
M  V30 8328 H 793.341 -1.79856 -4.00685 0
M  V30 8329 H 793.947 -3.08014 -2.9327 0
M  V30 8330 N 792.262 0.832906 -1.33792 0
M  V30 8331 C 793.21 1.96455 -1.24532 0
M  V30 8332 C 794.204 1.68774 -0.145455 0
M  V30 8333 O 795.41 1.77314 -0.309797 0
M  V30 8334 H 791.785 0.645008 -0.386611 0
M  V30 8335 H 793.756 2.01389 -2.20193 0
M  V30 8336 C 792.505 3.32784 -1.00748 0
M  V30 8337 H 791.828 3.54626 -1.84609 0
M  V30 8338 H 793.268 4.12447 -0.98301 0
M  V30 8339 C 791.727 3.35654 0.289475 0
M  V30 8340 O 792.257 3.80281 1.29419 0
M  V30 8341 N 790.463 2.88843 0.3191 0
M  V30 8342 H 790.01 2.52719 -0.499069 0
M  V30 8343 H 789.968 2.91145 1.18667 0
M  V30 8344 N 793.74 1.17359 1.05189 0
M  V30 8345 C 795.017 0.871914 1.75091 0
M  V30 8346 C 795.397 -0.627821 2.01548 0
M  V30 8347 O 794.745 -1.5791 1.65156 0
M  V30 8348 C 794.955 1.70687 3.04413 0
M  V30 8349 C 796.303 1.92684 3.78362 0
M  V30 8350 O 797.327 1.67645 3.14282 0
M  V30 8351 O 796.186 2.34765 4.93505 0
M  V30 8352 H 793.28 0.322831 0.761386 0
M  V30 8353 H 795.826 1.28054 1.11357 0
M  V30 8354 H 794.598 2.72405 2.80911 0
M  V30 8355 H 794.221 1.29602 3.75884 0
M  V30 8356 N 795.218 -1.23913 0.973828 0
M  V30 8357 C 796.634 -1.44325 0.681363 0
M  V30 8358 C 796.834 -1.86832 -0.754728 0
M  V30 8359 O 795.89 -2.01024 -1.52793 0
M  V30 8360 C 797.203 -2.50017 1.67069 0
M  V30 8361 C 798.751 -2.63838 1.68399 0
M  V30 8362 C 799.226 -3.72734 2.66145 0
M  V30 8363 N 800.717 -3.80169 2.64624 0
M  V30 8364 C 801.452 -4.6397 3.36927 0
M  V30 8365 N 800.948 -5.51911 4.18767 0
M  V30 8366 N 802.741 -4.58106 3.25722 0
M  V30 8367 H 794.892 -0.946204 1.9016 0
M  V30 8368 H 797.155 -0.477374 0.819035 0
M  V30 8369 H 796.861 -2.25686 2.69738 0
M  V30 8370 H 796.735 -3.48287 1.4483 0
M  V30 8371 H 799.122 -2.87524 0.664379 0
M  V30 8372 H 799.203 -1.65906 1.94702 0
M  V30 8373 H 798.847 -3.49797 3.68245 0
M  V30 8374 H 798.777 -4.70193 2.3712 0
M  V30 8375 H 801.268 -3.17319 2.05224 0
M  V30 8376 H 801.581 -6.12828 4.70809 0
M  V30 8377 H 799.926 -5.51556 4.2286 0
M  V30 8378 H 803.117 -3.8842 2.61242 0
M  V30 8379 H 803.29 -5.23188 3.82333 0
M  V30 8380 N 796.696 -0.74468 -1.38897 0
M  V30 8381 C 797.943 -0.296884 -2.00312 0
M  V30 8382 C 798.271 1.11878 -1.59102 0
M  V30 8383 O 797.526 1.7789 -0.815702 0
M  V30 8384 C 797.825 -0.357302 -3.55609 0
M  V30 8385 C 797.491 -1.72736 -4.16501 0
M  V30 8386 C 796.153 -2.10232 -4.32846 0
M  V30 8387 C 798.505 -2.62647 -4.50184 0
M  V30 8388 C 795.833 -3.3713 -4.80167 0
M  V30 8389 C 798.185 -3.88926 -4.98918 0
M  V30 8390 C 796.849 -4.26503 -5.1347 0
M  V30 8391 H 796.119 -0.108638 -0.732993 0
M  V30 8392 H 798.766 -0.953419 -1.66079 0
M  V30 8393 H 797.071 0.382805 -3.89925 0
M  V30 8394 H 798.768 0.0074596 -4.00999 0
M  V30 8395 H 795.358 -1.42585 -4.04187 0
M  V30 8396 H 799.542 -2.34945 -4.37166 0
M  V30 8397 H 794.798 -3.66174 -4.89619 0
M  V30 8398 H 798.972 -4.58745 -5.23952 0
M  V30 8399 H 796.599 -5.24896 -5.49898 0
M  V30 8400 N 798.174 1.49689 -0.493057 0
M  V30 8401 C 799.104 2.31826 0.279073 0
M  V30 8402 C 800.085 1.39733 0.969987 0
M  V30 8403 O 801.27 1.68646 0.962925 0
M  V30 8404 C 798.4 3.20046 1.34862 0
M  V30 8405 C 797.354 4.20869 0.77805 0
M  V30 8406 C 796.68 4.97971 1.94753 0
M  V30 8407 C 797.98 5.21813 -0.225543 0
M  V30 8408 H 799.674 2.96627 -0.406512 0
M  V30 8409 H 797.22 1.42647 -0.196943 0
M  V30 8410 H 799.173 3.76315 1.89645 0
M  V30 8411 H 797.897 2.53172 2.06328 0
M  V30 8412 H 796.556 3.65733 0.252036 0
M  V30 8413 H 796.204 4.27552 2.64969 0
M  V30 8414 H 795.904 5.66186 1.57187 0
M  V30 8415 H 797.428 5.57082 2.49984 0
M  V30 8416 H 798.842 5.72823 0.233864 0
M  V30 8417 H 797.239 5.97872 -0.516622 0
M  V30 8418 H 798.309 4.71209 -1.14412 0
M  V30 8419 N 799.652 0.226554 1.55963 0
M  V30 8420 C 801.068 -0.128733 1.5908 0
M  V30 8421 C 801.268 -1.58558 1.24345 0
M  V30 8422 O 800.324 -2.32661 0.981069 0
M  V30 8423 C 801.637 0.202076 3.0002 0
M  V30 8424 C 803.185 0.144718 3.12665 0
M  V30 8425 C 803.66 0.449272 4.55791 0
M  V30 8426 N 805.151 0.399026 4.61478 0
M  V30 8427 C 805.886 0.608106 5.70166 0
M  V30 8428 N 805.382 0.879227 6.87198 0
M  V30 8429 N 807.175 0.5402 5.59498 0
M  V30 8430 H 799.326 1.17686 1.76816 0
M  V30 8431 H 801.589 0.472072 0.822102 0
M  V30 8432 H 801.295 1.21341 3.30105 0
M  V30 8433 H 801.169 -0.480554 3.74126 0
M  V30 8434 H 803.556 -0.857261 2.82374 0
M  V30 8435 H 803.637 0.860899 2.40878 0
M  V30 8436 H 803.281 1.44871 4.86801 0
M  V30 8437 H 803.211 -0.288157 5.25811 0
M  V30 8438 H 805.702 0.197372 3.77384 0
M  V30 8439 H 806.015 1.02673 7.65949 0
M  V30 8440 H 804.36 0.916477 6.88931 0
M  V30 8441 H 807.551 0.328581 4.66945 0
M  V30 8442 H 807.724 0.706548 6.44137 0
M  V30 8443 N 801.13 -1.57531 -0.0467866 0
M  V30 8444 C 802.077 -2.05387 -1.05285 0
M  V30 8445 C 803.047 -0.939385 -1.36985 0
M  V30 8446 O 804.232 -1.20877 -1.47626 0
M  V30 8447 C 801.372 -2.52343 -2.35408 0
M  V30 8448 C 800.485 -3.77512 -2.10022 0
M  V30 8449 C 799.62 -4.1315 -3.33887 0
M  V30 8450 C 798.659 -5.31286 -3.03976 0
M  V30 8451 N 797.796 -5.62441 -4.20243 0
M  V30 8452 H 802.636 -2.91095 -0.637788 0
M  V30 8453 H 800.173 -1.43939 -0.303322 0
M  V30 8454 H 802.131 -2.77628 -3.11413 0
M  V30 8455 H 800.761 -1.69577 -2.7467 0
M  V30 8456 H 799.813 -3.59417 -1.24594 0
M  V30 8457 H 801.125 -4.63644 -1.83945 0
M  V30 8458 H 800.279 -4.39469 -4.18273 0
M  V30 8459 H 799.018 -3.25634 -3.63062 0
M  V30 8460 H 798.023 -5.04738 -2.17991 0
M  V30 8461 H 799.248 -6.20441 -2.76098 0
M  V30 8462 H 797.194 -4.77885 -4.49402 0
M  V30 8463 H 797.111 -6.43046 -3.97528 0
M  V30 8464 H 798.379 -5.93327 -5.05553 0
M  V30 8465 N 802.608 0.318715 -1.54344 0
M  V30 8466 C 803.857 1.05363 -1.71993 0
M  V30 8467 C 804.17 1.89018 -0.503155 0
M  V30 8468 O 805.376 2.65639 -0.561085 0
M  V30 8469 C 803.832 1.92281 -3.0423 0
M  V30 8470 C 803.44 1.13715 -4.33328 0
M  V30 8471 C 805.184 2.65479 -3.31242 0
M  V30 8472 C 803.091 1.99806 -5.56625 0
M  V30 8473 H 802.021 0.397081 -0.64097 0
M  V30 8474 H 804.672 0.311598 -1.80835 0
M  V30 8475 H 803.054 2.70402 -2.89307 0
M  V30 8476 H 804.228 0.403305 -4.59032 0
M  V30 8477 H 802.543 0.521769 -4.13118 0
M  V30 8478 H 805.14 3.30209 -4.20555 0
M  V30 8479 H 805.483 3.33374 -2.49334 0
M  V30 8480 H 806.016 1.94417 -3.47054 0
M  V30 8481 H 802.755 1.36411 -6.41149 0
M  V30 8482 H 802.275 2.70911 -5.35133 0
M  V30 8483 H 803.954 2.58277 -5.93213 0
M  V30 8484 N 804.086 1.46499 0.581025 0
M  V30 8485 C 805.314 1.5547 1.36517 0
M  V30 8486 C 805.729 0.196407 1.87776 0
M  V30 8487 O 805.086 -0.806577 1.63709 0
M  V30 8488 C 805.137 2.56084 2.55154 0
M  V30 8489 O 804.858 3.86637 2.06018 0
M  V30 8490 C 806.359 2.75011 3.47683 0
M  V30 8491 H 803.579 0.525703 0.416986 0
M  V30 8492 H 806.123 1.9192 0.706177 0
M  V30 8493 H 804.278 2.22633 3.17039 0
M  V30 8494 H 804.692 4.41413 2.83292 0
M  V30 8495 H 806.166 3.49329 4.27403 0
M  V30 8496 H 806.643 1.81978 3.99726 0
M  V30 8497 H 807.249 3.09565 2.91632 0
M  V30 8498 N 805.565 -0.825799 1.34232 0
M  V30 8499 C 806.814 -1.57686 1.2577 0
M  V30 8500 C 807.127 -1.94848 -0.171372 0
M  V30 8501 O 808.333 -2.68854 -0.378123 0
M  V30 8502 C 806.789 -2.84478 2.20454 0
M  V30 8503 C 806.397 -2.54629 3.68603 0
M  V30 8504 C 808.141 -3.625 2.20893 0
M  V30 8505 C 806.048 -3.77597 4.55164 0
M  V30 8506 H 804.978 -0.591809 0.467203 0
M  V30 8507 H 807.629 -0.909421 1.59379 0
M  V30 8508 H 806.011 -3.52832 1.79793 0
M  V30 8509 H 807.185 -1.94404 4.17784 0
M  V30 8510 H 805.5 -1.89888 3.70582 0
M  V30 8511 H 808.097 -4.538 2.82789 0
M  V30 8512 H 808.44 -3.98404 1.20746 0
M  V30 8513 H 808.973 -3.01086 2.59985 0
M  V30 8514 H 805.712 -3.46815 5.56237 0
M  V30 8515 H 805.232 -4.37116 4.10719 0
M  V30 8516 H 806.911 -4.45039 4.69627 0
M  V30 8517 N 807.043 -1.17915 -1.04565 0
M  V30 8518 C 808.291 -0.969505 -1.77327 0
M  V30 8519 C 808.612 0.502569 -1.88412 0
M  V30 8520 O 807.882 1.36467 -1.40547 0
M  V30 8521 H 806.462 -0.355723 -0.656864 0
M  V30 8522 H 809.124 -1.48506 -1.26223 0
M  V30 8523 H 808.22 -1.40324 -2.78775 0
M  V30 8524 N 808.521 1.23394 -0.980386 0
M  V30 8525 C 809.453 2.24146 -0.478657 0
M  V30 8526 C 810.466 1.57303 0.419492 0
M  V30 8527 O 811.655 1.77094 0.223631 0
M  V30 8528 C 808.755 3.3732 0.326913 0
M  V30 8529 C 807.928 4.33744 -0.56436 0
M  V30 8530 C 806.987 5.25866 0.187358 0
M  V30 8531 O 806.013 5.67626 -0.423019 0
M  V30 8532 N 807.215 5.61492 1.47335 0
M  V30 8533 H 809.98 2.67826 -1.34496 0
M  V30 8534 H 807.541 1.37566 -0.853653 0
M  V30 8535 H 809.533 3.95926 0.838148 0
M  V30 8536 H 808.103 2.92823 1.09422 0
M  V30 8537 H 807.323 3.73641 -1.25642 0
M  V30 8538 H 808.611 4.95123 -1.17177 0
M  V30 8539 H 808.009 5.29514 1.99077 0
M  V30 8540 H 806.566 6.2257 1.93002 0
M  V30 8541 N 809.999 0.752036 1.385 0
M  V30 8542 C 810.962 0.131587 2.28822 0
M  V30 8543 C 811.962 -0.649149 1.47115 0
M  V30 8544 O 813.152 -0.475645 1.67581 0
M  V30 8545 C 810.284 -0.822101 3.30839 0
M  V30 8546 H 811.477 0.927551 2.85196 0
M  V30 8547 H 809.03 0.518945 1.47434 0
M  V30 8548 H 809.765 -1.6438 2.79553 0
M  V30 8549 H 809.55 -0.264689 3.91206 0
M  V30 8550 H 811.04 -1.25226 3.98382 0
M  V30 8551 N 811.477 -1.49425 0.500989 0
M  V30 8552 C 812.888 -1.86624 0.0532011 0
M  V30 8553 C 813.239 -1.41331 -1.36088 0
M  V30 8554 O 812.364 -0.791195 -2.01418 0
M  V30 8555 C 812.959 -3.38681 0.0897693 0
M  V30 8556 C 811.518 -3.75181 -0.302677 0
M  V30 8557 C 810.665 -2.73419 0.462307 0
M  V30 8558 H 813.616 -1.41743 0.713773 0
M  V30 8559 H 813.637 -3.73902 -0.705528 0
M  V30 8560 H 813.149 -3.71616 1.11907 0
M  V30 8561 H 811.25 -3.47855 -1.33521 0
M  V30 8562 H 811.363 -4.79097 0.0167653 0
M  V30 8563 H 809.727 -2.54548 -0.0878557 0
M  V30 8564 H 810.51 -3.09198 1.49169 0
M  V30 8565 N 812.955 -0.234822 -1.55841 0
M  V30 8566 C 814.183 0.397745 -2.03041 0
M  V30 8567 C 814.598 1.52405 -1.11437 0
M  V30 8568 O 813.955 1.82061 -0.126466 0
M  V30 8569 C 814.006 0.916919 -3.49678 0
M  V30 8570 O 813.727 -0.164493 -4.37791 0
M  V30 8571 C 815.228 1.62139 -4.12584 0
M  V30 8572 H 812.448 0.0959214 -0.664108 0
M  V30 8573 H 814.992 -0.355156 -2.01392 0
M  V30 8574 H 813.147 1.62004 -3.519 0
M  V30 8575 H 813.561 0.227794 -5.24005 0
M  V30 8576 H 815.035 1.93651 -5.16917 0
M  V30 8577 H 815.512 2.53918 -3.58361 0
M  V30 8578 H 816.118 0.963145 -4.14251 0
M  V30 8579 N 814.433 1.57553 0.0384317 0
M  V30 8580 C 815.343 2.09333 1.0591 0
M  V30 8581 C 816.359 1.0299 1.40247 0
M  V30 8582 O 817.535 1.34669 1.49754 0
M  V30 8583 C 814.6 2.55468 2.34386 0
M  V30 8584 C 813.661 3.76254 2.06716 0
M  V30 8585 C 812.894 4.20179 3.29067 0
M  V30 8586 O 813.117 3.637 4.39407 0
M  V30 8587 O 812.051 5.12697 3.15317 0
M  V30 8588 H 815.877 2.96683 0.649087 0
M  V30 8589 H 813.462 1.47211 0.254802 0
M  V30 8590 H 815.344 2.85514 3.09935 0
M  V30 8591 H 814.019 1.71234 2.74701 0
M  V30 8592 H 812.926 3.51241 1.28766 0
M  V30 8593 H 814.259 4.61443 1.71263 0
M  V30 8594 N 815.911 -0.310526 1.54511 0
M  V30 8595 C 816.858 -1.38264 1.84802 0
M  V30 8596 C 817.828 -1.50808 0.696141 0
M  V30 8597 O 819.013 -1.6582 0.943846 0
M  V30 8598 C 816.153 -2.74422 2.09252 0
M  V30 8599 C 815.266 -2.70405 3.36906 0
M  V30 8600 C 814.401 -3.98495 3.51248 0
M  V30 8601 C 813.44 -3.88836 4.72729 0
M  V30 8602 N 812.577 -5.08683 4.83928 0
M  V30 8603 H 817.417 -1.11732 2.76261 0
M  V30 8604 H 814.954 -0.540609 1.36806 0
M  V30 8605 H 816.912 -3.53593 2.21422 0
M  V30 8606 H 815.542 -2.99235 1.2107 0
M  V30 8607 H 814.594 -1.83151 3.33406 0
M  V30 8608 H 815.906 -2.59155 4.26193 0
M  V30 8609 H 815.06 -4.861 3.63031 0
M  V30 8610 H 813.799 -4.12567 2.60077 0
M  V30 8611 H 812.804 -2.99615 4.60989 0
M  V30 8612 H 814.029 -3.76318 5.65298 0
M  V30 8613 H 811.975 -5.23236 3.95677 0
M  V30 8614 H 811.892 -4.99819 5.67201 0
M  V30 8615 H 813.16 -5.97966 5.00057 0
M  V30 8616 N 817.389 -1.46805 -0.573248 0
M  V30 8617 C 818.637 -1.52302 -1.32847 0
M  V30 8618 C 818.958 -0.180159 -1.94166 0
M  V30 8619 O 818.228 0.794291 -1.79075 0
M  V30 8620 H 816.808 -0.56097 -0.493276 0
M  V30 8621 H 819.47 -1.82998 -0.670642 0
M  V30 8622 H 818.566 -2.28089 -2.13031 0
M  V30 8623 N 818.867 0.818669 -1.34668 0
M  V30 8624 C 819.817 1.91882 -1.23147 0
M  V30 8625 C 820.801 1.60378 -0.129509 0
M  V30 8626 O 821.993 1.73309 -0.359581 0
M  V30 8627 C 819.122 3.28612 -0.993436 0
M  V30 8628 C 818.208 3.66221 -2.13876 0
M  V30 8629 N 818.599 3.75361 -3.39024 0
M  V30 8630 C 816.897 3.96098 -2.04994 0
M  V30 8631 C 817.598 4.0836 -4.14266 0
M  V30 8632 N 816.574 4.21806 -3.429 0
M  V30 8633 H 820.376 1.97133 -2.17981 0
M  V30 8634 H 817.89 1.01257 -1.26967 0
M  V30 8635 H 819.887 4.0725 -0.891797 0
M  V30 8636 H 818.547 3.24655 -0.053824 0
M  V30 8637 H 819.558 3.58747 -3.73525 0
M  V30 8638 H 816.235 4.00236 -1.18816 0
M  V30 8639 H 817.625 4.226 -5.22359 0
M  V30 8640 N 820.346 1.18468 1.03938 0
M  V30 8641 C 821.574 1.00576 1.80809 0
M  V30 8642 C 821.989 -0.445786 1.83462 0
M  V30 8643 O 821.346 -1.30964 1.27101 0
M  V30 8644 C 821.397 1.55491 3.26351 0
M  V30 8645 O 821.118 2.94963 3.23926 0
M  V30 8646 C 822.619 1.42236 4.19862 0
M  V30 8647 H 819.839 0.35508 0.56935 0
M  V30 8648 H 822.383 1.57046 1.30984 0
M  V30 8649 H 820.538 1.03195 3.73403 0
M  V30 8650 H 820.952 3.20598 4.15111 0
M  V30 8651 H 822.426 1.85455 5.19914 0
M  V30 8652 H 822.903 0.371267 4.37628 0
M  V30 8653 H 823.509 1.9361 3.78675 0
M  V30 8654 N 821.824 -1.22873 0.986916 0
M  V30 8655 C 823.24 -1.43594 0.696633 0
M  V30 8656 C 823.44 -1.87622 -0.734869 0
M  V30 8657 O 822.496 -2.02633 -1.50652 0
M  V30 8658 C 823.809 -2.48231 1.69711 0
M  V30 8659 C 825.357 -2.62037 1.71188 0
M  V30 8660 C 825.832 -3.6989 2.70084 0
M  V30 8661 N 827.323 -3.77341 2.68641 0
M  V30 8662 C 828.058 -4.6037 3.41829 0
M  V30 8663 N 827.554 -5.47438 4.24598 0
M  V30 8664 N 829.347 -4.54626 3.30563 0
M  V30 8665 H 821.498 -0.925982 1.91153 0
M  V30 8666 H 823.761 -0.46866 0.824052 0
M  V30 8667 H 823.467 -2.22812 2.72117 0
M  V30 8668 H 823.341 -3.46731 1.48516 0
M  V30 8669 H 825.728 -2.86803 0.694837 0
M  V30 8670 H 825.809 -1.63831 1.96451 0
M  V30 8671 H 825.453 -3.45872 3.71934 0
M  V30 8672 H 825.383 -4.67652 2.42093 0
M  V30 8673 H 827.874 -3.15124 2.08578 0
M  V30 8674 H 828.187 -6.078 4.77283 0
M  V30 8675 H 826.532 -5.4704 4.28687 0
M  V30 8676 H 829.723 -3.85627 2.65347 0
M  V30 8677 H 829.896 -5.19103 3.8786 0
M  V30 8678 N 823.302 -0.75937 -1.38099 0
M  V30 8679 C 824.53 -0.329111 -2.04266 0
M  V30 8680 C 824.945 1.04453 -1.57274 0
M  V30 8681 O 824.302 1.66449 -0.748397 0
M  V30 8682 C 824.353 -0.349192 -3.5981 0
M  V30 8683 O 824.074 -1.66863 -4.05078 0
M  V30 8684 C 825.575 0.0942106 -4.432 0
M  V30 8685 H 822.795 -0.13971 -0.656294 0
M  V30 8686 H 825.339 -1.02984 -1.76677 0
M  V30 8687 H 823.494 0.302846 -3.86214 0
M  V30 8688 H 823.908 -1.59877 -4.9954 0
M  V30 8689 H 825.382 0.0290004 -5.51992 0
M  V30 8690 H 825.859 1.1429 -4.24069 0
M  V30 8691 H 826.465 -0.529171 -4.21995 0
M  V30 8692 N 824.78 1.49157 -0.508906 0
M  V30 8693 C 825.743 2.27784 0.25434 0
M  V30 8694 C 826.743 1.34132 0.88686 0
M  V30 8695 O 827.933 1.5722 0.750168 0
M  V30 8696 C 825.065 3.12347 1.36573 0
M  V30 8697 H 826.258 2.96718 -0.435714 0
M  V30 8698 H 823.811 1.54052 -0.264128 0
M  V30 8699 H 824.546 2.47997 2.08969 0
M  V30 8700 H 824.331 3.81213 0.917543 0
M  V30 8701 H 825.821 3.71712 1.90315 0
M  V30 8702 N 826.258 0.243083 1.55714 0
M  V30 8703 C 827.19 -0.690766 2.18543 0
M  V30 8704 C 828.203 -1.14163 1.16064 0
M  V30 8705 O 829.392 -1.06906 1.42946 0
M  V30 8706 C 826.492 -1.95016 2.77168 0
M  V30 8707 C 825.665 -1.65137 4.05029 0
M  V30 8708 C 824.724 -2.75998 4.48009 0
M  V30 8709 O 823.75 -2.43547 5.14464 0
M  V30 8710 N 824.952 -4.05414 4.15476 0
M  V30 8711 H 827.717 -0.153203 2.99308 0
M  V30 8712 H 825.278 0.0628968 1.61778 0
M  V30 8713 H 827.27 -2.68414 3.0288 0
M  V30 8714 H 825.84 -2.39762 2.00582 0
M  V30 8715 H 825.06 -0.752768 3.86946 0
M  V30 8716 H 826.348 -1.42633 4.88399 0
M  V30 8717 H 825.746 -4.34613 3.62116 0
M  V30 8718 H 824.303 -4.75288 4.46032 0
M  V30 8719 N 827.736 -1.57571 -0.0300757 0
M  V30 8720 C 828.983 -1.89226 -0.721091 0
M  V30 8721 C 829.311 -0.840244 -1.75414 0
M  V30 8722 O 828.566 0.158906 -1.95054 0
M  V30 8723 C 828.865 -3.27624 -1.42818 0
M  V30 8724 C 828.531 -4.4776 -0.531208 0
M  V30 8725 C 827.193 -4.8036 -0.28415 0
M  V30 8726 C 829.545 -5.21125 0.0881582 0
M  V30 8727 C 826.873 -5.83715 0.591065 0
M  V30 8728 C 829.225 -6.2541 0.95107 0
M  V30 8729 C 827.889 -6.56486 1.2076 0
M  V30 8730 H 827.159 -0.692428 -0.263866 0
M  V30 8731 H 829.806 -1.91491 0.0189874 0
M  V30 8732 H 828.111 -3.21343 -2.24155 0
M  V30 8733 H 829.808 -3.49365 -1.96838 0
M  V30 8734 H 826.398 -4.2227 -0.73392 0
M  V30 8735 H 830.582 -4.96219 -0.0897496 0
M  V30 8736 H 825.838 -6.06168 0.798132 0
M  V30 8737 H 830.012 -6.81402 1.43751 0
M  V30 8738 H 827.639 -7.36395 1.88751 0
M  V30 8739 N 829.214 0.302327 -1.54673 0
M  V30 8740 C 830.491 1.05721 -1.64567 0
M  V30 8741 C 830.871 2.0526 -0.493108 0
M  V30 8742 O 830.219 2.22729 0.510315 0
M  V30 8743 C 830.429 1.74025 -3.02517 0
M  V30 8744 C 831.777 2.26271 -3.59286 0
M  V30 8745 O 832.801 1.8406 -3.0496 0
M  V30 8746 O 831.66 3.0361 -4.54404 0
M  V30 8747 H 828.754 0.488577 -0.667249 0
M  V30 8748 H 831.3 0.300521 -1.67018 0
M  V30 8749 H 830.072 1.0174 -3.77842 0
M  V30 8750 H 829.695 2.56454 -3.03838 0
M  V30 8751 N 830.692 1.47107 0.565454 0
M  V30 8752 C 831.941 1.5257 1.31929 0
M  V30 8753 C 832.254 0.189092 1.94684 0
M  V30 8754 O 833.46 0.121657 2.71227 0
M  V30 8755 C 831.916 2.68914 2.39193 0
M  V30 8756 C 831.524 4.09069 1.82665 0
M  V30 8757 C 833.268 2.83663 3.1581 0
M  V30 8758 C 831.175 5.16726 2.87661 0
M  V30 8759 H 830.105 0.567869 0.496025 0
M  V30 8760 H 832.756 1.73361 0.60151 0
M  V30 8761 H 831.138 2.41486 3.13848 0
M  V30 8762 H 832.312 4.46364 1.14438 0
M  V30 8763 H 830.627 3.99135 1.1866 0
M  V30 8764 H 833.224 3.61261 3.94201 0
M  V30 8765 H 833.567 1.91804 3.69482 0
M  V30 8766 H 834.1 3.10821 2.48265 0
M  V30 8767 H 830.839 6.10433 2.38854 0
M  V30 8768 H 830.359 4.83957 3.54324 0
M  V30 8769 H 832.038 5.43319 3.51303 0
M  V30 8770 N 832.17 -0.811516 1.35101 0
M  V30 8771 C 833.395 -1.60499 1.31358 0
M  V30 8772 C 833.82 -1.87793 -0.107383 0
M  V30 8773 O 833.178 -1.46161 -1.07268 0
M  V30 8774 C 833.226 -2.91612 2.12119 0
M  V30 8775 O 832.33 -3.84211 1.49853 0
M  V30 8776 H 831.671 -0.487702 0.450603 0
M  V30 8777 H 834.201 -1.00758 1.7807 0
M  V30 8778 H 834.211 -3.4108 2.23894 0
M  V30 8779 H 832.886 -2.71071 3.15426 0
M  V30 8780 H 831.463 -3.42751 1.46889 0
M  V30 8781 N 833.648 -1.19017 -1.03309 0
M  V30 8782 C 834.894 -0.991681 -1.769 0
M  V30 8783 C 835.227 0.476813 -1.88255 0
M  V30 8784 O 834.502 1.35407 -1.39625 0
M  V30 8785 C 834.785 -1.65627 -3.19749 0
M  V30 8786 C 834.638 -3.19813 -3.1629 0
M  V30 8787 C 835.957 -1.37579 -4.18043 0
M  V30 8788 H 833.076 -0.361674 -0.642153 0
M  V30 8789 H 835.718 -1.46795 -1.20628 0
M  V30 8790 H 833.868 -1.25132 -3.67796 0
M  V30 8791 H 835.54 -3.69494 -2.76174 0
M  V30 8792 H 833.783 -3.51578 -2.54117 0
M  V30 8793 H 834.454 -3.61457 -4.17196 0
M  V30 8794 H 836.93 -1.72679 -3.78578 0
M  V30 8795 H 835.806 -1.86636 -5.16196 0
M  V30 8796 H 836.067 -0.300118 -4.4108 0
M  V30 8797 N 835.127 1.22348 -0.993418 0
M  V30 8798 C 836.09 2.22522 -0.549251 0
M  V30 8799 C 837.09 1.56529 0.368164 0
M  V30 8800 O 838.28 1.73463 0.16005 0
M  V30 8801 C 835.412 3.40307 0.201037 0
M  V30 8802 H 836.605 2.63332 -1.43515 0
M  V30 8803 H 834.158 1.35407 -0.78068 0
M  V30 8804 H 834.893 3.0497 1.10289 0
M  V30 8805 H 834.678 3.8942 -0.457685 0
M  V30 8806 H 836.168 4.14597 0.499946 0
M  V30 8807 N 836.605 0.766683 1.37694 0
M  V30 8808 C 837.83 0.338715 2.04615 0
M  V30 8809 C 838.255 -1.02918 1.57447 0
M  V30 8810 O 837.613 -1.65849 0.732386 0
M  V30 8811 C 837.661 0.385284 3.58536 0
M  V30 8812 O 836.765 -0.616081 4.07772 0
M  V30 8813 H 836.106 0.147527 0.647404 0
M  V30 8814 H 838.636 1.04146 1.7611 0
M  V30 8815 H 838.646 0.240782 4.07289 0
M  V30 8816 H 837.321 1.38325 3.92223 0
M  V30 8817 H 835.898 -0.435115 3.70353 0
M  V30 8818 N 838.083 -1.48885 0.516809 0
M  V30 8819 C 838.993 -2.33185 -0.257293 0
M  V30 8820 C 840.009 -1.4565 -0.951952 0
M  V30 8821 O 841.185 -1.78651 -0.929834 0
M  V30 8822 C 838.25 -3.21465 -1.29851 0
M  V30 8823 C 837.311 -4.24863 -0.615608 0
M  V30 8824 C 836.544 -5.08925 -1.60722 0
M  V30 8825 O 836.767 -4.9475 -2.83863 0
M  V30 8826 O 835.701 -5.90737 -1.15384 0
M  V30 8827 H 839.527 -3.00596 0.433131 0
M  V30 8828 H 837.112 -1.46792 0.277908 0
M  V30 8829 H 838.994 -3.76108 -1.90055 0
M  V30 8830 H 837.669 -2.5673 -1.97158 0
M  V30 8831 H 836.576 -3.74091 0.0265829 0
M  V30 8832 H 837.909 -4.92198 0.0152871 0
M  V30 8833 N 839.561 -0.251338 -1.55583 0
M  V30 8834 C 840.81 0.372681 -1.98227 0
M  V30 8835 C 841.123 1.58743 -1.1428 0
M  V30 8836 O 842.329 2.28289 -1.46957 0
M  V30 8837 C 840.785 0.714439 -3.52738 0
M  V30 8838 C 840.393 -0.479168 -4.4543 0
M  V30 8839 C 842.137 1.3024 -4.04027 0
M  V30 8840 C 840.044 -0.113318 -5.91291 0
M  V30 8841 H 838.974 0.14302 -0.740312 0
M  V30 8842 H 841.625 -0.352253 -1.80087 0
M  V30 8843 H 840.007 1.49762 -3.66589 0
M  V30 8844 H 841.181 -1.25644 -4.4334 0
M  V30 8845 H 839.496 -0.982359 -4.04646 0
M  V30 8846 H 842.093 1.58953 -5.10527 0
M  V30 8847 H 842.436 2.22837 -3.51638 0
M  V30 8848 H 842.969 0.582024 -3.93519 0
M  V30 8849 H 839.708 -1.00654 -6.47726 0
M  V30 8850 H 839.228 0.627666 -5.96507 0
M  V30 8851 H 840.907 0.30293 -6.4629 0
M  V30 8852 N 841.039 1.57585 0.0217189 0
M  V30 8853 C 841.972 2.02435 1.05334 0
M  V30 8854 C 842.95 0.91006 1.34747 0
M  V30 8855 O 844.134 1.17648 1.47279 0
M  V30 8856 C 841.261 2.40362 2.38629 0
M  V30 8857 C 840.307 3.62307 2.25025 0
M  V30 8858 S 841.14 5.11141 1.59673 0
M  V30 8859 C 842.296 5.52316 2.94444 0
M  V30 8860 H 842.529 2.89621 0.671354 0
M  V30 8861 H 840.062 1.52648 0.231925 0
M  V30 8862 H 842.02 2.62883 3.15282 0
M  V30 8863 H 840.681 1.53615 2.73973 0
M  V30 8864 H 839.874 3.86523 3.23443 0
M  V30 8865 H 839.476 3.39675 1.56515 0
M  V30 8866 H 841.768 5.53449 3.90768 0
M  V30 8867 H 842.711 6.52539 2.74952 0
M  V30 8868 H 843.119 4.79834 2.97355 0
M  V30 8869 N 842.517 -0.29412 1.54831 0
M  V30 8870 C 843.48 -1.3461 1.85507 0
M  V30 8871 C 844.48 -1.43359 0.728343 0
M  V30 8872 O 845.67 -1.42875 0.996609 0
M  V30 8873 C 842.802 -2.73012 2.0415 0
M  V30 8874 H 843.995 -1.08651 2.79526 0
M  V30 8875 H 841.548 -0.531138 1.46999 0
M  V30 8876 H 842.283 -3.04183 1.12441 0
M  V30 8877 H 842.068 -2.68051 2.86166 0
M  V30 8878 H 843.558 -3.49061 2.29229 0
M  V30 8879 N 843.995 -1.47404 -0.557645 0
M  V30 8880 C 845.241 -1.54235 -1.31679 0
M  V30 8881 C 845.574 -0.203782 -1.93128 0
M  V30 8882 O 844.849 0.787536 -1.77843 0
M  V30 8883 C 845.132 -2.66003 -2.42723 0
M  V30 8884 C 844.985 -4.09475 -1.86145 0
M  V30 8885 C 846.304 -2.73685 -3.44652 0
M  V30 8886 H 843.423 -0.561466 -0.477415 0
M  V30 8887 H 846.065 -1.79459 -0.624067 0
M  V30 8888 H 844.215 -2.44627 -3.01811 0
M  V30 8889 H 845.887 -4.42213 -1.31321 0
M  V30 8890 H 844.13 -4.17774 -1.16823 0
M  V30 8891 H 844.801 -4.83451 -2.66418 0
M  V30 8892 H 847.277 -2.92968 -2.95481 0
M  V30 8893 H 846.153 -3.53665 -4.19777 0
M  V30 8894 H 846.414 -1.80726 -4.03473 0
M  V30 8895 N 845.473 0.80434 -1.35529 0
M  V30 8896 C 846.403 1.93086 -1.31301 0
M  V30 8897 C 847.384 1.69068 -0.187044 0
M  V30 8898 O 848.569 1.90399 -0.382359 0
M  V30 8899 C 845.699 3.29867 -1.0865 0
M  V30 8900 C 844.653 3.68373 -2.17911 0
M  V30 8901 C 843.979 5.0334 -1.80423 0
M  V30 8902 C 845.279 3.78516 -3.59893 0
M  V30 8903 H 846.973 1.96882 -2.25561 0
M  V30 8904 H 844.519 0.945841 -1.08581 0
M  V30 8905 H 846.472 4.08281 -1.04331 0
M  V30 8906 H 845.196 3.2642 -0.108359 0
M  V30 8907 H 843.855 2.92247 -2.21331 0
M  V30 8908 H 843.503 4.96399 -0.812213 0
M  V30 8909 H 843.203 5.30074 -2.53565 0
M  V30 8910 H 844.727 5.84191 -1.77633 0
M  V30 8911 H 846.141 4.47155 -3.58783 0
M  V30 8912 H 844.538 4.16721 -4.31814 0
M  V30 8913 H 845.608 2.8001 -3.95882 0
M  V30 8914 N 846.951 1.19563 1.02676 0
M  V30 8915 C 847.914 0.937182 2.09164 0
M  V30 8916 C 848.914 -0.0831927 1.60585 0
M  V30 8917 O 850.104 0.15178 1.73538 0
M  V30 8918 C 847.236 0.408912 3.38439 0
M  V30 8919 H 848.429 1.88164 2.33526 0
M  V30 8920 H 845.982 1.00959 1.19319 0
M  V30 8921 H 846.717 -0.541497 3.19747 0
M  V30 8922 H 846.502 1.14464 3.7502 0
M  V30 8923 H 847.992 0.247242 4.16867 0
M  V30 8924 N 848.429 -1.21819 0.999893 0
M  V30 8925 C 849.359 -2.26282 0.576096 0
M  V30 8926 C 850.34 -1.65317 -0.400537 0
M  V30 8927 O 851.525 -1.92028 -0.28964 0
M  V30 8928 C 848.655 -3.47147 -0.103145 0
M  V30 8929 C 847.609 -4.20594 0.792745 0
M  V30 8930 C 846.935 -5.34696 -0.0198026 0
M  V30 8931 C 848.235 -4.78533 2.09293 0
M  V30 8932 H 849.929 -2.61984 1.4493 0
M  V30 8933 H 847.475 -1.25935 0.698316 0
M  V30 8934 H 849.428 -4.1939 -0.411068 0
M  V30 8935 H 848.152 -3.1056 -1.01094 0
M  V30 8936 H 846.811 -3.50194 1.08442 0
M  V30 8937 H 846.459 -4.94352 -0.928729 0
M  V30 8938 H 846.159 -5.84764 0.576661 0
M  V30 8939 H 847.683 -6.09752 -0.321659 0
M  V30 8940 H 849.097 -5.42682 1.8485 0
M  V30 8941 H 847.494 -5.38968 2.63881 0
M  V30 8942 H 848.564 -3.98197 2.76708 0
M  V30 8943 N 849.908 -0.773975 -1.37286 0
M  V30 8944 C 851.136 -0.350758 -2.03905 0
M  V30 8945 C 851.551 1.02779 -1.58373 0
M  V30 8946 O 850.908 1.65646 -0.766009 0
M  V30 8947 C 850.959 -0.387335 -3.59419 0
M  V30 8948 O 850.68 -1.7115 -4.03286 0
M  V30 8949 C 852.181 0.047198 -4.43275 0
M  V30 8950 H 849.401 -0.146663 -0.654775 0
M  V30 8951 H 851.945 -1.04852 -1.75574 0
M  V30 8952 H 850.1 0.261865 -3.86514 0
M  V30 8953 H 850.514 -1.65166 -4.97816 0
M  V30 8954 H 851.988 -0.0295474 -5.51992 0
M  V30 8955 H 852.465 1.09786 -4.25257 0
M  V30 8956 H 853.071 -0.573899 -4.2141 0
M  V30 8957 N 851.386 1.48609 -0.524698 0
M  V30 8958 C 852.614 2.06899 0.00742946 0
M  V30 8959 C 853.029 1.38196 1.28637 0
M  V30 8960 O 852.386 0.467771 1.76403 0
M  V30 8961 C 852.437 3.60699 0.240548 0
M  V30 8962 O 852.158 4.26821 -0.987715 0
M  V30 8963 C 853.659 4.35769 0.813652 0
M  V30 8964 H 850.879 0.670278 -0.0311294 0
M  V30 8965 H 853.423 1.91071 -0.728832 0
M  V30 8966 H 851.578 3.76149 0.926845 0
M  V30 8967 H 851.992 5.18889 -0.765175 0
M  V30 8968 H 853.466 5.44174 0.926219 0
M  V30 8969 H 853.943 3.9984 1.81728 0
M  V30 8970 H 854.549 4.24983 0.164086 0
M  V30 8971 N 852.864 0.259585 1.55447 0
M  V30 8972 C 854.089 -0.368317 2.04103 0
M  V30 8973 C 854.514 -1.49827 1.13725 0
M  V30 8974 O 853.872 -1.80814 0.132705 0
M  V30 8975 C 853.92 -0.841506 3.50644 0
M  V30 8976 O 853.024 -1.95008 3.63381 0
M  V30 8977 H 852.365 -0.0785227 0.659341 0
M  V30 8978 H 854.895 0.389349 2.00861 0
M  V30 8979 H 854.905 -1.14138 3.9171 0
M  V30 8980 H 853.58 -0.0147001 4.15897 0
M  V30 8981 H 852.157 -1.65393 3.34215 0
M  V30 8982 N 854.342 -1.57594 -0.0133615 0
M  V30 8983 C 855.272 -2.10611 -1.00823 0
M  V30 8984 C 856.253 -1.01217 -1.36708 0
M  V30 8985 O 857.438 -1.28827 -1.45318 0
M  V30 8986 C 854.568 -2.59844 -2.30431 0
M  V30 8987 C 853.522 -3.73644 -2.08745 0
M  V30 8988 C 852.848 -4.09141 -3.4425 0
M  V30 8989 C 854.148 -5.01454 -1.46086 0
M  V30 8990 H 855.842 -2.93985 -0.566849 0
M  V30 8991 H 853.388 -1.41423 -0.271219 0
M  V30 8992 H 855.341 -2.95557 -3.00373 0
M  V30 8993 H 854.065 -1.73573 -2.76658 0
M  V30 8994 H 852.724 -3.38303 -1.41232 0
M  V30 8995 H 852.372 -3.19914 -3.88155 0
M  V30 8996 H 852.072 -4.85802 -3.3056 0
M  V30 8997 H 853.596 -4.47402 -4.15528 0
M  V30 8998 H 855.01 -5.35024 -2.05966 0
M  V30 8999 H 853.407 -5.82832 -1.42924 0
M  V30 9000 H 854.477 -4.83003 -0.428471 0
M  V30 9001 N 855.82 0.285905 -1.54985 0
M  V30 9002 C 856.73 1.37534 -1.90057 0
M  V30 9003 C 857.746 1.54707 -0.796348 0
M  V30 9004 O 858.922 1.69082 -1.09423 0
M  V30 9005 C 855.987 2.7167 -2.15398 0
M  V30 9006 C 855.048 2.63354 -3.39033 0
M  V30 9007 C 854.281 3.91093 -3.63155 0
M  V30 9008 O 854.504 4.91169 -2.90015 0
M  V30 9009 O 853.438 3.92075 -4.56685 0
M  V30 9010 H 857.264 1.10791 -2.8277 0
M  V30 9011 H 854.849 0.483303 -1.41367 0
M  V30 9012 H 856.731 3.51006 -2.33179 0
M  V30 9013 H 855.406 2.98226 -1.25868 0
M  V30 9014 H 854.313 1.82438 -3.26599 0
M  V30 9015 H 855.646 2.41749 -4.2874 0
M  V30 9016 N 857.298 1.47698 0.54982 0
M  V30 9017 C 858.575 1.45185 1.31075 0
M  V30 9018 C 858.955 0.152768 2.10547 0
M  V30 9019 O 858.303 -0.865706 2.11466 0
M  V30 9020 C 858.513 2.70192 2.20902 0
M  V30 9021 C 859.861 3.1771 2.81683 0
M  V30 9022 O 860.885 2.70971 2.312 0
M  V30 9023 O 859.744 3.98986 3.7346 0
M  V30 9024 H 856.838 0.57892 0.590577 0
M  V30 9025 H 859.384 1.59908 0.568112 0
M  V30 9026 H 858.156 3.56269 1.61828 0
M  V30 9027 H 857.779 2.58091 3.02448 0
M  V30 9028 N 858.776 -0.797141 1.35954 0
M  V30 9029 C 859.709 -1.91567 1.24005 0
M  V30 9030 C 860.687 -1.62112 0.125868 0
M  V30 9031 O 861.871 -1.86167 0.295638 0
M  V30 9032 C 858.998 -3.26204 0.911535 0
M  V30 9033 C 858.044 -3.74598 2.03909 0
M  V30 9034 S 858.877 -3.91276 3.656 0
M  V30 9035 C 860.033 -5.288 3.34846 0
M  V30 9036 H 860.266 -2.0141 2.18681 0
M  V30 9037 H 857.799 -0.955542 1.2128 0
M  V30 9038 H 859.757 -4.03979 0.728805 0
M  V30 9039 H 858.418 -3.14095 -0.0173159 0
M  V30 9040 H 857.611 -4.72137 1.7636 0
M  V30 9041 H 857.213 -3.03849 2.18064 0
M  V30 9042 H 859.505 -6.13117 2.8826 0
M  V30 9043 H 860.448 -5.61347 4.31619 0
M  V30 9044 H 860.856 -4.95534 2.70382 0
M  V30 9045 N 860.254 -1.20106 -1.0204 0
M  V30 9046 C 861.67 -0.955099 -1.27867 0
M  V30 9047 C 861.87 0.367595 -1.98119 0
M  V30 9048 O 860.926 1.09705 -2.27423 0
M  V30 9049 C 862.239 -2.13507 -2.11744 0
M  V30 9050 C 863.787 -2.17563 -2.25023 0
M  V30 9051 C 864.262 -3.35035 -3.12275 0
M  V30 9052 N 865.753 -3.35024 -3.19864 0
M  V30 9053 C 866.488 -4.22566 -3.8759 0
M  V30 9054 N 865.984 -5.20278 -4.57474 0
M  V30 9055 N 867.777 -4.10418 -3.84075 0
M  V30 9056 H 859.928 -2.05193 -0.54861 0
M  V30 9057 H 862.191 -0.897689 -0.304728 0
M  V30 9058 H 861.897 -3.09275 -1.67456 0
M  V30 9059 H 861.771 -2.11281 -3.12474 0
M  V30 9060 H 864.158 -1.22359 -2.68537 0
M  V30 9061 H 864.239 -2.23838 -1.23815 0
M  V30 9062 H 863.883 -4.30522 -2.69468 0
M  V30 9063 H 863.813 -3.25996 -4.13563 0
M  V30 9064 H 866.304 -2.64299 -2.701 0
M  V30 9065 H 866.617 -5.83408 -5.06809 0
M  V30 9066 H 864.962 -5.24219 -4.56311 0
M  V30 9067 H 868.153 -3.33353 -3.28623 0
M  V30 9068 H 868.326 -4.78854 -4.36581 0
M  V30 9069 N 861.732 1.21287 -1.00634 0
M  V30 9070 C 862.642 2.27388 -0.577226 0
M  V30 9071 C 863.658 1.69791 0.380399 0
M  V30 9072 O 864.834 1.99918 0.2439 0
M  V30 9073 C 861.899 3.46588 0.0880532 0
M  V30 9074 C 860.96 4.19453 -0.914222 0
M  V30 9075 C 860.193 5.32962 -0.280596 0
M  V30 9076 O 860.416 5.62895 0.922265 0
M  V30 9077 O 859.35 5.93666 -0.992196 0
M  V30 9078 H 863.176 2.66289 -1.46028 0
M  V30 9079 H 860.761 1.2771 -0.775283 0
M  V30 9080 H 862.643 4.18881 0.460094 0
M  V30 9081 H 861.318 3.09585 0.945461 0
M  V30 9082 H 860.225 3.49376 -1.33744 0
M  V30 9083 H 861.558 4.6037 -1.74126 0
M  V30 9084 N 863.21 0.781244 1.36873 0
M  V30 9085 C 864.626 0.461968 1.52768 0
M  V30 9086 C 864.826 -1.02099 1.73719 0
M  V30 9087 O 863.882 -1.80665 1.76399 0
M  V30 9088 C 865.195 1.2853 2.71846 0
M  V30 9089 C 866.743 1.27817 2.85713 0
M  V30 9090 C 867.218 2.08506 4.07786 0
M  V30 9091 N 868.709 2.05909 4.14917 0
M  V30 9092 C 869.444 2.65118 5.08429 0
M  V30 9093 N 868.94 3.33152 6.07438 0
M  V30 9094 N 870.733 2.54896 5.00983 0
M  V30 9095 H 862.884 1.74198 1.21527 0
M  V30 9096 H 865.147 0.740027 0.592506 0
M  V30 9097 H 864.853 2.3366 2.62861 0
M  V30 9098 H 864.727 0.920981 3.65784 0
M  V30 9099 H 867.114 0.234817 2.94164 0
M  V30 9100 H 867.195 1.68219 1.92707 0
M  V30 9101 H 866.839 3.12867 4.00096 0
M  V30 9102 H 866.769 1.65479 4.99924 0
M  V30 9103 H 869.26 1.56386 3.44023 0
M  V30 9104 H 869.573 3.75681 6.75339 0
M  V30 9105 H 867.918 3.37253 6.07689 0
M  V30 9106 H 871.109 2.01352 4.22581 0
M  V30 9107 H 871.282 3.01332 5.73675 0
M  V30 9108 N 864.689 -1.48329 0.532571 0
M  V30 9109 C 865.619 -2.32485 -0.217511 0
M  V30 9110 C 866.6 -1.42255 -0.932598 0
M  V30 9111 O 867.785 -1.7114 -0.917873 0
M  V30 9112 C 864.915 -3.23509 -1.26329 0
M  V30 9113 C 863.869 -4.22784 -0.666191 0
M  V30 9114 C 863.195 -5.0296 -1.81482 0
M  V30 9115 C 864.495 -5.21031 0.363813 0
M  V30 9116 H 866.189 -2.95445 0.485014 0
M  V30 9117 H 863.735 -1.42075 0.234694 0
M  V30 9118 H 865.688 -3.81211 -1.79601 0
M  V30 9119 H 864.412 -2.58554 -1.99543 0
M  V30 9120 H 863.071 -3.66272 -0.15498 0
M  V30 9121 H 862.719 -4.34427 -2.5354 0
M  V30 9122 H 862.419 -5.70154 -1.4212 0
M  V30 9123 H 863.943 -5.63514 -2.35126 0
M  V30 9124 H 865.357 -5.73241 -0.0819079 0
M  V30 9125 H 863.754 -5.96292 0.674956 0
M  V30 9126 H 864.824 -4.6801 1.26865 0
M  V30 9127 N 866.167 -0.267825 -1.55308 0
M  V30 9128 C 867.415 0.350343 -1.9904 0
M  V30 9129 C 867.736 1.56924 -1.15758 0
M  V30 9130 O 867.006 1.94358 -0.245336 0
M  V30 9131 H 865.586 0.132435 -0.735167 0
M  V30 9132 H 868.248 -0.371471 -1.91327 0
M  V30 9133 H 867.344 0.645203 -3.05358 0
M  V30 9134 N 867.645 1.57599 0.00500368 0
M  V30 9135 C 868.592 2.08106 0.998025 0
M  V30 9136 C 869.562 0.975374 1.34446 0
M  V30 9137 O 870.747 1.24749 1.44369 0
M  V30 9138 C 867.887 2.58496 2.28635 0
M  V30 9139 C 867 3.82947 1.99939 0
M  V30 9140 C 866.135 4.21857 3.22816 0
M  V30 9141 C 865.174 5.39159 2.89783 0
M  V30 9142 N 864.311 5.73386 4.05183 0
M  V30 9143 H 869.151 2.92684 0.560385 0
M  V30 9144 H 866.688 1.44692 0.265053 0
M  V30 9145 H 868.646 2.85787 3.03943 0
M  V30 9146 H 867.276 1.768 2.70077 0
M  V30 9147 H 866.328 3.62594 1.1502 0
M  V30 9148 H 867.64 4.68358 1.71588 0
M  V30 9149 H 866.794 4.50404 4.06474 0
M  V30 9150 H 865.533 3.35145 3.54301 0
M  V30 9151 H 864.538 5.1034 2.04532 0
M  V30 9152 H 865.763 6.27543 2.59551 0
M  V30 9153 H 863.709 4.89632 4.36574 0
M  V30 9154 H 863.626 6.53359 3.80339 0
M  V30 9155 H 864.894 6.06522 4.89644 0
M  V30 9156 N 869.123 -0.277682 1.55134 0
M  V30 9157 C 870.056 -1.3685 1.82612 0
M  V30 9158 C 871.034 -1.47752 0.678833 0
M  V30 9159 O 872.218 -1.6445 0.921329 0
M  V30 9160 C 869.345 -2.74539 1.98359 0
M  V30 9161 C 868.391 -2.80945 3.20893 0
M  V30 9162 S 869.224 -2.40666 4.78373 0
M  V30 9163 C 870.38 -3.80338 4.97085 0
M  V30 9164 H 870.613 -1.13338 2.74849 0
M  V30 9165 H 868.146 -0.477063 1.46845 0
M  V30 9166 H 870.104 -3.53834 2.08115 0
M  V30 9167 H 868.765 -2.95306 1.07019 0
M  V30 9168 H 867.958 -3.81992 3.28783 0
M  V30 9169 H 867.56 -2.09667 3.09703 0
M  V30 9170 H 869.852 -4.75565 4.8254 0
M  V30 9171 H 870.795 -3.77403 5.99143 0
M  V30 9172 H 871.203 -3.71424 4.25094 0
M  V30 9173 N 870.601 -1.47988 -0.541979 0
M  V30 9174 C 871.847 -1.55623 -1.30036 0
M  V30 9175 C 872.18 -0.224254 -1.92901 0
M  V30 9176 O 871.455 0.768629 -1.78668 0
M  V30 9177 C 871.738 -2.68562 -2.39888 0
M  V30 9178 C 871.591 -4.11426 -1.81792 0
M  V30 9179 C 872.91 -2.77325 -3.41729 0
M  V30 9180 H 870.029 -0.566498 -0.471433 0
M  V30 9181 H 872.671 -1.8011 -0.604998 0
M  V30 9182 H 870.821 -2.47814 -2.992 0
M  V30 9183 H 872.493 -4.43581 -1.26624 0
M  V30 9184 H 870.736 -4.18989 -1.12386 0
M  V30 9185 H 871.407 -4.8625 -2.61276 0
M  V30 9186 H 873.883 -2.96085 -2.92357 0
M  V30 9187 H 872.759 -3.58097 -4.16002 0
M  V30 9188 H 873.02 -1.84995 -4.01534 0
M  V30 9189 N 872.079 0.78992 -1.36375 0
M  V30 9190 C 873.325 1.55007 -1.3077 0
M  V30 9191 C 873.658 1.93871 0.112979 0
M  V30 9192 O 872.933 1.6267 1.06625 0
M  V30 9193 C 873.216 2.82748 -2.22993 0
M  V30 9194 C 873.069 2.50253 -3.73756 0
M  V30 9195 C 874.388 3.84569 -2.13998 0
M  V30 9196 H 871.507 0.562362 -0.476359 0
M  V30 9197 H 874.149 0.907582 -1.66922 0
M  V30 9198 H 872.299 3.37573 -1.92292 0
M  V30 9199 H 873.971 2.01482 -4.14973 0
M  V30 9200 H 872.214 1.83203 -3.93216 0
M  V30 9201 H 872.885 3.41487 -4.33694 0
M  V30 9202 H 875.361 3.39188 -2.4102 0
M  V30 9203 H 874.237 4.717 -2.80697 0
M  V30 9204 H 874.498 4.27491 -1.12711 0
M  V30 9205 N 873.557 1.20646 1.01402 0
M  V30 9206 C 874.52 0.959314 2.08158 0
M  V30 9207 C 875.52 -0.0661558 1.60664 0
M  V30 9208 O 876.71 0.170177 1.73367 0
M  V30 9209 C 873.842 0.444785 3.37986 0
M  V30 9210 H 875.035 1.90631 2.31517 0
M  V30 9211 H 872.588 1.02219 1.18241 0
M  V30 9212 H 873.323 -0.507553 3.20304 0
M  V30 9213 H 873.108 1.18435 3.73785 0
M  V30 9214 H 874.598 0.291443 4.16582 0
M  V30 9215 N 875.035 -1.20752 1.01276 0
M  V30 9216 C 876.26 -1.94547 0.718769 0
M  V30 9217 C 876.685 -1.7404 -0.713563 0
M  V30 9218 O 876.043 -1.03221 -1.49047 0
M  V30 9219 C 876.091 -3.44823 1.05497 0
M  V30 9220 O 875.195 -4.12072 0.164516 0
M  V30 9221 H 874.536 -0.607931 0.267051 0
M  V30 9222 H 877.066 -1.53292 1.35509 0
M  V30 9223 H 877.076 -3.95427 1.00507 0
M  V30 9224 H 875.751 -3.59072 2.09858 0
M  V30 9225 H 874.328 -3.71909 0.271615 0
M  V30 9226 N 876.513 -0.788492 -1.36457 0
M  V30 9227 C 877.738 -0.371224 -2.04051 0
M  V30 9228 C 878.163 1.004 -1.59064 0
M  V30 9229 O 877.521 1.64663 -0.758679 0
M  V30 9230 C 877.569 -0.442275 -3.57877 0
M  V30 9231 O 876.673 0.55113 -4.08701 0
M  V30 9232 H 876.014 -0.157808 -0.644975 0
M  V30 9233 H 878.544 -1.06935 -1.74431 0
M  V30 9234 H 878.554 -0.305548 -4.06854 0
M  V30 9235 H 877.229 -1.44547 -3.89973 0
M  V30 9236 H 875.806 0.37614 -3.70998 0
M  V30 9237 N 877.991 1.48044 -0.54043 0
M  V30 9238 C 878.938 2.29781 0.216597 0
M  V30 9239 C 879.908 1.38021 0.924094 0
M  V30 9240 O 881.093 1.66985 0.923078 0
M  V30 9241 C 878.233 3.21623 1.2511 0
M  V30 9242 C 877.346 4.28467 0.551384 0
M  V30 9243 C 876.481 5.07477 1.56972 0
M  V30 9244 C 875.52 6.06113 0.854048 0
M  V30 9245 N 874.657 6.78143 1.81842 0
M  V30 9246 H 879.497 2.94001 -0.486578 0
M  V30 9247 H 877.034 1.44929 -0.251789 0
M  V30 9248 H 878.992 3.73279 1.8633 0
M  V30 9249 H 877.622 2.59305 1.92252 0
M  V30 9250 H 876.674 3.79997 -0.174982 0
M  V30 9251 H 877.986 4.98799 -0.0100542 0
M  V30 9252 H 877.14 5.63199 2.25592 0
M  V30 9253 H 875.879 4.37008 2.16507 0
M  V30 9254 H 874.884 5.49585 0.153838 0
M  V30 9255 H 876.109 6.78584 0.264675 0
M  V30 9256 H 874.055 6.10417 2.40265 0
M  V30 9257 H 873.972 7.44587 1.3087 0
M  V30 9258 H 875.24 7.38448 2.49628 0
M  V30 9259 N 879.47 0.276058 1.55163 0
M  V30 9260 C 880.417 -0.611006 2.22565 0
M  V30 9261 C 881.387 -1.14902 1.19945 0
M  V30 9262 O 882.572 -1.19815 1.48489 0
M  V30 9263 C 879.712 -1.78885 2.95117 0
M  V30 9264 C 878.825 -1.2846 4.12458 0
M  V30 9265 C 877.96 -2.42432 4.72652 0
M  V30 9266 C 876.999 -1.89015 5.82185 0
M  V30 9267 N 876.136 -2.96463 6.36439 0
M  V30 9268 H 880.976 -0.0295849 2.97985 0
M  V30 9269 H 878.513 -0.00283607 1.471 0
M  V30 9270 H 880.471 -2.48121 3.35398 0
M  V30 9271 H 879.101 -2.34229 2.22119 0
M  V30 9272 H 878.153 -0.485312 3.77292 0
M  V30 9273 H 879.465 -0.853358 4.91446 0
M  V30 9274 H 878.619 -3.19659 5.15658 0
M  V30 9275 H 877.358 -2.88872 3.92943 0
M  V30 9276 H 876.363 -1.10267 5.38629 0
M  V30 9277 H 877.588 -1.43509 6.63763 0
M  V30 9278 H 875.534 -3.42283 5.59623 0
M  V30 9279 H 875.451 -2.57759 7.10701 0
M  V30 9280 H 876.719 -3.73663 6.84103 0
M  V30 9281 N 880.948 -1.576 0.00335426 0
M  V30 9282 C 882.196 -1.90336 -0.679446 0
M  V30 9283 C 882.517 -0.877777 -1.74127 0
M  V30 9284 O 881.787 0.0843585 -1.95718 0
M  V30 9285 H 880.367 -0.702509 -0.253948 0
M  V30 9286 H 883.029 -1.94848 0.0450731 0
M  V30 9287 H 882.125 -2.90197 -1.14857 0
M  V30 9288 N 882.426 0.269451 -1.5528 0
M  V30 9289 C 883.336 1.35511 -1.91505 0
M  V30 9290 C 884.352 1.53854 -0.812712 0
M  V30 9291 O 885.528 1.67912 -1.1121 0
M  V30 9292 C 882.593 2.6937 -2.18267 0
M  V30 9293 C 881.654 2.59743 -3.41807 0
M  V30 9294 C 880.887 3.87219 -3.67283 0
M  V30 9295 O 881.11 4.88066 -2.95208 0
M  V30 9296 O 880.044 3.87209 -4.60818 0
M  V30 9297 H 883.87 1.07785 -2.8393 0
M  V30 9298 H 881.455 0.468282 -1.41871 0
M  V30 9299 H 883.337 3.48513 -2.36889 0
M  V30 9300 H 882.012 2.96874 -1.29024 0
M  V30 9301 H 880.919 1.78964 -3.28516 0
M  V30 9302 H 882.252 2.37188 -4.3128 0
M  V30 9303 N 883.904 1.48273 0.534124 0
M  V30 9304 C 885.315 1.49667 1.1161 0
M  V30 9305 C 885.666 0.264139 1.94414 0
M  V30 9306 O 884.791 -0.629084 2.07054 0
M  V30 9307 C 885.386 2.71191 2.03079 0
M  V30 9308 C 883.945 2.7547 2.56502 0
M  V30 9309 C 883.092 2.43119 1.33373 0
M  V30 9310 H 886.043 1.55449 0.319578 0
M  V30 9311 H 886.064 2.49473 2.87304 0
M  V30 9312 H 885.576 3.60879 1.42785 0
M  V30 9313 H 883.677 1.89979 3.20529 0
M  V30 9314 H 883.79 3.76787 2.95919 0
M  V30 9315 H 882.154 1.94187 1.64813 0
M  V30 9316 H 882.937 3.35044 0.748375 0
M  V30 9317 N 885.382 -0.782676 1.36792 0
M  V30 9318 C 886.628 -1.54311 1.3159 0
M  V30 9319 C 886.961 -1.93928 -0.102696 0
M  V30 9320 O 886.236 -1.63233 -1.05761 0
M  V30 9321 C 886.519 -2.81561 2.24489 0
M  V30 9322 C 886.372 -2.48268 3.75078 0
M  V30 9323 C 887.691 -3.83428 2.16034 0
M  V30 9324 H 884.81 -0.559828 0.479335 0
M  V30 9325 H 887.452 -0.898717 1.67401 0
M  V30 9326 H 885.602 -3.36549 1.9408 0
M  V30 9327 H 887.274 -1.99279 4.16036 0
M  V30 9328 H 885.517 -1.81116 3.94182 0
M  V30 9329 H 886.188 -3.39183 4.35499 0
M  V30 9330 H 888.664 -3.37905 2.42815 0
M  V30 9331 H 887.54 -4.70204 2.83194 0
M  V30 9332 H 887.801 -4.26887 1.14976 0
M  V30 9333 N 886.86 -1.21182 -1.00761 0
M  V30 9334 C 888.085 -1.05411 -1.78615 0
M  V30 9335 C 888.51 0.391837 -1.83973 0
M  V30 9336 O 887.868 1.28256 -1.28141 0
M  V30 9337 C 887.916 -1.65285 -3.20489 0
M  V30 9338 O 887.02 -0.896558 -4.02536 0
M  V30 9339 H 886.361 -0.37116 -0.550578 0
M  V30 9340 H 888.891 -1.60669 -1.26676 0
M  V30 9341 H 888.901 -1.69397 -3.71172 0
M  V30 9342 H 887.576 -2.70514 -3.15904 0
M  V30 9343 H 886.153 -0.930335 -3.61108 0
M  V30 9344 N 888.338 1.20213 -1.01915 0
M  V30 9345 C 889.301 2.21307 -0.596327 0
M  V30 9346 C 890.301 1.57274 0.334879 0
M  V30 9347 O 891.491 1.73764 0.12322 0
M  V30 9348 C 888.623 3.40657 0.128808 0
M  V30 9349 H 889.816 2.60228 -1.49068 0
M  V30 9350 H 887.369 1.33721 -0.809226 0
M  V30 9351 H 888.104 3.07241 1.03796 0
M  V30 9352 H 887.889 3.88361 -0.540183 0
M  V30 9353 H 889.379 4.15564 0.411892 0
M  V30 9354 N 889.816 0.795718 1.36037 0
M  V30 9355 C 890.726 0.199784 2.33748 0
M  V30 9356 C 891.742 -0.651436 1.61345 0
M  V30 9357 O 892.918 -0.565743 1.93291 0
M  V30 9358 C 889.983 -0.650475 3.40543 0
M  V30 9359 C 889.044 0.219974 4.28736 0
M  V30 9360 C 888.277 -0.589798 5.30431 0
M  V30 9361 O 888.5 -1.82532 5.40406 0
M  V30 9362 O 887.434 0.0136187 6.01898 0
M  V30 9363 H 891.26 1.00782 2.8649 0
M  V30 9364 H 888.845 0.557293 1.38617 0
M  V30 9365 H 890.727 -1.13512 4.05824 0
M  V30 9366 H 889.402 -1.4363 2.9009 0
M  V30 9367 H 888.309 0.751516 3.66474 0
M  V30 9368 H 889.642 0.969468 4.82558 0
M  V30 9369 N 891.294 -1.47756 0.548274 0
M  V30 9370 C 892.571 -1.9555 -0.0443603 0
M  V30 9371 C 892.951 -1.49079 -1.49462 0
M  V30 9372 O 892.299 -0.725538 -2.16675 0
M  V30 9373 C 892.509 -3.48879 0.0918425 0
M  V30 9374 C 893.857 -4.2456 -0.0580879 0
M  V30 9375 O 894.881 -3.56195 0.018946 0
M  V30 9376 O 893.74 -5.46048 -0.222261 0
M  V30 9377 H 890.834 -0.824106 -0.0691235 0
M  V30 9378 H 893.38 -1.58196 0.614166 0
M  V30 9379 H 892.152 -3.7548 1.10137 0
M  V30 9380 H 891.775 -3.92975 -0.604704 0
M  V30 9381 N 892.772 -0.284283 -1.55015 0
M  V30 9382 C 893.702 0.592663 -2.25853 0
M  V30 9383 C 894.683 1.15151 -1.25197 0
M  V30 9384 O 895.868 1.18395 -1.53936 0
M  V30 9385 C 892.998 1.77254 -2.98661 0
M  V30 9386 C 891.952 1.34482 -4.06323 0
M  V30 9387 C 891.278 2.60853 -4.66754 0
M  V30 9388 C 892.578 0.488288 -5.20013 0
M  V30 9389 H 894.272 0.00187041 -2.994 0
M  V30 9390 H 891.818 -0.000540402 -1.44 0
M  V30 9391 H 893.771 2.39199 -3.46932 0
M  V30 9392 H 892.495 2.38931 -2.22664 0
M  V30 9393 H 891.154 0.748519 -3.58877 0
M  V30 9394 H 890.802 3.20808 -3.87416 0
M  V30 9395 H 890.502 2.32942 -5.39455 0
M  V30 9396 H 892.026 3.23631 -5.1778 0
M  V30 9397 H 893.44 1.01298 -5.6428 0
M  V30 9398 H 891.837 0.303669 -5.99331 0
M  V30 9399 H 892.907 -0.490727 -4.8241 0
M  V30 9400 N 894.251 1.57596 -0.0117121 0
M  V30 9401 C 895.499 1.90694 0.669342 0
M  V30 9402 C 895.82 0.886999 1.73659 0
M  V30 9403 O 895.09 -0.0739779 1.9576 0
M  V30 9404 H 893.67 0.703846 0.250219 0
M  V30 9405 H 896.332 1.94821 -0.0554057 0
M  V30 9406 H 895.428 2.90802 1.13316 0
M  V30 9407 N 895.729 -0.261212 1.5542 0
M  V30 9408 C 896.975 -0.992699 1.76843 0
M  V30 9409 C 897.308 -1.8551 0.574428 0
M  V30 9410 O 896.583 -1.89739 -0.427713 0
M  V30 9411 C 896.866 -1.86532 3.08022 0
M  V30 9412 C 896.719 -1.03206 4.378 0
M  V30 9413 C 898.038 -2.85036 3.35324 0
M  V30 9414 H 895.157 -0.359473 0.643388 0
M  V30 9415 H 897.799 -0.264214 1.88154 0
M  V30 9416 H 895.949 -2.48644 2.9851 0
M  V30 9417 H 897.621 -0.430743 4.59285 0
M  V30 9418 H 895.864 -0.335911 4.32497 0
M  V30 9419 H 896.535 -1.6761 5.25938 0
M  V30 9420 H 899.011 -2.3306 3.44706 0
M  V30 9421 H 897.887 -3.43226 4.28354 0
M  V30 9422 H 898.148 -3.60768 2.55537 0
M  V30 9423 N 897.207 -1.48554 -0.526253 0
M  V30 9424 C 898.432 -1.60686 -1.31129 0
M  V30 9425 C 898.857 -0.268701 -1.86171 0
M  V30 9426 O 898.215 0.760167 -1.64594 0
M  V30 9427 C 898.263 -2.65938 -2.43536 0
M  V30 9428 O 897.367 -2.23356 -3.46678 0
M  V30 9429 H 896.708 -0.538691 -0.388211 0
M  V30 9430 H 899.238 -1.94567 -0.632826 0
M  V30 9431 H 899.248 -2.87327 -2.89668 0
M  V30 9432 H 897.923 -3.63085 -2.02835 0
M  V30 9433 H 896.5 -2.12196 -3.06639 0
M  V30 9434 N 898.685 0.775411 -1.37205 0
M  V30 9435 C 899.933 1.53081 -1.3195 0
M  V30 9436 C 900.254 1.9476 0.0966864 0
M  V30 9437 O 899.524 1.66019 1.03993 0
M  V30 9438 H 898.104 0.567762 -0.485444 0
M  V30 9439 H 900.766 0.92309 -1.71654 0
M  V30 9440 H 899.862 2.4319 -1.95614 0
M  V30 9441 N 900.163 1.21714 1.00117 0
M  V30 9442 C 901.126 0.981338 2.07129 0
M  V30 9443 C 902.126 -0.0491116 1.60725 0
M  V30 9444 O 903.316 0.188555 1.73177 0
M  V30 9445 C 900.448 0.480608 3.37495 0
M  V30 9446 H 901.641 1.93075 2.29482 0
M  V30 9447 H 899.194 1.03467 1.17151 0
M  V30 9448 H 899.929 -0.473552 3.20824 0
M  V30 9449 H 899.714 1.22393 3.72508 0
M  V30 9450 H 901.204 0.33561 4.16249 0
M  V30 9451 N 901.641 -1.19671 1.02551 0
M  V30 9452 C 902.571 -2.25009 0.623965 0
M  V30 9453 C 903.552 -1.66129 -0.36538 0
M  V30 9454 O 904.737 -1.92599 -0.248842 0
M  V30 9455 C 901.867 -3.47287 -0.0294869 0
M  V30 9456 C 900.821 -4.18818 0.881781 0
M  V30 9457 C 900.147 -5.34618 0.0936189 0
M  V30 9458 C 901.447 -4.73986 2.19396 0
M  V30 9459 H 903.141 -2.58851 1.50454 0
M  V30 9460 H 900.687 -1.24425 0.724872 0
M  V30 9461 H 902.64 -4.20168 -0.322016 0
M  V30 9462 H 901.364 -3.12635 -0.944838 0
M  V30 9463 H 900.023 -3.47815 1.15845 0
M  V30 9464 H 899.671 -4.9621 -0.823661 0
M  V30 9465 H 899.371 -5.83409 0.700568 0
M  V30 9466 H 900.895 -6.10297 -0.192249 0
M  V30 9467 H 902.309 -5.38639 1.96319 0
M  V30 9468 H 900.706 -5.3325 2.75254 0
M  V30 9469 H 901.776 -3.92238 2.85092 0
M  V30 9470 N 903.119 -0.802921 -1.35613 0
M  V30 9471 C 904.347 -0.39393 -2.03115 0
M  V30 9472 C 904.762 0.993961 -1.60517 0
M  V30 9473 O 904.119 1.63984 -0.800973 0
M  V30 9474 C 904.17 -0.463486 -3.58516 0
M  V30 9475 O 903.891 -1.79666 -3.99565 0
M  V30 9476 C 905.392 -0.0468377 -4.43275 0
M  V30 9477 H 902.612 -0.160519 -0.651517 0
M  V30 9478 H 905.156 -1.08552 -1.73311 0
M  V30 9479 H 903.311 0.179821 -3.86982 0
M  V30 9480 H 903.725 -1.75688 -4.942 0
M  V30 9481 H 905.199 -0.146626 -5.51805 0
M  V30 9482 H 905.676 1.00741 -4.2749 0
M  V30 9483 H 906.282 -0.663158 -4.20098 0
M  V30 9484 N 904.597 1.47463 -0.556102 0
M  V30 9485 C 905.843 2.02775 -0.0316806 0
M  V30 9486 C 906.176 1.42967 1.3143 0
M  V30 9487 O 905.451 0.584847 1.85499 0
M  V30 9488 C 905.734 3.60046 0.0625742 0
M  V30 9489 C 905.587 4.30288 -1.31043 0
M  V30 9490 C 906.906 4.33195 0.776553 0
M  V30 9491 H 904.025 0.736886 -0.0129869 0
M  V30 9492 H 906.667 1.75904 -0.718177 0
M  V30 9493 H 904.817 3.83071 0.647231 0
M  V30 9494 H 906.489 4.18607 -1.9382 0
M  V30 9495 H 904.732 3.90685 -1.8854 0
M  V30 9496 H 905.403 5.38861 -1.1972 0
M  V30 9497 H 907.879 4.15156 0.280147 0
M  V30 9498 H 906.755 5.42869 0.81146 0
M  V30 9499 H 907.016 4.02336 1.83244 0
M  V30 9500 N 906.075 0.2925 1.54862 0
M  V30 9501 C 907.005 -0.580677 2.26165 0
M  V30 9502 C 907.986 -1.14485 1.25806 0
M  V30 9503 O 909.171 -1.17577 1.54562 0
M  V30 9504 C 906.301 -1.75668 2.99596 0
M  V30 9505 C 905.255 -1.32325 4.07031 0
M  V30 9506 C 904.581 -2.58374 4.68131 0
M  V30 9507 C 905.881 -0.460703 5.20264 0
M  V30 9508 H 907.575 0.0140075 2.99397 0
M  V30 9509 H 905.121 0.00817706 1.43998 0
M  V30 9510 H 907.074 -2.37356 3.48195 0
M  V30 9511 H 905.798 -2.37747 2.23928 0
M  V30 9512 H 904.457 -0.729477 3.59269 0
M  V30 9513 H 904.105 -3.18749 3.89112 0
M  V30 9514 H 903.805 -2.30078 5.40683 0
M  V30 9515 H 905.329 -3.2088 5.19489 0
M  V30 9516 H 906.743 -0.983037 5.64809 0
M  V30 9517 H 905.14 -0.271881 5.99484 0
M  V30 9518 H 906.21 0.516304 4.82143 0
M  V30 9519 N 907.553 -1.57587 0.0200696 0
M  V30 9520 C 908.486 -2.05157 -0.999295 0
M  V30 9521 C 909.464 -0.945466 -1.32286 0
M  V30 9522 O 910.648 -1.21512 -1.44108 0
M  V30 9523 C 907.775 -2.46604 -2.32173 0
M  V30 9524 C 906.821 -3.68146 -2.15339 0
M  V30 9525 S 907.654 -5.15194 -1.46065 0
M  V30 9526 C 908.81 -5.59929 -2.79697 0
M  V30 9527 H 909.043 -2.91299 -0.59433 0
M  V30 9528 H 906.576 -1.53209 -0.191372 0
M  V30 9529 H 908.534 -2.7115 -3.08201 0
M  V30 9530 H 907.195 -1.60825 -2.69804 0
M  V30 9531 H 906.388 -3.94963 -3.13082 0
M  V30 9532 H 905.99 -3.43705 -1.47454 0
M  V30 9533 H 908.282 -5.63615 -3.75957 0
M  V30 9534 H 909.225 -6.59599 -2.57555 0
M  V30 9535 H 909.633 -4.87549 -2.84528 0
M  V30 9536 N 909.032 0.252966 -1.55557 0
M  V30 9537 C 909.979 1.3131 -1.89806 0
M  V30 9538 C 910.949 1.48121 -0.751633 0
M  V30 9539 O 912.134 1.62202 -1.00474 0
M  V30 9540 C 909.274 2.66467 -2.19293 0
M  V30 9541 C 908.387 2.57714 -3.46709 0
M  V30 9542 C 907.522 3.85184 -3.65796 0
M  V30 9543 C 906.561 3.71023 -4.86835 0
M  V30 9544 N 905.698 4.90371 -5.02474 0
M  V30 9545 H 910.538 1.01402 -2.80217 0
M  V30 9546 H 908.075 0.489462 -1.38718 0
M  V30 9547 H 910.033 3.45132 -2.34392 0
M  V30 9548 H 908.663 2.94536 -1.32093 0
M  V30 9549 H 907.715 1.70651 -3.39974 0
M  V30 9550 H 909.027 2.43158 -4.35517 0
M  V30 9551 H 908.181 4.72292 -3.80822 0
M  V30 9552 H 906.92 4.0263 -2.7521 0
M  V30 9553 H 905.925 2.82299 -4.71792 0
M  V30 9554 H 907.15 3.55078 -5.78875 0
M  V30 9555 H 905.096 5.0819 -4.14824 0
M  V30 9556 H 905.013 4.78423 -5.85361 0
M  V30 9557 H 906.281 5.78995 -5.21905 0
M  V30 9558 N 910.51 1.48831 0.518367 0
M  V30 9559 C 911.787 1.47933 1.27966 0
M  V30 9560 C 912.167 0.197393 2.10175 0
M  V30 9561 O 911.515 -0.820656 2.13255 0
M  V30 9562 C 911.725 2.74816 2.15121 0
M  V30 9563 C 913.073 3.23613 2.74881 0
M  V30 9564 O 914.097 2.75814 2.254 0
M  V30 9565 O 912.956 4.06818 3.64913 0
M  V30 9566 H 910.05 0.591316 0.578164 0
M  V30 9567 H 912.596 1.61077 0.534065 0
M  V30 9568 H 911.368 3.59621 1.54234 0
M  V30 9569 H 910.991 2.64449 2.96905 0
M  V30 9570 N 911.988 -0.768124 1.37614 0
M  V30 9571 C 912.951 -1.86314 1.3349 0
M  V30 9572 C 913.951 -1.59025 0.23823 0
M  V30 9573 O 915.141 -1.6704 0.494288 0
M  V30 9574 C 912.273 -3.23519 1.07462 0
M  V30 9575 H 913.466 -1.91382 2.30896 0
M  V30 9576 H 911.019 -0.968267 1.22696 0
M  V30 9577 H 911.754 -3.24127 0.106028 0
M  V30 9578 H 911.539 -3.44719 1.86846 0
M  V30 9579 H 913.029 -4.03597 1.07236 0
M  V30 9580 N 913.466 -1.22244 -0.994698 0
M  V30 9581 C 914.715 -1.04005 -1.72817 0
M  V30 9582 C 915.028 0.425413 -1.90918 0
M  V30 9583 O 916.234 0.727429 -2.61574 0
M  V30 9584 C 914.69 -1.81244 -3.10932 0
M  V30 9585 C 914.298 -3.32028 -3.00768 0
M  V30 9586 C 916.042 -1.71448 -3.88337 0
M  V30 9587 C 913.949 -4.01716 -4.34026 0
M  V30 9588 H 912.879 -0.385559 -0.647966 0
M  V30 9589 H 915.53 -1.46077 -1.11058 0
M  V30 9590 H 913.912 -1.3197 -3.73363 0
M  V30 9591 H 915.086 -3.88682 -2.47513 0
M  V30 9592 H 913.401 -3.4248 -2.36846 0
M  V30 9593 H 915.998 -2.20836 -4.86965 0
M  V30 9594 H 916.341 -0.674568 -4.10798 0
M  V30 9595 H 916.874 -2.18256 -3.3258 0
M  V30 9596 H 913.613 -5.05952 -4.16765 0
M  V30 9597 H 913.133 -3.49849 -4.87202 0
M  V30 9598 H 914.812 -4.0721 -5.02782 0
M  V30 9599 N 914.944 1.19125 -1.03184 0
M  V30 9600 C 915.891 2.2245 -0.6152 0
M  V30 9601 C 916.861 1.61869 0.372502 0
M  V30 9602 O 918.046 1.88901 0.268491 0
M  V30 9603 C 915.186 3.45091 0.0248027 0
M  V30 9604 C 914.299 4.20044 -1.0093 0
M  V30 9605 C 913.434 5.30119 -0.338744 0
M  V30 9606 C 912.473 5.96833 -1.35855 0
M  V30 9607 N 911.61 6.98464 -0.713594 0
M  V30 9608 H 916.45 2.57445 -1.50086 0
M  V30 9609 H 913.987 1.26485 -0.751005 0
M  V30 9610 H 915.945 4.15149 0.413131 0
M  V30 9611 H 914.575 3.10742 0.874028 0
M  V30 9612 H 913.627 3.48901 -1.51566 0
M  V30 9613 H 914.939 4.65796 -1.78425 0
M  V30 9614 H 914.093 6.0661 0.104269 0
M  V30 9615 H 912.832 4.85446 0.468382 0
M  V30 9616 H 911.837 5.1909 -1.81179 0
M  V30 9617 H 913.062 6.4359 -2.16722 0
M  V30 9618 H 911.008 6.55959 0.0733863 0
M  V30 9619 H 910.925 7.42422 -1.42638 0
M  V30 9620 H 912.193 7.78943 -0.294681 0
M  V30 9621 N 916.422 0.810101 1.35185 0
M  V30 9622 C 917.833 0.452616 1.81131 0
M  V30 9623 C 918.184 -1.02573 1.67252 0
M  V30 9624 O 917.309 -1.79735 1.20516 0
M  V30 9625 C 917.904 0.814775 3.28857 0
M  V30 9626 C 916.463 0.509839 3.72931 0
M  V30 9627 C 915.61 1.03852 2.57119 0
M  V30 9628 H 918.561 1.00143 1.23114 0
M  V30 9629 H 918.582 0.113635 3.8033 0
M  V30 9630 H 918.094 1.89078 3.38926 0
M  V30 9631 H 916.195 -0.557289 3.68409 0
M  V30 9632 H 916.308 1.04493 4.67566 0
M  V30 9633 H 914.672 0.460671 2.50499 0
M  V30 9634 H 915.455 2.12071 2.69964 0
M  V30 9635 N 917.9 -1.47166 0.563914 0
M  V30 9636 C 918.848 -2.31798 -0.193009 0
M  V30 9637 C 919.842 -1.43338 -0.902805 0
M  V30 9638 O 921.048 -1.60067 -0.823328 0
M  V30 9639 H 917.423 -0.747613 -0.0811139 0
M  V30 9640 H 919.394 -2.93476 0.539876 0
M  V30 9641 C 918.143 -3.26131 -1.20555 0
M  V30 9642 H 917.466 -3.94166 -0.668803 0
M  V30 9643 H 918.906 -3.88167 -1.70593 0
M  V30 9644 C 917.365 -2.50132 -2.25689 0
M  V30 9645 O 917.895 -2.25064 -3.3273 0
M  V30 9646 N 916.101 -2.11022 -1.99795 0
M  V30 9647 H 915.648 -2.3161 -1.1276 0
M  V30 9648 H 915.606 -1.60489 -2.70353 0
M  V30 9649 N 919.378 -0.300708 -1.54705 0
M  V30 9650 C 920.308 0.568675 -2.26469 0
M  V30 9651 C 921.289 1.13817 -1.26411 0
M  V30 9652 O 922.474 1.16756 -1.55183 0
M  V30 9653 C 919.604 1.74077 -3.00524 0
M  V30 9654 C 918.558 1.30165 -4.07727 0
M  V30 9655 C 917.884 2.55888 -4.69495 0
M  V30 9656 C 919.184 0.433106 -5.20501 0
M  V30 9657 H 920.878 -0.0298851 -2.99385 0
M  V30 9658 H 918.424 -0.0158135 -1.43991 0
M  V30 9659 H 920.377 2.35506 -3.49449 0
M  V30 9660 H 919.101 2.36556 -2.25186 0
M  V30 9661 H 917.76 0.710414 -3.59651 0
M  V30 9662 H 917.408 3.16681 -3.90797 0
M  V30 9663 H 917.108 2.27207 -5.41895 0
M  V30 9664 H 918.632 3.18121 -5.21183 0
M  V30 9665 H 920.046 0.95307 -5.65322 0
M  V30 9666 H 918.443 0.240085 -5.9962 0
M  V30 9667 H 919.513 -0.541866 -4.81863 0
M  V30 9668 N 920.856 1.57574 -0.0284266 0
M  V30 9669 C 921.789 2.05684 0.988401 0
M  V30 9670 C 922.767 0.952468 1.31783 0
M  V30 9671 O 923.951 1.22274 1.43462 0
M  V30 9672 C 921.078 2.47832 2.30862 0
M  V30 9673 C 920.124 3.69282 2.13384 0
M  V30 9674 S 920.957 5.15962 1.43331 0
M  V30 9675 C 922.113 5.61404 2.76723 0
M  V30 9676 H 922.346 2.9161 0.578873 0
M  V30 9677 H 919.879 1.53309 0.183244 0
M  V30 9678 H 921.837 2.7278 3.06759 0
M  V30 9679 H 920.498 1.62253 2.68947 0
M  V30 9680 H 919.691 3.96618 3.10983 0
M  V30 9681 H 919.293 3.44482 1.45629 0
M  V30 9682 H 921.585 5.65601 3.72963 0
M  V30 9683 H 922.528 6.60956 2.54053 0
M  V30 9684 H 922.936 4.89051 2.81939 0
M  V30 9685 N 922.334 -0.244713 1.55689 0
M  V30 9686 C 923.266 -1.32595 1.86952 0
M  V30 9687 C 924.279 -1.44185 0.755948 0
M  V30 9688 O 925.468 -1.45496 1.03408 0
M  V30 9689 C 922.568 -2.70429 2.04258 0
M  V30 9690 C 921.741 -2.8108 3.35131 0
M  V30 9691 C 920.8 -3.99773 3.42152 0
M  V30 9692 O 919.826 -3.89197 4.15348 0
M  V30 9693 N 921.028 -5.13041 2.71604 0
M  V30 9694 H 923.793 -1.06111 2.80287 0
M  V30 9695 H 921.354 -0.434811 1.55952 0
M  V30 9696 H 923.346 -3.48173 2.06295 0
M  V30 9697 H 921.916 -2.89612 1.17658 0
M  V30 9698 H 921.136 -1.89994 3.45392 0
M  V30 9699 H 922.424 -2.85147 4.21389 0
M  V30 9700 H 921.822 -5.24525 2.11872 0
M  V30 9701 H 920.379 -5.88912 2.79331 0
M  V30 9702 N 923.813 -1.49104 -0.510467 0
M  V30 9703 C 925.041 -1.61806 -1.28944 0
M  V30 9704 C 925.456 -0.285774 -1.86625 0
M  V30 9705 O 924.813 0.727551 -1.67371 0
M  V30 9706 C 924.864 -2.67966 -2.42645 0
M  V30 9707 O 924.585 -3.96026 -1.87337 0
M  V30 9708 C 926.086 -2.91286 -3.34166 0
M  V30 9709 H 923.306 -0.544999 -0.391429 0
M  V30 9710 H 925.85 -1.95071 -0.613805 0
M  V30 9711 H 924.005 -2.37505 -3.06056 0
M  V30 9712 H 924.419 -4.54427 -2.61909 0
M  V30 9713 H 925.893 -3.69323 -4.1025 0
M  V30 9714 H 926.37 -2.00842 -3.90588 0
M  V30 9715 H 926.976 -3.23127 -2.76531 0
M  V30 9716 N 925.291 0.760815 -1.38019 0
M  V30 9717 C 926.221 1.88811 -1.37377 0
M  V30 9718 C 927.202 1.68388 -0.240737 0
M  V30 9719 O 928.387 1.89086 -0.442739 0
M  V30 9720 C 925.517 3.26244 -1.1909 0
M  V30 9721 C 924.471 3.61254 -2.29521 0
M  V30 9722 C 923.797 4.97346 -1.96345 0
M  V30 9723 C 925.097 3.66874 -3.71753 0
M  V30 9724 H 926.791 1.89606 -2.31711 0
M  V30 9725 H 924.337 0.910818 -1.11535 0
M  V30 9726 H 926.29 4.04755 -1.17267 0
M  V30 9727 H 925.014 3.2591 -0.212152 0
M  V30 9728 H 923.673 2.85057 -2.30517 0
M  V30 9729 H 923.321 4.93564 -0.969728 0
M  V30 9730 H 923.021 5.21739 -2.703 0
M  V30 9731 H 924.545 5.78244 -1.96129 0
M  V30 9732 H 925.959 4.35514 -3.72828 0
M  V30 9733 H 924.356 4.02772 -4.44853 0
M  V30 9734 H 925.426 2.67273 -4.0459 0
M  V30 9735 N 926.769 1.22769 0.988202 0
M  V30 9736 C 927.679 1.01844 2.11341 0
M  V30 9737 C 928.695 -0.0346937 1.73965 0
M  V30 9738 O 929.871 0.159061 2.00771 0
M  V30 9739 C 926.936 0.603837 3.41401 0
M  V30 9740 C 925.997 1.73113 3.92849 0
M  V30 9741 C 925.23 1.33621 5.16702 0
M  V30 9742 O 925.453 0.217041 5.69987 0
M  V30 9743 O 924.387 2.15444 5.62021 0
M  V30 9744 H 928.213 1.96127 2.31879 0
M  V30 9745 H 925.798 1.01405 1.09715 0
M  V30 9746 H 927.68 0.383196 4.19654 0
M  V30 9747 H 926.355 -0.310082 3.22211 0
M  V30 9748 H 925.262 2.00634 3.15748 0
M  V30 9749 H 926.595 2.62308 4.1648 0
M  V30 9750 N 928.247 -1.18576 1.03814 0
M  V30 9751 C 929.495 -1.88121 0.738574 0
M  V30 9752 C 929.816 -1.80587 -0.735744 0
M  V30 9753 O 929.086 -1.22251 -1.53074 0
M  V30 9754 H 927.666 -0.696417 0.270208 0
M  V30 9755 H 930.328 -1.43912 1.31435 0
M  V30 9756 H 929.424 -2.94222 1.04115 0
M  V30 9757 N 929.725 -0.817259 -1.34754 0
M  V30 9758 C 930.953 -0.415451 -2.02686 0
M  V30 9759 C 931.368 0.97688 -1.61563 0
M  V30 9760 O 930.725 1.63125 -0.818321 0
M  V30 9761 C 930.776 -0.501486 -3.58005 0
M  V30 9762 O 930.497 -1.83893 -3.97637 0
M  V30 9763 C 931.998 -0.0938504 -4.43201 0
M  V30 9764 H 929.218 -0.16742 -0.649778 0
M  V30 9765 H 931.762 -1.10384 -1.7215 0
M  V30 9766 H 929.917 0.138766 -3.87151 0
M  V30 9767 H 930.331 -1.8092 -4.92309 0
M  V30 9768 H 931.805 -0.205145 -5.51619 0
M  V30 9769 H 932.282 0.962011 -4.28535 0
M  V30 9770 H 932.888 -0.707677 -4.19371 0
M  V30 9771 N 931.203 1.46865 -0.571711 0
M  V30 9772 C 932.614 1.86158 -0.142181 0
M  V30 9773 C 932.965 1.47663 1.2919 0
M  V30 9774 O 932.09 0.886393 1.97413 0
M  V30 9775 C 932.685 3.37867 -0.251256 0
M  V30 9776 C 931.244 3.76198 0.123329 0
M  V30 9777 C 930.391 2.70902 -0.592232 0
M  V30 9778 H 933.342 1.38176 -0.780587 0
M  V30 9779 H 933.363 3.76842 0.526331 0
M  V30 9780 H 932.875 3.65853 -1.2951 0
M  V30 9781 H 930.976 3.53829 1.16773 0
M  V30 9782 H 931.089 4.78471 -0.24533 0
M  V30 9783 H 929.453 2.54678 -0.0336927 0
M  V30 9784 H 930.236 3.01729 -1.63751 0
M  V30 9785 N 932.681 0.308908 1.54543 0
M  V30 9786 C 933.927 -0.298478 2.00592 0
M  V30 9787 C 934.26 -1.52929 1.19692 0
M  V30 9788 O 933.535 -1.9254 0.27542 0
M  V30 9789 C 933.818 -0.647218 3.54236 0
M  V30 9790 C 933.671 0.593284 4.4587 0
M  V30 9791 C 934.99 -1.47064 4.14801 0
M  V30 9792 H 932.109 -0.107012 0.72919 0
M  V30 9793 H 934.751 0.422578 1.85241 0
M  V30 9794 H 932.901 -1.26153 3.67447 0
M  V30 9795 H 934.573 1.2317 4.44552 0
M  V30 9796 H 932.816 1.22501 4.16144 0
M  V30 9797 H 933.487 0.305018 5.51157 0
M  V30 9798 H 935.963 -0.951511 4.05075 0
M  V30 9799 H 934.839 -1.68343 5.22448 0
M  V30 9800 H 935.1 -2.4623 3.67183 0
M  V30 9801 N 934.159 -1.57557 0.0367827 0
M  V30 9802 C 935.406 -1.92114 -0.640185 0
M  V30 9803 C 935.734 -0.913887 -1.71693 0
M  V30 9804 O 934.989 0.0760343 -1.95552 0
M  V30 9805 C 935.288 -3.33387 -1.28794 0
M  V30 9806 C 934.954 -4.4961 -0.340819 0
M  V30 9807 C 933.616 -4.81133 -0.0801574 0
M  V30 9808 C 935.968 -5.20283 0.309106 0
M  V30 9809 C 933.296 -5.80683 0.838107 0
M  V30 9810 C 935.648 -6.20813 1.21547 0
M  V30 9811 C 934.312 -6.50773 1.48495 0
M  V30 9812 H 933.582 -0.702996 -0.23426 0
M  V30 9813 H 936.229 -1.91238 0.100188 0
M  V30 9814 H 934.534 -3.30561 -2.10324 0
M  V30 9815 H 936.231 -3.57399 -1.81843 0
M  V30 9816 H 932.821 -4.25002 -0.554161 0
M  V30 9817 H 937.005 -4.96153 0.120794 0
M  V30 9818 H 932.261 -6.02238 1.05451 0
M  V30 9819 H 936.435 -6.74692 1.72522 0
M  V30 9820 H 934.062 -7.27727 2.19814 0
M  V30 9821 N 935.637 0.236453 -1.55816 0
M  V30 9822 C 936.883 0.964439 -1.784 0
M  V30 9823 C 937.216 1.84573 -0.603868 0
M  V30 9824 O 936.491 1.90395 0.397473 0
M  V30 9825 C 936.774 1.81608 -3.10951 0
M  V30 9826 C 936.627 0.962283 -4.39386 0
M  V30 9827 C 937.946 2.79665 -3.39817 0
M  V30 9828 H 935.065 0.349192 -0.649026 0
M  V30 9829 H 937.707 0.234247 -1.8855 0
M  V30 9830 H 935.857 2.43864 -3.02428 0
M  V30 9831 H 937.529 0.35762 -4.59912 0
M  V30 9832 H 935.772 0.267062 -4.32977 0
M  V30 9833 H 936.443 1.59222 -5.28538 0
M  V30 9834 H 938.919 2.27546 -3.4837 0
M  V30 9835 H 937.795 3.36367 -4.33761 0
M  V30 9836 H 938.056 3.56657 -2.61244 0
M  V30 9837 N 937.115 1.49373 0.502552 0
M  V30 9838 C 938.065 1.62321 1.60112 0
M  V30 9839 C 939.049 0.47895 1.53606 0
M  V30 9840 O 940.241 0.731824 1.61162 0
M  V30 9841 C 937.37 1.69162 2.98729 0
M  V30 9842 C 936.456 2.89161 3.10237 0
M  V30 9843 N 936.847 4.13256 2.91638 0
M  V30 9844 C 935.145 2.87065 3.41335 0
M  V30 9845 C 935.846 4.93913 3.07287 0
M  V30 9846 N 934.822 4.27249 3.36094 0
M  V30 9847 H 938.624 2.55989 1.44384 0
M  V30 9848 H 936.138 1.46123 0.708644 0
M  V30 9849 H 938.135 1.76536 3.77678 0
M  V30 9850 H 936.795 0.766301 3.15528 0
M  V30 9851 H 937.806 4.4326 2.67844 0
M  V30 9852 H 934.483 2.03905 3.6432 0
M  V30 9853 H 935.873 6.02491 2.97413 0
M  V30 9854 N 938.594 -0.753485 1.38421 0
M  V30 9855 C 939.557 -1.84888 1.35459 0
M  V30 9856 C 940.557 -1.58764 0.255083 0
M  V30 9857 O 941.747 -1.66507 0.511978 0
M  V30 9858 C 938.879 -3.22361 1.10888 0
M  V30 9859 H 940.072 -1.88922 2.32913 0
M  V30 9860 H 937.625 -0.955199 1.23716 0
M  V30 9861 H 938.36 -3.23996 0.1404 0
M  V30 9862 H 938.145 -3.42717 1.90492 0
M  V30 9863 H 939.635 -4.02437 1.1151 0
M  V30 9864 N 940.072 -1.23292 -0.981677 0
M  V30 9865 C 941.32 -1.06214 -1.71939 0
M  V30 9866 C 941.641 0.401989 -1.90812 0
M  V30 9867 O 940.911 1.28825 -1.47584 0
M  V30 9868 H 939.491 -0.390042 -0.637084 0
M  V30 9869 H 942.153 -1.54988 -1.18173 0
M  V30 9870 H 941.249 -1.54904 -2.70945 0
M  V30 9871 N 941.55 1.18024 -1.04442 0
M  V30 9872 C 942.961 1.69749 -0.777312 0
M  V30 9873 C 943.312 1.83234 0.701399 0
M  V30 9874 O 942.437 1.51452 1.54568 0
M  V30 9875 C 943.032 3.08321 -1.40441 0
M  V30 9876 C 941.591 3.57243 -1.18553 0
M  V30 9877 C 940.738 2.33695 -1.49271 0
M  V30 9878 H 943.689 1.02647 -1.21035 0
M  V30 9879 H 943.71 3.71787 -0.809628 0
M  V30 9880 H 943.222 2.98474 -2.48062 0
M  V30 9881 H 941.323 3.72379 -0.128221 0
M  V30 9882 H 941.436 4.40451 -1.88519 0
M  V30 9883 H 939.8 2.37792 -0.912526 0
M  V30 9884 H 940.583 2.26464 -2.5801 0
M  V30 9885 N 943.028 0.824394 1.34319 0
M  V30 9886 C 944.275 0.413167 1.9824 0
M  V30 9887 C 944.603 -1.02412 1.65354 0
M  V30 9888 O 943.858 -1.72831 0.91803 0
M  V30 9889 C 944.157 0.564024 3.52921 0
M  V30 9890 C 943.823 1.96725 4.05722 0
M  V30 9891 C 942.485 2.35111 4.19853 0
M  V30 9892 C 944.837 2.88447 4.34106 0
M  V30 9893 C 942.165 3.64551 4.59695 0
M  V30 9894 C 944.517 4.17353 4.75394 0
M  V30 9895 C 943.181 4.55714 4.8773 0
M  V30 9896 H 942.451 0.151188 0.725412 0
M  V30 9897 H 945.098 1.04863 1.60238 0
M  V30 9898 H 943.403 -0.154816 3.91494 0
M  V30 9899 H 945.1 0.226347 4.00361 0
M  V30 9900 H 941.69 1.65908 3.95187 0
M  V30 9901 H 945.874 2.60034 4.22725 0
M  V30 9902 H 941.13 3.94097 4.67437 0
M  V30 9903 H 945.304 4.88512 4.96315 0
M  V30 9904 H 942.931 5.56064 5.1836 0
M  V30 9905 N 944.506 -1.46559 0.579492 0
M  V30 9906 C 945.469 -2.28739 -0.145371 0
M  V30 9907 C 946.469 -1.38211 -0.821854 0
M  V30 9908 O 947.659 -1.6062 -0.674302 0
M  V30 9909 C 944.791 -3.18507 -1.21515 0
M  V30 9910 H 945.984 -2.94301 0.576786 0
M  V30 9911 H 943.537 -1.52616 0.337327 0
M  V30 9912 H 944.272 -2.57685 -1.96899 0
M  V30 9913 H 944.057 -3.85157 -0.734616 0
M  V30 9914 H 945.547 -3.80369 -1.72363 0
M  V30 9915 N 945.984 -0.3171 -1.54377 0
M  V30 9916 C 946.932 0.567371 -2.25574 0
M  V30 9917 C 947.926 1.12387 -1.2675 0
M  V30 9918 O 949.132 1.07266 -1.44548 0
M  V30 9919 H 945.507 0.201605 -0.724472 0
M  V30 9920 H 947.478 -0.0554644 -2.98348 0
M  V30 9921 C 946.227 1.71984 -3.02187 0
M  V30 9922 H 945.55 1.30086 -3.78044 0
M  V30 9923 H 946.99 2.31443 -3.5526 0
M  V30 9924 C 945.449 2.6336 -2.10103 0
M  V30 9925 O 945.979 3.64899 -1.67962 0
M  V30 9926 N 944.185 2.3145 -1.75725 0
M  V30 9927 H 943.732 1.48921 -2.10191 0
M  V30 9928 H 943.69 2.92852 -1.14391 0
M  V30 9929 N 947.462 1.57535 -0.0451378 0
M  V30 9930 C 948.711 1.91628 0.629415 0
M  V30 9931 C 949.024 0.924754 1.72359 0
M  V30 9932 O 950.23 1.15751 2.45589 0
M  V30 9933 C 948.686 3.40322 1.17084 0
M  V30 9934 C 948.294 4.47867 0.109101 0
M  V30 9935 C 950.038 3.83458 1.82099 0
M  V30 9936 C 947.945 5.87671 0.663072 0
M  V30 9937 H 946.875 0.715163 0.238868 0
M  V30 9938 H 949.526 1.83151 -0.113046 0
M  V30 9939 H 947.908 3.43783 1.96543 0
M  V30 9940 H 949.082 4.55988 -0.664201 0
M  V30 9941 H 947.397 4.14034 -0.443227 0
M  V30 9942 H 949.994 4.85273 2.2453 0
M  V30 9943 H 950.337 3.19379 2.67026 0
M  V30 9944 H 950.87 3.82488 1.09305 0
M  V30 9945 H 947.609 6.55332 -0.148423 0
M  V30 9946 H 947.129 5.83124 1.4045 0
M  V30 9947 H 948.808 6.36737 1.14785 0
M  V30 9948 N 948.94 -0.228186 1.55939 0
M  V30 9949 C 949.903 -1.26621 1.91049 0
M  V30 9950 C 950.903 -1.40141 0.788491 0
M  V30 9951 O 952.093 -1.3852 1.05631 0
M  V30 9952 C 949.225 -2.64108 2.15545 0
M  V30 9953 H 950.418 -0.966978 2.83883 0
M  V30 9954 H 947.971 -0.468313 1.49119 0
M  V30 9955 H 948.706 -2.99141 1.25241 0
M  V30 9956 H 948.491 -2.55673 2.97277 0
M  V30 9957 H 949.981 -3.39025 2.43827 0
M  V30 9958 N 950.418 -1.49637 -0.494624 0
M  V30 9959 C 951.368 -1.63168 -1.59249 0
M  V30 9960 C 952.352 -0.487089 -1.5335 0
M  V30 9961 O 953.544 -0.74036 -1.60772 0
M  V30 9962 C 950.673 -1.70744 -2.97828 0
M  V30 9963 C 949.759 -2.90802 -3.08699 0
M  V30 9964 N 950.15 -4.14797 -2.89442 0
M  V30 9965 C 948.448 -2.88871 -3.39808 0
M  V30 9966 C 949.149 -4.95535 -3.04663 0
M  V30 9967 N 948.125 -4.29025 -3.33824 0
M  V30 9968 H 951.927 -2.56751 -1.43024 0
M  V30 9969 H 949.441 -1.46497 -0.700885 0
M  V30 9970 H 951.438 -1.78537 -3.76736 0
M  V30 9971 H 950.098 -0.783024 -3.15117 0
M  V30 9972 H 951.109 -4.44675 -2.6549 0
M  V30 9973 H 947.786 -2.05834 -3.63233 0
M  V30 9974 H 949.176 -6.0406 -2.94214 0
M  V30 9975 N 951.896 0.746133 -1.38819 0
M  V30 9976 C 953.144 1.50247 -1.35167 0
M  V30 9977 C 953.465 1.94921 0.0553531 0
M  V30 9978 O 952.735 1.68187 1.00449 0
M  V30 9979 H 951.315 0.557337 -0.497377 0
M  V30 9980 H 953.977 0.886472 -1.73573 0
M  V30 9981 H 953.073 2.38986 -2.00728 0
M  V30 9982 N 953.375 1.23811 0.975125 0
M  V30 9983 C 954.323 1.02149 2.0897 0
M  V30 9984 C 955.317 -0.0412172 1.6935 0
M  V30 9985 O 956.523 0.112726 1.79647 0
M  V30 9986 H 952.898 0.313259 0.683647 0
M  V30 9987 H 954.869 1.96686 2.24404 0
M  V30 9988 C 953.618 0.635023 3.41852 0
M  V30 9989 H 952.941 1.44449 3.72793 0
M  V30 9990 H 954.381 0.52301 4.20762 0
M  V30 9991 C 952.84 -0.657207 3.30428 0
M  V30 9992 O 953.37 -1.70494 3.63723 0
M  V30 9993 N 951.576 -0.635122 2.83575 0
M  V30 9994 H 951.123 0.21784 2.56677 0
M  V30 9995 H 951.081 -1.49995 2.76313 0
M  V30 9996 N 954.853 -1.17469 1.05066 0
M  V30 9997 C 956.078 -1.92162 0.780298 0
M  V30 9998 C 956.503 -1.76222 -0.657832 0
M  V30 9999 O 955.861 -1.0791 -1.45688 0
M  V30 10000 C 955.909 -3.41292 1.16414 0
M  V30 10001 O 955.013 -4.1134 0.295531 0
M  V30 10002 H 954.354 -0.599127 0.286257 0
M  V30 10003 H 956.884 -1.48903 1.40318 0
M  V30 10004 H 956.894 -3.92029 1.13036 0
M  V30 10005 H 955.569 -3.52214 2.21175 0
M  V30 10006 H 954.146 -3.70857 0.389797 0
M  V30 10007 N 956.331 -0.831506 -1.3388 0
M  V30 10008 C 957.556 -0.435954 -2.02766 0
M  V30 10009 C 957.981 0.952889 -1.62178 0
M  V30 10010 O 957.339 1.62166 -0.810681 0
M  V30 10011 C 957.387 -0.555907 -3.56289 0
M  V30 10012 O 956.491 0.420826 -4.10247 0
M  V30 10013 H 955.832 -0.178248 -0.639628 0
M  V30 10014 H 958.362 -1.1243 -1.70941 0
M  V30 10015 H 958.372 -0.434831 -4.05676 0
M  V30 10016 H 957.047 -1.56881 -3.85177 0
M  V30 10017 H 955.624 0.257919 -3.72007 0
M  V30 10018 N 957.809 1.4625 -0.587256 0
M  V30 10019 C 959.058 2.01571 -0.0722643 0
M  V30 10020 C 959.371 1.46385 1.29733 0
M  V30 10021 O 960.577 1.93554 1.90392 0
M  V30 10022 C 959.033 3.59814 -0.078579 0
M  V30 10023 C 958.641 4.23996 -1.44678 0
M  V30 10024 C 960.385 4.22776 0.382231 0
M  V30 10025 C 958.292 5.74332 -1.41057 0
M  V30 10026 H 957.222 0.753642 -0.0232461 0
M  V30 10027 H 959.873 1.67936 -0.739577 0
M  V30 10028 H 958.255 3.90546 0.654988 0
M  V30 10029 H 959.429 4.04867 -2.20043 0
M  V30 10030 H 957.744 3.73147 -1.84799 0
M  V30 10031 H 960.341 5.32983 0.428182 0
M  V30 10032 H 960.684 3.92027 1.40072 0
M  V30 10033 H 961.217 3.96687 -0.297417 0
M  V30 10034 H 957.956 6.09747 -2.40601 0
M  V30 10035 H 957.476 5.95711 -0.699185 0
M  V30 10036 H 959.155 6.37137 -1.12543 0
M  V30 10037 N 959.287 0.325282 1.54207 0
M  V30 10038 C 960.536 -0.27768 1.99779 0
M  V30 10039 C 960.849 -1.5311 1.21723 0
M  V30 10040 O 962.055 -2.21017 1.57682 0
M  V30 10041 C 960.511 -0.545329 3.55745 0
M  V30 10042 C 960.119 0.691143 4.42637 0
M  V30 10043 C 961.863 -1.10815 4.09781 0
M  V30 10044 C 959.77 0.395302 5.90077 0
M  V30 10045 H 958.7 -0.107536 0.746292 0
M  V30 10046 H 961.351 0.437773 1.78202 0
M  V30 10047 H 959.733 -1.32101 3.73317 0
M  V30 10048 H 960.907 1.46653 4.3684 0
M  V30 10049 H 959.222 1.1743 3.99499 0
M  V30 10050 H 961.819 -1.34414 5.1753 0
M  V30 10051 H 962.162 -2.05806 3.6187 0
M  V30 10052 H 962.695 -0.393608 3.95848 0
M  V30 10053 H 959.434 1.31443 6.42186 0
M  V30 10054 H 958.954 -0.34235 5.98822 0
M  V30 10055 H 960.633 0.00576877 6.47 0
M  V30 10056 N 960.765 -1.57509 0.0534917 0
M  V30 10057 C 961.728 -2.10563 -0.905307 0
M  V30 10058 C 962.728 -1.02571 -1.23838 0
M  V30 10059 O 963.918 -1.28635 -1.17468 0
M  V30 10060 C 961.05 -2.5918 -2.21447 0
M  V30 10061 H 962.243 -2.96575 -0.445354 0
M  V30 10062 H 959.796 -1.55079 -0.194947 0
M  V30 10063 H 960.531 -1.76568 -2.72019 0
M  V30 10064 H 960.316 -3.38098 -1.98575 0
M  V30 10065 H 961.806 -3.00365 -2.90122 0
M  V30 10066 N 962.243 0.219913 -1.56058 0
M  V30 10067 C 963.52 0.968493 -1.6994 0
M  V30 10068 C 963.9 2.02358 -0.601219 0
M  V30 10069 O 963.248 2.25121 0.391534 0
M  V30 10070 C 963.458 1.57745 -3.11316 0
M  V30 10071 C 964.806 2.06908 -3.70775 0
M  V30 10072 O 965.83 1.67636 -3.14288 0
M  V30 10073 O 964.689 2.79096 -4.69859 0
M  V30 10074 H 961.783 0.452521 -0.692209 0
M  V30 10075 H 964.329 0.211566 -1.68376 0
M  V30 10076 H 963.101 0.815687 -3.82704 0
M  V30 10077 H 962.724 2.39987 -3.17005 0
M  V30 10078 N 963.721 1.49897 0.486681 0
M  V30 10079 C 965.137 1.36977 0.819109 0
M  V30 10080 C 965.337 0.41385 1.97204 0
M  V30 10081 O 964.393 -0.149249 2.52059 0
M  V30 10082 C 965.706 2.78013 1.14584 0
M  V30 10083 C 967.254 2.86816 1.25321 0
M  V30 10084 C 967.729 4.28651 1.61316 0
M  V30 10085 N 969.22 4.31528 1.68337 0
M  V30 10086 C 969.955 5.38254 1.97662 0
M  V30 10087 N 969.451 6.55207 2.25113 0
M  V30 10088 N 971.244 5.25683 1.99033 0
M  V30 10089 H 963.395 2.10634 -0.273364 0
M  V30 10090 H 965.658 0.946116 -0.0597418 0
M  V30 10091 H 965.364 3.49728 0.371892 0
M  V30 10092 H 965.238 3.1428 2.08585 0
M  V30 10093 H 967.625 2.15329 2.01785 0
M  V30 10094 H 967.706 2.54112 0.293368 0
M  V30 10095 H 967.35 5.00669 0.853968 0
M  V30 10096 H 967.28 4.5883 2.58424 0
M  V30 10097 H 969.771 3.47189 1.49226 0
M  V30 10098 H 970.084 7.32359 2.46717 0
M  V30 10099 H 968.429 6.58408 2.22538 0
M  V30 10100 H 971.62 4.33316 1.77074 0
M  V30 10101 H 971.793 6.08949 2.21552 0
M  V30 10102 N 965.199 -0.738761 1.39212 0
M  V30 10103 C 966.448 -1.49368 1.35543 0
M  V30 10104 C 966.761 -1.95543 -0.0471091 0
M  V30 10105 O 967.967 -2.70714 -0.206376 0
M  V30 10106 C 966.423 -2.69882 2.381 0
M  V30 10107 C 966.031 -2.30672 3.8405 0
M  V30 10108 C 967.775 -3.47718 2.435 0
M  V30 10109 C 965.682 -3.47886 4.78256 0
M  V30 10110 H 964.612 -0.560898 0.503894 0
M  V30 10111 H 967.263 -0.806221 1.6484 0
M  V30 10112 H 965.645 -3.40684 2.01867 0
M  V30 10113 H 966.819 -1.67441 4.29302 0
M  V30 10114 H 965.134 -1.65936 3.81909 0
M  V30 10115 H 967.731 -4.34897 3.11077 0
M  V30 10116 H 968.074 -3.89919 1.45838 0
M  V30 10117 H 968.607 -2.83942 2.78606 0
M  V30 10118 H 965.346 -3.10739 5.77167 0
M  V30 10119 H 964.866 -4.10111 4.37686 0
M  V30 10120 H 966.545 -4.14271 4.96979 0
M  V30 10121 N 966.677 -1.24326 -0.968545 0
M  V30 10122 C 967.64 -1.03591 -2.04454 0
M  V30 10123 C 968.64 0.0064809 -1.60799 0
M  V30 10124 O 969.83 -0.234404 -1.72616 0
M  V30 10125 C 966.962 -0.56992 -3.36102 0
M  V30 10126 H 968.155 -1.99092 -2.24282 0
M  V30 10127 H 965.708 -1.06537 -1.14366 0
M  V30 10128 H 966.443 0.388325 -3.21967 0
M  V30 10129 H 966.228 -1.32227 -3.69132 0
M  V30 10130 H 967.718 -0.445854 -4.15213 0
M  V30 10131 N 968.156 1.1691 -1.05688 0
M  V30 10132 C 969.086 2.23275 -0.683402 0
M  V30 10133 C 970.067 1.6704 0.321206 0
M  V30 10134 O 971.252 1.93191 0.197691 0
M  V30 10135 C 968.382 3.47244 -0.0626006 0
M  V30 10136 C 967.336 4.16333 -0.992513 0
M  V30 10137 C 966.662 5.34182 -0.23533 0
M  V30 10138 C 967.962 4.68002 -2.31886 0
M  V30 10139 H 969.656 2.54771 -1.57264 0
M  V30 10140 H 967.202 1.2246 -0.757606 0
M  V30 10141 H 969.155 4.20874 0.210503 0
M  V30 10142 H 967.879 3.1503 0.861616 0
M  V30 10143 H 966.538 3.44622 -1.25026 0
M  V30 10144 H 966.186 4.9822 0.69181 0
M  V30 10145 H 965.886 5.81346 -0.855002 0
M  V30 10146 H 967.41 6.10592 0.0303717 0
M  V30 10147 H 968.824 5.33244 -2.10531 0
M  V30 10148 H 967.221 5.25764 -2.89296 0
M  V30 10149 H 968.291 3.84541 -2.95391 0
M  V30 10150 N 969.634 0.838594 1.33437 0
M  V30 10151 C 970.581 0.269609 2.2922 0
M  V30 10152 C 971.551 -0.614429 1.54318 0
M  V30 10153 O 972.736 -0.552756 1.82618 0
M  V30 10154 C 969.876 -0.549527 3.40697 0
M  V30 10155 C 968.989 0.358502 4.3051 0
M  V30 10156 C 968.124 -0.471709 5.29101 0
M  V30 10157 C 967.163 0.434728 6.10554 0
M  V30 10158 N 966.3 -0.357339 7.0119 0
M  V30 10159 H 971.14 1.09172 2.77282 0
M  V30 10160 H 968.677 0.549832 1.36438 0
M  V30 10161 H 970.635 -1.03992 4.04032 0
M  V30 10162 H 969.265 -1.33661 2.93828 0
M  V30 10163 H 968.317 0.967204 3.67899 0
M  V30 10164 H 969.629 1.05483 4.87519 0
M  V30 10165 H 968.783 -1.02594 5.97963 0
M  V30 10166 H 967.522 -1.20147 4.72669 0
M  V30 10167 H 966.527 1.00097 5.40611 0
M  V30 10168 H 967.752 1.16285 6.6907 0
M  V30 10169 H 965.698 -1.07049 6.47207 0
M  V30 10170 H 965.615 0.280277 7.5548 0
M  V30 10171 H 966.883 -0.893814 7.74359 0
M  V30 10172 N 971.112 -1.45937 0.595003 0
M  V30 10173 C 972.042 -2.33198 -0.11871 0
M  V30 10174 C 973.023 -1.46083 -0.871423 0
M  V30 10175 O 974.208 -1.74879 -0.844461 0
M  V30 10176 C 971.338 -3.28576 -1.12495 0
M  V30 10177 C 970.292 -4.25229 -0.486275 0
M  V30 10178 C 969.618 -5.10204 -1.59986 0
M  V30 10179 C 970.918 -5.19019 0.584473 0
M  V30 10180 H 972.612 -2.93122 0.609886 0
M  V30 10181 H 970.158 -1.40951 0.294742 0
M  V30 10182 H 972.111 -3.88485 -1.6327 0
M  V30 10183 H 970.835 -2.66784 -1.88398 0
M  V30 10184 H 969.494 -3.666 0.000507962 0
M  V30 10185 H 969.142 -4.44789 -2.34886 0
M  V30 10186 H 968.842 -5.75669 -1.1781 0
M  V30 10187 H 970.366 -5.7298 -2.11014 0
M  V30 10188 H 971.78 -5.73073 0.161297 0
M  V30 10189 H 970.177 -5.92893 0.927256 0
M  V30 10190 H 971.247 -4.62208 1.46601 0
M  V30 10191 N 972.59 -0.333456 -1.54032 0
M  V30 10192 C 973.836 0.266527 -2.01041 0
M  V30 10193 C 974.169 1.51006 -1.2211 0
M  V30 10194 O 973.444 1.92078 -0.306016 0
M  V30 10195 C 973.727 0.59078 -3.55221 0
M  V30 10196 C 973.58 -0.664143 -4.4487 0
M  V30 10197 C 974.899 1.40447 -4.17088 0
M  V30 10198 H 972.018 0.0953979 -0.7308 0
M  V30 10199 H 974.66 -0.451995 -1.84545 0
M  V30 10200 H 972.81 1.20292 -3.69408 0
M  V30 10201 H 974.482 -1.30227 -4.42537 0
M  V30 10202 H 972.725 -1.29106 -4.14143 0
M  V30 10203 H 973.396 -0.392664 -5.50602 0
M  V30 10204 H 975.872 0.886946 -4.06537 0
M  V30 10205 H 974.748 1.6001 -5.2506 0
M  V30 10206 H 975.009 2.40357 -3.71054 0
M  V30 10207 N 974.068 1.57479 -0.061844 0
M  V30 10208 C 975.316 1.92727 0.608336 0
M  V30 10209 C 975.637 0.941799 1.70749 0
M  V30 10210 O 974.907 -0.0116608 1.95897 0
M  V30 10211 H 973.487 0.71145 0.2277 0
M  V30 10212 H 976.149 1.94546 -0.117359 0
M  V30 10213 H 975.245 2.9426 1.04007 0
M  V30 10214 N 975.546 -0.211634 1.56173 0
M  V30 10215 C 976.957 -0.777776 1.69728 0
M  V30 10216 C 977.308 -1.84566 0.66558 0
M  V30 10217 O 976.433 -2.15639 -0.181338 0
M  V30 10218 C 977.028 -1.41757 3.07718 0
M  V30 10219 C 975.587 -1.93098 3.23094 0
M  V30 10220 C 974.734 -0.794785 2.65666 0
M  V30 10221 H 977.685 0.0131839 1.58695 0
M  V30 10222 H 977.706 -2.28662 3.04128 0
M  V30 10223 H 977.218 -0.640114 3.82785 0
M  V30 10224 H 975.319 -2.73615 2.52914 0
M  V30 10225 H 975.432 -2.10414 4.30422 0
M  V30 10226 H 973.796 -1.20473 2.24407 0
M  V30 10227 H 974.579 -0.0298408 3.43287 0
M  V30 10228 N 977.024 -1.50153 -0.478725 0
M  V30 10229 C 977.934 -1.71232 -1.60364 0
M  V30 10230 C 978.95 -0.595269 -1.63501 0
M  V30 10231 O 980.126 -0.872683 -1.81511 0
M  V30 10232 C 977.191 -1.79487 -2.96623 0
M  V30 10233 C 976.252 -3.03185 -3.03937 0
M  V30 10234 C 975.485 -3.11036 -4.33696 0
M  V30 10235 O 975.708 -2.2588 -5.23769 0
M  V30 10236 O 974.642 -4.03698 -4.46443 0
M  V30 10237 H 978.468 -2.66575 -1.45505 0
M  V30 10238 H 976.053 -1.34158 -0.65741 0
M  V30 10239 H 977.935 -1.8714 -3.77567 0
M  V30 10240 H 976.61 -0.873264 -3.11698 0
M  V30 10241 H 975.517 -3.01036 -2.22099 0
M  V30 10242 H 976.85 -3.94898 -2.93796 0
M  V30 10243 N 978.502 0.731368 -1.39602 0
M  V30 10244 C 979.75 1.48805 -1.36753 0
M  V30 10245 C 980.071 1.94969 0.034676 0
M  V30 10246 O 979.341 1.69243 0.986591 0
M  V30 10247 H 977.921 0.55203 -0.503261 0
M  V30 10248 H 980.583 0.868013 -1.74504 0
M  V30 10249 H 979.679 2.36844 -2.03252 0
M  V30 10250 N 979.98 1.24838 0.961938 0
M  V30 10251 C 981.227 1.09151 1.70564 0
M  V30 10252 C 981.555 -0.368719 1.90973 0
M  V30 10253 O 980.81 -1.28854 1.47293 0
M  V30 10254 C 981.109 1.78289 3.09754 0
M  V30 10255 C 980.775 3.28216 3.09169 0
M  V30 10256 C 979.437 3.69118 3.08716 0
M  V30 10257 C 981.789 4.24035 3.03058 0
M  V30 10258 C 979.117 5.04263 2.99892 0
M  V30 10259 C 981.469 5.59195 2.95776 0
M  V30 10260 C 980.133 5.99436 2.93655 0
M  V30 10261 H 979.403 0.399414 0.624139 0
M  V30 10262 H 982.05 1.55016 1.12438 0
M  V30 10263 H 980.355 1.24835 3.7138 0
M  V30 10264 H 982.052 1.63612 3.66104 0
M  V30 10265 H 978.642 2.95667 3.10289 0
M  V30 10266 H 982.826 3.93431 3.02532 0
M  V30 10267 H 978.082 5.3463 2.96615 0
M  V30 10268 H 982.256 6.33142 2.90007 0
M  V30 10269 H 979.883 7.04116 2.86573 0
M  V30 10270 N 981.458 -1.16348 1.06306 0
M  V30 10271 C 982.704 -1.87158 0.781007 0
M  V30 10272 C 983.037 -1.81499 -0.690784 0
M  V30 10273 O 982.312 -1.23074 -1.50609 0
M  V30 10274 C 982.595 -3.3672 1.27639 0
M  V30 10275 C 982.448 -3.51069 2.81194 0
M  V30 10276 C 983.767 -4.31122 0.884388 0
M  V30 10277 H 980.886 -0.679586 0.285187 0
M  V30 10278 H 983.528 -1.36756 1.31901 0
M  V30 10279 H 981.678 -3.79775 0.818715 0
M  V30 10280 H 983.35 -3.16952 3.35171 0
M  V30 10281 H 981.593 -2.92976 3.19918 0
M  V30 10282 H 982.264 -4.56105 3.10921 0
M  V30 10283 H 984.74 -3.95969 1.27858 0
M  V30 10284 H 983.616 -5.34279 1.25847 0
M  V30 10285 H 983.877 -4.41598 -0.210673 0
M  V30 10286 N 982.937 -0.845659 -1.3299 0
M  V30 10287 C 984.183 -0.445311 -1.9785 0
M  V30 10288 C 984.516 0.994476 -1.66805 0
M  V30 10289 O 983.791 1.69636 -0.95151 0
M  V30 10290 C 984.074 -0.674371 -3.53729 0
M  V30 10291 C 983.927 -2.16192 -3.94437 0
M  V30 10292 C 985.246 -0.124908 -4.39923 0
M  V30 10293 H 982.365 -0.163269 -0.718688 0
M  V30 10294 H 985.007 -1.06242 -1.5752 0
M  V30 10295 H 983.157 -0.149091 -3.88214 0
M  V30 10296 H 984.829 -2.75259 -3.70176 0
M  V30 10297 H 983.072 -2.64386 -3.43922 0
M  V30 10298 H 983.743 -2.27292 -5.03033 0
M  V30 10299 H 986.219 -0.573986 -4.12122 0
M  V30 10300 H 985.095 -0.314816 -5.47996 0
M  V30 10301 H 985.356 0.971758 -4.31288 0
M  V30 10302 N 984.415 1.45619 -0.602734 0
M  V30 10303 C 985.643 2.06647 -0.102253 0
M  V30 10304 C 986.058 1.4482 1.21131 0
M  V30 10305 O 985.415 0.560621 1.73676 0
M  V30 10306 C 985.466 3.61467 0.0490113 0
M  V30 10307 O 985.187 4.20985 -1.21257 0
M  V30 10308 C 986.688 4.39469 0.581517 0
M  V30 10309 H 983.908 0.667685 -0.0666155 0
M  V30 10310 H 986.452 1.86939 -0.829091 0
M  V30 10311 H 984.607 3.80534 0.726153 0
M  V30 10312 H 985.021 5.14103 -1.03915 0
M  V30 10313 H 986.495 5.48318 0.636462 0
M  V30 10314 H 986.972 4.0891 1.60277 0
M  V30 10315 H 987.578 4.25256 -0.061419 0
M  V30 10316 N 985.893 0.34162 1.53853 0
M  V30 10317 C 986.803 -0.524555 2.2866 0
M  V30 10318 C 987.819 -1.1136 1.33697 0
M  V30 10319 O 988.995 -1.1297 1.66732 0
M  V30 10320 C 986.06 -1.66065 3.04341 0
M  V30 10321 C 985.121 -1.10158 4.14926 0
M  V30 10322 C 984.354 -2.18353 4.86988 0
M  V30 10323 O 984.577 -3.39038 4.58704 0
M  V30 10324 O 983.511 -1.82756 5.73484 0
M  V30 10325 H 987.337 0.0835014 3.03585 0
M  V30 10326 H 984.922 0.106727 1.49018 0
M  V30 10327 H 986.804 -2.3217 3.51674 0
M  V30 10328 H 985.479 -2.25456 2.32275 0
M  V30 10329 H 984.386 -0.405109 3.719 0
M  V30 10330 H 985.719 -0.552567 4.89088 0
M  V30 10331 N 987.371 -1.57444 0.0701946 0
M  V30 10332 C 988.334 -2.11511 -0.882923 0
M  V30 10333 C 989.334 -1.03879 -1.22743 0
M  V30 10334 O 990.524 -1.29874 -1.16097 0
M  V30 10335 C 987.656 -2.61514 -2.18686 0
M  V30 10336 H 988.849 -2.9703 -0.413873 0
M  V30 10337 H 986.402 -1.55278 -0.178488 0
M  V30 10338 H 987.137 -1.79443 -2.70131 0
M  V30 10339 H 986.922 -3.40185 -1.94978 0
M  V30 10340 H 988.412 -3.03425 -2.86919 0
M  V30 10341 N 988.849 0.203349 -1.56283 0
M  V30 10342 C 990.097 0.923183 -1.79782 0
M  V30 10343 C 990.418 1.84134 -0.64185 0
M  V30 10344 O 989.688 1.92922 0.340292 0
M  V30 10345 H 988.268 0.343881 -0.66314 0
M  V30 10346 H 990.93 0.210837 -1.93756 0
M  V30 10347 H 990.026 1.51921 -2.72629 0
M  V30 10348 N 990.327 1.50405 0.470755 0
M  V30 10349 C 991.574 1.61411 1.22281 0
M  V30 10350 C 991.902 0.314603 1.91939 0
M  V30 10351 O 991.157 -0.699531 1.82771 0
M  V30 10352 C 991.456 2.74426 2.28965 0
M  V30 10353 C 991.122 4.14896 1.76557 0
M  V30 10354 C 989.784 4.53116 1.61985 0
M  V30 10355 C 992.136 5.02686 1.3768 0
M  V30 10356 C 989.464 5.76868 1.0696 0
M  V30 10357 C 991.816 6.26985 0.840967 0
M  V30 10358 C 990.48 6.64008 0.68188 0
M  V30 10359 H 989.75 0.590645 0.447459 0
M  V30 10360 H 992.397 1.84339 0.518783 0
M  V30 10361 H 990.702 2.45588 3.05277 0
M  V30 10362 H 992.399 2.80146 2.86914 0
M  V30 10363 H 988.989 3.84743 1.88867 0
M  V30 10364 H 993.173 4.7379 1.47772 0
M  V30 10365 H 988.429 6.04227 0.933808 0
M  V30 10366 H 992.603 6.94372 0.531066 0
M  V30 10367 H 990.23 7.59778 0.25335 0
M  V30 10368 N 991.805 -0.723954 1.39988 0
M  V30 10369 C 993.053 -1.48078 1.3754 0
M  V30 10370 C 993.374 -1.94985 -0.0243358 0
M  V30 10371 O 992.644 -1.69764 -0.977602 0
M  V30 10372 H 991.224 -0.549354 0.506181 0
M  V30 10373 H 993.886 -0.858746 1.74962 0
M  V30 10374 H 992.982 -2.35763 2.04505 0
M  V30 10375 N 993.283 -1.25346 -0.955304 0
M  V30 10376 C 994.246 -1.05754 -2.03344 0
M  V30 10377 C 995.246 -0.0105743 -1.60797 0
M  V30 10378 O 996.436 -0.252699 -1.72357 0
M  V30 10379 C 993.568 -0.605536 -3.35479 0
M  V30 10380 H 994.761 -2.01459 -2.22158 0
M  V30 10381 H 992.314 -1.07744 -1.1323 0
M  V30 10382 H 993.049 0.354154 -3.2236 0
M  V30 10383 H 992.834 -1.36134 -3.67709 0
M  V30 10384 H 994.324 -0.489867 -4.14717 0
M  V30 10385 N 994.761 1.15782 -1.06922 0
M  V30 10386 C 996.038 1.8253 -0.703 0
M  V30 10387 C 996.418 1.94733 0.814994 0
M  V30 10388 O 995.766 1.49537 1.72774 0
M  V30 10389 C 995.976 3.19145 -1.41234 0
M  V30 10390 C 997.324 3.94839 -1.56164 0
M  V30 10391 O 998.348 3.28685 -1.37277 0
M  V30 10392 O 997.207 5.13436 -1.87205 0
M  V30 10393 H 994.301 0.788425 -0.24963 0
M  V30 10394 H 996.847 1.22931 -1.16988 0
M  V30 10395 H 995.619 3.05336 -2.44715 0
M  V30 10396 H 995.242 3.86427 -0.935959 0
M  V30 10397 N 996.239 0.8527 1.3254 0
M  V30 10398 C 997.488 0.45136 1.96585 0
M  V30 10399 C 997.801 -0.997773 1.68237 0
M  V30 10400 O 999.007 -1.50445 2.26006 0
M  V30 10401 C 997.463 0.75619 3.51866 0
M  V30 10402 C 997.071 2.22092 3.89075 0
M  V30 10403 C 998.815 0.422478 4.22392 0
M  V30 10404 C 996.722 2.46908 5.37392 0
M  V30 10405 H 995.652 0.165052 0.735713 0
M  V30 10406 H 998.303 1.04321 1.50962 0
M  V30 10407 H 996.685 0.0937988 3.95889 0
M  V30 10408 H 997.859 2.92494 3.56067 0
M  V30 10409 H 996.174 2.51896 3.31568 0
M  V30 10410 H 998.771 0.58533 5.31487 0
M  V30 10411 H 999.114 -0.635737 4.11417 0
M  V30 10412 H 999.647 1.04068 3.83946 0
M  V30 10413 H 996.386 3.51346 5.53386 0
M  V30 10414 H 995.906 1.81082 5.71812 0
M  V30 10415 H 997.585 2.30758 6.0445 0
M  V30 10416 N 997.718 -1.45297 0.610449 0
M  V30 10417 C 998.966 -2.01819 0.106548 0
M  V30 10418 C 999.287 -1.48102 -1.26849 0
M  V30 10419 O 998.557 -0.676411 -1.83852 0
M  V30 10420 H 997.137 -0.746113 0.0363982 0
M  V30 10421 H 999.799 -1.78061 0.792491 0
M  V30 10422 H 998.895 -3.12045 0.0585 0
M  V30 10423 N 999.196 -0.349774 -1.5367 0
M  V30 10424 C 1000.13 0.547309 -2.2154 0
M  V30 10425 C 1001.11 1.09543 -1.20163 0
M  V30 10426 O 1002.29 1.15453 -1.49006 0
M  V30 10427 C 999.418 1.75356 -2.89772 0
M  V30 10428 C 998.464 1.33433 -4.0509 0
M  V30 10429 S 999.297 0.348891 -5.34362 0
M  V30 10430 C 1000.45 1.56183 -6.061 0
M  V30 10431 H 1000.69 -0.0291392 -2.97286 0
M  V30 10432 H 998.219 -0.133853 -1.53819 0
M  V30 10433 H 1000.18 2.44555 -3.29701 0
M  V30 10434 H 998.838 2.30123 -2.1378 0
M  V30 10435 H 998.031 2.23388 -4.5179 0
M  V30 10436 H 997.633 0.721746 -3.6697 0
M  V30 10437 H 999.925 2.49535 -6.29872 0
M  V30 10438 H 1000.87 1.13651 -6.9892 0
M  V30 10439 H 1001.28 1.76071 -5.36339 0
M  V30 10440 N 1000.67 1.57404 -0.0785433 0
M  V30 10441 C 1001.58 2.16612 0.900902 0
M  V30 10442 C 1002.6 1.13109 1.32221 0
M  V30 10443 O 1003.78 1.45406 1.39352 0
M  V30 10444 C 1000.84 2.7215 2.14791 0
M  V30 10445 C 999.902 3.90551 1.78237 0
M  V30 10446 C 999.135 4.43431 2.96993 0
M  V30 10447 O 999.358 3.95292 4.11218 0
M  V30 10448 O 998.292 5.34674 2.76418 0
M  V30 10449 H 1002.12 3.0068 0.427227 0
M  V30 10450 H 999.703 1.48696 0.144902 0
M  V30 10451 H 1001.58 3.07718 2.87902 0
M  V30 10452 H 1000.26 1.91139 2.61243 0
M  V30 10453 H 999.167 3.59825 1.02357 0
M  V30 10454 H 1000.5 4.72876 1.36562 0
M  V30 10455 N 1002.15 -0.195058 1.56388 0
M  V30 10456 C 1003.1 -1.24175 1.94549 0
M  V30 10457 C 1004.07 -1.45229 0.806089 0
M  V30 10458 O 1005.25 -1.58362 1.06425 0
M  V30 10459 C 1002.39 -2.58145 2.29031 0
M  V30 10460 C 1001.51 -2.44669 3.56035 0
M  V30 10461 C 1000.64 -3.71342 3.7984 0
M  V30 10462 C 999.681 -3.52699 5.0027 0
M  V30 10463 N 998.818 -4.71385 5.20328 0
M  V30 10464 H 1003.66 -0.909319 2.83788 0
M  V30 10465 H 1001.19 -0.437641 1.40439 0
M  V30 10466 H 1003.15 -3.36195 2.4704 0
M  V30 10467 H 1001.78 -2.8943 1.42933 0
M  V30 10468 H 1000.83 -1.57916 3.46073 0
M  V30 10469 H 1002.15 -2.26827 4.44242 0
M  V30 10470 H 1001.3 -4.57832 3.98088 0
M  V30 10471 H 1000.04 -3.92138 2.89964 0
M  V30 10472 H 999.045 -2.64594 4.81944 0
M  V30 10473 H 1000.27 -3.33349 5.91655 0
M  V30 10474 H 998.216 -4.92444 4.33399 0
M  V30 10475 H 998.133 -4.56368 6.02714 0
M  V30 10476 H 999.401 -5.59226 5.43035 0
M  V30 10477 N 1003.63 -1.50653 -0.462772 0
M  V30 10478 C 1004.88 -1.62057 -1.21424 0
M  V30 10479 C 1005.2 -0.324778 -1.91769 0
M  V30 10480 O 1004.46 0.689828 -1.83139 0
M  V30 10481 C 1004.76 -2.75637 -2.27507 0
M  V30 10482 C 1004.42 -4.15826 -1.74354 0
M  V30 10483 C 1003.09 -4.53969 -1.5958 0
M  V30 10484 C 1005.44 -5.03409 -1.35012 0
M  V30 10485 C 1002.77 -5.77427 -1.03899 0
M  V30 10486 C 1005.12 -6.27422 -0.807704 0
M  V30 10487 C 1003.78 -6.6436 -0.646657 0
M  V30 10488 H 1003.05 -0.59301 -0.44432 0
M  V30 10489 H 1005.7 -1.84612 -0.508999 0
M  V30 10490 H 1004 -2.47203 -3.0397 0
M  V30 10491 H 1005.7 -2.81663 -2.85424 0
M  V30 10492 H 1002.29 -3.85739 -1.86823 0
M  V30 10493 H 1006.48 -4.74567 -1.45258 0
M  V30 10494 H 1001.73 -6.04713 -0.901751 0
M  V30 10495 H 1005.91 -6.94644 -0.494234 0
M  V30 10496 H 1003.53 -7.59901 -0.213053 0
M  V30 10497 N 1005.11 0.71652 -1.4037 0
M  V30 10498 C 1006.36 1.47638 -1.38597 0
M  V30 10499 C 1006.68 1.94496 0.0120141 0
M  V30 10500 O 1005.94 1.68437 0.996373 0
M  V30 10501 C 1006.24 2.71777 -2.32103 0
M  V30 10502 C 1005.9 2.43689 -3.79376 0
M  V30 10503 C 1004.57 2.35739 -4.195 0
M  V30 10504 C 1006.92 2.20099 -4.72447 0
M  V30 10505 C 1004.25 2.02265 -5.50732 0
M  V30 10506 C 1006.6 1.88138 -6.03976 0
M  V30 10507 C 1005.26 1.78669 -6.43143 0
M  V30 10508 H 1004.53 0.540246 -0.507163 0
M  V30 10509 H 1007.18 0.820822 -1.73017 0
M  V30 10510 H 1005.48 3.42166 -1.90865 0
M  V30 10511 H 1007.18 3.29864 -2.28015 0
M  V30 10512 H 1003.77 2.50763 -3.47585 0
M  V30 10513 H 1007.95 2.25198 -4.42266 0
M  V30 10514 H 1003.21 1.93471 -5.79982 0
M  V30 10515 H 1007.38 1.68898 -6.75608 0
M  V30 10516 H 1005.01 1.52498 -7.44747 0
M  V30 10517 N 1006.59 1.25851 0.948643 0
M  V30 10518 C 1007.53 1.06559 2.06756 0
M  V30 10519 C 1008.53 -0.00528632 1.69399 0
M  V30 10520 O 1009.73 0.150806 1.79367 0
M  V30 10521 H 1006.11 0.327689 0.676848 0
M  V30 10522 H 1008.08 2.01401 2.20182 0
M  V30 10523 C 1006.83 0.707392 3.40428 0
M  V30 10524 H 1006.15 1.52324 3.69645 0
M  V30 10525 H 1007.59 0.612142 4.19558 0
M  V30 10526 C 1006.05 -0.58697 3.31747 0
M  V30 10527 O 1006.58 -1.62741 3.67258 0
M  V30 10528 N 1004.79 -0.574828 2.84858 0
M  V30 10529 H 1004.33 0.272236 2.56157 0
M  V30 10530 H 1004.29 -1.441 2.79432 0
M  V30 10531 N 1008.06 -1.15214 1.07534 0
M  V30 10532 C 1009.31 -1.85388 0.794617 0
M  V30 10533 C 1009.63 -1.83331 -0.681838 0
M  V30 10534 O 1010.83 -2.49207 -1.0774 0
M  V30 10535 C 1009.29 -3.32747 1.37141 0
M  V30 10536 C 1008.9 -3.43244 2.87902 0
M  V30 10537 C 1010.64 -4.08093 1.16879 0
M  V30 10538 C 1008.55 -4.84762 3.38763 0
M  V30 10539 H 1007.48 -0.694499 0.293577 0
M  V30 10540 H 1010.13 -1.29944 1.29564 0
M  V30 10541 H 1008.51 -3.87874 0.798121 0
M  V30 10542 H 1009.68 -2.98214 3.51291 0
M  V30 10543 H 1008 -2.81345 3.06975 0
M  V30 10544 H 1010.6 -5.12535 1.52353 0
M  V30 10545 H 1010.94 -4.1616 0.107958 0
M  V30 10546 H 1011.47 -3.59241 1.70854 0
M  V30 10547 H 1008.21 -4.81879 4.4438 0
M  V30 10548 H 1007.73 -5.30366 2.80128 0
M  V30 10549 H 1009.41 -5.53624 3.34827 0
M  V30 10550 N 1009.54 -0.859717 -1.32086 0
M  V30 10551 C 1010.49 -0.306042 -2.28762 0
M  V30 10552 C 1011.46 0.589801 -1.55276 0
M  V30 10553 O 1012.64 0.523633 -1.83474 0
M  V30 10554 C 1009.78 0.495256 -3.41528 0
M  V30 10555 C 1008.9 -0.426947 -4.29885 0
M  V30 10556 C 1008.03 0.387474 -5.29785 0
M  V30 10557 C 1007.07 -0.531807 -6.09785 0
M  V30 10558 N 1006.21 0.245741 -7.0167 0
M  V30 10559 H 1011.05 -1.1357 -2.7551 0
M  V30 10560 H 1008.59 -0.571468 -1.35546 0
M  V30 10561 H 1010.54 0.97551 -4.05635 0
M  V30 10562 H 1009.17 1.28969 -2.95917 0
M  V30 10563 H 1008.23 -1.02561 -3.66313 0
M  V30 10564 H 1009.54 -1.13226 -4.85779 0
M  V30 10565 H 1008.69 0.930677 -5.99519 0
M  V30 10566 H 1007.43 1.12612 -4.74521 0
M  V30 10567 H 1006.44 -1.08685 -5.3895 0
M  V30 10568 H 1007.66 -1.26915 -6.67135 0
M  V30 10569 H 1005.61 0.967391 -6.48828 0
M  V30 10570 H 1005.52 -0.400432 -7.54939 0
M  V30 10571 H 1006.79 0.770507 -7.75683 0
M  V30 10572 N 1011.02 1.44971 -0.618145 0
M  V30 10573 C 1012.26 2.04044 -0.120625 0
M  V30 10574 C 1012.62 1.47472 1.22947 0
M  V30 10575 O 1013.83 1.97965 1.81834 0
M  V30 10576 C 1012.1 3.57279 -0.0930863 0
M  V30 10577 S 1013.66 4.37468 0.341705 0
M  V30 10578 H 1010.47 0.708891 -0.0547272 0
M  V30 10579 H 1013.08 1.77535 -0.818621 0
M  V30 10580 H 1011.78 3.95961 -1.07903 0
M  V30 10581 H 1011.31 3.88378 0.62657 0
M  V30 10582 H 1013.33 4.70073 1.58888 0
M  V30 10583 N 1012.5 0.357919 1.53482 0
M  V30 10584 C 1013.91 0.00655107 1.59599 0
M  V30 10585 C 1014.11 -1.47449 1.37336 0
M  V30 10586 O 1013.17 -2.2351 1.17472 0
M  V30 10587 C 1014.48 0.455617 2.97228 0
M  V30 10588 C 1016.03 0.409183 3.10314 0
M  V30 10589 C 1016.51 0.833941 4.50344 0
M  V30 10590 N 1018 0.788695 4.56436 0
M  V30 10591 C 1018.73 1.08914 5.62961 0
M  V30 10592 N 1018.23 1.45847 6.77274 0
M  V30 10593 N 1020.02 1.01243 5.52907 0
M  V30 10594 H 1012.17 1.32248 1.66206 0
M  V30 10595 H 1014.44 0.540047 0.779136 0
M  V30 10596 H 1014.14 1.48881 3.18634 0
M  V30 10597 H 1014.02 -0.161751 3.76853 0
M  V30 10598 H 1016.4 -0.614863 2.88623 0
M  V30 10599 H 1016.48 1.06195 2.32715 0
M  V30 10600 H 1016.13 1.85607 4.72771 0
M  V30 10601 H 1016.06 0.158507 5.26361 0
M  V30 10602 H 1018.55 0.516497 3.74354 0
M  V30 10603 H 1018.86 1.67218 7.54492 0
M  V30 10604 H 1017.21 1.49705 6.78685 0
M  V30 10605 H 1020.4 0.723137 4.62481 0
M  V30 10606 H 1020.57 1.24991 6.35831 0
M  V30 10607 N 1013.98 -1.5736 0.0868897 0
M  V30 10608 C 1015.21 -1.981 -0.586498 0
M  V30 10609 C 1015.61 -0.96455 -1.62767 0
M  V30 10610 O 1014.96 0.0551801 -1.83617 0
M  V30 10611 C 1015.02 -3.35193 -1.29947 0
M  V30 10612 C 1014.68 -4.55157 -0.410012 0
M  V30 10613 C 1015.68 -5.18797 0.338532 0
M  V30 10614 C 1013.37 -5.01212 -0.33047 0
M  V30 10615 C 1015.36 -6.26854 1.15468 0
M  V30 10616 C 1013.05 -6.09138 0.48934 0
M  V30 10617 C 1014.04 -6.71823 1.23057 0
M  V30 10618 O 1013.73 -7.77669 2.03683 0
M  V30 10619 H 1013.46 -0.656166 -0.16255 0
M  V30 10620 H 1016.02 -2.04773 0.160379 0
M  V30 10621 H 1014.25 -3.25179 -2.09274 0
M  V30 10622 H 1015.94 -3.60435 -1.86658 0
M  V30 10623 H 1016.7 -4.84151 0.286764 0
M  V30 10624 H 1012.58 -4.52188 -0.897058 0
M  V30 10625 H 1016.13 -6.75712 1.73374 0
M  V30 10626 H 1012.02 -6.43215 0.542618 0
M  V30 10627 H 1012.79 -7.94618 1.96277 0
M  V30 10628 N 1015.45 0.186762 -1.56489 0
M  V30 10629 C 1016.68 0.925916 -1.85584 0
M  V30 10630 C 1017.1 1.75708 -0.671446 0
M  V30 10631 O 1016.46 1.7728 0.379687 0
M  V30 10632 C 1016.51 1.79107 -3.12975 0
M  V30 10633 O 1015.61 2.89088 -2.94112 0
M  V30 10634 H 1014.96 0.260275 -0.610863 0
M  V30 10635 H 1017.49 0.189561 -2.0372 0
M  V30 10636 H 1017.5 2.19408 -3.43983 0
M  V30 10637 H 1016.17 1.18044 -3.98796 0
M  V30 10638 H 1014.75 2.52482 -2.74422 0
M  V30 10639 N 1016.93 1.50896 0.454776 0
M  V30 10640 C 1018.18 1.62378 1.20324 0
M  V30 10641 C 1018.5 0.333883 1.9212 0
M  V30 10642 O 1017.77 -0.649477 1.8482 0
M  V30 10643 H 1016.35 0.598395 0.447139 0
M  V30 10644 H 1019.01 1.87749 0.523102 0
M  V30 10645 H 1018.11 2.44296 1.94232 0
M  V30 10646 N 1018.41 -0.709066 1.40748 0
M  V30 10647 C 1019.34 -1.83583 1.4429 0
M  V30 10648 C 1020.32 -1.67378 0.303067 0
M  V30 10649 O 1021.51 -1.87312 0.512612 0
M  V30 10650 C 1018.64 -3.21599 1.31116 0
M  V30 10651 C 1017.59 -3.52486 2.4277 0
M  V30 10652 C 1016.92 -4.89716 2.14668 0
M  V30 10653 C 1018.22 -3.52824 3.85113 0
M  V30 10654 H 1019.91 -1.80876 2.38588 0
M  V30 10655 H 1017.46 -0.868795 1.14839 0
M  V30 10656 H 1019.41 -4.00123 1.32209 0
M  V30 10657 H 1018.13 -3.24898 0.332965 0
M  V30 10658 H 1016.79 -2.76305 2.40937 0
M  V30 10659 H 1016.44 -4.89625 1.15224 0
M  V30 10660 H 1016.14 -5.11347 2.89478 0
M  V30 10661 H 1017.66 -5.70566 2.17455 0
M  V30 10662 H 1019.08 -4.21377 3.88734 0
M  V30 10663 H 1017.48 -3.85984 4.59496 0
M  V30 10664 H 1018.55 -2.52073 4.14231 0
M  V30 10665 N 1019.89 -1.26353 -0.941956 0
M  V30 10666 C 1021.13 -1.13071 -1.70277 0
M  V30 10667 C 1021.49 0.320699 -1.89303 0
M  V30 10668 O 1022.69 0.575624 -2.62564 0
M  V30 10669 C 1020.97 -1.87777 -3.04096 0
M  V30 10670 S 1022.52 -1.9054 -3.95272 0
M  V30 10671 H 1019.34 -0.403912 -0.585129 0
M  V30 10672 H 1021.94 -1.6006 -1.12254 0
M  V30 10673 H 1020.65 -2.92447 -2.87929 0
M  V30 10674 H 1020.18 -1.41226 -3.67177 0
M  V30 10675 H 1022.19 -0.991548 -4.86192 0
M  V30 10676 N 1021.37 1.14642 -1.08144 0
M  V30 10677 C 1022.78 1.6719 -0.830923 0
M  V30 10678 C 1023.13 1.85373 0.642749 0
M  V30 10679 O 1022.25 1.56293 1.49671 0
M  V30 10680 C 1022.85 3.03697 -1.50179 0
M  V30 10681 C 1021.41 3.5329 -1.29858 0
M  V30 10682 C 1020.56 2.28828 -1.5663 0
M  V30 10683 H 1023.51 0.987441 -1.24239 0
M  V30 10684 H 1023.53 3.69023 -0.9275 0
M  V30 10685 H 1023.04 2.90431 -2.57432 0
M  V30 10686 H 1021.14 3.71783 -0.246626 0
M  V30 10687 H 1021.25 4.34231 -2.02436 0
M  V30 10688 H 1019.62 2.34769 -0.987716 0
M  V30 10689 H 1020.4 2.18141 -2.65084 0
M  V30 10690 N 1022.85 0.866709 1.31628 0
M  V30 10691 C 1023.8 0.291712 2.26126 0
M  V30 10692 C 1024.78 -0.569375 1.50489 0
M  V30 10693 O 1025.97 -0.416786 1.72023 0
M  V30 10694 C 1023.1 -0.508624 3.39511 0
M  V30 10695 C 1022.19 0.365524 4.22522 0
M  V30 10696 N 1022.58 1.45747 4.84346 0
M  V30 10697 C 1020.88 0.157384 4.45722 0
M  V30 10698 C 1021.58 1.99625 5.46374 0
M  V30 10699 N 1020.55 1.29371 5.27981 0
M  V30 10700 H 1024.35 1.12633 2.71461 0
M  V30 10701 H 1021.87 0.714118 1.45857 0
M  V30 10702 H 1023.87 -0.937057 4.06233 0
M  V30 10703 H 1022.53 -1.34089 2.9572 0
M  V30 10704 H 1023.54 1.84039 4.84097 0
M  V30 10705 H 1020.21 -0.639193 4.12578 0
M  V30 10706 H 1021.6 2.91222 6.05508 0
M  V30 10707 N 1024.32 -1.44642 0.625825 0
M  V30 10708 C 1025.57 -2.02393 0.128391 0
M  V30 10709 C 1025.9 -1.49075 -1.2446 0
M  V30 10710 O 1025.18 -0.672684 -1.82497 0
M  V30 10711 C 1025.46 -3.59934 0.109279 0
M  V30 10712 C 1025.31 -4.23546 1.51423 0
M  V30 10713 C 1026.63 -4.36406 -0.568985 0
M  V30 10714 H 1023.75 -0.735427 0.0481299 0
M  V30 10715 H 1026.39 -1.72277 0.801286 0
M  V30 10716 H 1024.54 -3.85722 -0.463726 0
M  V30 10717 H 1026.22 -4.08882 2.13572 0
M  V30 10718 H 1024.46 -3.81245 2.06966 0
M  V30 10719 H 1025.13 -5.32535 1.45294 0
M  V30 10720 H 1027.61 -4.1602 -0.0817516 0
M  V30 10721 H 1026.48 -5.46122 -0.551527 0
M  V30 10722 H 1026.74 -4.1062 -1.6384 0
M  V30 10723 N 1025.8 -0.366053 -1.5329 0
M  V30 10724 C 1027.05 0.223824 -2.01561 0
M  V30 10725 C 1027.38 1.48382 -1.25286 0
M  V30 10726 O 1026.66 1.91385 -0.34669 0
M  V30 10727 C 1026.94 0.5153 -3.56394 0
M  V30 10728 C 1026.79 -0.758357 -4.43361 0
M  V30 10729 C 1028.11 1.31568 -4.19974 0
M  V30 10730 H 1025.23 0.0798751 -0.732659 0
M  V30 10731 H 1027.87 -0.491038 -1.83545 0
M  V30 10732 H 1026.02 1.12429 -3.71876 0
M  V30 10733 H 1027.69 -1.39584 -4.39675 0
M  V30 10734 H 1025.94 -1.37862 -4.11311 0
M  V30 10735 H 1026.61 -0.509366 -5.49645 0
M  V30 10736 H 1029.08 0.800514 -4.08327 0
M  V30 10737 H 1027.96 1.48837 -5.28336 0
M  V30 10738 H 1028.22 2.32432 -3.76069 0
M  V30 10739 N 1027.28 1.57312 -0.0952337 0
M  V30 10740 C 1028.53 1.94646 0.569284 0
M  V30 10741 C 1028.86 0.977152 1.67825 0
M  V30 10742 O 1028.13 0.0102318 1.94497 0
M  V30 10743 C 1028.42 3.42098 1.12433 0
M  V30 10744 C 1028.27 4.49795 0.0204016 0
M  V30 10745 C 1029.59 3.90866 2.02266 0
M  V30 10746 H 1026.71 0.707779 0.205469 0
M  V30 10747 H 1029.35 1.89274 -0.16597 0
M  V30 10748 H 1027.5 3.46807 1.75092 0
M  V30 10749 H 1029.17 4.57198 -0.613845 0
M  V30 10750 H 1027.41 4.28964 -0.645965 0
M  V30 10751 H 1028.09 5.50166 0.449579 0
M  V30 10752 H 1030.56 3.88311 1.49512 0
M  V30 10753 H 1029.44 4.94604 2.38029 0
M  V30 10754 H 1029.7 3.30167 2.9401 0
M  V30 10755 N 1028.76 -0.17846 1.56586 0
M  V30 10756 C 1029.69 -1.22342 1.98884 0
M  V30 10757 C 1030.67 -1.46564 0.86331 0
M  V30 10758 O 1031.85 -1.58019 1.12887 0
M  V30 10759 C 1028.98 -2.56396 2.34261 0
M  V30 10760 C 1027.94 -2.46756 3.49708 0
M  V30 10761 C 1027.26 -3.85235 3.70807 0
M  V30 10762 C 1028.56 -1.97838 4.83381 0
M  V30 10763 H 1030.26 -0.871848 2.86425 0
M  V30 10764 H 1027.8 -0.417948 1.37801 0
M  V30 10765 H 1029.76 -3.29695 2.62448 0
M  V30 10766 H 1028.48 -2.93327 1.43621 0
M  V30 10767 H 1027.14 -1.75912 3.21637 0
M  V30 10768 H 1026.79 -4.19547 2.7747 0
M  V30 10769 H 1026.49 -3.79655 4.48481 0
M  V30 10770 H 1028.01 -4.60131 4.01387 0
M  V30 10771 H 1029.43 -2.60906 5.10491 0
M  V30 10772 H 1027.82 -2.03223 5.64642 0
M  V30 10773 H 1028.89 -0.932339 4.75852 0
M  V30 10774 N 1030.24 -1.51135 -0.446768 0
M  V30 10775 C 1031.48 -1.63578 -1.19875 0
M  V30 10776 C 1031.81 -0.346478 -1.91084 0
M  V30 10777 O 1031.09 0.653447 -1.83195 0
M  V30 10778 C 1031.37 -2.83275 -2.22323 0
M  V30 10779 C 1031.23 -4.22155 -1.55259 0
M  V30 10780 C 1032.54 -2.98496 -3.23401 0
M  V30 10781 H 1029.66 -0.595333 -0.434452 0
M  V30 10782 H 1032.31 -1.83593 -0.48923 0
M  V30 10783 H 1030.46 -2.6634 -2.82834 0
M  V30 10784 H 1032.13 -4.50736 -0.981571 0
M  V30 10785 H 1030.37 -4.25288 -0.855122 0
M  V30 10786 H 1031.04 -5.01882 -2.29823 0
M  V30 10787 H 1033.52 -3.14079 -2.72935 0
M  V30 10788 H 1032.39 -3.83828 -3.92386 0
M  V30 10789 H 1032.65 -2.10157 -3.88956 0
M  V30 10790 N 1031.71 0.701592 -1.41122 0
M  V30 10791 C 1032.68 1.79733 -1.42227 0
M  V30 10792 C 1033.68 1.57708 -0.313831 0
M  V30 10793 O 1034.87 1.64492 -0.573423 0
M  V30 10794 C 1032 3.18024 -1.22775 0
M  V30 10795 H 1033.19 1.80148 -2.39764 0
M  V30 10796 H 1030.74 0.908624 -1.27176 0
M  V30 10797 H 1031.48 3.23252 -0.260552 0
M  V30 10798 H 1031.26 3.35411 -2.0308 0
M  V30 10799 H 1032.75 3.98021 -1.2637 0
M  V30 10800 N 1033.19 1.2685 0.935242 0
M  V30 10801 C 1034.42 1.15538 1.71635 0
M  V30 10802 C 1034.83 -0.288698 1.8658 0
M  V30 10803 O 1034.19 -1.19721 1.37743 0
M  V30 10804 C 1034.24 1.8259 3.11999 0
M  V30 10805 O 1033.96 3.21355 2.97763 0
M  V30 10806 C 1035.46 1.77307 4.06297 0
M  V30 10807 H 1032.68 0.402055 0.537208 0
M  V30 10808 H 1035.23 1.67582 1.17203 0
M  V30 10809 H 1033.38 1.3447 3.63313 0
M  V30 10810 H 1033.8 3.54626 3.86446 0
M  V30 10811 H 1035.27 2.28851 5.02326 0
M  V30 10812 H 1035.75 0.740823 4.32907 0
M  V30 10813 H 1036.35 2.25007 3.60904 0
M  V30 10814 N 1034.67 -1.14067 1.0875 0
M  V30 10815 C 1035.92 -1.85459 0.82053 0
M  V30 10816 C 1036.25 -1.82923 -0.65213 0
M  V30 10817 O 1035.52 -1.26241 -1.47965 0
M  V30 10818 C 1035.81 -3.33937 1.34752 0
M  V30 10819 C 1035.66 -3.45026 2.88578 0
M  V30 10820 C 1036.98 -4.2915 0.975636 0
M  V30 10821 H 1034.1 -0.673384 0.299538 0
M  V30 10822 H 1036.74 -1.33927 1.34772 0
M  V30 10823 H 1034.89 -3.77953 0.899086 0
M  V30 10824 H 1036.56 -3.09771 3.41818 0
M  V30 10825 H 1034.81 -2.86124 3.26061 0
M  V30 10826 H 1035.48 -4.49408 3.20526 0
M  V30 10827 H 1037.95 -3.93168 1.36228 0
M  V30 10828 H 1036.83 -5.31489 1.37152 0
M  V30 10829 H 1037.09 -4.41945 -0.116956 0
M  V30 10830 N 1036.15 -0.873678 -1.31166 0
M  V30 10831 C 1037.56 -0.566109 -1.49223 0
M  V30 10832 C 1037.76 0.898889 -1.80339 0
M  V30 10833 O 1036.82 1.68084 -1.88425 0
M  V30 10834 C 1038.13 -1.46952 -2.62346 0
M  V30 10835 C 1039.68 -1.47195 -2.76229 0
M  V30 10836 C 1040.16 -2.36102 -3.92454 0
M  V30 10837 N 1041.65 -2.34003 -3.99746 0
M  V30 10838 C 1042.38 -2.99513 -4.88958 0
M  V30 10839 N 1041.88 -3.74206 -5.83045 0
M  V30 10840 N 1043.67 -2.88802 -4.82234 0
M  V30 10841 H 1035.82 -1.82156 -1.09239 0
M  V30 10842 H 1038.09 -0.779086 -0.54012 0
M  V30 10843 H 1037.79 -2.51213 -2.4614 0
M  V30 10844 H 1037.67 -1.17077 -3.5857 0
M  V30 10845 H 1040.05 -0.436902 -2.91848 0
M  V30 10846 H 1040.13 -1.81095 -1.80661 0
M  V30 10847 H 1039.78 -3.39685 -3.77593 0
M  V30 10848 H 1039.71 -1.99524 -4.87337 0
M  V30 10849 H 1042.2 -1.79713 -3.32433 0
M  V30 10850 H 1042.51 -4.21312 -6.47855 0
M  V30 10851 H 1040.86 -3.78314 -5.83012 0
M  V30 10852 H 1044.05 -2.29984 -4.07707 0
M  V30 10853 H 1044.22 -3.40136 -5.51554 0
M  V30 10854 N 1037.63 1.44308 -0.633487 0
M  V30 10855 C 1038.59 2.2912 0.060376 0
M  V30 10856 C 1039.59 1.41166 0.769992 0
M  V30 10857 O 1040.78 1.63012 0.614224 0
M  V30 10858 C 1037.91 3.22798 1.0961 0
M  V30 10859 H 1039.1 2.91958 -0.685617 0
M  V30 10860 H 1036.66 1.51259 -0.393738 0
M  V30 10861 H 1037.39 2.64815 1.87199 0
M  V30 10862 H 1037.18 3.87618 0.591161 0
M  V30 10863 H 1038.67 3.86504 1.58127 0
M  V30 10864 N 1039.1 0.374177 1.53094 0
M  V30 10865 C 1040.03 -0.459976 2.28925 0
M  V30 10866 C 1041.02 -1.07656 1.31698 0
M  V30 10867 O 1042.2 -1.09219 1.60577 0
M  V30 10868 C 1039.33 -1.5954 3.08487 0
M  V30 10869 C 1038.28 -1.10563 4.13473 0
M  V30 10870 C 1037.61 -2.33196 4.81169 0
M  V30 10871 C 1038.91 -0.184275 5.21975 0
M  V30 10872 H 1040.6 0.172692 2.98902 0
M  V30 10873 H 1038.15 0.0844956 1.43752 0
M  V30 10874 H 1040.1 -2.18565 3.60288 0
M  V30 10875 H 1038.83 -2.25543 2.36216 0
M  V30 10876 H 1037.49 -0.53801 3.62631 0
M  V30 10877 H 1037.13 -2.97675 4.05461 0
M  V30 10878 H 1036.83 -2.01094 5.52119 0
M  V30 10879 H 1038.36 -2.92892 5.35767 0
M  V30 10880 H 1039.77 -0.682262 5.69226 0
M  V30 10881 H 1038.17 0.0462746 6.00082 0
M  V30 10882 H 1039.24 0.771152 4.78729 0
M  V30 10883 N 1040.58 -1.57259 0.103575 0
M  V30 10884 C 1041.53 -2.14487 -0.852295 0
M  V30 10885 C 1042.5 -1.06567 -1.27407 0
M  V30 10886 O 1043.68 -1.34398 -1.35432 0
M  V30 10887 C 1040.82 -2.73632 -2.10284 0
M  V30 10888 C 1039.94 -3.95811 -1.73083 0
M  V30 10889 C 1039.07 -4.43093 -2.92988 0
M  V30 10890 C 1038.11 -5.5784 -2.51953 0
M  V30 10891 N 1037.25 -5.99936 -3.64721 0
M  V30 10892 H 1042.09 -2.95849 -0.35743 0
M  V30 10893 H 1039.63 -1.46175 -0.164748 0
M  V30 10894 H 1041.58 -3.06046 -2.83534 0
M  V30 10895 H 1040.21 -1.94985 -2.57256 0
M  V30 10896 H 1039.27 -3.69656 -0.897688 0
M  V30 10897 H 1040.58 -4.79066 -1.38916 0
M  V30 10898 H 1039.73 -4.77335 -3.74481 0
M  V30 10899 H 1038.47 -3.58756 -3.30372 0
M  V30 10900 H 1037.48 -5.23217 -1.6889 0
M  V30 10901 H 1038.7 -6.43932 -2.15705 0
M  V30 10902 H 1036.65 -5.18543 -4.01807 0
M  V30 10903 H 1036.56 -6.78008 -3.34427 0
M  V30 10904 H 1037.83 -6.38812 -4.46699 0
M  V30 10905 N 1042.06 0.170153 -1.56679 0
M  V30 10906 C 1042.99 1.23945 -1.91606 0
M  V30 10907 C 1043.97 1.42725 -0.779004 0
M  V30 10908 O 1045.16 1.57712 -1.03243 0
M  V30 10909 C 1042.28 2.60222 -2.168 0
M  V30 10910 C 1041.33 2.58172 -3.39484 0
M  V30 10911 S 1042.16 2.0714 -4.93815 0
M  V30 10912 C 1043.32 3.45192 -5.22105 0
M  V30 10913 H 1043.55 0.941345 -2.82004 0
M  V30 10914 H 1041.08 0.374771 -1.49783 0
M  V30 10915 H 1043.04 3.38656 -2.31996 0
M  V30 10916 H 1041.7 2.87232 -1.27107 0
M  V30 10917 H 1040.9 3.58435 -3.54317 0
M  V30 10918 H 1040.5 1.87834 -3.2341 0
M  V30 10919 H 1042.79 4.41194 -5.14154 0
M  V30 10920 H 1043.73 3.35233 -6.23718 0
M  V30 10921 H 1044.14 3.41257 -4.49671 0
M  V30 10922 N 1043.54 1.5137 0.438746 0
M  V30 10923 C 1044.49 1.68966 1.53083 0
M  V30 10924 C 1045.47 0.543669 1.51437 0
M  V30 10925 O 1046.66 0.799519 1.57914 0
M  V30 10926 C 1043.79 1.8168 2.91286 0
M  V30 10927 C 1042.88 3.02059 2.97693 0
M  V30 10928 N 1043.27 4.25254 2.73848 0
M  V30 10929 C 1041.57 3.01284 3.28852 0
M  V30 10930 C 1042.27 5.06501 2.86062 0
M  V30 10931 N 1041.25 4.41119 3.17671 0
M  V30 10932 H 1045.05 2.61883 1.33397 0
M  V30 10933 H 1042.56 1.48997 0.64603 0
M  V30 10934 H 1044.56 1.92396 3.6985 0
M  V30 10935 H 1043.22 0.899438 3.11994 0
M  V30 10936 H 1044.23 4.54222 2.48803 0
M  V30 10937 H 1040.91 2.19174 3.55344 0
M  V30 10938 H 1042.3 6.14563 2.71592 0
M  V30 10939 N 1045.02 -0.694098 1.41492 0
M  V30 10940 C 1046.26 -1.45127 1.4065 0
M  V30 10941 C 1046.59 -1.94993 0.0170289 0
M  V30 10942 O 1045.86 -1.71799 -0.941372 0
M  V30 10943 H 1044.44 -0.538493 0.51772 0
M  V30 10944 H 1047.1 -0.821441 1.76744 0
M  V30 10945 H 1046.19 -2.31372 2.0946 0
M  V30 10946 N 1046.49 -1.27344 -0.928501 0
M  V30 10947 C 1047.74 -1.13411 -1.67279 0
M  V30 10948 C 1048.06 0.320698 -1.92345 0
M  V30 10949 O 1047.33 1.2245 -1.52915 0
M  V30 10950 H 1045.91 -0.416712 -0.619968 0
M  V30 10951 H 1048.58 -1.5986 -1.11493 0
M  V30 10952 H 1047.67 -1.66256 -2.64131 0
M  V30 10953 N 1047.97 1.13488 -1.09353 0
M  V30 10954 C 1049.22 1.84383 -0.827488 0
M  V30 10955 C 1049.54 1.83892 0.648745 0
M  V30 10956 O 1048.81 1.29415 1.47066 0
M  V30 10957 H 1047.39 0.682732 -0.303127 0
M  V30 10958 H 1050.05 1.37477 -1.38152 0
M  V30 10959 H 1049.15 2.88919 -1.18035 0
M  V30 10960 N 1049.45 0.880621 1.30701 0
M  V30 10961 C 1050.86 0.547993 1.78477 0
M  V30 10962 C 1051.21 -0.935633 1.72454 0
M  V30 10963 O 1050.34 -1.73094 1.29874 0
M  V30 10964 C 1050.93 0.98795 3.24076 0
M  V30 10965 C 1049.49 0.706805 3.69704 0
M  V30 10966 C 1048.64 1.17335 2.51252 0
M  V30 10967 H 1051.59 1.06528 1.17633 0
M  V30 10968 H 1051.61 0.31508 3.79193 0
M  V30 10969 H 1051.12 2.06778 3.28427 0
M  V30 10970 H 1049.22 -0.36122 3.70845 0
M  V30 10971 H 1049.34 1.2913 4.6137 0
M  V30 10972 H 1047.7 0.592808 2.47705 0
M  V30 10973 H 1048.48 2.26083 2.58343 0
M  V30 10974 N 1050.93 -1.4397 0.641131 0
M  V30 10975 C 1052.16 -2.06303 0.157006 0
M  V30 10976 C 1052.57 -1.47981 -1.17248 0
M  V30 10977 O 1051.93 -0.606471 -1.72128 0
M  V30 10978 C 1051.98 -3.6147 0.0468425 0
M  V30 10979 O 1051.7 -4.17622 1.32376 0
M  V30 10980 C 1053.2 -4.40857 -0.464795 0
M  V30 10981 H 1050.42 -0.665684 0.0842946 0
M  V30 10982 H 1052.97 -1.84675 0.878363 0
M  V30 10983 H 1051.12 -3.82325 -0.625006 0
M  V30 10984 H 1051.54 -5.11167 1.17509 0
M  V30 10985 H 1053.01 -5.49813 -0.490862 0
M  V30 10986 H 1053.49 -4.13016 -1.4938 0
M  V30 10987 H 1054.09 -4.24943 0.174146 0
M  V30 10988 N 1052.41 -0.382291 -1.52893 0
M  V30 10989 C 1053.65 0.202433 -2.01787 0
M  V30 10990 C 1053.99 1.47044 -1.26853 0
M  V30 10991 O 1053.26 1.91007 -0.366969 0
M  V30 10992 C 1053.54 0.477471 -3.5692 0
M  V30 10993 C 1053.4 -0.805339 -4.42532 0
M  V30 10994 C 1054.72 1.27106 -4.21346 0
M  V30 10995 H 1051.84 0.0720998 -0.733465 0
M  V30 10996 H 1054.48 -0.510478 -1.83014 0
M  V30 10997 H 1052.63 1.08478 -3.73048 0
M  V30 10998 H 1054.3 -1.4424 -4.3817 0
M  V30 10999 H 1052.54 -1.42216 -4.09826 0
M  V30 11000 H 1053.21 -0.567635 -5.49074 0
M  V30 11001 H 1055.69 0.757161 -4.09153 0
M  V30 11002 H 1054.57 1.43225 -5.29885 0
M  V30 11003 H 1054.83 2.28431 -3.78513 0
M  V30 11004 N 1053.89 1.57202 -0.111913 0
M  V30 11005 C 1055.11 1.99297 0.555713 0
M  V30 11006 C 1055.53 0.991444 1.60673 0
M  V30 11007 O 1054.89 -0.0166672 1.82492 0
M  V30 11008 C 1054.94 3.41413 1.18826 0
M  V30 11009 O 1054.66 4.37733 0.179261 0
M  V30 11010 C 1056.16 3.98602 1.93989 0
M  V30 11011 H 1053.38 0.654543 0.147695 0
M  V30 11012 H 1055.92 2.03557 -0.196163 0
M  V30 11013 H 1054.08 3.38115 1.89096 0
M  V30 11014 H 1054.49 5.20606 0.637935 0
M  V30 11015 H 1055.97 5.00143 2.33584 0
M  V30 11016 H 1056.44 3.37349 2.81233 0
M  V30 11017 H 1057.05 4.05424 1.28497 0
M  V30 11018 N 1055.36 -0.161842 1.56767 0
M  V30 11019 C 1056.33 -1.18404 1.96247 0
M  V30 11020 C 1057.33 -1.3667 0.84722 0
M  V30 11021 O 1058.52 -1.33915 1.11411 0
M  V30 11022 C 1055.65 -2.54728 2.26553 0
M  V30 11023 H 1056.84 -0.845703 2.87729 0
M  V30 11024 H 1054.39 -0.404645 1.50971 0
M  V30 11025 H 1055.13 -2.93559 1.37816 0
M  V30 11026 H 1054.91 -2.42834 3.07854 0
M  V30 11027 H 1056.4 -3.28378 2.57987 0
M  V30 11028 N 1056.84 -1.516 -0.430713 0
M  V30 11029 C 1058.09 -1.64271 -1.17726 0
M  V30 11030 C 1058.41 -0.364406 -1.91565 0
M  V30 11031 O 1057.68 0.619991 -1.8583 0
M  V30 11032 H 1056.26 -0.605432 -0.437562 0
M  V30 11033 H 1058.92 -1.88557 -0.493166 0
M  V30 11034 H 1058.02 -2.47355 -1.90321 0
M  V30 11035 N 1058.32 0.686584 -1.41858 0
M  V30 11036 C 1059.25 1.81264 -1.47193 0
M  V30 11037 C 1060.23 1.66875 -0.329657 0
M  V30 11038 O 1061.42 1.86473 -0.542347 0
M  V30 11039 C 1058.55 3.19472 -1.36216 0
M  V30 11040 C 1057.5 3.4858 -2.48347 0
M  V30 11041 C 1056.83 4.86239 -2.22432 0
M  V30 11042 C 1058.13 3.46653 -3.90678 0
M  V30 11043 H 1059.82 1.77057 -2.41436 0
M  V30 11044 H 1057.37 0.850415 -1.16206 0
M  V30 11045 H 1059.32 3.97969 -1.38558 0
M  V30 11046 H 1058.04 3.24327 -0.384611 0
M  V30 11047 H 1056.7 2.72437 -2.45303 0
M  V30 11048 H 1056.35 4.8773 -1.22999 0
M  V30 11049 H 1056.05 5.06677 -2.97577 0
M  V30 11050 H 1057.57 5.67034 -2.26505 0
M  V30 11051 H 1058.99 4.15139 -3.95389 0
M  V30 11052 H 1057.38 3.78625 -4.65578 0
M  V30 11053 H 1058.45 2.45451 -4.18189 0
M  V30 11054 N 1059.8 1.27835 0.921735 0
M  V30 11055 C 1061.21 1.13151 1.48505 0
M  V30 11056 C 1061.56 -0.281373 1.94172 0
M  V30 11057 O 1060.68 -1.17487 1.8173 0
M  V30 11058 C 1061.28 2.04792 2.69899 0
M  V30 11059 C 1059.84 1.94196 3.22436 0
M  V30 11060 C 1058.99 1.96999 1.95158 0
M  V30 11061 H 1061.94 1.40641 0.735241 0
M  V30 11062 H 1061.96 1.60724 3.44889 0
M  V30 11063 H 1061.47 3.07615 2.36631 0
M  V30 11064 H 1059.57 0.943805 3.60448 0
M  V30 11065 H 1059.68 2.80744 3.88226 0
M  V30 11066 H 1058.05 1.41301 2.11911 0
M  V30 11067 H 1058.83 3.01487 1.64196 0
M  V30 11068 N 1061.28 -1.12907 1.09954 0
M  V30 11069 C 1062.21 -2.20585 0.765799 0
M  V30 11070 C 1063.19 -1.68117 -0.258989 0
M  V30 11071 O 1064.37 -1.93792 -0.125853 0
M  V30 11072 C 1061.5 -3.46772 0.191435 0
M  V30 11073 C 1060.46 -4.12363 1.14635 0
M  V30 11074 C 1059.78 -5.3294 0.433426 0
M  V30 11075 C 1061.08 -4.59073 2.49096 0
M  V30 11076 H 1062.78 -2.48759 1.66612 0
M  V30 11077 H 1060.32 -1.19563 0.802534 0
M  V30 11078 H 1062.27 -4.21365 -0.0541535 0
M  V30 11079 H 1061 -3.18011 -0.744101 0
M  V30 11080 H 1059.66 -3.39744 1.37731 0
M  V30 11081 H 1059.31 -5.00444 -0.506422 0
M  V30 11082 H 1059.01 -5.77772 1.07018 0
M  V30 11083 H 1060.53 -6.10284 0.196267 0
M  V30 11084 H 1061.94 -5.25063 2.30177 0
M  V30 11085 H 1060.34 -5.14665 3.0861 0
M  V30 11086 H 1061.41 -3.73313 3.0946 0
M  V30 11087 N 1062.75 -0.88754 -1.30232 0
M  V30 11088 C 1064.16 -0.55745 -1.78184 0
M  V30 11089 C 1064.52 0.926474 -1.72948 0
M  V30 11090 O 1063.64 1.72403 -1.3079 0
M  V30 11091 C 1064.24 -1.00512 -3.23547 0
M  V30 11092 C 1062.79 -0.726402 -3.69324 0
M  V30 11093 C 1061.94 -1.18666 -2.50627 0
M  V30 11094 H 1064.89 -1.07151 -1.17066 0
M  V30 11095 H 1064.91 -0.335185 -3.79021 0
M  V30 11096 H 1064.43 -2.08517 -3.27326 0
M  V30 11097 H 1062.53 0.341548 -3.71031 0
M  V30 11098 H 1062.64 -1.31575 -4.60679 0
M  V30 11099 H 1061 -0.605936 -2.47387 0
M  V30 11100 H 1061.79 -2.2745 -2.57141 0
M  V30 11101 N 1064.23 1.43628 -0.648757 0
M  V30 11102 C 1065.18 2.30755 0.0455536 0
M  V30 11103 C 1066.15 1.44495 0.819168 0
M  V30 11104 O 1067.33 1.73372 0.79667 0
M  V30 11105 C 1064.47 3.30017 1.00908 0
M  V30 11106 C 1063.59 4.31376 0.232039 0
M  V30 11107 C 1062.72 5.17723 1.18897 0
M  V30 11108 C 1061.76 6.10778 0.402096 0
M  V30 11109 N 1060.9 6.89763 1.31038 0
M  V30 11110 H 1065.74 2.89581 -0.70332 0
M  V30 11111 H 1063.28 1.42662 -0.3586 0
M  V30 11112 H 1065.23 3.86072 1.58128 0
M  V30 11113 H 1063.86 2.72851 1.72488 0
M  V30 11114 H 1062.92 3.77652 -0.456373 0
M  V30 11115 H 1064.23 4.9735 -0.380023 0
M  V30 11116 H 1063.38 5.78381 1.83194 0
M  V30 11117 H 1062.12 4.51864 1.83494 0
M  V30 11118 H 1061.13 5.49212 -0.254255 0
M  V30 11119 H 1062.35 6.78678 -0.239411 0
M  V30 11120 H 1060.3 6.26557 1.94324 0
M  V30 11121 H 1060.21 7.52243 0.752774 0
M  V30 11122 H 1061.48 7.54931 1.94164 0
M  V30 11123 N 1065.71 0.390394 1.52688 0
M  V30 11124 C 1066.67 -0.432149 2.25089 0
M  V30 11125 C 1067.67 -0.989296 1.26766 0
M  V30 11126 O 1068.86 -0.871126 1.50854 0
M  V30 11127 C 1066 -1.60642 3.00678 0
M  V30 11128 H 1067.19 0.201734 2.99221 0
M  V30 11129 H 1064.74 0.142531 1.55649 0
M  V30 11130 H 1065.48 -2.2777 2.3085 0
M  V30 11131 H 1065.26 -1.21361 3.72846 0
M  V30 11132 H 1066.75 -2.18873 3.55647 0
M  V30 11133 N 1067.19 -1.57141 0.120249 0
M  V30 11134 C 1068.42 -1.993 -0.544346 0
M  V30 11135 C 1068.83 -0.998858 -1.60684 0
M  V30 11136 O 1068.17 0.0162197 -1.83693 0
M  V30 11137 C 1068.23 -3.37874 -1.22808 0
M  V30 11138 C 1067.9 -4.55924 -0.313374 0
M  V30 11139 C 1068.89 -5.17962 0.448501 0
M  V30 11140 C 1066.58 -5.018 -0.224082 0
M  V30 11141 C 1068.57 -6.24264 1.28739 0
M  V30 11142 C 1066.26 -6.07963 0.618437 0
M  V30 11143 C 1067.26 -6.69061 1.3728 0
M  V30 11144 O 1066.94 -7.73173 2.20133 0
M  V30 11145 H 1066.68 -0.659466 -0.148596 0
M  V30 11146 H 1069.23 -2.04387 0.203779 0
M  V30 11147 H 1067.46 -3.29545 -2.02329 0
M  V30 11148 H 1069.15 -3.64314 -1.7897 0
M  V30 11149 H 1069.92 -4.83434 0.389395 0
M  V30 11150 H 1065.79 -4.53989 -0.80094 0
M  V30 11151 H 1069.34 -6.71883 1.87667 0
M  V30 11152 H 1065.24 -6.4192 0.678932 0
M  V30 11153 H 1066 -7.90276 2.13088 0
M  V30 11154 N 1068.67 0.153526 -1.5685 0
M  V30 11155 C 1069.92 0.865628 -1.82181 0
M  V30 11156 C 1070.23 1.82629 -0.700434 0
M  V30 11157 O 1071.43 2.58206 -0.839155 0
M  V30 11158 C 1069.89 1.58993 -3.22877 0
M  V30 11159 C 1069.5 0.672006 -4.42931 0
M  V30 11160 C 1071.24 2.2892 -3.57486 0
M  V30 11161 C 1069.15 1.39755 -5.7465 0
M  V30 11162 H 1068.08 0.326993 -0.679406 0
M  V30 11163 H 1070.73 0.118403 -1.83118 0
M  V30 11164 H 1069.11 2.38255 -3.16308 0
M  V30 11165 H 1070.29 -0.0849226 -4.60722 0
M  V30 11166 H 1068.6 0.0814825 -4.1632 0
M  V30 11167 H 1071.2 2.8383 -4.5315 0
M  V30 11168 H 1071.54 3.05105 -2.83226 0
M  V30 11169 H 1072.07 1.56583 -3.65686 0
M  V30 11170 H 1068.81 0.677686 -6.51987 0
M  V30 11171 H 1068.33 2.12736 -5.60806 0
M  V30 11172 H 1070.01 1.94024 -6.17223 0
M  V30 11173 N 1070.14 1.51827 0.422667 0
M  V30 11174 C 1071.08 1.70409 1.53275 0
M  V30 11175 C 1072.09 0.584584 1.51942 0
M  V30 11176 O 1073.28 0.859349 1.56453 0
M  V30 11177 C 1070.38 1.717 2.92185 0
M  V30 11178 C 1069.55 3.00472 3.17861 0
M  V30 11179 C 1068.61 2.93755 4.36571 0
M  V30 11180 O 1067.64 3.67682 4.3451 0
M  V30 11181 N 1068.84 2.10612 5.40946 0
M  V30 11182 H 1071.6 2.66176 1.37734 0
M  V30 11183 H 1069.16 1.49895 0.611799 0
M  V30 11184 H 1071.16 1.64756 3.69645 0
M  V30 11185 H 1069.73 0.834655 3.01251 0
M  V30 11186 H 1068.95 3.21171 2.28567 0
M  V30 11187 H 1070.23 3.85684 3.31851 0
M  V30 11188 H 1069.63 1.49954 5.45463 0
M  V30 11189 H 1068.19 2.09535 6.17202 0
M  V30 11190 N 1071.62 -0.679052 1.4222 0
M  V30 11191 C 1072.53 -1.82221 1.47759 0
M  V30 11192 C 1073.55 -1.70092 0.3667 0
M  V30 11193 O 1074.72 -1.91718 0.616957 0
M  V30 11194 C 1071.79 -3.18332 1.37351 0
M  V30 11195 C 1070.85 -3.42449 2.58896 0
M  V30 11196 C 1070.08 -4.72067 2.48976 0
M  V30 11197 O 1070.31 -5.49683 1.5233 0
M  V30 11198 O 1069.24 -4.97333 3.39033 0
M  V30 11199 H 1073.07 -1.80504 2.44238 0
M  V30 11200 H 1070.65 -0.834251 1.23938 0
M  V30 11201 H 1072.53 -3.99563 1.33893 0
M  V30 11202 H 1071.21 -3.20696 0.439965 0
M  V30 11203 H 1070.12 -2.61083 2.6793 0
M  V30 11204 H 1071.45 -3.44912 3.51136 0
M  V30 11205 N 1073.1 -1.28322 -0.914942 0
M  V30 11206 C 1074.05 -1.12003 -2.03858 0
M  V30 11207 C 1075.04 -0.0396287 -1.69354 0
M  V30 11208 O 1076.25 -0.198309 -1.78904 0
M  V30 11209 H 1072.62 -0.34552 -0.667922 0
M  V30 11210 H 1074.59 -2.07168 -2.14765 0
M  V30 11211 C 1073.34 -0.797402 -3.38433 0
M  V30 11212 H 1072.67 -1.62071 -3.65476 0
M  V30 11213 H 1074.11 -0.723165 -4.17787 0
M  V30 11214 C 1072.57 0.498807 -3.33187 0
M  V30 11215 O 1073.1 1.52946 -3.71444 0
M  V30 11216 N 1071.3 0.499101 -2.86282 0
M  V30 11217 H 1070.85 -0.340056 -2.55346 0
M  V30 11218 H 1070.81 1.36641 -2.83155 0
M  V30 11219 N 1074.58 1.12322 -1.10551 0
M  V30 11220 C 1075.51 2.20176 -0.777486 0
M  V30 11221 C 1076.49 1.68252 0.250069 0
M  V30 11222 O 1077.67 1.93856 0.115574 0
M  V30 11223 C 1074.8 3.46666 -0.209822 0
M  V30 11224 C 1073.76 4.11749 -1.1682 0
M  V30 11225 C 1073.08 5.32703 -0.461684 0
M  V30 11226 C 1074.38 4.57746 -2.51527 0
M  V30 11227 H 1076.08 2.47872 -1.67928 0
M  V30 11228 H 1073.62 1.19136 -0.808863 0
M  V30 11229 H 1075.58 4.21388 0.0318068 0
M  V30 11230 H 1074.3 3.18401 0.727226 0
M  V30 11231 H 1072.96 3.39009 -1.3953 0
M  V30 11232 H 1072.61 5.00706 0.479875 0
M  V30 11233 H 1072.31 5.77197 -1.1008 0
M  V30 11234 H 1073.83 6.10172 -0.228629 0
M  V30 11235 H 1075.25 5.23835 -2.32958 0
M  V30 11236 H 1073.64 5.13021 -3.11335 0
M  V30 11237 H 1074.71 3.71667 -3.11435 0
M  V30 11238 N 1076.06 0.894434 1.2976 0
M  V30 11239 C 1076.97 0.372622 2.31622 0
M  V30 11240 C 1077.98 -0.52996 1.65733 0
M  V30 11241 O 1079.16 -0.420807 1.96955 0
M  V30 11242 C 1076.22 -0.396076 3.4443 0
M  V30 11243 C 1075.28 0.537394 4.25923 0
M  V30 11244 C 1074.52 -0.194713 5.33345 0
M  V30 11245 O 1074.74 -1.41943 5.52457 0
M  V30 11246 O 1073.67 0.460055 6.00139 0
M  V30 11247 H 1077.5 1.21756 2.78225 0
M  V30 11248 H 1075.09 0.65858 1.34101 0
M  V30 11249 H 1076.97 -0.830962 4.13126 0
M  V30 11250 H 1075.64 -1.21716 2.99945 0
M  V30 11251 H 1074.55 1.02129 3.5989 0
M  V30 11252 H 1075.88 1.32475 4.74037 0
M  V30 11253 N 1077.53 -1.43282 0.656365 0
M  V30 11254 C 1078.46 -2.33492 -0.0196962 0
M  V30 11255 C 1079.45 -1.49647 -0.80868 0
M  V30 11256 O 1080.63 -1.78303 -0.769529 0
M  V30 11257 C 1077.76 -3.33052 -0.984574 0
M  V30 11258 C 1076.71 -4.26908 -0.305483 0
M  V30 11259 C 1076.04 -5.16531 -1.38202 0
M  V30 11260 C 1077.34 -5.16073 0.804081 0
M  V30 11261 H 1079.03 -2.90272 0.733661 0
M  V30 11262 H 1076.58 -1.39574 0.354259 0
M  V30 11263 H 1078.53 -3.9506 -1.46647 0
M  V30 11264 H 1077.26 -2.74535 -1.76913 0
M  V30 11265 H 1075.92 -3.66268 0.155995 0
M  V30 11266 H 1075.56 -4.54351 -2.1581 0
M  V30 11267 H 1075.26 -5.80148 -0.932878 0
M  V30 11268 H 1076.79 -5.81414 -1.86522 0
M  V30 11269 H 1078.2 -5.71873 0.404212 0
M  V30 11270 H 1076.6 -5.88427 1.17789 0
M  V30 11271 H 1077.67 -4.55574 1.66073 0
M  V30 11272 N 1079.01 -0.398486 -1.52479 0
M  V30 11273 C 1080.26 0.181019 -2.0199 0
M  V30 11274 C 1080.59 1.45691 -1.28405 0
M  V30 11275 O 1079.87 1.90607 -0.387207 0
M  V30 11276 C 1080.15 0.439587 -3.57407 0
M  V30 11277 C 1080 -0.85223 -4.41653 0
M  V30 11278 C 1081.32 1.2263 -4.2267 0
M  V30 11279 H 1078.44 0.0643164 -0.734188 0
M  V30 11280 H 1081.08 -0.52986 -1.82462 0
M  V30 11281 H 1079.23 1.04516 -3.74177 0
M  V30 11282 H 1080.91 -1.48879 -4.36615 0
M  V30 11283 H 1079.15 -1.46555 -4.08294 0
M  V30 11284 H 1079.82 -0.625839 -5.48441 0
M  V30 11285 H 1082.3 0.713722 -4.09933 0
M  V30 11286 H 1081.17 1.37596 -5.31374 0
M  V30 11287 H 1081.43 2.24403 -3.80914 0
M  V30 11288 N 1080.49 1.57075 -0.12858 0
M  V30 11289 C 1081.4 2.19369 0.831533 0
M  V30 11290 C 1082.42 1.17258 1.28555 0
M  V30 11291 O 1083.59 1.49766 1.34656 0
M  V30 11292 C 1080.66 2.78846 2.06024 0
M  V30 11293 C 1079.72 3.96024 1.65722 0
M  V30 11294 C 1078.95 4.52655 2.82735 0
M  V30 11295 O 1079.18 4.08175 3.98434 0
M  V30 11296 O 1078.11 5.43198 2.59268 0
M  V30 11297 H 1081.94 3.01887 0.331352 0
M  V30 11298 H 1079.52 1.49081 0.0975226 0
M  V30 11299 H 1081.4 3.16721 2.77967 0
M  V30 11300 H 1080.08 1.99353 2.5503 0
M  V30 11301 H 1078.98 3.62899 0.908574 0
M  V30 11302 H 1080.32 4.76981 1.21449 0
M  V30 11303 N 1081.97 -0.145205 1.5693 0
M  V30 11304 C 1082.92 -1.17923 1.98401 0
M  V30 11305 C 1083.89 -1.42591 0.851885 0
M  V30 11306 O 1085.07 -1.54896 1.11409 0
M  V30 11307 C 1082.21 -2.50727 2.37128 0
M  V30 11308 C 1081.32 -2.33218 3.63639 0
M  V30 11309 C 1080.46 -3.5907 3.91462 0
M  V30 11310 C 1079.5 -3.36605 5.11237 0
M  V30 11311 N 1078.64 -4.54592 5.35061 0
M  V30 11312 H 1083.48 -0.818573 2.86537 0
M  V30 11313 H 1081.01 -0.392739 1.4176 0
M  V30 11314 H 1082.97 -3.28165 2.57611 0
M  V30 11315 H 1081.6 -2.84736 1.52069 0
M  V30 11316 H 1080.65 -1.46826 3.50922 0
M  V30 11317 H 1081.96 -2.12579 4.51234 0
M  V30 11318 H 1081.12 -4.44936 4.12453 0
M  V30 11319 H 1079.86 -3.82715 3.02293 0
M  V30 11320 H 1078.86 -2.49127 4.90118 0
M  V30 11321 H 1080.09 -3.14357 6.01961 0
M  V30 11322 H 1078.03 -4.78406 4.48847 0
M  V30 11323 H 1077.95 -4.36962 6.16928 0
M  V30 11324 H 1079.22 -5.41666 5.60551 0
M  V30 11325 N 1083.45 -1.52049 -0.414609 0
M  V30 11326 C 1084.7 -1.65511 -1.15977 0
M  V30 11327 C 1085.02 -0.384703 -1.91168 0
M  V30 11328 O 1084.29 0.600247 -1.86477 0
M  V30 11329 H 1082.87 -0.610039 -0.431116 0
M  V30 11330 H 1085.53 -1.8907 -0.473139 0
M  V30 11331 H 1084.62 -2.4936 -1.87686 0
M  V30 11332 N 1084.93 0.6715 -1.42579 0
M  V30 11333 C 1086.17 1.43154 -1.43224 0
M  V30 11334 C 1086.5 1.94436 -0.0498695 0
M  V30 11335 O 1085.76 1.71521 0.942282 0
M  V30 11336 C 1086.05 2.64256 -2.40632 0
M  V30 11337 C 1085.72 2.31497 -3.86937 0
M  V30 11338 C 1084.38 2.22274 -4.26788 0
M  V30 11339 C 1086.73 2.04957 -4.7921 0
M  V30 11340 C 1084.06 1.84642 -5.56888 0
M  V30 11341 C 1086.41 1.68828 -6.09656 0
M  V30 11342 C 1085.08 1.58118 -6.48502 0
M  V30 11343 H 1084.35 0.523838 -0.524094 0
M  V30 11344 H 1087 0.765363 -1.7554 0
M  V30 11345 H 1085.3 3.35921 -2.01654 0
M  V30 11346 H 1087 3.22443 -2.38394 0
M  V30 11347 H 1083.59 2.39578 -3.55387 0
M  V30 11348 H 1087.77 2.11014 -4.49207 0
M  V30 11349 H 1083.03 1.74921 -5.85843 0
M  V30 11350 H 1087.2 1.47319 -6.8064 0
M  V30 11351 H 1084.83 1.28728 -7.49222 0
M  V30 11352 N 1086.4 1.28806 0.908124 0
M  V30 11353 C 1087.63 1.19271 1.69674 0
M  V30 11354 C 1088.05 -0.244403 1.86505 0
M  V30 11355 O 1087.41 -1.17668 1.37927 0
M  V30 11356 C 1087.46 1.9023 3.06341 0
M  V30 11357 O 1086.56 1.2136 3.94139 0
M  V30 11358 H 1085.9 0.413738 0.519343 0
M  V30 11359 H 1088.43 1.70227 1.13508 0
M  V30 11360 H 1088.44 1.98356 3.56537 0
M  V30 11361 H 1087.12 2.94762 2.93408 0
M  V30 11362 H 1085.7 1.21435 3.52573 0
M  V30 11363 N 1087.88 -1.11734 1.11145 0
M  V30 11364 C 1088.83 -2.19765 0.761982 0
M  V30 11365 C 1089.82 -1.67616 -0.24518 0
M  V30 11366 O 1091.03 -1.79695 -0.104781 0
M  V30 11367 H 1087.4 -0.71644 0.228513 0
M  V30 11368 H 1089.38 -2.4649 1.68183 0
M  V30 11369 C 1088.12 -3.47016 0.218057 0
M  V30 11370 H 1087.45 -3.87494 0.984299 0
M  V30 11371 H 1088.89 -4.23998 0.0116825 0
M  V30 11372 C 1087.35 -3.20088 -1.05096 0
M  V30 11373 O 1087.88 -3.40503 -2.1312 0
M  V30 11374 N 1086.08 -2.73844 -0.972523 0
M  V30 11375 H 1085.63 -2.57431 -0.0933459 0
M  V30 11376 H 1085.59 -2.56204 -1.82228 0
M  V30 11377 N 1089.36 -0.901303 -1.29284 0
M  V30 11378 C 1090.29 -0.396909 -2.30102 0
M  V30 11379 C 1091.27 0.528919 -1.61668 0
M  V30 11380 O 1092.46 0.439306 -1.89166 0
M  V30 11381 C 1089.59 0.375006 -3.45269 0
M  V30 11382 C 1088.54 -0.46054 -4.25515 0
M  V30 11383 C 1087.87 0.438967 -5.32895 0
M  V30 11384 C 1089.17 -1.7113 -4.93469 0
M  V30 11385 H 1090.86 -1.23943 -2.72541 0
M  V30 11386 H 1088.41 -0.597428 -1.31022 0
M  V30 11387 H 1090.36 0.738622 -4.14876 0
M  V30 11388 H 1089.08 1.25132 -3.01678 0
M  V30 11389 H 1087.74 -0.80651 -3.57618 0
M  V30 11390 H 1087.39 1.31346 -4.85548 0
M  V30 11391 H 1087.09 -0.116406 -5.87485 0
M  V30 11392 H 1088.61 0.79874 -6.05353 0
M  V30 11393 H 1090.03 -1.41732 -5.55504 0
M  V30 11394 H 1088.42 -2.20811 -5.57999 0
M  V30 11395 H 1089.49 -2.44636 -4.18666 0
M  V30 11396 N 1090.84 1.42931 -0.663954 0
M  V30 11397 C 1091.78 2.3079 0.0210764 0
M  V30 11398 C 1092.75 1.45356 0.803796 0
M  V30 11399 O 1093.94 1.74207 0.778237 0
M  V30 11400 C 1091.08 3.31069 0.974023 0
M  V30 11401 C 1090.19 4.31598 0.186273 0
M  V30 11402 C 1089.33 5.18955 1.13399 0
M  V30 11403 C 1088.37 6.1117 0.337292 0
M  V30 11404 N 1087.5 6.91114 1.23715 0
M  V30 11405 H 1092.34 2.88819 -0.733995 0
M  V30 11406 H 1089.88 1.42274 -0.373711 0
M  V30 11407 H 1091.84 3.87727 1.54024 0
M  V30 11408 H 1090.47 2.74665 1.69585 0
M  V30 11409 H 1089.52 3.77147 -0.496402 0
M  V30 11410 H 1090.83 4.96919 -0.432753 0
M  V30 11411 H 1089.99 5.80292 1.77049 0
M  V30 11412 H 1088.73 4.53785 1.78691 0
M  V30 11413 H 1087.73 5.48911 -0.312492 0
M  V30 11414 H 1088.96 6.78386 -0.31138 0
M  V30 11415 H 1086.9 6.28583 1.87668 0
M  V30 11416 H 1086.82 7.52999 0.672946 0
M  V30 11417 H 1088.09 7.56948 1.86146 0
M  V30 11418 N 1092.32 0.406567 1.52266 0
M  V30 11419 C 1093.26 -0.420182 2.26943 0
M  V30 11420 C 1094.23 -1.04323 1.29251 0
M  V30 11421 O 1095.42 -1.06799 1.5811 0
M  V30 11422 C 1092.56 -1.5323 3.09216 0
M  V30 11423 C 1091.67 -0.930419 4.21862 0
M  V30 11424 C 1090.81 -2.01502 4.91498 0
M  V30 11425 C 1089.84 -1.38994 5.9611 0
M  V30 11426 N 1088.98 -2.41458 6.59274 0
M  V30 11427 H 1093.82 0.223066 2.97164 0
M  V30 11428 H 1091.36 0.121842 1.46595 0
M  V30 11429 H 1093.32 -2.18803 3.5522 0
M  V30 11430 H 1091.95 -2.14561 2.41171 0
M  V30 11431 H 1091 -0.163809 3.80047 0
M  V30 11432 H 1092.31 -0.433785 4.9691 0
M  V30 11433 H 1091.46 -2.74807 5.40894 0
M  V30 11434 H 1090.2 -2.5453 4.16012 0
M  V30 11435 H 1089.21 -0.642213 5.46036 0
M  V30 11436 H 1090.43 -0.867386 6.73538 0
M  V30 11437 H 1088.38 -2.93623 5.86619 0
M  V30 11438 H 1088.3 -1.96599 7.2999 0
M  V30 11439 H 1089.56 -3.14341 7.13309 0
M  V30 11440 N 1093.79 -1.57004 0.136909 0
M  V30 11441 C 1094.73 -2.13355 -0.837405 0
M  V30 11442 C 1095.74 -1.08053 -1.21772 0
M  V30 11443 O 1096.93 -1.35365 -1.16355 0
M  V30 11444 C 1094.03 -2.63302 -2.13366 0
M  V30 11445 C 1093.2 -3.92896 -1.92228 0
M  V30 11446 C 1092.26 -4.28257 -3.05749 0
M  V30 11447 O 1091.29 -4.96761 -2.7788 0
M  V30 11448 N 1092.49 -3.87021 -4.3266 0
M  V30 11449 H 1095.25 -2.9758 -0.35586 0
M  V30 11450 H 1092.81 -1.61832 -0.0469758 0
M  V30 11451 H 1094.81 -2.83977 -2.88339 0
M  V30 11452 H 1093.38 -1.83858 -2.52814 0
M  V30 11453 H 1092.6 -3.80949 -1.01349 0
M  V30 11454 H 1093.88 -4.776 -1.75431 0
M  V30 11455 H 1093.28 -3.31804 -4.58173 0
M  V30 11456 H 1091.84 -4.12768 -5.04446 0
M  V30 11457 N 1095.27 0.136881 -1.57004 0
M  V30 11458 C 1096.52 0.846257 -1.83088 0
M  V30 11459 C 1096.83 1.81876 -0.719765 0
M  V30 11460 O 1098.04 2.57302 -0.866494 0
M  V30 11461 C 1096.5 1.55559 -3.24545 0
M  V30 11462 C 1096.1 0.624989 -4.43619 0
M  V30 11463 C 1097.85 2.25115 -3.59893 0
M  V30 11464 C 1095.76 1.33653 -5.761 0
M  V30 11465 H 1094.69 0.319768 -0.682836 0
M  V30 11466 H 1097.34 0.0989741 -1.83233 0
M  V30 11467 H 1095.72 2.34887 -3.18817 0
M  V30 11468 H 1096.89 -0.133783 -4.60606 0
M  V30 11469 H 1095.21 0.0373216 -4.16383 0
M  V30 11470 H 1097.8 2.79008 -4.56134 0
M  V30 11471 H 1098.15 3.02084 -2.86446 0
M  V30 11472 H 1098.68 1.52696 -3.67327 0
M  V30 11473 H 1095.42 0.608495 -6.5267 0
M  V30 11474 H 1094.94 2.06776 -5.63031 0
M  V30 11475 H 1096.62 1.87467 -6.19246 0
M  V30 11476 N 1096.75 1.52266 0.40654 0
M  V30 11477 C 1097.66 1.78688 1.52012 0
M  V30 11478 C 1098.68 0.6726 1.60475 0
M  V30 11479 O 1099.85 0.95829 1.77141 0
M  V30 11480 C 1096.92 1.93434 2.87722 0
M  V30 11481 C 1095.98 3.17341 2.89125 0
M  V30 11482 C 1095.21 3.31374 4.18362 0
M  V30 11483 O 1095.43 2.50613 5.12396 0
M  V30 11484 O 1094.37 4.24539 4.26674 0
M  V30 11485 H 1098.19 2.73213 1.3262 0
M  V30 11486 H 1095.78 1.37142 0.592653 0
M  V30 11487 H 1097.66 2.04941 3.68208 0
M  V30 11488 H 1096.34 1.02099 3.07177 0
M  V30 11489 H 1095.24 3.1129 2.07483 0
M  V30 11490 H 1096.58 4.08466 2.7462 0
M  V30 11491 N 1098.23 -0.663929 1.42933 0
M  V30 11492 C 1099.18 -1.79843 1.4751 0
M  V30 11493 C 1100.17 -1.65751 0.349727 0
M  V30 11494 O 1101.38 -1.72227 0.523239 0
M  V30 11495 H 1097.75 -0.593176 0.462219 0
M  V30 11496 H 1099.72 -1.73102 2.4306 0
M  V30 11497 C 1098.47 -3.18053 1.4049 0
M  V30 11498 H 1097.79 -3.29529 2.26386 0
M  V30 11499 H 1099.23 -3.97423 1.47754 0
M  V30 11500 C 1097.69 -3.36682 0.121076 0
M  V30 11501 O 1098.22 -3.93202 -0.821874 0
M  V30 11502 N 1096.43 -2.90579 0.0347141 0
M  V30 11503 H 1095.98 -2.44769 0.802852 0
M  V30 11504 H 1095.93 -3.03421 -0.823607 0
M  V30 11505 N 1099.71 -1.29285 -0.901281 0
M  V30 11506 C 1100.67 -1.14283 -1.98676 0
M  V30 11507 C 1101.67 -0.0787641 -1.60607 0
M  V30 11508 O 1102.86 -0.325574 -1.71131 0
M  V30 11509 C 1099.99 -0.747279 -3.32609 0
M  V30 11510 H 1101.18 -2.10701 -2.13413 0
M  V30 11511 H 1098.74 -1.12449 -1.08558 0
M  V30 11512 H 1099.47 0.217111 -3.23572 0
M  V30 11513 H 1099.26 -1.51608 -3.61604 0
M  V30 11514 H 1100.75 -0.665322 -4.12266 0
M  V30 11515 N 1101.18 1.11143 -1.11736 0
M  V30 11516 C 1102.6 1.34962 -0.851905 0
M  V30 11517 C 1102.8 1.94627 0.521797 0
M  V30 11518 O 1101.86 2.18121 1.27198 0
M  V30 11519 C 1103.17 2.27832 -1.96248 0
M  V30 11520 C 1104.72 2.41388 -1.9925 0
M  V30 11521 C 1105.19 3.37582 -3.09519 0
M  V30 11522 N 1106.68 3.45147 -3.08914 0
M  V30 11523 C 1107.42 4.19527 -3.90876 0
M  V30 11524 N 1106.91 4.96858 -4.82809 0
M  V30 11525 N 1108.71 4.15071 -3.79042 0
M  V30 11526 H 1100.86 0.707801 -2.0026 0
M  V30 11527 H 1103.12 0.374172 -0.871033 0
M  V30 11528 H 1102.83 1.91189 -2.95194 0
M  V30 11529 H 1102.7 3.28078 -1.86132 0
M  V30 11530 H 1105.09 2.77304 -1.00928 0
M  V30 11531 H 1105.17 1.40983 -2.13442 0
M  V30 11532 H 1104.81 3.02393 -4.0807 0
M  V30 11533 H 1104.74 4.37849 -2.92568 0
M  V30 11534 H 1107.23 2.89991 -2.42309 0
M  V30 11535 H 1107.55 5.5099 -5.41876 0
M  V30 11536 H 1105.89 4.96008 -4.86828 0
M  V30 11537 H 1109.08 3.53748 -3.06562 0
M  V30 11538 H 1109.26 4.72781 -4.4315 0
M  V30 11539 N 1102.66 0.908147 1.28804 0
M  V30 11540 C 1103.6 0.336764 2.25701 0
M  V30 11541 C 1104.57 -0.555849 1.52804 0
M  V30 11542 O 1105.76 -0.500763 1.81727 0
M  V30 11543 C 1102.88 -0.519154 3.34698 0
M  V30 11544 C 1101.93 0.307304 4.25391 0
M  V30 11545 S 1102.76 1.71048 5.07447 0
M  V30 11546 C 1103.92 0.861715 6.1994 0
M  V30 11547 H 1104.15 1.15806 2.73818 0
M  V30 11548 H 1101.69 0.709033 1.37157 0
M  V30 11549 H 1103.64 -1.00718 3.97952 0
M  V30 11550 H 1102.3 -1.31477 2.85259 0
M  V30 11551 H 1101.5 -0.346906 5.02805 0
M  V30 11552 H 1101.1 0.728777 3.66831 0
M  V30 11553 H 1103.39 0.088851 6.77442 0
M  V30 11554 H 1104.33 1.60821 6.89596 0
M  V30 11555 H 1104.74 0.412366 5.62992 0
M  V30 11556 N 1104.14 -1.42577 0.671525 0
M  V30 11557 C 1105.39 -2.01584 0.192431 0
M  V30 11558 C 1105.72 -1.53076 -1.19992 0
M  V30 11559 O 1104.97 -0.722196 -1.81887 0
M  V30 11560 C 1105.27 -3.56985 0.172097 0
M  V30 11561 C 1104.94 -4.24912 1.50867 0
M  V30 11562 C 1103.6 -4.43182 1.87464 0
M  V30 11563 C 1105.95 -4.6322 2.38908 0
M  V30 11564 C 1103.28 -4.97031 3.11732 0
M  V30 11565 C 1105.63 -5.18447 3.62485 0
M  V30 11566 C 1104.29 -5.34932 3.99255 0
M  V30 11567 H 1103.56 -0.737647 0.0704155 0
M  V30 11568 H 1106.21 -1.70807 0.865862 0
M  V30 11569 H 1104.52 -3.87411 -0.584835 0
M  V30 11570 H 1106.21 -4.00419 -0.215749 0
M  V30 11571 H 1102.8 -4.11048 1.21397 0
M  V30 11572 H 1106.99 -4.4878 2.1192 0
M  V30 11573 H 1102.24 -5.07979 3.40246 0
M  V30 11574 H 1106.42 -5.47075 4.30909 0
M  V30 11575 H 1104.04 -5.76422 4.95623 0
M  V30 11576 N 1105.62 -0.414636 -1.52048 0
M  V30 11577 C 1106.87 0.159034 -2.01473 0
M  V30 11578 C 1107.19 1.45176 -1.30188 0
M  V30 11579 O 1106.46 1.91134 -0.429469 0
M  V30 11580 H 1105.04 0.0617604 -0.744443 0
M  V30 11581 H 1107.7 -0.552141 -1.86916 0
M  V30 11582 H 1106.8 0.351217 -3.10118 0
M  V30 11583 N 1107.1 1.56929 -0.145233 0
M  V30 11584 C 1108.35 1.95243 0.506273 0
M  V30 11585 C 1108.66 1.0325 1.66129 0
M  V30 11586 O 1109.86 1.31135 2.37731 0
M  V30 11587 C 1108.32 3.47079 0.952042 0
M  V30 11588 C 1107.93 4.47654 -0.175947 0
M  V30 11589 C 1109.67 3.94263 1.57344 0
M  V30 11590 C 1107.58 5.90698 0.287993 0
M  V30 11591 H 1106.51 0.728906 0.192903 0
M  V30 11592 H 1109.16 1.82062 -0.229295 0
M  V30 11593 H 1107.54 3.55587 1.74282 0
M  V30 11594 H 1108.72 4.50841 -0.952848 0
M  V30 11595 H 1107.03 4.10377 -0.70564 0
M  V30 11596 H 1109.63 4.9857 1.93214 0
M  V30 11597 H 1109.97 3.35714 2.46174 0
M  V30 11598 H 1110.5 3.88665 0.847593 0
M  V30 11599 H 1107.24 6.53061 -0.564889 0
M  V30 11600 H 1106.76 5.90876 1.03081 0
M  V30 11601 H 1108.44 6.42747 0.740586 0
M  V30 11602 N 1108.58 -0.128553 1.57075 0
M  V30 11603 C 1109.99 -0.686713 1.73612 0
M  V30 11604 C 1110.34 -1.80778 0.762478 0
M  V30 11605 O 1109.46 -2.16297 -0.0667779 0
M  V30 11606 C 1110.06 -1.25246 3.148 0
M  V30 11607 C 1108.62 -1.757 3.32876 0
M  V30 11608 C 1107.76 -0.652844 2.69506 0
M  V30 11609 H 1110.71 0.0972859 1.58402 0
M  V30 11610 H 1110.74 -2.1222 3.15821 0
M  V30 11611 H 1110.25 -0.436308 3.8564 0
M  V30 11612 H 1108.35 -2.59824 2.67063 0
M  V30 11613 H 1108.46 -1.87302 4.4097 0
M  V30 11614 H 1106.83 -1.08408 2.30477 0
M  V30 11615 H 1107.61 0.15217 3.42963 0
M  V30 11616 N 1110.05 -1.5248 -0.398459 0
M  V30 11617 C 1111.3 -1.67309 -1.1461 0
M  V30 11618 C 1111.63 -0.407095 -1.89885 0
M  V30 11619 O 1110.91 0.594834 -1.85181 0
M  V30 11620 C 1111.19 -2.90204 -2.13198 0
M  V30 11621 C 1111.04 -4.26881 -1.4175 0
M  V30 11622 C 1112.36 -3.08634 -3.13741 0
M  V30 11623 H 1109.48 -0.608853 -0.415292 0
M  V30 11624 H 1112.12 -1.85057 -0.430573 0
M  V30 11625 H 1110.27 -2.75204 -2.74218 0
M  V30 11626 H 1111.95 -4.53631 -0.837676 0
M  V30 11627 H 1110.19 -4.27793 -0.719387 0
M  V30 11628 H 1110.86 -5.08939 -2.1374 0
M  V30 11629 H 1113.34 -3.22603 -2.62805 0
M  V30 11630 H 1112.21 -3.96117 -3.79977 0
M  V30 11631 H 1112.47 -2.22425 -3.82073 0
M  V30 11632 N 1111.53 0.65634 -1.43283 0
M  V30 11633 C 1112.78 1.41837 -1.44949 0
M  V30 11634 C 1113.11 1.94065 -0.0723212 0
M  V30 11635 O 1112.39 1.72092 0.906346 0
M  V30 11636 C 1112.67 2.60206 -2.48927 0
M  V30 11637 C 1112.52 2.1349 -3.95907 0
M  V30 11638 C 1113.84 3.62421 -2.49678 0
M  V30 11639 H 1110.96 0.514398 -0.527792 0
M  V30 11640 H 1113.6 0.74435 -1.74813 0
M  V30 11641 H 1111.75 3.17708 -2.23592 0
M  V30 11642 H 1113.42 1.61012 -4.32288 0
M  V30 11643 H 1111.67 1.4489 -4.08888 0
M  V30 11644 H 1112.34 2.98596 -4.64268 0
M  V30 11645 H 1114.81 3.14671 -2.72252 0
M  V30 11646 H 1113.69 4.42798 -3.24378 0
M  V30 11647 H 1113.95 4.14802 -1.52944 0
M  V30 11648 N 1113.01 1.29761 0.894412 0
M  V30 11649 C 1114.26 1.18214 1.64782 0
M  V30 11650 C 1114.59 -0.264635 1.92388 0
M  V30 11651 O 1113.86 -1.19051 1.53809 0
M  V30 11652 C 1114.15 2.00138 2.99361 0
M  V30 11653 C 1114 3.52984 2.78787 0
M  V30 11654 C 1115.32 1.83187 4.00163 0
M  V30 11655 H 1112.44 0.430802 0.597979 0
M  V30 11656 H 1115.08 1.59292 1.03566 0
M  V30 11657 H 1113.23 1.65233 3.51611 0
M  V30 11658 H 1114.9 3.97898 2.33398 0
M  V30 11659 H 1113.14 3.77642 2.13469 0
M  V30 11660 H 1113.82 4.05585 3.7444 0
M  V30 11661 H 1116.29 2.13684 3.57041 0
M  V30 11662 H 1115.17 2.42849 4.92255 0
M  V30 11663 H 1115.43 0.788469 4.35012 0
M  V30 11664 N 1114.49 -1.10549 1.12324 0
M  V30 11665 C 1115.45 -2.15039 0.793156 0
M  V30 11666 C 1116.45 -1.59651 -0.19192 0
M  V30 11667 O 1117.64 -1.74167 0.0337262 0
M  V30 11668 C 1114.77 -3.40433 0.17842 0
M  V30 11669 H 1115.97 -2.4575 1.71892 0
M  V30 11670 H 1113.52 -1.25892 0.926333 0
M  V30 11671 H 1114.25 -3.15338 -0.757122 0
M  V30 11672 H 1114.04 -3.81921 0.887645 0
M  V30 11673 H 1115.53 -4.17584 -0.0360724 0
M  V30 11674 N 1115.97 -0.914965 -1.28321 0
M  V30 11675 C 1117.21 -0.549562 -1.95212 0
M  V30 11676 C 1117.54 0.904658 -1.71842 0
M  V30 11677 O 1116.82 1.64354 -1.04009 0
M  V30 11678 C 1117.1 -0.860927 -3.49657 0
M  V30 11679 C 1116.96 -2.36797 -3.82423 0
M  V30 11680 C 1118.27 -0.357926 -4.38642 0
M  V30 11681 H 1115.39 -0.201136 -0.709023 0
M  V30 11682 H 1118.04 -1.14443 -1.51667 0
M  V30 11683 H 1116.19 -0.354665 -3.86878 0
M  V30 11684 H 1117.86 -2.94494 -3.55065 0
M  V30 11685 H 1116.1 -2.82245 -3.29424 0
M  V30 11686 H 1116.77 -2.53637 -4.90278 0
M  V30 11687 H 1119.25 -0.791636 -4.085 0
M  V30 11688 H 1118.12 -0.604855 -5.45557 0
M  V30 11689 H 1118.38 0.741775 -4.35833 0
M  V30 11690 N 1117.44 1.42219 -0.679077 0
M  V30 11691 C 1118.39 2.32599 0.00820028 0
M  V30 11692 C 1119.39 1.50059 0.786046 0
M  V30 11693 O 1120.59 1.66103 0.693528 0
M  V30 11694 H 1116.97 0.751694 0.0214483 0
M  V30 11695 H 1118.94 2.88257 -0.77138 0
M  V30 11696 C 1117.69 3.3468 0.942581 0
M  V30 11697 H 1117.01 3.98234 0.353463 0
M  V30 11698 H 1118.45 4.00496 1.39208 0
M  V30 11699 C 1116.91 2.67275 2.05099 0
M  V30 11700 O 1117.44 2.50793 3.13793 0
M  V30 11701 N 1115.64 2.26232 1.82394 0
M  V30 11702 H 1115.19 2.39838 0.939983 0
M  V30 11703 H 1115.15 1.81465 2.56744 0
M  V30 11704 N 1118.92 0.422693 1.51826 0
M  V30 11705 C 1119.88 -0.384307 2.25955 0
M  V30 11706 C 1120.88 -0.962184 1.28836 0
M  V30 11707 O 1122.07 -0.838931 1.52668 0
M  V30 11708 C 1119.21 -1.54228 3.04018 0
M  V30 11709 H 1120.4 0.265157 2.98726 0
M  V30 11710 H 1117.95 0.175515 1.55311 0
M  V30 11711 H 1118.69 -2.22822 2.35629 0
M  V30 11712 H 1118.47 -1.13425 3.75336 0
M  V30 11713 H 1119.96 -2.1128 3.60209 0
M  V30 11714 N 1120.4 -1.5685 0.153553 0
M  V30 11715 C 1121.65 -1.96334 -0.495915 0
M  V30 11716 C 1121.97 -1.03873 -1.64441 0
M  V30 11717 O 1121.23 -0.069231 -1.95578 0
M  V30 11718 C 1121.53 -3.42022 -1.0371 0
M  V30 11719 C 1121.19 -4.509 -0.00637049 0
M  V30 11720 C 1119.86 -4.80402 0.276956 0
M  V30 11721 C 1122.21 -5.16556 0.694187 0
M  V30 11722 C 1119.54 -5.72866 1.26653 0
M  V30 11723 C 1121.89 -6.10087 1.67263 0
M  V30 11724 C 1120.55 -6.37965 1.96359 0
M  V30 11725 H 1119.82 -0.718436 -0.181468 0
M  V30 11726 H 1122.47 -1.89968 0.241768 0
M  V30 11727 H 1120.77 -3.45252 -1.85225 0
M  V30 11728 H 1122.47 -3.69903 -1.54831 0
M  V30 11729 H 1119.06 -4.27942 -0.237378 0
M  V30 11730 H 1123.25 -4.9389 0.488496 0
M  V30 11731 H 1118.5 -5.92756 1.49833 0
M  V30 11732 H 1122.68 -6.60036 2.22094 0
M  V30 11733 H 1120.3 -7.09416 2.73189 0
M  V30 11734 N 1121.88 0.120221 -1.57141 0
M  V30 11735 C 1122.82 1.14751 -2.00252 0
M  V30 11736 C 1123.79 1.41217 -0.874462 0
M  V30 11737 O 1124.98 1.53104 -1.13859 0
M  V30 11738 C 1122.12 2.46923 -2.41087 0
M  V30 11739 C 1121.23 2.27403 -3.67303 0
M  V30 11740 C 1120.37 3.52797 -3.97125 0
M  V30 11741 C 1119.41 3.28429 -5.16528 0
M  V30 11742 N 1118.54 4.46022 -5.42226 0
M  V30 11743 H 1123.38 0.772884 -2.87803 0
M  V30 11744 H 1120.92 0.370137 -1.42367 0
M  V30 11745 H 1122.88 3.24025 -2.62799 0
M  V30 11746 H 1121.51 2.82281 -1.5658 0
M  V30 11747 H 1120.56 1.41224 -3.53214 0
M  V30 11748 H 1121.87 2.05373 -4.54558 0
M  V30 11749 H 1121.03 4.38318 -4.19479 0
M  V30 11750 H 1119.77 3.77857 -3.08343 0
M  V30 11751 H 1118.77 2.41299 -4.94019 0
M  V30 11752 H 1120 3.0474 -6.06886 0
M  V30 11753 H 1117.94 4.71205 -4.56401 0
M  V30 11754 H 1117.86 4.27092 -6.23802 0
M  V30 11755 H 1119.13 5.3268 -5.69098 0
M  V30 11756 N 1123.36 1.52689 0.390367 0
M  V30 11757 C 1124.58 1.71541 1.15678 0
M  V30 11758 C 1125 0.433171 1.83764 0
M  V30 11759 O 1124.36 -0.592248 1.72623 0
M  V30 11760 C 1124.41 2.864 2.20584 0
M  V30 11761 O 1124.13 4.0966 1.55274 0
M  V30 11762 C 1125.63 3.1692 3.09962 0
M  V30 11763 H 1122.85 0.574381 0.346883 0
M  V30 11764 H 1125.39 1.99332 0.456851 0
M  V30 11765 H 1123.55 2.61075 2.86214 0
M  V30 11766 H 1123.96 4.73802 2.2497 0
M  V30 11767 H 1125.44 4.00755 3.79604 0
M  V30 11768 H 1125.91 2.31245 3.73393 0
M  V30 11769 H 1126.52 3.4408 2.49979 0
M  V30 11770 N 1124.83 -0.648732 1.43629 0
M  V30 11771 C 1126.11 -1.4062 1.35961 0
M  V30 11772 C 1126.49 -2.11098 0.00961023 0
M  V30 11773 O 1125.84 -2.05107 -1.00714 0
M  V30 11774 C 1126.05 -2.38719 2.54586 0
M  V30 11775 C 1127.4 -3.02584 2.97873 0
M  V30 11776 O 1128.42 -2.49046 2.54665 0
M  V30 11777 O 1127.28 -3.99662 3.72736 0
M  V30 11778 H 1124.37 -0.628483 0.53753 0
M  V30 11779 H 1126.92 -0.675263 1.55687 0
M  V30 11780 H 1125.69 -1.85619 3.44472 0
M  V30 11781 H 1125.32 -3.19257 2.36983 0
M  V30 11782 N 1126.31 -1.30234 -0.887518 0
M  V30 11783 C 1127.54 -1.21829 -1.67229 0
M  V30 11784 C 1127.96 0.219251 -1.87523 0
M  V30 11785 O 1127.31 1.14526 -1.42091 0
M  V30 11786 C 1127.36 -1.94044 -3.05007 0
M  V30 11787 O 1127.08 -3.32185 -2.85631 0
M  V30 11788 C 1128.59 -1.92265 -3.99436 0
M  V30 11789 H 1125.81 -0.421716 -0.521916 0
M  V30 11790 H 1128.35 -1.71816 -1.10903 0
M  V30 11791 H 1126.5 -1.47861 -3.58072 0
M  V30 11792 H 1126.92 -3.68724 -3.73018 0
M  V30 11793 H 1128.39 -2.47336 -4.93486 0
M  V30 11794 H 1128.87 -0.900984 -4.29859 0
M  V30 11795 H 1129.48 -2.38247 -3.52305 0
M  V30 11796 N 1127.79 1.09952 -1.12909 0
M  V30 11797 C 1128.7 2.19999 -0.81471 0
M  V30 11798 C 1129.72 1.72864 0.19851 0
M  V30 11799 O 1130.89 2.01376 0.0308832 0
M  V30 11800 C 1127.96 3.45573 -0.279363 0
M  V30 11801 C 1127.02 4.07417 -1.35314 0
M  V30 11802 C 1126.25 5.26996 -0.843247 0
M  V30 11803 O 1126.47 5.69495 0.321164 0
M  V30 11804 O 1125.41 5.79826 -1.61511 0
M  V30 11805 H 1129.23 2.49333 -1.73398 0
M  V30 11806 H 1126.82 1.18784 -0.906128 0
M  V30 11807 H 1128.7 4.21398 0.0140531 0
M  V30 11808 H 1127.38 3.17854 0.612401 0
M  V30 11809 H 1126.28 3.33253 -1.6998 0
M  V30 11810 H 1127.62 4.39349 -2.21885 0
M  V30 11811 N 1129.27 0.921757 1.27833 0
M  V30 11812 C 1130.49 0.574599 1.99281 0
M  V30 11813 C 1130.92 -0.838905 1.68357 0
M  V30 11814 O 1130.28 -1.56196 0.920468 0
M  V30 11815 C 1130.32 0.800027 3.51613 0
M  V30 11816 O 1129.43 -0.137215 4.12172 0
M  V30 11817 H 1128.77 0.221887 0.625829 0
M  V30 11818 H 1131.3 1.23939 1.62789 0
M  V30 11819 H 1131.31 0.71326 4.01717 0
M  V30 11820 H 1129.98 1.83042 3.73455 0
M  V30 11821 H 1128.56 -0.00103872 3.729 0
M  V30 11822 N 1130.75 -1.41857 0.686609 0
M  V30 11823 C 1131.66 -2.34595 0.0159005 0
M  V30 11824 C 1132.67 -1.55741 -0.775933 0
M  V30 11825 O 1133.85 -1.8826 -0.71555 0
M  V30 11826 C 1130.91 -3.34395 -0.915473 0
M  V30 11827 C 1129.97 -4.29141 -0.116851 0
M  V30 11828 C 1129.21 -5.24174 -1.00386 0
M  V30 11829 O 1129.43 -5.24431 -2.2434 0
M  V30 11830 O 1128.36 -6.00152 -0.458337 0
M  V30 11831 H 1132.19 -2.9351 0.780101 0
M  V30 11832 H 1129.78 -1.42559 0.446896 0
M  V30 11833 H 1131.66 -3.95675 -1.44981 0
M  V30 11834 H 1130.33 -2.77936 -1.65932 0
M  V30 11835 H 1129.24 -3.71238 0.461871 0
M  V30 11836 H 1130.57 -4.88673 0.588138 0
M  V30 11837 N 1132.22 -0.430739 -1.51599 0
M  V30 11838 C 1133.15 0.374695 -2.30474 0
M  V30 11839 C 1134.14 1.02694 -1.35602 0
M  V30 11840 O 1135.32 1.03184 -1.6452 0
M  V30 11841 C 1132.45 1.47981 -3.14196 0
M  V30 11842 C 1131.4 0.951415 -4.17291 0
M  V30 11843 C 1130.73 2.15177 -4.89492 0
M  V30 11844 C 1132.03 -0.00957951 -5.22299 0
M  V30 11845 H 1133.72 -0.283508 -2.98055 0
M  V30 11846 H 1131.27 -0.13779 -1.43339 0
M  V30 11847 H 1133.22 2.05043 -3.68151 0
M  V30 11848 H 1131.95 2.16621 -2.44424 0
M  V30 11849 H 1130.61 0.403052 -3.64378 0
M  V30 11850 H 1130.25 2.82421 -4.1623 0
M  V30 11851 H 1129.95 1.80464 -5.59202 0
M  V30 11852 H 1131.48 2.72806 -5.46269 0
M  V30 11853 H 1132.89 0.470527 -5.71366 0
M  V30 11854 H 1131.29 -0.268959 -5.99497 0
M  V30 11855 H 1132.36 -0.948297 -4.75537 0
M  V30 11856 N 1133.7 1.56767 -0.161869 0
M  V30 11857 C 1134.98 1.88245 0.531352 0
M  V30 11858 C 1135.36 1.07025 1.81958 0
M  V30 11859 O 1134.71 0.161385 2.27929 0
M  V30 11860 C 1134.92 3.40117 0.782416 0
M  V30 11861 C 1136.27 4.09655 1.11661 0
M  V30 11862 O 1137.29 3.4538 0.871274 0
M  V30 11863 O 1136.15 5.23192 1.57901 0
M  V30 11864 H 1133.24 0.780725 0.272759 0
M  V30 11865 H 1135.79 1.68522 -0.199597 0
M  V30 11866 H 1134.56 3.91088 -0.128677 0
M  V30 11867 H 1134.18 3.65418 1.56702 0
M  V30 11868 N 1135.18 -0.111886 1.57202 0
M  V30 11869 C 1136.11 -1.13796 2.03894 0
M  V30 11870 C 1137.09 -1.4277 0.924696 0
M  V30 11871 O 1138.28 -1.53089 1.19488 0
M  V30 11872 C 1135.41 -2.46229 2.44925 0
M  V30 11873 C 1134.36 -2.31702 3.59859 0
M  V30 11874 C 1133.69 -3.69161 3.86813 0
M  V30 11875 C 1134.99 -1.77158 4.91337 0
M  V30 11876 H 1136.68 -0.749581 2.89865 0
M  V30 11877 H 1134.23 -0.359126 1.3945 0
M  V30 11878 H 1136.18 -3.18267 2.76195 0
M  V30 11879 H 1134.9 -2.86971 1.55933 0
M  V30 11880 H 1133.56 -1.62112 3.28809 0
M  V30 11881 H 1133.21 -4.07401 2.95015 0
M  V30 11882 H 1132.91 -3.60292 4.6418 0
M  V30 11883 H 1134.43 -4.42693 4.20542 0
M  V30 11884 H 1135.85 -2.3902 5.21097 0
M  V30 11885 H 1134.25 -1.79091 5.72753 0
M  V30 11886 H 1135.32 -0.729675 4.79379 0
M  V30 11887 N 1136.66 -1.52894 -0.382264 0
M  V30 11888 C 1137.91 -1.67489 -1.12385 0
M  V30 11889 C 1138.22 -0.424565 -1.90937 0
M  V30 11890 O 1139.43 -0.450763 -2.67732 0
M  V30 11891 C 1137.88 -2.96019 -2.04697 0
M  V30 11892 C 1137.49 -4.28255 -1.31535 0
M  V30 11893 C 1139.23 -3.19981 -2.78949 0
M  V30 11894 C 1137.14 -5.47887 -2.22652 0
M  V30 11895 H 1136.07 -0.624002 -0.423246 0
M  V30 11896 H 1138.72 -1.79392 -0.386107 0
M  V30 11897 H 1137.1 -2.77878 -2.82134 0
M  V30 11898 H 1138.28 -4.56971 -0.592771 0
M  V30 11899 H 1136.59 -4.10607 -0.692148 0
M  V30 11900 H 1139.19 -4.06541 -3.47316 0
M  V30 11901 H 1139.53 -2.35335 -3.43399 0
M  V30 11902 H 1140.07 -3.38718 -2.08602 0
M  V30 11903 H 1136.81 -6.3496 -1.62806 0
M  V30 11904 H 1136.33 -5.23473 -2.92807 0
M  V30 11905 H 1138 -5.82026 -2.82586 0
M  V30 11906 N 1138.14 0.641106 -1.43971 0
M  V30 11907 C 1139.36 1.43324 -1.4991 0
M  V30 11908 C 1139.79 1.87705 -0.121908 0
M  V30 11909 O 1139.15 1.58127 0.886875 0
M  V30 11910 C 1139.19 2.63637 -2.46025 0
M  V30 11911 O 1138.3 3.63123 -1.95488 0
M  V30 11912 H 1137.64 0.429252 -0.506595 0
M  V30 11913 H 1140.17 0.783427 -1.89007 0
M  V30 11914 H 1140.18 3.11304 -2.63731 0
M  V30 11915 H 1138.85 2.30678 -3.46064 0
M  V30 11916 H 1137.43 3.22332 -1.87501 0
M  V30 11917 N 1139.62 1.30703 0.880598 0
M  V30 11918 C 1141.03 1.09129 1.1646 0
M  V30 11919 C 1141.23 -0.145131 2.00977 0
M  V30 11920 O 1140.29 -0.837502 2.38206 0
M  V30 11921 C 1141.6 2.35717 1.86703 0
M  V30 11922 C 1143.15 2.41224 1.9945 0
M  V30 11923 C 1143.62 3.67665 2.73105 0
M  V30 11924 N 1145.11 3.68498 2.80648 0
M  V30 11925 C 1145.85 4.63024 3.38225 0
M  V30 11926 N 1145.35 5.67898 3.96817 0
M  V30 11927 N 1147.14 4.50561 3.36082 0
M  V30 11928 H 1139.29 2.10019 0.317164 0
M  V30 11929 H 1141.55 0.925994 0.203072 0
M  V30 11930 H 1141.26 3.2597 1.32046 0
M  V30 11931 H 1141.13 2.447 2.87057 0
M  V30 11932 H 1143.52 1.51446 2.53275 0
M  V30 11933 H 1143.6 2.36212 0.981704 0
M  V30 11934 H 1143.24 4.57803 2.19951 0
M  V30 11935 H 1143.17 3.69939 3.7477 0
M  V30 11936 H 1145.67 2.92681 2.39053 0
M  V30 11937 H 1145.98 6.3612 4.3883 0
M  V30 11938 H 1144.32 5.71685 3.95223 0
M  V30 11939 H 1147.51 3.67811 2.89539 0
M  V30 11940 H 1147.69 5.24408 3.80657 0
M  V30 11941 N 1141.09 -1.09351 1.1349 0
M  V30 11942 C 1142.02 -2.18037 0.835588 0
M  V30 11943 C 1143 -1.68856 -0.205373 0
M  V30 11944 O 1144.19 -1.94094 -0.0641357 0
M  V30 11945 C 1141.32 -3.45987 0.301661 0
M  V30 11946 C 1140.27 -4.08507 1.27696 0
M  V30 11947 C 1139.6 -5.31292 0.602758 0
M  V30 11948 C 1140.9 -4.50916 2.63575 0
M  V30 11949 H 1142.59 -2.43332 1.74441 0
M  V30 11950 H 1140.14 -1.1695 0.840166 0
M  V30 11951 H 1142.09 -4.21324 0.079928 0
M  V30 11952 H 1140.82 -3.20217 -0.642552 0
M  V30 11953 H 1139.48 -3.3519 1.4847 0
M  V30 11954 H 1139.12 -5.01802 -0.346953 0
M  V30 11955 H 1138.82 -5.74075 1.25345 0
M  V30 11956 H 1140.35 -6.09351 0.390325 0
M  V30 11957 H 1141.76 -5.17474 2.46765 0
M  V30 11958 H 1140.16 -5.04586 3.24827 0
M  V30 11959 H 1141.23 -3.63279 3.2118 0
M  V30 11960 N 1142.57 -0.928524 -1.27343 0
M  V30 11961 C 1143.8 -0.58516 -1.98974 0
M  V30 11962 C 1144.22 0.829964 -1.68799 0
M  V30 11963 O 1143.58 1.55705 -0.928738 0
M  V30 11964 C 1143.63 -0.818662 -3.51184 0
M  V30 11965 O 1142.73 0.115355 -4.12239 0
M  V30 11966 H 1142.07 -0.225203 -0.624644 0
M  V30 11967 H 1144.6 -1.248 -1.6213 0
M  V30 11968 H 1144.61 -0.734554 -4.01333 0
M  V30 11969 H 1143.29 -1.8502 -3.72479 0
M  V30 11970 H 1141.86 -0.0187371 -3.72895 0
M  V30 11971 N 1144.05 1.41491 -0.694123 0
M  V30 11972 C 1145.47 1.55358 -0.365532 0
M  V30 11973 C 1145.67 1.66994 1.12762 0
M  V30 11974 O 1144.72 1.64756 1.91342 0
M  V30 11975 C 1146.03 2.79352 -1.11279 0
M  V30 11976 C 1147.58 2.93147 -1.097 0
M  V30 11977 C 1148.06 4.20027 -1.82597 0
M  V30 11978 N 1149.55 4.26981 -1.7956 0
M  V30 11979 C 1150.28 5.24013 -2.32805 0
M  V30 11980 N 1149.78 6.27083 -2.94515 0
M  V30 11981 N 1151.57 5.15943 -2.23069 0
M  V30 11982 H 1143.72 1.32183 -1.66257 0
M  V30 11983 H 1145.99 0.637624 -0.701527 0
M  V30 11984 H 1145.69 2.76958 -2.16765 0
M  V30 11985 H 1145.57 3.70827 -0.690439 0
M  V30 11986 H 1147.95 2.95057 -0.0504037 0
M  V30 11987 H 1148.03 2.02849 -1.55839 0
M  V30 11988 H 1147.68 4.18878 -2.87235 0
M  V30 11989 H 1147.61 5.09294 -1.33893 0
M  V30 11990 H 1150.1 3.53129 -1.34567 0
M  V30 11991 H 1150.41 6.97511 -3.32714 0
M  V30 11992 H 1148.76 6.27589 -2.98592 0
M  V30 11993 H 1151.95 4.34346 -1.74532 0
M  V30 11994 H 1152.12 5.91396 -2.64868 0
M  V30 11995 N 1145.53 0.438773 1.51369 0
M  V30 11996 C 1146.44 -0.378074 2.31534 0
M  V30 11997 C 1147.45 -1.02632 1.40508 0
M  V30 11998 O 1148.63 -1.02138 1.73579 0
M  V30 11999 C 1145.69 -1.46374 3.14286 0
M  V30 12000 C 1144.76 -0.835473 4.21092 0
M  V30 12001 C 1143.99 -1.86941 4.99889 0
M  V30 12002 O 1144.21 -3.0918 4.79337 0
M  V30 12003 O 1143.15 -1.45914 5.83946 0
M  V30 12004 H 1146.97 0.276401 3.0244 0
M  V30 12005 H 1144.56 0.201281 1.48038 0
M  V30 12006 H 1146.44 -2.09335 3.65728 0
M  V30 12007 H 1145.11 -2.10227 2.46143 0
M  V30 12008 H 1144.02 -0.167775 3.73724 0
M  V30 12009 H 1145.35 -0.240406 4.91613 0
M  V30 12010 N 1147.01 -1.56678 0.170181 0
M  V30 12011 C 1147.96 -2.14503 -0.772818 0
M  V30 12012 C 1148.94 -1.07896 -1.19362 0
M  V30 12013 O 1150.13 -1.34021 -1.15617 0
M  V30 12014 C 1147.26 -2.78844 -2.00253 0
M  V30 12015 C 1146.35 -3.92607 -1.60377 0
M  V30 12016 N 1146.74 -4.97464 -0.914519 0
M  V30 12017 C 1145.04 -4.03746 -1.89487 0
M  V30 12018 C 1145.74 -5.77248 -0.718343 0
M  V30 12019 N 1144.71 -5.2881 -1.25942 0
M  V30 12020 H 1148.51 -2.92941 -0.237231 0
M  V30 12021 H 1146.03 -1.62371 -0.0305396 0
M  V30 12022 H 1148.03 -3.18646 -2.68831 0
M  V30 12023 H 1146.69 -2.01886 -2.54307 0
M  V30 12024 H 1147.7 -5.14724 -0.572692 0
M  V30 12025 H 1144.37 -3.3789 -2.45227 0
M  V30 12026 H 1145.76 -6.71676 -0.173373 0
M  V30 12027 N 1148.48 0.103547 -1.57259 0
M  V30 12028 C 1149.73 0.806979 -1.8529 0
M  V30 12029 C 1150.05 1.79679 -0.757653 0
M  V30 12030 O 1149.32 1.94695 0.216913 0
M  V30 12031 H 1147.9 0.301012 -0.683667 0
M  V30 12032 H 1150.56 0.0871886 -1.94705 0
M  V30 12033 H 1149.66 1.34275 -2.81738 0
M  V30 12034 N 1149.96 1.53094 0.37415 0
M  V30 12035 C 1150.92 1.78264 1.44065 0
M  V30 12036 C 1151.92 0.652892 1.46949 0
M  V30 12037 O 1153.11 0.921046 1.47859 0
M  V30 12038 C 1150.25 1.89693 2.83248 0
M  V30 12039 H 1151.44 2.73505 1.23025 0
M  V30 12040 H 1148.99 1.44041 0.60678 0
M  V30 12041 H 1149.73 0.964884 3.09613 0
M  V30 12042 H 1149.51 2.71855 2.82554 0
M  V30 12043 H 1151 2.10787 3.60498 0
M  V30 12044 N 1151.44 -0.633461 1.44309 0
M  V30 12045 C 1152.69 -1.39306 1.46969 0
M  V30 12046 C 1153.01 -1.94235 0.101403 0
M  V30 12047 O 1152.27 -1.73959 -0.896475 0
M  V30 12048 C 1152.57 -2.57783 2.47554 0
M  V30 12049 C 1152.23 -2.21156 3.92939 0
M  V30 12050 C 1150.9 -2.1088 4.32531 0
M  V30 12051 C 1153.25 -1.9218 4.84475 0
M  V30 12052 C 1150.58 -1.69812 5.61588 0
M  V30 12053 C 1152.93 -1.52605 6.13917 0
M  V30 12054 C 1151.59 -1.40868 6.52466 0
M  V30 12055 H 1150.86 -0.509758 0.537799 0
M  V30 12056 H 1153.51 -0.718552 1.77508 0
M  V30 12057 H 1151.81 -3.30456 2.1049 0
M  V30 12058 H 1153.51 -3.16009 2.46859 0
M  V30 12059 H 1150.1 -2.30072 3.61614 0
M  V30 12060 H 1154.29 -1.9903 4.54644 0
M  V30 12061 H 1149.54 -1.59327 5.90275 0
M  V30 12062 H 1153.72 -1.29221 6.84306 0
M  V30 12063 H 1151.34 -1.08818 7.52371 0
M  V30 12064 N 1152.92 -1.31168 -0.873655 0
M  V30 12065 C 1154.2 -1.11285 -1.60857 0
M  V30 12066 C 1154.58 0.333788 -2.08444 0
M  V30 12067 O 1153.92 1.32726 -1.86 0
M  V30 12068 C 1154.13 -2.12379 -2.7694 0
M  V30 12069 C 1155.48 -2.44704 -3.46994 0
M  V30 12070 O 1156.51 -2.10778 -2.87143 0
M  V30 12071 O 1155.36 -3.02786 -4.54954 0
M  V30 12072 H 1152.46 -0.428177 -0.707526 0
M  V30 12073 H 1155 -1.42634 -0.91944 0
M  V30 12074 H 1153.78 -3.09703 -2.39164 0
M  V30 12075 H 1153.4 -1.81914 -3.53544 0
M  V30 12076 N 1154.4 1.08748 -1.14068 0
M  V30 12077 C 1155.36 2.1375 -0.827266 0
M  V30 12078 C 1156.36 1.59936 0.166496 0
M  V30 12079 O 1157.55 1.74092 -0.0614305 0
M  V30 12080 C 1154.68 3.40106 -0.232557 0
M  V30 12081 H 1155.87 2.42985 -1.7578 0
M  V30 12082 H 1153.43 1.24402 -0.946244 0
M  V30 12083 H 1154.16 3.16503 0.706859 0
M  V30 12084 H 1153.95 3.8046 -0.948293 0
M  V30 12085 H 1155.44 4.17589 -0.0303662 0
M  V30 12086 N 1155.87 0.935264 1.26849 0
M  V30 12087 C 1157.12 0.580548 1.94313 0
M  V30 12088 C 1157.45 -0.877205 1.73259 0
M  V30 12089 O 1156.73 -1.62679 1.06611 0
M  V30 12090 C 1157.01 0.916445 3.48243 0
M  V30 12091 C 1156.86 2.42851 3.78607 0
M  V30 12092 C 1158.18 0.427665 4.38017 0
M  V30 12093 H 1155.3 0.21239 0.705733 0
M  V30 12094 H 1157.94 1.16841 1.49827 0
M  V30 12095 H 1156.09 0.416169 3.86265 0
M  V30 12096 H 1157.77 3.00106 3.50335 0
M  V30 12097 H 1156.01 2.8745 3.24892 0
M  V30 12098 H 1156.68 2.61405 4.8618 0
M  V30 12099 H 1159.16 0.856525 4.07189 0
M  V30 12100 H 1158.03 0.691571 5.44526 0
M  V30 12101 H 1158.29 -0.672344 4.36958 0
M  V30 12102 N 1157.35 -1.41121 0.701616 0
M  V30 12103 C 1158.3 -2.30765 0.040121 0
M  V30 12104 C 1159.27 -1.47436 -0.764975 0
M  V30 12105 O 1160.45 -1.76209 -0.731775 0
M  V30 12106 C 1157.59 -3.33535 -0.885903 0
M  V30 12107 C 1156.71 -4.3194 -0.0717765 0
M  V30 12108 C 1155.84 -5.21779 -0.995996 0
M  V30 12109 C 1154.88 -6.11849 -0.175133 0
M  V30 12110 N 1154.02 -6.94151 -1.05348 0
M  V30 12111 H 1158.86 -2.86772 0.810312 0
M  V30 12112 H 1156.4 -1.41233 0.411301 0
M  V30 12113 H 1158.35 -3.91675 -1.4369 0
M  V30 12114 H 1156.98 -2.79065 -1.62243 0
M  V30 12115 H 1156.04 -3.75698 0.596221 0
M  V30 12116 H 1157.35 -4.95597 0.56435 0
M  V30 12117 H 1156.5 -5.84782 -1.61601 0
M  V30 12118 H 1155.24 -4.58363 -1.66597 0
M  V30 12119 H 1154.25 -5.4789 0.457916 0
M  V30 12120 H 1155.47 -6.77322 0.491133 0
M  V30 12121 H 1153.42 -6.33338 -1.70936 0
M  V30 12122 H 1153.33 -7.54518 -0.473065 0
M  V30 12123 H 1154.6 -7.61617 -1.66012 0
M  V30 12124 N 1158.83 -0.446794 -1.51134 0
M  V30 12125 C 1160.07 0.115546 -2.04073 0
M  V30 12126 C 1160.43 1.39137 -1.32306 0
M  V30 12127 O 1161.64 2.03455 -1.75668 0
M  V30 12128 C 1159.91 0.319657 -3.55968 0
M  V30 12129 S 1161.47 0.844045 -4.30606 0
M  V30 12130 H 1158.28 0.0274089 -0.710471 0
M  V30 12131 H 1160.89 -0.608368 -1.85793 0
M  V30 12132 H 1159.59 -0.615082 -4.05765 0
M  V30 12133 H 1159.12 1.07038 -3.78558 0
M  V30 12134 H 1161.14 2.12051 -4.48608 0
M  V30 12135 N 1160.31 1.56586 -0.178487 0
M  V30 12136 C 1161.54 2.01475 0.470684 0
M  V30 12137 C 1161.95 1.0587 1.56323 0
M  V30 12138 O 1161.31 0.060749 1.82399 0
M  V30 12139 C 1161.36 3.46145 1.04238 0
M  V30 12140 O 1161.08 4.381 -0.0065582 0
M  V30 12141 C 1162.58 4.06471 1.76908 0
M  V30 12142 H 1159.8 0.660219 0.119801 0
M  V30 12143 H 1162.35 2.02542 -0.282322 0
M  V30 12144 H 1160.5 3.45831 1.74585 0
M  V30 12145 H 1160.91 5.22843 0.416554 0
M  V30 12146 H 1162.39 5.096 2.12161 0
M  V30 12147 H 1162.87 3.48974 2.66672 0
M  V30 12148 H 1163.47 4.10509 1.11186 0
M  V30 12149 N 1161.79 -0.095206 1.57312 0
M  V30 12150 C 1162.74 -1.12188 1.98489 0
M  V30 12151 C 1163.72 -1.35778 0.863317 0
M  V30 12152 O 1164.91 -1.36471 1.12715 0
M  V30 12153 C 1162.04 -2.44214 2.41277 0
M  V30 12154 C 1161.13 -2.23998 3.60119 0
M  V30 12155 N 1161.52 -1.7365 4.75057 0
M  V30 12156 C 1159.82 -2.54565 3.66214 0
M  V30 12157 C 1160.52 -1.67702 5.57002 0
M  V30 12158 N 1159.49 -2.12912 5.00169 0
M  V30 12159 H 1163.3 -0.725545 2.84804 0
M  V30 12160 H 1160.81 -0.302634 1.59555 0
M  V30 12161 H 1162.81 -3.185 2.69004 0
M  V30 12162 H 1161.47 -2.84585 1.56339 0
M  V30 12163 H 1162.48 -1.42849 4.9781 0
M  V30 12164 H 1159.15 -2.98461 2.91937 0
M  V30 12165 H 1160.54 -1.29827 6.59238 0
M  V30 12166 N 1163.26 -1.53291 -0.366026 0
M  V30 12167 C 1164.51 -1.70649 -1.10683 0
M  V30 12168 C 1164.87 -0.45249 -1.87003 0
M  V30 12169 O 1164.16 0.55448 -1.83401 0
M  V30 12170 C 1164.35 -2.89547 -2.09517 0
M  V30 12171 C 1164.18 -4.26389 -1.42907 0
M  V30 12172 C 1162.95 -4.91247 -1.18339 0
M  V30 12173 C 1165.15 -5.06939 -0.867015 0
M  V30 12174 N 1163.13 -6.12015 -0.480746 0
M  V30 12175 C 1164.5 -6.19304 -0.29371 0
M  V30 12176 C 1166.56 -4.91978 -0.765659 0
M  V30 12177 C 1165.26 -7.18342 0.371063 0
M  V30 12178 C 1167.29 -5.91289 -0.114668 0
M  V30 12179 C 1166.65 -7.02975 0.447764 0
M  V30 12180 H 1162.75 -0.677704 -0.390181 0
M  V30 12181 H 1165.33 -1.90687 -0.393276 0
M  V30 12182 H 1163.5 -2.71049 -2.78185 0
M  V30 12183 H 1165.23 -2.95731 -2.76271 0
M  V30 12184 H 1161.99 -4.50387 -1.46455 0
M  V30 12185 H 1162.41 -6.76845 -0.144802 0
M  V30 12186 H 1167.06 -4.05817 -1.18626 0
M  V30 12187 H 1164.77 -8.04094 0.803615 0
M  V30 12188 H 1168.36 -5.81788 -0.037179 0
M  V30 12189 H 1167.24 -7.78503 0.943529 0
M  V30 12190 N 1164.74 0.6258 -1.44643 0
M  V30 12191 C 1165.71 1.71941 -1.51555 0
M  V30 12192 C 1166.71 1.55822 -0.396988 0
M  V30 12193 O 1167.9 1.61221 -0.65981 0
M  V30 12194 C 1165.03 3.11068 -1.39461 0
M  V30 12195 H 1166.22 1.67185 -2.48976 0
M  V30 12196 H 1163.77 0.839934 -1.31814 0
M  V30 12197 H 1164.51 3.21416 -0.431534 0
M  V30 12198 H 1164.29 3.24175 -2.20574 0
M  V30 12199 H 1165.78 3.90762 -1.4729 0
M  V30 12200 N 1166.22 1.31629 0.866686 0
M  V30 12201 C 1167.13 1.21524 2.00671 0
M  V30 12202 C 1168.15 0.131277 1.73504 0
M  V30 12203 O 1169.32 0.349699 1.98341 0
M  V30 12204 C 1166.39 0.926491 3.34091 0
M  V30 12205 C 1165.45 2.09769 3.7456 0
M  V30 12206 C 1164.68 1.82262 5.01614 0
M  V30 12207 O 1164.9 0.759329 5.65323 0
M  V30 12208 O 1163.84 2.68031 5.38928 0
M  V30 12209 H 1167.66 2.17335 2.1213 0
M  V30 12210 H 1165.25 1.11401 0.995499 0
M  V30 12211 H 1167.13 0.78144 4.14091 0
M  V30 12212 H 1165.81 -0.00155829 3.237 0
M  V30 12213 H 1164.71 2.29816 2.95187 0
M  V30 12214 H 1166.05 3.0081 3.89582 0
M  V30 12215 N 1167.7 -1.08142 1.14644 0
M  V30 12216 C 1168.95 -1.80225 0.914517 0
M  V30 12217 C 1169.27 -1.86778 -0.560269 0
M  V30 12218 O 1168.54 -1.36284 -1.40724 0
M  V30 12219 H 1167.12 -0.667492 0.335356 0
M  V30 12220 H 1169.78 -1.30729 1.44554 0
M  V30 12221 H 1168.88 -2.82958 1.31685 0
M  V30 12222 N 1169.18 -0.941978 -1.26351 0
M  V30 12223 C 1170.43 -0.588806 -1.93333 0
M  V30 12224 C 1170.75 0.875067 -1.74263 0
M  V30 12225 O 1170.02 1.62187 -1.09873 0
M  V30 12226 H 1168.6 -0.214774 -0.715459 0
M  V30 12227 H 1171.26 -1.19747 -1.53774 0
M  V30 12228 H 1170.35 -0.807267 -3.01479 0
M  V30 12229 N 1170.66 1.40747 -0.709091 0
M  V30 12230 C 1171.6 2.30741 -0.0523584 0
M  V30 12231 C 1172.57 1.4784 0.757145 0
M  V30 12232 O 1173.76 1.76595 0.72242 0
M  V30 12233 C 1170.9 3.34 0.868203 0
M  V30 12234 C 1170.01 4.31972 0.0488686 0
M  V30 12235 C 1169.15 5.223 0.968311 0
M  V30 12236 C 1168.18 6.11934 0.142682 0
M  V30 12237 N 1167.32 6.947 1.01665 0
M  V30 12238 H 1172.16 2.86338 -0.825509 0
M  V30 12239 H 1169.7 1.41013 -0.418785 0
M  V30 12240 H 1171.66 3.92431 1.41611 0
M  V30 12241 H 1170.29 2.79921 1.6076 0
M  V30 12242 H 1169.34 3.75377 -0.616137 0
M  V30 12243 H 1170.65 4.95291 -0.590625 0
M  V30 12244 H 1169.8 5.85631 1.58498 0
M  V30 12245 H 1168.54 4.5924 1.64164 0
M  V30 12246 H 1167.55 5.47639 -0.486965 0
M  V30 12247 H 1168.77 6.77052 -0.527046 0
M  V30 12248 H 1166.72 6.34236 1.67575 0
M  V30 12249 H 1166.64 7.54759 0.433045 0
M  V30 12250 H 1167.9 7.62487 1.6197 0
M  V30 12251 N 1172.13 0.454803 1.50895 0
M  V30 12252 C 1173.38 -0.105562 2.01824 0
M  V30 12253 C 1173.7 -1.41673 1.33992 0
M  V30 12254 O 1172.97 -1.89929 0.479994 0
M  V30 12255 H 1171.55 -0.0420011 0.745818 0
M  V30 12256 H 1174.21 0.601504 1.85386 0
M  V30 12257 H 1173.31 -0.268872 3.1094 0
M  V30 12258 N 1173.61 -1.56489 0.186789 0
M  V30 12259 C 1174.57 -2.17478 -0.723596 0
M  V30 12260 C 1175.57 -1.12698 -1.14699 0
M  V30 12261 O 1176.76 -1.38128 -1.06143 0
M  V30 12262 C 1173.9 -2.77015 -1.98685 0
M  V30 12263 H 1175.09 -2.99282 -0.192403 0
M  V30 12264 H 1172.64 -1.56174 -0.0628153 0
M  V30 12265 H 1173.38 -1.98987 -2.56076 0
M  V30 12266 H 1173.16 -3.53711 -1.69207 0
M  V30 12267 H 1174.65 -3.23872 -2.63622 0
M  V30 12268 N 1175.09 0.086862 -1.5736 0
M  V30 12269 C 1176.02 1.10538 -2.05678 0
M  V30 12270 C 1177 1.41281 -0.947293 0
M  V30 12271 O 1178.19 1.51169 -1.21908 0
M  V30 12272 C 1175.32 2.42302 -2.48812 0
M  V30 12273 C 1174.27 2.25948 -3.63499 0
M  V30 12274 C 1173.6 3.62961 -3.92637 0
M  V30 12275 C 1174.9 1.69319 -4.94094 0
M  V30 12276 H 1176.59 0.703371 -2.91021 0
M  V30 12277 H 1174.14 0.336895 -1.40004 0
M  V30 12278 H 1176.09 3.13833 -2.81224 0
M  V30 12279 H 1174.81 2.84454 -1.60479 0
M  V30 12280 H 1173.47 1.5686 -3.31347 0
M  V30 12281 H 1173.12 4.02656 -3.01459 0
M  V30 12282 H 1172.82 3.52862 -4.69853 0
M  V30 12283 H 1174.34 4.35946 -4.27531 0
M  V30 12284 H 1175.76 2.30699 -5.24834 0
M  V30 12285 H 1174.15 1.69957 -5.7553 0
M  V30 12286 H 1175.22 0.653318 -4.80479 0
M  V30 12287 N 1176.57 1.53483 0.357892 0
M  V30 12288 C 1177.53 1.79782 1.42166 0
M  V30 12289 C 1178.53 0.668441 1.46248 0
M  V30 12290 O 1179.72 0.936677 1.46874 0
M  V30 12291 C 1176.85 1.92686 2.8122 0
M  V30 12292 H 1178.05 2.74794 1.20117 0
M  V30 12293 H 1175.6 1.44677 0.591468 0
M  V30 12294 H 1176.33 0.997669 3.08573 0
M  V30 12295 H 1176.12 2.74837 2.79655 0
M  V30 12296 H 1177.61 2.14599 3.58242 0
M  V30 12297 N 1178.05 -0.61812 1.44973 0
M  V30 12298 C 1178.98 -1.74035 1.55673 0
M  V30 12299 C 1179.96 -1.65112 0.4089 0
M  V30 12300 O 1181.14 -1.83673 0.630698 0
M  V30 12301 C 1178.27 -3.1261 1.51303 0
M  V30 12302 C 1177.23 -3.36334 2.64696 0
M  V30 12303 C 1176.55 -4.75072 2.45378 0
M  V30 12304 C 1177.85 -3.27618 4.06772 0
M  V30 12305 H 1179.55 -1.65336 2.49608 0
M  V30 12306 H 1177.09 -0.794003 1.20132 0
M  V30 12307 H 1179.04 -3.90906 1.57388 0
M  V30 12308 H 1177.77 -3.22123 0.538914 0
M  V30 12309 H 1176.43 -2.60423 2.58022 0
M  V30 12310 H 1176.08 -4.81306 1.46129 0
M  V30 12311 H 1175.78 -4.91903 3.21412 0
M  V30 12312 H 1177.3 -5.55582 2.53301 0
M  V30 12313 H 1178.71 -3.95802 4.14746 0
M  V30 12314 H 1177.11 -3.55981 4.83113 0
M  V30 12315 H 1178.18 -2.25219 4.29423 0
M  V30 12316 N 1179.52 -1.32087 -0.859693 0
M  V30 12317 C 1180.49 -1.20546 -1.94939 0
M  V30 12318 C 1181.49 -0.12982 -1.60275 0
M  V30 12319 O 1182.68 -0.379853 -1.70008 0
M  V30 12320 C 1179.81 -0.852717 -3.30063 0
M  V30 12321 H 1181 -2.17384 -2.06602 0
M  V30 12322 H 1178.55 -1.15846 -1.04926 0
M  V30 12323 H 1179.29 0.114059 -3.24099 0
M  V30 12324 H 1179.07 -1.63035 -3.56598 0
M  V30 12325 H 1180.56 -0.796145 -4.09941 0
M  V30 12326 N 1181 1.07532 -1.15215 0
M  V30 12327 C 1181.93 2.14598 -0.805006 0
M  V30 12328 C 1182.95 1.61778 0.182152 0
M  V30 12329 O 1184.14 1.78453 -0.040834 0
M  V30 12330 C 1181.24 3.38444 -0.175736 0
M  V30 12331 C 1180.41 4.20621 -1.19986 0
M  V30 12332 C 1179.47 5.22851 -0.592705 0
M  V30 12333 O 1178.49 5.55121 -1.25815 0
M  V30 12334 N 1179.7 5.7711 0.626425 0
M  V30 12335 H 1182.46 2.44981 -1.7264 0
M  V30 12336 H 1180.02 1.23423 -1.04778 0
M  V30 12337 H 1182.01 4.03969 0.243166 0
M  V30 12338 H 1180.58 3.0579 0.64896 0
M  V30 12339 H 1179.8 3.50941 -1.79539 0
M  V30 12340 H 1181.09 4.72339 -1.89139 0
M  V30 12341 H 1180.49 5.53139 1.18546 0
M  V30 12342 H 1179.05 6.44273 0.98771 0
M  V30 12343 N 1182.48 0.948665 1.2585 0
M  V30 12344 C 1183.44 0.468673 2.24357 0
M  V30 12345 C 1184.44 -0.424355 1.551 0
M  V30 12346 O 1185.63 -0.222481 1.72773 0
M  V30 12347 C 1182.77 -0.32359 3.39361 0
M  V30 12348 H 1183.96 1.33928 2.68334 0
M  V30 12349 H 1181.51 0.731357 1.38133 0
M  V30 12350 H 1182.25 -1.21212 3.00796 0
M  V30 12351 H 1182.03 0.316998 3.90816 0
M  V30 12352 H 1183.52 -0.649087 4.12525 0
M  V30 12353 N 1183.96 -1.40369 0.716545 0
M  V30 12354 C 1185.2 -2.01167 0.256846 0
M  V30 12355 C 1185.54 -1.56689 -1.14727 0
M  V30 12356 O 1184.81 -0.787384 -1.7785 0
M  V30 12357 C 1185.1 -3.58511 0.337963 0
M  V30 12358 C 1184.95 -4.13059 1.78052 0
M  V30 12359 C 1186.27 -4.39142 -0.290295 0
M  V30 12360 H 1183.39 -0.730877 0.0948028 0
M  V30 12361 H 1186.03 -1.66833 0.909225 0
M  V30 12362 H 1184.18 -3.87891 -0.217482 0
M  V30 12363 H 1185.85 -3.94472 2.39143 0
M  V30 12364 H 1184.09 -3.67311 2.30793 0
M  V30 12365 H 1184.76 -5.22217 1.78867 0
M  V30 12366 H 1187.24 -4.15697 0.182987 0
M  V30 12367 H 1186.12 -5.48524 -0.203097 0
M  V30 12368 H 1186.38 -4.20209 -1.37394 0
M  V30 12369 N 1185.44 -0.462799 -1.50652 0
M  V30 12370 C 1186.37 0.371837 -2.26164 0
M  V30 12371 C 1187.38 0.96432 -1.31167 0
M  V30 12372 O 1188.57 0.854134 -1.56738 0
M  V30 12373 C 1185.67 1.53469 -3.0216 0
M  V30 12374 C 1184.84 1.0565 -4.24449 0
M  V30 12375 C 1183.9 2.09243 -4.82808 0
M  V30 12376 O 1182.93 1.67641 -5.43953 0
M  V30 12377 N 1184.13 3.41976 -4.69076 0
M  V30 12378 H 1186.9 -0.275476 -2.98431 0
M  V30 12379 H 1184.46 -0.293109 -1.59225 0
M  V30 12380 H 1186.45 2.22446 -3.38083 0
M  V30 12381 H 1185.02 2.08685 -2.32743 0
M  V30 12382 H 1184.24 0.192895 -3.93728 0
M  V30 12383 H 1185.53 0.714796 -5.03754 0
M  V30 12384 H 1184.92 3.78491 -4.20429 0
M  V30 12385 H 1183.48 4.06775 -5.09291 0
M  V30 12386 N 1186.91 1.56388 -0.195085 0
M  V30 12387 C 1188.33 1.58788 0.160758 0
M  V30 12388 C 1188.53 1.21125 1.61031 0
M  V30 12389 O 1187.59 0.933994 2.34591 0
M  V30 12390 C 1188.9 3.00366 -0.141588 0
M  V30 12391 C 1190.45 3.12893 -0.0816947 0
M  V30 12392 C 1190.92 4.56604 -0.35735 0
M  V30 12393 N 1192.41 4.62188 -0.305968 0
M  V30 12394 C 1193.15 5.71276 -0.493108 0
M  V30 12395 N 1192.64 6.8883 -0.740595 0
M  V30 12396 N 1194.44 5.60473 -0.427365 0
M  V30 12397 H 1186.59 1.79151 -1.14099 0
M  V30 12398 H 1188.85 0.831446 -0.455413 0
M  V30 12399 H 1188.56 3.32483 -1.14666 0
M  V30 12400 H 1188.43 3.73082 0.555834 0
M  V30 12401 H 1190.82 2.80589 0.913978 0
M  V30 12402 H 1190.9 2.42564 -0.812193 0
M  V30 12403 H 1190.54 4.8962 -1.35034 0
M  V30 12404 H 1190.47 5.25124 0.394036 0
M  V30 12405 H 1192.96 3.77705 -0.121298 0
M  V30 12406 H 1193.28 7.67862 -0.872201 0
M  V30 12407 H 1191.62 6.90637 -0.777488 0
M  V30 12408 H 1194.81 4.67513 -0.234436 0
M  V30 12409 H 1194.99 6.45429 -0.576627 0
M  V30 12410 N 1188.39 -0.0785156 1.57404 0
M  V30 12411 C 1189.36 -1.07835 2.02248 0
M  V30 12412 C 1190.36 -1.31987 0.918475 0
M  V30 12413 O 1191.55 -1.27821 1.18353 0
M  V30 12414 C 1188.68 -2.42361 2.39737 0
M  V30 12415 H 1189.87 -0.691995 2.91807 0
M  V30 12416 H 1187.42 -0.32405 1.52904 0
M  V30 12417 H 1188.16 -2.85841 1.53183 0
M  V30 12418 H 1187.94 -2.26174 3.20293 0
M  V30 12419 H 1189.43 -3.14241 2.75031 0
M  V30 12420 N 1189.87 -1.5367 -0.349747 0
M  V30 12421 C 1190.83 -1.80533 -1.41211 0
M  V30 12422 C 1191.83 -0.676188 -1.45892 0
M  V30 12423 O 1193.02 -0.944453 -1.46375 0
M  V30 12424 C 1190.16 -1.94175 -2.80195 0
M  V30 12425 H 1191.35 -2.75428 -1.18658 0
M  V30 12426 H 1188.9 -1.44988 -0.583787 0
M  V30 12427 H 1189.64 -1.01402 -3.08039 0
M  V30 12428 H 1189.42 -2.76316 -2.78194 0
M  V30 12429 H 1190.91 -2.16496 -3.57098 0
M  V30 12430 N 1191.35 0.610423 -1.45298 0
M  V30 12431 C 1192.28 1.73507 -1.4976 0
M  V30 12432 C 1193.29 1.58092 -0.38867 0
M  V30 12433 O 1194.48 1.66026 -0.655571 0
M  V30 12434 C 1191.58 3.11475 -1.33554 0
M  V30 12435 C 1190.76 3.53156 -2.5807 0
M  V30 12436 C 1189.81 4.70076 -2.36463 0
M  V30 12437 O 1188.84 4.77337 -3.10061 0
M  V30 12438 N 1190.04 5.63155 -1.40843 0
M  V30 12439 H 1192.81 1.70144 -2.46721 0
M  V30 12440 H 1190.37 0.79562 -1.41002 0
M  V30 12441 H 1192.36 3.87444 -1.16914 0
M  V30 12442 H 1190.93 3.09361 -0.448803 0
M  V30 12443 H 1190.15 2.67178 -2.89844 0
M  V30 12444 H 1191.44 3.77761 -3.40843 0
M  V30 12445 H 1190.84 5.60001 -0.800982 0
M  V30 12446 H 1189.39 6.38669 -1.30175 0
M  V30 12447 N 1192.83 1.32541 0.852676 0
M  V30 12448 C 1193.79 1.21578 1.94297 0
M  V30 12449 C 1194.79 0.138318 1.60204 0
M  V30 12450 O 1195.98 0.388864 1.69804 0
M  V30 12451 C 1193.11 0.870209 3.29606 0
M  V30 12452 H 1194.3 2.18476 2.05446 0
M  V30 12453 H 1191.86 1.16401 1.0431 0
M  V30 12454 H 1192.59 -0.0968698 3.24155 0
M  V30 12455 H 1192.38 1.64924 3.55728 0
M  V30 12456 H 1193.87 0.817874 4.09513 0
M  V30 12457 N 1194.3 -1.0692 1.15784 0
M  V30 12458 C 1195.72 -1.61069 0.944123 0
M  V30 12459 C 1196.07 -1.8936 -0.513522 0
M  V30 12460 O 1195.19 -1.66232 -1.38549 0
M  V30 12461 C 1195.79 -2.9263 1.70743 0
M  V30 12462 C 1194.35 -3.43505 1.53887 0
M  V30 12463 C 1193.49 -2.17495 1.72021 0
M  V30 12464 H 1196.44 -0.89951 1.30746 0
M  V30 12465 H 1196.46 -3.61757 1.17951 0
M  V30 12466 H 1195.98 -2.72007 2.76828 0
M  V30 12467 H 1194.08 -3.69201 0.502153 0
M  V30 12468 H 1194.19 -4.19254 2.31868 0
M  V30 12469 H 1192.55 -2.27407 1.1471 0
M  V30 12470 H 1193.34 -1.99362 2.79481 0
M  V30 12471 N 1195.78 -0.955326 -1.25345 0
M  V30 12472 C 1197.01 -0.627233 -1.97688 0
M  V30 12473 C 1197.43 0.793973 -1.70522 0
M  V30 12474 O 1196.79 1.537 -0.961556 0
M  V30 12475 C 1196.84 -0.892969 -3.49369 0
M  V30 12476 O 1195.94 0.0278871 -4.12391 0
M  V30 12477 H 1195.28 -0.238402 -0.619726 0
M  V30 12478 H 1197.81 -1.28211 -1.59446 0
M  V30 12479 H 1197.82 -0.819517 -3.99685 0
M  V30 12480 H 1196.5 -1.92879 -3.6847 0
M  V30 12481 H 1195.08 -0.0978295 -3.72772 0
M  V30 12482 N 1197.26 1.39987 -0.723979 0
M  V30 12483 C 1198.49 2.0556 -0.275634 0
M  V30 12484 C 1198.91 1.54207 1.07711 0
M  V30 12485 O 1198.27 0.681041 1.68022 0
M  V30 12486 C 1198.32 3.59551 -0.27485 0
M  V30 12487 O 1197.42 4.05685 0.741182 0
M  V30 12488 H 1196.76 0.651634 -0.12755 0
M  V30 12489 H 1199.29 1.79229 -0.986814 0
M  V30 12490 H 1199.3 4.07837 -0.115425 0
M  V30 12491 H 1197.98 3.96291 -1.26198 0
M  V30 12492 H 1196.55 3.6884 0.548795 0
M  V30 12493 N 1198.74 0.470782 1.50404 0
M  V30 12494 C 1199.99 -0.084316 2.02324 0
M  V30 12495 C 1200.31 -1.39749 1.35279 0
M  V30 12496 O 1199.57 -1.90037 0.467364 0
M  V30 12497 C 1199.87 -0.316419 3.55997 0
M  V30 12498 C 1199.53 0.915017 4.41518 0
M  V30 12499 C 1198.2 1.25265 4.6461 0
M  V30 12500 C 1200.55 1.73494 4.91477 0
M  V30 12501 C 1197.88 2.41027 5.34905 0
M  V30 12502 C 1200.23 2.88384 5.63043 0
M  V30 12503 C 1198.89 3.22562 5.84389 0
M  V30 12504 H 1198.16 -0.0308534 0.740357 0
M  V30 12505 H 1200.81 0.624799 1.81021 0
M  V30 12506 H 1199.11 -1.10778 3.75813 0
M  V30 12507 H 1200.81 -0.759882 3.93734 0
M  V30 12508 H 1197.4 0.641977 4.23765 0
M  V30 12509 H 1201.59 1.48728 4.73491 0
M  V30 12510 H 1196.84 2.67781 5.49639 0
M  V30 12511 H 1201.02 3.52264 6.00735 0
M  V30 12512 H 1198.64 4.1237 6.38635 0
M  V30 12513 N 1200.22 -1.56282 0.203376 0
M  V30 12514 C 1201.15 -2.16714 -0.74616 0
M  V30 12515 C 1202.16 -1.13121 -1.17079 0
M  V30 12516 O 1203.35 -1.40179 -1.10509 0
M  V30 12517 C 1200.45 -2.72115 -2.02007 0
M  V30 12518 C 1199.62 -4.00695 -1.75391 0
M  V30 12519 C 1198.68 -4.40839 -2.8731 0
M  V30 12520 O 1197.71 -5.081 -2.56561 0
M  V30 12521 N 1198.91 -4.05024 -4.15856 0
M  V30 12522 H 1201.68 -2.98821 -0.229326 0
M  V30 12523 H 1199.24 -1.61885 0.0217049 0
M  V30 12524 H 1201.23 -2.95951 -2.76035 0
M  V30 12525 H 1199.8 -1.94415 -2.44789 0
M  V30 12526 H 1199.02 -3.84905 -0.851 0
M  V30 12527 H 1200.31 -4.8461 -1.55017 0
M  V30 12528 H 1199.71 -3.50938 -4.43688 0
M  V30 12529 H 1198.26 -4.33792 -4.86485 0
M  V30 12530 N 1201.7 0.070167 -1.57444 0
M  V30 12531 C 1202.63 1.08351 -2.06839 0
M  V30 12532 C 1203.61 1.40269 -0.962224 0
M  V30 12533 O 1204.79 1.49867 -1.23505 0
M  V30 12534 C 1201.92 2.39649 -2.51368 0
M  V30 12535 C 1200.88 2.22079 -3.65875 0
M  V30 12536 C 1200.2 3.58776 -3.96464 0
M  V30 12537 C 1201.5 1.64069 -4.95862 0
M  V30 12538 H 1203.2 0.672465 -2.9175 0
M  V30 12539 H 1200.74 0.322027 -1.40353 0
M  V30 12540 H 1202.69 3.10833 -2.84537 0
M  V30 12541 H 1201.42 2.82736 -1.63487 0
M  V30 12542 H 1200.08 1.53337 -3.32992 0
M  V30 12543 H 1199.73 3.99436 -3.05712 0
M  V30 12544 H 1199.43 3.47859 -4.7357 0
M  V30 12545 H 1200.95 4.31387 -4.32131 0
M  V30 12546 H 1202.36 2.2512 -5.27251 0
M  V30 12547 H 1200.76 1.63843 -5.773 0
M  V30 12548 H 1201.83 0.60232 -4.81145 0
M  V30 12549 N 1203.17 1.53854 0.341593 0
M  V30 12550 C 1204.1 1.84966 1.42513 0
M  V30 12551 C 1205.08 0.704944 1.54805 0
M  V30 12552 O 1206.27 0.957036 1.68981 0
M  V30 12553 C 1203.4 2.06099 2.79536 0
M  V30 12554 C 1202.35 3.21919 2.82049 0
M  V30 12555 C 1201.68 3.28389 4.21977 0
M  V30 12556 C 1202.98 4.59984 2.4741 0
M  V30 12557 H 1204.67 2.7571 1.16724 0
M  V30 12558 H 1202.22 1.32662 0.560073 0
M  V30 12559 H 1204.17 2.26448 3.55386 0
M  V30 12560 H 1202.9 1.12087 3.06764 0
M  V30 12561 H 1201.56 3.01429 2.08653 0
M  V30 12562 H 1201.2 2.3197 4.46317 0
M  V30 12563 H 1200.9 4.0622 4.24569 0
M  V30 12564 H 1202.43 3.50951 4.99666 0
M  V30 12565 H 1203.84 4.80334 3.12973 0
M  V30 12566 H 1202.24 5.40233 2.61282 0
M  V30 12567 H 1203.31 4.6346 1.42594 0
M  V30 12568 N 1204.65 -0.602709 1.4562 0
M  V30 12569 C 1205.88 -1.38608 1.53203 0
M  V30 12570 C 1206.29 -1.88478 0.165098 0
M  V30 12571 O 1205.63 -1.63142 -0.844421 0
M  V30 12572 C 1205.69 -2.62214 2.45935 0
M  V30 12573 C 1205.36 -2.3395 3.92577 0
M  V30 12574 C 1206.36 -1.94011 4.82344 0
M  V30 12575 C 1204.04 -2.46711 4.37537 0
M  V30 12576 C 1206.03 -1.67202 6.15079 0
M  V30 12577 C 1203.72 -2.19515 5.70313 0
M  V30 12578 C 1204.72 -1.79823 6.58903 0
M  V30 12579 O 1204.41 -1.52948 7.89216 0
M  V30 12580 H 1204.14 -0.43052 0.52118 0
M  V30 12581 H 1206.69 -0.741655 1.91543 0
M  V30 12582 H 1204.92 -3.29394 2.02575 0
M  V30 12583 H 1206.61 -3.24264 2.44147 0
M  V30 12584 H 1207.38 -1.83684 4.48871 0
M  V30 12585 H 1203.26 -2.76572 3.68821 0
M  V30 12586 H 1206.8 -1.36146 6.84186 0
M  V30 12587 H 1202.7 -2.2946 6.03339 0
M  V30 12588 H 1203.47 -1.6696 8.01291 0
M  V30 12589 N 1206.13 -1.32992 -0.845635 0
M  V30 12590 C 1207.41 -1.14671 -1.58461 0
M  V30 12591 C 1207.79 0.289498 -2.09106 0
M  V30 12592 O 1207.13 1.28751 -1.88773 0
M  V30 12593 C 1207.34 -2.18206 -2.72373 0
M  V30 12594 C 1208.69 -2.5201 -3.41726 0
M  V30 12595 O 1209.72 -2.16821 -2.82608 0
M  V30 12596 O 1208.58 -3.12368 -4.48429 0
M  V30 12597 H 1205.67 -0.443088 -0.698285 0
M  V30 12598 H 1208.22 -1.44552 -0.888978 0
M  V30 12599 H 1206.99 -3.14707 -2.32541 0
M  V30 12600 H 1206.61 -1.89372 -3.49605 0
M  V30 12601 N 1207.61 1.06304 -1.1635 0
M  V30 12602 C 1208.54 2.15745 -0.893103 0
M  V30 12603 C 1209.52 1.69341 0.160531 0
M  V30 12604 O 1210.7 1.94196 0.0126526 0
M  V30 12605 C 1207.83 3.45066 -0.393287 0
M  V30 12606 C 1206.79 4.04978 -1.38482 0
M  V30 12607 C 1206.11 5.29507 -0.743409 0
M  V30 12608 C 1207.41 4.4377 -2.75438 0
M  V30 12609 H 1209.11 2.38622 -1.80831 0
M  V30 12610 H 1206.65 1.14681 -0.870878 0
M  V30 12611 H 1208.61 4.20964 -0.191607 0
M  V30 12612 H 1207.33 3.21808 0.557426 0
M  V30 12613 H 1205.99 3.31136 -1.57304 0
M  V30 12614 H 1205.64 5.02545 0.213787 0
M  V30 12615 H 1205.34 5.7055 -1.40521 0
M  V30 12616 H 1206.86 6.08102 -0.551746 0
M  V30 12617 H 1208.28 5.1075 -2.60398 0
M  V30 12618 H 1206.67 4.95797 -3.38091 0
M  V30 12619 H 1207.74 3.54636 -3.30699 0
M  V30 12620 N 1209.09 0.96196 1.24836 0
M  V30 12621 C 1210.03 0.48686 2.25607 0
M  V30 12622 C 1211 -0.464546 1.59472 0
M  V30 12623 O 1212.19 -0.376179 1.87055 0
M  V30 12624 C 1209.33 -0.222294 3.44383 0
M  V30 12625 C 1208.44 0.767206 4.25133 0
M  V30 12626 C 1207.58 0.0347458 5.31189 0
M  V30 12627 C 1206.61 1.01469 6.03631 0
M  V30 12628 N 1205.75 0.312619 7.01404 0
M  V30 12629 H 1210.59 1.35104 2.65614 0
M  V30 12630 H 1208.13 0.677373 1.30576 0
M  V30 12631 H 1210.09 -0.650087 4.12104 0
M  V30 12632 H 1208.72 -1.05047 3.0523 0
M  V30 12633 H 1207.77 1.31346 3.57005 0
M  V30 12634 H 1209.08 1.5147 4.75245 0
M  V30 12635 H 1208.23 -0.451325 6.05019 0
M  V30 12636 H 1206.97 -0.745485 4.81969 0
M  V30 12637 H 1205.98 1.51169 5.28609 0
M  V30 12638 H 1207.2 1.79527 6.5494 0
M  V30 12639 H 1205.15 -0.44874 6.54463 0
M  V30 12640 H 1205.07 0.999079 7.49369 0
M  V30 12641 H 1206.33 -0.151673 7.79352 0
M  V30 12642 N 1210.56 -1.39601 0.731392 0
M  V30 12643 C 1211.49 -2.33268 0.1041 0
M  V30 12644 C 1212.47 -1.53724 -0.728219 0
M  V30 12645 O 1213.66 -1.82131 -0.673933 0
M  V30 12646 C 1210.79 -3.37802 -0.806646 0
M  V30 12647 C 1209.74 -4.27928 -0.0787588 0
M  V30 12648 C 1209.07 -5.23131 -1.10628 0
M  V30 12649 C 1210.37 -5.11086 1.07651 0
M  V30 12650 H 1212.06 -2.85975 0.886496 0
M  V30 12651 H 1209.61 -1.375 0.427746 0
M  V30 12652 H 1211.56 -4.02278 -1.25499 0
M  V30 12653 H 1210.29 -2.83527 -1.62112 0
M  V30 12654 H 1208.95 -3.64926 0.349926 0
M  V30 12655 H 1208.59 -4.65152 -1.91422 0
M  V30 12656 H 1208.29 -5.84277 -0.624043 0
M  V30 12657 H 1209.82 -5.90483 -1.5544 0
M  V30 12658 H 1211.23 -5.68927 0.706781 0
M  V30 12659 H 1209.63 -5.81356 1.48814 0
M  V30 12660 H 1210.7 -4.46131 1.89988 0
M  V30 12661 N 1212.04 -0.478751 -1.50152 0
M  V30 12662 C 1213.45 -0.0254907 -1.86683 0
M  V30 12663 C 1213.8 1.38171 -1.39295 0
M  V30 12664 O 1212.93 2.0257 -0.761207 0
M  V30 12665 C 1213.52 -0.0394819 -3.38777 0
M  V30 12666 C 1212.08 0.35834 -3.7469 0
M  V30 12667 C 1211.23 -0.421667 -2.74075 0
M  V30 12668 H 1214.18 -0.692653 -1.42787 0
M  V30 12669 H 1214.2 0.760957 -3.72813 0
M  V30 12670 H 1213.71 -1.06378 -3.73236 0
M  V30 12671 H 1211.82 1.38671 -3.45834 0
M  V30 12672 H 1211.93 0.0543589 -4.79069 0
M  V30 12673 H 1210.29 0.125634 -2.5439 0
M  V30 12674 H 1211.08 -1.44562 -3.11379 0
M  V30 12675 N 1213.52 1.56172 -0.211661 0
M  V30 12676 C 1214.77 1.98332 0.423332 0
M  V30 12677 C 1215.1 1.09895 1.60115 0
M  V30 12678 O 1214.37 0.154477 1.93886 0
M  V30 12679 C 1214.66 3.49495 0.86747 0
M  V30 12680 C 1214.51 4.48708 -0.313302 0
M  V30 12681 C 1215.83 4.04793 1.72716 0
M  V30 12682 H 1212.95 0.72107 0.152402 0
M  V30 12683 H 1215.59 1.87521 -0.305912 0
M  V30 12684 H 1213.74 3.58839 1.48885 0
M  V30 12685 H 1215.41 4.51385 -0.951291 0
M  V30 12686 H 1213.66 4.2299 -0.96238 0
M  V30 12687 H 1214.33 5.51985 0.0402402 0
M  V30 12688 H 1216.8 3.98332 1.20296 0
M  V30 12689 H 1215.68 5.10898 2.00684 0
M  V30 12690 H 1215.94 3.51067 2.68709 0
M  V30 12691 N 1215 -0.0618163 1.57479 0
M  V30 12692 C 1215.91 -1.09006 2.07738 0
M  V30 12693 C 1216.92 -1.4176 1.00896 0
M  V30 12694 O 1218.1 -1.51737 1.32431 0
M  V30 12695 C 1215.17 -2.38153 2.5196 0
M  V30 12696 C 1214.23 -2.12279 3.73143 0
M  V30 12697 C 1213.46 -3.35269 4.15248 0
M  V30 12698 O 1213.68 -4.44758 3.57137 0
M  V30 12699 O 1212.62 -3.22894 5.0796 0
M  V30 12700 H 1216.44 -0.693059 2.95686 0
M  V30 12701 H 1214.03 -0.276628 1.46817 0
M  V30 12702 H 1215.91 -3.14139 2.80882 0
M  V30 12703 H 1214.58 -2.77213 1.67137 0
M  V30 12704 H 1213.49 -1.33966 3.49291 0
M  V30 12705 H 1214.82 -1.78094 4.5885 0
M  V30 12706 N 1216.48 -1.54033 -0.333429 0
M  V30 12707 C 1217.75 -1.62404 -1.09015 0
M  V30 12708 C 1218.13 -0.451653 -2.06212 0
M  V30 12709 O 1217.48 0.555086 -2.21655 0
M  V30 12710 C 1217.69 -2.98949 -1.80085 0
M  V30 12711 C 1219.04 -3.54655 -2.33464 0
M  V30 12712 O 1220.06 -3.0119 -1.90166 0
M  V30 12713 O 1218.92 -4.48195 -3.12703 0
M  V30 12714 H 1216.02 -0.65727 -0.501921 0
M  V30 12715 H 1218.56 -1.66378 -0.33411 0
M  V30 12716 H 1217.33 -3.75716 -1.09332 0
M  V30 12717 H 1216.96 -2.98609 -2.62523 0
M  V30 12718 N 1217.95 0.594978 -1.45938 0
M  V30 12719 C 1218.9 1.70489 -1.5557 0
M  V30 12720 C 1219.87 1.61193 -0.400751 0
M  V30 12721 O 1221.06 1.80587 -0.615882 0
M  V30 12722 C 1218.2 3.08817 -1.54033 0
M  V30 12723 C 1217.31 3.28827 -2.80173 0
M  V30 12724 C 1216.44 4.57333 -2.70222 0
M  V30 12725 C 1215.48 4.70644 -3.91357 0
M  V30 12726 N 1214.62 5.90463 -3.79865 0
M  V30 12727 H 1219.46 1.61593 -2.50383 0
M  V30 12728 H 1217 0.787747 -1.24229 0
M  V30 12729 H 1218.96 3.88865 -1.51129 0
M  V30 12730 H 1217.59 3.1664 -0.627617 0
M  V30 12731 H 1216.64 2.42467 -2.9311 0
M  V30 12732 H 1217.95 3.34534 -3.69985 0
M  V30 12733 H 1217.1 5.45593 -2.65354 0
M  V30 12734 H 1215.84 4.54045 -1.7803 0
M  V30 12735 H 1214.85 3.80805 -3.9657 0
M  V30 12736 H 1216.07 4.75721 -4.8463 0
M  V30 12737 H 1214.02 5.88196 -2.90451 0
M  V30 12738 H 1213.94 5.97385 -4.63322 0
M  V30 12739 H 1215.2 6.81187 -3.78952 0
M  V30 12740 N 1219.43 1.33438 0.838571 0
M  V30 12741 C 1220.68 1.24259 1.58879 0
M  V30 12742 C 1220.99 -0.189957 1.94675 0
M  V30 12743 O 1222.2 -0.40376 2.68481 0
M  V30 12744 C 1220.66 2.1773 2.86569 0
M  V30 12745 C 1220.26 3.66156 2.58135 0
M  V30 12746 C 1222.01 2.17424 3.64591 0
M  V30 12747 C 1219.92 4.5154 3.81923 0
M  V30 12748 H 1218.85 0.461534 0.59624 0
M  V30 12749 H 1221.5 1.58504 0.924588 0
M  V30 12750 H 1219.88 1.76418 3.54532 0
M  V30 12751 H 1221.05 4.1591 1.98382 0
M  V30 12752 H 1219.37 3.68754 1.93416 0
M  V30 12753 H 1221.96 2.78446 4.56478 0
M  V30 12754 H 1222.31 1.16939 3.99539 0
M  V30 12755 H 1222.84 2.571 3.03553 0
M  V30 12756 H 1219.58 5.52902 3.52107 0
M  V30 12757 H 1219.1 4.06529 4.41015 0
M  V30 12758 H 1220.78 4.65359 4.495 0
M  V30 12759 N 1220.91 -1.05686 1.16912 0
M  V30 12760 C 1222.33 -1.30744 0.915327 0
M  V30 12761 C 1222.53 -1.96895 -0.428344 0
M  V30 12762 O 1221.58 -2.23941 -1.16647 0
M  V30 12763 C 1222.9 -2.18209 2.06894 0
M  V30 12764 C 1224.44 -2.31607 2.1054 0
M  V30 12765 C 1224.92 -3.2243 3.25273 0
M  V30 12766 N 1226.41 -3.30015 3.2503 0
M  V30 12767 C 1227.14 -4.00401 4.10447 0
M  V30 12768 N 1226.64 -4.73256 5.05965 0
M  V30 12769 N 1228.43 -3.96514 3.98413 0
M  V30 12770 H 1220.58 -0.611449 2.03409 0
M  V30 12771 H 1222.85 -0.332188 0.887894 0
M  V30 12772 H 1222.55 -1.76887 3.0398 0
M  V30 12773 H 1222.43 -3.18823 2.01573 0
M  V30 12774 H 1224.81 -2.72173 1.14044 0
M  V30 12775 H 1224.9 -1.30639 2.19925 0
M  V30 12776 H 1224.54 -2.82579 4.22032 0
M  V30 12777 H 1224.47 -4.23392 3.13125 0
M  V30 12778 H 1226.96 -2.781 2.55869 0
M  V30 12779 H 1227.27 -5.24509 5.67547 0
M  V30 12780 H 1225.62 -4.72215 5.09939 0
M  V30 12781 H 1228.81 -3.38719 3.2309 0
M  V30 12782 H 1228.98 -4.511 4.65202 0
M  V30 12783 N 1222.39 -0.968567 -1.24324 0
M  V30 12784 C 1223.64 -0.626519 -1.91723 0
M  V30 12785 C 1223.95 0.84225 -1.76538 0
M  V30 12786 O 1225.16 1.29486 -2.38633 0
M  V30 12787 C 1223.61 -1.06992 -3.43629 0
M  V30 12788 C 1223.22 -2.5622 -3.67499 0
M  V30 12789 C 1224.96 -0.801057 -4.16873 0
M  V30 12790 C 1222.87 -2.94288 -5.1298 0
M  V30 12791 H 1221.8 -0.23062 -0.717865 0
M  V30 12792 H 1224.45 -1.17489 -1.40956 0
M  V30 12793 H 1222.83 -0.44985 -3.93437 0
M  V30 12794 H 1224.01 -3.23364 -3.28287 0
M  V30 12795 H 1222.32 -2.80726 -3.07542 0
M  V30 12796 H 1224.92 -1.06147 -5.24058 0
M  V30 12797 H 1225.26 0.262742 -4.1547 0
M  V30 12798 H 1225.8 -1.38213 -3.73017 0
M  V30 12799 H 1222.54 -3.99743 -5.19506 0
M  V30 12800 H 1222.06 -2.31829 -5.53187 0
M  V30 12801 H 1223.73 -2.84242 -5.81219 0
M  V30 12802 N 1223.87 1.39211 -0.738786 0
M  V30 12803 C 1225.12 1.99673 -0.285254 0
M  V30 12804 C 1225.43 1.59297 1.13507 0
M  V30 12805 O 1226.63 2.12622 1.68832 0
M  V30 12806 C 1225.09 3.5696 -0.45906 0
M  V30 12807 C 1224.7 4.06297 -1.88751 0
M  V30 12808 C 1226.44 4.24446 -0.0674954 0
M  V30 12809 C 1224.35 5.56171 -2.01067 0
M  V30 12810 H 1223.28 0.746945 -0.102901 0
M  V30 12811 H 1225.93 1.59163 -0.913209 0
M  V30 12812 H 1224.31 3.95285 0.23785 0
M  V30 12813 H 1225.49 3.79297 -2.61669 0
M  V30 12814 H 1223.8 3.51486 -2.23264 0
M  V30 12815 H 1226.4 5.34521 -0.138475 0
M  V30 12816 H 1226.74 4.04653 0.977823 0
M  V30 12817 H 1227.27 3.91309 -0.715704 0
M  V30 12818 H 1224.01 5.80849 -3.03801 0
M  V30 12819 H 1223.53 5.84961 -1.32591 0
M  V30 12820 H 1225.21 6.21642 -1.79362 0
M  V30 12821 N 1225.34 0.486708 1.49896 0
M  V30 12822 C 1226.31 -0.288126 2.27382 0
M  V30 12823 C 1227.31 -0.906675 1.32801 0
M  V30 12824 O 1228.5 -0.773425 1.56089 0
M  V30 12825 C 1225.63 -1.41194 3.10285 0
M  V30 12826 H 1226.82 0.391618 2.97332 0
M  V30 12827 H 1224.38 0.24123 1.54427 0
M  V30 12828 H 1225.11 -2.12627 2.44868 0
M  V30 12829 H 1224.9 -0.974033 3.79809 0
M  V30 12830 H 1226.39 -1.95812 3.68846 0
M  V30 12831 N 1226.82 -1.56058 0.219941 0
M  V30 12832 C 1227.76 -2.17494 -0.723133 0
M  V30 12833 C 1228.77 -1.14356 -1.15873 0
M  V30 12834 O 1229.96 -1.41343 -1.09016 0
M  V30 12835 C 1227.06 -2.74242 -1.99109 0
M  V30 12836 C 1226.23 -4.02533 -1.71132 0
M  V30 12837 C 1225.29 -4.43862 -2.82618 0
M  V30 12838 O 1224.32 -5.10792 -2.51157 0
M  V30 12839 N 1225.52 -4.09412 -4.11537 0
M  V30 12840 H 1228.28 -2.99048 -0.197619 0
M  V30 12841 H 1225.84 -1.61853 0.0388738 0
M  V30 12842 H 1227.84 -2.98862 -2.7288 0
M  V30 12843 H 1226.41 -1.97 -2.42713 0
M  V30 12844 H 1225.63 -3.85786 -0.810128 0
M  V30 12845 H 1226.91 -4.86227 -1.49868 0
M  V30 12846 H 1226.31 -3.55624 -4.39941 0
M  V30 12847 H 1224.87 -4.38928 -4.81857 0
M  V30 12848 N 1228.3 0.053464 -1.57509 0
M  V30 12849 C 1229.25 1.06155 -2.04939 0
M  V30 12850 C 1230.22 1.37382 -0.93357 0
M  V30 12851 O 1231.4 1.48137 -1.2025 0
M  V30 12852 C 1228.54 2.36476 -2.51343 0
M  V30 12853 C 1227.66 2.1162 -3.76618 0
M  V30 12854 C 1226.79 3.35636 -4.11731 0
M  V30 12855 C 1225.83 3.06226 -5.29993 0
M  V30 12856 N 1224.97 4.22623 -5.60655 0
M  V30 12857 H 1229.81 0.650122 -2.90822 0
M  V30 12858 H 1227.34 0.309421 -1.43809 0
M  V30 12859 H 1229.3 3.12588 -2.76306 0
M  V30 12860 H 1227.93 2.75386 -1.68411 0
M  V30 12861 H 1226.98 1.26116 -3.58886 0
M  V30 12862 H 1228.3 1.85909 -4.6286 0
M  V30 12863 H 1227.45 4.20132 -4.37692 0
M  V30 12864 H 1226.19 3.64439 -3.24092 0
M  V30 12865 H 1225.19 2.20128 -5.03809 0
M  V30 12866 H 1226.42 2.78726 -6.19265 0
M  V30 12867 H 1224.37 4.51424 -4.75976 0
M  V30 12868 H 1224.28 4.0025 -6.41355 0
M  V30 12869 H 1225.55 5.08063 -5.91178 0
M  V30 12870 N 1229.78 1.54207 0.325255 0
M  V30 12871 C 1231.03 1.71544 1.06091 0
M  V30 12872 C 1231.34 0.495137 1.89229 0
M  V30 12873 O 1232.55 0.54982 2.65874 0
M  V30 12874 C 1231 3.03412 1.93569 0
M  V30 12875 C 1230.61 4.32842 1.1555 0
M  V30 12876 C 1232.36 3.30113 2.66881 0
M  V30 12877 C 1230.26 5.55773 2.02164 0
M  V30 12878 H 1229.19 0.639281 0.399795 0
M  V30 12879 H 1231.84 1.80701 0.319261 0
M  V30 12880 H 1230.23 2.88158 2.71626 0
M  V30 12881 H 1231.4 4.58857 0.42276 0
M  V30 12882 H 1229.71 4.12893 0.539277 0
M  V30 12883 H 1232.31 4.19151 3.31988 0
M  V30 12884 H 1232.65 2.47918 3.34428 0
M  V30 12885 H 1233.19 3.46227 1.95887 0
M  V30 12886 H 1229.93 6.40565 1.39128 0
M  V30 12887 H 1229.45 5.3398 2.73177 0
M  V30 12888 H 1231.13 5.92113 2.60789 0
M  V30 12889 N 1231.26 -0.58723 1.46251 0
M  V30 12890 C 1232.49 -1.36976 1.54665 0
M  V30 12891 C 1232.9 -1.88293 0.185079 0
M  V30 12892 O 1232.24 -1.64028 -0.82707 0
M  V30 12893 C 1232.3 -2.59591 2.48702 0
M  V30 12894 C 1231.96 -2.29773 3.95036 0
M  V30 12895 C 1232.96 -1.88885 4.84374 0
M  V30 12896 C 1230.65 -2.42057 4.40129 0
M  V30 12897 C 1232.64 -1.60669 6.16818 0
M  V30 12898 C 1230.33 -2.13454 5.72609 0
M  V30 12899 C 1231.33 -1.72824 6.60773 0
M  V30 12900 O 1231.01 -1.44569 7.90794 0
M  V30 12901 H 1230.75 -0.424968 0.525717 0
M  V30 12902 H 1233.3 -0.721298 1.92319 0
M  V30 12903 H 1231.53 -3.27226 2.06058 0
M  V30 12904 H 1233.22 -3.21656 2.47573 0
M  V30 12905 H 1233.98 -1.78913 4.50794 0
M  V30 12906 H 1229.86 -2.72644 3.71734 0
M  V30 12907 H 1233.41 -1.28882 6.85591 0
M  V30 12908 H 1229.3 -2.23048 6.05739 0
M  V30 12909 H 1230.07 -1.58452 8.03016 0
M  V30 12910 N 1232.74 -1.33881 -0.831482 0
M  V30 12911 C 1233.98 -1.25507 -1.58406 0
M  V30 12912 C 1234.3 0.177137 -1.94194 0
M  V30 12913 O 1233.57 1.10769 -1.61576 0
M  V30 12914 H 1232.15 -0.461551 -0.587349 0
M  V30 12915 H 1234.82 -1.6769 -0.99328 0
M  V30 12916 H 1233.91 -1.85391 -2.51071 0
M  V30 12917 N 1234.21 1.05064 -1.1747 0
M  V30 12918 C 1235.18 2.1101 -0.89485 0
M  V30 12919 C 1236.18 1.60384 0.11553 0
M  V30 12920 O 1237.37 1.73808 -0.116785 0
M  V30 12921 C 1234.5 3.39194 -0.340642 0
M  V30 12922 H 1235.69 2.37269 -1.83421 0
M  V30 12923 H 1233.24 1.21329 -0.985343 0
M  V30 12924 H 1233.98 3.18591 0.605808 0
M  V30 12925 H 1233.76 3.77251 -1.06885 0
M  V30 12926 H 1235.25 4.17281 -0.163204 0
M  V30 12927 N 1235.69 0.975146 1.23809 0
M  V30 12928 C 1236.97 0.557725 1.8748 0
M  V30 12929 C 1237.35 -0.965164 1.87744 0
M  V30 12930 O 1236.7 -1.83966 1.35531 0
M  V30 12931 C 1236.91 1.15777 3.29236 0
M  V30 12932 C 1238.25 1.24726 4.05868 0
M  V30 12933 O 1239.28 1.11084 3.38436 0
M  V30 12934 O 1238.14 1.46373 5.26533 0
M  V30 12935 H 1235.23 0.187045 0.80557 0
M  V30 12936 H 1237.78 1.06989 1.31725 0
M  V30 12937 H 1236.55 2.20023 3.23583 0
M  V30 12938 H 1236.17 0.630103 3.92575 0
M  V30 12939 N 1237.17 -1.38817 0.746158 0
M  V30 12940 C 1238.45 -1.94303 0.224841 0
M  V30 12941 C 1238.83 -1.68207 -1.27552 0
M  V30 12942 O 1238.17 -1.01647 -2.04646 0
M  V30 12943 C 1238.38 -3.44306 0.5705 0
M  V30 12944 C 1239.73 -4.21329 0.526015 0
M  V30 12945 O 1240.76 -3.52554 0.508351 0
M  V30 12946 O 1239.62 -5.4392 0.530383 0
M  V30 12947 H 1236.71 -0.825785 0.0448047 0
M  V30 12948 H 1239.26 -1.48253 0.825775 0
M  V30 12949 H 1238.03 -3.56779 1.60701 0
M  V30 12950 H 1237.65 -3.97556 -0.0588271 0
M  V30 12951 N 1238.65 -0.49465 -1.49636 0
M  V30 12952 C 1239.9 0.0539277 -2.01628 0
M  V30 12953 C 1240.21 1.38634 -1.37986 0
M  V30 12954 O 1241.42 2.02123 -1.81269 0
M  V30 12955 C 1239.87 0.146582 -3.59601 0
M  V30 12956 C 1239.48 -1.1788 -4.32213 0
M  V30 12957 C 1241.22 0.645862 -4.19558 0
M  V30 12958 C 1239.13 -1.04866 -5.82028 0
M  V30 12959 H 1238.06 0.0239278 -0.75362 0
M  V30 12960 H 1240.71 -0.633112 -1.72232 0
M  V30 12961 H 1239.09 0.897931 -3.85685 0
M  V30 12962 H 1240.27 -1.94295 -4.17835 0
M  V30 12963 H 1238.58 -1.61102 -3.83973 0
M  V30 12964 H 1241.18 0.76064 -5.29262 0
M  V30 12965 H 1241.52 1.64313 -3.82501 0
M  V30 12966 H 1242.06 -0.04877 -3.9777 0
M  V30 12967 H 1238.79 -2.02 -6.23599 0
M  V30 12968 H 1238.31 -0.325293 -5.98917 0
M  V30 12969 H 1239.99 -0.724799 -6.42927 0
M  V30 12970 N 1240.13 1.55939 -0.228214 0
M  V30 12971 C 1241.04 2.24213 0.690339 0
M  V30 12972 C 1242.05 1.25197 1.20838 0
M  V30 12973 O 1243.23 1.58026 1.24859 0
M  V30 12974 C 1240.29 2.91384 1.87873 0
M  V30 12975 C 1239.35 4.05761 1.40201 0
M  V30 12976 C 1238.59 4.6972 2.53376 0
M  V30 12977 O 1238.81 4.32687 3.71669 0
M  V30 12978 O 1237.74 5.58587 2.24198 0
M  V30 12979 H 1241.57 3.03383 0.138692 0
M  V30 12980 H 1239.15 1.494 0.00251504 0
M  V30 12981 H 1241.04 3.33758 2.57262 0
M  V30 12982 H 1239.71 2.15168 2.41835 0
M  V30 12983 H 1238.62 3.67943 0.675945 0
M  V30 12984 H 1239.95 4.83739 0.908691 0
M  V30 12985 N 1241.6 -0.0451101 1.57535 0
M  V30 12986 C 1242.53 -1.05046 2.08537 0
M  V30 12987 C 1243.52 -1.3872 0.984418 0
M  V30 12988 O 1244.7 -1.47884 1.25873 0
M  V30 12989 C 1241.83 -2.3562 2.55148 0
M  V30 12990 C 1240.78 -2.16231 3.69362 0
M  V30 12991 C 1240.11 -3.52423 4.02122 0
M  V30 12992 C 1241.41 -1.56159 4.98409 0
M  V30 12993 H 1243.1 -0.625965 2.92783 0
M  V30 12994 H 1240.65 -0.299657 1.40848 0
M  V30 12995 H 1242.6 -3.06266 2.89446 0
M  V30 12996 H 1241.33 -2.80099 1.67964 0
M  V30 12997 H 1239.99 -1.4802 3.35389 0
M  V30 12998 H 1239.63 -3.94522 3.12028 0
M  V30 12999 H 1239.33 -3.4028 4.79044 0
M  V30 13000 H 1240.86 -4.24458 4.38939 0
M  V30 13001 H 1242.27 -2.16703 5.30766 0
M  V30 13002 H 1240.67 -1.54638 5.79834 0
M  V30 13003 H 1241.74 -0.525698 4.82042 0
M  V30 13004 N 1243.08 -1.54377 -0.317073 0
M  V30 13005 C 1244.01 -1.8721 -1.39552 0
M  V30 13006 C 1244.99 -0.729483 -1.53664 0
M  V30 13007 O 1246.18 -0.983799 -1.67437 0
M  V30 13008 C 1243.31 -2.1052 -2.76222 0
M  V30 13009 C 1242.26 -3.26366 -2.76892 0
M  V30 13010 C 1241.59 -3.35061 -4.16699 0
M  V30 13011 C 1242.89 -4.63862 -2.40061 0
M  V30 13012 H 1244.58 -2.77532 -1.12323 0
M  V30 13013 H 1242.13 -1.33536 -0.538897 0
M  V30 13014 H 1244.08 -2.32073 -3.51739 0
M  V30 13015 H 1242.81 -1.16953 -3.04942 0
M  V30 13016 H 1241.46 -3.0471 -2.03831 0
M  V30 13017 H 1241.11 -2.39041 -4.4257 0
M  V30 13018 H 1240.81 -4.12923 -4.18053 0
M  V30 13019 H 1242.34 -3.58856 -4.94019 0
M  V30 13020 H 1243.75 -4.85252 -3.05292 0
M  V30 13021 H 1242.15 -5.44321 -2.52655 0
M  V30 13022 H 1243.22 -4.6567 -1.35202 0
M  V30 13023 N 1244.56 0.579466 -1.4656 0
M  V30 13024 C 1245.97 1.1616 -1.46164 0
M  V30 13025 C 1246.32 1.95134 -0.20423 0
M  V30 13026 O 1245.45 2.05022 0.692457 0
M  V30 13027 C 1246.04 2.11322 -2.64818 0
M  V30 13028 C 1244.6 2.64852 -2.67452 0
M  V30 13029 C 1243.75 1.40786 -2.38903 0
M  V30 13030 H 1246.7 0.367229 -1.54393 0
M  V30 13031 H 1246.72 2.94839 -2.4052 0
M  V30 13032 H 1246.23 1.53815 -3.56318 0
M  V30 13033 H 1244.33 3.26219 -1.80032 0
M  V30 13034 H 1244.45 3.07366 -3.67509 0
M  V30 13035 H 1242.81 1.70707 -1.89027 0
M  V30 13036 H 1243.59 0.851049 -3.32584 0
M  V30 13037 N 1246.04 1.3432 0.824371 0
M  V30 13038 C 1246.95 1.27847 1.96704 0
M  V30 13039 C 1247.96 0.18641 1.72999 0
M  V30 13040 O 1249.14 0.412623 1.97128 0
M  V30 13041 C 1246.21 1.03231 3.30975 0
M  V30 13042 C 1245.27 2.21579 3.67697 0
M  V30 13043 C 1244.5 1.98128 4.95561 0
M  V30 13044 O 1244.72 0.938798 5.62621 0
M  V30 13045 O 1243.66 2.85041 5.30128 0
M  V30 13046 H 1247.48 2.23974 2.05108 0
M  V30 13047 H 1245.07 1.14512 0.959554 0
M  V30 13048 H 1246.95 0.912784 4.11395 0
M  V30 13049 H 1245.62 0.101425 3.23541 0
M  V30 13050 H 1244.53 2.3909 2.87727 0
M  V30 13051 H 1245.86 3.13052 3.79815 0
M  V30 13052 N 1247.52 -1.0444 1.18026 0
M  V30 13053 C 1248.48 -2.10532 0.906028 0
M  V30 13054 C 1249.48 -1.60443 -0.107022 0
M  V30 13055 O 1250.67 -1.73744 0.126001 0
M  V30 13056 C 1247.8 -3.39008 0.358625 0
M  V30 13057 H 1248.99 -2.36293 1.84677 0
M  V30 13058 H 1246.55 -1.20805 0.991763 0
M  V30 13059 H 1247.28 -3.18908 -0.588904 0
M  V30 13060 H 1247.07 -3.76678 1.08884 0
M  V30 13061 H 1248.56 -4.17189 0.185331 0
M  V30 13062 N 1248.99 -0.981699 -1.2329 0
M  V30 13063 C 1249.93 -0.481042 -2.24095 0
M  V30 13064 C 1250.94 0.417818 -1.57347 0
M  V30 13065 O 1252.13 0.221746 -1.77117 0
M  V30 13066 C 1249.23 0.323324 -3.37354 0
M  V30 13067 C 1248.4 -0.568975 -4.33684 0
M  V30 13068 C 1247.46 0.181761 -5.25886 0
M  V30 13069 O 1246.49 -0.429059 -5.67581 0
M  V30 13070 N 1247.69 1.46737 -5.61648 0
M  V30 13071 H 1250.45 -1.34781 -2.67683 0
M  V30 13072 H 1248.01 -0.855117 -1.37475 0
M  V30 13073 H 1250.01 0.833934 -3.96015 0
M  V30 13074 H 1248.58 1.09111 -2.9294 0
M  V30 13075 H 1247.8 -1.2604 -3.73507 0
M  V30 13076 H 1249.08 -1.17704 -4.94998 0
M  V30 13077 H 1248.48 1.98513 -5.29725 0
M  V30 13078 H 1247.04 1.92339 -6.22775 0
M  V30 13079 N 1250.47 1.3842 -0.753509 0
M  V30 13080 C 1251.42 2.27774 -0.101443 0
M  V30 13081 C 1252.41 1.45196 0.693322 0
M  V30 13082 O 1253.6 1.67931 0.55929 0
M  V30 13083 C 1250.73 3.34064 0.790977 0
M  V30 13084 C 1249.81 4.24099 -0.010633 0
M  V30 13085 N 1250.2 4.94845 -1.047 0
M  V30 13086 C 1248.5 4.45476 0.216193 0
M  V30 13087 C 1249.2 5.61164 -1.53199 0
M  V30 13088 N 1248.18 5.36956 -0.847304 0
M  V30 13089 H 1251.98 2.79935 -0.895188 0
M  V30 13090 H 1249.5 1.51321 -0.589545 0
M  V30 13091 H 1251.49 3.96965 1.27375 0
M  V30 13092 H 1250.15 2.83461 1.58367 0
M  V30 13093 H 1251.16 4.97801 -1.42879 0
M  V30 13094 H 1247.84 4.05781 0.982238 0
M  V30 13095 H 1249.23 6.27756 -2.39525 0
M  V30 13096 N 1251.95 0.502579 1.49372 0
M  V30 13097 C 1252.9 -0.275004 2.29156 0
M  V30 13098 C 1253.87 -0.95892 1.35624 0
M  V30 13099 O 1255.05 -0.965276 1.64581 0
M  V30 13100 C 1252.19 -1.33255 3.18335 0
M  V30 13101 C 1251.31 -0.660248 4.26925 0
M  V30 13102 C 1250.44 -1.69837 5.03318 0
M  V30 13103 C 1249.48 -1.00802 6.03743 0
M  V30 13104 N 1248.62 -1.99042 6.73295 0
M  V30 13105 H 1253.46 0.411599 2.95144 0
M  V30 13106 H 1250.99 0.214824 1.45523 0
M  V30 13107 H 1252.95 -1.95769 3.68416 0
M  V30 13108 H 1251.58 -1.98789 2.54328 0
M  V30 13109 H 1250.63 0.0782181 3.8032 0
M  V30 13110 H 1251.95 -0.11689 4.98663 0
M  V30 13111 H 1251.1 -2.39852 5.57275 0
M  V30 13112 H 1249.84 -2.27558 4.31357 0
M  V30 13113 H 1248.84 -0.293654 5.49015 0
M  V30 13114 H 1250.07 -0.437285 6.77691 0
M  V30 13115 H 1248.01 -2.55722 6.04104 0
M  V30 13116 H 1247.93 -1.49776 7.41015 0
M  V30 13117 H 1249.2 -2.6834 7.31856 0
M  V30 13118 N 1253.43 -1.55816 0.23648 0
M  V30 13119 C 1254.39 -2.1967 -0.654041 0
M  V30 13120 C 1255.39 -1.1629 -1.11056 0
M  V30 13121 O 1256.58 -1.41435 -1.01695 0
M  V30 13122 C 1253.71 -2.83196 -1.89771 0
M  V30 13123 H 1254.91 -2.99743 -0.0970911 0
M  V30 13124 H 1252.46 -1.56295 -0.013098 0
M  V30 13125 H 1253.19 -2.07033 -2.49616 0
M  V30 13126 H 1252.98 -3.58915 -1.57868 0
M  V30 13127 H 1254.47 -3.32095 -2.53184 0
M  V30 13128 N 1254.91 0.036755 -1.57557 0
M  V30 13129 C 1255.82 1.05687 -2.09446 0
M  V30 13130 C 1256.83 1.40137 -1.03139 0
M  V30 13131 O 1258.01 1.49611 -1.34828 0
M  V30 13132 C 1255.07 2.34114 -2.55717 0
M  V30 13133 C 1254.13 2.06316 -3.76473 0
M  V30 13134 C 1253.37 3.2862 -4.20529 0
M  V30 13135 O 1253.59 4.3902 -3.64167 0
M  V30 13136 O 1252.52 3.14772 -5.13033 0
M  V30 13137 H 1256.35 0.64593 -2.96751 0
M  V30 13138 H 1253.94 0.253235 -1.47238 0
M  V30 13139 H 1255.82 3.09631 -2.85844 0
M  V30 13140 H 1254.49 2.74519 -1.71526 0
M  V30 13141 H 1253.4 1.28392 -3.51378 0
M  V30 13142 H 1254.73 1.70772 -4.61625 0
M  V30 13143 N 1256.39 1.54543 0.308881 0
M  V30 13144 C 1257.63 1.73706 1.04661 0
M  V30 13145 C 1257.96 0.517111 1.87189 0
M  V30 13146 O 1257.24 -0.485856 1.88334 0
M  V30 13147 C 1257.52 3.02141 1.95916 0
M  V30 13148 C 1257.38 4.34419 1.1662 0
M  V30 13149 C 1258.69 3.26401 2.95213 0
M  V30 13150 H 1255.81 0.63203 0.379087 0
M  V30 13151 H 1258.46 1.87253 0.321947 0
M  V30 13152 H 1256.61 2.90723 2.57706 0
M  V30 13153 H 1258.28 4.57743 0.571772 0
M  V30 13154 H 1256.52 4.3126 0.468747 0
M  V30 13155 H 1257.19 5.20535 1.83704 0
M  V30 13156 H 1259.67 3.37377 2.43549 0
M  V30 13157 H 1258.54 4.17597 3.56235 0
M  V30 13158 H 1258.8 2.44322 3.68455 0
M  V30 13159 N 1257.86 -0.571685 1.46866 0
M  V30 13160 C 1259.09 -1.35327 1.56109 0
M  V30 13161 C 1259.5 -1.88086 0.20504 0
M  V30 13162 O 1258.84 -1.64896 -0.809626 0
M  V30 13163 C 1258.91 -2.56939 2.51441 0
M  V30 13164 C 1258.57 -2.2557 3.97451 0
M  V30 13165 C 1259.57 -1.83737 4.86351 0
M  V30 13166 C 1257.25 -2.37375 4.42672 0
M  V30 13167 C 1259.25 -1.54118 6.18487 0
M  V30 13168 C 1256.93 -2.07368 5.7484 0
M  V30 13169 C 1257.93 -1.65806 6.62569 0
M  V30 13170 O 1257.62 -1.36173 7.92283 0
M  V30 13171 H 1257.35 -0.419368 0.530194 0
M  V30 13172 H 1259.91 -0.700859 1.93073 0
M  V30 13173 H 1258.14 -3.25023 2.09517 0
M  V30 13174 H 1259.82 -3.19012 2.5097 0
M  V30 13175 H 1260.59 -1.74122 4.52666 0
M  V30 13176 H 1256.47 -2.68686 3.74605 0
M  V30 13177 H 1260.01 -1.21603 6.8692 0
M  V30 13178 H 1255.91 -2.16611 6.08071 0
M  V30 13179 H 1256.68 -1.49926 8.04652 0
M  V30 13180 N 1259.34 -1.34755 -0.817236 0
M  V30 13181 C 1260.57 -1.30522 -1.60536 0
M  V30 13182 C 1260.98 0.119541 -1.88421 0
M  V30 13183 O 1260.34 1.06833 -1.47962 0
M  V30 13184 C 1260.39 -2.09939 -2.94292 0
M  V30 13185 O 1260.11 -3.46858 -2.67621 0
M  V30 13186 C 1261.61 -2.13168 -3.88683 0
M  V30 13187 H 1258.83 -0.448789 -0.498828 0
M  V30 13188 H 1261.38 -1.77453 -1.01639 0
M  V30 13189 H 1259.53 -1.66634 -3.49731 0
M  V30 13190 H 1259.95 -3.87979 -3.52949 0
M  V30 13191 H 1261.42 -2.73147 -4.79682 0
M  V30 13192 H 1261.9 -1.12758 -4.24479 0
M  V30 13193 H 1262.5 -2.56587 -3.39181 0
M  V30 13194 N 1260.82 1.03812 -1.18578 0
M  V30 13195 C 1261.77 2.11883 -0.915115 0
M  V30 13196 C 1262.74 1.65453 0.146479 0
M  V30 13197 O 1263.92 1.90799 0.00630058 0
M  V30 13198 C 1261.06 3.42157 -0.449755 0
M  V30 13199 C 1260.17 4.02185 -1.57706 0
M  V30 13200 C 1259.31 5.20431 -1.06417 0
M  V30 13201 C 1258.35 5.72496 -2.16599 0
M  V30 13202 N 1257.49 6.82027 -1.66685 0
M  V30 13203 H 1262.33 2.34373 -1.84047 0
M  V30 13204 H 1259.86 1.14962 -0.917728 0
M  V30 13205 H 1261.82 4.16888 -0.161407 0
M  V30 13206 H 1260.45 3.19806 0.438622 0
M  V30 13207 H 1259.5 3.24757 -1.98083 0
M  V30 13208 H 1260.81 4.36851 -2.40754 0
M  V30 13209 H 1259.97 6.02286 -0.730497 0
M  V30 13210 H 1258.71 4.87276 -0.203301 0
M  V30 13211 H 1257.71 4.8926 -2.50808 0
M  V30 13212 H 1258.94 6.07694 -3.03126 0
M  V30 13213 H 1256.88 6.50742 -0.828916 0
M  V30 13214 H 1256.8 7.1577 -2.43329 0
M  V30 13215 H 1258.07 7.67499 -1.36253 0
M  V30 13216 N 1262.3 0.988223 1.22768 0
M  V30 13217 C 1263.23 0.492919 2.23837 0
M  V30 13218 C 1264.24 -0.409467 1.57567 0
M  V30 13219 O 1265.43 -0.21235 1.77232 0
M  V30 13220 C 1262.53 -0.305428 3.37521 0
M  V30 13221 C 1261.7 0.591966 4.33376 0
M  V30 13222 C 1260.76 -0.15387 5.25975 0
M  V30 13223 O 1259.79 0.459153 5.67345 0
M  V30 13224 N 1260.99 -1.43756 5.62418 0
M  V30 13225 H 1263.76 1.36199 2.66965 0
M  V30 13226 H 1261.32 0.862395 1.3702 0
M  V30 13227 H 1263.31 -0.812921 3.96451 0
M  V30 13228 H 1261.88 -1.07556 2.93514 0
M  V30 13229 H 1261.1 1.28019 3.72833 0
M  V30 13230 H 1262.39 1.20327 4.94367 0
M  V30 13231 H 1261.79 -1.95701 5.30771 0
M  V30 13232 H 1260.34 -1.89034 6.23786 0
M  V30 13233 N 1263.78 -1.38018 0.760839 0
M  V30 13234 C 1265.02 -1.99557 0.319609 0
M  V30 13235 C 1265.34 -1.60699 -1.10457 0
M  V30 13236 O 1264.61 -0.867248 -1.75658 0
M  V30 13237 H 1263.19 -0.738066 0.115182 0
M  V30 13238 H 1265.86 -1.6867 0.976544 0
M  V30 13239 H 1264.95 -3.09672 0.388523 0
M  V30 13240 N 1265.25 -0.510493 -1.49103 0
M  V30 13241 C 1266.5 0.0306436 -2.02477 0
M  V30 13242 C 1266.83 1.36113 -1.38937 0
M  V30 13243 O 1266.08 1.88731 -0.517584 0
M  V30 13244 C 1266.38 0.221921 -3.5671 0
M  V30 13245 C 1266.05 -1.03176 -4.38937 0
M  V30 13246 C 1264.71 -1.37539 -4.61125 0
M  V30 13247 C 1267.06 -1.86464 -4.86704 0
M  V30 13248 C 1264.39 -2.55124 -5.28326 0
M  V30 13249 C 1266.74 -3.03211 -5.55199 0
M  V30 13250 C 1265.41 -3.37943 -5.75631 0
M  V30 13251 H 1264.68 0.0112133 -0.740915 0
M  V30 13252 H 1267.32 -0.672574 -1.79301 0
M  V30 13253 H 1265.63 1.00775 -3.78618 0
M  V30 13254 H 1267.33 0.655223 -3.95611 0
M  V30 13255 H 1263.92 -0.754105 -4.21914 0
M  V30 13256 H 1268.1 -1.61229 -4.69381 0
M  V30 13257 H 1263.36 -2.8226 -5.42346 0
M  V30 13258 H 1267.53 -3.68068 -5.91185 0
M  V30 13259 H 1265.16 -4.29158 -6.27477 0
M  V30 13260 N 1266.73 1.55688 -0.24474 0
M  V30 13261 C 1267.98 1.98498 0.379852 0
M  V30 13262 C 1268.3 1.13416 1.58625 0
M  V30 13263 O 1267.57 0.216456 1.947 0
M  V30 13264 H 1266.15 0.73312 0.143334 0
M  V30 13265 H 1268.81 1.91858 -0.343027 0
M  V30 13266 H 1267.91 3.04367 0.690463 0
M  V30 13267 N 1268.21 -0.0283989 1.57574 0
M  V30 13268 C 1269.16 -1.04723 2.07692 0
M  V30 13269 C 1270.15 -1.37399 0.990847 0
M  V30 13270 O 1271.36 -1.36297 1.17572 0
M  V30 13271 H 1267.73 -0.355251 0.662798 0
M  V30 13272 H 1269.7 -0.598737 2.92331 0
M  V30 13273 C 1268.45 -2.33941 2.57229 0
M  V30 13274 H 1267.78 -2.09659 3.40416 0
M  V30 13275 H 1269.22 -3.03574 2.96005 0
M  V30 13276 C 1267.67 -3.02953 1.47381 0
M  V30 13277 O 1268.2 -3.9281 0.840431 0
M  V30 13278 N 1266.41 -2.64294 1.20819 0
M  V30 13279 H 1265.96 -1.91307 1.72509 0
M  V30 13280 H 1265.92 -3.10786 0.475353 0
M  V30 13281 N 1269.69 -1.54705 -0.300681 0
M  V30 13282 C 1270.62 -1.88679 -1.37559 0
M  V30 13283 C 1271.6 -0.74574 -1.52881 0
M  V30 13284 O 1272.78 -1.0015 -1.66384 0
M  V30 13285 C 1269.91 -2.13438 -2.73974 0
M  V30 13286 C 1268.87 -3.29284 -2.73415 0
M  V30 13287 C 1268.19 -3.39462 -4.13122 0
M  V30 13288 C 1269.49 -4.66382 -2.35128 0
M  V30 13289 H 1271.19 -2.78707 -1.09373 0
M  V30 13290 H 1268.73 -1.341 -0.524704 0
M  V30 13291 H 1270.69 -2.35791 -3.49257 0
M  V30 13292 H 1269.41 -1.20181 -3.03684 0
M  V30 13293 H 1268.07 -3.06855 -2.00588 0
M  V30 13294 H 1267.72 -2.43721 -4.4001 0
M  V30 13295 H 1267.42 -4.17334 -4.1365 0
M  V30 13296 H 1268.94 -3.64075 -4.90185 0
M  V30 13297 H 1270.36 -4.88463 -3.00128 0
M  V30 13298 H 1268.75 -5.4697 -2.46867 0
M  V30 13299 H 1269.82 -4.67078 -1.30256 0
M  V30 13300 N 1271.17 0.563888 -1.47167 0
M  V30 13301 C 1272.58 1.14603 -1.47388 0
M  V30 13302 C 1272.93 1.94907 -0.224916 0
M  V30 13303 O 1272.05 2.05745 0.670672 0
M  V30 13304 C 1272.65 2.08501 -2.67044 0
M  V30 13305 C 1271.21 2.62 -2.70246 0
M  V30 13306 C 1270.35 1.38244 -2.40383 0
M  V30 13307 H 1273.31 0.350833 -1.54774 0
M  V30 13308 H 1273.33 2.92272 -2.43634 0
M  V30 13309 H 1272.84 1.50027 -3.57929 0
M  V30 13310 H 1270.94 3.24292 -1.83482 0
M  V30 13311 H 1271.05 3.0345 -3.70749 0
M  V30 13312 H 1269.42 1.68692 -1.90827 0
M  V30 13313 H 1270.2 0.815726 -3.33468 0
M  V30 13314 N 1272.64 1.35187 0.810078 0
M  V30 13315 C 1273.89 1.27602 1.56207 0
M  V30 13316 C 1274.21 -0.148621 1.95035 0
M  V30 13317 O 1275.41 -0.346721 2.69277 0
M  V30 13318 C 1273.87 2.23759 2.81886 0
M  V30 13319 C 1273.48 3.71549 2.5031 0
M  V30 13320 C 1275.22 2.25109 3.59898 0
M  V30 13321 C 1273.13 4.5954 3.7226 0
M  V30 13322 H 1272.06 0.474078 0.586316 0
M  V30 13323 H 1274.71 1.6043 0.890759 0
M  V30 13324 H 1273.09 1.83898 3.5071 0
M  V30 13325 H 1274.26 4.20025 1.89515 0
M  V30 13326 H 1272.58 3.72773 1.85551 0
M  V30 13327 H 1275.18 2.88066 4.50469 0
M  V30 13328 H 1275.52 1.25387 3.96968 0
M  V30 13329 H 1276.05 2.63481 2.98031 0
M  V30 13330 H 1272.79 5.60246 3.403 0
M  V30 13331 H 1272.31 4.15792 4.32293 0
M  V30 13332 H 1273.99 4.74789 4.39528 0
M  V30 13333 N 1274.12 -1.03182 1.19127 0
M  V30 13334 C 1275.36 -1.78089 1.00318 0
M  V30 13335 C 1275.73 -1.86451 -0.458252 0
M  V30 13336 O 1276.93 -2.57653 -0.766061 0
M  V30 13337 C 1275.2 -3.17012 1.6504 0
M  V30 13338 S 1276.76 -4.08146 1.61129 0
M  V30 13339 H 1273.58 -0.613096 0.360048 0
M  V30 13340 H 1276.18 -1.23657 1.51424 0
M  V30 13341 H 1274.88 -3.08541 2.70612 0
M  V30 13342 H 1274.41 -3.7652 1.14001 0
M  V30 13343 H 1276.43 -4.92141 0.633408 0
M  V30 13344 N 1275.6 -0.99472 -1.22242 0
M  V30 13345 C 1276.53 -0.491445 -2.22845 0
M  V30 13346 C 1277.51 0.449265 -1.5627 0
M  V30 13347 O 1278.7 0.374386 -1.84745 0
M  V30 13348 C 1275.82 0.287355 -3.37479 0
M  V30 13349 C 1274.87 -0.599617 -4.22264 0
M  V30 13350 S 1275.7 -2.05599 -4.94459 0
M  V30 13351 C 1276.86 -1.28673 -6.12531 0
M  V30 13352 H 1277.09 -1.34393 -2.6519 0
M  V30 13353 H 1274.62 -0.801833 -1.31947 0
M  V30 13354 H 1276.58 0.730646 -4.03945 0
M  V30 13355 H 1275.24 1.11514 -2.93638 0
M  V30 13356 H 1274.44 -0.000289277 -5.04 0
M  V30 13357 H 1274.04 -0.979748 -3.60939 0
M  V30 13358 H 1276.33 -0.555315 -6.7522 0
M  V30 13359 H 1277.27 -2.07943 -6.76879 0
M  V30 13360 H 1277.68 -0.79922 -5.58814 0
M  V30 13361 N 1277.08 1.37613 -0.768148 0
M  V30 13362 C 1278.04 2.28653 -0.158283 0
M  V30 13363 C 1279.04 1.47862 0.631936 0
M  V30 13364 O 1280.23 1.68124 0.456055 0
M  V30 13365 C 1277.36 3.31776 0.783435 0
M  V30 13366 H 1278.56 2.84094 -0.960772 0
M  V30 13367 H 1276.11 1.46818 -0.536116 0
M  V30 13368 H 1276.84 2.81452 1.61106 0
M  V30 13369 H 1276.63 3.91488 0.219016 0
M  V30 13370 H 1278.12 3.99816 1.20568 0
M  V30 13371 N 1278.56 0.518393 1.4883 0
M  V30 13372 C 1279.5 -0.250684 2.29435 0
M  V30 13373 C 1280.47 -0.944481 1.36634 0
M  V30 13374 O 1281.66 -0.947766 1.65596 0
M  V30 13375 C 1278.8 -1.29871 3.1973 0
M  V30 13376 C 1277.91 -0.61493 4.27601 0
M  V30 13377 C 1277.05 -1.64489 5.05091 0
M  V30 13378 C 1276.09 -0.943932 6.04778 0
M  V30 13379 N 1275.22 -1.91889 6.75369 0
M  V30 13380 H 1280.06 0.44288 2.94691 0
M  V30 13381 H 1277.6 0.230246 1.45287 0
M  V30 13382 H 1279.56 -1.91851 3.70471 0
M  V30 13383 H 1278.19 -1.96081 2.56422 0
M  V30 13384 H 1277.24 0.118552 3.80215 0
M  V30 13385 H 1278.55 -0.063994 4.98759 0
M  V30 13386 H 1277.71 -2.33928 5.59788 0
M  V30 13387 H 1276.44 -2.2297 4.33746 0
M  V30 13388 H 1275.45 -0.235407 5.49296 0
M  V30 13389 H 1276.67 -0.365383 6.78116 0
M  V30 13390 H 1274.62 -2.493 6.06783 0
M  V30 13391 H 1274.54 -1.41909 7.42562 0
M  V30 13392 H 1275.81 -2.60563 7.34661 0
M  V30 13393 N 1280.03 -1.55556 0.252993 0
M  V30 13394 C 1281.26 -2.03491 -0.374022 0
M  V30 13395 C 1281.68 -1.13208 -1.51094 0
M  V30 13396 O 1281.03 -0.147705 -1.81901 0
M  V30 13397 C 1281.09 -3.50724 -0.876047 0
M  V30 13398 O 1280.81 -4.37569 0.215574 0
M  V30 13399 C 1282.31 -4.14448 -1.57313 0
M  V30 13400 H 1279.53 -0.665183 -0.0881644 0
M  V30 13401 H 1282.07 -2.00964 0.378636 0
M  V30 13402 H 1280.23 -3.53766 -1.57886 0
M  V30 13403 H 1280.64 -5.24235 -0.166625 0
M  V30 13404 H 1282.11 -5.19142 -1.87606 0
M  V30 13405 H 1282.59 -3.61299 -2.49719 0
M  V30 13406 H 1283.2 -4.15346 -0.914735 0
M  V30 13407 N 1281.51 0.0200419 -1.57587 0
M  V30 13408 C 1282.46 1.0259 -2.03615 0
M  V30 13409 C 1283.45 1.31504 -0.927116 0
M  V30 13410 O 1284.64 1.30938 -1.19098 0
M  V30 13411 C 1281.77 2.32424 -2.52654 0
M  V30 13412 C 1280.85 2.06561 -3.70396 0
M  V30 13413 N 1281.24 1.50787 -4.82801 0
M  V30 13414 C 1279.54 2.36802 -3.77943 0
M  V30 13415 C 1280.24 1.40935 -5.64369 0
M  V30 13416 N 1279.22 1.88806 -5.09758 0
M  V30 13417 H 1283.02 0.588835 -2.87941 0
M  V30 13418 H 1280.54 0.226163 -1.60817 0
M  V30 13419 H 1282.53 3.05303 -2.83894 0
M  V30 13420 H 1281.19 2.76801 -1.69738 0
M  V30 13421 H 1282.2 1.18935 -5.04058 0
M  V30 13422 H 1278.88 2.84192 -3.05845 0
M  V30 13423 H 1280.27 0.982261 -6.64681 0
M  V30 13424 N 1282.99 1.54862 0.292472 0
M  V30 13425 C 1283.92 1.89406 1.36556 0
M  V30 13426 C 1284.9 0.753838 1.52484 0
M  V30 13427 O 1286.09 1.01031 1.6585 0
M  V30 13428 C 1283.22 2.14888 2.72838 0
M  V30 13429 C 1282.17 3.3073 2.71665 0
M  V30 13430 C 1281.5 3.41648 4.11316 0
M  V30 13431 C 1282.8 4.67622 2.32651 0
M  V30 13432 H 1284.49 2.79284 1.07894 0
M  V30 13433 H 1282.04 1.34377 0.517585 0
M  V30 13434 H 1283.99 2.3764 3.48002 0
M  V30 13435 H 1282.71 1.2179 3.03042 0
M  V30 13436 H 1281.37 3.07915 1.98958 0
M  V30 13437 H 1281.02 2.46051 4.38711 0
M  V30 13438 H 1280.72 4.19522 4.11431 0
M  V30 13439 H 1282.24 3.6667 4.88248 0
M  V30 13440 H 1283.66 4.90048 2.97533 0
M  V30 13441 H 1282.06 5.48272 2.43963 0
M  V30 13442 H 1283.13 4.67762 1.27777 0
M  V30 13443 N 1284.47 -0.556076 1.47464 0
M  V30 13444 C 1285.69 -1.3434 1.58011 0
M  V30 13445 C 1286.12 -1.86674 0.231138 0
M  V30 13446 O 1285.48 -1.63029 -0.793174 0
M  V30 13447 C 1285.52 -2.48844 2.60977 0
M  V30 13448 O 1284.63 -3.51108 2.16326 0
M  V30 13449 H 1283.97 -0.398986 0.53076 0
M  V30 13450 H 1286.5 -0.671898 1.93253 0
M  V30 13451 H 1286.51 -2.95398 2.81432 0
M  V30 13452 H 1285.18 -2.10109 3.58925 0
M  V30 13453 H 1283.76 -3.10852 2.05975 0
M  V30 13454 N 1285.95 -1.35615 -0.802897 0
M  V30 13455 C 1286.88 -1.31506 -1.92947 0
M  V30 13456 C 1287.86 -0.188843 -1.69048 0
M  V30 13457 O 1289.04 -0.384384 -1.90358 0
M  V30 13458 C 1286.17 -1.09001 -3.29752 0
M  V30 13459 C 1285.13 -2.18303 -3.68141 0
M  V30 13460 C 1284.45 -1.80959 -5.03148 0
M  V30 13461 C 1285.75 -3.60296 -3.78132 0
M  V30 13462 H 1287.45 -2.25771 -1.96642 0
M  V30 13463 H 1284.99 -1.08682 -0.944685 0
M  V30 13464 H 1286.95 -1.04766 -4.08169 0
M  V30 13465 H 1285.67 -0.111832 -3.26408 0
M  V30 13466 H 1284.33 -2.21642 -2.92011 0
M  V30 13467 H 1283.98 -0.817495 -4.96312 0
M  V30 13468 H 1283.68 -2.54129 -5.29804 0
M  V30 13469 H 1285.2 -1.78255 -5.84001 0
M  V30 13470 H 1286.62 -3.59259 -4.46773 0
M  V30 13471 H 1285.01 -4.32258 -4.16261 0
M  V30 13472 H 1286.08 -3.9618 -2.79588 0
M  V30 13473 N 1287.43 1.02549 -1.19673 0
M  V30 13474 C 1288.65 1.8016 -1.02748 0
M  V30 13475 C 1289.08 1.83372 0.419105 0
M  V30 13476 O 1288.43 1.26222 1.30144 0
M  V30 13477 C 1288.48 3.22907 -1.60509 0
M  V30 13478 O 1287.59 4.03823 -0.836702 0
M  V30 13479 H 1286.93 0.556027 -0.362946 0
M  V30 13480 H 1289.46 1.29047 -1.5877 0
M  V30 13481 H 1289.47 3.73646 -1.63868 0
M  V30 13482 H 1288.14 3.19885 -2.65794 0
M  V30 13483 H 1286.72 3.6245 -0.876626 0
M  V30 13484 N 1288.9 1.00119 1.21713 0
M  V30 13485 C 1289.85 0.529464 2.21767 0
M  V30 13486 C 1290.84 -0.406858 1.55671 0
M  V30 13487 O 1292.03 -0.232329 1.75469 0
M  V30 13488 C 1289.16 -0.146336 3.42988 0
M  V30 13489 C 1288.24 0.81078 4.16278 0
M  V30 13490 N 1288.64 1.96204 4.66195 0
M  V30 13491 C 1286.93 0.628371 4.41551 0
M  V30 13492 C 1287.63 2.56346 5.2217 0
M  V30 13493 N 1286.61 1.8454 5.11318 0
M  V30 13494 H 1290.41 1.40738 2.58012 0
M  V30 13495 H 1287.93 0.864518 1.37477 0
M  V30 13496 H 1289.92 -0.501726 4.1387 0
M  V30 13497 H 1288.58 -1.02029 3.08254 0
M  V30 13498 H 1289.59 2.34255 4.61893 0
M  V30 13499 H 1286.27 -0.198819 4.17026 0
M  V30 13500 H 1287.66 3.53688 5.71274 0
M  V30 13501 N 1290.38 -1.37203 0.775435 0
M  V30 13502 C 1291.33 -2.32102 0.152051 0
M  V30 13503 C 1292.32 -1.55117 -0.680806 0
M  V30 13504 O 1293.53 -1.70486 -0.577455 0
M  V30 13505 H 1289.9 -0.751386 0.0303853 0
M  V30 13506 H 1291.88 -2.82259 0.968121 0
M  V30 13507 C 1290.62 -3.40378 -0.709788 0
M  V30 13508 H 1289.95 -3.99723 -0.0782879 0
M  V30 13509 H 1291.39 -4.09134 -1.11288 0
M  V30 13510 C 1289.85 -2.80769 -1.862 0
M  V30 13511 O 1290.38 -2.71813 -2.95771 0
M  V30 13512 N 1288.58 -2.38259 -1.66376 0
M  V30 13513 H 1288.13 -2.45743 -0.772531 0
M  V30 13514 H 1288.09 -1.98721 -2.43634 0
M  V30 13515 N 1291.86 -0.526279 -1.48553 0
M  V30 13516 C 1293.27 -0.0848694 -1.86507 0
M  V30 13517 C 1293.62 1.3367 -1.43621 0
M  V30 13518 O 1292.75 2.00046 -0.825268 0
M  V30 13519 C 1293.34 -0.147241 -3.3848 0
M  V30 13520 C 1291.9 0.238954 -3.75641 0
M  V30 13521 C 1291.05 -0.508648 -2.72595 0
M  V30 13522 H 1294 -0.737728 -1.40511 0
M  V30 13523 H 1294.02 0.641964 -3.75045 0
M  V30 13524 H 1293.53 -1.18199 -3.69663 0
M  V30 13525 H 1291.63 1.27598 -3.50071 0
M  V30 13526 H 1291.75 -0.0980808 -4.79 0
M  V30 13527 H 1290.11 0.0446382 -2.54661 0
M  V30 13528 H 1290.89 -1.54395 -3.06622 0
M  V30 13529 N 1293.34 1.5542 -0.261239 0
M  V30 13530 C 1294.25 2.25627 0.642625 0
M  V30 13531 C 1295.26 1.27732 1.18155 0
M  V30 13532 O 1296.44 1.60639 1.21479 0
M  V30 13533 C 1293.5 2.95303 1.8165 0
M  V30 13534 C 1292.57 4.08644 1.31563 0
M  V30 13535 C 1291.8 4.74988 2.43355 0
M  V30 13536 O 1292.02 4.40474 3.62407 0
M  V30 13537 O 1290.96 5.63217 2.12299 0
M  V30 13538 H 1294.78 3.03609 0.0743091 0
M  V30 13539 H 1292.37 1.49372 -0.0291754 0
M  V30 13540 H 1294.25 3.3914 2.50125 0
M  V30 13541 H 1292.92 2.2025 2.37217 0
M  V30 13542 H 1291.83 3.69294 0.597746 0
M  V30 13543 H 1293.16 4.85558 0.805878 0
M  V30 13544 N 1294.82 -0.0116844 1.57596 0
M  V30 13545 C 1295.75 -1.03477 2.04512 0
M  V30 13546 C 1296.76 -1.31414 0.960945 0
M  V30 13547 O 1297.95 -1.28596 1.23796 0
M  V30 13548 C 1295.05 -2.37234 2.42019 0
M  V30 13549 C 1294.22 -2.28405 3.73028 0
M  V30 13550 C 1293.28 -3.44753 3.97532 0
M  V30 13551 O 1292.31 -3.23465 4.68358 0
M  V30 13552 N 1293.51 -4.67212 3.44518 0
M  V30 13553 H 1296.27 -0.634758 2.92901 0
M  V30 13554 H 1293.84 -0.1993 1.60669 0
M  V30 13555 H 1295.83 -3.13821 2.55535 0
M  V30 13556 H 1294.4 -2.69018 1.5921 0
M  V30 13557 H 1293.62 -1.36804 3.697 0
M  V30 13558 H 1294.91 -2.19666 4.58938 0
M  V30 13559 H 1294.3 -4.87407 2.87142 0
M  V30 13560 H 1292.86 -5.41105 3.63384 0
M  V30 13561 N 1296.29 -1.55015 -0.284256 0
M  V30 13562 C 1297.24 -1.87122 -1.35107 0
M  V30 13563 C 1298.21 -0.721638 -1.49605 0
M  V30 13564 O 1299.4 -0.971855 -1.64194 0
M  V30 13565 C 1296.54 -2.1388 -2.70831 0
M  V30 13566 C 1295.65 -3.41447 -2.64647 0
M  V30 13567 C 1294.78 -3.57961 -3.92476 0
M  V30 13568 C 1293.82 -4.79261 -3.80757 0
M  V30 13569 N 1292.96 -4.92492 -5.00395 0
M  V30 13570 H 1297.8 -2.78117 -1.07027 0
M  V30 13571 H 1295.34 -1.37704 -0.517311 0
M  V30 13572 H 1297.29 -2.27391 -3.49784 0
M  V30 13573 H 1295.92 -1.26132 -2.97137 0
M  V30 13574 H 1294.98 -3.36467 -1.77466 0
M  V30 13575 H 1296.29 -4.3053 -2.51884 0
M  V30 13576 H 1295.44 -3.71229 -4.79868 0
M  V30 13577 H 1294.18 -2.67042 -4.08093 0
M  V30 13578 H 1293.19 -4.66008 -2.91747 0
M  V30 13579 H 1294.41 -5.71604 -3.66669 0
M  V30 13580 H 1292.36 -4.04501 -5.16445 0
M  V30 13581 H 1292.27 -5.75603 -4.9012 0
M  V30 13582 H 1293.54 -5.10134 -5.89392 0
M  V30 13583 N 1297.77 0.548248 -1.47757 0
M  V30 13584 C 1299.02 1.30243 -1.54535 0
M  V30 13585 C 1299.34 1.93832 -0.213089 0
M  V30 13586 O 1298.61 1.80397 0.763782 0
M  V30 13587 H 1297.19 0.483684 -0.569262 0
M  V30 13588 H 1299.85 0.639485 -1.8411 0
M  V30 13589 H 1298.95 2.09128 -2.31672 0
M  V30 13590 N 1299.25 1.36039 0.795694 0
M  V30 13591 C 1300.5 1.30112 1.5556 0
M  V30 13592 C 1300.83 -0.121197 1.93821 0
M  V30 13593 O 1300.1 -1.07313 1.62216 0
M  V30 13594 C 1300.39 2.21792 2.8369 0
M  V30 13595 C 1300.24 3.72691 2.51836 0
M  V30 13596 C 1301.56 2.12365 3.85472 0
M  V30 13597 H 1298.68 0.473971 0.564376 0
M  V30 13598 H 1301.32 1.66536 0.91465 0
M  V30 13599 H 1299.47 1.9086 3.38386 0
M  V30 13600 H 1301.14 4.14115 2.0324 0
M  V30 13601 H 1299.38 3.92436 1.84869 0
M  V30 13602 H 1300.06 4.32242 3.43323 0
M  V30 13603 H 1302.53 2.3958 3.40207 0
M  V30 13604 H 1301.41 2.78695 4.72885 0
M  V30 13605 H 1301.67 1.10898 4.27965 0
M  V30 13606 N 1300.73 -1.01913 1.20215 0
M  V30 13607 C 1302.14 -1.5692 1.01159 0
M  V30 13608 C 1302.49 -1.91368 -0.432746 0
M  V30 13609 O 1301.62 -1.71959 -1.31374 0
M  V30 13610 C 1302.21 -2.85125 1.83001 0
M  V30 13611 C 1300.77 -3.36669 1.68318 0
M  V30 13612 C 1299.92 -2.10003 1.81091 0
M  V30 13613 H 1302.87 -0.843246 1.34443 0
M  V30 13614 H 1302.89 -3.56428 1.33188 0
M  V30 13615 H 1302.4 -2.60021 2.88116 0
M  V30 13616 H 1300.5 -3.66739 0.658292 0
M  V30 13617 H 1300.61 -4.09042 2.49442 0
M  V30 13618 H 1298.98 -2.22337 1.24252 0
M  V30 13619 H 1299.76 -1.87329 2.87685 0
M  V30 13620 N 1302.21 -1.00763 -1.2118 0
M  V30 13621 C 1303.43 -0.710746 -1.94309 0
M  V30 13622 C 1303.85 0.727103 -1.74237 0
M  V30 13623 O 1303.21 1.49223 -1.05065 0
M  V30 13624 C 1303.26 -1.02562 -3.46646 0
M  V30 13625 O 1302.98 -2.40699 -3.66054 0
M  V30 13626 C 1304.48 -0.748517 -4.36935 0
M  V30 13627 H 1301.7 -0.26171 -0.617858 0
M  V30 13628 H 1304.24 -1.34639 -1.53924 0
M  V30 13629 H 1302.4 -0.435537 -3.84944 0
M  V30 13630 H 1302.81 -2.51764 -4.60125 0
M  V30 13631 H 1304.29 -1.01899 -5.42513 0
M  V30 13632 H 1304.76 0.317423 -4.38051 0
M  V30 13633 H 1305.37 -1.32033 -4.04286 0
M  V30 13634 N 1303.68 1.3679 -0.7827 0
M  V30 13635 C 1304.93 1.99023 -0.351316 0
M  V30 13636 C 1305.25 1.62436 1.07887 0
M  V30 13637 O 1304.52 0.895084 1.74256 0
M  V30 13638 H 1303.1 0.736141 -0.126909 0
M  V30 13639 H 1305.77 1.67095 -1.00325 0
M  V30 13640 H 1304.86 3.09015 -0.43774 0
M  V30 13641 N 1305.16 0.53415 1.48272 0
M  V30 13642 C 1306.41 0.00157259 2.025 0
M  V30 13643 C 1306.74 -1.33886 1.41085 0
M  V30 13644 O 1305.99 -1.87884 0.547544 0
M  V30 13645 C 1306.29 -0.165144 3.57018 0
M  V30 13646 C 1305.96 1.10146 4.3724 0
M  V30 13647 C 1304.62 1.44857 4.58879 0
M  V30 13648 C 1306.97 1.94183 4.83676 0
M  V30 13649 C 1304.3 2.63497 5.24201 0
M  V30 13650 C 1306.65 3.12005 5.50305 0
M  V30 13651 C 1305.32 3.47058 5.70182 0
M  V30 13652 H 1304.59 0.00057545 0.741 0
M  V30 13653 H 1307.23 0.701014 1.78208 0
M  V30 13654 H 1305.54 -0.947384 3.80173 0
M  V30 13655 H 1307.23 -0.592202 3.96603 0
M  V30 13656 H 1303.82 0.821132 4.20661 0
M  V30 13657 H 1308.01 1.68677 4.66757 0
M  V30 13658 H 1303.26 2.90852 5.37787 0
M  V30 13659 H 1307.44 3.77426 5.85254 0
M  V30 13660 H 1305.07 4.39086 6.2057 0
M  V30 13661 N 1306.64 -1.55279 0.269478 0
M  V30 13662 C 1307.89 -1.98649 -0.349522 0
M  V30 13663 C 1308.2 -1.16125 -1.57399 0
M  V30 13664 O 1309.41 -1.49612 -2.26558 0
M  V30 13665 C 1307.86 -3.53547 -0.673224 0
M  V30 13666 C 1307.47 -4.44841 0.531119 0
M  V30 13667 C 1309.22 -4.05519 -1.25516 0
M  V30 13668 C 1307.12 -5.91119 0.182317 0
M  V30 13669 H 1306.05 -0.74193 -0.13437 0
M  V30 13670 H 1308.7 -1.79664 0.373246 0
M  V30 13671 H 1307.09 -3.68311 -1.45474 0
M  V30 13672 H 1308.26 -4.41843 1.3081 0
M  V30 13673 H 1306.58 -4.03472 1.02952 0
M  V30 13674 H 1309.17 -5.12347 -1.52984 0
M  V30 13675 H 1309.52 -3.54215 -2.18718 0
M  V30 13676 H 1310.05 -3.94172 -0.536059 0
M  V30 13677 H 1306.79 -6.46507 1.08206 0
M  V30 13678 H 1306.31 -5.97199 -0.558008 0
M  V30 13679 H 1307.99 -6.466 -0.227484 0
M  V30 13680 N 1308.12 0.00332656 -1.576 0
M  V30 13681 C 1309.05 0.994803 -2.11248 0
M  V30 13682 C 1310.03 1.36061 -1.02085 0
M  V30 13683 O 1311.21 1.44494 -1.2975 0
M  V30 13684 C 1308.34 2.28772 -2.61306 0
M  V30 13685 C 1307.3 2.06362 -3.74965 0
M  V30 13686 C 1306.62 3.41638 -4.11324 0
M  V30 13687 C 1307.92 1.4289 -5.02374 0
M  V30 13688 H 1309.62 0.548119 -2.9434 0
M  V30 13689 H 1307.16 0.262208 -1.41593 0
M  V30 13690 H 1309.12 2.98485 -2.97464 0
M  V30 13691 H 1307.84 2.75547 -1.75332 0
M  V30 13692 H 1306.5 1.39076 -3.39195 0
M  V30 13693 H 1306.15 3.8611 -3.22379 0
M  V30 13694 H 1305.85 3.2746 -4.87897 0
M  V30 13695 H 1307.37 4.12671 -4.50039 0
M  V30 13696 H 1308.79 2.02555 -5.36325 0
M  V30 13697 H 1307.18 1.3921 -5.8373 0
M  V30 13698 H 1308.25 0.397708 -4.83266 0
M  V30 13699 N 1309.6 1.55164 0.276031 0
M  V30 13700 C 1311.01 1.66367 0.847293 0
M  V30 13701 C 1311.36 0.588692 1.8716 0
M  V30 13702 O 1310.48 -0.27035 2.14705 0
M  V30 13703 C 1311.08 3.01593 1.5436 0
M  V30 13704 C 1309.64 3.14833 2.06293 0
M  V30 13705 C 1308.78 2.62152 0.903959 0
M  V30 13706 H 1311.74 1.58613 0.0524478 0
M  V30 13707 H 1311.76 2.94412 2.41043 0
M  V30 13708 H 1311.27 3.7981 0.797849 0
M  V30 13709 H 1309.37 2.41384 2.83839 0
M  V30 13710 H 1309.48 4.21353 2.28032 0
M  V30 13711 H 1307.85 2.19233 1.29649 0
M  V30 13712 H 1308.63 3.4287 0.171765 0
M  V30 13713 N 1311.07 -0.540404 1.48045 0
M  V30 13714 C 1312.32 -1.2932 1.54787 0
M  V30 13715 C 1312.64 -1.94335 0.222109 0
M  V30 13716 O 1313.84 -2.70982 0.167675 0
M  V30 13717 C 1312.3 -2.34594 2.72935 0
M  V30 13718 C 1311.91 -1.75696 4.1211 0
M  V30 13719 C 1313.65 -3.10949 2.88982 0
M  V30 13720 C 1311.56 -2.78849 5.21534 0
M  V30 13721 H 1310.49 -0.486315 0.576206 0
M  V30 13722 H 1313.14 -0.571998 1.74357 0
M  V30 13723 H 1311.52 -3.09704 2.46778 0
M  V30 13724 H 1312.69 -1.06845 4.48242 0
M  V30 13725 H 1311.01 -1.11869 4.01091 0
M  V30 13726 H 1313.61 -3.88012 3.679 0
M  V30 13727 H 1313.95 -3.66173 1.98048 0
M  V30 13728 H 1314.48 -2.42953 3.1499 0
M  V30 13729 H 1311.22 -2.28459 6.144 0
M  V30 13730 H 1310.74 -3.46059 4.89901 0
M  V30 13731 H 1312.42 -3.4203 5.49203 0
M  V30 13732 N 1312.55 -1.36459 -0.788468 0
M  V30 13733 C 1313.97 -1.16893 -1.08666 0
M  V30 13734 C 1314.17 0.00633808 -2.01499 0
M  V30 13735 O 1313.22 0.671417 -2.4341 0
M  V30 13736 C 1314.54 -2.48018 -1.70022 0
M  V30 13737 C 1316.09 -2.5439 -1.82358 0
M  V30 13738 C 1316.56 -3.85605 -2.47129 0
M  V30 13739 N 1318.05 -3.86956 -2.54597 0
M  V30 13740 C 1318.79 -4.85224 -3.05525 0
M  V30 13741 N 1318.28 -5.93885 -3.56753 0
M  V30 13742 N 1320.08 -4.72643 -3.04246 0
M  V30 13743 H 1312.23 -2.11705 -0.171733 0
M  V30 13744 H 1314.49 -0.937784 -0.1388 0
M  V30 13745 H 1314.2 -3.34292 -1.09277 0
M  V30 13746 H 1314.07 -2.63894 -2.69518 0
M  V30 13747 H 1316.46 -1.68534 -2.4224 0
M  V30 13748 H 1316.54 -2.42414 -0.816651 0
M  V30 13749 H 1316.18 -4.71868 -1.87891 0
M  V30 13750 H 1316.11 -3.94878 -3.48395 0
M  V30 13751 H 1318.6 -3.08453 -2.18323 0
M  V30 13752 H 1318.92 -6.64839 -3.93966 0
M  V30 13753 H 1317.26 -5.97553 -3.54902 0
M  V30 13754 H 1320.45 -3.86883 -2.63513 0
M  V30 13755 H 1320.62 -5.49385 -3.43627 0
M  V30 13756 N 1314.03 1.01274 -1.20754 0
M  V30 13757 C 1315.31 1.7213 -0.929008 0
M  V30 13758 C 1315.69 2.03503 0.561217 0
M  V30 13759 O 1315.04 1.70259 1.52395 0
M  V30 13760 C 1315.25 2.98636 -1.80603 0
M  V30 13761 C 1316.59 3.71823 -2.0502 0
M  V30 13762 O 1317.62 3.08601 -1.77888 0
M  V30 13763 O 1316.48 4.8552 -2.50864 0
M  V30 13764 H 1313.57 0.750361 -0.347689 0
M  V30 13765 H 1316.12 1.07086 -1.31646 0
M  V30 13766 H 1314.89 2.71803 -2.81494 0
M  V30 13767 H 1314.51 3.7142 -1.4189 0
M  V30 13768 N 1315.51 1.01404 1.20644 0
M  V30 13769 C 1316.76 0.697244 1.89265 0
M  V30 13770 C 1317.07 -0.776149 1.79542 0
M  V30 13771 O 1318.28 -1.2054 2.43274 0
M  V30 13772 C 1316.73 1.19672 3.39421 0
M  V30 13773 C 1316.34 2.69683 3.57736 0
M  V30 13774 C 1318.09 0.955225 4.13613 0
M  V30 13775 C 1315.99 3.13124 5.01704 0
M  V30 13776 H 1314.92 0.257105 0.708811 0
M  V30 13777 H 1317.57 1.22639 1.36499 0
M  V30 13778 H 1315.96 0.595562 3.91496 0
M  V30 13779 H 1317.13 3.35326 3.16059 0
M  V30 13780 H 1315.44 2.91946 2.96911 0
M  V30 13781 H 1318.04 1.25524 5.19757 0
M  V30 13782 H 1318.38 -0.108362 4.16159 0
M  V30 13783 H 1318.92 1.51962 3.67631 0
M  V30 13784 H 1315.66 4.18748 5.04311 0
M  V30 13785 H 1315.18 2.522 5.44201 0
M  V30 13786 H 1316.86 3.05617 5.70269 0
M  V30 13787 N 1316.99 -1.36373 0.789944 0
M  V30 13788 C 1318.4 -1.52471 0.471686 0
M  V30 13789 C 1318.6 -1.74365 -1.0099 0
M  V30 13790 O 1317.66 -1.77546 -1.79538 0
M  V30 13791 C 1318.97 -2.71022 1.30259 0
M  V30 13792 C 1320.52 -2.84893 1.29633 0
M  V30 13793 C 1321 -4.0645 2.11098 0
M  V30 13794 N 1322.49 -4.13597 2.08547 0
M  V30 13795 C 1323.22 -5.06731 2.6835 0
M  V30 13796 N 1322.72 -6.05305 3.37013 0
M  V30 13797 N 1324.51 -4.9935 2.58081 0
M  V30 13798 H 1316.66 -1.20416 1.74968 0
M  V30 13799 H 1318.92 -0.587782 0.743785 0
M  V30 13800 H 1318.63 -2.61368 2.35329 0
M  V30 13801 H 1318.5 -3.6519 0.944254 0
M  V30 13802 H 1320.89 -2.94009 0.253542 0
M  V30 13803 H 1320.97 -1.91632 1.69443 0
M  V30 13804 H 1320.62 -3.98096 3.15408 0
M  V30 13805 H 1320.55 -4.98861 1.68659 0
M  V30 13806 H 1323.04 -3.4302 1.58573 0
M  V30 13807 H 1323.35 -6.72934 3.79974 0
M  V30 13808 H 1321.7 -6.05529 3.41116 0
M  V30 13809 H 1324.89 -4.21291 2.04039 0
M  V30 13810 H 1325.06 -5.71745 3.04979 0
M  V30 13811 N 1318.47 -0.542005 -1.47987 0
M  V30 13812 C 1319.43 0.203537 -2.28294 0
M  V30 13813 C 1320.43 0.856762 -1.36074 0
M  V30 13814 O 1321.62 0.71496 -1.58852 0
M  V30 13815 C 1318.75 1.29581 -3.15312 0
M  V30 13816 H 1319.94 -0.501701 -2.95674 0
M  V30 13817 H 1317.5 -0.298378 -1.53426 0
M  V30 13818 H 1318.23 2.03393 -2.5259 0
M  V30 13819 H 1318.02 0.832398 -3.83163 0
M  V30 13820 H 1319.51 1.81988 -3.75859 0
M  V30 13821 N 1319.94 1.55134 -0.277709 0
M  V30 13822 C 1321.17 2.04519 0.344472 0
M  V30 13823 C 1321.59 1.15466 1.4849 0
M  V30 13824 O 1320.95 0.153798 1.80646 0
M  V30 13825 C 1321 3.51602 0.800527 0
M  V30 13826 O 1320.1 3.65632 1.90754 0
M  V30 13827 H 1319.44 0.660212 0.0708226 0
M  V30 13828 H 1321.97 2.00393 -0.412764 0
M  V30 13829 H 1321.98 3.93015 1.09559 0
M  V30 13830 H 1320.66 4.15886 -0.033838 0
M  V30 13831 H 1319.24 3.36122 1.61481 0
M  V30 13832 N 1321.42 0.00503138 1.57599 0
M  V30 13833 C 1322.67 -0.679766 1.91068 0
M  V30 13834 C 1323 -1.73144 0.879486 0
M  V30 13835 O 1322.28 -1.94237 -0.101116 0
M  V30 13836 C 1322.56 -1.3183 3.35101 0
M  V30 13837 C 1322.41 -0.277833 4.48941 0
M  V30 13838 C 1323.73 -2.24308 3.78647 0
M  V30 13839 H 1320.85 -0.245646 0.694857 0
M  V30 13840 H 1323.49 0.057357 1.89913 0
M  V30 13841 H 1321.64 -1.94657 3.36216 0
M  V30 13842 H 1323.31 0.351136 4.59962 0
M  V30 13843 H 1321.56 0.399365 4.31958 0
M  V30 13844 H 1322.23 -0.763759 5.46691 0
M  V30 13845 H 1324.7 -1.71494 3.79116 0
M  V30 13846 H 1323.58 -2.6595 4.80169 0
M  V30 13847 H 1323.84 -3.12427 3.12797 0
M  V30 13848 N 1322.9 -1.55308 -0.267798 0
M  V30 13849 C 1324.15 -1.75811 -0.996734 0
M  V30 13850 C 1324.47 -0.565161 -1.8663 0
M  V30 13851 O 1323.74 0.419775 -1.9135 0
M  V30 13852 H 1322.32 -0.648353 -0.371008 0
M  V30 13853 H 1324.98 -1.92719 -0.290775 0
M  V30 13854 H 1324.08 -2.66113 -1.63064 0
M  V30 13855 N 1324.38 0.532545 -1.4833 0
M  V30 13856 C 1325.34 1.61955 -1.62183 0
M  V30 13857 C 1326.34 1.52982 -0.495281 0
M  V30 13858 O 1327.53 1.56698 -0.761005 0
M  V30 13859 C 1324.66 3.0157 -1.58961 0
M  V30 13860 H 1325.86 1.51013 -2.59105 0
M  V30 13861 H 1323.41 0.754405 -1.36888 0
M  V30 13862 H 1324.14 3.18021 -0.635069 0
M  V30 13863 H 1323.93 3.09491 -2.40744 0
M  V30 13864 H 1325.42 3.80604 -1.71843 0
M  V30 13865 N 1325.86 1.36875 0.78122 0
M  V30 13866 C 1327.1 1.31299 1.53639 0
M  V30 13867 C 1327.42 -0.104942 1.94717 0
M  V30 13868 O 1326.69 -1.04696 1.65576 0
M  V30 13869 H 1325.27 0.483032 0.569815 0
M  V30 13870 H 1327.94 1.71261 0.930359 0
M  V30 13871 H 1327.03 1.94581 2.44018 0
M  V30 13872 N 1327.33 -1.00632 1.21289 0
M  V30 13873 C 1328.58 -1.74388 1.02932 0
M  V30 13874 C 1328.91 -1.8952 -0.437327 0
M  V30 13875 O 1328.16 -1.42551 -1.3408 0
M  V30 13876 C 1328.46 -3.1598 1.67007 0
M  V30 13877 C 1328.13 -3.208 3.16857 0
M  V30 13878 C 1326.79 -3.21823 3.57748 0
M  V30 13879 C 1329.14 -3.18147 4.12834 0
M  V30 13880 C 1326.47 -3.17877 4.93124 0
M  V30 13881 C 1328.82 -3.15743 5.48169 0
M  V30 13882 C 1327.49 -3.15074 5.88459 0
M  V30 13883 H 1326.76 -0.638133 0.376653 0
M  V30 13884 H 1329.4 -1.17953 1.50862 0
M  V30 13885 H 1327.71 -3.75639 1.11365 0
M  V30 13886 H 1329.41 -3.71764 1.50307 0
M  V30 13887 H 1326 -3.20746 2.84289 0
M  V30 13888 H 1330.18 -3.16519 3.82269 0
M  V30 13889 H 1325.44 -3.15696 5.2359 0
M  V30 13890 H 1329.61 -3.12644 6.22275 0
M  V30 13891 H 1327.24 -3.11771 6.93327 0
M  V30 13892 N 1328.81 -1.02043 -1.20104 0
M  V30 13893 C 1329.74 -0.614421 -2.25271 0
M  V30 13894 C 1330.72 0.37242 -1.65973 0
M  V30 13895 O 1331.91 0.257005 -1.92492 0
M  V30 13896 C 1329.04 0.0442085 -3.47272 0
M  V30 13897 C 1327.99 -0.864019 -4.19188 0
M  V30 13898 C 1327.32 -0.0709551 -5.34653 0
M  V30 13899 C 1328.62 -2.17385 -4.74912 0
M  V30 13900 H 1330.31 -1.49355 -2.59487 0
M  V30 13901 H 1327.86 -0.719591 -1.24731 0
M  V30 13902 H 1329.81 0.339825 -4.20028 0
M  V30 13903 H 1328.53 0.958082 -3.12231 0
M  V30 13904 H 1327.19 -1.1437 -3.48303 0
M  V30 13905 H 1326.84 0.844688 -4.95857 0
M  V30 13906 H 1326.54 -0.67583 -5.83701 0
M  V30 13907 H 1328.07 0.218118 -6.1021 0
M  V30 13908 H 1329.48 -1.94034 -5.39466 0
M  V30 13909 H 1327.88 -2.72991 -5.34412 0
M  V30 13910 H 1328.95 -2.83427 -3.93443 0
M  V30 13911 N 1330.29 1.35952 -0.797165 0
M  V30 13912 C 1331.52 2.02986 -0.384758 0
M  V30 13913 C 1331.93 1.60233 1.00608 0
M  V30 13914 O 1331.27 0.790955 1.658 0
M  V30 13915 C 1331.33 3.57508 -0.37795 0
M  V30 13916 C 1331 4.23491 -1.71769 0
M  V30 13917 C 1331.99 4.45835 -2.67445 0
M  V30 13918 C 1329.68 4.60804 -1.99911 0
M  V30 13919 C 1331.67 5.04584 -3.89453 0
M  V30 13920 C 1329.36 5.19269 -3.22185 0
M  V30 13921 C 1330.36 5.41099 -4.16774 0
M  V30 13922 O 1330.05 5.98334 -5.36891 0
M  V30 13923 H 1329.78 0.657838 -0.155644 0
M  V30 13924 H 1332.33 1.7475 -1.07942 0
M  V30 13925 H 1330.56 3.84894 0.373253 0
M  V30 13926 H 1332.25 4.05899 0.0108505 0
M  V30 13927 H 1333.02 4.17397 -2.46992 0
M  V30 13928 H 1328.9 4.43132 -1.27102 0
M  V30 13929 H 1332.44 5.21539 -4.63296 0
M  V30 13930 H 1328.34 5.47134 -3.42512 0
M  V30 13931 H 1329.11 6.16794 -5.38059 0
M  V30 13932 N 1331.77 0.549846 1.47697 0
M  V30 13933 C 1333.18 0.11453 1.86348 0
M  V30 13934 C 1333.53 -1.31368 1.45729 0
M  V30 13935 O 1332.66 -1.98707 0.856989 0
M  V30 13936 C 1333.25 0.201072 3.38203 0
M  V30 13937 C 1331.81 -0.179162 3.75973 0
M  V30 13938 C 1330.96 0.551951 2.71751 0
M  V30 13939 H 1333.91 0.759989 1.39319 0
M  V30 13940 H 1333.93 -0.582216 3.76019 0
M  V30 13941 H 1333.44 1.24065 3.67736 0
M  V30 13942 H 1331.54 -1.22013 3.52056 0
M  V30 13943 H 1331.65 0.174273 4.78783 0
M  V30 13944 H 1330.02 -0.00411819 2.547 0
M  V30 13945 H 1330.8 1.59254 3.04127 0
M  V30 13946 N 1333.25 -1.54984 0.285932 0
M  V30 13947 C 1334.18 -2.25916 -0.590259 0
M  V30 13948 C 1335.16 -1.25319 -1.15018 0
M  V30 13949 O 1336.34 -1.54062 -1.18231 0
M  V30 13950 C 1333.47 -2.98849 -1.76936 0
M  V30 13951 C 1332.43 -4.06466 -1.3405 0
M  V30 13952 C 1331.75 -4.67032 -2.60356 0
M  V30 13953 C 1333.05 -5.20064 -0.482754 0
M  V30 13954 H 1334.75 -2.994 0.00131571 0
M  V30 13955 H 1332.29 -1.44 0.00207281 0
M  V30 13956 H 1334.25 -3.47186 -2.3883 0
M  V30 13957 H 1332.97 -2.22918 -2.38694 0
M  V30 13958 H 1331.63 -3.58957 -0.7447 0
M  V30 13959 H 1331.28 -3.87757 -3.20396 0
M  V30 13960 H 1330.98 -5.39703 -2.32368 0
M  V30 13961 H 1332.5 -5.18124 -3.23079 0
M  V30 13962 H 1333.91 -5.64387 -1.00697 0
M  V30 13963 H 1332.31 -5.99363 -0.297291 0
M  V30 13964 H 1333.38 -4.82358 0.495861 0
M  V30 13965 N 1334.72 -0.0133892 -1.57594 0
M  V30 13966 C 1335.97 0.669624 -1.91426 0
M  V30 13967 C 1336.3 1.72675 -0.888656 0
M  V30 13968 O 1335.58 1.94288 0.0908138 0
M  V30 13969 C 1335.86 1.30051 -3.35796 0
M  V30 13970 C 1335.71 0.254021 -4.49082 0
M  V30 13971 C 1337.03 2.22297 -3.79832 0
M  V30 13972 H 1334.15 0.241958 -0.69615 0
M  V30 13973 H 1336.79 -0.0674278 -1.8988 0
M  V30 13974 H 1334.94 1.92871 -3.37243 0
M  V30 13975 H 1336.62 -0.375524 -4.59769 0
M  V30 13976 H 1334.86 -0.422267 -4.3174 0
M  V30 13977 H 1335.53 0.734756 -5.47088 0
M  V30 13978 H 1338.01 1.69481 -3.8002 0
M  V30 13979 H 1336.88 2.634 -4.81572 0
M  V30 13980 H 1337.14 3.10764 -3.14449 0
M  V30 13981 N 1336.2 1.55448 0.259558 0
M  V30 13982 C 1337.45 1.76337 0.987396 0
M  V30 13983 C 1337.77 0.57505 1.86328 0
M  V30 13984 O 1337.04 -0.409621 1.9157 0
M  V30 13985 H 1335.62 0.650312 0.367565 0
M  V30 13986 H 1338.28 1.9287 0.280551 0
M  V30 13987 H 1337.38 2.66975 1.61651 0
M  V30 13988 N 1337.68 -0.524672 1.4861 0
M  V30 13989 C 1338.91 -1.30482 1.60568 0
M  V30 13990 C 1339.32 -1.86889 0.267952 0
M  V30 13991 O 1338.68 -1.66669 -0.743488 0
M  V30 13992 C 1338.73 -2.45191 2.65638 0
M  V30 13993 O 1338.45 -1.91107 3.9422 0
M  V30 13994 C 1339.95 -3.36931 2.88084 0
M  V30 13995 H 1337.17 -0.396612 0.541239 0
M  V30 13996 H 1339.72 -0.632392 1.94476 0
M  V30 13997 H 1337.87 -3.08308 2.34574 0
M  V30 13998 H 1338.29 -2.66234 4.51907 0
M  V30 13999 H 1339.76 -4.13755 3.65391 0
M  V30 14000 H 1340.24 -3.92487 1.97106 0
M  V30 14001 H 1340.84 -2.79601 3.20473 0
M  V30 14002 N 1339.16 -1.37287 -0.77395 0
M  V30 14003 C 1340.09 -1.27239 -1.89435 0
M  V30 14004 C 1341.07 -0.153365 -1.61875 0
M  V30 14005 O 1342.25 -0.327193 -1.85639 0
M  V30 14006 C 1339.38 -0.966771 -3.24609 0
M  V30 14007 C 1338.43 -2.10237 -3.71083 0
M  V30 14008 S 1339.26 -3.72188 -3.85014 0
M  V30 14009 C 1340.42 -3.43773 -5.2304 0
M  V30 14010 H 1340.65 -2.22068 -1.97669 0
M  V30 14011 H 1338.18 -1.22884 -0.93482 0
M  V30 14012 H 1340.14 -0.797268 -4.02683 0
M  V30 14013 H 1338.8 -0.0359985 -3.14079 0
M  V30 14014 H 1337.99 -1.84349 -4.69075 0
M  V30 14015 H 1337.6 -2.23189 -3.00104 0
M  V30 14016 H 1339.89 -2.98625 -6.08136 0
M  V30 14017 H 1340.83 -4.41085 -5.5394 0
M  V30 14018 H 1341.24 -2.78753 -4.90873 0
M  V30 14019 N 1340.64 0.999871 -1.21821 0
M  V30 14020 C 1341.86 1.7794 -1.06546 0
M  V30 14021 C 1342.29 1.84219 0.380115 0
M  V30 14022 O 1341.64 1.28955 1.27438 0
M  V30 14023 C 1341.69 3.1943 -1.67322 0
M  V30 14024 O 1340.8 4.01957 -0.922171 0
M  V30 14025 H 1340.14 0.548204 -0.374658 0
M  V30 14026 H 1342.67 1.2565 -1.61472 0
M  V30 14027 H 1342.68 3.70086 -1.71757 0
M  V30 14028 H 1341.35 3.14175 -2.7252 0
M  V30 14029 H 1339.93 3.60509 -0.95331 0
M  V30 14030 N 1342.11 1.02678 1.19562 0
M  V30 14031 C 1343.34 0.741569 1.93154 0
M  V30 14032 C 1343.76 -0.699292 1.75372 0
M  V30 14033 O 1343.11 -1.47533 1.07426 0
M  V30 14034 C 1343.17 1.08064 3.4497 0
M  V30 14035 O 1342.89 2.46492 3.62179 0
M  V30 14036 C 1344.39 0.817935 4.35689 0
M  V30 14037 H 1341.61 0.271506 0.613617 0
M  V30 14038 H 1344.15 1.3707 1.51763 0
M  V30 14039 H 1342.31 0.496723 3.84202 0
M  V30 14040 H 1342.72 2.59053 4.56061 0
M  V30 14041 H 1344.19 1.10517 5.40823 0
M  V30 14042 H 1344.67 -0.247693 4.38501 0
M  V30 14043 H 1345.28 1.38449 4.02134 0
M  V30 14044 N 1343.59 -1.35528 0.804364 0
M  V30 14045 C 1344.53 -2.27647 0.158767 0
M  V30 14046 C 1345.5 -1.47976 -0.673942 0
M  V30 14047 O 1346.69 -1.77241 -0.641703 0
M  V30 14048 C 1343.81 -3.29597 -0.779973 0
M  V30 14049 C 1342.86 -4.26491 -0.0271676 0
M  V30 14050 S 1343.69 -5.19296 1.30736 0
M  V30 14051 C 1344.85 -6.24788 0.373003 0
M  V30 14052 H 1345.08 -2.82055 0.939805 0
M  V30 14053 H 1342.62 -1.42294 0.599313 0
M  V30 14054 H 1344.57 -3.88831 -1.31609 0
M  V30 14055 H 1343.23 -2.74072 -1.53438 0
M  V30 14056 H 1342.43 -4.98537 -0.740059 0
M  V30 14057 H 1342.03 -3.71415 0.438923 0
M  V30 14058 H 1344.32 -6.76053 -0.442566 0
M  V30 14059 H 1345.26 -7.00082 1.06258 0
M  V30 14060 H 1345.67 -5.64492 -0.0303131 0
M  V30 14061 N 1345.07 -0.557671 -1.47404 0
M  V30 14062 C 1346.48 -0.124411 -1.86285 0
M  V30 14063 C 1346.83 1.30593 -1.46424 0
M  V30 14064 O 1345.96 1.9825 -0.867515 0
M  V30 14065 C 1346.55 -0.219005 -3.38091 0
M  V30 14066 C 1345.11 0.159221 -3.76063 0
M  V30 14067 C 1344.26 -0.566355 -2.71455 0
M  V30 14068 H 1347.21 -0.767367 -1.38914 0
M  V30 14069 H 1347.23 0.562267 -3.76323 0
M  V30 14070 H 1346.74 -1.26013 -3.67073 0
M  V30 14071 H 1344.84 1.20144 -3.52698 0
M  V30 14072 H 1344.96 -0.199662 -4.78684 0
M  V30 14073 H 1343.32 -0.00938921 -2.54698 0
M  V30 14074 H 1344.1 -1.60865 -3.03278 0
M  V30 14075 N 1346.55 1.54831 -0.294147 0
M  V30 14076 C 1347.8 1.99606 0.316509 0
M  V30 14077 C 1348.12 1.18405 1.54936 0
M  V30 14078 O 1347.39 0.278289 1.93913 0
M  V30 14079 H 1345.97 0.737309 0.119938 0
M  V30 14080 H 1348.63 1.90669 -0.403891 0
M  V30 14081 H 1347.73 3.06409 0.593282 0
M  V30 14082 N 1348.03 0.0217466 1.57585 0
M  V30 14083 C 1348.96 -0.961069 2.12804 0
M  V30 14084 C 1349.94 -1.3442 1.04237 0
M  V30 14085 O 1351.12 -1.42412 1.32032 0
M  V30 14086 C 1348.25 -2.24586 2.64912 0
M  V30 14087 C 1347.21 -2.0037 3.78201 0
M  V30 14088 C 1346.53 -3.35051 4.16708 0
M  V30 14089 C 1347.83 -1.34879 5.04584 0
M  V30 14090 H 1349.53 -0.501222 2.95175 0
M  V30 14091 H 1347.07 -0.239649 1.41992 0
M  V30 14092 H 1349.03 -2.93715 3.02175 0
M  V30 14093 H 1347.75 -2.72723 1.79693 0
M  V30 14094 H 1346.41 -1.33662 3.41365 0
M  V30 14095 H 1346.06 -3.80932 3.28481 0
M  V30 14096 H 1345.76 -3.19656 4.93045 0
M  V30 14097 H 1347.28 -4.05459 4.56547 0
M  V30 14098 H 1348.7 -1.93997 5.3948 0
M  V30 14099 H 1347.09 -1.29906 5.85871 0
M  V30 14100 H 1348.16 -0.320774 4.83838 0
M  V30 14101 N 1349.51 -1.55583 -0.251311 0
M  V30 14102 C 1350.92 -1.67693 -0.820719 0
M  V30 14103 C 1351.27 -0.618393 -1.862 0
M  V30 14104 O 1350.39 0.236158 -2.15108 0
M  V30 14105 C 1350.99 -3.04011 -1.49542 0
M  V30 14106 C 1349.55 -3.18075 -2.01259 0
M  V30 14107 C 1348.69 -2.63557 -0.862138 0
M  V30 14108 H 1351.64 -1.58677 -0.0272072 0
M  V30 14109 H 1351.67 -2.9821 -2.36328 0
M  V30 14110 H 1351.18 -3.81032 -0.737323 0
M  V30 14111 H 1349.28 -2.45869 -2.79963 0
M  V30 14112 H 1349.39 -4.24927 -2.213 0
M  V30 14113 H 1347.76 -2.21268 -1.26145 0
M  V30 14114 H 1348.54 -3.431 -0.117196 0
M  V30 14115 N 1350.98 0.516783 -1.48886 0
M  V30 14116 C 1352.21 1.29628 -1.61258 0
M  V30 14117 C 1352.63 1.86744 -0.27786 0
M  V30 14118 O 1351.98 1.67061 0.734639 0
M  V30 14119 C 1352.03 2.43779 -2.66935 0
M  V30 14120 O 1351.76 1.89014 -3.95228 0
M  V30 14121 C 1353.26 3.35398 -2.89867 0
M  V30 14122 H 1350.48 0.393736 -0.543335 0
M  V30 14123 H 1353.02 0.622069 -1.94809 0
M  V30 14124 H 1351.18 3.0706 -2.36206 0
M  V30 14125 H 1351.59 2.63833 -4.53312 0
M  V30 14126 H 1353.06 4.11812 -3.6758 0
M  V30 14127 H 1353.54 3.91436 -1.99185 0
M  V30 14128 H 1354.15 2.77898 -3.21952 0
M  V30 14129 N 1352.46 1.37696 0.766659 0
M  V30 14130 C 1353.88 1.18607 1.06792 0
M  V30 14131 C 1354.08 0.0257195 2.01484 0
M  V30 14132 O 1353.13 -0.632608 2.44447 0
M  V30 14133 C 1354.45 2.50692 1.66054 0
M  V30 14134 C 1355.99 2.57259 1.78288 0
M  V30 14135 C 1356.47 3.89488 2.40963 0
M  V30 14136 N 1357.96 3.90957 2.48408 0
M  V30 14137 C 1358.7 4.90023 2.97767 0
M  V30 14138 N 1358.19 5.99485 3.4726 0
M  V30 14139 N 1359.98 4.77423 2.96688 0
M  V30 14140 H 1352.14 2.11951 0.138031 0
M  V30 14141 H 1354.4 0.939873 0.123863 0
M  V30 14142 H 1354.1 3.35989 1.03945 0
M  V30 14143 H 1353.98 2.68148 2.65286 0
M  V30 14144 H 1356.37 1.72366 2.39528 0
M  V30 14145 H 1356.45 2.43682 0.777981 0
M  V30 14146 H 1356.09 4.74797 1.8036 0
M  V30 14147 H 1356.02 4.0037 3.42069 0
M  V30 14148 H 1358.51 3.11888 2.13388 0
M  V30 14149 H 1358.82 6.71022 3.8334 0
M  V30 14150 H 1357.17 6.03123 3.45351 0
M  V30 14151 H 1360.36 3.91026 2.57325 0
M  V30 14152 H 1360.53 5.54783 3.34844 0
M  V30 14153 N 1353.94 -0.993397 1.22349 0
M  V30 14154 C 1355.35 -1.54739 1.04465 0
M  V30 14155 C 1355.7 -1.92243 -0.392057 0
M  V30 14156 O 1354.83 -1.74707 -1.27697 0
M  V30 14157 C 1355.42 -2.81179 1.89007 0
M  V30 14158 C 1353.98 -3.33023 1.75421 0
M  V30 14159 C 1353.13 -2.06114 1.85505 0
M  V30 14160 H 1356.08 -0.814539 1.36202 0
M  V30 14161 H 1356.1 -3.53523 1.40718 0
M  V30 14162 H 1355.61 -2.53851 2.93566 0
M  V30 14163 H 1353.71 -3.6526 0.735935 0
M  V30 14164 H 1353.83 -4.03659 2.58062 0
M  V30 14165 H 1352.19 -2.19651 1.2894 0
M  V30 14166 H 1352.97 -1.81184 2.91594 0
M  V30 14167 N 1355.42 -1.03311 -1.19015 0
M  V30 14168 C 1356.66 -0.740813 -1.90503 0
M  V30 14169 C 1357.02 0.717732 -1.7808 0
M  V30 14170 O 1358.22 1.12329 -2.44204 0
M  V30 14171 C 1356.49 -1.18473 -3.37193 0
M  V30 14172 S 1358.05 -1.01692 -4.26854 0
M  V30 14173 H 1354.87 -0.269575 -0.657913 0
M  V30 14174 H 1357.47 -1.32382 -1.43858 0
M  V30 14175 H 1356.18 -2.2418 -3.43761 0
M  V30 14176 H 1355.71 -0.59519 -3.88872 0
M  V30 14177 H 1357.72 0.070076 -4.96151 0
M  V30 14178 N 1356.9 1.35099 -0.81154 0
M  V30 14179 C 1358.14 1.98625 -0.394231 0
M  V30 14180 C 1358.47 1.6437 1.03985 0
M  V30 14181 O 1357.73 0.901496 1.737 0
M  V30 14182 C 1358.02 3.53444 -0.530322 0
M  V30 14183 C 1357.69 4.0758 -1.92844 0
M  V30 14184 C 1356.35 4.22077 -2.31094 0
M  V30 14185 C 1358.7 4.36838 -2.84292 0
M  V30 14186 C 1356.03 4.63153 -3.60148 0
M  V30 14187 C 1358.38 4.79355 -4.12798 0
M  V30 14188 C 1357.05 4.92057 -4.51039 0
M  V30 14189 H 1356.32 0.726822 -0.144259 0
M  V30 14190 H 1358.97 1.61231 -1.03329 0
M  V30 14191 H 1357.27 3.91328 0.192166 0
M  V30 14192 H 1358.97 4.00558 -0.188134 0
M  V30 14193 H 1355.56 3.96752 -1.62129 0
M  V30 14194 H 1359.74 4.25187 -2.55988 0
M  V30 14195 H 1355 4.71176 -3.89619 0
M  V30 14196 H 1359.17 5.00954 -4.83754 0
M  V30 14197 H 1356.8 5.23643 -5.51092 0
M  V30 14198 N 1358.37 0.56548 1.47106 0
M  V30 14199 C 1359.6 0.0495579 2.06541 0
M  V30 14200 C 1360.01 -1.25325 1.4174 0
M  V30 14201 O 1359.35 -1.76455 0.510818 0
M  V30 14202 C 1359.42 -0.20843 3.58895 0
M  V30 14203 C 1359.08 1.00618 4.45786 0
M  V30 14204 C 1360.08 1.91387 4.83391 0
M  V30 14205 C 1357.76 1.22318 4.87179 0
M  V30 14206 C 1359.76 3.02218 5.61198 0
M  V30 14207 C 1357.44 2.33457 5.64749 0
M  V30 14208 C 1358.44 3.23238 6.0167 0
M  V30 14209 O 1358.13 4.32449 6.77675 0
M  V30 14210 H 1357.86 0.0466 0.674392 0
M  V30 14211 H 1360.42 0.780887 1.89977 0
M  V30 14212 H 1358.65 -0.994169 3.73702 0
M  V30 14213 H 1360.33 -0.670745 4.0032 0
M  V30 14214 H 1361.1 1.75831 4.52005 0
M  V30 14215 H 1356.98 0.533514 4.57902 0
M  V30 14216 H 1360.52 3.72321 5.89935 0
M  V30 14217 H 1356.42 2.48983 5.95548 0
M  V30 14218 H 1357.19 4.306 6.96079 0
M  V30 14219 N 1359.85 -1.54672 0.302354 0
M  V30 14220 C 1361.13 -1.92264 -0.359711 0
M  V30 14221 C 1361.51 -1.22973 -1.71583 0
M  V30 14222 O 1360.86 -0.365942 -2.25551 0
M  V30 14223 C 1361.07 -3.4578 -0.473019 0
M  V30 14224 C 1362.42 -4.18044 -0.743252 0
M  V30 14225 O 1363.44 -3.51822 -0.556778 0
M  V30 14226 O 1362.3 -5.35283 -1.10155 0
M  V30 14227 H 1359.39 -0.802112 -0.201359 0
M  V30 14228 H 1361.94 -1.66041 0.350513 0
M  V30 14229 H 1360.71 -3.88342 0.480265 0
M  V30 14230 H 1360.33 -3.78042 -1.23166 0
M  V30 14231 N 1361.33 -0.0301034 -1.57571 0
M  V30 14232 C 1362.58 0.647672 -1.91019 0
M  V30 14233 C 1362.89 1.73234 -0.908265 0
M  V30 14234 O 1364.1 2.46682 -1.13402 0
M  V30 14235 C 1362.55 1.20327 -3.3919 0
M  V30 14236 C 1362.16 0.151833 -4.47743 0
M  V30 14237 C 1363.91 1.8575 -3.81703 0
M  V30 14238 C 1361.81 0.719119 -5.87012 0
M  V30 14239 H 1360.74 0.245682 -0.712851 0
M  V30 14240 H 1363.39 -0.0955645 -1.83251 0
M  V30 14241 H 1361.78 1.99814 -3.41892 0
M  V30 14242 H 1362.95 -0.620659 -4.56601 0
M  V30 14243 H 1361.27 -0.403699 -4.14438 0
M  V30 14244 H 1363.86 2.29151 -4.83109 0
M  V30 14245 H 1364.21 2.70061 -3.16817 0
M  V30 14246 H 1364.74 1.1295 -3.81428 0
M  V30 14247 H 1361.48 -0.0858832 -6.55444 0
M  V30 14248 H 1361 1.46008 -5.81758 0
M  V30 14249 H 1362.68 1.20856 -6.35612 0
M  V30 14250 N 1362.81 1.55714 0.243056 0
M  V30 14251 C 1364.09 1.68483 0.993614 0
M  V30 14252 C 1364.47 0.571112 2.03228 0
M  V30 14253 O 1363.81 -0.42491 2.24515 0
M  V30 14254 C 1364.02 3.0894 1.62349 0
M  V30 14255 C 1365.37 3.67663 2.12389 0
M  V30 14256 O 1366.4 3.11764 1.72283 0
M  V30 14257 O 1365.25 4.65664 2.8604 0
M  V30 14258 H 1362.35 0.685415 0.462747 0
M  V30 14259 H 1364.89 1.68043 0.236538 0
M  V30 14260 H 1363.67 3.81451 0.87241 0
M  V30 14261 H 1363.29 3.13407 2.44667 0
M  V30 14262 N 1364.29 -0.50888 1.49158 0
M  V30 14263 C 1365.22 -1.62008 1.68154 0
M  V30 14264 C 1366.2 -1.61624 0.53025 0
M  V30 14265 O 1367.38 -1.78489 0.765205 0
M  V30 14266 C 1364.51 -3.00525 1.74075 0
M  V30 14267 C 1363.47 -3.15773 2.88915 0
M  V30 14268 C 1362.79 -4.55562 2.79942 0
M  V30 14269 C 1364.09 -2.96542 4.29953 0
M  V30 14270 H 1365.79 -1.46365 2.61185 0
M  V30 14271 H 1363.33 -0.702705 1.2569 0
M  V30 14272 H 1365.29 -3.78154 1.8595 0
M  V30 14273 H 1364.01 -3.17238 0.776373 0
M  V30 14274 H 1362.67 -2.40567 2.76628 0
M  V30 14275 H 1362.32 -4.6914 1.81429 0
M  V30 14276 H 1362.02 -4.66706 3.57015 0
M  V30 14277 H 1363.54 -5.35262 2.93814 0
M  V30 14278 H 1364.95 -3.63947 4.42963 0
M  V30 14279 H 1363.35 -3.19164 5.08187 0
M  V30 14280 H 1364.42 -1.92745 4.44946 0
M  V30 14281 N 1365.76 -1.381 -0.759346 0
M  V30 14282 C 1367.04 -1.24517 -1.50847 0
M  V30 14283 C 1367.42 0.155929 -2.10523 0
M  V30 14284 O 1366.77 1.16485 -1.96579 0
M  V30 14285 C 1366.98 -2.35086 -2.57945 0
M  V30 14286 C 1368.33 -2.73232 -3.25007 0
M  V30 14287 O 1369.35 -2.34355 -2.68247 0
M  V30 14288 O 1368.21 -3.40254 -4.27656 0
M  V30 14289 H 1365.3 -0.486599 -0.668693 0
M  V30 14290 H 1367.85 -1.49913 -0.795249 0
M  V30 14291 H 1366.62 -3.28858 -2.12056 0
M  V30 14292 H 1366.25 -2.11222 -3.36854 0
M  V30 14293 N 1367.24 0.986894 -1.22875 0
M  V30 14294 C 1368.65 1.54182 -1.05284 0
M  V30 14295 C 1369 1.92448 0.381856 0
M  V30 14296 O 1368.13 1.75381 1.26769 0
M  V30 14297 C 1368.72 2.80173 -1.90496 0
M  V30 14298 C 1367.28 3.32088 -1.77185 0
M  V30 14299 C 1366.43 2.05128 -1.86596 0
M  V30 14300 H 1369.38 0.807304 -1.36632 0
M  V30 14301 H 1369.4 3.52772 -1.42591 0
M  V30 14302 H 1368.91 2.52291 -2.94908 0
M  V30 14303 H 1367.02 3.64864 -0.755295 0
M  V30 14304 H 1367.13 4.02285 -2.60199 0
M  V30 14305 H 1365.49 2.18964 -1.30103 0
M  V30 14306 H 1366.28 1.79635 -2.92551 0
M  V30 14307 N 1368.72 1.0394 1.18466 0
M  V30 14308 C 1369.63 0.639714 2.2571 0
M  V30 14309 C 1370.65 -0.333431 1.70775 0
M  V30 14310 O 1371.82 -0.188676 2.00514 0
M  V30 14311 C 1368.89 0.007559 3.46699 0
M  V30 14312 C 1367.95 1.02955 4.16772 0
M  V30 14313 C 1367.18 0.427464 5.31985 0
M  V30 14314 O 1367.4 -0.766684 5.65224 0
M  V30 14315 O 1366.34 1.15553 5.90704 0
M  V30 14316 H 1370.16 1.53316 2.6216 0
M  V30 14317 H 1367.75 0.810206 1.25523 0
M  V30 14318 H 1369.63 -0.344404 4.1999 0
M  V30 14319 H 1368.31 -0.859727 3.12074 0
M  V30 14320 H 1367.21 1.43328 3.45554 0
M  V30 14321 H 1368.55 1.86756 4.55393 0
M  V30 14322 N 1370.2 -1.34667 0.818693 0
M  V30 14323 C 1371.43 -2.02642 0.417608 0
M  V30 14324 C 1371.84 -1.61667 -0.97516 0
M  V30 14325 O 1371.2 -0.820056 -1.63038 0
M  V30 14326 C 1371.25 -3.57951 0.505295 0
M  V30 14327 O 1370.97 -3.97441 1.84317 0
M  V30 14328 C 1372.47 -4.4319 0.0985667 0
M  V30 14329 H 1369.69 -0.6496 0.168111 0
M  V30 14330 H 1372.24 -1.72032 1.10568 0
M  V30 14331 H 1370.39 -3.87166 -0.134646 0
M  V30 14332 H 1370.8 -4.92116 1.81444 0
M  V30 14333 H 1372.28 -5.51597 0.211015 0
M  V30 14334 H 1372.76 -4.28637 -0.95745 0
M  V30 14335 H 1373.36 -4.19295 0.71214 0
M  V30 14336 N 1371.68 -0.573274 -1.46804 0
M  V30 14337 C 1372.59 0.168081 -2.33997 0
M  V30 14338 C 1373.6 0.895652 -1.49178 0
M  V30 14339 O 1374.78 0.860951 -1.8207 0
M  V30 14340 C 1371.84 1.17483 -3.26188 0
M  V30 14341 C 1370.9 0.452956 -4.26904 0
M  V30 14342 C 1370.14 1.41175 -5.1469 0
M  V30 14343 O 1370.36 2.64767 -5.05227 0
M  V30 14344 O 1369.29 0.927472 -5.94711 0
M  V30 14345 H 1373.12 -0.547576 -2.98723 0
M  V30 14346 H 1370.71 -0.333747 -1.45624 0
M  V30 14347 H 1372.59 1.75557 -3.8309 0
M  V30 14348 H 1371.26 1.87213 -2.6407 0
M  V30 14349 H 1370.17 -0.169383 -3.73716 0
M  V30 14350 H 1371.5 -0.203186 -4.9178 0
M  V30 14351 N 1373.15 1.5451 -0.310553 0
M  V30 14352 C 1374.09 2.2134 0.595098 0
M  V30 14353 C 1375.1 1.20917 1.09009 0
M  V30 14354 O 1376.29 1.47458 1.0059 0
M  V30 14355 C 1373.39 2.85384 1.82782 0
M  V30 14356 C 1372.56 4.11826 1.47372 0
M  V30 14357 C 1371.62 4.59584 2.56259 0
M  V30 14358 O 1370.65 5.24567 2.20949 0
M  V30 14359 N 1371.85 4.32709 3.86967 0
M  V30 14360 H 1374.61 2.99691 0.0229291 0
M  V30 14361 H 1372.17 1.61351 -0.133173 0
M  V30 14362 H 1374.17 3.14263 2.54992 0
M  V30 14363 H 1372.74 2.10816 2.30815 0
M  V30 14364 H 1371.96 3.89853 0.583826 0
M  V30 14365 H 1373.24 4.94138 1.21265 0
M  V30 14366 H 1372.64 3.80669 4.18458 0
M  V30 14367 H 1371.2 4.66275 4.55446 0
M  V30 14368 N 1374.63 0.0384594 1.57553 0
M  V30 14369 C 1375.88 -0.639085 1.92467 0
M  V30 14370 C 1376.21 -1.71239 0.916014 0
M  V30 14371 O 1375.49 -1.94408 -0.0598928 0
M  V30 14372 C 1375.77 -1.24693 3.37822 0
M  V30 14373 C 1375.62 -0.182544 4.49429 0
M  V30 14374 C 1376.94 -2.16226 3.8332 0
M  V30 14375 H 1374.06 -0.230852 0.699912 0
M  V30 14376 H 1376.7 0.0976276 1.89749 0
M  V30 14377 H 1374.85 -1.87481 3.40269 0
M  V30 14378 H 1376.53 0.448622 4.59113 0
M  V30 14379 H 1374.77 0.4909 4.31013 0
M  V30 14380 H 1375.44 -0.647626 5.48188 0
M  V30 14381 H 1377.92 -1.63413 3.82669 0
M  V30 14382 H 1376.79 -2.55705 4.85702 0
M  V30 14383 H 1377.05 -3.05722 3.19353 0
M  V30 14384 N 1376.11 -1.55841 -0.234795 0
M  V30 14385 C 1377.06 -1.92165 -1.31055 0
M  V30 14386 C 1378.05 -0.802106 -1.49207 0
M  V30 14387 O 1379.26 -0.986832 -1.50538 0
M  V30 14388 H 1375.63 -0.610487 -0.439101 0
M  V30 14389 H 1377.61 -2.81955 -0.976926 0
M  V30 14390 C 1376.35 -2.24329 -2.65654 0
M  V30 14391 H 1375.68 -3.09982 -2.5249 0
M  V30 14392 H 1377.12 -2.53639 -3.3977 0
M  V30 14393 C 1375.58 -1.0638 -3.19664 0
M  V30 14394 O 1376.11 -0.318047 -4.00439 0
M  V30 14395 N 1374.31 -0.851167 -2.77855 0
M  V30 14396 H 1373.86 -1.45932 -2.12277 0
M  V30 14397 H 1373.82 -0.0636875 -3.14335 0
M  V30 14398 N 1377.59 0.500963 -1.49426 0
M  V30 14399 C 1378.84 1.25261 -1.58601 0
M  V30 14400 C 1379.16 1.93056 -0.274647 0
M  V30 14401 O 1378.43 1.82736 0.706003 0
M  V30 14402 H 1377.01 0.465328 -0.584362 0
M  V30 14403 H 1379.67 0.580588 -1.86052 0
M  V30 14404 H 1378.77 2.01652 -2.38208 0
M  V30 14405 N 1379.07 1.38501 0.752011 0
M  V30 14406 C 1380 1.38577 1.87933 0
M  V30 14407 C 1380.98 0.251454 1.68231 0
M  V30 14408 O 1382.16 0.45477 1.888 0
M  V30 14409 C 1379.29 1.21164 3.25479 0
M  V30 14410 C 1378.25 2.31816 3.59785 0
M  V30 14411 C 1377.57 1.99508 4.96085 0
M  V30 14412 C 1378.87 3.74082 3.645 0
M  V30 14413 H 1380.57 2.32913 1.88127 0
M  V30 14414 H 1378.11 1.12113 0.903698 0
M  V30 14415 H 1380.07 1.19842 4.04 0
M  V30 14416 H 1378.79 0.232899 3.25769 0
M  V30 14417 H 1377.45 2.32327 2.83584 0
M  V30 14418 H 1377.1 1.00114 4.92936 0
M  V30 14419 H 1376.8 2.73617 5.20007 0
M  V30 14420 H 1378.32 1.99807 5.76983 0
M  V30 14421 H 1379.74 3.75593 4.33131 0
M  V30 14422 H 1378.13 4.47409 3.99931 0
M  V30 14423 H 1379.2 4.06284 2.64692 0
M  V30 14424 N 1380.55 -0.980364 1.23396 0
M  V30 14425 C 1381.79 -1.72166 1.06607 0
M  V30 14426 C 1382.12 -1.90405 -0.397029 0
M  V30 14427 O 1381.38 -1.45363 -1.31027 0
M  V30 14428 C 1381.67 -3.12367 1.73671 0
M  V30 14429 C 1381.34 -3.14007 3.2359 0
M  V30 14430 C 1380 -3.14162 3.64494 0
M  V30 14431 C 1382.35 -3.09319 4.19489 0
M  V30 14432 C 1379.68 -3.07345 4.99756 0
M  V30 14433 C 1382.03 -3.04044 5.54743 0
M  V30 14434 C 1380.7 -3.02521 5.9501 0
M  V30 14435 H 1379.97 -0.63 0.390104 0
M  V30 14436 H 1382.62 -1.14727 1.5333 0
M  V30 14437 H 1380.92 -3.73193 1.19308 0
M  V30 14438 H 1382.62 -3.68493 1.58159 0
M  V30 14439 H 1379.21 -3.14644 2.91028 0
M  V30 14440 H 1383.39 -3.08339 3.88897 0
M  V30 14441 H 1378.65 -3.04519 5.30168 0
M  V30 14442 H 1382.82 -2.99374 6.28767 0
M  V30 14443 H 1380.45 -2.96994 6.99785 0
M  V30 14444 O 1382.06 -1.17109 -1.11211 0
M  V30 14445 H 1382.75 -0.906854 -1.7116 0
M  V30 END ATOM
M  V30 BEGIN BOND
M  V30 END BOND
M  V30 END CTAB
M  END
$$$$
