drugbank_target|P11532 Dystrophin (DB15593)
 OpenBabel12092121213D

  0  0  0     0  0            999 V3000
M  V30 BEGIN CTAB
M  V30 COUNTS 60047 60552 0 0 0
M  V30 BEGIN ATOM
M  V30 1 H -0.908 1.98254 -0.117106 0
M  V30 2 N 0 1.576 0 0
M  V30 3 C 0.933 2.03868 1.02534 0
M  V30 4 C 1.911 0.928543 1.3348 0
M  V30 5 O 3.095 1.19667 1.45644 0
M  V30 6 C 0.222 2.43627 2.35294 0
M  V30 7 C -0.732 3.65373 2.2001 0
M  V30 8 S 0.101 5.13292 1.52614 0
M  V30 9 C 1.257 5.56322 2.86805 0
M  V30 10 H 1.49 2.90518 0.631377 0
M  V30 11 H -0.977 1.52953 0.210867 0
M  V30 12 H 0.981 2.67203 3.11629 0
M  V30 13 H -0.358 1.57376 2.7183 0
M  V30 14 H -1.165 3.90944 3.18086 0
M  V30 15 H -1.563 3.418 1.51819 0
M  V30 16 H 0.729 5.58782 3.83104 0
M  V30 17 H 1.672 6.56266 2.65933 0
M  V30 18 H 2.08 4.83886 2.90714 0
M  V30 19 N 1.4781 -0.272755 1.55222 0
M  V30 20 C 2.4081 -1.34136 1.91127 0
M  V30 21 C 3.3891 -1.51513 0.773168 0
M  V30 22 O 4.5741 -1.64552 1.03132 0
M  V30 23 C 1.7041 -2.70083 2.1834 0
M  V30 24 C 0.6581 -2.67437 3.34158 0
M  V30 25 C -0.0159 -4.06938 3.46851 0
M  V30 26 C 1.2841 -2.26686 4.70543 0
M  V30 27 H 2.9781 -1.04333 2.80633 0
M  V30 28 H 0.5241 -0.500454 1.35024 0
M  V30 29 H 2.4771 -3.44952 2.42046 0
M  V30 30 H 1.2011 -3.01469 1.25634 0
M  V30 31 H -0.1399 -1.95026 3.1042 0
M  V30 32 H -0.4919 -4.35547 2.51611 0
M  V30 33 H -0.7919 -4.06062 4.2472 0
M  V30 34 H 0.7321 -4.83545 3.72849 0
M  V30 35 H 2.1461 -2.91277 4.93792 0
M  V30 36 H 0.5431 -2.36971 5.5133 0
M  V30 37 H 1.6131 -1.21818 4.69349 0
M  V30 38 N 2.9562 -1.48159 -0.537278 0
M  V30 39 C 4.2022 -1.57015 -1.29297 0
M  V30 40 C 4.5572 -0.237791 -1.90925 0
M  V30 41 O 3.8502 0.758621 -1.75942 0
M  V30 42 C 4.0442 -2.63956 -2.40961 0
M  V30 43 C 3.8732 -4.07461 -1.90278 0
M  V30 44 C 2.6432 -4.74685 -1.73213 0
M  V30 45 C 4.8412 -4.93858 -1.43556 0
M  V30 46 N 2.8232 -6.02633 -1.17078 0
M  V30 47 C 4.1942 -6.11993 -0.993204 0
M  V30 48 C 6.2492 -4.80141 -1.31792 0
M  V30 49 C 4.9522 -7.17923 -0.444872 0
M  V30 50 C 6.9782 -5.86186 -0.783585 0
M  V30 51 C 6.3402 -7.03524 -0.351261 0
M  V30 52 H 2.4392 -0.629154 -0.464423 0
M  V30 53 H 5.0232 -1.85006 -0.606705 0
M  V30 54 H 3.1942 -2.378 -3.07093 0
M  V30 55 H 4.9262 -2.62539 -3.07986 0
M  V30 56 H 1.6812 -4.30902 -1.9652 0
M  V30 57 H 2.1052 -6.7085 -0.910421 0
M  V30 58 H 6.7472 -3.89772 -1.63823 0
M  V30 59 H 4.4652 -8.08022 -0.11222 0
M  V30 60 H 8.0512 -5.77624 -0.695835 0
M  V30 61 H 6.9312 -7.8418 0.055777 0
M  V30 62 N 4.4343 0.785586 -1.36625 0
M  V30 63 C 5.6803 1.5452 -1.32269 0
M  V30 64 C 6.0353 1.92159 0.0962266 0
M  V30 65 O 5.3283 1.60158 1.05167 0
M  V30 66 C 5.5223 2.83007 -2.1827 0
M  V30 67 C 5.3513 2.57925 -3.68382 0
M  V30 68 C 4.1213 2.52752 -4.37544 0
M  V30 69 C 6.3193 2.26861 -4.61561 0
M  V30 70 N 4.3013 2.19608 -5.73276 0
M  V30 71 C 5.6723 2.03738 -5.85569 0
M  V30 72 C 7.7273 2.129 -4.50087 0
M  V30 73 C 6.4303 1.68065 -6.9939 0
M  V30 74 C 8.4563 1.78626 -5.63779 0
M  V30 75 C 7.8183 1.56353 -6.86828 0
M  V30 76 H 3.9173 0.566301 -0.539283 0
M  V30 77 H 6.5013 0.917736 -1.71714 0
M  V30 78 H 4.6723 3.43614 -1.81063 0
M  V30 79 H 6.4043 3.48775 -2.05275 0
M  V30 80 H 3.1593 2.6813 -3.90389 0
M  V30 81 H 3.5833 2.05771 -6.44971 0
M  V30 82 H 8.2253 2.28808 -3.55537 0
M  V30 83 H 5.9433 1.50895 -7.93887 0
M  V30 84 H 9.5293 1.68502 -5.56865 0
M  V30 85 H 8.4093 1.30223 -7.73312 0
M  V30 86 N 5.9124 1.20967 1.01018 0
M  V30 87 C 6.8224 0.980157 2.13143 0
M  V30 88 C 7.8384 -0.0660665 1.73875 0
M  V30 89 O 9.0144 0.122821 2.01025 0
M  V30 90 C 6.0794 0.54216 3.42435 0
M  V30 91 C 5.1404 1.65999 3.95908 0
M  V30 92 C 4.3734 1.2428 5.19028 0
M  V30 93 O 4.5964 0.114196 5.70286 0
M  V30 94 O 3.5304 2.05271 5.65816 0
M  V30 95 H 7.3564 1.91913 2.35379 0
M  V30 96 H 4.9414 0.994099 1.11526 0
M  V30 97 H 6.8234 0.30744 4.20277 0
M  V30 98 H 5.4984 -0.36815 3.216 0
M  V30 99 H 4.4054 1.94906 3.19316 0
M  V30 100 H 5.7384 2.54753 4.21143 0
M  V30 101 N 7.3905 -1.2043 1.01659 0
M  V30 102 C 8.3005 -2.2689 0.596484 0
M  V30 103 C 9.3165 -1.70107 -0.36599 0
M  V30 104 O 10.4925 -2.00117 -0.226942 0
M  V30 105 C 7.5575 -3.4665 -0.0586659 0
M  V30 106 C 6.6185 -4.18662 0.949751 0
M  V30 107 C 5.8515 -5.32705 0.32577 0
M  V30 108 O 6.0745 -5.63656 -0.874509 0
M  V30 109 O 5.0085 -5.92803 1.04249 0
M  V30 110 H 8.8345 -2.65041 1.4828 0
M  V30 111 H 6.4195 -1.27048 0.786082 0
M  V30 112 H 8.3015 -4.19256 -0.424564 0
M  V30 113 H 6.9765 -3.10375 -0.91918 0
M  V30 114 H 5.8835 -3.48229 1.36702 0
M  V30 115 H 7.2165 -4.58878 1.78023 0
M  V30 116 N 8.8686 -0.792821 -1.36206 0
M  V30 117 C 10.1146 -0.36733 -1.99446 0
M  V30 118 C 10.4476 1.05917 -1.62774 0
M  V30 119 O 9.7226 1.7324 -0.88421 0
M  V30 120 C 10.0056 -0.535044 -3.56103 0
M  V30 121 C 9.8586 -2.00548 -4.02617 0
M  V30 122 C 11.1776 0.0478191 -4.40074 0
M  V30 123 H 8.2966 -0.134941 -0.724541 0
M  V30 124 H 10.9386 -0.999794 -1.61568 0
M  V30 125 H 9.0886 0.00336329 -3.885 0
M  V30 126 H 10.7606 -2.60521 -3.80692 0
M  V30 127 H 9.0036 -2.50686 -3.54032 0
M  V30 128 H 9.6746 -2.07377 -5.11565 0
M  V30 129 H 12.1506 -0.411822 -4.14057 0
M  V30 130 H 11.0266 -0.0995336 -5.4881 0
M  V30 131 H 11.2876 1.14025 -4.27142 0
M  V30 132 N 10.3467 1.47872 -0.545128 0
M  V30 133 C 11.2567 2.33633 0.212746 0
M  V30 134 C 12.2727 1.4744 0.923983 0
M  V30 135 O 13.4487 1.80393 0.895572 0
M  V30 136 C 10.5137 3.23884 1.23693 0
M  V30 137 C 9.5747 4.25961 0.534417 0
M  V30 138 C 8.8077 5.11899 1.5098 0
M  V30 139 O 9.0307 5.00077 2.7437 0
M  V30 140 O 7.9647 5.92831 1.0409 0
M  V30 141 H 11.7907 2.99714 -0.490416 0
M  V30 142 H 9.3757 1.46235 -0.305871 0
M  V30 143 H 11.2577 3.79666 1.82843 0
M  V30 144 H 9.9327 2.60446 1.92222 0
M  V30 145 H 8.8397 3.73972 -0.0979679 0
M  V30 146 H 10.1727 4.92079 -0.109213 0
M  V30 147 N 11.8248 0.280983 1.55075 0
M  V30 148 C 13.1018 -0.386207 1.91749 0
M  V30 149 C 13.4818 -1.73264 1.20594 0
M  V30 150 O 12.8298 -2.26034 0.334784 0
M  V30 151 C 13.0398 -0.520687 3.45094 0
M  V30 152 C 14.3878 -0.800865 4.16979 0
M  V30 153 O 15.4118 -0.605271 3.5102 0
M  V30 154 O 14.2708 -1.1753 5.33712 0
M  V30 155 H 11.3648 -0.212408 0.799257 0
M  V30 156 H 13.9108 0.327568 1.66509 0
M  V30 157 H 12.6828 0.426633 3.88967 0
M  V30 158 H 12.3058 -1.2837 3.76307 0
M  V30 159 N 13.3029 -1.57598 0.00835791 0
M  V30 160 C 14.5429 -1.92788 -0.679136 0
M  V30 161 C 14.9069 -0.883378 -1.70471 0
M  V30 162 O 16.1079 -1.12079 -2.44319 0
M  V30 163 C 14.3789 -3.32994 -1.29807 0
M  V30 164 S 15.9379 -3.90082 -2.00952 0
M  V30 165 H 12.7559 -0.67475 -0.224127 0
M  V30 166 H 15.3579 -1.95385 0.0670497 0
M  V30 167 H 14.0619 -4.06846 -0.538922 0
M  V30 168 H 13.5929 -3.33791 -2.082 0
M  V30 169 H 15.6079 -3.71834 -3.28563 0
M  V30 170 N 14.781 0.264519 -1.55364 0
M  V30 171 C 16.011 1.01153 -1.80143 0
M  V30 172 C 16.419 1.80115 -0.579253 0
M  V30 173 O 15.762 1.77813 0.46132 0
M  V30 174 C 15.824 2.01098 -2.97993 0
M  V30 175 C 15.488 1.40995 -4.34706 0
M  V30 176 C 16.485 0.821316 -5.13372 0
M  V30 177 C 14.17 1.43461 -4.81378 0
M  V30 178 C 16.164 0.265339 -6.36847 0
M  V30 179 C 13.851 0.874771 -6.04807 0
M  V30 180 C 14.849 0.291146 -6.82379 0
M  V30 181 O 14.537 -0.260093 -8.03479 0
M  V30 182 H 14.269 0.304125 -0.603725 0
M  V30 183 H 16.823 0.298089 -2.03225 0
M  V30 184 H 15.053 2.76224 -2.70623 0
M  V30 185 H 16.742 2.61997 -3.1002 0
M  V30 186 H 17.508 0.794903 -4.78442 0
M  V30 187 H 13.387 1.87826 -4.21002 0
M  V30 188 H 16.931 -0.190837 -6.97339 0
M  V30 189 H 12.828 0.898452 -6.39217 0
M  V30 190 H 13.596 -0.150265 -8.18362 0
M  V30 191 N 16.2591 1.48442 0.529413 0
M  V30 192 C 17.1691 1.6569 1.66084 0
M  V30 193 C 18.1851 0.539432 1.65427 0
M  V30 194 O 19.3611 0.810572 1.84368 0
M  V30 195 C 16.4261 1.69315 3.02545 0
M  V30 196 C 15.4871 2.92694 3.14052 0
M  V30 197 C 14.7201 2.96137 4.44003 0
M  V30 198 O 14.9431 2.07973 5.31134 0
M  V30 199 O 13.8771 3.88312 4.59888 0
M  V30 200 H 17.7031 2.61483 1.54469 0
M  V30 201 H 15.2881 1.3185 0.702567 0
M  V30 202 H 17.1701 1.74217 3.83701 0
M  V30 203 H 15.8451 0.766966 3.14483 0
M  V30 204 H 14.7521 2.93324 2.32189 0
M  V30 205 H 16.0851 3.84699 3.0703 0
M  V30 206 N 17.7372 -0.778329 1.37039 0
M  V30 207 C 19.1532 -1.07796 1.17695 0
M  V30 208 C 19.3532 -2.01498 0.00860115 0
M  V30 209 O 18.4092 -2.43901 -0.653352 0
M  V30 210 C 19.7222 -1.68178 2.49272 0
M  V30 211 C 21.2702 -1.80467 2.55735 0
M  V30 212 C 21.7452 -2.44263 3.87427 0
M  V30 213 N 23.2362 -2.51721 3.88833 0
M  V30 214 C 23.9712 -3.01919 4.87476 0
M  V30 215 N 23.4672 -3.5234 5.96513 0
M  V30 216 N 25.2602 -3.00733 4.74885 0
M  V30 217 H 17.4112 -0.156032 2.11826 0
M  V30 218 H 19.6742 -0.131844 0.938787 0
M  V30 219 H 19.3802 -1.06796 3.35093 0
M  V30 220 H 19.2542 -2.67554 2.65885 0
M  V30 221 H 21.6412 -2.40984 1.70325 0
M  V30 222 H 21.7222 -0.798656 2.43013 0
M  V30 223 H 21.3662 -1.84388 4.73248 0
M  V30 224 H 21.2962 -3.45458 3.9745 0
M  V30 225 H 23.7872 -2.1603 3.10063 0
M  V30 226 H 24.1002 -3.89027 6.67741 0
M  V30 227 H 22.4452 -3.50462 6.00168 0
M  V30 228 H 25.6362 -2.60638 3.88826 0
M  V30 229 H 25.8092 -3.39545 5.51918 0
M  V30 230 N 19.2153 -1.21501 -1.00376 0
M  V30 231 C 20.1253 -0.991447 -2.12621 0
M  V30 232 C 21.1413 0.0568446 -1.73907 0
M  V30 233 O 22.3173 -0.13348 -2.00957 0
M  V30 234 C 19.3823 -0.560312 -3.42142 0
M  V30 235 C 18.4433 -1.68096 -3.95022 0
M  V30 236 C 17.6763 -1.2703 -5.18362 0
M  V30 237 O 17.8993 -0.144438 -5.70217 0
M  V30 238 O 16.8333 -2.08269 -5.64719 0
M  V30 239 H 20.6593 -1.93158 -2.34358 0
M  V30 240 H 18.2443 -0.999999 -1.10997 0
M  V30 241 H 20.1263 -0.329724 -4.20108 0
M  V30 242 H 18.8013 0.351089 -3.2179 0
M  V30 243 H 17.7083 -1.96597 -3.18278 0
M  V30 244 H 19.0413 -2.56983 -4.19786 0
M  V30 245 N 20.6934 1.19889 -1.02296 0
M  V30 246 C 21.9704 1.85148 -0.630832 0
M  V30 247 C 22.3504 1.91385 0.890782 0
M  V30 248 O 21.6984 1.42642 1.78509 0
M  V30 249 C 21.9084 3.24442 -1.28602 0
M  V30 250 C 23.2564 4.00663 -1.4055 0
M  V30 251 O 24.2804 3.33818 -1.24273 0
M  V30 252 O 23.1394 5.20387 -1.66913 0
M  V30 253 H 20.2334 0.797613 -0.218499 0
M  V30 254 H 22.7794 1.27427 -1.12074 0
M  V30 255 H 21.5514 3.14704 -2.32545 0
M  V30 256 H 21.1744 3.89802 -0.7836 0
M  V30 257 N 22.1715 0.800033 1.35784 0
M  V30 258 C 23.4175 0.377901 1.99248 0
M  V30 259 C 23.7505 -1.05052 1.63333 0
M  V30 260 O 23.0255 -1.72768 0.893385 0
M  V30 261 C 23.3085 0.553922 3.55814 0
M  V30 262 C 23.1615 2.0268 4.01548 0
M  V30 263 C 24.4805 -0.0244802 4.40093 0
M  V30 264 H 21.5995 0.138782 0.723815 0
M  V30 265 H 24.2415 1.00835 1.61035 0
M  V30 266 H 22.3915 0.0172398 3.88496 0
M  V30 267 H 24.0635 2.62536 3.79305 0
M  V30 268 H 22.3065 2.5256 3.52698 0
M  V30 269 H 22.9775 2.10087 5.10458 0
M  V30 270 H 25.4535 0.433775 4.13833 0
M  V30 271 H 24.3295 0.128637 5.48749 0
M  V30 272 H 24.5905 -1.11758 4.27741 0
M  V30 273 N 23.6496 -1.47581 0.552962 0
M  V30 274 C 24.5816 -2.27997 -0.234533 0
M  V30 275 C 25.5946 -1.36753 -0.883321 0
M  V30 276 O 26.7836 -1.61612 -0.757889 0
M  V30 277 C 23.8836 -3.10879 -1.34935 0
M  V30 278 C 23.0566 -4.30056 -0.798158 0
M  V30 279 C 22.1156 -4.94567 -1.79694 0
M  V30 280 O 21.1416 -5.53087 -1.34474 0
M  V30 281 N 22.3436 -4.88878 -3.13015 0
M  V30 282 H 25.1086 -2.96222 0.455255 0
M  V30 283 H 22.6696 -1.57163 0.388761 0
M  V30 284 H 24.6616 -3.50903 -2.01616 0
M  V30 285 H 23.2316 -2.44924 -1.94244 0
M  V30 286 H 22.4516 -3.94174 0.0453079 0
M  V30 287 H 23.7396 -5.07152 -0.409173 0
M  V30 288 H 23.1376 -4.42526 -3.52402 0
M  V30 289 H 21.6946 -5.32934 -3.75266 0
M  V30 290 N 25.1277 -0.289203 -1.54924 0
M  V30 291 C 26.0747 0.592115 -2.23075 0
M  V30 292 C 27.0447 1.13881 -1.20915 0
M  V30 293 O 28.2297 1.18551 -1.495 0
M  V30 294 C 25.3697 1.76376 -2.96623 0
M  V30 295 C 24.4827 1.24959 -4.13533 0
M  V30 296 C 23.6177 2.38416 -4.74691 0
M  V30 297 C 22.6567 1.84072 -5.83767 0
M  V30 298 N 21.7937 2.91057 -6.38929 0
M  V30 299 H 26.6337 0.00432038 -2.98 0
M  V30 300 H 24.1707 -0.00963529 -1.47097 0
M  V30 301 H 26.1287 2.45268 -3.3749 0
M  V30 302 H 24.7587 2.32337 -2.24097 0
M  V30 303 H 23.8107 0.453307 -3.77689 0
M  V30 304 H 25.1227 0.811662 -4.92152 0
M  V30 305 H 24.2767 3.15276 -5.18349 0
M  V30 306 H 23.0157 2.8553 -3.95378 0
M  V30 307 H 22.0207 1.05697 -5.39545 0
M  V30 308 H 23.2457 1.37877 -6.64956 0
M  V30 309 H 21.1917 3.37526 -5.62505 0
M  V30 310 H 21.1087 2.51724 -7.12861 0
M  V30 311 H 22.3767 3.6785 -6.87246 0
M  V30 312 N 26.6058 1.57591 -0.0167156 0
M  V30 313 C 27.5528 2.09462 0.969251 0
M  V30 314 C 28.5228 0.99381 1.33089 0
M  V30 315 O 29.7078 1.26726 1.42636 0
M  V30 316 C 26.8478 2.61622 2.25051 0
M  V30 317 C 25.9608 3.85666 1.94642 0
M  V30 318 C 25.0958 4.26266 3.16972 0
M  V30 319 C 24.1348 5.43101 2.82326 0
M  V30 320 N 23.2718 5.78915 3.97243 0
M  V30 321 H 28.1118 2.93428 0.519997 0
M  V30 322 H 25.6488 1.45044 0.245087 0
M  V30 323 H 27.6068 2.89949 2.99976 0
M  V30 324 H 26.2368 1.80505 2.67615 0
M  V30 325 H 25.2888 3.64145 1.10013 0
M  V30 326 H 26.6008 4.70678 1.65117 0
M  V30 327 H 25.7548 4.55963 4.00228 0
M  V30 328 H 24.4938 3.39996 3.49648 0
M  V30 329 H 23.4988 5.1311 1.97479 0
M  V30 330 H 24.7238 6.3106 2.50879 0
M  V30 331 H 22.6698 4.95602 4.29785 0
M  V30 332 H 22.5868 6.58539 3.71299 0
M  V30 333 H 23.8548 6.13212 4.81239 0
M  V30 334 N 28.0839 -0.256276 1.55502 0
M  V30 335 C 29.3119 -1.00342 1.8094 0
M  V30 336 C 29.7269 -1.79307 0.59114 0
M  V30 337 O 29.0839 -1.77114 -0.440081 0
M  V30 338 C 29.1349 -1.94875 3.04476 0
M  V30 339 O 28.8559 -1.19107 4.21598 0
M  V30 340 C 30.3569 -2.81266 3.42644 0
M  V30 341 H 27.5769 -0.295685 0.602338 0
M  V30 342 H 30.1209 -0.281998 2.02546 0
M  V30 343 H 28.2759 -2.62457 2.84947 0
M  V30 344 H 28.6899 -1.82969 4.91551 0
M  V30 345 H 30.1639 -3.43362 4.32211 0
M  V30 346 H 30.6409 -3.51897 2.62802 0
M  V30 347 H 31.2469 -2.1915 3.64491 0
M  V30 348 N 29.562 -1.4872 -0.521534 0
M  V30 349 C 30.809 -1.57168 -1.27689 0
M  V30 350 C 31.137 -0.249275 -1.92896 0
M  V30 351 O 30.392 0.761162 -1.80291 0
M  V30 352 C 30.691 -2.66497 -2.38148 0
M  V30 353 C 30.357 -4.08664 -1.90538 0
M  V30 354 C 29.019 -4.47357 -1.77271 0
M  V30 355 C 31.371 -4.97724 -1.54663 0
M  V30 356 C 28.699 -5.72905 -1.26478 0
M  V30 357 C 31.051 -6.2377 -1.05329 0
M  V30 358 C 29.715 -6.61311 -0.906861 0
M  V30 359 H 28.985 -0.575117 -0.467249 0
M  V30 360 H 31.632 -1.82472 -0.581051 0
M  V30 361 H 29.937 -2.35085 -3.13437 0
M  V30 362 H 31.634 -2.70246 -2.96257 0
M  V30 363 H 28.224 -3.78111 -2.01816 0
M  V30 364 H 32.408 -4.68501 -1.63768 0
M  V30 365 H 27.664 -6.00709 -1.13835 0
M  V30 366 H 31.838 -6.9217 -0.76644 0
M  V30 367 H 29.465 -7.5848 -0.511083 0
M  V30 368 N 31.0401 0.771051 -1.3745 0
M  V30 369 C 32.2681 1.56015 -1.35893 0
M  V30 370 C 32.6831 1.88718 0.0555523 0
M  V30 371 O 32.0401 1.51502 1.01752 0
M  V30 372 C 32.0911 2.87001 -2.19801 0
M  V30 373 O 31.8121 2.557 -3.55738 0
M  V30 374 C 33.3131 3.81228 -2.26231 0
M  V30 375 H 30.5331 0.483317 -0.465453 0
M  V30 376 H 33.0771 0.955611 -1.80799 0
M  V30 377 H 31.2321 3.43877 -1.78402 0
M  V30 378 H 31.6461 3.39584 -3.99729 0
M  V30 379 H 33.1201 4.70139 -2.89263 0
M  V30 380 H 33.5971 4.20409 -1.27093 0
M  V30 381 H 34.2031 3.30281 -2.67945 0
M  V30 382 N 32.5182 1.22032 0.997298 0
M  V30 383 C 33.4652 0.986467 2.08656 0
M  V30 384 C 34.4352 -0.0902671 1.65855 0
M  V30 385 O 35.6202 0.0584294 1.90711 0
M  V30 386 C 32.7602 0.565569 3.40434 0
M  V30 387 C 31.8732 1.71259 3.96604 0
M  V30 388 C 31.0082 1.24011 5.16522 0
M  V30 389 C 30.0472 2.35896 5.64818 0
M  V30 390 N 29.1842 1.89726 6.7598 0
M  V30 391 H 34.0242 1.91892 2.27994 0
M  V30 392 H 31.5612 0.956199 1.11782 0
M  V30 393 H 33.5192 0.302738 4.161 0
M  V30 394 H 32.1492 -0.329879 3.2111 0
M  V30 395 H 31.2012 2.08986 3.17851 0
M  V30 396 H 32.5132 2.55436 4.28432 0
M  V30 397 H 31.6672 0.934395 5.99461 0
M  V30 398 H 30.4062 0.368487 4.86306 0
M  V30 399 H 29.4112 2.67261 4.8047 0
M  V30 400 H 30.6362 3.23567 5.97061 0
M  V30 401 H 28.5822 1.0492 6.47555 0
M  V30 402 H 28.4992 2.67471 7.07103 0
M  V30 403 H 29.7672 1.62211 7.62435 0
M  V30 404 N 33.9963 -1.19345 1.0293 0
M  V30 405 C 35.2423 -1.89585 0.736824 0
M  V30 406 C 35.5973 -1.78148 -0.726703 0
M  V30 407 O 34.8903 -1.16332 -1.52242 0
M  V30 408 C 35.0843 -3.39292 1.12319 0
M  V30 409 C 34.9133 -3.65298 2.62273 0
M  V30 410 C 33.6833 -3.83304 3.29251 0
M  V30 411 C 35.8813 -3.6682 3.60482 0
M  V30 412 N 33.8633 -3.96944 4.68304 0
M  V30 413 C 35.2343 -3.86037 4.85155 0
M  V30 414 C 37.2893 -3.49848 3.54275 0
M  V30 415 C 35.9923 -3.9004 6.04369 0
M  V30 416 C 38.0183 -3.55129 4.72903 0
M  V30 417 C 37.3803 -3.74831 5.9639 0
M  V30 418 H 33.4793 -0.712856 0.321497 0
M  V30 419 H 36.0633 -1.43427 1.31669 0
M  V30 420 H 34.2343 -3.84172 0.571524 0
M  V30 421 H 35.9663 -3.97055 0.78292 0
M  V30 422 H 32.7213 -3.82211 2.79663 0
M  V30 423 H 33.1453 -4.07613 5.40538 0
M  V30 424 H 37.7873 -3.33572 2.59788 0
M  V30 425 H 35.5053 -4.05108 6.99223 0
M  V30 426 H 39.0913 -3.43287 4.69729 0
M  V30 427 H 37.9713 -3.78792 6.86649 0
M  V30 428 N 35.4744 -0.807222 -1.35358 0
M  V30 429 C 36.7204 -0.388463 -1.99045 0
M  V30 430 C 37.0534 1.04184 -1.63888 0
M  V30 431 O 36.3284 1.72292 -0.902535 0
M  V30 432 C 36.6114 -0.572783 -3.55515 0
M  V30 433 C 36.4644 -2.04807 -4.00468 0
M  V30 434 C 37.7834 0.00114064 -4.401 0
M  V30 435 H 34.9024 -0.142619 -0.723069 0
M  V30 436 H 37.5444 -1.01687 -1.60498 0
M  V30 437 H 35.6944 -0.0378425 -3.88482 0
M  V30 438 H 37.3664 -2.64544 -3.77908 0
M  V30 439 H 35.6094 -2.54427 -3.51353 0
M  V30 440 H 36.2804 -2.12792 -5.09337 0
M  V30 441 H 38.7564 -0.455716 -4.13597 0
M  V30 442 H 37.6324 -0.157737 -5.48673 0
M  V30 443 H 37.8934 1.09488 -4.28328 0
M  V30 444 N 36.9525 1.47285 -0.560781 0
M  V30 445 C 37.9005 2.31756 0.197942 0
M  V30 446 C 38.8945 1.43146 0.905854 0
M  V30 447 O 40.1005 1.59891 0.826733 0
M  V30 448 H 36.4755 0.747438 0.0827049 0
M  V30 449 H 38.4465 2.9359 -0.533629 0
M  V30 450 C 37.1955 3.25874 1.21249 0
M  V30 451 H 36.5185 3.94023 0.67719 0
M  V30 452 H 37.9585 3.87803 1.71419 0
M  V30 453 C 36.4175 2.49651 2.26221 0
M  V30 454 O 36.9475 2.24355 3.33208 0
M  V30 455 N 35.1535 2.10597 2.00243 0
M  V30 456 H 34.7005 2.31369 1.13252 0
M  V30 457 H 34.6585 1.59913 2.70694 0
M  V30 458 N 38.4306 0.297415 1.54768 0
M  V30 459 C 39.3936 -0.567375 2.22066 0
M  V30 460 C 40.3936 -1.06409 1.20556 0
M  V30 461 O 41.5836 -0.960691 1.45315 0
M  V30 462 C 38.7156 -1.78517 2.90421 0
M  V30 463 H 39.9086 0.0205534 2.99893 0
M  V30 464 H 37.4616 0.0482163 1.56226 0
M  V30 465 H 38.1966 -2.41303 2.16664 0
M  V30 466 H 37.9816 -1.43669 3.64831 0
M  V30 467 H 39.4716 -2.39964 3.41771 0
M  V30 468 N 39.9087 -1.5758 0.0250728 0
M  V30 469 C 40.8407 -2.06869 -0.986796 0
M  V30 470 C 41.8537 -0.991332 -1.29137 0
M  V30 471 O 43.0427 -1.26761 -1.25674 0
M  V30 472 C 40.1427 -2.47486 -2.31525 0
M  V30 473 C 39.3157 -3.78253 -2.19643 0
M  V30 474 C 38.3747 -4.05464 -3.35388 0
M  V30 475 O 37.4007 -4.75774 -3.12454 0
M  V30 476 N 38.6027 -3.55321 -4.59051 0
M  V30 477 H 41.3677 -2.94302 -0.566276 0
M  V30 478 H 38.9287 -1.6109 -0.161776 0
M  V30 479 H 40.9207 -2.62785 -3.07776 0
M  V30 480 H 39.4907 -1.65441 -2.65232 0
M  V30 481 H 38.7107 -3.7279 -1.28144 0
M  V30 482 H 39.9987 -4.63936 -2.08903 0
M  V30 483 H 39.3967 -2.98431 -4.80578 0
M  V30 484 H 37.9537 -3.75905 -5.32483 0
M  V30 485 N 41.3868 0.248026 -1.55636 0
M  V30 486 C 42.6338 0.976224 -1.77415 0
M  V30 487 C 42.9618 1.85361 -0.589193 0
M  V30 488 O 42.2168 1.90973 0.427529 0
M  V30 489 C 42.5158 1.86819 -3.04686 0
M  V30 490 C 42.1818 1.14625 -4.36087 0
M  V30 491 C 40.8438 0.946723 -4.71795 0
M  V30 492 C 43.1958 0.634463 -5.17324 0
M  V30 493 C 40.5238 0.223091 -5.86276 0
M  V30 494 C 42.8758 -0.0756959 -6.32555 0
M  V30 495 C 41.5398 -0.286711 -6.66884 0
M  V30 496 H 40.8098 0.357226 -0.649208 0
M  V30 497 H 43.4568 0.246415 -1.89908 0
M  V30 498 H 41.7618 2.66502 -2.872 0
M  V30 499 H 43.4588 2.43329 -3.18735 0
M  V30 500 H 40.0488 1.3117 -4.08035 0
M  V30 501 H 44.2328 0.77616 -4.90193 0
M  V30 502 H 39.4888 0.0491185 -6.1138 0
M  V30 503 H 43.6628 -0.479899 -6.94745 0
M  V30 504 H 41.2898 -0.849389 -7.5544 0
M  V30 505 N 42.8649 1.48995 0.513639 0
M  V30 506 C 44.0899 1.61792 1.29762 0
M  V30 507 C 44.5149 0.284475 1.85936 0
M  V30 508 O 43.8729 -0.746185 1.65232 0
M  V30 509 C 43.9209 2.67993 2.41272 0
M  V30 510 O 43.0249 2.26287 3.44772 0
M  V30 511 H 42.3659 0.541963 0.38363 0
M  V30 512 H 44.8959 1.95097 0.616307 0
M  V30 513 H 44.9059 2.89772 2.87221 0
M  V30 514 H 43.5809 3.64791 1.9975 0
M  V30 515 H 42.1579 2.14788 3.04829 0
M  V30 516 N 44.343 -0.763751 1.37857 0
M  V30 517 C 45.29 -1.87726 1.34267 0
M  V30 518 C 46.26 -1.64807 0.206879 0
M  V30 519 O 47.445 -1.86613 0.397508 0
M  V30 520 C 44.585 -3.24896 1.16346 0
M  V30 521 C 43.698 -3.59716 2.39225 0
M  V30 522 C 42.833 -4.86137 2.14114 0
M  V30 523 C 41.872 -5.13711 3.32817 0
M  V30 524 N 41.009 -6.31323 3.07206 0
M  V30 525 H 45.849 -1.90129 2.29466 0
M  V30 526 H 43.386 -0.929433 1.14017 0
M  V30 527 H 45.344 -4.04036 1.03975 0
M  V30 528 H 43.974 -3.21847 0.247909 0
M  V30 529 H 43.026 -2.75498 2.62307 0
M  V30 530 H 44.338 -3.76027 3.27728 0
M  V30 531 H 43.492 -5.73198 1.9882 0
M  V30 532 H 42.231 -4.71945 1.22961 0
M  V30 533 H 41.236 -4.25123 3.48641 0
M  V30 534 H 42.461 -5.29807 4.24832 0
M  V30 535 H 40.407 -6.18474 2.1869 0
M  V30 536 H 40.324 -6.48087 3.89254 0
M  V30 537 H 41.592 -7.213 2.95546 0
M  V30 538 N 45.8211 -1.22559 -0.990812 0
M  V30 539 C 47.0681 -1.05141 -1.73065 0
M  V30 540 C 47.3961 0.413191 -1.9006 0
M  V30 541 O 46.6511 1.32257 -1.44245 0
M  V30 542 C 46.9501 -1.71011 -3.13831 0
M  V30 543 C 46.6161 -3.20911 -3.16745 0
M  V30 544 C 45.2781 -3.61812 -3.17247 0
M  V30 545 C 47.6301 -4.16846 -3.12872 0
M  V30 546 C 44.9581 -4.97127 -3.1158 0
M  V30 547 C 47.3101 -5.5214 -3.08746 0
M  V30 548 C 45.9741 -5.92419 -3.07565 0
M  V30 549 H 45.2441 -0.384738 -0.633291 0
M  V30 550 H 47.8911 -1.5235 -1.16025 0
M  V30 551 H 46.1961 -1.16133 -3.74193 0
M  V30 552 H 47.8931 -1.55023 -3.69823 0
M  V30 553 H 44.4831 -2.88344 -3.17105 0
M  V30 554 H 48.6671 -3.86263 -3.11632 0
M  V30 555 H 43.9231 -5.27562 -3.09012 0
M  V30 556 H 48.0971 -6.26201 -3.04705 0
M  V30 557 H 45.7241 -6.97236 -3.02929 0
M  V30 558 N 47.2992 1.18797 -1.03562 0
M  V30 559 C 48.5472 1.88278 -0.734569 0
M  V30 560 C 48.8682 1.8043 0.739586 0
M  V30 561 O 48.1382 1.21925 1.53333 0
M  V30 562 H 46.7182 0.696991 -0.268725 0
M  V30 563 H 49.3802 1.44192 -1.31129 0
M  V30 564 H 48.4762 2.94443 -1.03489 0
M  V30 565 N 48.7773 0.814389 1.34928 0
M  V30 566 C 49.7243 0.22822 2.29669 0
M  V30 567 C 50.6943 -0.642164 1.53184 0
M  V30 568 O 51.8793 -0.585605 1.81591 0
M  V30 569 C 49.0193 -0.61089 3.3965 0
M  V30 570 C 48.1323 0.280792 4.31086 0
M  V30 571 C 47.2673 -0.567067 5.28165 0
M  V30 572 C 46.3063 0.324531 6.11239 0
M  V30 573 N 45.4433 -0.483756 7.00431 0
M  V30 574 H 50.2833 1.04153 2.79206 0
M  V30 575 H 47.8203 0.525133 1.37407 0
M  V30 576 H 49.7783 -1.11263 4.0209 0
M  V30 577 H 48.4083 -1.38939 2.91369 0
M  V30 578 H 47.4603 0.900688 3.69583 0
M  V30 579 H 48.7723 0.966723 4.89342 0
M  V30 580 H 47.9263 -1.13363 5.96015 0
M  V30 581 H 46.6653 -1.28654 4.70425 0
M  V30 582 H 45.6703 0.903298 5.42329 0
M  V30 583 H 46.8953 1.04198 6.71059 0
M  V30 584 H 44.8413 -1.18706 6.45171 0
M  V30 585 H 44.7583 0.143965 7.55863 0
M  V30 586 H 46.0263 -1.03334 7.7262 0
M  V30 587 N 50.2554 -1.46986 0.568584 0
M  V30 588 C 51.1874 -2.28233 -0.210337 0
M  V30 589 C 52.2004 -1.37682 -0.868767 0
M  V30 590 O 53.3894 -1.62406 -0.740705 0
M  V30 591 C 50.4894 -3.12293 -1.3163 0
M  V30 592 C 49.6624 -4.30878 -0.7525 0
M  V30 593 C 48.7214 -4.96445 -1.74439 0
M  V30 594 O 47.7474 -5.54482 -1.286 0
M  V30 595 N 48.9494 -4.92171 -3.07812 0
M  V30 596 H 51.7144 -2.95723 0.486648 0
M  V30 597 H 49.2754 -1.56742 0.405409 0
M  V30 598 H 51.2674 -3.53022 -1.97883 0
M  V30 599 H 49.8374 -2.46971 -1.91636 0
M  V30 600 H 49.0574 -3.94104 0.0871128 0
M  V30 601 H 50.3454 -5.07558 -0.35536 0
M  V30 602 H 49.7434 -4.46239 -3.47688 0
M  V30 603 H 48.3004 -5.36884 -3.69592 0
M  V30 604 N 51.7335 -0.305618 -1.54608 0
M  V30 605 C 52.6835 0.583595 -2.20405 0
M  V30 606 C 53.6675 1.09539 -1.17856 0
M  V30 607 O 54.8595 1.0354 -1.43557 0
M  V30 608 C 51.9885 1.75277 -2.95183 0
M  V30 609 C 51.0745 1.25672 -4.05052 0
M  V30 610 N 51.4655 0.478998 -5.03527 0
M  V30 611 C 49.7635 1.53704 -4.18678 0
M  V30 612 C 50.4645 0.214269 -5.81305 0
M  V30 613 N 49.4405 0.795374 -5.3775 0
M  V30 614 H 53.2425 -0.0180946 -2.93894 0
M  V30 615 H 50.7565 -0.110601 -1.62023 0
M  V30 616 H 52.7535 2.4014 -3.40791 0
M  V30 617 H 51.4135 2.35812 -2.23211 0
M  V30 618 H 52.4245 0.123473 -5.17753 0
M  V30 619 H 49.1015 2.14954 -3.57912 0
M  V30 620 H 50.4915 -0.410656 -6.70644 0
M  V30 621 N 53.2116 1.57565 -0.0334293 0
M  V30 622 C 54.4606 1.91155 0.643639 0
M  V30 623 C 54.7736 0.91192 1.73042 0
M  V30 624 O 55.9796 1.13923 2.46442 0
M  V30 625 C 54.4356 3.39443 1.1961 0
M  V30 626 C 54.0436 4.47774 0.142381 0
M  V30 627 C 55.7876 3.82094 1.84944 0
M  V30 628 C 53.6946 5.87162 0.706727 0
M  V30 629 H 52.6246 0.713368 0.244176 0
M  V30 630 H 55.2756 1.8323 -0.0994323 0
M  V30 631 H 53.6576 3.42313 1.99092 0
M  V30 632 H 54.8316 4.56469 -0.630296 0
M  V30 633 H 53.1466 4.14352 -0.412446 0
M  V30 634 H 55.7436 4.83591 2.2813 0
M  V30 635 H 56.0866 3.17386 2.69392 0
M  V30 636 H 56.6196 3.81665 1.12145 0
M  V30 637 H 53.3586 6.55424 -0.0997178 0
M  V30 638 H 52.8786 5.82064 1.44779 0
M  V30 639 H 54.5576 6.35866 1.19514 0
M  V30 640 N 54.6897 -0.239769 1.55765 0
M  V30 641 C 55.5997 -1.31831 1.94056 0
M  V30 642 C 56.6157 -1.52275 0.841925 0
M  V30 643 O 57.7917 -1.65759 1.14394 0
M  V30 644 C 54.8567 -2.65156 2.23368 0
M  V30 645 C 53.9177 -2.53173 3.46701 0
M  V30 646 C 53.1507 -3.8014 3.74606 0
M  V30 647 O 53.3737 -4.82343 3.04469 0
M  V30 648 O 52.3077 -3.78344 4.68123 0
M  V30 649 H 56.1337 -1.02347 2.85935 0
M  V30 650 H 53.7187 -0.441123 1.42739 0
M  V30 651 H 55.6007 -3.43929 2.43497 0
M  V30 652 H 54.2757 -2.94358 1.34666 0
M  V30 653 H 53.1827 -1.72662 3.31871 0
M  V30 654 H 54.5157 -2.28915 4.35728 0
M  V30 655 N 56.1678 -1.49265 -0.50573 0
M  V30 656 C 57.1158 -1.66065 -1.62866 0
M  V30 657 C 58.1098 -0.526636 -1.61006 0
M  V30 658 O 59.3158 -0.706126 -1.65571 0
M  V30 659 H 55.6908 -0.52356 -0.539805 0
M  V30 660 H 57.6618 -2.60329 -1.45848 0
M  V30 661 C 56.4108 -1.74008 -3.01026 0
M  V30 662 H 55.7338 -2.6064 -3.03161 0
M  V30 663 H 57.1738 -1.89798 -3.79147 0
M  V30 664 C 55.6328 -0.483868 -3.33407 0
M  V30 665 O 56.1628 0.392548 -3.99777 0
M  V30 666 N 54.3688 -0.348236 -2.88506 0
M  V30 667 H 53.9158 -1.06242 -2.34671 0
M  V30 668 H 53.8738 0.491204 -3.10539 0
M  V30 669 N 57.6459 0.756429 -1.3826 0
M  V30 670 C 58.5759 1.88374 -1.37976 0
M  V30 671 C 59.5569 1.68311 -0.246082 0
M  V30 672 O 60.7419 1.88944 -0.44874 0
M  V30 673 C 57.8719 3.25864 -1.20125 0
M  V30 674 C 56.8259 3.60523 -2.30666 0
M  V30 675 C 56.1519 4.9672 -1.97923 0
M  V30 676 C 57.4519 3.65692 -3.72916 0
M  V30 677 H 59.1459 1.88869 -2.32312 0
M  V30 678 H 56.6919 0.907272 -1.11824 0
M  V30 679 H 58.6449 4.0438 -1.18552 0
M  V30 680 H 57.3689 3.25841 -0.222498 0
M  V30 681 H 56.0279 2.84324 -2.3142 0
M  V30 682 H 55.6759 4.93253 -0.985393 0
M  V30 683 H 55.3759 5.20878 -2.71955 0
M  V30 684 H 56.8999 5.77618 -1.97964 0
M  V30 685 H 58.3139 4.34328 -3.74208 0
M  V30 686 H 56.7109 4.01358 -4.4613 0
M  V30 687 H 57.7809 2.65987 -4.05436 0
M  V30 688 N 59.124 1.23083 0.984299 0
M  V30 689 C 60.371 1.06057 1.72505 0
M  V30 690 C 60.699 -0.403105 1.90277 0
M  V30 691 O 59.954 -1.3149 1.44944 0
M  V30 692 C 60.253 1.72673 3.1292 0
M  V30 693 C 59.919 3.22586 3.15038 0
M  V30 694 C 58.581 3.63489 3.15324 0
M  V30 695 C 60.933 4.185 3.10657 0
M  V30 696 C 58.261 4.98772 3.08939 0
M  V30 697 C 60.613 5.53769 3.05814 0
M  V30 698 C 59.277 5.94041 3.04419 0
M  V30 699 H 58.547 0.388091 0.631242 0
M  V30 700 H 61.194 1.52963 1.15215 0
M  V30 701 H 59.499 1.18116 3.73572 0
M  V30 702 H 61.196 1.56982 3.68996 0
M  V30 703 H 57.786 2.90022 3.15571 0
M  V30 704 H 61.97 3.87911 3.09579 0
M  V30 705 H 57.226 5.29193 3.0621 0
M  V30 706 H 61.4 6.27808 3.0138 0
M  V30 707 H 59.027 6.98833 2.99227 0
M  V30 708 N 60.6021 -1.18246 1.0419 0
M  V30 709 C 61.8271 -1.92736 0.765996 0
M  V30 710 C 62.2521 -1.75728 -0.67091 0
M  V30 711 O 61.6101 -1.06825 -1.46486 0
M  V30 712 C 61.6581 -3.42148 1.13875 0
M  V30 713 O 60.7621 -4.11548 0.264954 0
M  V30 714 H 60.1031 -0.601238 0.281797 0
M  V30 715 H 62.6331 -1.49942 1.39207 0
M  V30 716 H 62.6431 -3.92858 1.1012 0
M  V30 717 H 61.3181 -3.53848 2.18551 0
M  V30 718 H 59.8951 -3.71137 0.362226 0
M  V30 719 N 62.0802 -0.821533 -1.34494 0
M  V30 720 C 63.3572 -0.33159 -1.92769 0
M  V30 721 C 63.7372 1.18088 -1.74981 0
M  V30 722 O 63.0852 1.98733 -1.12772 0
M  V30 723 C 63.2952 -0.759398 -3.40638 0
M  V30 724 C 64.6432 -0.757433 -4.1779 0
M  V30 725 O 65.6672 -0.70189 -3.49216 0
M  V30 726 O 64.5262 -0.829361 -5.4017 0
M  V30 727 H 61.6202 -0.0902502 -0.822061 0
M  V30 728 H 64.1662 -0.906231 -1.43477 0
M  V30 729 H 62.9382 -1.8012 -3.47379 0
M  V30 730 H 62.5612 -0.160378 -3.97276 0
M  V30 731 N 63.5583 1.46682 -0.576371 0
M  V30 732 C 64.4883 2.33028 0.148397 0
M  V30 733 C 65.4693 1.44961 0.889956 0
M  V30 734 O 66.6543 1.73789 0.866662 0
M  V30 735 C 63.7843 3.27117 1.1667 0
M  V30 736 C 62.7383 4.24575 0.540386 0
M  V30 737 C 62.0643 5.08126 1.6647 0
M  V30 738 C 63.3643 5.19722 -0.518331 0
M  V30 739 H 65.0583 2.93875 -0.572509 0
M  V30 740 H 62.6043 1.41315 -0.276768 0
M  V30 741 H 64.5573 3.86374 1.68204 0
M  V30 742 H 63.2813 2.64364 1.9178 0
M  V30 743 H 61.9403 3.66571 0.0461769 0
M  V30 744 H 61.5883 4.41762 2.40531 0
M  V30 745 H 61.2883 5.74122 1.25131 0
M  V30 746 H 62.8123 5.70246 2.18293 0
M  V30 747 H 64.2263 5.73232 -0.0883058 0
M  V30 748 H 62.6233 5.94026 -0.851679 0
M  V30 749 H 63.6933 4.64037 -1.40703 0
M  V30 750 N 65.0364 0.313813 1.54444 0
M  V30 751 C 65.9684 -0.590425 2.21465 0
M  V30 752 C 66.9814 -1.08753 1.21147 0
M  V30 753 O 68.1704 -1.00278 1.4767 0
M  V30 754 C 65.2704 -1.82179 2.85769 0
M  V30 755 C 64.4434 -1.46502 4.12136 0
M  V30 756 C 63.5024 -2.55288 4.60124 0
M  V30 757 O 62.5284 -2.19842 5.25032 0
M  V30 758 N 63.7304 -3.86053 4.33525 0
M  V30 759 H 66.4954 -0.0166033 2.99695 0
M  V30 760 H 64.0564 0.136578 1.61323 0
M  V30 761 H 66.0484 -2.54328 3.14801 0
M  V30 762 H 64.6184 -2.30369 2.11303 0
M  V30 763 H 63.8384 -0.575595 3.89975 0
M  V30 764 H 65.1264 -1.20221 4.94393 0
M  V30 765 H 64.5244 -4.17654 3.81552 0
M  V30 766 H 63.0814 -4.54461 4.67235 0
M  V30 767 N 66.5145 -1.57545 0.0417849 0
M  V30 768 C 67.7915 -1.83642 -0.673433 0
M  V30 769 C 68.1715 -0.928298 -1.89594 0
M  V30 770 O 67.5195 0.0129955 -2.28496 0
M  V30 771 C 67.7295 -3.33155 -1.03964 0
M  V30 772 C 69.0775 -3.99941 -1.42592 0
M  V30 773 O 70.1015 -3.37725 -1.13226 0
M  V30 774 O 68.9605 -5.09619 -1.9736 0
M  V30 775 H 66.0545 -0.757638 -0.331533 0
M  V30 776 H 68.6005 -1.69554 0.070433 0
M  V30 777 H 67.3725 -3.9093 -0.170098 0
M  V30 778 H 66.9955 -3.52396 -1.84126 0
M  V30 779 N 67.9926 0.231505 -1.5589 0
M  V30 780 C 69.2406 0.955461 -1.78088 0
M  V30 781 C 69.5616 1.85262 -0.608533 0
M  V30 782 O 68.8316 1.92277 0.375035 0
M  V30 783 H 67.4116 0.355787 -0.656829 0
M  V30 784 H 70.0736 0.245751 -1.93344 0
M  V30 785 H 69.1696 1.56814 -2.69844 0
M  V30 786 N 69.4707 1.49531 0.497807 0
M  V30 787 C 70.8867 1.36365 0.829266 0
M  V30 788 C 71.0867 0.399184 1.97506 0
M  V30 789 O 70.1427 -0.167977 2.51941 0
M  V30 790 C 71.4557 2.77153 1.16647 0
M  V30 791 C 73.0037 2.85877 1.27449 0
M  V30 792 C 73.4787 4.2744 1.64497 0
M  V30 793 N 74.9697 4.30265 1.7154 0
M  V30 794 C 75.7047 5.3677 2.01656 0
M  V30 795 N 75.2007 6.53516 2.29976 0
M  V30 796 N 76.9937 5.24189 2.02934 0
M  V30 797 H 69.1447 2.10831 -0.257703 0
M  V30 798 H 71.4077 0.946534 -0.0527091 0
M  V30 799 H 71.1137 3.49442 0.397872 0
M  V30 800 H 70.9877 3.12722 2.10915 0
M  V30 801 H 73.3747 2.13824 2.0338 0
M  V30 802 H 73.4557 2.53887 0.312244 0
M  V30 803 H 73.0997 5.00021 0.891151 0
M  V30 804 H 73.0297 4.56896 2.61827 0
M  V30 805 H 75.5207 3.4607 1.51802 0
M  V30 806 H 75.8337 7.30506 2.52153 0
M  V30 807 H 74.1787 6.56737 2.27425 0
M  V30 808 H 77.3697 4.31988 1.80289 0
M  V30 809 H 77.5427 6.07286 2.26071 0
M  V30 810 N 70.9488 -0.749086 1.3866 0
M  V30 811 C 72.3648 -1.05276 1.19955 0
M  V30 812 C 72.5648 -2.01435 0.05134 0
M  V30 813 O 71.6208 -2.45232 -0.60147 0
M  V30 814 C 72.9338 -1.62853 2.52783 0
M  V30 815 C 74.4818 -1.75002 2.59506 0
M  V30 816 C 74.9568 -2.35991 3.92521 0
M  V30 817 N 76.4478 -2.43416 3.94085 0
M  V30 818 C 77.1828 -2.91511 4.9377 0
M  V30 819 N 76.6788 -3.39608 6.03853 0
M  V30 820 N 78.4718 -2.90592 4.81157 0
M  V30 821 H 70.6228 -0.111066 2.12109 0
M  V30 822 H 72.8858 -0.111901 0.941373 0
M  V30 823 H 72.5918 -0.99664 3.37283 0
M  V30 824 H 72.4658 -2.61854 2.715 0
M  V30 825 H 74.8528 -2.37317 1.75398 0
M  V30 826 H 74.9338 -0.74693 2.44652 0
M  V30 827 H 74.5778 -1.74308 4.77053 0
M  V30 828 H 74.5078 -3.3695 4.04688 0
M  V30 829 H 76.9988 -2.09405 3.14576 0
M  V30 830 H 77.3118 -3.74775 6.75843 0
M  V30 831 H 75.6568 -3.37653 6.07466 0
M  V30 832 H 78.8478 -2.52332 3.94267 0
M  V30 833 H 79.0208 -3.27762 5.58996 0
M  V30 834 N 72.4269 -1.23603 -0.977757 0
M  V30 835 C 73.3569 -1.04401 -2.0886 0
M  V30 836 C 74.3379 0.0399052 -1.70053 0
M  V30 837 O 75.5229 -0.125246 -1.93796 0
M  V30 838 C 72.6529 -0.637269 -3.41403 0
M  V30 839 C 71.6069 -1.66883 -3.94124 0
M  V30 840 C 70.9329 -1.11745 -5.22893 0
M  V30 841 C 72.2329 -3.06247 -4.23096 0
M  V30 842 H 73.9269 -1.97316 -2.25182 0
M  V30 843 H 71.4729 -0.950096 -1.08209 0
M  V30 844 H 73.4259 -0.48998 -4.18542 0
M  V30 845 H 72.1499 0.327557 -3.24953 0
M  V30 846 H 70.8089 -1.80416 -3.19133 0
M  V30 847 H 70.4569 -0.143527 -5.02795 0
M  V30 848 H 70.1569 -1.80672 -5.59134 0
M  V30 849 H 71.6809 -0.982067 -6.02651 0
M  V30 850 H 73.0949 -2.96001 -4.90975 0
M  V30 851 H 71.4919 -3.72436 -4.70544 0
M  V30 852 H 72.5619 -3.55041 -3.30263 0
M  V30 853 N 73.905 1.17692 -1.04816 0
M  V30 854 C 74.835 2.23777 -0.666791 0
M  V30 855 C 75.816 1.66796 0.33361 0
M  V30 856 O 77.001 1.93039 0.212042 0
M  V30 857 C 74.131 3.47281 -0.0367933 0
M  V30 858 C 73.085 4.17059 -0.961546 0
M  V30 859 C 72.411 5.34342 -0.195626 0
M  V30 860 C 73.711 4.69713 -2.28402 0
M  V30 861 H 75.405 2.55933 -1.55367 0
M  V30 862 H 72.951 1.23019 -0.748484 0
M  V30 863 H 74.904 4.20706 0.241775 0
M  V30 864 H 73.628 3.14381 0.885004 0
M  V30 865 H 72.287 3.45541 -1.22462 0
M  V30 866 H 71.935 4.97692 0.728816 0
M  V30 867 H 71.635 5.81966 -0.811775 0
M  V30 868 H 73.159 6.10553 0.0757473 0
M  V30 869 H 74.573 5.34794 -2.06563 0
M  V30 870 H 72.97 5.279 -2.8538 0
M  V30 871 H 74.04 3.86726 -2.92525 0
M  V30 872 N 75.3831 0.828654 1.34056 0
M  V30 873 C 76.6601 0.341809 1.9259 0
M  V30 874 C 77.0401 -1.17158 1.75605 0
M  V30 875 O 76.3881 -1.98132 1.13824 0
M  V30 876 C 76.5981 0.777453 3.4023 0
M  V30 877 C 77.9461 0.779579 4.17382 0
M  V30 878 O 78.9701 0.7204 3.48839 0
M  V30 879 O 77.8291 0.857996 5.39723 0
M  V30 880 H 74.9231 0.0946085 0.821571 0
M  V30 881 H 77.4691 0.913827 1.42994 0
M  V30 882 H 76.2411 1.8196 3.46419 0
M  V30 883 H 75.8641 0.181444 3.97186 0
M  V30 884 N 76.8612 -1.46375 0.584142 0
M  V30 885 C 77.7912 -2.33103 -0.136037 0
M  V30 886 C 78.7722 -1.45431 -0.882255 0
M  V30 887 O 79.9572 -1.74246 -0.857434 0
M  V30 888 C 77.0872 -3.27731 -1.14933 0
M  V30 889 C 76.0412 -4.24855 -0.517862 0
M  V30 890 C 75.3672 -5.09001 -1.63773 0
M  V30 891 C 76.6672 -5.19439 0.545886 0
M  V30 892 H 78.3612 -2.93568 0.588086 0
M  V30 893 H 75.9072 -1.41166 0.284259 0
M  V30 894 H 77.8602 -3.87261 -1.66153 0
M  V30 895 H 76.5842 -2.65377 -1.90375 0
M  V30 896 H 75.2432 -3.6659 -0.0267361 0
M  V30 897 H 74.8912 -4.43031 -2.38185 0
M  V30 898 H 74.5912 -5.74777 -1.22085 0
M  V30 899 H 76.1152 -5.71396 -2.15266 0
M  V30 900 H 77.5292 -5.73177 0.118704 0
M  V30 901 H 75.9262 -5.93566 0.88317 0
M  V30 902 H 76.9962 -4.63285 1.43162 0
M  V30 903 N 78.3393 -0.321999 -1.54275 0
M  V30 904 C 79.2693 0.537411 -2.27231 0
M  V30 905 C 80.2503 1.12064 -1.27968 0
M  V30 906 O 81.4353 1.14606 -1.56777 0
M  V30 907 C 78.5653 1.69919 -3.02894 0
M  V30 908 C 77.5193 1.24534 -4.09482 0
M  V30 909 C 76.8453 2.49394 -4.72977 0
M  V30 910 C 78.1453 0.361335 -5.21049 0
M  V30 911 H 79.8393 -0.0711406 -2.99315 0
M  V30 912 H 77.3853 -0.0356555 -1.43956 0
M  V30 913 H 79.3383 2.30668 -3.52662 0
M  V30 914 H 78.0623 2.33431 -2.28424 0
M  V30 915 H 76.7213 0.660782 -3.60596 0
M  V30 916 H 76.3693 3.11265 -3.95124 0
M  V30 917 H 76.0693 2.19718 -5.44975 0
M  V30 918 H 77.5933 3.10908 -5.25517 0
M  V30 919 H 79.0073 0.875072 -5.66582 0
M  V30 920 H 77.4043 0.157428 -5.99893 0
M  V30 921 H 78.4743 -0.60822 -4.8107 0
M  V30 922 N 79.8174 1.5752 -0.0501392 0
M  V30 923 C 80.7274 2.14952 0.939827 0
M  V30 924 C 81.7434 1.10706 1.34239 0
M  V30 925 O 82.9194 1.42869 1.41952 0
M  V30 926 C 79.9844 2.68232 2.19665 0
M  V30 927 C 79.0454 3.87272 1.85253 0
M  V30 928 C 78.2784 4.38002 3.04943 0
M  V30 929 O 78.5014 3.87811 4.18281 0
M  V30 930 O 77.4354 5.29602 2.86017 0
M  V30 931 H 81.2614 2.9986 0.481392 0
M  V30 932 H 78.8464 1.4841 0.171699 0
M  V30 933 H 80.7284 3.02475 2.93406 0
M  V30 934 H 79.4034 1.86395 2.64648 0
M  V30 935 H 78.3104 3.5792 1.0883 0
M  V30 936 H 79.6434 4.70336 1.4507 0
M  V30 937 N 81.2955 -0.223234 1.56011 0
M  V30 938 C 82.5435 -0.946003 1.78592 0
M  V30 939 C 82.8645 -1.84936 0.618349 0
M  V30 940 O 82.1345 -1.92473 -0.364833 0
M  V30 941 H 80.7145 -0.352298 0.658707 0
M  V30 942 H 83.3765 -0.235494 1.93472 0
M  V30 943 H 82.4725 -1.55381 2.70672 0
M  V30 944 N 82.7736 -1.49793 -0.48987 0
M  V30 945 C 83.7036 -1.70201 -1.59856 0
M  V30 946 C 84.6846 -0.55076 -1.60937 0
M  V30 947 O 85.8696 -0.787841 -1.77501 0
M  V30 948 C 82.9996 -1.77882 -2.98287 0
M  V30 949 C 81.9536 -2.92907 -3.12073 0
M  V30 950 C 81.2796 -2.85712 -4.51965 0
M  V30 951 C 82.5796 -4.3369 -2.91051 0
M  V30 952 H 84.2736 -2.63025 -1.43032 0
M  V30 953 H 81.8196 -1.26574 -0.686664 0
M  V30 954 H 83.7726 -1.90744 -3.75759 0
M  V30 955 H 82.4966 -0.816653 -3.16225 0
M  V30 956 H 81.1556 -2.79665 -2.37029 0
M  V30 957 H 80.8036 -1.8738 -4.66795 0
M  V30 958 H 80.5036 -3.62921 -4.62128 0
M  V30 959 H 82.0276 -3.00598 -5.31482 0
M  V30 960 H 83.4416 -4.47555 -3.58284 0
M  V30 961 H 81.8386 -5.12205 -3.12675 0
M  V30 962 H 82.9086 -4.47362 -1.87071 0
M  V30 963 N 84.2517 0.741722 -1.39055 0
M  V30 964 C 85.4797 1.53098 -1.39171 0
M  V30 965 C 85.8947 1.88794 0.0155099 0
M  V30 966 O 85.2517 1.53626 0.985159 0
M  V30 967 C 85.3027 2.82274 -2.2584 0
M  V30 968 O 85.0237 2.48097 -3.61081 0
M  V30 969 C 86.5247 3.76343 -2.34266 0
M  V30 970 H 83.7447 0.473335 -0.4756 0
M  V30 971 H 86.2887 0.917045 -1.82785 0
M  V30 972 H 84.4437 3.40015 -1.85656 0
M  V30 973 H 84.8577 3.31029 -4.06842 0
M  V30 974 H 86.3317 4.63898 -2.9917 0
M  V30 975 H 86.8087 4.17619 -1.35982 0
M  V30 976 H 87.4147 3.24523 -2.74891 0
M  V30 977 N 85.7298 1.2412 0.971189 0
M  V30 978 C 86.9778 1.07668 1.71032 0
M  V30 979 C 87.2988 -0.385797 1.91146 0
M  V30 980 O 86.5688 -1.27569 1.4867 0
M  V30 981 H 85.1488 0.395429 0.633755 0
M  V30 982 H 87.8108 1.55984 1.16855 0
M  V30 983 H 86.9068 1.57195 2.69622 0
M  V30 984 N 87.2079 -1.17134 1.05439 0
M  V30 985 C 88.1399 -2.2078 0.615539 0
M  V30 986 C 89.1529 -1.59584 -0.322001 0
M  V30 987 O 90.3419 -1.78133 -0.114344 0
M  V30 988 C 87.4419 -3.38691 -0.118938 0
M  V30 989 C 86.6149 -4.29454 0.829924 0
M  V30 990 C 85.6739 -5.26024 0.136258 0
M  V30 991 O 84.6999 -5.63952 0.77115 0
M  V30 992 N 85.9019 -5.69487 -1.1254 0
M  V30 993 H 88.6669 -2.59052 1.50705 0
M  V30 994 H 86.2279 -1.32058 0.936603 0
M  V30 995 H 88.2199 -4.00329 -0.593179 0
M  V30 996 H 86.7899 -2.98996 -0.91215 0
M  V30 997 H 86.0099 -3.65211 1.48373 0
M  V30 998 H 87.2979 -4.86984 1.47392 0
M  V30 999 H 86.6959 -5.4075 -1.6615 0
M  V30 1000 H 85.2529 -6.33257 -1.54366 0
M  V30 1001 N 88.686 -0.835752 -1.33615 0
M  V30 1002 C 89.633 -0.26473 -2.29277 0
M  V30 1003 C 90.603 0.617712 -1.54187 0
M  V30 1004 O 91.788 0.556641 -1.825 0
M  V30 1005 C 88.928 0.556777 -3.40579 0
M  V30 1006 C 88.041 -0.349339 -4.30585 0
M  V30 1007 C 87.176 0.482969 -5.29 0
M  V30 1008 C 86.215 -0.421732 -6.10645 0
M  V30 1009 N 85.352 0.372262 -7.01112 0
M  V30 1010 H 90.192 -1.08582 -2.77514 0
M  V30 1011 H 87.729 -0.546927 -1.36554 0
M  V30 1012 H 89.687 1.04852 -4.03809 0
M  V30 1013 H 88.317 1.34286 -2.93542 0
M  V30 1014 H 87.369 -0.959372 -3.68104 0
M  V30 1015 H 88.681 -1.04445 -4.87742 0
M  V30 1016 H 87.835 1.03866 -5.97743 0
M  V30 1017 H 86.574 1.21153 -4.72412 0
M  V30 1018 H 85.579 -0.989464 -5.40823 0
M  V30 1019 H 86.804 -1.14861 -6.69316 0
M  V30 1020 H 84.75 1.08426 -6.46977 0
M  V30 1021 H 84.667 -0.264198 -7.55538 0
M  V30 1022 H 85.935 0.910293 -7.74167 0
M  V30 1023 N 90.1641 1.46063 -0.591896 0
M  V30 1024 C 91.0941 2.33172 0.123673 0
M  V30 1025 C 92.0751 1.45897 0.87453 0
M  V30 1026 O 93.2601 1.74698 0.848181 0
M  V30 1027 C 90.3901 3.28336 1.13194 0
M  V30 1028 C 89.3441 4.25124 0.495324 0
M  V30 1029 C 88.6701 5.09863 1.61071 0
M  V30 1030 C 89.9701 5.19143 -0.573425 0
M  V30 1031 H 91.6641 2.93252 -0.603646 0
M  V30 1032 H 89.2101 1.41014 -0.291741 0
M  V30 1033 H 91.1631 3.88137 1.64097 0
M  V30 1034 H 89.8871 2.66383 1.88965 0
M  V30 1035 H 88.5461 3.66599 0.00729452 0
M  V30 1036 H 88.1941 4.44288 2.35832 0
M  V30 1037 H 87.8941 5.75417 1.19035 0
M  V30 1038 H 89.4181 5.72529 2.12233 0
M  V30 1039 H 90.8321 5.73106 -0.1491 0
M  V30 1040 H 89.2291 5.93089 -0.914636 0
M  V30 1041 H 90.2991 4.62519 -1.45617 0
M  V30 1042 N 91.6422 0.330177 1.54103 0
M  V30 1043 C 93.0532 -0.15652 1.86043 0
M  V30 1044 C 93.4042 -1.51086 1.2517 0
M  V30 1045 O 92.5292 -2.09023 0.560217 0
M  V30 1046 C 93.1242 -0.290784 3.3755 0
M  V30 1047 C 91.6832 -0.721705 3.69416 0
M  V30 1048 C 90.8302 0.152622 2.7688 0
M  V30 1049 H 93.7812 0.550237 1.48856 0
M  V30 1050 H 93.8022 -1.12058 3.63625 0
M  V30 1051 H 93.3142 0.695068 3.81825 0
M  V30 1052 H 91.4152 -1.71706 3.30678 0
M  V30 1053 H 91.5282 -0.520869 4.7626 0
M  V30 1054 H 89.8922 -0.372894 2.51956 0
M  V30 1055 H 90.6752 1.13536 3.23982 0
M  V30 1056 N 93.1203 -1.57491 0.0584922 0
M  V30 1057 C 94.0673 -2.11958 -0.913376 0
M  V30 1058 C 95.0373 -1.02875 -1.30407 0
M  V30 1059 O 96.2223 -1.30464 -1.39226 0
M  V30 1060 C 93.3623 -2.67497 -2.18035 0
M  V30 1061 C 92.4753 -3.90691 -1.84349 0
M  V30 1062 C 91.6103 -4.3452 -3.05559 0
M  V30 1063 C 90.6493 -5.50395 -2.67827 0
M  V30 1064 N 89.7863 -5.89244 -3.81754 0
M  V30 1065 H 94.6263 -2.94704 -0.442017 0
M  V30 1066 H 92.1633 -1.45643 -0.206545 0
M  V30 1067 H 94.1213 -2.978 -2.92183 0
M  V30 1068 H 92.7513 -1.87537 -2.62735 0
M  V30 1069 H 91.8033 -3.66934 -1.00319 0
M  V30 1070 H 93.1153 -4.7489 -1.5258 0
M  V30 1071 H 92.2693 -4.66414 -3.87998 0
M  V30 1072 H 91.0083 -3.49147 -3.40511 0
M  V30 1073 H 90.0133 -5.18165 -1.83806 0
M  V30 1074 H 91.2383 -6.3749 -2.34059 0
M  V30 1075 H 89.1843 -5.06823 -4.16493 0
M  V30 1076 H 89.1013 -6.68151 -3.53708 0
M  V30 1077 H 90.3693 -6.25756 -4.64811 0
M  V30 1078 N 94.5984 0.214957 -1.56127 0
M  V30 1079 C 95.5084 1.28727 -1.96129 0
M  V30 1080 C 96.5244 1.50916 -0.866044 0
M  V30 1081 O 97.7004 1.63918 -1.17016 0
M  V30 1082 C 94.7654 2.61569 -2.27558 0
M  V30 1083 C 93.8264 2.47625 -3.50685 0
M  V30 1084 C 93.0594 3.74132 -3.80606 0
M  V30 1085 O 93.2824 4.77438 -3.12104 0
M  V30 1086 O 92.2164 3.70849 -4.74083 0
M  V30 1087 H 96.0424 0.977855 -2.87527 0
M  V30 1088 H 93.6274 0.418358 -1.43423 0
M  V30 1089 H 95.5094 3.40012 -2.48938 0
M  V30 1090 H 94.1844 2.92178 -1.39332 0
M  V30 1091 H 93.0914 1.67361 -3.34576 0
M  V30 1092 H 94.4244 2.21954 -4.39315 0
M  V30 1093 N 96.0765 1.50051 0.48192 0
M  V30 1094 C 97.0235 1.68122 1.58125 0
M  V30 1095 C 97.9935 0.522545 1.57666 0
M  V30 1096 O 99.1785 0.751844 1.75362 0
M  V30 1097 C 96.3185 1.77142 2.96167 0
M  V30 1098 C 95.4315 3.0444 3.06497 0
M  V30 1099 C 94.5665 3.04321 4.35387 0
M  V30 1100 C 93.6055 4.26118 4.3942 0
M  V30 1101 N 92.7425 4.238 5.59766 0
M  V30 1102 H 97.5825 2.6198 1.42022 0
M  V30 1103 H 95.1195 1.29877 0.690687 0
M  V30 1104 H 97.0775 1.80352 3.76203 0
M  V30 1105 H 95.7075 0.867329 3.1093 0
M  V30 1106 H 94.7595 3.10752 2.19402 0
M  V30 1107 H 96.0715 3.94426 3.05336 0
M  V30 1108 H 95.2255 3.062 5.23762 0
M  V30 1109 H 93.9645 2.12147 4.39141 0
M  V30 1110 H 92.9695 4.24463 3.49444 0
M  V30 1111 H 94.1945 5.19507 4.37366 0
M  V30 1112 H 92.1405 3.34474 5.64326 0
M  V30 1113 H 92.0575 5.07542 5.60301 0
M  V30 1114 H 93.3255 4.2981 6.50295 0
M  V30 1115 N 97.5546 -0.734337 1.39446 0
M  V30 1116 C 98.8026 -1.49096 1.36436 0
M  V30 1117 C 99.1236 -1.94961 -0.0388255 0
M  V30 1118 O 98.3936 -1.69033 -0.990191 0
M  V30 1119 H 96.9736 -0.5531 0.502085 0
M  V30 1120 H 99.6356 -0.871725 1.74319 0
M  V30 1121 H 98.7316 -2.37276 2.02747 0
M  V30 1122 N 99.0327 -1.24633 -0.964593 0
M  V30 1123 C 100.258 -1.11596 -1.74818 0
M  V30 1124 C 100.683 0.32723 -1.85232 0
M  V30 1125 O 100.041 1.23695 -1.32549 0
M  V30 1126 C 100.089 -1.76397 -3.1451 0
M  V30 1127 O 99.1927 -1.03685 -3.99153 0
M  V30 1128 H 98.5337 -0.390196 -0.537255 0
M  V30 1129 H 101.064 -1.65002 -1.20977 0
M  V30 1130 H 101.074 -1.8228 -3.65018 0
M  V30 1131 H 99.7487 -2.81401 -3.06246 0
M  V30 1132 H 98.3257 -1.05611 -3.57632 0
M  V30 1133 N 100.511 1.16574 -1.06058 0
M  V30 1134 C 101.739 1.90952 -0.796552 0
M  V30 1135 C 102.154 1.77302 0.648808 0
M  V30 1136 O 101.511 1.11605 1.44397 0
M  V30 1137 C 101.562 3.41736 -1.17894 0
M  V30 1138 O 101.283 3.54975 -2.56758 0
M  V30 1139 C 102.784 4.33169 -0.942308 0
M  V30 1140 H 100.004 0.605594 -0.288959 0
M  V30 1141 H 102.548 1.47777 -1.41358 0
M  V30 1142 H 100.703 3.82623 -0.606491 0
M  V30 1143 H 101.117 4.4846 -2.72 0
M  V30 1144 H 102.591 5.37439 -1.25952 0
M  V30 1145 H 103.068 4.3903 0.122078 0
M  V30 1146 H 103.674 3.98007 -1.49902 0
M  V30 1147 N 101.989 0.842826 1.3317 0
M  V30 1148 C 103.405 0.531128 1.50503 0
M  V30 1149 C 103.605 -0.940734 1.78192 0
M  V30 1150 O 102.661 -1.72436 1.84451 0
M  V30 1151 C 103.974 1.40789 2.65705 0
M  V30 1152 C 105.522 1.40708 2.79589 0
M  V30 1153 C 105.997 2.26878 3.97857 0
M  V30 1154 N 107.488 2.24609 4.05099 0
M  V30 1155 C 108.223 2.88019 4.95815 0
M  V30 1156 N 107.719 3.60496 5.9162 0
M  V30 1157 N 109.512 2.77469 4.88843 0
M  V30 1158 H 101.663 1.79557 1.1346 0
M  V30 1159 H 103.926 0.766267 0.558156 0
M  V30 1160 H 103.632 2.454 2.51936 0
M  V30 1161 H 103.506 1.08677 3.61205 0
M  V30 1162 H 105.893 0.368668 2.92788 0
M  V30 1163 H 105.974 1.76829 1.84838 0
M  V30 1164 H 105.618 3.3078 3.85418 0
M  V30 1165 H 105.548 1.88096 4.91861 0
M  V30 1166 H 108.039 1.71906 3.36536 0
M  V30 1167 H 108.352 4.06076 6.57512 0
M  V30 1168 H 106.697 3.64604 5.91683 0
M  V30 1169 H 109.888 2.20406 4.12963 0
M  V30 1170 H 110.061 3.2717 5.59342 0
M  V30 1171 N 103.467 -1.45747 0.599634 0
M  V30 1172 C 104.713 -2.02592 0.0918643 0
M  V30 1173 C 105.046 -1.46806 -1.27128 0
M  V30 1174 O 104.321 -0.639658 -1.83681 0
M  V30 1175 C 104.604 -3.60073 0.0443398 0
M  V30 1176 C 104.457 -4.26208 1.43759 0
M  V30 1177 C 105.776 -4.35309 -0.647608 0
M  V30 1178 H 102.895 -0.736175 0.034857 0
M  V30 1179 H 105.537 -1.73694 0.770081 0
M  V30 1180 H 103.687 -3.84823 -0.533224 0
M  V30 1181 H 105.359 -4.12668 2.06162 0
M  V30 1182 H 103.602 -3.84916 2.00056 0
M  V30 1183 H 104.273 -5.35069 1.35665 0
M  V30 1184 H 106.749 -4.15805 -0.156776 0
M  V30 1185 H 105.625 -5.45038 -0.649942 0
M  V30 1186 H 105.886 -4.07598 -1.71219 0
M  V30 1187 N 104.945 -0.338344 -1.53925 0
M  V30 1188 C 105.895 0.536712 -2.21593 0
M  V30 1189 C 106.879 1.07015 -1.20153 0
M  V30 1190 O 108.071 1.00471 -1.45721 0
M  V30 1191 C 105.2 1.68977 -2.98834 0
M  V30 1192 C 104.286 1.17052 -4.07627 0
M  V30 1193 N 104.677 0.372085 -5.0443 0
M  V30 1194 C 102.975 1.44789 -4.21844 0
M  V30 1195 C 103.676 0.0909171 -5.81629 0
M  V30 1196 N 102.652 0.681131 -5.39316 0
M  V30 1197 H 106.454 -0.0804298 -2.9379 0
M  V30 1198 H 103.968 -0.144943 -1.61752 0
M  V30 1199 H 105.965 2.32857 -3.45808 0
M  V30 1200 H 104.625 2.31024 -2.28162 0
M  V30 1201 H 105.636 0.0136217 -5.17898 0
M  V30 1202 H 102.313 2.07313 -3.62391 0
M  V30 1203 H 103.703 -0.552817 -6.69622 0
M  V30 1204 N 106.423 1.57458 -0.0668435 0
M  V30 1205 C 107.386 2.11323 0.887422 0
M  V30 1206 C 108.386 1.03618 1.22964 0
M  V30 1207 O 109.576 1.29626 1.16373 0
M  V30 1208 C 106.708 2.61048 2.19242 0
M  V30 1209 H 107.901 2.96942 0.420194 0
M  V30 1210 H 105.454 1.55239 0.181793 0
M  V30 1211 H 106.189 1.78868 2.70512 0
M  V30 1212 H 105.974 3.39769 1.95702 0
M  V30 1213 H 107.464 3.02814 2.87565 0
M  V30 1214 N 107.901 -0.206675 1.56239 0
M  V30 1215 C 108.831 -1.25909 1.96645 0
M  V30 1216 C 109.812 -1.48097 0.836734 0
M  V30 1217 O 110.997 -1.6003 1.10019 0
M  V30 1218 C 108.127 -2.6058 2.29599 0
M  V30 1219 C 107.081 -2.53024 3.452 0
M  V30 1220 C 106.407 -3.91861 3.63798 0
M  V30 1221 C 107.707 -2.06524 4.79734 0
M  V30 1222 H 109.401 -0.923369 2.84806 0
M  V30 1223 H 106.947 -0.442735 1.37025 0
M  V30 1224 H 108.9 -3.34375 2.56459 0
M  V30 1225 H 107.624 -2.95869 1.38307 0
M  V30 1226 H 106.283 -1.81684 3.18412 0
M  V30 1227 H 105.931 -4.24483 2.69857 0
M  V30 1228 H 105.631 -3.87683 4.4156 0
M  V30 1229 H 107.155 -4.67296 3.93022 0
M  V30 1230 H 108.569 -2.70072 5.05702 0
M  V30 1231 H 106.966 -2.13374 5.60885 0
M  V30 1232 H 108.036 -1.01802 4.74093 0
M  V30 1233 N 109.379 -1.50304 -0.473955 0
M  V30 1234 C 110.327 -1.69482 -1.59307 0
M  V30 1235 C 111.321 -0.560669 -1.59853 0
M  V30 1236 O 112.527 -0.741087 -1.64036 0
M  V30 1237 H 108.902 -0.534892 -0.528578 0
M  V30 1238 H 110.873 -2.63364 -1.40293 0
M  V30 1239 C 109.622 -1.80354 -2.97267 0
M  V30 1240 H 108.945 -2.67012 -2.97564 0
M  V30 1241 H 110.385 -1.97798 -3.75036 0
M  V30 1242 C 108.844 -0.55448 -3.32306 0
M  V30 1243 O 109.374 0.307661 -4.0052 0
M  V30 1244 N 107.58 -0.409354 -2.87702 0
M  V30 1245 H 107.127 -1.11196 -2.32364 0
M  V30 1246 H 107.085 0.425223 -3.11511 0
M  V30 1247 N 110.857 0.726932 -1.39834 0
M  V30 1248 C 111.805 1.86235 -1.39353 0
M  V30 1249 C 112.799 1.67144 -0.275555 0
M  V30 1250 O 114.005 1.74387 -0.44601 0
M  V30 1251 H 110.38 0.613174 -0.43534 0
M  V30 1252 H 112.351 1.83756 -2.35109 0
M  V30 1253 C 111.1 3.23995 -1.26185 0
M  V30 1254 H 110.423 3.39285 -2.11484 0
M  V30 1255 H 111.863 4.03609 -1.29907 0
M  V30 1256 C 110.322 3.36888 0.0290018 0
M  V30 1257 O 110.852 3.89152 0.99619 0
M  V30 1258 N 109.058 2.90446 0.0947437 0
M  V30 1259 H 108.605 2.48102 -0.693035 0
M  V30 1260 H 108.563 2.99451 0.957932 0
M  V30 1261 N 112.336 1.25143 0.95797 0
M  V30 1262 C 113.582 1.09855 1.70469 0
M  V30 1263 C 113.915 -0.360187 1.90831 0
M  V30 1264 O 113.19 -1.26568 1.47685 0
M  V30 1265 C 113.473 1.8497 3.08963 0
M  V30 1266 C 113.326 3.38652 2.96032 0
M  V30 1267 C 114.645 1.63016 4.08795 0
M  V30 1268 H 111.764 0.400465 0.618706 0
M  V30 1269 H 114.406 1.53933 1.11376 0
M  V30 1270 H 112.556 1.47505 3.59409 0
M  V30 1271 H 114.228 3.85772 2.52938 0
M  V30 1272 H 112.471 3.66534 2.32025 0
M  V30 1273 H 113.142 3.8642 3.94187 0
M  V30 1274 H 115.618 1.95625 3.67247 0
M  V30 1275 H 114.494 2.18015 5.03747 0
M  V30 1276 H 114.755 0.570692 4.38401 0
M  V30 1277 N 113.814 -1.1601 1.06675 0
M  V30 1278 C 114.762 -2.22586 0.675157 0
M  V30 1279 C 115.756 -1.66525 -0.310766 0
M  V30 1280 O 116.962 -1.79145 -0.175215 0
M  V30 1281 H 113.337 -0.724855 0.200223 0
M  V30 1282 H 115.308 -2.52899 1.58381 0
M  V30 1283 C 114.057 -3.47604 0.0817162 0
M  V30 1284 H 113.38 -3.91058 0.831484 0
M  V30 1285 H 114.82 -4.23718 -0.154708 0
M  V30 1286 C 113.279 -3.15718 -1.17576 0
M  V30 1287 O 113.809 -3.31878 -2.26318 0
M  V30 1288 N 112.015 -2.69816 -1.07923 0
M  V30 1289 H 111.562 -2.56866 -0.194293 0
M  V30 1290 H 111.52 -2.48855 -1.92141 0
M  V30 1291 N 115.292 -0.849877 -1.32721 0
M  V30 1292 C 116.239 -0.289033 -2.28983 0
M  V30 1293 C 117.209 0.601324 -1.54833 0
M  V30 1294 O 118.394 0.537253 -1.8308 0
M  V30 1295 C 115.534 0.520623 -3.4115 0
M  V30 1296 C 114.647 -0.394989 -4.3019 0
M  V30 1297 C 113.782 0.426834 -5.29482 0
M  V30 1298 C 112.821 -0.486476 -6.10164 0
M  V30 1299 N 111.958 0.297879 -7.01468 0
M  V30 1300 H 116.798 -1.11519 -2.76347 0
M  V30 1301 H 114.335 -0.56138 -1.35967 0
M  V30 1302 H 116.293 1.00563 -4.04899 0
M  V30 1303 H 114.923 1.31165 -2.9495 0
M  V30 1304 H 113.975 -0.99836 -3.67065 0
M  V30 1305 H 115.287 -1.09612 -4.86607 0
M  V30 1306 H 114.441 0.975205 -5.98811 0
M  V30 1307 H 113.18 1.16136 -4.73671 0
M  V30 1308 H 112.185 -1.04677 -5.39743 0
M  V30 1309 H 113.41 -1.21953 -6.6806 0
M  V30 1310 H 111.356 1.01558 -6.48091 0
M  V30 1311 H 111.273 -0.344318 -7.55216 0
M  V30 1312 H 112.541 0.828131 -7.75089 0
M  V30 1313 N 116.77 1.45427 -0.607355 0
M  V30 1314 C 117.733 2.28974 0.101693 0
M  V30 1315 C 118.733 1.39754 0.795329 0
M  V30 1316 O 119.923 1.61878 0.643527 0
M  V30 1317 C 117.055 3.20768 1.15414 0
M  V30 1318 H 118.248 2.93147 -0.632844 0
M  V30 1319 H 115.801 1.51945 -0.366391 0
M  V30 1320 H 116.536 2.61395 1.91945 0
M  V30 1321 H 116.321 3.86489 0.66098 0
M  V30 1322 H 117.811 3.83589 1.65073 0
M  V30 1323 N 118.248 0.346503 1.53744 0
M  V30 1324 C 119.178 -0.501193 2.28058 0
M  V30 1325 C 120.159 -1.10014 1.29734 0
M  V30 1326 O 121.344 -1.12097 1.58581 0
M  V30 1327 C 118.474 -1.65078 3.05559 0
M  V30 1328 C 117.428 -1.18003 4.11411 0
M  V30 1329 C 116.754 -2.41837 4.76884 0
M  V30 1330 C 118.054 -0.278394 5.21558 0
M  V30 1331 H 119.748 0.11875 2.99164 0
M  V30 1332 H 117.294 0.0585531 1.43881 0
M  V30 1333 H 119.247 -2.25028 3.56287 0
M  V30 1334 H 117.971 -2.29767 2.32109 0
M  V30 1335 H 116.63 -0.603331 3.61601 0
M  V30 1336 H 116.278 -3.0494 4.00026 0
M  V30 1337 H 115.978 -2.1102 5.48402 0
M  V30 1338 H 117.502 -3.02508 5.30397 0
M  V30 1339 H 118.916 -0.784823 5.67903 0
M  V30 1340 H 117.313 -0.0619707 6.00068 0
M  V30 1341 H 118.383 0.684677 4.80042 0
M  V30 1342 N 119.726 -1.57421 0.075193 0
M  V30 1343 C 121.142 -1.57099 -0.281444 0
M  V30 1344 C 121.342 -1.08486 -1.69803 0
M  V30 1345 O 120.398 -0.752279 -2.41033 0
M  V30 1346 C 121.711 -3.00571 -0.0880041 0
M  V30 1347 C 123.259 -3.12605 -0.157281 0
M  V30 1348 C 123.734 -4.57999 0.0079207 0
M  V30 1349 N 125.225 -4.63176 -0.0475725 0
M  V30 1350 C 125.96 -5.73373 0.0557876 0
M  V30 1351 N 125.456 -6.92473 0.21286 0
M  V30 1352 N 127.249 -5.621 -0.00152098 0
M  V30 1353 H 119.4 -1.87335 1.00098 0
M  V30 1354 H 121.663 -0.86377 0.390646 0
M  V30 1355 H 121.369 -3.40262 0.889629 0
M  V30 1356 H 121.243 -3.67754 -0.838875 0
M  V30 1357 H 123.63 -2.72798 -1.1254 0
M  V30 1358 H 123.711 -2.48053 0.62475 0
M  V30 1359 H 123.355 -4.98496 0.972824 0
M  V30 1360 H 123.285 -5.20586 -0.793556 0
M  V30 1361 H 125.776 -3.7753 -0.167244 0
M  V30 1362 H 126.089 -7.72279 0.283781 0
M  V30 1363 H 124.434 -6.94556 0.248267 0
M  V30 1364 H 127.625 -4.67938 -0.122958 0
M  V30 1365 H 127.798 -6.47948 0.0824844 0
M  V30 1366 N 121.204 0.198386 -1.56346 0
M  V30 1367 C 122.45 0.920648 -1.80698 0
M  V30 1368 C 122.783 1.83045 -0.648697 0
M  V30 1369 O 122.058 1.91308 0.350925 0
M  V30 1370 C 122.341 1.73971 -3.15287 0
M  V30 1371 C 122.194 0.85485 -4.41602 0
M  V30 1372 C 123.513 2.71296 -3.46535 0
M  V30 1373 H 120.632 0.333261 -0.657348 0
M  V30 1374 H 123.274 0.188198 -1.89066 0
M  V30 1375 H 121.424 2.36416 -3.08285 0
M  V30 1376 H 123.096 0.245362 -4.60647 0
M  V30 1377 H 121.339 0.161398 -4.335 0
M  V30 1378 H 122.01 1.46286 -5.32264 0
M  V30 1379 H 124.486 2.18983 -3.53816 0
M  V30 1380 H 123.362 3.2569 -4.41834 0
M  V30 1381 H 123.623 3.5018 -2.69864 0
M  V30 1382 N 122.682 1.50554 0.465978 0
M  V30 1383 C 123.612 1.72722 1.57128 0
M  V30 1384 C 124.593 0.576294 1.6004 0
M  V30 1385 O 125.778 0.81598 1.76225 0
M  V30 1386 C 122.908 1.82605 2.95419 0
M  V30 1387 C 121.862 2.97835 3.07373 0
M  V30 1388 C 121.188 2.92867 4.47363 0
M  V30 1389 C 122.488 4.38265 2.84114 0
M  V30 1390 H 124.182 2.65267 1.38829 0
M  V30 1391 H 121.728 1.2765 0.666441 0
M  V30 1392 H 123.681 1.96698 3.72677 0
M  V30 1393 H 122.405 0.866858 3.14886 0
M  V30 1394 H 121.064 2.83401 2.3255 0
M  V30 1395 H 120.712 1.94783 4.63755 0
M  V30 1396 H 120.412 3.70227 4.56296 0
M  V30 1397 H 121.936 3.09015 5.26633 0
M  V30 1398 H 123.35 4.53198 3.51118 0
M  V30 1399 H 121.747 5.17115 3.04487 0
M  V30 1400 H 122.817 4.50281 1.7993 0
M  V30 1401 N 124.16 -0.719506 1.40217 0
M  V30 1402 C 125.092 -1.84428 1.36084 0
M  V30 1403 C 126.105 -1.60597 0.266913 0
M  V30 1404 O 127.294 -1.70544 0.526983 0
M  V30 1405 C 124.394 -3.20757 1.094 0
M  V30 1406 C 123.567 -3.71817 2.30372 0
M  V30 1407 C 122.626 -4.86748 1.99907 0
M  V30 1408 O 121.652 -4.99603 2.72737 0
M  V30 1409 N 122.854 -5.7226 0.974635 0
M  V30 1410 H 125.619 -1.88473 2.33019 0
M  V30 1411 H 123.18 -0.900885 1.3452 0
M  V30 1412 H 125.172 -3.95235 0.870116 0
M  V30 1413 H 123.742 -3.11884 0.211452 0
M  V30 1414 H 122.962 -2.88514 2.68614 0
M  V30 1415 H 124.25 -4.02666 3.11026 0
M  V30 1416 H 123.648 -5.6448 0.371368 0
M  V30 1417 H 122.205 -6.46739 0.810656 0
M  V30 1418 N 125.638 -1.25649 -0.95132 0
M  V30 1419 C 126.586 -1.06118 -2.06982 0
M  V30 1420 C 127.58 0.00889169 -1.69398 0
M  V30 1421 O 128.786 -0.146988 -1.79399 0
M  V30 1422 H 125.161 -0.326248 -0.677544 0
M  V30 1423 H 127.132 -2.00932 -2.2061 0
M  V30 1424 C 125.881 -0.700145 -3.40578 0
M  V30 1425 H 125.204 -1.51537 -3.69968 0
M  V30 1426 H 126.644 -0.603211 -4.19687 0
M  V30 1427 C 125.103 0.59403 -3.31622 0
M  V30 1428 O 125.633 1.63522 -3.66911 0
M  V30 1429 N 123.839 0.58089 -2.84735 0
M  V30 1430 H 123.386 -0.266783 -2.56215 0
M  V30 1431 H 123.344 1.44695 -2.79125 0
M  V30 1432 N 127.117 1.15442 -1.07289 0
M  V30 1433 C 128.065 2.22225 -0.686952 0
M  V30 1434 C 129.059 1.66688 0.30193 0
M  V30 1435 O 130.265 1.79236 0.165712 0
M  V30 1436 H 126.64 0.723783 -0.204064 0
M  V30 1437 H 128.611 2.52056 -1.5972 0
M  V30 1438 C 127.36 3.47556 -0.100149 0
M  V30 1439 H 126.683 3.90612 -0.852211 0
M  V30 1440 H 128.123 4.23794 0.132235 0
M  V30 1441 C 126.582 3.16337 1.159 0
M  V30 1442 O 127.112 3.33074 2.24555 0
M  V30 1443 N 125.318 2.70385 1.06491 0
M  V30 1444 H 124.865 2.56966 0.180668 0
M  V30 1445 H 124.823 2.49871 1.90819 0
M  V30 1446 N 128.595 0.856903 1.32268 0
M  V30 1447 C 129.543 0.291987 2.3076 0
M  V30 1448 C 130.537 -0.585857 1.58947 0
M  V30 1449 O 131.743 -0.47341 1.73663 0
M  V30 1450 H 128.118 0.075721 0.748178 0
M  V30 1451 H 130.089 1.13687 2.75895 0
M  V30 1452 C 128.838 -0.502869 3.44044 0
M  V30 1453 H 128.161 0.163328 3.99466 0
M  V30 1454 H 129.601 -0.863691 4.1511 0
M  V30 1455 C 128.06 -1.68898 2.91505 0
M  V30 1456 O 128.59 -2.78811 2.89184 0
M  V30 1457 N 126.796 -1.51679 2.47875 0
M  V30 1458 H 126.343 -0.622666 2.49961 0
M  V30 1459 H 126.301 -2.31184 2.13076 0
M  V30 1460 N 130.073 -1.45103 0.615059 0
M  V30 1461 C 131.319 -2.02483 0.113347 0
M  V30 1462 C 131.652 -1.48146 -1.25564 0
M  V30 1463 O 130.927 -0.659104 -1.82992 0
M  V30 1464 C 131.21 -3.60005 0.0825278 0
M  V30 1465 C 131.063 -4.2466 1.48271 0
M  V30 1466 C 132.382 -4.35972 -0.601401 0
M  V30 1467 H 129.501 -0.735764 0.0426632 0
M  V30 1468 H 132.143 -1.72868 0.788461 0
M  V30 1469 H 130.293 -3.85367 -0.492378 0
M  V30 1470 H 131.965 -4.10458 2.10527 0
M  V30 1471 H 130.208 -3.82772 2.04127 0
M  V30 1472 H 130.879 -5.336 1.41332 0
M  V30 1473 H 133.355 -4.15947 -0.112666 0
M  V30 1474 H 132.231 -5.45697 -0.592097 0
M  V30 1475 H 132.492 -4.09391 -1.66887 0
M  V30 1476 N 131.551 -0.354651 -1.53558 0
M  V30 1477 C 132.828 0.294281 -1.93374 0
M  V30 1478 C 133.208 1.67313 -1.28723 0
M  V30 1479 O 132.556 2.24179 -0.442247 0
M  V30 1480 C 132.766 0.355445 -3.47185 0
M  V30 1481 C 134.114 0.601007 -4.20325 0
M  V30 1482 O 135.138 0.437106 -3.53508 0
M  V30 1483 O 133.997 0.919322 -5.38712 0
M  V30 1484 H 131.091 0.174033 -0.808481 0
M  V30 1485 H 133.637 -0.406638 -1.64756 0
M  V30 1486 H 132.409 -0.611729 -3.86489 0
M  V30 1487 H 132.032 1.1027 -3.82003 0
M  V30 1488 N 133.029 1.57378 -0.0835403 0
M  V30 1489 C 133.959 2.1641 0.87686 0
M  V30 1490 C 134.94 1.09429 1.30228 0
M  V30 1491 O 136.125 1.37516 1.37124 0
M  V30 1492 C 133.255 2.73517 2.14022 0
M  V30 1493 C 132.209 3.85769 1.85381 0
M  V30 1494 C 131.535 4.29529 3.18448 0
M  V30 1495 C 132.835 5.09486 1.14984 0
M  V30 1496 H 134.529 2.96914 0.385059 0
M  V30 1497 H 132.075 1.42823 0.18377 0
M  V30 1498 H 134.028 3.13463 2.81636 0
M  V30 1499 H 132.752 1.90252 2.65465 0
M  V30 1500 H 131.411 3.46345 1.20169 0
M  V30 1501 H 131.059 3.43169 3.67755 0
M  V30 1502 H 130.759 5.05204 3.00071 0
M  V30 1503 H 132.283 4.72099 3.8724 0
M  V30 1504 H 133.697 5.46674 1.72687 0
M  V30 1505 H 132.094 5.90515 1.06826 0
M  V30 1506 H 133.164 4.84724 0.130749 0
M  V30 1507 N 134.507 -0.190092 1.56449 0
M  V30 1508 C 135.753 -0.911052 1.81184 0
M  V30 1509 C 136.086 -1.82699 0.658396 0
M  V30 1510 O 135.361 -1.91491 -0.340775 0
M  V30 1511 C 135.644 -1.72297 3.16205 0
M  V30 1512 C 135.497 -0.831419 4.42049 0
M  V30 1513 C 136.816 -2.69454 3.47969 0
M  V30 1514 H 133.935 -0.32977 0.659106 0
M  V30 1515 H 136.577 -0.178169 1.89163 0
M  V30 1516 H 134.727 -2.34778 3.09534 0
M  V30 1517 H 136.399 -0.220929 4.60771 0
M  V30 1518 H 134.642 -0.138406 4.33579 0
M  V30 1519 H 135.313 -1.43461 5.33032 0
M  V30 1520 H 137.789 -2.17104 3.54972 0
M  V30 1521 H 136.665 -3.23342 4.43555 0
M  V30 1522 H 136.926 -3.48744 2.71717 0
M  V30 1523 N 135.985 -1.50799 -0.457987 0
M  V30 1524 C 136.933 -1.71162 -1.575 0
M  V30 1525 C 137.927 -0.577592 -1.59249 0
M  V30 1526 O 139.133 -0.758443 -1.63241 0
M  V30 1527 H 135.508 -0.540468 -0.522875 0
M  V30 1528 H 137.479 -2.64837 -1.37492 0
M  V30 1529 C 136.228 -1.83496 -2.95338 0
M  V30 1530 H 135.551 -2.70153 -2.94716 0
M  V30 1531 H 136.991 -2.01765 -3.72917 0
M  V30 1532 C 135.45 -0.589694 -3.31699 0
M  V30 1533 O 135.98 0.265163 -4.00824 0
M  V30 1534 N 134.186 -0.439845 -2.87252 0
M  V30 1535 H 133.733 -1.13655 -2.31172 0
M  V30 1536 H 133.691 0.392159 -3.11945 0
M  V30 1537 N 137.463 0.71206 -1.40597 0
M  V30 1538 C 138.712 1.46754 -1.38369 0
M  V30 1539 C 139.025 1.95598 0.0097839 0
M  V30 1540 O 140.231 2.71059 0.154677 0
M  V30 1541 C 138.687 2.65289 -2.43207 0
M  V30 1542 C 138.295 2.23301 -3.88382 0
M  V30 1543 C 140.039 3.43008 -2.50091 0
M  V30 1544 C 137.946 3.38696 -4.84808 0
M  V30 1545 H 136.876 0.55118 -0.514506 0
M  V30 1546 H 139.527 0.774616 -1.66349 0
M  V30 1547 H 137.909 3.36769 -2.08332 0
M  V30 1548 H 139.083 1.59218 -4.32419 0
M  V30 1549 H 137.398 1.58618 -3.85006 0
M  V30 1550 H 139.995 4.28881 -3.1932 0
M  V30 1551 H 140.338 3.87065 -1.53253 0
M  V30 1552 H 140.871 2.78574 -2.83974 0
M  V30 1553 H 137.61 2.99668 -5.82992 0
M  V30 1554 H 137.13 4.01683 -4.45433 0
M  V30 1555 H 138.809 4.04712 -5.04794 0
M  V30 1556 N 138.941 1.26152 0.944643 0
M  V30 1557 C 140.189 1.11271 1.6871 0
M  V30 1558 C 140.51 -0.345166 1.91921 0
M  V30 1559 O 139.78 -1.24387 1.51343 0
M  V30 1560 H 138.36 0.408783 0.625224 0
M  V30 1561 H 141.022 1.58427 1.1352 0
M  V30 1562 H 140.118 1.62879 2.66227 0
M  V30 1563 N 140.419 -1.14872 1.07899 0
M  V30 1564 C 141.644 -1.90202 0.826926 0
M  V30 1565 C 142.069 -1.77774 -0.614664 0
M  V30 1566 O 141.427 -1.11431 -1.43013 0
M  V30 1567 C 141.475 -3.38352 1.24702 0
M  V30 1568 O 140.579 -4.10497 0.39575 0
M  V30 1569 H 139.92 -0.591968 0.300782 0
M  V30 1570 H 142.45 -1.45437 1.43907 0
M  V30 1571 H 142.46 -3.89156 1.22563 0
M  V30 1572 H 141.135 -3.46715 2.29698 0
M  V30 1573 H 139.712 -3.69796 0.480117 0
M  V30 1574 N 141.898 -0.863906 -1.31812 0
M  V30 1575 C 143.126 -0.486111 -2.01108 0
M  V30 1576 C 143.541 0.919755 -1.64882 0
M  V30 1577 O 142.898 1.60162 -0.874893 0
M  V30 1578 C 142.949 -0.626435 -3.56031 0
M  V30 1579 O 142.67 -1.97693 -3.90959 0
M  V30 1580 C 144.171 -0.248857 -4.42601 0
M  V30 1581 H 141.391 -0.190052 -0.643523 0
M  V30 1582 H 143.935 -1.1634 -1.68182 0
M  V30 1583 H 142.09 0.00322717 -3.874 0
M  V30 1584 H 142.504 -1.98034 -4.85678 0
M  V30 1585 H 143.978 -0.398016 -5.50563 0
M  V30 1586 H 144.455 0.811489 -4.31638 0
M  V30 1587 H 145.061 -0.853971 -4.16638 0
M  V30 1588 N 143.376 1.44774 -0.622745 0
M  V30 1589 C 144.653 1.95522 -0.0551974 0
M  V30 1590 C 145.033 1.5649 1.41683 0
M  V30 1591 O 144.381 0.834848 2.12703 0
M  V30 1592 C 144.591 3.4796 -0.269242 0
M  V30 1593 C 145.939 4.24306 -0.158014 0
M  V30 1594 O 146.963 3.55637 -0.200162 0
M  V30 1595 O 145.822 5.46471 -0.0558693 0
M  V30 1596 H 142.916 0.826556 0.0271015 0
M  V30 1597 H 145.462 1.54866 -0.693864 0
M  V30 1598 H 144.234 3.6939 -1.29099 0
M  V30 1599 H 143.857 3.95543 0.403966 0
M  V30 1600 N 144.854 0.36279 1.53368 0
M  V30 1601 C 146.103 -0.22888 2.00397 0
M  V30 1602 C 146.416 -1.50096 1.25421 0
M  V30 1603 O 147.622 -2.17106 1.63025 0
M  V30 1604 C 146.078 -0.458417 3.56969 0
M  V30 1605 C 145.686 0.798877 4.4082 0
M  V30 1606 C 147.43 -1.00789 4.12361 0
M  V30 1607 C 145.337 0.539078 5.88938 0
M  V30 1608 H 144.267 -0.089305 0.748693 0
M  V30 1609 H 146.918 0.481099 1.77081 0
M  V30 1610 H 145.3 -1.22959 3.76427 0
M  V30 1611 H 146.474 1.57262 4.33134 0
M  V30 1612 H 144.789 1.27137 3.96516 0
M  V30 1613 H 147.386 -1.21754 5.20653 0
M  V30 1614 H 147.729 -1.9692 3.66781 0
M  V30 1615 H 148.262 -0.296961 3.9669 0
M  V30 1616 H 145.001 1.47064 6.3879 0
M  V30 1617 H 144.521 -0.196222 5.99479 0
M  V30 1618 H 146.2 0.163542 6.46793 0
M  V30 1619 N 146.332 -1.57332 0.0918853 0
M  V30 1620 C 147.578 -1.94524 -0.573425 0
M  V30 1621 C 147.911 -0.973578 -1.68033 0
M  V30 1622 O 147.186 -0.00609226 -1.94499 0
M  V30 1623 C 147.469 -3.41858 -1.13161 0
M  V30 1624 C 147.322 -4.4979 -0.0299747 0
M  V30 1625 C 148.641 -3.90435 -2.03098 0
M  V30 1626 H 145.76 -0.70734 -0.206975 0
M  V30 1627 H 148.402 -1.89309 0.161942 0
M  V30 1628 H 146.552 -3.46433 -1.7583 0
M  V30 1629 H 148.224 -4.57327 0.604112 0
M  V30 1630 H 146.467 -4.291 0.636833 0
M  V30 1631 H 147.138 -5.50069 -0.461287 0
M  V30 1632 H 149.614 -3.87992 -1.50338 0
M  V30 1633 H 148.49 -4.94097 -2.39081 0
M  V30 1634 H 148.751 -3.29541 -2.94712 0
M  V30 1635 N 147.81 0.181792 -1.56548 0
M  V30 1636 C 149.087 0.926765 -1.72251 0
M  V30 1637 C 149.467 2.00831 -0.650386 0
M  V30 1638 O 148.815 2.26008 0.336521 0
M  V30 1639 C 149.025 1.50106 -3.1507 0
M  V30 1640 C 150.373 1.97805 -3.75711 0
M  V30 1641 O 151.397 1.59922 -3.18282 0
M  V30 1642 O 150.256 2.67555 -4.76525 0
M  V30 1643 H 147.35 0.435506 -0.703039 0
M  V30 1644 H 149.896 0.170443 -1.68842 0
M  V30 1645 H 148.668 0.72212 -3.84579 0
M  V30 1646 H 148.291 2.32186 -3.22763 0
M  V30 1647 N 149.288 1.51039 0.449983 0
M  V30 1648 C 150.536 1.62759 1.19808 0
M  V30 1649 C 150.857 0.339981 1.92013 0
M  V30 1650 O 150.127 -0.643606 1.85026 0
M  V30 1651 H 148.707 0.599811 0.445237 0
M  V30 1652 H 151.369 1.87914 0.517138 0
M  V30 1653 H 150.465 2.44911 1.93455 0
M  V30 1654 N 150.766 -0.704594 1.40972 0
M  V30 1655 C 151.714 -1.83994 1.42299 0
M  V30 1656 C 152.708 -1.66684 0.302111 0
M  V30 1657 O 153.914 -1.73655 0.473697 0
M  V30 1658 H 150.289 -0.606171 0.44504 0
M  V30 1659 H 152.26 -1.79992 2.38003 0
M  V30 1660 C 151.009 -3.21946 1.31323 0
M  V30 1661 H 150.332 -3.35878 2.16855 0
M  V30 1662 H 151.772 -4.01491 1.36311 0
M  V30 1663 C 150.231 -3.36891 0.0245977 0
M  V30 1664 O 150.761 -3.90687 -0.934153 0
M  V30 1665 N 148.967 -2.90559 -0.0485243 0
M  V30 1666 H 148.514 -2.46968 0.732419 0
M  V30 1667 H 148.472 -3.00937 -0.910171 0
M  V30 1668 N 152.244 -1.26651 -0.937939 0
M  V30 1669 C 153.194 -1.05156 -2.02302 0
M  V30 1670 C 154.178 0.0171233 -1.60891 0
M  V30 1671 O 155.37 -0.200213 -1.75864 0
M  V30 1672 C 152.499 -0.689962 -3.36295 0
M  V30 1673 C 151.585 -1.79626 -3.84181 0
M  V30 1674 N 151.976 -3.03422 -4.04684 0
M  V30 1675 C 150.274 -1.6806 -4.13124 0
M  V30 1676 C 150.975 -3.75345 -4.444 0
M  V30 1677 N 149.951 -3.03051 -4.51288 0
M  V30 1678 H 153.753 -1.99117 -2.1617 0
M  V30 1679 H 151.267 -1.17216 -1.12402 0
M  V30 1680 H 153.264 -0.517112 -4.13681 0
M  V30 1681 H 151.924 0.242139 -3.23796 0
M  V30 1682 H 152.935 -3.39293 -3.91281 0
M  V30 1683 H 149.612 -0.818629 -4.09396 0
M  V30 1684 H 151.002 -4.81691 -4.68427 0
M  V30 1685 N 153.722 1.14298 -1.08507 0
M  V30 1686 C 154.669 2.19414 -0.715965 0
M  V30 1687 C 155.639 1.63399 0.298326 0
M  V30 1688 O 156.824 1.89929 0.182101 0
M  V30 1689 C 153.964 3.44845 -0.132534 0
M  V30 1690 C 153.077 4.15007 -1.19973 0
M  V30 1691 C 152.212 5.28024 -0.580048 0
M  V30 1692 C 151.251 5.9002 -1.62921 0
M  V30 1693 N 150.388 6.94485 -1.03125 0
M  V30 1694 H 155.228 2.50336 -1.61666 0
M  V30 1695 H 152.765 1.2293 -0.807882 0
M  V30 1696 H 154.723 4.16601 0.223454 0
M  V30 1697 H 153.353 3.14403 0.731467 0
M  V30 1698 H 152.405 3.41629 -1.67313 0
M  V30 1699 H 153.717 4.57178 -1.99473 0
M  V30 1700 H 152.871 6.06455 -0.172364 0
M  V30 1701 H 151.61 4.87076 0.246603 0
M  V30 1702 H 150.615 5.10291 -2.04654 0
M  V30 1703 H 151.84 6.33042 -2.45835 0
M  V30 1704 H 149.786 6.55612 -0.225711 0
M  V30 1705 H 149.703 7.35148 -1.76334 0
M  V30 1706 H 150.971 7.7679 -0.649458 0
M  V30 1707 N 155.201 0.870884 1.31352 0
M  V30 1708 C 156.131 0.343096 2.30966 0
M  V30 1709 C 157.112 -0.566507 1.60389 0
M  V30 1710 O 158.297 -0.483336 1.88089 0
M  V30 1711 C 155.427 -0.455487 3.443 0
M  V30 1712 C 154.381 0.361103 4.26474 0
M  V30 1713 C 153.707 -0.563221 5.31725 0
M  V30 1714 C 155.007 1.59566 4.97329 0
M  V30 1715 H 156.701 1.17548 2.75359 0
M  V30 1716 H 154.247 0.566686 1.32381 0
M  V30 1717 H 156.2 -0.83525 4.13039 0
M  V30 1718 H 154.924 -1.32139 2.98675 0
M  V30 1719 H 153.583 0.722825 3.59403 0
M  V30 1720 H 153.231 -1.42643 4.82351 0
M  V30 1721 H 152.931 -0.0207409 5.87596 0
M  V30 1722 H 154.455 -0.939808 6.03324 0
M  V30 1723 H 155.869 1.28728 5.58661 0
M  V30 1724 H 154.266 2.07728 5.63 0
M  V30 1725 H 155.336 2.34798 4.24262 0
M  V30 1726 N 156.679 -1.44442 0.630414 0
M  V30 1727 C 157.907 -2.06414 0.141671 0
M  V30 1728 C 158.322 -1.47105 -1.18345 0
M  V30 1729 O 157.679 -0.593662 -1.72574 0
M  V30 1730 C 157.73 -3.61494 0.0199784 0
M  V30 1731 O 157.451 -4.18594 1.29269 0
M  V30 1732 C 158.952 -4.40499 -0.497544 0
M  V30 1733 H 156.172 -0.666292 0.0793452 0
M  V30 1734 H 158.716 -1.85323 0.864614 0
M  V30 1735 H 156.871 -3.8185 -0.653402 0
M  V30 1736 H 157.285 -5.12026 1.13707 0
M  V30 1737 H 158.759 -5.49433 -0.531708 0
M  V30 1738 H 159.236 -4.11895 -1.52445 0
M  V30 1739 H 159.842 -4.25061 0.142562 0
M  V30 1740 N 158.157 -0.370918 -1.53173 0
M  V30 1741 C 159.087 0.464847 -2.28826 0
M  V30 1742 C 160.068 1.07936 -1.31468 0
M  V30 1743 O 161.253 1.0956 -1.60344 0
M  V30 1744 C 158.383 1.60196 -3.08147 0
M  V30 1745 C 157.337 1.11443 -4.13237 0
M  V30 1746 C 156.663 2.3422 -4.80672 0
M  V30 1747 C 157.963 0.195384 -5.21934 0
M  V30 1748 H 159.657 -0.166329 -2.98938 0
M  V30 1749 H 157.203 -0.0814359 -1.4377 0
M  V30 1750 H 159.156 2.19332 -3.59822 0
M  V30 1751 H 157.88 2.26045 -2.35735 0
M  V30 1752 H 156.539 0.545727 -3.62515 0
M  V30 1753 H 156.187 2.98537 -4.04827 0
M  V30 1754 H 155.887 2.02269 -5.51689 0
M  V30 1755 H 157.411 2.94032 -5.35143 0
M  V30 1756 H 158.825 0.694375 -5.69079 0
M  V30 1757 H 157.222 -0.0335027 -6.00091 0
M  V30 1758 H 158.292 -0.760961 -4.78892 0
M  V30 1759 N 159.635 1.57281 -0.100228 0
M  V30 1760 C 160.883 1.94153 0.561157 0
M  V30 1761 C 161.204 0.983157 1.68401 0
M  V30 1762 O 160.474 0.0361132 1.95867 0
M  V30 1763 H 159.054 0.716791 0.210283 0
M  V30 1764 H 161.716 1.94202 -0.164765 0
M  V30 1765 H 160.812 2.96709 0.968008 0
M  V30 1766 N 161.113 -0.173488 1.56642 0
M  V30 1767 C 162.043 -1.2171 1.99271 0
M  V30 1768 C 163.024 -1.46289 0.867959 0
M  V30 1769 O 164.209 -1.5766 1.13388 0
M  V30 1770 C 161.339 -2.55651 2.35074 0
M  V30 1771 C 160.293 -2.45645 3.50489 0
M  V30 1772 C 159.619 -3.84056 3.72028 0
M  V30 1773 C 160.919 -1.96302 4.84007 0
M  V30 1774 H 162.613 -0.86275 2.867 0
M  V30 1775 H 160.159 -0.413571 1.37933 0
M  V30 1776 H 162.112 -3.2886 2.63494 0
M  V30 1777 H 160.836 -2.92869 1.44552 0
M  V30 1778 H 159.495 -1.7489 3.22194 0
M  V30 1779 H 159.143 -4.18664 2.788 0
M  V30 1780 H 158.843 -3.7823 4.49684 0
M  V30 1781 H 160.367 -4.58854 4.02846 0
M  V30 1782 H 161.781 -2.59284 5.11317 0
M  V30 1783 H 160.178 -2.01429 5.65284 0
M  V30 1784 H 161.248 -0.917226 4.76146 0
M  V30 1785 N 162.591 -1.51276 -0.441967 0
M  V30 1786 C 163.84 -1.6295 -1.18871 0
M  V30 1787 C 164.153 -0.349312 -1.92456 0
M  V30 1788 O 165.359 -0.345355 -2.69295 0
M  V30 1789 C 163.815 -2.87759 -2.16155 0
M  V30 1790 C 163.423 -4.22764 -1.48239 0
M  V30 1791 C 165.167 -3.08788 -2.91291 0
M  V30 1792 C 163.074 -5.38728 -2.4398 0
M  V30 1793 H 162.004 -0.606913 -0.447406 0
M  V30 1794 H 164.655 -1.77739 -0.456205 0
M  V30 1795 H 163.037 -2.66593 -2.92821 0
M  V30 1796 H 164.211 -4.54293 -0.771635 0
M  V30 1797 H 162.526 -4.07575 -0.852741 0
M  V30 1798 H 165.123 -3.92599 -3.63002 0
M  V30 1799 H 165.466 -2.21679 -3.5237 0
M  V30 1800 H 165.999 -3.30272 -2.21733 0
M  V30 1801 H 162.738 -6.28082 -1.87598 0
M  V30 1802 H 162.258 -5.1158 -3.13123 0
M  V30 1803 H 163.937 -5.70489 -3.05207 0
M  V30 1804 N 164.069 0.697108 -1.41344 0
M  V30 1805 C 165.315 1.45796 -1.41828 0
M  V30 1806 C 165.67 1.92382 -0.0261743 0
M  V30 1807 O 164.963 1.66522 0.947688 0
M  V30 1808 C 165.157 2.68553 -2.35826 0
M  V30 1809 C 164.986 2.33975 -3.84039 0
M  V30 1810 C 163.756 2.24414 -4.52732 0
M  V30 1811 C 165.954 1.97048 -4.75054 0
M  V30 1812 N 163.936 1.82705 -5.86082 0
M  V30 1813 C 165.307 1.66086 -5.9734 0
M  V30 1814 C 167.362 1.83845 -4.62715 0
M  V30 1815 C 166.065 1.23246 -7.08663 0
M  V30 1816 C 168.091 1.4241 -5.73998 0
M  V30 1817 C 167.453 1.12357 -6.95381 0
M  V30 1818 H 163.552 0.530859 -0.574206 0
M  V30 1819 H 166.136 0.806674 -1.77203 0
M  V30 1820 H 164.307 3.31404 -2.02549 0
M  V30 1821 H 166.039 3.35015 -2.2704 0
M  V30 1822 H 162.794 2.4276 -4.0665 0
M  V30 1823 H 163.218 1.64337 -6.56751 0
M  V30 1824 H 167.86 2.05734 -3.69369 0
M  V30 1825 H 165.578 1.00102 -8.01876 0
M  V30 1826 H 169.164 1.32746 -5.66454 0
M  V30 1827 H 168.044 0.807795 -7.80028 0
M  V30 1828 N 165.547 1.27147 0.931209 0
M  V30 1829 C 166.495 1.09398 2.05268 0
M  V30 1830 C 167.489 0.0180591 1.6939 0
M  V30 1831 O 168.695 0.17551 1.79142 0
M  V30 1832 H 165.07 0.336986 0.672268 0
M  V30 1833 H 167.041 2.04416 2.17386 0
M  V30 1834 C 165.79 0.75424 3.39421 0
M  V30 1835 H 165.113 1.57404 3.67511 0
M  V30 1836 H 166.553 0.669903 4.18674 0
M  V30 1837 C 165.012 -0.541197 3.32525 0
M  V30 1838 O 165.542 -1.57664 3.69466 0
M  V30 1839 N 163.748 -0.535517 2.85623 0
M  V30 1840 H 163.295 0.307511 2.55758 0
M  V30 1841 H 163.253 -1.40236 2.81392 0
M  V30 1842 N 167.025 -1.13721 1.09112 0
M  V30 1843 C 168.274 -1.84275 0.82009 0
M  V30 1844 C 168.587 -1.84253 -0.656509 0
M  V30 1845 O 169.793 -2.50668 -1.04296 0
M  V30 1846 C 168.249 -3.30825 1.41714 0
M  V30 1847 C 167.857 -3.39244 2.92605 0
M  V30 1848 C 169.601 -4.06443 1.22492 0
M  V30 1849 C 167.508 -4.80047 3.45411 0
M  V30 1850 H 166.438 -0.690387 0.30312 0
M  V30 1851 H 169.089 -1.28146 1.31343 0
M  V30 1852 H 167.471 -3.86737 0.851498 0
M  V30 1853 H 168.645 -2.93344 3.55367 0
M  V30 1854 H 166.96 -2.77088 3.10823 0
M  V30 1855 H 169.557 -5.10387 1.59402 0
M  V30 1856 H 169.9 -4.15972 0.165299 0
M  V30 1857 H 170.433 -3.56852 1.75788 0
M  V30 1858 H 167.172 -4.75709 4.50978 0
M  V30 1859 H 166.692 -5.26455 2.87411 0
M  V30 1860 H 168.371 -5.48957 3.42425 0
M  V30 1861 N 168.503 -0.877838 -1.30888 0
M  V30 1862 C 169.752 -0.488793 -1.95688 0
M  V30 1863 C 170.065 0.965485 -1.70111 0
M  V30 1864 O 171.271 1.46104 -2.28836 0
M  V30 1865 C 169.727 -0.823201 -3.50359 0
M  V30 1866 C 169.335 -2.29477 -3.84765 0
M  V30 1867 C 171.079 -0.503009 -4.21509 0
M  V30 1868 C 168.986 -2.57118 -5.32583 0
M  V30 1869 H 167.916 -0.179062 -0.732429 0
M  V30 1870 H 170.567 -1.07183 -1.48943 0
M  V30 1871 H 168.949 -0.169331 -3.95638 0
M  V30 1872 H 170.123 -2.99236 -3.5042 0
M  V30 1873 H 168.438 -2.58178 -3.267 0
M  V30 1874 H 171.035 -0.68665 -5.30273 0
M  V30 1875 H 171.378 0.557109 -4.12555 0
M  V30 1876 H 171.911 -1.11376 -3.8189 0
M  V30 1877 H 168.65 -3.61843 -5.4658 0
M  V30 1878 H 168.17 -1.91961 -5.68253 0
M  V30 1879 H 169.849 -2.42251 -5.99936 0
M  V30 1880 N 169.982 1.44106 -0.638065 0
M  V30 1881 C 170.912 2.33448 0.0494287 0
M  V30 1882 C 171.893 1.48606 0.827672 0
M  V30 1883 O 173.078 1.77308 0.792173 0
M  V30 1884 C 170.208 3.31771 1.02691 0
M  V30 1885 C 169.162 4.26485 0.359823 0
M  V30 1886 C 168.488 5.14729 1.44769 0
M  V30 1887 C 169.788 5.17056 -0.738296 0
M  V30 1888 H 171.482 2.91183 -0.696636 0
M  V30 1889 H 169.028 1.40014 -0.336456 0
M  V30 1890 H 170.981 3.93161 1.51666 0
M  V30 1891 H 169.705 2.7226 1.80395 0
M  V30 1892 H 168.364 3.66437 -0.10934 0
M  V30 1893 H 168.012 4.51566 2.21578 0
M  V30 1894 H 167.712 5.78913 1.00668 0
M  V30 1895 H 169.236 5.78991 1.93911 0
M  V30 1896 H 170.65 5.72342 -0.331354 0
M  V30 1897 H 169.047 5.89879 -1.10286 0
M  V30 1898 H 170.117 4.57652 -1.60258 0
M  V30 1899 N 171.46 0.379036 1.52974 0
M  V30 1900 C 172.41 -0.477772 2.22938 0
M  V30 1901 C 173.394 -1.03792 1.22948 0
M  V30 1902 O 174.586 -0.965725 1.48333 0
M  V30 1903 C 171.715 -1.60994 3.03209 0
M  V30 1904 C 170.801 -1.06203 4.10587 0
M  V30 1905 N 171.192 -0.238214 5.05239 0
M  V30 1906 C 169.49 -1.33554 4.25534 0
M  V30 1907 C 170.191 0.0633235 5.81666 0
M  V30 1908 N 169.167 -0.537901 5.40932 0
M  V30 1909 H 172.969 0.158295 2.93473 0
M  V30 1910 H 170.483 0.187778 1.61311 0
M  V30 1911 H 172.48 -2.23607 3.5186 0
M  V30 1912 H 171.14 -2.24893 2.34207 0
M  V30 1913 H 172.151 0.123695 5.17752 0
M  V30 1914 H 168.828 -1.97632 3.6776 0
M  V30 1915 H 170.218 0.730161 6.67921 0
M  V30 1916 N 172.938 -1.57226 0.108567 0
M  V30 1917 C 174.184 -1.95919 -0.546564 0
M  V30 1918 C 174.539 -0.990417 -1.6495 0
M  V30 1919 O 173.832 -0.0186593 -1.91591 0
M  V30 1920 C 174.026 -3.38911 -1.13463 0
M  V30 1921 C 173.855 -4.4961 -0.0901926 0
M  V30 1922 C 172.625 -5.04168 0.338008 0
M  V30 1923 C 174.823 -5.09693 0.686808 0
M  V30 1924 N 172.805 -5.98434 1.36931 0
M  V30 1925 C 174.176 -5.99804 1.56958 0
M  V30 1926 C 176.231 -4.92388 0.738846 0
M  V30 1927 C 174.934 -6.74463 2.49983 0
M  V30 1928 C 176.96 -5.67719 1.65676 0
M  V30 1929 C 176.322 -6.57507 2.52713 0
M  V30 1930 H 172.421 -0.763312 -0.169936 0
M  V30 1931 H 175.005 -1.93728 0.194264 0
M  V30 1932 H 173.176 -3.41769 -1.84522 0
M  V30 1933 H 174.908 -3.64752 -1.75322 0
M  V30 1934 H 171.663 -4.73571 -0.0523673 0
M  V30 1935 H 172.087 -6.5027 1.88356 0
M  V30 1936 H 176.729 -4.22724 0.080084 0
M  V30 1937 H 174.447 -7.4338 3.16878 0
M  V30 1938 H 178.033 -5.56338 1.70233 0
M  V30 1939 H 176.913 -7.14778 3.22586 0
M  V30 1940 N 174.416 0.165178 -1.56732 0
M  V30 1941 C 175.348 1.22911 -1.93457 0
M  V30 1942 C 176.361 1.40152 -0.828333 0
M  V30 1943 O 177.55 1.40046 -1.10677 0
M  V30 1944 C 174.65 2.59686 -2.17753 0
M  V30 1945 C 173.823 2.63663 -3.48999 0
M  V30 1946 C 172.882 3.81845 -3.62051 0
M  V30 1947 O 171.908 3.67559 -4.34613 0
M  V30 1948 N 173.11 4.98557 -2.97357 0
M  V30 1949 H 175.875 0.917118 -2.85323 0
M  V30 1950 H 173.436 0.354895 -1.57962 0
M  V30 1951 H 175.428 3.37225 -2.23743 0
M  V30 1952 H 173.998 2.83251 -1.32242 0
M  V30 1953 H 173.218 1.72173 -3.54612 0
M  V30 1954 H 174.506 2.63336 -4.35352 0
M  V30 1955 H 173.904 5.13065 -2.38287 0
M  V30 1956 H 172.461 5.73936 -3.08934 0
M  V30 1957 N 175.894 1.51508 0.433938 0
M  V30 1958 C 177.14 1.64588 1.18484 0
M  V30 1959 C 177.473 0.362666 1.90784 0
M  V30 1960 O 176.748 -0.637892 1.83742 0
M  V30 1961 C 177.031 2.85149 2.19913 0
M  V30 1962 C 176.884 4.23456 1.51674 0
M  V30 1963 C 178.203 3.01227 3.20858 0
M  V30 1964 H 175.322 0.598994 0.429389 0
M  V30 1965 H 177.964 1.84002 0.473647 0
M  V30 1966 H 176.114 2.68729 2.80566 0
M  V30 1967 H 177.786 4.51552 0.943322 0
M  V30 1968 H 176.029 4.25998 0.819035 0
M  V30 1969 H 176.7 5.03812 2.2556 0
M  V30 1970 H 179.176 3.16382 2.70263 0
M  V30 1971 H 178.052 3.87141 3.89118 0
M  V30 1972 H 178.313 2.13447 3.8716 0
M  V30 1973 N 177.372 -0.689602 1.41712 0
M  V30 1974 C 178.319 -1.80345 1.44029 0
M  V30 1975 C 179.289 -1.63478 0.293948 0
M  V30 1976 O 180.474 -1.84244 0.495869 0
M  V30 1977 C 177.614 -3.18272 1.33405 0
M  V30 1978 C 176.727 -3.46529 2.57956 0
M  V30 1979 C 175.862 -4.74103 2.39582 0
M  V30 1980 C 174.901 -4.95347 3.5958 0
M  V30 1981 N 174.038 -6.14151 3.40239 0
M  V30 1982 H 178.878 -1.77698 2.39222 0
M  V30 1983 H 176.415 -0.867688 1.18784 0
M  V30 1984 H 178.373 -3.97956 1.25246 0
M  V30 1985 H 177.003 -3.2008 0.418164 0
M  V30 1986 H 176.055 -2.61207 2.76542 0
M  V30 1987 H 177.367 -3.58126 3.47199 0
M  V30 1988 H 176.521 -5.61853 2.28924 0
M  V30 1989 H 175.26 -4.64763 1.47805 0
M  V30 1990 H 174.265 -4.06044 3.70686 0
M  V30 1991 H 175.49 -5.06542 4.52318 0
M  V30 1992 H 173.436 -6.06013 2.51167 0
M  V30 1993 H 173.353 -6.26543 4.23061 0
M  V30 1994 H 174.621 -7.04619 3.33365 0
M  V30 1995 N 178.85 -1.27639 -0.924453 0
M  V30 1996 C 179.798 -1.10485 -2.04685 0
M  V30 1997 C 180.792 -0.0270421 -1.69378 0
M  V30 1998 O 181.998 -0.185008 -1.79047 0
M  V30 1999 H 178.373 -0.340546 -0.670472 0
M  V30 2000 H 180.344 -2.05566 -2.16298 0
M  V30 2001 C 179.093 -0.772229 -3.39016 0
M  V30 2002 H 178.416 -1.59351 -3.66671 0
M  V30 2003 H 179.856 -0.692097 -4.18313 0
M  V30 2004 C 178.315 0.523554 -3.32807 0
M  V30 2005 O 178.845 1.55702 -3.70297 0
M  V30 2006 N 177.051 0.520363 -2.85903 0
M  V30 2007 H 176.598 -0.32107 -2.55591 0
M  V30 2008 H 176.556 1.38742 -2.82131 0
M  V30 2009 N 180.328 1.1314 -1.09713 0
M  V30 2010 C 181.574 1.84757 -0.836224 0
M  V30 2011 C 181.907 1.8347 0.636598 0
M  V30 2012 O 181.182 1.27491 1.46889 0
M  V30 2013 C 181.465 3.32782 -1.37578 0
M  V30 2014 C 181.318 3.42567 -2.91493 0
M  V30 2015 C 182.637 4.28307 -1.01198 0
M  V30 2016 H 179.756 0.67082 -0.305236 0
M  V30 2017 H 182.398 1.3278 -1.35903 0
M  V30 2018 H 180.548 3.77177 -0.931097 0
M  V30 2019 H 182.22 3.06862 -3.44432 0
M  V30 2020 H 180.463 2.83349 -3.28475 0
M  V30 2021 H 181.134 4.46674 -3.24324 0
M  V30 2022 H 183.61 3.91999 -1.39556 0
M  V30 2023 H 182.486 5.30307 -1.41653 0
M  V30 2024 H 182.747 4.42029 0.0794833 0
M  V30 2025 N 181.806 0.884767 1.30421 0
M  V30 2026 C 182.739 0.295999 2.26272 0
M  V30 2027 C 183.717 -0.58332 1.51777 0
M  V30 2028 O 184.901 -0.53346 1.80794 0
M  V30 2029 C 182.028 -0.57944 3.33707 0
M  V30 2030 C 181.074 0.230525 4.25877 0
M  V30 2031 S 181.907 1.61867 5.1045 0
M  V30 2032 C 183.063 0.749756 6.21393 0
M  V30 2033 H 183.296 1.10848 2.75862 0
M  V30 2034 H 180.829 0.684178 1.38414 0
M  V30 2035 H 182.787 -1.07879 3.96071 0
M  V30 2036 H 181.448 -1.36601 2.82841 0
M  V30 2037 H 180.641 -0.437542 5.02097 0
M  V30 2038 H 180.243 0.662493 3.68086 0
M  V30 2039 H 182.535 -0.0333547 6.77492 0
M  V30 2040 H 183.478 1.48356 6.92384 0
M  V30 2041 H 183.886 0.310751 5.63644 0
M  V30 2042 N 183.284 -1.43765 0.645699 0
M  V30 2043 C 184.231 -2.30745 -0.0504648 0
M  V30 2044 C 185.201 -1.4432 -0.822241 0
M  V30 2045 O 186.386 -1.73202 -0.800358 0
M  V30 2046 C 183.526 -3.29802 -1.0161 0
M  V30 2047 C 182.639 -4.31326 -0.241219 0
M  V30 2048 C 181.774 -5.17469 -1.19998 0
M  V30 2049 C 180.813 -6.10691 -0.415094 0
M  V30 2050 N 179.95 -6.89483 -1.32506 0
M  V30 2051 H 184.79 -2.8973 0.697155 0
M  V30 2052 H 182.327 -1.42738 0.355563 0
M  V30 2053 H 184.285 -3.85734 -1.58949 0
M  V30 2054 H 182.915 -2.72483 -1.73069 0
M  V30 2055 H 181.967 -3.77749 0.448334 0
M  V30 2056 H 183.279 -4.9743 0.369437 0
M  V30 2057 H 182.433 -5.7799 -1.84424 0
M  V30 2058 H 181.172 -4.51473 -1.84455 0
M  V30 2059 H 180.177 -5.49265 0.242565 0
M  V30 2060 H 181.402 -6.78727 0.224966 0
M  V30 2061 H 179.348 -6.26142 -1.95657 0
M  V30 2062 H 179.265 -7.52081 -0.768783 0
M  V30 2063 H 180.533 -7.54516 -1.9577 0
M  V30 2064 N 184.763 -0.387143 -1.52771 0
M  V30 2065 C 185.711 0.463953 -2.27926 0
M  V30 2066 C 186.705 1.06493 -1.31741 0
M  V30 2067 O 187.911 1.00565 -1.49287 0
M  V30 2068 H 184.286 0.16837 -0.732909 0
M  V30 2069 H 186.257 -0.19141 -2.97785 0
M  V30 2070 C 185.006 1.5803 -3.09713 0
M  V30 2071 H 184.329 1.12718 -3.83581 0
M  V30 2072 H 185.769 2.15008 -3.65442 0
M  V30 2073 C 184.228 2.53509 -2.2189 0
M  V30 2074 O 184.758 3.56863 -1.84422 0
M  V30 2075 N 182.964 2.23199 -1.86093 0
M  V30 2076 H 182.511 1.39185 -2.16761 0
M  V30 2077 H 182.469 2.87333 -1.27621 0
M  V30 2078 N 186.241 1.57166 -0.116904 0
M  V30 2079 C 187.49 1.94298 0.541407 0
M  V30 2080 C 187.803 1.00236 1.67964 0
M  V30 2081 O 189.009 1.26826 2.40057 0
M  V30 2082 C 187.465 3.45306 1.01449 0
M  V30 2083 C 187.073 4.47899 -0.0951738 0
M  V30 2084 C 188.817 3.91361 1.6443 0
M  V30 2085 C 186.724 5.90083 0.394491 0
M  V30 2086 H 185.654 0.725308 0.206019 0
M  V30 2087 H 188.305 1.82446 -0.196419 0
M  V30 2088 H 186.687 3.52385 1.80667 0
M  V30 2089 H 187.861 4.52486 -0.871374 0
M  V30 2090 H 186.176 4.11583 -0.631505 0
M  V30 2091 H 188.773 4.95004 2.02176 0
M  V30 2092 H 189.116 3.3122 2.52189 0
M  V30 2093 H 189.649 3.87073 0.917559 0
M  V30 2094 H 186.388 6.53974 -0.447004 0
M  V30 2095 H 185.908 5.88921 1.13722 0
M  V30 2096 H 187.587 6.41307 0.856399 0
M  V30 2097 N 187.719 -0.156864 1.56817 0
M  V30 2098 C 188.652 -1.22316 1.9265 0
M  V30 2099 C 189.63 -1.42059 0.791076 0
M  V30 2100 O 190.814 -1.56831 1.04576 0
M  V30 2101 C 187.941 -2.58375 2.18998 0
M  V30 2102 C 186.987 -2.55284 3.41661 0
M  V30 2103 S 187.82 -2.02946 4.95553 0
M  V30 2104 C 188.976 -3.40753 5.25013 0
M  V30 2105 H 189.209 -0.917403 2.82791 0
M  V30 2106 H 186.742 -0.362059 1.50095 0
M  V30 2107 H 188.7 -3.36677 2.34859 0
M  V30 2108 H 187.361 -2.86145 1.29538 0
M  V30 2109 H 186.554 -3.55418 3.57343 0
M  V30 2110 H 186.156 -1.85086 3.24991 0
M  V30 2111 H 188.448 -4.36819 5.17876 0
M  V30 2112 H 189.391 -3.29933 6.26538 0
M  V30 2113 H 189.799 -3.37433 4.52548 0
M  V30 2114 N 189.197 -1.51736 -0.425897 0
M  V30 2115 C 190.16 -1.73271 -1.50032 0
M  V30 2116 C 191.16 -0.602639 -1.4908 0
M  V30 2117 O 192.35 -0.87033 -1.509 0
M  V30 2118 C 189.482 -1.79969 -2.89523 0
M  V30 2119 H 190.675 -2.69172 -1.32237 0
M  V30 2120 H 188.228 -1.41899 -0.65532 0
M  V30 2121 H 188.963 -0.859241 -3.1271 0
M  V30 2122 H 188.748 -2.62109 -2.91619 0
M  V30 2123 H 190.238 -1.9843 -3.67444 0
M  V30 2124 N 190.675 0.682077 -1.42076 0
M  V30 2125 C 191.923 1.4393 -1.41876 0
M  V30 2126 C 192.244 1.94971 -0.0335599 0
M  V30 2127 O 191.514 1.72591 0.926773 0
M  V30 2128 H 190.094 0.534085 -0.522267 0
M  V30 2129 H 192.756 0.806427 -1.77434 0
M  V30 2130 H 191.852 2.29588 -2.11414 0
M  V30 2131 N 192.153 1.28127 0.917671 0
M  V30 2132 C 193.083 1.14248 2.03641 0
M  V30 2133 C 194.064 0.0412748 1.7005 0
M  V30 2134 O 195.249 0.217566 1.92977 0
M  V30 2135 C 192.379 0.799431 3.37974 0
M  V30 2136 C 191.333 1.85497 3.85713 0
M  V30 2137 C 190.659 1.36565 5.16966 0
M  V30 2138 C 191.959 3.26085 4.08002 0
M  V30 2139 H 193.653 2.07835 2.15511 0
M  V30 2140 H 191.199 1.00064 1.03553 0
M  V30 2141 H 193.152 0.689114 4.15727 0
M  V30 2142 H 191.876 -0.172145 3.26146 0
M  V30 2143 H 190.535 1.95437 3.10161 0
M  V30 2144 H 190.183 0.383253 5.01538 0
M  V30 2145 H 189.883 2.07143 5.49878 0
M  V30 2146 H 191.407 1.26848 5.97279 0
M  V30 2147 H 192.821 3.19089 4.76293 0
M  V30 2148 H 191.218 3.94462 4.52238 0
M  V30 2149 H 192.288 3.70394 3.12948 0
M  V30 2150 N 193.631 -1.12557 1.10312 0
M  V30 2151 C 194.563 -2.17971 0.708625 0
M  V30 2152 C 195.576 -1.60806 -0.254027 0
M  V30 2153 O 196.765 -1.78458 -0.0386891 0
M  V30 2154 C 193.865 -3.38891 0.0248198 0
M  V30 2155 C 193.038 -4.25548 1.01132 0
M  V30 2156 C 192.097 -5.24972 0.35924 0
M  V30 2157 O 191.123 -5.60174 1.00965 0
M  V30 2158 N 192.325 -5.73747 -0.882847 0
M  V30 2159 H 195.09 -2.52427 1.61557 0
M  V30 2160 H 192.651 -1.27967 0.991771 0
M  V30 2161 H 194.643 -4.02485 -0.422852 0
M  V30 2162 H 193.213 -3.02596 -0.784514 0
M  V30 2163 H 192.433 -3.58589 1.6373 0
M  V30 2164 H 193.721 -4.80294 1.67914 0
M  V30 2165 H 193.119 -5.4731 -1.43065 0
M  V30 2166 H 191.676 -6.39234 -1.27369 0
M  V30 2167 N 195.109 -0.891671 -1.2995 0
M  V30 2168 C 196.041 -0.320695 -2.26945 0
M  V30 2169 C 197.054 0.528497 -1.53983 0
M  V30 2170 O 198.243 0.346959 -1.75096 0
M  V30 2171 C 195.343 0.562066 -3.34207 0
M  V30 2172 C 194.516 -0.259576 -4.36629 0
M  V30 2173 C 193.575 0.554739 -5.23268 0
M  V30 2174 O 192.601 -0.0249311 -5.69195 0
M  V30 2175 N 193.803 1.8625 -5.4981 0
M  V30 2176 H 196.568 -1.15432 -2.76578 0
M  V30 2177 H 194.129 -0.755336 -1.432 0
M  V30 2178 H 196.121 1.11304 -3.89093 0
M  V30 2179 H 194.691 1.29637 -2.84452 0
M  V30 2180 H 193.911 -0.991986 -3.81514 0
M  V30 2181 H 195.199 -0.822564 -5.02107 0
M  V30 2182 H 194.597 2.35628 -5.14292 0
M  V30 2183 H 193.154 2.36078 -6.07545 0
M  V30 2184 N 196.587 1.43421 -0.653314 0
M  V30 2185 C 197.815 2.06163 -0.174491 0
M  V30 2186 C 198.23 1.48969 1.1599 0
M  V30 2187 O 197.587 0.621042 1.71608 0
M  V30 2188 C 197.638 3.61417 -0.0774865 0
M  V30 2189 O 197.359 4.16485 -1.35912 0
M  V30 2190 C 198.86 4.41235 0.427402 0
M  V30 2191 H 196.08 0.664946 -0.0899353 0
M  V30 2192 H 198.624 1.83924 -0.893988 0
M  V30 2193 H 196.779 3.82841 0.59257 0
M  V30 2194 H 197.193 5.10153 -1.21839 0
M  V30 2195 H 198.667 5.5021 0.44423 0
M  V30 2196 H 199.144 4.14268 1.45873 0
M  V30 2197 H 199.75 4.2478 -0.210167 0
M  V30 2198 N 198.065 0.39524 1.52563 0
M  V30 2199 C 199.013 -0.451859 2.28169 0
M  V30 2200 C 200.007 -1.05792 1.32304 0
M  V30 2201 O 201.213 -0.997718 1.49818 0
M  V30 2202 H 197.588 -0.164481 0.733792 0
M  V30 2203 H 199.559 0.207199 2.9768 0
M  V30 2204 C 198.308 -1.56385 3.10546 0
M  V30 2205 H 197.631 -1.10682 3.84174 0
M  V30 2206 H 199.071 -2.13067 3.66577 0
M  V30 2207 C 197.53 -2.52328 2.23231 0
M  V30 2208 O 198.06 -3.5588 1.86312 0
M  V30 2209 N 196.266 -2.22209 1.87274 0
M  V30 2210 H 195.813 -1.38033 2.17496 0
M  V30 2211 H 195.771 -2.86652 1.29143 0
M  V30 2212 N 199.544 -1.57102 0.125237 0
M  V30 2213 C 200.769 -2.0019 -0.542101 0
M  V30 2214 C 201.194 -1.00449 -1.59034 0
M  V30 2215 O 200.552 0.0229423 -1.81285 0
M  V30 2216 C 200.6 -3.42129 -1.13929 0
M  V30 2217 O 199.704 -3.45307 -2.2547 0
M  V30 2218 H 199.045 -0.650171 -0.134812 0
M  V30 2219 H 201.575 -2.03461 0.215553 0
M  V30 2220 H 201.585 -3.80471 -1.4733 0
M  V30 2221 H 200.26 -4.14237 -0.371531 0
M  V30 2222 H 198.837 -3.1879 -1.93462 0
M  V30 2223 N 201.022 0.148545 -1.56898 0
M  V30 2224 C 201.932 1.20293 -2.01412 0
M  V30 2225 C 202.948 1.47107 -0.929273 0
M  V30 2226 O 204.124 1.58807 -1.23863 0
M  V30 2227 C 201.189 2.51682 -2.38447 0
M  V30 2228 C 200.25 2.32529 -3.60872 0
M  V30 2229 C 199.483 3.57653 -3.96132 0
M  V30 2230 O 199.706 4.63771 -3.32073 0
M  V30 2231 O 198.64 3.50408 -4.89385 0
M  V30 2232 H 202.466 0.855025 -2.91416 0
M  V30 2233 H 200.051 0.357151 -1.45068 0
M  V30 2234 H 201.933 3.29147 -2.63135 0
M  V30 2235 H 200.608 2.86006 -1.51599 0
M  V30 2236 H 199.515 1.53019 -3.41373 0
M  V30 2237 H 200.848 2.03121 -4.48333 0
M  V30 2238 N 202.5 1.5196 0.417844 0
M  V30 2239 C 203.447 1.74678 1.50852 0
M  V30 2240 C 204.417 0.588947 1.55308 0
M  V30 2241 O 205.602 0.825544 1.72016 0
M  V30 2242 C 202.742 1.89544 2.88387 0
M  V30 2243 C 201.855 3.17166 2.93309 0
M  V30 2244 C 200.99 3.22513 4.22088 0
M  V30 2245 C 200.029 4.44372 4.20951 0
M  V30 2246 N 199.166 4.47161 5.41287 0
M  V30 2247 H 204.006 2.67768 1.30783 0
M  V30 2248 H 201.543 1.32689 0.63498 0
M  V30 2249 H 203.501 1.96146 3.68216 0
M  V30 2250 H 202.131 0.998424 3.06971 0
M  V30 2251 H 201.183 3.19778 2.06024 0
M  V30 2252 H 202.495 4.07021 2.88332 0
M  V30 2253 H 201.649 3.28139 5.10303 0
M  V30 2254 H 200.388 2.30581 4.29748 0
M  V30 2255 H 199.393 4.38902 3.31127 0
M  V30 2256 H 200.618 5.3759 4.14938 0
M  V30 2257 H 198.564 3.58108 5.49632 0
M  V30 2258 H 198.481 5.3085 5.3827 0
M  V30 2259 H 199.749 4.57005 6.3148 0
M  V30 2260 N 203.978 -0.674533 1.42435 0
M  V30 2261 C 205.227 -1.43034 1.42212 0
M  V30 2262 C 205.54 -1.95555 0.0420788 0
M  V30 2263 O 206.746 -2.71374 -0.0827558 0
M  V30 2264 C 205.202 -2.58748 2.50155 0
M  V30 2265 C 204.81 -2.12925 3.94166 0
M  V30 2266 C 206.554 -3.36257 2.59098 0
M  V30 2267 C 204.461 -3.25723 4.93618 0
M  V30 2268 H 203.391 -0.537345 0.528939 0
M  V30 2269 H 206.042 -0.73024 1.68344 0
M  V30 2270 H 204.424 -3.31128 2.17188 0
M  V30 2271 H 205.598 -1.47697 4.36488 0
M  V30 2272 H 203.913 -1.48354 3.89076 0
M  V30 2273 H 206.51 -4.20264 3.30578 0
M  V30 2274 H 206.853 -3.82866 1.63461 0
M  V30 2275 H 207.386 -2.70947 2.9126 0
M  V30 2276 H 204.125 -2.84105 5.90732 0
M  V30 2277 H 203.645 -3.89732 4.55926 0
M  V30 2278 H 205.324 -3.91186 5.15347 0
M  V30 2279 N 205.456 -1.28612 -0.910864 0
M  V30 2280 C 206.386 -1.15326 -2.03032 0
M  V30 2281 C 207.367 -0.0502924 -1.70026 0
M  V30 2282 O 208.552 -0.227797 -1.92859 0
M  V30 2283 C 205.682 -0.817343 -3.37545 0
M  V30 2284 C 204.636 -1.8754 -3.84724 0
M  V30 2285 C 203.962 -1.39305 -5.16235 0
M  V30 2286 C 205.262 -3.28244 -4.06267 0
M  V30 2287 H 206.956 -2.08975 -2.14406 0
M  V30 2288 H 204.502 -1.00612 -1.03021 0
M  V30 2289 H 206.455 -0.711151 -4.15356 0
M  V30 2290 H 205.179 0.154846 -3.26233 0
M  V30 2291 H 203.838 -1.97079 -3.09121 0
M  V30 2292 H 203.486 -0.409846 -5.01328 0
M  V30 2293 H 203.186 -2.10057 -5.48771 0
M  V30 2294 H 204.71 -1.30014 -5.96598 0
M  V30 2295 H 206.124 -3.21611 -4.74594 0
M  V30 2296 H 204.521 -3.96855 -4.5014 0
M  V30 2297 H 205.591 -3.72048 -3.10979 0
M  V30 2298 N 206.934 1.1197 -1.10907 0
M  V30 2299 C 207.864 2.19928 -0.784473 0
M  V30 2300 C 208.845 1.6833 0.244726 0
M  V30 2301 O 210.03 1.93892 0.109418 0
M  V30 2302 C 207.16 3.46597 -0.220827 0
M  V30 2303 C 206.114 4.11376 -1.18127 0
M  V30 2304 C 205.44 5.32554 -0.478594 0
M  V30 2305 C 206.74 4.56945 -2.52979 0
M  V30 2306 H 208.434 2.47337 -1.68715 0
M  V30 2307 H 205.98 1.18879 -0.812642 0
M  V30 2308 H 207.933 4.21396 0.0184278 0
M  V30 2309 H 206.657 3.1863 0.717113 0
M  V30 2310 H 205.316 3.38564 -1.40606 0
M  V30 2311 H 204.964 5.00856 0.463976 0
M  V30 2312 H 204.664 5.76844 -1.11912 0
M  V30 2313 H 206.188 6.10096 -0.248 0
M  V30 2314 H 207.602 5.23093 -2.3462 0
M  V30 2315 H 205.999 5.1203 -3.12962 0
M  V30 2316 H 207.069 3.70676 -3.12614 0
M  V30 2317 N 208.412 0.89855 1.29475 0
M  V30 2318 C 209.637 0.538561 2.00285 0
M  V30 2319 C 210.062 -0.869135 1.66816 0
M  V30 2320 O 209.42 -1.57831 0.892145 0
M  V30 2321 C 209.468 0.736475 3.52999 0
M  V30 2322 O 208.572 -0.211537 4.11857 0
M  V30 2323 H 207.913 0.210563 0.62973 0
M  V30 2324 H 210.443 1.20982 1.64998 0
M  V30 2325 H 210.453 0.640685 4.02938 0
M  V30 2326 H 209.128 1.76276 3.76696 0
M  V30 2327 H 207.705 -0.0682991 3.72837 0
M  V30 2328 N 209.89 -1.43072 0.660911 0
M  V30 2329 C 211.136 -2.02545 0.186337 0
M  V30 2330 C 211.491 -1.51253 -1.18913 0
M  V30 2331 O 210.784 -0.699167 -1.78388 0
M  V30 2332 C 210.978 -3.57103 0.145563 0
M  V30 2333 C 210.807 -4.23393 1.51554 0
M  V30 2334 C 209.577 -4.59144 2.10984 0
M  V30 2335 C 211.775 -4.51897 2.45548 0
M  V30 2336 N 209.757 -5.10545 3.40907 0
M  V30 2337 C 211.128 -5.04698 3.6011 0
M  V30 2338 C 213.183 -4.33872 2.44253 0
M  V30 2339 C 211.886 -5.41371 4.73613 0
M  V30 2340 C 213.912 -4.71612 3.56842 0
M  V30 2341 C 213.274 -5.24553 4.70131 0
M  V30 2342 H 209.373 -0.773823 0.112792 0
M  V30 2343 H 211.957 -1.74137 0.870885 0
M  V30 2344 H 210.128 -3.85059 -0.508353 0
M  V30 2345 H 211.86 -4.03264 -0.340598 0
M  V30 2346 H 208.615 -4.4444 1.63615 0
M  V30 2347 H 209.039 -5.40689 4.07411 0
M  V30 2348 H 213.681 -3.92208 1.579 0
M  V30 2349 H 211.399 -5.81975 5.60652 0
M  V30 2350 H 214.985 -4.59354 3.57051 0
M  V30 2351 H 213.865 -5.53213 5.5581 0
M  V30 2352 N 211.368 -0.403325 -1.52352 0
M  V30 2353 C 212.614 0.174605 -2.02047 0
M  V30 2354 C 212.947 1.45282 -1.28867 0
M  V30 2355 O 212.222 1.90483 -0.393257 0
M  V30 2356 C 212.505 0.428238 -3.57545 0
M  V30 2357 C 212.358 -0.866248 -4.4138 0
M  V30 2358 C 213.677 1.21287 -4.23057 0
M  V30 2359 H 210.796 0.0619851 -0.734389 0
M  V30 2360 H 213.438 -0.53565 -1.82293 0
M  V30 2361 H 211.588 1.03327 -3.74507 0
M  V30 2362 H 213.26 -1.50265 -4.3614 0
M  V30 2363 H 211.503 -1.47851 -4.07827 0
M  V30 2364 H 212.174 -0.643249 -5.48239 0
M  V30 2365 H 214.65 0.700703 -4.10158 0
M  V30 2366 H 213.526 1.35909 -5.31808 0
M  V30 2367 H 213.787 2.23193 -3.81625 0
M  V30 2368 N 212.846 1.57033 -0.133567 0
M  V30 2369 C 214.262 1.58035 0.222944 0
M  V30 2370 C 214.462 1.14713 1.6566 0
M  V30 2371 O 213.518 0.841218 2.38075 0
M  V30 2372 C 214.831 3.00691 -0.0236116 0
M  V30 2373 C 216.379 3.12973 0.0411512 0
M  V30 2374 C 216.854 4.57654 -0.177899 0
M  V30 2375 N 218.345 4.63033 -0.124365 0
M  V30 2376 C 219.08 5.72771 -0.268553 0
M  V30 2377 N 218.576 6.91206 -0.46972 0
M  V30 2378 N 220.369 5.61718 -0.2071 0
M  V30 2379 H 212.52 1.8349 -1.06981 0
M  V30 2380 H 214.783 0.848677 -0.422436 0
M  V30 2381 H 214.489 3.36726 -1.0153 0
M  V30 2382 H 214.363 3.70614 0.701808 0
M  V30 2383 H 216.75 2.76787 1.02338 0
M  V30 2384 H 216.831 2.45564 -0.716383 0
M  V30 2385 H 216.475 4.94542 -1.15717 0
M  V30 2386 H 216.405 5.23173 0.599797 0
M  V30 2387 H 218.896 3.7789 0.027011 0
M  V30 2388 H 219.209 7.70693 -0.570212 0
M  V30 2389 H 217.554 6.93156 -0.505876 0
M  V30 2390 H 220.745 4.68072 -0.0507986 0
M  V30 2391 H 220.918 6.47195 -0.322909 0
M  V30 2392 N 214.325 -0.140222 1.56975 0
M  V30 2393 C 215.257 -1.19818 1.95388 0
M  V30 2394 C 216.27 -1.38816 0.850525 0
M  V30 2395 O 217.459 -1.38267 1.12891 0
M  V30 2396 C 214.559 -2.56189 2.21857 0
M  V30 2397 C 213.732 -2.58077 3.5315 0
M  V30 2398 C 212.791 -3.76037 3.6808 0
M  V30 2399 O 211.817 -3.60598 4.40406 0
M  V30 2400 N 213.019 -4.93763 3.05251 0
M  V30 2401 H 215.784 -0.871609 2.86746 0
M  V30 2402 H 213.345 -0.32972 1.58507 0
M  V30 2403 H 215.337 -3.33623 2.2908 0
M  V30 2404 H 213.907 -2.81111 1.36731 0
M  V30 2405 H 213.127 -1.6651 3.57307 0
M  V30 2406 H 214.415 -2.56377 4.39486 0
M  V30 2407 H 213.813 -5.09209 2.46419 0
M  V30 2408 H 212.37 -5.68949 3.18026 0
M  V30 2409 N 215.803 -1.52179 -0.40978 0
M  V30 2410 C 217.028 -1.70347 -1.18308 0
M  V30 2411 C 217.453 -0.411887 -1.83535 0
M  V30 2412 O 216.811 0.630587 -1.6998 0
M  V30 2413 C 216.859 -2.83977 -2.22238 0
M  V30 2414 O 215.963 -2.495 -3.28365 0
M  V30 2415 H 215.304 -0.567103 -0.345384 0
M  V30 2416 H 217.834 -1.98879 -0.480445 0
M  V30 2417 H 217.844 -3.0887 -2.66577 0
M  V30 2418 H 216.519 -3.77685 -1.74146 0
M  V30 2419 H 215.096 -2.35277 -2.89308 0
M  V30 2420 N 217.281 0.66697 -1.42791 0
M  V30 2421 C 218.509 1.45505 -1.47091 0
M  V30 2422 C 218.924 1.8861 -0.0845873 0
M  V30 2423 O 218.281 1.58632 0.90234 0
M  V30 2424 C 218.332 2.69906 -2.40485 0
M  V30 2425 O 218.053 2.28608 -3.73725 0
M  V30 2426 C 219.554 3.63396 -2.53886 0
M  V30 2427 H 216.774 0.447459 -0.500022 0
M  V30 2428 H 219.318 0.818866 -1.8739 0
M  V30 2429 H 217.473 3.29696 -2.03419 0
M  V30 2430 H 217.887 3.08997 -4.23817 0
M  V30 2431 H 219.361 4.47387 -3.2334 0
M  V30 2432 H 219.838 4.09824 -1.57927 0
M  V30 2433 H 220.444 3.09495 -2.91706 0
M  V30 2434 N 218.759 1.29093 0.90403 0
M  V30 2435 C 220.175 1.07011 1.1841 0
M  V30 2436 C 220.375 -0.181358 2.00682 0
M  V30 2437 O 219.431 -0.880331 2.36657 0
M  V30 2438 C 220.744 2.32311 1.90924 0
M  V30 2439 C 222.292 2.37587 2.03768 0
M  V30 2440 C 222.767 3.62679 2.79693 0
M  V30 2441 N 224.258 3.63376 2.87249 0
M  V30 2442 C 224.993 4.56848 3.46522 0
M  V30 2443 N 224.489 5.60648 4.06996 0
M  V30 2444 N 226.282 4.44426 3.44154 0
M  V30 2445 H 218.433 2.09412 0.354993 0
M  V30 2446 H 220.696 0.922181 0.219742 0
M  V30 2447 H 220.402 3.23536 1.37905 0
M  V30 2448 H 220.276 2.39483 2.91424 0
M  V30 2449 H 222.663 1.46853 2.55965 0
M  V30 2450 H 222.744 2.34403 1.02415 0
M  V30 2451 H 222.388 4.53762 2.28173 0
M  V30 2452 H 222.318 3.63119 3.81381 0
M  V30 2453 H 224.809 2.88321 2.44293 0
M  V30 2454 H 225.122 6.28101 4.50232 0
M  V30 2455 H 223.467 5.64463 4.05471 0
M  V30 2456 H 226.658 3.62529 2.96126 0
M  V30 2457 H 226.831 5.17457 3.90054 0
M  V30 2458 N 220.237 -1.11381 1.11499 0
M  V30 2459 C 221.185 -2.19522 0.768956 0
M  V30 2460 C 222.179 -1.67693 -0.239857 0
M  V30 2461 O 223.385 -1.79727 -0.0990755 0
M  V30 2462 H 219.76 -0.715711 0.230786 0
M  V30 2463 H 221.731 -2.45954 1.68964 0
M  V30 2464 C 220.48 -3.46945 0.229073 0
M  V30 2465 H 219.803 -3.8718 0.996596 0
M  V30 2466 H 221.243 -4.23993 0.0251441 0
M  V30 2467 C 219.702 -3.2042 -1.04079 0
M  V30 2468 O 220.232 -3.41178 -2.12038 0
M  V30 2469 N 218.438 -2.74151 -0.963823 0
M  V30 2470 H 217.985 -2.57459 -0.0851722 0
M  V30 2471 H 217.943 -2.56781 -1.81414 0
M  V30 2472 N 221.715 -0.905404 -1.28997 0
M  V30 2473 C 222.945 -0.549049 -1.99171 0
M  V30 2474 C 223.353 0.87203 -1.67906 0
M  V30 2475 O 222.696 1.58796 -0.923561 0
M  V30 2476 C 222.758 -0.668306 -3.53234 0
M  V30 2477 C 222.422 -2.0574 -4.08069 0
M  V30 2478 C 223.419 -3.0292 -4.22534 0
M  V30 2479 C 221.104 -2.36833 -4.42962 0
M  V30 2480 C 223.098 -4.29314 -4.71135 0
M  V30 2481 C 220.785 -3.63467 -4.91258 0
M  V30 2482 C 221.783 -4.59522 -5.053 0
M  V30 2483 O 221.471 -5.83907 -5.52546 0
M  V30 2484 H 221.203 -0.208784 -0.64295 0
M  V30 2485 H 223.757 -1.21836 -1.65363 0
M  V30 2486 H 221.987 0.0580547 -3.86656 0
M  V30 2487 H 223.676 -0.320273 -4.04634 0
M  V30 2488 H 224.442 -2.80216 -3.95859 0
M  V30 2489 H 220.321 -1.62824 -4.31288 0
M  V30 2490 H 223.865 -5.04293 -4.8201 0
M  V30 2491 H 219.762 -3.86 -5.17372 0
M  V30 2492 H 220.53 -5.86578 -5.70849 0
M  V30 2493 N 223.193 1.4272 -0.668489 0
M  V30 2494 C 224.604 1.84793 -0.266151 0
M  V30 2495 C 224.955 1.55959 1.19043 0
M  V30 2496 O 224.08 1.01622 1.91055 0
M  V30 2497 C 224.675 3.35436 -0.476271 0
M  V30 2498 C 223.234 3.76182 -0.128113 0
M  V30 2499 C 222.381 2.66344 -0.771777 0
M  V30 2500 H 225.332 1.32656 -0.871098 0
M  V30 2501 H 225.353 3.79515 0.273561 0
M  V30 2502 H 224.865 3.5639 -1.53647 0
M  V30 2503 H 222.966 3.60836 0.928891 0
M  V30 2504 H 223.079 4.75766 -0.564231 0
M  V30 2505 H 221.443 2.53885 -0.203652 0
M  V30 2506 H 222.226 2.90123 -1.83531 0
M  V30 2507 N 224.671 0.411399 1.52136 0
M  V30 2508 C 225.603 -0.448386 2.24771 0
M  V30 2509 C 226.616 -1.00828 1.27818 0
M  V30 2510 O 227.805 -0.906841 1.53749 0
M  V30 2511 C 224.905 -1.63636 2.96777 0
M  V30 2512 C 224.078 -1.19995 4.20618 0
M  V30 2513 C 223.137 -2.25509 4.75428 0
M  V30 2514 O 222.163 -1.86007 5.3795 0
M  V30 2515 N 223.365 -3.577 4.57199 0
M  V30 2516 H 226.13 0.174025 2.99194 0
M  V30 2517 H 223.691 0.238897 1.60128 0
M  V30 2518 H 225.683 -2.33793 3.30338 0
M  V30 2519 H 224.253 -2.16465 2.25526 0
M  V30 2520 H 223.473 -0.326421 3.92846 0
M  V30 2521 H 224.761 -0.885365 5.01038 0
M  V30 2522 H 224.159 -3.92543 4.07341 0
M  V30 2523 H 222.716 -4.23827 4.95191 0
M  V30 2524 N 226.149 -1.5696 0.141893 0
M  V30 2525 C 227.395 -1.9625 -0.511248 0
M  V30 2526 C 227.728 -1.02654 -1.64851 0
M  V30 2527 O 227.003 -0.0679676 -1.94381 0
M  V30 2528 C 227.286 -3.45285 -1.02227 0
M  V30 2529 C 227.139 -4.49658 0.113138 0
M  V30 2530 C 228.458 -3.96698 -1.90574 0
M  V30 2531 H 225.577 -0.713567 -0.184367 0
M  V30 2532 H 228.219 -1.88698 0.222087 0
M  V30 2533 H 226.369 -3.51852 -1.64719 0
M  V30 2534 H 228.041 -4.55174 0.749302 0
M  V30 2535 H 226.284 -4.26857 0.773026 0
M  V30 2536 H 226.955 -5.51258 -0.286053 0
M  V30 2537 H 229.431 -3.92578 -1.37918 0
M  V30 2538 H 228.307 -5.01453 -2.2324 0
M  V30 2539 H 228.568 -3.3875 -2.84079 0
M  V30 2540 N 227.627 0.131896 -1.57047 0
M  V30 2541 C 228.575 1.18146 -2.0036 0
M  V30 2542 C 229.569 1.43614 -0.898406 0
M  V30 2543 O 230.775 1.43729 -1.08361 0
M  V30 2544 H 227.15 0.398042 -0.638018 0
M  V30 2545 H 229.121 0.789564 -2.87765 0
M  V30 2546 C 227.87 2.50341 -2.41298 0
M  V30 2547 H 227.193 2.31578 -3.25902 0
M  V30 2548 H 228.633 3.22371 -2.75414 0
M  V30 2549 C 227.092 3.11984 -1.27153 0
M  V30 2550 O 227.622 3.97484 -0.580459 0
M  V30 2551 N 225.828 2.71662 -1.03189 0
M  V30 2552 H 225.375 2.02231 -1.59564 0
M  V30 2553 H 225.333 3.13238 -0.270077 0
M  V30 2554 N 229.106 1.52395 0.401703 0
M  V30 2555 C 230.352 1.67065 1.14966 0
M  V30 2556 C 230.685 0.403052 1.89971 0
M  V30 2557 O 229.96 -0.598774 1.85054 0
M  V30 2558 C 230.243 2.8975 2.13815 0
M  V30 2559 C 230.096 4.26578 1.42658 0
M  V30 2560 C 231.415 3.07965 3.14397 0
M  V30 2561 H 228.534 0.607968 0.416587 0
M  V30 2562 H 231.176 1.84965 0.434511 0
M  V30 2563 H 229.326 2.74619 2.74803 0
M  V30 2564 H 230.998 4.53451 0.847329 0
M  V30 2565 H 229.241 4.27639 0.72849 0
M  V30 2566 H 229.912 5.08483 2.14823 0
M  V30 2567 H 232.388 3.22043 2.63491 0
M  V30 2568 H 231.264 3.95308 3.80819 0
M  V30 2569 H 231.525 2.21611 3.82545 0
M  V30 2570 N 230.584 -0.659388 1.43143 0
M  V30 2571 C 231.833 -1.41518 1.43721 0
M  V30 2572 C 232.146 -1.95499 0.0628176 0
M  V30 2573 O 233.352 -2.71446 -0.0539683 0
M  V30 2574 C 231.808 -2.5608 2.52885 0
M  V30 2575 C 231.416 -2.08733 3.96402 0
M  V30 2576 C 233.16 -3.3349 2.62649 0
M  V30 2577 C 231.067 -3.20469 4.97045 0
M  V30 2578 H 229.997 -0.531705 0.534608 0
M  V30 2579 H 232.648 -0.712343 1.69109 0
M  V30 2580 H 231.03 -3.28805 2.20688 0
M  V30 2581 H 232.204 -1.43059 4.3803 0
M  V30 2582 H 230.519 -1.44219 3.90627 0
M  V30 2583 H 233.116 -4.16734 3.35017 0
M  V30 2584 H 233.459 -3.8111 1.67513 0
M  V30 2585 H 233.992 -2.67842 2.94118 0
M  V30 2586 H 230.731 -2.77824 5.93712 0
M  V30 2587 H 230.251 -3.84874 4.60034 0
M  V30 2588 H 231.93 -3.85698 5.19467 0
M  V30 2589 N 232.062 -1.29571 -0.897171 0
M  V30 2590 C 233.01 -1.14802 -2.02295 0
M  V30 2591 C 234.004 -0.0629637 -1.69283 0
M  V30 2592 O 235.21 -0.222945 -1.78614 0
M  V30 2593 H 231.585 -0.354692 -0.663097 0
M  V30 2594 H 233.556 -2.10108 -2.11889 0
M  V30 2595 C 232.305 -0.843966 -3.37302 0
M  V30 2596 H 231.628 -1.67093 -3.63208 0
M  V30 2597 H 233.068 -0.780672 -4.16751 0
M  V30 2598 C 231.527 0.452843 -3.33843 0
M  V30 2599 O 232.057 1.47813 -3.73516 0
M  V30 2600 N 230.263 0.459601 -2.86943 0
M  V30 2601 H 229.81 -0.375213 -2.54853 0
M  V30 2602 H 229.768 1.32726 -2.85011 0
M  V30 2603 N 233.54 1.10788 -1.12088 0
M  V30 2604 C 234.787 1.82671 -0.873931 0
M  V30 2605 C 235.115 1.85004 0.600311 0
M  V30 2606 O 234.37 1.30365 1.45957 0
M  V30 2607 C 234.669 3.29294 -1.38926 0
M  V30 2608 C 234.335 3.47113 -2.87791 0
M  V30 2609 C 232.997 3.51684 -3.28439 0
M  V30 2610 C 235.349 3.52808 -3.83635 0
M  V30 2611 C 232.677 3.59513 -4.63646 0
M  V30 2612 C 235.029 3.62169 -5.18668 0
M  V30 2613 C 233.693 3.65003 -5.58864 0
M  V30 2614 H 232.963 0.668441 -0.319794 0
M  V30 2615 H 235.61 1.30613 -1.40045 0
M  V30 2616 H 233.915 3.83894 -0.783122 0
M  V30 2617 H 235.612 3.83416 -1.17443 0
M  V30 2618 H 232.202 3.4423 -2.5535 0
M  V30 2619 H 236.386 3.4853 -3.53328 0
M  V30 2620 H 231.642 3.59987 -4.94185 0
M  V30 2621 H 235.816 3.6552 -5.92763 0
M  V30 2622 H 233.443 3.70822 -6.63623 0
M  V30 2623 N 235.018 0.912232 1.28515 0
M  V30 2624 C 236.246 0.560416 1.99166 0
M  V30 2625 C 236.661 -0.857927 1.68182 0
M  V30 2626 O 236.018 -1.56805 0.933733 0
M  V30 2627 C 236.069 0.758142 3.53461 0
M  V30 2628 O 235.79 2.12067 3.83352 0
M  V30 2629 C 237.291 0.412954 4.41372 0
M  V30 2630 H 234.511 0.213805 0.636026 0
M  V30 2631 H 237.055 1.22502 1.63749 0
M  V30 2632 H 235.21 0.140556 3.87145 0
M  V30 2633 H 235.624 2.15923 4.77993 0
M  V30 2634 H 237.098 0.60208 5.48707 0
M  V30 2635 H 237.575 -0.65073 4.34353 0
M  V30 2636 H 238.181 1.00802 4.13182 0
M  V30 2637 N 236.496 -1.42363 0.676048 0
M  V30 2638 C 237.724 -2.05859 0.207268 0
M  V30 2639 C 238.139 -1.50796 -1.13605 0
M  V30 2640 O 237.496 -0.648265 -1.70598 0
M  V30 2641 C 237.547 -3.61248 0.134975 0
M  V30 2642 O 237.268 -4.1427 1.42521 0
M  V30 2643 C 238.769 -4.41859 -0.357151 0
M  V30 2644 H 235.989 -0.663431 0.100503 0
M  V30 2645 H 238.533 -1.82479 0.923136 0
M  V30 2646 H 236.688 -3.83735 -0.531588 0
M  V30 2647 H 237.102 -5.0815 1.29939 0
M  V30 2648 H 238.576 -5.50847 -0.356641 0
M  V30 2649 H 239.053 -4.16536 -1.39264 0
M  V30 2650 H 239.659 -4.24392 0.27772 0
M  V30 2651 N 237.974 -0.419461 -1.51915 0
M  V30 2652 C 239.199 0.154572 -2.06823 0
M  V30 2653 C 239.624 1.3722 -1.28656 0
M  V30 2654 O 238.982 1.78461 -0.319583 0
M  V30 2655 C 239.03 0.473172 -3.57482 0
M  V30 2656 O 238.134 1.56255 -3.81652 0
M  V30 2657 H 237.475 0.0096924 -0.663929 0
M  V30 2658 H 240.005 -0.595642 -1.95738 0
M  V30 2659 H 240.015 0.728825 -4.01438 0
M  V30 2660 H 238.69 -0.416873 -4.13805 0
M  V30 2661 H 237.267 1.29825 -3.49571 0
M  V30 2662 N 239.452 1.56882 -0.150215 0
M  V30 2663 C 240.698 1.97299 0.494427 0
M  V30 2664 C 241.053 1.0338 1.62266 0
M  V30 2665 O 240.346 0.0694497 1.91474 0
M  V30 2666 C 240.54 3.41801 1.04437 0
M  V30 2667 C 240.369 4.49691 -0.0290451 0
M  V30 2668 C 239.139 5.03095 -0.47156 0
M  V30 2669 C 241.337 5.07693 -0.821703 0
M  V30 2670 N 239.319 5.94593 -1.52749 0
M  V30 2671 C 240.69 5.95431 -1.72805 0
M  V30 2672 C 242.745 4.90256 -0.869134 0
M  V30 2673 C 241.448 6.67599 -2.67777 0
M  V30 2674 C 243.474 5.63127 -1.8067 0
M  V30 2675 C 242.836 6.50576 -2.70057 0
M  V30 2676 H 238.935 0.76755 0.149639 0
M  V30 2677 H 241.519 1.93145 -0.24556 0
M  V30 2678 H 239.69 3.46541 1.75396 0
M  V30 2679 H 241.422 3.69272 1.6559 0
M  V30 2680 H 238.177 4.73543 -0.0732101 0
M  V30 2681 H 238.601 6.45047 -2.05531 0
M  V30 2682 H 243.243 4.22363 -0.192134 0
M  V30 2683 H 240.961 7.34717 -3.36476 0
M  V30 2684 H 244.547 5.51629 -1.84924 0
M  V30 2685 H 243.427 7.05974 -3.41424 0
M  V30 2686 N 240.93 -0.123565 1.57115 0
M  V30 2687 C 242.155 -0.850398 1.89164 0
M  V30 2688 C 242.58 -1.7286 0.741688 0
M  V30 2689 O 241.938 -1.78665 -0.307958 0
M  V30 2690 C 241.986 -1.66353 3.19936 0
M  V30 2691 O 241.09 -2.77004 3.0552 0
M  V30 2692 H 240.431 -0.235454 0.620852 0
M  V30 2693 H 242.961 -0.107335 2.04318 0
M  V30 2694 H 242.971 -2.05372 3.52543 0
M  V30 2695 H 241.646 -1.01881 4.03228 0
M  V30 2696 H 240.223 -2.41221 2.84371 0
M  V30 2697 N 242.408 -1.52605 -0.393616 0
M  V30 2698 C 243.685 -1.58001 -1.15304 0
M  V30 2699 C 244.065 -0.370385 -2.07825 0
M  V30 2700 O 243.413 0.641638 -2.19306 0
M  V30 2701 C 243.623 -2.91652 -1.91677 0
M  V30 2702 C 244.971 -3.4522 -2.47201 0
M  V30 2703 O 245.995 -2.93495 -2.01839 0
M  V30 2704 O 244.854 -4.35579 -3.3005 0
M  V30 2705 H 241.948 -0.637068 -0.527327 0
M  V30 2706 H 244.494 -1.64939 -0.399141 0
M  V30 2707 H 243.266 -3.71136 -1.23992 0
M  V30 2708 H 242.889 -2.88077 -2.74039 0
M  V30 2709 N 243.887 0.651787 -1.4349 0
M  V30 2710 C 245.135 1.40888 -1.44897 0
M  V30 2711 C 245.456 1.94856 -0.0749086 0
M  V30 2712 O 244.726 1.74518 0.889956 0
M  V30 2713 H 243.306 0.522887 -0.533478 0
M  V30 2714 H 245.968 0.768609 -1.79104 0
M  V30 2715 H 245.064 2.25052 -2.16236 0
M  V30 2716 N 245.365 1.30045 0.890287 0
M  V30 2717 C 246.295 1.18541 2.01172 0
M  V30 2718 C 247.276 0.0773356 1.69924 0
M  V30 2719 O 248.461 0.25845 1.92473 0
M  V30 2720 C 245.591 0.870941 3.36202 0
M  V30 2721 C 244.545 1.93637 3.81692 0
M  V30 2722 C 243.871 1.475 5.13953 0
M  V30 2723 C 245.171 3.34666 4.00994 0
M  V30 2724 H 246.865 2.12359 2.11054 0
M  V30 2725 H 244.411 1.02238 1.01407 0
M  V30 2726 H 246.364 0.777141 4.14172 0
M  V30 2727 H 245.088 -0.102926 3.26438 0
M  V30 2728 H 243.747 2.01972 3.05946 0
M  V30 2729 H 243.395 0.489551 5.00612 0
M  V30 2730 H 243.095 2.1876 5.4536 0
M  V30 2731 H 244.619 1.39489 5.94454 0
M  V30 2732 H 246.033 3.2912 4.69417 0
M  V30 2733 H 244.43 4.03966 4.43769 0
M  V30 2734 H 245.5 3.76949 3.05021 0
M  V30 2735 N 246.843 -1.10192 1.12674 0
M  V30 2736 C 247.806 -2.14786 0.799979 0
M  V30 2737 C 248.806 -1.59711 -0.18685 0
M  V30 2738 O 249.996 -1.74156 0.0392558 0
M  V30 2739 C 247.128 -3.40374 0.189228 0
M  V30 2740 H 248.321 -2.45203 1.72671 0
M  V30 2741 H 245.874 -1.25597 0.930326 0
M  V30 2742 H 246.609 -3.15577 -0.747107 0
M  V30 2743 H 246.394 -3.81637 0.899766 0
M  V30 2744 H 247.884 -4.17594 -0.0228143 0
M  V30 2745 N 248.321 -0.919034 -1.28029 0
M  V30 2746 C 249.251 -0.428581 -2.29533 0
M  V30 2747 C 250.232 0.50659 -1.62381 0
M  V30 2748 O 251.417 0.413195 -1.89753 0
M  V30 2749 C 248.547 0.327388 -3.45753 0
M  V30 2750 C 247.501 -0.519137 -4.2484 0
M  V30 2751 C 246.827 0.365486 -5.33449 0
M  V30 2752 C 248.127 -1.77914 -4.91064 0
M  V30 2753 H 249.821 -1.27687 -2.70807 0
M  V30 2754 H 247.367 -0.615428 -1.30186 0
M  V30 2755 H 249.32 0.681378 -4.15855 0
M  V30 2756 H 248.044 1.20963 -3.03374 0
M  V30 2757 H 246.703 -0.855717 -3.56473 0
M  V30 2758 H 246.351 1.24642 -4.87312 0
M  V30 2759 H 246.051 -0.197356 -5.87268 0
M  V30 2760 H 247.575 0.715241 -6.06396 0
M  V30 2761 H 248.989 -1.49374 -5.53498 0
M  V30 2762 H 247.386 -2.2848 -5.54903 0
M  V30 2763 H 248.456 -2.50382 -4.15255 0
M  V30 2764 N 249.799 1.42003 -0.683588 0
M  V30 2765 C 250.747 2.326 0.000815408 0
M  V30 2766 C 251.741 1.50308 0.781278 0
M  V30 2767 O 252.947 1.66322 0.688251 0
M  V30 2768 H 249.322 0.751758 0.0190616 0
M  V30 2769 H 251.293 2.88011 -0.780528 0
M  V30 2770 C 250.042 3.34978 0.93195 0
M  V30 2771 H 249.365 3.98345 0.340817 0
M  V30 2772 H 250.805 4.00936 1.37936 0
M  V30 2773 C 249.264 2.67925 2.04249 0
M  V30 2774 O 249.794 2.51788 3.12995 0
M  V30 2775 N 248 2.2681 1.81675 0
M  V30 2776 H 247.547 2.40135 0.932363 0
M  V30 2777 H 247.505 1.8228 2.56167 0
M  V30 2778 N 251.277 0.427512 1.51691 0
M  V30 2779 C 252.24 -0.377132 2.26076 0
M  V30 2780 C 253.24 -0.958089 1.29141 0
M  V30 2781 O 254.43 -0.83408 1.52934 0
M  V30 2782 C 251.562 -1.53262 3.04506 0
M  V30 2783 H 252.755 0.27464 2.9864 0
M  V30 2784 H 250.308 0.180445 1.55255 0
M  V30 2785 H 251.043 -2.22072 2.36335 0
M  V30 2786 H 250.828 -1.12232 3.75694 0
M  V30 2787 H 252.318 -2.10135 3.60878 0
M  V30 2788 N 252.755 -1.56801 0.158532 0
M  V30 2789 C 253.685 -2.20347 -0.772609 0
M  V30 2790 C 254.666 -1.15518 -1.24859 0
M  V30 2791 O 255.851 -1.43902 -1.30406 0
M  V30 2792 C 252.981 -2.83417 -2.00729 0
M  V30 2793 C 251.935 -3.94174 -1.66765 0
M  V30 2794 C 251.261 -4.44233 -2.97592 0
M  V30 2795 C 252.561 -5.14392 -0.905447 0
M  V30 2796 H 254.255 -2.98413 -0.242959 0
M  V30 2797 H 251.801 -1.43537 -0.115419 0
M  V30 2798 H 253.754 -3.26543 -2.6636 0
M  V30 2799 H 252.478 -2.02701 -2.56086 0
M  V30 2800 H 251.137 -3.51684 -1.03508 0
M  V30 2801 H 250.785 -3.60325 -3.50963 0
M  V30 2802 H 250.485 -5.18945 -2.75626 0
M  V30 2803 H 252.009 -4.90037 -3.64274 0
M  V30 2804 H 253.423 -5.5429 -1.46408 0
M  V30 2805 H 251.82 -5.9494 -0.7853 0
M  V30 2806 H 252.89 -4.84795 0.100668 0
M  V30 2807 N 254.233 0.115231 -1.57178 0
M  V30 2808 C 255.482 0.820945 -1.84237 0
M  V30 2809 C 255.795 1.80866 -0.744761 0
M  V30 2810 O 257.001 2.56083 -0.901871 0
M  V30 2811 C 255.457 1.51072 -3.26658 0
M  V30 2812 C 255.065 0.563795 -4.44438 0
M  V30 2813 C 256.809 2.20134 -3.62962 0
M  V30 2814 C 254.716 1.25701 -5.77887 0
M  V30 2815 H 253.646 0.310328 -0.687177 0
M  V30 2816 H 256.297 0.0737134 -1.83352 0
M  V30 2817 H 254.679 2.30471 -3.22024 0
M  V30 2818 H 255.853 -0.197247 -4.60378 0
M  V30 2819 H 254.168 -0.0200638 -4.16395 0
M  V30 2820 H 256.765 2.72696 -4.59936 0
M  V30 2821 H 257.108 2.98107 -2.90582 0
M  V30 2822 H 257.641 1.47619 -3.69396 0
M  V30 2823 H 254.38 0.518493 -6.53446 0
M  V30 2824 H 253.9 1.98997 -5.65827 0
M  V30 2825 H 255.579 1.78915 -6.2177 0
M  V30 2826 N 255.711 1.52812 0.385517 0
M  V30 2827 C 256.661 1.74219 1.47078 0
M  V30 2828 C 257.645 0.59632 1.49442 0
M  V30 2829 O 258.837 0.85428 1.5502 0
M  V30 2830 C 255.966 1.9176 2.84751 0
M  V30 2831 C 255.052 3.12289 2.86943 0
M  V30 2832 N 255.443 4.34575 2.58802 0
M  V30 2833 C 253.741 3.12605 3.1811 0
M  V30 2834 C 254.442 5.162 2.68166 0
M  V30 2835 N 253.418 4.51964 3.02043 0
M  V30 2836 H 257.22 2.6639 1.24152 0
M  V30 2837 H 254.734 1.51166 0.593504 0
M  V30 2838 H 256.731 2.05218 3.62893 0
M  V30 2839 H 255.391 1.00805 3.08656 0
M  V30 2840 H 256.402 4.62649 2.32759 0
M  V30 2841 H 253.079 2.31472 3.47458 0
M  V30 2842 H 254.469 6.23689 2.49923 0
M  V30 2843 N 257.189 -0.644168 1.43834 0
M  V30 2844 C 258.414 -1.43642 1.49605 0
M  V30 2845 C 258.839 -1.8773 0.117913 0
M  V30 2846 O 258.197 -1.57938 -0.890239 0
M  V30 2847 C 258.245 -2.6416 2.45463 0
M  V30 2848 O 257.349 -3.63538 1.94714 0
M  V30 2849 H 256.69 -0.430329 0.50568 0
M  V30 2850 H 259.22 -0.787448 1.8884 0
M  V30 2851 H 259.23 -3.11864 2.63068 0
M  V30 2852 H 257.905 -2.31414 3.45572 0
M  V30 2853 H 256.482 -3.2273 1.86814 0
M  V30 2854 N 258.668 -1.30515 -0.883378 0
M  V30 2855 C 259.618 -1.13641 -1.9766 0
M  V30 2856 C 260.602 -0.0511314 -1.60819 0
M  V30 2857 O 261.794 -0.274623 -1.74857 0
M  V30 2858 C 258.923 -0.831976 -3.33066 0
M  V30 2859 C 258.009 -1.95759 -3.76217 0
M  V30 2860 N 258.4 -3.20313 -3.9145 0
M  V30 2861 C 256.698 -1.85431 -4.05625 0
M  V30 2862 C 257.399 -3.93856 -4.2808 0
M  V30 2863 N 256.375 -3.21919 -4.38029 0
M  V30 2864 H 260.177 -2.08106 -2.07531 0
M  V30 2865 H 257.691 -1.21877 -1.0733 0
M  V30 2866 H 259.688 -0.692102 -4.11115 0
M  V30 2867 H 258.348 0.104588 -3.24532 0
M  V30 2868 H 259.359 -3.55583 -3.76538 0
M  V30 2869 H 256.036 -0.991531 -4.05555 0
M  V30 2870 H 257.426 -5.01125 -4.47575 0
M  V30 2871 N 260.146 1.09593 -1.13257 0
M  V30 2872 C 261.562 1.33775 -0.870423 0
M  V30 2873 C 261.762 1.95327 0.494926 0
M  V30 2874 O 260.818 2.19853 1.2418 0
M  V30 2875 C 262.131 2.25106 -1.99369 0
M  V30 2876 C 263.679 2.3862 -2.02558 0
M  V30 2877 C 264.154 3.33285 -3.14142 0
M  V30 2878 N 265.645 3.40857 -3.13641 0
M  V30 2879 C 266.38 4.14101 -3.96621 0
M  V30 2880 N 265.876 4.90157 -4.8961 0
M  V30 2881 N 267.669 4.09808 -3.84726 0
M  V30 2882 H 259.82 0.680136 -2.01216 0
M  V30 2883 H 262.083 0.362133 -0.876107 0
M  V30 2884 H 261.789 1.87103 -2.97801 0
M  V30 2885 H 261.663 3.25481 -1.90635 0
M  V30 2886 H 264.05 2.75887 -1.0474 0
M  V30 2887 H 264.131 1.38028 -2.15364 0
M  V30 2888 H 263.775 2.96741 -4.12198 0
M  V30 2889 H 263.705 4.33776 -2.98574 0
M  V30 2890 H 266.196 2.86624 -2.46282 0
M  V30 2891 H 266.509 5.4347 -5.49418 0
M  V30 2892 H 264.854 4.89251 -4.93617 0
M  V30 2893 H 268.045 3.4949 -3.11408 0
M  V30 2894 H 268.218 4.66629 -4.49623 0
M  V30 2895 N 261.624 0.925811 1.2754 0
M  V30 2896 C 263.035 0.610102 1.7645 0
M  V30 2897 C 263.386 -0.874723 1.75622 0
M  V30 2898 O 262.511 -1.68444 1.35851 0
M  V30 2899 C 263.106 1.10073 3.20421 0
M  V30 2900 C 261.665 0.835723 3.67005 0
M  V30 2901 C 260.812 1.26054 2.46993 0
M  V30 2902 H 263.763 1.10579 1.13833 0
M  V30 2903 H 263.784 0.447557 3.77859 0
M  V30 2904 H 263.296 2.18143 3.20991 0
M  V30 2905 H 261.397 -0.231249 3.71882 0
M  V30 2906 H 261.51 1.45193 4.56569 0
M  V30 2907 H 259.874 0.679111 2.45479 0
M  V30 2908 H 260.657 2.34984 2.50275 0
M  V30 2909 N 263.102 -1.41638 0.69111 0
M  V30 2910 C 264.379 -1.95036 0.148421 0
M  V30 2911 C 264.759 -1.63072 -1.34055 0
M  V30 2912 O 264.107 -0.93538 -2.08478 0
M  V30 2913 C 264.317 -3.46279 0.434951 0
M  V30 2914 C 265.665 -4.23069 0.360275 0
M  V30 2915 O 266.689 -3.54277 0.369613 0
M  V30 2916 O 265.548 -5.45583 0.316534 0
M  V30 2917 H 262.642 -0.826908 0.0123654 0
M  V30 2918 H 265.188 -1.5138 0.766963 0
M  V30 2919 H 263.96 -3.6281 1.46576 0
M  V30 2920 H 263.583 -3.97019 -0.214787 0
M  V30 2921 N 264.58 -0.43555 -1.51462 0
M  V30 2922 C 265.51 0.367376 -2.30592 0
M  V30 2923 C 266.491 1.02263 -1.35928 0
M  V30 2924 O 267.676 1.02661 -1.64847 0
M  V30 2925 C 264.806 1.46983 -3.14664 0
M  V30 2926 C 263.76 0.938161 -4.17591 0
M  V30 2927 C 263.086 2.13622 -4.90173 0
M  V30 2928 C 264.386 -0.0261621 -5.22293 0
M  V30 2929 H 266.08 -0.292969 -2.97963 0
M  V30 2930 H 263.626 -0.14234 -1.43295 0
M  V30 2931 H 265.579 2.03873 -3.688 0
M  V30 2932 H 264.303 2.15843 -2.4511 0
M  V30 2933 H 262.962 0.391481 -3.64504 0
M  V30 2934 H 262.61 2.81098 -4.17124 0
M  V30 2935 H 262.31 1.78688 -5.59772 0
M  V30 2936 H 263.834 2.7107 -5.47132 0
M  V30 2937 H 265.248 0.452384 -5.71512 0
M  V30 2938 H 263.645 -0.287992 -5.99409 0
M  V30 2939 H 264.715 -0.963391 -4.75233 0
M  V30 2940 N 266.058 1.56714 -0.166846 0
M  V30 2941 C 267.305 1.96747 0.479252 0
M  V30 2942 C 267.633 1.05263 1.63554 0
M  V30 2943 O 266.888 0.0858098 1.95512 0
M  V30 2944 C 267.187 3.42889 1.00806 0
M  V30 2945 C 266.853 4.50889 -0.0318574 0
M  V30 2946 C 265.515 4.8015 -0.317675 0
M  V30 2947 C 267.867 5.15949 -0.737956 0
M  V30 2948 C 265.195 5.71772 -1.31506 0
M  V30 2949 C 267.547 6.08647 -1.72429 0
M  V30 2950 C 266.211 6.36277 -2.0176 0
M  V30 2951 H 265.481 0.719949 0.175371 0
M  V30 2952 H 268.128 1.89756 -0.257864 0
M  V30 2953 H 266.433 3.4681 1.82291 0
M  V30 2954 H 268.13 3.71203 1.51689 0
M  V30 2955 H 264.72 4.28128 0.201088 0
M  V30 2956 H 268.904 4.93458 -0.530351 0
M  V30 2957 H 264.16 5.91465 -1.54853 0
M  V30 2958 H 268.334 6.58129 -2.27682 0
M  V30 2959 H 265.961 7.07075 -2.79194 0
M  V30 2960 N 267.536 -0.106894 1.57237 0
M  V30 2961 C 268.813 -0.843526 1.76477 0
M  V30 2962 C 269.193 -1.97499 0.745464 0
M  V30 2963 O 268.541 -2.27357 -0.228306 0
M  V30 2964 C 268.751 -1.34903 3.21873 0
M  V30 2965 C 270.099 -1.79654 3.8472 0
M  V30 2966 O 271.123 -1.44554 3.2555 0
M  V30 2967 O 269.982 -2.44515 4.88748 0
M  V30 2968 H 267.076 -0.401468 0.723016 0
M  V30 2969 H 269.622 -0.0896927 1.69463 0
M  V30 2970 H 268.394 -0.53781 3.87586 0
M  V30 2971 H 268.017 -2.16522 3.33473 0
M  V30 2972 N 269.014 -1.53014 -0.377408 0
M  V30 2973 C 270.26 -1.69821 -1.11948 0
M  V30 2974 C 270.615 -0.438581 -1.87335 0
M  V30 2975 O 269.908 0.568094 -1.82984 0
M  V30 2976 C 270.102 -2.87982 -2.11663 0
M  V30 2977 C 269.931 -4.25315 -1.46072 0
M  V30 2978 C 268.701 -4.90354 -1.21986 0
M  V30 2979 C 270.899 -5.06281 -0.904664 0
M  V30 2980 N 268.881 -6.11641 -0.526215 0
M  V30 2981 C 270.252 -6.19069 -0.339726 0
M  V30 2982 C 272.307 -4.91395 -0.8022 0
M  V30 2983 C 271.01 -7.18598 0.317669 0
M  V30 2984 C 273.036 -5.91187 -0.158606 0
M  V30 2985 C 272.398 -7.03289 0.39551 0
M  V30 2986 H 268.497 -0.674785 -0.395207 0
M  V30 2987 H 271.081 -1.90389 -0.407437 0
M  V30 2988 H 269.252 -2.68974 -2.80192 0
M  V30 2989 H 270.984 -2.93669 -2.78461 0
M  V30 2990 H 267.739 -4.49286 -1.49798 0
M  V30 2991 H 268.163 -6.76719 -0.195098 0
M  V30 2992 H 272.805 -4.04925 -1.21639 0
M  V30 2993 H 270.523 -8.04669 0.743836 0
M  V30 2994 H 274.109 -5.81744 -0.0804138 0
M  V30 2995 H 272.989 -7.79183 0.885648 0
M  V30 2996 N 270.492 0.636531 -1.44174 0
M  V30 2997 C 271.44 1.76995 -1.50915 0
M  V30 2998 C 272.434 1.65053 -0.381295 0
M  V30 2999 O 273.64 1.71197 -0.55601 0
M  V30 3000 H 270.015 0.584247 -0.473455 0
M  V30 3001 H 271.986 1.68432 -2.4632 0
M  V30 3002 C 270.735 3.15314 -1.46534 0
M  V30 3003 H 270.058 3.25149 -2.32633 0
M  V30 3004 H 271.498 3.9453 -1.55312 0
M  V30 3005 C 269.957 3.3639 -0.185305 0
M  V30 3006 O 270.487 3.94699 0.746688 0
M  V30 3007 N 268.693 2.9046 -0.0901606 0
M  V30 3008 H 268.24 2.43193 -0.849416 0
M  V30 3009 H 268.198 3.04937 0.765553 0
M  V30 3010 N 271.97 1.30982 0.876444 0
M  V30 3011 C 273.195 1.23373 1.66715 0
M  V30 3012 C 273.62 -0.19885 1.87046 0
M  V30 3013 O 272.978 -1.1427 1.40756 0
M  V30 3014 C 273.026 1.97644 3.01611 0
M  V30 3015 O 272.13 1.30935 3.91062 0
M  V30 3016 H 271.471 0.426279 0.509099 0
M  V30 3017 H 274.001 1.72944 1.09323 0
M  V30 3018 H 274.011 2.06992 3.51594 0
M  V30 3019 H 272.686 3.01829 2.86133 0
M  V30 3020 H 271.263 1.29996 3.49507 0
M  V30 3021 N 273.449 -1.08991 1.13837 0
M  V30 3022 C 274.695 -1.81526 0.90422 0
M  V30 3023 C 275.028 -1.85706 -0.568066 0
M  V30 3024 O 274.303 -1.32855 -1.42056 0
M  V30 3025 C 274.586 -3.27447 1.49835 0
M  V30 3026 C 274.439 -3.31512 3.04006 0
M  V30 3027 C 275.758 -4.24256 1.17025 0
M  V30 3028 H 272.877 -0.659029 0.329923 0
M  V30 3029 H 275.519 -1.27644 1.40737 0
M  V30 3030 H 273.669 -3.73462 1.07044 0
M  V30 3031 H 275.341 -2.93867 3.55584 0
M  V30 3032 H 273.584 -2.70963 3.38765 0
M  V30 3033 H 274.255 -4.34329 3.40679 0
M  V30 3034 H 276.731 -3.86549 1.54009 0
M  V30 3035 H 275.607 -5.24684 1.61237 0
M  V30 3036 H 275.868 -4.42019 0.0846274 0
M  V30 3037 N 274.927 -0.932562 -1.27047 0
M  V30 3038 C 276.173 -0.576412 -1.94436 0
M  V30 3039 C 276.506 0.880891 -1.73072 0
M  V30 3040 O 275.781 1.62905 -1.06264 0
M  V30 3041 C 276.064 -0.909031 -3.48437 0
M  V30 3042 C 275.917 -2.42044 -3.79123 0
M  V30 3043 C 277.236 -0.418341 -4.38107 0
M  V30 3044 H 274.355 -0.210888 -0.706184 0
M  V30 3045 H 276.997 -1.16522 -1.50075 0
M  V30 3046 H 275.147 -0.407947 -3.86352 0
M  V30 3047 H 276.819 -2.99359 -3.50973 0
M  V30 3048 H 275.062 -2.86758 -3.25503 0
M  V30 3049 H 275.733 -2.6037 -4.86736 0
M  V30 3050 H 278.209 -0.847856 -4.0737 0
M  V30 3051 H 277.085 -0.679981 -5.44672 0
M  V30 3052 H 277.346 0.681642 -4.36814 0
M  V30 3053 N 276.405 1.4127 -0.698611 0
M  V30 3054 C 277.645 2.03044 -0.235062 0
M  V30 3055 C 278.009 1.54146 1.14468 0
M  V30 3056 O 279.21 2.07867 1.70425 0
M  V30 3057 C 277.481 3.56192 -0.293651 0
M  V30 3058 S 279.04 4.38696 0.0954053 0
M  V30 3059 H 275.858 0.704697 -0.0944648 0
M  V30 3060 H 278.46 1.72656 -0.917064 0
M  V30 3061 H 277.164 3.89274 -1.29977 0
M  V30 3062 H 276.695 3.91285 0.407397 0
M  V30 3063 H 278.71 4.78257 1.3223 0
M  V30 3064 N 277.883 0.443576 1.51229 0
M  V30 3065 C 278.815 -0.400608 2.25672 0
M  V30 3066 C 279.828 -0.980945 1.29928 0
M  V30 3067 O 281.017 -0.874024 1.55638 0
M  V30 3068 C 278.117 -1.57304 3.00181 0
M  V30 3069 C 277.29 -1.11046 4.23069 0
M  V30 3070 C 276.349 -2.15374 4.80105 0
M  V30 3071 O 275.375 -1.74554 5.41774 0
M  V30 3072 N 276.577 -3.47922 4.64683 0
M  V30 3073 H 279.342 0.23745 2.98758 0
M  V30 3074 H 276.903 0.272809 1.59585 0
M  V30 3075 H 278.895 -2.26733 3.35223 0
M  V30 3076 H 277.465 -2.11632 2.30066 0
M  V30 3077 H 276.685 -0.243019 3.9345 0
M  V30 3078 H 277.973 -0.778888 5.02803 0
M  V30 3079 H 277.371 -3.83815 4.15575 0
M  V30 3080 H 275.928 -4.13228 5.0407 0
M  V30 3081 N 279.361 -1.56624 0.175154 0
M  V30 3082 C 280.293 -2.15333 -0.785128 0
M  V30 3083 C 281.306 -1.1099 -1.19101 0
M  V30 3084 O 282.495 -1.38162 -1.13019 0
M  V30 3085 C 279.595 -2.68427 -2.06882 0
M  V30 3086 C 278.768 -3.97466 -1.8259 0
M  V30 3087 C 277.827 -4.35585 -2.95215 0
M  V30 3088 O 276.853 -5.03389 -2.65684 0
M  V30 3089 N 278.055 -3.97457 -4.23094 0
M  V30 3090 H 280.82 -2.98359 -0.283187 0
M  V30 3091 H 278.381 -1.61898 -0.00749817 0
M  V30 3092 H 280.373 -2.90924 -2.81328 0
M  V30 3093 H 278.943 -1.89968 -2.48256 0
M  V30 3094 H 278.163 -3.83307 -0.920287 0
M  V30 3095 H 279.451 -4.81736 -1.63733 0
M  V30 3096 H 278.849 -3.42878 -4.49945 0
M  V30 3097 H 277.406 -4.24947 -4.9423 0
M  V30 3098 N 280.839 0.0985539 -1.57292 0
M  V30 3099 C 282.064 0.820196 -1.90493 0
M  V30 3100 C 282.489 1.71658 -0.769094 0
M  V30 3101 O 281.847 1.79133 0.279495 0
M  V30 3102 C 281.895 1.61242 -3.22542 0
M  V30 3103 O 280.999 2.72108 -3.09888 0
M  V30 3104 H 280.34 0.225547 -0.62452 0
M  V30 3105 H 282.87 0.0748159 -2.04463 0
M  V30 3106 H 282.88 1.99737 -3.55766 0
M  V30 3107 H 281.555 0.954535 -4.04798 0
M  V30 3108 H 280.132 2.36667 -2.88172 0
M  V30 3109 N 282.317 1.53212 0.369288 0
M  V30 3110 C 283.28 1.7872 1.43498 0
M  V30 3111 C 284.28 0.657554 1.46741 0
M  V30 3112 O 285.47 0.925736 1.47566 0
M  V30 3113 C 282.602 1.90591 2.82645 0
M  V30 3114 H 283.795 2.73894 1.22156 0
M  V30 3115 H 281.348 1.44233 0.602203 0
M  V30 3116 H 282.083 0.974709 3.09306 0
M  V30 3117 H 281.868 2.72751 2.8169 0
M  V30 3118 H 283.358 2.11931 3.59826 0
M  V30 3119 N 283.795 -0.628877 1.44509 0
M  V30 3120 C 285.023 -1.41554 1.50897 0
M  V30 3121 C 285.438 -1.8832 0.134564 0
M  V30 3122 O 284.795 -1.60969 -0.859965 0
M  V30 3123 C 284.846 -2.63435 2.47556 0
M  V30 3124 O 284.567 -2.18619 3.79654 0
M  V30 3125 C 286.068 -3.56537 2.63431 0
M  V30 3126 H 283.288 -0.434044 0.511709 0
M  V30 3127 H 285.832 -0.768895 1.89495 0
M  V30 3128 H 283.987 -3.24187 2.12089 0
M  V30 3129 H 284.401 -2.97652 4.31861 0
M  V30 3130 H 285.875 -4.38657 3.35088 0
M  V30 3131 H 286.352 -4.05493 1.68738 0
M  V30 3132 H 286.958 -3.01653 2.9981 0
M  V30 3133 N 285.273 -1.31445 -0.869486 0
M  V30 3134 C 286.205 -1.14955 -1.98287 0
M  V30 3135 C 287.218 -0.0885037 -1.62559 0
M  V30 3136 O 288.407 -0.336044 -1.75308 0
M  V30 3137 C 285.507 -0.734255 -3.3085 0
M  V30 3138 C 284.68 -1.88042 -3.94917 0
M  V30 3139 C 283.739 -1.4511 -5.05796 0
M  V30 3140 O 282.765 -2.16082 -5.2659 0
M  V30 3141 N 283.967 -0.338763 -5.79511 0
M  V30 3142 H 286.732 -2.10856 -2.12979 0
M  V30 3143 H 284.293 -1.23786 -1.04349 0
M  V30 3144 H 286.285 -0.42975 -4.02412 0
M  V30 3145 H 284.855 0.133158 -3.12316 0
M  V30 3146 H 284.075 -2.35222 -3.1633 0
M  V30 3147 H 285.363 -2.6481 -4.34457 0
M  V30 3148 H 284.761 0.252274 -5.65137 0
M  V30 3149 H 283.318 -0.0937925 -6.51733 0
M  V30 3150 N 286.751 1.08385 -1.14413 0
M  V30 3151 C 288.167 1.32844 -0.884563 0
M  V30 3152 C 288.367 1.95841 0.474181 0
M  V30 3153 O 287.423 2.21158 1.21842 0
M  V30 3154 C 288.736 2.22978 -2.01745 0
M  V30 3155 C 290.284 2.36458 -2.05077 0
M  V30 3156 C 290.759 3.29934 -3.1766 0
M  V30 3157 N 292.25 3.37511 -3.17239 0
M  V30 3158 C 292.985 4.09871 -4.0099 0
M  V30 3159 N 292.481 4.84936 -4.94781 0
M  V30 3160 N 294.274 4.05704 -3.89051 0
M  V30 3161 H 286.425 0.658756 -2.01926 0
M  V30 3162 H 288.688 0.352821 -0.879899 0
M  V30 3163 H 288.394 1.83934 -2.99769 0
M  V30 3164 H 288.268 3.23441 -1.94077 0
M  V30 3165 H 290.655 2.7476 -1.0766 0
M  V30 3166 H 290.736 1.35736 -2.16816 0
M  V30 3167 H 290.38 2.92352 -4.15322 0
M  V30 3168 H 290.31 4.30584 -3.03158 0
M  V30 3169 H 292.801 2.83996 -2.49308 0
M  V30 3170 H 293.114 5.37612 -5.55151 0
M  V30 3171 H 291.459 4.83988 -4.98779 0
M  V30 3172 H 294.65 3.46167 -3.15097 0
M  V30 3173 H 294.823 4.61834 -4.54547 0
M  V30 3174 N 288.23 0.939286 1.26551 0
M  V30 3175 C 289.16 0.465044 2.28822 0
M  V30 3176 C 290.141 -0.480692 1.63167 0
M  V30 3177 O 291.326 -0.382955 1.90387 0
M  V30 3178 C 288.456 -0.27234 3.46231 0
M  V30 3179 C 287.41 0.58666 4.2396 0
M  V30 3180 C 286.736 -0.280573 5.33963 0
M  V30 3181 C 288.036 1.85704 4.88171 0
M  V30 3182 H 289.73 1.31979 2.68741 0
M  V30 3183 H 287.276 0.636061 1.29191 0
M  V30 3184 H 289.229 -0.615133 4.16886 0
M  V30 3185 H 287.953 -1.16121 3.0526 0
M  V30 3186 H 286.612 0.91232 3.55067 0
M  V30 3187 H 286.26 -1.16874 4.89234 0
M  V30 3188 H 285.96 0.29076 5.8688 0
M  V30 3189 H 287.484 -0.618678 6.07458 0
M  V30 3190 H 288.898 1.58161 5.51052 0
M  V30 3191 H 287.295 2.37279 5.51197 0
M  V30 3192 H 288.365 2.56957 4.11219 0
M  V30 3193 N 289.708 -1.40897 0.706093 0
M  V30 3194 C 290.618 -2.3455 0.0482286 0
M  V30 3195 C 291.634 -1.56796 -0.754396 0
M  V30 3196 O 292.81 -1.89228 -0.689538 0
M  V30 3197 C 289.875 -3.35625 -0.869303 0
M  V30 3198 C 288.936 -4.29261 -0.0576994 0
M  V30 3199 C 288.169 -5.25508 -0.931531 0
M  V30 3200 O 288.392 -5.27472 -2.17092 0
M  V30 3201 O 287.326 -6.00727 -0.375587 0
M  V30 3202 H 291.152 -2.92407 0.820476 0
M  V30 3203 H 288.737 -1.4193 0.4665 0
M  V30 3204 H 290.619 -3.97635 -1.39514 0
M  V30 3205 H 289.294 -2.80196 -1.62086 0
M  V30 3206 H 288.201 -3.70566 0.512988 0
M  V30 3207 H 289.534 -4.87817 0.655426 0
M  V30 3208 N 291.186 -0.45159 -1.50991 0
M  V30 3209 C 292.136 0.370861 -2.24964 0
M  V30 3210 C 293.12 0.978074 -1.2776 0
M  V30 3211 O 294.312 0.893854 -1.52772 0
M  V30 3212 C 291.441 1.46344 -3.10545 0
M  V30 3213 C 290.527 0.864924 -4.15187 0
M  V30 3214 N 290.918 -0.00311354 -5.058 0
M  V30 3215 C 289.216 1.13099 -4.31422 0
M  V30 3216 C 289.917 -0.340772 -5.80701 0
M  V30 3217 N 288.893 0.279203 -5.42883 0
M  V30 3218 H 292.695 -0.298134 -2.92384 0
M  V30 3219 H 290.209 -0.264528 -1.60231 0
M  V30 3220 H 292.206 2.06565 -3.62128 0
M  V30 3221 H 290.866 2.13463 -2.4467 0
M  V30 3222 H 291.877 -0.37058 -5.16572 0
M  V30 3223 H 288.554 1.79861 -3.76771 0
M  V30 3224 H 289.944 -1.048 -6.63677 0
M  V30 3225 N 292.664 1.56529 -0.183458 0
M  V30 3226 C 293.627 2.17324 0.728223 0
M  V30 3227 C 294.627 1.12453 1.14939 0
M  V30 3228 O 295.817 1.37902 1.06437 0
M  V30 3229 C 292.949 2.76591 1.99274 0
M  V30 3230 H 294.142 2.99241 0.198772 0
M  V30 3231 H 291.695 1.5616 0.0661391 0
M  V30 3232 H 292.43 1.98441 2.56499 0
M  V30 3233 H 292.215 3.5335 1.69959 0
M  V30 3234 H 293.705 3.23311 2.6431 0
M  V30 3235 N 294.142 -0.090211 1.57342 0
M  V30 3236 C 295.389 -0.792807 1.86335 0
M  V30 3237 C 295.717 -1.78494 0.772662 0
M  V30 3238 O 294.972 -1.94305 -0.233258 0
M  V30 3239 C 295.271 -1.55222 3.21933 0
M  V30 3240 C 294.937 -0.701765 4.45406 0
M  V30 3241 C 293.599 -0.467334 4.78925 0
M  V30 3242 C 295.951 -0.11086 5.21082 0
M  V30 3243 C 293.279 0.367785 5.85546 0
M  V30 3244 C 295.631 0.711609 6.28585 0
M  V30 3245 C 294.295 0.956086 6.60617 0
M  V30 3246 H 293.565 -0.290109 0.681849 0
M  V30 3247 H 296.212 -0.0541332 1.91423 0
M  V30 3248 H 294.517 -2.3626 3.12551 0
M  V30 3249 H 296.214 -2.10032 3.41595 0
M  V30 3250 H 292.804 -0.894598 4.1916 0
M  V30 3251 H 296.988 -0.279129 4.95514 0
M  V30 3252 H 292.244 0.566128 6.08773 0
M  V30 3253 H 296.418 1.17632 6.86393 0
M  V30 3254 H 294.045 1.60499 7.43064 0
M  V30 3255 N 295.62 -1.53406 -0.361157 0
M  V30 3256 C 296.568 -1.80832 -1.46296 0
M  V30 3257 C 297.562 -0.677699 -1.55253 0
M  V30 3258 O 298.768 -0.860723 -1.58087 0
M  V30 3259 H 295.143 -0.572627 -0.487445 0
M  V30 3260 H 297.114 -2.73045 -1.20371 0
M  V30 3261 C 295.863 -2.01907 -2.8307 0
M  V30 3262 H 295.186 -2.88349 -2.76938 0
M  V30 3263 H 296.626 -2.25072 -3.59331 0
M  V30 3264 C 295.085 -0.799449 -3.27277 0
M  V30 3265 O 295.615 0.00971761 -4.01699 0
M  V30 3266 N 293.821 -0.621637 -2.83873 0
M  V30 3267 H 293.368 -1.28126 -2.23476 0
M  V30 3268 H 293.326 0.19298 -3.13807 0
M  V30 3269 N 297.098 0.621204 -1.44841 0
M  V30 3270 C 298.347 1.37658 -1.47422 0
M  V30 3271 C 298.66 1.95264 -0.114629 0
M  V30 3272 O 299.866 2.71494 -0.0180199 0
M  V30 3273 C 298.322 2.49285 -2.59586 0
M  V30 3274 C 297.93 1.98149 -4.01797 0
M  V30 3275 C 299.674 3.26409 -2.71399 0
M  V30 3276 C 297.581 3.07178 -5.05367 0
M  V30 3277 H 296.511 0.517344 -0.548517 0
M  V30 3278 H 299.162 0.667257 -1.70938 0
M  V30 3279 H 297.544 3.22839 -2.29328 0
M  V30 3280 H 298.718 1.31395 -4.41669 0
M  V30 3281 H 297.033 1.33812 -3.94314 0
M  V30 3282 H 299.63 4.07706 -3.45948 0
M  V30 3283 H 299.973 3.76535 -1.77559 0
M  V30 3284 H 300.506 2.5995 -3.01116 0
M  V30 3285 H 297.245 2.61985 -6.00869 0
M  V30 3286 H 296.765 3.72542 -4.70077 0
M  V30 3287 H 298.444 3.71789 -5.29511 0
M  V30 3288 N 298.576 1.31904 0.862503 0
M  V30 3289 C 299.539 1.20131 1.95195 0
M  V30 3290 C 300.539 0.126409 1.60302 0
M  V30 3291 O 301.729 0.376234 1.70089 0
M  V30 3292 C 298.861 0.845691 3.30244 0
M  V30 3293 H 300.054 2.16943 2.07064 0
M  V30 3294 H 297.607 1.15622 1.05172 0
M  V30 3295 H 298.342 -0.120957 3.24074 0
M  V30 3296 H 298.127 1.62276 3.56944 0
M  V30 3297 H 299.617 0.787418 4.10109 0
M  V30 3298 N 300.054 -1.07777 1.14986 0
M  V30 3299 C 301.47 -1.32373 0.891596 0
M  V30 3300 C 301.67 -1.9609 -0.463788 0
M  V30 3301 O 300.726 -2.21801 -1.20667 0
M  V30 3302 C 302.039 -2.21905 2.02925 0
M  V30 3303 C 303.587 -2.35367 2.06329 0
M  V30 3304 C 304.062 -3.28245 3.19405 0
M  V30 3305 N 305.553 -3.35824 3.19024 0
M  V30 3306 C 306.288 -4.07739 4.03158 0
M  V30 3307 N 305.784 -4.82306 4.97346 0
M  V30 3308 N 307.577 -4.03635 3.91197 0
M  V30 3309 H 299.728 -0.648039 2.02273 0
M  V30 3310 H 301.991 -0.348149 0.881757 0
M  V30 3311 H 301.697 -1.82342 3.0074 0
M  V30 3312 H 301.571 -3.22407 1.95789 0
M  V30 3313 H 303.958 -2.74186 1.09116 0
M  V30 3314 H 304.039 -1.34585 2.17533 0
M  V30 3315 H 303.683 -2.90146 4.16867 0
M  V30 3316 H 303.613 -4.28971 3.05437 0
M  V30 3317 H 306.104 -2.8267 2.50811 0
M  V30 3318 H 306.417 -5.34661 5.57994 0
M  V30 3319 H 304.762 -4.81337 5.01338 0
M  V30 3320 H 307.953 -3.44491 3.16928 0
M  V30 3321 H 308.126 -4.59417 4.5699 0
M  V30 3322 N 301.532 -0.945985 -1.26051 0
M  V30 3323 C 302.762 -0.612136 -1.97323 0
M  V30 3324 C 303.17 0.818171 -1.70595 0
M  V30 3325 O 302.513 1.55777 -0.973613 0
M  V30 3326 C 302.575 -0.780347 -3.50929 0
M  V30 3327 C 302.239 -2.18619 -4.01317 0
M  V30 3328 C 303.236 -3.16209 -4.12683 0
M  V30 3329 C 300.921 -2.50805 -4.35203 0
M  V30 3330 C 302.915 -4.44085 -4.57238 0
M  V30 3331 C 300.602 -3.78912 -4.79446 0
M  V30 3332 C 301.6 -4.75365 -4.90425 0
M  V30 3333 O 301.288 -6.01191 -5.3369 0
M  V30 3334 H 301.02 -0.229134 -0.635982 0
M  V30 3335 H 303.574 -1.27036 -1.61404 0
M  V30 3336 H 301.804 -0.0649864 -3.86645 0
M  V30 3337 H 303.493 -0.448842 -4.03411 0
M  V30 3338 H 304.259 -2.92668 -3.86744 0
M  V30 3339 H 300.138 -1.76463 -4.2589 0
M  V30 3340 H 303.682 -5.19373 -4.65723 0
M  V30 3341 H 299.579 -4.02265 -5.0483 0
M  V30 3342 H 300.347 -6.04442 -5.51899 0
M  V30 3343 N 303.011 1.40521 -0.713556 0
M  V30 3344 C 303.943 2.29191 -0.0203126 0
M  V30 3345 C 304.956 1.45723 0.725864 0
M  V30 3346 O 306.145 1.69033 0.573581 0
M  V30 3347 C 303.245 3.2395 0.995486 0
M  V30 3348 C 302.418 4.36262 0.315256 0
M  V30 3349 C 301.477 5.11474 1.23616 0
M  V30 3350 O 300.503 5.64606 0.721719 0
M  V30 3351 N 301.705 5.20638 2.56743 0
M  V30 3352 H 304.47 2.89327 -0.781652 0
M  V30 3353 H 302.031 1.51869 -0.561022 0
M  V30 3354 H 304.023 3.71137 1.61368 0
M  V30 3355 H 302.593 2.64995 1.6582 0
M  V30 3356 H 301.813 3.91228 -0.483106 0
M  V30 3357 H 303.101 5.08558 -0.157004 0
M  V30 3358 H 302.499 4.7895 3.01037 0
M  V30 3359 H 301.056 5.71339 3.13712 0
M  V30 3360 N 304.489 0.459591 1.5075 0
M  V30 3361 C 305.419 -0.330644 2.31147 0
M  V30 3362 C 306.4 -1.00087 1.37538 0
M  V30 3363 O 307.585 -1.00025 1.66459 0
M  V30 3364 C 304.715 -1.41958 3.16962 0
M  V30 3365 C 303.669 -0.871608 4.19031 0
M  V30 3366 C 302.995 -2.05797 4.9351 0
M  V30 3367 C 304.295 0.109251 5.22186 0
M  V30 3368 H 305.989 0.340336 2.97459 0
M  V30 3369 H 303.535 0.165119 1.4305 0
M  V30 3370 H 305.488 -1.9798 3.71997 0
M  V30 3371 H 304.212 -2.11917 2.48513 0
M  V30 3372 H 302.871 -0.333442 3.6508 0
M  V30 3373 H 302.519 -2.74427 4.21544 0
M  V30 3374 H 302.219 -1.6976 5.62544 0
M  V30 3375 H 303.743 -2.62331 5.51375 0
M  V30 3376 H 305.157 -0.361405 5.7216 0
M  V30 3377 H 303.554 0.383316 5.98875 0
M  V30 3378 H 304.624 1.03887 4.73641 0
M  V30 3379 N 305.967 -1.56429 0.191757 0
M  V30 3380 C 307.215 -1.97095 -0.447006 0
M  V30 3381 C 307.536 -1.07967 -1.62383 0
M  V30 3382 O 306.806 -0.150248 -1.95323 0
M  V30 3383 H 305.386 -0.727832 -0.168135 0
M  V30 3384 H 308.048 -1.92911 0.27771 0
M  V30 3385 H 307.144 -3.01848 -0.793371 0
M  V30 3386 N 307.445 0.0818655 -1.57387 0
M  V30 3387 C 308.694 0.781681 -1.85937 0
M  V30 3388 C 309.007 1.79246 -0.782957 0
M  V30 3389 O 310.213 2.54112 -0.955987 0
M  V30 3390 C 308.669 1.44109 -3.29789 0
M  V30 3391 C 308.277 0.469396 -4.45534 0
M  V30 3392 C 310.021 2.12386 -3.67549 0
M  V30 3393 C 307.928 1.13415 -5.80423 0
M  V30 3394 H 306.858 0.295682 -0.693605 0
M  V30 3395 H 309.509 0.0348051 -1.83467 0
M  V30 3396 H 307.891 2.23588 -3.2684 0
M  V30 3397 H 309.065 -0.294856 -4.59856 0
M  V30 3398 H 307.38 -0.108383 -4.16259 0
M  V30 3399 H 309.977 2.62878 -4.65617 0
M  V30 3400 H 310.32 2.91877 -2.96839 0
M  V30 3401 H 310.853 1.39751 -3.72444 0
M  V30 3402 H 307.592 0.379771 -6.54399 0
M  V30 3403 H 307.112 1.8695 -5.69921 0
M  V30 3404 H 308.791 1.65686 -6.25426 0
M  V30 3405 N 308.923 1.53595 0.353017 0
M  V30 3406 C 309.833 1.83897 1.45667 0
M  V30 3407 C 310.849 0.728334 1.58023 0
M  V30 3408 O 312.025 1.01968 1.73679 0
M  V30 3409 C 309.09 2.03383 2.80778 0
M  V30 3410 C 308.151 3.27262 2.77845 0
M  V30 3411 C 307.384 3.45809 4.06512 0
M  V30 3412 O 307.607 2.68387 5.03314 0
M  V30 3413 O 306.541 4.39207 4.11559 0
M  V30 3414 H 310.367 2.77686 1.2298 0
M  V30 3415 H 307.952 1.39132 0.544308 0
M  V30 3416 H 309.834 2.17698 3.60812 0
M  V30 3417 H 308.509 1.12783 3.03417 0
M  V30 3418 H 307.416 3.18359 1.96465 0
M  V30 3419 H 308.749 4.17824 2.60161 0
M  V30 3420 N 310.401 -0.613514 1.45168 0
M  V30 3421 C 311.348 -1.72456 1.53387 0
M  V30 3422 C 312.318 -1.6169 0.380191 0
M  V30 3423 O 313.503 -1.81356 0.592836 0
M  V30 3424 C 310.643 -3.10753 1.50088 0
M  V30 3425 C 309.756 -3.32368 2.75963 0
M  V30 3426 C 308.891 -4.60737 2.64376 0
M  V30 3427 C 307.93 -4.7559 3.85332 0
M  V30 3428 N 307.067 -5.95253 3.72315 0
M  V30 3429 H 311.907 -1.64768 2.48305 0
M  V30 3430 H 309.444 -0.803503 1.23216 0
M  V30 3431 H 311.402 -3.90758 1.46164 0
M  V30 3432 H 310.032 -3.17413 0.587243 0
M  V30 3433 H 309.084 -2.4618 2.89999 0
M  V30 3434 H 310.396 -3.39218 3.65695 0
M  V30 3435 H 309.55 -5.48928 2.58385 0
M  V30 3436 H 308.289 -4.56275 1.72233 0
M  V30 3437 H 307.294 -3.85824 3.91688 0
M  V30 3438 H 308.519 -4.81854 4.78533 0
M  V30 3439 H 306.465 -5.91847 2.82937 0
M  V30 3440 H 306.382 -6.03236 4.55677 0
M  V30 3441 H 307.65 -6.85958 3.70246 0
M  V30 3442 N 311.879 -1.3236 -0.855495 0
M  V30 3443 C 312.809 -1.23833 -1.97958 0
M  V30 3444 C 313.79 -0.122361 -1.69659 0
M  V30 3445 O 314.975 -0.30939 -1.9172 0
M  V30 3446 C 312.105 -0.959772 -3.33775 0
M  V30 3447 C 311.059 -2.03689 -3.76424 0
M  V30 3448 C 310.385 -1.61075 -5.09862 0
M  V30 3449 C 311.685 -3.4518 -3.9198 0
M  V30 3450 H 313.379 -2.1788 -2.0535 0
M  V30 3451 H 310.925 -1.04891 -0.986605 0
M  V30 3452 H 312.878 -0.886678 -4.11966 0
M  V30 3453 H 311.602 0.0163404 -3.26596 0
M  V30 3454 H 310.261 -2.10012 -3.00484 0
M  V30 3455 H 309.909 -0.622107 -4.99138 0
M  V30 3456 H 309.609 -2.33143 -5.39368 0
M  V30 3457 H 311.133 -1.55201 -5.90546 0
M  V30 3458 H 312.547 -3.4145 -4.60526 0
M  V30 3459 H 310.944 -4.1559 -4.32903 0
M  V30 3460 H 312.014 -3.84903 -2.94919 0
M  V30 3461 N 313.357 1.07166 -1.15556 0
M  V30 3462 C 314.287 2.16403 -0.877046 0
M  V30 3463 C 315.268 1.69217 0.173111 0
M  V30 3464 O 316.453 1.94181 0.027084 0
M  V30 3465 C 313.583 3.45349 -0.367632 0
M  V30 3466 C 312.537 4.05995 -1.35468 0
M  V30 3467 C 311.863 5.30045 -0.704038 0
M  V30 3468 C 313.163 4.45804 -2.72132 0
M  V30 3469 H 314.857 2.39959 -1.79053 0
M  V30 3470 H 312.403 1.15325 -0.862331 0
M  V30 3471 H 314.356 4.21095 -0.160317 0
M  V30 3472 H 313.08 3.21385 0.581326 0
M  V30 3473 H 311.739 3.32296 -1.54839 0
M  V30 3474 H 311.387 5.02373 0.251128 0
M  V30 3475 H 311.087 5.71579 -1.36277 0
M  V30 3476 H 312.611 6.08495 -0.50654 0
M  V30 3477 H 314.025 5.12671 -2.56595 0
M  V30 3478 H 312.422 4.98296 -3.34397 0
M  V30 3479 H 313.492 3.57083 -3.28054 0
M  V30 3480 N 314.835 0.952656 1.25548 0
M  V30 3481 C 316.112 0.523818 1.88456 0
M  V30 3482 C 316.492 -0.998871 1.85973 0
M  V30 3483 O 315.84 -1.86381 1.3219 0
M  V30 3484 C 316.05 1.0982 3.31271 0
M  V30 3485 C 317.398 1.17385 4.08051 0
M  V30 3486 O 318.422 1.04961 3.40384 0
M  V30 3487 O 317.281 1.36852 5.29088 0
M  V30 3488 H 314.375 0.172485 0.808813 0
M  V30 3489 H 316.921 1.04596 1.33633 0
M  V30 3490 H 315.693 2.1415 3.27499 0
M  V30 3491 H 315.316 0.559191 3.93648 0
M  V30 3492 N 316.313 -1.40141 0.720998 0
M  V30 3493 C 317.724 -1.83678 0.334553 0
M  V30 3494 C 318.075 -1.6027 -1.13173 0
M  V30 3495 O 317.2 -1.08643 -1.87152 0
M  V30 3496 C 317.795 -3.33437 0.600437 0
M  V30 3497 C 316.354 -3.75447 0.267642 0
M  V30 3498 C 315.501 -2.63296 0.870097 0
M  V30 3499 H 318.452 -1.29331 0.919732 0
M  V30 3500 H 318.473 -3.80269 -0.132517 0
M  V30 3501 H 317.985 -3.50442 1.66768 0
M  V30 3502 H 316.086 -3.64035 -0.794329 0
M  V30 3503 H 316.199 -4.73344 0.74042 0
M  V30 3504 H 314.563 -2.52954 0.297739 0
M  V30 3505 H 315.346 -2.83112 1.94172 0
M  V30 3506 N 317.792 -0.46758 -1.50504 0
M  V30 3507 C 318.702 0.33382 -2.32213 0
M  V30 3508 C 319.718 0.999323 -1.42441 0
M  V30 3509 O 320.894 0.988068 -1.75497 0
M  V30 3510 C 317.959 1.4035 -3.17022 0
M  V30 3511 C 317.02 0.754961 -4.2261 0
M  V30 3512 C 316.253 1.77367 -5.03365 0
M  V30 3513 O 316.476 2.99976 -4.8515 0
M  V30 3514 O 315.41 1.34744 -5.86624 0
M  V30 3515 H 319.236 -0.334067 -3.01857 0
M  V30 3516 H 316.821 -0.229496 -1.47627 0
M  V30 3517 H 318.703 2.02318 -3.69656 0
M  V30 3518 H 317.378 2.05492 -2.5011 0
M  V30 3519 H 316.285 0.0964244 -3.73976 0
M  V30 3520 H 317.618 0.146545 -4.91982 0
M  V30 3521 N 319.27 1.56325 -0.20005 0
M  V30 3522 C 320.547 1.89484 0.48529 0
M  V30 3523 C 320.927 1.1143 1.79294 0
M  V30 3524 O 320.275 0.216919 2.27468 0
M  V30 3525 C 320.485 3.41923 0.699243 0
M  V30 3526 C 321.833 4.12256 1.01638 0
M  V30 3527 O 322.857 3.47402 0.786792 0
M  V30 3528 O 321.716 5.26887 1.45095 0
M  V30 3529 H 318.81 0.787144 0.253639 0
M  V30 3530 H 321.356 1.67985 -0.240633 0
M  V30 3531 H 320.128 3.90658 -0.224008 0
M  V30 3532 H 319.751 3.69131 1.47744 0
M  V30 3533 N 320.748 -0.0735177 1.57428 0
M  V30 3534 C 321.994 -0.774145 1.87443 0
M  V30 3535 C 322.327 -1.77311 0.792103 0
M  V30 3536 O 321.602 -1.93492 -0.197793 0
M  V30 3537 C 321.885 -1.48367 3.28115 0
M  V30 3538 C 321.738 -0.501227 4.46999 0
M  V30 3539 C 323.057 -2.429 3.66998 0
M  V30 3540 H 320.176 -0.279971 0.681752 0
M  V30 3541 H 322.818 -0.0373616 1.89963 0
M  V30 3542 H 320.968 -2.11171 3.26097 0
M  V30 3543 H 322.64 0.121468 4.6114 0
M  V30 3544 H 320.883 0.183593 4.33411 0
M  V30 3545 H 321.554 -1.03526 5.42205 0
M  V30 3546 H 324.03 -1.90175 3.70098 0
M  V30 3547 H 322.906 -2.89549 4.66318 0
M  V30 3548 H 323.167 -3.27628 2.96837 0
M  V30 3549 N 322.226 -1.5378 -0.344866 0
M  V30 3550 C 323.503 -1.61589 -1.10219 0
M  V30 3551 C 323.883 -0.436316 -2.06542 0
M  V30 3552 O 323.231 0.571543 -2.21237 0
M  V30 3553 C 323.441 -2.97602 -1.82301 0
M  V30 3554 C 324.789 -3.5291 -2.36093 0
M  V30 3555 O 325.813 -2.99768 -1.924 0
M  V30 3556 O 324.672 -4.45859 -3.16026 0
M  V30 3557 H 321.766 -0.653522 -0.506792 0
M  V30 3558 H 324.312 -1.66126 -0.346465 0
M  V30 3559 H 323.084 -3.74893 -1.12121 0
M  V30 3560 H 322.707 -2.9665 -2.64735 0
M  V30 3561 N 323.704 0.605807 -1.45491 0
M  V30 3562 C 324.932 1.39136 -1.5313 0
M  V30 3563 C 325.347 1.88082 -0.164507 0
M  V30 3564 O 324.704 1.62316 0.834247 0
M  V30 3565 C 324.755 2.59463 -2.51716 0
M  V30 3566 O 324.476 2.12551 -3.83084 0
M  V30 3567 C 325.977 3.52301 -2.6907 0
M  V30 3568 H 323.197 0.425849 -0.51855 0
M  V30 3569 H 325.741 0.73865 -1.90694 0
M  V30 3570 H 323.896 3.20772 -2.17219 0
M  V30 3571 H 324.31 2.90744 -4.36541 0
M  V30 3572 H 325.784 4.33271 -3.42024 0
M  V30 3573 H 326.261 4.02757 -1.75167 0
M  V30 3574 H 326.867 2.96845 -3.04571 0
M  V30 3575 N 325.182 1.32811 0.848464 0
M  V30 3576 C 326.41 1.26739 1.63538 0
M  V30 3577 C 326.825 -0.163484 1.88091 0
M  V30 3578 O 326.182 -1.10258 1.45429 0
M  V30 3579 C 326.233 2.03013 2.99112 0
M  V30 3580 O 325.954 3.40518 2.75643 0
M  V30 3581 C 327.455 2.04038 3.93552 0
M  V30 3582 H 324.675 0.437024 0.509167 0
M  V30 3583 H 327.219 1.75033 1.05753 0
M  V30 3584 H 325.374 1.58426 3.53525 0
M  V30 3585 H 325.788 3.79635 3.61908 0
M  V30 3586 H 327.262 2.61877 4.85926 0
M  V30 3587 H 327.739 1.0282 4.26995 0
M  V30 3588 H 328.345 2.486 3.45077 0
M  V30 3589 N 326.66 -1.06551 1.16123 0
M  V30 3590 C 327.89 -1.8274 0.963838 0
M  V30 3591 C 328.298 -1.82712 -0.491228 0
M  V30 3592 O 327.641 -1.24294 -1.35265 0
M  V30 3593 C 327.703 -3.3065 1.41106 0
M  V30 3594 C 327.367 -3.54384 2.88549 0
M  V30 3595 C 328.364 -3.4765 3.86569 0
M  V30 3596 C 326.049 -3.81789 3.26408 0
M  V30 3597 C 328.043 -3.67982 5.2045 0
M  V30 3598 C 325.73 -4.01772 4.60459 0
M  V30 3599 C 326.728 -3.94866 5.57288 0
M  V30 3600 O 326.416 -4.14306 6.88916 0
M  V30 3601 H 326.148 -0.583136 0.341948 0
M  V30 3602 H 328.702 -1.35351 1.54497 0
M  V30 3603 H 326.932 -3.78887 0.773394 0
M  V30 3604 H 328.621 -3.88324 1.1815 0
M  V30 3605 H 329.387 -3.2647 3.58667 0
M  V30 3606 H 325.266 -3.86276 2.51619 0
M  V30 3607 H 328.81 -3.62507 5.96015 0
M  V30 3608 H 324.707 -4.2244 4.88072 0
M  V30 3609 H 325.475 -4.31609 6.95454 0
M  V30 3610 N 328.138 -0.959301 -1.25041 0
M  V30 3611 C 329.549 -0.65667 -1.74771 0
M  V30 3612 C 329.9 0.827852 -1.77879 0
M  V30 3613 O 329.025 1.64783 -1.40269 0
M  V30 3614 C 329.62 -1.1853 -3.1739 0
M  V30 3615 C 328.179 -0.932734 -3.6466 0
M  V30 3616 C 327.326 -1.32558 -2.43564 0
M  V30 3617 H 330.277 -1.13558 -1.10862 0
M  V30 3618 H 330.298 -0.547582 -3.76539 0
M  V30 3619 H 329.81 -2.26576 -3.15095 0
M  V30 3620 H 327.911 0.13257 -3.72364 0
M  V30 3621 H 328.024 -1.57248 -4.52559 0
M  V30 3622 H 326.388 -0.743956 -2.43593 0
M  V30 3623 H 327.171 -2.41537 -2.43957 0
M  V30 3624 N 329.616 1.39756 -0.72842 0
M  V30 3625 C 330.893 1.94574 -0.200079 0
M  V30 3626 C 331.273 1.66569 1.29684 0
M  V30 3627 O 330.621 0.990326 2.05924 0
M  V30 3628 C 330.831 3.45004 -0.526608 0
M  V30 3629 C 332.179 4.21965 -0.472318 0
M  V30 3630 O 333.203 3.53173 -0.463413 0
M  V30 3631 O 332.062 5.44552 -0.461075 0
M  V30 3632 H 329.156 0.826289 -0.0342851 0
M  V30 3633 H 331.702 1.49293 -0.806829 0
M  V30 3634 H 330.474 3.58796 -1.56144 0
M  V30 3635 H 330.097 3.97449 0.109449 0
M  V30 3636 N 331.094 0.475555 1.50254 0
M  V30 3637 C 332.041 -0.316293 2.28622 0
M  V30 3638 C 333.011 -0.983227 1.33873 0
M  V30 3639 O 334.196 -0.994805 1.62814 0
M  V30 3640 C 331.336 -1.38975 3.1588 0
M  V30 3641 C 330.449 -0.737146 4.25664 0
M  V30 3642 C 329.584 -1.78887 5.00173 0
M  V30 3643 C 328.623 -1.11676 6.01826 0
M  V30 3644 N 327.76 -2.11154 6.69596 0
M  V30 3645 H 332.6 0.358297 2.95838 0
M  V30 3646 H 330.137 0.188541 1.45887 0
M  V30 3647 H 332.095 -2.02383 3.64825 0
M  V30 3648 H 330.725 -2.03344 2.50701 0
M  V30 3649 H 329.777 0.0096065 3.80399 0
M  V30 3650 H 331.089 -0.206816 4.98371 0
M  V30 3651 H 330.243 -2.49865 5.52859 0
M  V30 3652 H 328.982 -2.35302 4.27182 0
M  V30 3653 H 327.987 -0.392633 5.48396 0
M  V30 3654 H 329.212 -0.55945 6.76792 0
M  V30 3655 H 327.158 -2.66577 5.99394 0
M  V30 3656 H 327.075 -1.63118 7.38193 0
M  V30 3657 H 328.343 -2.81497 7.26897 0
M  V30 3658 N 332.573 -1.56217 0.208337 0
M  V30 3659 C 333.52 -2.19699 -0.707192 0
M  V30 3660 C 334.49 -1.14836 -1.20008 0
M  V30 3661 O 335.675 -1.4314 -1.26157 0
M  V30 3662 C 332.815 -2.87061 -1.91546 0
M  V30 3663 C 331.928 -4.06483 -1.46271 0
M  V30 3664 C 331.063 -4.61665 -2.62752 0
M  V30 3665 C 330.102 -5.73417 -2.14147 0
M  V30 3666 N 329.239 -6.22948 -3.23853 0
M  V30 3667 H 334.079 -2.97575 -0.159111 0
M  V30 3668 H 331.616 -1.46948 -0.0667874 0
M  V30 3669 H 333.574 -3.24294 -2.62468 0
M  V30 3670 H 332.204 -2.11725 -2.43664 0
M  V30 3671 H 331.256 -3.74825 -0.648886 0
M  V30 3672 H 332.568 -4.87271 -1.06622 0
M  V30 3673 H 331.722 -5.01272 -3.41776 0
M  V30 3674 H 330.461 -3.80013 -3.05682 0
M  V30 3675 H 329.466 -5.33326 -1.33581 0
M  V30 3676 H 330.691 -6.56897 -1.72232 0
M  V30 3677 H 328.637 -5.44213 -3.6629 0
M  V30 3678 H 328.554 -6.98823 -2.88414 0
M  V30 3679 H 329.822 -6.6721 -4.03052 0
M  V30 3680 N 334.051 0.0651679 -1.57465 0
M  V30 3681 C 335.276 0.779605 -1.9219 0
M  V30 3682 C 335.701 1.69988 -0.805333 0
M  V30 3683 O 335.059 1.79685 0.241435 0
M  V30 3684 C 335.107 1.54364 -3.2589 0
M  V30 3685 O 334.211 2.65474 -3.1559 0
M  V30 3686 H 333.552 0.212249 -0.629163 0
M  V30 3687 H 336.082 0.0314294 -2.04576 0
M  V30 3688 H 336.092 1.92146 -3.59922 0
M  V30 3689 H 334.767 0.868457 -4.06732 0
M  V30 3690 H 333.344 2.30501 -2.93128 0
M  V30 3691 N 335.529 1.53961 0.336706 0
M  V30 3692 C 336.778 1.70751 1.07363 0
M  V30 3693 C 337.091 0.481061 1.89592 0
M  V30 3694 O 338.297 0.530046 2.66276 0
M  V30 3695 C 336.753 3.01965 1.95818 0
M  V30 3696 C 336.361 4.31971 1.18764 0
M  V30 3697 C 338.105 3.28121 2.69327 0
M  V30 3698 C 336.012 5.54255 2.06289 0
M  V30 3699 H 334.942 0.636292 0.404535 0
M  V30 3700 H 337.593 1.80459 0.332681 0
M  V30 3701 H 335.975 2.86132 2.7376 0
M  V30 3702 H 337.149 4.5853 0.456849 0
M  V30 3703 H 335.464 4.12481 0.569946 0
M  V30 3704 H 338.061 4.16673 3.35094 0
M  V30 3705 H 338.404 2.45426 3.36261 0
M  V30 3706 H 338.937 3.44762 1.98454 0
M  V30 3707 H 335.676 6.39513 1.43885 0
M  V30 3708 H 335.196 5.31935 2.77138 0
M  V30 3709 H 336.875 5.90159 2.65182 0
M  V30 3710 N 337.007 -0.598083 1.45811 0
M  V30 3711 C 337.937 -1.71873 1.58057 0
M  V30 3712 C 338.918 -1.64533 0.431615 0
M  V30 3713 O 340.103 -1.82787 0.65595 0
M  V30 3714 C 337.233 -3.10495 1.55597 0
M  V30 3715 C 336.187 -3.32654 2.69305 0
M  V30 3716 C 335.513 -4.71646 2.51902 0
M  V30 3717 C 336.813 -3.21981 4.11248 0
M  V30 3718 H 338.507 -1.61881 2.51863 0
M  V30 3719 H 336.053 -0.777372 1.21214 0
M  V30 3720 H 338.006 -3.88699 1.6276 0
M  V30 3721 H 336.73 -3.2135 0.583255 0
M  V30 3722 H 335.389 -2.56843 2.61586 0
M  V30 3723 H 335.037 -4.79246 1.52748 0
M  V30 3724 H 334.737 -4.87426 3.2816 0
M  V30 3725 H 336.261 -5.52038 2.60933 0
M  V30 3726 H 337.675 -3.90049 4.20161 0
M  V30 3727 H 336.072 -3.49289 4.87972 0
M  V30 3728 H 337.142 -2.1928 4.32486 0
M  V30 3729 N 338.485 -1.33259 -0.841409 0
M  V30 3730 C 339.418 -1.1764 -1.95541 0
M  V30 3731 C 340.396 -0.072501 -1.62438 0
M  V30 3732 O 341.58 -0.23427 -1.87039 0
M  V30 3733 C 338.707 -0.803794 -3.29024 0
M  V30 3734 C 337.753 -1.91482 -3.81099 0
M  V30 3735 S 338.586 -3.52538 -4.03085 0
M  V30 3736 C 339.742 -3.17279 -5.39523 0
M  V30 3737 H 339.975 -2.11941 -2.08491 0
M  V30 3738 H 337.508 -1.18072 -0.9949 0
M  V30 3739 H 339.466 -0.595592 -4.06156 0
M  V30 3740 H 338.127 0.120574 -3.13868 0
M  V30 3741 H 337.32 -1.60742 -4.7768 0
M  V30 3742 H 336.922 -2.07956 -3.10854 0
M  V30 3743 H 339.214 -2.67946 -6.22263 0
M  V30 3744 H 340.157 -4.1293 -5.75234 0
M  V30 3745 H 340.565 -2.53943 -5.04156 0
M  V30 3746 N 339.963 1.05934 -1.16686 0
M  V30 3747 C 341.193 1.82226 -0.973515 0
M  V30 3748 C 341.601 1.8297 0.481532 0
M  V30 3749 O 340.944 1.25009 1.34604 0
M  V30 3750 C 341.006 3.29897 -1.42858 0
M  V30 3751 C 340.67 3.52849 -2.90425 0
M  V30 3752 C 341.667 3.45595 -3.88407 0
M  V30 3753 C 339.352 3.80053 -3.28428 0
M  V30 3754 C 341.346 3.65217 -5.22394 0
M  V30 3755 C 339.033 3.99325 -4.62583 0
M  V30 3756 C 340.031 3.91905 -5.59374 0
M  V30 3757 O 339.719 4.10647 -6.91104 0
M  V30 3758 H 339.451 0.581314 -0.345036 0
M  V30 3759 H 342.005 1.3453 -1.55212 0
M  V30 3760 H 340.235 3.78472 -0.793477 0
M  V30 3761 H 341.924 3.87692 -1.20207 0
M  V30 3762 H 342.69 3.24564 -3.60393 0
M  V30 3763 H 338.569 3.84936 -2.53664 0
M  V30 3764 H 342.113 3.59341 -5.9793 0
M  V30 3765 H 338.01 4.19846 -4.90306 0
M  V30 3766 H 338.778 4.27915 -6.97733 0
M  V30 3767 N 341.441 0.965919 1.2453 0
M  V30 3768 C 342.69 0.622437 1.91856 0
M  V30 3769 C 343.003 -0.846006 1.76358 0
M  V30 3770 O 344.209 -1.29993 2.38357 0
M  V30 3771 C 342.665 1.0626 3.43856 0
M  V30 3772 C 342.273 2.55437 3.68043 0
M  V30 3773 C 344.017 0.792183 4.17043 0
M  V30 3774 C 341.924 2.93196 5.13605 0
M  V30 3775 H 340.854 0.229092 0.718354 0
M  V30 3776 H 343.505 1.17189 1.41206 0
M  V30 3777 H 341.887 0.441476 3.93531 0
M  V30 3778 H 343.061 3.22665 3.28974 0
M  V30 3779 H 341.376 2.8007 3.08139 0
M  V30 3780 H 343.973 1.05031 5.24283 0
M  V30 3781 H 344.316 -0.271584 4.15413 0
M  V30 3782 H 344.849 1.37419 3.73311 0
M  V30 3783 H 341.588 3.98636 5.20355 0
M  V30 3784 H 341.108 2.30651 5.53679 0
M  V30 3785 H 342.787 2.83004 5.81823 0
M  V30 3786 N 342.919 -1.39368 0.735821 0
M  V30 3787 C 344.147 -2.04795 0.294393 0
M  V30 3788 C 344.562 -1.55478 -1.07107 0
M  V30 3789 O 343.919 -0.720038 -1.67695 0
M  V30 3790 C 343.97 -3.6035 0.288071 0
M  V30 3791 O 343.691 -4.07852 1.59963 0
M  V30 3792 C 345.192 -4.42976 -0.169422 0
M  V30 3793 H 342.412 -0.658571 0.128551 0
M  V30 3794 H 344.956 -1.78399 0.999701 0
M  V30 3795 H 343.111 -3.85645 -0.368355 0
M  V30 3796 H 343.525 -5.02181 1.51375 0
M  V30 3797 H 344.999 -5.51864 -0.122687 0
M  V30 3798 H 345.476 -4.22068 -1.21472 0
M  V30 3799 H 346.082 -4.22832 0.457469 0
M  V30 3800 N 344.397 -0.483516 -1.5 0
M  V30 3801 C 345.622 0.0667119 -2.07293 0
M  V30 3802 C 346.047 1.3164 -1.3436 0
M  V30 3803 O 345.405 1.76945 -0.394987 0
M  V30 3804 C 345.453 0.321126 -3.59167 0
M  V30 3805 O 344.557 1.39927 -3.87936 0
M  V30 3806 H 343.898 -0.0184758 -0.663743 0
M  V30 3807 H 346.428 -0.678125 -1.93035 0
M  V30 3808 H 346.438 0.557906 -4.04168 0
M  V30 3809 H 345.113 -0.592007 -4.11665 0
M  V30 3810 H 343.69 1.14882 -3.54763 0
M  V30 3811 N 345.875 1.56104 -0.216619 0
M  V30 3812 C 346.805 2.23063 0.690296 0
M  V30 3813 C 347.786 1.20072 1.20485 0
M  V30 3814 O 348.971 1.48643 1.24976 0
M  V30 3815 C 346.101 2.90672 1.90072 0
M  V30 3816 C 345.055 4.00092 1.5202 0
M  V30 3817 C 344.381 4.54972 2.80899 0
M  V30 3818 C 345.681 5.17398 0.71391 0
M  V30 3819 H 347.375 2.99109 0.132038 0
M  V30 3820 H 344.921 1.43866 0.0620664 0
M  V30 3821 H 346.874 3.36204 2.54057 0
M  V30 3822 H 345.598 2.12066 2.48386 0
M  V30 3823 H 344.257 3.55283 0.903839 0
M  V30 3824 H 343.905 3.73102 3.37348 0
M  V30 3825 H 343.605 5.28817 2.56176 0
M  V30 3826 H 345.129 5.0322 3.45836 0
M  V30 3827 H 346.543 5.59342 1.25735 0
M  V30 3828 H 344.94 5.97444 0.563951 0
M  V30 3829 H 346.01 4.84088 -0.280527 0
M  V30 3830 N 347.353 -0.0568162 1.57498 0
M  V30 3831 C 348.6 -0.753104 1.87975 0
M  V30 3832 C 348.928 -1.76815 0.81035 0
M  V30 3833 O 348.183 -1.94756 -0.19199 0
M  V30 3834 C 348.482 -1.48359 3.25153 0
M  V30 3835 C 348.148 -0.60713 4.46794 0
M  V30 3836 C 346.81 -0.365642 4.79809 0
M  V30 3837 C 349.162 -0.000305978 5.212 0
M  V30 3838 C 346.49 0.491905 5.84634 0
M  V30 3839 C 348.842 0.844781 6.26934 0
M  V30 3840 C 347.506 1.096 6.58441 0
M  V30 3841 H 346.776 -0.27558 0.687849 0
M  V30 3842 H 349.423 -0.0135173 1.91495 0
M  V30 3843 H 347.728 -2.29577 3.17492 0
M  V30 3844 H 349.425 -2.02739 3.45974 0
M  V30 3845 H 346.015 -0.805487 4.20963 0
M  V30 3846 H 350.199 -0.173961 4.95995 0
M  V30 3847 H 345.455 0.695131 6.07436 0
M  V30 3848 H 349.629 1.32165 6.83744 0
M  V30 3849 H 347.256 1.76224 7.39492 0
M  V30 3850 N 348.832 -1.54138 -0.328536 0
M  V30 3851 C 349.764 -1.79509 -1.4251 0
M  V30 3852 C 350.777 -0.67688 -1.48061 0
M  V30 3853 O 351.966 -0.953898 -1.50874 0
M  V30 3854 C 349.066 -1.89337 -2.81078 0
M  V30 3855 C 348.239 -3.19443 -2.98789 0
M  V30 3856 C 347.298 -3.20036 -4.17688 0
M  V30 3857 O 346.324 -3.93697 -4.11086 0
M  V30 3858 N 347.526 -2.43467 -5.26976 0
M  V30 3859 H 350.291 -2.74139 -1.21111 0
M  V30 3860 H 347.852 -1.53373 -0.518499 0
M  V30 3861 H 349.844 -1.87167 -3.58818 0
M  V30 3862 H 348.414 -1.01826 -2.95551 0
M  V30 3863 H 347.634 -3.34614 -2.08391 0
M  V30 3864 H 348.922 -4.05354 -3.07515 0
M  V30 3865 H 348.32 -1.83201 -5.35214 0
M  V30 3866 H 346.877 -2.4708 -6.03154 0
M  V30 3867 N 350.31 0.590341 -1.46126 0
M  V30 3868 C 351.556 1.35082 -1.51264 0
M  V30 3869 C 351.889 1.93534 -0.160711 0
M  V30 3870 O 351.164 1.76045 0.826956 0
M  V30 3871 C 351.447 2.48588 -2.6053 0
M  V30 3872 C 351.3 1.95221 -4.05227 0
M  V30 3873 C 352.619 3.50662 -2.6594 0
M  V30 3874 H 349.738 0.489803 -0.550692 0
M  V30 3875 H 352.38 0.663887 -1.78024 0
M  V30 3876 H 350.53 3.07186 -2.37843 0
M  V30 3877 H 352.202 1.41139 -4.39178 0
M  V30 3878 H 350.445 1.26101 -4.15068 0
M  V30 3879 H 351.116 2.77121 -4.77397 0
M  V30 3880 H 353.592 3.01934 -2.86313 0
M  V30 3881 H 352.468 4.27551 -3.44226 0
M  V30 3882 H 352.729 4.07399 -1.71694 0
M  V30 3883 N 351.788 1.33704 0.83433 0
M  V30 3884 C 352.718 1.26967 1.95963 0
M  V30 3885 C 353.699 0.149337 1.69443 0
M  V30 3886 O 354.884 0.339852 1.91203 0
M  V30 3887 C 352.014 1.01275 3.32206 0
M  V30 3888 C 350.968 2.09652 3.73136 0
M  V30 3889 C 350.294 1.69166 5.07235 0
M  V30 3890 C 351.594 3.51372 3.86439 0
M  V30 3891 H 353.288 2.2112 2.01857 0
M  V30 3892 H 350.834 1.06447 0.969793 0
M  V30 3893 H 352.787 0.952106 4.10503 0
M  V30 3894 H 351.511 0.0356203 3.26581 0
M  V30 3895 H 350.17 2.14766 2.97104 0
M  V30 3896 H 349.818 0.701437 4.98085 0
M  V30 3897 H 349.518 2.41694 5.35591 0
M  V30 3898 H 351.042 1.64576 5.88003 0
M  V30 3899 H 352.456 3.48734 4.55036 0
M  V30 3900 H 350.853 4.22425 4.26236 0
M  V30 3901 H 351.923 3.89546 2.88759 0
M  V30 3902 N 353.266 -1.05314 1.17247 0
M  V30 3903 C 354.677 -1.59753 0.96623 0
M  V30 3904 C 355.028 -1.9005 -0.487378 0
M  V30 3905 O 354.153 -1.68126 -1.36245 0
M  V30 3906 C 354.748 -2.90249 1.74759 0
M  V30 3907 C 353.307 -3.41352 1.58606 0
M  V30 3908 C 352.454 -2.15103 1.75002 0
M  V30 3909 H 355.405 -0.881406 1.31973 0
M  V30 3910 H 355.426 -3.60097 1.22925 0
M  V30 3911 H 354.938 -2.68166 2.8055 0
M  V30 3912 H 353.039 -3.68474 0.552985 0
M  V30 3913 H 353.152 -4.16019 2.37624 0
M  V30 3914 H 351.516 -2.25804 1.17833 0
M  V30 3915 H 352.299 -1.95491 2.82202 0
M  V30 3916 N 354.744 -0.972509 -1.24016 0
M  V30 3917 C 355.676 -0.464375 -2.24446 0
M  V30 3918 C 356.689 0.4295 -1.57032 0
M  V30 3919 O 357.878 0.234902 -1.76948 0
M  V30 3920 C 354.978 0.348385 -3.37105 0
M  V30 3921 C 354.151 -0.53673 -4.34094 0
M  V30 3922 C 353.21 0.220838 -5.25736 0
M  V30 3923 O 352.236 -0.386867 -5.67884 0
M  V30 3924 N 353.438 1.50907 -5.60542 0
M  V30 3925 H 356.203 -1.32788 -2.68677 0
M  V30 3926 H 353.764 -0.844877 -1.38107 0
M  V30 3927 H 355.756 0.863341 -3.95384 0
M  V30 3928 H 354.326 1.11285 -2.92121 0
M  V30 3929 H 353.546 -1.23261 -3.74433 0
M  V30 3930 H 354.834 -1.14022 -4.95859 0
M  V30 3931 H 354.232 2.02444 -5.28236 0
M  V30 3932 H 352.789 1.96962 -6.21329 0
M  V30 3933 N 356.222 1.38976 -0.743202 0
M  V30 3934 C 357.154 2.29096 -0.0689228 0
M  V30 3935 C 358.167 1.47229 0.694791 0
M  V30 3936 O 359.356 1.70212 0.537597 0
M  V30 3937 C 356.456 3.25988 0.926548 0
M  V30 3938 C 355.629 4.36833 0.222647 0
M  V30 3939 C 354.688 5.13981 1.12739 0
M  V30 3940 O 353.714 5.6601 0.601795 0
M  V30 3941 N 354.916 5.25966 2.45641 0
M  V30 3942 H 357.681 2.87604 -0.842846 0
M  V30 3943 H 355.242 1.50645 -0.593109 0
M  V30 3944 H 357.234 3.74476 1.5346 0
M  V30 3945 H 355.804 2.68453 1.60162 0
M  V30 3946 H 355.024 3.90116 -0.565983 0
M  V30 3947 H 356.312 5.0811 -0.264841 0
M  V30 3948 H 355.71 4.85228 2.9081 0
M  V30 3949 H 354.267 5.77865 3.01522 0
M  V30 3950 N 357.7 0.491464 1.49741 0
M  V30 3951 C 358.946 -0.0565092 2.02721 0
M  V30 3952 C 359.279 -1.37522 1.37118 0
M  V30 3953 O 358.554 -1.87866 0.503645 0
M  V30 3954 C 358.837 -0.219051 3.59433 0
M  V30 3955 C 358.69 1.12211 4.35579 0
M  V30 3956 C 360.009 -0.964157 4.29409 0
M  V30 3957 H 357.128 -0.0190627 0.736753 0
M  V30 3958 H 359.77 0.641021 1.7886 0
M  V30 3959 H 357.92 -0.813165 3.79895 0
M  V30 3960 H 359.592 1.75437 4.26637 0
M  V30 3961 H 357.835 1.71377 3.98513 0
M  V30 3962 H 358.506 0.961794 5.43556 0
M  V30 3963 H 360.982 -0.460378 4.13545 0
M  V30 3964 H 359.858 -1.04671 5.38828 0
M  V30 3965 H 360.119 -2.00563 3.93988 0
M  V30 3966 N 359.178 -1.55987 0.224894 0
M  V30 3967 C 360.403 -2.03232 -0.41369 0
M  V30 3968 C 360.828 -1.10359 -1.52323 0
M  V30 3969 O 360.186 -0.092395 -1.81064 0
M  V30 3970 C 360.234 -3.48682 -0.919405 0
M  V30 3971 O 359.338 -3.58947 -2.03054 0
M  V30 3972 H 358.679 -0.657428 -0.0931903 0
M  V30 3973 H 361.209 -2.01679 0.34451 0
M  V30 3974 H 361.219 -3.8907 -1.22835 0
M  V30 3975 H 359.894 -4.15761 -0.107339 0
M  V30 3976 H 358.471 -3.30448 -1.72796 0
M  V30 3977 N 360.656 0.0484629 -1.57525 0
M  V30 3978 C 361.905 0.742065 -1.87553 0
M  V30 3979 C 362.218 1.77545 -0.820802 0
M  V30 3980 O 363.424 2.52027 -1.00967 0
M  V30 3981 C 361.88 1.37081 -3.32771 0
M  V30 3982 C 361.488 0.374786 -4.4643 0
M  V30 3983 C 363.232 2.04542 -3.71972 0
M  V30 3984 C 361.139 1.01077 -5.82698 0
M  V30 3985 H 360.069 0.280903 -0.699721 0
M  V30 3986 H 362.72 -0.00411877 -1.835 0
M  V30 3987 H 361.102 2.16605 -3.31509 0
M  V30 3988 H 362.276 -0.392331 -4.59127 0
M  V30 3989 H 360.591 -0.196653 -4.15935 0
M  V30 3990 H 363.188 2.52943 -4.71088 0
M  V30 3991 H 363.531 2.85515 -3.02964 0
M  V30 3992 H 364.064 1.31819 -3.75325 0
M  V30 3993 H 360.803 0.240878 -6.55057 0
M  V30 3994 H 360.323 1.74819 -5.73758 0
M  V30 3995 H 362.002 1.52383 -6.28799 0
M  V30 3996 N 362.134 1.5431 0.320358 0
M  V30 3997 C 363.044 1.86946 1.41734 0
M  V30 3998 C 364.06 0.761689 1.56443 0
M  V30 3999 O 365.236 1.05629 1.71477 0
M  V30 4000 C 362.301 2.09293 2.76401 0
M  V30 4001 C 361.362 3.33082 2.70841 0
M  V30 4002 C 360.595 3.54353 3.99086 0
M  V30 4003 O 360.818 2.79002 4.97508 0
M  V30 4004 O 359.752 4.47838 4.0215 0
M  V30 4005 H 363.578 2.80232 1.17062 0
M  V30 4006 H 361.163 1.40255 0.514673 0
M  V30 4007 H 363.045 2.25303 3.56113 0
M  V30 4008 H 361.72 1.19194 3.00956 0
M  V30 4009 H 360.627 3.22454 1.89668 0
M  V30 4010 H 361.96 4.23249 2.5124 0
M  V30 4011 N 363.613 -0.582584 1.46437 0
M  V30 4012 C 364.576 -1.67366 1.56592 0
M  V30 4013 C 365.576 -1.54575 0.443072 0
M  V30 4014 O 366.766 -1.59191 0.707381 0
M  V30 4015 C 363.898 -3.06791 1.48634 0
M  V30 4016 H 365.091 -1.5972 2.5383 0
M  V30 4017 H 362.644 -0.800432 1.34249 0
M  V30 4018 H 363.379 -3.19993 0.526763 0
M  V30 4019 H 363.164 -3.17484 2.30101 0
M  V30 4020 H 364.654 -3.86218 1.58826 0
M  V30 4021 N 365.091 -1.34144 -0.827227 0
M  V30 4022 C 366.34 -1.25602 -1.5782 0
M  V30 4023 C 366.653 0.173445 -1.94829 0
M  V30 4024 O 367.859 0.380984 -2.68814 0
M  V30 4025 C 366.315 -2.20151 -2.84713 0
M  V30 4026 C 365.923 -3.68331 -2.55021 0
M  V30 4027 C 367.667 -2.20508 -3.62735 0
M  V30 4028 C 365.574 -4.54762 -3.78082 0
M  V30 4029 H 364.504 -0.466573 -0.592306 0
M  V30 4030 H 367.155 -1.59283 -0.911116 0
M  V30 4031 H 365.537 -1.79417 -3.53023 0
M  V30 4032 H 366.711 -4.17577 -1.94849 0
M  V30 4033 H 365.026 -3.7038 -1.90283 0
M  V30 4034 H 367.623 -2.82306 -4.54101 0
M  V30 4035 H 367.966 -1.20322 -3.98533 0
M  V30 4036 H 368.499 -2.59664 -3.01362 0
M  V30 4037 H 365.238 -5.55867 -3.47407 0
M  V30 4038 H 364.758 -4.10254 -4.37552 0
M  V30 4039 H 366.437 -4.69153 -4.45538 0
M  V30 4040 N 366.569 1.04691 -1.17803 0
M  V30 4041 C 367.501 2.12571 -0.857097 0
M  V30 4042 C 368.514 1.62174 0.142647 0
M  V30 4043 O 369.703 1.78301 -0.0843387 0
M  V30 4044 C 366.803 3.37915 -0.258216 0
M  V30 4045 C 365.976 4.1757 -1.30207 0
M  V30 4046 C 365.035 5.2125 -0.720029 0
M  V30 4047 O 364.061 5.51888 -1.39314 0
M  V30 4048 N 365.263 5.78466 0.485507 0
M  V30 4049 H 368.028 2.40698 -1.78562 0
M  V30 4050 H 365.589 1.20831 -1.07757 0
M  V30 4051 H 367.581 4.04442 0.144584 0
M  V30 4052 H 366.151 3.07281 0.574199 0
M  V30 4053 H 365.371 3.46458 -1.88043 0
M  V30 4054 H 366.659 4.67586 -2.00601 0
M  V30 4055 H 366.057 5.55866 1.05022 0
M  V30 4056 H 364.614 6.4649 0.830307 0
M  V30 4057 N 368.047 0.979072 1.23499 0
M  V30 4058 C 368.957 0.526431 2.28617 0
M  V30 4059 C 369.973 -0.418126 1.68901 0
M  V30 4060 O 371.149 -0.288372 1.99325 0
M  V30 4061 C 368.214 -0.165235 3.46306 0
M  V30 4062 C 367.275 0.82056 4.21385 0
M  V30 4063 C 366.508 0.161807 5.33455 0
M  V30 4064 O 366.731 -1.04742 5.60701 0
M  V30 4065 O 365.665 0.859708 5.95729 0
M  V30 4066 H 369.491 1.4006 2.69475 0
M  V30 4067 H 367.076 0.746643 1.29405 0
M  V30 4068 H 368.958 -0.553287 4.17752 0
M  V30 4069 H 367.633 -1.01419 3.07402 0
M  V30 4070 H 366.54 1.25929 3.52268 0
M  V30 4071 H 367.873 1.63828 4.64135 0
M  V30 4072 N 369.525 -1.3858 0.750561 0
M  V30 4073 C 370.771 -2.00481 0.305825 0
M  V30 4074 C 371.104 -1.5944 -1.10872 0
M  V30 4075 O 370.379 -0.83052 -1.75877 0
M  V30 4076 C 370.662 -3.5758 0.425287 0
M  V30 4077 C 370.515 -4.08594 1.88072 0
M  V30 4078 C 371.834 -4.39719 -0.183122 0
M  V30 4079 H 368.953 -0.728348 0.112598 0
M  V30 4080 H 371.595 -1.64566 0.949638 0
M  V30 4081 H 369.745 -3.88306 -0.122828 0
M  V30 4082 H 371.417 -3.88523 2.48691 0
M  V30 4083 H 369.66 -3.61574 2.39681 0
M  V30 4084 H 370.331 -5.177 1.91548 0
M  V30 4085 H 372.807 -4.15128 0.284303 0
M  V30 4086 H 371.683 -5.48856 -0.0692757 0
M  V30 4087 H 371.944 -4.23434 -1.27106 0
M  V30 4088 N 371.003 -0.499398 -1.49478 0
M  V30 4089 C 371.913 0.284489 -2.32869 0
M  V30 4090 C 372.929 0.968885 -1.44529 0
M  V30 4091 O 374.105 0.95062 -1.77553 0
M  V30 4092 C 371.17 1.33594 -3.19928 0
M  V30 4093 C 370.231 0.665149 -4.24116 0
M  V30 4094 C 369.464 1.6665 -5.07014 0
M  V30 4095 O 369.687 2.89618 -4.91404 0
M  V30 4096 O 368.621 1.22271 -5.8935 0
M  V30 4097 H 372.447 -0.39802 -3.01081 0
M  V30 4098 H 370.032 -0.260758 -1.47107 0
M  V30 4099 H 371.914 1.94431 -3.73864 0
M  V30 4100 H 370.589 2.0014 -2.54412 0
M  V30 4101 H 369.496 0.0170769 -3.74096 0
M  V30 4102 H 370.829 0.0421555 -4.92182 0
M  V30 4103 N 372.481 1.55866 -0.233164 0
M  V30 4104 C 373.414 2.16794 0.712442 0
M  V30 4105 C 374.392 1.1158 1.18273 0
M  V30 4106 O 375.576 1.39897 1.26337 0
M  V30 4107 C 372.703 2.75757 1.96661 0
M  V30 4108 C 371.749 3.93902 1.63533 0
M  V30 4109 S 372.582 5.30223 0.74995 0
M  V30 4110 C 373.738 5.92631 2.01343 0
M  V30 4111 H 373.971 2.96662 0.194617 0
M  V30 4112 H 371.504 1.5439 -0.0177425 0
M  V30 4113 H 373.462 3.10367 2.68668 0
M  V30 4114 H 372.123 1.9586 2.45556 0
M  V30 4115 H 371.316 4.33702 2.56747 0
M  V30 4116 H 370.918 3.60499 0.995804 0
M  V30 4117 H 373.21 6.09312 2.96219 0
M  V30 4118 H 374.153 6.88388 1.65915 0
M  V30 4119 H 374.561 5.21571 2.15925 0
M  V30 4120 N 373.959 -0.0401083 1.57549 0
M  V30 4121 C 374.889 -1.04384 2.08869 0
M  V30 4122 C 375.87 -1.38407 0.988817 0
M  V30 4123 O 377.055 -1.47483 1.26342 0
M  V30 4124 C 374.185 -2.34808 2.55895 0
M  V30 4125 C 373.139 -2.15057 3.70047 0
M  V30 4126 C 372.465 -3.51145 4.03239 0
M  V30 4127 C 373.765 -1.54576 4.98902 0
M  V30 4128 H 375.459 -0.616666 2.92981 0
M  V30 4129 H 373.005 -0.295184 1.40942 0
M  V30 4130 H 374.958 -3.05346 2.90417 0
M  V30 4131 H 373.682 -2.79565 1.68853 0
M  V30 4132 H 372.341 -1.46954 3.35857 0
M  V30 4133 H 371.989 -3.93529 3.13279 0
M  V30 4134 H 371.689 -3.38758 4.80122 0
M  V30 4135 H 373.213 -4.23062 4.40285 0
M  V30 4136 H 374.627 -2.15017 5.31451 0
M  V30 4137 H 373.024 -1.52796 5.80322 0
M  V30 4138 H 374.094 -0.51039 4.82206 0
M  V30 4139 N 375.437 -1.54477 -0.31217 0
M  V30 4140 C 376.848 -1.64344 -0.885891 0
M  V30 4141 C 377.199 -0.54485 -1.88483 0
M  V30 4142 O 376.324 0.320387 -2.14015 0
M  V30 4143 C 376.919 -2.97908 -1.61357 0
M  V30 4144 C 375.478 -3.09933 -2.13585 0
M  V30 4145 C 374.625 -2.59971 -0.964897 0
M  V30 4146 H 377.576 -1.58448 -0.0894528 0
M  V30 4147 H 377.597 -2.88706 -2.47848 0
M  V30 4148 H 377.109 -3.77845 -0.886277 0
M  V30 4149 H 375.21 -2.34694 -2.89395 0
M  V30 4150 H 375.323 -4.15916 -2.37804 0
M  V30 4151 H 373.687 -2.16147 -1.34731 0
M  V30 4152 H 374.47 -3.42376 -0.251742 0
M  V30 4153 N 376.915 0.57481 -1.46744 0
M  V30 4154 C 378.331 0.898981 -1.31873 0
M  V30 4155 C 378.531 1.99313 -0.29605 0
M  V30 4156 O 377.587 2.50728 0.298621 0
M  V30 4157 C 378.9 1.30886 -2.7072 0
M  V30 4158 C 380.448 1.42127 -2.78871 0
M  V30 4159 C 380.923 1.86478 -4.18318 0
M  V30 4160 N 382.414 1.93658 -4.20774 0
M  V30 4161 C 383.149 2.29267 -5.2557 0
M  V30 4162 N 382.645 2.63612 -6.40688 0
M  V30 4163 N 384.438 2.29889 -5.1294 0
M  V30 4164 H 376.589 -0.147839 -2.11885 0
M  V30 4165 H 378.852 -0.00347013 -0.947994 0
M  V30 4166 H 378.558 0.578853 -3.46904 0
M  V30 4167 H 378.432 2.26874 -3.01343 0
M  V30 4168 H 380.819 2.14213 -2.0297 0
M  V30 4169 H 380.9 0.443705 -2.51922 0
M  V30 4170 H 380.544 1.14968 -4.94717 0
M  V30 4171 H 380.474 2.85207 -4.42679 0
M  V30 4172 H 382.965 1.69574 -3.37718 0
M  V30 4173 H 383.278 2.89759 -7.16421 0
M  V30 4174 H 381.623 2.61232 -6.44036 0
M  V30 4175 H 384.814 2.02485 -4.22039 0
M  V30 4176 H 384.987 2.57312 -5.94722 0
M  V30 4177 N 378.394 1.34581 0.820102 0
M  V30 4178 C 379.805 1.24298 1.39309 0
M  V30 4179 C 380.156 -0.130351 1.95767 0
M  V30 4180 O 379.281 -1.0308 1.90272 0
M  V30 4181 C 379.876 2.25054 2.53251 0
M  V30 4182 C 378.435 2.18552 3.0645 0
M  V30 4183 C 377.582 2.11503 1.79337 0
M  V30 4184 H 380.533 1.45906 0.624262 0
M  V30 4185 H 380.554 1.86917 3.31425 0
M  V30 4186 H 380.066 3.24996 2.1213 0
M  V30 4187 H 378.167 1.21976 3.52069 0
M  V30 4188 H 378.28 3.0993 3.65349 0
M  V30 4189 H 376.644 1.57268 2.00347 0
M  V30 4190 H 377.427 3.13284 1.40386 0
M  V30 4191 N 379.872 -1.04064 1.18357 0
M  V30 4192 C 381.283 -1.58719 0.98312 0
M  V30 4193 C 381.634 -1.90556 -0.467193 0
M  V30 4194 O 380.759 -1.69561 -1.34454 0
M  V30 4195 C 381.354 -2.88379 1.77828 0
M  V30 4196 C 379.913 -3.3965 1.62218 0
M  V30 4197 C 379.06 -2.13235 1.77274 0
M  V30 4198 H 382.011 -0.867359 1.32901 0
M  V30 4199 H 382.032 -3.58773 1.26737 0
M  V30 4200 H 381.544 -2.65176 2.83379 0
M  V30 4201 H 379.645 -3.67866 0.592036 0
M  V30 4202 H 379.758 -4.13475 2.42023 0
M  V30 4203 H 378.122 -2.24542 1.20221 0
M  V30 4204 H 378.905 -1.92487 2.8426 0
M  V30 4205 N 381.35 -0.985608 -1.22978 0
M  V30 4206 C 382.297 -0.529825 -2.24636 0
M  V30 4207 C 383.267 0.434028 -1.60329 0
M  V30 4208 O 384.452 0.340414 -1.87739 0
M  V30 4209 C 381.592 0.156533 -3.44745 0
M  V30 4210 C 380.705 -0.848197 -4.23591 0
M  V30 4211 C 379.84 -0.136109 -5.31026 0
M  V30 4212 C 378.879 -1.1297 -6.01585 0
M  V30 4213 N 378.016 -0.446415 -7.00679 0
M  V30 4214 H 382.856 -1.40148 -2.62988 0
M  V30 4215 H 380.393 -0.702168 -1.29259 0
M  V30 4216 H 382.351 0.571324 -4.1327 0
M  V30 4217 H 380.981 0.992025 -3.07179 0
M  V30 4218 H 380.033 -1.38135 -3.54433 0
M  V30 4219 H 381.345 -1.60512 -4.72268 0
M  V30 4220 H 380.499 0.335784 -6.0577 0
M  V30 4221 H 379.238 0.653373 -4.83304 0
M  V30 4222 H 378.243 -1.6123 -5.25628 0
M  V30 4223 H 379.468 -1.91993 -6.51395 0
M  V30 4224 H 377.414 0.323763 -6.55201 0
M  V30 4225 H 377.331 -1.1419 -7.47326 0
M  V30 4226 H 378.599 0.00291697 -7.795 0
M  V30 4227 N 382.828 1.3818 -0.7579 0
M  V30 4228 C 384.074 2.00316 -0.316453 0
M  V30 4229 C 384.407 1.60026 1.10025 0
M  V30 4230 O 383.682 0.839835 1.75434 0
M  V30 4231 C 383.965 3.57349 -0.444245 0
M  V30 4232 C 383.818 4.07591 -1.90236 0
M  V30 4233 C 385.137 4.3981 0.1598 0
M  V30 4234 H 382.256 0.727741 -0.116459 0
M  V30 4235 H 384.898 1.6406 -0.958352 0
M  V30 4236 H 383.048 3.88365 0.102233 0
M  V30 4237 H 384.72 3.87199 -2.50748 0
M  V30 4238 H 382.963 3.60297 -2.41595 0
M  V30 4239 H 383.634 5.16677 -1.94291 0
M  V30 4240 H 386.11 4.14971 -0.306314 0
M  V30 4241 H 384.986 5.48885 0.0401675 0
M  V30 4242 H 385.247 4.24102 1.24859 0
M  V30 4243 N 384.306 0.507319 1.49211 0
M  V30 4244 C 385.534 -0.0315749 2.06876 0
M  V30 4245 C 385.949 -1.30241 1.36685 0
M  V30 4246 O 385.306 -1.76937 0.447152 0
M  V30 4247 C 385.357 -0.282627 3.60393 0
M  V30 4248 O 385.078 0.937835 4.27944 0
M  V30 4249 C 386.579 -0.864453 4.3479 0
M  V30 4250 H 383.799 0.0233048 0.670595 0
M  V30 4251 H 386.343 0.706484 1.91909 0
M  V30 4252 H 384.498 -0.97068 3.75042 0
M  V30 4253 H 384.912 0.704567 5.19746 0
M  V30 4254 H 386.386 -0.989664 5.43056 0
M  V30 4255 H 386.863 -1.86382 3.97692 0
M  V30 4256 H 387.469 -0.213672 4.24763 0
M  V30 4257 N 385.784 -1.5574 0.241426 0
M  V30 4258 C 386.731 -2.21149 -0.660432 0
M  V30 4259 C 387.701 -1.17356 -1.17545 0
M  V30 4260 O 388.886 -1.45784 -1.23093 0
M  V30 4261 C 386.026 -2.91059 -1.85414 0
M  V30 4262 C 385.139 -4.09495 -1.37616 0
M  V30 4263 C 384.274 -4.67135 -2.529 0
M  V30 4264 C 383.313 -5.77831 -2.01936 0
M  V30 4265 N 382.45 -6.29677 -3.10566 0
M  V30 4266 H 387.29 -2.97845 -0.095955 0
M  V30 4267 H 384.827 -1.47057 -0.0356024 0
M  V30 4268 H 386.785 -3.29788 -2.5553 0
M  V30 4269 H 385.415 -2.16846 -2.39118 0
M  V30 4270 H 384.467 -3.76117 -0.569235 0
M  V30 4271 H 385.779 -4.89423 -0.962618 0
M  V30 4272 H 384.933 -5.08409 -3.31067 0
M  V30 4273 H 383.672 -3.86411 -2.97553 0
M  V30 4274 H 382.677 -5.36039 -1.22238 0
M  V30 4275 H 383.902 -6.60402 -1.58259 0
M  V30 4276 H 381.848 -5.5186 -3.54664 0
M  V30 4277 H 381.765 -7.04783 -2.73526 0
M  V30 4278 H 383.033 -6.75609 -3.88809 0
M  V30 4279 N 387.262 0.0317525 -1.57568 0
M  V30 4280 C 388.172 1.05021 -2.0978 0
M  V30 4281 C 389.188 1.39809 -1.03583 0
M  V30 4282 O 390.364 1.49182 -1.35302 0
M  V30 4283 C 387.429 2.33301 -2.56459 0
M  V30 4284 C 386.49 2.0512 -3.77127 0
M  V30 4285 C 385.723 3.27283 -4.2157 0
M  V30 4286 O 385.946 4.37861 -3.65559 0
M  V30 4287 O 384.88 3.13141 -5.14029 0
M  V30 4288 H 388.706 0.636505 -2.96955 0
M  V30 4289 H 386.291 0.248559 -1.47318 0
M  V30 4290 H 388.173 3.08722 -2.86825 0
M  V30 4291 H 386.848 2.73973 -1.72397 0
M  V30 4292 H 385.755 1.27276 -3.51784 0
M  V30 4293 H 387.088 1.69305 -4.62165 0
M  V30 4294 N 388.74 1.54641 0.303973 0
M  V30 4295 C 389.65 1.88439 1.39743 0
M  V30 4296 C 390.666 0.778239 1.55626 0
M  V30 4297 O 391.842 1.07442 1.70347 0
M  V30 4298 C 388.907 2.12212 2.74166 0
M  V30 4299 C 387.968 3.35936 2.67293 0
M  V30 4300 C 387.201 3.58566 3.95305 0
M  V30 4301 O 387.424 2.84263 4.9452 0
M  V30 4302 O 386.358 4.52078 3.97378 0
M  V30 4303 H 390.184 2.81458 1.14083 0
M  V30 4304 H 387.769 1.40793 0.499768 0
M  V30 4305 H 389.651 2.29067 3.53704 0
M  V30 4306 H 388.326 1.22379 2.99675 0
M  V30 4307 H 387.233 3.24448 1.86237 0
M  V30 4308 H 388.566 4.2589 2.46736 0
M  V30 4309 N 390.218 -0.567019 1.47046 0
M  V30 4310 C 391.168 -1.67018 1.55207 0
M  V30 4311 C 392.152 -1.55543 0.411714 0
M  V30 4312 O 393.344 -1.64192 0.661064 0
M  V30 4313 C 390.473 -3.05801 1.56014 0
M  V30 4314 C 389.559 -3.22515 2.75399 0
M  V30 4315 N 389.95 -3.09329 4.00186 0
M  V30 4316 C 388.248 -3.53493 2.71954 0
M  V30 4317 C 388.949 -3.2847 4.80086 0
M  V30 4318 N 387.925 -3.54352 4.12233 0
M  V30 4319 H 391.727 -1.55377 2.4947 0
M  V30 4320 H 389.241 -0.771503 1.42904 0
M  V30 4321 H 391.238 -3.84996 1.59949 0
M  V30 4322 H 389.898 -3.18561 0.628396 0
M  V30 4323 H 390.909 -2.86863 4.31196 0
M  V30 4324 H 387.586 -3.7284 1.87873 0
M  V30 4325 H 388.976 -3.23326 5.88991 0
M  V30 4326 N 391.696 -1.35014 -0.812953 0
M  V30 4327 C 392.943 -1.27931 -1.56971 0
M  V30 4328 C 393.271 0.148034 -1.93936 0
M  V30 4329 O 392.526 1.11175 -1.61054 0
M  V30 4330 C 392.825 -2.12524 -2.87347 0
M  V30 4331 C 392.491 -3.61401 -2.6963 0
M  V30 4332 C 391.153 -4.01983 -2.64506 0
M  V30 4333 C 393.505 -4.55894 -2.52607 0
M  V30 4334 C 390.833 -5.35235 -2.40293 0
M  V30 4335 C 393.185 -5.89336 -2.29925 0
M  V30 4336 C 391.849 -6.2907 -2.23219 0
M  V30 4337 H 391.119 -0.468131 -0.574399 0
M  V30 4338 H 393.766 -1.66851 -0.939836 0
M  V30 4339 H 392.071 -1.66463 -3.54679 0
M  V30 4340 H 393.768 -2.04383 -3.45005 0
M  V30 4341 H 390.358 -3.29193 -2.74463 0
M  V30 4342 H 394.542 -4.25431 -2.55583 0
M  V30 4343 H 389.798 -5.65028 -2.33566 0
M  V30 4344 H 393.972 -6.62139 -2.15743 0
M  V30 4345 H 391.599 -7.32256 -2.04219 0
M  V30 4346 N 393.175 1.03435 -1.18907 0
M  V30 4347 C 394.107 2.1165 -0.879595 0
M  V30 4348 C 395.12 1.62316 0.125439 0
M  V30 4349 O 396.309 1.78201 -0.103245 0
M  V30 4350 C 393.409 3.37622 -0.294042 0
M  V30 4351 C 392.582 4.16166 -1.34629 0
M  V30 4352 C 391.641 5.20457 -0.775274 0
M  V30 4353 O 390.667 5.50379 -1.4516 0
M  V30 4354 N 391.869 5.78949 0.424126 0
M  V30 4355 H 394.634 2.38791 -1.81105 0
M  V30 4356 H 392.195 1.19681 -1.09032 0
M  V30 4357 H 394.187 4.04572 0.101679 0
M  V30 4358 H 392.757 3.07873 0.541575 0
M  V30 4359 H 391.977 3.44444 -1.91707 0
M  V30 4360 H 393.265 4.65432 -2.05549 0
M  V30 4361 H 392.663 5.56948 0.991209 0
M  V30 4362 H 391.22 6.47334 0.761691 0
M  V30 4363 N 394.653 0.992116 1.22453 0
M  V30 4364 C 395.583 0.561677 2.26644 0
M  V30 4365 C 396.564 -0.411055 1.65059 0
M  V30 4366 O 397.749 -0.301861 1.9184 0
M  V30 4367 C 394.879 -0.125247 3.47074 0
M  V30 4368 C 393.833 0.765948 4.21091 0
M  V30 4369 C 393.159 -0.0538484 5.34673 0
M  V30 4370 C 394.459 2.06242 4.79856 0
M  V30 4371 H 396.153 1.43259 2.62902 0
M  V30 4372 H 393.699 0.690283 1.26377 0
M  V30 4373 H 395.652 -0.437764 4.1912 0
M  V30 4374 H 394.376 -1.03069 3.0991 0
M  V30 4375 H 393.035 1.0621 3.50878 0
M  V30 4376 H 392.683 -0.960188 4.9375 0
M  V30 4377 H 392.383 0.539415 5.85119 0
M  V30 4378 H 393.907 -0.360477 6.09535 0
M  V30 4379 H 395.321 1.8139 5.43848 0
M  V30 4380 H 393.718 2.60444 5.40638 0
M  V30 4381 H 394.788 2.74167 3.99951 0
M  V30 4382 N 396.131 -1.37776 0.765217 0
M  V30 4383 C 397.081 -2.2768 0.12075 0
M  V30 4384 C 398.065 -1.45778 -0.680988 0
M  V30 4385 O 399.257 -1.684 -0.545033 0
M  V30 4386 C 396.386 -3.34722 -0.762626 0
M  V30 4387 C 395.472 -4.24074 0.0465881 0
M  V30 4388 N 395.863 -4.93939 1.08892 0
M  V30 4389 C 394.161 -4.45643 -0.178418 0
M  V30 4390 C 394.862 -5.59845 1.57951 0
M  V30 4391 N 393.838 -5.36218 0.892797 0
M  V30 4392 H 397.64 -2.79166 0.918889 0
M  V30 4393 H 395.154 -1.50816 0.602353 0
M  V30 4394 H 397.151 -3.98031 -1.24005 0
M  V30 4395 H 395.811 -2.84793 -1.55959 0
M  V30 4396 H 396.822 -4.96572 1.47095 0
M  V30 4397 H 393.499 -4.06599 -0.9478 0
M  V30 4398 H 394.889 -6.25703 2.44838 0
M  V30 4399 N 397.609 -0.515225 -1.4894 0
M  V30 4400 C 398.559 0.275113 -2.26334 0
M  V30 4401 C 399.543 0.923007 -1.31793 0
M  V30 4402 O 400.735 0.828254 -1.56426 0
M  V30 4403 C 397.864 1.33041 -3.16473 0
M  V30 4404 C 396.95 0.688051 -4.18481 0
M  V30 4405 N 397.341 -0.217638 -5.05332 0
M  V30 4406 C 395.639 0.94699 -4.3583 0
M  V30 4407 C 396.34 -0.58676 -5.78733 0
M  V30 4408 N 395.316 0.0486966 -5.43578 0
M  V30 4409 H 399.118 -0.421876 -2.90856 0
M  V30 4410 H 396.632 -0.332249 -1.58965 0
M  V30 4411 H 398.629 1.9102 -3.70563 0
M  V30 4412 H 397.289 2.02894 -2.53504 0
M  V30 4413 H 398.3 -0.589343 -5.14536 0
M  V30 4414 H 394.977 1.63719 -3.8406 0
M  V30 4415 H 396.367 -1.32855 -6.58634 0
M  V30 4416 N 399.087 1.5561 -0.249682 0
M  V30 4417 C 400.019 2.18834 0.681496 0
M  V30 4418 C 401.032 1.16546 1.1367 0
M  V30 4419 O 402.221 1.43397 1.06299 0
M  V30 4420 C 399.321 2.77992 1.9384 0
M  V30 4421 C 398.494 4.05725 1.63419 0
M  V30 4422 C 397.553 4.49174 2.74096 0
M  V30 4423 O 396.579 5.15492 2.41364 0
M  V30 4424 N 397.781 4.17191 4.03649 0
M  V30 4425 H 400.546 2.9937 0.140514 0
M  V30 4426 H 398.107 1.6175 -0.0697541 0
M  V30 4427 H 400.099 3.04015 2.67127 0
M  V30 4428 H 398.669 2.01596 2.38909 0
M  V30 4429 H 397.889 3.87261 0.736358 0
M  V30 4430 H 399.177 4.88999 1.40562 0
M  V30 4431 H 398.575 3.63955 4.33074 0
M  V30 4432 H 397.132 4.48043 4.73393 0
M  V30 4433 N 400.565 -0.0233959 1.57583 0
M  V30 4434 C 401.498 -1.05549 2.02323 0
M  V30 4435 C 402.476 -1.34843 0.908626 0
M  V30 4436 O 403.66 -1.47404 1.17491 0
M  V30 4437 C 400.787 -2.38885 2.40108 0
M  V30 4438 C 399.833 -2.2541 3.62067 0
M  V30 4439 S 400.666 -1.60217 5.1097 0
M  V30 4440 C 401.822 -2.95032 5.52003 0
M  V30 4441 H 402.055 -0.674435 2.89549 0
M  V30 4442 H 399.588 -0.23355 1.52623 0
M  V30 4443 H 401.546 -3.15562 2.62547 0
M  V30 4444 H 400.207 -2.74137 1.53323 0
M  V30 4445 H 399.4 -3.23854 3.86179 0
M  V30 4446 H 399.002 -1.56876 3.39508 0
M  V30 4447 H 401.294 -3.91357 5.53033 0
M  V30 4448 H 402.237 -2.75646 6.52246 0
M  V30 4449 H 402.645 -2.97865 4.79517 0
M  V30 4450 N 402.043 -1.548 -0.295768 0
M  V30 4451 C 402.993 -1.82497 -1.3667 0
M  V30 4452 C 403.977 -0.682434 -1.45711 0
M  V30 4453 O 405.169 -0.943207 -1.49775 0
M  V30 4454 C 402.298 -2.08036 -2.73086 0
M  V30 4455 C 401.384 -3.28488 -2.68247 0
M  V30 4456 N 401.775 -4.48924 -2.33025 0
M  V30 4457 C 400.073 -3.3062 -2.99343 0
M  V30 4458 C 400.774 -5.30956 -2.37613 0
M  V30 4459 N 399.75 -4.68805 -2.75178 0
M  V30 4460 H 403.552 -2.73175 -1.0841 0
M  V30 4461 H 401.066 -1.5437 -0.504361 0
M  V30 4462 H 403.063 -2.26027 -3.5031 0
M  V30 4463 H 401.723 -1.18629 -3.02254 0
M  V30 4464 H 402.734 -4.75432 -2.05389 0
M  V30 4465 H 399.411 -2.51336 -3.33371 0
M  V30 4466 H 400.801 -6.37199 -2.13135 0
M  V30 4467 N 403.521 0.559213 -1.47345 0
M  V30 4468 C 404.751 1.33999 -1.57251 0
M  V30 4469 C 405.159 1.87905 -0.220978 0
M  V30 4470 O 404.502 1.65577 0.795617 0
M  V30 4471 C 404.564 2.54798 -2.53611 0
M  V30 4472 C 404.228 2.22192 -3.99349 0
M  V30 4473 C 405.225 1.79607 -4.87891 0
M  V30 4474 C 402.91 2.33613 -4.44669 0
M  V30 4475 C 404.904 1.48868 -6.19772 0
M  V30 4476 C 402.591 2.02487 -5.76578 0
M  V30 4477 C 403.589 1.60183 -6.63951 0
M  V30 4478 O 403.277 1.29451 -7.93409 0
M  V30 4479 H 403.009 0.414858 -0.533731 0
M  V30 4480 H 405.563 0.684465 -1.9366 0
M  V30 4481 H 403.793 3.23235 -2.12265 0
M  V30 4482 H 405.482 3.16873 -2.53666 0
M  V30 4483 H 406.248 1.70278 -4.54126 0
M  V30 4484 H 402.127 2.65501 -3.76869 0
M  V30 4485 H 405.671 1.15775 -6.87926 0
M  V30 4486 H 401.568 2.11448 -6.09885 0
M  V30 4487 H 402.336 1.43098 -8.05894 0
M  V30 4488 N 404.999 1.35443 0.805782 0
M  V30 4489 C 406.224 1.32037 1.59941 0
M  V30 4490 C 406.649 -0.0994215 1.87837 0
M  V30 4491 O 406.007 -1.06648 1.46615 0
M  V30 4492 C 406.055 2.13354 2.90711 0
M  V30 4493 O 405.159 1.5148 3.83572 0
M  V30 4494 H 404.5 0.452666 0.485787 0
M  V30 4495 H 407.03 1.78496 1.00002 0
M  V30 4496 H 407.04 2.25338 3.40128 0
M  V30 4497 H 405.715 3.16572 2.69732 0
M  V30 4498 H 404.292 1.4834 3.42125 0
M  V30 4499 N 406.477 -1.02803 1.19454 0
M  V30 4500 C 407.409 -2.11181 0.890807 0
M  V30 4501 C 408.422 -1.6238 -0.116829 0
M  V30 4502 O 409.611 -1.78144 0.112694 0
M  V30 4503 C 406.711 -3.37461 0.311942 0
M  V30 4504 C 405.884 -4.15446 1.36834 0
M  V30 4505 C 404.943 -5.20039 0.802864 0
M  V30 4506 O 403.969 -5.49602 1.48077 0
M  V30 4507 N 405.171 -5.79165 -0.393417 0
M  V30 4508 H 407.936 -2.37827 1.82369 0
M  V30 4509 H 405.497 -1.19101 1.09666 0
M  V30 4510 H 407.489 -4.0462 -0.0802225 0
M  V30 4511 H 406.059 -3.08156 -0.52524 0
M  V30 4512 H 405.279 -3.43423 1.93531 0
M  V30 4513 H 406.567 -4.64335 2.08015 0
M  V30 4514 H 405.965 -5.57466 -0.961658 0
M  V30 4515 H 404.522 -6.47729 -0.727351 0
M  V30 4516 N 407.956 -0.998596 -1.21925 0
M  V30 4517 C 408.888 -0.511879 -2.23411 0
M  V30 4518 C 409.901 0.396094 -1.57908 0
M  V30 4519 O 411.09 0.197316 -1.77406 0
M  V30 4520 C 408.19 0.276802 -3.37768 0
M  V30 4521 C 407.363 -0.628687 -4.32858 0
M  V30 4522 C 406.422 0.109272 -5.26087 0
M  V30 4523 O 405.448 -0.507237 -5.66935 0
M  V30 4524 N 406.65 1.38983 -5.63617 0
M  V30 4525 H 409.415 -1.38457 -2.658 0
M  V30 4526 H 406.976 -0.873981 -1.36283 0
M  V30 4527 H 408.968 0.77928 -3.97126 0
M  V30 4528 H 407.538 1.05063 -2.94415 0
M  V30 4529 H 406.758 -1.31175 -3.71735 0
M  V30 4530 H 408.046 -1.24514 -4.93329 0
M  V30 4531 H 407.444 1.91194 -5.32411 0
M  V30 4532 H 406.001 1.83739 -6.25367 0
M  V30 4533 N 409.434 1.37368 -0.772513 0
M  V30 4534 C 410.683 1.98918 -0.333861 0
M  V30 4535 C 410.996 1.62017 1.09589 0
M  V30 4536 O 412.202 2.16676 1.63596 0
M  V30 4537 C 410.658 3.55735 -0.545971 0
M  V30 4538 C 410.266 4.01573 -1.98603 0
M  V30 4539 C 412.01 4.24156 -0.170979 0
M  V30 4540 C 409.917 5.51102 -2.1457 0
M  V30 4541 H 408.847 0.744214 -0.121085 0
M  V30 4542 H 411.498 1.56888 -0.95175 0
M  V30 4543 H 409.88 3.95748 0.141387 0
M  V30 4544 H 411.054 3.72803 -2.7084 0
M  V30 4545 H 409.369 3.45937 -2.31769 0
M  V30 4546 H 411.966 5.34024 -0.26878 0
M  V30 4547 H 412.309 4.06917 0.878855 0
M  V30 4548 H 412.842 3.89447 -0.810914 0
M  V30 4549 H 409.581 5.73268 -3.17875 0
M  V30 4550 H 409.101 5.81554 -1.46817 0
M  V30 4551 H 410.78 6.17083 -1.94468 0
M  V30 4552 N 410.912 0.523116 1.48665 0
M  V30 4553 C 412.14 -0.0096312 2.06898 0
M  V30 4554 C 412.555 -1.28784 1.38059 0
M  V30 4555 O 411.912 -1.76453 0.465893 0
M  V30 4556 C 411.963 -0.244386 3.60673 0
M  V30 4557 O 411.684 0.983172 4.26925 0
M  V30 4558 C 413.185 -0.818289 4.35682 0
M  V30 4559 H 410.405 0.0304161 0.67031 0
M  V30 4560 H 412.949 0.726799 1.91149 0
M  V30 4561 H 411.104 -0.930847 3.76051 0
M  V30 4562 H 411.518 0.759653 5.1897 0
M  V30 4563 H 412.992 -0.93201 5.44075 0
M  V30 4564 H 413.469 -1.82153 3.99646 0
M  V30 4565 H 414.075 -0.168609 4.24966 0
M  V30 4566 N 412.39 -1.55475 0.257931 0
M  V30 4567 C 413.636 -1.99502 -0.364266 0
M  V30 4568 C 413.969 -1.146 -1.56782 0
M  V30 4569 O 413.244 -0.211968 -1.93342 0
M  V30 4570 C 413.527 -3.51917 -0.763333 0
M  V30 4571 C 413.38 -4.4758 0.446371 0
M  V30 4572 C 414.699 -4.09742 -1.60623 0
M  V30 4573 H 411.818 -0.725277 -0.130929 0
M  V30 4574 H 414.46 -1.8653 0.361446 0
M  V30 4575 H 412.61 -3.63101 -1.38166 0
M  V30 4576 H 414.282 -4.48362 1.08487 0
M  V30 4577 H 412.525 -4.19947 1.08753 0
M  V30 4578 H 413.196 -5.51862 0.123645 0
M  V30 4579 H 415.672 -4.01727 -1.08418 0
M  V30 4580 H 414.548 -5.16631 -1.85429 0
M  V30 4581 H 414.809 -3.58889 -2.58169 0
M  V30 4582 N 413.868 0.0150385 -1.57593 0
M  V30 4583 C 415.093 0.718067 -1.94573 0
M  V30 4584 C 415.518 1.6734 -0.859005 0
M  V30 4585 O 414.876 1.80362 0.184147 0
M  V30 4586 C 414.924 1.43918 -3.30636 0
M  V30 4587 O 414.028 2.55299 -3.23876 0
M  V30 4588 H 413.369 0.192125 -0.635597 0
M  V30 4589 H 415.899 -0.0336708 -2.04572 0
M  V30 4590 H 415.909 1.80598 -3.65853 0
M  V30 4591 H 414.584 0.738619 -4.09289 0
M  V30 4592 H 413.161 2.21058 -3.00312 0
M  V30 4593 N 415.346 1.54954 0.287554 0
M  V30 4594 C 416.276 1.89839 1.35954 0
M  V30 4595 C 417.257 0.758675 1.52244 0
M  V30 4596 O 418.442 1.01557 1.65529 0
M  V30 4597 C 415.572 2.15753 2.72154 0
M  V30 4598 C 414.526 3.3159 2.70614 0
M  V30 4599 C 413.852 3.42952 4.10229 0
M  V30 4600 C 415.152 4.68359 2.31165 0
M  V30 4601 H 416.846 2.79625 1.07007 0
M  V30 4602 H 414.392 1.3454 0.513316 0
M  V30 4603 H 416.345 2.38743 3.47246 0
M  V30 4604 H 415.069 1.22752 3.02654 0
M  V30 4605 H 413.728 3.08545 1.97979 0
M  V30 4606 H 413.376 2.47443 4.37928 0
M  V30 4607 H 413.076 4.20826 4.10097 0
M  V30 4608 H 414.6 3.68218 4.87081 0
M  V30 4609 H 416.014 4.9099 2.95976 0
M  V30 4610 H 414.411 5.49044 2.42221 0
M  V30 4611 H 415.481 4.68165 1.26291 0
M  V30 4612 N 416.824 -0.551391 1.4764 0
M  V30 4613 C 417.787 -1.64007 1.60107 0
M  V30 4614 C 418.787 -1.53601 0.47576 0
M  V30 4615 O 419.977 -1.57655 0.740988 0
M  V30 4616 C 417.109 -3.03569 1.55108 0
M  V30 4617 H 418.302 -1.543 2.57161 0
M  V30 4618 H 415.855 -0.771776 1.35917 0
M  V30 4619 H 416.59 -3.18804 0.594519 0
M  V30 4620 H 416.375 -3.12532 2.36783 0
M  V30 4621 H 417.865 -3.82762 1.66982 0
M  V30 4622 N 418.302 -1.35869 -0.798587 0
M  V30 4623 C 419.234 -1.25305 -1.91915 0
M  V30 4624 C 420.247 -0.174548 -1.61862 0
M  V30 4625 O 421.436 -0.428499 -1.73281 0
M  V30 4626 C 418.536 -0.9086 -3.26493 0
M  V30 4627 C 417.709 -2.08711 -3.84394 0
M  V30 4628 C 416.768 -1.71717 -4.97393 0
M  V30 4629 O 415.794 -2.43692 -5.14396 0
M  V30 4630 N 416.996 -0.645473 -5.769 0
M  V30 4631 H 419.761 -2.21849 -2.01502 0
M  V30 4632 H 417.322 -1.29143 -0.976408 0
M  V30 4633 H 419.314 -0.642455 -3.99568 0
M  V30 4634 H 417.884 -0.0325815 -3.12583 0
M  V30 4635 H 417.104 -2.51659 -3.03416 0
M  V30 4636 H 418.392 -2.87468 -4.19809 0
M  V30 4637 H 417.79 -0.047648 -5.6568 0
M  V30 4638 H 416.347 -0.43913 -6.50319 0
M  V30 4639 N 419.78 1.02168 -1.19998 0
M  V30 4640 C 421.028 1.75338 -1.00504 0
M  V30 4641 C 421.349 1.89387 0.464506 0
M  V30 4642 O 420.619 1.43268 1.33608 0
M  V30 4643 H 419.199 0.649564 -0.368885 0
M  V30 4644 H 421.861 1.23205 -1.51018 0
M  V30 4645 H 420.957 2.75892 -1.45912 0
M  V30 4646 N 421.258 1.00505 1.21394 0
M  V30 4647 C 422.488 0.705584 1.94178 0
M  V30 4648 C 422.896 -0.735846 1.74304 0
M  V30 4649 O 422.239 -1.50954 1.04683 0
M  V30 4650 C 422.301 0.94689 3.46806 0
M  V30 4651 C 421.965 2.37517 3.90429 0
M  V30 4652 C 422.962 3.35539 3.97127 0
M  V30 4653 C 420.647 2.71284 4.22742 0
M  V30 4654 C 422.641 4.65395 4.3553 0
M  V30 4655 C 420.328 4.01356 4.60822 0
M  V30 4656 C 421.326 4.98223 4.67186 0
M  V30 4657 O 421.014 6.25969 5.04399 0
M  V30 4658 H 420.746 0.259216 0.624326 0
M  V30 4659 H 423.3 1.34592 1.55159 0
M  V30 4660 H 421.53 0.249386 3.85895 0
M  V30 4661 H 423.219 0.640804 4.0081 0
M  V30 4662 H 423.985 3.10786 3.7234 0
M  V30 4663 H 419.864 1.96581 4.16985 0
M  V30 4664 H 423.408 5.41002 4.40412 0
M  V30 4665 H 419.305 4.25893 4.85063 0
M  V30 4666 H 420.073 6.30085 5.22431 0
M  V30 4667 N 422.737 -1.36956 0.779787 0
M  V30 4668 C 423.647 -2.33965 0.172491 0
M  V30 4669 C 424.663 -1.60574 -0.670222 0
M  V30 4670 O 425.839 -1.92617 -0.588263 0
M  V30 4671 C 422.904 -3.39761 -0.690173 0
M  V30 4672 C 421.965 -4.28964 0.169924 0
M  V30 4673 C 421.198 -5.29707 -0.651662 0
M  V30 4674 O 421.421 -5.38238 -1.88827 0
M  V30 4675 O 420.355 -6.01873 -0.0566264 0
M  V30 4676 H 424.181 -2.87647 0.974321 0
M  V30 4677 H 421.766 -1.39258 0.541078 0
M  V30 4678 H 423.648 -4.04471 -1.1824 0
M  V30 4679 H 422.323 -2.88394 -1.47006 0
M  V30 4680 H 421.23 -3.67326 0.708696 0
M  V30 4681 H 422.563 -4.83656 0.913085 0
M  V30 4682 N 424.215 -0.530993 -1.48385 0
M  V30 4683 C 425.631 -0.188919 -1.58478 0
M  V30 4684 C 425.831 1.30786 -1.53288 0
M  V30 4685 O 424.887 2.08619 -1.42248 0
M  V30 4686 C 426.2 -0.792343 -2.90073 0
M  V30 4687 C 427.748 -0.76117 -3.03604 0
M  V30 4688 C 428.223 -1.34319 -4.37861 0
M  V30 4689 N 429.714 -1.3052 -4.44431 0
M  V30 4690 C 430.449 -1.72543 -5.46824 0
M  V30 4691 N 429.945 -2.22299 -6.56167 0
M  V30 4692 N 431.738 -1.63773 -5.37712 0
M  V30 4693 H 423.889 -1.50377 -1.50002 0
M  V30 4694 H 426.152 -0.625559 -0.712306 0
M  V30 4695 H 425.858 -1.84323 -2.99529 0
M  V30 4696 H 425.732 -0.270026 -3.76232 0
M  V30 4697 H 428.119 0.280957 -2.93759 0
M  V30 4698 H 428.2 -1.32097 -2.19053 0
M  V30 4699 H 427.844 -2.38425 -4.4846 0
M  V30 4700 H 427.774 -0.759064 -5.21101 0
M  V30 4701 H 430.265 -0.940973 -3.65997 0
M  V30 4702 H 430.578 -2.52356 -7.30436 0
M  V30 4703 H 428.923 -2.26293 -6.57127 0
M  V30 4704 H 432.114 -1.24698 -4.51185 0
M  V30 4705 H 432.287 -1.96844 -6.17379 0
M  V30 4706 N 425.693 1.55336 -0.266172 0
M  V30 4707 C 426.921 2.03801 0.356756 0
M  V30 4708 C 427.336 1.14485 1.50129 0
M  V30 4709 O 426.693 0.163121 1.8177 0
M  V30 4710 C 426.744 3.51455 0.846281 0
M  V30 4711 O 426.465 4.37371 -0.252663 0
M  V30 4712 C 427.966 4.15767 1.53794 0
M  V30 4713 H 425.186 0.665906 0.0825218 0
M  V30 4714 H 427.73 2.00636 -0.39566 0
M  V30 4715 H 425.885 3.55092 1.54881 0
M  V30 4716 H 426.299 5.24358 0.122173 0
M  V30 4717 H 427.773 5.20714 1.83198 0
M  V30 4718 H 428.25 3.63404 2.46646 0
M  V30 4719 H 428.856 4.16107 0.879488 0
M  V30 4720 N 427.171 -0.0066808 1.57599 0
M  V30 4721 C 428.396 -0.707738 1.94951 0
M  V30 4722 C 428.821 -1.66882 0.867868 0
M  V30 4723 O 428.179 -1.80457 -0.17458 0
M  V30 4724 C 428.227 -1.42162 3.31394 0
M  V30 4725 O 427.331 -2.53578 3.25226 0
M  V30 4726 H 426.672 -0.188752 0.636607 0
M  V30 4727 H 429.202 0.0445193 2.04552 0
M  V30 4728 H 429.212 -1.78655 3.66806 0
M  V30 4729 H 427.887 -0.716903 4.09675 0
M  V30 4730 H 426.464 -2.19463 3.01481 0
M  V30 4731 N 428.649 -1.55105 -0.279332 0
M  V30 4732 C 429.874 -1.7976 -1.03446 0
M  V30 4733 C 430.299 -0.565952 -1.79384 0
M  V30 4734 O 429.657 0.484259 -1.74713 0
M  V30 4735 C 429.705 -3.0179 -1.97371 0
M  V30 4736 O 428.809 -2.76432 -3.06038 0
M  V30 4737 H 428.15 -0.594334 -0.29608 0
M  V30 4738 H 430.68 -2.02235 -0.310165 0
M  V30 4739 H 430.69 -3.30351 -2.39441 0
M  V30 4740 H 429.365 -3.91085 -1.4151 0
M  V30 4741 H 427.942 -2.58949 -2.68328 0
M  V30 4742 N 430.127 0.543554 -1.4793 0
M  V30 4743 C 431.538 1.12561 -1.48953 0
M  V30 4744 C 431.889 1.94578 -0.251754 0
M  V30 4745 O 431.014 2.0665 0.642255 0
M  V30 4746 C 431.609 2.04801 -2.69892 0
M  V30 4747 C 430.168 2.58251 -2.73831 0
M  V30 4748 C 429.315 1.34918 -2.42265 0
M  V30 4749 H 432.266 0.32947 -1.55242 0
M  V30 4750 H 432.287 2.88886 -2.47639 0
M  V30 4751 H 431.799 1.4508 -3.59963 0
M  V30 4752 H 429.9 3.21732 -1.87934 0
M  V30 4753 H 430.013 2.98312 -3.74895 0
M  V30 4754 H 428.377 1.66046 -1.93134 0
M  V30 4755 H 429.16 0.769693 -3.3456 0
M  V30 4756 N 431.605 1.3629 0.791371 0
M  V30 4757 C 432.552 1.30458 1.90393 0
M  V30 4758 C 433.522 0.173632 1.6519 0
M  V30 4759 O 434.707 0.35983 1.87376 0
M  V30 4760 C 431.847 1.09777 3.27174 0
M  V30 4761 C 430.96 2.31929 3.64462 0
M  V30 4762 C 430.095 2.04276 4.90352 0
M  V30 4763 C 429.134 3.224 5.20312 0
M  V30 4764 N 428.271 2.94424 6.37385 0
M  V30 4765 H 433.111 2.25589 1.94714 0
M  V30 4766 H 430.648 1.12122 0.952216 0
M  V30 4767 H 432.606 0.958133 4.06049 0
M  V30 4768 H 431.236 0.183014 3.22281 0
M  V30 4769 H 430.288 2.56703 2.80727 0
M  V30 4770 H 431.6 3.20085 3.82553 0
M  V30 4771 H 430.754 1.87231 5.77087 0
M  V30 4772 H 429.493 1.13428 4.74326 0
M  V30 4773 H 428.498 3.40005 4.32061 0
M  V30 4774 H 429.723 4.14071 5.38258 0
M  V30 4775 H 427.669 2.06185 6.22755 0
M  V30 4776 H 427.586 3.76118 6.55798 0
M  V30 4777 H 428.854 2.80953 7.27108 0
M  V30 4778 N 433.083 -1.0153 1.20538 0
M  V30 4779 C 434.494 -1.56598 1.01657 0
M  V30 4780 C 434.845 -1.91505 -0.426668 0
M  V30 4781 O 433.97 -1.72375 -1.30827 0
M  V30 4782 C 434.565 -2.84542 1.83905 0
M  V30 4783 C 433.124 -3.36133 1.69386 0
M  V30 4784 C 432.271 -2.09427 1.81757 0
M  V30 4785 H 435.222 -0.838974 1.34711 0
M  V30 4786 H 435.243 -3.56004 1.34319 0
M  V30 4787 H 434.755 -2.59105 2.8894 0
M  V30 4788 H 432.856 -3.66528 0.669933 0
M  V30 4789 H 432.969 -4.08248 2.50739 0
M  V30 4790 H 431.333 -2.21941 1.24957 0
M  V30 4791 H 432.116 -1.86414 2.88279 0
M  V30 4792 N 434.561 -1.01147 -1.20859 0
M  V30 4793 C 435.977 -0.725422 -1.42161 0
M  V30 4794 C 436.177 0.696919 -1.89064 0
M  V30 4795 O 435.233 1.46539 -2.05627 0
M  V30 4796 C 436.546 -1.74678 -2.44761 0
M  V30 4797 C 438.094 -1.76433 -2.58535 0
M  V30 4798 C 438.569 -2.77481 -3.64374 0
M  V30 4799 N 440.06 -2.76189 -3.71852 0
M  V30 4800 C 440.795 -3.51035 -4.53389 0
M  V30 4801 N 440.291 -4.35541 -5.38773 0
M  V30 4802 N 442.084 -3.39655 -4.47873 0
M  V30 4803 H 434.235 -1.92979 -0.887282 0
M  V30 4804 H 436.498 -0.833327 -0.451962 0
M  V30 4805 H 436.204 -2.76551 -2.17285 0
M  V30 4806 H 436.078 -1.55472 -3.43669 0
M  V30 4807 H 438.465 -0.75248 -2.85345 0
M  V30 4808 H 438.546 -1.99712 -1.5984 0
M  V30 4809 H 438.19 -3.78827 -3.38308 0
M  V30 4810 H 438.12 -2.51466 -4.6268 0
M  V30 4811 H 440.611 -2.14885 -3.10858 0
M  V30 4812 H 440.924 -4.89432 -5.98061 0
M  V30 4813 H 439.269 -4.39621 -5.38292 0
M  V30 4814 H 442.46 -2.73063 -3.80203 0
M  V30 4815 H 442.633 -3.9824 -5.11184 0
M  V30 4816 N 436.039 1.36541 -0.78704 0
M  V30 4817 C 437.286 1.99304 -0.358341 0
M  V30 4818 C 437.614 1.62467 1.06933 0
M  V30 4819 O 436.869 0.870019 1.75297 0
M  V30 4820 C 437.168 3.54343 -0.466485 0
M  V30 4821 C 436.834 4.10993 -1.85461 0
M  V30 4822 C 435.496 4.26177 -2.23443 0
M  V30 4823 C 437.848 4.41895 -2.76366 0
M  V30 4824 C 435.176 4.69573 -3.51736 0
M  V30 4825 C 437.528 4.86722 -4.04084 0
M  V30 4826 C 436.192 5.00112 -4.42091 0
M  V30 4827 H 435.462 0.729306 -0.131126 0
M  V30 4828 H 438.109 1.63068 -1.00404 0
M  V30 4829 H 436.414 3.90918 0.262719 0
M  V30 4830 H 438.111 4.00833 -0.115854 0
M  V30 4831 H 434.701 3.99612 -1.54946 0
M  V30 4832 H 438.885 4.29735 -2.48277 0
M  V30 4833 H 434.141 4.78127 -3.81057 0
M  V30 4834 H 438.315 5.09598 -4.7464 0
M  V30 4835 H 435.942 5.33498 -5.41557 0
M  V30 4836 N 437.518 0.538854 1.48102 0
M  V30 4837 C 438.465 -0.219042 2.29758 0
M  V30 4838 C 439.435 -0.925562 1.37922 0
M  V30 4839 O 440.62 -0.924855 1.66886 0
M  V30 4840 C 437.76 -1.25452 3.2149 0
M  V30 4841 C 436.873 -0.555943 4.28408 0
M  V30 4842 C 436.008 -1.57512 5.0731 0
M  V30 4843 C 435.047 -0.860498 6.06021 0
M  V30 4844 N 434.184 -1.82564 6.77949 0
M  V30 4845 H 439.024 0.483449 2.94052 0
M  V30 4846 H 436.561 0.250247 1.44956 0
M  V30 4847 H 438.519 -1.86727 3.7308 0
M  V30 4848 H 437.149 -1.92528 2.591 0
M  V30 4849 H 436.201 0.170938 3.80016 0
M  V30 4850 H 437.513 0.00474616 4.988 0
M  V30 4851 H 436.667 -2.26191 5.62959 0
M  V30 4852 H 435.406 -2.16972 4.36778 0
M  V30 4853 H 434.411 -0.159686 5.49568 0
M  V30 4854 H 435.636 -0.271897 6.78555 0
M  V30 4855 H 433.582 -2.40915 6.10161 0
M  V30 4856 H 433.499 -1.31662 7.44447 0
M  V30 4857 H 434.767 -2.50414 7.38182 0
M  V30 4858 N 438.996 -1.55193 0.274407 0
M  V30 4859 C 440.221 -2.04446 -0.348824 0
M  V30 4860 C 440.646 -1.15149 -1.48735 0
M  V30 4861 O 440.004 -0.149952 -1.80679 0
M  V30 4862 C 440.052 -3.51431 -0.808009 0
M  V30 4863 O 439.156 -3.65225 -1.91531 0
M  V30 4864 H 438.497 -0.66006 -0.0722276 0
M  V30 4865 H 441.027 -2.00481 0.408498 0
M  V30 4866 H 441.037 -3.92781 -1.10395 0
M  V30 4867 H 439.712 -4.15892 0.0249865 0
M  V30 4868 H 438.289 -3.35778 -1.62196 0
M  V30 4869 N 440.474 -0.00167713 -1.576 0
M  V30 4870 C 441.704 0.692754 -1.94639 0
M  V30 4871 C 442.112 1.67744 -0.87513 0
M  V30 4872 O 441.455 1.8305 0.154382 0
M  V30 4873 C 441.517 1.47881 -3.27676 0
M  V30 4874 C 441.181 0.655518 -4.52274 0
M  V30 4875 C 442.178 -0.0575214 -5.19868 0
M  V30 4876 C 439.863 0.600994 -4.98692 0
M  V30 4877 C 441.857 -0.814052 -6.3218 0
M  V30 4878 C 439.544 -0.15926 -6.10892 0
M  V30 4879 C 440.542 -0.865515 -6.77494 0
M  V30 4880 O 440.23 -1.61336 -7.87544 0
M  V30 4881 H 439.962 0.197792 -0.646417 0
M  V30 4882 H 442.516 -0.049423 -2.05341 0
M  V30 4883 H 440.746 2.2655 -3.13388 0
M  V30 4884 H 442.435 2.05874 -3.49816 0
M  V30 4885 H 443.201 -0.0245611 -4.84994 0
M  V30 4886 H 439.08 1.14025 -4.46676 0
M  V30 4887 H 442.624 -1.36584 -6.84098 0
M  V30 4888 H 438.521 -0.194035 -6.45208 0
M  V30 4889 H 439.289 -1.53025 -8.04068 0
M  V30 4890 N 441.952 1.55251 0.271103 0
M  V30 4891 C 442.915 1.87484 1.31842 0
M  V30 4892 C 443.915 0.749545 1.42262 0
M  V30 4893 O 445.105 1.01771 1.4138 0
M  V30 4894 C 442.237 2.0818 2.69951 0
M  V30 4895 H 443.43 2.81108 1.0449 0
M  V30 4896 H 440.983 1.47771 0.509258 0
M  V30 4897 H 441.718 1.16944 3.02481 0
M  V30 4898 H 441.503 2.90114 2.63774 0
M  V30 4899 H 442.993 2.34385 3.4562 0
M  V30 4900 N 443.43 -0.535701 1.48216 0
M  V30 4901 C 444.66 -1.3148 1.59363 0
M  V30 4902 C 445.068 -1.8753 0.250844 0
M  V30 4903 O 444.411 -1.66821 -0.769174 0
M  V30 4904 C 444.473 -2.50731 2.57632 0
M  V30 4905 C 444.137 -2.15811 4.02833 0
M  V30 4906 C 445.134 -1.71822 4.90686 0
M  V30 4907 C 442.819 -2.26509 4.48329 0
M  V30 4908 C 444.813 -1.3899 6.22062 0
M  V30 4909 C 442.5 -1.93289 5.79726 0
M  V30 4910 C 443.498 -1.49599 6.66415 0
M  V30 4911 O 443.186 -1.16812 7.95368 0
M  V30 4912 H 442.918 -0.406315 0.540263 0
M  V30 4913 H 445.472 -0.653569 1.94725 0
M  V30 4914 H 443.702 -3.19817 2.1738 0
M  V30 4915 H 445.391 -3.12797 2.58675 0
M  V30 4916 H 446.157 -1.63031 4.56778 0
M  V30 4917 H 442.036 -2.59471 3.81045 0
M  V30 4918 H 445.58 -1.04816 6.89681 0
M  V30 4919 H 441.477 -2.01718 6.13172 0
M  V30 4920 H 442.245 -1.30259 8.08069 0
M  V30 4921 N 444.908 -1.36708 -0.784132 0
M  V30 4922 C 446.136 -1.34398 -1.57305 0
M  V30 4923 C 446.551 0.0735577 -1.88657 0
M  V30 4924 O 445.908 1.03193 -1.50524 0
M  V30 4925 C 445.959 -2.17053 -2.89085 0
M  V30 4926 O 445.68 -3.53281 -2.59083 0
M  V30 4927 C 447.181 -2.22583 -3.83369 0
M  V30 4928 H 444.401 -0.460819 -0.487736 0
M  V30 4929 H 446.945 -1.79879 -0.972819 0
M  V30 4930 H 445.1 -1.75113 -3.45564 0
M  V30 4931 H 445.514 -3.9647 -3.43383 0
M  V30 4932 H 446.988 -2.84763 -4.72878 0
M  V30 4933 H 447.465 -1.23075 -4.21603 0
M  V30 4934 H 448.071 -2.64781 -3.32823 0
M  V30 4935 N 446.386 1.0089 -1.21074 0
M  V30 4936 C 447.318 2.09737 -0.924291 0
M  V30 4937 C 448.331 1.62546 0.0909809 0
M  V30 4938 O 449.52 1.77942 -0.141021 0
M  V30 4939 C 446.62 3.36922 -0.36559 0
M  V30 4940 C 445.793 4.13216 -1.43426 0
M  V30 4941 C 444.852 5.18696 -0.885496 0
M  V30 4942 O 443.878 5.47176 -1.56801 0
M  V30 4943 N 445.08 5.79718 0.301227 0
M  V30 4944 H 447.845 2.34895 -1.8613 0
M  V30 4945 H 445.406 1.17341 -1.11546 0
M  V30 4946 H 447.398 4.04697 0.0158407 0
M  V30 4947 H 445.968 3.08952 0.476149 0
M  V30 4948 H 445.188 3.40301 -1.9897 0
M  V30 4949 H 446.476 4.60967 -2.15376 0
M  V30 4950 H 445.874 5.58926 0.872849 0
M  V30 4951 H 444.431 6.48804 0.624211 0
M  V30 4952 N 447.864 1.01787 1.20321 0
M  V30 4953 C 448.827 0.593972 2.2137 0
M  V30 4954 C 449.827 -0.336553 1.57239 0
M  V30 4955 O 451.017 -0.125069 1.7375 0
M  V30 4956 C 448.149 -0.132433 3.40643 0
M  V30 4957 H 449.342 1.48791 2.60387 0
M  V30 4958 H 446.895 0.807803 1.33807 0
M  V30 4959 H 447.63 -1.04123 3.0713 0
M  V30 4960 H 447.415 0.53605 3.88418 0
M  V30 4961 H 448.905 -0.416314 4.1552 0
M  V30 4962 N 449.342 -1.36122 0.79427 0
M  V30 4963 C 450.305 -2.28309 0.201889 0
M  V30 4964 C 451.305 -1.49041 -0.603603 0
M  V30 4965 O 452.495 -1.68964 -0.423888 0
M  V30 4966 C 449.627 -3.3321 -0.719978 0
M  V30 4967 H 450.82 -2.82208 1.01481 0
M  V30 4968 H 448.373 -1.45768 0.564037 0
M  V30 4969 H 449.108 -2.84475 -1.55706 0
M  V30 4970 H 448.893 -3.91835 -0.144266 0
M  V30 4971 H 450.383 -4.02044 -1.12916 0
M  V30 4972 N 450.82 -0.546701 -1.47814 0
M  V30 4973 C 452.05 -0.0232519 -2.06587 0
M  V30 4974 C 452.458 1.2712 -1.40133 0
M  V30 4975 O 451.801 1.77091 -0.488305 0
M  V30 4976 C 451.863 0.254117 -3.58601 0
M  V30 4977 C 451.527 -0.949331 -4.47031 0
M  V30 4978 C 452.524 -1.85216 -4.85789 0
M  V30 4979 C 450.209 -1.16104 -4.88697 0
M  V30 4980 C 452.203 -2.95047 -5.65001 0
M  V30 4981 C 449.89 -2.26247 -5.67676 0
M  V30 4982 C 450.888 -3.1555 -6.05737 0
M  V30 4983 O 450.576 -4.23784 -6.83127 0
M  V30 4984 H 450.308 -0.0380082 -0.674931 0
M  V30 4985 H 452.862 -0.756631 -1.90956 0
M  V30 4986 H 451.092 1.04168 -3.72406 0
M  V30 4987 H 452.781 0.72167 -3.99433 0
M  V30 4988 H 453.547 -1.70061 -4.54207 0
M  V30 4989 H 449.426 -0.475159 -4.58545 0
M  V30 4990 H 452.97 -3.64778 -5.94628 0
M  V30 4991 H 448.867 -2.41379 -5.98671 0
M  V30 4992 H 449.635 -4.21701 -7.01506 0
M  V30 4993 N 452.299 1.55045 -0.282633 0
M  V30 4994 C 453.545 2.00056 0.332481 0
M  V30 4995 C 453.878 1.1708 1.54939 0
M  V30 4996 O 453.153 0.2427 1.9298 0
M  V30 4997 C 453.436 3.53086 0.70725 0
M  V30 4998 C 453.289 4.46813 -0.517521 0
M  V30 4999 C 454.608 4.12245 1.54084 0
M  V30 5000 H 451.727 0.727268 0.119373 0
M  V30 5001 H 454.369 1.85932 -0.391076 0
M  V30 5002 H 452.519 3.65253 1.32372 0
M  V30 5003 H 454.191 4.46579 -1.15607 0
M  V30 5004 H 452.434 4.18163 -1.1542 0
M  V30 5005 H 453.105 5.51595 -0.211426 0
M  V30 5006 H 455.581 4.03401 1.02013 0
M  V30 5007 H 454.457 5.19515 1.77186 0
M  V30 5008 H 454.718 3.62951 2.52427 0
M  V30 5009 N 453.777 0.010035 1.57597 0
M  V30 5010 C 455.005 -0.683413 1.95287 0
M  V30 5011 C 455.42 -1.66747 0.885481 0
M  V30 5012 O 454.777 -1.82003 -0.134629 0
M  V30 5013 C 454.828 -1.40652 3.33015 0
M  V30 5014 O 454.549 -0.461916 4.35658 0
M  V30 5015 C 456.05 -2.19356 3.85225 0
M  V30 5016 H 453.27 -0.189708 0.643624 0
M  V30 5017 H 455.814 0.0641359 2.04399 0
M  V30 5018 H 453.969 -2.10562 3.2518 0
M  V30 5019 H 454.383 -0.973215 5.15392 0
M  V30 5020 H 455.857 -2.65433 4.83993 0
M  V30 5021 H 456.334 -3.02457 3.18459 0
M  V30 5022 H 456.94 -1.54442 3.96267 0
M  V30 5023 N 455.255 -1.55392 -0.262866 0
M  V30 5024 C 456.483 -1.80513 -1.01108 0
M  V30 5025 C 456.898 -0.583533 -1.79556 0
M  V30 5026 O 456.255 0.447585 -1.76926 0
M  V30 5027 C 456.306 -3.03648 -1.96164 0
M  V30 5028 O 456.027 -4.2109 -1.20893 0
M  V30 5029 C 457.528 -3.41448 -2.82715 0
M  V30 5030 H 454.748 -0.601079 -0.298236 0
M  V30 5031 H 457.292 -2.02425 -0.290582 0
M  V30 5032 H 455.447 -2.83832 -2.63663 0
M  V30 5033 H 455.861 -4.90771 -1.85051 0
M  V30 5034 H 457.335 -4.30751 -3.45192 0
M  V30 5035 H 457.812 -2.61308 -3.53008 0
M  V30 5036 H 458.418 -3.63559 -2.20693 0
M  V30 5037 N 456.733 0.527833 -1.48498 0
M  V30 5038 C 457.958 1.313 -1.60546 0
M  V30 5039 C 458.383 1.86199 -0.26672 0
M  V30 5040 O 457.741 1.64513 0.761918 0
M  V30 5041 C 457.789 2.43818 -2.65678 0
M  V30 5042 O 456.893 3.46916 -2.22987 0
M  V30 5043 H 456.234 0.388784 -0.538277 0
M  V30 5044 H 458.764 0.634896 -1.945 0
M  V30 5045 H 458.774 2.89973 -2.87018 0
M  V30 5046 H 457.449 2.03222 -3.62869 0
M  V30 5047 H 456.026 3.06864 -2.11869 0
M  V30 5048 N 458.211 1.37122 0.776871 0
M  V30 5049 C 459.488 1.22586 1.52421 0
M  V30 5050 C 459.868 -0.182726 2.10308 0
M  V30 5051 O 459.216 -1.18979 1.9508 0
M  V30 5052 C 459.426 2.31782 2.60918 0
M  V30 5053 C 460.774 2.69071 3.2846 0
M  V30 5054 O 461.798 2.3092 2.71209 0
M  V30 5055 O 460.657 3.3478 4.31954 0
M  V30 5056 H 457.751 0.478045 0.674835 0
M  V30 5057 H 460.297 1.48888 0.814275 0
M  V30 5058 H 459.069 3.26131 2.16227 0
M  V30 5059 H 458.692 2.06916 3.39517 0
M  V30 5060 N 459.689 -1.00246 1.21608 0
M  V30 5061 C 461.1 -1.55511 1.03312 0
M  V30 5062 C 461.451 -1.91946 -0.406332 0
M  V30 5063 O 460.576 -1.73753 -1.28992 0
M  V30 5064 C 461.171 -2.82576 1.86913 0
M  V30 5065 C 459.73 -3.34318 1.72941 0
M  V30 5066 C 458.877 -2.07487 1.83968 0
M  V30 5067 H 461.828 -0.824638 1.35593 0
M  V30 5068 H 461.849 -3.54559 1.38087 0
M  V30 5069 H 461.361 -2.56026 2.91672 0
M  V30 5070 H 459.462 -3.65797 0.70877 0
M  V30 5071 H 459.575 -4.05566 2.55055 0
M  V30 5072 H 457.939 -2.20603 1.27304 0
M  V30 5073 H 458.722 -1.83346 2.9024 0
M  V30 5074 N 461.167 -1.02423 -1.1978 0
M  V30 5075 C 462.395 -0.737456 -1.93311 0
M  V30 5076 C 462.81 0.703023 -1.75223 0
M  V30 5077 O 462.167 1.47761 -1.07112 0
M  V30 5078 C 462.218 -1.0733 -3.45199 0
M  V30 5079 O 461.939 -2.4572 -3.62702 0
M  V30 5080 C 463.44 -0.80866 -4.35862 0
M  V30 5081 H 460.66 -0.2702 -0.614193 0
M  V30 5082 H 463.204 -1.36747 -1.52054 0
M  V30 5083 H 461.359 -0.488545 -3.84307 0
M  V30 5084 H 461.773 -2.58081 -4.56612 0
M  V30 5085 H 463.247 -1.09365 -5.41057 0
M  V30 5086 H 463.724 0.257025 -4.38447 0
M  V30 5087 H 464.33 -1.37592 -4.02428 0
M  V30 5088 N 462.645 1.35699 -0.801477 0
M  V30 5089 C 464.061 1.52065 -0.484596 0
M  V30 5090 C 464.261 1.75215 0.995084 0
M  V30 5091 O 463.317 1.79061 1.78026 0
M  V30 5092 C 464.63 2.69908 -1.32552 0
M  V30 5093 C 466.178 2.83784 -1.32044 0
M  V30 5094 C 466.653 4.04646 -2.14536 0
M  V30 5095 N 468.144 4.11814 -2.12046 0
M  V30 5096 C 468.879 5.04437 -2.72636 0
M  V30 5097 N 468.375 6.02426 -3.42133 0
M  V30 5098 N 470.168 4.97144 -2.62305 0
M  V30 5099 H 462.319 1.18928 -1.75983 0
M  V30 5100 H 464.582 0.581455 -0.748741 0
M  V30 5101 H 464.288 2.59363 -2.37537 0
M  V30 5102 H 464.162 3.64376 -0.975181 0
M  V30 5103 H 466.549 2.93783 -0.27846 0
M  V30 5104 H 466.63 1.90188 -1.71062 0
M  V30 5105 H 466.274 3.95407 -3.18772 0
M  V30 5106 H 466.204 4.97413 -1.72882 0
M  V30 5107 H 468.695 3.41664 -1.61476 0
M  V30 5108 H 469.008 6.69688 -3.85666 0
M  V30 5109 H 467.353 6.02615 -3.46237 0
M  V30 5110 H 470.544 4.19546 -2.07603 0
M  V30 5111 H 470.717 5.69138 -3.09815 0
M  V30 5112 N 464.123 0.554532 1.47522 0
M  V30 5113 C 465.348 0.0322661 2.07375 0
M  V30 5114 C 465.773 -1.25079 1.40488 0
M  V30 5115 O 465.131 -1.74859 0.47896 0
M  V30 5116 C 465.179 -0.149397 3.6029 0
M  V30 5117 O 464.283 -1.21259 3.9417 0
M  V30 5118 H 463.624 0.0501228 0.662106 0
M  V30 5119 H 466.154 0.769452 1.8958 0
M  V30 5120 H 466.164 -0.364437 4.06369 0
M  V30 5121 H 464.839 0.787743 4.08372 0
M  V30 5122 H 463.416 -0.97825 3.5984 0
M  V30 5123 N 465.601 -1.54893 0.290851 0
M  V30 5124 C 467.012 -1.85584 -0.203816 0
M  V30 5125 C 467.363 -1.21285 -1.54222 0
M  V30 5126 O 466.488 -0.506841 -2.10381 0
M  V30 5127 C 467.083 -3.367 -0.376595 0
M  V30 5128 C 465.642 -3.6746 -0.815485 0
M  V30 5129 C 464.789 -2.77178 0.0821087 0
M  V30 5130 H 467.74 -1.50208 0.512175 0
M  V30 5131 H 467.761 -3.60656 -1.21275 0
M  V30 5132 H 467.273 -3.8347 0.59767 0
M  V30 5133 H 465.374 -3.26201 -1.80066 0
M  V30 5134 H 465.487 -4.7478 -0.641905 0
M  V30 5135 H 463.851 -2.50925 -0.436895 0
M  V30 5136 H 464.634 -3.26767 1.05254 0
M  V30 5137 N 467.08 -0.0183926 -1.57589 0
M  V30 5138 C 468.327 0.662562 -1.91354 0
M  V30 5139 C 468.655 1.72747 -0.893788 0
M  V30 5140 O 467.91 1.9545 0.0988509 0
M  V30 5141 C 468.209 1.32676 -3.31861 0
M  V30 5142 C 467.875 0.393267 -4.49182 0
M  V30 5143 C 466.537 0.136302 -4.81007 0
M  V30 5144 C 468.889 -0.248366 -5.20608 0
M  V30 5145 C 466.217 -0.770282 -5.81621 0
M  V30 5146 C 468.569 -1.14294 -6.22189 0
M  V30 5147 C 467.233 -1.4089 -6.52462 0
M  V30 5148 H 466.503 0.242448 -0.700214 0
M  V30 5149 H 469.15 -0.0778629 -1.91342 0
M  V30 5150 H 467.455 2.14168 -3.28084 0
M  V30 5151 H 469.152 1.86001 -3.55253 0
M  V30 5152 H 465.742 0.603723 -4.24327 0
M  V30 5153 H 469.926 -0.062883 -4.9626 0
M  V30 5154 H 465.182 -0.984154 -6.03427 0
M  V30 5155 H 469.356 -1.64637 -6.76659 0
M  V30 5156 H 466.983 -2.11306 -7.30242 0
M  V30 5157 N 468.558 1.5553 0.254621 0
M  V30 5158 C 469.969 1.67518 0.824286 0
M  V30 5159 C 470.32 0.614429 1.86331 0
M  V30 5160 O 469.445 -0.240736 2.15057 0
M  V30 5161 C 470.04 3.03692 1.50189 0
M  V30 5162 C 468.599 3.17646 2.01935 0
M  V30 5163 C 467.746 2.63373 0.867746 0
M  V30 5164 H 470.697 1.58671 0.0305843 0
M  V30 5165 H 470.718 2.97706 2.36962 0
M  V30 5166 H 470.23 3.80874 0.745431 0
M  V30 5167 H 468.331 2.45273 2.80485 0
M  V30 5168 H 468.444 4.24455 2.22204 0
M  V30 5169 H 466.808 2.20999 1.26616 0
M  V30 5170 H 467.591 3.43074 0.124498 0
M  V30 5171 N 470.036 -0.519951 1.48776 0
M  V30 5172 C 471.261 -1.30447 1.6124 0
M  V30 5173 C 471.686 -1.86055 0.276591 0
M  V30 5174 O 471.044 -1.64915 -0.753183 0
M  V30 5175 C 471.092 -2.42406 2.66967 0
M  V30 5176 O 470.196 -3.45728 2.24824 0
M  V30 5177 H 469.537 -0.385924 0.540332 0
M  V30 5178 H 472.067 -0.624572 1.94834 0
M  V30 5179 H 472.077 -2.88447 2.88552 0
M  V30 5180 H 470.752 -2.01294 3.63941 0
M  V30 5181 H 469.329 -3.05737 2.13494 0
M  V30 5182 N 471.514 -1.37532 -0.769588 0
M  V30 5183 C 472.446 -1.29347 -1.89214 0
M  V30 5184 C 473.459 -0.208842 -1.61455 0
M  V30 5185 O 474.648 -0.465158 -1.72333 0
M  V30 5186 C 471.748 -0.977649 -3.24492 0
M  V30 5187 C 470.921 -2.16817 -3.7988 0
M  V30 5188 C 469.98 -1.82229 -4.93639 0
M  V30 5189 O 469.006 -2.54548 -5.09111 0
M  V30 5190 N 470.208 -0.767696 -5.75401 0
M  V30 5191 H 472.973 -2.26073 -1.96751 0
M  V30 5192 H 470.534 -1.31185 -0.948795 0
M  V30 5193 H 472.526 -0.727065 -3.98115 0
M  V30 5194 H 471.096 -0.0988777 -3.12444 0
M  V30 5195 H 470.316 -2.58038 -2.9801 0
M  V30 5196 H 471.604 -2.96308 -4.13617 0
M  V30 5197 H 471.002 -0.167626 -5.65452 0
M  V30 5198 H 469.559 -0.576973 -6.49241 0
M  V30 5199 N 472.992 0.995999 -1.22138 0
M  V30 5200 C 473.942 2.06988 -0.956042 0
M  V30 5201 C 474.926 1.60636 0.0921576 0
M  V30 5202 O 476.118 1.76607 -0.117958 0
M  V30 5203 C 473.247 3.39148 -0.532335 0
M  V30 5204 C 472.333 3.92142 -1.61509 0
M  V30 5205 N 472.724 4.18397 -2.84214 0
M  V30 5206 C 471.022 4.20514 -1.48606 0
M  V30 5207 C 471.723 4.61425 -3.54206 0
M  V30 5208 N 470.699 4.64934 -2.81669 0
M  V30 5209 H 474.501 2.25223 -1.88816 0
M  V30 5210 H 472.015 1.17748 -1.11845 0
M  V30 5211 H 474.012 4.15642 -0.323574 0
M  V30 5212 H 472.672 3.22314 0.392921 0
M  V30 5213 H 473.683 4.06682 -3.20671 0
M  V30 5214 H 470.36 4.12769 -0.626762 0
M  V30 5215 H 471.75 4.90387 -4.59315 0
M  V30 5216 N 474.47 1.03057 1.19235 0
M  V30 5217 C 475.4 0.633497 2.24742 0
M  V30 5218 C 476.381 -0.358335 1.66283 0
M  V30 5219 O 477.566 -0.240676 1.92703 0
M  V30 5220 C 474.696 -0.0147648 3.47297 0
M  V30 5221 C 473.65 0.899527 4.18441 0
M  V30 5222 C 472.976 0.116281 5.34574 0
M  V30 5223 C 474.276 2.21404 4.73051 0
M  V30 5224 H 475.97 1.5155 2.58211 0
M  V30 5225 H 473.516 0.73014 1.24117 0
M  V30 5226 H 475.469 -0.304202 4.20301 0
M  V30 5227 H 474.193 -0.931577 3.13032 0
M  V30 5228 H 472.852 1.17319 3.47321 0
M  V30 5229 H 472.5 -0.802619 4.96555 0
M  V30 5230 H 472.2 0.725293 5.83107 0
M  V30 5231 H 473.724 -0.166376 6.10373 0
M  V30 5232 H 475.138 1.98601 5.37802 0
M  V30 5233 H 473.535 2.77512 5.32078 0
M  V30 5234 H 474.605 2.86752 3.91026 0
M  V30 5235 N 475.948 -1.35272 0.808662 0
M  V30 5236 C 476.858 -2.33546 0.222079 0
M  V30 5237 C 477.874 -1.6196 -0.636011 0
M  V30 5238 O 479.05 -1.93822 -0.547274 0
M  V30 5239 C 476.115 -3.41148 -0.61795 0
M  V30 5240 C 475.176 -4.28507 0.260875 0
M  V30 5241 C 474.409 -5.3097 -0.539156 0
M  V30 5242 O 474.632 -5.42123 -1.77367 0
M  V30 5243 O 473.566 -6.01858 0.0710526 0
M  V30 5244 H 477.392 -2.85515 1.03512 0
M  V30 5245 H 474.977 -1.38079 0.570495 0
M  V30 5246 H 476.859 -4.06889 -1.09634 0
M  V30 5247 H 475.534 -2.91447 -1.40855 0
M  V30 5248 H 474.441 -3.6574 0.786451 0
M  V30 5249 H 475.774 -4.81611 1.01547 0
M  V30 5250 N 477.426 -0.562348 -1.47226 0
M  V30 5251 C 478.389 0.172056 -2.28553 0
M  V30 5252 C 479.389 0.837928 -1.37242 0
M  V30 5253 O 480.579 0.693001 -1.59822 0
M  V30 5254 C 477.711 1.25223 -3.17068 0
M  V30 5255 H 478.904 -0.542401 -2.94954 0
M  V30 5256 H 476.457 -0.319493 -1.53 0
M  V30 5257 H 477.192 1.99892 -2.55369 0
M  V30 5258 H 476.977 0.779515 -3.84273 0
M  V30 5259 H 478.467 1.76791 -3.78332 0
M  V30 5260 N 478.904 1.54736 -0.299062 0
M  V30 5261 C 480.315 1.8569 0.193971 0
M  V30 5262 C 480.666 1.22101 1.53577 0
M  V30 5263 O 479.791 0.51799 2.10109 0
M  V30 5264 C 480.386 3.36895 0.358733 0
M  V30 5265 C 478.945 3.67887 0.795986 0
M  V30 5266 C 478.092 2.77131 -0.096807 0
M  V30 5267 H 481.043 1.49934 -0.520134 0
M  V30 5268 H 481.064 3.61294 1.19361 0
M  V30 5269 H 480.576 3.83148 -0.617998 0
M  V30 5270 H 478.677 3.27151 1.78334 0
M  V30 5271 H 478.79 4.75114 0.616718 0
M  V30 5272 H 477.154 2.51153 0.423581 0
M  V30 5273 H 477.937 3.26204 -1.06986 0
M  V30 5274 N 480.382 0.0267497 1.57577 0
M  V30 5275 C 481.292 -0.971633 2.13533 0
M  V30 5276 C 482.308 -1.35868 1.08701 0
M  V30 5277 O 483.484 -1.44058 1.40746 0
M  V30 5278 C 480.549 -2.23622 2.64941 0
M  V30 5279 C 479.61 -1.90982 3.8448 0
M  V30 5280 C 478.843 -3.11411 4.33427 0
M  V30 5281 O 479.066 -4.23992 3.81558 0
M  V30 5282 O 478 -2.93848 5.25297 0
M  V30 5283 H 481.826 -0.525853 2.99113 0
M  V30 5284 H 479.411 -0.193712 1.48139 0
M  V30 5285 H 481.293 -2.97864 2.98086 0
M  V30 5286 H 479.968 -2.67386 1.82446 0
M  V30 5287 H 478.875 -1.14132 3.56265 0
M  V30 5288 H 480.208 -1.52036 4.6813 0
M  V30 5289 N 481.861 -1.55662 -0.24637 0
M  V30 5290 C 483.138 -1.68272 -0.997198 0
M  V30 5291 C 483.518 -0.566785 -2.03349 0
M  V30 5292 O 482.866 0.429688 -2.24424 0
M  V30 5293 C 483.076 -3.08594 -1.63006 0
M  V30 5294 C 484.424 -3.6721 -2.13171 0
M  V30 5295 O 485.448 -3.11397 -1.72946 0
M  V30 5296 O 484.307 -4.65054 -2.87031 0
M  V30 5297 H 481.401 -0.684429 -0.464205 0
M  V30 5298 H 483.947 -1.67993 -0.240114 0
M  V30 5299 H 482.719 -3.81264 -0.880527 0
M  V30 5300 H 482.342 -3.12886 -2.45333 0
M  V30 5301 N 483.339 0.512053 -1.4905 0
M  V30 5302 C 484.286 1.6148 -1.64902 0
M  V30 5303 C 485.256 1.58687 -0.490673 0
M  V30 5304 O 486.441 1.76842 -0.71636 0
M  V30 5305 C 483.581 2.99676 -1.71139 0
M  V30 5306 C 482.694 3.12568 -2.98203 0
M  V30 5307 C 481.829 4.4143 -2.95487 0
M  V30 5308 C 480.868 4.47916 -4.17179 0
M  V30 5309 N 480.005 5.68191 -4.12437 0
M  V30 5310 H 484.845 1.47271 -2.59066 0
M  V30 5311 H 482.382 0.716713 -1.28459 0
M  V30 5312 H 484.34 3.79761 -1.72736 0
M  V30 5313 H 482.97 3.12614 -0.804508 0
M  V30 5314 H 482.022 2.25618 -3.06269 0
M  V30 5315 H 483.334 3.1322 -3.88194 0
M  V30 5316 H 482.488 5.29825 -2.95585 0
M  V30 5317 H 481.227 4.43326 -2.03256 0
M  V30 5318 H 480.232 3.57925 -4.17337 0
M  V30 5319 H 481.457 4.47744 -5.1059 0
M  V30 5320 H 479.403 5.7095 -3.23036 0
M  V30 5321 H 479.32 5.70413 -4.96151 0
M  V30 5322 H 480.588 6.58823 -4.16621 0
M  V30 5323 N 484.817 1.37938 0.762283 0
M  V30 5324 C 486.042 1.37059 1.55659 0
M  V30 5325 C 486.467 -0.0396123 1.88058 0
M  V30 5326 O 485.825 -1.01929 1.49934 0
M  V30 5327 C 485.873 2.22494 2.83776 0
M  V30 5328 O 484.977 1.63607 3.78559 0
M  V30 5329 H 484.318 0.467892 0.47114 0
M  V30 5330 H 486.848 1.81587 0.942725 0
M  V30 5331 H 486.858 2.36045 3.32786 0
M  V30 5332 H 485.533 3.24993 2.59524 0
M  V30 5333 H 484.11 1.5915 3.37233 0
M  V30 5334 N 486.295 -0.989507 1.22664 0
M  V30 5335 C 487.542 -1.72953 1.05325 0
M  V30 5336 C 487.87 -1.90104 -0.411168 0
M  V30 5337 O 487.125 -1.44386 -1.32103 0
M  V30 5338 C 487.424 -3.13649 1.71345 0
M  V30 5339 C 487.09 -3.16403 3.21248 0
M  V30 5340 C 485.752 -3.16862 3.62149 0
M  V30 5341 C 488.104 -3.12428 4.17179 0
M  V30 5342 C 485.432 -3.11051 4.97458 0
M  V30 5343 C 487.784 -3.08159 5.52468 0
M  V30 5344 C 486.448 -3.06935 5.92746 0
M  V30 5345 H 485.718 -0.632881 0.385412 0
M  V30 5346 H 488.365 -1.15863 1.52473 0
M  V30 5347 H 486.67 -3.74069 1.16532 0
M  V30 5348 H 488.367 -3.69658 1.55416 0
M  V30 5349 H 484.957 -3.16798 2.88682 0
M  V30 5350 H 489.141 -3.11221 3.86595 0
M  V30 5351 H 484.397 -3.0845 5.27891 0
M  V30 5352 H 488.571 -3.04039 6.26525 0
M  V30 5353 H 486.198 -3.02186 6.97558 0
M  V30 5354 N 487.773 -1.03688 -1.18687 0
M  V30 5355 C 489.021 -0.736572 -1.88199 0
M  V30 5356 C 489.342 0.737665 -1.80509 0
M  V30 5357 O 488.612 1.53204 -1.22088 0
M  V30 5358 H 487.192 -0.269466 -0.696704 0
M  V30 5359 H 489.854 -1.31282 -1.44052 0
M  V30 5360 H 488.95 -1.03802 -2.94332 0
M  V30 5361 N 489.251 1.34841 -0.815825 0
M  V30 5362 C 490.476 2.03261 -0.41226 0
M  V30 5363 C 490.901 1.61055 0.971751 0
M  V30 5364 O 490.259 0.7917 1.63101 0
M  V30 5365 C 490.307 3.56914 -0.514289 0
M  V30 5366 O 489.411 4.09728 0.468675 0
M  V30 5367 H 488.752 0.641664 -0.170771 0
M  V30 5368 H 491.282 1.72241 -1.10427 0
M  V30 5369 H 491.292 4.06156 -0.387457 0
M  V30 5370 H 489.967 3.86982 -1.52375 0
M  V30 5371 H 488.544 3.71681 0.301316 0
M  V30 5372 N 490.729 0.570148 1.46925 0
M  V30 5373 C 491.954 0.0542592 2.07329 0
M  V30 5374 C 492.379 -1.23582 1.41806 0
M  V30 5375 O 491.737 -1.74341 0.497479 0
M  V30 5376 C 491.785 -0.111175 3.60429 0
M  V30 5377 O 490.889 -1.17071 3.95434 0
M  V30 5378 H 490.23 0.0571425 0.661537 0
M  V30 5379 H 492.76 0.789516 1.88753 0
M  V30 5380 H 492.77 -0.321315 4.06733 0
M  V30 5381 H 491.445 0.831012 4.07513 0
M  V30 5382 H 490.022 -0.940029 3.60857 0
M  V30 5383 N 492.207 -1.54576 0.307264 0
M  V30 5384 C 493.137 -2.26708 -0.55907 0
M  V30 5385 C 494.118 -1.26893 -1.1328 0
M  V30 5386 O 495.303 -1.55677 -1.16097 0
M  V30 5387 C 492.433 -3.01259 -1.72801 0
M  V30 5388 C 491.387 -4.08275 -1.28435 0
M  V30 5389 C 490.713 -4.70575 -2.53895 0
M  V30 5390 C 492.013 -5.2068 -0.411038 0
M  V30 5391 H 493.707 -2.9937 0.042576 0
M  V30 5392 H 491.253 -1.43983 0.0219173 0
M  V30 5393 H 493.206 -3.50444 -2.34023 0
M  V30 5394 H 491.93 -2.26187 -2.356 0
M  V30 5395 H 490.589 -3.59949 -0.695161 0
M  V30 5396 H 490.237 -3.92136 -3.15021 0
M  V30 5397 H 489.937 -5.42854 -2.24908 0
M  V30 5398 H 491.461 -5.22527 -3.15908 0
M  V30 5399 H 492.875 -5.65721 -0.929097 0
M  V30 5400 H 491.272 -5.99716 -0.214664 0
M  V30 5401 H 492.342 -4.81629 0.562287 0
M  V30 5402 N 493.685 -0.035106 -1.57561 0
M  V30 5403 C 494.618 0.979673 -2.06101 0
M  V30 5404 C 495.596 1.31378 -0.958046 0
M  V30 5405 O 496.78 1.42942 -1.22881 0
M  V30 5406 C 493.907 2.29809 -2.48808 0
M  V30 5407 C 492.953 2.11817 -3.70184 0
M  V30 5408 S 493.786 1.41143 -5.16565 0
M  V30 5409 C 494.942 2.74341 -5.62572 0
M  V30 5410 H 495.175 0.566506 -2.91853 0
M  V30 5411 H 492.708 0.176744 -1.53385 0
M  V30 5412 H 494.666 3.056 -2.74078 0
M  V30 5413 H 493.327 2.68257 -1.63392 0
M  V30 5414 H 492.52 3.09299 -3.97933 0
M  V30 5415 H 492.122 1.44168 -3.45097 0
M  V30 5416 H 494.414 3.70562 -5.67177 0
M  V30 5417 H 495.357 2.51249 -6.62027 0
M  V30 5418 H 495.765 2.79863 -4.90242 0
M  V30 5419 N 495.163 1.55791 0.238111 0
M  V30 5420 C 496.073 1.94196 1.31625 0
M  V30 5421 C 497.089 0.843545 1.52185 0
M  V30 5422 O 498.265 1.1457 1.65637 0
M  V30 5423 C 495.33 2.2365 2.64918 0
M  V30 5424 C 494.391 3.46971 2.52804 0
M  V30 5425 C 493.624 3.7501 3.79741 0
M  V30 5426 O 493.847 3.04982 4.82019 0
M  V30 5427 O 492.781 4.68525 3.77846 0
M  V30 5428 H 496.607 2.86044 1.02043 0
M  V30 5429 H 494.192 1.42786 0.439603 0
M  V30 5430 H 496.074 2.43863 3.4367 0
M  V30 5431 H 494.749 1.34979 2.94215 0
M  V30 5432 H 493.656 3.32055 1.72309 0
M  V30 5433 H 494.989 4.35971 2.28451 0
M  V30 5434 N 496.642 -0.504142 1.49319 0
M  V30 5435 C 497.867 -1.28729 1.62615 0
M  V30 5436 C 498.292 -1.85752 0.296309 0
M  V30 5437 O 497.65 -1.65704 -0.735649 0
M  V30 5438 C 497.698 -2.39561 2.69524 0
M  V30 5439 O 496.802 -3.43324 2.28478 0
M  V30 5440 H 496.143 -0.380172 0.544395 0
M  V30 5441 H 498.673 -0.603872 1.95485 0
M  V30 5442 H 498.683 -2.8537 2.91595 0
M  V30 5443 H 497.358 -1.97423 3.66056 0
M  V30 5444 H 495.935 -3.03455 2.16725 0
M  V30 5445 N 498.12 -1.38341 -0.754957 0
M  V30 5446 C 499.03 -1.3769 -1.89944 0
M  V30 5447 C 500.046 -0.274194 -1.71826 0
M  V30 5448 O 501.222 -0.512391 -1.94773 0
M  V30 5449 C 498.287 -1.19938 -3.25293 0
M  V30 5450 C 497.348 -2.40001 -3.55946 0
M  V30 5451 C 496.581 -2.23087 -4.84838 0
M  V30 5452 O 496.804 -1.22386 -5.57116 0
M  V30 5453 O 495.738 -3.11646 -5.14937 0
M  V30 5454 H 499.564 -2.3412 -1.93446 0
M  V30 5455 H 497.149 -1.19246 -0.900044 0
M  V30 5456 H 499.031 -1.12093 -4.06218 0
M  V30 5457 H 497.706 -0.265919 -3.22606 0
M  V30 5458 H 496.613 -2.53421 -2.75188 0
M  V30 5459 H 497.946 -3.31973 -3.63394 0
M  V30 5460 N 499.598 0.982988 -1.23187 0
M  V30 5461 C 500.844 1.72648 -1.06398 0
M  V30 5462 C 501.177 1.90066 0.398561 0
M  V30 5463 O 500.452 1.45105 1.29518 0
M  V30 5464 C 500.735 3.12627 -1.78707 0
M  V30 5465 C 500.588 3.02795 -3.32618 0
M  V30 5466 C 501.907 4.11997 -1.54747 0
M  V30 5467 H 499.026 0.626649 -0.387918 0
M  V30 5468 H 501.668 1.14455 -1.51658 0
M  V30 5469 H 499.818 3.62308 -1.40234 0
M  V30 5470 H 501.49 2.60659 -3.80598 0
M  V30 5471 H 499.733 2.39362 -3.61785 0
M  V30 5472 H 500.404 4.01893 -3.78399 0
M  V30 5473 H 502.88 3.71114 -1.88186 0
M  V30 5474 H 501.756 5.08037 -2.07821 0
M  V30 5475 H 502.017 4.39462 -0.482249 0
M  V30 5476 N 501.076 1.04316 1.18135 0
M  V30 5477 C 502.024 0.630175 2.23901 0
M  V30 5478 C 503.018 -0.344254 1.65865 0
M  V30 5479 O 504.224 -0.211273 1.78756 0
M  V30 5480 H 500.599 0.185578 0.728742 0
M  V30 5481 H 502.57 1.53253 2.56039 0
M  V30 5482 C 501.319 0.011666 3.47698 0
M  V30 5483 H 500.642 0.752526 3.92654 0
M  V30 5484 H 502.082 -0.240046 4.2332 0
M  V30 5485 C 500.541 -1.23913 3.13285 0
M  V30 5486 O 501.071 -2.32959 3.27251 0
M  V30 5487 N 499.277 -1.13338 2.67587 0
M  V30 5488 H 498.824 -0.246006 2.56423 0
M  V30 5489 H 498.782 -1.97116 2.44934 0
M  V30 5490 N 502.554 -1.34406 0.822964 0
M  V30 5491 C 503.484 -2.32052 0.259608 0
M  V30 5492 C 504.465 -1.58243 -0.623961 0
M  V30 5493 O 505.65 -1.86224 -0.55083 0
M  V30 5494 C 502.78 -3.42434 -0.579314 0
M  V30 5495 C 501.734 -4.27499 0.20712 0
M  V30 5496 C 501.06 -5.29349 -0.754547 0
M  V30 5497 C 502.36 -5.02758 1.41533 0
M  V30 5498 H 504.054 -2.79418 1.07545 0
M  V30 5499 H 501.6 -1.34338 0.518593 0
M  V30 5500 H 503.553 -4.0976 -0.983612 0
M  V30 5501 H 502.277 -2.93717 -1.4282 0
M  V30 5502 H 500.936 -3.61776 0.592787 0
M  V30 5503 H 500.584 -4.76895 -1.59939 0
M  V30 5504 H 500.284 -5.8714 -0.232561 0
M  V30 5505 H 501.808 -5.99544 -1.1567 0
M  V30 5506 H 503.222 -5.62938 1.08504 0
M  V30 5507 H 501.619 -5.70123 1.87296 0
M  V30 5508 H 502.689 -4.32451 2.1935 0
M  V30 5509 N 504.032 -0.577932 -1.46621 0
M  V30 5510 C 505.309 0.00495287 -1.95599 0
M  V30 5511 C 505.689 1.46428 -1.5206 0
M  V30 5512 O 505.037 2.1517 -0.769046 0
M  V30 5513 C 505.247 -0.162114 -3.48623 0
M  V30 5514 C 506.595 -0.0274623 -4.24591 0
M  V30 5515 O 507.619 -0.0907067 -3.56084 0
M  V30 5516 O 506.478 0.1122 -5.46385 0
M  V30 5517 H 503.572 0.0525057 -0.825332 0
M  V30 5518 H 506.118 -0.645914 -1.56927 0
M  V30 5519 H 504.89 -1.17679 -3.73185 0
M  V30 5520 H 504.513 0.525407 -3.94113 0
M  V30 5521 N 505.51 1.54411 -0.315457 0
M  V30 5522 C 506.926 1.59556 0.037464 0
M  V30 5523 C 507.126 1.33217 1.5118 0
M  V30 5524 O 506.182 1.11264 2.26664 0
M  V30 5525 C 507.495 2.98372 -0.373477 0
M  V30 5526 C 509.043 3.11324 -0.323452 0
M  V30 5527 C 509.518 4.52472 -0.709433 0
M  V30 5528 N 511.009 4.58437 -0.662524 0
M  V30 5529 C 511.744 5.65751 -0.933474 0
M  V30 5530 N 511.24 6.81039 -1.27114 0
M  V30 5531 N 513.033 5.55489 -0.859573 0
M  V30 5532 H 505.184 1.6979 -1.27614 0
M  V30 5533 H 507.447 0.793732 -0.518356 0
M  V30 5534 H 507.153 3.22618 -1.40037 0
M  V30 5535 H 507.027 3.76264 0.265615 0
M  V30 5536 H 509.414 2.86818 0.694223 0
M  V30 5537 H 509.495 2.35555 -0.997367 0
M  V30 5538 H 509.139 4.7771 -1.72498 0
M  V30 5539 H 509.069 5.26598 -0.0132923 0
M  V30 5540 H 511.56 3.75636 -0.413065 0
M  V30 5541 H 511.873 7.58816 -1.46348 0
M  V30 5542 H 510.218 6.82555 -1.30932 0
M  V30 5543 H 513.409 4.64299 -0.595324 0
M  V30 5544 H 513.582 6.39036 -1.0741 0
M  V30 5545 N 506.988 0.0434614 1.5754 0
M  V30 5546 C 508.218 -0.640905 1.96408 0
M  V30 5547 C 508.626 -1.65365 0.919297 0
M  V30 5548 O 507.969 -1.83395 -0.105795 0
M  V30 5549 C 508.031 -1.39141 3.31482 0
M  V30 5550 C 507.695 -0.535375 4.53853 0
M  V30 5551 C 508.692 0.195335 5.19533 0
M  V30 5552 C 506.377 -0.468564 5.0011 0
M  V30 5553 C 508.371 0.981377 6.298 0
M  V30 5554 C 506.058 0.321171 6.10255 0
M  V30 5555 C 507.056 1.04484 6.74961 0
M  V30 5556 O 506.744 1.8216 7.8299 0
M  V30 5557 H 506.476 -0.180584 0.651433 0
M  V30 5558 H 509.03 0.103848 2.05137 0
M  V30 5559 H 507.26 -2.18162 3.19284 0
M  V30 5560 H 508.949 -1.96526 3.55151 0
M  V30 5561 H 509.715 0.15314 4.84758 0
M  V30 5562 H 505.594 -1.02142 4.49542 0
M  V30 5563 H 509.138 1.54674 6.80237 0
M  V30 5564 H 505.035 0.365032 6.44467 0
M  V30 5565 H 505.803 1.74289 7.99728 0
M  V30 5566 N 508.466 -1.55915 -0.229846 0
M  V30 5567 C 509.398 -1.88209 -1.30805 0
M  V30 5568 C 510.411 -0.769672 -1.43457 0
M  V30 5569 O 511.6 -1.04792 -1.44502 0
M  V30 5570 C 508.7 -2.06829 -2.68468 0
M  V30 5571 C 507.873 -3.37798 -2.77869 0
M  V30 5572 C 506.932 -3.45952 -3.96489 0
M  V30 5573 O 505.958 -4.19043 -3.85216 0
M  V30 5574 N 507.16 -2.76488 -5.10426 0
M  V30 5575 H 509.925 -2.81286 -1.03431 0
M  V30 5576 H 507.486 -1.5636 -0.41991 0
M  V30 5577 H 509.478 -2.09608 -3.46189 0
M  V30 5578 H 508.048 -1.20416 -2.88477 0
M  V30 5579 H 507.268 -3.4719 -1.86689 0
M  V30 5580 H 508.556 -4.24091 -2.81113 0
M  V30 5581 H 507.954 -2.16868 -5.2248 0
M  V30 5582 H 506.511 -2.84938 -5.8622 0
M  V30 5583 N 509.944 0.496216 -1.49584 0
M  V30 5584 C 511.172 1.27394 -1.63029 0
M  V30 5585 C 511.587 1.86344 -0.303569 0
M  V30 5586 O 510.944 1.68057 0.711547 0
M  V30 5587 C 510.995 2.40077 -2.70269 0
M  V30 5588 O 510.716 1.83549 -3.97796 0
M  V30 5589 C 512.217 3.31372 -2.94462 0
M  V30 5590 H 509.437 0.386211 -0.54871 0
M  V30 5591 H 511.981 0.595163 -1.95648 0
M  V30 5592 H 510.136 3.03775 -2.40415 0
M  V30 5593 H 510.55 2.57561 -4.56905 0
M  V30 5594 H 512.024 4.06707 -3.73221 0
M  V30 5595 H 512.501 3.88654 -2.0456 0
M  V30 5596 H 513.107 2.73435 -3.25751 0
M  V30 5597 N 511.423 1.38739 0.74761 0
M  V30 5598 C 512.386 1.36241 1.84312 0
M  V30 5599 C 513.386 0.261811 1.58654 0
M  V30 5600 O 514.576 0.519031 1.66288 0
M  V30 5601 C 511.708 1.12253 3.21888 0
M  V30 5602 H 512.901 2.33712 1.87933 0
M  V30 5603 H 510.454 1.2412 0.949946 0
M  V30 5604 H 511.189 0.154133 3.23934 0
M  V30 5605 H 510.974 1.91943 3.41907 0
M  V30 5606 H 512.464 1.13215 4.0196 0
M  V30 5607 N 512.901 -0.976442 1.23707 0
M  V30 5608 C 513.831 -2.08749 1.04624 0
M  V30 5609 C 514.812 -1.70057 -0.0380956 0
M  V30 5610 O 515.997 -1.93782 0.127308 0
M  V30 5611 C 513.127 -3.41335 0.640902 0
M  V30 5612 C 512.081 -3.93947 1.67302 0
M  V30 5613 C 511.407 -5.22774 1.12301 0
M  V30 5614 C 512.707 -4.22769 3.06697 0
M  V30 5615 H 514.401 -2.24972 1.97555 0
M  V30 5616 H 511.947 -1.08108 0.951247 0
M  V30 5617 H 513.9 -4.18489 0.494434 0
M  V30 5618 H 512.624 -3.24988 -0.324099 0
M  V30 5619 H 511.283 -3.18941 1.80755 0
M  V30 5620 H 510.931 -5.0278 0.148877 0
M  V30 5621 H 510.631 -5.58942 1.81267 0
M  V30 5622 H 512.155 -6.02546 0.988479 0
M  V30 5623 H 513.569 -4.90659 2.96524 0
M  V30 5624 H 511.966 -4.70147 3.72937 0
M  V30 5625 H 513.036 -3.29885 3.55392 0
M  V30 5626 N 514.379 -1.04941 -1.1758 0
M  V30 5627 C 515.289 -0.658826 -2.25159 0
M  V30 5628 C 516.305 0.318941 -1.71052 0
M  V30 5629 O 517.481 0.171669 -2.00667 0
M  V30 5630 C 514.546 -0.0369522 -3.4668 0
M  V30 5631 C 513.607 -1.06484 -4.15884 0
M  V30 5632 C 512.84 -0.472551 -5.31604 0
M  V30 5633 O 513.063 0.718736 -5.65854 0
M  V30 5634 O 511.997 -1.20557 -5.89703 0
M  V30 5635 H 515.823 -1.55533 -2.60851 0
M  V30 5636 H 513.408 -0.820819 -1.24832 0
M  V30 5637 H 515.29 0.308784 -4.20267 0
M  V30 5638 H 513.965 0.833238 -3.12792 0
M  V30 5639 H 512.872 -1.46253 -3.44327 0
M  V30 5640 H 514.205 -1.9061 -4.53794 0
M  V30 5641 N 515.857 1.33968 -0.830081 0
M  V30 5642 C 516.767 2.33164 -0.259207 0
M  V30 5643 C 517.783 1.62951 0.610164 0
M  V30 5644 O 518.959 1.94668 0.516369 0
M  V30 5645 C 516.024 3.42088 0.563598 0
M  V30 5646 C 515.085 4.28037 -0.329014 0
M  V30 5647 C 514.318 5.3176 0.454616 0
M  V30 5648 O 514.541 5.44876 1.6872 0
M  V30 5649 O 513.475 6.01669 -0.166794 0
M  V30 5650 H 517.301 2.83832 -1.08041 0
M  V30 5651 H 514.886 1.37154 -0.59239 0
M  V30 5652 H 516.768 4.08581 1.03147 0
M  V30 5653 H 515.443 2.93651 1.36201 0
M  V30 5654 H 514.35 3.64443 -0.844538 0
M  V30 5655 H 515.683 4.79934 -1.09196 0
M  V30 5656 N 517.335 0.585699 1.46312 0
M  V30 5657 C 518.581 0.0725284 2.0267 0
M  V30 5658 C 518.914 -1.28523 1.45586 0
M  V30 5659 O 518.189 -1.84283 0.622101 0
M  V30 5660 C 518.472 0.0099788 3.60099 0
M  V30 5661 C 518.325 1.39685 4.27561 0
M  V30 5662 C 519.644 -0.689117 4.34671 0
M  V30 5663 H 516.763 0.0278307 0.736474 0
M  V30 5664 H 519.405 0.753472 1.74421 0
M  V30 5665 H 517.555 -0.56992 3.84297 0
M  V30 5666 H 519.227 2.02215 4.14617 0
M  V30 5667 H 517.47 1.96374 3.86807 0
M  V30 5668 H 518.141 1.30553 5.36339 0
M  V30 5669 H 520.617 -0.196446 4.15636 0
M  V30 5670 H 519.493 -0.701921 5.44393 0
M  V30 5671 H 519.754 -1.75101 4.05946 0
M  V30 5672 N 518.813 -1.54241 0.323641 0
M  V30 5673 C 519.743 -2.27289 -0.534993 0
M  V30 5674 C 520.724 -1.28087 -1.11927 0
M  V30 5675 O 521.909 -1.56899 -1.14439 0
M  V30 5676 C 519.039 -3.03075 -1.69596 0
M  V30 5677 C 517.993 -4.09614 -1.24098 0
M  V30 5678 C 517.319 -4.73242 -2.4889 0
M  V30 5679 C 518.619 -5.21087 -0.355789 0
M  V30 5680 H 520.313 -2.99308 0.0743257 0
M  V30 5681 H 517.859 -1.43952 0.0371874 0
M  V30 5682 H 519.812 -3.52907 -2.30293 0
M  V30 5683 H 518.536 -2.28673 -2.33187 0
M  V30 5684 H 517.195 -3.60666 -0.656945 0
M  V30 5685 H 516.843 -3.95455 -3.10845 0
M  V30 5686 H 516.543 -5.45209 -2.19138 0
M  V30 5687 H 518.067 -5.25848 -3.10348 0
M  V30 5688 H 519.481 -5.66675 -0.869042 0
M  V30 5689 H 517.878 -5.9991 -0.151045 0
M  V30 5690 H 518.948 -4.81005 0.613339 0
M  V30 5691 N 520.291 -0.0518155 -1.57515 0
M  V30 5692 C 521.516 0.634896 -1.97443 0
M  V30 5693 C 521.941 1.63546 -0.929207 0
M  V30 5694 O 521.299 1.80981 0.107484 0
M  V30 5695 C 521.347 1.29765 -3.36442 0
M  V30 5696 O 520.451 2.41333 -3.34413 0
M  V30 5697 H 519.792 0.164994 -0.643174 0
M  V30 5698 H 522.322 -0.120407 -2.04245 0
M  V30 5699 H 522.332 1.64918 -3.73184 0
M  V30 5700 H 521.007 0.564361 -4.12053 0
M  V30 5701 H 519.584 2.08122 -3.09418 0
M  V30 5702 N 521.769 1.56035 0.221574 0
M  V30 5703 C 523.015 1.80221 0.942973 0
M  V30 5704 C 523.37 0.624799 1.81973 0
M  V30 5705 O 522.663 -0.381145 1.87771 0
M  V30 5706 C 522.857 3.07813 1.8162 0
M  V30 5707 C 522.686 4.37852 1.02548 0
M  V30 5708 C 521.456 5.00138 0.720418 0
M  V30 5709 C 523.654 5.12813 0.390799 0
M  V30 5710 N 521.636 6.13831 -0.0917139 0
M  V30 5711 C 523.007 6.19346 -0.284728 0
M  V30 5712 C 525.062 4.96972 0.303828 0
M  V30 5713 C 523.765 7.11758 -1.03891 0
M  V30 5714 C 525.791 5.89784 -0.436883 0
M  V30 5715 C 525.153 6.95743 -1.10095 0
M  V30 5716 H 521.252 0.711117 0.325325 0
M  V30 5717 H 523.836 1.93522 0.213854 0
M  V30 5718 H 522.007 2.95795 2.51714 0
M  V30 5719 H 523.739 3.20191 2.47508 0
M  V30 5720 H 520.494 4.62075 1.03843 0
M  V30 5721 H 520.918 6.75249 -0.486615 0
M  V30 5722 H 525.56 4.15107 0.802896 0
M  V30 5723 H 523.278 7.93105 -1.54949 0
M  V30 5724 H 526.864 5.79603 -0.505181 0
M  V30 5725 H 525.744 7.66322 -1.66495 0
M  V30 5726 N 523.247 -0.488276 1.49845 0
M  V30 5727 C 524.177 -1.59675 1.70371 0
M  V30 5728 C 525.158 -1.60878 0.552473 0
M  V30 5729 O 526.343 -1.77417 0.78973 0
M  V30 5730 C 523.473 -2.98098 1.782 0
M  V30 5731 C 522.427 -3.11761 2.93239 0
M  V30 5732 C 521.753 -4.51661 2.86193 0
M  V30 5733 C 523.053 -2.90589 4.33999 0
M  V30 5734 H 524.747 -1.42752 2.63177 0
M  V30 5735 H 522.293 -0.685317 1.26647 0
M  V30 5736 H 524.246 -3.75555 1.91144 0
M  V30 5737 H 522.97 -3.16138 0.820018 0
M  V30 5738 H 521.629 -2.36732 2.79917 0
M  V30 5739 H 521.277 -4.66595 1.87877 0
M  V30 5740 H 520.977 -4.61742 3.63412 0
M  V30 5741 H 522.501 -5.31162 3.01163 0
M  V30 5742 H 523.915 -3.57807 4.47936 0
M  V30 5743 H 522.312 -3.1213 5.12538 0
M  V30 5744 H 523.382 -1.86595 4.4756 0
M  V30 5745 N 524.725 -1.39134 -0.740242 0
M  V30 5746 C 525.655 -1.40165 -1.86751 0
M  V30 5747 C 526.636 -0.265708 -1.68012 0
M  V30 5748 O 527.821 -0.47076 -1.88408 0
M  V30 5749 C 524.951 -1.2392 -3.2444 0
M  V30 5750 C 523.905 -2.34858 -3.57807 0
M  V30 5751 C 523.231 -2.03707 -4.94376 0
M  V30 5752 C 524.531 -3.77159 -3.61315 0
M  V30 5753 H 526.225 -2.345 -1.86145 0
M  V30 5754 H 523.771 -1.12875 -0.89416 0
M  V30 5755 H 525.724 -1.23263 -4.02969 0
M  V30 5756 H 524.448 -0.26051 -3.25559 0
M  V30 5757 H 523.107 -2.34723 -2.81604 0
M  V30 5758 H 522.755 -1.04289 -4.9207 0
M  V30 5759 H 522.455 -2.78016 -5.17669 0
M  V30 5760 H 523.979 -2.04691 -5.75268 0
M  V30 5761 H 525.393 -3.79252 -4.29931 0
M  V30 5762 H 523.79 -4.50784 -3.96124 0
M  V30 5763 H 524.86 -4.08513 -2.61238 0
M  V30 5764 N 526.204 0.969867 -1.24223 0
M  V30 5765 C 527.429 1.75289 -1.10853 0
M  V30 5766 C 527.854 1.85091 0.335079 0
M  V30 5767 O 527.212 1.32024 1.24255 0
M  V30 5768 C 527.26 3.15255 -1.75062 0
M  V30 5769 O 526.364 3.99589 -1.01992 0
M  V30 5770 H 525.705 0.538904 -0.387915 0
M  V30 5771 H 528.235 1.21675 -1.64488 0
M  V30 5772 H 528.245 3.65787 -1.80731 0
M  V30 5773 H 526.92 3.07436 -2.801 0
M  V30 5774 H 525.497 3.58077 -1.04094 0
M  V30 5775 N 527.682 1.05563 1.17022 0
M  V30 5776 C 528.645 0.664098 2.19368 0
M  V30 5777 C 529.645 -0.286358 1.5823 0
M  V30 5778 O 530.835 -0.069728 1.7406 0
M  V30 5779 C 527.967 -0.0239932 3.40892 0
M  V30 5780 H 529.16 1.57 2.55521 0
M  V30 5781 H 526.713 0.849964 1.31169 0
M  V30 5782 H 527.448 -0.942988 3.10287 0
M  V30 5783 H 527.233 0.659351 3.86516 0
M  V30 5784 H 528.723 -0.283909 4.16634 0
M  V30 5785 N 529.16 -1.33526 0.837174 0
M  V30 5786 C 530.07 -2.33023 0.271568 0
M  V30 5787 C 531.086 -1.63272 -0.601514 0
M  V30 5788 O 532.262 -1.94939 -0.506038 0
M  V30 5789 C 529.327 -3.42382 -0.545448 0
M  V30 5790 C 528.388 -4.27857 0.351709 0
M  V30 5791 C 527.621 -5.31994 -0.426409 0
M  V30 5792 O 527.844 -5.45763 -1.65828 0
M  V30 5793 O 526.778 -6.01572 0.1987 0
M  V30 5794 H 530.604 -2.83256 1.09545 0
M  V30 5795 H 528.189 -1.36837 0.599655 0
M  V30 5796 H 530.071 -4.09122 -1.00979 0
M  V30 5797 H 528.746 -2.94369 -1.34641 0
M  V30 5798 H 527.653 -3.6399 0.863853 0
M  V30 5799 H 528.986 -4.79349 1.1174 0
M  V30 5800 N 530.638 -0.59345 -1.46 0
M  V30 5801 C 531.915 -0.0157933 -1.95594 0
M  V30 5802 C 532.295 1.44807 -1.53604 0
M  V30 5803 O 531.643 2.14342 -0.791824 0
M  V30 5804 C 531.853 -0.199081 -3.48432 0
M  V30 5805 C 533.201 -0.0724943 -4.24538 0
M  V30 5806 O 534.225 -0.128469 -3.55968 0
M  V30 5807 O 533.084 0.0542426 -5.46473 0
M  V30 5808 H 530.178 0.043749 -0.825842 0
M  V30 5809 H 532.724 -0.662522 -1.56233 0
M  V30 5810 H 531.496 -1.21631 -3.71916 0
M  V30 5811 H 531.119 0.483576 -3.94648 0
M  V30 5812 N 532.116 1.54067 -0.331816 0
M  V30 5813 C 533.344 2.05131 0.269996 0
M  V30 5814 C 533.759 1.20749 1.45138 0
M  V30 5815 O 533.116 0.240069 1.80914 0
M  V30 5816 C 533.167 3.54728 0.696456 0
M  V30 5817 O 532.888 4.35906 -0.43794 0
M  V30 5818 C 534.389 4.21916 1.36021 0
M  V30 5819 H 531.609 0.668807 0.0542042 0
M  V30 5820 H 534.153 1.98777 -0.4804 0
M  V30 5821 H 532.308 3.61342 1.39681 0
M  V30 5822 H 532.722 5.24404 -0.100334 0
M  V30 5823 H 534.196 5.28015 1.60947 0
M  V30 5824 H 534.673 3.73538 2.31011 0
M  V30 5825 H 535.279 4.19463 0.702212 0
M  V30 5826 N 533.594 0.0601682 1.57485 0
M  V30 5827 C 534.524 -0.90889 2.15085 0
M  V30 5828 C 535.505 -1.31838 1.07484 0
M  V30 5829 O 536.69 -1.3915 1.35466 0
M  V30 5830 C 533.82 -2.18059 2.7031 0
M  V30 5831 C 532.774 -1.91088 3.82974 0
M  V30 5832 C 532.1 -3.24789 4.24754 0
M  V30 5833 C 533.4 -1.22535 5.07723 0
M  V30 5834 H 535.094 -0.429093 2.96309 0
M  V30 5835 H 532.64 -0.204952 1.42534 0
M  V30 5836 H 534.593 -2.86258 3.09248 0
M  V30 5837 H 533.317 -2.6826 1.8629 0
M  V30 5838 H 531.976 -1.25297 3.44523 0
M  V30 5839 H 531.624 -3.72809 3.37672 0
M  V30 5840 H 531.324 -3.07538 5.00694 0
M  V30 5841 H 532.848 -3.94205 4.66299 0
M  V30 5842 H 534.262 -1.80783 5.4405 0
M  V30 5843 H 532.659 -1.1558 5.88864 0
M  V30 5844 H 533.729 -0.202692 4.84476 0
M  V30 5845 N 535.072 -1.5615 -0.213296 0
M  V30 5846 C 536.004 -1.89586 -1.28802 0
M  V30 5847 C 537.017 -0.784844 -1.42633 0
M  V30 5848 O 538.206 -1.06319 -1.43383 0
M  V30 5849 C 535.306 -2.09665 -2.66259 0
M  V30 5850 C 534.479 -3.40726 -2.7427 0
M  V30 5851 C 533.538 -3.50137 -3.92798 0
M  V30 5852 O 532.564 -4.23105 -3.8075 0
M  V30 5853 N 533.766 -2.81886 -5.07465 0
M  V30 5854 H 536.531 -2.82368 -1.00442 0
M  V30 5855 H 534.092 -1.56796 -0.403302 0
M  V30 5856 H 536.084 -2.13268 -3.43946 0
M  V30 5857 H 534.654 -1.23469 -2.87183 0
M  V30 5858 H 533.874 -3.4915 -1.82997 0
M  V30 5859 H 535.162 -4.27048 -2.76599 0
M  V30 5860 H 534.56 -2.22397 -5.2015 0
M  V30 5861 H 533.117 -2.91139 -5.83165 0
M  V30 5862 N 536.55 0.480323 -1.50102 0
M  V30 5863 C 537.513 1.56181 -1.6775 0
M  V30 5864 C 538.513 1.51156 -0.548503 0
M  V30 5865 O 539.703 1.5394 -0.815363 0
M  V30 5866 C 536.835 2.95823 -1.69415 0
M  V30 5867 H 538.028 1.41855 -2.6423 0
M  V30 5868 H 535.581 0.70605 -1.39444 0
M  V30 5869 H 536.316 3.15604 -0.745948 0
M  V30 5870 H 536.101 3.00878 -2.51425 0
M  V30 5871 H 537.591 3.74359 -1.85054 0
M  V30 5872 N 538.028 1.39524 0.732853 0
M  V30 5873 C 538.96 1.34318 1.85718 0
M  V30 5874 C 539.973 0.251576 1.60844 0
M  V30 5875 O 541.162 0.510685 1.71039 0
M  V30 5876 C 538.262 1.06334 3.21786 0
M  V30 5877 C 537.435 2.26813 3.73998 0
M  V30 5878 C 536.494 1.95253 4.88634 0
M  V30 5879 O 535.52 2.67957 5.02183 0
M  V30 5880 N 536.722 0.919984 5.73164 0
M  V30 5881 H 539.487 2.3121 1.90688 0
M  V30 5882 H 537.048 1.33654 0.91368 0
M  V30 5883 H 539.04 0.832363 3.96048 0
M  V30 5884 H 537.61 0.181682 3.12072 0
M  V30 5885 H 536.83 2.65849 2.91064 0
M  V30 5886 H 538.118 3.0717 4.05616 0
M  V30 5887 H 537.516 0.317487 5.64808 0
M  V30 5888 H 536.073 0.748905 6.47483 0
M  V30 5889 N 539.506 -0.963266 1.24736 0
M  V30 5890 C 540.754 -1.70343 1.08755 0
M  V30 5891 C 541.075 -1.91387 -0.373619 0
M  V30 5892 O 540.345 -1.4948 -1.2662 0
M  V30 5893 H 538.925 -0.631224 0.399456 0
M  V30 5894 H 541.587 -1.15859 1.56725 0
M  V30 5895 H 540.683 -2.68616 1.58909 0
M  V30 5896 N 540.985 -1.06182 -1.16461 0
M  V30 5897 C 541.895 -0.682671 -2.24448 0
M  V30 5898 C 542.911 0.30078 -1.71381 0
M  V30 5899 O 544.087 0.150376 -2.00838 0
M  V30 5900 C 541.152 -0.0737202 -3.46622 0
M  V30 5901 C 540.213 -1.10889 -4.14731 0
M  V30 5902 C 539.446 -0.528908 -5.31073 0
M  V30 5903 O 539.669 0.65868 -5.66584 0
M  V30 5904 O 538.603 -1.26805 -5.88391 0
M  V30 5905 H 542.429 -1.58291 -2.59187 0
M  V30 5906 H 540.014 -0.834013 -1.23954 0
M  V30 5907 H 541.896 0.264192 -4.20571 0
M  V30 5908 H 540.571 0.800015 -3.13658 0
M  V30 5909 H 539.478 -1.49896 -3.42756 0
M  V30 5910 H 540.811 -1.95412 -4.51747 0
M  V30 5911 N 542.463 1.3308 -0.844243 0
M  V30 5912 C 543.712 1.96868 -0.438833 0
M  V30 5913 C 544.025 1.67599 1.00846 0
M  V30 5914 O 545.231 2.25043 1.51881 0
M  V30 5915 C 543.687 3.5234 -0.73377 0
M  V30 5916 C 543.295 3.90481 -2.1961 0
M  V30 5917 C 545.039 4.22653 -0.395574 0
M  V30 5918 C 542.946 5.38954 -2.43481 0
M  V30 5919 H 541.876 0.736749 -0.160364 0
M  V30 5920 H 544.527 1.51623 -1.03358 0
M  V30 5921 H 542.909 3.95941 -0.068589 0
M  V30 5922 H 544.083 3.57922 -2.90221 0
M  V30 5923 H 542.398 3.33165 -2.4978 0
M  V30 5924 H 544.995 5.31848 -0.551477 0
M  V30 5925 H 545.338 4.11004 0.661921 0
M  V30 5926 H 545.871 3.84601 -1.01621 0
M  V30 5927 H 542.61 5.55612 -3.47816 0
M  V30 5928 H 542.13 5.72954 -1.77437 0
M  V30 5929 H 543.809 6.05907 -2.26905 0
M  V30 5930 N 543.941 0.601185 1.45683 0
M  V30 5931 C 545.166 0.0982245 2.07167 0
M  V30 5932 C 545.591 -1.20546 1.44396 0
M  V30 5933 O 544.949 -1.73247 0.534347 0
M  V30 5934 C 544.997 -0.0346976 3.60583 0
M  V30 5935 O 544.101 -1.08657 3.97828 0
M  V30 5936 H 543.442 0.0711618 0.660176 0
M  V30 5937 H 545.972 0.829376 1.87036 0
M  V30 5938 H 545.982 -0.234969 4.07323 0
M  V30 5939 H 544.657 0.917265 4.05659 0
M  V30 5940 H 543.234 -0.863275 3.6277 0
M  V30 5941 N 545.419 -1.53889 0.339982 0
M  V30 5942 C 546.367 -2.26391 -0.533822 0
M  V30 5943 C 547.361 -1.28404 -1.10493 0
M  V30 5944 O 548.567 -1.46124 -1.05108 0
M  V30 5945 H 544.942 -0.727385 -0.190828 0
M  V30 5946 H 546.913 -2.98233 0.0997484 0
M  V30 5947 C 545.662 -3.04707 -1.67479 0
M  V30 5948 H 544.985 -3.79934 -1.2446 0
M  V30 5949 H 546.425 -3.58657 -2.26144 0
M  V30 5950 C 544.884 -2.13989 -2.60212 0
M  V30 5951 O 545.414 -1.73361 -3.62366 0
M  V30 5952 N 543.62 -1.79141 -2.28816 0
M  V30 5953 H 543.167 -2.12378 -1.45785 0
M  V30 5954 H 543.125 -1.18725 -2.91121 0
M  V30 5955 N 546.897 -0.0685191 -1.57451 0
M  V30 5956 C 548.174 0.642167 -1.84758 0
M  V30 5957 C 548.554 1.87991 -0.960344 0
M  V30 5958 O 547.902 2.28485 -0.0257894 0
M  V30 5959 C 548.112 0.982946 -3.34872 0
M  V30 5960 C 549.46 1.35784 -4.02303 0
M  V30 5961 O 550.484 1.07477 -3.39598 0
M  V30 5962 O 549.343 1.88681 -5.12895 0
M  V30 5963 H 546.437 0.318625 -0.763156 0
M  V30 5964 H 548.983 -0.0992015 -1.6941 0
M  V30 5965 H 547.755 0.10372 -3.91163 0
M  V30 5966 H 547.378 1.78119 -3.55471 0
M  V30 5967 N 548.375 1.56261 0.205012 0
M  V30 5968 C 549.621 1.80306 0.9283 0
M  V30 5969 C 549.954 0.640932 1.83319 0
M  V30 5970 O 549.229 -0.359032 1.91158 0
M  V30 5971 C 549.512 3.14547 1.75306 0
M  V30 5972 C 549.365 4.41236 0.873562 0
M  V30 5973 C 550.684 3.45382 2.72762 0
M  V30 5974 H 547.803 0.655929 0.336044 0
M  V30 5975 H 550.445 1.88984 0.196211 0
M  V30 5976 H 548.595 3.0728 2.37721 0
M  V30 5977 H 550.267 4.60539 0.264887 0
M  V30 5978 H 548.51 4.33427 0.179773 0
M  V30 5979 H 549.181 5.31639 1.48541 0
M  V30 5980 H 551.657 3.52884 2.20481 0
M  V30 5981 H 550.533 4.40449 3.2756 0
M  V30 5982 H 550.794 2.68377 3.51321 0
M  V30 5983 N 549.853 -0.472356 1.50355 0
M  V30 5984 C 550.763 -1.59637 1.7191 0
M  V30 5985 C 551.779 -1.63247 0.602195 0
M  V30 5986 O 552.955 -1.81139 0.880369 0
M  V30 5987 C 550.02 -2.9586 1.80742 0
M  V30 5988 C 549.081 -3.02649 3.04471 0
M  V30 5989 C 548.314 -4.32374 3.12872 0
M  V30 5990 O 548.537 -5.22807 2.28099 0
M  V30 5991 O 547.471 -4.44728 4.05587 0
M  V30 5992 H 551.297 -1.44373 2.67189 0
M  V30 5993 H 548.882 -0.651717 1.34436 0
M  V30 5994 H 550.764 -3.7677 1.88739 0
M  V30 5995 H 549.439 -3.11325 0.88647 0
M  V30 5996 H 548.346 -2.20821 3.01975 0
M  V30 5997 H 549.679 -2.92119 3.9614 0
M  V30 5998 N 551.331 -1.39911 -0.725443 0
M  V30 5999 C 552.577 -1.37858 -1.48738 0
M  V30 6000 C 552.91 0.0224187 -1.94187 0
M  V30 6001 O 552.185 0.989204 -1.67466 0
M  V30 6002 C 552.468 -2.3594 -2.72038 0
M  V30 6003 C 552.321 -3.85023 -2.32546 0
M  V30 6004 C 553.64 -2.31704 -3.74167 0
M  V30 6005 H 550.759 -0.502074 -0.539528 0
M  V30 6006 H 553.401 -1.70974 -0.828728 0
M  V30 6007 H 551.551 -2.0783 -3.28236 0
M  V30 6008 H 553.223 -4.2392 -1.81905 0
M  V30 6009 H 551.466 -4.01334 -1.64661 0
M  V30 6010 H 552.137 -4.49152 -3.20884 0
M  V30 6011 H 554.613 -2.5658 -3.27576 0
M  V30 6012 H 553.489 -3.02395 -4.58092 0
M  V30 6013 H 553.75 -1.3253 -4.21768 0
M  V30 6014 N 552.809 0.956637 -1.25245 0
M  V30 6015 C 554.055 1.70352 -1.10036 0
M  V30 6016 C 554.388 1.90869 0.358156 0
M  V30 6017 O 553.663 1.47819 1.26411 0
M  V30 6018 C 553.946 3.08766 -1.85298 0
M  V30 6019 C 553.799 2.95672 -3.38966 0
M  V30 6020 C 555.118 4.08622 -1.63451 0
M  V30 6021 H 552.237 0.618279 -0.401123 0
M  V30 6022 H 554.879 1.11212 -1.54051 0
M  V30 6023 H 553.029 3.59252 -1.47887 0
M  V30 6024 H 554.701 2.52527 -3.86041 0
M  V30 6025 H 552.944 2.31634 -3.6678 0
M  V30 6026 H 553.615 3.93776 -3.86839 0
M  V30 6027 H 556.091 3.67038 -1.96015 0
M  V30 6028 H 554.967 5.03514 -2.18551 0
M  V30 6029 H 555.228 4.3834 -0.575357 0
M  V30 6030 N 554.287 1.06798 1.15896 0
M  V30 6031 C 555.234 0.683314 2.20453 0
M  V30 6032 C 556.204 -0.32255 1.62938 0
M  V30 6033 O 557.389 -0.210276 1.89638 0
M  V30 6034 C 554.529 0.0813266 3.45004 0
M  V30 6035 C 553.642 1.13799 4.16742 0
M  V30 6036 C 552.777 0.501598 5.28826 0
M  V30 6037 C 551.816 1.54144 5.92373 0
M  V30 6038 N 550.953 0.928038 6.9594 0
M  V30 6039 H 555.793 1.57932 2.52708 0
M  V30 6040 H 553.33 0.789544 1.24115 0
M  V30 6041 H 555.288 -0.285274 4.16224 0
M  V30 6042 H 553.918 -0.77806 3.13283 0
M  V30 6043 H 552.97 1.62223 3.44075 0
M  V30 6044 H 554.282 1.92664 4.60089 0
M  V30 6045 H 553.436 0.0823162 6.06644 0
M  V30 6046 H 552.175 -0.318883 4.86656 0
M  V30 6047 H 551.18 1.97056 5.13273 0
M  V30 6048 H 552.405 2.3641 6.36621 0
M  V30 6049 H 550.351 0.12836 6.55874 0
M  V30 6050 H 550.268 1.65401 7.37685 0
M  V30 6051 H 551.536 0.534071 7.77668 0
M  V30 6052 N 555.766 -1.3263 0.851289 0
M  V30 6053 C 557.043 -1.91982 0.374448 0
M  V30 6054 C 557.423 -1.77568 -1.14161 0
M  V30 6055 O 556.771 -1.1717 -1.96172 0
M  V30 6056 C 556.981 -3.38862 0.835088 0
M  V30 6057 C 558.329 -4.15999 0.850309 0
M  V30 6058 O 559.353 -3.47566 0.779505 0
M  V30 6059 O 558.212 -5.38189 0.949481 0
M  V30 6060 H 555.306 -0.819846 0.10854 0
M  V30 6061 H 557.852 -1.41422 0.937966 0
M  V30 6062 H 556.624 -3.43281 1.87814 0
M  V30 6063 H 556.247 -3.96821 0.248833 0
M  V30 6064 N 557.244 -0.608902 -1.45362 0
M  V30 6065 C 558.176 0.147318 -2.28726 0
M  V30 6066 C 559.189 0.830468 -1.40025 0
M  V30 6067 O 560.378 0.695636 -1.64387 0
M  V30 6068 C 557.478 1.22968 -3.15804 0
M  V30 6069 C 556.651 0.633391 -4.3279 0
M  V30 6070 C 555.71 1.60682 -5.01067 0
M  V30 6071 O 554.736 1.13261 -5.57818 0
M  V30 6072 N 555.938 2.94123 -5.00472 0
M  V30 6073 H 558.703 -0.568014 -2.94268 0
M  V30 6074 H 556.264 -0.448479 -1.55564 0
M  V30 6075 H 558.256 1.88072 -3.58345 0
M  V30 6076 H 556.826 1.84752 -2.52162 0
M  V30 6077 H 556.046 -0.195762 -3.93714 0
M  V30 6078 H 557.334 0.215255 -5.08344 0
M  V30 6079 H 556.732 3.3525 -4.55657 0
M  V30 6080 H 555.289 3.54646 -5.46872 0
M  V30 6081 N 558.722 1.53707 -0.348139 0
M  V30 6082 C 559.969 2.00988 0.246966 0
M  V30 6083 C 560.297 1.23586 1.50189 0
M  V30 6084 O 559.552 0.312817 1.93184 0
M  V30 6085 C 559.851 3.52292 0.602061 0
M  V30 6086 C 559.517 4.47453 -0.556509 0
M  V30 6087 C 558.179 4.73188 -0.874446 0
M  V30 6088 C 560.531 5.03851 -1.33354 0
M  V30 6089 C 557.859 5.52577 -1.9717 0
M  V30 6090 C 560.211 5.84437 -2.42108 0
M  V30 6091 C 558.875 6.08465 -2.74456 0
M  V30 6092 H 558.145 0.735469 0.0903712 0
M  V30 6093 H 560.792 1.85464 -0.477001 0
M  V30 6094 H 559.097 3.65672 1.40681 0
M  V30 6095 H 560.794 3.86337 1.07447 0
M  V30 6096 H 557.384 4.27558 -0.298652 0
M  V30 6097 H 561.568 4.8393 -1.10117 0
M  V30 6098 H 556.824 5.69418 -2.22651 0
M  V30 6099 H 560.998 6.27151 -3.02745 0
M  V30 6100 H 558.625 6.69768 -3.59604 0
M  V30 6101 N 560.2 0.0768682 1.57412 0
M  V30 6102 C 561.15 -0.898795 2.09537 0
M  V30 6103 C 562.134 -1.25556 1.0062 0
M  V30 6104 O 563.326 -1.23369 1.26921 0
M  V30 6105 C 560.455 -2.16453 2.66464 0
M  V30 6106 C 559.541 -1.83401 3.82393 0
M  V30 6107 N 559.932 -1.20823 4.91157 0
M  V30 6108 C 558.23 -2.13121 3.91785 0
M  V30 6109 C 558.931 -1.05976 5.71965 0
M  V30 6110 N 557.907 -1.57113 5.204 0
M  V30 6111 H 561.709 -0.410718 2.91016 0
M  V30 6112 H 559.223 -0.126878 1.61904 0
M  V30 6113 H 561.22 -2.87274 3.02125 0
M  V30 6114 H 559.88 -2.65844 1.86433 0
M  V30 6115 H 560.891 -0.877249 5.10416 0
M  V30 6116 H 557.568 -2.64854 3.22736 0
M  V30 6117 H 558.958 -0.571809 6.69462 0
M  V30 6118 N 561.678 -1.56367 -0.196722 0
M  V30 6119 C 562.906 -1.84639 -0.933608 0
M  V30 6120 C 563.321 -0.659164 -1.76919 0
M  V30 6121 O 562.678 0.372142 -1.78665 0
M  V30 6122 C 562.729 -3.11694 -1.83109 0
M  V30 6123 O 562.45 -4.25838 -1.02924 0
M  V30 6124 C 563.951 -3.53132 -2.67979 0
M  V30 6125 H 561.171 -0.613188 -0.272473 0
M  V30 6126 H 563.715 -2.03475 -0.204465 0
M  V30 6127 H 561.87 -2.94759 -2.51387 0
M  V30 6128 H 562.284 -4.98178 -1.64069 0
M  V30 6129 H 563.758 -4.45005 -3.26611 0
M  V30 6130 H 564.235 -2.76045 -3.41608 0
M  V30 6131 H 564.841 -3.72592 -2.05074 0
M  V30 6132 N 563.156 0.464375 -1.50603 0
M  V30 6133 C 564.106 1.55929 -1.66343 0
M  V30 6134 C 565.09 1.52338 -0.517887 0
M  V30 6135 O 566.282 1.59248 -0.772601 0
M  V30 6136 C 563.411 2.94327 -1.7671 0
M  V30 6137 C 562.497 3.02777 -2.96962 0
M  V30 6138 N 562.888 2.81026 -4.20545 0
M  V30 6139 C 561.186 3.33919 -2.95659 0
M  V30 6140 C 561.887 2.94618 -5.01573 0
M  V30 6141 N 560.863 3.25112 -4.35664 0
M  V30 6142 H 564.665 1.37822 -2.59581 0
M  V30 6143 H 562.179 0.671227 -1.47879 0
M  V30 6144 H 564.176 3.73063 -1.86091 0
M  V30 6145 H 562.836 3.13476 -0.846353 0
M  V30 6146 H 563.847 2.56477 -4.49933 0
M  V30 6147 H 560.524 3.59013 -2.13111 0
M  V30 6148 H 561.914 2.81984 -6.09865 0
M  V30 6149 N 564.634 1.40294 0.718013 0
M  V30 6150 C 565.544 1.42678 1.86226 0
M  V30 6151 C 566.56 0.319655 1.71039 0
M  V30 6152 O 567.736 0.563852 1.93346 0
M  V30 6153 C 564.801 1.2852 3.21999 0
M  V30 6154 C 563.862 2.49354 3.49458 0
M  V30 6155 C 563.095 2.35863 4.78753 0
M  V30 6156 O 563.318 1.37114 5.53675 0
M  V30 6157 O 562.252 3.25189 5.06494 0
M  V30 6158 H 566.078 2.39167 1.87171 0
M  V30 6159 H 563.663 1.2159 0.868112 0
M  V30 6160 H 565.545 1.22824 4.03103 0
M  V30 6161 H 564.22 0.351359 3.21787 0
M  V30 6162 H 563.127 2.60628 2.68373 0
M  V30 6163 H 564.46 3.41491 3.54464 0
M  V30 6164 N 566.112 -0.949982 1.2575 0
M  V30 6165 C 567.36 -1.6918 1.10555 0
M  V30 6166 C 567.681 -1.91773 -0.353298 0
M  V30 6167 O 566.951 -1.50814 -1.25027 0
M  V30 6168 H 565.531 -0.626952 0.406129 0
M  V30 6169 H 568.193 -1.1419 1.57945 0
M  V30 6170 H 567.289 -2.66915 1.61749 0
M  V30 6171 N 567.59 -1.07411 -1.15328 0
M  V30 6172 C 568.82 -0.817595 -1.89734 0
M  V30 6173 C 569.228 0.63297 -1.78298 0
M  V30 6174 O 568.571 1.44594 -1.13306 0
M  V30 6175 C 568.633 -1.14748 -3.40695 0
M  V30 6176 C 568.297 -2.59876 -3.75917 0
M  V30 6177 C 569.294 -3.58122 -3.76888 0
M  V30 6178 C 566.979 -2.95469 -4.06206 0
M  V30 6179 C 568.973 -4.89996 -4.07655 0
M  V30 6180 C 566.66 -4.2754 -4.36638 0
M  V30 6181 C 567.658 -5.24614 -4.37344 0
M  V30 6182 O 567.346 -6.54312 -4.67045 0
M  V30 6183 H 567.078 -0.295175 -0.608151 0
M  V30 6184 H 569.632 -1.43409 -1.47048 0
M  V30 6185 H 567.862 -0.47395 -3.83785 0
M  V30 6186 H 569.551 -0.873397 -3.96392 0
M  V30 6187 H 570.317 -3.31966 -3.53587 0
M  V30 6188 H 566.196 -2.20558 -4.04815 0
M  V30 6189 H 569.74 -5.65759 -4.08121 0
M  V30 6190 H 565.637 -4.53449 -4.59407 0
M  V30 6191 H 566.405 -6.59473 -4.84807 0
M  V30 6192 N 569.068 1.32177 -0.85831 0
M  V30 6193 C 570.001 2.26823 -0.25035 0
M  V30 6194 C 570.979 1.50571 0.61378 0
M  V30 6195 O 572.163 1.79682 0.569777 0
M  V30 6196 C 569.29 3.32472 0.646556 0
M  V30 6197 C 568.336 4.26255 -0.144675 0
M  V30 6198 S 569.169 5.13608 -1.5155 0
M  V30 6199 C 570.325 6.22778 -0.624408 0
M  V30 6200 H 570.558 2.7804 -1.05267 0
M  V30 6201 H 568.091 1.39764 -0.656152 0
M  V30 6202 H 570.049 3.93817 1.15837 0
M  V30 6203 H 568.71 2.80031 1.42272 0
M  V30 6204 H 567.903 5.01114 0.538613 0
M  V30 6205 H 567.505 3.69346 -0.588198 0
M  V30 6206 H 569.797 6.77287 0.169846 0
M  V30 6207 H 570.74 6.95233 -1.34376 0
M  V30 6208 H 571.148 5.64156 -0.197128 0
M  V30 6209 N 570.547 0.616602 1.45037 0
M  V30 6210 C 571.48 -0.145984 2.27733 0
M  V30 6211 C 572.458 -0.865108 1.37676 0
M  V30 6212 O 573.642 -0.872152 1.6711 0
M  V30 6213 C 570.769 -1.2122 3.16265 0
M  V30 6214 C 569.815 -0.595218 4.22326 0
M  V30 6215 S 570.648 0.603744 5.32086 0
M  V30 6216 C 571.804 -0.462842 6.24186 0
M  V30 6217 H 572.037 0.555591 2.92062 0
M  V30 6218 H 569.57 0.404364 1.49011 0
M  V30 6219 H 571.528 -1.82247 3.67827 0
M  V30 6220 H 570.189 -1.88589 2.51183 0
M  V30 6221 H 569.382 -1.39775 4.8423 0
M  V30 6222 H 568.984 -0.0598965 3.73952 0
M  V30 6223 H 571.276 -1.33945 6.64127 0
M  V30 6224 H 572.219 0.120259 7.07998 0
M  V30 6225 H 572.627 -0.782219 5.59054 0
M  V30 6226 N 572.025 -1.5352 0.356285 0
M  V30 6227 C 573.302 -1.93405 -0.292223 0
M  V30 6228 C 573.682 -1.28901 -1.67176 0
M  V30 6229 O 573.03 -0.444632 -2.24132 0
M  V30 6230 C 573.24 -3.47223 -0.35175 0
M  V30 6231 C 574.588 -4.20389 -0.596534 0
M  V30 6232 O 575.612 -3.53554 -0.433344 0
M  V30 6233 O 574.471 -5.3881 -0.913589 0
M  V30 6234 H 571.565 -0.808666 -0.173172 0
M  V30 6235 H 574.111 -1.64713 0.408391 0
M  V30 6236 H 572.883 -3.86423 0.615841 0
M  V30 6237 H 572.506 -3.8212 -1.09864 0
M  V30 6238 N 573.503 -0.0852151 -1.57369 0
M  V30 6239 C 574.433 0.874556 -2.16503 0
M  V30 6240 C 575.414 1.30111 -1.09568 0
M  V30 6241 O 576.599 1.36977 -1.37662 0
M  V30 6242 C 573.729 2.13731 -2.73745 0
M  V30 6243 C 572.683 1.84971 -3.85966 0
M  V30 6244 C 572.009 3.17991 -4.29867 0
M  V30 6245 C 573.309 1.14442 -5.09608 0
M  V30 6246 H 575.003 0.381899 -2.96954 0
M  V30 6247 H 572.549 0.18225 -1.42842 0
M  V30 6248 H 574.502 2.81302 -3.13763 0
M  V30 6249 H 573.226 2.65263 -1.90534 0
M  V30 6250 H 571.885 1.19801 -3.46473 0
M  V30 6251 H 571.533 3.6739 -3.4356 0
M  V30 6252 H 571.233 2.99534 -5.05523 0
M  V30 6253 H 572.757 3.86737 -4.72511 0
M  V30 6254 H 574.171 1.72105 -5.46857 0
M  V30 6255 H 572.568 1.06197 -5.90629 0
M  V30 6256 H 573.638 0.12559 -4.84737 0
M  V30 6257 N 574.981 1.5647 0.188427 0
M  V30 6258 C 576.209 1.85131 0.923803 0
M  V30 6259 C 576.624 0.668537 1.76567 0
M  V30 6260 O 575.981 -0.362662 1.7886 0
M  V30 6261 C 576.032 3.12661 1.81453 0
M  V30 6262 O 575.753 4.26378 1.00665 0
M  V30 6263 C 577.254 3.54548 2.66103 0
M  V30 6264 H 574.474 0.614624 0.269218 0
M  V30 6265 H 577.018 2.03581 0.193671 0
M  V30 6266 H 575.173 2.96088 2.49821 0
M  V30 6267 H 575.587 4.99041 1.61425 0
M  V30 6268 H 577.061 4.4673 3.24247 0
M  V30 6269 H 577.538 2.77853 3.40139 0
M  V30 6270 H 578.144 3.73674 2.03096 0
M  V30 6271 N 576.459 -0.456382 1.50847 0
M  V30 6272 C 577.422 -1.53493 1.70213 0
M  V30 6273 C 578.422 -1.50264 0.572481 0
M  V30 6274 O 579.612 -1.52623 0.839751 0
M  V30 6275 C 576.744 -2.93091 1.741 0
M  V30 6276 H 577.937 -1.37633 2.66453 0
M  V30 6277 H 575.49 -0.683776 1.4055 0
M  V30 6278 H 576.225 -3.14378 0.796063 0
M  V30 6279 H 576.01 -2.9684 2.5618 0
M  V30 6280 H 577.5 -3.71368 1.90987 0
M  V30 6281 N 577.937 -1.40673 -0.710563 0
M  V30 6282 C 578.887 -1.37812 -1.81636 0
M  V30 6283 C 579.871 -0.254853 -1.58869 0
M  V30 6284 O 581.063 -0.494356 -1.69956 0
M  V30 6285 C 578.192 -1.24802 -3.19811 0
M  V30 6286 C 577.278 -2.41931 -3.48325 0
M  V30 6287 N 577.669 -3.67411 -3.47625 0
M  V30 6288 C 575.967 -2.35419 -3.78806 0
M  V30 6289 C 576.668 -4.45008 -3.74623 0
M  V30 6290 N 575.644 -3.74916 -3.93623 0
M  V30 6291 H 579.446 -2.32766 -1.79436 0
M  V30 6292 H 576.96 -1.34516 -0.909909 0
M  V30 6293 H 578.957 -1.20835 -3.99004 0
M  V30 6294 H 577.617 -0.308202 -3.23234 0
M  V30 6295 H 578.628 -4.00503 -3.28356 0
M  V30 6296 H 575.305 -1.4983 -3.89689 0
M  V30 6297 H 576.695 -5.53884 -3.80344 0
M  V30 6298 N 579.415 0.9433 -1.26252 0
M  V30 6299 C 580.347 2.04542 -1.03417 0
M  V30 6300 C 581.36 1.62799 0.0046911 0
M  V30 6301 O 582.549 1.76944 -0.235146 0
M  V30 6302 C 579.649 3.34511 -0.543671 0
M  V30 6303 C 578.822 4.05033 -1.65128 0
M  V30 6304 C 577.881 5.13273 -1.1592 0
M  V30 6305 O 576.907 5.38095 -1.85586 0
M  V30 6306 N 578.109 5.805 -0.00649279 0
M  V30 6307 H 580.874 2.24699 -1.98319 0
M  V30 6308 H 578.435 1.11264 -1.1761 0
M  V30 6309 H 580.427 4.04212 -0.198703 0
M  V30 6310 H 578.997 3.11042 0.311711 0
M  V30 6311 H 578.217 3.29275 -2.16729 0
M  V30 6312 H 579.505 4.48903 -2.39508 0
M  V30 6313 H 578.903 5.62767 0.575347 0
M  V30 6314 H 577.46 6.51201 0.279416 0
M  V30 6315 N 580.893 1.08022 1.14757 0
M  V30 6316 C 582.141 0.805913 1.85336 0
M  V30 6317 C 582.462 -0.670162 1.83122 0
M  V30 6318 O 581.732 -1.48567 1.2769 0
M  V30 6319 H 580.312 0.295138 0.686223 0
M  V30 6320 H 582.974 1.36538 1.3908 0
M  V30 6321 H 582.07 1.14655 2.90277 0
M  V30 6322 N 582.371 -1.3172 0.865308 0
M  V30 6323 C 583.787 -1.4958 0.556596 0
M  V30 6324 C 583.987 -1.79763 -0.910353 0
M  V30 6325 O 583.043 -1.87351 -1.6928 0
M  V30 6326 C 584.356 -2.63277 1.45279 0
M  V30 6327 C 585.904 -2.77161 1.45433 0
M  V30 6328 C 586.379 -3.93949 2.33598 0
M  V30 6329 N 587.87 -4.01228 2.31453 0
M  V30 6330 C 588.605 -4.90855 2.96393 0
M  V30 6331 N 588.101 -5.85416 3.70486 0
M  V30 6332 N 589.894 -4.84063 2.85726 0
M  V30 6333 H 582.045 -1.10396 1.81456 0
M  V30 6334 H 584.308 -0.54507 0.775631 0
M  V30 6335 H 584.014 -2.47734 2.49641 0
M  V30 6336 H 583.888 -3.59309 1.14792 0
M  V30 6337 H 586.275 -2.9212 0.41831 0
M  V30 6338 H 586.356 -1.8181 1.79941 0
M  V30 6339 H 586 -3.79748 3.37274 0
M  V30 6340 H 585.93 -4.88598 1.96417 0
M  V30 6341 H 588.421 -3.3357 1.77593 0
M  V30 6342 H 588.734 -6.50525 4.17178 0
M  V30 6343 H 587.079 -5.85409 3.74594 0
M  V30 6344 H 590.27 -4.09163 2.27384 0
M  V30 6345 H 590.443 -5.53708 3.36617 0
M  V30 6346 N 583.85 -0.624285 -1.44708 0
M  V30 6347 C 585.096 -0.126237 -2.02407 0
M  V30 6348 C 585.428 1.24618 -1.48943 0
M  V30 6349 O 584.704 1.82569 -0.670742 0
M  V30 6350 C 584.986 -0.105449 -3.59946 0
M  V30 6351 C 584.84 -1.50972 -4.23707 0
M  V30 6352 C 586.159 0.573629 -4.36346 0
M  V30 6353 H 583.278 -0.0473472 -0.735478 0
M  V30 6354 H 585.92 -0.799452 -1.72362 0
M  V30 6355 H 584.07 0.46783 -3.85673 0
M  V30 6356 H 585.742 -2.13136 -4.0911 0
M  V30 6357 H 583.985 -2.0656 -3.81465 0
M  V30 6358 H 584.656 -1.44727 -5.32689 0
M  V30 6359 H 587.132 0.0861787 -4.16011 0
M  V30 6360 H 586.008 0.557338 -5.46063 0
M  V30 6361 H 586.269 1.64276 -4.10446 0
M  V30 6362 N 585.328 1.53329 -0.364422 0
M  V30 6363 C 586.576 2.00842 0.225189 0
M  V30 6364 C 586.897 1.25345 1.49378 0
M  V30 6365 O 586.167 0.366396 1.92443 0
M  V30 6366 H 584.747 0.742009 0.0862027 0
M  V30 6367 H 587.409 1.8863 -0.490389 0
M  V30 6368 H 586.505 3.08795 0.452987 0
M  V30 6369 N 586.806 0.0935595 1.57322 0
M  V30 6370 C 587.754 -0.883457 2.15169 0
M  V30 6371 C 588.748 -1.29324 1.09415 0
M  V30 6372 O 589.954 -1.26795 1.27762 0
M  V30 6373 H 586.329 -0.302923 0.688289 0
M  V30 6374 H 588.3 -0.370845 2.96087 0
M  V30 6375 C 587.049 -2.13345 2.74552 0
M  V30 6376 H 586.372 -1.82702 3.55612 0
M  V30 6377 H 587.812 -2.7977 3.18598 0
M  V30 6378 C 586.271 -2.90646 1.70371 0
M  V30 6379 O 586.801 -3.85133 1.14173 0
M  V30 6380 N 585.007 -2.54157 1.40899 0
M  V30 6381 H 584.554 -1.77391 1.86789 0
M  V30 6382 H 584.512 -3.06178 0.714301 0
M  V30 6383 N 588.284 -1.56567 -0.180126 0
M  V30 6384 C 589.533 -1.80685 -0.896426 0
M  V30 6385 C 589.846 -0.669335 -1.83791 0
M  V30 6386 O 591.052 -0.795209 -2.59593 0
M  V30 6387 C 589.508 -3.20132 -1.6445 0
M  V30 6388 C 589.116 -4.41727 -0.747088 0
M  V30 6389 C 590.86 -3.53549 -2.34955 0
M  V30 6390 C 588.767 -5.72195 -1.49489 0
M  V30 6391 H 587.697 -0.673758 -0.338477 0
M  V30 6392 H 590.348 -1.8289 -0.149467 0
M  V30 6393 H 588.73 -3.12218 -2.43589 0
M  V30 6394 H 589.904 -4.608 0.00671129 0
M  V30 6395 H 588.219 -4.16122 -0.152134 0
M  V30 6396 H 590.816 -4.48267 -2.91481 0
M  V30 6397 H 591.159 -2.78006 -3.09868 0
M  V30 6398 H 591.692 -3.62976 -1.62768 0
M  V30 6399 H 588.431 -6.50743 -0.788251 0
M  V30 6400 H 587.951 -5.57115 -2.22224 0
M  V30 6401 H 589.63 -6.1384 -2.04472 0
M  V30 6402 N 589.762 0.448376 -1.51087 0
M  V30 6403 C 590.692 1.55102 -1.74544 0
M  V30 6404 C 591.673 1.59357 -0.594932 0
M  V30 6405 O 592.858 1.75261 -0.836491 0
M  V30 6406 C 589.988 2.93268 -1.86041 0
M  V30 6407 C 588.942 3.03877 -3.01402 0
M  V30 6408 C 588.268 4.43914 -2.98068 0
M  V30 6409 C 589.568 2.7898 -4.41551 0
M  V30 6410 H 591.262 1.35724 -2.66869 0
M  V30 6411 H 588.808 0.651498 -1.28419 0
M  V30 6412 H 590.761 3.70356 -2.01034 0
M  V30 6413 H 589.485 3.13853 -0.903548 0
M  V30 6414 H 588.144 2.29227 -2.86096 0
M  V30 6415 H 587.792 4.6145 -2.00182 0
M  V30 6416 H 587.492 4.51944 -3.75527 0
M  V30 6417 H 589.016 5.22991 -3.1514 0
M  V30 6418 H 590.43 3.45805 -4.57265 0
M  V30 6419 H 588.827 2.98431 -5.20633 0
M  V30 6420 H 589.897 1.74663 -4.5235 0
M  V30 6421 N 591.24 1.41047 0.703093 0
M  V30 6422 C 592.172 1.38228 1.82827 0
M  V30 6423 C 593.185 0.285637 1.60275 0
M  V30 6424 O 594.374 0.54685 1.69917 0
M  V30 6425 C 591.474 1.13136 3.19458 0
M  V30 6426 C 590.647 2.34695 3.69103 0
M  V30 6427 C 589.706 2.05574 4.84382 0
M  V30 6428 O 588.732 2.78549 4.96386 0
M  V30 6429 N 589.934 1.04135 5.71083 0
M  V30 6430 H 592.699 2.35203 1.85741 0
M  V30 6431 H 590.26 1.35562 0.885125 0
M  V30 6432 H 592.252 0.916183 3.94193 0
M  V30 6433 H 590.822 0.247836 3.11616 0
M  V30 6434 H 590.042 2.71963 2.85359 0
M  V30 6435 H 591.33 3.15705 3.99009 0
M  V30 6436 H 590.728 0.43722 5.64008 0
M  V30 6437 H 589.285 0.886078 6.45749 0
M  V30 6438 N 592.718 -0.936591 1.26751 0
M  V30 6439 C 593.648 -2.05315 1.11212 0
M  V30 6440 C 594.629 -1.70092 0.0160262 0
M  V30 6441 O 595.814 -1.93279 0.188894 0
M  V30 6442 C 592.944 -3.39123 0.749171 0
M  V30 6443 C 591.898 -3.88425 1.79751 0
M  V30 6444 C 591.224 -5.18936 1.28876 0
M  V30 6445 C 592.524 -4.12798 3.19992 0
M  V30 6446 H 594.218 -2.18573 2.04613 0
M  V30 6447 H 591.764 -1.05027 0.985159 0
M  V30 6448 H 593.717 -4.16704 0.627323 0
M  V30 6449 H 592.441 -3.25855 -0.220543 0
M  V30 6450 H 591.1 -3.13028 1.90811 0
M  V30 6451 H 590.748 -5.02051 0.308757 0
M  V30 6452 H 590.448 -5.52892 1.98958 0
M  V30 6453 H 591.972 -5.99096 1.17967 0
M  V30 6454 H 593.386 -4.80977 3.11983 0
M  V30 6455 H 591.783 -4.58044 3.87705 0
M  V30 6456 H 592.853 -3.18412 3.65707 0
M  V30 6457 N 594.196 -1.08629 -1.14182 0
M  V30 6458 C 595.444 -0.815731 -1.84906 0
M  V30 6459 C 595.765 0.660441 -1.83475 0
M  V30 6460 O 595.035 1.47888 -1.28476 0
M  V30 6461 H 593.615 -0.298773 -0.684648 0
M  V30 6462 H 596.277 -1.37274 -1.38354 0
M  V30 6463 H 595.373 -1.16193 -2.89665 0
M  V30 6464 N 595.674 1.31259 -0.872281 0
M  V30 6465 C 596.899 2.0133 -0.498099 0
M  V30 6466 C 597.324 1.65031 0.902568 0
M  V30 6467 O 596.682 0.860164 1.59596 0
M  V30 6468 C 596.73 3.54411 -0.665205 0
M  V30 6469 O 595.834 4.11347 0.294473 0
M  V30 6470 H 595.175 0.633844 -0.197832 0
M  V30 6471 H 597.705 1.67402 -1.17633 0
M  V30 6472 H 597.715 4.04147 -0.559373 0
M  V30 6473 H 596.39 3.80171 -1.68651 0
M  V30 6474 H 594.967 3.72624 0.143403 0
M  V30 6475 N 597.152 0.631951 1.44375 0
M  V30 6476 C 598.099 -0.0724807 2.30686 0
M  V30 6477 C 599.069 -0.835975 1.43529 0
M  V30 6478 O 600.254 -0.816849 1.7243 0
M  V30 6479 C 597.394 -1.04753 3.28817 0
M  V30 6480 C 596.507 -0.282367 4.31076 0
M  V30 6481 C 595.642 -1.2493 5.163 0
M  V30 6482 C 594.681 -0.473349 6.10267 0
M  V30 6483 N 593.818 -1.39079 6.88187 0
M  V30 6484 H 598.658 0.669477 2.90383 0
M  V30 6485 H 596.195 0.341927 1.43071 0
M  V30 6486 H 598.153 -1.62623 3.842 0
M  V30 6487 H 596.783 -1.75661 2.70819 0
M  V30 6488 H 595.835 0.412268 3.78159 0
M  V30 6489 H 597.147 0.321955 4.9776 0
M  V30 6490 H 596.301 -1.89931 5.76204 0
M  V30 6491 H 595.04 -1.88755 4.49692 0
M  V30 6492 H 594.045 0.190142 5.49471 0
M  V30 6493 H 595.27 0.16019 6.78911 0
M  V30 6494 H 593.216 -2.01623 6.24247 0
M  V30 6495 H 593.133 -0.840513 7.51313 0
M  V30 6496 H 594.401 -2.02961 7.52613 0
M  V30 6497 N 598.631 -1.53133 0.372548 0
M  V30 6498 C 599.561 -2.28876 -0.462412 0
M  V30 6499 C 600.542 -1.31583 -1.07796 0
M  V30 6500 O 601.727 -1.60461 -1.09389 0
M  V30 6501 C 598.857 -3.08317 -1.59868 0
M  V30 6502 C 597.811 -4.13355 -1.11003 0
M  V30 6503 C 597.137 -4.8092 -2.33708 0
M  V30 6504 C 598.437 -5.21955 -0.18983 0
M  V30 6505 H 600.131 -2.9892 0.169511 0
M  V30 6506 H 597.677 -1.43761 0.0829658 0
M  V30 6507 H 599.63 -3.60055 -2.18949 0
M  V30 6508 H 598.354 -2.35976 -2.25794 0
M  V30 6509 H 597.013 -3.62573 -0.541869 0
M  V30 6510 H 596.661 -4.05144 -2.98106 0
M  V30 6511 H 596.361 -5.51904 -2.01682 0
M  V30 6512 H 597.885 -5.35455 -2.93462 0
M  V30 6513 H 599.299 -5.69153 -0.688319 0
M  V30 6514 H 597.696 -6.00087 0.0398887 0
M  V30 6515 H 598.766 -4.78811 0.766057 0
M  V30 6516 N 600.109 -0.101901 -1.5727 0
M  V30 6517 C 601.358 0.559922 -1.93772 0
M  V30 6518 C 601.671 1.68913 -0.98629 0
M  V30 6519 O 602.877 2.41256 -1.24529 0
M  V30 6520 C 601.333 1.04739 -3.44322 0
M  V30 6521 C 600.941 -0.05243 -4.47969 0
M  V30 6522 C 602.685 1.68157 -3.89774 0
M  V30 6523 C 600.592 0.450781 -5.8968 0
M  V30 6524 H 599.522 0.212931 -0.723309 0
M  V30 6525 H 602.173 -0.179001 -1.82625 0
M  V30 6526 H 600.555 1.84021 -3.50645 0
M  V30 6527 H 601.729 -0.828157 -4.53297 0
M  V30 6528 H 600.044 -0.592202 -4.12167 0
M  V30 6529 H 602.641 2.0689 -4.93052 0
M  V30 6530 H 602.984 2.55338 -3.28798 0
M  V30 6531 H 603.517 0.954453 -3.8618 0
M  V30 6532 H 600.256 -0.38458 -6.54371 0
M  V30 6533 H 599.776 1.19336 -5.87809 0
M  V30 6534 H 601.455 0.917555 -6.40461 0
M  V30 6535 N 601.587 1.56661 0.17182 0
M  V30 6536 C 602.835 1.81606 0.886774 0
M  V30 6537 C 603.156 0.678818 1.82803 0
M  V30 6538 O 602.426 -0.301354 1.93568 0
M  V30 6539 H 601.006 0.669934 0.330451 0
M  V30 6540 H 603.668 1.94142 0.171757 0
M  V30 6541 H 602.764 2.75634 1.46398 0
M  V30 6542 N 603.065 -0.440357 1.51323 0
M  V30 6543 C 604.293 -1.21255 1.67645 0
M  V30 6544 C 604.708 -1.85088 0.37252 0
M  V30 6545 O 604.065 -1.70582 -0.648683 0
M  V30 6546 C 604.116 -2.29881 2.78993 0
M  V30 6547 O 603.837 -1.68659 4.04334 0
M  V30 6548 C 605.338 -3.20214 3.06558 0
M  V30 6549 H 602.558 -0.36558 0.562666 0
M  V30 6550 H 605.102 -0.52214 1.97722 0
M  V30 6551 H 603.257 -2.94643 2.51524 0
M  V30 6552 H 603.671 -2.40426 4.6615 0
M  V30 6553 H 605.145 -3.92575 3.88058 0
M  V30 6554 H 605.622 -3.80794 2.18844 0
M  V30 6555 H 606.228 -2.61156 3.35675 0
M  V30 6556 N 604.543 -1.41418 -0.695603 0
M  V30 6557 C 605.791 -1.40496 -1.45277 0
M  V30 6558 C 606.112 -0.0149538 -1.94994 0
M  V30 6559 O 605.382 0.9432 -1.71699 0
M  V30 6560 H 603.962 -0.517147 -0.539044 0
M  V30 6561 H 606.624 -1.76656 -0.823321 0
M  V30 6562 H 605.72 -2.09214 -2.31595 0
M  V30 6563 N 606.021 0.929856 -1.27246 0
M  V30 6564 C 606.968 2.03017 -1.09785 0
M  V30 6565 C 607.938 1.661 0.000456744 0
M  V30 6566 O 609.123 1.90116 -0.161462 0
M  V30 6567 C 606.263 3.36878 -0.748816 0
M  V30 6568 C 605.376 3.86763 -1.92453 0
M  V30 6569 C 604.511 5.09061 -1.51758 0
M  V30 6570 C 603.55 5.51237 -2.66091 0
M  V30 6571 N 602.687 6.64732 -2.25999 0
M  V30 6572 H 607.527 2.17285 -2.03939 0
M  V30 6573 H 605.064 1.06448 -1.01524 0
M  V30 6574 H 607.022 4.13855 -0.527283 0
M  V30 6575 H 605.652 3.22424 0.155771 0
M  V30 6576 H 604.704 3.06086 -2.25867 0
M  V30 6577 H 606.016 4.13994 -2.78227 0
M  V30 6578 H 605.17 5.93532 -1.25716 0
M  V30 6579 H 603.909 4.83602 -0.630896 0
M  V30 6580 H 602.914 4.65316 -2.92849 0
M  V30 6581 H 604.139 5.78692 -3.55377 0
M  V30 6582 H 602.085 6.40935 -1.3978 0
M  V30 6583 H 602.002 6.91607 -3.05313 0
M  V30 6584 H 603.27 7.52549 -2.03199 0
M  V30 6585 N 607.499 1.09233 1.13605 0
M  V30 6586 C 608.429 0.751738 2.21068 0
M  V30 6587 C 609.41 -0.269688 1.67948 0
M  V30 6588 O 610.595 -0.13819 1.93708 0
M  V30 6589 C 607.725 0.16935 3.46887 0
M  V30 6590 C 606.679 1.12007 4.13084 0
M  V30 6591 C 606.005 0.399483 5.33206 0
M  V30 6592 C 607.305 2.46168 4.6065 0
M  V30 6593 H 608.999 1.65024 2.49815 0
M  V30 6594 H 606.545 0.794905 1.20072 0
M  V30 6595 H 608.498 -0.0809824 4.21322 0
M  V30 6596 H 607.222 -0.764335 3.1753 0
M  V30 6597 H 605.881 1.35564 3.40614 0
M  V30 6598 H 605.529 -0.538277 5.00112 0
M  V30 6599 H 605.229 1.03337 5.78442 0
M  V30 6600 H 606.753 0.157403 6.10397 0
M  V30 6601 H 608.167 2.26829 5.26518 0
M  V30 6602 H 606.564 3.05326 5.1662 0
M  V30 6603 H 607.634 3.07076 3.75276 0
M  V30 6604 N 608.977 -1.30795 0.87923 0
M  V30 6605 C 610.202 -2.01063 0.508769 0
M  V30 6606 C 610.627 -1.65508 -0.893803 0
M  V30 6607 O 609.985 -0.868616 -1.59138 0
M  V30 6608 C 610.033 -3.54054 0.683991 0
M  V30 6609 O 609.137 -4.11498 -0.272654 0
M  V30 6610 H 608.478 -0.632786 0.201191 0
M  V30 6611 H 611.008 -1.66776 1.18519 0
M  V30 6612 H 611.018 -4.03845 0.580798 0
M  V30 6613 H 609.693 -3.79271 1.70665 0
M  V30 6614 H 608.27 -3.72695 -0.12364 0
M  V30 6615 N 610.455 -0.639598 -1.44038 0
M  V30 6616 C 611.365 0.0612377 -2.3452 0
M  V30 6617 C 612.381 0.826717 -1.53106 0
M  V30 6618 O 613.557 0.777059 -1.85806 0
M  V30 6619 C 610.622 1.02492 -3.31204 0
M  V30 6620 C 609.683 0.25788 -4.28525 0
M  V30 6621 C 608.916 1.17566 -5.2059 0
M  V30 6622 O 609.139 2.41461 -5.16771 0
M  V30 6623 O 608.073 0.655407 -5.98321 0
M  V30 6624 H 611.899 -0.68318 -2.95916 0
M  V30 6625 H 609.484 -0.399784 -1.43952 0
M  V30 6626 H 611.366 1.57911 -3.90694 0
M  V30 6627 H 610.041 1.7498 -2.7233 0
M  V30 6628 H 608.948 -0.339566 -3.72556 0
M  V30 6629 H 610.281 -0.427154 -4.90343 0
M  V30 6630 N 611.933 1.52934 -0.380664 0
M  V30 6631 C 613.21 1.93845 0.261417 0
M  V30 6632 C 613.59 1.31544 1.65104 0
M  V30 6633 O 612.938 0.480234 2.23397 0
M  V30 6634 C 613.148 3.47739 0.296466 0
M  V30 6635 C 614.496 4.21284 0.529578 0
M  V30 6636 O 615.52 3.54199 0.377041 0
M  V30 6637 O 614.379 5.40195 0.827753 0
M  V30 6638 H 611.473 0.811318 0.160285 0
M  V30 6639 H 614.019 1.64042 -0.434544 0
M  V30 6640 H 612.791 3.85395 -0.67724 0
M  V30 6641 H 612.414 3.8382 1.0377 0
M  V30 6642 N 613.412 0.11024 1.57214 0
M  V30 6643 C 614.322 -0.857077 2.18383 0
M  V30 6644 C 615.338 -1.29915 1.1575 0
M  V30 6645 O 616.514 -1.36394 1.48184 0
M  V30 6646 C 613.579 -2.09264 2.76423 0
M  V30 6647 C 612.64 -1.70333 3.94063 0
M  V30 6648 C 611.873 -2.87999 4.49324 0
M  V30 6649 O 612.096 -4.0317 4.03497 0
M  V30 6650 O 611.03 -2.6559 5.40135 0
M  V30 6651 H 614.856 -0.366561 3.0148 0
M  V30 6652 H 612.441 -0.114914 1.48957 0
M  V30 6653 H 614.323 -2.81644 3.13456 0
M  V30 6654 H 612.998 -2.57339 1.96363 0
M  V30 6655 H 611.905 -0.950864 3.61814 0
M  V30 6656 H 613.238 -1.27007 4.75531 0
M  V30 6657 N 614.89 -1.56749 -0.16351 0
M  V30 6658 C 615.8 -2.00255 -1.2221 0
M  V30 6659 C 616.816 -0.915194 -1.47987 0
M  V30 6660 O 617.992 -1.22342 -1.59982 0
M  V30 6661 C 615.057 -2.36035 -2.53946 0
M  V30 6662 C 614.118 -3.58637 -2.35962 0
M  V30 6663 C 613.351 -3.92701 -3.61416 0
M  V30 6664 O 613.574 -3.27632 -4.66919 0
M  V30 6665 O 612.508 -4.86019 -3.55062 0
M  V30 6666 H 616.334 -2.90586 -0.882794 0
M  V30 6667 H 613.919 -1.44721 -0.370978 0
M  V30 6668 H 615.801 -2.59982 -3.31643 0
M  V30 6669 H 614.476 -1.48863 -2.8744 0
M  V30 6670 H 613.383 -3.39898 -1.5627 0
M  V30 6671 H 614.716 -4.46374 -2.0739 0
M  V30 6672 N 616.368 0.432326 -1.51554 0
M  V30 6673 C 617.596 1.20364 -1.68286 0
M  V30 6674 C 618.011 1.84888 -0.38233 0
M  V30 6675 O 617.368 1.70924 0.639627 0
M  V30 6676 C 617.419 2.28398 -2.80208 0
M  V30 6677 O 617.14 1.66512 -4.05223 0
M  V30 6678 C 618.641 3.18584 -3.08251 0
M  V30 6679 H 615.861 0.36259 -0.564596 0
M  V30 6680 H 618.405 0.511647 -1.97996 0
M  V30 6681 H 616.56 2.93305 -2.53083 0
M  V30 6682 H 616.974 2.37951 -4.67418 0
M  V30 6683 H 618.448 3.90511 -3.90135 0
M  V30 6684 H 618.925 3.79628 -2.2086 0
M  V30 6685 H 619.531 2.59372 -3.37055 0
M  V30 6686 N 617.846 1.41785 0.688094 0
M  V30 6687 C 618.756 1.46596 1.83158 0
M  V30 6688 C 619.772 0.355862 1.70322 0
M  V30 6689 O 620.948 0.604737 1.92106 0
M  V30 6690 C 618.013 1.35322 3.192 0
M  V30 6691 C 617.074 2.56711 3.4409 0
M  V30 6692 C 616.307 2.45965 4.73642 0
M  V30 6693 O 616.53 1.48827 5.50642 0
M  V30 6694 O 615.464 3.35859 4.99482 0
M  V30 6695 H 619.29 2.43083 1.82056 0
M  V30 6696 H 616.875 1.23404 0.842126 0
M  V30 6697 H 618.757 1.31347 4.00407 0
M  V30 6698 H 617.432 0.419536 3.2097 0
M  V30 6699 H 616.339 2.66262 2.62784 0
M  V30 6700 H 617.672 3.48933 3.47141 0
M  V30 6701 N 619.324 -0.923095 1.27737 0
M  V30 6702 C 620.57 -1.67375 1.14514 0
M  V30 6703 C 620.903 -1.91751 -0.307424 0
M  V30 6704 O 620.178 -1.51119 -1.22447 0
M  V30 6705 C 620.461 -3.03745 1.9342 0
M  V30 6706 C 620.314 -2.86581 3.46686 0
M  V30 6707 C 621.633 -4.04144 1.74228 0
M  V30 6708 H 618.752 -0.607427 0.417374 0
M  V30 6709 H 621.394 -1.07089 1.56946 0
M  V30 6710 H 619.544 -3.55204 1.5736 0
M  V30 6711 H 621.216 -2.42203 3.92601 0
M  V30 6712 H 619.459 -2.21829 3.72793 0
M  V30 6713 H 620.13 -3.83381 3.97143 0
M  V30 6714 H 622.606 -3.61712 2.05678 0
M  V30 6715 H 621.482 -4.97543 2.31824 0
M  V30 6716 H 621.743 -4.36661 0.691373 0
M  V30 6717 N 620.802 -1.09834 -1.13024 0
M  V30 6718 C 621.734 -0.699379 -2.18269 0
M  V30 6719 C 622.747 0.260841 -1.60697 0
M  V30 6720 O 623.936 0.0462538 -1.7844 0
M  V30 6721 C 621.036 -0.0104537 -3.38898 0
M  V30 6722 C 620.209 -0.993275 -4.25973 0
M  V30 6723 C 619.268 -0.336982 -5.2512 0
M  V30 6724 O 618.294 -0.985892 -5.60597 0
M  V30 6725 N 619.496 0.90716 -5.73368 0
M  V30 6726 H 622.261 -1.60486 -2.5311 0
M  V30 6727 H 619.822 -0.986337 -1.28386 0
M  V30 6728 H 621.814 0.43991 -4.02302 0
M  V30 6729 H 620.384 0.797335 -3.0226 0
M  V30 6730 H 619.604 -1.62208 -3.5928 0
M  V30 6731 H 620.892 -1.65876 -4.81002 0
M  V30 6732 H 620.29 1.45384 -5.46699 0
M  V30 6733 H 618.847 1.30077 -6.38689 0
M  V30 6734 N 622.28 1.30327 -0.886154 0
M  V30 6735 C 623.19 2.31854 -0.357866 0
M  V30 6736 C 624.206 1.65392 0.540502 0
M  V30 6737 O 625.382 1.96683 0.433339 0
M  V30 6738 C 622.447 3.44171 0.417999 0
M  V30 6739 C 621.508 4.26257 -0.510263 0
M  V30 6740 C 620.741 5.3321 0.228669 0
M  V30 6741 O 620.964 5.51542 1.45458 0
M  V30 6742 O 619.898 6.0042 -0.421832 0
M  V30 6743 H 623.724 2.78995 -1.19982 0
M  V30 6744 H 621.309 1.34518 -0.650028 0
M  V30 6745 H 623.191 4.12588 0.857251 0
M  V30 6746 H 621.866 2.99164 1.23623 0
M  V30 6747 H 620.773 3.60533 -0.99835 0
M  V30 6748 H 622.106 4.74871 -1.29454 0
M  V30 6749 N 623.758 0.647228 1.43697 0
M  V30 6750 C 624.69 -0.0866232 2.29036 0
M  V30 6751 C 625.703 -0.793051 1.42178 0
M  V30 6752 O 626.892 -0.651807 1.66174 0
M  V30 6753 C 623.992 -1.14552 3.18953 0
M  V30 6754 C 623.165 -0.518422 4.34317 0
M  V30 6755 C 622.224 -1.4734 5.05151 0
M  V30 6756 O 621.25 -0.984312 5.60625 0
M  V30 6757 N 622.452 -2.8075 5.08094 0
M  V30 6758 H 625.217 0.645834 2.92659 0
M  V30 6759 H 622.778 0.489567 1.54321 0
M  V30 6760 H 624.77 -1.78505 3.63205 0
M  V30 6761 H 623.34 -1.78001 2.56971 0
M  V30 6762 H 622.56 0.300079 3.93056 0
M  V30 6763 H 623.848 -0.080401 5.08736 0
M  V30 6764 H 623.246 -3.23052 4.64386 0
M  V30 6765 H 621.803 -3.40022 5.56083 0
M  V30 6766 N 625.236 -1.5273 0.388769 0
M  V30 6767 C 626.169 -2.22861 -0.490752 0
M  V30 6768 C 627.147 -1.22912 -1.06449 0
M  V30 6769 O 628.331 -1.51896 -1.11624 0
M  V30 6770 C 625.458 -2.94141 -1.67925 0
M  V30 6771 C 624.504 -4.08355 -1.23081 0
M  V30 6772 S 625.337 -5.35077 -0.212786 0
M  V30 6773 C 626.493 -6.09879 -1.40708 0
M  V30 6774 H 626.726 -2.97115 0.104787 0
M  V30 6775 H 624.259 -1.53428 0.172956 0
M  V30 6776 H 626.217 -3.35818 -2.36085 0
M  V30 6777 H 624.878 -2.19568 -2.24608 0
M  V30 6778 H 624.071 -4.57328 -2.11818 0
M  V30 6779 H 623.673 -3.68688 -0.628121 0
M  V30 6780 H 625.965 -6.36018 -2.33424 0
M  V30 6781 H 626.908 -7.01586 -0.958271 0
M  V30 6782 H 627.316 -5.40646 -1.62364 0
M  V30 6783 N 626.714 -0.118576 -1.57153 0
M  V30 6784 C 627.662 0.849114 -2.16547 0
M  V30 6785 C 628.656 1.27567 -1.11458 0
M  V30 6786 O 629.862 1.24746 -1.29763 0
M  V30 6787 H 626.237 0.291935 -0.693021 0
M  V30 6788 H 628.208 0.323693 -2.96639 0
M  V30 6789 C 626.957 2.08951 -2.77912 0
M  V30 6790 H 626.28 1.77021 -3.58474 0
M  V30 6791 H 627.72 2.74666 -3.23008 0
M  V30 6792 C 626.179 2.87899 -1.74974 0
M  V30 6793 O 626.709 3.83268 -1.20285 0
M  V30 6794 N 624.915 2.51884 -1.44924 0
M  V30 6795 H 624.462 1.74397 -1.89587 0
M  V30 6796 H 624.42 3.05003 -0.762921 0
M  V30 6797 N 628.193 1.56834 0.155195 0
M  V30 6798 C 629.123 2.00678 1.19376 0
M  V30 6799 C 630.104 0.884973 1.45266 0
M  V30 6800 O 631.289 1.1522 1.56326 0
M  V30 6801 C 628.419 2.38042 2.5289 0
M  V30 6802 C 627.373 3.53332 2.41538 0
M  V30 6803 C 626.699 3.76485 3.79688 0
M  V30 6804 C 627.999 4.86265 1.9064 0
M  V30 6805 H 629.693 2.87688 0.829232 0
M  V30 6806 H 627.239 1.38407 0.397445 0
M  V30 6807 H 629.192 2.67314 3.25763 0
M  V30 6808 H 627.916 1.4796 2.91162 0
M  V30 6809 H 626.575 3.24213 1.71117 0
M  V30 6810 H 626.223 2.83667 4.15382 0
M  V30 6811 H 625.923 4.54068 3.72956 0
M  V30 6812 H 627.447 4.08174 4.54122 0
M  V30 6813 H 628.861 5.14308 2.53299 0
M  V30 6814 H 627.258 5.67597 1.94818 0
M  V30 6815 H 628.328 4.77184 0.861596 0
M  V30 6816 N 629.671 -0.424282 1.51781 0
M  V30 6817 C 630.601 -1.52305 1.7699 0
M  V30 6818 C 631.582 -1.5839 0.620209 0
M  V30 6819 O 632.767 -1.73908 0.864268 0
M  V30 6820 C 629.897 -2.90271 1.90683 0
M  V30 6821 C 628.851 -2.99043 3.06198 0
M  V30 6822 C 628.177 -4.39116 3.05092 0
M  V30 6823 C 629.477 -2.7192 4.45934 0
M  V30 6824 H 631.171 -1.31461 2.68995 0
M  V30 6825 H 628.717 -0.630985 1.29439 0
M  V30 6826 H 630.67 -3.6711 2.06901 0
M  V30 6827 H 629.394 -3.12376 0.953365 0
M  V30 6828 H 628.053 -2.24646 2.89706 0
M  V30 6829 H 627.701 -4.58207 2.07498 0
M  V30 6830 H 627.401 -4.45912 3.82669 0
M  V30 6831 H 628.925 -5.17911 3.2342 0
M  V30 6832 H 630.339 -3.38487 4.62709 0
M  V30 6833 H 628.736 -2.90111 5.25315 0
M  V30 6834 H 629.806 -1.67445 4.55072 0
M  V30 6835 N 631.149 -1.42148 -0.680565 0
M  V30 6836 C 632.097 -1.45401 -1.81552 0
M  V30 6837 C 633.091 -0.33036 -1.66147 0
M  V30 6838 O 634.297 -0.503103 -1.72826 0
M  V30 6839 H 630.672 -0.455265 -0.59853 0
M  V30 6840 H 632.643 -2.41024 -1.75926 0
M  V30 6841 C 631.392 -1.36769 -3.19671 0
M  V30 6842 H 630.715 -2.22525 -3.32149 0
M  V30 6843 H 632.155 -1.43106 -3.9912 0
M  V30 6844 C 630.614 -0.0817752 -3.36801 0
M  V30 6845 O 631.144 0.867707 -3.92216 0
M  V30 6846 N 629.35 -0.000799811 -2.906 0
M  V30 6847 H 628.897 -0.774231 -2.4569 0
M  V30 6848 H 628.855 0.858961 -3.02439 0
M  V30 6849 N 632.627 0.916307 -1.28225 0
M  V30 6850 C 633.852 1.7043 -1.18188 0
M  V30 6851 C 634.277 1.86346 0.256274 0
M  V30 6852 O 633.635 1.37175 1.18544 0
M  V30 6853 C 633.683 3.07546 -1.88275 0
M  V30 6854 O 632.787 3.94904 -1.18848 0
M  V30 6855 H 632.128 0.521967 -0.410423 0
M  V30 6856 H 634.658 1.14589 -1.69501 0
M  V30 6857 H 634.668 3.57793 -1.96082 0
M  V30 6858 H 633.343 2.95279 -2.92887 0
M  V30 6859 H 631.92 3.53339 -1.19187 0
M  V30 6860 N 634.105 1.10431 1.1244 0
M  V30 6861 C 635.521 0.836096 1.35947 0
M  V30 6862 C 635.721 -0.544475 1.94004 0
M  V30 6863 O 634.777 -1.29735 2.16622 0
M  V30 6864 C 636.09 1.93575 2.30107 0
M  V30 6865 C 637.638 1.9642 2.43697 0
M  V30 6866 C 638.113 3.05559 3.41171 0
M  V30 6867 N 639.604 3.04865 3.48728 0
M  V30 6868 C 640.339 3.85954 4.24061 0
M  V30 6869 N 639.835 4.76977 5.02458 0
M  V30 6870 N 641.628 3.74172 4.19466 0
M  V30 6871 H 633.779 1.9942 0.731124 0
M  V30 6872 H 636.042 0.866607 0.384312 0
M  V30 6873 H 635.748 2.92943 1.94621 0
M  V30 6874 H 635.622 1.8229 3.30227 0
M  V30 6875 H 638.009 0.97685 2.78463 0
M  V30 6876 H 638.09 2.11782 1.43465 0
M  V30 6877 H 637.734 4.04513 3.07135 0
M  V30 6878 H 637.664 2.87438 4.41234 0
M  V30 6879 H 640.155 2.38908 2.92799 0
M  V30 6880 H 640.468 5.35409 5.57277 0
M  V30 6881 H 638.813 4.81006 5.01655 0
M  V30 6882 H 642.004 3.02412 3.57302 0
M  V30 6883 H 642.177 4.37602 4.77921 0
M  V30 6884 N 635.583 -1.29855 0.893053 0
M  V30 6885 C 636.829 -1.96488 0.52574 0
M  V30 6886 C 637.184 -1.69164 -0.916594 0
M  V30 6887 O 636.477 -0.990405 -1.64017 0
M  V30 6888 C 636.671 -3.49515 0.746588 0
M  V30 6889 C 636.5 -3.91715 2.20884 0
M  V30 6890 C 635.27 -4.16915 2.85499 0
M  V30 6891 C 637.468 -4.03934 3.18342 0
M  V30 6892 N 635.45 -4.45634 4.22236 0
M  V30 6893 C 636.821 -4.36629 4.40176 0
M  V30 6894 C 638.876 -3.86387 3.14021 0
M  V30 6895 C 637.579 -4.53605 5.58243 0
M  V30 6896 C 639.605 -4.04569 4.31367 0
M  V30 6897 C 638.967 -4.37617 5.5197 0
M  V30 6898 H 635.066 -0.743657 0.241863 0
M  V30 6899 H 637.65 -1.56927 1.15248 0
M  V30 6900 H 635.821 -3.88113 0.149281 0
M  V30 6901 H 637.553 -4.03224 0.345372 0
M  V30 6902 H 634.308 -4.10423 2.36326 0
M  V30 6903 H 634.732 -4.64114 4.92876 0
M  V30 6904 H 639.374 -3.59906 2.21873 0
M  V30 6905 H 637.092 -4.78925 6.50889 0
M  V30 6906 H 640.678 -3.92452 4.29503 0
M  V30 6907 H 639.558 -4.51395 6.41258 0
M  V30 6908 N 637.061 -0.65484 -1.43351 0
M  V30 6909 C 637.971 0.0363603 -2.34572 0
M  V30 6910 C 638.987 0.810432 -1.53974 0
M  V30 6911 O 640.163 0.757308 -1.86619 0
M  V30 6912 C 637.228 0.989733 -3.32273 0
M  V30 6913 C 636.289 0.212414 -4.28774 0
M  V30 6914 C 635.522 1.12038 -5.21808 0
M  V30 6915 O 635.745 2.35967 -5.19303 0
M  V30 6916 O 634.679 0.59191 -5.98982 0
M  V30 6917 H 638.505 -0.714527 -2.95175 0
M  V30 6918 H 636.09 -0.415029 -1.4352 0
M  V30 6919 H 637.972 1.53759 -3.92347 0
M  V30 6920 H 636.647 1.72082 -2.74171 0
M  V30 6921 H 635.554 -0.379062 -3.72175 0
M  V30 6922 H 636.887 -0.479138 -4.89862 0
M  V30 6923 N 638.539 1.52521 -0.396863 0
M  V30 6924 C 639.779 2.03583 0.182578 0
M  V30 6925 C 640.143 1.2766 1.43412 0
M  V30 6926 O 641.344 1.68884 2.09121 0
M  V30 6927 C 639.615 3.54724 0.436519 0
M  V30 6928 S 641.174 4.27598 0.985163 0
M  V30 6929 H 637.992 0.709186 0.0507529 0
M  V30 6930 H 640.594 1.87693 -0.546955 0
M  V30 6931 H 639.298 4.07567 -0.481343 0
M  V30 6932 H 638.829 3.74834 1.19427 0
M  V30 6933 H 640.844 4.41393 2.26686 0
M  V30 6934 N 640.017 0.126909 1.57088 0
M  V30 6935 C 640.947 -0.816847 2.18746 0
M  V30 6936 C 641.928 -1.27161 1.12979 0
M  V30 6937 O 643.113 -1.33279 1.41246 0
M  V30 6938 C 640.243 -2.06398 2.79315 0
M  V30 6939 C 639.197 -1.74673 3.90735 0
M  V30 6940 C 638.523 -3.06482 4.38147 0
M  V30 6941 C 639.823 -1.0089 5.12463 0
M  V30 6942 H 641.517 -0.303032 2.97863 0
M  V30 6943 H 639.063 -0.144314 1.43275 0
M  V30 6944 H 641.016 -2.72885 3.2111 0
M  V30 6945 H 639.74 -2.60118 1.975 0
M  V30 6946 H 638.399 -1.10572 3.49527 0
M  V30 6947 H 638.047 -3.58152 3.5318 0
M  V30 6948 H 637.747 -2.86025 5.13287 0
M  V30 6949 H 639.271 -3.74073 4.82599 0
M  V30 6950 H 640.685 -1.57546 5.51228 0
M  V30 6951 H 639.082 -0.905006 5.93237 0
M  V30 6952 H 640.152 0.00297335 4.849 0
M  V30 6953 N 641.495 -1.56914 -0.146875 0
M  V30 6954 C 642.911 -1.51582 -0.499518 0
M  V30 6955 C 643.111 -0.83535 -1.83369 0
M  V30 6956 O 642.167 -0.405932 -2.49216 0
M  V30 6957 C 643.48 -2.96349 -0.509711 0
M  V30 6958 C 645.028 -3.07288 -0.595217 0
M  V30 6959 C 645.503 -4.53562 -0.636071 0
M  V30 6960 N 646.994 -4.57906 -0.69829 0
M  V30 6961 C 647.729 -5.68462 -0.750886 0
M  V30 6962 N 647.225 -6.88588 -0.76282 0
M  V30 6963 N 649.018 -5.56496 -0.791777 0
M  V30 6964 H 641.169 -1.99547 0.727656 0
M  V30 6965 H 643.432 -0.910113 0.265327 0
M  V30 6966 H 643.138 -3.4939 0.402409 0
M  V30 6967 H 643.012 -3.52307 -1.34758 0
M  V30 6968 H 645.399 -2.54266 -1.49776 0
M  V30 6969 H 645.48 -2.54373 0.2698 0
M  V30 6970 H 645.124 -5.07222 0.262313 0
M  V30 6971 H 645.054 -5.04259 -1.51758 0
M  V30 6972 H 647.545 -3.71429 -0.696362 0
M  V30 6973 H 647.858 -7.68598 -0.804804 0
M  V30 6974 H 646.203 -6.91148 -0.730694 0
M  V30 6975 H 649.394 -4.61562 -0.779624 0
M  V30 6976 H 649.567 -6.42671 -0.829301 0
M  V30 6977 N 642.974 0.416227 -1.52004 0
M  V30 6978 C 644.22 1.16555 -1.6596 0
M  V30 6979 C 644.553 1.90347 -0.384906 0
M  V30 6980 O 643.828 1.84474 0.616405 0
M  V30 6981 C 644.111 2.1657 -2.87696 0
M  V30 6982 C 643.964 1.46722 -4.25197 0
M  V30 6983 C 645.283 3.17321 -3.04951 0
M  V30 6984 H 642.402 0.422369 -0.603965 0
M  V30 6985 H 645.044 0.452141 -1.84542 0
M  V30 6986 H 643.194 2.77411 -2.71985 0
M  V30 6987 H 644.866 0.89056 -4.52622 0
M  V30 6988 H 643.109 0.769263 -4.26925 0
M  V30 6989 H 643.78 2.19665 -5.0641 0
M  V30 6990 H 646.256 2.66552 -3.19514 0
M  V30 6991 H 645.132 3.84573 -3.91656 0
M  V30 6992 H 645.393 3.84643 -2.17951 0
M  V30 6993 N 644.452 1.42507 0.673017 0
M  V30 6994 C 645.415 1.4582 1.76831 0
M  V30 6995 C 646.415 0.345542 1.57043 0
M  V30 6996 O 647.605 0.606447 1.63303 0
M  V30 6997 C 644.737 1.29158 3.15485 0
M  V30 6998 H 645.93 2.43345 1.7528 0
M  V30 6999 H 643.483 1.28981 0.882817 0
M  V30 7000 H 644.218 0.325626 3.22661 0
M  V30 7001 H 644.003 2.09797 3.31252 0
M  V30 7002 H 645.493 1.34363 3.95394 0
M  V30 7003 N 645.93 -0.909495 1.28709 0
M  V30 7004 C 647.155 -1.69801 1.1909 0
M  V30 7005 C 647.58 -1.86479 -0.246388 0
M  V30 7006 O 646.938 -1.37802 -1.17815 0
M  V30 7007 C 646.986 -3.06543 1.89904 0
M  V30 7008 O 646.09 -3.94268 1.2094 0
M  V30 7009 H 645.431 -0.519783 0.413185 0
M  V30 7010 H 647.961 -1.13689 1.70106 0
M  V30 7011 H 647.971 -3.56748 1.97977 0
M  V30 7012 H 646.646 -2.93722 2.94449 0
M  V30 7013 H 645.223 -3.52702 1.2106 0
M  V30 7014 N 647.408 -1.11026 -1.11852 0
M  V30 7015 C 648.341 -0.708501 -2.16923 0
M  V30 7016 C 649.319 0.293196 -1.59935 0
M  V30 7017 O 650.503 0.190641 -1.87533 0
M  V30 7018 C 647.63 -0.0463705 -3.38668 0
M  V30 7019 C 646.676 -1.01252 -4.14307 0
M  V30 7020 S 647.509 -2.53291 -4.71809 0
M  V30 7021 C 648.665 -1.88366 -5.96883 0
M  V30 7022 H 648.898 -1.59854 -2.50667 0
M  V30 7023 H 646.431 -0.927869 -1.2341 0
M  V30 7024 H 648.389 0.329314 -4.09177 0
M  V30 7025 H 647.05 0.820562 -3.03192 0
M  V30 7026 H 646.243 -0.496596 -5.01548 0
M  V30 7027 H 645.845 -1.33042 -3.49537 0
M  V30 7028 H 648.137 -1.21753 -6.6647 0
M  V30 7029 H 649.08 -2.73588 -6.53112 0
M  V30 7030 H 649.488 -1.34562 -5.48227 0
M  V30 7031 N 648.886 1.2938 -0.899927 0
M  V30 7032 C 649.796 2.31462 -0.382437 0
M  V30 7033 C 650.812 1.65956 0.522929 0
M  V30 7034 O 651.988 1.97131 0.412454 0
M  V30 7035 C 649.053 3.44595 0.381472 0
M  V30 7036 C 648.114 4.25692 -0.555444 0
M  V30 7037 C 647.347 5.33422 0.172102 0
M  V30 7038 O 647.57 5.53053 1.396 0
M  V30 7039 O 646.504 5.99939 -0.485491 0
M  V30 7040 H 650.33 2.77706 -1.22934 0
M  V30 7041 H 647.915 1.33821 -0.664259 0
M  V30 7042 H 649.797 4.13474 0.813442 0
M  V30 7043 H 648.472 3.00458 1.20443 0
M  V30 7044 H 647.379 3.59453 -1.03653 0
M  V30 7045 H 648.712 4.73471 -1.34483 0
M  V30 7046 N 650.364 0.662433 1.43002 0
M  V30 7047 C 651.311 -0.0235324 2.30788 0
M  V30 7048 C 652.281 -0.805342 1.4527 0
M  V30 7049 O 653.466 -0.78009 1.74124 0
M  V30 7050 C 650.606 -0.977545 3.30965 0
M  V30 7051 C 649.719 -0.190865 4.31578 0
M  V30 7052 C 648.854 -1.13951 5.18834 0
M  V30 7053 C 647.893 -0.343796 6.11134 0
M  V30 7054 N 647.03 -1.2445 6.90982 0
M  V30 7055 H 651.87 0.730921 2.88897 0
M  V30 7056 H 649.407 0.372197 1.42313 0
M  V30 7057 H 651.365 -1.54437 3.87563 0
M  V30 7058 H 649.995 -1.69877 2.74484 0
M  V30 7059 H 649.047 0.492388 3.772 0
M  V30 7060 H 650.359 0.427464 4.96965 0
M  V30 7061 H 649.513 -1.77666 5.80103 0
M  V30 7062 H 648.252 -1.79174 4.53595 0
M  V30 7063 H 647.257 0.30665 5.48944 0
M  V30 7064 H 648.482 0.304161 6.78419 0
M  V30 7065 H 646.428 -1.88336 6.28383 0
M  V30 7066 H 646.345 -0.680959 7.52927 0
M  V30 7067 H 647.613 -1.86952 7.56749 0
M  V30 7068 N 651.842 -1.52309 0.404946 0
M  V30 7069 C 652.774 -2.24579 -0.45791 0
M  V30 7070 C 653.787 -1.2739 -1.01369 0
M  V30 7071 O 654.976 -1.53363 -0.91335 0
M  V30 7072 C 652.076 -2.9608 -1.64893 0
M  V30 7073 C 651.249 -4.20106 -1.21777 0
M  V30 7074 C 650.308 -4.74468 -2.27523 0
M  V30 7075 O 649.334 -5.37157 -1.88285 0
M  V30 7076 N 650.536 -4.55678 -3.59635 0
M  V30 7077 H 653.301 -2.99265 0.161341 0
M  V30 7078 H 650.862 -1.60228 0.232107 0
M  V30 7079 H 652.854 -3.29344 -2.35191 0
M  V30 7080 H 651.424 -2.24606 -2.17419 0
M  V30 7081 H 650.644 -3.92704 -0.343071 0
M  V30 7082 H 651.932 -5.00658 -0.906596 0
M  V30 7083 H 651.33 -4.05673 -3.94266 0
M  V30 7084 H 649.887 -4.9339 -4.25922 0
M  V30 7085 N 653.32 -0.135238 -1.57019 0
M  V30 7086 C 654.545 0.529343 -2.00531 0
M  V30 7087 C 654.97 1.58391 -1.01459 0
M  V30 7088 O 654.328 1.81296 0.0113986 0
M  V30 7089 C 654.376 1.11748 -3.42848 0
M  V30 7090 O 653.48 2.23267 -3.46736 0
M  V30 7091 H 652.821 0.130669 -0.651016 0
M  V30 7092 H 655.351 -0.228503 -2.0332 0
M  V30 7093 H 655.361 1.44905 -3.81401 0
M  V30 7094 H 654.036 0.345147 -4.14465 0
M  V30 7095 H 652.613 1.91428 -3.20015 0
M  V30 7096 N 654.798 1.5699 0.138552 0
M  V30 7097 C 655.746 1.99858 1.18994 0
M  V30 7098 C 656.74 0.89231 1.43994 0
M  V30 7099 O 657.946 1.0775 1.44187 0
M  V30 7100 H 654.321 0.636325 0.400743 0
M  V30 7101 H 656.292 2.87427 0.801755 0
M  V30 7102 C 655.041 2.40235 2.51361 0
M  V30 7103 H 654.364 3.24917 2.32957 0
M  V30 7104 H 655.804 2.74045 3.23535 0
M  V30 7105 C 654.263 1.25829 3.1252 0
M  V30 7106 O 654.793 0.563604 3.97727 0
M  V30 7107 N 652.999 1.02036 2.72097 0
M  V30 7108 H 652.546 1.58705 2.02905 0
M  V30 7109 H 652.504 0.256796 3.1335 0
M  V30 7110 N 656.276 -0.40816 1.52223 0
M  V30 7111 C 657.206 -1.5042 1.78595 0
M  V30 7112 C 658.187 -1.57723 0.636974 0
M  V30 7113 O 659.372 -1.72982 0.882664 0
M  V30 7114 C 656.502 -2.88232 1.93751 0
M  V30 7115 C 655.456 -2.95779 3.09352 0
M  V30 7116 C 654.782 -4.35855 3.09732 0
M  V30 7117 C 656.082 -2.67175 4.48793 0
M  V30 7118 H 657.776 -1.28601 2.70374 0
M  V30 7119 H 655.322 -0.617221 1.30101 0
M  V30 7120 H 657.275 -3.64895 2.10783 0
M  V30 7121 H 655.999 -3.11347 0.986443 0
M  V30 7122 H 654.658 -2.21561 2.92072 0
M  V30 7123 H 654.306 -4.55981 2.12346 0
M  V30 7124 H 654.006 -4.41829 3.87377 0
M  V30 7125 H 655.53 -5.14451 3.28895 0
M  V30 7126 H 656.944 -3.3356 4.66273 0
M  V30 7127 H 655.341 -2.84523 5.28362 0
M  V30 7128 H 656.411 -1.62609 4.56822 0
M  V30 7129 N 657.755 -1.42862 -0.66545 0
M  V30 7130 C 658.705 -1.43521 -1.7716 0
M  V30 7131 C 659.689 -0.305267 -1.57978 0
M  V30 7132 O 660.881 -0.548176 -1.68297 0
M  V30 7133 C 658.01 -1.34914 -3.15679 0
M  V30 7134 C 657.096 -2.5289 -3.40452 0
M  V30 7135 N 657.487 -3.78284 -3.3576 0
M  V30 7136 C 655.785 -2.47351 -3.71124 0
M  V30 7137 C 656.486 -4.56701 -3.60276 0
M  V30 7138 N 655.462 -3.87249 -3.81496 0
M  V30 7139 H 659.264 -2.38357 -1.7194 0
M  V30 7140 H 656.778 -1.37342 -0.866653 0
M  V30 7141 H 658.775 -1.33468 -3.94958 0
M  V30 7142 H 657.435 -0.410881 -3.2209 0
M  V30 7143 H 658.446 -4.10746 -3.15448 0
M  V30 7144 H 655.123 -1.62152 -3.84725 0
M  V30 7145 H 656.513 -5.65704 -3.6253 0
M  V30 7146 N 659.233 0.902656 -1.29189 0
M  V30 7147 C 660.649 1.18296 -1.07137 0
M  V30 7148 C 660.849 2.00701 0.179223 0
M  V30 7149 O 659.905 2.3675 0.877812 0
M  V30 7150 C 661.218 1.90677 -2.32514 0
M  V30 7151 C 662.766 2.03515 -2.37804 0
M  V30 7152 C 663.241 2.79307 -3.62976 0
M  V30 7153 N 664.732 2.86862 -3.63681 0
M  V30 7154 C 665.467 3.46035 -4.57217 0
M  V30 7155 N 664.963 4.06399 -5.61081 0
M  V30 7156 N 666.756 3.43681 -4.44792 0
M  V30 7157 H 658.907 0.352765 -2.0945 0
M  V30 7158 H 661.17 0.21876 -0.922414 0
M  V30 7159 H 660.876 1.3756 -3.23682 0
M  V30 7160 H 660.75 2.91169 -2.39793 0
M  V30 7161 H 663.137 2.55809 -1.47125 0
M  V30 7162 H 663.218 1.02166 -2.34512 0
M  V30 7163 H 662.862 2.2769 -4.54004 0
M  V30 7164 H 662.792 3.80995 -3.63525 0
M  V30 7165 H 665.283 2.43987 -2.88581 0
M  V30 7166 H 665.596 4.49564 -6.2858 0
M  V30 7167 H 663.941 4.0487 -5.64894 0
M  V30 7168 H 667.132 2.9574 -3.62843 0
M  V30 7169 H 667.305 3.89503 -5.17872 0
M  V30 7170 N 660.711 1.11618 1.11262 0
M  V30 7171 C 661.957 0.867463 1.83311 0
M  V30 7172 C 662.29 -0.605366 1.84524 0
M  V30 7173 O 661.565 -1.44704 1.29965 0
M  V30 7174 C 661.848 1.43207 3.30399 0
M  V30 7175 C 661.701 2.97265 3.3757 0
M  V30 7176 C 663.02 1.08454 4.26528 0
M  V30 7177 H 660.139 0.316578 0.665543 0
M  V30 7178 H 662.781 1.38137 1.30454 0
M  V30 7179 H 660.931 0.994982 3.75543 0
M  V30 7180 H 662.603 3.49591 3.00971 0
M  V30 7181 H 660.846 3.33237 2.77733 0
M  V30 7182 H 661.517 3.31859 4.41105 0
M  V30 7183 H 663.993 1.4619 3.89574 0
M  V30 7184 H 662.869 1.50633 5.27826 0
M  V30 7185 H 663.13 -0.00444568 4.421 0
M  V30 7186 N 662.189 -1.289 0.906776 0
M  V30 7187 C 663.119 -2.29932 0.406659 0
M  V30 7188 C 664.1 -1.6189 -0.522061 0
M  V30 7189 O 665.285 -1.8935 -0.431283 0
M  V30 7190 C 662.415 -3.45425 -0.360366 0
M  V30 7191 C 661.369 -4.25316 0.478574 0
M  V30 7192 C 660.695 -5.33076 -0.416373 0
M  V30 7193 C 661.995 -4.92739 1.7322 0
M  V30 7194 H 663.689 -2.72013 1.25097 0
M  V30 7195 H 661.235 -1.30768 0.602977 0
M  V30 7196 H 663.188 -4.15186 -0.721029 0
M  V30 7197 H 661.912 -3.02206 -1.23852 0
M  V30 7198 H 660.571 -3.57273 0.821662 0
M  V30 7199 H 660.219 -4.86101 -1.29287 0
M  V30 7200 H 659.919 -5.8743 0.141309 0
M  V30 7201 H 661.443 -6.05686 -0.773072 0
M  V30 7202 H 662.857 -5.54898 1.44086 0
M  V30 7203 H 661.254 -5.57057 2.23175 0
M  V30 7204 H 662.324 -4.17625 2.46408 0
M  V30 7205 N 663.667 -0.670007 -1.42649 0
M  V30 7206 C 664.6 0.0613623 -2.28117 0
M  V30 7207 C 665.578 0.813414 -1.40792 0
M  V30 7208 O 666.762 0.809529 -1.70232 0
M  V30 7209 C 663.889 1.09399 -3.20546 0
M  V30 7210 C 662.935 0.438064 -4.24244 0
M  V30 7211 S 663.768 -0.800808 -5.29478 0
M  V30 7212 C 664.924 0.23086 -6.25474 0
M  V30 7213 H 665.157 -0.663606 -2.89799 0
M  V30 7214 H 662.69 -0.45939 -1.47407 0
M  V30 7215 H 664.648 1.68469 -3.74337 0
M  V30 7216 H 663.309 1.79137 -2.58009 0
M  V30 7217 H 662.502 1.21707 -4.89084 0
M  V30 7218 H 662.104 -0.0789346 -3.73917 0
M  V30 7219 H 664.396 1.09204 -6.68641 0
M  V30 7220 H 665.339 -0.382945 -7.07064 0
M  V30 7221 H 665.747 0.574191 -5.61572 0
M  V30 7222 N 665.145 1.52092 -0.413018 0
M  V30 7223 C 666.422 1.94356 0.22024 0
M  V30 7224 C 666.802 1.35017 1.62277 0
M  V30 7225 O 666.15 0.527511 2.22328 0
M  V30 7226 C 666.36 3.48289 0.222638 0
M  V30 7227 C 667.708 4.22313 0.440098 0
M  V30 7228 O 668.732 3.54919 0.301826 0
M  V30 7229 O 667.591 5.41829 0.712984 0
M  V30 7230 H 664.685 0.814536 0.14304 0
M  V30 7231 H 667.231 1.63083 -0.469242 0
M  V30 7232 H 666.003 3.83872 -0.758836 0
M  V30 7233 H 665.626 3.85934 0.956057 0
M  V30 7234 N 666.623 0.143563 1.56945 0
M  V30 7235 C 667.553 -0.7936 2.196 0
M  V30 7236 C 668.534 -1.25955 1.14321 0
M  V30 7237 O 669.719 -1.31773 1.42651 0
M  V30 7238 C 666.849 -2.03424 2.81489 0
M  V30 7239 C 665.803 -1.70519 3.92565 0
M  V30 7240 C 665.129 -3.01817 4.41373 0
M  V30 7241 C 666.429 -0.95449 5.13504 0
M  V30 7242 H 668.123 -0.271423 2.98167 0
M  V30 7243 H 665.669 -0.12911 1.4342 0
M  V30 7244 H 667.622 -2.69463 3.23987 0
M  V30 7245 H 666.346 -2.58008 2.00248 0
M  V30 7246 H 665.005 -1.06859 3.5068 0
M  V30 7247 H 664.653 -3.54386 3.56959 0
M  V30 7248 H 664.353 -2.80565 5.16292 0
M  V30 7249 H 665.877 -3.68934 4.86539 0
M  V30 7250 H 667.291 -1.5169 5.52868 0
M  V30 7251 H 665.688 -0.842035 5.94163 0
M  V30 7252 H 666.758 0.0544033 4.84869 0
M  V30 7253 N 668.101 -1.57061 -0.130224 0
M  V30 7254 C 669.033 -1.96147 -1.18571 0
M  V30 7255 C 670.046 -0.859347 -1.38272 0
M  V30 7256 O 671.235 -1.13769 -1.37545 0
M  V30 7257 C 668.335 -2.23484 -2.54771 0
M  V30 7258 C 667.508 -3.54786 -2.55824 0
M  V30 7259 C 666.567 -3.70467 -3.73686 0
M  V30 7260 O 665.593 -4.42693 -3.57787 0
M  V30 7261 N 666.795 -3.08389 -4.91809 0
M  V30 7262 H 669.56 -2.87295 -0.853333 0
M  V30 7263 H 667.121 -1.58714 -0.319621 0
M  V30 7264 H 669.113 -2.312 -3.32158 0
M  V30 7265 H 667.683 -1.38518 -2.80235 0
M  V30 7266 H 666.903 -3.5836 -1.64232 0
M  V30 7267 H 668.191 -4.4111 -2.53573 0
M  V30 7268 H 667.589 -2.49656 -5.0763 0
M  V30 7269 H 666.146 -3.21642 -5.66912 0
M  V30 7270 N 669.579 0.400081 -1.52437 0
M  V30 7271 C 670.527 1.50851 -1.7705 0
M  V30 7272 C 671.521 1.56928 -0.637969 0
M  V30 7273 O 672.727 1.60226 -0.820212 0
M  V30 7274 H 669.102 0.50186 -0.560036 0
M  V30 7275 H 671.073 1.27281 -2.69893 0
M  V30 7276 C 669.822 2.88117 -1.94638 0
M  V30 7277 H 669.145 2.84187 -2.81208 0
M  V30 7278 H 670.585 3.64942 -2.15855 0
M  V30 7279 C 669.044 3.29206 -0.715899 0
M  V30 7280 O 669.574 4.01544 0.111944 0
M  V30 7281 N 667.78 2.85363 -0.549191 0
M  V30 7282 H 667.327 2.26664 -1.22397 0
M  V30 7283 H 667.285 3.13214 0.27278 0
M  V30 7284 N 671.057 1.43213 0.657864 0
M  V30 7285 C 671.989 1.43974 1.78337 0
M  V30 7286 C 673.002 0.336482 1.59285 0
M  V30 7287 O 674.191 0.600631 1.68091 0
M  V30 7288 C 671.291 1.23242 3.15697 0
M  V30 7289 C 670.464 2.46319 3.61449 0
M  V30 7290 C 669.523 2.2088 4.77597 0
M  V30 7291 O 668.549 2.942 4.87273 0
M  V30 7292 N 669.751 1.22251 5.67481 0
M  V30 7293 H 672.516 2.40993 1.78164 0
M  V30 7294 H 670.077 1.3831 0.841549 0
M  V30 7295 H 672.069 1.04113 3.91079 0
M  V30 7296 H 670.639 0.346849 3.1067 0
M  V30 7297 H 669.859 2.80904 2.76563 0
M  V30 7298 H 671.147 3.28239 3.88763 0
M  V30 7299 H 670.545 0.616433 5.62331 0
M  V30 7300 H 669.102 1.09107 6.42603 0
M  V30 7301 N 672.536 -0.895792 1.29666 0
M  V30 7302 C 673.483 -2.00035 1.15129 0
M  V30 7303 C 674.453 -1.66043 0.0435819 0
M  V30 7304 O 675.638 -1.89621 0.211811 0
M  V30 7305 C 672.778 -3.34774 0.83787 0
M  V30 7306 C 671.891 -3.81525 2.0264 0
M  V30 7307 C 671.026 -5.04858 1.65201 0
M  V30 7308 C 670.065 -5.43988 2.80612 0
M  V30 7309 N 669.202 -6.58507 2.43544 0
M  V30 7310 H 674.042 -2.11802 2.09628 0
M  V30 7311 H 671.579 -1.03719 1.04311 0
M  V30 7312 H 673.537 -4.12311 0.636824 0
M  V30 7313 H 672.167 -3.22724 -0.0702314 0
M  V30 7314 H 671.219 -2.9999 2.33903 0
M  V30 7315 H 672.531 -4.06472 2.89106 0
M  V30 7316 H 671.685 -5.8999 1.41408 0
M  V30 7317 H 670.424 -4.81759 0.758893 0
M  V30 7318 H 669.429 -4.57388 3.05083 0
M  V30 7319 H 670.654 -5.69066 3.70595 0
M  V30 7320 H 668.6 -6.37004 1.56724 0
M  V30 7321 H 668.517 -6.83269 3.23542 0
M  V30 7322 H 669.785 -7.46897 2.2308 0
M  V30 7323 N 674.014 -1.12206 -1.10668 0
M  V30 7324 C 674.944 -0.810086 -2.18997 0
M  V30 7325 C 675.925 0.225065 -1.68604 0
M  V30 7326 O 677.11 0.086783 -1.94006 0
M  V30 7327 C 674.24 -0.261262 -3.46316 0
M  V30 7328 C 673.194 -1.2292 -4.09969 0
M  V30 7329 C 672.52 -0.540713 -5.31959 0
M  V30 7330 C 673.82 -2.58295 -4.53962 0
M  V30 7331 H 675.514 -1.7159 -2.45352 0
M  V30 7332 H 673.06 -0.82646 -1.17922 0
M  V30 7333 H 675.013 -0.0307522 -4.21389 0
M  V30 7334 H 673.737 0.679879 -3.19445 0
M  V30 7335 H 672.396 -1.44548 -3.369 0
M  V30 7336 H 672.044 0.405492 -5.01363 0
M  V30 7337 H 671.744 -1.18637 -5.75499 0
M  V30 7338 H 673.268 -0.319184 -6.09765 0
M  V30 7339 H 674.682 -2.40709 -5.20319 0
M  V30 7340 H 673.079 -3.18916 -5.08343 0
M  V30 7341 H 674.149 -3.16918 -3.67002 0
M  V30 7342 N 675.492 1.28418 -0.913599 0
M  V30 7343 C 676.439 2.27301 -0.400373 0
M  V30 7344 C 677.409 1.57582 0.52509 0
M  V30 7345 O 678.594 1.85482 0.447318 0
M  V30 7346 C 675.734 3.43284 0.35361 0
M  V30 7347 C 674.847 4.27752 -0.604341 0
M  V30 7348 C 673.982 5.30934 0.168075 0
M  V30 7349 C 673.021 6.07065 -0.783499 0
M  V30 7350 N 672.158 7.02086 -0.0446112 0
M  V30 7351 H 676.998 2.70579 -1.24865 0
M  V30 7352 H 674.535 1.33067 -0.627028 0
M  V30 7353 H 676.493 4.09322 0.806945 0
M  V30 7354 H 675.123 3.00997 1.16623 0
M  V30 7355 H 674.175 3.61759 -1.17621 0
M  V30 7356 H 675.487 4.80682 -1.33216 0
M  V30 7357 H 674.641 6.02855 0.681979 0
M  V30 7358 H 673.38 4.78771 0.928947 0
M  V30 7359 H 672.385 5.33995 -1.30878 0
M  V30 7360 H 673.61 6.61317 -1.54392 0
M  V30 7361 H 671.556 6.52273 0.698272 0
M  V30 7362 H 671.473 7.52637 -0.712258 0
M  V30 7363 H 672.741 7.78205 0.449102 0
M  V30 7364 N 676.97 0.677563 1.42291 0
M  V30 7365 C 677.88 0.000962654 2.346 0
M  V30 7366 C 678.896 -0.785833 1.55244 0
M  V30 7367 O 680.072 -0.727523 1.87801 0
M  V30 7368 C 677.137 -0.936746 3.33805 0
M  V30 7369 C 676.198 -0.144173 4.29058 0
M  V30 7370 C 675.431 -1.03722 5.23524 0
M  V30 7371 O 675.654 -2.27675 5.22992 0
M  V30 7372 O 674.588 -0.496542 5.99848 0
M  V30 7373 H 678.414 0.761397 2.94001 0
M  V30 7374 H 675.999 0.43781 1.42841 0
M  V30 7375 H 677.881 -1.47497 3.94744 0
M  V30 7376 H 676.556 -1.67698 2.76874 0
M  V30 7377 H 675.463 0.438224 3.71524 0
M  V30 7378 H 676.796 0.55701 4.89038 0
M  V30 7379 N 678.448 -1.51871 0.421078 0
M  V30 7380 C 679.378 -2.30231 -0.389363 0
M  V30 7381 C 680.359 -1.34946 -1.03555 0
M  V30 7382 O 681.544 -1.63859 -1.04229 0
M  V30 7383 C 678.674 -3.13247 -1.49979 0
M  V30 7384 C 677.628 -4.16677 -0.977966 0
M  V30 7385 C 676.954 -4.88112 -2.1829 0
M  V30 7386 C 678.254 -5.22295 -0.0236775 0
M  V30 7387 H 679.948 -2.98229 0.264524 0
M  V30 7388 H 677.494 -1.43424 0.12866 0
M  V30 7389 H 679.447 -3.66838 -2.07383 0
M  V30 7390 H 678.171 -2.4304 -2.18173 0
M  V30 7391 H 676.83 -3.64114 -0.426245 0
M  V30 7392 H 676.478 -4.14423 -2.85066 0
M  V30 7393 H 676.178 -5.58041 -1.84021 0
M  V30 7394 H 677.702 -5.44521 -2.76278 0
M  V30 7395 H 679.116 -5.71055 -0.506899 0
M  V30 7396 H 677.513 -5.99656 0.230782 0
M  V30 7397 H 678.583 -4.76131 0.917999 0
M  V30 7398 N 679.926 -0.151884 -1.56866 0
M  V30 7399 C 680.874 0.80299 -2.183 0
M  V30 7400 C 681.868 1.25174 -1.14139 0
M  V30 7401 O 683.074 1.21966 -1.3238 0
M  V30 7402 H 679.449 0.277169 -0.699057 0
M  V30 7403 H 681.42 0.260699 -2.97259 0
M  V30 7404 C 680.169 2.03009 -2.82281 0
M  V30 7405 H 679.492 1.69377 -3.62148 0
M  V30 7406 H 680.932 2.67753 -3.28762 0
M  V30 7407 C 679.391 2.84123 -1.81041 0
M  V30 7408 O 679.921 3.8063 -1.28388 0
M  V30 7409 N 678.127 2.48753 -1.50234 0
M  V30 7410 H 677.674 1.70337 -1.93244 0
M  V30 7411 H 677.632 3.03316 -0.827445 0
M  V30 7412 N 681.404 1.57128 0.121893 0
M  V30 7413 C 682.681 1.75664 0.860327 0
M  V30 7414 C 683.061 0.726585 1.98202 0
M  V30 7415 O 682.409 -0.24999 2.27128 0
M  V30 7416 C 682.619 3.20571 1.37968 0
M  V30 7417 C 683.967 3.82988 1.83317 0
M  V30 7418 O 684.991 3.24156 1.47654 0
M  V30 7419 O 683.85 4.86393 2.49168 0
M  V30 7420 H 680.944 0.719153 0.408348 0
M  V30 7421 H 683.49 1.6937 0.105859 0
M  V30 7422 H 682.262 3.87056 0.57477 0
M  V30 7423 H 681.885 3.31392 2.19694 0
M  V30 7424 N 682.882 -0.391992 1.52647 0
M  V30 7425 C 684.128 -1.13563 1.68745 0
M  V30 7426 C 684.483 -1.87745 0.420685 0
M  V30 7427 O 683.776 -1.82434 -0.585529 0
M  V30 7428 C 683.97 -2.14401 2.85949 0
M  V30 7429 C 683.799 -1.50124 4.23902 0
M  V30 7430 C 682.569 -1.2666 4.89168 0
M  V30 7431 C 684.767 -0.952933 5.05395 0
M  V30 7432 N 682.749 -0.584555 6.11111 0
M  V30 7433 C 684.12 -0.398784 6.18716 0
M  V30 7434 C 686.175 -0.849053 4.90607 0
M  V30 7435 C 684.878 0.249084 7.18869 0
M  V30 7436 C 686.904 -0.215011 5.91009 0
M  V30 7437 C 686.266 0.328382 7.03634 0
M  V30 7438 H 682.365 -0.401628 0.670984 0
M  V30 7439 H 684.949 -0.425585 1.89992 0
M  V30 7440 H 683.12 -2.82746 2.66288 0
M  V30 7441 H 684.852 -2.8125 2.90999 0
M  V30 7442 H 681.607 -1.54078 4.47836 0
M  V30 7443 H 682.031 -0.259663 6.76502 0
M  V30 7444 H 686.673 -1.25497 4.03745 0
M  V30 7445 H 684.391 0.667019 8.05342 0
M  V30 7446 H 687.977 -0.135921 5.81641 0
M  V30 7447 H 686.857 0.811257 7.79992 0
M  V30 7448 N 684.36 -1.4356 -0.65026 0
M  V30 7449 C 685.29 -1.51758 -1.77459 0
M  V30 7450 C 686.271 -0.372019 -1.65982 0
M  V30 7451 O 687.456 -0.589627 -1.85033 0
M  V30 7452 C 684.586 -1.44302 -3.15902 0
M  V30 7453 C 683.54 -2.57138 -3.42146 0
M  V30 7454 C 682.866 -2.34735 -4.8042 0
M  V30 7455 C 684.166 -3.99373 -3.36598 0
M  V30 7456 H 685.86 -2.45863 -1.70855 0
M  V30 7457 H 683.406 -1.18333 -0.820566 0
M  V30 7458 H 685.359 -1.48641 -3.94314 0
M  V30 7459 H 684.083 -0.467026 -3.23244 0
M  V30 7460 H 682.742 -2.52157 -2.66106 0
M  V30 7461 H 682.39 -1.35372 -4.84441 0
M  V30 7462 H 682.09 -3.10375 -4.9894 0
M  V30 7463 H 683.614 -2.40862 -5.61086 0
M  V30 7464 H 685.028 -4.05826 -4.04942 0
M  V30 7465 H 683.425 -4.75063 -3.66654 0
M  V30 7466 H 684.495 -4.243 -2.34729 0
M  V30 7467 N 685.838 0.888903 -1.30139 0
M  V30 7468 C 687.066 1.67358 -1.21651 0
M  V30 7469 C 687.481 1.87499 0.221246 0
M  V30 7470 O 686.838 1.41969 1.14677 0
M  V30 7471 C 686.889 3.05213 -1.93719 0
M  V30 7472 O 686.61 2.85984 -3.31881 0
M  V30 7473 C 688.111 3.9964 -1.9184 0
M  V30 7474 H 685.331 0.522365 -0.42116 0
M  V30 7475 H 687.875 1.11086 -1.71698 0
M  V30 7476 H 686.03 3.5823 -1.4748 0
M  V30 7477 H 686.444 3.73411 -3.68327 0
M  V30 7478 H 687.918 4.93749 -2.46811 0
M  V30 7479 H 688.395 4.29955 -0.896409 0
M  V30 7480 H 689.001 3.52558 -2.37872 0
M  V30 7481 N 687.317 1.12792 1.10072 0
M  V30 7482 C 688.264 0.79921 2.16521 0
M  V30 7483 C 689.234 -0.235726 1.64419 0
M  V30 7484 O 690.419 -0.109457 1.90486 0
M  V30 7485 C 687.559 0.264091 3.44088 0
M  V30 7486 C 686.672 1.35729 4.10124 0
M  V30 7487 C 685.807 0.781212 5.25424 0
M  V30 7488 C 684.846 1.85327 5.8337 0
M  V30 7489 N 683.983 1.29564 6.90042 0
M  V30 7490 H 688.823 1.71105 2.43981 0
M  V30 7491 H 686.36 0.854225 1.19756 0
M  V30 7492 H 688.318 -0.0642423 4.17151 0
M  V30 7493 H 686.948 -0.610901 3.16967 0
M  V30 7494 H 686 1.80234 3.34993 0
M  V30 7495 H 687.312 2.16782 4.4923 0
M  V30 7496 H 686.466 0.403769 6.05355 0
M  V30 7497 H 685.205 -0.0604686 4.87663 0
M  V30 7498 H 684.21 2.23986 5.02106 0
M  V30 7499 H 685.435 2.69824 6.23195 0
M  V30 7500 H 683.381 0.475844 6.54272 0
M  V30 7501 H 683.298 2.04271 7.2788 0
M  V30 7502 H 684.566 0.945545 7.73744 0
M  V30 7503 N 688.795 -1.27931 0.920396 0
M  V30 7504 C 690.023 -1.98805 0.573087 0
M  V30 7505 C 690.438 -1.68724 -0.847201 0
M  V30 7506 O 689.795 -0.943699 -1.56207 0
M  V30 7507 C 689.846 -3.52971 0.780633 0
M  V30 7508 O 689.567 -3.81994 2.14504 0
M  V30 7509 C 691.068 -4.411 0.44105 0
M  V30 7510 H 688.288 -0.634651 0.21785 0
M  V30 7511 H 690.832 -1.62965 1.23542 0
M  V30 7512 H 688.987 -3.87048 0.165204 0
M  V30 7513 H 689.401 -4.76609 2.18962 0
M  V30 7514 H 690.875 -5.48312 0.637006 0
M  V30 7515 H 691.352 -4.34758 -0.62306 0
M  V30 7516 H 691.958 -4.12532 1.0343 0
M  V30 7517 N 690.273 -0.685099 -1.4193 0
M  V30 7518 C 691.183 -0.013404 -2.34596 0
M  V30 7519 C 692.199 0.777589 -1.55658 0
M  V30 7520 O 693.375 0.717553 -1.88184 0
M  V30 7521 C 690.44 0.919031 -3.34297 0
M  V30 7522 C 689.501 0.121417 -4.29128 0
M  V30 7523 C 688.734 1.00944 -5.24067 0
M  V30 7524 O 688.957 2.24898 -5.24192 0
M  V30 7525 O 687.891 0.464724 -6.00103 0
M  V30 7526 H 691.717 -0.776978 -2.93593 0
M  V30 7527 H 689.302 -0.445379 -1.42607 0
M  V30 7528 H 691.184 1.45402 -3.9552 0
M  V30 7529 H 689.859 1.66228 -2.77759 0
M  V30 7530 H 688.766 -0.45792 -3.71287 0
M  V30 7531 H 690.099 -0.582937 -4.88736 0
M  V30 7532 N 691.751 1.51645 -0.429126 0
M  V30 7533 C 692.661 2.31288 0.392809 0
M  V30 7534 C 693.677 1.39852 1.03525 0
M  V30 7535 O 694.853 1.72926 1.03241 0
M  V30 7536 C 691.918 3.13347 1.48372 0
M  V30 7537 C 690.979 4.20551 0.862268 0
M  V30 7538 C 690.212 4.98688 1.9012 0
M  V30 7539 O 690.435 4.77359 3.12225 0
M  V30 7540 O 689.369 5.83005 1.4963 0
M  V30 7541 H 693.195 3.02609 -0.257138 0
M  V30 7542 H 690.78 1.48163 -0.191851 0
M  V30 7543 H 692.662 3.64387 2.1166 0
M  V30 7544 H 691.337 2.44799 2.1179 0
M  V30 7545 H 690.244 3.73609 0.191568 0
M  V30 7546 H 691.577 4.91449 0.271704 0
M  V30 7547 N 693.229 0.160201 1.56784 0
M  V30 7548 C 694.645 -0.196089 1.58391 0
M  V30 7549 C 694.845 -1.63689 1.17508 0
M  V30 7550 O 693.901 -2.36613 0.881506 0
M  V30 7551 C 695.214 0.0746449 3.00607 0
M  V30 7552 C 696.762 0.0119762 3.12998 0
M  V30 7553 C 697.237 0.255551 4.57286 0
M  V30 7554 N 698.728 0.202938 4.62755 0
M  V30 7555 C 699.463 0.365731 5.72232 0
M  V30 7556 N 698.959 0.586972 6.90309 0
M  V30 7557 N 700.752 0.302411 5.61286 0
M  V30 7558 H 692.903 1.1008 1.81648 0
M  V30 7559 H 695.166 0.436779 0.841384 0
M  V30 7560 H 694.872 1.07231 3.34954 0
M  V30 7561 H 694.746 -0.638802 3.71751 0
M  V30 7562 H 697.133 -0.976254 2.78484 0
M  V30 7563 H 697.214 0.75796 2.44313 0
M  V30 7564 H 696.858 1.24094 4.92507 0
M  V30 7565 H 696.788 -0.510912 5.24116 0
M  V30 7566 H 699.279 0.0371328 3.77882 0
M  V30 7567 H 699.592 0.700941 7.69615 0
M  V30 7568 H 697.937 0.623453 6.92198 0
M  V30 7569 H 701.128 0.130238 4.67919 0
M  V30 7570 H 701.301 0.432712 6.46554 0
M  V30 7571 N 694.707 -1.5719 -0.113559 0
M  V30 7572 C 695.935 -1.89328 -0.834422 0
M  V30 7573 C 696.35 -0.752018 -1.73177 0
M  V30 7574 O 695.707 0.276912 -1.80387 0
M  V30 7575 C 695.758 -3.20962 -1.66329 0
M  V30 7576 O 695.479 -4.30695 -0.802069 0
M  V30 7577 C 696.98 -3.6684 -2.48884 0
M  V30 7578 H 694.2 -0.626769 -0.239587 0
M  V30 7579 H 696.744 -2.04273 -0.0963195 0
M  V30 7580 H 694.899 -3.0767 -2.35409 0
M  V30 7581 H 695.313 -5.06175 -1.37431 0
M  V30 7582 H 696.787 -4.61692 -3.02563 0
M  V30 7583 H 697.264 -2.93765 -3.26495 0
M  V30 7584 H 697.87 -3.82938 -1.85036 0
M  V30 7585 N 696.185 0.383891 -1.52853 0
M  V30 7586 C 697.601 0.724316 -1.42218 0
M  V30 7587 C 697.801 1.93943 -0.546654 0
M  V30 7588 O 696.857 2.5249 -0.0220562 0
M  V30 7589 C 698.17 0.954635 -2.85144 0
M  V30 7590 C 699.718 1.05579 -2.94656 0
M  V30 7591 C 700.193 1.3187 -4.38605 0
M  V30 7592 N 701.684 1.38681 -4.41952 0
M  V30 7593 C 702.419 1.60699 -5.50421 0
M  V30 7594 N 701.915 1.80154 -6.68967 0
M  V30 7595 N 703.708 1.6292 -5.37972 0
M  V30 7596 H 695.859 -0.4156 -2.08294 0
M  V30 7597 H 698.122 -0.123776 -0.939885 0
M  V30 7598 H 697.828 0.133829 -3.51445 0
M  V30 7599 H 697.702 1.86788 -3.27704 0
M  V30 7600 H 700.089 1.86716 -2.2852 0
M  V30 7601 H 700.17 0.120338 -2.55517 0
M  V30 7602 H 699.814 0.512416 -5.05309 0
M  V30 7603 H 699.744 2.26708 -4.75301 0
M  V30 7604 H 702.235 1.25334 -3.56511 0
M  V30 7605 H 702.548 1.96476 -7.47407 0
M  V30 7606 H 700.893 1.77368 -6.71986 0
M  V30 7607 H 704.084 1.47276 -4.44328 0
M  V30 7608 H 704.257 1.79739 -6.22574 0
M  V30 7609 N 697.663 1.43903 0.642637 0
M  V30 7610 C 698.61 1.49881 1.75512 0
M  V30 7611 C 699.58 0.347538 1.62423 0
M  V30 7612 O 700.765 0.556177 1.82514 0
M  V30 7613 C 697.905 1.43797 3.13714 0
M  V30 7614 C 697.018 2.6921 3.37861 0
M  V30 7615 C 696.153 2.5504 4.6597 0
M  V30 7616 C 695.192 3.75671 4.83257 0
M  V30 7617 N 694.329 3.60247 6.02633 0
M  V30 7618 H 699.169 2.44935 1.69737 0
M  V30 7619 H 696.706 1.21572 0.828165 0
M  V30 7620 H 698.664 1.38262 3.93624 0
M  V30 7621 H 697.294 0.523173 3.18532 0
M  V30 7622 H 696.346 2.8498 2.51973 0
M  V30 7623 H 697.658 3.58786 3.46517 0
M  V30 7624 H 696.812 2.47273 5.54023 0
M  V30 7625 H 695.551 1.63006 4.59653 0
M  V30 7626 H 694.556 3.83836 3.93637 0
M  V30 7627 H 695.781 4.68728 4.91397 0
M  V30 7628 H 693.727 2.70955 5.97427 0
M  V30 7629 H 693.644 4.43431 6.12295 0
M  V30 7630 H 694.912 3.56351 6.93278 0
M  V30 7631 N 699.141 -0.881989 1.30609 0
M  V30 7632 C 700.074 -1.99066 1.11571 0
M  V30 7633 C 701.052 -1.62584 0.022516 0
M  V30 7634 O 702.236 -1.87671 0.176644 0
M  V30 7635 C 699.363 -3.3134 0.702237 0
M  V30 7636 C 698.409 -3.86807 1.79673 0
M  V30 7637 S 699.242 -4.13735 3.39976 0
M  V30 7638 C 700.398 -5.49024 3.00538 0
M  V30 7639 H 700.631 -2.1491 2.05429 0
M  V30 7640 H 698.164 -1.03074 1.14957 0
M  V30 7641 H 700.122 -4.07796 0.470415 0
M  V30 7642 H 698.783 -3.13349 -0.217034 0
M  V30 7643 H 697.976 -4.82397 1.45977 0
M  V30 7644 H 697.578 -3.17102 1.98298 0
M  V30 7645 H 699.87 -6.30208 2.48684 0
M  V30 7646 H 700.813 -5.8766 3.95046 0
M  V30 7647 H 701.221 -5.11726 2.3832 0
M  V30 7648 N 700.619 -1.13374 -1.09472 0
M  V30 7649 C 701.529 -0.824029 -2.19652 0
M  V30 7650 C 702.545 0.19118 -1.72947 0
M  V30 7651 O 703.721 0.0223464 -2.01388 0
M  V30 7652 C 700.786 -0.294009 -3.45451 0
M  V30 7653 C 699.847 -1.3704 -4.0684 0
M  V30 7654 C 699.08 -0.86558 -5.26634 0
M  V30 7655 O 699.303 0.29702 -5.69626 0
M  V30 7656 O 698.237 -1.63968 -5.79136 0
M  V30 7657 H 702.063 -1.74454 -2.48595 0
M  V30 7658 H 699.648 -0.911155 -1.18399 0
M  V30 7659 H 701.53 -0.00381039 -4.214 0
M  V30 7660 H 700.205 0.598921 -3.18111 0
M  V30 7661 H 699.112 -1.71391 -3.3253 0
M  V30 7662 H 700.445 -2.23746 -4.38405 0
M  V30 7663 N 702.098 1.27442 -0.927168 0
M  V30 7664 C 703.008 2.30599 -0.431448 0
M  V30 7665 C 704.024 1.67028 0.48761 0
M  V30 7666 O 705.2 1.97962 0.370546 0
M  V30 7667 C 702.265 3.45327 0.308292 0
M  V30 7668 C 701.326 4.24418 -0.645615 0
M  V30 7669 C 700.559 5.33667 0.0589164 0
M  V30 7670 O 700.782 5.5589 1.27838 0
M  V30 7671 O 699.716 5.98774 -0.612638 0
M  V30 7672 H 703.542 2.75036 -1.28797 0
M  V30 7673 H 701.127 1.32382 -0.692495 0
M  V30 7674 H 703.009 4.15107 0.725555 0
M  V30 7675 H 701.684 3.02945 1.14043 0
M  V30 7676 H 700.591 3.57174 -1.11255 0
M  V30 7677 H 701.924 4.70512 -1.44496 0
M  V30 7678 N 703.576 0.692616 1.41565 0
M  V30 7679 C 704.486 0.0258451 2.34586 0
M  V30 7680 C 705.502 -0.769324 1.56069 0
M  V30 7681 O 706.678 -0.707563 1.88562 0
M  V30 7682 C 703.743 -0.901289 3.3478 0
M  V30 7683 C 702.804 -0.0986579 4.29187 0
M  V30 7684 C 702.037 -0.981634 5.24595 0
M  V30 7685 O 702.26 -2.22115 5.25377 0
M  V30 7686 O 701.194 -0.432892 6.00341 0
M  V30 7687 H 705.02 0.792537 2.93177 0
M  V30 7688 H 702.605 0.452935 1.42369 0
M  V30 7689 H 704.487 -1.43302 3.96286 0
M  V30 7690 H 703.162 -1.64752 2.78637 0
M  V30 7691 H 702.069 0.477604 3.71039 0
M  V30 7692 H 703.402 0.608848 4.8842 0
M  V30 7693 N 705.054 -1.51416 0.437162 0
M  V30 7694 C 706.465 -1.86682 -0.0260005 0
M  V30 7695 C 706.816 -1.35432 -1.4196 0
M  V30 7696 O 705.941 -0.705055 -2.04592 0
M  V30 7697 C 706.536 -3.38757 -0.0539577 0
M  V30 7698 C 705.095 -3.7356 -0.461532 0
M  V30 7699 C 704.242 -2.75134 0.345924 0
M  V30 7700 H 707.193 -1.44642 0.653013 0
M  V30 7701 H 707.214 -3.70573 -0.863478 0
M  V30 7702 H 706.726 -3.76028 0.96045 0
M  V30 7703 H 704.827 -3.41878 -1.48155 0
M  V30 7704 H 704.94 -4.78737 -0.186451 0
M  V30 7705 H 703.304 -2.53947 -0.195739 0
M  V30 7706 H 704.087 -3.15247 1.35921 0
M  V30 7707 N 706.532 -0.168513 -1.56696 0
M  V30 7708 C 707.462 0.758563 -2.20835 0
M  V30 7709 C 708.443 1.24121 -1.1631 0
M  V30 7710 O 709.628 1.29487 -1.4473 0
M  V30 7711 C 706.758 1.9892 -2.8469 0
M  V30 7712 C 705.712 1.64252 -3.95228 0
M  V30 7713 C 705.038 2.94757 -4.46119 0
M  V30 7714 C 706.338 0.872675 -5.14958 0
M  V30 7715 H 708.032 0.223953 -2.98561 0
M  V30 7716 H 705.578 0.106277 -1.43607 0
M  V30 7717 H 707.531 2.64275 -3.28233 0
M  V30 7718 H 706.255 2.5479 -2.04327 0
M  V30 7719 H 704.914 1.01266 -3.52336 0
M  V30 7720 H 704.562 3.48662 -3.62552 0
M  V30 7721 H 704.262 2.72316 -5.2069 0
M  V30 7722 H 705.786 3.61147 -4.92347 0
M  V30 7723 H 707.2 1.42875 -5.55211 0
M  V30 7724 H 705.597 0.747402 -5.95428 0
M  V30 7725 H 706.667 -0.131535 -4.84722 0
M  V30 7726 N 708.01 1.57248 0.105221 0
M  V30 7727 C 709.258 1.85204 0.808951 0
M  V30 7728 C 709.579 0.75574 1.7976 0
M  V30 7729 O 708.849 -0.218984 1.94672 0
M  V30 7730 H 707.429 0.683346 0.301739 0
M  V30 7731 H 710.091 1.94695 0.0892605 0
M  V30 7732 H 709.187 2.81595 1.34575 0
M  V30 7733 N 709.488 -0.375779 1.53054 0
M  V30 7734 C 710.899 -0.95309 1.6054 0
M  V30 7735 C 711.25 -1.90575 0.466446 0
M  V30 7736 O 710.375 -2.12507 -0.408609 0
M  V30 7737 C 710.97 -1.73537 2.90982 0
M  V30 7738 C 709.529 -2.26218 3.00836 0
M  V30 7739 C 708.676 -1.07157 2.55759 0
M  V30 7740 H 711.627 -0.154895 1.57942 0
M  V30 7741 H 711.648 -2.59574 2.78211 0
M  V30 7742 H 711.16 -1.04176 3.73857 0
M  V30 7743 H 709.261 -2.98852 2.22527 0
M  V30 7744 H 709.374 -2.54799 4.05727 0
M  V30 7745 H 707.738 -1.43553 2.10391 0
M  V30 7746 H 708.521 -0.393099 3.41042 0
M  V30 7747 N 710.966 -1.44241 -0.634997 0
M  V30 7748 C 712.243 -1.37296 -1.39317 0
M  V30 7749 C 712.623 -0.0297532 -2.11079 0
M  V30 7750 O 711.971 0.987524 -2.06059 0
M  V30 7751 C 712.181 -2.56853 -2.36279 0
M  V30 7752 C 713.529 -3.00747 -2.99728 0
M  V30 7753 O 714.553 -2.5703 -2.46605 0
M  V30 7754 O 713.412 -3.76533 -3.96087 0
M  V30 7755 H 710.506 -0.543503 -0.623325 0
M  V30 7756 H 713.052 -1.56324 -0.660376 0
M  V30 7757 H 711.824 -3.46228 -1.82324 0
M  V30 7758 H 711.447 -2.40019 -3.16981 0
M  V30 7759 N 712.444 0.87505 -1.31075 0
M  V30 7760 C 713.374 1.99775 -1.20881 0
M  V30 7761 C 714.355 1.69822 -0.0971612 0
M  V30 7762 O 715.54 1.92158 -0.280895 0
M  V30 7763 C 712.67 3.35163 -0.910118 0
M  V30 7764 C 711.624 3.79406 -1.98078 0
M  V30 7765 C 710.95 5.12197 -1.53488 0
M  V30 7766 C 712.25 3.97061 -3.39323 0
M  V30 7767 H 713.944 2.08562 -2.14808 0
M  V30 7768 H 711.49 1.00207 -1.03415 0
M  V30 7769 H 713.443 4.13237 -0.825423 0
M  V30 7770 H 712.167 3.26536 0.064822 0
M  V30 7771 H 710.826 3.03568 -2.05528 0
M  V30 7772 H 710.474 5.00007 -0.547941 0
M  V30 7773 H 710.174 5.4277 -2.2511 0
M  V30 7774 H 711.698 5.92785 -1.46417 0
M  V30 7775 H 713.112 4.65545 -3.34576 0
M  V30 7776 H 711.509 4.39025 -4.09118 0
M  V30 7777 H 712.579 3.00601 -3.80483 0
M  V30 7778 N 713.922 1.13953 1.08869 0
M  V30 7779 C 714.832 0.835666 2.19212 0
M  V30 7780 C 715.848 -0.182005 1.73045 0
M  V30 7781 O 717.024 -0.0116661 2.01397 0
M  V30 7782 C 714.089 0.312325 3.4529 0
M  V30 7783 C 713.15 1.39196 4.06107 0
M  V30 7784 C 712.383 0.893496 5.26168 0
M  V30 7785 O 712.606 -0.266807 5.69776 0
M  V30 7786 O 711.54 1.67037 5.78258 0
M  V30 7787 H 715.366 1.75769 2.47667 0
M  V30 7788 H 712.951 0.917421 1.17914 0
M  V30 7789 H 714.833 0.0261582 4.21392 0
M  V30 7790 H 713.508 -0.582042 3.18424 0
M  V30 7791 H 712.415 1.73152 3.31616 0
M  V30 7792 H 713.748 2.26068 4.37212 0
M  V30 7793 N 715.4 -1.26948 0.933913 0
M  V30 7794 C 716.677 -1.89212 0.495784 0
M  V30 7795 C 717.057 -1.84469 -1.02637 0
M  V30 7796 O 716.405 -1.29409 -1.88323 0
M  V30 7797 C 716.615 -3.32865 1.0489 0
M  V30 7798 C 717.963 -4.09749 1.11315 0
M  V30 7799 O 718.987 -3.41905 0.998966 0
M  V30 7800 O 717.846 -5.31061 1.28983 0
M  V30 7801 H 714.94 -0.811284 0.160459 0
M  V30 7802 H 717.486 -1.35171 1.02601 0
M  V30 7803 H 716.258 -3.30642 2.09265 0
M  V30 7804 H 715.881 -3.94435 0.500692 0
M  V30 7805 N 716.879 -0.700114 -1.41195 0
M  V30 7806 C 717.809 -0.0521132 -2.33442 0
M  V30 7807 C 718.79 0.76228 -1.52063 0
M  V30 7808 O 719.975 0.714336 -1.80585 0
M  V30 7809 C 717.105 0.881693 -3.35922 0
M  V30 7810 C 716.059 0.174062 -4.27646 0
M  V30 7811 C 715.385 1.22254 -5.20536 0
M  V30 7812 C 716.685 -0.962396 -5.13357 0
M  V30 7813 H 718.379 -0.822574 -2.87879 0
M  V30 7814 H 715.925 -0.397011 -1.38419 0
M  V30 7815 H 717.878 1.34429 -3.99383 0
M  V30 7816 H 716.602 1.68387 -2.79845 0
M  V30 7817 H 715.261 -0.268551 -3.65615 0
M  V30 7818 H 714.909 2.01736 -4.60773 0
M  V30 7819 H 714.609 0.754038 -5.82742 0
M  V30 7820 H 716.133 1.68555 -5.86874 0
M  V30 7821 H 717.547 -0.579875 -5.7036 0
M  V30 7822 H 715.944 -1.35828 -5.84526 0
M  V30 7823 H 717.014 -1.80003 -4.50252 0
M  V30 7824 N 718.357 1.51182 -0.445186 0
M  V30 7825 C 719.304 2.27939 0.362291 0
M  V30 7826 C 720.274 1.31864 1.01 0
M  V30 7827 O 721.459 1.60776 1.02741 0
M  V30 7828 C 718.599 3.13016 1.45311 0
M  V30 7829 C 717.712 4.24093 0.822757 0
M  V30 7830 C 716.847 4.96467 1.88928 0
M  V30 7831 C 715.886 5.99454 1.23778 0
M  V30 7832 N 715.023 6.65206 2.24602 0
M  V30 7833 H 719.863 2.965 -0.29862 0
M  V30 7834 H 717.4 1.46237 -0.15911 0
M  V30 7835 H 719.358 3.60673 2.09692 0
M  V30 7836 H 717.988 2.46553 2.08354 0
M  V30 7837 H 717.04 3.80341 0.0670364 0
M  V30 7838 H 718.352 4.97853 0.307184 0
M  V30 7839 H 717.506 5.47712 2.60953 0
M  V30 7840 H 716.245 4.22355 2.4386 0
M  V30 7841 H 715.25 5.47494 0.503042 0
M  V30 7842 H 716.475 6.75527 0.695694 0
M  V30 7843 H 714.421 5.93901 2.78599 0
M  V30 7844 H 714.338 7.34756 1.77958 0
M  V30 7845 H 715.606 7.21078 2.96085 0
M  V30 7846 N 719.835 0.176821 1.56605 0
M  V30 7847 C 721.251 -0.179278 1.5859 0
M  V30 7848 C 721.451 -1.62433 1.19238 0
M  V30 7849 O 720.507 -2.35665 0.906552 0
M  V30 7850 C 721.82 0.106524 3.00511 0
M  V30 7851 C 723.368 0.0451731 3.12967 0
M  V30 7852 C 723.843 0.304038 4.5699 0
M  V30 7853 N 725.334 0.252008 4.62514 0
M  V30 7854 C 726.069 0.426404 5.71812 0
M  V30 7855 N 725.565 0.660155 6.89648 0
M  V30 7856 N 727.358 0.361926 5.60934 0
M  V30 7857 H 719.509 1.12001 1.8047 0
M  V30 7858 H 721.772 0.445679 0.836704 0
M  V30 7859 H 721.478 1.10778 3.33798 0
M  V30 7860 H 721.352 -0.599337 3.72408 0
M  V30 7861 H 723.739 -0.946662 2.79504 0
M  V30 7862 H 723.82 0.78383 2.43495 0
M  V30 7863 H 723.464 1.29311 4.91163 0
M  V30 7864 H 723.394 -0.455294 5.24628 0
M  V30 7865 H 725.885 0.0772102 3.77821 0
M  V30 7866 H 726.198 0.782529 7.68828 0
M  V30 7867 H 724.543 0.696835 6.91498 0
M  V30 7868 H 727.734 0.17986 4.67754 0
M  V30 7869 H 727.907 0.501263 6.46058 0
M  V30 7870 N 721.313 -1.57302 -0.09688 0
M  V30 7871 C 722.245 -1.98618 -1.14384 0
M  V30 7872 C 723.258 -0.888483 -1.36418 0
M  V30 7873 O 724.447 -1.16661 -1.35101 0
M  V30 7874 C 721.547 -2.28838 -2.49973 0
M  V30 7875 C 720.72 -3.60132 -2.48241 0
M  V30 7876 C 719.779 -3.7831 -3.65743 0
M  V30 7877 O 718.805 -4.50183 -3.48316 0
M  V30 7878 N 720.007 -3.18752 -4.85157 0
M  V30 7879 H 722.772 -2.8904 -0.792202 0
M  V30 7880 H 720.333 -1.59356 -0.285883 0
M  V30 7881 H 722.325 -2.38193 -3.27179 0
M  V30 7882 H 720.895 -1.44431 -2.77233 0
M  V30 7883 H 720.115 -3.61763 -1.56593 0
M  V30 7884 H 721.403 -4.46389 -2.4416 0
M  V30 7885 H 720.801 -2.60368 -5.0222 0
M  V30 7886 H 719.358 -3.33595 -5.59962 0
M  V30 7887 N 722.791 0.367657 -1.53252 0
M  V30 7888 C 724.037 1.11216 -1.69584 0
M  V30 7889 C 724.37 1.89026 -0.445269 0
M  V30 7890 O 723.645 1.86342 0.557404 0
M  V30 7891 C 723.928 2.07308 -2.94441 0
M  V30 7892 C 723.781 1.3312 -4.2965 0
M  V30 7893 C 725.1 3.07459 -3.14892 0
M  V30 7894 H 722.219 0.40294 -0.617096 0
M  V30 7895 H 724.861 0.393201 -1.85887 0
M  V30 7896 H 723.011 2.68617 -2.80673 0
M  V30 7897 H 724.683 0.746111 -4.55226 0
M  V30 7898 H 722.926 0.633051 -4.29156 0
M  V30 7899 H 723.597 2.03443 -5.13142 0
M  V30 7900 H 726.073 2.56252 -3.27832 0
M  V30 7901 H 724.949 3.71919 -4.03693 0
M  V30 7902 H 725.21 3.77514 -2.30077 0
M  V30 7903 N 724.269 1.44576 0.627338 0
M  V30 7904 C 725.201 1.47724 1.75243 0
M  V30 7905 C 726.214 0.370193 1.58535 0
M  V30 7906 O 727.403 0.636151 1.66779 0
M  V30 7907 C 724.503 1.2991 3.13012 0
M  V30 7908 C 723.676 2.5393 3.56143 0
M  V30 7909 C 722.735 2.30961 4.72804 0
M  V30 7910 O 721.761 3.04469 4.80923 0
M  V30 7911 N 722.963 1.34261 5.6476 0
M  V30 7912 H 725.728 2.44718 1.73012 0
M  V30 7913 H 723.289 1.40064 0.812022 0
M  V30 7914 H 725.281 1.12385 3.88782 0
M  V30 7915 H 723.851 0.412668 3.09864 0
M  V30 7916 H 723.071 2.86707 2.70542 0
M  V30 7917 H 724.359 3.36411 3.81713 0
M  V30 7918 H 723.757 0.735573 5.60897 0
M  V30 7919 H 722.314 1.22713 6.40144 0
M  V30 7920 N 725.747 -0.868086 1.31537 0
M  V30 7921 C 726.679 -1.98165 1.15166 0
M  V30 7922 C 727.692 -1.6255 0.0902335 0
M  V30 7923 O 728.881 -1.75272 0.33791 0
M  V30 7924 C 725.981 -3.30772 0.737776 0
M  V30 7925 C 725.154 -3.94716 1.88462 0
M  V30 7926 C 724.213 -5.05641 1.45648 0
M  V30 7927 O 723.239 -5.2636 2.16642 0
M  V30 7928 N 724.441 -5.79474 0.34493 0
M  V30 7929 H 727.206 -2.12754 2.11083 0
M  V30 7930 H 724.767 -1.04217 1.23897 0
M  V30 7931 H 726.759 -4.02366 0.434032 0
M  V30 7932 H 725.329 -3.1233 -0.129834 0
M  V30 7933 H 724.549 -3.16079 2.35558 0
M  V30 7934 H 725.837 -4.34175 2.65273 0
M  V30 7935 H 725.235 -5.65164 -0.246259 0
M  V30 7936 H 723.792 -6.51722 0.100728 0
M  V30 7937 N 727.225 -1.14528 -1.08264 0
M  V30 7938 C 728.175 -0.802141 -2.13424 0
M  V30 7939 C 729.159 0.209362 -1.59532 0
M  V30 7940 O 730.351 0.0114859 -1.76996 0
M  V30 7941 C 727.48 -0.282938 -3.42132 0
M  V30 7942 C 726.566 -1.32405 -4.02902 0
M  V30 7943 N 726.957 -2.52861 -4.38058 0
M  V30 7944 C 725.255 -1.17462 -4.30254 0
M  V30 7945 C 725.956 -3.1952 -4.86088 0
M  V30 7946 N 724.932 -2.46921 -4.84284 0
M  V30 7947 H 728.734 -1.71843 -2.38426 0
M  V30 7948 H 726.248 -1.02936 -1.2561 0
M  V30 7949 H 728.245 -0.0188053 -4.16896 0
M  V30 7950 H 726.905 0.627533 -3.18578 0
M  V30 7951 H 727.916 -2.90078 -4.2904 0
M  V30 7952 H 724.593 -0.323283 -4.16246 0
M  V30 7953 H 725.983 -4.2223 -5.22658 0
M  V30 7954 N 728.703 1.26451 -0.940633 0
M  V30 7955 C 729.65 2.264 -0.448497 0
M  V30 7956 C 730.62 1.5866 0.491546 0
M  V30 7957 O 731.805 1.86389 0.407874 0
M  V30 7958 C 728.945 3.43956 0.280715 0
M  V30 7959 C 728.058 4.26374 -0.694937 0
M  V30 7960 C 727.193 5.31171 0.0554186 0
M  V30 7961 C 726.232 6.05266 -0.912091 0
M  V30 7962 N 725.369 7.01833 -0.193524 0
M  V30 7963 H 730.209 2.67869 -1.30576 0
M  V30 7964 H 727.746 1.31707 -0.655112 0
M  V30 7965 H 729.704 4.10941 0.71994 0
M  V30 7966 H 728.334 3.03403 1.10212 0
M  V30 7967 H 727.386 3.59183 -1.25267 0
M  V30 7968 H 728.698 4.77748 -1.43382 0
M  V30 7969 H 727.852 6.04166 0.553951 0
M  V30 7970 H 726.591 4.80634 0.827183 0
M  V30 7971 H 725.596 5.31099 -1.42175 0
M  V30 7972 H 726.821 6.57893 -1.68385 0
M  V30 7973 H 724.767 6.53607 0.559758 0
M  V30 7974 H 724.684 7.50957 -0.871744 0
M  V30 7975 H 725.952 7.78983 0.283932 0
M  V30 7976 N 730.181 0.707592 1.40822 0
M  V30 7977 C 731.427 0.244031 2.01326 0
M  V30 7978 C 731.76 -1.15722 1.55955 0
M  V30 7979 O 731.035 -1.78347 0.776044 0
M  V30 7980 C 731.318 0.315128 3.58718 0
M  V30 7981 C 731.171 1.75419 4.14184 0
M  V30 7982 C 732.49 -0.318251 4.38948 0
M  V30 7983 H 729.609 0.0901471 0.731466 0
M  V30 7984 H 732.251 0.898584 1.67408 0
M  V30 7985 H 730.401 -0.242176 3.87744 0
M  V30 7986 H 732.073 2.36626 3.95987 0
M  V30 7987 H 730.316 2.28449 3.68773 0
M  V30 7988 H 730.987 1.75538 5.23345 0
M  V30 7989 H 733.463 0.156514 4.15806 0
M  V30 7990 H 732.339 -0.238019 5.48384 0
M  V30 7991 H 732.6 -1.40067 4.19325 0
M  V30 7992 N 731.66 -1.50943 0.453197 0
M  V30 7993 C 732.59 -2.31005 -0.34044 0
M  V30 7994 C 733.571 -1.37112 -1.00669 0
M  V30 7995 O 734.756 -1.66033 -1.0073 0
M  V30 7996 C 731.886 -3.16358 -1.433 0
M  V30 7997 C 730.84 -4.18658 -0.889363 0
M  V30 7998 C 730.166 -4.92633 -2.07887 0
M  V30 7999 C 731.466 -5.22227 0.0871142 0
M  V30 8000 H 733.16 -2.97601 0.327723 0
M  V30 8001 H 730.706 -1.43119 0.159054 0
M  V30 8002 H 732.659 -3.71155 -1.99555 0
M  V30 8003 H 731.383 -2.47613 -2.12968 0
M  V30 8004 H 730.042 -3.64936 -0.348915 0
M  V30 8005 H 729.69 -4.20376 -2.76211 0
M  V30 8006 H 729.39 -5.61819 -1.72143 0
M  V30 8007 H 730.914 -5.50258 -2.64666 0
M  V30 8008 H 732.328 -5.72001 -0.385656 0
M  V30 8009 H 730.725 -5.99032 0.357926 0
M  V30 8010 H 731.795 -4.74077 1.01879 0
M  V30 8011 N 733.138 -0.185124 -1.56509 0
M  V30 8012 C 734.07 0.771401 -2.15829 0
M  V30 8013 C 735.083 1.18392 -1.11747 0
M  V30 8014 O 736.272 1.12137 -1.38879 0
M  V30 8015 C 733.372 2.05169 -2.69739 0
M  V30 8016 C 732.545 1.80056 -3.98621 0
M  V30 8017 C 731.604 2.92435 -4.37456 0
M  V30 8018 O 730.63 2.62473 -5.05071 0
M  V30 8019 N 731.832 4.20554 -4.00143 0
M  V30 8020 H 734.597 0.264184 -2.98533 0
M  V30 8021 H 732.158 -0.00281069 -1.619 0
M  V30 8022 H 734.15 2.7947 -2.92709 0
M  V30 8023 H 732.72 2.47041 -1.91545 0
M  V30 8024 H 731.94 0.895862 -3.83885 0
M  V30 8025 H 733.228 1.60662 -4.82768 0
M  V30 8026 H 732.626 4.47753 -3.45736 0
M  V30 8027 H 731.183 4.91514 -4.28085 0
M  V30 8028 N 734.616 1.57351 0.0885366 0
M  V30 8029 C 735.526 2.05858 1.12516 0
M  V30 8030 C 736.542 0.984758 1.43452 0
M  V30 8031 O 737.718 1.29836 1.53963 0
M  V30 8032 C 734.783 2.47882 2.42395 0
M  V30 8033 C 733.844 3.69487 2.18582 0
M  V30 8034 C 733.077 4.09497 3.42268 0
M  V30 8035 O 733.3 3.49536 4.50755 0
M  V30 8036 O 732.234 5.02406 3.31469 0
M  V30 8037 H 736.06 2.94467 0.743146 0
M  V30 8038 H 733.645 1.46326 0.301507 0
M  V30 8039 H 735.527 2.75509 3.18862 0
M  V30 8040 H 734.202 1.62408 2.8001 0
M  V30 8041 H 733.109 3.46967 1.39875 0
M  V30 8042 H 734.442 4.55761 1.85857 0
M  V30 8043 N 736.094 -0.359525 1.53444 0
M  V30 8044 C 737.371 -1.11756 1.6053 0
M  V30 8045 C 737.751 -2.06949 0.416587 0
M  V30 8046 O 737.099 -2.20681 -0.592628 0
M  V30 8047 C 737.309 -1.85133 2.95849 0
M  V30 8048 C 738.657 -2.3945 3.50641 0
M  V30 8049 O 739.681 -1.95251 2.97918 0
M  V30 8050 O 738.54 -3.20266 4.42823 0
M  V30 8051 H 735.634 -0.513005 0.648656 0
M  V30 8052 H 738.18 -0.362301 1.65787 0
M  V30 8053 H 736.952 -1.15694 3.73806 0
M  V30 8054 H 736.575 -2.67554 2.9411 0
M  V30 8055 N 737.572 -1.44907 -0.619662 0
M  V30 8056 C 738.502 -1.55488 -1.742 0
M  V30 8057 C 739.483 -0.407143 -1.65156 0
M  V30 8058 O 740.668 -0.628743 -1.8374 0
M  V30 8059 C 737.798 -1.5097 -3.1277 0
M  V30 8060 C 736.752 -2.64337 -3.36615 0
M  V30 8061 C 736.078 -2.44872 -4.75333 0
M  V30 8062 C 737.378 -4.06423 -3.28051 0
M  V30 8063 H 739.072 -2.49432 -1.65602 0
M  V30 8064 H 736.618 -1.20047 -0.795281 0
M  V30 8065 H 738.571 -1.56971 -3.91073 0
M  V30 8066 H 737.295 -0.535486 -3.2218 0
M  V30 8067 H 735.954 -2.57744 -2.60698 0
M  V30 8068 H 735.602 -1.45617 -4.81461 0
M  V30 8069 H 735.302 -3.20888 -4.92244 0
M  V30 8070 H 736.826 -2.52709 -5.55851 0
M  V30 8071 H 738.24 -4.14324 -3.96243 0
M  V30 8072 H 736.637 -4.82733 -3.56495 0
M  V30 8073 H 737.707 -4.29183 -2.25676 0
M  V30 8074 N 739.05 0.861098 -1.31996 0
M  V30 8075 C 739.96 2.00154 -1.22374 0
M  V30 8076 C 740.976 1.73447 -0.138631 0
M  V30 8077 O 742.152 1.98191 -0.358104 0
M  V30 8078 C 739.217 3.33696 -0.940645 0
M  V30 8079 C 738.278 3.73668 -2.11355 0
M  V30 8080 C 737.511 5.00837 -1.84386 0
M  V30 8081 O 737.734 5.64996 -0.783287 0
M  V30 8082 O 736.668 5.37787 -2.70313 0
M  V30 8083 H 740.494 2.11207 -2.18233 0
M  V30 8084 H 738.079 0.990768 -1.11822 0
M  V30 8085 H 739.961 4.13756 -0.798987 0
M  V30 8086 H 738.636 3.23698 -0.0121636 0
M  V30 8087 H 737.543 2.94211 -2.31065 0
M  V30 8088 H 738.876 3.88303 -3.02459 0
M  V30 8089 N 740.528 1.15101 1.07655 0
M  V30 8090 C 741.46 0.802722 2.14684 0
M  V30 8091 C 742.473 -0.183874 1.61758 0
M  V30 8092 O 743.662 0.0389349 1.78458 0
M  V30 8093 C 740.762 0.172135 3.38463 0
M  V30 8094 C 739.935 1.19538 4.20749 0
M  V30 8095 C 738.994 0.58714 5.22914 0
M  V30 8096 O 738.02 1.25224 5.55255 0
M  V30 8097 N 739.222 -0.632566 5.77043 0
M  V30 8098 H 741.987 1.72379 2.45164 0
M  V30 8099 H 739.548 1.04647 1.23534 0
M  V30 8100 H 741.54 -0.247465 4.03943 0
M  V30 8101 H 740.11 -0.652214 3.0572 0
M  V30 8102 H 739.33 1.79165 3.51132 0
M  V30 8103 H 740.618 1.88636 4.7254 0
M  V30 8104 H 740.016 -1.19135 5.53013 0
M  V30 8105 H 738.573 -0.994566 6.44167 0
M  V30 8106 N 742.006 -1.2595 0.947325 0
M  V30 8107 C 742.916 -2.29883 0.468079 0
M  V30 8108 C 743.932 -1.67783 -0.460975 0
M  V30 8109 O 745.108 -1.98526 -0.339006 0
M  V30 8110 C 742.173 -3.45773 -0.253315 0
M  V30 8111 C 741.234 -4.23337 0.713054 0
M  V30 8112 C 740.467 -5.33694 0.025993 0
M  V30 8113 O 740.69 -5.57853 -1.18978 0
M  V30 8114 O 739.624 -5.97724 0.70782 0
M  V30 8115 H 743.45 -2.72952 1.33156 0
M  V30 8116 H 741.035 -1.31263 0.713468 0
M  V30 8117 H 742.917 -4.16209 -0.659423 0
M  V30 8118 H 741.592 -3.04721 -1.09209 0
M  V30 8119 H 740.499 -3.55359 1.16923 0
M  V30 8120 H 741.832 -4.68154 1.51963 0
M  V30 8121 N 743.484 -0.715051 -1.40445 0
M  V30 8122 C 744.416 -0.0227516 -2.29189 0
M  V30 8123 C 745.429 0.724313 -1.458 0
M  V30 8124 O 746.618 0.571781 -1.69094 0
M  V30 8125 C 743.718 0.992038 -3.24055 0
M  V30 8126 C 742.891 0.310613 -4.36296 0
M  V30 8127 C 741.95 1.23071 -5.11605 0
M  V30 8128 O 740.976 0.71571 -5.64682 0
M  V30 8129 N 742.178 2.56188 -5.2091 0
M  V30 8130 H 744.943 -0.78473 -2.89244 0
M  V30 8131 H 742.504 -0.562637 -1.51809 0
M  V30 8132 H 744.496 1.60973 -3.71308 0
M  V30 8133 H 743.066 1.65538 -2.65171 0
M  V30 8134 H 742.286 -0.487269 -3.91177 0
M  V30 8135 H 743.574 -0.162415 -5.08541 0
M  V30 8136 H 742.972 3.00527 -4.7927 0
M  V30 8137 H 741.529 3.13103 -5.71673 0
M  V30 8138 N 744.962 1.50701 -0.461195 0
M  V30 8139 C 746.208 2.02566 0.0973411 0
M  V30 8140 C 746.541 1.3432 1.40257 0
M  V30 8141 O 745.816 0.465692 1.88843 0
M  V30 8142 C 746.099 3.58919 0.291423 0
M  V30 8143 C 745.952 4.37751 -1.03413 0
M  V30 8144 C 747.271 4.27379 1.05048 0
M  V30 8145 H 744.39 0.73622 0.0339026 0
M  V30 8146 H 747.032 1.80115 -0.604855 0
M  V30 8147 H 745.182 3.78179 0.889539 0
M  V30 8148 H 746.854 4.30085 -1.66806 0
M  V30 8149 H 745.097 4.01885 -1.63313 0
M  V30 8150 H 745.768 5.45384 -0.852085 0
M  V30 8151 H 748.244 4.12534 0.543603 0
M  V30 8152 H 747.12 5.36609 1.15506 0
M  V30 8153 H 747.381 3.89868 2.0846 0
M  V30 8154 N 746.441 0.193421 1.56409 0
M  V30 8155 C 747.857 -0.162447 1.58771 0
M  V30 8156 C 748.057 -1.6116 1.20954 0
M  V30 8157 O 747.113 -2.3469 0.931497 0
M  V30 8158 C 748.426 0.138391 3.00381 0
M  V30 8159 C 749.974 0.0783649 3.12902 0
M  V30 8160 C 750.449 0.352491 4.56642 0
M  V30 8161 N 751.94 0.30105 4.62221 0
M  V30 8162 C 752.675 0.487028 5.71328 0
M  V30 8163 N 752.171 0.733265 6.88909 0
M  V30 8164 N 753.964 0.4214 5.60518 0
M  V30 8165 H 746.115 1.13909 1.79272 0
M  V30 8166 H 748.378 0.454528 0.83193 0
M  V30 8167 H 748.084 1.14312 3.32604 0
M  V30 8168 H 747.958 -0.559804 3.73023 0
M  V30 8169 H 750.345 -0.916963 2.80492 0
M  V30 8170 H 750.426 0.809611 2.4265 0
M  V30 8171 H 750.07 1.34513 4.89764 0
M  V30 8172 H 750 -0.399624 5.25081 0
M  V30 8173 H 752.491 0.117279 3.77718 0
M  V30 8174 H 752.804 0.86403 7.67955 0
M  V30 8175 H 751.149 0.770138 6.9072 0
M  V30 8176 H 754.34 0.229461 4.67537 0
M  V30 8177 H 754.513 0.569758 6.4549 0
M  V30 8178 N 747.919 -1.57396 -0.0801906 0
M  V30 8179 C 749.165 -1.87113 -0.782083 0
M  V30 8180 C 749.498 -0.78458 -1.77646 0
M  V30 8181 O 748.773 0.205993 -1.93406 0
M  V30 8182 C 749.056 -3.27483 -1.49756 0
M  V30 8183 C 748.909 -4.46782 -0.520171 0
M  V30 8184 C 750.228 -3.65965 -2.44454 0
M  V30 8185 H 747.347 -0.680559 -0.282858 0
M  V30 8186 H 749.989 -1.89946 -0.0454139 0
M  V30 8187 H 748.139 -3.25199 -2.12551 0
M  V30 8188 H 749.811 -4.61187 0.101919 0
M  V30 8189 H 748.054 -4.33485 0.165219 0
M  V30 8190 H 748.725 -5.41761 -1.05824 0
M  V30 8191 H 751.201 -3.69289 -1.91742 0
M  V30 8192 H 750.077 -4.65086 -2.91524 0
M  V30 8193 H 750.338 -2.95446 -3.28883 0
M  V30 8194 N 749.397 0.351382 -1.53633 0
M  V30 8195 C 750.345 1.45142 -1.8176 0
M  V30 8196 C 751.339 1.54819 -0.687571 0
M  V30 8197 O 752.545 1.57536 -0.870772 0
M  V30 8198 H 748.92 0.483789 -0.575719 0
M  V30 8199 H 750.891 1.1863 -2.73806 0
M  V30 8200 C 749.64 2.81779 -2.03706 0
M  V30 8201 H 748.963 2.75097 -2.90107 0
M  V30 8202 H 750.403 3.5789 -2.27356 0
M  V30 8203 C 748.862 3.26762 -0.820271 0
M  V30 8204 O 749.392 4.01697 -0.0158603 0
M  V30 8205 N 747.598 2.83472 -0.639699 0
M  V30 8206 H 747.145 2.22655 -1.29547 0
M  V30 8207 H 747.103 3.13924 0.172995 0
M  V30 8208 N 750.875 1.45233 0.611969 0
M  V30 8209 C 752.1 1.52767 1.40274 0
M  V30 8210 C 752.525 0.159701 1.87421 0
M  V30 8211 O 751.883 -0.854837 1.59882 0
M  V30 8212 C 751.931 2.51286 2.58626 0
M  V30 8213 O 751.035 2.02764 3.59111 0
M  V30 8214 H 750.376 0.515141 0.418958 0
M  V30 8215 H 752.906 1.90547 0.745188 0
M  V30 8216 H 752.916 2.69949 3.05927 0
M  V30 8217 H 751.591 3.50641 2.23659 0
M  V30 8218 H 750.168 1.93957 3.18489 0
M  V30 8219 N 752.353 -0.854086 1.3245 0
M  V30 8220 C 753.283 -1.97827 1.24044 0
M  V30 8221 C 754.264 -1.69646 0.124166 0
M  V30 8222 O 755.449 -1.91687 0.31143 0
M  V30 8223 C 752.579 -3.33673 0.963324 0
M  V30 8224 C 751.533 -3.76207 2.04089 0
M  V30 8225 C 750.859 -5.0969 1.61618 0
M  V30 8226 C 752.159 -3.91612 3.45597 0
M  V30 8227 H 753.853 -2.05118 2.18099 0
M  V30 8228 H 751.399 -0.985489 1.04996 0
M  V30 8229 H 753.352 -4.11871 0.891061 0
M  V30 8230 H 752.076 -3.26597 -0.0128649 0
M  V30 8231 H 750.735 -3.0026 2.10332 0
M  V30 8232 H 750.383 -4.99072 0.627418 0
M  V30 8233 H 750.083 -5.3912 2.33717 0
M  V30 8234 H 751.607 -5.90381 1.55829 0
M  V30 8235 H 753.021 -4.60163 3.4194 0
M  V30 8236 H 751.418 -4.3246 4.16051 0
M  V30 8237 H 752.488 -2.9451 3.85217 0
M  V30 8238 N 753.831 -1.1567 -1.07043 0
M  V30 8239 C 755.059 -0.957471 -1.83412 0
M  V30 8240 C 755.474 0.494271 -1.82215 0
M  V30 8241 O 754.831 1.34288 -1.23584 0
M  V30 8242 C 754.882 -1.46784 -3.30359 0
M  V30 8243 O 754.603 -2.86271 -3.31633 0
M  V30 8244 C 756.104 -1.31054 -4.23485 0
M  V30 8245 H 753.324 -0.33986 -0.578564 0
M  V30 8246 H 755.868 -1.53518 -1.35102 0
M  V30 8247 H 754.023 -0.932586 -3.76007 0
M  V30 8248 H 754.437 -3.0948 -4.23465 0
M  V30 8249 H 755.911 -1.71605 -5.24648 0
M  V30 8250 H 756.388 -0.255107 -4.38458 0
M  V30 8251 H 756.994 -1.83503 -3.83676 0
M  V30 8252 N 755.309 1.25446 -0.953992 0
M  V30 8253 C 756.259 2.23627 -0.444413 0
M  V30 8254 C 757.243 1.54004 0.465993 0
M  V30 8255 O 758.435 1.74454 0.29915 0
M  V30 8256 C 755.564 3.42179 0.277175 0
M  V30 8257 C 754.65 4.1907 -0.651263 0
M  V30 8258 N 755.041 4.73346 -1.78262 0
M  V30 8259 C 753.339 4.43628 -0.459338 0
M  V30 8260 C 754.04 5.31576 -2.36224 0
M  V30 8261 N 753.016 5.17991 -1.64884 0
M  V30 8262 H 756.818 2.63197 -1.30785 0
M  V30 8263 H 754.332 1.40677 -0.811402 0
M  V30 8264 H 756.329 4.11653 0.659367 0
M  V30 8265 H 754.989 3.04134 1.13723 0
M  V30 8266 H 756 4.705 -2.1645 0
M  V30 8267 H 752.677 4.15963 0.357885 0
M  V30 8268 H 754.067 5.84361 -3.3162 0
M  V30 8269 N 756.787 0.722489 1.40064 0
M  V30 8270 C 757.72 0.0233443 2.28188 0
M  V30 8271 C 758.698 -0.7606 1.43714 0
M  V30 8272 O 759.882 -0.745791 1.73119 0
M  V30 8273 C 757.009 -0.974264 3.24385 0
M  V30 8274 C 756.055 -0.280307 4.25578 0
M  V30 8275 S 756.888 0.996769 5.26141 0
M  V30 8276 C 758.044 0.00143923 6.259 0
M  V30 8277 H 758.277 0.770705 2.87137 0
M  V30 8278 H 755.81 0.513783 1.45601 0
M  V30 8279 H 757.768 -1.5446 3.80332 0
M  V30 8280 H 756.429 -1.69438 2.6448 0
M  V30 8281 H 755.622 -1.03471 4.93264 0
M  V30 8282 H 755.224 0.217657 3.73366 0
M  V30 8283 H 757.516 -0.843126 6.72233 0
M  V30 8284 H 758.459 0.645104 7.05155 0
M  V30 8285 H 758.867 -0.365371 5.63316 0
M  V30 8286 N 758.265 -1.50454 0.469181 0
M  V30 8287 C 759.511 -2.02615 -0.0865971 0
M  V30 8288 C 759.844 -1.35062 -1.39542 0
M  V30 8289 O 759.119 -0.475701 -1.88593 0
M  V30 8290 C 759.402 -3.59068 -0.272385 0
M  V30 8291 C 759.255 -4.37196 1.05733 0
M  V30 8292 C 760.574 -4.2793 -1.0278 0
M  V30 8293 H 757.693 -0.736389 -0.0299977 0
M  V30 8294 H 760.335 -1.79792 0.614399 0
M  V30 8295 H 758.485 -3.78646 -0.869471 0
M  V30 8296 H 760.157 -4.29195 1.69084 0
M  V30 8297 H 758.4 -4.01013 1.65442 0
M  V30 8298 H 759.071 -5.44924 0.880997 0
M  V30 8299 H 761.547 -4.12816 -0.521718 0
M  V30 8300 H 760.423 -5.37214 -1.12659 0
M  V30 8301 H 760.684 -3.90968 -2.0639 0
M  V30 8302 N 759.743 -0.201713 -1.56304 0
M  V30 8303 C 760.989 0.435952 -1.98059 0
M  V30 8304 C 761.322 1.60811 -1.08873 0
M  V30 8305 O 760.597 1.9398 -0.142128 0
M  V30 8306 C 760.88 0.889706 -3.48936 0
M  V30 8307 C 760.733 -0.284725 -4.48898 0
M  V30 8308 C 762.052 1.7529 -4.03685 0
M  V30 8309 H 759.171 0.15699 -0.720085 0
M  V30 8310 H 761.813 -0.293965 -1.87712 0
M  V30 8311 H 759.963 1.51166 -3.57884 0
M  V30 8312 H 761.635 -0.922531 -4.51981 0
M  V30 8313 H 759.878 -0.935427 -4.23594 0
M  V30 8314 H 760.549 0.0753865 -5.51949 0
M  V30 8315 H 763.025 1.2283 -3.97558 0
M  V30 8316 H 761.901 2.03933 -5.0961 0
M  V30 8317 H 762.162 2.70939 -3.49348 0
M  V30 8318 N 761.222 1.57436 0.0718424 0
M  V30 8319 C 762.468 1.87525 0.772149 0
M  V30 8320 C 762.801 0.79399 1.77227 0
M  V30 8321 O 762.076 -0.195733 1.93513 0
M  V30 8322 C 762.359 3.28272 1.48018 0
M  V30 8323 C 762.212 4.47052 0.49647 0
M  V30 8324 C 763.531 3.67256 2.42509 0
M  V30 8325 H 760.65 0.682049 0.279245 0
M  V30 8326 H 763.292 1.89967 0.03534 0
M  V30 8327 H 761.442 3.26321 2.10824 0
M  V30 8328 H 763.114 4.61127 -0.126375 0
M  V30 8329 H 761.357 4.33392 -0.188205 0
M  V30 8330 H 762.028 5.42315 1.02949 0
M  V30 8331 H 764.504 3.70301 1.89781 0
M  V30 8332 H 763.38 4.66626 2.89053 0
M  V30 8333 H 763.641 2.97186 3.27312 0
M  V30 8334 N 762.7 -0.34323 1.53817 0
M  V30 8335 C 763.946 -1.08504 1.71332 0
M  V30 8336 C 764.279 -1.88294 0.475285 0
M  V30 8337 O 763.554 -1.87205 -0.527688 0
M  V30 8338 C 763.837 -2.02597 2.97702 0
M  V30 8339 C 763.69 -1.26268 4.31713 0
M  V30 8340 C 765.009 -3.0241 3.19744 0
M  V30 8341 H 762.128 -0.393072 0.623429 0
M  V30 8342 H 764.77 -0.363579 1.86489 0
M  V30 8343 H 762.92 -2.64118 2.8491 0
M  V30 8344 H 764.592 -0.673594 4.56356 0
M  V30 8345 H 762.835 -0.564696 4.30109 0
M  V30 8346 H 763.506 -1.95253 5.16314 0
M  V30 8347 H 765.982 -2.51004 3.31868 0
M  V30 8348 H 764.858 -3.65449 4.09558 0
M  V30 8349 H 765.119 -3.73806 2.36054 0
M  V30 8350 N 764.178 -1.45556 -0.604258 0
M  V30 8351 C 765.455 -1.40221 -1.36373 0
M  V30 8352 C 765.835 -0.0745195 -2.10968 0
M  V30 8353 O 765.183 0.943594 -2.08107 0
M  V30 8354 C 765.393 -2.61807 -2.30777 0
M  V30 8355 C 766.741 -3.07037 -2.93281 0
M  V30 8356 O 767.765 -2.62203 -2.41097 0
M  V30 8357 O 766.624 -3.8485 -3.88011 0
M  V30 8358 H 763.718 -0.556602 -0.611656 0
M  V30 8359 H 766.264 -1.57689 -0.627069 0
M  V30 8360 H 765.036 -3.50017 -1.74939 0
M  V30 8361 H 764.659 -2.46688 -3.11818 0
M  V30 8362 N 765.656 0.84705 -1.32902 0
M  V30 8363 C 766.566 1.98845 -1.2449 0
M  V30 8364 C 767.582 1.7329 -0.15702 0
M  V30 8365 O 768.758 1.978 -0.379104 0
M  V30 8366 C 765.823 3.32679 -0.975985 0
M  V30 8367 C 764.884 3.71405 -2.15306 0
M  V30 8368 C 764.117 4.98853 -1.89688 0
M  V30 8369 O 764.34 5.64134 -0.843168 0
M  V30 8370 O 763.274 5.34889 -2.76002 0
M  V30 8371 H 767.1 2.0888 -2.2046 0
M  V30 8372 H 764.685 0.978852 -1.12867 0
M  V30 8373 H 766.567 4.12885 -0.842826 0
M  V30 8374 H 765.242 3.23667 -0.0464954 0
M  V30 8375 H 764.149 2.91743 -2.34172 0
M  V30 8376 H 765.482 3.85073 -3.06561 0
M  V30 8377 N 767.134 1.16236 1.06428 0
M  V30 8378 C 768.359 0.967688 1.83441 0
M  V30 8379 C 768.784 -0.479167 1.81894 0
M  V30 8380 O 768.142 -1.34224 1.21875 0
M  V30 8381 C 768.19 1.49806 3.2801 0
M  V30 8382 O 767.294 0.703481 4.06356 0
M  V30 8383 H 766.635 0.344468 0.56766 0
M  V30 8384 H 769.165 1.54442 1.34197 0
M  V30 8385 H 769.175 1.51495 3.78831 0
M  V30 8386 H 767.85 2.55133 3.2845 0
M  V30 8387 H 766.427 0.756986 3.65136 0
M  V30 8388 N 768.612 -1.24939 0.960631 0
M  V30 8389 C 769.837 -1.9742 0.635608 0
M  V30 8390 C 770.262 -1.70857 -0.786737 0
M  V30 8391 O 769.62 -0.968063 -1.53291 0
M  V30 8392 C 769.668 -3.48987 0.907771 0
M  V30 8393 O 768.772 -4.12399 -0.0104053 0
M  V30 8394 H 768.113 -0.61871 0.241027 0
M  V30 8395 H 770.643 -1.58901 1.28886 0
M  V30 8396 H 770.653 -3.99334 0.836453 0
M  V30 8397 H 769.328 -3.6765 1.94439 0
M  V30 8398 H 767.905 -3.72727 0.113631 0
M  V30 8399 N 770.09 -0.729906 -1.39679 0
M  V30 8400 C 771.338 -0.275077 -2.00219 0
M  V30 8401 C 771.659 1.1401 -1.58199 0
M  V30 8402 O 770.929 1.77546 -0.827904 0
M  V30 8403 H 769.509 -0.0987127 -0.740449 0
M  V30 8404 H 772.171 -0.93873 -1.70804 0
M  V30 8405 H 771.267 -0.319446 -3.10461 0
M  V30 8406 N 771.568 1.50203 -0.477153 0
M  V30 8407 C 772.845 1.95115 0.137609 0
M  V30 8408 C 773.225 1.41778 1.56404 0
M  V30 8409 O 772.573 0.621333 2.1989 0
M  V30 8410 C 772.783 3.4892 0.0747168 0
M  V30 8411 C 774.131 4.238 0.260585 0
M  V30 8412 O 775.155 3.5588 0.151021 0
M  V30 8413 O 774.014 5.44366 0.482534 0
M  V30 8414 H 771.108 0.81987 0.108364 0
M  V30 8415 H 773.654 1.60946 -0.537989 0
M  V30 8416 H 772.426 3.80308 -0.920966 0
M  V30 8417 H 772.049 3.89642 0.791509 0
M  V30 8418 N 773.046 0.209999 1.56195 0
M  V30 8419 C 773.996 -0.717978 2.164 0
M  V30 8420 C 774.98 -1.16577 1.10899 0
M  V30 8421 O 776.172 -1.12169 1.3692 0
M  V30 8422 C 773.301 -1.93091 2.8385 0
M  V30 8423 C 772.387 -1.50333 3.96561 0
M  V30 8424 N 772.778 -0.787621 4.9963 0
M  V30 8425 C 771.076 -1.79151 4.08437 0
M  V30 8426 C 771.777 -0.571204 5.78889 0
M  V30 8427 N 770.753 -1.12444 5.31843 0
M  V30 8428 H 774.555 -0.162603 2.9345 0
M  V30 8429 H 772.069 0.0107928 1.62396 0
M  V30 8430 H 774.066 -2.60635 3.25384 0
M  V30 8431 H 772.726 -2.49087 2.08293 0
M  V30 8432 H 773.737 -0.441513 5.16015 0
M  V30 8433 H 770.414 -2.36549 3.44022 0
M  V30 8434 H 771.804 -0.00237941 6.719 0
M  V30 8435 N 774.524 -1.57472 -0.0634922 0
M  V30 8436 C 775.487 -2.03268 -1.059 0
M  V30 8437 C 776.487 -0.931028 -1.31105 0
M  V30 8438 O 777.677 -1.19567 -1.26686 0
M  V30 8439 C 774.809 -2.42039 -2.40062 0
M  V30 8440 H 776.002 -2.92454 -0.664119 0
M  V30 8441 H 773.555 -1.53206 -0.309444 0
M  V30 8442 H 774.29 -1.55904 -2.84367 0
M  V30 8443 H 774.075 -3.22437 -2.23108 0
M  V30 8444 H 775.565 -2.78017 -3.11603 0
M  V30 8445 N 776.003 0.335068 -1.53997 0
M  V30 8446 C 777.231 1.09418 -1.756 0
M  V30 8447 C 777.646 1.82083 -0.499138 0
M  V30 8448 O 777.003 1.74646 0.529631 0
M  V30 8449 C 777.054 2.10115 -2.94166 0
M  V30 8450 O 776.775 1.40404 -4.14992 0
M  V30 8451 C 778.276 2.98336 -3.27888 0
M  V30 8452 H 775.496 0.32595 -0.586513 0
M  V30 8453 H 778.04 0.384693 -2.00849 0
M  V30 8454 H 776.195 2.76616 -2.71224 0
M  V30 8455 H 776.609 2.07743 -4.81605 0
M  V30 8456 H 778.083 3.6491 -4.1418 0
M  V30 8457 H 778.56 3.64814 -2.44556 0
M  V30 8458 H 779.166 2.37412 -3.52868 0
M  V30 8459 N 777.481 1.45874 0.596531 0
M  V30 8460 C 778.444 1.54988 1.68853 0
M  V30 8461 C 779.444 0.428302 1.54991 0
M  V30 8462 O 780.634 0.692158 1.59859 0
M  V30 8463 C 777.766 1.457 3.08195 0
M  V30 8464 H 778.959 2.52294 1.62135 0
M  V30 8465 H 776.512 1.33479 0.813206 0
M  V30 8466 H 777.247 0.496204 3.20481 0
M  V30 8467 H 777.032 2.27061 3.19665 0
M  V30 8468 H 778.522 1.55133 3.87716 0
M  V30 8469 N 778.959 -0.83999 1.33349 0
M  V30 8470 C 779.922 -1.93128 1.23426 0
M  V30 8471 C 780.922 -1.60065 0.153599 0
M  V30 8472 O 782.112 -1.69425 0.405049 0
M  V30 8473 C 779.244 -3.28761 0.901622 0
M  V30 8474 H 780.437 -2.03352 2.20427 0
M  V30 8475 H 777.99 -1.03194 1.17391 0
M  V30 8476 H 778.725 -3.24233 -0.0659337 0
M  V30 8477 H 778.51 -3.54138 1.68311 0
M  V30 8478 H 780 -4.08714 0.856913 0
M  V30 8479 N 780.437 -1.16799 -1.0581 0
M  V30 8480 C 781.367 -0.902241 -2.15364 0
M  V30 8481 C 782.348 0.153351 -1.69407 0
M  V30 8482 O 783.533 0.00442032 -1.94199 0
M  V30 8483 C 780.663 -0.407911 -3.44896 0
M  V30 8484 C 779.617 -1.40197 -4.04387 0
M  V30 8485 C 778.943 -0.765848 -5.29187 0
M  V30 8486 C 780.243 -2.77316 -4.42598 0
M  V30 8487 H 781.937 -1.81841 -2.37853 0
M  V30 8488 H 779.483 -0.875731 -1.14311 0
M  V30 8489 H 781.436 -0.20945 -4.20879 0
M  V30 8490 H 780.16 0.54378 -3.22041 0
M  V30 8491 H 778.819 -1.58707 -3.30466 0
M  V30 8492 H 778.467 0.192482 -5.02632 0
M  V30 8493 H 778.167 -1.42939 -5.69949 0
M  V30 8494 H 779.691 -0.577519 -6.07863 0
M  V30 8495 H 781.105 -2.62561 -5.09642 0
M  V30 8496 H 779.502 -3.4019 -4.94359 0
M  V30 8497 H 780.572 -3.32199 -3.53231 0
M  V30 8498 N 781.915 1.24427 -0.967243 0
M  V30 8499 C 782.825 2.29109 -0.504592 0
M  V30 8500 C 783.841 1.68495 0.434224 0
M  V30 8501 O 785.017 1.99041 0.307379 0
M  V30 8502 C 782.082 3.46133 0.198273 0
M  V30 8503 C 781.143 4.22149 -0.780313 0
M  V30 8504 C 780.376 5.33585 -0.110896 0
M  V30 8505 O 780.599 5.59676 1.10088 0
M  V30 8506 O 779.533 5.96522 -0.802823 0
M  V30 8507 H 783.359 2.708 -1.37482 0
M  V30 8508 H 780.944 1.30111 -0.73426 0
M  V30 8509 H 782.826 4.17205 0.593124 0
M  V30 8510 H 781.501 3.0642 1.04347 0
M  V30 8511 H 780.408 3.53454 -1.22561 0
M  V30 8512 H 781.741 4.65677 -1.59392 0
M  V30 8513 N 783.393 0.737304 1.3929 0
M  V30 8514 C 784.303 0.100464 2.34385 0
M  V30 8515 C 785.319 -0.719282 1.58437 0
M  V30 8516 O 786.495 -0.647216 1.90717 0
M  V30 8517 C 783.56 -0.794325 3.37478 0
M  V30 8518 C 782.621 0.0379345 4.29283 0
M  V30 8519 C 781.854 -0.814241 5.27452 0
M  V30 8520 O 782.077 -2.05288 5.32177 0
M  V30 8521 O 781.011 -0.241679 6.01415 0
M  V30 8522 H 784.837 0.885407 2.90507 0
M  V30 8523 H 782.422 0.497999 1.40856 0
M  V30 8524 H 784.304 -1.30622 4.00644 0
M  V30 8525 H 782.979 -1.55804 2.83737 0
M  V30 8526 H 781.886 0.595405 3.69331 0
M  V30 8527 H 783.219 0.763926 4.86236 0
M  V30 8528 N 784.871 -1.49948 0.485112 0
M  V30 8529 C 785.803 -2.26691 -0.338222 0
M  V30 8530 C 786.816 -1.32584 -0.944742 0
M  V30 8531 O 788.005 -1.57989 -0.830772 0
M  V30 8532 C 785.105 -3.04405 -1.48966 0
M  V30 8533 C 784.278 -4.25971 -0.993371 0
M  V30 8534 C 783.337 -4.85861 -2.02052 0
M  V30 8535 O 782.363 -5.46382 -1.59547 0
M  V30 8536 N 783.565 -4.74101 -3.34975 0
M  V30 8537 H 786.33 -2.97989 0.319748 0
M  V30 8538 H 783.891 -1.58772 0.316714 0
M  V30 8539 H 785.883 -3.41348 -2.17403 0
M  V30 8540 H 784.453 -2.35815 -2.05207 0
M  V30 8541 H 783.673 -3.93971 -0.134424 0
M  V30 8542 H 784.961 -5.0476 -0.639934 0
M  V30 8543 H 784.359 -4.26002 -3.72208 0
M  V30 8544 H 782.916 -5.15274 -3.9917 0
M  V30 8545 N 786.349 -0.21828 -1.56081 0
M  V30 8546 C 787.279 0.687922 -2.23136 0
M  V30 8547 C 788.26 1.20357 -1.202 0
M  V30 8548 O 789.445 1.24817 -1.48776 0
M  V30 8549 C 786.575 1.89762 -2.90874 0
M  V30 8550 C 785.529 1.51595 -4.00254 0
M  V30 8551 C 784.855 2.80415 -4.55271 0
M  V30 8552 C 786.155 0.708404 -5.17474 0
M  V30 8553 H 787.849 0.128854 -2.99123 0
M  V30 8554 H 785.395 0.0605354 -1.43873 0
M  V30 8555 H 787.348 2.53699 -3.36474 0
M  V30 8556 H 786.072 2.4816 -2.1233 0
M  V30 8557 H 784.731 0.900058 -3.55379 0
M  V30 8558 H 784.379 3.36951 -3.73461 0
M  V30 8559 H 784.079 2.55613 -5.2909 0
M  V30 8560 H 785.603 3.453 -5.03587 0
M  V30 8561 H 787.017 1.2514 -5.59476 0
M  V30 8562 H 785.414 0.557593 -5.97504 0
M  V30 8563 H 786.484 -0.285679 -4.84058 0
M  V30 8564 N 787.827 1.57504 0.0551401 0
M  V30 8565 C 788.774 2.04825 1.06373 0
M  V30 8566 C 789.744 0.932108 1.37481 0
M  V30 8567 O 790.929 1.20093 1.48265 0
M  V30 8568 C 788.069 2.51091 2.36743 0
M  V30 8569 C 787.182 3.76392 2.12021 0
M  V30 8570 C 786.317 4.11373 3.36074 0
M  V30 8571 C 785.356 5.29666 3.0679 0
M  V30 8572 N 784.493 5.60205 4.2322 0
M  V30 8573 H 789.333 2.90753 0.653216 0
M  V30 8574 H 786.87 1.43776 0.310951 0
M  V30 8575 H 788.828 2.75973 3.12881 0
M  V30 8576 H 787.458 1.68118 2.75565 0
M  V30 8577 H 786.51 3.58751 1.26498 0
M  V30 8578 H 787.822 4.62662 1.86401 0
M  V30 8579 H 786.976 4.37245 4.20597 0
M  V30 8580 H 785.715 3.23704 3.64784 0
M  V30 8581 H 784.72 5.03574 2.20664 0
M  V30 8582 H 785.945 6.18968 2.79385 0
M  V30 8583 H 783.891 4.75495 4.5193 0
M  V30 8584 H 783.808 6.40928 4.00933 0
M  V30 8585 H 785.076 5.90637 5.08692 0
M  V30 8586 N 789.305 -0.326896 1.54172 0
M  V30 8587 C 790.551 -1.06681 1.72473 0
M  V30 8588 C 790.884 -1.87779 0.49523 0
M  V30 8589 O 790.159 -1.87754 -0.507803 0
M  V30 8590 C 790.442 -1.99429 2.99834 0
M  V30 8591 C 790.295 -1.21682 4.33028 0
M  V30 8592 C 791.614 -2.99002 3.22933 0
M  V30 8593 H 788.733 -0.386438 0.627563 0
M  V30 8594 H 791.375 -0.343779 1.86864 0
M  V30 8595 H 789.525 -2.61081 2.87696 0
M  V30 8596 H 791.197 -0.625153 4.57044 0
M  V30 8597 H 789.44 -0.519045 4.30684 0
M  V30 8598 H 790.111 -1.89766 5.18356 0
M  V30 8599 H 792.587 -2.4747 3.34511 0
M  V30 8600 H 791.463 -3.61085 4.13412 0
M  V30 8601 H 791.724 -3.71281 2.40006 0
M  V30 8602 N 790.784 -1.46188 -0.588786 0
M  V30 8603 C 791.714 -1.59148 -1.70863 0
M  V30 8604 C 792.695 -0.442083 -1.64255 0
M  V30 8605 O 793.88 -0.667575 -1.82365 0
M  V30 8606 C 791.01 -1.5757 -3.09498 0
M  V30 8607 C 789.964 -2.71418 -3.30932 0
M  V30 8608 C 789.29 -2.549 -4.70032 0
M  V30 8609 C 790.59 -4.1329 -3.19356 0
M  V30 8610 H 792.284 -2.52889 -1.60274 0
M  V30 8611 H 789.83 -1.21707 -0.769638 0
M  V30 8612 H 791.783 -1.65231 -3.87655 0
M  V30 8613 H 790.507 -0.603705 -3.20972 0
M  V30 8614 H 789.166 -2.63216 -2.55172 0
M  V30 8615 H 788.814 -1.55797 -4.78264 0
M  V30 8616 H 788.514 -3.31257 -4.85327 0
M  V30 8617 H 790.038 -2.64443 -5.50366 0
M  V30 8618 H 791.452 -4.22636 -3.87365 0
M  V30 8619 H 789.849 -4.90187 -3.46175 0
M  V30 8620 H 790.919 -4.33874 -2.16522 0
M  V30 8621 N 792.262 0.832906 -1.33792 0
M  V30 8622 C 793.51 1.58539 -1.25338 0
M  V30 8623 C 793.831 1.94175 0.179204 0
M  V30 8624 O 793.101 1.61458 1.10941 0
M  V30 8625 H 791.681 0.58784 -0.460926 0
M  V30 8626 H 794.343 0.995064 -1.67584 0
M  V30 8627 H 793.439 2.51268 -1.85123 0
M  V30 8628 N 793.74 1.17359 1.05189 0
M  V30 8629 C 795.017 0.871914 1.75091 0
M  V30 8630 C 795.397 -0.627821 2.01548 0
M  V30 8631 O 794.745 -1.5791 1.65156 0
M  V30 8632 C 794.955 1.70687 3.04413 0
M  V30 8633 C 796.303 1.92684 3.78362 0
M  V30 8634 O 797.327 1.67645 3.14282 0
M  V30 8635 O 796.186 2.34765 4.93505 0
M  V30 8636 H 793.28 0.322831 0.761386 0
M  V30 8637 H 795.826 1.28054 1.11357 0
M  V30 8638 H 794.598 2.72405 2.80911 0
M  V30 8639 H 794.221 1.29602 3.75884 0
M  V30 8640 N 795.218 -1.23913 0.973828 0
M  V30 8641 C 796.634 -1.44325 0.681363 0
M  V30 8642 C 796.834 -1.86832 -0.754728 0
M  V30 8643 O 795.89 -2.01024 -1.52793 0
M  V30 8644 C 797.203 -2.50017 1.67069 0
M  V30 8645 C 798.751 -2.63838 1.68399 0
M  V30 8646 C 799.226 -3.72734 2.66145 0
M  V30 8647 N 800.717 -3.80169 2.64624 0
M  V30 8648 C 801.452 -4.6397 3.36927 0
M  V30 8649 N 800.948 -5.51911 4.18767 0
M  V30 8650 N 802.741 -4.58106 3.25722 0
M  V30 8651 H 794.892 -0.946204 1.9016 0
M  V30 8652 H 797.155 -0.477374 0.819035 0
M  V30 8653 H 796.861 -2.25686 2.69738 0
M  V30 8654 H 796.735 -3.48287 1.4483 0
M  V30 8655 H 799.122 -2.87524 0.664379 0
M  V30 8656 H 799.203 -1.65906 1.94702 0
M  V30 8657 H 798.847 -3.49797 3.68245 0
M  V30 8658 H 798.777 -4.70193 2.3712 0
M  V30 8659 H 801.268 -3.17319 2.05224 0
M  V30 8660 H 801.581 -6.12828 4.70809 0
M  V30 8661 H 799.926 -5.51556 4.2286 0
M  V30 8662 H 803.117 -3.8842 2.61242 0
M  V30 8663 H 803.29 -5.23188 3.82333 0
M  V30 8664 N 796.696 -0.74468 -1.38897 0
M  V30 8665 C 797.942 -0.306249 -2.01081 0
M  V30 8666 C 798.297 1.09724 -1.58046 0
M  V30 8667 O 797.59 1.73923 -0.803834 0
M  V30 8668 C 797.784 -0.357302 -3.55609 0
M  V30 8669 C 797.613 -1.76421 -4.13649 0
M  V30 8670 C 796.383 -2.3787 -4.4581 0
M  V30 8671 C 798.581 -2.71942 -4.36523 0
M  V30 8672 N 796.563 -3.70614 -4.89406 0
M  V30 8673 C 797.934 -3.89437 -4.8243 0
M  V30 8674 C 799.989 -2.69579 -4.18607 0
M  V30 8675 C 798.692 -5.04917 -5.123 0
M  V30 8676 C 800.718 -3.8421 -4.49596 0
M  V30 8677 C 800.08 -5.00442 -4.95719 0
M  V30 8678 H 796.179 -0.158531 -0.765762 0
M  V30 8679 H 798.763 -0.972726 -1.6866 0
M  V30 8680 H 796.934 0.278865 -3.87398 0
M  V30 8681 H 798.666 0.100599 -4.04575 0
M  V30 8682 H 795.421 -1.8971 -4.33943 0
M  V30 8683 H 795.845 -4.38791 -5.1555 0
M  V30 8684 H 800.487 -1.80905 -3.82143 0
M  V30 8685 H 798.205 -5.94213 -5.47665 0
M  V30 8686 H 801.791 -3.83691 -4.37347 0
M  V30 8687 H 800.671 -5.87671 -5.19242 0
M  V30 8688 N 798.174 1.49689 -0.493057 0
M  V30 8689 C 799.137 2.27502 0.278485 0
M  V30 8690 C 800.137 1.33184 0.901037 0
M  V30 8691 O 801.327 1.56415 0.766801 0
M  V30 8692 C 798.459 3.10881 1.39878 0
M  V30 8693 H 799.652 2.97163 -0.404219 0
M  V30 8694 H 797.205 1.54324 -0.247774 0
M  V30 8695 H 797.94 2.45767 2.11587 0
M  V30 8696 H 797.725 3.80219 0.957924 0
M  V30 8697 H 799.215 3.69673 1.94247 0
M  V30 8698 N 799.652 0.226554 1.55963 0
M  V30 8699 C 800.6 -0.697922 2.21882 0
M  V30 8700 C 801.594 -1.19586 1.19981 0
M  V30 8701 O 802.8 -1.15511 1.38048 0
M  V30 8702 H 799.175 -0.243501 0.711485 0
M  V30 8703 H 801.146 -0.118576 2.98164 0
M  V30 8704 C 799.895 -1.89309 2.91646 0
M  V30 8705 H 799.218 -1.51906 3.69817 0
M  V30 8706 H 800.658 -2.51762 3.41162 0
M  V30 8707 C 799.117 -2.75162 1.94391 0
M  V30 8708 O 799.647 -3.74071 1.46402 0
M  V30 8709 N 797.853 -2.41302 1.61932 0
M  V30 8710 H 797.4 -1.60923 2.01151 0
M  V30 8711 H 797.358 -2.99023 0.971219 0
M  V30 8712 N 801.13 -1.57531 -0.0467866 0
M  V30 8713 C 802.379 -1.87632 -0.740069 0
M  V30 8714 C 802.692 -0.822691 -1.77457 0
M  V30 8715 O 803.898 -1.01235 -2.5192 0
M  V30 8716 C 802.354 -3.32917 -1.36727 0
M  V30 8717 C 801.962 -4.46469 -0.370035 0
M  V30 8718 C 803.706 -3.72189 -2.04146 0
M  V30 8719 C 801.613 -5.82806 -1.00457 0
M  V30 8720 H 800.543 -0.70002 -0.280158 0
M  V30 8721 H 803.194 -1.83499 0.00607151 0
M  V30 8722 H 801.576 -3.31739 -2.16252 0
M  V30 8723 H 802.75 -4.59085 0.397217 0
M  V30 8724 H 801.065 -4.15914 0.201079 0
M  V30 8725 H 803.662 -4.71357 -2.52441 0
M  V30 8726 H 804.005 -3.03268 -2.85192 0
M  V30 8727 H 804.538 -3.75465 -1.3142 0
M  V30 8728 H 801.277 -6.55083 -0.233907 0
M  V30 8729 H 800.797 -5.73944 -1.74209 0
M  V30 8730 H 802.476 -6.28961 -1.51713 0
M  V30 8731 N 802.608 0.318715 -1.54344 0
M  V30 8732 C 803.848 1.06425 -1.74508 0
M  V30 8733 C 804.212 1.85087 -0.510572 0
M  V30 8734 O 805.413 2.62253 -0.589647 0
M  V30 8735 C 803.684 1.96054 -2.98827 0
M  V30 8736 S 805.243 2.77493 -3.39916 0
M  V30 8737 H 802.061 0.35921 -0.613587 0
M  V30 8738 H 804.663 0.339679 -1.92526 0
M  V30 8739 H 803.367 1.37109 -3.8682 0
M  V30 8740 H 802.898 2.72908 -2.83346 0
M  V30 8741 H 804.913 3.98544 -2.95596 0
M  V30 8742 N 804.086 1.46499 0.581025 0
M  V30 8743 C 805.502 1.31491 0.904563 0
M  V30 8744 C 805.702 0.287598 1.99437 0
M  V30 8745 O 804.758 -0.309247 2.50599 0
M  V30 8746 C 806.071 2.70163 1.32032 0
M  V30 8747 C 807.619 2.78266 1.43308 0
M  V30 8748 C 808.094 4.17524 1.8825 0
M  V30 8749 N 809.585 4.19949 1.9544 0
M  V30 8750 C 810.32 5.24594 2.31493 0
M  V30 8751 N 809.816 6.39564 2.66326 0
M  V30 8752 N 811.609 5.11961 2.32062 0
M  V30 8753 H 803.76 2.11946 -0.138856 0
M  V30 8754 H 806.023 0.948 0.000548528 0
M  V30 8755 H 805.729 3.46655 0.593554 0
M  V30 8756 H 805.603 3.00379 2.2815 0
M  V30 8757 H 807.99 2.02061 2.15071 0
M  V30 8758 H 808.071 2.51732 0.45438 0
M  V30 8759 H 807.715 4.94225 1.17065 0
M  V30 8760 H 807.645 4.41466 2.87081 0
M  V30 8761 H 810.136 3.36996 1.71004 0
M  V30 8762 H 810.449 7.15187 2.92793 0
M  V30 8763 H 808.794 6.42923 2.6396 0
M  V30 8764 H 811.985 4.21177 2.04272 0
M  V30 8765 H 812.158 5.93626 2.5983 0
M  V30 8766 N 805.565 -0.825799 1.34232 0
M  V30 8767 C 806.811 -1.58379 1.27623 0
M  V30 8768 C 807.166 -1.91789 -0.15323 0
M  V30 8769 O 806.459 -1.56965 -1.09875 0
M  V30 8770 C 806.653 -2.89362 2.09772 0
M  V30 8771 C 806.482 -2.68747 3.60562 0
M  V30 8772 C 805.252 -2.6563 4.29848 0
M  V30 8773 C 807.45 -2.40463 4.54623 0
M  V30 8774 N 805.432 -2.3653 5.66504 0
M  V30 8775 C 806.803 -2.21032 5.79262 0
M  V30 8776 C 808.858 -2.26168 4.43568 0
M  V30 8777 C 807.561 -1.88754 6.94093 0
M  V30 8778 C 809.587 -1.95284 5.58228 0
M  V30 8779 C 808.949 -1.76674 6.81884 0
M  V30 8780 H 805.048 -0.582062 0.522234 0
M  V30 8781 H 807.632 -0.968308 1.68914 0
M  V30 8782 H 805.803 -3.48838 1.70783 0
M  V30 8783 H 807.535 -3.54716 1.94831 0
M  V30 8784 H 804.29 -2.79601 3.82257 0
M  V30 8785 H 804.714 -2.24827 6.38578 0
M  V30 8786 H 809.356 -2.39262 3.48588 0
M  V30 8787 H 807.074 -1.74397 7.89057 0
M  V30 8788 H 810.66 -1.84959 5.51617 0
M  V30 8789 H 809.54 -1.53123 7.69105 0
M  V30 8790 N 807.043 -1.17915 -1.04565 0
M  V30 8791 C 808.271 -0.99616 -1.8134 0
M  V30 8792 C 808.686 0.455509 -1.83223 0
M  V30 8793 O 808.043 1.31636 -1.26405 0
M  V30 8794 C 808.094 -1.53758 -3.27171 0
M  V30 8795 O 807.815 -2.93241 -3.25486 0
M  V30 8796 C 809.316 -1.40007 -4.2061 0
M  V30 8797 H 806.536 -0.352055 -0.571225 0
M  V30 8798 H 809.08 -1.56349 -1.31815 0
M  V30 8799 H 807.235 -1.01213 -3.73945 0
M  V30 8800 H 807.649 -3.18392 -4.16805 0
M  V30 8801 H 809.123 -1.82695 -5.2089 0
M  V30 8802 H 809.6 -0.348054 -4.37819 0
M  V30 8803 H 810.206 -1.916 -3.79697 0
M  V30 8804 N 808.521 1.23394 -0.980386 0
M  V30 8805 C 809.431 2.28561 -0.528864 0
M  V30 8806 C 810.447 1.68946 0.416329 0
M  V30 8807 O 811.623 1.99355 0.286251 0
M  V30 8808 C 808.688 3.46323 0.16155 0
M  V30 8809 C 807.749 4.21297 -0.825044 0
M  V30 8810 C 806.982 5.33437 -0.167483 0
M  V30 8811 O 807.205 5.60812 1.04146 0
M  V30 8812 O 806.139 5.95637 -0.866047 0
M  V30 8813 H 809.965 2.69326 -1.40346 0
M  V30 8814 H 807.55 1.29325 -0.748019 0
M  V30 8815 H 809.432 4.17811 0.548841 0
M  V30 8816 H 808.107 3.0751 1.01092 0
M  V30 8817 H 807.014 3.52134 -1.26303 0
M  V30 8818 H 808.347 4.6396 -1.64322 0
M  V30 8819 N 809.999 0.752036 1.385 0
M  V30 8820 C 811.276 0.233075 1.94206 0
M  V30 8821 C 811.656 -1.26838 1.68746 0
M  V30 8822 O 811.004 -2.04214 1.02513 0
M  V30 8823 C 811.214 0.58509 3.44061 0
M  V30 8824 C 812.562 0.543871 4.21102 0
M  V30 8825 O 813.586 0.523291 3.52335 0
M  V30 8826 O 812.445 0.553436 5.4369 0
M  V30 8827 H 809.539 0.0483049 0.825588 0
M  V30 8828 H 812.085 0.832053 1.47902 0
M  V30 8829 H 810.857 1.62212 3.56094 0
M  V30 8830 H 810.48 -0.0419738 3.97578 0
M  V30 8831 N 811.477 -1.49425 0.500989 0
M  V30 8832 C 812.893 -1.58826 0.156951 0
M  V30 8833 C 813.093 -1.50622 -1.33848 0
M  V30 8834 O 812.149 -1.38016 -2.11442 0
M  V30 8835 C 813.462 -2.91611 0.73374 0
M  V30 8836 C 815.01 -3.05076 0.699846 0
M  V30 8837 C 815.485 -4.40479 1.2547 0
M  V30 8838 N 816.976 -4.4697 1.2154 0
M  V30 8839 C 817.711 -5.50189 1.6149 0
M  V30 8840 N 817.207 -6.60512 2.09034 0
M  V30 8841 N 819 -5.40903 1.52907 0
M  V30 8842 H 811.151 -1.53001 1.47324 0
M  V30 8843 H 813.414 -0.724765 0.61108 0
M  V30 8844 H 813.12 -3.03182 1.78251 0
M  V30 8845 H 812.994 -3.767 0.19417 0
M  V30 8846 H 815.381 -2.93134 -0.340085 0
M  V30 8847 H 815.462 -2.2167 1.27656 0
M  V30 8848 H 815.106 -4.53172 2.29341 0
M  V30 8849 H 815.036 -5.22524 0.653921 0
M  V30 8850 H 817.527 -3.67819 0.867043 0
M  V30 8851 H 817.84 -7.35372 2.37588 0
M  V30 8852 H 816.185 -6.61553 2.13008 0
M  V30 8853 H 819.376 -4.53606 1.15583 0
M  V30 8854 H 819.549 -6.21219 1.84365 0
M  V30 8855 N 812.955 -0.234822 -1.55841 0
M  V30 8856 C 814.201 0.387023 -1.99684 0
M  V30 8857 C 814.556 1.56439 -1.12003 0
M  V30 8858 O 813.849 1.90818 -0.172879 0
M  V30 8859 C 814.043 0.858032 -3.46947 0
M  V30 8860 C 813.872 -0.272152 -4.48876 0
M  V30 8861 C 812.642 -0.742896 -4.99809 0
M  V30 8862 C 814.84 -1.09501 -5.02508 0
M  V30 8863 N 812.822 -1.84675 -5.85464 0
M  V30 8864 C 814.193 -2.04748 -5.85217 0
M  V30 8865 C 816.248 -1.13295 -4.84839 0
M  V30 8866 C 814.951 -3.03483 -6.52143 0
M  V30 8867 C 816.977 -2.10854 -5.52535 0
M  V30 8868 C 816.339 -3.04838 -6.35022 0
M  V30 8869 H 812.438 0.107918 -0.774518 0
M  V30 8870 H 815.022 -0.349635 -1.91535 0
M  V30 8871 H 813.193 1.56401 -3.55518 0
M  V30 8872 H 814.925 1.45381 -3.77686 0
M  V30 8873 H 811.68 -0.32915 -4.72455 0
M  V30 8874 H 812.104 -2.40108 -6.32991 0
M  V30 8875 H 816.746 -0.420226 -4.20706 0
M  V30 8876 H 814.464 -3.7571 -7.15449 0
M  V30 8877 H 818.05 -2.1448 -5.40823 0
M  V30 8878 H 816.93 -3.79097 -6.8648 0
M  V30 8879 N 814.433 1.57553 0.0384317 0
M  V30 8880 C 815.679 1.89121 0.732199 0
M  V30 8881 C 816.012 0.831404 1.75503 0
M  V30 8882 O 815.287 -0.154642 1.93884 0
M  V30 8883 C 815.57 3.31338 1.41021 0
M  V30 8884 C 815.423 4.48004 0.401532 0
M  V30 8885 C 816.742 3.72318 2.34665 0
M  V30 8886 H 813.861 0.687819 0.264715 0
M  V30 8887 H 816.503 1.89999 -0.00496279 0
M  V30 8888 H 814.653 3.3072 2.03854 0
M  V30 8889 H 816.325 4.60755 -0.224159 0
M  V30 8890 H 814.568 4.32895 -0.280092 0
M  V30 8891 H 815.239 5.44377 0.91423 0
M  V30 8892 H 817.715 3.74243 1.81883 0
M  V30 8893 H 816.591 4.72652 2.7909 0
M  V30 8894 H 816.852 3.04062 3.20934 0
M  V30 8895 N 815.911 -0.310526 1.54511 0
M  V30 8896 C 816.841 -1.38757 1.878 0
M  V30 8897 C 817.822 -1.53353 0.735991 0
M  V30 8898 O 819.007 -1.67018 0.990887 0
M  V30 8899 C 816.137 -2.75327 2.11689 0
M  V30 8900 C 815.091 -2.75506 3.27537 0
M  V30 8901 C 814.417 -4.15275 3.36824 0
M  V30 8902 C 815.717 -2.38093 4.64875 0
M  V30 8903 H 817.411 -1.11146 2.78005 0
M  V30 8904 H 814.957 -0.533232 1.33763 0
M  V30 8905 H 816.91 -3.50752 2.33562 0
M  V30 8906 H 815.634 -3.04443 1.18245 0
M  V30 8907 H 814.293 -2.02538 3.05572 0
M  V30 8908 H 813.941 -4.41553 2.40915 0
M  V30 8909 H 813.641 -4.16299 4.14692 0
M  V30 8910 H 815.165 -4.92493 3.60947 0
M  V30 8911 H 816.579 -3.03232 4.86542 0
M  V30 8912 H 814.976 -2.50345 5.45387 0
M  V30 8913 H 816.046 -1.33227 4.66239 0
M  V30 8914 N 817.389 -1.46805 -0.573248 0
M  V30 8915 C 818.319 -1.60951 -1.69165 0
M  V30 8916 C 819.3 -0.45948 -1.63777 0
M  V30 8917 O 820.485 -0.68688 -1.81647 0
M  V30 8918 C 817.615 -1.60844 -3.07809 0
M  V30 8919 C 816.569 -2.74913 -3.28035 0
M  V30 8920 C 815.895 -2.59871 -4.67302 0
M  V30 8921 C 817.195 -4.16654 -3.14955 0
M  V30 8922 H 818.889 -2.54574 -1.57582 0
M  V30 8923 H 816.435 -1.22516 -0.756686 0
M  V30 8924 H 818.388 -1.69334 -3.85881 0
M  V30 8925 H 817.112 -0.637714 -3.20314 0
M  V30 8926 H 815.771 -2.65908 -2.52366 0
M  V30 8927 H 815.419 -1.60861 -4.76585 0
M  V30 8928 H 815.119 -3.36386 -4.81786 0
M  V30 8929 H 816.643 -2.70265 -5.4753 0
M  V30 8930 H 818.057 -4.26721 -3.82861 0
M  V30 8931 H 816.454 -4.93831 -3.40956 0
M  V30 8932 H 817.524 -4.36146 -2.11908 0
M  V30 8933 N 818.867 0.818669 -1.34668 0
M  V30 8934 C 819.799 1.93754 -1.22442 0
M  V30 8935 C 820.812 1.62103 -0.150501 0
M  V30 8936 O 822.001 1.73898 -0.402728 0
M  V30 8937 C 819.101 3.27806 -0.860031 0
M  V30 8938 C 818.274 3.8745 -2.02981 0
M  V30 8939 C 817.333 4.99887 -1.64314 0
M  V30 8940 O 816.359 5.17957 -2.36029 0
M  V30 8941 N 817.561 5.77795 -0.55976 0
M  V30 8942 H 820.326 2.04773 -2.18833 0
M  V30 8943 H 817.887 0.995472 -1.27679 0
M  V30 8944 H 819.879 4.00478 -0.583068 0
M  V30 8945 H 818.449 3.12597 0.0138253 0
M  V30 8946 H 817.669 3.07119 -2.47127 0
M  V30 8947 H 818.957 4.2403 -2.81204 0
M  V30 8948 H 818.355 5.65688 0.0363329 0
M  V30 8949 H 816.912 6.50899 -0.342541 0
M  V30 8950 N 820.346 1.18468 1.03938 0
M  V30 8951 C 821.623 0.890435 1.74157 0
M  V30 8952 C 822.003 -0.606409 2.02203 0
M  V30 8953 O 821.351 -1.5615 1.66822 0
M  V30 8954 C 821.561 1.73906 3.02585 0
M  V30 8955 C 822.909 1.96686 3.76297 0
M  V30 8956 O 823.933 1.70969 3.12487 0
M  V30 8957 O 822.792 2.39986 4.90988 0
M  V30 8958 H 819.886 0.330889 0.757919 0
M  V30 8959 H 822.432 1.29228 1.09992 0
M  V30 8960 H 821.204 2.75369 2.78006 0
M  V30 8961 H 820.827 1.33581 3.74489 0
M  V30 8962 N 821.824 -1.22873 0.986916 0
M  V30 8963 C 823.073 -1.90772 0.654911 0
M  V30 8964 C 823.386 -1.77768 -0.81595 0
M  V30 8965 O 824.592 -2.40529 -1.25929 0
M  V30 8966 C 823.048 -3.42003 1.12081 0
M  V30 8967 C 822.656 -3.63655 2.61647 0
M  V30 8968 C 824.4 -4.15638 0.862854 0
M  V30 8969 C 822.307 -5.08555 3.01871 0
M  V30 8970 H 821.237 -0.714362 0.241252 0
M  V30 8971 H 823.888 -1.39196 1.19568 0
M  V30 8972 H 822.27 -3.92725 0.508207 0
M  V30 8973 H 823.444 -3.2345 3.28202 0
M  V30 8974 H 821.759 -3.03341 2.8526 0
M  V30 8975 H 824.356 -5.22425 1.13915 0
M  V30 8976 H 824.699 -4.15814 -0.201036 0
M  V30 8977 H 825.232 -3.70924 1.43736 0
M  V30 8978 H 821.971 -5.13514 4.07411 0
M  V30 8979 H 821.491 -5.49684 2.40015 0
M  V30 8980 H 823.17 -5.76936 2.92839 0
M  V30 8981 N 823.302 -0.75937 -1.38099 0
M  V30 8982 C 824.232 -0.151077 -2.33011 0
M  V30 8983 C 825.213 0.697099 -1.5516 0
M  V30 8984 O 826.398 0.637101 -1.83452 0
M  V30 8985 C 823.528 0.738423 -3.39359 0
M  V30 8986 C 822.482 -0.0074741 -4.27999 0
M  V30 8987 C 821.808 1.00066 -5.25253 0
M  V30 8988 C 823.108 -1.17926 -5.08813 0
M  V30 8989 H 824.802 -0.943933 -2.84131 0
M  V30 8990 H 822.348 -0.455362 -1.36611 0
M  V30 8991 H 824.301 1.17369 -4.04725 0
M  V30 8992 H 823.025 1.56366 -2.86735 0
M  V30 8993 H 821.684 -0.423379 -3.64147 0
M  V30 8994 H 821.332 1.82012 -4.68914 0
M  V30 8995 H 821.032 0.506199 -5.85416 0
M  V30 8996 H 822.556 1.43512 -5.93495 0
M  V30 8997 H 823.97 -0.821262 -5.67387 0
M  V30 8998 H 822.367 -1.60497 -5.78239 0
M  V30 8999 H 823.437 -1.98938 -4.42212 0
M  V30 9000 N 824.78 1.49157 -0.508906 0
M  V30 9001 C 825.71 2.32109 0.254469 0
M  V30 9002 C 826.691 1.40754 0.955111 0
M  V30 9003 O 827.876 1.69658 0.944983 0
M  V30 9004 C 825.006 3.21458 1.3146 0
M  V30 9005 C 823.96 4.2167 0.733368 0
M  V30 9006 C 823.286 5.00009 1.8946 0
M  V30 9007 C 824.586 5.21544 -0.280875 0
M  V30 9008 H 826.28 2.9618 -0.43795 0
M  V30 9009 H 823.826 1.4243 -0.212062 0
M  V30 9010 H 825.779 3.78305 1.85643 0
M  V30 9011 H 824.503 2.55346 2.03632 0
M  V30 9012 H 823.162 3.65979 0.213231 0
M  V30 9013 H 822.81 4.30338 2.60419 0
M  V30 9014 H 822.51 5.67821 1.51173 0
M  V30 9015 H 824.034 5.59702 2.44061 0
M  V30 9016 H 825.448 5.73039 0.173095 0
M  V30 9017 H 823.845 5.97291 -0.580006 0
M  V30 9018 H 824.915 4.69969 -1.19404 0
M  V30 9019 N 826.258 0.243083 1.55714 0
M  V30 9020 C 827.205 -0.658078 2.21219 0
M  V30 9021 C 828.175 -1.1742 1.17481 0
M  V30 9022 O 829.36 -1.22937 1.45915 0
M  V30 9023 C 826.5 -1.85104 2.91257 0
M  V30 9024 C 825.613 -1.3718 4.09641 0
M  V30 9025 C 824.748 -2.52403 4.67404 0
M  V30 9026 C 823.787 -2.01321 5.78045 0
M  V30 9027 N 822.924 -3.09896 6.30007 0
M  V30 9028 H 827.764 -0.0927854 2.97856 0
M  V30 9029 H 825.301 -0.0340375 1.47061 0
M  V30 9030 H 827.259 -2.55179 3.3006 0
M  V30 9031 H 825.889 -2.38887 2.17101 0
M  V30 9032 H 824.941 -0.565232 3.76177 0
M  V30 9033 H 826.253 -0.957409 4.89525 0
M  V30 9034 H 825.407 -3.30525 5.08761 0
M  V30 9035 H 824.146 -2.97142 3.86728 0
M  V30 9036 H 823.151 -1.21667 5.36169 0
M  V30 9037 H 824.376 -1.57556 6.6057 0
M  V30 9038 H 822.322 -3.54077 5.52237 0
M  V30 9039 H 822.239 -2.72776 7.05074 0
M  V30 9040 H 823.507 -3.8809 6.76023 0
M  V30 9041 N 827.736 -1.57571 -0.0300757 0
M  V30 9042 C 828.982 -1.90355 -0.716687 0
M  V30 9043 C 829.337 -0.841568 -1.73018 0
M  V30 9044 O 828.63 0.149847 -1.91013 0
M  V30 9045 C 828.824 -3.27624 -1.42818 0
M  V30 9046 C 828.653 -4.47076 -0.485111 0
M  V30 9047 C 827.423 -5.05188 -0.106533 0
M  V30 9048 C 829.621 -5.13758 0.236059 0
M  V30 9049 N 827.603 -6.08155 0.837899 0
M  V30 9050 C 828.974 -6.1128 1.03619 0
M  V30 9051 C 831.029 -4.96977 0.30311 0
M  V30 9052 C 829.732 -6.93829 1.89721 0
M  V30 9053 C 831.758 -5.80086 1.15125 0
M  V30 9054 C 831.12 -6.77178 1.9393 0
M  V30 9055 H 827.219 -0.745417 -0.236384 0
M  V30 9056 H 829.803 -1.94686 0.0231985 0
M  V30 9057 H 827.974 -3.24224 -2.13854 0
M  V30 9058 H 829.706 -3.47927 -2.0671 0
M  V30 9059 H 826.461 -4.71277 -0.468498 0
M  V30 9060 H 826.885 -6.64311 1.30459 0
M  V30 9061 H 831.527 -4.21791 -0.291858 0
M  V30 9062 H 829.245 -7.6836 2.50298 0
M  V30 9063 H 832.831 -5.6915 1.20665 0
M  V30 9064 H 831.711 -7.4037 2.58499 0
M  V30 9065 N 829.214 0.302327 -1.54673 0
M  V30 9066 C 830.146 1.39443 -1.81902 0
M  V30 9067 C 831.159 1.46891 -0.701914 0
M  V30 9068 O 832.348 1.49233 -0.979369 0
M  V30 9069 C 829.448 2.77824 -1.9408 0
M  V30 9070 C 828.621 2.93324 -3.24468 0
M  V30 9071 C 827.68 4.12196 -3.27079 0
M  V30 9072 O 826.706 4.04344 -4.00617 0
M  V30 9073 N 827.908 5.22768 -2.52376 0
M  V30 9074 H 830.673 1.1644 -2.76155 0
M  V30 9075 H 828.234 0.492392 -1.54231 0
M  V30 9076 H 830.226 3.5559 -1.9323 0
M  V30 9077 H 828.796 2.9378 -1.06828 0
M  V30 9078 H 828.016 2.02682 -3.38103 0
M  V30 9079 H 829.304 3.0059 -4.10516 0
M  V30 9080 H 828.702 5.32027 -1.92259 0
M  V30 9081 H 827.259 5.98874 -2.57281 0
M  V30 9082 N 830.692 1.47107 0.565454 0
M  V30 9083 C 832.108 1.32443 0.890566 0
M  V30 9084 C 832.308 0.308735 1.99121 0
M  V30 9085 O 831.364 -0.28265 2.50913 0
M  V30 9086 C 832.677 2.71548 1.2916 0
M  V30 9087 C 834.225 2.7977 1.40349 0
M  V30 9088 C 834.7 4.19497 1.83811 0
M  V30 9089 N 836.191 4.21998 1.90975 0
M  V30 9090 C 836.926 5.2702 2.25916 0
M  V30 9091 N 836.422 6.42353 2.59527 0
M  V30 9092 N 838.215 5.14393 2.26619 0
M  V30 9093 H 830.366 2.11786 -0.161328 0
M  V30 9094 H 832.629 0.947952 -0.00950631 0
M  V30 9095 H 832.335 3.47265 0.556753 0
M  V30 9096 H 832.209 3.02782 2.24951 0
M  V30 9097 H 834.596 2.0433 2.12916 0
M  V30 9098 H 834.677 2.522 0.427655 0
M  V30 9099 H 834.321 4.95439 1.11816 0
M  V30 9100 H 834.251 4.44486 2.82382 0
M  V30 9101 H 836.742 3.38791 1.6742 0
M  V30 9102 H 837.055 7.18252 2.85191 0
M  V30 9103 H 835.4 6.45687 2.57126 0
M  V30 9104 H 838.591 4.2332 1.99794 0
M  V30 9105 H 838.764 5.96349 2.5352 0
M  V30 9106 N 832.17 -0.811516 1.35101 0
M  V30 9107 C 833.1 -1.9378 1.30275 0
M  V30 9108 C 834.081 -1.69165 0.178075 0
M  V30 9109 O 835.266 -1.90599 0.372256 0
M  V30 9110 C 832.396 -3.30439 1.06899 0
M  V30 9111 C 831.35 -3.69523 2.15955 0
M  V30 9112 C 830.676 -5.0429 1.77751 0
M  V30 9113 C 831.976 -3.80419 3.57881 0
M  V30 9114 H 833.67 -1.98075 2.24514 0
M  V30 9115 H 831.216 -0.951586 1.08078 0
M  V30 9116 H 833.169 -4.08828 1.02164 0
M  V30 9117 H 831.893 -3.26473 0.0910462 0
M  V30 9118 H 830.552 -2.93416 2.19778 0
M  V30 9119 H 830.2 -4.96823 0.785876 0
M  V30 9120 H 829.9 -5.31411 2.5075 0
M  V30 9121 H 831.424 -5.85125 1.74533 0
M  V30 9122 H 832.838 -4.49051 3.56407 0
M  V30 9123 H 831.235 -4.19005 4.29598 0
M  V30 9124 H 832.305 -2.82105 3.94391 0
M  V30 9125 N 833.648 -1.19017 -1.03309 0
M  V30 9126 C 834.876 -1.01534 -1.80273 0
M  V30 9127 C 835.291 0.43605 -1.83696 0
M  V30 9128 O 834.648 1.30288 -1.27794 0
M  V30 9129 C 834.699 -1.5722 -3.25522 0
M  V30 9130 O 834.42 -2.96677 -3.22358 0
M  V30 9131 C 835.921 -1.4446 -4.19102 0
M  V30 9132 H 833.141 -0.358094 -0.567459 0
M  V30 9133 H 835.685 -1.57738 -1.3015 0
M  V30 9134 H 833.84 -1.05174 -3.7285 0
M  V30 9135 H 834.254 -3.22795 -4.13405 0
M  V30 9136 H 835.728 -1.88209 -5.18923 0
M  V30 9137 H 836.205 -0.394471 -4.37425 0
M  V30 9138 H 836.811 -1.95616 -3.77643 0
M  V30 9139 N 835.127 1.22348 -0.993418 0
M  V30 9140 C 836.037 2.27987 -0.553076 0
M  V30 9141 C 837.053 1.69378 0.398386 0
M  V30 9142 O 838.229 1.99648 0.26509 0
M  V30 9143 C 835.294 3.46475 0.124809 0
M  V30 9144 C 834.355 4.20399 -0.869682 0
M  V30 9145 C 833.588 5.33229 -0.224052 0
M  V30 9146 O 833.811 5.61885 0.981915 0
M  V30 9147 O 832.745 5.94685 -0.929174 0
M  V30 9148 H 836.571 2.67822 -1.43195 0
M  V30 9149 H 834.156 1.28525 -0.761694 0
M  V30 9150 H 836.038 4.18369 0.504496 0
M  V30 9151 H 834.713 3.08565 0.978243 0
M  V30 9152 H 833.62 3.50774 -1.30031 0
M  V30 9153 H 834.953 4.62191 -1.69233 0
M  V30 9154 N 836.605 0.766683 1.37694 0
M  V30 9155 C 837.515 0.150158 2.34119 0
M  V30 9156 C 838.531 -0.685513 1.59927 0
M  V30 9157 O 839.707 -0.606616 1.92047 0
M  V30 9158 C 836.772 -0.722562 3.39087 0
M  V30 9159 C 835.833 0.128983 4.29106 0
M  V30 9160 C 835.066 -0.702178 5.29061 0
M  V30 9161 O 835.289 -1.93954 5.36412 0
M  V30 9162 O 834.223 -0.114056 6.01792 0
M  V30 9163 H 838.049 0.946829 2.88563 0
M  V30 9164 H 835.634 0.527765 1.39768 0
M  V30 9165 H 837.516 -1.22095 4.03325 0
M  V30 9166 H 836.191 -1.49751 2.86978 0
M  V30 9167 H 835.098 0.673612 3.67985 0
M  V30 9168 H 836.431 0.866892 4.84506 0
M  V30 9169 N 838.083 -1.48885 0.516809 0
M  V30 9170 C 839.015 -2.27357 -0.290061 0
M  V30 9171 C 840.028 -1.34558 -0.916406 0
M  V30 9172 O 841.217 -1.59715 -0.797073 0
M  V30 9173 C 838.317 -3.07496 -1.42476 0
M  V30 9174 C 837.49 -4.27982 -0.902793 0
M  V30 9175 C 836.549 -4.90038 -1.91701 0
M  V30 9176 O 835.575 -5.49643 -1.47922 0
M  V30 9177 N 836.777 -4.811 -3.24843 0
M  V30 9178 H 839.542 -2.97244 0.382884 0
M  V30 9179 H 837.103 -1.58064 0.35032 0
M  V30 9180 H 839.095 -3.45882 -2.10113 0
M  V30 9181 H 837.665 -2.40115 -2.00159 0
M  V30 9182 H 836.885 -3.94167 -0.0508272 0
M  V30 9183 H 838.173 -5.06003 -0.532723 0
M  V30 9184 H 837.571 -4.33801 -3.63088 0
M  V30 9185 H 836.128 -5.23625 -3.8815 0
M  V30 9186 N 839.561 -0.251338 -1.55583 0
M  V30 9187 C 840.801 0.373651 -2.00956 0
M  V30 9188 C 841.165 1.54806 -1.13574 0
M  V30 9189 O 842.366 2.24108 -1.48422 0
M  V30 9190 C 840.637 0.768919 -3.49031 0
M  V30 9191 S 842.196 1.38381 -4.16409 0
M  V30 9192 H 839.014 0.117371 -0.701245 0
M  V30 9193 H 841.616 -0.367611 -1.92013 0
M  V30 9194 H 840.32 -0.0950492 -4.1029 0
M  V30 9195 H 839.851 1.54225 -3.61909 0
M  V30 9196 H 841.866 2.6728 -4.18062 0
M  V30 9197 N 841.039 1.57585 0.0217189 0
M  V30 9198 C 841.969 2.10073 1.01939 0
M  V30 9199 C 842.95 1.0049 1.37243 0
M  V30 9200 O 844.135 1.28055 1.45999 0
M  V30 9201 C 841.265 2.58618 2.31806 0
M  V30 9202 C 840.219 3.72531 2.10724 0
M  V30 9203 C 839.545 4.07309 3.46415 0
M  V30 9204 C 840.845 5.00672 1.48743 0
M  V30 9205 H 842.539 2.9368 0.582432 0
M  V30 9206 H 840.085 1.41277 0.278715 0
M  V30 9207 H 842.038 2.9396 3.01936 0
M  V30 9208 H 840.762 1.72104 2.77575 0
M  V30 9209 H 839.421 3.37549 1.43025 0
M  V30 9210 H 839.069 3.17851 3.89846 0
M  V30 9211 H 838.769 4.84042 3.33132 0
M  V30 9212 H 840.293 4.45192 4.17895 0
M  V30 9213 H 841.707 5.33925 2.088 0
M  V30 9214 H 840.104 5.82065 1.46013 0
M  V30 9215 H 841.174 4.82769 0.45408 0
M  V30 9216 N 842.517 -0.29412 1.54831 0
M  V30 9217 C 843.764 -1.02846 1.74439 0
M  V30 9218 C 844.092 -1.87029 0.533905 0
M  V30 9219 O 843.347 -1.8962 -0.484035 0
M  V30 9220 C 843.646 -1.95782 2.99006 0
M  V30 9221 C 843.312 -1.2752 4.32492 0
M  V30 9222 C 841.974 -1.08637 4.68777 0
M  V30 9223 C 844.326 -0.787761 5.15212 0
M  V30 9224 C 841.654 -0.39704 5.85355 0
M  V30 9225 C 844.006 -0.112123 6.32501 0
M  V30 9226 C 842.67 0.0886071 6.67441 0
M  V30 9227 H 841.94 -0.376341 0.638317 0
M  V30 9228 H 844.587 -0.302684 1.89093 0
M  V30 9229 H 842.892 -2.74911 2.79162 0
M  V30 9230 H 844.589 -2.52684 3.11371 0
M  V30 9231 H 841.179 -1.43226 4.03961 0
M  V30 9232 H 845.363 -0.921341 4.87673 0
M  V30 9233 H 840.619 -0.230597 6.10965 0
M  V30 9234 H 844.793 0.27344 6.95863 0
M  V30 9235 H 842.42 0.624748 7.57628 0
M  V30 9236 N 843.995 -1.47404 -0.557645 0
M  V30 9237 C 845.22 -1.57868 -1.34508 0
M  V30 9238 C 845.645 -0.229151 -1.86699 0
M  V30 9239 O 845.003 0.794908 -1.62944 0
M  V30 9240 C 845.051 -2.60712 -2.49122 0
M  V30 9241 O 844.155 -2.15952 -3.51338 0
M  V30 9242 H 843.496 -0.530335 -0.399551 0
M  V30 9243 H 846.026 -1.93181 -0.673954 0
M  V30 9244 H 846.036 -2.81118 -2.95697 0
M  V30 9245 H 844.711 -3.58701 -2.10491 0
M  V30 9246 H 843.288 -2.05644 -3.11071 0
M  V30 9247 N 845.473 0.80434 -1.35529 0
M  V30 9248 C 846.436 1.89788 -1.28503 0
M  V30 9249 C 847.436 1.59601 -0.195983 0
M  V30 9250 O 848.626 1.68292 -0.449827 0
M  V30 9251 C 845.758 3.26255 -0.98847 0
M  V30 9252 H 846.951 1.97436 -2.25741 0
M  V30 9253 H 844.504 1.00046 -1.20086 0
M  V30 9254 H 845.239 3.24294 -0.0200541 0
M  V30 9255 H 845.024 3.49551 -1.77641 0
M  V30 9256 H 846.514 4.06298 -0.964975 0
M  V30 9257 N 846.951 1.19563 1.02676 0
M  V30 9258 C 848.197 1.01108 1.7649 0
M  V30 9259 C 848.552 -0.453152 1.86987 0
M  V30 9260 O 847.845 -1.33209 1.37717 0
M  V30 9261 C 848.039 1.61619 3.18769 0
M  V30 9262 C 847.868 3.13774 3.22142 0
M  V30 9263 C 846.638 3.82687 3.29968 0
M  V30 9264 C 848.836 4.11114 3.09014 0
M  V30 9265 N 846.818 5.2222 3.22737 0
M  V30 9266 C 848.189 5.37259 3.0944 0
M  V30 9267 C 850.244 4.02447 2.93157 0
M  V30 9268 C 848.947 6.55738 2.95636 0
M  V30 9269 C 850.973 5.20538 2.80703 0
M  V30 9270 C 850.335 6.45582 2.81785 0
M  V30 9271 H 846.434 0.424123 0.656996 0
M  V30 9272 H 849.018 1.5157 1.22207 0
M  V30 9273 H 847.189 1.13756 3.71368 0
M  V30 9274 H 848.921 1.36579 3.80957 0
M  V30 9275 H 845.676 3.3349 3.36275 0
M  V30 9276 H 846.1 5.95238 3.22523 0
M  V30 9277 H 850.742 3.0659 2.9114 0
M  V30 9278 H 848.46 7.51778 2.96403 0
M  V30 9279 H 852.046 5.15635 2.69466 0
M  V30 9280 H 850.926 7.35423 2.72254 0
M  V30 9281 N 848.429 -1.21819 0.999893 0
M  V30 9282 C 849.359 -2.26282 0.576096 0
M  V30 9283 C 850.34 -1.65317 -0.400537 0
M  V30 9284 O 851.525 -1.92028 -0.28964 0
M  V30 9285 C 848.655 -3.47147 -0.103145 0
M  V30 9286 C 847.609 -4.20594 0.792745 0
M  V30 9287 C 846.935 -5.34696 -0.0198026 0
M  V30 9288 C 848.235 -4.78533 2.09293 0
M  V30 9289 H 849.929 -2.61984 1.4493 0
M  V30 9290 H 847.475 -1.25935 0.698316 0
M  V30 9291 H 849.428 -4.1939 -0.411068 0
M  V30 9292 H 848.152 -3.1056 -1.01094 0
M  V30 9293 H 846.811 -3.50194 1.08442 0
M  V30 9294 H 846.459 -4.94352 -0.928729 0
M  V30 9295 H 846.159 -5.84764 0.576661 0
M  V30 9296 H 847.683 -6.09752 -0.321659 0
M  V30 9297 H 849.097 -5.42682 1.8485 0
M  V30 9298 H 847.494 -5.38968 2.63881 0
M  V30 9299 H 848.564 -3.98197 2.76708 0
M  V30 9300 N 849.908 -0.773975 -1.37286 0
M  V30 9301 C 851.133 -0.349561 -2.04433 0
M  V30 9302 C 851.558 1.02082 -1.5799 0
M  V30 9303 O 850.916 1.65458 -0.741172 0
M  V30 9304 C 850.964 -0.404292 -3.58326 0
M  V30 9305 O 850.068 0.594447 -4.08093 0
M  V30 9306 H 849.409 -0.150959 -0.646612 0
M  V30 9307 H 851.939 -1.05079 -1.75555 0
M  V30 9308 H 851.949 -0.262378 -4.07155 0
M  V30 9309 H 850.624 -1.40403 -3.91484 0
M  V30 9310 H 849.201 0.415468 -3.70578 0
M  V30 9311 N 851.386 1.48609 -0.524698 0
M  V30 9312 C 852.296 2.33318 0.244923 0
M  V30 9313 C 853.312 1.46153 0.944214 0
M  V30 9314 O 854.488 1.79141 0.920347 0
M  V30 9315 C 851.553 3.22149 1.28144 0
M  V30 9316 C 850.614 4.25184 0.593068 0
M  V30 9317 C 849.847 5.0977 1.5802 0
M  V30 9318 O 850.07 4.96249 2.81235 0
M  V30 9319 O 849.004 5.9134 1.1225 0
M  V30 9320 H 852.83 3.00362 -0.449066 0
M  V30 9321 H 850.415 1.46643 -0.285689 0
M  V30 9322 H 852.297 3.77111 1.88057 0
M  V30 9323 H 850.972 2.57772 1.95793 0
M  V30 9324 H 849.879 3.74071 -0.0464214 0
M  V30 9325 H 851.212 4.92183 -0.0413893 0
M  V30 9326 N 852.864 0.259585 1.55447 0
M  V30 9327 C 853.811 -0.634578 2.21905 0
M  V30 9328 C 854.781 -1.16168 1.18719 0
M  V30 9329 O 855.966 -1.21383 1.4721 0
M  V30 9330 C 853.106 -1.82005 2.93203 0
M  V30 9331 C 852.219 -1.32828 4.11073 0
M  V30 9332 C 851.354 -2.47431 4.70055 0
M  V30 9333 C 850.393 -1.95179 5.80148 0
M  V30 9334 N 849.53 -3.03197 6.33258 0
M  V30 9335 H 854.37 -0.0611886 2.97937 0
M  V30 9336 H 851.907 -0.0184378 1.47088 0
M  V30 9337 H 853.865 -2.51664 3.32748 0
M  V30 9338 H 852.495 -2.36571 2.19622 0
M  V30 9339 H 851.547 -0.525301 3.76756 0
M  V30 9340 H 852.859 -0.905435 4.90513 0
M  V30 9341 H 852.013 -3.25111 5.12238 0
M  V30 9342 H 850.752 -2.93023 3.89857 0
M  V30 9343 H 849.757 -1.15974 5.37429 0
M  V30 9344 H 850.982 -1.50541 6.62204 0
M  V30 9345 H 848.928 -3.48199 5.55961 0
M  V30 9346 H 848.845 -2.65282 7.07928 0
M  V30 9347 H 850.113 -3.80898 6.80101 0
M  V30 9348 N 854.342 -1.57594 -0.0133615 0
M  V30 9349 C 855.252 -2.10991 -1.02566 0
M  V30 9350 C 856.268 -1.05208 -1.3859 0
M  V30 9351 O 857.444 -1.37034 -1.47593 0
M  V30 9352 C 854.509 -2.59165 -2.30292 0
M  V30 9353 C 853.57 -3.79495 -2.00704 0
M  V30 9354 C 852.803 -4.25361 -3.22341 0
M  V30 9355 O 853.026 -3.70645 -4.33565 0
M  V30 9356 O 851.96 -5.17649 -3.07121 0
M  V30 9357 H 855.786 -2.97678 -0.601806 0
M  V30 9358 H 853.371 -1.47598 -0.23135 0
M  V30 9359 H 855.253 -2.90409 -3.05354 0
M  V30 9360 H 853.928 -1.75582 -2.71942 0
M  V30 9361 H 852.835 -3.53245 -1.23161 0
M  V30 9362 H 854.168 -4.64109 -1.639 0
M  V30 9363 N 855.82 0.285905 -1.54985 0
M  V30 9364 C 857.097 1.0397 -1.65679 0
M  V30 9365 C 857.477 2.04725 -0.514851 0
M  V30 9366 O 856.825 2.23257 0.486663 0
M  V30 9367 C 857.035 1.70807 -3.04345 0
M  V30 9368 C 858.383 2.22447 -3.61666 0
M  V30 9369 O 859.407 1.80815 -3.06895 0
M  V30 9370 O 858.266 2.98773 -4.57599 0
M  V30 9371 H 855.36 0.481473 -0.672394 0
M  V30 9372 H 857.906 0.282789 -1.67327 0
M  V30 9373 H 856.678 0.977271 -3.789 0
M  V30 9374 H 856.301 2.53217 -3.06541 0
M  V30 9375 N 857.298 1.47698 0.54982 0
M  V30 9376 C 858.261 1.60282 1.63837 0
M  V30 9377 C 859.261 0.477394 1.5355 0
M  V30 9378 O 860.451 0.742665 1.57576 0
M  V30 9379 C 857.583 1.55431 3.03404 0
M  V30 9380 H 858.776 2.57325 1.54026 0
M  V30 9381 H 856.329 1.35999 0.770329 0
M  V30 9382 H 857.064 0.597912 3.1874 0
M  V30 9383 H 856.849 2.37116 3.12279 0
M  V30 9384 H 858.339 1.6739 3.82584 0
M  V30 9385 N 858.776 -0.797141 1.35954 0
M  V30 9386 C 860.022 -1.55698 1.29946 0
M  V30 9387 C 860.355 -1.93808 -0.123259 0
M  V30 9388 O 859.63 -1.62102 -1.07486 0
M  V30 9389 C 859.913 -2.83926 2.2149 0
M  V30 9390 C 859.766 -2.52232 3.72423 0
M  V30 9391 C 861.085 -3.85698 2.11955 0
M  V30 9392 H 858.204 -0.56488 0.47337 0
M  V30 9393 H 860.846 -0.916421 1.66438 0
M  V30 9394 H 858.996 -3.38588 1.905 0
M  V30 9395 H 860.668 -2.0368 4.13899 0
M  V30 9396 H 858.911 -1.85286 3.92239 0
M  V30 9397 H 859.582 -3.43782 4.31877 0
M  V30 9398 H 862.058 -3.40462 2.39218 0
M  V30 9399 H 860.934 -4.73182 2.78191 0
M  V30 9400 H 861.195 -4.28083 1.10442 0
M  V30 9401 N 860.254 -1.20106 -1.0204 0
M  V30 9402 C 861.202 -0.943231 -2.12617 0
M  V30 9403 C 862.196 0.104042 -1.6908 0
M  V30 9404 O 863.402 -0.0459732 -1.79941 0
M  V30 9405 H 859.777 -0.28767 -0.694802 0
M  V30 9406 H 861.748 -1.88221 -2.3155 0
M  V30 9407 C 860.497 -0.50771 -3.43973 0
M  V30 9408 H 859.82 -1.30514 -3.77897 0
M  V30 9409 H 861.26 -0.366486 -4.22413 0
M  V30 9410 C 859.719 0.77939 -3.27761 0
M  V30 9411 O 860.249 1.83876 -3.57145 0
M  V30 9412 N 858.455 0.739931 -2.81022 0
M  V30 9413 H 858.002 -0.122426 -2.57309 0
M  V30 9414 H 857.96 1.60147 -2.70556 0
M  V30 9415 N 861.732 1.21287 -1.00634 0
M  V30 9416 C 862.679 2.23705 -0.567876 0
M  V30 9417 C 863.649 1.61043 0.406753 0
M  V30 9418 O 864.834 1.88289 0.308499 0
M  V30 9419 C 861.974 3.44961 0.097996 0
M  V30 9420 C 861.087 4.22091 -0.919972 0
M  V30 9421 C 860.222 5.30718 -0.226222 0
M  V30 9422 C 859.261 5.99581 -1.23165 0
M  V30 9423 N 858.398 6.99821 -0.565278 0
M  V30 9424 H 863.238 2.60571 -1.44592 0
M  V30 9425 H 860.775 1.28049 -0.724006 0
M  V30 9426 H 862.733 4.1418 0.501097 0
M  V30 9427 H 861.363 3.08818 0.939744 0
M  V30 9428 H 860.415 3.52038 -1.44131 0
M  V30 9429 H 861.727 4.69476 -1.68505 0
M  V30 9430 H 860.881 6.06253 0.232917 0
M  V30 9431 H 859.62 4.84343 0.571247 0
M  V30 9432 H 858.625 5.22816 -1.70128 0
M  V30 9433 H 859.85 6.48042 -2.03022 0
M  V30 9434 H 857.796 6.55656 0.212508 0
M  V30 9435 H 857.713 7.4528 -1.26858 0
M  V30 9436 H 858.981 7.79393 -0.129389 0
M  V30 9437 N 863.21 0.781244 1.36873 0
M  V30 9438 C 864.459 0.34652 1.98701 0
M  V30 9439 C 864.772 -1.08555 1.62712 0
M  V30 9440 O 865.978 -1.62213 2.17713 0
M  V30 9441 C 864.434 0.568611 3.5538 0
M  V30 9442 C 864.042 2.01156 4.003 0
M  V30 9443 C 865.786 0.197983 4.24038 0
M  V30 9444 C 863.693 2.18074 5.49725 0
M  V30 9445 H 862.623 0.125821 0.743428 0
M  V30 9446 H 865.274 0.961721 1.56279 0
M  V30 9447 H 863.656 -0.116185 3.9583 0
M  V30 9448 H 864.83 2.73209 3.71071 0
M  V30 9449 H 863.145 2.33967 3.44454 0
M  V30 9450 H 865.742 0.302778 5.33842 0
M  V30 9451 H 866.085 -0.852927 4.07469 0
M  V30 9452 H 866.618 0.835696 3.88923 0
M  V30 9453 H 863.357 3.21519 5.71232 0
M  V30 9454 H 862.877 1.50517 5.80607 0
M  V30 9455 H 864.556 1.98393 6.15832 0
M  V30 9456 N 864.689 -1.48329 0.532571 0
M  V30 9457 C 865.639 -2.2664 -0.24868 0
M  V30 9458 C 866.623 -1.32861 -0.907563 0
M  V30 9459 O 867.815 -1.57382 -0.809942 0
M  V30 9460 C 864.944 -3.18004 -1.29339 0
M  V30 9461 C 864.03 -4.19256 -0.639166 0
M  V30 9462 N 864.421 -5.05043 0.276597 0
M  V30 9463 C 862.719 -4.36906 -0.896062 0
M  V30 9464 C 863.42 -5.78009 0.654261 0
M  V30 9465 N 862.396 -5.43598 0.0147447 0
M  V30 9466 H 866.198 -2.90344 0.455792 0
M  V30 9467 H 863.712 -1.58566 0.350778 0
M  V30 9468 H 865.709 -3.72767 -1.86682 0
M  V30 9469 H 864.369 -2.55855 -1.99921 0
M  V30 9470 H 865.38 -5.13813 0.649351 0
M  V30 9471 H 862.057 -3.85945 -1.59226 0
M  V30 9472 H 863.447 -6.57039 1.40532 0
M  V30 9473 N 866.167 -0.267825 -1.55308 0
M  V30 9474 C 867.395 0.354587 -2.03839 0
M  V30 9475 C 867.81 1.50007 -1.14644 0
M  V30 9476 O 867.167 1.81752 -0.165055 0
M  V30 9477 C 867.218 0.84254 -3.51544 0
M  V30 9478 O 866.939 -0.257318 -4.37344 0
M  V30 9479 C 868.44 1.53351 -4.15931 0
M  V30 9480 H 865.66 0.0818131 -0.665994 0
M  V30 9481 H 868.204 -0.397795 -2.00594 0
M  V30 9482 H 866.359 1.54503 -3.55257 0
M  V30 9483 H 866.773 0.116593 -5.2437 0
M  V30 9484 H 868.247 1.82643 -5.20908 0
M  V30 9485 H 868.724 2.4626 -3.63666 0
M  V30 9486 H 869.33 0.87506 -4.162 0
M  V30 9487 N 867.645 1.57599 0.00500368 0
M  V30 9488 C 868.873 1.94626 0.702016 0
M  V30 9489 C 869.288 0.86953 1.67585 0
M  V30 9490 O 868.645 -0.15199 1.81866 0
M  V30 9491 C 868.696 3.31658 1.43824 0
M  V30 9492 O 868.417 4.35197 0.503467 0
M  V30 9493 C 869.918 3.83114 2.23021 0
M  V30 9494 H 867.138 0.641785 0.195841 0
M  V30 9495 H 869.682 2.04451 -0.0446287 0
M  V30 9496 H 867.837 3.23156 2.13655 0
M  V30 9497 H 868.251 5.1444 1.02235 0
M  V30 9498 H 869.725 4.81438 2.7004 0
M  V30 9499 H 870.202 3.15559 3.05482 0
M  V30 9500 H 870.808 3.94775 1.58216 0
M  V30 9501 N 869.123 -0.277682 1.55134 0
M  V30 9502 C 870.371 -1.00791 1.75173 0
M  V30 9503 C 870.692 -1.86987 0.553266 0
M  V30 9504 O 869.962 -1.91079 -0.43195 0
M  V30 9505 H 868.542 -0.375129 0.645978 0
M  V30 9506 H 871.204 -0.303041 1.9253 0
M  V30 9507 H 870.3 -1.64756 2.6507 0
M  V30 9508 N 870.601 -1.47988 -0.541979 0
M  V30 9509 C 871.848 -1.55393 -1.29843 0
M  V30 9510 C 872.176 -0.222668 -1.93221 0
M  V30 9511 O 871.431 0.785936 -1.79225 0
M  V30 9512 C 871.73 -2.63189 -2.41798 0
M  V30 9513 C 871.396 -4.05999 -1.96151 0
M  V30 9514 C 870.058 -4.44872 -1.83419 0
M  V30 9515 C 872.41 -4.95545 -1.61507 0
M  V30 9516 C 869.738 -5.71108 -1.34361 0
M  V30 9517 C 872.09 -6.22259 -1.13915 0
M  V30 9518 C 870.754 -6.59998 -0.997911 0
M  V30 9519 H 870.024 -0.568623 -0.47513 0
M  V30 9520 H 872.671 -1.81654 -0.606142 0
M  V30 9521 H 870.976 -2.30743 -3.16647 0
M  V30 9522 H 872.673 -2.66138 -2.99953 0
M  V30 9523 H 869.263 -3.75294 -2.07008 0
M  V30 9524 H 873.447 -4.662 -1.70209 0
M  V30 9525 H 868.703 -5.99083 -1.22103 0
M  V30 9526 H 872.877 -6.91048 -0.861755 0
M  V30 9527 H 870.504 -7.57704 -0.615561 0
M  V30 9528 N 872.079 0.78992 -1.36375 0
M  V30 9529 C 873.026 1.90254 -1.3066 0
M  V30 9530 C 873.996 1.65171 -0.17539 0
M  V30 9531 O 875.181 1.87338 -0.361824 0
M  V30 9532 C 872.321 3.27057 -1.10125 0
M  V30 9533 C 871.434 3.64215 -2.32317 0
M  V30 9534 C 870.569 4.90134 -2.04798 0
M  V30 9535 C 869.608 5.19969 -3.22953 0
M  V30 9536 N 868.745 6.37071 -2.95102 0
M  V30 9537 H 873.585 1.94474 -2.25796 0
M  V30 9538 H 871.122 0.951022 -1.12223 0
M  V30 9539 H 873.08 4.05947 -0.962453 0
M  V30 9540 H 871.71 3.22261 -0.186444 0
M  V30 9541 H 870.762 2.80454 -2.57002 0
M  V30 9542 H 872.074 3.82212 -3.20492 0
M  V30 9543 H 871.228 5.76888 -1.87845 0
M  V30 9544 H 869.967 4.74205 -1.13932 0
M  V30 9545 H 868.972 4.31699 -3.40465 0
M  V30 9546 H 870.197 5.37817 -4.14644 0
M  V30 9547 H 868.143 6.22535 -2.06848 0
M  V30 9548 H 868.06 6.55398 -3.76815 0
M  V30 9549 H 869.328 7.26808 -2.81727 0
M  V30 9550 N 873.557 1.20646 1.01402 0
M  V30 9551 C 874.834 0.927176 1.72229 0
M  V30 9552 C 875.214 -0.563382 2.03443 0
M  V30 9553 O 874.562 -1.52576 1.70096 0
M  V30 9554 C 874.772 1.80285 2.98828 0
M  V30 9555 C 876.12 2.04624 3.72041 0
M  V30 9556 O 877.144 1.77559 3.0879 0
M  V30 9557 O 876.003 2.50347 4.85787 0
M  V30 9558 H 873.097 0.346891 0.75073 0
M  V30 9559 H 875.643 1.31532 1.07227 0
M  V30 9560 H 874.415 2.81204 2.72102 0
M  V30 9561 H 874.038 1.41495 3.71571 0
M  V30 9562 N 875.035 -1.20752 1.01276 0
M  V30 9563 C 875.967 -2.22798 0.537917 0
M  V30 9564 C 876.98 -1.5836 -0.377638 0
M  V30 9565 O 878.169 -1.77624 -0.176599 0
M  V30 9566 C 875.269 -3.38068 -0.237364 0
M  V30 9567 C 874.442 -4.32095 0.679161 0
M  V30 9568 C 873.501 -5.26178 -0.0478676 0
M  V30 9569 O 872.527 -5.66305 0.573366 0
M  V30 9570 N 873.729 -5.65201 -1.32396 0
M  V30 9571 H 876.494 -2.64166 1.4155 0
M  V30 9572 H 874.055 -1.35254 0.889826 0
M  V30 9573 H 876.047 -3.98009 -0.73288 0
M  V30 9574 H 874.617 -2.95622 -1.0162 0
M  V30 9575 H 873.837 -3.70179 1.35505 0
M  V30 9576 H 875.125 -4.91842 1.30263 0
M  V30 9577 H 874.523 -5.34606 -1.84968 0
M  V30 9578 H 873.08 -6.27468 -1.76428 0
M  V30 9579 N 876.513 -0.788492 -1.36457 0
M  V30 9580 C 877.461 -0.174192 -2.31947 0
M  V30 9581 C 878.455 0.665974 -1.5576 0
M  V30 9582 O 879.661 0.561161 -1.71029 0
M  V30 9583 H 876.036 -0.0375538 -0.751062 0
M  V30 9584 H 878.007 -0.995011 -2.81322 0
M  V30 9585 C 876.756 0.677276 -3.4104 0
M  V30 9586 H 876.079 0.0401418 -3.9978 0
M  V30 9587 H 877.519 1.07379 -4.10178 0
M  V30 9588 C 875.978 1.83512 -2.82533 0
M  V30 9589 O 876.508 2.93164 -2.74623 0
M  V30 9590 N 874.714 1.64095 -2.39836 0
M  V30 9591 H 874.261 0.749046 -2.46469 0
M  V30 9592 H 874.219 2.41726 -2.01037 0
M  V30 9593 N 877.991 1.48044 -0.54043 0
M  V30 9594 C 878.901 2.33565 0.220163 0
M  V30 9595 C 879.917 1.47146 0.928659 0
M  V30 9596 O 881.093 1.80107 0.901295 0
M  V30 9597 C 878.158 3.2349 1.2472 0
M  V30 9598 C 877.219 4.25789 0.547938 0
M  V30 9599 C 876.452 5.11417 1.52605 0
M  V30 9600 O 876.675 4.99204 2.75956 0
M  V30 9601 O 875.609 5.92498 1.05972 0
M  V30 9602 H 879.435 2.99868 -0.480898 0
M  V30 9603 H 877.02 1.46332 -0.301226 0
M  V30 9604 H 878.902 3.79084 1.84047 0
M  V30 9605 H 877.577 2.59835 1.93048 0
M  V30 9606 H 876.484 3.74001 -0.0860941 0
M  V30 9607 H 877.817 4.92111 -0.0935896 0
M  V30 9608 N 879.47 0.276058 1.55163 0
M  V30 9609 C 880.403 -0.652386 2.18676 0
M  V30 9610 C 881.381 -1.15151 1.148 0
M  V30 9611 O 882.565 -1.22431 1.43328 0
M  V30 9612 C 879.692 -1.88982 2.81076 0
M  V30 9613 C 878.738 -1.52609 3.98262 0
M  V30 9614 S 879.571 -0.603445 5.32089 0
M  V30 9615 C 880.727 -1.84923 5.97958 0
M  V30 9616 H 880.96 -0.112733 2.97086 0
M  V30 9617 H 878.493 0.0603118 1.54282 0
M  V30 9618 H 880.451 -2.60007 3.17658 0
M  V30 9619 H 879.112 -2.40061 2.02557 0
M  V30 9620 H 878.305 -2.44689 4.40617 0
M  V30 9621 H 877.907 -0.89601 3.63108 0
M  V30 9622 H 880.199 -2.79303 6.17249 0
M  V30 9623 H 881.142 -1.46868 6.92702 0
M  V30 9624 H 881.55 -2.0146 5.27327 0
M  V30 9625 N 880.948 -1.576 0.00335426 0
M  V30 9626 C 881.878 -2.11668 -0.985839 0
M  V30 9627 C 882.859 -1.02661 -1.35627 0
M  V30 9628 O 884.044 -1.30361 -1.43943 0
M  V30 9629 C 881.174 -2.62273 -2.27662 0
M  V30 9630 C 880.128 -3.75837 -2.0477 0
M  V30 9631 C 879.454 -4.12769 -3.39891 0
M  V30 9632 C 880.754 -5.02975 -1.40759 0
M  V30 9633 H 882.448 -2.9457 -0.535637 0
M  V30 9634 H 879.994 -1.41702 -0.256204 0
M  V30 9635 H 881.947 -2.98727 -2.97221 0
M  V30 9636 H 880.671 -1.76498 -2.74802 0
M  V30 9637 H 879.33 -3.39782 -1.37636 0
M  V30 9638 H 878.978 -3.24013 -3.8474 0
M  V30 9639 H 878.678 -4.89281 -3.25389 0
M  V30 9640 H 880.202 -4.51784 -4.1076 0
M  V30 9641 H 881.616 -5.37179 -2.00279 0
M  V30 9642 H 880.013 -5.84315 -1.36734 0
M  V30 9643 H 881.083 -4.83431 -0.377218 0
M  V30 9644 N 882.426 0.269451 -1.5528 0
M  V30 9645 C 883.651 1.02299 -1.80415 0
M  V30 9646 C 884.076 1.7902 -0.577363 0
M  V30 9647 O 883.434 1.75018 0.473125 0
M  V30 9648 C 883.482 1.95445 -3.0304 0
M  V30 9649 O 882.586 3.04271 -2.78375 0
M  V30 9650 H 881.927 0.292289 -0.596207 0
M  V30 9651 H 884.457 0.297282 -2.02429 0
M  V30 9652 H 884.467 2.37333 -3.31869 0
M  V30 9653 H 883.142 1.39017 -3.91978 0
M  V30 9654 H 881.719 2.66673 -2.60653 0
M  V30 9655 N 883.904 1.48273 0.534124 0
M  V30 9656 C 885.129 1.59988 1.31979 0
M  V30 9657 C 885.554 0.258824 1.86311 0
M  V30 9658 O 884.912 -0.768885 1.64188 0
M  V30 9659 C 884.96 2.64642 2.44943 0
M  V30 9660 O 884.064 2.21515 3.47858 0
M  V30 9661 H 883.405 0.536625 0.391063 0
M  V30 9662 H 885.935 1.94229 0.643135 0
M  V30 9663 H 885.945 2.85786 2.91187 0
M  V30 9664 H 884.62 3.62004 2.04758 0
M  V30 9665 H 883.197 2.10567 3.0776 0
M  V30 9666 N 885.382 -0.782676 1.36792 0
M  V30 9667 C 886.312 -1.90973 1.34356 0
M  V30 9668 C 887.293 -1.6875 0.213917 0
M  V30 9669 O 888.478 -1.89766 0.412601 0
M  V30 9670 C 885.608 -3.28097 1.13884 0
M  V30 9671 C 884.562 -3.6486 2.23744 0
M  V30 9672 C 883.888 -5.00406 1.88408 0
M  V30 9673 C 885.188 -3.72742 3.6587 0
M  V30 9674 H 886.882 -1.93268 2.28665 0
M  V30 9675 H 884.428 -0.928447 1.10072 0
M  V30 9676 H 886.381 -4.06569 1.10813 0
M  V30 9677 H 885.105 -3.26206 0.160275 0
M  V30 9678 H 883.764 -2.88689 2.25952 0
M  V30 9679 H 883.412 -4.95044 0.891083 0
M  V30 9680 H 883.112 -5.25973 2.61966 0
M  V30 9681 H 884.636 -5.81291 1.86905 0
M  V30 9682 H 886.05 -4.4139 3.65852 0
M  V30 9683 H 884.447 -4.09798 4.38389 0
M  V30 9684 H 885.517 -2.73676 4.00287 0
M  V30 9685 N 886.86 -1.21182 -1.00761 0
M  V30 9686 C 887.792 -0.926523 -2.09638 0
M  V30 9687 C 888.805 0.0892511 -1.62555 0
M  V30 9688 O 889.994 -0.142915 -1.77927 0
M  V30 9689 C 887.094 -0.369175 -3.36883 0
M  V30 9690 C 886.267 -1.43866 -4.13063 0
M  V30 9691 C 885.326 -0.891015 -5.18601 0
M  V30 9692 O 884.352 -1.57384 -5.47009 0
M  V30 9693 N 885.554 0.295057 -5.7975 0
M  V30 9694 H 888.319 -1.8638 -2.34697 0
M  V30 9695 H 885.88 -1.11671 -1.17223 0
M  V30 9696 H 887.872 0.011534 -4.04698 0
M  V30 9697 H 886.442 0.472861 -3.09003 0
M  V30 9698 H 885.662 -1.99332 -3.40089 0
M  V30 9699 H 886.95 -2.15866 -4.60738 0
M  V30 9700 H 886.348 0.8669 -5.59018 0
M  V30 9701 H 884.905 0.617306 -6.4887 0
M  V30 9702 N 888.338 1.20213 -1.01915 0
M  V30 9703 C 889.285 2.2309 -0.591571 0
M  V30 9704 C 890.255 1.61465 0.389649 0
M  V30 9705 O 891.44 1.88606 0.288511 0
M  V30 9706 C 888.58 3.45045 0.0614028 0
M  V30 9707 C 887.693 4.21091 -0.964688 0
M  V30 9708 C 886.828 5.30448 -0.282499 0
M  V30 9709 C 885.867 5.98241 -1.29517 0
M  V30 9710 N 885.004 6.99182 -0.639472 0
M  V30 9711 H 889.844 2.59023 -1.47347 0
M  V30 9712 H 887.381 1.27274 -0.737547 0
M  V30 9713 H 889.339 4.14688 0.45714 0
M  V30 9714 H 887.969 3.09797 0.906937 0
M  V30 9715 H 887.021 3.50489 -1.47857 0
M  V30 9716 H 888.333 4.67662 -1.73475 0
M  V30 9717 H 887.487 6.06466 0.168603 0
M  V30 9718 H 886.226 4.84922 0.519843 0
M  V30 9719 H 885.231 5.20982 -1.75663 0
M  V30 9720 H 886.456 6.45853 -2.09884 0
M  V30 9721 H 884.402 6.55844 0.142955 0
M  V30 9722 H 884.319 7.43893 -1.34756 0
M  V30 9723 H 885.587 7.79212 -0.212047 0
M  V30 9724 N 889.816 0.795718 1.36037 0
M  V30 9725 C 890.746 0.212803 2.32528 0
M  V30 9726 C 891.727 -0.655716 1.56953 0
M  V30 9727 O 892.912 -0.588238 1.85077 0
M  V30 9728 C 890.042 -0.648189 3.41198 0
M  V30 9729 C 888.996 0.120948 4.27829 0
M  V30 9730 C 888.322 -0.861044 5.27722 0
M  V30 9731 C 889.622 1.31375 5.05508 0
M  V30 9732 H 891.316 1.01893 2.81528 0
M  V30 9733 H 888.862 0.491422 1.35355 0
M  V30 9734 H 890.815 -1.06597 4.07695 0
M  V30 9735 H 889.539 -1.48709 2.9078 0
M  V30 9736 H 888.198 0.519777 3.62897 0
M  V30 9737 H 887.846 -1.69515 4.73575 0
M  V30 9738 H 887.546 -0.350808 5.86552 0
M  V30 9739 H 889.07 -1.27726 5.97092 0
M  V30 9740 H 890.484 0.971406 5.6501 0
M  V30 9741 H 888.881 1.75772 5.73781 0
M  V30 9742 H 889.951 2.10593 4.36782 0
M  V30 9743 N 891.294 -1.47756 0.548274 0
M  V30 9744 C 892.257 -2.28379 -0.193857 0
M  V30 9745 C 893.257 -1.36436 -0.850986 0
M  V30 9746 O 894.447 -1.59154 -0.70822 0
M  V30 9747 C 891.579 -3.15858 -1.28243 0
M  V30 9748 H 892.772 -2.95458 0.514231 0
M  V30 9749 H 890.325 -1.53298 0.304879 0
M  V30 9750 H 891.06 -2.5345 -2.0232 0
M  V30 9751 H 890.845 -3.83512 -0.816148 0
M  V30 9752 H 892.335 -3.76627 -1.80393 0
M  V30 9753 N 892.772 -0.284283 -1.55015 0
M  V30 9754 C 894.018 0.330352 -2.00091 0
M  V30 9755 C 894.351 1.54814 -1.17244 0
M  V30 9756 O 893.626 1.92954 -0.244753 0
M  V30 9757 C 893.909 0.703492 -3.53161 0
M  V30 9758 C 893.762 -0.522275 -4.46758 0
M  V30 9759 C 895.081 1.53645 -4.12409 0
M  V30 9760 H 892.2 0.118599 -0.727395 0
M  V30 9761 H 894.842 -0.393054 -1.8589 0
M  V30 9762 H 892.992 1.31983 -3.65394 0
M  V30 9763 H 894.664 -1.16082 -4.46456 0
M  V30 9764 H 892.907 -1.15865 -4.1804 0
M  V30 9765 H 893.578 -0.217295 -5.51572 0
M  V30 9766 H 896.054 1.01583 -4.0351 0
M  V30 9767 H 894.93 1.76633 -5.19704 0
M  V30 9768 H 895.191 2.5204 -3.63219 0
M  V30 9769 N 894.251 1.57596 -0.0117121 0
M  V30 9770 C 895.181 2.12188 0.9746 0
M  V30 9771 C 896.162 1.03379 1.35081 0
M  V30 9772 O 897.347 1.31123 1.4325 0
M  V30 9773 C 894.477 2.63477 2.26268 0
M  V30 9774 C 893.431 3.76917 2.02774 0
M  V30 9775 C 892.757 4.14566 3.37697 0
M  V30 9776 C 894.057 5.03715 1.38089 0
M  V30 9777 H 895.751 2.9485 0.520007 0
M  V30 9778 H 893.297 1.41836 0.248685 0
M  V30 9779 H 895.25 3.00299 2.95633 0
M  V30 9780 H 893.974 1.77953 2.73862 0
M  V30 9781 H 892.633 3.40507 1.35832 0
M  V30 9782 H 892.281 3.26048 3.83016 0
M  V30 9783 H 891.981 4.91 3.22789 0
M  V30 9784 H 893.505 4.53956 4.08358 0
M  V30 9785 H 894.919 5.38233 1.97428 0
M  V30 9786 H 893.316 5.85032 1.33634 0
M  V30 9787 H 894.386 4.83624 0.351575 0
M  V30 9788 N 895.729 -0.261212 1.5542 0
M  V30 9789 C 896.676 -1.32315 1.89107 0
M  V30 9790 C 897.646 -1.48517 0.743767 0
M  V30 9791 O 898.831 -1.62733 0.996123 0
M  V30 9792 C 895.971 -2.67626 2.17877 0
M  V30 9793 C 895.084 -2.59549 3.45338 0
M  V30 9794 C 894.219 -3.87118 3.63748 0
M  V30 9795 C 893.258 -3.736 4.8486 0
M  V30 9796 N 892.395 -4.93029 4.99867 0
M  V30 9797 H 897.235 -1.02886 2.79675 0
M  V30 9798 H 894.772 -0.496812 1.38456 0
M  V30 9799 H 896.73 -3.4637 2.32559 0
M  V30 9800 H 895.36 -2.95232 1.30529 0
M  V30 9801 H 894.412 -1.72452 3.39064 0
M  V30 9802 H 895.724 -2.45465 4.34222 0
M  V30 9803 H 894.878 -4.74305 3.78312 0
M  V30 9804 H 893.617 -4.04084 2.73071 0
M  V30 9805 H 892.622 -2.84797 4.70288 0
M  V30 9806 H 893.847 -3.58143 5.76984 0
M  V30 9807 H 891.793 -5.10383 4.12123 0
M  V30 9808 H 891.71 -4.81521 5.82815 0
M  V30 9809 H 892.978 -5.81754 5.18828 0
M  V30 9810 N 897.207 -1.48554 -0.526253 0
M  V30 9811 C 898.17 -1.62868 -1.61266 0
M  V30 9812 C 899.17 -0.501762 -1.52771 0
M  V30 9813 O 900.36 -0.76764 -1.56374 0
M  V30 9814 C 897.492 -1.60238 -3.00893 0
M  V30 9815 H 898.685 -2.59742 -1.49913 0
M  V30 9816 H 896.238 -1.37207 -0.748595 0
M  V30 9817 H 896.973 -0.648545 -3.17749 0
M  V30 9818 H 896.758 -2.42054 -3.08468 0
M  V30 9819 H 898.248 -1.73455 -3.79872 0
M  V30 9820 N 898.685 0.775411 -1.37205 0
M  V30 9821 C 899.962 1.5229 -1.22748 0
M  V30 9822 C 900.342 2.10327 0.180487 0
M  V30 9823 O 899.69 1.95206 1.18772 0
M  V30 9824 C 899.9 2.60671 -2.3206 0
M  V30 9825 C 901.248 3.28173 -2.6942 0
M  V30 9826 O 902.272 2.70963 -2.31208 0
M  V30 9827 O 901.131 4.31598 -3.3524 0
M  V30 9828 H 898.225 0.674326 -0.478762 0
M  V30 9829 H 900.771 0.812691 -1.48975 0
M  V30 9830 H 899.543 2.1588 -3.26361 0
M  V30 9831 H 899.166 3.39296 -2.07277 0
M  V30 9832 N 900.163 1.21714 1.00117 0
M  V30 9833 C 901.093 1.00397 2.10815 0
M  V30 9834 C 902.074 -0.0723502 1.69946 0
M  V30 9835 O 903.259 0.0882398 1.93999 0
M  V30 9836 C 900.389 0.572001 3.42557 0
M  V30 9837 C 899.343 1.59331 3.97237 0
M  V30 9838 C 898.669 1.01746 5.2493 0
M  V30 9839 C 899.969 2.98117 4.28863 0
M  V30 9840 H 901.663 1.92983 2.28906 0
M  V30 9841 H 899.209 0.929273 1.10002 0
M  V30 9842 H 901.162 0.410018 4.19401 0
M  V30 9843 H 899.886 -0.38951 3.24269 0
M  V30 9844 H 898.545 1.74293 3.22518 0
M  V30 9845 H 898.193 0.0475491 5.02978 0
M  V30 9846 H 897.893 1.69969 5.62481 0
M  V30 9847 H 899.417 0.866881 6.04415 0
M  V30 9848 H 900.831 2.86578 4.96534 0
M  V30 9849 H 899.228 3.63389 4.77565 0
M  V30 9850 H 900.298 3.48674 3.36979 0
M  V30 9851 N 901.641 -1.19671 1.02551 0
M  V30 9852 C 902.551 -2.26441 0.613329 0
M  V30 9853 C 903.567 -1.70375 -0.353339 0
M  V30 9854 O 904.743 -2.0028 -0.212064 0
M  V30 9855 C 901.808 -3.46684 -0.0329028 0
M  V30 9856 C 900.869 -4.17945 0.980837 0
M  V30 9857 C 900.102 -5.32448 0.36535 0
M  V30 9858 O 900.325 -5.64291 -0.832596 0
M  V30 9859 O 899.259 -5.92012 1.08652 0
M  V30 9860 H 903.085 -2.63932 1.50246 0
M  V30 9861 H 900.67 -1.2646 0.795502 0
M  V30 9862 H 902.552 -4.1956 -0.393395 0
M  V30 9863 H 901.227 -3.1105 -0.896089 0
M  V30 9864 H 900.134 -3.47204 1.39286 0
M  V30 9865 H 901.467 -4.57542 1.81428 0
M  V30 9866 N 903.119 -0.802921 -1.35613 0
M  V30 9867 C 904.066 -0.20874 -2.29854 0
M  V30 9868 C 905.036 0.655128 -1.52634 0
M  V30 9869 O 906.221 0.600979 -1.81088 0
M  V30 9870 C 903.361 0.639663 -3.3912 0
M  V30 9871 C 902.474 -0.244234 -4.31309 0
M  V30 9872 C 901.609 0.611825 -5.27665 0
M  V30 9873 C 900.648 -0.272698 -6.11492 0
M  V30 9874 N 899.785 0.543122 -6.99996 0
M  V30 9875 H 904.625 -1.01782 -2.80079 0
M  V30 9876 H 902.162 -0.513465 -1.37848 0
M  V30 9877 H 904.12 1.14668 -4.01132 0
M  V30 9878 H 902.75 1.41404 -2.9018 0
M  V30 9879 H 901.802 -0.869322 -3.70334 0
M  V30 9880 H 903.114 -0.925202 -4.90144 0
M  V30 9881 H 902.268 1.18412 -5.95032 0
M  V30 9882 H 901.007 1.32637 -4.69317 0
M  V30 9883 H 900.012 -0.857287 -5.43075 0
M  V30 9884 H 901.237 -0.985051 -6.71918 0
M  V30 9885 H 899.183 1.24171 -6.44141 0
M  V30 9886 H 899.1 -0.0798767 -7.55958 0
M  V30 9887 H 900.368 1.09881 -7.71717 0
M  V30 9888 N 904.597 1.47463 -0.556102 0
M  V30 9889 C 905.544 2.29998 0.192213 0
M  V30 9890 C 906.514 1.38993 0.909403 0
M  V30 9891 O 907.699 1.67954 0.905316 0
M  V30 9892 C 904.839 3.22932 1.21692 0
M  V30 9893 C 903.952 4.29027 0.505908 0
M  V30 9894 C 903.087 5.09114 1.51581 0
M  V30 9895 C 902.126 6.06984 0.789714 0
M  V30 9896 N 901.263 6.80033 1.74639 0
M  V30 9897 H 906.103 2.93468 -0.517734 0
M  V30 9898 H 903.64 1.44654 -0.267147 0
M  V30 9899 H 905.598 3.75234 1.8236 0
M  V30 9900 H 904.228 2.61329 1.89491 0
M  V30 9901 H 903.28 3.7979 -0.215276 0
M  V30 9902 H 904.592 4.9876 -0.062958 0
M  V30 9903 H 903.746 5.6556 2.19606 0
M  V30 9904 H 902.485 4.3928 2.11859 0
M  V30 9905 H 901.49 5.49717 0.0955382 0
M  V30 9906 H 902.715 6.78827 0.192688 0
M  V30 9907 H 900.661 6.12931 2.33777 0
M  V30 9908 H 900.578 7.45933 1.22965 0
M  V30 9909 H 901.846 7.41054 2.41782 0
M  V30 9910 N 906.075 0.2925 1.54862 0
M  V30 9911 C 907.022 -0.587365 2.23201 0
M  V30 9912 C 907.992 -1.13623 1.21157 0
M  V30 9913 O 909.177 -1.18233 1.49752 0
M  V30 9914 C 906.317 -1.75745 2.96998 0
M  V30 9915 C 905.43 -1.24078 4.13798 0
M  V30 9916 C 904.565 -2.37405 4.75197 0
M  V30 9917 C 903.604 -1.82829 5.84157 0
M  V30 9918 N 902.741 -2.89696 6.39547 0
M  V30 9919 H 907.581 0.00202207 2.98 0
M  V30 9920 H 905.118 0.012766 1.47094 0
M  V30 9921 H 907.076 -2.44549 3.38011 0
M  V30 9922 H 905.706 -2.3186 2.24591 0
M  V30 9923 H 904.758 -0.445268 3.77785 0
M  V30 9924 H 906.07 -0.801186 4.92324 0
M  V30 9925 H 905.224 -3.14172 5.19019 0
M  V30 9926 H 903.963 -2.84688 3.95985 0
M  V30 9927 H 902.968 -1.04548 5.39768 0
M  V30 9928 H 904.193 -1.36461 6.65248 0
M  V30 9929 H 902.139 -3.36328 5.63222 0
M  V30 9930 H 902.056 -2.50206 7.13395 0
M  V30 9931 H 903.324 -3.66386 6.88027 0
M  V30 9932 N 907.553 -1.57587 0.0200696 0
M  V30 9933 C 908.485 -2.06555 -0.993359 0
M  V30 9934 C 909.498 -0.987227 -1.29451 0
M  V30 9935 O 910.687 -1.26361 -1.26075 0
M  V30 9936 C 907.787 -2.4675 -2.3231 0
M  V30 9937 C 906.96 -3.77554 -2.20843 0
M  V30 9938 C 906.019 -4.04397 -3.36674 0
M  V30 9939 O 905.045 -4.7478 -3.13963 0
M  V30 9940 N 906.247 -3.53861 -4.60176 0
M  V30 9941 H 909.012 -2.9412 -0.575617 0
M  V30 9942 H 906.573 -1.61038 -0.166889 0
M  V30 9943 H 908.565 -2.61806 -3.08609 0
M  V30 9944 H 907.135 -1.64598 -2.65756 0
M  V30 9945 H 906.355 -3.72382 -1.29327 0
M  V30 9946 H 907.643 -4.63271 -2.10375 0
M  V30 9947 H 907.041 -2.96904 -4.81523 0
M  V30 9948 H 905.598 -3.74213 -5.33674 0
M  V30 9949 N 909.032 0.252966 -1.55557 0
M  V30 9950 C 910.257 1.0038 -1.8149 0
M  V30 9951 C 910.682 1.78397 -0.596318 0
M  V30 9952 O 910.04 1.7551 0.454535 0
M  V30 9953 C 910.088 1.9222 -3.05096 0
M  V30 9954 O 909.192 3.01302 -2.81587 0
M  V30 9955 H 908.533 0.285949 -0.599274 0
M  V30 9956 H 911.063 0.275795 -2.02733 0
M  V30 9957 H 911.073 2.338 -3.34368 0
M  V30 9958 H 909.748 1.34852 -3.93431 0
M  V30 9959 H 908.325 2.63894 -2.63466 0
M  V30 9960 N 910.51 1.48831 0.518367 0
M  V30 9961 C 911.443 1.588 1.63884 0
M  V30 9962 C 912.421 0.437847 1.56594 0
M  V30 9963 O 913.605 0.651042 1.769 0
M  V30 9964 C 910.732 1.52681 3.02335 0
M  V30 9965 C 909.778 2.7268 3.27945 0
M  V30 9966 S 910.611 4.34536 3.12951 0
M  V30 9967 C 911.767 4.31034 4.53828 0
M  V30 9968 H 912 2.53587 1.5518 0
M  V30 9969 H 909.533 1.37507 0.702218 0
M  V30 9970 H 911.491 1.49837 3.82177 0
M  V30 9971 H 910.152 0.592107 3.08469 0
M  V30 9972 H 909.345 2.64569 4.28974 0
M  V30 9973 H 908.947 2.72847 2.55794 0
M  V30 9974 H 911.239 4.01683 5.45579 0
M  V30 9975 H 912.182 5.32282 4.66991 0
M  V30 9976 H 912.59 3.61343 4.33695 0
M  V30 9977 N 911.988 -0.768124 1.37614 0
M  V30 9978 C 913.236 -1.52379 1.3276 0
M  V30 9979 C 913.557 -1.94809 -0.0863564 0
M  V30 9980 O 912.827 -1.66568 -1.03112 0
M  V30 9981 H 911.407 -0.565179 0.488448 0
M  V30 9982 H 914.069 -0.913974 1.72141 0
M  V30 9983 H 913.165 -2.4215 1.96901 0
M  V30 9984 N 913.466 -1.22244 -0.994698 0
M  V30 9985 C 914.413 -0.990906 -2.08446 0
M  V30 9986 C 915.383 0.086737 -1.65873 0
M  V30 9987 O 916.568 -0.0624882 -1.90698 0
M  V30 9988 C 913.708 -0.572813 -3.40313 0
M  V30 9989 C 912.821 -1.72103 -3.96238 0
M  V30 9990 C 911.956 -1.2511 -5.16257 0
M  V30 9991 C 910.995 -2.37098 -5.64315 0
M  V30 9992 N 910.132 -1.91164 -6.75574 0
M  V30 9993 H 914.972 -1.92377 -2.27585 0
M  V30 9994 H 912.509 -0.958576 -1.11578 0
M  V30 9995 H 914.467 -0.311594 -4.16035 0
M  V30 9996 H 913.097 0.323044 -3.21179 0
M  V30 9997 H 912.149 -2.09662 -3.17405 0
M  V30 9998 H 913.461 -2.56347 -4.27888 0
M  V30 9999 H 912.615 -0.947152 -5.99261 0
M  V30 10000 H 911.354 -0.378836 -4.86226 0
M  V30 10001 H 910.359 -2.68283 -4.799 0
M  V30 10002 H 911.584 -3.24837 -5.96371 0
M  V30 10003 H 909.53 -1.06298 -6.47331 0
M  V30 10004 H 909.447 -2.68975 -7.06533 0
M  V30 10005 H 910.715 -1.63833 -7.62088 0
M  V30 10006 N 914.944 1.19125 -1.03184 0
M  V30 10007 C 915.874 2.24675 -0.635889 0
M  V30 10008 C 916.855 1.66321 0.356565 0
M  V30 10009 O 918.04 1.92728 0.238625 0
M  V30 10010 C 915.17 3.47298 0.011069 0
M  V30 10011 C 914.124 4.18345 -0.903979 0
M  V30 10012 C 913.45 5.34561 -0.12197 0
M  V30 10013 C 914.75 4.72816 -2.21907 0
M  V30 10014 H 916.444 2.5805 -1.51825 0
M  V30 10015 H 913.99 1.24039 -0.73146 0
M  V30 10016 H 915.943 4.20333 0.299729 0
M  V30 10017 H 914.667 3.13131 0.928245 0
M  V30 10018 H 913.326 3.47196 -1.17688 0
M  V30 10019 H 912.974 4.9664 0.797334 0
M  V30 10020 H 912.674 5.83029 -0.731498 0
M  V30 10021 H 914.198 6.10391 0.159881 0
M  V30 10022 H 915.612 5.3759 -1.99173 0
M  V30 10023 H 914.009 5.31782 -2.78078 0
M  V30 10024 H 915.079 3.9072 -2.87168 0
M  V30 10025 N 916.422 0.810101 1.35185 0
M  V30 10026 C 917.652 0.404109 2.02609 0
M  V30 10027 C 918.06 -0.990748 1.61186 0
M  V30 10028 O 917.403 -1.65038 0.80674 0
M  V30 10029 C 917.465 0.412047 3.57131 0
M  V30 10030 C 917.129 1.75802 4.21832 0
M  V30 10031 C 918.126 2.71687 4.43263 0
M  V30 10032 C 915.811 2.04299 4.58876 0
M  V30 10033 C 917.805 3.9425 5.00845 0
M  V30 10034 C 915.492 3.27125 5.16171 0
M  V30 10035 C 916.49 4.21918 5.37098 0
M  V30 10036 O 916.178 5.42576 5.93184 0
M  V30 10037 H 915.91 0.161914 0.656323 0
M  V30 10038 H 918.464 1.09605 1.73712 0
M  V30 10039 H 916.694 -0.336509 3.85233 0
M  V30 10040 H 918.383 0.0278817 4.0589 0
M  V30 10041 H 919.149 2.50964 4.15021 0
M  V30 10042 H 915.028 1.31324 4.41899 0
M  V30 10043 H 918.572 4.68251 5.17094 0
M  V30 10044 H 914.469 3.47718 5.43841 0
M  V30 10045 H 915.237 5.43921 6.11631 0
M  V30 10046 N 917.9 -1.47166 0.563914 0
M  V30 10047 C 919.125 -2.0735 0.0454698 0
M  V30 10048 C 919.55 -1.41281 -1.24182 0
M  V30 10049 O 918.908 -0.490084 -1.7455 0
M  V30 10050 C 918.956 -3.60378 -0.126453 0
M  V30 10051 O 918.06 -3.94934 -1.18746 0
M  V30 10052 H 917.401 -0.661773 0.0543377 0
M  V30 10053 H 919.931 -1.89086 0.781508 0
M  V30 10054 H 919.941 -4.06593 -0.338554 0
M  V30 10055 H 918.616 -4.07862 0.81373 0
M  V30 10056 H 917.193 -3.60455 -0.955318 0
M  V30 10057 N 919.378 -0.300708 -1.54705 0
M  V30 10058 C 920.308 0.568675 -2.26469 0
M  V30 10059 C 921.289 1.13817 -1.26411 0
M  V30 10060 O 922.474 1.16756 -1.55183 0
M  V30 10061 C 919.604 1.74077 -3.00524 0
M  V30 10062 C 918.558 1.30165 -4.07727 0
M  V30 10063 C 917.884 2.55888 -4.69495 0
M  V30 10064 C 919.184 0.433106 -5.20501 0
M  V30 10065 H 920.878 -0.0298851 -2.99385 0
M  V30 10066 H 918.424 -0.0158135 -1.43991 0
M  V30 10067 H 920.377 2.35506 -3.49449 0
M  V30 10068 H 919.101 2.36556 -2.25186 0
M  V30 10069 H 917.76 0.710414 -3.59651 0
M  V30 10070 H 917.408 3.16681 -3.90797 0
M  V30 10071 H 917.108 2.27207 -5.41895 0
M  V30 10072 H 918.632 3.18121 -5.21183 0
M  V30 10073 H 920.046 0.95307 -5.65322 0
M  V30 10074 H 918.443 0.240085 -5.9962 0
M  V30 10075 H 919.513 -0.541866 -4.81863 0
M  V30 10076 N 920.856 1.57574 -0.0284266 0
M  V30 10077 C 921.803 2.10176 0.953658 0
M  V30 10078 C 922.773 1.00367 1.32347 0
M  V30 10079 O 923.958 1.27783 1.4169 0
M  V30 10080 C 921.098 2.63287 2.231 0
M  V30 10081 C 920.211 3.87102 1.91771 0
M  V30 10082 C 919.346 4.28609 3.13795 0
M  V30 10083 C 918.385 5.45184 2.78282 0
M  V30 10084 N 917.522 5.81851 3.92929 0
M  V30 10085 H 922.362 2.93806 0.498176 0
M  V30 10086 H 919.899 1.45222 0.234302 0
M  V30 10087 H 921.857 2.9217 2.97813 0
M  V30 10088 H 920.487 1.82489 2.66266 0
M  V30 10089 H 919.539 3.64952 1.07303 0
M  V30 10090 H 920.851 4.71892 1.61615 0
M  V30 10091 H 920.005 4.58925 3.96829 0
M  V30 10092 H 918.744 3.42585 3.47112 0
M  V30 10093 H 917.749 5.14563 1.93661 0
M  V30 10094 H 918.974 6.32907 2.46182 0
M  V30 10095 H 916.92 4.98782 4.2609 0
M  V30 10096 H 916.837 6.6128 3.66395 0
M  V30 10097 H 918.105 6.16772 4.76669 0
M  V30 10098 N 922.334 -0.244713 1.55689 0
M  V30 10099 C 923.266 -1.32595 1.86952 0
M  V30 10100 C 924.279 -1.44185 0.755948 0
M  V30 10101 O 925.468 -1.45496 1.03408 0
M  V30 10102 C 922.568 -2.70429 2.04258 0
M  V30 10103 C 921.741 -2.8108 3.35131 0
M  V30 10104 C 920.8 -3.99773 3.42152 0
M  V30 10105 O 919.826 -3.89197 4.15348 0
M  V30 10106 N 921.028 -5.13041 2.71604 0
M  V30 10107 H 923.793 -1.06111 2.80287 0
M  V30 10108 H 921.354 -0.434811 1.55952 0
M  V30 10109 H 923.346 -3.48173 2.06295 0
M  V30 10110 H 921.916 -2.89612 1.17658 0
M  V30 10111 H 921.136 -1.89994 3.45392 0
M  V30 10112 H 922.424 -2.85147 4.21389 0
M  V30 10113 H 921.822 -5.24525 2.11872 0
M  V30 10114 H 920.379 -5.88912 2.79331 0
M  V30 10115 N 923.813 -1.49104 -0.510467 0
M  V30 10116 C 925.09 -1.48609 -1.27179 0
M  V30 10117 C 925.47 -0.208537 -2.10067 0
M  V30 10118 O 924.818 0.809335 -2.13687 0
M  V30 10119 C 925.028 -2.75953 -2.1366 0
M  V30 10120 C 926.376 -3.25067 -2.73161 0
M  V30 10121 O 927.4 -2.77005 -2.23934 0
M  V30 10122 O 926.259 -4.08747 -3.62751 0
M  V30 10123 H 923.353 -0.594374 -0.57502 0
M  V30 10124 H 925.899 -1.61358 -0.525515 0
M  V30 10125 H 924.671 -3.60434 -1.52325 0
M  V30 10126 H 924.294 -2.66019 -2.95499 0
M  V30 10127 N 925.291 0.760815 -1.38019 0
M  V30 10128 C 926.221 1.88811 -1.37377 0
M  V30 10129 C 927.202 1.68388 -0.240737 0
M  V30 10130 O 928.387 1.89086 -0.442739 0
M  V30 10131 C 925.517 3.26244 -1.1909 0
M  V30 10132 C 924.471 3.61254 -2.29521 0
M  V30 10133 C 923.797 4.97346 -1.96345 0
M  V30 10134 C 925.097 3.66874 -3.71753 0
M  V30 10135 H 926.791 1.89606 -2.31711 0
M  V30 10136 H 924.337 0.910818 -1.11535 0
M  V30 10137 H 926.29 4.04755 -1.17267 0
M  V30 10138 H 925.014 3.2591 -0.212152 0
M  V30 10139 H 923.673 2.85057 -2.30517 0
M  V30 10140 H 923.321 4.93564 -0.969728 0
M  V30 10141 H 923.021 5.21739 -2.703 0
M  V30 10142 H 924.545 5.78244 -1.96129 0
M  V30 10143 H 925.959 4.35514 -3.72828 0
M  V30 10144 H 924.356 4.02772 -4.44853 0
M  V30 10145 H 925.426 2.67273 -4.0459 0
M  V30 10146 N 926.769 1.22769 0.988202 0
M  V30 10147 C 927.699 1.02627 2.09738 0
M  V30 10148 C 928.68 -0.0543211 1.70013 0
M  V30 10149 O 929.865 0.108811 1.93895 0
M  V30 10150 C 926.995 0.608302 3.41931 0
M  V30 10151 C 925.949 1.63536 3.95525 0
M  V30 10152 C 925.275 1.07308 5.23822 0
M  V30 10153 C 926.575 3.02649 4.25677 0
M  V30 10154 H 928.269 1.954 2.26847 0
M  V30 10155 H 925.815 0.940888 1.09011 0
M  V30 10156 H 927.768 0.454478 4.18942 0
M  V30 10157 H 926.492 -0.355095 3.24664 0
M  V30 10158 H 925.151 1.77704 3.20651 0
M  V30 10159 H 924.799 0.100894 5.02899 0
M  V30 10160 H 924.499 1.75925 5.60646 0
M  V30 10161 H 926.023 0.930938 6.03462 0
M  V30 10162 H 927.437 2.91828 4.93467 0
M  V30 10163 H 925.834 3.68434 4.73684 0
M  V30 10164 H 926.904 3.52228 3.33262 0
M  V30 10165 N 928.247 -1.18576 1.03814 0
M  V30 10166 C 929.472 -1.92978 0.759873 0
M  V30 10167 C 929.897 -1.75514 -0.676486 0
M  V30 10168 O 929.255 -1.06359 -1.46824 0
M  V30 10169 C 929.303 -3.42507 1.12788 0
M  V30 10170 O 928.407 -4.1163 0.251886 0
M  V30 10171 H 927.748 -0.602129 0.279886 0
M  V30 10172 H 930.278 -1.50383 1.3873 0
M  V30 10173 H 930.288 -3.93206 1.08872 0
M  V30 10174 H 928.963 -3.5454 2.17427 0
M  V30 10175 H 927.54 -3.7125 0.350441 0
M  V30 10176 N 929.725 -0.817259 -1.34754 0
M  V30 10177 C 930.953 -0.415451 -2.02686 0
M  V30 10178 C 931.368 0.97688 -1.61563 0
M  V30 10179 O 930.725 1.63125 -0.818321 0
M  V30 10180 C 930.776 -0.501486 -3.58005 0
M  V30 10181 O 930.497 -1.83893 -3.97637 0
M  V30 10182 C 931.998 -0.0938504 -4.43201 0
M  V30 10183 H 929.218 -0.16742 -0.649778 0
M  V30 10184 H 931.762 -1.10384 -1.7215 0
M  V30 10185 H 929.917 0.138766 -3.87151 0
M  V30 10186 H 930.331 -1.8092 -4.92309 0
M  V30 10187 H 931.805 -0.205145 -5.51619 0
M  V30 10188 H 932.282 0.962011 -4.28535 0
M  V30 10189 H 932.888 -0.707677 -4.19371 0
M  V30 10190 N 931.203 1.46865 -0.571711 0
M  V30 10191 C 932.133 2.3298 0.155795 0
M  V30 10192 C 933.114 1.44678 0.894553 0
M  V30 10193 O 934.299 1.73513 0.872176 0
M  V30 10194 C 931.429 3.26745 1.17708 0
M  V30 10195 C 930.383 4.24401 0.553863 0
M  V30 10196 C 929.709 5.07595 1.68083 0
M  V30 10197 C 931.009 5.19884 -0.501827 0
M  V30 10198 H 932.703 2.94056 -0.563176 0
M  V30 10199 H 930.249 1.41402 -0.27228 0
M  V30 10200 H 932.202 3.85838 1.6943 0
M  V30 10201 H 930.926 2.63753 1.92618 0
M  V30 10202 H 929.585 3.66554 0.057815 0
M  V30 10203 H 929.233 4.40996 2.41933 0
M  V30 10204 H 928.933 5.73722 1.26953 0
M  V30 10205 H 930.457 5.6955 2.20103 0
M  V30 10206 H 931.871 5.73257 -0.0701057 0
M  V30 10207 H 930.268 5.94293 -0.832815 0
M  V30 10208 H 931.338 4.64482 -1.39229 0
M  V30 10209 N 932.681 0.308908 1.54543 0
M  V30 10210 C 933.628 -0.563659 2.23811 0
M  V30 10211 C 934.598 -1.12332 1.22355 0
M  V30 10212 O 935.783 -1.16638 1.50997 0
M  V30 10213 C 932.923 -1.72585 2.98845 0
M  V30 10214 C 932.036 -1.19682 4.1509 0
M  V30 10215 C 931.171 -2.32351 4.77688 0
M  V30 10216 C 930.21 -1.76623 5.86064 0
M  V30 10217 N 929.347 -2.82896 6.42584 0
M  V30 10218 H 934.187 0.0336288 2.97981 0
M  V30 10219 H 931.724 0.0283666 1.47073 0
M  V30 10220 H 933.682 -2.40951 3.40586 0
M  V30 10221 H 932.312 -2.29464 2.27037 0
M  V30 10222 H 931.364 -0.405173 3.78236 0
M  V30 10223 H 932.676 -0.748923 4.93146 0
M  V30 10224 H 931.83 -3.0865 5.22322 0
M  V30 10225 H 930.569 -2.80472 3.98982 0
M  V30 10226 H 929.574 -0.988171 5.40847 0
M  V30 10227 H 930.799 -1.29398 6.66658 0
M  V30 10228 H 928.745 -3.30336 5.66758 0
M  V30 10229 H 928.662 -2.42626 7.16009 0
M  V30 10230 H 929.93 -3.59068 6.91875 0
M  V30 10231 N 934.159 -1.57557 0.0367827 0
M  V30 10232 C 935.107 -2.11844 -0.960454 0
M  V30 10233 C 936.101 -1.04681 -1.33185 0
M  V30 10234 O 937.307 -1.23108 -1.31318 0
M  V30 10235 H 933.682 -0.676921 -0.32754 0
M  V30 10236 H 935.653 -2.94557 -0.477346 0
M  V30 10237 C 934.402 -2.66683 -2.23105 0
M  V30 10238 H 933.725 -3.48795 -1.95403 0
M  V30 10239 H 935.165 -3.08305 -2.91074 0
M  V30 10240 C 933.624 -1.59782 -2.96599 0
M  V30 10241 O 934.154 -1.00214 -3.88999 0
M  V30 10242 N 932.36 -1.31644 -2.59072 0
M  V30 10243 H 931.907 -1.80272 -1.8401 0
M  V30 10244 H 931.865 -0.603457 -3.08554 0
M  V30 10245 N 935.637 0.236453 -1.55816 0
M  V30 10246 C 936.584 1.29289 -1.91188 0
M  V30 10247 C 937.554 1.47315 -0.767301 0
M  V30 10248 O 938.739 1.61128 -1.02189 0
M  V30 10249 C 935.879 2.64126 -2.22107 0
M  V30 10250 C 934.992 2.54022 -3.49423 0
M  V30 10251 C 934.127 3.81282 -3.69861 0
M  V30 10252 C 933.166 3.65839 -4.90743 0
M  V30 10253 N 932.303 4.85014 -5.07647 0
M  V30 10254 H 937.143 0.98424 -2.81277 0
M  V30 10255 H 934.68 0.474722 -1.39229 0
M  V30 10256 H 936.638 3.42626 -2.3804 0
M  V30 10257 H 935.268 2.93118 -1.35209 0
M  V30 10258 H 934.32 1.67036 -3.41765 0
M  V30 10259 H 935.632 2.38525 -4.38072 0
M  V30 10260 H 934.786 4.68226 -3.8581 0
M  V30 10261 H 933.525 3.99688 -2.79465 0
M  V30 10262 H 932.53 2.77279 -4.74759 0
M  V30 10263 H 933.755 3.48918 -5.82609 0
M  V30 10264 H 931.701 5.03762 -4.20191 0
M  V30 10265 H 931.618 4.72188 -5.90402 0
M  V30 10266 H 932.886 5.73427 -5.28017 0
M  V30 10267 N 937.115 1.49373 0.502552 0
M  V30 10268 C 938.34 1.62752 1.28556 0
M  V30 10269 C 938.765 0.298285 1.8572 0
M  V30 10270 O 938.123 -0.733885 1.65782 0
M  V30 10271 C 938.171 2.69778 2.39274 0
M  V30 10272 O 937.275 2.28843 3.43081 0
M  V30 10273 H 936.616 0.544799 0.379592 0
M  V30 10274 H 939.146 1.9555 0.601792 0
M  V30 10275 H 939.156 2.91899 2.8506 0
M  V30 10276 H 937.831 3.66266 1.97033 0
M  V30 10277 H 936.408 2.17047 3.03224 0
M  V30 10278 N 938.594 -0.753485 1.38421 0
M  V30 10279 C 939.84 -1.51485 1.34834 0
M  V30 10280 C 940.173 -1.94102 -0.0615381 0
M  V30 10281 O 939.448 -1.65439 -1.02274 0
M  V30 10282 C 939.731 -2.76736 2.30411 0
M  V30 10283 C 939.584 -2.40256 3.80259 0
M  V30 10284 C 940.903 -3.7876 2.24119 0
M  V30 10285 H 938.022 -0.549534 0.491102 0
M  V30 10286 H 940.664 -0.863006 1.6927 0
M  V30 10287 H 938.814 -3.32357 2.01175 0
M  V30 10288 H 940.486 -1.90409 4.20169 0
M  V30 10289 H 938.729 -1.72714 3.97935 0
M  V30 10290 H 939.4 -3.29869 4.42595 0
M  V30 10291 H 941.876 -3.32679 2.49928 0
M  V30 10292 H 940.752 -4.64092 2.93104 0
M  V30 10293 H 941.013 -4.24352 1.24006 0
M  V30 10294 N 940.072 -1.23292 -0.981677 0
M  V30 10295 C 941.3 -1.09088 -1.75805 0
M  V30 10296 C 941.715 0.357746 -1.8538 0
M  V30 10297 O 941.072 1.24751 -1.33205 0
M  V30 10298 C 941.123 -1.70885 -3.1856 0
M  V30 10299 O 940.844 -3.10082 -3.09484 0
M  V30 10300 C 942.345 -1.62106 -4.12597 0
M  V30 10301 H 939.565 -0.38184 -0.55176 0
M  V30 10302 H 942.109 -1.63116 -1.23342 0
M  V30 10303 H 940.264 -1.20893 -3.68054 0
M  V30 10304 H 940.678 -3.40039 -3.99342 0
M  V30 10305 H 942.152 -2.10049 -5.10474 0
M  V30 10306 H 942.629 -0.579642 -4.35358 0
M  V30 10307 H 943.235 -2.11457 -3.69007 0
M  V30 10308 N 941.55 1.18024 -1.04442 0
M  V30 10309 C 942.482 2.21294 -0.596799 0
M  V30 10310 C 943.495 1.59305 0.33552 0
M  V30 10311 O 944.684 1.7803 0.129443 0
M  V30 10312 C 941.784 3.38578 0.147648 0
M  V30 10313 C 940.957 4.30143 -0.793484 0
M  V30 10314 C 940.016 5.2612 -0.0916561 0
M  V30 10315 O 939.042 5.64586 -0.72331 0
M  V30 10316 N 940.244 5.68512 1.17364 0
M  V30 10317 H 943.009 2.6032 -1.48504 0
M  V30 10318 H 940.57 1.32847 -0.925374 0
M  V30 10319 H 942.562 3.99812 0.627098 0
M  V30 10320 H 941.132 2.98212 0.937466 0
M  V30 10321 H 940.352 3.66456 -1.45272 0
M  V30 10322 H 941.64 4.88216 -1.43258 0
M  V30 10323 H 941.038 5.39322 1.70729 0
M  V30 10324 H 939.595 6.31925 1.5973 0
M  V30 10325 N 943.028 0.824394 1.34319 0
M  V30 10326 C 943.975 0.245282 2.29493 0
M  V30 10327 C 944.945 -0.630762 1.53657 0
M  V30 10328 O 946.13 -0.572094 1.82021 0
M  V30 10329 C 943.27 -0.585631 3.40095 0
M  V30 10330 C 942.383 0.312821 4.30866 0
M  V30 10331 C 941.518 -0.527801 5.28571 0
M  V30 10332 C 940.557 0.369946 6.10981 0
M  V30 10333 N 939.694 -0.43169 7.00772 0
M  V30 10334 H 944.534 1.06225 2.78425 0
M  V30 10335 H 942.071 0.53533 1.37013 0
M  V30 10336 H 944.029 -1.08271 4.02906 0
M  V30 10337 H 942.659 -1.3677 2.92393 0
M  V30 10338 H 941.711 0.928129 3.68904 0
M  V30 10339 H 943.023 1.00306 4.8861 0
M  V30 10340 H 942.177 -1.0893 5.96841 0
M  V30 10341 H 940.916 -1.25154 4.71368 0
M  V30 10342 H 939.921 0.943577 5.41643 0
M  V30 10343 H 941.146 1.09182 6.70266 0
M  V30 10344 H 939.092 -1.13908 6.46035 0
M  V30 10345 H 939.009 0.200133 7.55735 0
M  V30 10346 H 940.277 -0.975894 7.73367 0
M  V30 10347 N 944.506 -1.46559 0.579492 0
M  V30 10348 C 945.734 -2.06784 0.0693648 0
M  V30 10349 C 946.149 -1.42875 -1.23419 0
M  V30 10350 O 945.506 -0.532919 -1.74546 0
M  V30 10351 C 945.557 -3.61343 -0.106511 0
M  V30 10352 O 945.278 -4.22861 1.14545 0
M  V30 10353 C 946.779 -4.38489 -0.651359 0
M  V30 10354 H 943.999 -0.66866 0.0559848 0
M  V30 10355 H 946.543 -1.88235 0.799245 0
M  V30 10356 H 944.698 -3.7933 -0.786601 0
M  V30 10357 H 945.112 -5.15691 0.95723 0
M  V30 10358 H 946.586 -5.47237 -0.723615 0
M  V30 10359 H 947.063 -4.06309 -1.66763 0
M  V30 10360 H 947.669 -4.253 -0.0062433 0
M  V30 10361 N 945.984 -0.3171 -1.54377 0
M  V30 10362 C 946.894 0.560867 -2.27797 0
M  V30 10363 C 947.91 1.13473 -1.31908 0
M  V30 10364 O 949.086 1.15608 -1.64914 0
M  V30 10365 C 946.151 1.70886 -3.0166 0
M  V30 10366 C 945.212 1.16745 -4.13121 0
M  V30 10367 C 944.445 2.26073 -4.83453 0
M  V30 10368 O 944.668 3.46292 -4.53252 0
M  V30 10369 O 943.602 1.91856 -5.70504 0
M  V30 10370 H 947.428 -0.035193 -3.0368 0
M  V30 10371 H 945.013 -0.0830062 -1.49169 0
M  V30 10372 H 946.895 2.37736 -3.47936 0
M  V30 10373 H 945.57 2.29122 -2.28658 0
M  V30 10374 H 944.477 0.464224 -3.71209 0
M  V30 10375 H 945.81 0.630307 -4.88147 0
M  V30 10376 N 947.462 1.57535 -0.0451378 0
M  V30 10377 C 948.425 2.1008 0.916461 0
M  V30 10378 C 949.425 1.01913 1.2438 0
M  V30 10379 O 950.615 1.2801 1.18148 0
M  V30 10380 C 947.747 2.58001 2.22818 0
M  V30 10381 H 948.94 2.96334 0.461076 0
M  V30 10382 H 946.493 1.54974 0.203169 0
M  V30 10383 H 947.228 1.75123 2.72951 0
M  V30 10384 H 947.013 3.3704 2.00366 0
M  V30 10385 H 948.503 2.98822 2.9171 0
M  V30 10386 N 948.94 -0.228186 1.55939 0
M  V30 10387 C 950.186 -0.950604 1.7982 0
M  V30 10388 C 950.541 -1.82236 0.617079 0
M  V30 10389 O 949.834 -1.87607 -0.389102 0
M  V30 10390 C 950.028 -1.82924 3.0704 0
M  V30 10391 C 949.857 -1.04403 4.37413 0
M  V30 10392 C 948.627 -0.741613 4.99828 0
M  V30 10393 C 950.825 -0.412534 5.12643 0
M  V30 10394 N 948.807 0.0656922 6.13865 0
M  V30 10395 C 950.178 0.258471 6.19461 0
M  V30 10396 C 952.233 -0.324893 4.96839 0
M  V30 10397 C 950.936 1.00873 7.12192 0
M  V30 10398 C 952.962 0.411878 5.89964 0
M  V30 10399 C 952.324 1.07145 6.96203 0
M  V30 10400 H 948.423 -0.328336 0.709732 0
M  V30 10401 H 951.007 -0.222056 1.9343 0
M  V30 10402 H 949.178 -2.52966 2.94725 0
M  V30 10403 H 950.91 -2.48863 3.19139 0
M  V30 10404 H 947.665 -1.05801 4.61631 0
M  V30 10405 H 948.089 0.457986 6.75449 0
M  V30 10406 H 952.731 -0.820485 4.14762 0
M  V30 10407 H 950.449 1.51586 7.93755 0
M  V30 10408 H 954.035 0.480606 5.79812 0
M  V30 10409 H 952.915 1.63245 7.67021 0
M  V30 10410 N 950.418 -1.49637 -0.494624 0
M  V30 10411 C 951.348 -1.69692 -1.60396 0
M  V30 10412 C 952.329 -0.545648 -1.61111 0
M  V30 10413 O 953.514 -0.782202 -1.77751 0
M  V30 10414 C 950.644 -1.76934 -2.9885 0
M  V30 10415 C 949.598 -2.91915 -3.13001 0
M  V30 10416 C 948.924 -2.84276 -4.5287 0
M  V30 10417 C 950.224 -4.32764 -2.92426 0
M  V30 10418 H 951.918 -2.6257 -1.43866 0
M  V30 10419 H 949.464 -1.26355 -0.690679 0
M  V30 10420 H 951.417 -1.8955 -3.76362 0
M  V30 10421 H 950.141 -0.806609 -3.16483 0
M  V30 10422 H 948.8 -2.78911 -2.37916 0
M  V30 10423 H 948.448 -1.85897 -4.67388 0
M  V30 10424 H 948.148 -3.61452 -4.63278 0
M  V30 10425 H 949.672 -2.98909 -5.32434 0
M  V30 10426 H 951.086 -4.46415 -3.59703 0
M  V30 10427 H 949.483 -5.1121 -3.143 0
M  V30 10428 H 950.553 -4.46765 -1.88491 0
M  V30 10429 N 951.896 0.746133 -1.38819 0
M  V30 10430 C 953.173 1.49652 -1.25951 0
M  V30 10431 C 953.553 2.10663 0.135833 0
M  V30 10432 O 952.901 1.97682 1.14604 0
M  V30 10433 C 953.111 2.5569 -2.37537 0
M  V30 10434 C 954.459 3.22385 -2.76321 0
M  V30 10435 O 955.483 2.65998 -2.36904 0
M  V30 10436 O 954.342 4.2439 -3.44319 0
M  V30 10437 H 951.436 0.664019 -0.492958 0
M  V30 10438 H 953.982 0.780908 -1.50665 0
M  V30 10439 H 952.754 2.08908 -3.30867 0
M  V30 10440 H 952.377 3.34823 -2.14427 0
M  V30 10441 N 953.375 1.23811 0.975125 0
M  V30 10442 C 954.323 1.02149 2.0897 0
M  V30 10443 C 955.317 -0.0412172 1.6935 0
M  V30 10444 O 956.523 0.112726 1.79647 0
M  V30 10445 H 952.898 0.313259 0.683647 0
M  V30 10446 H 954.869 1.96686 2.24404 0
M  V30 10447 C 953.618 0.635023 3.41852 0
M  V30 10448 H 952.941 1.44449 3.72793 0
M  V30 10449 H 954.381 0.52301 4.20762 0
M  V30 10450 C 952.84 -0.657207 3.30428 0
M  V30 10451 O 953.37 -1.70494 3.63723 0
M  V30 10452 N 951.576 -0.635122 2.83575 0
M  V30 10453 H 951.123 0.21784 2.56677 0
M  V30 10454 H 951.081 -1.49995 2.76313 0
M  V30 10455 N 954.853 -1.17469 1.05066 0
M  V30 10456 C 956.1 -1.87698 0.759987 0
M  V30 10457 C 956.428 -1.80964 -0.712902 0
M  V30 10458 O 955.683 -1.21146 -1.53695 0
M  V30 10459 C 955.982 -3.37211 1.18421 0
M  V30 10460 C 955.648 -3.64148 2.65909 0
M  V30 10461 C 954.31 -3.71209 3.06199 0
M  V30 10462 C 956.662 -3.75724 3.61222 0
M  V30 10463 C 953.99 -3.87334 4.40669 0
M  V30 10464 C 956.342 -3.93368 4.95424 0
M  V30 10465 C 955.006 -3.98667 5.3537 0
M  V30 10466 H 954.276 -0.686835 0.278099 0
M  V30 10467 H 956.923 -1.38975 1.31751 0
M  V30 10468 H 955.228 -3.87982 0.545654 0
M  V30 10469 H 956.925 -3.89911 0.936518 0
M  V30 10470 H 953.515 -3.59276 2.33707 0
M  V30 10471 H 957.699 -3.69591 3.31235 0
M  V30 10472 H 952.955 -3.89685 4.71122 0
M  V30 10473 H 957.129 -4.01267 5.69173 0
M  V30 10474 H 954.756 -4.10915 6.39572 0
M  V30 10475 N 956.331 -0.831506 -1.3388 0
M  V30 10476 C 957.294 -0.264773 -2.27666 0
M  V30 10477 C 958.294 0.562273 -1.50649 0
M  V30 10478 O 959.484 0.377131 -1.70069 0
M  V30 10479 C 956.616 0.627814 -3.35069 0
M  V30 10480 H 957.809 -1.09225 -2.79303 0
M  V30 10481 H 955.362 -0.604021 -1.44157 0
M  V30 10482 H 956.097 1.47802 -2.88661 0
M  V30 10483 H 955.882 0.0361552 -3.92083 0
M  V30 10484 H 957.372 1.01786 -4.05005 0
M  V30 10485 N 957.809 1.4625 -0.587256 0
M  V30 10486 C 959.225 1.57641 -0.249284 0
M  V30 10487 C 959.425 1.58169 1.24839 0
M  V30 10488 O 958.481 1.50109 2.03036 0
M  V30 10489 C 959.794 2.86837 -0.902509 0
M  V30 10490 C 961.342 3.00476 -0.876524 0
M  V30 10491 C 961.817 4.32414 -1.50938 0
M  V30 10492 N 963.308 4.39124 -1.47392 0
M  V30 10493 C 964.043 5.39838 -1.93293 0
M  V30 10494 N 963.539 6.47202 -2.47188 0
M  V30 10495 N 965.332 5.31068 -1.84183 0
M  V30 10496 H 957.483 1.44151 -1.55994 0
M  V30 10497 H 959.746 0.687905 -0.652297 0
M  V30 10498 H 959.452 2.92274 -1.95624 0
M  V30 10499 H 959.326 3.74927 -0.413466 0
M  V30 10500 H 961.713 2.94618 0.168601 0
M  V30 10501 H 961.794 2.1385 -1.40363 0
M  V30 10502 H 961.438 4.3903 -2.55372 0
M  V30 10503 H 961.368 5.17823 -0.957455 0
M  V30 10504 H 963.859 3.62138 -1.08002 0
M  V30 10505 H 964.172 7.20269 -2.80058 0
M  V30 10506 H 962.517 6.48009 -2.51216 0
M  V30 10507 H 965.708 4.46095 -1.41833 0
M  V30 10508 H 965.881 6.09414 -2.2027 0
M  V30 10509 N 959.287 0.325282 1.54207 0
M  V30 10510 C 960.527 -0.277347 2.0251 0
M  V30 10511 C 960.891 -1.49211 1.20831 0
M  V30 10512 O 962.092 -2.16771 1.58945 0
M  V30 10513 C 960.363 -0.601517 3.52302 0
M  V30 10514 S 961.922 -1.18356 4.22537 0
M  V30 10515 H 958.74 -0.08378 0.706047 0
M  V30 10516 H 961.342 0.458804 1.9004 0
M  V30 10517 H 960.046 0.290696 4.09369 0
M  V30 10518 H 959.577 -1.36782 3.68855 0
M  V30 10519 H 961.592 -2.47029 4.30338 0
M  V30 10520 N 960.765 -1.57509 0.0534917 0
M  V30 10521 C 962.011 -1.93887 -0.614776 0
M  V30 10522 C 962.366 -0.932098 -1.68314 0
M  V30 10523 O 961.659 0.0483848 -1.91539 0
M  V30 10524 C 961.853 -3.34734 -1.25251 0
M  V30 10525 C 961.682 -4.49019 -0.247444 0
M  V30 10526 C 960.452 -5.05042 0.161406 0
M  V30 10527 C 962.65 -5.11784 0.508059 0
M  V30 10528 N 960.632 -6.02858 1.15909 0
M  V30 10529 C 962.003 -6.04928 1.35876 0
M  V30 10530 C 964.058 -4.94671 0.56612 0
M  V30 10531 C 962.761 -6.82797 2.26232 0
M  V30 10532 C 964.787 -5.73168 1.45712 0
M  V30 10533 C 964.149 -6.65946 2.29554 0
M  V30 10534 H 960.248 -0.756899 -0.196538 0
M  V30 10535 H 962.832 -1.94289 0.126365 0
M  V30 10536 H 961.003 -3.35104 -1.96367 0
M  V30 10537 H 962.735 -3.58395 -1.87977 0
M  V30 10538 H 959.49 -4.73098 -0.218025 0
M  V30 10539 H 959.914 -6.56462 1.6549 0
M  V30 10540 H 964.556 -4.22746 -0.0678652 0
M  V30 10541 H 962.274 -7.54012 2.90675 0
M  V30 10542 H 965.86 -5.61953 1.50664 0
M  V30 10543 H 964.74 -7.25627 2.97381 0
M  V30 10544 N 962.243 0.219913 -1.56058 0
M  V30 10545 C 963.52 0.968493 -1.6994 0
M  V30 10546 C 963.9 2.02358 -0.601219 0
M  V30 10547 O 963.248 2.25121 0.391534 0
M  V30 10548 C 963.458 1.57745 -3.11316 0
M  V30 10549 C 964.806 2.06908 -3.70775 0
M  V30 10550 O 965.83 1.67636 -3.14288 0
M  V30 10551 O 964.689 2.79096 -4.69859 0
M  V30 10552 H 961.783 0.452521 -0.692209 0
M  V30 10553 H 964.329 0.211566 -1.68376 0
M  V30 10554 H 963.101 0.815687 -3.82704 0
M  V30 10555 H 962.724 2.39987 -3.17005 0
M  V30 10556 N 963.721 1.49897 0.486681 0
M  V30 10557 C 964.669 1.68125 1.60738 0
M  V30 10558 C 965.663 0.547097 1.60322 0
M  V30 10559 O 966.869 0.727153 1.64659 0
M  V30 10560 H 963.244 0.530391 0.533094 0
M  V30 10561 H 965.215 2.62165 1.42521 0
M  V30 10562 C 963.964 1.77827 2.98786 0
M  V30 10563 H 963.287 2.6448 2.99818 0
M  V30 10564 H 964.727 1.94611 3.76699 0
M  V30 10565 C 963.186 0.526287 3.32764 0
M  V30 10566 O 963.716 -0.341607 4.00245 0
M  V30 10567 N 961.922 0.384947 2.88039 0
M  V30 10568 H 961.469 1.09222 2.33299 0
M  V30 10569 H 961.427 -0.451618 3.11139 0
M  V30 10570 N 965.199 -0.738761 1.39212 0
M  V30 10571 C 966.129 -1.86602 1.40364 0
M  V30 10572 C 967.11 -1.67984 0.267495 0
M  V30 10573 O 968.295 -1.88358 0.472765 0
M  V30 10574 C 965.425 -3.24308 1.24265 0
M  V30 10575 C 964.379 -3.57557 2.35239 0
M  V30 10576 C 963.705 -4.94159 2.04233 0
M  V30 10577 C 965.005 -3.60914 3.77543 0
M  V30 10578 H 966.699 -1.85896 2.34698 0
M  V30 10579 H 964.245 -0.892959 1.1297 0
M  V30 10580 H 966.198 -4.02838 1.23692 0
M  V30 10581 H 964.922 -3.25531 0.263974 0
M  V30 10582 H 963.581 -2.81354 2.35022 0
M  V30 10583 H 963.229 -4.91959 1.04813 0
M  V30 10584 H 962.929 -5.17373 2.78567 0
M  V30 10585 H 964.453 -5.7505 2.05303 0
M  V30 10586 H 965.867 -4.29528 3.79709 0
M  V30 10587 H 964.264 -3.95644 4.51205 0
M  V30 10588 H 965.334 -2.60803 4.08791 0
M  V30 10589 N 966.677 -1.24326 -0.968545 0
M  V30 10590 C 967.923 -1.08406 -1.71394 0
M  V30 10591 C 968.256 0.376353 -1.90518 0
M  V30 10592 O 967.531 1.27816 -1.46606 0
M  V30 10593 C 967.814 -1.82344 -3.1052 0
M  V30 10594 C 967.667 -3.3613 -2.98893 0
M  V30 10595 C 968.986 -1.59545 -4.10163 0
M  V30 10596 H 966.105 -0.395205 -0.622079 0
M  V30 10597 H 968.747 -1.52983 -1.12677 0
M  V30 10598 H 966.897 -1.44452 -3.60646 0
M  V30 10599 H 968.569 -3.83614 -2.56199 0
M  V30 10600 H 966.812 -3.64553 -2.35124 0
M  V30 10601 H 967.483 -3.83064 -3.97449 0
M  V30 10602 H 969.959 -1.92504 -3.68892 0
M  V30 10603 H 968.835 -2.13736 -5.05577 0
M  V30 10604 H 969.096 -0.533503 -4.38869 0
M  V30 10605 N 968.156 1.1691 -1.05688 0
M  V30 10606 C 969.088 2.20648 -0.620237 0
M  V30 10607 C 970.101 1.59652 0.318604 0
M  V30 10608 O 971.29 1.78157 0.110553 0
M  V30 10609 C 968.39 3.38716 0.111729 0
M  V30 10610 C 967.563 4.29277 -0.839062 0
M  V30 10611 C 966.622 5.25993 -0.147453 0
M  V30 10612 O 965.648 5.63787 -0.783151 0
M  V30 10613 N 966.85 5.69725 1.11327 0
M  V30 10614 H 969.615 2.58731 -1.51256 0
M  V30 10615 H 967.176 1.31858 -0.939412 0
M  V30 10616 H 969.168 4.00455 0.584657 0
M  V30 10617 H 967.738 2.99189 0.905784 0
M  V30 10618 H 966.958 3.64894 -1.4915 0
M  V30 10619 H 968.246 4.86669 -1.48428 0
M  V30 10620 H 967.644 5.41103 1.64999 0
M  V30 10621 H 966.201 6.33584 1.53018 0
M  V30 10622 N 969.634 0.838594 1.33437 0
M  V30 10623 C 970.581 0.269609 2.2922 0
M  V30 10624 C 971.551 -0.614429 1.54318 0
M  V30 10625 O 972.736 -0.552756 1.82618 0
M  V30 10626 C 969.876 -0.549527 3.40697 0
M  V30 10627 C 968.989 0.358502 4.3051 0
M  V30 10628 C 968.124 -0.471709 5.29101 0
M  V30 10629 C 967.163 0.434728 6.10554 0
M  V30 10630 N 966.3 -0.357339 7.0119 0
M  V30 10631 H 971.14 1.09172 2.77282 0
M  V30 10632 H 968.677 0.549832 1.36438 0
M  V30 10633 H 970.635 -1.03992 4.04032 0
M  V30 10634 H 969.265 -1.33661 2.93828 0
M  V30 10635 H 968.317 0.967204 3.67899 0
M  V30 10636 H 969.629 1.05483 4.87519 0
M  V30 10637 H 968.783 -1.02594 5.97963 0
M  V30 10638 H 967.522 -1.20147 4.72669 0
M  V30 10639 H 966.527 1.00097 5.40611 0
M  V30 10640 H 967.752 1.16285 6.6907 0
M  V30 10641 H 965.698 -1.07049 6.47207 0
M  V30 10642 H 965.615 0.280277 7.5548 0
M  V30 10643 H 966.883 -0.893814 7.74359 0
M  V30 10644 N 971.112 -1.45937 0.595003 0
M  V30 10645 C 972.042 -2.33198 -0.11871 0
M  V30 10646 C 973.023 -1.46083 -0.871423 0
M  V30 10647 O 974.208 -1.74879 -0.844461 0
M  V30 10648 C 971.338 -3.28576 -1.12495 0
M  V30 10649 C 970.292 -4.25229 -0.486275 0
M  V30 10650 C 969.618 -5.10204 -1.59986 0
M  V30 10651 C 970.918 -5.19019 0.584473 0
M  V30 10652 H 972.612 -2.93122 0.609886 0
M  V30 10653 H 970.158 -1.40951 0.294742 0
M  V30 10654 H 972.111 -3.88485 -1.6327 0
M  V30 10655 H 970.835 -2.66784 -1.88398 0
M  V30 10656 H 969.494 -3.666 0.000507962 0
M  V30 10657 H 969.142 -4.44789 -2.34886 0
M  V30 10658 H 968.842 -5.75669 -1.1781 0
M  V30 10659 H 970.366 -5.7298 -2.11014 0
M  V30 10660 H 971.78 -5.73073 0.161297 0
M  V30 10661 H 970.177 -5.92893 0.927256 0
M  V30 10662 H 971.247 -4.62208 1.46601 0
M  V30 10663 N 972.59 -0.333456 -1.54032 0
M  V30 10664 C 973.5 0.536674 -2.28379 0
M  V30 10665 C 974.516 1.12068 -1.33104 0
M  V30 10666 O 975.692 1.13853 -1.66131 0
M  V30 10667 C 972.757 1.67677 -3.03456 0
M  V30 10668 C 971.818 1.12357 -4.14336 0
M  V30 10669 C 971.051 2.20933 -4.85823 0
M  V30 10670 O 971.274 3.41466 -4.569 0
M  V30 10671 O 970.208 1.85795 -5.72507 0
M  V30 10672 H 974.034 -0.0674003 -3.03625 0
M  V30 10673 H 971.619 -0.098823 -1.49073 0
M  V30 10674 H 973.501 2.34032 -3.50438 0
M  V30 10675 H 972.176 2.26684 -2.31076 0
M  V30 10676 H 971.083 0.424827 -3.7168 0
M  V30 10677 H 972.416 0.578497 -4.88789 0
M  V30 10678 N 974.068 1.57479 -0.061844 0
M  V30 10679 C 975.015 2.12152 0.908862 0
M  V30 10680 C 975.985 1.03152 1.30188 0
M  V30 10681 O 977.17 1.3076 1.38948 0
M  V30 10682 C 974.31 2.6796 2.17465 0
M  V30 10683 C 973.423 3.91083 1.83517 0
M  V30 10684 C 972.558 4.35169 3.04633 0
M  V30 10685 C 971.597 5.50964 2.66655 0
M  V30 10686 N 970.734 5.90055 3.80499 0
M  V30 10687 H 975.574 2.94797 0.435743 0
M  V30 10688 H 973.111 1.45686 0.203445 0
M  V30 10689 H 975.069 2.98421 2.91548 0
M  V30 10690 H 973.699 1.88096 2.62335 0
M  V30 10691 H 972.751 3.67146 0.995381 0
M  V30 10692 H 974.063 4.75214 1.51569 0
M  V30 10693 H 973.217 4.67239 3.87005 0
M  V30 10694 H 971.956 3.49871 3.39767 0
M  V30 10695 H 970.961 5.18556 1.82703 0
M  V30 10696 H 972.186 6.37986 2.32702 0
M  V30 10697 H 970.132 5.07708 4.15414 0
M  V30 10698 H 970.049 6.68903 3.52285 0
M  V30 10699 H 971.317 6.26744 4.63479 0
M  V30 10700 N 975.546 -0.211634 1.56173 0
M  V30 10701 C 976.771 -0.955324 1.84088 0
M  V30 10702 C 977.196 -1.76754 0.643407 0
M  V30 10703 O 976.554 -1.76653 -0.407842 0
M  V30 10704 C 976.602 -1.84063 3.10085 0
M  V30 10705 O 975.706 -2.9373 2.89476 0
M  V30 10706 H 975.047 -0.26996 0.606645 0
M  V30 10707 H 977.577 -0.221947 2.03393 0
M  V30 10708 H 977.587 -2.24852 3.40449 0
M  V30 10709 H 976.262 -1.24373 3.96868 0
M  V30 10710 H 974.839 -2.56816 2.7037 0
M  V30 10711 N 977.024 -1.50153 -0.478725 0
M  V30 10712 C 978.252 -1.64505 -1.25482 0
M  V30 10713 C 978.667 -0.325295 -1.85977 0
M  V30 10714 O 978.024 0.691885 -1.68876 0
M  V30 10715 C 978.075 -2.73052 -2.36906 0
M  V30 10716 O 977.796 -3.99911 -1.78894 0
M  V30 10717 C 979.297 -2.98309 -3.27912 0
M  V30 10718 H 976.517 -0.55318 -0.379781 0
M  V30 10719 H 979.061 -1.96329 -0.57229 0
M  V30 10720 H 977.216 -2.43944 -3.00949 0
M  V30 10721 H 977.63 -4.5988 -2.52211 0
M  V30 10722 H 979.104 -3.77942 -4.02323 0
M  V30 10723 H 979.581 -2.09082 -3.8624 0
M  V30 10724 H 980.187 -3.2892 -2.69614 0
M  V30 10725 N 978.502 0.731368 -1.39602 0
M  V30 10726 C 979.465 1.8271 -1.38383 0
M  V30 10727 C 980.465 1.58338 -0.280309 0
M  V30 10728 O 981.655 1.65671 -0.538402 0
M  V30 10729 C 978.787 3.20556 -1.16002 0
M  V30 10730 H 979.98 1.85193 -2.35889 0
M  V30 10731 H 977.533 0.935396 -1.2522 0
M  V30 10732 H 978.268 3.23732 -0.191927 0
M  V30 10733 H 978.053 3.39643 -1.9592 0
M  V30 10734 H 979.543 4.00612 -1.17899 0
M  V30 10735 N 979.98 1.24838 0.961938 0
M  V30 10736 C 980.912 1.00369 2.06055 0
M  V30 10737 C 981.925 -0.0288583 1.62774 0
M  V30 10738 O 983.114 0.208853 1.77274 0
M  V30 10739 C 980.214 0.493953 3.35281 0
M  V30 10740 C 979.387 1.59097 4.07439 0
M  V30 10741 C 978.446 1.08288 5.14937 0
M  V30 10742 O 977.472 1.77577 5.40791 0
M  V30 10743 N 978.674 -0.0796836 5.80445 0
M  V30 10744 H 981.439 1.94962 2.27618 0
M  V30 10745 H 979 1.15945 1.12997 0
M  V30 10746 H 980.992 0.138675 4.04462 0
M  V30 10747 H 979.562 -0.357851 3.10545 0
M  V30 10748 H 978.782 2.11817 3.32456 0
M  V30 10749 H 980.07 2.32817 4.52409 0
M  V30 10750 H 979.468 -0.658827 5.6185 0
M  V30 10751 H 978.025 -0.376057 6.50714 0
M  V30 10752 N 981.458 -1.16348 1.06306 0
M  V30 10753 C 982.707 -1.8622 0.774909 0
M  V30 10754 C 983.02 -1.82598 -0.701245 0
M  V30 10755 O 984.226 -2.48051 -1.10377 0
M  V30 10756 C 982.682 -3.34182 1.33604 0
M  V30 10757 C 982.29 -3.46279 2.84245 0
M  V30 10758 C 984.034 -4.09309 1.12544 0
M  V30 10759 C 981.941 -4.88327 3.33602 0
M  V30 10760 H 980.871 -0.697574 0.286194 0
M  V30 10761 H 983.522 -1.31311 1.28179 0
M  V30 10762 H 981.904 -3.88698 0.756937 0
M  V30 10763 H 983.078 -3.01923 3.48108 0
M  V30 10764 H 981.393 -2.84585 3.03974 0
M  V30 10765 H 983.99 -5.14123 1.46909 0
M  V30 10766 H 984.333 -4.16251 0.0638129 0
M  V30 10767 H 984.866 -3.61032 1.67034 0
M  V30 10768 H 981.605 -4.86565 4.39244 0
M  V30 10769 H 981.125 -5.33307 2.74487 0
M  V30 10770 H 982.804 -5.57144 3.28937 0
M  V30 10771 N 982.937 -0.845659 -1.3299 0
M  V30 10772 C 984.162 -0.457435 -2.02293 0
M  V30 10773 C 984.587 0.935634 -1.63179 0
M  V30 10774 O 983.945 1.61297 -0.827835 0
M  V30 10775 C 983.993 -0.593665 -3.5568 0
M  V30 10776 O 983.097 0.37729 -4.10671 0
M  V30 10777 H 982.438 -0.185022 -0.637701 0
M  V30 10778 H 984.968 -1.14237 -1.69738 0
M  V30 10779 H 984.978 -0.477834 -4.05192 0
M  V30 10780 H 983.653 -1.60957 -3.83491 0
M  V30 10781 H 982.23 0.218448 -3.7226 0
M  V30 10782 N 984.415 1.45619 -0.602734 0
M  V30 10783 C 985.347 2.28662 0.157012 0
M  V30 10784 C 986.36 1.39672 0.836396 0
M  V30 10785 O 987.549 1.64091 0.702599 0
M  V30 10786 C 984.649 3.1528 1.24306 0
M  V30 10787 C 983.822 4.32517 0.651731 0
M  V30 10788 C 982.881 5.00381 1.62804 0
M  V30 10789 O 981.907 5.57333 1.15624 0
M  V30 10790 N 983.109 4.99221 2.96241 0
M  V30 10791 H 985.874 2.94506 -0.555535 0
M  V30 10792 H 983.435 1.55753 -0.441881 0
M  V30 10793 H 985.427 3.57544 1.8959 0
M  V30 10794 H 983.997 2.51376 1.85819 0
M  V30 10795 H 983.217 3.93793 -0.17907 0
M  V30 10796 H 984.505 5.08249 0.236802 0
M  V30 10797 H 983.903 4.54232 3.37179 0
M  V30 10798 H 982.46 5.45364 3.56961 0
M  V30 10799 N 985.893 0.34162 1.53853 0
M  V30 10800 C 986.856 -0.503541 2.236 0
M  V30 10801 C 987.856 -1.02912 1.23554 0
M  V30 10802 O 989.046 -0.918678 1.48007 0
M  V30 10803 C 986.178 -1.70126 2.95415 0
M  V30 10804 H 987.371 0.106437 2.99711 0
M  V30 10805 H 984.924 0.0929408 1.56023 0
M  V30 10806 H 985.659 -2.34999 2.23486 0
M  V30 10807 H 985.444 -1.33161 3.68796 0
M  V30 10808 H 986.934 -2.30077 3.48503 0
M  V30 10809 N 987.371 -1.57444 0.0701946 0
M  V30 10810 C 988.617 -1.93716 -0.600178 0
M  V30 10811 C 988.95 -0.950329 -1.69359 0
M  V30 10812 O 988.225 0.0207123 -1.94489 0
M  V30 10813 C 988.508 -3.40266 -1.17861 0
M  V30 10814 C 988.361 -4.49706 -0.0919575 0
M  V30 10815 C 989.68 -3.87599 -2.08459 0
M  V30 10816 H 986.799 -0.704421 -0.216704 0
M  V30 10817 H 989.441 -1.89514 0.135838 0
M  V30 10818 H 987.591 -3.43977 -1.80587 0
M  V30 10819 H 989.263 -4.58116 0.541031 0
M  V30 10820 H 987.506 -4.29937 0.577639 0
M  V30 10821 H 988.177 -5.49381 -0.537048 0
M  V30 10822 H 990.653 -3.85883 -1.5567 0
M  V30 10823 H 989.529 -4.90755 -2.45867 0
M  V30 10824 H 989.79 -3.25448 -2.99226 0
M  V30 10825 N 988.849 0.203349 -1.56283 0
M  V30 10826 C 990.077 0.941426 -1.84241 0
M  V30 10827 C 990.492 1.77197 -0.651658 0
M  V30 10828 O 989.849 1.78506 0.379713 0
M  V30 10829 C 989.9 1.84429 -3.10915 0
M  V30 10830 O 989.621 1.04729 -4.25398 0
M  V30 10831 C 991.122 2.69474 -3.51993 0
M  V30 10832 H 988.342 0.27507 -0.612027 0
M  V30 10833 H 990.886 0.213088 -2.03387 0
M  V30 10834 H 989.041 2.52635 -2.93691 0
M  V30 10835 H 989.455 1.66179 -4.97478 0
M  V30 10836 H 990.929 3.28495 -4.43616 0
M  V30 10837 H 991.406 3.42775 -2.74594 0
M  V30 10838 H 992.012 2.06652 -3.71719 0
M  V30 10839 N 990.327 1.50405 0.470755 0
M  V30 10840 C 991.555 1.65168 1.24608 0
M  V30 10841 C 991.97 0.335153 1.85801 0
M  V30 10842 O 991.327 -0.682919 1.69241 0
M  V30 10843 C 991.378 2.74305 2.35455 0
M  V30 10844 O 991.099 4.00854 1.76771 0
M  V30 10845 C 992.6 3.00044 3.26326 0
M  V30 10846 H 989.82 0.555186 0.376842 0
M  V30 10847 H 992.364 1.9663 0.56187 0
M  V30 10848 H 990.519 2.45536 2.99651 0
M  V30 10849 H 990.933 4.61211 2.49769 0
M  V30 10850 H 992.407 3.8007 4.00313 0
M  V30 10851 H 992.884 2.11128 3.85126 0
M  V30 10852 H 993.49 3.30345 2.67866 0
M  V30 10853 N 991.805 -0.723954 1.39988 0
M  V30 10854 C 993.033 -1.51313 1.4111 0
M  V30 10855 C 993.448 -1.88798 0.00853333 0
M  V30 10856 O 992.805 -1.54868 -0.965516 0
M  V30 10857 C 992.856 -2.79375 2.29416 0
M  V30 10858 O 992.577 -2.43478 3.64211 0
M  V30 10859 C 994.078 -3.7333 2.3904 0
M  V30 10860 H 991.298 -0.46724 0.481589 0
M  V30 10861 H 993.842 -0.893694 1.83938 0
M  V30 10862 H 991.997 -3.37624 1.89971 0
M  V30 10863 H 992.411 -3.25821 4.11024 0
M  V30 10864 H 993.885 -4.60051 3.05053 0
M  V30 10865 H 994.362 -4.15854 1.41289 0
M  V30 10866 H 994.968 -3.20996 2.79001 0
M  V30 10867 N 993.283 -1.25346 -0.955304 0
M  V30 10868 C 994.215 -1.0146 -2.0552 0
M  V30 10869 C 995.228 0.0202256 -1.62787 0
M  V30 10870 O 996.417 -0.218251 -1.77161 0
M  V30 10871 C 993.517 -0.511727 -3.35014 0
M  V30 10872 C 992.69 -1.61256 -4.0659 0
M  V30 10873 C 991.749 -1.11017 -5.14356 0
M  V30 10874 O 990.775 -1.80443 -5.39842 0
M  V30 10875 N 991.977 0.0489001 -5.80479 0
M  V30 10876 H 994.742 -1.96166 -2.26581 0
M  V30 10877 H 992.303 -1.16543 -1.12381 0
M  V30 10878 H 994.295 -0.160123 -4.04383 0
M  V30 10879 H 992.865 0.341377 -3.1073 0
M  V30 10880 H 992.085 -2.13577 -3.31328 0
M  V30 10881 H 993.373 -2.35213 -4.51168 0
M  V30 10882 H 992.771 0.629021 -5.62192 0
M  V30 10883 H 991.328 0.341542 -6.50905 0
M  V30 10884 N 994.761 1.15782 -1.06922 0
M  V30 10885 C 996.172 1.68062 -0.813144 0
M  V30 10886 C 996.523 1.84681 0.662374 0
M  V30 10887 O 995.648 1.54696 1.51321 0
M  V30 10888 C 996.243 3.05273 -1.46949 0
M  V30 10889 C 994.802 3.54647 -1.26104 0
M  V30 10890 C 993.949 2.30477 -1.54194 0
M  V30 10891 H 996.9 1.00056 -1.23185 0
M  V30 10892 H 996.921 3.69986 -0.888308 0
M  V30 10893 H 996.433 2.93145 -2.54337 0
M  V30 10894 H 994.534 3.72024 -0.20718 0
M  V30 10895 H 994.647 4.36354 -1.97819 0
M  V30 10896 H 993.011 2.35803 -0.96276 0
M  V30 10897 H 993.794 2.2094 -2.62755 0
M  V30 10898 N 996.239 0.8527 1.3254 0
M  V30 10899 C 997.464 0.468157 2.02047 0
M  V30 10900 C 997.889 -0.926967 1.63673 0
M  V30 10901 O 997.247 -1.60855 0.836378 0
M  V30 10902 C 997.295 0.612519 3.5536 0
M  V30 10903 O 996.399 -0.355506 4.10865 0
M  V30 10904 H 995.74 0.188401 0.636711 0
M  V30 10905 H 998.27 1.15135 1.6913 0
M  V30 10906 H 998.28 0.499315 4.04933 0
M  V30 10907 H 996.955 1.62988 3.82632 0
M  V30 10908 H 995.532 -0.198703 3.7237 0
M  V30 10909 N 997.718 -1.45297 0.610449 0
M  V30 10910 C 998.648 -2.33311 -0.0939698 0
M  V30 10911 C 999.629 -1.46999 -0.85588 0
M  V30 10912 O 1000.81 -1.75764 -0.825865 0
M  V30 10913 C 997.944 -3.29751 -1.09003 0
M  V30 10914 C 996.898 -4.2572 -0.441146 0
M  V30 10915 C 996.224 -5.11873 -1.54566 0
M  V30 10916 C 997.524 -5.1837 0.639489 0
M  V30 10917 H 999.218 -2.92459 0.640941 0
M  V30 10918 H 996.764 -1.40631 0.309675 0
M  V30 10919 H 998.717 -3.90195 -1.59141 0
M  V30 10920 H 997.441 -2.68768 -1.85557 0
M  V30 10921 H 996.1 -3.66579 0.0393908 0
M  V30 10922 H 995.748 -4.47256 -2.30155 0
M  V30 10923 H 995.448 -5.76886 -1.11698 0
M  V30 10924 H 996.972 -5.75185 -2.04925 0
M  V30 10925 H 998.386 -5.7287 0.22207 0
M  V30 10926 H 996.783 -5.91876 0.990089 0
M  V30 10927 H 997.853 -4.60627 1.51495 0
M  V30 10928 N 999.196 -0.349774 -1.5367 0
M  V30 10929 C 1000.42 0.246038 -2.05432 0
M  V30 10930 C 1000.84 1.43719 -1.22435 0
M  V30 10931 O 1000.2 1.80622 -0.261166 0
M  V30 10932 C 1000.25 0.65501 -3.55516 0
M  V30 10933 O 999.968 -0.488782 -4.35365 0
M  V30 10934 C 1001.47 1.31088 -4.23475 0
M  V30 10935 H 998.689 0.0463952 -0.669394 0
M  V30 10936 H 1001.23 -0.503566 -1.98203 0
M  V30 10937 H 999.388 1.35455 -3.62947 0
M  V30 10938 H 999.802 -0.161528 -5.24251 0
M  V30 10939 H 1001.28 1.54774 -5.29857 0
M  V30 10940 H 1001.75 2.26636 -3.76208 0
M  V30 10941 H 1002.36 0.653211 -4.20254 0
M  V30 10942 N 1000.67 1.57404 -0.0785433 0
M  V30 10943 C 1001.61 2.101 0.916013 0
M  V30 10944 C 1002.62 1.03459 1.25698 0
M  V30 10945 O 1003.81 1.30954 1.21299 0
M  V30 10946 C 1000.91 2.55202 2.22992 0
M  V30 10947 C 1000.08 3.85491 2.06678 0
M  V30 10948 C 999.14 4.16614 3.21433 0
M  V30 10949 O 998.166 4.86105 2.96126 0
M  V30 10950 N 999.368 3.70697 4.46726 0
M  V30 10951 H 1002.13 2.96054 0.466059 0
M  V30 10952 H 999.694 1.61546 0.107006 0
M  V30 10953 H 1001.69 2.7308 2.9868 0
M  V30 10954 H 1000.26 1.74348 2.59464 0
M  V30 10955 H 999.476 3.76925 1.15417 0
M  V30 10956 H 1000.76 4.70759 1.93036 0
M  V30 10957 H 1000.16 3.14571 4.70172 0
M  V30 10958 H 998.719 3.93762 5.19418 0
M  V30 10959 N 1002.15 -0.195058 1.56388 0
M  V30 10960 C 1003.38 -0.931642 1.84738 0
M  V30 10961 C 1003.79 -1.76849 0.661046 0
M  V30 10962 O 1003.15 -1.78705 -0.370241 0
M  V30 10963 C 1003.2 -1.82777 3.11889 0
M  V30 10964 O 1002.92 -1.02471 4.25948 0
M  V30 10965 C 1004.42 -2.67603 3.53417 0
M  V30 10966 H 1001.64 -0.271821 0.613477 0
M  V30 10967 H 1004.19 -0.202299 2.03497 0
M  V30 10968 H 1002.34 -2.51074 2.95027 0
M  V30 10969 H 1002.76 -1.63539 4.98353 0
M  V30 10970 H 1004.23 -3.26138 4.45352 0
M  V30 10971 H 1004.71 -3.41314 2.76408 0
M  V30 10972 H 1005.31 -2.04678 3.7281 0
M  V30 10973 N 1003.63 -1.50653 -0.462772 0
M  V30 10974 C 1004.86 -1.65826 -1.23731 0
M  V30 10975 C 1005.27 -0.345002 -1.85621 0
M  V30 10976 O 1004.63 0.673935 -1.69601 0
M  V30 10977 C 1004.68 -2.7555 -2.33997 0
M  V30 10978 O 1004.4 -4.01785 -1.74643 0
M  V30 10979 C 1005.9 -3.0177 -3.2473 0
M  V30 10980 H 1003.12 -0.557177 -0.373892 0
M  V30 10981 H 1005.67 -1.96925 -0.551434 0
M  V30 10982 H 1003.82 -2.47122 -2.98345 0
M  V30 10983 H 1004.24 -4.62529 -2.4732 0
M  V30 10984 H 1005.71 -3.82188 -3.98292 0
M  V30 10985 H 1006.19 -2.13167 -3.84001 0
M  V30 10986 H 1006.79 -3.31761 -2.66111 0
M  V30 10987 N 1005.11 0.71652 -1.4037 0
M  V30 10988 C 1006.35 1.47857 -1.38803 0
M  V30 10989 C 1006.69 1.94197 0.0100536 0
M  V30 10990 O 1005.96 1.68093 0.978521 0
M  V30 10991 C 1006.25 2.7053 -2.37667 0
M  V30 10992 C 1006.1 2.3009 -3.86496 0
M  V30 10993 C 1007.42 3.72684 -2.34082 0
M  V30 10994 H 1004.54 0.53632 -0.505499 0
M  V30 10995 H 1007.18 0.817824 -1.71498 0
M  V30 10996 H 1005.33 3.26906 -2.09916 0
M  V30 10997 H 1007 1.79202 -4.2507 0
M  V30 10998 H 1005.24 1.62102 -4.02375 0
M  V30 10999 H 1005.91 3.18018 -4.51186 0
M  V30 11000 H 1008.39 3.25935 -2.58661 0
M  V30 11001 H 1007.27 4.56157 -3.05306 0
M  V30 11002 H 1007.53 4.20916 -1.35213 0
M  V30 11003 N 1006.59 1.25851 0.948643 0
M  V30 11004 C 1007.52 1.0108 2.04593 0
M  V30 11005 C 1008.5 -0.0619691 1.62482 0
M  V30 11006 O 1009.68 0.0789196 1.88335 0
M  V30 11007 C 1006.81 0.529174 3.34541 0
M  V30 11008 C 1005.85 1.59337 3.95618 0
M  V30 11009 S 1006.69 3.18026 4.30836 0
M  V30 11010 C 1007.84 2.71613 5.63895 0
M  V30 11011 H 1008.08 1.93988 2.2529 0
M  V30 11012 H 1005.61 1.09448 1.08906 0
M  V30 11013 H 1007.57 0.25795 4.09689 0
M  V30 11014 H 1006.23 -0.37951 3.11799 0
M  V30 11015 H 1005.42 1.20722 4.89328 0
M  V30 11016 H 1005.02 1.81559 3.26975 0
M  V30 11017 H 1007.32 2.15612 6.42275 0
M  V30 11018 H 1008.26 3.63986 6.07387 0
M  V30 11019 H 1008.67 2.11417 5.23415 0
M  V30 11020 N 1008.06 -1.15214 1.07534 0
M  V30 11021 C 1008.97 -2.23636 0.708818 0
M  V30 11022 C 1009.99 -1.7172 -0.280759 0
M  V30 11023 O 1011.17 -2.01 -0.126927 0
M  V30 11024 C 1008.23 -3.46512 0.114167 0
M  V30 11025 C 1007.29 -4.13409 1.15722 0
M  V30 11026 C 1006.53 -5.30419 0.59085 0
M  V30 11027 O 1006.75 -5.67314 -0.592512 0
M  V30 11028 O 1005.68 -5.86871 1.33663 0
M  V30 11029 H 1009.51 -2.57322 1.61305 0
M  V30 11030 H 1007.09 -1.22972 0.848422 0
M  V30 11031 H 1008.98 -4.20851 -0.215091 0
M  V30 11032 H 1007.65 -3.1457 -0.763356 0
M  V30 11033 H 1006.56 -3.40984 1.53886 0
M  V30 11034 H 1007.89 -4.49435 2.00671 0
M  V30 11035 N 1009.54 -0.859717 -1.32086 0
M  V30 11036 C 1010.77 -0.479724 -2.01262 0
M  V30 11037 C 1011.19 0.924985 -1.64589 0
M  V30 11038 O 1010.54 1.60439 -0.869803 0
M  V30 11039 C 1010.59 -0.615128 -3.56228 0
M  V30 11040 O 1010.31 -1.96451 -3.91585 0
M  V30 11041 C 1011.82 -0.234804 -4.42678 0
M  V30 11042 H 1009.04 -0.188007 -0.644123 0
M  V30 11043 H 1011.58 -1.15805 -1.68551 0
M  V30 11044 H 1009.73 0.0155268 -3.87397 0
M  V30 11045 H 1010.15 -1.96491 -4.86304 0
M  V30 11046 H 1011.62 -0.380534 -5.50687 0
M  V30 11047 H 1012.1 0.825189 -4.31378 0
M  V30 11048 H 1012.71 -0.840739 -4.16907 0
M  V30 11049 N 1011.02 1.44971 -0.618145 0
M  V30 11050 C 1012.27 2.02458 -0.117656 0
M  V30 11051 C 1012.6 1.48413 1.25248 0
M  V30 11052 O 1011.87 0.662997 1.82851 0
M  V30 11053 C 1012.16 3.59987 -0.0901897 0
M  V30 11054 C 1012.01 4.24343 -1.49175 0
M  V30 11055 C 1013.33 4.36099 0.592121 0
M  V30 11056 H 1010.45 0.735672 -0.0442291 0
M  V30 11057 H 1013.09 1.727 -0.792138 0
M  V30 11058 H 1011.24 3.85471 0.484175 0
M  V30 11059 H 1012.91 4.10009 -2.114 0
M  V30 11060 H 1011.16 3.82337 -2.04941 0
M  V30 11061 H 1011.83 5.33298 -1.42468 0
M  V30 11062 H 1014.3 4.1597 0.103813 0
M  V30 11063 H 1013.18 5.45822 0.580481 0
M  V30 11064 H 1013.44 4.09746 1.66015 0
M  V30 11065 N 1012.5 0.357919 1.53482 0
M  V30 11066 C 1013.73 -0.23514 2.05559 0
M  V30 11067 C 1014.14 -1.43068 1.23195 0
M  V30 11068 O 1013.5 -1.80481 0.270741 0
M  V30 11069 C 1013.55 -0.636147 3.55859 0
M  V30 11070 O 1013.27 0.511864 4.35099 0
M  V30 11071 C 1014.77 -1.28841 4.24164 0
M  V30 11072 H 1011.99 -0.0428446 0.669631 0
M  V30 11073 H 1014.54 0.51407 1.97933 0
M  V30 11074 H 1012.69 -1.33528 3.63661 0
M  V30 11075 H 1013.1 0.189328 5.24158 0
M  V30 11076 H 1014.58 -1.51962 5.30671 0
M  V30 11077 H 1015.06 -2.24638 3.77405 0
M  V30 11078 H 1015.66 -0.630914 4.20594 0
M  V30 11079 N 1013.98 -1.5736 0.0868897 0
M  V30 11080 C 1015.2 -1.98388 -0.587349 0
M  V30 11081 C 1015.62 -0.965757 -1.6223 0
M  V30 11082 O 1014.98 0.0456981 -1.82443 0
M  V30 11083 C 1015.03 -3.39479 -1.24242 0
M  V30 11084 O 1014.75 -4.37393 -0.248878 0
M  V30 11085 C 1016.25 -3.95465 -2.00305 0
M  V30 11086 H 1013.47 -0.652111 -0.15809 0
M  V30 11087 H 1016.01 -2.03843 0.163754 0
M  V30 11088 H 1014.17 -3.35063 -1.94451 0
M  V30 11089 H 1014.58 -5.19525 -0.720678 0
M  V30 11090 H 1016.06 -4.96363 -2.41511 0
M  V30 11091 H 1016.53 -3.32832 -2.86565 0
M  V30 11092 H 1017.14 -4.03328 -1.34931 0
M  V30 11093 N 1015.45 0.186762 -1.56489 0
M  V30 11094 C 1016.7 0.907194 -1.81378 0
M  V30 11095 C 1017.03 1.82558 -0.662283 0
M  V30 11096 O 1016.31 1.91564 0.336699 0
M  V30 11097 C 1016.59 1.71624 -3.16571 0
M  V30 11098 C 1016.44 0.822009 -4.42225 0
M  V30 11099 C 1017.76 2.68713 -3.48542 0
M  V30 11100 H 1014.88 0.328366 -0.659806 0
M  V30 11101 H 1017.52 0.174142 -1.892 0
M  V30 11102 H 1015.67 2.34119 -3.10033 0
M  V30 11103 H 1017.35 0.211122 -4.60817 0
M  V30 11104 H 1015.59 0.129178 -4.33608 0
M  V30 11105 H 1016.26 1.42326 -5.33336 0
M  V30 11106 H 1018.74 2.16348 -3.55433 0
M  V30 11107 H 1017.61 3.22397 -4.44242 0
M  V30 11108 H 1017.87 3.48165 -2.72459 0
M  V30 11109 N 1016.93 1.50896 0.454776 0
M  V30 11110 C 1018.16 1.6648 1.22849 0
M  V30 11111 C 1018.58 0.354841 1.85435 0
M  V30 11112 O 1017.93 -0.664931 1.69956 0
M  V30 11113 C 1017.98 2.76787 2.32532 0
M  V30 11114 O 1017.7 4.02706 1.72509 0
M  V30 11115 C 1019.21 3.03488 3.23125 0
M  V30 11116 H 1016.43 0.559152 0.370932 0
M  V30 11117 H 1018.97 1.97215 0.540983 0
M  V30 11118 H 1017.12 2.48701 2.9703 0
M  V30 11119 H 1017.54 4.63834 2.44863 0
M  V30 11120 H 1019.01 3.84294 3.9626 0
M  V30 11121 H 1019.49 2.152 3.82865 0
M  V30 11122 H 1020.1 3.33167 2.64347 0
M  V30 11123 N 1018.41 -0.709066 1.40748 0
M  V30 11124 C 1019.64 -1.49808 1.42707 0
M  V30 11125 C 1020.05 -1.88778 0.0285574 0
M  V30 11126 O 1019.41 -1.55883 -0.949035 0
M  V30 11127 C 1019.46 -2.76926 2.32366 0
M  V30 11128 O 1019.18 -2.39602 3.66773 0
M  V30 11129 C 1020.68 -3.70773 2.42986 0
M  V30 11130 H 1017.9 -0.462106 0.486517 0
M  V30 11131 H 1020.45 -0.874135 1.84876 0
M  V30 11132 H 1018.6 -3.3559 1.93541 0
M  V30 11133 H 1019.02 -3.21443 4.14457 0
M  V30 11134 H 1020.49 -4.56789 3.09916 0
M  V30 11135 H 1020.97 -4.14332 1.45691 0
M  V30 11136 H 1021.57 -3.18019 2.8239 0
M  V30 11137 N 1019.89 -1.26353 -0.941956 0
M  V30 11138 C 1021.31 -1.03448 -1.21534 0
M  V30 11139 C 1021.51 0.240855 -2.00055 0
M  V30 11140 O 1020.56 0.950199 -2.33939 0
M  V30 11141 C 1021.87 -2.2654 -1.97737 0
M  V30 11142 C 1023.42 -2.31433 -2.10731 0
M  V30 11143 C 1023.9 -3.54216 -2.90336 0
M  V30 11144 N 1025.39 -3.54688 -2.9791 0
M  V30 11145 C 1026.12 -4.4636 -3.59931 0
M  V30 11146 N 1025.62 -5.48319 -4.2346 0
M  V30 11147 N 1027.41 -4.34013 -3.57196 0
M  V30 11148 H 1019.56 -2.08266 -0.417005 0
M  V30 11149 H 1021.83 -0.915251 -0.247021 0
M  V30 11150 H 1021.53 -3.19299 -1.47449 0
M  V30 11151 H 1021.41 -2.30726 -2.98405 0
M  V30 11152 H 1023.79 -1.3919 -2.60212 0
M  V30 11153 H 1023.87 -2.31259 -1.09329 0
M  V30 11154 H 1023.52 -4.46788 -2.41543 0
M  V30 11155 H 1023.45 -3.51637 -3.91993 0
M  V30 11156 H 1025.94 -2.80942 -2.52745 0
M  V30 11157 H 1026.25 -6.14458 -4.6868 0
M  V30 11158 H 1024.6 -5.52177 -4.22049 0
M  V30 11159 H 1027.79 -3.53578 -3.06758 0
M  V30 11160 H 1027.96 -5.0565 -4.05244 0
M  V30 11161 N 1021.37 1.14642 -1.08144 0
M  V30 11162 C 1022.28 2.23257 -0.720668 0
M  V30 11163 C 1023.29 1.71866 0.271648 0
M  V30 11164 O 1024.47 2.01064 0.116266 0
M  V30 11165 C 1021.53 3.46447 -0.132542 0
M  V30 11166 C 1020.6 4.12789 -1.17913 0
M  V30 11167 C 1019.83 5.30099 -0.618971 0
M  V30 11168 O 1020.05 5.6762 0.562418 0
M  V30 11169 O 1018.99 5.86154 -1.36774 0
M  V30 11170 H 1022.81 2.56463 -1.62667 0
M  V30 11171 H 1020.4 1.22521 -0.854932 0
M  V30 11172 H 1022.28 4.20959 0.19277 0
M  V30 11173 H 1020.95 3.14971 0.746662 0
M  V30 11174 H 1019.86 3.40163 -1.55693 0
M  V30 11175 H 1021.19 4.48365 -2.03051 0
M  V30 11176 N 1022.85 0.866709 1.31628 0
M  V30 11177 C 1023.78 0.277328 2.27516 0
M  V30 11178 C 1024.79 -0.557786 1.52946 0
M  V30 11179 O 1025.98 -0.38031 1.74402 0
M  V30 11180 C 1023.08 -0.625742 3.33073 0
M  V30 11181 C 1022.25 0.176204 4.37045 0
M  V30 11182 C 1021.31 -0.654497 5.22114 0
M  V30 11183 O 1020.34 -0.0836961 5.69138 0
M  V30 11184 N 1021.54 -1.96708 5.46156 0
M  V30 11185 H 1024.3 1.10133 2.78731 0
M  V30 11186 H 1021.87 0.72787 1.44616 0
M  V30 11187 H 1023.86 -1.18709 3.86898 0
M  V30 11188 H 1022.43 -1.35042 2.81926 0
M  V30 11189 H 1021.65 0.918999 3.83338 0
M  V30 11190 H 1022.94 0.726594 5.03585 0
M  V30 11191 H 1022.33 -2.454 5.09701 0
M  V30 11192 H 1020.89 -2.47629 6.02929 0
M  V30 11193 N 1024.32 -1.44642 0.625825 0
M  V30 11194 C 1025.57 -2.01308 0.125682 0
M  V30 11195 C 1025.89 -1.49773 -1.25807 0
M  V30 11196 O 1027.09 -1.98533 -1.85194 0
M  V30 11197 C 1025.55 -3.59479 0.17395 0
M  V30 11198 C 1025.16 -4.20011 1.55868 0
M  V30 11199 C 1026.9 -4.2364 -0.270005 0
M  V30 11200 C 1024.81 -5.7039 1.56235 0
M  V30 11201 H 1023.74 -0.75276 0.0432194 0
M  V30 11202 H 1026.39 -1.65916 0.783842 0
M  V30 11203 H 1024.77 -3.92145 -0.551212 0
M  V30 11204 H 1025.94 -3.98891 2.307 0
M  V30 11205 H 1024.26 -3.68116 1.94627 0
M  V30 11206 H 1026.86 -5.33931 -0.28672 0
M  V30 11207 H 1027.2 -3.95603 -1.29629 0
M  V30 11208 H 1027.73 -3.95759 0.402487 0
M  V30 11209 H 1024.47 -6.03154 2.56683 0
M  V30 11210 H 1023.99 -5.93648 0.856881 0
M  V30 11211 H 1025.67 -6.33929 1.29396 0
M  V30 11212 N 1025.8 -0.366053 -1.5329 0
M  V30 11213 C 1026.73 0.47211 -2.28677 0
M  V30 11214 C 1027.71 1.08353 -1.31125 0
M  V30 11215 O 1028.9 1.10069 -1.59995 0
M  V30 11216 C 1026.03 1.61174 -3.07637 0
M  V30 11217 C 1024.98 1.12755 -4.12881 0
M  V30 11218 C 1024.31 2.35745 -4.79925 0
M  V30 11219 C 1025.61 0.211954 -5.2187 0
M  V30 11220 H 1027.3 -0.156838 -2.98989 0
M  V30 11221 H 1024.85 -0.0768709 -1.43795 0
M  V30 11222 H 1026.8 2.20473 -3.59123 0
M  V30 11223 H 1025.52 2.26793 -2.35016 0
M  V30 11224 H 1024.18 0.557234 -3.6234 0
M  V30 11225 H 1023.83 2.99821 -4.03877 0
M  V30 11226 H 1023.53 2.04019 -5.51044 0
M  V30 11227 H 1025.06 2.95729 -5.34207 0
M  V30 11228 H 1026.47 0.71244 -5.68856 0
M  V30 11229 H 1024.87 -0.0144501 -6.00098 0
M  V30 11230 H 1025.94 -0.745753 -4.79131 0
M  V30 11231 N 1027.28 1.57312 -0.0952337 0
M  V30 11232 C 1028.53 1.94646 0.569284 0
M  V30 11233 C 1028.86 0.977152 1.67825 0
M  V30 11234 O 1028.13 0.0102318 1.94497 0
M  V30 11235 C 1028.42 3.42098 1.12433 0
M  V30 11236 C 1028.27 4.49795 0.0204016 0
M  V30 11237 C 1029.59 3.90866 2.02266 0
M  V30 11238 H 1026.71 0.707779 0.205469 0
M  V30 11239 H 1029.35 1.89274 -0.16597 0
M  V30 11240 H 1027.5 3.46807 1.75092 0
M  V30 11241 H 1029.17 4.57198 -0.613845 0
M  V30 11242 H 1027.41 4.28964 -0.645965 0
M  V30 11243 H 1028.09 5.50166 0.449579 0
M  V30 11244 H 1030.56 3.88311 1.49512 0
M  V30 11245 H 1029.44 4.94604 2.38029 0
M  V30 11246 H 1029.7 3.30167 2.9401 0
M  V30 11247 N 1028.76 -0.17846 1.56586 0
M  V30 11248 C 1029.7 -1.22104 1.95855 0
M  V30 11249 C 1030.67 -1.44366 0.821447 0
M  V30 11250 O 1031.86 -1.57224 1.08098 0
M  V30 11251 C 1029 -2.55701 2.31757 0
M  V30 11252 C 1028.11 -2.40879 3.5861 0
M  V30 11253 C 1027.25 -3.67293 3.83757 0
M  V30 11254 C 1026.29 -3.47373 5.03982 0
M  V30 11255 N 1025.42 -4.65839 5.25298 0
M  V30 11256 H 1030.26 -0.879168 2.84736 0
M  V30 11257 H 1027.8 -0.422721 1.40895 0
M  V30 11258 H 1029.76 -3.33556 2.50592 0
M  V30 11259 H 1028.39 -2.87898 1.45995 0
M  V30 11260 H 1027.44 -1.54236 3.47729 0
M  V30 11261 H 1028.75 -2.22102 4.46623 0
M  V30 11262 H 1027.91 -4.53584 4.02922 0
M  V30 11263 H 1026.65 -3.89041 2.94107 0
M  V30 11264 H 1025.65 -2.59467 4.84723 0
M  V30 11265 H 1026.88 -3.27055 5.95157 0
M  V30 11266 H 1024.82 -4.8782 4.38598 0
M  V30 11267 H 1024.74 -4.4995 6.0752 0
M  V30 11268 H 1026.01 -5.53435 5.48936 0
M  V30 11269 N 1030.24 -1.51135 -0.446768 0
M  V30 11270 C 1031.19 -1.68152 -1.53977 0
M  V30 11271 C 1032.17 -0.53563 -1.51723 0
M  V30 11272 O 1033.36 -0.791134 -1.58335 0
M  V30 11273 C 1030.49 -1.80133 -2.92245 0
M  V30 11274 C 1029.58 -3.00476 -2.99291 0
M  V30 11275 N 1029.97 -4.23796 -2.76099 0
M  V30 11276 C 1028.27 -2.99536 -3.30445 0
M  V30 11277 C 1028.97 -5.04977 -2.88744 0
M  V30 11278 N 1027.94 -4.39428 -3.20006 0
M  V30 11279 H 1031.74 -2.61172 -1.34784 0
M  V30 11280 H 1029.26 -1.48653 -0.653923 0
M  V30 11281 H 1031.26 -1.90432 -3.70866 0
M  V30 11282 H 1029.92 -0.882879 -3.12467 0
M  V30 11283 H 1030.93 -4.52896 -2.51209 0
M  V30 11284 H 1027.6 -2.17286 -3.56501 0
M  V30 11285 H 1028.99 -6.13114 -2.74847 0
M  V30 11286 N 1031.71 0.701592 -1.41122 0
M  V30 11287 C 1032.68 1.79733 -1.42227 0
M  V30 11288 C 1033.68 1.57708 -0.313831 0
M  V30 11289 O 1034.87 1.64492 -0.573423 0
M  V30 11290 C 1032 3.18024 -1.22775 0
M  V30 11291 H 1033.19 1.80148 -2.39764 0
M  V30 11292 H 1030.74 0.908624 -1.27176 0
M  V30 11293 H 1031.48 3.23252 -0.260552 0
M  V30 11294 H 1031.26 3.35411 -2.0308 0
M  V30 11295 H 1032.75 3.98021 -1.2637 0
M  V30 11296 N 1033.19 1.2685 0.935242 0
M  V30 11297 C 1034.12 1.04717 2.0388 0
M  V30 11298 C 1035.14 0.00567507 1.62799 0
M  V30 11299 O 1036.33 0.246408 1.76791 0
M  V30 11300 C 1033.43 0.56496 3.34158 0
M  V30 11301 C 1032.6 1.67704 4.03973 0
M  V30 11302 C 1031.66 1.19186 5.12524 0
M  V30 11303 O 1030.68 1.89008 5.36903 0
M  V30 11304 N 1031.89 0.0434554 5.80484 0
M  V30 11305 H 1034.65 1.99746 2.23431 0
M  V30 11306 H 1032.21 1.18316 1.10512 0
M  V30 11307 H 1034.2 0.224436 4.04077 0
M  V30 11308 H 1032.77 -0.291899 3.11234 0
M  V30 11309 H 1031.99 2.18821 3.27889 0
M  V30 11310 H 1033.28 2.42361 4.47368 0
M  V30 11311 H 1032.68 -0.539502 5.63122 0
M  V30 11312 H 1031.24 -0.237946 6.51366 0
M  V30 11313 N 1034.67 -1.14067 1.0875 0
M  V30 11314 C 1035.58 -2.22871 0.732498 0
M  V30 11315 C 1036.6 -1.72008 -0.26253 0
M  V30 11316 O 1037.77 -2.01123 -0.105601 0
M  V30 11317 C 1034.84 -3.46371 0.150913 0
M  V30 11318 C 1033.9 -4.12158 1.201 0
M  V30 11319 C 1033.13 -5.29763 0.647075 0
M  V30 11320 O 1033.35 -5.67911 -0.532307 0
M  V30 11321 O 1032.29 -5.8542 1.3988 0
M  V30 11322 H 1036.11 -2.55596 1.64025 0
M  V30 11323 H 1033.7 -1.22065 0.861417 0
M  V30 11324 H 1035.58 -4.21055 -0.170442 0
M  V30 11325 H 1034.26 -3.15362 -0.729948 0
M  V30 11326 H 1033.16 -3.39332 1.57494 0
M  V30 11327 H 1034.5 -4.47282 2.05426 0
M  V30 11328 N 1036.15 -0.873678 -1.31166 0
M  V30 11329 C 1037.06 -0.335726 -2.32185 0
M  V30 11330 C 1038.07 0.556259 -1.64869 0
M  V30 11331 O 1039.25 0.452087 -1.9626 0
M  V30 11332 C 1036.32 0.450822 -3.43756 0
M  V30 11333 C 1035.38 -0.469565 -4.26724 0
M  V30 11334 C 1034.61 0.279538 -5.32967 0
M  V30 11335 O 1034.83 1.50715 -5.50128 0
M  V30 11336 O 1033.77 -0.36452 -6.00795 0
M  V30 11337 H 1037.59 -1.17314 -2.80127 0
M  V30 11338 H 1035.18 -0.637163 -1.35132 0
M  V30 11339 H 1037.06 0.896582 -4.11752 0
M  V30 11340 H 1035.73 1.26472 -2.9797 0
M  V30 11341 H 1034.64 -0.963902 -3.61469 0
M  V30 11342 H 1035.97 -1.24916 -4.76085 0
M  V30 11343 N 1037.63 1.44308 -0.633487 0
M  V30 11344 C 1038.56 2.33431 0.0568402 0
M  V30 11345 C 1039.54 1.48342 0.832386 0
M  V30 11346 O 1040.72 1.77056 0.797798 0
M  V30 11347 C 1037.85 3.31443 1.03743 0
M  V30 11348 C 1036.81 4.26368 0.373362 0
M  V30 11349 C 1036.13 5.14267 1.46403 0
M  V30 11350 C 1037.43 5.17287 -0.721876 0
M  V30 11351 H 1039.13 2.91402 -0.687388 0
M  V30 11352 H 1036.67 1.4012 -0.332009 0
M  V30 11353 H 1038.63 3.92677 1.52913 0
M  V30 11354 H 1037.35 2.71686 1.81258 0
M  V30 11355 H 1036.01 3.6647 -0.0977053 0
M  V30 11356 H 1035.66 4.50861 2.23011 0
M  V30 11357 H 1035.36 5.7859 1.02506 0
M  V30 11358 H 1036.88 5.78373 1.95748 0
M  V30 11359 H 1038.29 5.72444 -0.313181 0
M  V30 11360 H 1036.69 5.90226 -1.08413 0
M  V30 11361 H 1037.76 4.58159 -1.58804 0
M  V30 11362 N 1039.1 0.374177 1.53094 0
M  V30 11363 C 1040.52 -0.103172 1.86415 0
M  V30 11364 C 1040.87 -1.47439 1.29446 0
M  V30 11365 O 1039.99 -2.07333 0.619853 0
M  V30 11366 C 1040.59 -0.193988 3.38244 0
M  V30 11367 C 1039.15 -0.615605 3.71332 0
M  V30 11368 C 1038.29 0.23186 2.76329 0
M  V30 11369 H 1041.24 0.592644 1.47219 0
M  V30 11370 H 1041.26 -1.01597 3.66686 0
M  V30 11371 H 1040.78 0.80414 3.79678 0
M  V30 11372 H 1038.88 -1.62165 3.3546 0
M  V30 11373 H 1038.99 -0.38425 4.77557 0
M  V30 11374 H 1037.35 -0.300579 2.5292 0
M  V30 11375 H 1038.14 1.22769 3.20597 0
M  V30 11376 N 1040.58 -1.57259 0.103575 0
M  V30 11377 C 1041.99 -1.81816 -0.424239 0
M  V30 11378 C 1042.34 -1.01976 -1.67617 0
M  V30 11379 O 1041.47 -0.251673 -2.14932 0
M  V30 11380 C 1042.06 -3.29783 -0.776453 0
M  V30 11381 C 1040.62 -3.55074 -1.24897 0
M  V30 11382 C 1039.77 -2.76172 -0.249875 0
M  V30 11383 H 1042.72 -1.55254 0.328913 0
M  V30 11384 H 1042.74 -3.43569 -1.63526 0
M  V30 11385 H 1042.25 -3.87865 0.134906 0
M  V30 11386 H 1040.36 -3.02332 -2.17775 0
M  V30 11387 H 1040.47 -4.637 -1.20495 0
M  V30 11388 H 1038.83 -2.43902 -0.733767 0
M  V30 11389 H 1039.62 -3.37007 0.65431 0
M  V30 11390 N 1042.06 0.170153 -1.56679 0
M  V30 11391 C 1043.47 0.732502 -1.7173 0
M  V30 11392 C 1043.82 1.82736 -0.71428 0
M  V30 11393 O 1042.95 2.16044 0.124102 0
M  V30 11394 C 1043.54 1.33548 -3.11368 0
M  V30 11395 C 1042.1 1.84464 -3.281 0
M  V30 11396 C 1041.25 0.724069 -2.6768 0
M  V30 11397 H 1044.2 -0.0552543 -1.58604 0
M  V30 11398 H 1044.22 2.20519 -3.10083 0
M  V30 11399 H 1043.73 0.5384 -3.84347 0
M  V30 11400 H 1041.83 2.66813 -2.6008 0
M  V30 11401 H 1041.95 1.98928 -4.35849 0
M  V30 11402 H 1040.31 1.14481 -2.27522 0
M  V30 11403 H 1041.09 -0.0611861 -3.43245 0
M  V30 11404 N 1043.54 1.5137 0.438746 0
M  V30 11405 C 1044.95 1.56462 1.01866 0
M  V30 11406 C 1045.3 0.387244 1.9234 0
M  V30 11407 O 1044.43 -0.496131 2.10636 0
M  V30 11408 C 1045.02 2.83557 1.85421 0
M  V30 11409 C 1043.58 2.91224 2.38464 0
M  V30 11410 C 1042.73 2.51109 1.17641 0
M  V30 11411 H 1045.68 1.57167 0.220072 0
M  V30 11412 H 1045.7 2.6724 2.70857 0
M  V30 11413 H 1045.21 3.69229 1.19546 0
M  V30 11414 H 1043.31 2.09979 3.07798 0
M  V30 11415 H 1043.42 3.94844 2.71358 0
M  V30 11416 H 1041.79 2.04276 1.5213 0
M  V30 11417 H 1042.57 3.39125 0.533785 0
M  V30 11418 N 1045.02 -0.694098 1.41492 0
M  V30 11419 C 1046.43 -1.27407 1.36471 0
M  V30 11420 C 1046.78 -1.9614 0.0485209 0
M  V30 11421 O 1045.9 -1.98871 -0.853188 0
M  V30 11422 C 1046.5 -2.31698 2.47188 0
M  V30 11423 C 1045.06 -2.85268 2.45559 0
M  V30 11424 C 1044.2 -1.59325 2.2696 0
M  V30 11425 H 1047.16 -0.488756 1.50986 0
M  V30 11426 H 1047.18 -3.1302 2.1633 0
M  V30 11427 H 1046.69 -1.81644 3.42968 0
M  V30 11428 H 1044.79 -3.39494 1.5354 0
M  V30 11429 H 1044.9 -3.35598 3.41922 0
M  V30 11430 H 1043.27 -1.85188 1.74864 0
M  V30 11431 H 1044.05 -1.11265 3.24769 0
M  V30 11432 N 1046.49 -1.27344 -0.928501 0
M  V30 11433 C 1047.43 -1.05797 -2.03322 0
M  V30 11434 C 1048.44 -0.0143086 -1.62794 0
M  V30 11435 O 1049.63 -0.25578 -1.76658 0
M  V30 11436 C 1046.73 -0.582673 -3.33853 0
M  V30 11437 C 1045.9 -1.69844 -4.03078 0
M  V30 11438 C 1044.96 -1.21902 -5.11885 0
M  V30 11439 O 1043.99 -1.91853 -5.35893 0
M  V30 11440 N 1045.19 -0.0742392 -5.80453 0
M  V30 11441 H 1047.95 -2.00928 -2.22369 0
M  V30 11442 H 1045.51 -1.189 -1.09883 0
M  V30 11443 H 1047.51 -0.245862 -4.03952 0
M  V30 11444 H 1046.08 0.27539 -3.11385 0
M  V30 11445 H 1045.3 -2.20557 -3.26723 0
M  V30 11446 H 1046.58 -2.4473 -4.46077 0
M  V30 11447 H 1045.98 0.509631 -5.634 0
M  V30 11448 H 1044.54 0.203399 -6.51483 0
M  V30 11449 N 1047.97 1.13488 -1.09353 0
M  V30 11450 C 1048.92 2.18876 -0.732251 0
M  V30 11451 C 1049.89 1.63616 0.286175 0
M  V30 11452 O 1051.07 1.90059 0.167981 0
M  V30 11453 C 1048.21 3.44737 -0.158157 0
M  V30 11454 C 1047.33 4.14104 -1.23053 0
M  V30 11455 C 1046.46 5.27578 -0.619272 0
M  V30 11456 C 1045.5 5.88793 -1.67301 0
M  V30 11457 N 1044.64 6.937 -1.08283 0
M  V30 11458 H 1049.48 2.49128 -1.63522 0
M  V30 11459 H 1047.02 1.22326 -0.816995 0
M  V30 11460 H 1048.97 4.16756 0.192488 0
M  V30 11461 H 1047.6 3.14938 0.708082 0
M  V30 11462 H 1046.66 3.40376 -1.69847 0
M  V30 11463 H 1047.97 4.55683 -2.02865 0
M  V30 11464 H 1047.12 6.0631 -0.217428 0
M  V30 11465 H 1045.86 4.87246 0.210399 0
M  V30 11466 H 1044.87 5.08756 -2.0844 0
M  V30 11467 H 1046.09 6.31197 -2.50533 0
M  V30 11468 H 1044.04 6.55426 -0.274426 0
M  V30 11469 H 1043.95 7.33817 -1.81792 0
M  V30 11470 H 1045.22 7.76286 -0.707167 0
M  V30 11471 N 1049.45 0.880621 1.30701 0
M  V30 11472 C 1050.4 0.342397 2.28246 0
M  V30 11473 C 1051.37 -0.565023 1.56194 0
M  V30 11474 O 1052.55 -0.494377 1.84284 0
M  V30 11475 C 1049.69 -0.440859 3.42272 0
M  V30 11476 C 1048.81 0.495284 4.29151 0
M  V30 11477 C 1047.94 -0.303141 5.30334 0
M  V30 11478 C 1046.98 0.628751 6.08862 0
M  V30 11479 N 1046.12 -0.13408 7.01972 0
M  V30 11480 H 1050.96 1.17938 2.73669 0
M  V30 11481 H 1048.49 0.59296 1.34619 0
M  V30 11482 H 1050.45 -0.910854 4.07135 0
M  V30 11483 H 1049.08 -1.24245 2.97931 0
M  V30 11484 H 1048.13 1.08376 3.64635 0
M  V30 11485 H 1049.45 1.2094 4.83916 0
M  V30 11486 H 1048.6 -0.835181 6.00924 0
M  V30 11487 H 1047.34 -1.05049 4.76252 0
M  V30 11488 H 1046.34 1.17246 5.37153 0
M  V30 11489 H 1047.57 1.37512 6.65032 0
M  V30 11490 H 1045.52 -0.864046 6.50285 0
M  V30 11491 H 1045.43 0.520486 7.54206 0
M  V30 11492 H 1046.7 -0.647005 7.7681 0
M  V30 11493 N 1050.93 -1.4397 0.641131 0
M  V30 11494 C 1052.35 -1.56607 0.30762 0
M  V30 11495 C 1052.55 -1.62694 -1.18882 0
M  V30 11496 O 1051.6 -1.57541 -1.97325 0
M  V30 11497 C 1052.91 -2.83289 1.00834 0
M  V30 11498 C 1054.46 -2.97016 0.98744 0
M  V30 11499 C 1054.94 -4.26514 1.66882 0
M  V30 11500 N 1056.43 -4.33351 1.63589 0
M  V30 11501 C 1057.16 -5.32292 2.13196 0
M  V30 11502 N 1056.66 -6.37582 2.71038 0
M  V30 11503 N 1058.45 -5.23866 2.03766 0
M  V30 11504 H 1050.6 -1.38262 1.61237 0
M  V30 11505 H 1052.87 -0.663221 0.677378 0
M  V30 11506 H 1052.57 -2.84812 2.06337 0
M  V30 11507 H 1052.45 -3.73134 0.552333 0
M  V30 11508 H 1054.83 -2.95041 -0.0591395 0
M  V30 11509 H 1054.91 -2.08493 1.48203 0
M  V30 11510 H 1054.56 -4.2925 2.71491 0
M  V30 11511 H 1054.49 -5.13912 1.14898 0
M  V30 11512 H 1056.98 -3.5788 1.21368 0
M  V30 11513 H 1057.29 -7.09378 3.06597 0
M  V30 11514 H 1055.64 -6.38239 2.75093 0
M  V30 11515 H 1058.83 -4.40524 1.58291 0
M  V30 11516 H 1059 -6.00819 2.42737 0
M  V30 11517 N 1052.41 -0.382291 -1.52893 0
M  V30 11518 C 1053.34 0.491199 -2.23875 0
M  V30 11519 C 1054.35 1.03249 -1.25871 0
M  V30 11520 O 1055.54 0.936016 -1.5199 0
M  V30 11521 C 1052.64 1.6927 -2.936 0
M  V30 11522 C 1051.81 1.28 -4.18252 0
M  V30 11523 C 1050.87 2.34541 -4.71038 0
M  V30 11524 O 1049.9 1.96239 -5.34302 0
M  V30 11525 N 1051.1 3.6636 -4.50289 0
M  V30 11526 H 1053.87 -0.116897 -2.99472 0
M  V30 11527 H 1051.43 -0.208296 -1.60554 0
M  V30 11528 H 1053.42 2.40054 -3.25816 0
M  V30 11529 H 1051.99 2.20729 -2.21354 0
M  V30 11530 H 1051.21 0.40133 -3.92152 0
M  V30 11531 H 1052.5 0.98082 -4.99257 0
M  V30 11532 H 1051.9 4.00245 -3.99775 0
M  V30 11533 H 1050.45 4.332 -4.87013 0
M  V30 11534 N 1053.89 1.57202 -0.111913 0
M  V30 11535 C 1055.13 1.94125 0.547573 0
M  V30 11536 C 1055.45 0.997026 1.68282 0
M  V30 11537 O 1056.65 1.26063 2.40459 0
M  V30 11538 C 1055.11 3.44982 1.02545 0
M  V30 11539 C 1054.72 4.47927 -0.0809529 0
M  V30 11540 C 1056.46 3.90837 1.65671 0
M  V30 11541 C 1054.37 5.89955 0.413224 0
M  V30 11542 H 1053.3 0.724651 0.208321 0
M  V30 11543 H 1055.95 1.82507 -0.190625 0
M  V30 11544 H 1054.33 3.5181 1.81785 0
M  V30 11545 H 1055.51 4.52761 -0.857003 0
M  V30 11546 H 1053.82 4.11782 -0.618434 0
M  V30 11547 H 1056.42 4.9436 2.03746 0
M  V30 11548 H 1056.76 3.30417 2.53239 0
M  V30 11549 H 1057.29 3.8678 0.929844 0
M  V30 11550 H 1054.03 6.54113 -0.426238 0
M  V30 11551 H 1053.55 5.88557 1.15591 0
M  V30 11552 H 1055.23 6.41032 0.876756 0
M  V30 11553 N 1055.36 -0.161842 1.56767 0
M  V30 11554 C 1056.59 -0.892247 1.86672 0
M  V30 11555 C 1057.01 -1.75407 0.69841 0
M  V30 11556 O 1056.36 -1.7945 -0.332251 0
M  V30 11557 C 1056.41 -1.7612 3.15696 0
M  V30 11558 O 1056.14 -0.934131 4.28025 0
M  V30 11559 C 1057.64 -2.60046 3.59014 0
M  V30 11560 H 1054.86 -0.258747 0.619105 0
M  V30 11561 H 1057.4 -0.159089 2.0388 0
M  V30 11562 H 1055.56 -2.44759 3.00286 0
M  V30 11563 H 1055.97 -1.52931 5.01709 0
M  V30 11564 H 1057.44 -3.16618 4.5217 0
M  V30 11565 H 1057.92 -3.35374 2.83586 0
M  V30 11566 H 1058.53 -1.96724 3.77067 0
M  V30 11567 N 1056.84 -1.516 -0.430713 0
M  V30 11568 C 1058.09 -1.6484 -1.18134 0
M  V30 11569 C 1058.42 -0.366725 -1.90706 0
M  V30 11570 O 1057.7 0.63398 -1.83878 0
M  V30 11571 C 1057.98 -2.85617 -2.19306 0
M  V30 11572 C 1057.83 -4.23778 -1.50773 0
M  V30 11573 C 1059.15 -3.01909 -3.20217 0
M  V30 11574 H 1056.27 -0.599907 -0.428113 0
M  V30 11575 H 1058.91 -1.84102 -0.46973 0
M  V30 11576 H 1057.06 -2.69325 -2.79993 0
M  V30 11577 H 1058.73 -4.51752 -0.93371 0
M  V30 11578 H 1056.98 -4.26171 -0.809966 0
M  V30 11579 H 1057.65 -5.04291 -2.24487 0
M  V30 11580 H 1060.12 -3.16956 -2.69589 0
M  V30 11581 H 1059 -3.87968 -3.88293 0
M  V30 11582 H 1059.26 -2.1427 -3.86705 0
M  V30 11583 N 1058.32 0.686584 -1.41858 0
M  V30 11584 C 1059.6 1.44176 -1.32185 0
M  V30 11585 C 1059.98 2.11049 0.046362 0
M  V30 11586 O 1059.32 2.02365 1.06117 0
M  V30 11587 C 1059.53 2.45385 -2.48168 0
M  V30 11588 C 1060.88 3.10375 -2.89746 0
M  V30 11589 O 1061.91 2.55711 -2.47973 0
M  V30 11590 O 1060.77 4.09404 -3.62009 0
M  V30 11591 H 1057.86 0.642513 -0.520678 0
M  V30 11592 H 1060.41 0.716303 -1.53841 0
M  V30 11593 H 1059.18 1.94687 -3.3943 0
M  V30 11594 H 1058.8 3.25428 -2.28435 0
M  V30 11595 N 1059.8 1.27835 0.921735 0
M  V30 11596 C 1061.02 1.17465 1.70929 0
M  V30 11597 C 1061.45 -0.264171 1.86236 0
M  V30 11598 O 1060.81 -1.19124 1.36671 0
M  V30 11599 C 1060.85 1.8697 3.08342 0
M  V30 11600 O 1059.96 1.17173 3.95404 0
M  V30 11601 H 1059.3 0.408206 0.523702 0
M  V30 11602 H 1061.83 1.69013 1.15307 0
M  V30 11603 H 1061.84 1.94564 3.58621 0
M  V30 11604 H 1060.51 2.91633 2.96518 0
M  V30 11605 H 1059.09 1.17688 3.53842 0
M  V30 11606 N 1061.28 -1.12907 1.09954 0
M  V30 11607 C 1062.19 -2.22082 0.756095 0
M  V30 11608 C 1063.2 -1.72277 -0.244272 0
M  V30 11609 O 1064.38 -2.01224 -0.0842637 0
M  V30 11610 C 1061.44 -3.46192 0.187642 0
M  V30 11611 C 1060.5 -4.10861 1.24465 0
M  V30 11612 C 1059.74 -5.29047 0.703227 0
M  V30 11613 O 1059.96 -5.68443 -0.472043 0
M  V30 11614 O 1058.89 -5.83904 1.46082 0
M  V30 11615 H 1062.72 -2.53842 1.66727 0
M  V30 11616 H 1060.3 -1.21145 0.874316 0
M  V30 11617 H 1062.19 -4.21212 -0.125774 0
M  V30 11618 H 1060.86 -3.16119 -0.696459 0
M  V30 11619 H 1059.77 -3.37643 1.61085 0
M  V30 11620 H 1061.1 -4.45078 2.10159 0
M  V30 11621 N 1062.75 -0.88754 -1.30232 0
M  V30 11622 C 1064 -0.503322 -1.95319 0
M  V30 11623 C 1064.32 0.952817 -1.70824 0
M  V30 11624 O 1065.52 1.444 -2.29915 0
M  V30 11625 C 1063.98 -0.849216 -3.49738 0
M  V30 11626 C 1063.59 -2.3233 -3.83049 0
M  V30 11627 C 1065.33 -0.53432 -4.21124 0
M  V30 11628 C 1063.24 -2.61069 -5.30657 0
M  V30 11629 H 1062.17 -0.1845 -0.731078 0
M  V30 11630 H 1064.82 -1.08287 -1.48143 0
M  V30 11631 H 1063.2 -0.198729 -3.95501 0
M  V30 11632 H 1064.37 -3.01832 -3.48187 0
M  V30 11633 H 1062.69 -2.60599 -3.24773 0
M  V30 11634 H 1065.29 -0.726039 -5.29748 0
M  V30 11635 H 1065.63 0.526434 -4.12958 0
M  V30 11636 H 1066.16 -1.14211 -3.81052 0
M  V30 11637 H 1062.9 -3.65895 -5.43876 0
M  V30 11638 H 1062.42 -1.96179 -5.6681 0
M  V30 11639 H 1064.1 -2.46703 -5.98119 0
M  V30 11640 N 1064.23 1.43628 -0.648757 0
M  V30 11641 C 1065.65 1.56442 -0.315921 0
M  V30 11642 C 1065.85 1.63322 1.18018 0
M  V30 11643 O 1064.9 1.58585 1.96487 0
M  V30 11644 C 1066.22 2.82751 -1.02335 0
M  V30 11645 C 1067.77 2.96488 -1.00318 0
M  V30 11646 C 1068.24 4.25623 -1.69142 0
M  V30 11647 N 1069.73 4.32477 -1.65885 0
M  V30 11648 C 1070.47 5.31154 -2.16016 0
M  V30 11649 N 1069.96 6.36135 -2.74415 0
M  V30 11650 N 1071.76 5.22778 -2.06541 0
M  V30 11651 H 1063.91 1.37405 -1.61968 0
M  V30 11652 H 1066.17 0.65962 -0.680886 0
M  V30 11653 H 1065.88 2.83714 -2.07844 0
M  V30 11654 H 1065.75 3.72836 -0.572114 0
M  V30 11655 H 1068.14 2.95068 0.0434919 0
M  V30 11656 H 1068.22 2.07704 -1.49307 0
M  V30 11657 H 1067.86 4.27804 -2.73763 0
M  V30 11658 H 1067.79 5.13296 -1.17622 0
M  V30 11659 H 1070.28 3.57232 -1.23264 0
M  V30 11660 H 1070.6 7.07743 -3.10355 0
M  V30 11661 H 1068.94 6.36771 -2.78474 0
M  V30 11662 H 1072.13 4.39678 -1.60625 0
M  V30 11663 H 1072.3 5.99523 -2.45919 0
M  V30 11664 N 1065.71 0.390394 1.52688 0
M  V30 11665 C 1066.66 -0.444229 2.26485 0
M  V30 11666 C 1067.63 -1.05688 1.28138 0
M  V30 11667 O 1068.81 -1.0847 1.56968 0
M  V30 11668 C 1065.95 -1.56501 3.07574 0
M  V30 11669 C 1065.07 -0.975111 4.20851 0
M  V30 11670 C 1064.2 -2.06704 4.89333 0
M  V30 11671 C 1063.24 -1.45309 5.94602 0
M  V30 11672 N 1062.38 -2.48437 6.56676 0
M  V30 11673 H 1067.22 0.191535 2.97384 0
M  V30 11674 H 1064.75 0.106287 1.46716 0
M  V30 11675 H 1066.71 -2.22558 3.52879 0
M  V30 11676 H 1065.34 -2.17107 2.38881 0
M  V30 11677 H 1064.39 -0.204109 3.79852 0
M  V30 11678 H 1065.71 -0.486465 4.96422 0
M  V30 11679 H 1064.86 -2.80528 5.37949 0
M  V30 11680 H 1063.6 -2.58928 4.13289 0
M  V30 11681 H 1062.6 -0.700091 5.45324 0
M  V30 11682 H 1063.83 -0.938775 6.7258 0
M  V30 11683 H 1061.77 -2.99829 5.83471 0
M  V30 11684 H 1061.69 -2.04331 7.27863 0
M  V30 11685 H 1062.96 -3.21888 7.09935 0
M  V30 11686 N 1067.19 -1.57141 0.120249 0
M  V30 11687 C 1068.6 -1.5784 -0.236335 0
M  V30 11688 C 1068.8 -1.13304 -1.66626 0
M  V30 11689 O 1067.86 -0.821004 -2.3878 0
M  V30 11690 C 1069.17 -3.007 -0.00188211 0
M  V30 11691 C 1070.72 -3.12927 -0.0676838 0
M  V30 11692 C 1071.2 -4.57789 0.139092 0
M  V30 11693 N 1072.69 -4.63122 0.085104 0
M  V30 11694 C 1073.42 -5.72978 0.219983 0
M  V30 11695 N 1072.92 -6.91579 0.411102 0
M  V30 11696 N 1074.71 -5.61874 0.159469 0
M  V30 11697 H 1066.86 -1.84391 1.05422 0
M  V30 11698 H 1069.13 -0.852228 0.415225 0
M  V30 11699 H 1068.83 -3.37575 0.986718 0
M  V30 11700 H 1068.71 -3.70005 -0.733203 0
M  V30 11701 H 1071.09 -2.75909 -1.04681 0
M  V30 11702 H 1071.17 -2.46162 0.695538 0
M  V30 11703 H 1070.82 -4.95506 1.1152 0
M  V30 11704 H 1070.75 -5.22646 -0.644131 0
M  V30 11705 H 1073.24 -3.77854 -0.0590479 0
M  V30 11706 H 1073.55 -7.71149 0.504851 0
M  V30 11707 H 1071.9 -6.9356 0.447091 0
M  V30 11708 H 1075.09 -4.68099 0.0111131 0
M  V30 11709 H 1075.26 -6.47445 0.268028 0
M  V30 11710 N 1068.67 0.153526 -1.5685 0
M  V30 11711 C 1069.6 1.19162 -2.00805 0
M  V30 11712 C 1070.58 1.45172 -0.886518 0
M  V30 11713 O 1071.76 1.56203 -1.15387 0
M  V30 11714 C 1068.89 2.52637 -2.38311 0
M  V30 11715 C 1067.85 2.41161 -3.53589 0
M  V30 11716 C 1067.17 3.79287 -3.76889 0
M  V30 11717 C 1068.47 1.90122 -4.86468 0
M  V30 11718 H 1070.17 0.82617 -2.87776 0
M  V30 11719 H 1067.71 0.395972 -1.38449 0
M  V30 11720 H 1069.67 3.25478 -2.6766 0
M  V30 11721 H 1068.39 2.91005 -1.4827 0
M  V30 11722 H 1067.05 1.70772 -3.24395 0
M  V30 11723 H 1066.7 4.15079 -2.84109 0
M  V30 11724 H 1066.4 3.72472 -4.54465 0
M  V30 11725 H 1067.92 4.53687 -4.08657 0
M  V30 11726 H 1069.33 2.52752 -5.14577 0
M  V30 11727 H 1067.73 1.94214 -5.67804 0
M  V30 11728 H 1068.8 0.856517 -4.77275 0
M  V30 11729 N 1070.14 1.51827 0.422667 0
M  V30 11730 C 1071.42 1.55772 1.18299 0
M  V30 11731 C 1071.8 0.330657 2.08494 0
M  V30 11732 O 1071.15 -0.683373 2.18042 0
M  V30 11733 C 1071.36 2.87941 1.97208 0
M  V30 11734 C 1072.71 3.4044 2.53744 0
M  V30 11735 O 1073.73 2.8959 2.07403 0
M  V30 11736 O 1072.59 4.29201 3.38303 0
M  V30 11737 H 1069.68 0.626889 0.539388 0
M  V30 11738 H 1072.23 1.64147 0.430545 0
M  V30 11739 H 1071 3.68702 1.31052 0
M  V30 11740 H 1070.63 2.82795 2.79486 0
M  V30 11741 N 1071.62 -0.679052 1.4222 0
M  V30 11742 C 1072.87 -1.44125 1.42674 0
M  V30 11743 C 1073.2 -1.94156 0.041438 0
M  V30 11744 O 1072.48 -1.70628 -0.93361 0
M  V30 11745 C 1072.76 -2.64133 2.44756 0
M  V30 11746 C 1072.61 -2.19761 3.9246 0
M  V30 11747 C 1073.93 -3.66347 2.43881 0
M  V30 11748 H 1071.05 -0.522729 0.519541 0
M  V30 11749 H 1073.69 -0.772067 1.73606 0
M  V30 11750 H 1071.84 -3.21225 2.1851 0
M  V30 11751 H 1073.51 -1.67869 4.29671 0
M  V30 11752 H 1071.76 -1.51377 4.06531 0
M  V30 11753 H 1072.43 -3.05944 4.59459 0
M  V30 11754 H 1074.9 -3.18963 2.67211 0
M  V30 11755 H 1073.78 -4.47902 3.17293 0
M  V30 11756 H 1074.04 -4.17183 1.46325 0
M  V30 11757 N 1073.1 -1.28322 -0.914942 0
M  V30 11758 C 1074.38 -1.06111 -1.64316 0
M  V30 11759 C 1074.76 0.399934 -2.07277 0
M  V30 11760 O 1074.11 1.38577 -1.81683 0
M  V30 11761 C 1074.32 -2.03461 -2.83557 0
M  V30 11762 C 1075.66 -2.33541 -3.54604 0
M  V30 11763 O 1076.69 -2.01536 -2.93704 0
M  V30 11764 O 1075.55 -2.88158 -4.64357 0
M  V30 11765 H 1072.64 -0.405451 -0.72079 0
M  V30 11766 H 1075.19 -1.39636 -0.964352 0
M  V30 11767 H 1073.96 -3.01938 -2.48896 0
M  V30 11768 H 1073.58 -1.70574 -3.59152 0
M  V30 11769 N 1074.58 1.12322 -1.10551 0
M  V30 11770 C 1075.83 1.83216 -0.84349 0
M  V30 11771 C 1076.14 1.85075 0.632992 0
M  V30 11772 O 1077.35 2.51976 1.01095 0
M  V30 11773 C 1075.8 3.28994 -1.45915 0
M  V30 11774 C 1075.41 3.3549 -2.96901 0
M  V30 11775 C 1077.15 4.0485 -1.27657 0
M  V30 11776 C 1075.06 4.7561 -3.51496 0
M  V30 11777 H 1073.99 0.686471 -0.311887 0
M  V30 11778 H 1076.64 1.26463 -1.32964 0
M  V30 11779 H 1075.02 3.85621 -0.900678 0
M  V30 11780 H 1076.2 2.88795 -3.59074 0
M  V30 11781 H 1074.51 2.73107 -3.14327 0
M  V30 11782 H 1077.11 5.08316 -1.65889 0
M  V30 11783 H 1077.45 4.15727 -0.218258 0
M  V30 11784 H 1077.99 3.54584 -1.80318 0
M  V30 11785 H 1074.73 4.69927 -4.56999 0
M  V30 11786 H 1074.25 5.22753 -2.94091 0
M  V30 11787 H 1075.92 5.44552 -3.49388 0
M  V30 11788 N 1076.06 0.894434 1.2976 0
M  V30 11789 C 1077.28 0.532916 1.99919 0
M  V30 11790 C 1077.7 -0.881022 1.66983 0
M  V30 11791 O 1077.06 -1.58076 0.912035 0
M  V30 11792 C 1077.11 0.70936 3.54472 0
M  V30 11793 O 1076.83 2.06764 3.86239 0
M  V30 11794 C 1078.33 0.352089 4.419 0
M  V30 11795 H 1075.55 0.205019 0.638912 0
M  V30 11796 H 1078.09 1.20233 1.65421 0
M  V30 11797 H 1076.25 0.0871901 3.87302 0
M  V30 11798 H 1076.66 2.09315 4.80924 0
M  V30 11799 H 1078.14 0.526405 5.49484 0
M  V30 11800 H 1078.61 -0.710527 4.33415 0
M  V30 11801 H 1079.22 0.950979 4.14532 0
M  V30 11802 N 1077.53 -1.43282 0.656365 0
M  V30 11803 C 1078.44 -2.34576 -0.033864 0
M  V30 11804 C 1079.46 -1.5406 -0.808793 0
M  V30 11805 O 1080.64 -1.867 -0.755322 0
M  V30 11806 C 1077.7 -3.32378 -0.986197 0
M  V30 11807 C 1076.76 -4.28797 -0.207851 0
M  V30 11808 C 1076 -5.21927 -1.11482 0
M  V30 11809 O 1076.22 -5.19554 -2.35414 0
M  V30 11810 O 1075.15 -5.99045 -0.585536 0
M  V30 11811 H 1078.98 -2.95099 0.717668 0
M  V30 11812 H 1076.56 -1.43475 0.416556 0
M  V30 11813 H 1078.45 -3.9251 -1.53341 0
M  V30 11814 H 1077.12 -2.74354 -1.7179 0
M  V30 11815 H 1076.03 -3.72134 0.383022 0
M  V30 11816 H 1077.36 -4.89811 0.48435 0
M  V30 11817 N 1079.01 -0.398486 -1.52479 0
M  V30 11818 C 1079.94 0.423498 -2.29627 0
M  V30 11819 C 1080.92 1.05547 -1.33394 0
M  V30 11820 O 1082.11 1.0665 -1.62294 0
M  V30 11821 C 1079.24 1.54612 -3.10986 0
M  V30 11822 C 1078.19 1.03971 -4.15179 0
M  V30 11823 C 1077.52 2.25512 -4.84818 0
M  V30 11824 C 1078.82 0.10121 -5.22202 0
M  V30 11825 H 1080.51 -0.220222 -2.98589 0
M  V30 11826 H 1078.06 -0.107355 -1.43599 0
M  V30 11827 H 1080.01 2.12806 -3.63719 0
M  V30 11828 H 1078.74 2.21756 -2.39774 0
M  V30 11829 H 1077.4 0.480251 -3.63441 0
M  V30 11830 H 1077.04 2.91187 -4.10145 0
M  V30 11831 H 1076.74 1.92285 -5.55248 0
M  V30 11832 H 1078.27 2.84331 -5.40359 0
M  V30 11833 H 1079.68 0.591617 -5.70239 0
M  V30 11834 H 1078.08 -0.141737 -5.99933 0
M  V30 11835 H 1079.15 -0.847216 -4.77441 0
M  V30 11836 N 1080.49 1.57075 -0.12858 0
M  V30 11837 C 1081.44 2.12379 0.829418 0
M  V30 11838 C 1082.43 1.04694 1.2218 0
M  V30 11839 O 1083.62 1.30909 1.1913 0
M  V30 11840 C 1080.75 2.73436 2.07575 0
M  V30 11841 C 1079.83 3.88217 1.7073 0
M  V30 11842 N 1080.22 4.94864 1.04609 0
M  V30 11843 C 1078.52 3.9858 2.00125 0
M  V30 11844 C 1079.22 5.7514 0.871137 0
M  V30 11845 N 1078.2 5.25284 1.39918 0
M  V30 11846 H 1082 2.92209 0.314816 0
M  V30 11847 H 1079.51 1.62233 0.0735788 0
M  V30 11848 H 1081.51 3.11406 2.77185 0
M  V30 11849 H 1080.17 1.95073 2.5957 0
M  V30 11850 H 1081.18 5.13025 0.708961 0
M  V30 11851 H 1077.86 3.3127 2.541 0
M  V30 11852 H 1079.25 6.7098 0.351395 0
M  V30 11853 N 1081.97 -0.145205 1.5693 0
M  V30 11854 C 1083.19 -0.876386 1.87974 0
M  V30 11855 C 1083.62 -1.73866 0.717795 0
M  V30 11856 O 1082.98 -1.78224 -0.332551 0
M  V30 11857 C 1083.03 -1.70746 3.17613 0
M  V30 11858 O 1082.13 -2.81188 3.01674 0
M  V30 11859 H 1081.47 -0.243987 0.617549 0
M  V30 11860 H 1084 -0.135482 2.04151 0
M  V30 11861 H 1084.01 -2.1021 3.49679 0
M  V30 11862 H 1082.69 -1.07429 4.01786 0
M  V30 11863 H 1081.26 -2.45117 2.81019 0
M  V30 11864 N 1083.45 -1.52049 -0.414609 0
M  V30 11865 C 1084.69 -1.67041 -1.16056 0
M  V30 11866 C 1085.05 -0.392768 -1.88348 0
M  V30 11867 O 1084.34 0.612547 -1.81545 0
M  V30 11868 C 1084.54 -2.82735 -2.18622 0
M  V30 11869 C 1084.36 -4.21627 -1.564 0
M  V30 11870 C 1083.13 -4.87234 -1.33907 0
M  V30 11871 C 1085.33 -5.03924 -1.02785 0
M  V30 11872 N 1083.31 -6.10175 -0.67521 0
M  V30 11873 C 1084.69 -6.18056 -0.490589 0
M  V30 11874 C 1086.74 -4.89293 -0.921791 0
M  V30 11875 C 1085.44 -7.19159 0.14234 0
M  V30 11876 C 1087.47 -5.90625 -0.302724 0
M  V30 11877 C 1086.83 -7.04044 0.223891 0
M  V30 11878 H 1082.93 -0.664947 -0.411544 0
M  V30 11879 H 1085.51 -1.89339 -0.453743 0
M  V30 11880 H 1083.69 -2.62062 -2.86668 0
M  V30 11881 H 1085.42 -2.86792 -2.85539 0
M  V30 11882 H 1082.17 -4.45499 -1.60709 0
M  V30 11883 H 1082.6 -6.76042 -0.360062 0
M  V30 11884 H 1087.24 -4.01838 -1.31477 0
M  V30 11885 H 1084.96 -8.06244 0.547392 0
M  V30 11886 H 1088.54 -5.81375 -0.222252 0
M  V30 11887 H 1087.42 -7.81111 0.695377 0
M  V30 11888 N 1084.93 0.6715 -1.42579 0
M  V30 11889 C 1086.17 1.42731 -1.42516 0
M  V30 11890 C 1086.49 1.95545 -0.0462407 0
M  V30 11891 O 1087.69 2.71391 0.0769798 0
M  V30 11892 C 1086.15 2.58215 -2.50705 0
M  V30 11893 C 1085.76 2.12086 -3.94618 0
M  V30 11894 C 1087.5 3.35705 -2.59813 0
M  V30 11895 C 1085.41 3.24672 -4.9431 0
M  V30 11896 H 1084.34 0.536218 -0.530081 0
M  V30 11897 H 1086.99 0.726655 -1.68499 0
M  V30 11898 H 1085.37 3.30665 -2.17892 0
M  V30 11899 H 1086.55 1.46768 -4.36802 0
M  V30 11900 H 1084.86 1.47526 -3.89391 0
M  V30 11901 H 1087.46 4.1956 -3.31472 0
M  V30 11902 H 1087.8 3.82517 -1.64276 0
M  V30 11903 H 1088.33 2.70326 -2.91836 0
M  V30 11904 H 1085.07 2.82848 -5.91335 0
M  V30 11905 H 1084.59 3.88761 -4.56755 0
M  V30 11906 H 1086.27 3.90088 -5.16179 0
M  V30 11907 N 1086.4 1.28806 0.908124 0
M  V30 11908 C 1087.63 1.19153 1.69146 0
M  V30 11909 C 1088.05 -0.249056 1.8715 0
M  V30 11910 O 1087.4 -1.16772 1.40251 0
M  V30 11911 C 1087.45 1.89167 3.08055 0
M  V30 11912 O 1087.18 3.27599 2.90879 0
M  V30 11913 C 1088.68 1.85886 4.02444 0
M  V30 11914 H 1085.9 0.413359 0.528559 0
M  V30 11915 H 1088.44 1.7003 1.13622 0
M  V30 11916 H 1086.6 1.42146 3.60379 0
M  V30 11917 H 1087.01 3.62743 3.78837 0
M  V30 11918 H 1088.48 2.39454 4.97359 0
M  V30 11919 H 1088.96 0.832483 4.31238 0
M  V30 11920 H 1089.57 2.32612 3.5605 0
M  V30 11921 N 1087.88 -1.11734 1.11145 0
M  V30 11922 C 1089.3 -1.35412 0.844736 0
M  V30 11923 C 1089.5 -1.94347 -0.532111 0
M  V30 11924 O 1088.55 -2.17443 -1.28353 0
M  V30 11925 C 1089.87 -2.28869 1.95037 0
M  V30 11926 C 1091.41 -2.42442 1.97967 0
M  V30 11927 C 1091.89 -3.39219 3.07725 0
M  V30 11928 N 1093.38 -3.4678 3.07079 0
M  V30 11929 C 1094.12 -4.21595 3.88646 0
M  V30 11930 N 1093.61 -4.99411 4.80167 0
M  V30 11931 N 1095.4 -4.17075 3.76835 0
M  V30 11932 H 1087.56 -0.718412 1.99881 0
M  V30 11933 H 1089.82 -0.378787 0.869037 0
M  V30 11934 H 1089.52 -1.92752 2.94176 0
M  V30 11935 H 1089.4 -3.2906 1.84389 0
M  V30 11936 H 1091.79 -2.77835 0.994561 0
M  V30 11937 H 1091.87 -1.42113 2.12691 0
M  V30 11938 H 1091.51 -3.04553 4.0646 0
M  V30 11939 H 1091.44 -4.39394 2.90242 0
M  V30 11940 H 1093.93 -2.91272 2.40767 0
M  V30 11941 H 1094.24 -5.53856 5.38946 0
M  V30 11942 H 1092.59 -4.98582 4.84191 0
M  V30 11943 H 1095.78 -3.55369 3.04681 0
M  V30 11944 H 1095.95 -4.75125 4.40637 0
M  V30 11945 N 1089.36 -0.901303 -1.29284 0
M  V30 11946 C 1090.58 -0.542823 -2.0017 0
M  V30 11947 C 1091.01 0.865583 -1.67001 0
M  V30 11948 O 1090.37 1.5764 -0.895502 0
M  V30 11949 C 1090.42 -0.743987 -3.52842 0
M  V30 11950 O 1089.52 0.202771 -4.11901 0
M  V30 11951 H 1088.86 -0.211903 -0.62928 0
M  V30 11952 H 1091.39 -1.21333 -1.64741 0
M  V30 11953 H 1091.4 -0.64926 -4.02801 0
M  V30 11954 H 1090.08 -1.77077 -3.7632 0
M  V30 11955 H 1088.65 0.0603637 -3.72851 0
M  V30 11956 N 1090.84 1.42931 -0.663954 0
M  V30 11957 C 1091.75 2.3459 0.0214234 0
M  V30 11958 C 1092.76 1.54487 0.800611 0
M  V30 11959 O 1093.94 1.87098 0.74541 0
M  V30 11960 C 1091 3.32896 0.968556 0
M  V30 11961 C 1090.07 4.28901 0.185108 0
M  V30 11962 C 1089.3 5.2251 1.08713 0
M  V30 11963 O 1089.52 5.20795 2.32655 0
M  V30 11964 O 1088.46 5.99347 0.553758 0
M  V30 11965 H 1092.28 2.94714 -0.733308 0
M  V30 11966 H 1089.87 1.43252 -0.424159 0
M  V30 11967 H 1091.75 3.93318 1.51257 0
M  V30 11968 H 1090.42 2.75261 1.70333 0
M  V30 11969 H 1089.33 3.71926 -0.402752 0
M  V30 11970 H 1090.66 4.89547 -0.510319 0
M  V30 11971 N 1092.32 0.406567 1.52266 0
M  V30 11972 C 1093.28 -0.408251 2.25535 0
M  V30 11973 C 1094.28 -0.975795 1.27808 0
M  V30 11974 O 1095.47 -0.855077 1.5177 0
M  V30 11975 C 1092.6 -1.57443 3.02365 0
M  V30 11976 H 1093.79 0.233459 2.9899 0
M  V30 11977 H 1091.35 0.159032 1.55489 0
M  V30 11978 H 1092.08 -2.25308 2.33252 0
M  V30 11979 H 1091.87 -1.17399 3.74112 0
M  V30 11980 H 1093.36 -2.15088 3.57948 0
M  V30 11981 N 1093.79 -1.57004 0.136909 0
M  V30 11982 C 1095.04 -1.96087 -0.517477 0
M  V30 11983 C 1095.37 -1.0213 -1.65176 0
M  V30 11984 O 1094.65 -0.0617958 -1.94402 0
M  V30 11985 C 1094.93 -3.44958 -1.03323 0
M  V30 11986 C 1094.78 -4.49691 0.0988609 0
M  V30 11987 C 1096.1 -3.96091 -1.91832 0
M  V30 11988 H 1093.22 -0.712978 -0.186632 0
M  V30 11989 H 1095.86 -1.88767 0.216095 0
M  V30 11990 H 1094.01 -3.51327 -1.65836 0
M  V30 11991 H 1095.69 -4.55409 0.734847 0
M  V30 11992 H 1093.93 -4.271 0.75947 0
M  V30 11993 H 1094.6 -5.51165 -0.303554 0
M  V30 11994 H 1097.08 -3.92139 -1.39164 0
M  V30 11995 H 1095.95 -5.00742 -2.24831 0
M  V30 11996 H 1096.21 -3.37846 -2.85153 0
M  V30 11997 N 1095.27 0.136881 -1.57004 0
M  V30 11998 C 1096.2 1.17026 -2.02057 0
M  V30 11999 C 1097.18 1.44223 -0.901866 0
M  V30 12000 O 1098.37 1.54971 -1.17037 0
M  V30 12001 C 1095.5 2.50095 -2.40977 0
M  V30 12002 C 1094.45 2.37398 -3.56127 0
M  V30 12003 C 1093.78 3.75268 -3.80891 0
M  V30 12004 C 1095.08 1.84952 -4.88457 0
M  V30 12005 H 1096.77 0.795601 -2.88636 0
M  V30 12006 H 1094.32 0.381266 -1.38861 0
M  V30 12007 H 1096.27 3.22621 -2.71097 0
M  V30 12008 H 1095 2.89416 -1.51348 0
M  V30 12009 H 1093.65 1.67322 -3.26188 0
M  V30 12010 H 1093.3 4.12043 -2.88496 0
M  V30 12011 H 1093 3.67631 -4.5839 0
M  V30 12012 H 1094.53 4.49327 -4.13446 0
M  V30 12013 H 1095.94 2.4728 -5.17229 0
M  V30 12014 H 1094.34 1.88181 -5.69832 0
M  V30 12015 H 1095.41 0.805848 -4.78157 0
M  V30 12016 N 1096.75 1.52266 0.40654 0
M  V30 12017 C 1097.68 1.72025 1.51459 0
M  V30 12018 C 1098.7 0.600667 1.51314 0
M  V30 12019 O 1099.88 0.875894 1.55532 0
M  V30 12020 C 1096.98 1.7479 2.90348 0
M  V30 12021 C 1096.16 3.03826 3.14656 0
M  V30 12022 C 1095.22 2.98369 4.33431 0
M  V30 12023 O 1094.24 3.7227 4.30586 0
M  V30 12024 N 1095.44 2.16338 5.38682 0
M  V30 12025 H 1098.21 2.67622 1.34903 0
M  V30 12026 H 1095.77 1.50536 0.595867 0
M  V30 12027 H 1097.76 1.68667 3.67877 0
M  V30 12028 H 1096.33 0.86656 3.00349 0
M  V30 12029 H 1095.55 3.23577 2.25148 0
M  V30 12030 H 1096.84 3.89182 3.27742 0
M  V30 12031 H 1096.24 1.55731 5.43842 0
M  V30 12032 H 1094.8 2.1607 6.14945 0
M  V30 12033 N 1098.23 -0.663929 1.42933 0
M  V30 12034 C 1099.45 -1.45691 1.47611 0
M  V30 12035 C 1099.88 -1.87875 0.0920305 0
M  V30 12036 O 1099.24 -1.56696 -0.91192 0
M  V30 12037 C 1099.28 -2.67517 2.41799 0
M  V30 12038 O 1098.39 -3.66187 1.89686 0
M  V30 12039 H 1097.73 -0.437257 0.499702 0
M  V30 12040 H 1100.26 -0.813397 1.87737 0
M  V30 12041 H 1100.27 -3.1546 2.58745 0
M  V30 12042 H 1098.94 -2.36155 3.4235 0
M  V30 12043 H 1097.52 -3.25274 1.82349 0
M  V30 12044 N 1099.71 -1.29285 -0.901281 0
M  V30 12045 C 1101.12 -1.15499 -1.46686 0
M  V30 12046 C 1101.47 0.250446 -1.94595 0
M  V30 12047 O 1100.59 1.14581 -1.83576 0
M  V30 12048 C 1101.19 -2.0906 -2.66607 0
M  V30 12049 C 1099.75 -1.99301 -3.19306 0
M  V30 12050 C 1098.89 -2.00079 -1.91999 0
M  V30 12051 H 1101.85 -1.41793 -0.712773 0
M  V30 12052 H 1101.87 -1.6619 -3.42288 0
M  V30 12053 H 1101.38 -3.11341 -2.31707 0
M  V30 12054 H 1099.48 -1.00103 -3.58901 0
M  V30 12055 H 1099.59 -2.86885 -3.8371 0
M  V30 12056 H 1097.96 -1.44655 -2.09636 0
M  V30 12057 H 1098.74 -3.04061 -1.59379 0
M  V30 12058 N 1101.18 1.11143 -1.11736 0
M  V30 12059 C 1102.09 2.20851 -0.791331 0
M  V30 12060 C 1103.11 1.72644 0.216833 0
M  V30 12061 O 1104.29 2.01332 0.0522401 0
M  V30 12062 C 1101.35 3.4585 -0.242694 0
M  V30 12063 C 1100.41 4.08829 -1.30986 0
M  V30 12064 C 1099.65 5.27861 -0.787305 0
M  V30 12065 O 1099.87 5.69122 0.381549 0
M  V30 12066 O 1098.8 5.81506 -1.55352 0
M  V30 12067 H 1102.63 2.51158 -1.70744 0
M  V30 12068 H 1100.21 1.19739 -0.893478 0
M  V30 12069 H 1102.1 4.21359 0.0587472 0
M  V30 12070 H 1100.77 3.17187 0.646079 0
M  V30 12071 H 1099.68 3.35037 -1.66436 0
M  V30 12072 H 1101.01 4.41678 -2.17213 0
M  V30 12073 N 1102.66 0.908147 1.28804 0
M  V30 12074 C 1103.91 0.538404 1.95211 0
M  V30 12075 C 1104.24 -0.916886 1.71533 0
M  V30 12076 O 1103.49 -1.66643 1.02609 0
M  V30 12077 C 1103.79 0.787327 3.4862 0
M  V30 12078 C 1103.46 2.22129 3.92389 0
M  V30 12079 C 1102.12 2.61336 4.04051 0
M  V30 12080 C 1104.47 3.15471 4.14883 0
M  V30 12081 C 1101.8 3.93048 4.3558 0
M  V30 12082 C 1104.15 4.46741 4.47889 0
M  V30 12083 C 1102.82 4.85809 4.57761 0
M  V30 12084 H 1102.09 0.197016 0.714329 0
M  V30 12085 H 1104.73 1.14841 1.53244 0
M  V30 12086 H 1103.04 0.0944731 3.91686 0
M  V30 12087 H 1104.73 0.480503 3.98111 0
M  V30 12088 H 1101.32 1.90704 3.83836 0
M  V30 12089 H 1105.51 2.86391 4.05332 0
M  V30 12090 H 1100.76 4.23027 4.41428 0
M  V30 12091 H 1104.94 5.19087 4.64243 0
M  V30 12092 H 1102.57 5.87904 4.81947 0
M  V30 12093 N 1104.14 -1.42577 0.671525 0
M  V30 12094 C 1105.1 -2.292 0.000392482 0
M  V30 12095 C 1106.1 -1.43158 -0.732294 0
M  V30 12096 O 1107.29 -1.64583 -0.570789 0
M  V30 12097 C 1104.43 -3.25591 -1.01013 0
M  V30 12098 H 1105.62 -2.90037 0.762783 0
M  V30 12099 H 1103.17 -1.50162 0.433703 0
M  V30 12100 H 1103.91 -2.69685 -1.80112 0
M  V30 12101 H 1103.69 -3.89049 -0.488183 0
M  V30 12102 H 1105.18 -3.90561 -1.47824 0
M  V30 12103 N 1105.62 -0.414636 -1.52048 0
M  V30 12104 C 1106.87 0.16073 -2.01059 0
M  V30 12105 C 1107.18 1.45753 -1.30443 0
M  V30 12106 O 1108.39 2.11448 -1.703 0
M  V30 12107 C 1106.84 0.336993 -3.58319 0
M  V30 12108 C 1106.45 -0.948037 -4.37854 0
M  V30 12109 C 1108.19 0.867353 -4.15545 0
M  V30 12110 C 1106.1 -0.738662 -5.86769 0
M  V30 12111 H 1105.03 0.0638419 -0.751292 0
M  V30 12112 H 1107.68 -0.540925 -1.75346 0
M  V30 12113 H 1106.06 1.10111 -3.80383 0
M  V30 12114 H 1107.24 -1.71873 -4.27547 0
M  V30 12115 H 1105.55 -1.40522 -3.91972 0
M  V30 12116 H 1108.15 1.04012 -5.24486 0
M  V30 12117 H 1108.49 1.84358 -3.73253 0
M  V30 12118 H 1109.03 0.162148 -3.97469 0
M  V30 12119 H 1105.77 -1.6866 -6.3343 0
M  V30 12120 H 1105.29 -0.00736294 -5.998 0
M  V30 12121 H 1106.96 -0.382978 -6.45866 0
M  V30 12122 N 1107.1 1.56929 -0.145233 0
M  V30 12123 C 1108.34 1.96068 0.50632 0
M  V30 12124 C 1108.67 1.02999 1.64989 0
M  V30 12125 O 1107.93 0.0588581 1.95611 0
M  V30 12126 C 1108.23 3.41467 1.05522 0
M  V30 12127 C 1107.89 4.5089 0.0302827 0
M  V30 12128 C 1106.55 4.80542 -0.251475 0
M  V30 12129 C 1108.91 5.16917 -0.666783 0
M  V30 12130 C 1106.23 5.7353 -1.23614 0
M  V30 12131 C 1108.59 6.10965 -1.64025 0
M  V30 12132 C 1107.25 6.38998 -1.92973 0
M  V30 12133 H 1106.52 0.717464 0.185276 0
M  V30 12134 H 1109.17 1.90093 -0.23169 0
M  V30 12135 H 1107.47 3.44265 1.87053 0
M  V30 12136 H 1109.17 3.69077 1.5679 0
M  V30 12137 H 1105.76 4.2781 0.260069 0
M  V30 12138 H 1109.94 4.94142 -0.462297 0
M  V30 12139 H 1105.2 5.93543 -1.46687 0
M  V30 12140 H 1109.37 6.61204 -2.18591 0
M  V30 12141 H 1107 7.10855 -2.69423 0
M  V30 12142 N 1108.58 -0.128553 1.57075 0
M  V30 12143 C 1109.99 -0.481794 1.52154 0
M  V30 12144 C 1110.19 -1.82381 0.856694 0
M  V30 12145 O 1109.25 -2.48725 0.434989 0
M  V30 12146 C 1110.56 -0.475091 2.96923 0
M  V30 12147 C 1112.11 -0.559315 3.07962 0
M  V30 12148 C 1112.58 -0.583095 4.54273 0
M  V30 12149 N 1114.07 -0.644803 4.5869 0
M  V30 12150 C 1114.81 -0.684493 5.693 0
M  V30 12151 N 1114.31 -0.682407 6.89431 0
M  V30 12152 N 1116.1 -0.726777 5.57382 0
M  V30 12153 H 1108.25 0.750894 1.98684 0
M  V30 12154 H 1110.51 0.27593 0.906955 0
M  V30 12155 H 1110.22 0.443157 3.48897 0
M  V30 12156 H 1110.09 -1.30637 3.53856 0
M  V30 12157 H 1112.48 -1.46798 2.55997 0
M  V30 12158 H 1112.56 0.299468 2.54041 0
M  V30 12159 H 1112.2 0.32149 5.06881 0
M  V30 12160 H 1112.13 -1.45863 5.05996 0
M  V30 12161 H 1114.63 -0.652967 3.72216 0
M  V30 12162 H 1114.94 -0.715051 7.69485 0
M  V30 12163 H 1113.28 -0.649984 6.91954 0
M  V30 12164 H 1116.47 -0.725704 4.6244 0
M  V30 12165 H 1116.65 -0.754242 6.43596 0
M  V30 12166 N 1110.05 -1.5248 -0.398459 0
M  V30 12167 C 1111 -1.76585 -1.48615 0
M  V30 12168 C 1111.97 -0.608677 -1.54546 0
M  V30 12169 O 1113.16 -0.847383 -1.7095 0
M  V30 12170 C 1110.3 -1.93201 -2.8595 0
M  V30 12171 C 1109.41 -3.20875 -2.89246 0
M  V30 12172 C 1108.54 -3.27862 -4.17947 0
M  V30 12173 C 1107.58 -4.49697 -4.15258 0
M  V30 12174 N 1106.72 -4.54017 -5.35549 0
M  V30 12175 H 1111.56 -2.69412 -1.27362 0
M  V30 12176 H 1109.1 -1.33487 -0.618031 0
M  V30 12177 H 1111.05 -2.00819 -3.65688 0
M  V30 12178 H 1109.68 -1.03743 -3.05675 0
M  V30 12179 H 1108.74 -3.22376 -2.01935 0
M  V30 12180 H 1110.05 -4.1066 -2.83125 0
M  V30 12181 H 1109.2 -3.34611 -5.06083 0
M  V30 12182 H 1107.94 -2.36035 -4.26777 0
M  V30 12183 H 1106.95 -4.43083 -3.25511 0
M  V30 12184 H 1108.17 -5.42831 -4.08059 0
M  V30 12185 H 1106.12 -3.65078 -5.45027 0
M  V30 12186 H 1106.03 -5.37661 -5.31466 0
M  V30 12187 H 1107.3 -4.65009 -6.25609 0
M  V30 12188 N 1111.53 0.65634 -1.43283 0
M  V30 12189 C 1112.44 1.79847 -1.50639 0
M  V30 12190 C 1113.46 1.69487 -0.393714 0
M  V30 12191 O 1114.63 1.90712 -0.647379 0
M  V30 12192 C 1111.7 3.16107 -1.42398 0
M  V30 12193 C 1110.76 3.38287 -2.64312 0
M  V30 12194 C 1109.99 4.68046 -2.56454 0
M  V30 12195 O 1110.22 5.4719 -1.61056 0
M  V30 12196 O 1109.15 4.91877 -3.46902 0
M  V30 12197 H 1112.98 1.76596 -2.47078 0
M  V30 12198 H 1110.56 0.814428 -1.25249 0
M  V30 12199 H 1112.44 3.97382 -1.40233 0
M  V30 12200 H 1111.12 3.19956 -0.490929 0
M  V30 12201 H 1110.02 2.56788 -2.72049 0
M  V30 12202 H 1111.36 3.39282 -3.56579 0
M  V30 12203 N 1113.01 1.29761 0.894412 0
M  V30 12204 C 1114.26 1.17806 1.64214 0
M  V30 12205 C 1114.58 -0.269588 1.93127 0
M  V30 12206 O 1113.85 -1.18352 1.56107 0
M  V30 12207 H 1112.43 0.433002 0.608702 0
M  V30 12208 H 1115.09 1.6276 1.07216 0
M  V30 12209 H 1114.19 1.73201 2.5963 0
M  V30 12210 N 1114.49 -1.10549 1.12324 0
M  V30 12211 C 1115.44 -2.18944 0.785248 0
M  V30 12212 C 1116.43 -1.67867 -0.227389 0
M  V30 12213 O 1117.64 -1.79796 -0.0857162 0
M  V30 12214 H 1114.01 -0.713976 0.236098 0
M  V30 12215 H 1115.98 -2.44692 1.70788 0
M  V30 12216 C 1114.73 -3.46765 0.25485 0
M  V30 12217 H 1114.05 -3.86428 1.02534 0
M  V30 12218 H 1115.49 -4.23962 0.0566526 0
M  V30 12219 C 1113.95 -3.21185 -1.01695 0
M  V30 12220 O 1114.48 -3.42745 -2.09497 0
M  V30 12221 N 1112.69 -2.7486 -0.943423 0
M  V30 12222 H 1112.24 -2.57515 -0.0660366 0
M  V30 12223 H 1112.19 -2.58122 -1.795 0
M  V30 12224 N 1115.97 -0.914965 -1.28321 0
M  V30 12225 C 1117.21 -0.548749 -1.94923 0
M  V30 12226 C 1117.54 0.907776 -1.72016 0
M  V30 12227 O 1116.8 1.66097 -1.03491 0
M  V30 12228 C 1117.09 -0.805805 -3.48198 0
M  V30 12229 C 1116.76 -2.24207 -3.91206 0
M  V30 12230 C 1115.42 -2.63475 -4.02659 0
M  V30 12231 C 1117.77 -3.17667 -4.13204 0
M  V30 12232 C 1115.1 -3.95353 -4.3349 0
M  V30 12233 C 1117.45 -4.4911 -4.45514 0
M  V30 12234 C 1116.12 -4.8823 -4.55179 0
M  V30 12235 H 1115.39 -0.200801 -0.713274 0
M  V30 12236 H 1118.04 -1.15652 -1.52633 0
M  V30 12237 H 1116.34 -0.115244 -3.9163 0
M  V30 12238 H 1118.04 -0.501609 -3.9785 0
M  V30 12239 H 1114.63 -1.92737 -3.82819 0
M  V30 12240 H 1118.81 -2.88537 -4.03807 0
M  V30 12241 H 1114.07 -4.25362 -4.39178 0
M  V30 12242 H 1118.24 -5.21542 -4.61483 0
M  V30 12243 H 1115.87 -5.90451 -4.78823 0
M  V30 12244 N 1117.44 1.42219 -0.679077 0
M  V30 12245 C 1118.67 2.06333 -0.210097 0
M  V30 12246 C 1119.09 1.50703 1.12562 0
M  V30 12247 O 1118.45 0.627241 1.70104 0
M  V30 12248 C 1118.5 3.60243 -0.160322 0
M  V30 12249 O 1117.6 4.03122 0.869872 0
M  V30 12250 H 1116.94 0.655362 -0.106754 0
M  V30 12251 H 1119.47 1.82278 -0.929294 0
M  V30 12252 H 1119.48 4.07997 0.014384 0
M  V30 12253 H 1118.16 4.00106 -1.13526 0
M  V30 12254 H 1116.74 3.66907 0.66586 0
M  V30 12255 N 1118.92 0.422693 1.51826 0
M  V30 12256 C 1120.2 -0.20786 1.94492 0
M  V30 12257 C 1120.58 -1.61414 1.36047 0
M  V30 12258 O 1119.93 -2.21987 0.541657 0
M  V30 12259 C 1120.14 -0.200457 3.48424 0
M  V30 12260 C 1121.48 -0.413199 4.22585 0
M  V30 12261 O 1122.51 -0.27922 3.55104 0
M  V30 12262 O 1121.37 -0.678469 5.42272 0
M  V30 12263 H 1118.46 -0.137851 0.81543 0
M  V30 12264 H 1121.01 0.479617 1.62781 0
M  V30 12265 H 1119.78 0.783263 3.83381 0
M  V30 12266 H 1119.4 -0.931464 3.86535 0
M  V30 12267 N 1120.4 -1.5685 0.153553 0
M  V30 12268 C 1121.33 -2.20101 -0.779601 0
M  V30 12269 C 1122.31 -1.15121 -1.25225 0
M  V30 12270 O 1123.5 -1.43487 -1.30862 0
M  V30 12271 C 1120.63 -2.82778 -2.01628 0
M  V30 12272 C 1119.58 -3.93643 -1.68015 0
M  V30 12273 C 1118.91 -4.43286 -2.99001 0
M  V30 12274 C 1120.21 -5.14102 -0.921774 0
M  V30 12275 H 1121.9 -2.98334 -0.252432 0
M  V30 12276 H 1119.45 -1.43499 -0.119975 0
M  V30 12277 H 1121.4 -3.25696 -2.67395 0
M  V30 12278 H 1120.12 -2.01887 -2.56728 0
M  V30 12279 H 1118.78 -3.51354 -1.04624 0
M  V30 12280 H 1118.43 -3.59208 -3.52106 0
M  V30 12281 H 1118.13 -5.18068 -2.77272 0
M  V30 12282 H 1119.65 -4.88878 -3.65828 0
M  V30 12283 H 1121.07 -5.53823 -1.48167 0
M  V30 12284 H 1119.46 -5.94687 -0.804185 0
M  V30 12285 H 1120.53 -4.84825 0.0852757 0
M  V30 12286 N 1121.88 0.120221 -1.57141 0
M  V30 12287 C 1122.82 1.14751 -2.00252 0
M  V30 12288 C 1123.79 1.41217 -0.874462 0
M  V30 12289 O 1124.98 1.53104 -1.13859 0
M  V30 12290 C 1122.12 2.46923 -2.41087 0
M  V30 12291 C 1121.23 2.27403 -3.67303 0
M  V30 12292 C 1120.37 3.52797 -3.97125 0
M  V30 12293 C 1119.41 3.28429 -5.16528 0
M  V30 12294 N 1118.54 4.46022 -5.42226 0
M  V30 12295 H 1123.38 0.772884 -2.87803 0
M  V30 12296 H 1120.92 0.370137 -1.42367 0
M  V30 12297 H 1122.88 3.24025 -2.62799 0
M  V30 12298 H 1121.51 2.82281 -1.5658 0
M  V30 12299 H 1120.56 1.41224 -3.53214 0
M  V30 12300 H 1121.87 2.05373 -4.54558 0
M  V30 12301 H 1121.03 4.38318 -4.19479 0
M  V30 12302 H 1119.77 3.77857 -3.08343 0
M  V30 12303 H 1118.77 2.41299 -4.94019 0
M  V30 12304 H 1120 3.0474 -6.06886 0
M  V30 12305 H 1117.94 4.71205 -4.56401 0
M  V30 12306 H 1117.86 4.27092 -6.23802 0
M  V30 12307 H 1119.13 5.3268 -5.69098 0
M  V30 12308 N 1123.36 1.52689 0.390367 0
M  V30 12309 C 1124.27 1.8029 1.50108 0
M  V30 12310 C 1125.28 0.689582 1.59752 0
M  V30 12311 O 1126.46 0.977024 1.76114 0
M  V30 12312 C 1123.52 1.96475 2.85654 0
M  V30 12313 C 1122.58 3.2039 2.85743 0
M  V30 12314 C 1121.82 3.35793 4.14824 0
M  V30 12315 O 1122.04 2.56033 5.09709 0
M  V30 12316 O 1120.97 4.2904 4.22147 0
M  V30 12317 H 1124.8 2.74605 1.29715 0
M  V30 12318 H 1122.39 1.37763 0.578074 0
M  V30 12319 H 1124.27 2.08835 3.66013 0
M  V30 12320 H 1122.94 1.05351 3.06077 0
M  V30 12321 H 1121.85 3.13473 2.0417 0
M  V30 12322 H 1123.18 4.11356 2.70272 0
M  V30 12323 N 1124.83 -0.648732 1.43629 0
M  V30 12324 C 1125.78 -1.76145 1.49136 0
M  V30 12325 C 1126.75 -1.62569 0.340649 0
M  V30 12326 O 1127.94 -1.82748 0.548435 0
M  V30 12327 C 1125.08 -3.14321 1.42466 0
M  V30 12328 C 1124.19 -3.38999 2.67776 0
M  V30 12329 C 1123.32 -4.67047 2.53062 0
M  V30 12330 C 1122.36 -4.84845 3.7362 0
M  V30 12331 N 1121.5 -6.04155 3.57689 0
M  V30 12332 H 1126.34 -1.70774 2.44213 0
M  V30 12333 H 1123.88 -0.833311 1.2122 0
M  V30 12334 H 1125.84 -3.94206 1.36592 0
M  V30 12335 H 1124.47 -3.18751 0.509666 0
M  V30 12336 H 1123.52 -2.53179 2.83909 0
M  V30 12337 H 1124.83 -3.48035 3.57314 0
M  V30 12338 H 1123.98 -5.55066 2.44922 0
M  V30 12339 H 1122.72 -4.60339 1.61056 0
M  V30 12340 H 1121.73 -3.95261 3.82163 0
M  V30 12341 H 1122.95 -4.9338 4.6664 0
M  V30 12342 H 1120.9 -5.9857 2.6842 0
M  V30 12343 H 1120.82 -6.14169 4.40832 0
M  V30 12344 H 1122.08 -6.94782 3.53409 0
M  V30 12345 N 1126.31 -1.30234 -0.887518 0
M  V30 12346 C 1127.56 -1.19086 -1.64153 0
M  V30 12347 C 1127.89 0.254428 -1.92526 0
M  V30 12348 O 1127.17 1.18233 -1.54438 0
M  V30 12349 C 1127.45 -2.01723 -2.98295 0
M  V30 12350 C 1127.3 -3.54458 -2.76911 0
M  V30 12351 C 1128.62 -1.85307 -3.99186 0
M  V30 12352 H 1125.74 -0.433967 -0.595686 0
M  V30 12353 H 1128.38 -1.59839 -1.0272 0
M  V30 12354 H 1126.53 -1.67096 -3.5073 0
M  V30 12355 H 1128.2 -3.99131 -2.31284 0
M  V30 12356 H 1126.45 -3.78768 -2.11464 0
M  V30 12357 H 1127.12 -4.07565 -3.72283 0
M  V30 12358 H 1129.59 -2.15575 -3.55903 0
M  V30 12359 H 1128.47 -2.45456 -4.90961 0
M  V30 12360 H 1128.73 -0.811528 -4.34588 0
M  V30 12361 N 1127.79 1.09952 -1.12909 0
M  V30 12362 C 1128.74 2.18525 -0.796849 0
M  V30 12363 C 1129.73 1.67985 0.218483 0
M  V30 12364 O 1130.94 1.79839 0.07618 0
M  V30 12365 H 1127.31 0.712714 -0.239882 0
M  V30 12366 H 1129.28 2.43783 -1.72083 0
M  V30 12367 C 1128.03 3.46625 -0.273237 0
M  V30 12368 H 1127.36 3.85879 -1.04582 0
M  V30 12369 H 1128.8 4.23926 -0.0791355 0
M  V30 12370 C 1127.26 3.2172 0.999903 0
M  V30 12371 O 1127.79 3.43851 2.07676 0
M  V30 12372 N 1125.99 2.75356 0.928833 0
M  V30 12373 H 1125.54 2.57547 0.052379 0
M  V30 12374 H 1125.5 2.5907 1.78129 0
M  V30 12375 N 1129.27 0.921757 1.27833 0
M  V30 12376 C 1130.23 0.420978 2.25301 0
M  V30 12377 C 1131.23 -0.457158 1.54165 0
M  V30 12378 O 1132.42 -0.259079 1.72263 0
M  V30 12379 C 1129.55 -0.395501 3.38598 0
M  V30 12380 H 1130.75 1.28206 2.71115 0
M  V30 12381 H 1128.3 0.701893 1.39654 0
M  V30 12382 H 1129.03 -1.27565 2.98157 0
M  V30 12383 H 1128.82 0.234029 3.91401 0
M  V30 12384 H 1130.31 -0.736444 4.11055 0
M  V30 12385 N 1130.75 -1.41857 0.686609 0
M  V30 12386 C 1132 -2.00594 0.21095 0
M  V30 12387 C 1132.31 -1.54974 -1.19341 0
M  V30 12388 O 1133.51 -2.0621 -1.76607 0
M  V30 12389 C 1131.97 -3.58418 0.326261 0
M  V30 12390 C 1131.58 -4.13022 1.73542 0
M  V30 12391 C 1133.32 -4.24404 -0.0900816 0
M  V30 12392 C 1131.23 -5.6325 1.80287 0
M  V30 12393 H 1130.16 -0.75025 0.0751077 0
M  V30 12394 H 1132.81 -1.62442 0.853508 0
M  V30 12395 H 1131.19 -3.9413 -0.384394 0
M  V30 12396 H 1132.37 -3.88747 2.47411 0
M  V30 12397 H 1130.68 -3.5953 2.10065 0
M  V30 12398 H 1133.28 -5.34666 -0.060004 0
M  V30 12399 H 1133.62 -4.00745 -1.12733 0
M  V30 12400 H 1134.15 -3.93695 0.569979 0
M  V30 12401 H 1130.89 -5.91724 2.82034 0
M  V30 12402 H 1130.41 -5.89479 1.1079 0
M  V30 12403 H 1132.09 -6.2787 1.56167 0
M  V30 12404 N 1132.22 -0.430739 -1.51599 0
M  V30 12405 C 1133.13 0.390347 -2.3133 0
M  V30 12406 C 1134.15 1.03376 -1.39962 0
M  V30 12407 O 1135.33 1.03057 -1.73035 0
M  V30 12408 C 1132.39 1.48039 -3.13505 0
M  V30 12409 C 1131.45 0.857792 -4.20643 0
M  V30 12410 C 1130.69 1.89589 -4.9889 0
M  V30 12411 O 1130.91 3.11717 -4.77691 0
M  V30 12412 O 1129.84 1.49009 -5.83164 0
M  V30 12413 H 1133.67 -0.260358 -3.02582 0
M  V30 12414 H 1131.25 -0.193428 -1.48143 0
M  V30 12415 H 1133.14 2.11272 -3.64612 0
M  V30 12416 H 1131.81 2.1153 -2.45024 0
M  V30 12417 H 1130.72 0.187592 -3.73629 0
M  V30 12418 H 1132.05 0.266474 -4.91478 0
M  V30 12419 N 1133.7 1.56767 -0.161869 0
M  V30 12420 C 1135.12 1.58412 0.194403 0
M  V30 12421 C 1135.32 1.17682 1.63564 0
M  V30 12422 O 1134.37 0.884024 2.36519 0
M  V30 12423 C 1135.69 3.00599 -0.0778438 0
M  V30 12424 C 1137.24 3.12996 -0.015307 0
M  V30 12425 C 1137.71 4.57259 -0.260418 0
M  V30 12426 N 1139.2 4.62733 -0.207863 0
M  V30 12427 C 1139.94 5.72193 -0.371821 0
M  V30 12428 N 1139.43 6.90246 -0.594318 0
M  V30 12429 N 1141.23 5.61253 -0.308384 0
M  V30 12430 H 1133.38 1.81531 -1.10274 0
M  V30 12431 H 1135.64 0.840919 -0.437675 0
M  V30 12432 H 1135.35 3.3484 -1.07587 0
M  V30 12433 H 1135.22 3.71819 0.634845 0
M  V30 12434 H 1137.61 2.78588 0.97329 0
M  V30 12435 H 1137.69 2.44232 -0.760559 0
M  V30 12436 H 1137.33 4.92375 -1.24618 0
M  V30 12437 H 1137.26 5.2417 0.505334 0
M  V30 12438 H 1139.75 3.77878 -0.0411541 0
M  V30 12439 H 1140.07 7.6954 -0.70913 0
M  V30 12440 H 1138.41 6.92131 -0.630819 0
M  V30 12441 H 1141.6 4.67905 -0.135217 0
M  V30 12442 H 1141.77 6.46507 -0.439592 0
M  V30 12443 N 1135.18 -0.111886 1.57202 0
M  V30 12444 C 1136.09 -1.1556 2.04165 0
M  V30 12445 C 1137.11 -1.44898 0.963354 0
M  V30 12446 O 1138.28 -1.55873 1.27536 0
M  V30 12447 C 1135.35 -2.46048 2.44256 0
M  V30 12448 C 1134.41 -2.24043 3.66201 0
M  V30 12449 C 1133.64 -3.4831 4.04371 0
M  V30 12450 O 1133.86 -4.55895 3.42806 0
M  V30 12451 O 1132.8 -3.38891 4.9743 0
M  V30 12452 H 1136.62 -0.786778 2.93332 0
M  V30 12453 H 1134.21 -0.323196 1.45862 0
M  V30 12454 H 1136.09 -3.22916 2.70745 0
M  V30 12455 H 1134.77 -2.8239 1.58233 0
M  V30 12456 H 1133.67 -1.4501 3.44852 0
M  V30 12457 H 1135.01 -1.92602 4.52952 0
M  V30 12458 N 1136.66 -1.52894 -0.382264 0
M  V30 12459 C 1137.61 -1.78151 -1.46734 0
M  V30 12460 C 1138.58 -0.625034 -1.53891 0
M  V30 12461 O 1139.76 -0.865467 -1.70042 0
M  V30 12462 C 1136.9 -1.96223 -2.83885 0
M  V30 12463 C 1136.01 -3.23925 -2.85826 0
M  V30 12464 C 1135.15 -3.32277 -4.14446 0
M  V30 12465 C 1134.19 -4.54076 -4.10465 0
M  V30 12466 N 1133.32 -4.59672 -5.30703 0
M  V30 12467 H 1138.16 -2.70748 -1.24497 0
M  V30 12468 H 1135.7 -1.34135 -0.603838 0
M  V30 12469 H 1137.66 -2.04686 -3.63537 0
M  V30 12470 H 1136.29 -1.0698 -3.04557 0
M  V30 12471 H 1135.34 -3.245 -1.98505 0
M  V30 12472 H 1136.65 -4.1364 -2.78754 0
M  V30 12473 H 1135.81 -3.3996 -5.02506 0
M  V30 12474 H 1134.55 -2.40548 -4.2425 0
M  V30 12475 H 1133.55 -4.46511 -3.20793 0
M  V30 12476 H 1134.78 -5.47128 -4.02278 0
M  V30 12477 H 1132.72 -3.70838 -5.41124 0
M  V30 12478 H 1132.64 -5.43268 -5.25734 0
M  V30 12479 H 1133.91 -4.71618 -6.20642 0
M  V30 12480 N 1138.14 0.641106 -1.43971 0
M  V30 12481 C 1139.1 1.73539 -1.49723 0
M  V30 12482 C 1140.1 1.56235 -0.380438 0
M  V30 12483 O 1141.29 1.61912 -0.642673 0
M  V30 12484 C 1138.42 3.1253 -1.36153 0
M  V30 12485 H 1139.62 1.69816 -2.47189 0
M  V30 12486 H 1137.17 0.853867 -1.30915 0
M  V30 12487 H 1137.9 3.21856 -0.39742 0
M  V30 12488 H 1137.69 3.26496 -2.17124 0
M  V30 12489 H 1139.18 3.92303 -1.43138 0
M  V30 12490 N 1139.62 1.30703 0.880598 0
M  V30 12491 C 1140.53 1.19389 2.01949 0
M  V30 12492 C 1141.54 0.112868 1.73634 0
M  V30 12493 O 1142.72 0.328643 1.98701 0
M  V30 12494 C 1139.78 0.891004 3.35055 0
M  V30 12495 C 1138.84 2.05784 3.76764 0
M  V30 12496 C 1138.08 1.76931 5.03519 0
M  V30 12497 O 1138.3 0.699326 5.66097 0
M  V30 12498 O 1137.23 2.623 5.4174 0
M  V30 12499 H 1141.06 2.15073 2.14423 0
M  V30 12500 H 1138.64 1.10339 1.00726 0
M  V30 12501 H 1140.53 0.737476 4.14897 0
M  V30 12502 H 1139.2 -0.0358909 3.2368 0
M  V30 12503 H 1138.11 2.26672 2.97608 0
M  V30 12504 H 1139.44 2.96661 3.9275 0
M  V30 12505 N 1141.09 -1.09351 1.1349 0
M  V30 12506 C 1142.04 -2.16008 0.812981 0
M  V30 12507 C 1143.01 -1.64566 -0.225252 0
M  V30 12508 O 1144.2 -1.90552 -0.0973261 0
M  V30 12509 C 1141.34 -3.43913 0.285996 0
M  V30 12510 C 1140.45 -4.09251 1.38338 0
M  V30 12511 C 1139.58 -5.24916 0.814652 0
M  V30 12512 C 1138.62 -5.82178 1.89038 0
M  V30 12513 N 1137.76 -6.89203 1.33955 0
M  V30 12514 H 1142.6 -2.42887 1.72655 0
M  V30 12515 H 1140.14 -1.19209 0.861833 0
M  V30 12516 H 1142.09 -4.17183 -0.0376794 0
M  V30 12517 H 1140.72 -3.17349 -0.590707 0
M  V30 12518 H 1139.78 -3.33838 1.82363 0
M  V30 12519 H 1141.09 -4.4784 2.19638 0
M  V30 12520 H 1140.24 -6.05086 0.442306 0
M  V30 12521 H 1138.98 -4.87691 -0.029416 0
M  V30 12522 H 1137.99 -5.00669 2.27179 0
M  V30 12523 H 1139.21 -6.21464 2.73787 0
M  V30 12524 H 1137.16 -6.53956 0.517494 0
M  V30 12525 H 1137.07 -7.26565 2.08902 0
M  V30 12526 H 1138.34 -7.73126 0.994793 0
M  V30 12527 N 1142.57 -0.928524 -1.27343 0
M  V30 12528 C 1143.82 -0.569392 -1.9433 0
M  V30 12529 C 1144.15 0.889481 -1.7297 0
M  V30 12530 O 1143.4 1.6499 -1.05247 0
M  V30 12531 C 1143.7 -0.84269 -3.47323 0
M  V30 12532 C 1143.37 -2.28344 -3.88806 0
M  V30 12533 C 1142.03 -2.67731 -3.99842 0
M  V30 12534 C 1144.38 -3.22031 -4.09811 0
M  V30 12535 C 1141.71 -3.99928 -4.29272 0
M  V30 12536 C 1144.06 -4.5381 -4.40725 0
M  V30 12537 C 1142.72 -4.93031 -4.49975 0
M  V30 12538 H 1141.99 -0.208355 -0.711104 0
M  V30 12539 H 1144.64 -1.17264 -1.51398 0
M  V30 12540 H 1142.95 -0.156775 -3.91486 0
M  V30 12541 H 1144.64 -0.543779 -3.97296 0
M  V30 12542 H 1141.23 -1.96787 -3.80753 0
M  V30 12543 H 1145.42 -2.92803 -4.00724 0
M  V30 12544 H 1140.67 -4.29996 -4.34642 0
M  V30 12545 H 1144.85 -5.26407 -4.55926 0
M  V30 12546 H 1142.47 -5.95497 -4.72533 0
M  V30 12547 N 1144.05 1.41491 -0.694123 0
M  V30 12548 C 1145.47 1.55358 -0.365532 0
M  V30 12549 C 1145.67 1.66994 1.12762 0
M  V30 12550 O 1144.72 1.64756 1.91342 0
M  V30 12551 C 1146.03 2.79352 -1.11279 0
M  V30 12552 C 1147.58 2.93147 -1.097 0
M  V30 12553 C 1148.06 4.20027 -1.82597 0
M  V30 12554 N 1149.55 4.26981 -1.7956 0
M  V30 12555 C 1150.28 5.24013 -2.32805 0
M  V30 12556 N 1149.78 6.27083 -2.94515 0
M  V30 12557 N 1151.57 5.15943 -2.23069 0
M  V30 12558 H 1143.72 1.32183 -1.66257 0
M  V30 12559 H 1145.99 0.637624 -0.701527 0
M  V30 12560 H 1145.69 2.76958 -2.16765 0
M  V30 12561 H 1145.57 3.70827 -0.690439 0
M  V30 12562 H 1147.95 2.95057 -0.0504037 0
M  V30 12563 H 1148.03 2.02849 -1.55839 0
M  V30 12564 H 1147.68 4.18878 -2.87235 0
M  V30 12565 H 1147.61 5.09294 -1.33893 0
M  V30 12566 H 1150.1 3.53129 -1.34567 0
M  V30 12567 H 1150.41 6.97511 -3.32714 0
M  V30 12568 H 1148.76 6.27589 -2.98592 0
M  V30 12569 H 1151.95 4.34346 -1.74532 0
M  V30 12570 H 1152.12 5.91396 -2.64868 0
M  V30 12571 N 1145.53 0.438773 1.51369 0
M  V30 12572 C 1146.47 -0.37195 2.27783 0
M  V30 12573 C 1147.44 -1.01558 1.31435 0
M  V30 12574 O 1148.63 -1.03421 1.60339 0
M  V30 12575 C 1145.77 -1.46636 3.12397 0
M  V30 12576 C 1144.88 -0.840727 4.2374 0
M  V30 12577 C 1144.02 -1.91031 4.95662 0
M  V30 12578 C 1143.06 -1.26318 5.98924 0
M  V30 12579 N 1142.19 -2.27419 6.64248 0
M  V30 12580 H 1147.03 0.286048 2.96624 0
M  V30 12581 H 1144.57 0.152909 1.46303 0
M  V30 12582 H 1146.53 -2.11219 3.59781 0
M  V30 12583 H 1145.16 -2.09397 2.45668 0
M  V30 12584 H 1144.21 -0.0831588 3.80309 0
M  V30 12585 H 1145.52 -0.328285 4.97719 0
M  V30 12586 H 1144.68 -2.63272 5.46601 0
M  V30 12587 H 1143.42 -2.45649 4.21317 0
M  V30 12588 H 1142.42 -0.526246 5.47276 0
M  V30 12589 H 1143.65 -0.724324 6.75226 0
M  V30 12590 H 1141.59 -2.81114 5.92715 0
M  V30 12591 H 1141.51 -1.81071 7.33996 0
M  V30 12592 H 1142.78 -2.99139 7.19817 0
M  V30 12593 N 1147.01 -1.56678 0.170181 0
M  V30 12594 C 1147.94 -2.20916 -0.756213 0
M  V30 12595 C 1148.92 -1.16442 -1.23997 0
M  V30 12596 O 1150.1 -1.44867 -1.29333 0
M  V30 12597 C 1147.23 -2.84901 -1.98617 0
M  V30 12598 C 1146.19 -3.95403 -1.63831 0
M  V30 12599 C 1145.51 -4.46432 -2.94282 0
M  V30 12600 C 1146.81 -5.15051 -0.867195 0
M  V30 12601 H 1148.51 -2.98585 -0.220776 0
M  V30 12602 H 1146.05 -1.43619 -0.104748 0
M  V30 12603 H 1148 -3.28514 -2.63926 0
M  V30 12604 H 1146.73 -2.04598 -2.54572 0
M  V30 12605 H 1145.39 -3.52444 -1.00891 0
M  V30 12606 H 1145.04 -3.62923 -3.48276 0
M  V30 12607 H 1144.74 -5.20979 -2.71762 0
M  V30 12608 H 1146.26 -4.92731 -3.60622 0
M  V30 12609 H 1147.67 -5.55363 -1.42285 0
M  V30 12610 H 1146.07 -5.95507 -0.741065 0
M  V30 12611 H 1147.14 -4.84707 0.136693 0
M  V30 12612 N 1148.48 0.103547 -1.57259 0
M  V30 12613 C 1149.42 1.15225 -1.98131 0
M  V30 12614 C 1150.43 1.36793 -0.882692 0
M  V30 12615 O 1151.62 1.35595 -1.16088 0
M  V30 12616 C 1148.72 2.50941 -2.27776 0
M  V30 12617 C 1147.89 2.49765 -3.59077 0
M  V30 12618 C 1146.95 3.67344 -3.76756 0
M  V30 12619 O 1145.98 3.50221 -4.48702 0
M  V30 12620 N 1147.18 4.86504 -3.16692 0
M  V30 12621 H 1149.94 0.804448 -2.88702 0
M  V30 12622 H 1147.5 0.292636 -1.59233 0
M  V30 12623 H 1149.5 3.28186 -2.36804 0
M  V30 12624 H 1148.07 2.77843 -1.43255 0
M  V30 12625 H 1147.29 1.58125 -3.61096 0
M  V30 12626 H 1148.57 2.4605 -4.4535 0
M  V30 12627 H 1147.97 5.03319 -2.58236 0
M  V30 12628 H 1146.53 5.61371 -3.31218 0
M  V30 12629 N 1149.96 1.53094 0.37415 0
M  V30 12630 C 1151.24 1.59456 1.13283 0
M  V30 12631 C 1151.62 0.396821 2.07337 0
M  V30 12632 O 1150.97 -0.613659 2.20106 0
M  V30 12633 C 1151.18 2.94069 1.87948 0
M  V30 12634 C 1152.52 3.4834 2.42785 0
M  V30 12635 O 1153.55 2.96042 1.98085 0
M  V30 12636 O 1152.41 4.39747 3.24477 0
M  V30 12637 H 1149.5 0.643731 0.519171 0
M  V30 12638 H 1152.05 1.65434 0.378105 0
M  V30 12639 H 1150.82 3.72685 1.19255 0
M  V30 12640 H 1150.44 2.91544 2.70348 0
M  V30 12641 N 1151.44 -0.633461 1.44309 0
M  V30 12642 C 1152.4 -1.72743 1.50641 0
M  V30 12643 C 1153.4 -1.56031 0.388718 0
M  V30 12644 O 1154.59 -1.61568 0.651251 0
M  V30 12645 C 1151.72 -3.11804 1.37809 0
M  V30 12646 H 1152.92 -1.68503 2.48086 0
M  V30 12647 H 1150.47 -0.846912 1.31366 0
M  V30 12648 H 1151.21 -3.2164 0.414483 0
M  V30 12649 H 1150.99 -3.2534 2.18852 0
M  V30 12650 H 1152.48 -3.91538 1.45216 0
M  V30 12651 N 1152.92 -1.31168 -0.873655 0
M  V30 12652 C 1154.14 -1.23728 -1.66452 0
M  V30 12653 C 1154.57 0.194869 -1.87088 0
M  V30 12654 O 1153.93 1.1397 -1.40998 0
M  V30 12655 C 1153.97 -1.98285 -3.0119 0
M  V30 12656 O 1153.08 -1.31767 -3.90783 0
M  V30 12657 H 1152.42 -0.427362 -0.508191 0
M  V30 12658 H 1154.95 -1.73176 -1.08955 0
M  V30 12659 H 1154.96 -2.0774 -3.51153 0
M  V30 12660 H 1153.63 -3.02437 -2.8549 0
M  V30 12661 H 1152.21 -1.3074 -3.4923 0
M  V30 12662 N 1154.4 1.08748 -1.14068 0
M  V30 12663 C 1155.81 1.33125 -0.880341 0
M  V30 12664 C 1156.01 1.9569 0.480396 0
M  V30 12665 O 1155.07 2.2077 1.22543 0
M  V30 12666 C 1156.38 2.23618 -2.01036 0
M  V30 12667 C 1157.93 2.37108 -2.04326 0
M  V30 12668 C 1158.4 3.30941 -3.1661 0
M  V30 12669 N 1159.9 3.38517 -3.16166 0
M  V30 12670 C 1160.63 4.11142 -3.99687 0
M  V30 12671 N 1160.13 4.86505 -4.93239 0
M  V30 12672 N 1161.92 4.06938 -3.87761 0
M  V30 12673 H 1154.07 0.665164 -2.01716 0
M  V30 12674 H 1156.33 0.355612 -0.878774 0
M  V30 12675 H 1156.04 1.84885 -2.99183 0
M  V30 12676 H 1155.91 3.24056 -1.93049 0
M  V30 12677 H 1158.3 2.75101 -1.06787 0
M  V30 12678 H 1158.38 1.36424 -2.16384 0
M  V30 12679 H 1158.03 2.93669 -4.14392 0
M  V30 12680 H 1157.96 4.31545 -3.01789 0
M  V30 12681 H 1160.45 2.84786 -2.48405 0
M  V30 12682 H 1160.76 5.39372 -5.53441 0
M  V30 12683 H 1159.1 4.8557 -4.9724 0
M  V30 12684 H 1162.3 3.47166 -3.13996 0
M  V30 12685 H 1162.47 4.63275 -4.53079 0
M  V30 12686 N 1155.87 0.935264 1.26849 0
M  V30 12687 C 1157.1 0.595704 1.98661 0
M  V30 12688 C 1157.52 -0.821001 1.69237 0
M  V30 12689 O 1156.88 -1.55211 0.936982 0
M  V30 12690 C 1156.93 0.837275 3.50745 0
M  V30 12691 O 1156.03 -0.0934914 4.12294 0
M  V30 12692 H 1155.38 0.228512 0.623441 0
M  V30 12693 H 1157.91 1.25658 1.61466 0
M  V30 12694 H 1157.92 0.755827 4.00938 0
M  V30 12695 H 1156.59 1.86993 3.71492 0
M  V30 12696 H 1155.17 0.0385124 3.7288 0
M  V30 12697 N 1157.35 -1.41121 0.701616 0
M  V30 12698 C 1158.32 -2.29148 0.0490091 0
M  V30 12699 C 1159.32 -1.44679 -0.701763 0
M  V30 12700 O 1160.51 -1.65757 -0.53575 0
M  V30 12701 C 1157.64 -3.2766 -0.940837 0
M  V30 12702 H 1158.83 -2.88354 0.824133 0
M  V30 12703 H 1156.38 -1.49209 0.465457 0
M  V30 12704 H 1157.12 -2.73445 -1.74351 0
M  V30 12705 H 1156.9 -3.89997 -0.405551 0
M  V30 12706 H 1158.39 -3.93609 -1.39507 0
M  V30 12707 N 1158.83 -0.446794 -1.51134 0
M  V30 12708 C 1159.76 0.395804 -2.25757 0
M  V30 12709 C 1160.78 0.978178 -1.30137 0
M  V30 12710 O 1161.96 0.87071 -1.55823 0
M  V30 12711 C 1159.06 1.56665 -3.00515 0
M  V30 12712 C 1158.24 1.10146 -4.23305 0
M  V30 12713 C 1157.3 2.14352 -4.80562 0
M  V30 12714 O 1156.32 1.73401 -5.42145 0
M  V30 12715 N 1157.52 3.46932 -4.65423 0
M  V30 12716 H 1160.29 -0.243808 -2.98707 0
M  V30 12717 H 1157.85 -0.276205 -1.59527 0
M  V30 12718 H 1159.84 2.26019 -3.35704 0
M  V30 12719 H 1158.41 2.11142 -2.30516 0
M  V30 12720 H 1157.63 0.234644 -3.93501 0
M  V30 12721 H 1158.92 0.768185 -5.02968 0
M  V30 12722 H 1158.32 3.82929 -4.16391 0
M  V30 12723 H 1156.88 4.12154 -5.04948 0
M  V30 12724 N 1160.31 1.56586 -0.178487 0
M  V30 12725 C 1161.27 2.17091 0.73512 0
M  V30 12726 C 1162.27 1.12088 1.15295 0
M  V30 12727 O 1163.46 1.37563 1.06874 0
M  V30 12728 C 1160.59 2.75957 2.00151 0
M  V30 12729 H 1161.79 2.99176 0.208272 0
M  V30 12730 H 1159.34 1.56138 0.0710967 0
M  V30 12731 H 1160.07 1.97626 2.57127 0
M  V30 12732 H 1159.86 3.52809 1.7108 0
M  V30 12733 H 1161.35 3.2247 2.65335 0
M  V30 12734 N 1161.79 -0.095206 1.57312 0
M  V30 12735 C 1162.72 -1.11627 2.05089 0
M  V30 12736 C 1163.7 -1.41782 0.939787 0
M  V30 12737 O 1164.88 -1.51813 1.21105 0
M  V30 12738 C 1162.01 -2.43618 2.47523 0
M  V30 12739 C 1160.97 -2.27872 3.62296 0
M  V30 12740 C 1160.29 -3.65038 3.90706 0
M  V30 12741 C 1161.59 -1.71936 4.93189 0
M  V30 12742 H 1163.29 -0.718795 2.90644 0
M  V30 12743 H 1160.83 -0.344315 1.39823 0
M  V30 12744 H 1162.79 -3.1532 2.79556 0
M  V30 12745 H 1161.51 -2.85301 1.58968 0
M  V30 12746 H 1160.17 -1.58615 3.3051 0
M  V30 12747 H 1159.82 -4.04249 2.99319 0
M  V30 12748 H 1159.52 -3.55349 4.67976 0
M  V30 12749 H 1161.04 -4.38208 4.25213 0
M  V30 12750 H 1162.45 -2.33479 5.23603 0
M  V30 12751 H 1160.85 -1.73006 5.74621 0
M  V30 12752 H 1161.92 -0.678789 4.80125 0
M  V30 12753 N 1163.26 -1.53291 -0.366026 0
M  V30 12754 C 1164.51 -1.69702 -1.11036 0
M  V30 12755 C 1164.84 -0.44728 -1.88979 0
M  V30 12756 O 1164.12 0.55542 -1.86401 0
M  V30 12757 C 1164.4 -2.94661 -2.06995 0
M  V30 12758 C 1164.25 -4.29791 -1.32663 0
M  V30 12759 C 1165.57 -3.15219 -3.07123 0
M  V30 12760 H 1162.69 -0.617525 -0.402284 0
M  V30 12761 H 1165.33 -1.85929 -0.391223 0
M  V30 12762 H 1163.48 -2.80958 -2.68318 0
M  V30 12763 H 1165.16 -4.55305 -0.741266 0
M  V30 12764 H 1163.4 -4.29223 -0.628484 0
M  V30 12765 H 1164.07 -5.13359 -2.02896 0
M  V30 12766 H 1166.55 -3.28105 -2.55903 0
M  V30 12767 H 1165.42 -4.04088 -3.71489 0
M  V30 12768 H 1165.68 -2.30479 -3.77269 0
M  V30 12769 N 1164.74 0.6258 -1.44643 0
M  V30 12770 C 1165.65 1.76611 -1.5442 0
M  V30 12771 C 1166.67 1.68614 -0.429576 0
M  V30 12772 O 1167.84 1.89296 -0.687686 0
M  V30 12773 C 1164.91 3.13015 -1.49071 0
M  V30 12774 C 1163.97 3.32604 -2.71428 0
M  V30 12775 C 1163.2 4.62501 -2.66325 0
M  V30 12776 O 1163.43 5.43651 -1.72626 0
M  V30 12777 O 1162.36 4.84408 -3.57258 0
M  V30 12778 H 1166.19 1.71315 -2.50769 0
M  V30 12779 H 1163.77 0.787677 -1.26949 0
M  V30 12780 H 1165.65 3.94318 -1.48631 0
M  V30 12781 H 1164.33 3.18842 -0.558686 0
M  V30 12782 H 1163.24 2.50959 -2.77435 0
M  V30 12783 H 1164.57 3.31642 -3.63695 0
M  V30 12784 N 1166.22 1.31629 0.866686 0
M  V30 12785 C 1167.15 1.15377 1.98042 0
M  V30 12786 C 1168.17 0.0919633 1.6254 0
M  V30 12787 O 1169.35 0.339775 1.75236 0
M  V30 12788 C 1166.45 0.741295 3.30693 0
M  V30 12789 C 1165.63 1.88882 3.94516 0
M  V30 12790 C 1164.69 1.46186 5.05486 0
M  V30 12791 O 1163.71 2.17202 5.26129 0
M  V30 12792 N 1164.91 0.351096 5.79437 0
M  V30 12793 H 1167.68 2.11309 2.12529 0
M  V30 12794 H 1165.24 1.24007 1.04085 0
M  V30 12795 H 1167.23 0.438313 4.02319 0
M  V30 12796 H 1165.8 -0.12651 3.12344 0
M  V30 12797 H 1165.02 2.35894 3.15828 0
M  V30 12798 H 1166.31 2.65734 4.33892 0
M  V30 12799 H 1165.71 -0.240245 5.6519 0
M  V30 12800 H 1164.27 0.107663 6.51711 0
M  V30 12801 N 1167.7 -1.08142 1.14644 0
M  V30 12802 C 1168.63 -2.14476 0.779437 0
M  V30 12803 C 1169.61 -1.60812 -0.240454 0
M  V30 12804 O 1170.79 -1.88059 -0.128881 0
M  V30 12805 C 1167.92 -3.38333 0.157692 0
M  V30 12806 C 1166.97 -4.10754 1.14819 0
M  V30 12807 S 1167.8 -4.63227 2.68666 0
M  V30 12808 C 1168.96 -5.90367 2.07888 0
M  V30 12809 H 1169.19 -2.45276 1.68009 0
M  V30 12810 H 1166.72 -1.20292 0.967942 0
M  V30 12811 H 1168.68 -4.10038 -0.194607 0
M  V30 12812 H 1167.34 -3.05726 -0.720435 0
M  V30 12813 H 1166.53 -4.99644 0.661226 0
M  V30 12814 H 1166.14 -3.44974 1.44462 0
M  V30 12815 H 1168.43 -6.62107 1.43599 0
M  V30 12816 H 1169.37 -6.43764 2.94913 0
M  V30 12817 H 1169.78 -5.43507 1.52514 0
M  V30 12818 N 1169.18 -0.941978 -1.26351 0
M  V30 12819 C 1170.42 -0.590845 -1.94002 0
M  V30 12820 C 1170.76 0.868004 -1.73722 0
M  V30 12821 O 1170.03 1.62111 -1.07472 0
M  V30 12822 C 1170.31 -0.934901 -3.47752 0
M  V30 12823 C 1170.17 -2.44855 -3.77314 0
M  V30 12824 C 1171.49 -0.450888 -4.37784 0
M  V30 12825 H 1168.61 -0.21613 -0.704597 0
M  V30 12826 H 1171.25 -1.17634 -1.49205 0
M  V30 12827 H 1169.4 -0.436648 -3.86038 0
M  V30 12828 H 1171.07 -3.01959 -3.48738 0
M  V30 12829 H 1169.31 -2.89169 -3.23363 0
M  V30 12830 H 1169.98 -2.6398 -4.84787 0
M  V30 12831 H 1172.46 -0.878107 -4.06729 0
M  V30 12832 H 1171.34 -0.720439 -5.44152 0
M  V30 12833 H 1171.6 0.649162 -4.37308 0
M  V30 12834 N 1170.66 1.40747 -0.709091 0
M  V30 12835 C 1171.6 2.32564 -0.0411392 0
M  V30 12836 C 1172.6 1.51692 0.75404 0
M  V30 12837 O 1173.8 1.67537 0.658139 0
M  V30 12838 H 1170.18 0.75198 0.00549889 0
M  V30 12839 H 1172.15 2.86556 -0.83235 0
M  V30 12840 C 1170.9 3.36604 0.871378 0
M  V30 12841 H 1170.22 3.98895 0.268912 0
M  V30 12842 H 1171.66 4.03359 1.30682 0
M  V30 12843 C 1170.12 2.71566 1.99384 0
M  V30 12844 O 1170.65 2.57392 3.08403 0
M  V30 12845 N 1168.86 2.3005 1.77554 0
M  V30 12846 H 1168.4 2.41778 0.888898 0
M  V30 12847 H 1168.36 1.8687 2.52838 0
M  V30 12848 N 1172.13 0.454803 1.50895 0
M  V30 12849 C 1173.04 -0.353495 2.31921 0
M  V30 12850 C 1174.06 -1.01136 1.41589 0
M  V30 12851 O 1175.24 -1.00291 1.74653 0
M  V30 12852 C 1172.3 -1.43032 3.15821 0
M  V30 12853 C 1171.36 -0.790763 4.21954 0
M  V30 12854 C 1170.59 -1.81628 5.01843 0
M  V30 12855 O 1170.82 -3.04078 4.8259 0
M  V30 12856 O 1169.75 -1.39713 5.8546 0
M  V30 12857 H 1173.58 0.308463 3.02129 0
M  V30 12858 H 1171.16 0.216971 1.47816 0
M  V30 12859 H 1173.04 -2.05444 3.67927 0
M  V30 12860 H 1171.72 -2.07605 2.48358 0
M  V30 12861 H 1170.63 -0.128127 3.73881 0
M  V30 12862 H 1171.96 -0.188251 4.9184 0
M  V30 12863 N 1173.61 -1.56489 0.186789 0
M  V30 12864 C 1174.86 -1.96952 -0.453261 0
M  V30 12865 C 1175.18 -1.07451 -1.62725 0
M  V30 12866 O 1174.45 -0.144046 -1.9537 0
M  V30 12867 H 1173.03 -0.727295 -0.170445 0
M  V30 12868 H 1175.69 -1.92999 0.271584 0
M  V30 12869 H 1174.79 -3.01594 -0.802951 0
M  V30 12870 N 1175.09 0.086862 -1.5736 0
M  V30 12871 C 1176.34 0.790008 -1.8678 0
M  V30 12872 C 1176.67 1.77977 -0.777042 0
M  V30 12873 O 1175.94 1.93317 0.21419 0
M  V30 12874 C 1176.23 1.51143 -3.26845 0
M  V30 12875 C 1176.08 0.539106 -4.46558 0
M  V30 12876 C 1177.4 2.46003 -3.64926 0
M  V30 12877 H 1174.52 0.285741 -0.679354 0
M  V30 12878 H 1177.16 0.0534655 -1.89925 0
M  V30 12879 H 1175.31 2.13928 -3.24295 0
M  V30 12880 H 1176.98 -0.0823679 -4.61226 0
M  V30 12881 H 1175.22 -0.146842 -4.33551 0
M  V30 12882 H 1175.9 1.0812 -5.41308 0
M  V30 12883 H 1178.37 1.93306 -3.68473 0
M  V30 12884 H 1177.25 2.93493 -4.63846 0
M  V30 12885 H 1177.51 3.30133 -2.94049 0
M  V30 12886 N 1176.57 1.53483 0.357892 0
M  V30 12887 C 1177.52 1.81143 1.45911 0
M  V30 12888 C 1178.51 0.681002 1.55109 0
M  V30 12889 O 1179.72 0.864086 1.57904 0
M  V30 12890 H 1176.09 0.573663 0.486225 0
M  V30 12891 H 1178.06 2.733 1.19789 0
M  V30 12892 C 1176.81 2.02509 2.8264 0
M  V30 12893 H 1176.13 2.88938 2.76324 0
M  V30 12894 H 1177.57 2.25837 3.58851 0
M  V30 12895 C 1176.03 0.806412 3.27106 0
M  V30 12896 O 1176.56 -0.00116809 4.017 0
M  V30 12897 N 1174.77 0.627677 2.8374 0
M  V30 12898 H 1174.32 1.28601 2.23203 0
M  V30 12899 H 1174.27 -0.186301 3.13848 0
M  V30 12900 N 1178.05 -0.61812 1.44973 0
M  V30 12901 C 1179.01 -1.71135 1.52465 0
M  V30 12902 C 1180.01 -1.5561 0.405246 0
M  V30 12903 O 1181.2 -1.60869 0.668351 0
M  V30 12904 C 1178.33 -3.10324 1.41108 0
M  V30 12905 H 1179.52 -1.65862 2.49859 0
M  V30 12906 H 1177.08 -0.832932 1.32257 0
M  V30 12907 H 1177.81 -3.21183 0.448574 0
M  V30 12908 H 1177.6 -3.23001 2.2229 0
M  V30 12909 H 1179.09 -3.89976 1.49361 0
M  V30 12910 N 1179.52 -1.32087 -0.859693 0
M  V30 12911 C 1180.8 -1.12984 -1.59668 0
M  V30 12912 C 1181.18 0.311661 -2.08787 0
M  V30 12913 O 1180.53 1.30746 -1.87397 0
M  V30 12914 C 1180.74 -2.15305 -2.74672 0
M  V30 12915 C 1182.09 -2.48371 -3.44379 0
M  V30 12916 O 1183.11 -2.13811 -2.84891 0
M  V30 12917 O 1181.97 -3.07594 -4.51717 0
M  V30 12918 H 1179.06 -0.435657 -0.702945 0
M  V30 12919 H 1181.61 -1.43601 -0.90426 0
M  V30 12920 H 1180.38 -3.12223 -2.35866 0
M  V30 12921 H 1180 -1.85653 -3.51594 0
M  V30 12922 N 1181 1.07532 -1.15215 0
M  V30 12923 C 1182.23 1.84356 -0.950139 0
M  V30 12924 C 1182.65 1.81429 0.496502 0
M  V30 12925 O 1182.01 1.20589 1.35381 0
M  V30 12926 C 1182.06 3.29425 -1.46669 0
M  V30 12927 O 1181.16 4.07008 -0.664674 0
M  V30 12928 H 1180.5 0.570921 -0.339036 0
M  V30 12929 H 1183.03 1.35665 -1.53154 0
M  V30 12930 H 1183.04 3.8026 -1.47873 0
M  V30 12931 H 1181.72 3.3087 -2.51988 0
M  V30 12932 H 1180.29 3.65841 -0.72211 0
M  V30 12933 N 1182.48 0.948665 1.2585 0
M  V30 12934 C 1183.73 0.595938 1.92695 0
M  V30 12935 C 1184.04 -0.870229 1.75175 0
M  V30 12936 O 1185.25 -1.33266 2.36543 0
M  V30 12937 C 1183.7 1.01511 3.45288 0
M  V30 12938 C 1183.31 2.50341 3.71528 0
M  V30 12939 C 1185.06 0.734635 4.18095 0
M  V30 12940 C 1182.96 2.8609 5.17597 0
M  V30 12941 H 1181.89 0.219171 0.721443 0
M  V30 12942 H 1184.54 1.15231 1.42807 0
M  V30 12943 H 1182.93 0.387201 3.94102 0
M  V30 12944 H 1184.1 3.18101 3.3339 0
M  V30 12945 H 1182.42 2.75797 3.11969 0
M  V30 12946 H 1185.01 0.977962 5.25681 0
M  V30 12947 H 1185.36 -0.328807 4.14999 0
M  V30 12948 H 1185.89 1.32262 3.75169 0
M  V30 12949 H 1182.63 3.91427 5.25799 0
M  V30 12950 H 1182.15 2.22999 5.56805 0
M  V30 12951 H 1183.83 2.74959 5.85668 0
M  V30 12952 N 1183.96 -1.40369 0.716545 0
M  V30 12953 C 1184.91 -2.3071 0.0645944 0
M  V30 12954 C 1185.88 -1.48239 -0.749294 0
M  V30 12955 O 1187.06 -1.76975 -0.713045 0
M  V30 12956 C 1184.2 -3.34456 -0.850478 0
M  V30 12957 C 1183.31 -4.31992 -0.0259594 0
M  V30 12958 C 1182.45 -5.22806 -0.940599 0
M  V30 12959 C 1181.49 -6.12001 -0.110228 0
M  V30 12960 N 1180.62 -6.9523 -0.979796 0
M  V30 12961 H 1185.46 -2.85896 0.840682 0
M  V30 12962 H 1183 -1.40789 0.426258 0
M  V30 12963 H 1184.96 -3.93177 -1.39528 0
M  V30 12964 H 1183.59 -2.8077 -1.59274 0
M  V30 12965 H 1182.64 -3.75045 0.636036 0
M  V30 12966 H 1183.95 -4.94971 0.616883 0
M  V30 12967 H 1183.11 -5.86463 -1.5539 0
M  V30 12968 H 1181.85 -4.60104 -1.61726 0
M  V30 12969 H 1180.85 -5.47373 0.516001 0
M  V30 12970 H 1182.08 -6.76763 0.562944 0
M  V30 12971 H 1180.02 -6.35115 -1.64209 0
M  V30 12972 H 1179.94 -7.54978 -0.393012 0
M  V30 12973 H 1181.21 -7.63335 -1.57924 0
M  V30 12974 N 1185.44 -0.462799 -1.50652 0
M  V30 12975 C 1186.37 0.371837 -2.26164 0
M  V30 12976 C 1187.38 0.96432 -1.31167 0
M  V30 12977 O 1188.57 0.854134 -1.56738 0
M  V30 12978 C 1185.67 1.53469 -3.0216 0
M  V30 12979 C 1184.84 1.0565 -4.24449 0
M  V30 12980 C 1183.9 2.09243 -4.82808 0
M  V30 12981 O 1182.93 1.67641 -5.43953 0
M  V30 12982 N 1184.13 3.41976 -4.69076 0
M  V30 12983 H 1186.9 -0.275476 -2.98431 0
M  V30 12984 H 1184.46 -0.293109 -1.59225 0
M  V30 12985 H 1186.45 2.22446 -3.38083 0
M  V30 12986 H 1185.02 2.08685 -2.32743 0
M  V30 12987 H 1184.24 0.192895 -3.93728 0
M  V30 12988 H 1185.53 0.714796 -5.03754 0
M  V30 12989 H 1184.92 3.78491 -4.20429 0
M  V30 12990 H 1183.48 4.06775 -5.09291 0
M  V30 12991 N 1186.91 1.56388 -0.195085 0
M  V30 12992 C 1187.88 2.17859 0.712053 0
M  V30 12993 C 1188.88 1.13304 1.141 0
M  V30 12994 O 1190.07 1.38689 1.05409 0
M  V30 12995 C 1187.2 2.78065 1.97213 0
M  V30 12996 H 1188.39 2.9938 0.176529 0
M  V30 12997 H 1185.95 1.56205 0.0545322 0
M  V30 12998 H 1186.68 2.00342 2.55017 0
M  V30 12999 H 1186.47 3.54603 1.67329 0
M  V30 13000 H 1187.96 3.25266 2.619 0
M  V30 13001 N 1188.39 -0.0785156 1.57404 0
M  V30 13002 C 1189.62 -0.795871 1.91522 0
M  V30 13003 C 1190.04 -1.70665 0.790892 0
M  V30 13004 O 1189.4 -1.79474 -0.25666 0
M  V30 13005 C 1189.45 -1.57121 3.24569 0
M  V30 13006 O 1188.55 -2.6814 3.13328 0
M  V30 13007 H 1187.89 -0.217575 0.627341 0
M  V30 13008 H 1190.42 -0.0487724 2.04542 0
M  V30 13009 H 1190.43 -1.9519 3.5828 0
M  V30 13010 H 1189.11 -0.902909 4.05981 0
M  V30 13011 H 1187.69 -2.32978 2.91163 0
M  V30 13012 N 1189.87 -1.5367 -0.349747 0
M  V30 13013 C 1190.78 -1.84207 -1.45275 0
M  V30 13014 C 1191.8 -0.731695 -1.57868 0
M  V30 13015 O 1192.97 -1.02337 -1.73462 0
M  V30 13016 C 1190.04 -2.0398 -2.80345 0
M  V30 13017 C 1189.1 -3.27853 -2.77148 0
M  V30 13018 C 1188.33 -3.46673 -4.05775 0
M  V30 13019 O 1188.55 -2.69457 -5.02741 0
M  V30 13020 O 1187.49 -4.40082 -4.10623 0
M  V30 13021 H 1191.31 -2.77947 -1.22389 0
M  V30 13022 H 1188.9 -1.39247 -0.541345 0
M  V30 13023 H 1190.78 -2.18466 -3.60348 0
M  V30 13024 H 1189.46 -1.13429 -3.03176 0
M  V30 13025 H 1188.36 -3.18776 -1.95787 0
M  V30 13026 H 1189.7 -4.18377 -2.59271 0
M  V30 13027 N 1191.35 0.610423 -1.45298 0
M  V30 13028 C 1192.28 1.73507 -1.4976 0
M  V30 13029 C 1193.29 1.58092 -0.38867 0
M  V30 13030 O 1194.48 1.66026 -0.655571 0
M  V30 13031 C 1191.58 3.11475 -1.33554 0
M  V30 13032 C 1190.76 3.53156 -2.5807 0
M  V30 13033 C 1189.81 4.70076 -2.36463 0
M  V30 13034 O 1188.84 4.77337 -3.10061 0
M  V30 13035 N 1190.04 5.63155 -1.40843 0
M  V30 13036 H 1192.81 1.70144 -2.46721 0
M  V30 13037 H 1190.37 0.79562 -1.41002 0
M  V30 13038 H 1192.36 3.87444 -1.16914 0
M  V30 13039 H 1190.93 3.09361 -0.448803 0
M  V30 13040 H 1190.15 2.67178 -2.89844 0
M  V30 13041 H 1191.44 3.77761 -3.40843 0
M  V30 13042 H 1190.84 5.60001 -0.800982 0
M  V30 13043 H 1189.39 6.38669 -1.30175 0
M  V30 13044 N 1192.83 1.32541 0.852676 0
M  V30 13045 C 1193.76 1.24254 1.97694 0
M  V30 13046 C 1194.74 0.125971 1.69633 0
M  V30 13047 O 1195.92 0.31347 1.91653 0
M  V30 13048 C 1193.05 0.966874 3.3357 0
M  V30 13049 C 1192.01 2.0449 3.75989 0
M  V30 13050 C 1191.33 1.6216 5.09518 0
M  V30 13051 C 1192.63 3.46013 3.91244 0
M  V30 13052 H 1194.33 2.18317 2.04886 0
M  V30 13053 H 1191.87 1.05101 0.984371 0
M  V30 13054 H 1193.83 0.895444 4.11776 0
M  V30 13055 H 1192.55 -0.0093893 3.26599 0
M  V30 13056 H 1191.21 2.10651 3.00036 0
M  V30 13057 H 1190.86 0.632729 4.99005 0
M  V30 13058 H 1190.56 2.3429 5.38871 0
M  V30 13059 H 1192.08 1.56457 5.90215 0
M  V30 13060 H 1193.49 3.4243 4.59799 0
M  V30 13061 H 1191.89 4.1651 4.32017 0
M  V30 13062 H 1192.96 3.8553 2.941 0
M  V30 13063 N 1194.3 -1.0692 1.15784 0
M  V30 13064 C 1195.25 -2.16335 0.854506 0
M  V30 13065 C 1196.25 -1.68505 -0.173868 0
M  V30 13066 O 1197.45 -1.79977 -0.0284722 0
M  V30 13067 H 1193.83 -0.706103 0.258694 0
M  V30 13068 H 1195.8 -2.39135 1.78486 0
M  V30 13069 C 1194.55 -3.45778 0.365042 0
M  V30 13070 H 1193.87 -3.82971 1.14776 0
M  V30 13071 H 1195.31 -4.23567 0.191504 0
M  V30 13072 C 1193.77 -3.24258 -0.914253 0
M  V30 13073 O 1194.3 -3.49236 -1.98487 0
M  V30 13074 N 1192.51 -2.77722 -0.855501 0
M  V30 13075 H 1192.05 -2.57595 0.0159233 0
M  V30 13076 H 1192.01 -2.63702 -1.71198 0
M  V30 13077 N 1195.78 -0.955326 -1.25345 0
M  V30 13078 C 1197.01 -0.627233 -1.97688 0
M  V30 13079 C 1197.43 0.793973 -1.70522 0
M  V30 13080 O 1196.79 1.537 -0.961556 0
M  V30 13081 C 1196.84 -0.892969 -3.49369 0
M  V30 13082 O 1195.94 0.0278871 -4.12391 0
M  V30 13083 H 1195.28 -0.238402 -0.619726 0
M  V30 13084 H 1197.81 -1.28211 -1.59446 0
M  V30 13085 H 1197.82 -0.819517 -3.99685 0
M  V30 13086 H 1196.5 -1.92879 -3.6847 0
M  V30 13087 H 1195.08 -0.0978295 -3.72772 0
M  V30 13088 N 1197.26 1.39987 -0.723979 0
M  V30 13089 C 1198.68 1.54547 -0.398403 0
M  V30 13090 C 1198.88 1.69348 1.09194 0
M  V30 13091 O 1197.93 1.68778 1.87804 0
M  V30 13092 C 1199.25 2.76929 -1.1718 0
M  V30 13093 C 1200.79 2.90754 -1.15893 0
M  V30 13094 C 1201.27 4.16059 -1.91465 0
M  V30 13095 N 1202.76 4.23076 -1.88576 0
M  V30 13096 C 1203.5 5.18957 -2.43867 0
M  V30 13097 N 1202.99 6.20695 -3.0775 0
M  V30 13098 N 1204.78 5.11095 -2.33962 0
M  V30 13099 H 1196.94 1.28626 -1.69024 0
M  V30 13100 H 1199.2 0.6226 -0.714894 0
M  V30 13101 H 1198.9 2.72298 -2.22591 0
M  V30 13102 H 1198.78 3.69279 -0.768941 0
M  V30 13103 H 1201.17 2.94884 -0.112978 0
M  V30 13104 H 1201.25 1.99498 -1.60107 0
M  V30 13105 H 1200.89 4.12691 -2.96055 0
M  V30 13106 H 1200.82 5.06339 -1.44665 0
M  V30 13107 H 1203.31 3.50195 -1.42027 0
M  V30 13108 H 1203.62 6.90296 -3.47435 0
M  V30 13109 H 1201.97 6.21114 -3.11837 0
M  V30 13110 H 1205.16 4.30546 -1.83706 0
M  V30 13111 H 1205.33 5.85644 -2.77353 0
M  V30 13112 N 1198.74 0.470782 1.50404 0
M  V30 13113 C 1199.99 -0.0765611 2.03256 0
M  V30 13114 C 1200.34 -1.37435 1.34646 0
M  V30 13115 O 1199.63 -1.85918 0.463152 0
M  V30 13116 C 1199.83 -0.316419 3.55997 0
M  V30 13117 C 1199.66 0.956569 4.39409 0
M  V30 13118 C 1198.43 1.49978 4.82529 0
M  V30 13119 C 1200.62 1.85188 4.79802 0
M  V30 13120 N 1198.61 2.72182 5.50264 0
M  V30 13121 C 1199.98 2.9198 5.46944 0
M  V30 13122 C 1202.03 1.86229 4.61761 0
M  V30 13123 C 1200.74 3.99802 5.97955 0
M  V30 13124 C 1202.76 2.93008 5.13712 0
M  V30 13125 C 1202.12 3.98519 5.80829 0
M  V30 13126 H 1198.22 0.0120036 0.781908 0
M  V30 13127 H 1200.81 0.638919 1.83918 0
M  V30 13128 H 1198.98 -1.00094 3.75281 0
M  V30 13129 H 1200.71 -0.858077 3.95499 0
M  V30 13130 H 1197.46 1.04901 4.61836 0
M  V30 13131 H 1197.89 3.34241 5.88737 0
M  V30 13132 H 1202.53 1.05974 4.09303 0
M  V30 13133 H 1200.25 4.80875 6.4945 0
M  V30 13134 H 1203.83 2.94797 5.01584 0
M  V30 13135 H 1202.71 4.79784 6.20304 0
M  V30 13136 N 1200.22 -1.56282 0.203376 0
M  V30 13137 C 1201.47 -1.96987 -0.433461 0
M  V30 13138 C 1201.78 -1.09344 -1.62183 0
M  V30 13139 O 1202.99 -1.39868 -2.327 0
M  V30 13140 C 1201.44 -3.50374 -0.82257 0
M  V30 13141 C 1201.05 -4.46693 0.341969 0
M  V30 13142 C 1202.79 -3.99831 -1.42603 0
M  V30 13143 C 1200.7 -5.9136 -0.0685608 0
M  V30 13144 H 1199.63 -0.735564 -0.165717 0
M  V30 13145 H 1202.28 -1.81085 0.296708 0
M  V30 13146 H 1200.66 -3.6181 -1.60964 0
M  V30 13147 H 1201.84 -4.46994 1.11952 0
M  V30 13148 H 1200.15 -4.07476 0.857463 0
M  V30 13149 H 1202.75 -5.05398 -1.74577 0
M  V30 13150 H 1203.09 -3.4462 -2.33544 0
M  V30 13151 H 1203.63 -3.91543 -0.702758 0
M  V30 13152 H 1200.36 -6.50515 0.80688 0
M  V30 13153 H 1199.88 -5.94295 -0.810798 0
M  V30 13154 H 1201.56 -6.45053 -0.501525 0
M  V30 13155 N 1201.7 0.070167 -1.57444 0
M  V30 13156 C 1202.61 1.10106 -2.07157 0
M  V30 13157 C 1203.62 1.42293 -1.00143 0
M  V30 13158 O 1204.8 1.52437 -1.31624 0
M  V30 13159 C 1201.86 2.39486 -2.50694 0
M  V30 13160 C 1200.92 2.14255 -3.72012 0
M  V30 13161 C 1200.16 3.37466 -4.13464 0
M  V30 13162 O 1200.38 4.46645 -3.54773 0
M  V30 13163 O 1199.31 3.25583 -5.0624 0
M  V30 13164 H 1203.14 0.70873 -2.95315 0
M  V30 13165 H 1200.72 0.28441 -1.46668 0
M  V30 13166 H 1202.61 3.15625 -2.79212 0
M  V30 13167 H 1201.28 2.78095 -1.65664 0
M  V30 13168 H 1200.19 1.35816 -3.48575 0
M  V30 13169 H 1201.52 1.80525 -4.57899 0
M  V30 13170 N 1203.17 1.53854 0.341593 0
M  V30 13171 C 1204.42 1.71194 1.08162 0
M  V30 13172 C 1204.75 0.47614 1.88582 0
M  V30 13173 O 1204 -0.542115 1.88041 0
M  V30 13174 C 1204.3 2.92844 2.04884 0
M  V30 13175 C 1203.97 4.28366 1.40759 0
M  V30 13176 C 1202.63 4.65214 1.23 0
M  V30 13177 C 1204.98 5.12546 0.945819 0
M  V30 13178 C 1202.31 5.83857 0.576852 0
M  V30 13179 C 1204.66 6.31857 0.306568 0
M  V30 13180 C 1203.33 6.67398 0.116677 0
M  V30 13181 H 1202.6 0.626442 0.395792 0
M  V30 13182 H 1205.24 1.88073 0.360688 0
M  V30 13183 H 1203.55 2.70576 2.83365 0
M  V30 13184 H 1205.25 3.03454 2.62139 0
M  V30 13185 H 1201.84 3.99366 1.5558 0
M  V30 13186 H 1206.02 4.84609 1.07087 0
M  V30 13187 H 1201.28 6.09967 0.418363 0
M  V30 13188 H 1205.45 6.96375 -0.0593285 0
M  V30 13189 H 1203.08 7.59191 -0.391477 0
M  V30 13190 N 1204.65 -0.602709 1.4562 0
M  V30 13191 C 1205.89 -1.37284 1.51435 0
M  V30 13192 C 1206.26 -1.9138 0.154148 0
M  V30 13193 O 1207.46 -2.68659 0.0870009 0
M  V30 13194 C 1205.73 -2.48651 2.56724 0
M  V30 13195 S 1207.29 -3.36354 2.818 0
M  V30 13196 H 1204.1 -0.46798 0.535272 0
M  V30 13197 H 1206.71 -0.694957 1.82731 0
M  V30 13198 H 1205.41 -2.07267 3.54215 0
M  V30 13199 H 1204.94 -3.21234 2.27095 0
M  V30 13200 H 1206.96 -4.46937 2.15549 0
M  V30 13201 N 1206.13 -1.32992 -0.845635 0
M  V30 13202 C 1207.06 -1.18513 -1.96182 0
M  V30 13203 C 1208.07 -0.11781 -1.62373 0
M  V30 13204 O 1209.26 -0.36761 -1.74674 0
M  V30 13205 C 1206.36 -0.793812 -3.29472 0
M  V30 13206 C 1205.54 -1.95134 -3.91461 0
M  V30 13207 C 1204.6 -1.54209 -5.03096 0
M  V30 13208 O 1203.62 -2.25545 -5.22607 0
M  V30 13209 N 1204.82 -0.443235 -5.78805 0
M  V30 13210 H 1207.59 -2.14663 -2.09141 0
M  V30 13211 H 1205.15 -1.25648 -1.02099 0
M  V30 13212 H 1207.14 -0.502263 -4.01571 0
M  V30 13213 H 1205.71 0.0768031 -3.12506 0
M  V30 13214 H 1204.93 -2.40889 -3.12035 0
M  V30 13215 H 1206.22 -2.72604 -4.2961 0
M  V30 13216 H 1205.62 0.150298 -5.655 0
M  V30 13217 H 1204.17 -0.211331 -6.51457 0
M  V30 13218 N 1207.61 1.06304 -1.1635 0
M  V30 13219 C 1208.54 2.15745 -0.893103 0
M  V30 13220 C 1209.52 1.69341 0.160531 0
M  V30 13221 O 1210.7 1.94196 0.0126526 0
M  V30 13222 C 1207.83 3.45066 -0.393287 0
M  V30 13223 C 1206.79 4.04978 -1.38482 0
M  V30 13224 C 1206.11 5.29507 -0.743409 0
M  V30 13225 C 1207.41 4.4377 -2.75438 0
M  V30 13226 H 1209.11 2.38622 -1.80831 0
M  V30 13227 H 1206.65 1.14681 -0.870878 0
M  V30 13228 H 1208.61 4.20964 -0.191607 0
M  V30 13229 H 1207.33 3.21808 0.557426 0
M  V30 13230 H 1205.99 3.31136 -1.57304 0
M  V30 13231 H 1205.64 5.02545 0.213787 0
M  V30 13232 H 1205.34 5.7055 -1.40521 0
M  V30 13233 H 1206.86 6.08102 -0.551746 0
M  V30 13234 H 1208.28 5.1075 -2.60398 0
M  V30 13235 H 1206.67 4.95797 -3.38091 0
M  V30 13236 H 1207.74 3.54636 -3.30699 0
M  V30 13237 N 1209.09 0.96196 1.24836 0
M  V30 13238 C 1210.02 0.506241 2.27946 0
M  V30 13239 C 1211 -0.451183 1.64007 0
M  V30 13240 O 1212.18 -0.348552 1.91046 0
M  V30 13241 C 1209.31 -0.209846 3.46665 0
M  V30 13242 C 1208.27 0.663035 4.22833 0
M  V30 13243 C 1207.59 -0.184216 5.34383 0
M  V30 13244 C 1208.89 1.94479 4.84742 0
M  V30 13245 H 1210.59 1.36805 2.66317 0
M  V30 13246 H 1208.13 0.65926 1.28023 0
M  V30 13247 H 1210.08 -0.539838 4.17928 0
M  V30 13248 H 1208.81 -1.10596 3.07305 0
M  V30 13249 H 1207.47 0.976216 3.53363 0
M  V30 13250 H 1207.12 -1.08031 4.91262 0
M  V30 13251 H 1206.82 0.39657 5.8626 0
M  V30 13252 H 1208.34 -0.509009 6.08475 0
M  V30 13253 H 1209.75 1.68074 5.48109 0
M  V30 13254 H 1208.15 2.47183 5.46828 0
M  V30 13255 H 1209.22 2.64332 4.06517 0
M  V30 13256 N 1210.56 -1.39601 0.731392 0
M  V30 13257 C 1211.79 -2.05411 0.286532 0
M  V30 13258 C 1212.21 -1.54777 -1.06892 0
M  V30 13259 O 1211.57 -0.689942 -1.67659 0
M  V30 13260 C 1211.62 -3.594 0.293914 0
M  V30 13261 O 1210.72 -4.06072 -0.719657 0
M  V30 13262 H 1210.06 -0.650949 0.131004 0
M  V30 13263 H 1212.59 -1.78703 0.996305 0
M  V30 13264 H 1212.6 -4.0777 0.137052 0
M  V30 13265 H 1211.28 -3.95617 1.28298 0
M  V30 13266 H 1209.86 -3.69125 -0.529226 0
M  V30 13267 N 1212.04 -0.478751 -1.50152 0
M  V30 13268 C 1212.95 0.316554 -2.32455 0
M  V30 13269 C 1213.97 0.98871 -1.4318 0
M  V30 13270 O 1215.14 0.974998 -1.76226 0
M  V30 13271 C 1212.21 1.3799 -3.18056 0
M  V30 13272 C 1211.27 0.723534 -4.23159 0
M  V30 13273 C 1210.5 1.73621 -5.0467 0
M  V30 13274 O 1210.73 2.96362 -4.87366 0
M  V30 13275 O 1209.66 1.30381 -5.87609 0
M  V30 13276 H 1213.49 -0.356491 -3.016 0
M  V30 13277 H 1211.07 -0.24046 -1.47452 0
M  V30 13278 H 1212.95 1.99565 -3.71149 0
M  V30 13279 H 1211.63 2.03627 -2.5163 0
M  V30 13280 H 1210.54 0.0686296 -3.74037 0
M  V30 13281 H 1211.87 0.109979 -4.92077 0
M  V30 13282 N 1213.52 1.56172 -0.211661 0
M  V30 13283 C 1214.94 1.5895 0.143907 0
M  V30 13284 C 1215.14 1.22826 1.59737 0
M  V30 13285 O 1214.19 0.958823 2.33587 0
M  V30 13286 C 1215.51 3.00199 -0.173438 0
M  V30 13287 C 1217.05 3.12789 -0.114877 0
M  V30 13288 C 1217.53 4.56199 -0.405759 0
M  V30 13289 N 1219.02 4.61838 -0.354973 0
M  V30 13290 C 1219.75 5.70721 -0.553671 0
M  V30 13291 N 1219.25 6.88006 -0.813613 0
M  V30 13292 N 1221.04 5.59988 -0.486787 0
M  V30 13293 H 1213.19 1.77931 -1.15993 0
M  V30 13294 H 1215.46 0.826569 -0.464206 0
M  V30 13295 H 1215.16 3.31248 -1.18186 0
M  V30 13296 H 1215.04 3.73651 0.516232 0
M  V30 13297 H 1217.42 2.81543 0.884166 0
M  V30 13298 H 1217.51 2.41688 -0.837875 0
M  V30 13299 H 1217.15 4.88161 -1.40219 0
M  V30 13300 H 1217.08 5.25512 0.338318 0
M  V30 13301 H 1219.57 3.77555 -0.161352 0
M  V30 13302 H 1219.88 7.66894 -0.953594 0
M  V30 13303 H 1218.23 6.89774 -0.850696 0
M  V30 13304 H 1221.42 4.67238 -0.284009 0
M  V30 13305 H 1221.59 6.44781 -0.645051 0
M  V30 13306 N 1215 -0.0618163 1.57479 0
M  V30 13307 C 1215.93 -1.07252 2.07411 0
M  V30 13308 C 1216.91 -1.39756 0.969649 0
M  V30 13309 O 1218.09 -1.4921 1.24298 0
M  V30 13310 C 1215.22 -2.38313 2.52635 0
M  V30 13311 C 1214.18 -2.20136 3.67048 0
M  V30 13312 C 1213.5 -3.56668 3.98361 0
M  V30 13313 C 1214.8 -1.61437 4.96725 0
M  V30 13314 H 1216.5 -0.656983 2.92103 0
M  V30 13315 H 1214.04 -0.314579 1.40522 0
M  V30 13316 H 1216 -3.09319 2.86181 0
M  V30 13317 H 1214.72 -2.81865 1.64984 0
M  V30 13318 H 1213.38 -1.51569 3.338 0
M  V30 13319 H 1213.03 -3.97809 3.07826 0
M  V30 13320 H 1212.73 -3.45342 4.75408 0
M  V30 13321 H 1214.25 -4.2909 4.34413 0
M  V30 13322 H 1215.67 -2.2232 5.28438 0
M  V30 13323 H 1214.06 -1.60779 5.78161 0
M  V30 13324 H 1215.13 -0.576795 4.81457 0
M  V30 13325 N 1216.48 -1.54033 -0.333429 0
M  V30 13326 C 1217.42 -1.83441 -1.43011 0
M  V30 13327 C 1218.42 -0.705592 -1.54006 0
M  V30 13328 O 1219.62 -0.889098 -1.56509 0
M  V30 13329 H 1216 -0.581326 -0.477037 0
M  V30 13330 H 1217.97 -2.75172 -1.15426 0
M  V30 13331 C 1216.72 -2.0698 -2.79382 0
M  V30 13332 H 1216.04 -2.93297 -2.71692 0
M  V30 13333 H 1217.48 -2.31517 -3.55212 0
M  V30 13334 C 1215.94 -0.85835 -3.25782 0
M  V30 13335 O 1216.47 -0.062739 -4.01651 0
M  V30 13336 N 1214.68 -0.672738 -2.82706 0
M  V30 13337 H 1214.22 -1.32136 -2.21128 0
M  V30 13338 H 1214.18 0.136347 -3.14104 0
M  V30 13339 N 1217.95 0.594978 -1.45938 0
M  V30 13340 C 1219.2 1.35356 -1.51823 0
M  V30 13341 C 1219.56 1.91711 -0.162721 0
M  V30 13342 O 1218.85 1.72831 0.827047 0
M  V30 13343 C 1219.04 2.51129 -2.54301 0
M  V30 13344 C 1218.87 2.06113 -3.99684 0
M  V30 13345 C 1217.64 1.91698 -4.67525 0
M  V30 13346 C 1219.84 1.62817 -4.87848 0
M  V30 13347 N 1217.82 1.40625 -5.97577 0
M  V30 13348 C 1219.19 1.23248 -6.07626 0
M  V30 13349 C 1221.25 1.50523 -4.74602 0
M  V30 13350 C 1219.95 0.726124 -7.15626 0
M  V30 13351 C 1221.98 1.0129 -5.82661 0
M  V30 13352 C 1221.34 0.626938 -7.01604 0
M  V30 13353 H 1217.44 0.488744 -0.610454 0
M  V30 13354 H 1220.02 0.678804 -1.82484 0
M  V30 13355 H 1218.19 3.16184 -2.25571 0
M  V30 13356 H 1219.92 3.18046 -2.50257 0
M  V30 13357 H 1216.68 2.1327 -4.22863 0
M  V30 13358 H 1217.1 1.17285 -6.66763 0
M  V30 13359 H 1221.75 1.78985 -3.83046 0
M  V30 13360 H 1219.46 0.429069 -8.0696 0
M  V30 13361 H 1223.05 0.921864 -5.7445 0
M  V30 13362 H 1221.93 0.251849 -7.83795 0
M  V30 13363 N 1219.43 1.33438 0.838571 0
M  V30 13364 C 1220.36 1.26344 1.96365 0
M  V30 13365 C 1221.34 0.143956 1.6949 0
M  V30 13366 O 1222.53 0.333779 1.9131 0
M  V30 13367 C 1219.66 1.0022 3.32526 0
M  V30 13368 C 1218.61 2.08466 3.73799 0
M  V30 13369 C 1217.94 1.67555 5.07769 0
M  V30 13370 C 1219.24 3.50144 3.87552 0
M  V30 13371 H 1220.93 2.20478 2.02558 0
M  V30 13372 H 1218.48 1.06139 0.973168 0
M  V30 13373 H 1220.43 0.939068 4.10803 0
M  V30 13374 H 1219.16 0.0252514 3.2659 0
M  V30 13375 H 1217.81 2.13822 2.97785 0
M  V30 13376 H 1217.46 0.685619 4.98305 0
M  V30 13377 H 1217.16 2.39993 5.36356 0
M  V30 13378 H 1218.69 1.62708 5.88522 0
M  V30 13379 H 1220.1 3.47287 4.56141 0
M  V30 13380 H 1218.5 4.21069 4.27575 0
M  V30 13381 H 1219.57 3.88628 2.89994 0
M  V30 13382 N 1220.91 -1.05686 1.16912 0
M  V30 13383 C 1221.82 -2.16824 0.8958 0
M  V30 13384 C 1222.84 -1.73482 -0.134215 0
M  V30 13385 O 1224.01 -2.01352 0.0438776 0
M  V30 13386 C 1221.08 -3.44298 0.407427 0
M  V30 13387 C 1220.14 -4.02114 1.50342 0
M  V30 13388 C 1219.37 -5.23503 1.03826 0
M  V30 13389 O 1219.59 -5.70295 -0.109579 0
M  V30 13390 O 1218.53 -5.73432 1.8292 0
M  V30 13391 H 1222.35 -2.42725 1.82533 0
M  V30 13392 H 1219.94 -1.15339 0.949589 0
M  V30 13393 H 1221.82 -4.21159 0.142356 0
M  V30 13394 H 1220.5 -3.19908 -0.494009 0
M  V30 13395 H 1219.4 -3.26715 1.82231 0
M  V30 13396 H 1220.74 -4.30811 2.38039 0
M  V30 13397 N 1222.39 -0.968567 -1.24324 0
M  V30 13398 C 1223.62 -0.647628 -1.96187 0
M  V30 13399 C 1224.03 0.787267 -1.72043 0
M  V30 13400 O 1223.37 1.53996 -1.00155 0
M  V30 13401 C 1223.43 -0.843517 -3.49464 0
M  V30 13402 C 1223.1 -2.25822 -3.97308 0
M  V30 13403 C 1224.09 -3.23602 -4.06913 0
M  V30 13404 C 1221.78 -2.58614 -4.30609 0
M  V30 13405 C 1223.77 -4.5226 -4.49154 0
M  V30 13406 C 1221.46 -3.87499 -4.72534 0
M  V30 13407 C 1222.46 -4.84134 -4.81771 0
M  V30 13408 O 1222.14 -6.10719 -5.2276 0
M  V30 13409 H 1221.88 -0.240568 -0.631746 0
M  V30 13410 H 1224.43 -1.29926 -1.59086 0
M  V30 13411 H 1222.66 -0.134716 -3.86465 0
M  V30 13412 H 1224.35 -0.521533 -4.02536 0
M  V30 13413 H 1225.12 -2.99596 -3.81402 0
M  V30 13414 H 1220.99 -1.84116 -4.22637 0
M  V30 13415 H 1224.54 -5.27689 -4.56279 0
M  V30 13416 H 1220.44 -4.11305 -4.97492 0
M  V30 13417 H 1221.2 -6.14298 -5.40906 0
M  V30 13418 N 1223.87 1.39211 -0.738786 0
M  V30 13419 C 1224.8 2.29117 -0.0616489 0
M  V30 13420 C 1225.81 1.47008 0.699462 0
M  V30 13421 O 1227 1.70041 0.542998 0
M  V30 13422 C 1224.1 3.25692 0.936893 0
M  V30 13423 C 1223.27 4.3676 0.236515 0
M  V30 13424 C 1222.33 5.1362 1.1437 0
M  V30 13425 O 1221.36 5.65816 0.619762 0
M  V30 13426 N 1222.56 5.25184 2.4731 0
M  V30 13427 H 1225.33 2.8787 -0.833711 0
M  V30 13428 H 1222.89 1.50832 -0.588323 0
M  V30 13429 H 1224.88 3.73987 1.54648 0
M  V30 13430 H 1223.45 2.67943 1.61014 0
M  V30 13431 H 1222.67 3.90293 -0.553594 0
M  V30 13432 H 1223.96 5.08192 -0.248707 0
M  V30 13433 H 1223.35 4.84302 2.92349 0
M  V30 13434 H 1221.91 5.76905 3.03355 0
M  V30 13435 N 1225.34 0.486708 1.49896 0
M  V30 13436 C 1226.29 -0.313156 2.30482 0
M  V30 13437 C 1227.29 -0.976043 1.38455 0
M  V30 13438 O 1228.49 -0.905364 1.55574 0
M  V30 13439 H 1224.87 -0.119839 0.74239 0
M  V30 13440 H 1226.84 0.386701 2.95884 0
M  V30 13441 C 1225.59 -1.37334 3.19429 0
M  V30 13442 H 1224.91 -0.87265 3.9016 0
M  V30 13443 H 1226.35 -1.90526 3.78782 0
M  V30 13444 C 1224.81 -2.38378 2.38071 0
M  V30 13445 O 1225.34 -3.43972 2.07476 0
M  V30 13446 N 1223.55 -2.10486 2.00359 0
M  V30 13447 H 1223.09 -1.24638 2.2544 0
M  V30 13448 H 1223.05 -2.78324 1.46229 0
M  V30 13449 N 1226.82 -1.56058 0.219941 0
M  V30 13450 C 1227.77 -2.21585 -0.707321 0
M  V30 13451 C 1228.77 -1.19473 -1.20094 0
M  V30 13452 O 1229.97 -1.37557 -1.16095 0
M  V30 13453 H 1226.35 -0.710447 -0.246515 0
M  V30 13454 H 1228.32 -2.98111 -0.131214 0
M  V30 13455 C 1227.07 -2.90841 -1.90544 0
M  V30 13456 H 1226.39 -3.6917 -1.53472 0
M  V30 13457 H 1227.83 -3.40092 -2.53206 0
M  V30 13458 C 1226.29 -1.93223 -2.75983 0
M  V30 13459 O 1226.82 -1.44815 -3.74689 0
M  V30 13460 N 1225.02 -1.60907 -2.41986 0
M  V30 13461 H 1224.57 -2.00467 -1.61774 0
M  V30 13462 H 1224.53 -0.958534 -2.99432 0
M  V30 13463 N 1228.3 0.053464 -1.57509 0
M  V30 13464 C 1229.55 0.748016 -1.87317 0
M  V30 13465 C 1229.86 1.77805 -0.815161 0
M  V30 13466 O 1231.07 2.52347 -1.00167 0
M  V30 13467 C 1229.53 1.38137 -3.32334 0
M  V30 13468 C 1229.13 0.388958 -4.46308 0
M  V30 13469 C 1230.88 2.05722 -3.7132 0
M  V30 13470 C 1228.78 1.02927 -5.82374 0
M  V30 13471 H 1227.71 0.283123 -0.698826 0
M  V30 13472 H 1230.37 0.00170723 -1.835 0
M  V30 13473 H 1228.75 2.17656 -3.3082 0
M  V30 13474 H 1229.92 -0.377752 -4.59249 0
M  V30 13475 H 1228.24 -0.183447 -4.15996 0
M  V30 13476 H 1230.83 2.54437 -4.70283 0
M  V30 13477 H 1231.18 2.86475 -3.02056 0
M  V30 13478 H 1231.71 1.3301 -3.74904 0
M  V30 13479 H 1228.45 0.261674 -6.54977 0
M  V30 13480 H 1227.97 1.7664 -5.732 0
M  V30 13481 H 1229.65 1.54378 -6.28312 0
M  V30 13482 N 1229.78 1.54207 0.325255 0
M  V30 13483 C 1231.03 1.71544 1.06091 0
M  V30 13484 C 1231.34 0.495137 1.89229 0
M  V30 13485 O 1232.55 0.54982 2.65874 0
M  V30 13486 C 1231 3.03412 1.93569 0
M  V30 13487 C 1230.61 4.32842 1.1555 0
M  V30 13488 C 1232.36 3.30113 2.66881 0
M  V30 13489 C 1230.26 5.55773 2.02164 0
M  V30 13490 H 1229.19 0.639281 0.399795 0
M  V30 13491 H 1231.84 1.80701 0.319261 0
M  V30 13492 H 1230.23 2.88158 2.71626 0
M  V30 13493 H 1231.4 4.58857 0.42276 0
M  V30 13494 H 1229.71 4.12893 0.539277 0
M  V30 13495 H 1232.31 4.19151 3.31988 0
M  V30 13496 H 1232.65 2.47918 3.34428 0
M  V30 13497 H 1233.19 3.46227 1.95887 0
M  V30 13498 H 1229.93 6.40565 1.39128 0
M  V30 13499 H 1229.45 5.3398 2.73177 0
M  V30 13500 H 1231.13 5.92113 2.60789 0
M  V30 13501 N 1231.26 -0.58723 1.46251 0
M  V30 13502 C 1232.22 -1.67863 1.5606 0
M  V30 13503 C 1233.22 -1.54715 0.438162 0
M  V30 13504 O 1234.41 -1.59415 0.702323 0
M  V30 13505 C 1231.54 -3.07262 1.47659 0
M  V30 13506 H 1232.74 -1.60525 2.53321 0
M  V30 13507 H 1230.29 -0.804691 1.33994 0
M  V30 13508 H 1231.02 -3.20159 0.5166 0
M  V30 13509 H 1230.81 -3.18213 2.29092 0
M  V30 13510 H 1232.3 -3.8672 1.57599 0
M  V30 13511 N 1232.74 -1.33881 -0.831482 0
M  V30 13512 C 1233.98 -1.25755 -1.58719 0
M  V30 13513 C 1234.31 0.174746 -1.93713 0
M  V30 13514 O 1233.57 1.13384 -1.59507 0
M  V30 13515 C 1233.86 -2.08544 -2.90249 0
M  V30 13516 C 1233.53 -3.57651 -2.74585 0
M  V30 13517 C 1232.19 -3.983 -2.7002 0
M  V30 13518 C 1234.54 -4.52369 -2.58866 0
M  V30 13519 C 1231.87 -5.31872 -2.47647 0
M  V30 13520 C 1234.22 -5.86112 -2.38025 0
M  V30 13521 C 1232.89 -6.25934 -2.31867 0
M  V30 13522 H 1232.16 -0.460171 -0.580796 0
M  V30 13523 H 1234.81 -1.6554 -0.96274 0
M  V30 13524 H 1233.11 -1.6156 -3.56939 0
M  V30 13525 H 1234.81 -1.99609 -3.47789 0
M  V30 13526 H 1231.4 -3.2538 -2.78973 0
M  V30 13527 H 1235.58 -4.21868 -2.61421 0
M  V30 13528 H 1230.84 -5.61756 -2.41331 0
M  V30 13529 H 1235.01 -6.59103 -2.24847 0
M  V30 13530 H 1232.64 -7.29372 -2.14291 0
M  V30 13531 N 1234.21 1.05064 -1.1747 0
M  V30 13532 C 1235.44 1.81497 -0.987031 0
M  V30 13533 C 1235.85 1.83323 0.467921 0
M  V30 13534 O 1235.19 1.26006 1.33672 0
M  V30 13535 C 1235.26 3.28826 -1.45306 0
M  V30 13536 C 1234.92 3.50681 -2.93039 0
M  V30 13537 C 1235.92 3.42699 -3.90965 0
M  V30 13538 C 1233.6 3.77602 -3.31243 0
M  V30 13539 C 1235.6 3.61325 -5.25093 0
M  V30 13540 C 1233.28 3.95876 -4.65538 0
M  V30 13541 C 1234.28 3.87737 -5.62271 0
M  V30 13542 O 1233.97 4.055 -6.94136 0
M  V30 13543 H 1233.7 0.578734 -0.349347 0
M  V30 13544 H 1236.26 1.33373 -1.56208 0
M  V30 13545 H 1234.49 3.77872 -0.821581 0
M  V30 13546 H 1236.17 3.86788 -1.23085 0
M  V30 13547 H 1236.94 3.21877 -3.62795 0
M  V30 13548 H 1232.82 3.8304 -2.56517 0
M  V30 13549 H 1236.36 3.54888 -6.00583 0
M  V30 13550 H 1232.26 4.16191 -4.93412 0
M  V30 13551 H 1233.03 4.22718 -7.00894 0
M  V30 13552 N 1235.69 0.975146 1.23809 0
M  V30 13553 C 1236.64 0.503396 2.27087 0
M  V30 13554 C 1237.63 -0.43689 1.63669 0
M  V30 13555 O 1238.84 -0.31136 1.77287 0
M  V30 13556 H 1235.21 0.144346 0.738017 0
M  V30 13557 H 1237.19 1.38627 2.64244 0
M  V30 13558 C 1235.93 -0.183682 3.47214 0
M  V30 13559 H 1235.26 0.530753 3.96261 0
M  V30 13560 H 1236.7 -0.477479 4.21303 0
M  V30 13561 C 1235.16 -1.41317 3.05829 0
M  V30 13562 O 1235.69 -2.50975 3.13647 0
M  V30 13563 N 1233.89 -1.28191 2.60798 0
M  V30 13564 H 1233.44 -0.38967 2.54636 0
M  V30 13565 H 1233.4 -2.10565 2.33473 0
M  V30 13566 N 1237.17 -1.38817 0.746158 0
M  V30 13567 C 1238.1 -2.29081 0.0737986 0
M  V30 13568 C 1239.11 -1.47377 -0.691656 0
M  V30 13569 O 1240.3 -1.70326 -0.533973 0
M  V30 13570 C 1237.4 -3.26185 -0.919607 0
M  V30 13571 C 1236.58 -4.36879 -0.213349 0
M  V30 13572 C 1235.64 -5.1422 -1.11644 0
M  V30 13573 O 1234.66 -5.66137 -0.589747 0
M  V30 13574 N 1235.86 -5.26488 -2.44521 0
M  V30 13575 H 1238.63 -2.87424 0.848966 0
M  V30 13576 H 1236.19 -1.50518 0.596314 0
M  V30 13577 H 1238.18 -3.74802 -1.52662 0
M  V30 13578 H 1236.75 -2.68793 -1.5959 0
M  V30 13579 H 1235.97 -3.89994 0.574285 0
M  V30 13580 H 1237.26 -5.08053 0.275655 0
M  V30 13581 H 1236.66 -4.85846 -2.89777 0
M  V30 13582 H 1235.21 -5.78505 -3.00291 0
M  V30 13583 N 1238.65 -0.49465 -1.49636 0
M  V30 13584 C 1239.58 0.276606 -2.31856 0
M  V30 13585 C 1240.56 0.968499 -1.39836 0
M  V30 13586 O 1241.74 0.96113 -1.68748 0
M  V30 13587 C 1238.87 1.34522 -3.20189 0
M  V30 13588 C 1237.83 0.773571 -4.20951 0
M  V30 13589 C 1237.15 1.94223 -4.98178 0
M  V30 13590 C 1238.45 -0.231096 -5.21788 0
M  V30 13591 H 1240.15 -0.409668 -2.96584 0
M  V30 13592 H 1237.69 -0.198461 -1.42626 0
M  V30 13593 H 1239.65 1.89244 -3.76517 0
M  V30 13594 H 1238.37 2.06059 -2.53392 0
M  V30 13595 H 1237.03 0.248144 -3.65759 0
M  V30 13596 H 1236.68 2.64514 -4.27834 0
M  V30 13597 H 1236.38 1.56584 -5.66353 0
M  V30 13598 H 1237.9 2.49391 -5.57348 0
M  V30 13599 H 1239.32 0.227768 -5.72847 0
M  V30 13600 H 1237.71 -0.522984 -5.97817 0
M  V30 13601 H 1238.78 -1.14914 -4.71087 0
M  V30 13602 N 1240.13 1.55939 -0.228214 0
M  V30 13603 C 1241.06 2.17874 0.711589 0
M  V30 13604 C 1242.07 1.14969 1.15265 0
M  V30 13605 O 1243.26 1.41919 1.08265 0
M  V30 13606 C 1240.36 2.75294 1.97652 0
M  V30 13607 C 1239.53 4.03435 1.68994 0
M  V30 13608 C 1238.59 4.45354 2.8026 0
M  V30 13609 O 1237.62 5.12117 2.48445 0
M  V30 13610 N 1238.82 4.11588 4.0936 0
M  V30 13611 H 1241.58 2.99148 0.181757 0
M  V30 13612 H 1239.15 1.6183 -0.0474567 0
M  V30 13613 H 1241.14 3.00305 2.71292 0
M  V30 13614 H 1239.71 1.98285 2.41665 0
M  V30 13615 H 1238.93 3.8621 0.789657 0
M  V30 13616 H 1240.22 4.87015 1.47287 0
M  V30 13617 H 1239.61 3.57953 4.38048 0
M  V30 13618 H 1238.17 4.41477 4.79522 0
M  V30 13619 N 1241.6 -0.0451101 1.57535 0
M  V30 13620 C 1242.54 -1.07792 2.02271 0
M  V30 13621 C 1243.55 -1.33423 0.932854 0
M  V30 13622 O 1244.74 -1.31193 1.2104 0
M  V30 13623 C 1241.84 -2.42314 2.36933 0
M  V30 13624 C 1241.01 -2.36266 3.68099 0
M  V30 13625 C 1240.07 -3.53108 3.9013 0
M  V30 13626 O 1239.1 -3.33327 4.61391 0
M  V30 13627 N 1240.3 -4.74415 3.3453 0
M  V30 13628 H 1243.06 -0.696744 2.91489 0
M  V30 13629 H 1240.62 -0.233336 1.6021 0
M  V30 13630 H 1242.62 -3.19171 2.48821 0
M  V30 13631 H 1241.19 -2.72335 1.53468 0
M  V30 13632 H 1240.41 -1.44615 3.66715 0
M  V30 13633 H 1241.69 -2.29351 4.54175 0
M  V30 13634 H 1241.09 -4.93388 2.76739 0
M  V30 13635 H 1239.65 -5.48692 3.51825 0
M  V30 13636 N 1243.08 -1.54377 -0.317073 0
M  V30 13637 C 1244.01 -1.8721 -1.39552 0
M  V30 13638 C 1244.99 -0.729483 -1.53664 0
M  V30 13639 O 1246.18 -0.983799 -1.67437 0
M  V30 13640 C 1243.31 -2.1052 -2.76222 0
M  V30 13641 C 1242.26 -3.26366 -2.76892 0
M  V30 13642 C 1241.59 -3.35061 -4.16699 0
M  V30 13643 C 1242.89 -4.63862 -2.40061 0
M  V30 13644 H 1244.58 -2.77532 -1.12323 0
M  V30 13645 H 1242.13 -1.33536 -0.538897 0
M  V30 13646 H 1244.08 -2.32073 -3.51739 0
M  V30 13647 H 1242.81 -1.16953 -3.04942 0
M  V30 13648 H 1241.46 -3.0471 -2.03831 0
M  V30 13649 H 1241.11 -2.39041 -4.4257 0
M  V30 13650 H 1240.81 -4.12923 -4.18053 0
M  V30 13651 H 1242.34 -3.58856 -4.94019 0
M  V30 13652 H 1243.75 -4.85252 -3.05292 0
M  V30 13653 H 1242.15 -5.44321 -2.52655 0
M  V30 13654 H 1243.22 -4.6567 -1.35202 0
M  V30 13655 N 1244.56 0.579466 -1.4656 0
M  V30 13656 C 1245.47 1.71609 -1.59961 0
M  V30 13657 C 1246.49 1.67162 -0.483002 0
M  V30 13658 O 1247.66 1.87012 -0.747561 0
M  V30 13659 C 1244.73 3.08114 -1.58954 0
M  V30 13660 C 1243.79 3.238 -2.81872 0
M  V30 13661 C 1243.02 4.53794 -2.80904 0
M  V30 13662 O 1243.24 5.37884 -1.89835 0
M  V30 13663 O 1242.18 4.72796 -3.72488 0
M  V30 13664 H 1246 1.6325 -2.56092 0
M  V30 13665 H 1243.59 0.746891 -1.2939 0
M  V30 13666 H 1245.47 3.8939 -1.611 0
M  V30 13667 H 1244.15 3.16903 -0.65984 0
M  V30 13668 H 1243.05 2.42006 -2.85279 0
M  V30 13669 H 1244.39 3.19904 -3.74062 0
M  V30 13670 N 1246.04 1.3432 0.824371 0
M  V30 13671 C 1246.97 1.21619 1.94271 0
M  V30 13672 C 1247.98 0.143628 1.62165 0
M  V30 13673 O 1249.17 0.395353 1.74067 0
M  V30 13674 C 1246.27 0.846128 3.28167 0
M  V30 13675 C 1245.45 2.01337 3.88307 0
M  V30 13676 C 1244.5 1.62194 5.00579 0
M  V30 13677 O 1243.53 2.33831 5.18953 0
M  V30 13678 N 1244.73 0.535262 5.78027 0
M  V30 13679 H 1247.5 2.17963 2.05699 0
M  V30 13680 H 1245.06 1.27256 1.00088 0
M  V30 13681 H 1247.05 0.566086 4.00721 0
M  V30 13682 H 1245.62 -0.0270764 3.12588 0
M  V30 13683 H 1244.84 2.45823 3.08164 0
M  V30 13684 H 1246.13 2.79404 4.25219 0
M  V30 13685 H 1245.53 -0.0603126 5.65668 0
M  V30 13686 H 1244.08 0.314946 6.51039 0
M  V30 13687 N 1247.52 -1.0444 1.18026 0
M  V30 13688 C 1248.45 -2.11888 0.847277 0
M  V30 13689 C 1249.43 -1.61496 -0.189171 0
M  V30 13690 O 1250.61 -1.88374 -0.0689859 0
M  V30 13691 C 1247.74 -3.3766 0.26525 0
M  V30 13692 C 1246.78 -4.06893 1.27829 0
M  V30 13693 S 1247.62 -4.54445 2.83267 0
M  V30 13694 C 1248.77 -5.83454 2.26565 0
M  V30 13695 H 1249.01 -2.39806 1.75727 0
M  V30 13696 H 1246.54 -1.17152 1.00572 0
M  V30 13697 H 1248.5 -4.1045 -0.0640578 0
M  V30 13698 H 1247.16 -3.07864 -0.622806 0
M  V30 13699 H 1246.35 -4.97287 0.819849 0
M  V30 13700 H 1245.95 -3.40203 1.55364 0
M  V30 13701 H 1248.25 -6.57203 1.64591 0
M  V30 13702 H 1249.19 -6.34056 3.15244 0
M  V30 13703 H 1249.6 -5.3838 1.69728 0
M  V30 13704 N 1248.99 -0.981699 -1.2329 0
M  V30 13705 C 1250.22 -0.66937 -1.95773 0
M  V30 13706 C 1250.64 0.763898 -1.72656 0
M  V30 13707 O 1249.99 1.51418 -1.01876 0
M  V30 13708 C 1250.05 -0.951863 -3.48743 0
M  V30 13709 O 1249.77 -2.3288 -3.71078 0
M  V30 13710 C 1251.27 -0.655668 -4.38424 0
M  V30 13711 H 1248.49 -0.248545 -0.623271 0
M  V30 13712 H 1251.03 -1.31343 -1.56746 0
M  V30 13713 H 1249.19 -0.353787 -3.85781 0
M  V30 13714 H 1249.6 -2.41948 -4.65362 0
M  V30 13715 H 1251.07 -0.903683 -5.44553 0
M  V30 13716 H 1251.55 0.410269 -4.3728 0
M  V30 13717 H 1252.16 -1.23428 -4.06996 0
M  V30 13718 N 1250.47 1.3842 -0.753509 0
M  V30 13719 C 1251.7 2.04403 -0.320449 0
M  V30 13720 C 1252.12 1.5683 1.05118 0
M  V30 13721 O 1251.47 0.741335 1.66765 0
M  V30 13722 C 1251.52 3.59954 -0.333937 0
M  V30 13723 O 1251.24 4.05782 -1.65144 0
M  V30 13724 C 1252.75 4.43156 0.112997 0
M  V30 13725 H 1249.97 0.656881 -0.136927 0
M  V30 13726 H 1252.51 1.77112 -1.02234 0
M  V30 13727 H 1250.66 3.86083 0.319215 0
M  V30 13728 H 1251.08 5.00213 -1.57757 0
M  V30 13729 H 1252.55 5.51975 0.0523995 0
M  V30 13730 H 1253.03 4.23581 1.16087 0
M  V30 13731 H 1253.64 4.22216 -0.511278 0
M  V30 13732 N 1251.95 0.502579 1.49372 0
M  V30 13733 C 1253.18 -0.0381429 2.06865 0
M  V30 13734 C 1253.59 -1.30674 1.36271 0
M  V30 13735 O 1252.95 -1.77078 0.441532 0
M  V30 13736 C 1253 -0.294068 3.60302 0
M  V30 13737 O 1252.72 0.924244 4.2824 0
M  V30 13738 C 1254.22 -0.878253 4.34513 0
M  V30 13739 H 1251.44 0.0211756 0.670666 0
M  V30 13740 H 1253.99 0.700387 1.92132 0
M  V30 13741 H 1252.14 -0.982583 3.74732 0
M  V30 13742 H 1252.56 0.688062 5.19967 0
M  V30 13743 H 1254.03 -1.0069 5.42739 0
M  V30 13744 H 1254.51 -1.87643 3.97098 0
M  V30 13745 H 1255.11 -0.227157 4.24693 0
M  V30 13746 N 1253.43 -1.55816 0.23648 0
M  V30 13747 C 1254.39 -2.1967 -0.654041 0
M  V30 13748 C 1255.39 -1.1629 -1.11056 0
M  V30 13749 O 1256.58 -1.41435 -1.01695 0
M  V30 13750 C 1253.71 -2.83196 -1.89771 0
M  V30 13751 H 1254.91 -2.99743 -0.0970911 0
M  V30 13752 H 1252.46 -1.56295 -0.013098 0
M  V30 13753 H 1253.19 -2.07033 -2.49616 0
M  V30 13754 H 1252.98 -3.58915 -1.57868 0
M  V30 13755 H 1254.47 -3.32095 -2.53184 0
M  V30 13756 N 1254.91 0.036755 -1.57557 0
M  V30 13757 C 1255.82 1.05687 -2.09446 0
M  V30 13758 C 1256.83 1.40137 -1.03139 0
M  V30 13759 O 1258.01 1.49611 -1.34828 0
M  V30 13760 C 1255.07 2.34114 -2.55717 0
M  V30 13761 C 1254.13 2.06316 -3.76473 0
M  V30 13762 C 1253.37 3.2862 -4.20529 0
M  V30 13763 O 1253.59 4.3902 -3.64167 0
M  V30 13764 O 1252.52 3.14772 -5.13033 0
M  V30 13765 H 1256.35 0.64593 -2.96751 0
M  V30 13766 H 1253.94 0.253235 -1.47238 0
M  V30 13767 H 1255.82 3.09631 -2.85844 0
M  V30 13768 H 1254.49 2.74519 -1.71526 0
M  V30 13769 H 1253.4 1.28392 -3.51378 0
M  V30 13770 H 1254.73 1.70772 -4.61625 0
M  V30 13771 N 1256.39 1.54543 0.308881 0
M  V30 13772 C 1257.33 1.85693 1.40074 0
M  V30 13773 C 1258.33 0.730004 1.52864 0
M  V30 13774 O 1259.53 0.913884 1.55075 0
M  V30 13775 H 1255.91 0.588842 0.467728 0
M  V30 13776 H 1257.88 2.76973 1.11034 0
M  V30 13777 C 1256.63 2.11399 2.76054 0
M  V30 13778 H 1255.95 2.97583 2.66992 0
M  V30 13779 H 1257.39 2.37139 3.51484 0
M  V30 13780 C 1255.85 0.91007 3.24375 0
M  V30 13781 O 1256.38 0.12663 4.015 0
M  V30 13782 N 1254.59 0.717629 2.816 0
M  V30 13783 H 1254.13 1.35637 2.18998 0
M  V30 13784 H 1254.09 -0.0863585 3.14281 0
M  V30 13785 N 1257.86 -0.571685 1.46866 0
M  V30 13786 C 1259.11 -1.32924 1.53957 0
M  V30 13787 C 1259.46 -1.91428 0.1932 0
M  V30 13788 O 1258.76 -1.74125 -0.799447 0
M  V30 13789 C 1258.95 -2.47051 2.58264 0
M  V30 13790 C 1258.78 -1.99729 4.02913 0
M  V30 13791 C 1257.55 -1.84236 4.70516 0
M  V30 13792 C 1259.75 -1.55035 4.90376 0
M  V30 13793 N 1257.73 -1.31101 5.99738 0
M  V30 13794 C 1259.1 -1.13566 6.0951 0
M  V30 13795 C 1261.16 -1.42953 4.76937 0
M  V30 13796 C 1259.86 -0.612183 7.1669 0
M  V30 13797 C 1261.89 -0.92008 5.84199 0
M  V30 13798 C 1261.25 -0.515239 7.02513 0
M  V30 13799 H 1257.35 -0.47897 0.618152 0
M  V30 13800 H 1259.93 -0.649687 1.83541 0
M  V30 13801 H 1258.1 -3.12555 2.30573 0
M  V30 13802 H 1259.83 -3.14025 2.55285 0
M  V30 13803 H 1256.59 -2.06516 4.26202 0
M  V30 13804 H 1257.01 -1.06663 6.68545 0
M  V30 13805 H 1261.65 -1.72869 3.85845 0
M  V30 13806 H 1259.37 -0.300634 8.07541 0
M  V30 13807 H 1262.96 -0.830357 5.75844 0
M  V30 13808 H 1261.84 -0.127122 7.84097 0
M  V30 13809 N 1259.34 -1.34755 -0.817236 0
M  V30 13810 C 1260.27 -1.29452 -1.94331 0
M  V30 13811 C 1261.25 -0.170902 -1.69239 0
M  V30 13812 O 1262.44 -0.364173 -1.90755 0
M  V30 13813 C 1259.57 -1.05497 -3.30889 0
M  V30 13814 C 1258.52 -2.14386 -3.70436 0
M  V30 13815 C 1257.85 -1.75612 -5.05039 0
M  V30 13816 C 1259.15 -3.56265 -3.81933 0
M  V30 13817 H 1260.84 -2.23672 -1.99025 0
M  V30 13818 H 1258.39 -1.07674 -0.956159 0
M  V30 13819 H 1260.34 -1.0043 -4.09257 0
M  V30 13820 H 1259.06 -0.0772059 -3.26509 0
M  V30 13821 H 1257.72 -2.18532 -2.94345 0
M  V30 13822 H 1257.37 -0.764809 -4.97152 0
M  V30 13823 H 1257.07 -2.48495 -5.3247 0
M  V30 13824 H 1258.6 -1.72051 -5.85859 0
M  V30 13825 H 1260.01 -3.545 -4.50558 0
M  V30 13826 H 1258.41 -4.27818 -4.20822 0
M  V30 13827 H 1259.48 -3.93192 -2.83775 0
M  V30 13828 N 1260.82 1.03812 -1.18578 0
M  V30 13829 C 1261.77 2.11883 -0.915115 0
M  V30 13830 C 1262.74 1.65453 0.146479 0
M  V30 13831 O 1263.92 1.90799 0.00630058 0
M  V30 13832 C 1261.06 3.42157 -0.449755 0
M  V30 13833 C 1260.17 4.02185 -1.57706 0
M  V30 13834 C 1259.31 5.20431 -1.06417 0
M  V30 13835 C 1258.35 5.72496 -2.16599 0
M  V30 13836 N 1257.49 6.82027 -1.66685 0
M  V30 13837 H 1262.33 2.34373 -1.84047 0
M  V30 13838 H 1259.86 1.14962 -0.917728 0
M  V30 13839 H 1261.82 4.16888 -0.161407 0
M  V30 13840 H 1260.45 3.19806 0.438622 0
M  V30 13841 H 1259.5 3.24757 -1.98083 0
M  V30 13842 H 1260.81 4.36851 -2.40754 0
M  V30 13843 H 1259.97 6.02286 -0.730497 0
M  V30 13844 H 1258.71 4.87276 -0.203301 0
M  V30 13845 H 1257.71 4.8926 -2.50808 0
M  V30 13846 H 1258.94 6.07694 -3.03126 0
M  V30 13847 H 1256.88 6.50742 -0.828916 0
M  V30 13848 H 1256.8 7.1577 -2.43329 0
M  V30 13849 H 1258.07 7.67499 -1.36253 0
M  V30 13850 N 1262.3 0.988223 1.22768 0
M  V30 13851 C 1263.55 0.656941 1.90702 0
M  V30 13852 C 1263.86 -0.814058 1.77855 0
M  V30 13853 O 1265.07 -1.25673 2.40663 0
M  V30 13854 C 1263.52 1.12445 3.41883 0
M  V30 13855 C 1263.13 2.62034 3.63376 0
M  V30 13856 C 1264.87 0.867277 4.15546 0
M  V30 13857 C 1262.78 3.02412 5.08233 0
M  V30 13858 H 1261.71 0.242012 0.714105 0
M  V30 13859 H 1264.36 1.19716 1.39069 0
M  V30 13860 H 1262.74 0.512386 3.92671 0
M  V30 13861 H 1263.92 3.28546 3.23101 0
M  V30 13862 H 1262.23 2.85583 3.03037 0
M  V30 13863 H 1264.83 1.14471 5.22303 0
M  V30 13864 H 1265.17 -0.196611 4.15835 0
M  V30 13865 H 1265.71 1.4413 3.70771 0
M  V30 13866 H 1262.44 4.07957 5.1308 0
M  V30 13867 H 1261.96 2.406 5.49429 0
M  V30 13868 H 1263.64 2.93452 5.76624 0
M  V30 13869 N 1263.78 -1.38018 0.760839 0
M  V30 13870 C 1264.71 -2.2899 0.0980916 0
M  V30 13871 C 1265.72 -1.48102 -0.675985 0
M  V30 13872 O 1266.91 -1.70883 -0.515878 0
M  V30 13873 C 1264.01 -3.27142 -0.884959 0
M  V30 13874 C 1263.18 -4.37081 -0.167 0
M  V30 13875 C 1262.24 -5.15375 -1.06184 0
M  V30 13876 O 1261.27 -5.6673 -0.529667 0
M  V30 13877 N 1262.47 -5.29052 -2.38924 0
M  V30 13878 H 1265.23 -2.86508 0.879403 0
M  V30 13879 H 1262.8 -1.49877 0.612245 0
M  V30 13880 H 1264.79 -3.764 -1.48678 0
M  V30 13881 H 1263.36 -2.70471 -1.5673 0
M  V30 13882 H 1262.58 -3.89363 0.615617 0
M  V30 13883 H 1263.87 -5.07732 0.329525 0
M  V30 13884 H 1263.26 -4.88892 -2.84607 0
M  V30 13885 H 1261.82 -5.81658 -2.94139 0
M  V30 13886 N 1265.25 -0.510493 -1.49103 0
M  V30 13887 C 1266.66 -0.0650831 -1.86587 0
M  V30 13888 C 1267.02 1.35185 -1.42195 0
M  V30 13889 O 1266.14 2.0091 -0.804004 0
M  V30 13890 C 1266.74 -0.111333 -3.38617 0
M  V30 13891 C 1265.29 0.278782 -3.75366 0
M  V30 13892 C 1264.44 -0.479707 -2.73119 0
M  V30 13893 H 1267.39 -0.722784 -1.41285 0
M  V30 13894 H 1267.41 0.681706 -3.74343 0
M  V30 13895 H 1266.93 -1.14271 -3.70896 0
M  V30 13896 H 1265.03 1.31304 -3.48698 0
M  V30 13897 H 1265.14 -0.047271 -4.79077 0
M  V30 13898 H 1263.5 0.0716459 -2.54599 0
M  V30 13899 H 1264.29 -1.51135 -3.08242 0
M  V30 13900 N 1266.73 1.55688 -0.24474 0
M  V30 13901 C 1267.96 2.0329 0.384808 0
M  V30 13902 C 1268.37 1.12405 1.51692 0
M  V30 13903 O 1267.73 0.138056 1.81977 0
M  V30 13904 C 1267.78 3.50255 0.894635 0
M  V30 13905 O 1267.5 4.37677 -0.192365 0
M  V30 13906 C 1269 4.13608 1.59509 0
M  V30 13907 H 1266.22 0.664706 0.0916908 0
M  V30 13908 H 1268.77 2.01162 -0.367973 0
M  V30 13909 H 1266.92 3.52924 1.5976 0
M  V30 13910 H 1267.34 5.2414 0.194424 0
M  V30 13911 H 1268.81 5.1814 1.90356 0
M  V30 13912 H 1269.29 3.5997 2.51631 0
M  V30 13913 H 1269.89 4.14856 0.936749 0
M  V30 13914 N 1268.21 -0.0283989 1.57574 0
M  V30 13915 C 1269.44 -0.730831 1.93563 0
M  V30 13916 C 1269.85 -1.68857 0.844556 0
M  V30 13917 O 1269.21 -1.8162 -0.178971 0
M  V30 13918 C 1269.26 -1.48731 3.29486 0
M  V30 13919 O 1268.98 -0.568017 4.34402 0
M  V30 13920 C 1270.48 -2.28684 3.79761 0
M  V30 13921 H 1267.7 -0.205346 0.638807 0
M  V30 13922 H 1270.25 0.0142728 2.04495 0
M  V30 13923 H 1268.4 -2.18429 3.19949 0
M  V30 13924 H 1268.82 -1.09861 5.12865 0
M  V30 13925 H 1270.29 -2.77157 4.77376 0
M  V30 13926 H 1270.77 -3.10133 3.10989 0
M  V30 13927 H 1271.37 -1.64059 3.92383 0
M  V30 13928 N 1269.69 -1.54705 -0.300681 0
M  V30 13929 C 1271.1 -1.64998 -0.873654 0
M  V30 13930 C 1271.45 -0.558842 -1.88073 0
M  V30 13931 O 1270.57 0.304474 -2.14247 0
M  V30 13932 C 1271.17 -2.99099 -1.59138 0
M  V30 13933 C 1269.73 -3.11512 -2.11276 0
M  V30 13934 C 1268.88 -2.60681 -0.945551 0
M  V30 13935 H 1271.83 -1.5851 -0.0776752 0
M  V30 13936 H 1271.85 -2.9054 -2.45696 0
M  V30 13937 H 1271.36 -3.78493 -0.858172 0
M  V30 13938 H 1269.46 -2.36838 -2.87643 0
M  V30 13939 H 1269.57 -4.17672 -2.34707 0
M  V30 13940 H 1267.94 -2.17143 -1.33121 0
M  V30 13941 H 1268.72 -3.42553 -0.226291 0
M  V30 13942 N 1271.17 0.563888 -1.47167 0
M  V30 13943 C 1272.39 1.35176 -1.57297 0
M  V30 13944 C 1272.82 1.86794 -0.221235 0
M  V30 13945 O 1272.17 1.62606 0.801809 0
M  V30 13946 C 1272.22 2.50225 -2.59654 0
M  V30 13947 O 1271.33 3.5225 -2.14461 0
M  V30 13948 H 1270.67 0.401795 -0.528637 0
M  V30 13949 H 1273.2 0.682137 -1.92894 0
M  V30 13950 H 1273.21 2.96886 -2.79862 0
M  V30 13951 H 1271.88 2.1201 -3.57805 0
M  V30 13952 H 1270.46 3.1194 -2.04323 0
M  V30 13953 N 1272.64 1.35187 0.810078 0
M  V30 13954 C 1273.55 1.29926 1.95337 0
M  V30 13955 C 1274.57 0.204748 1.72791 0
M  V30 13956 O 1275.75 0.433507 1.96679 0
M  V30 13957 C 1272.81 1.06736 3.29861 0
M  V30 13958 C 1271.87 2.25466 3.65326 0
M  V30 13959 C 1271.11 2.03373 4.93432 0
M  V30 13960 O 1271.33 0.998419 5.61594 0
M  V30 13961 O 1270.26 2.90648 5.27075 0
M  V30 13962 H 1274.09 2.26137 2.02721 0
M  V30 13963 H 1271.67 1.15523 0.947354 0
M  V30 13964 H 1273.56 0.956367 4.10404 0
M  V30 13965 H 1272.23 0.135735 3.23415 0
M  V30 13966 H 1271.14 2.42129 2.85175 0
M  V30 13967 H 1272.47 3.17063 3.76473 0
M  V30 13968 N 1274.12 -1.03182 1.19127 0
M  V30 13969 C 1275.53 -1.57984 0.994888 0
M  V30 13970 C 1275.88 -1.90898 -0.453019 0
M  V30 13971 O 1275.01 -1.70556 -1.33191 0
M  V30 13972 C 1275.6 -2.8705 1.79966 0
M  V30 13973 C 1274.16 -3.38435 1.64737 0
M  V30 13974 C 1273.31 -2.11912 1.78854 0
M  V30 13975 H 1276.26 -0.857458 1.33542 0
M  V30 13976 H 1276.28 -3.57821 1.294 0
M  V30 13977 H 1275.79 -2.63062 2.85341 0
M  V30 13978 H 1273.9 -3.67416 0.619358 0
M  V30 13979 H 1274.01 -4.11665 2.45089 0
M  V30 13980 H 1272.37 -2.23642 1.21886 0
M  V30 13981 H 1273.16 -1.90369 2.85682 0
M  V30 13982 N 1275.6 -0.99472 -1.22242 0
M  V30 13983 C 1276.83 -0.690097 -1.95052 0
M  V30 13984 C 1277.24 0.745543 -1.73456 0
M  V30 13985 O 1276.6 1.50329 -1.03477 0
M  V30 13986 C 1276.65 -0.988798 -3.47714 0
M  V30 13987 O 1276.37 -2.36803 -3.68587 0
M  V30 13988 C 1277.87 -0.702132 -4.37704 0
M  V30 13989 H 1275.09 -0.255142 -0.620599 0
M  V30 13990 H 1277.64 -1.32998 -1.55344 0
M  V30 13991 H 1275.79 -0.394684 -3.85384 0
M  V30 13992 H 1276.21 -2.4687 -4.62769 0
M  V30 13993 H 1277.68 -0.961389 -5.43564 0
M  V30 13994 H 1278.16 0.363866 -4.3769 0
M  V30 13995 H 1278.76 -1.27738 -4.05664 0
M  V30 13996 N 1277.08 1.37613 -0.768148 0
M  V30 13997 C 1278.04 2.28653 -0.158283 0
M  V30 13998 C 1279.04 1.47862 0.631936 0
M  V30 13999 O 1280.23 1.68124 0.456055 0
M  V30 14000 C 1277.36 3.31776 0.783435 0
M  V30 14001 H 1278.56 2.84094 -0.960772 0
M  V30 14002 H 1276.11 1.46818 -0.536116 0
M  V30 14003 H 1276.84 2.81452 1.61106 0
M  V30 14004 H 1276.63 3.91488 0.219016 0
M  V30 14005 H 1278.12 3.99816 1.20568 0
M  V30 14006 N 1278.56 0.518393 1.4883 0
M  V30 14007 C 1279.81 -0.0218436 2.01688 0
M  V30 14008 C 1280.12 -1.36421 1.40174 0
M  V30 14009 O 1281.32 -1.99214 1.84461 0
M  V30 14010 C 1279.78 -0.0893538 3.59789 0
M  V30 14011 C 1279.39 1.24741 4.30283 0
M  V30 14012 C 1281.13 -0.579032 4.20532 0
M  V30 14013 C 1279.04 1.14112 5.80286 0
M  V30 14014 H 1277.97 -0.0119353 0.753906 0
M  V30 14015 H 1280.62 0.660432 1.71203 0
M  V30 14016 H 1279 -0.836458 3.87065 0
M  V30 14017 H 1280.18 2.00917 4.14691 0
M  V30 14018 H 1278.49 1.67191 3.81361 0
M  V30 14019 H 1281.09 -0.676343 5.30405 0
M  V30 14020 H 1281.43 -1.58207 3.85067 0
M  V30 14021 H 1281.96 0.112046 3.97642 0
M  V30 14022 H 1278.7 2.11895 6.20307 0
M  V30 14023 H 1278.22 0.420535 5.98324 0
M  V30 14024 H 1279.9 0.826992 6.41693 0
M  V30 14025 N 1280.03 -1.55556 0.252993 0
M  V30 14026 C 1280.98 -2.21634 -0.643979 0
M  V30 14027 C 1281.95 -1.18226 -1.1667 0
M  V30 14028 O 1283.14 -1.46694 -1.22006 0
M  V30 14029 C 1280.28 -2.92429 -1.83246 0
M  V30 14030 C 1279.39 -4.10506 -1.34569 0
M  V30 14031 C 1278.52 -4.69001 -2.49421 0
M  V30 14032 C 1277.56 -5.79315 -1.97636 0
M  V30 14033 N 1276.7 -6.31967 -3.05878 0
M  V30 14034 H 1281.54 -2.97909 -0.0738178 0
M  V30 14035 H 1279.08 -1.47079 -0.0246728 0
M  V30 14036 H 1281.04 -3.31678 -2.53072 0
M  V30 14037 H 1279.67 -2.18617 -2.375 0
M  V30 14038 H 1278.72 -3.76529 -0.541268 0
M  V30 14039 H 1280.03 -4.90125 -0.92622 0
M  V30 14040 H 1279.18 -5.10855 -3.27279 0
M  V30 14041 H 1277.92 -3.88612 -2.94673 0
M  V30 14042 H 1276.93 -5.36933 -1.18251 0
M  V30 14043 H 1278.15 -6.6156 -1.53347 0
M  V30 14044 H 1276.1 -5.5448 -3.50553 0
M  V30 14045 H 1276.02 -7.06797 -2.68281 0
M  V30 14046 H 1277.28 -6.7848 -3.83777 0
M  V30 14047 N 1281.51 0.0200419 -1.57587 0
M  V30 14048 C 1282.74 0.724241 -1.94344 0
M  V30 14049 C 1283.16 1.67612 -0.853688 0
M  V30 14050 O 1282.52 1.80303 0.189873 0
M  V30 14051 C 1282.57 1.44967 -3.30177 0
M  V30 14052 O 1281.67 2.56326 -3.23064 0
M  V30 14053 H 1281.01 0.194142 -0.634984 0
M  V30 14054 H 1283.54 -0.0271756 -2.04582 0
M  V30 14055 H 1283.55 1.81758 -3.65278 0
M  V30 14056 H 1282.23 0.75161 -4.09052 0
M  V30 14057 H 1280.81 2.22011 -2.99609 0
M  V30 14058 N 1282.99 1.54862 0.292472 0
M  V30 14059 C 1283.92 1.82786 1.38282 0
M  V30 14060 C 1284.94 0.711253 1.46441 0
M  V30 14061 O 1286.12 0.988851 1.48607 0
M  V30 14062 C 1283.22 1.95845 2.76582 0
M  V30 14063 C 1282.4 3.2633 2.91252 0
M  V30 14064 C 1281.46 3.29697 4.10105 0
M  V30 14065 O 1280.48 4.03184 4.01785 0
M  V30 14066 N 1281.68 2.557 5.21151 0
M  V30 14067 H 1284.45 2.76891 1.1468 0
M  V30 14068 H 1282.01 1.54541 0.482561 0
M  V30 14069 H 1284 1.95491 3.54352 0
M  V30 14070 H 1282.57 1.08696 2.93094 0
M  V30 14071 H 1281.79 3.39387 2.00525 0
M  V30 14072 H 1283.08 4.12421 2.9797 0
M  V30 14073 H 1282.48 1.95642 5.30792 0
M  V30 14074 H 1281.04 2.61089 5.97223 0
M  V30 14075 N 1284.47 -0.556076 1.47464 0
M  V30 14076 C 1285.4 -1.67275 1.62915 0
M  V30 14077 C 1286.38 -1.63229 0.478562 0
M  V30 14078 O 1287.56 -1.80833 0.708032 0
M  V30 14079 C 1284.69 -3.05911 1.64426 0
M  V30 14080 C 1283.65 -3.24804 2.78722 0
M  V30 14081 C 1282.97 -4.64238 2.65307 0
M  V30 14082 C 1284.27 -3.10071 4.20302 0
M  V30 14083 H 1285.97 -1.54601 2.56396 0
M  V30 14084 H 1283.51 -0.742337 1.23391 0
M  V30 14085 H 1285.47 -3.83878 1.73826 0
M  V30 14086 H 1284.19 -3.19547 0.675053 0
M  V30 14087 H 1282.85 -2.49246 2.68835 0
M  V30 14088 H 1282.5 -4.74675 1.66412 0
M  V30 14089 H 1282.2 -4.77828 3.41986 0
M  V30 14090 H 1283.72 -5.44339 2.76637 0
M  V30 14091 H 1285.14 -3.77855 4.3116 0
M  V30 14092 H 1283.53 -3.3517 4.97776 0
M  V30 14093 H 1284.6 -2.06803 4.38589 0
M  V30 14094 N 1285.95 -1.35615 -0.802897 0
M  V30 14095 C 1286.89 -1.28839 -1.91492 0
M  V30 14096 C 1287.86 -0.159621 -1.65331 0
M  V30 14097 O 1289.05 -0.343931 -1.87675 0
M  V30 14098 C 1286.19 -1.06999 -3.28093 0
M  V30 14099 C 1285.3 -2.28831 -3.66416 0
M  V30 14100 C 1284.44 -2.00111 -4.92066 0
M  V30 14101 C 1283.48 -3.17977 -5.23027 0
M  V30 14102 N 1282.61 -2.89009 -6.39858 0
M  V30 14103 H 1287.45 -2.2393 -1.96619 0
M  V30 14104 H 1284.99 -1.1131 -0.961687 0
M  V30 14105 H 1286.95 -0.923673 -4.06847 0
M  V30 14106 H 1285.58 -0.155684 -3.22424 0
M  V30 14107 H 1284.63 -2.54314 -2.82893 0
M  V30 14108 H 1285.94 -3.1683 -3.85253 0
M  V30 14109 H 1285.1 -1.82331 -5.78654 0
M  V30 14110 H 1283.84 -1.09402 -4.75271 0
M  V30 14111 H 1282.84 -3.3633 -4.34928 0
M  V30 14112 H 1284.07 -4.09493 -5.41749 0
M  V30 14113 H 1282.01 -2.00898 -6.24481 0
M  V30 14114 H 1281.93 -3.70544 -6.58964 0
M  V30 14115 H 1283.2 -2.74779 -7.29463 0
M  V30 14116 N 1287.43 1.02549 -1.19673 0
M  V30 14117 C 1288.67 1.75408 -0.995732 0
M  V30 14118 C 1288.99 1.89773 0.473863 0
M  V30 14119 O 1290.19 2.59638 0.793762 0
M  V30 14120 C 1288.65 3.15444 -1.73273 0
M  V30 14121 C 1288.26 3.09121 -3.24266 0
M  V30 14122 C 1290 3.92575 -1.61509 0
M  V30 14123 C 1287.91 4.44109 -3.9054 0
M  V30 14124 H 1286.84 0.657569 -0.368944 0
M  V30 14125 H 1289.49 1.14739 -1.43203 0
M  V30 14126 H 1287.87 3.76601 -1.22425 0
M  V30 14127 H 1289.05 2.57325 -3.82257 0
M  V30 14128 H 1287.36 2.45485 -3.36342 0
M  V30 14129 H 1289.96 4.92428 -2.08372 0
M  V30 14130 H 1290.3 4.12382 -0.569804 0
M  V30 14131 H 1290.83 3.38027 -2.09721 0
M  V30 14132 H 1287.57 4.29506 -4.95182 0
M  V30 14133 H 1287.09 4.95947 -3.37337 0
M  V30 14134 H 1288.77 5.12982 -3.94282 0
M  V30 14135 N 1288.9 1.00119 1.21713 0
M  V30 14136 C 1290.14 0.690044 1.924 0
M  V30 14137 C 1290.51 -0.764695 1.76115 0
M  V30 14138 O 1291.71 -1.18764 2.4114 0
M  V30 14139 C 1289.98 1.09491 3.40215 0
M  V30 14140 S 1291.54 0.903392 4.294 0
M  V30 14141 H 1288.36 0.252037 0.66483 0
M  V30 14142 H 1290.96 1.28521 1.47318 0
M  V30 14143 H 1289.66 2.14987 3.49584 0
M  V30 14144 H 1289.19 0.491878 3.90313 0
M  V30 14145 H 1291.21 -0.201597 4.9579 0
M  V30 14146 N 1290.38 -1.37203 0.775435 0
M  V30 14147 C 1291.33 -2.30228 0.162388 0
M  V30 14148 C 1292.3 -1.51284 -0.685747 0
M  V30 14149 O 1293.48 -1.7984 -0.637342 0
M  V30 14150 C 1290.62 -3.37762 -0.707858 0
M  V30 14151 C 1289.74 -4.31714 0.157287 0
M  V30 14152 C 1288.87 -5.26325 -0.718012 0
M  V30 14153 C 1287.91 -6.11918 0.149442 0
M  V30 14154 N 1287.05 -6.9876 -0.684043 0
M  V30 14155 H 1291.89 -2.82073 0.961184 0
M  V30 14156 H 1289.42 -1.38854 0.485587 0
M  V30 14157 H 1291.38 -3.98741 -1.22726 0
M  V30 14158 H 1290.01 -2.87273 -1.47222 0
M  V30 14159 H 1289.06 -3.7201 0.794533 0
M  V30 14160 H 1290.38 -4.91909 0.826262 0
M  V30 14161 H 1289.53 -5.92526 -1.30376 0
M  V30 14162 H 1288.27 -4.6655 -1.42066 0
M  V30 14163 H 1287.27 -5.44692 0.747697 0
M  V30 14164 H 1288.5 -6.73766 0.849476 0
M  V30 14165 H 1286.45 -6.41508 -1.37124 0
M  V30 14166 H 1286.36 -7.55965 -0.0724464 0
M  V30 14167 H 1287.63 -7.69346 -1.25407 0
M  V30 14168 N 1291.86 -0.526279 -1.48553 0
M  V30 14169 C 1293.14 0.073385 -1.95462 0
M  V30 14170 C 1293.52 1.51658 -1.46843 0
M  V30 14171 O 1292.86 2.17729 -0.693293 0
M  V30 14172 C 1293.07 -0.040041 -3.48977 0
M  V30 14173 C 1294.42 0.121108 -4.24427 0
M  V30 14174 O 1295.45 0.0339335 -3.56184 0
M  V30 14175 O 1294.31 0.303297 -5.45658 0
M  V30 14176 H 1291.4 0.0813498 -0.822989 0
M  V30 14177 H 1293.95 -0.590614 -1.59091 0
M  V30 14178 H 1292.72 -1.0455 -3.77074 0
M  V30 14179 H 1292.34 0.662975 -3.92034 0
M  V30 14180 N 1293.34 1.5542 -0.261239 0
M  V30 14181 C 1294.25 2.25627 0.642625 0
M  V30 14182 C 1295.26 1.27732 1.18155 0
M  V30 14183 O 1296.44 1.60639 1.21479 0
M  V30 14184 C 1293.5 2.95303 1.8165 0
M  V30 14185 C 1292.57 4.08644 1.31563 0
M  V30 14186 C 1291.8 4.74988 2.43355 0
M  V30 14187 O 1292.02 4.40474 3.62407 0
M  V30 14188 O 1290.96 5.63217 2.12299 0
M  V30 14189 H 1294.78 3.03609 0.0743091 0
M  V30 14190 H 1292.37 1.49372 -0.0291754 0
M  V30 14191 H 1294.25 3.3914 2.50125 0
M  V30 14192 H 1292.92 2.2025 2.37217 0
M  V30 14193 H 1291.83 3.69294 0.597746 0
M  V30 14194 H 1293.16 4.85558 0.805878 0
M  V30 14195 N 1294.82 -0.0116844 1.57596 0
M  V30 14196 C 1296.06 -0.699994 1.90336 0
M  V30 14197 C 1296.39 -1.74067 0.861072 0
M  V30 14198 O 1295.67 -1.94119 -0.121712 0
M  V30 14199 C 1295.95 -1.35377 3.33684 0
M  V30 14200 C 1295.81 -0.325434 4.48621 0
M  V30 14201 C 1297.12 -2.28312 3.76247 0
M  V30 14202 H 1294.24 -0.253002 0.692213 0
M  V30 14203 H 1296.89 0.037211 1.89964 0
M  V30 14204 H 1295.04 -1.98212 3.34132 0
M  V30 14205 H 1296.71 0.302331 4.60308 0
M  V30 14206 H 1294.95 0.353527 4.32357 0
M  V30 14207 H 1295.62 -0.8217 5.4585 0
M  V30 14208 H 1298.1 -1.75505 3.77276 0
M  V30 14209 H 1296.97 -2.71028 4.77321 0
M  V30 14210 H 1297.23 -3.15727 3.09465 0
M  V30 14211 N 1296.29 -1.55015 -0.284256 0
M  V30 14212 C 1297.24 -1.87898 -1.37102 0
M  V30 14213 C 1298.24 -0.754231 -1.51683 0
M  V30 14214 O 1299.44 -0.93844 -1.53601 0
M  V30 14215 H 1295.82 -0.596208 -0.458301 0
M  V30 14216 H 1297.79 -2.78704 -1.06613 0
M  V30 14217 C 1296.54 -2.15764 -2.72656 0
M  V30 14218 H 1295.86 -3.01792 -2.62224 0
M  V30 14219 H 1297.3 -2.42701 -3.47667 0
M  V30 14220 C 1295.76 -0.961561 -3.22886 0
M  V30 14221 O 1296.29 -0.190489 -4.01248 0
M  V30 14222 N 1294.49 -0.762338 -2.80422 0
M  V30 14223 H 1294.04 -1.39104 -2.16813 0
M  V30 14224 H 1294 0.0363482 -3.14379 0
M  V30 14225 N 1297.77 0.548248 -1.47757 0
M  V30 14226 C 1299.19 0.875048 -1.33473 0
M  V30 14227 C 1299.39 1.98747 -0.331952 0
M  V30 14228 O 1298.44 2.51226 0.253348 0
M  V30 14229 C 1299.76 1.25982 -2.73037 0
M  V30 14230 C 1301.3 1.37074 -2.81389 0
M  V30 14231 C 1301.78 1.78902 -4.21613 0
M  V30 14232 N 1303.27 1.86037 -4.24198 0
M  V30 14233 C 1304.01 2.1975 -5.2962 0
M  V30 14234 N 1303.5 2.52013 -6.45338 0
M  V30 14235 N 1305.29 2.206 -5.17003 0
M  V30 14236 H 1297.45 -0.186033 -2.11584 0
M  V30 14237 H 1299.71 -0.0205687 -0.947777 0
M  V30 14238 H 1299.41 0.516188 -3.47891 0
M  V30 14239 H 1299.29 2.21402 -3.05387 0
M  V30 14240 H 1301.68 2.10517 -2.06801 0
M  V30 14241 H 1301.76 0.398193 -2.52682 0
M  V30 14242 H 1301.4 1.06026 -4.9671 0
M  V30 14243 H 1301.33 2.77176 -4.47751 0
M  V30 14244 H 1303.82 1.63455 -3.40721 0
M  V30 14245 H 1304.13 2.7679 -7.21531 0
M  V30 14246 H 1302.48 2.49573 -6.48643 0
M  V30 14247 H 1305.67 1.9484 -4.25623 0
M  V30 14248 H 1305.84 2.46543 -5.99267 0
M  V30 14249 N 1299.25 1.36039 0.795694 0
M  V30 14250 C 1300.18 1.32528 1.92246 0
M  V30 14251 C 1301.16 0.197805 1.68946 0
M  V30 14252 O 1302.35 0.394474 1.90151 0
M  V30 14253 C 1299.48 1.10748 3.29169 0
M  V30 14254 C 1298.43 2.20253 3.66978 0
M  V30 14255 C 1297.76 1.83624 5.02181 0
M  V30 14256 C 1299.06 3.62296 3.76216 0
M  V30 14257 H 1300.75 2.2681 1.95442 0
M  V30 14258 H 1298.3 1.09181 0.938908 0
M  V30 14259 H 1300.25 1.06929 4.07608 0
M  V30 14260 H 1298.97 0.129141 3.26345 0
M  V30 14261 H 1297.63 2.23187 2.90832 0
M  V30 14262 H 1297.28 0.843804 4.95872 0
M  V30 14263 H 1296.98 2.56935 5.28449 0
M  V30 14264 H 1298.5 1.81349 5.83048 0
M  V30 14265 H 1299.92 3.61623 4.44861 0
M  V30 14266 H 1298.31 4.34459 4.13963 0
M  V30 14267 H 1299.38 3.97657 2.77483 0
M  V30 14268 N 1300.73 -1.01913 1.20215 0
M  V30 14269 C 1301.95 -1.79613 1.03702 0
M  V30 14270 C 1302.38 -1.83591 -0.409374 0
M  V30 14271 O 1301.74 -1.26911 -1.29473 0
M  V30 14272 C 1301.78 -3.22052 1.62219 0
M  V30 14273 O 1300.89 -4.03374 0.858106 0
M  V30 14274 H 1300.23 -0.554095 0.365889 0
M  V30 14275 H 1302.76 -1.28203 1.59452 0
M  V30 14276 H 1302.77 -3.72772 1.65847 0
M  V30 14277 H 1301.44 -3.18471 2.67487 0
M  V30 14278 H 1300.02 -3.6198 0.895835 0
M  V30 14279 N 1302.21 -1.00763 -1.2118 0
M  V30 14280 C 1303.48 -0.607236 -1.85935 0
M  V30 14281 C 1303.86 0.915048 -1.90237 0
M  V30 14282 O 1303.21 1.80308 -1.40361 0
M  V30 14283 C 1303.42 -1.24466 -3.26051 0
M  V30 14284 C 1304.77 -1.35443 -4.02418 0
M  V30 14285 O 1305.79 -1.20018 -3.35372 0
M  V30 14286 O 1304.65 -1.60282 -5.22467 0
M  V30 14287 H 1301.75 -0.208338 -0.800328 0
M  V30 14288 H 1304.29 -1.10444 -1.28842 0
M  V30 14289 H 1303.06 -2.28524 -3.17635 0
M  V30 14290 H 1302.69 -0.733966 -3.90767 0
M  V30 14291 N 1303.68 1.3679 -0.7827 0
M  V30 14292 C 1304.61 2.32721 -0.190604 0
M  V30 14293 C 1305.6 1.56321 0.670663 0
M  V30 14294 O 1306.78 1.84507 0.605871 0
M  V30 14295 C 1303.91 3.40564 0.680717 0
M  V30 14296 C 1302.86 4.27925 -0.080118 0
M  V30 14297 C 1302.19 5.26876 0.911361 0
M  V30 14298 C 1303.49 5.06738 -1.26545 0
M  V30 14299 H 1305.18 2.82488 -0.992023 0
M  V30 14300 H 1302.73 1.35818 -0.478484 0
M  V30 14301 H 1304.68 4.06659 1.10482 0
M  V30 14302 H 1303.41 2.89348 1.51477 0
M  V30 14303 H 1302.07 3.63376 -0.485125 0
M  V30 14304 H 1301.71 4.71936 1.74026 0
M  V30 14305 H 1301.41 5.8619 0.406762 0
M  V30 14306 H 1302.94 5.95846 1.33418 0
M  V30 14307 H 1304.35 5.65911 -0.917448 0
M  V30 14308 H 1302.75 5.75432 -1.70289 0
M  V30 14309 H 1303.82 4.38772 -2.06415 0
M  V30 14310 N 1305.16 0.53415 1.48272 0
M  V30 14311 C 1306.09 -0.263508 2.2768 0
M  V30 14312 C 1307.11 -0.90064 1.35618 0
M  V30 14313 O 1308.3 -0.778379 1.60635 0
M  V30 14314 C 1305.4 -1.38878 3.09138 0
M  V30 14315 C 1304.57 -0.852784 4.29006 0
M  V30 14316 C 1303.63 -1.85969 4.92242 0
M  V30 14317 O 1302.65 -1.41497 5.51332 0
M  V30 14318 N 1303.86 -3.19207 4.84858 0
M  V30 14319 H 1306.62 0.417548 2.96777 0
M  V30 14320 H 1304.18 0.368743 1.57645 0
M  V30 14321 H 1306.17 -2.06062 3.48311 0
M  V30 14322 H 1304.74 -1.97343 2.42434 0
M  V30 14323 H 1303.96 -0.0048227 3.942 0
M  V30 14324 H 1305.25 -0.473634 5.06591 0
M  V30 14325 H 1304.65 -3.58001 4.38009 0
M  V30 14326 H 1303.21 -3.82013 5.28119 0
M  V30 14327 N 1306.64 -1.55279 0.269478 0
M  V30 14328 C 1308.05 -1.85286 -0.229372 0
M  V30 14329 C 1308.4 -1.19148 -1.55879 0
M  V30 14330 O 1307.53 -0.4778 -2.11059 0
M  V30 14331 C 1308.12 -3.3615 -0.42296 0
M  V30 14332 C 1306.68 -3.66301 -0.866047 0
M  V30 14333 C 1305.83 -2.77265 0.0439028 0
M  V30 14334 H 1308.78 -1.509 0.491427 0
M  V30 14335 H 1308.8 -3.5895 -1.26234 0
M  V30 14336 H 1308.31 -3.84258 0.544768 0
M  V30 14337 H 1306.41 -3.23688 -1.84545 0
M  V30 14338 H 1306.53 -4.73851 -0.707274 0
M  V30 14339 H 1304.89 -2.50299 -0.471433 0
M  V30 14340 H 1305.67 -3.28186 1.00741 0
M  V30 14341 N 1308.12 0.00332656 -1.576 0
M  V30 14342 C 1309.05 1.02391 -2.05058 0
M  V30 14343 C 1310.06 1.30903 -0.967901 0
M  V30 14344 O 1311.25 1.27937 -1.24476 0
M  V30 14345 C 1308.35 2.35947 -2.43274 0
M  V30 14346 C 1307.53 2.26423 -3.74234 0
M  V30 14347 C 1306.58 3.4264 -3.99355 0
M  V30 14348 O 1305.61 3.20977 -4.70067 0
M  V30 14349 N 1306.81 4.65379 -3.46991 0
M  V30 14350 H 1309.58 0.619216 -2.93233 0
M  V30 14351 H 1307.14 0.190777 -1.60772 0
M  V30 14352 H 1309.13 3.12462 -2.57196 0
M  V30 14353 H 1307.7 2.6817 -1.60635 0
M  V30 14354 H 1306.92 1.34841 -3.70421 0
M  V30 14355 H 1308.21 2.17229 -4.60097 0
M  V30 14356 H 1307.61 4.85878 -2.89723 0
M  V30 14357 H 1306.16 5.39171 -3.66249 0
M  V30 14358 N 1309.6 1.55164 0.276031 0
M  V30 14359 C 1310.85 1.74833 1.0058 0
M  V30 14360 C 1311.16 0.555089 1.87558 0
M  V30 14361 O 1312.36 0.634127 2.63991 0
M  V30 14362 C 1310.82 3.09417 1.83818 0
M  V30 14363 C 1310.43 4.36299 1.01721 0
M  V30 14364 C 1312.17 3.38437 2.56244 0
M  V30 14365 C 1310.08 5.61923 1.8438 0
M  V30 14366 H 1309.01 0.651676 0.379254 0
M  V30 14367 H 1311.66 1.81626 0.26161 0
M  V30 14368 H 1310.04 2.96654 2.62321 0
M  V30 14369 H 1311.22 4.59969 0.276565 0
M  V30 14370 H 1309.53 4.144 0.407645 0
M  V30 14371 H 1312.13 4.29501 3.18485 0
M  V30 14372 H 1312.47 2.58432 3.26372 0
M  V30 14373 H 1313 3.52284 1.84773 0
M  V30 14374 H 1309.74 6.44667 1.18679 0
M  V30 14375 H 1309.26 5.424 2.56051 0
M  V30 14376 H 1310.94 6.0011 2.4182 0
M  V30 14377 N 1311.07 -0.540404 1.48045 0
M  V30 14378 C 1311.98 -1.67308 1.64455 0
M  V30 14379 C 1313 -1.65823 0.527152 0
M  V30 14380 O 1314.18 -1.84964 0.796881 0
M  V30 14381 C 1311.24 -3.03792 1.67068 0
M  V30 14382 C 1310.3 -3.16213 2.90358 0
M  V30 14383 C 1309.54 -4.46187 2.92837 0
M  V30 14384 O 1309.76 -5.32662 2.04029 0
M  V30 14385 O 1308.69 -4.62754 3.84892 0
M  V30 14386 H 1312.52 -1.56403 2.6033 0
M  V30 14387 H 1310.1 -0.712323 1.31325 0
M  V30 14388 H 1311.99 -3.84982 1.71368 0
M  V30 14389 H 1310.66 -3.15043 0.74363 0
M  V30 14390 H 1309.57 -2.34357 2.91595 0
M  V30 14391 H 1310.9 -3.09874 3.82412 0
M  V30 14392 N 1312.55 -1.36459 -0.788468 0
M  V30 14393 C 1313.97 -1.16893 -1.08666 0
M  V30 14394 C 1314.17 0.00633808 -2.01499 0
M  V30 14395 O 1313.22 0.671417 -2.4341 0
M  V30 14396 C 1314.54 -2.48018 -1.70022 0
M  V30 14397 C 1316.09 -2.5439 -1.82358 0
M  V30 14398 C 1316.56 -3.85605 -2.47129 0
M  V30 14399 N 1318.05 -3.86956 -2.54597 0
M  V30 14400 C 1318.79 -4.85224 -3.05525 0
M  V30 14401 N 1318.28 -5.93885 -3.56753 0
M  V30 14402 N 1320.08 -4.72643 -3.04246 0
M  V30 14403 H 1312.23 -2.11705 -0.171733 0
M  V30 14404 H 1314.49 -0.937784 -0.1388 0
M  V30 14405 H 1314.2 -3.34292 -1.09277 0
M  V30 14406 H 1314.07 -2.63894 -2.69518 0
M  V30 14407 H 1316.46 -1.68534 -2.4224 0
M  V30 14408 H 1316.54 -2.42414 -0.816651 0
M  V30 14409 H 1316.18 -4.71868 -1.87891 0
M  V30 14410 H 1316.11 -3.94878 -3.48395 0
M  V30 14411 H 1318.6 -3.08453 -2.18323 0
M  V30 14412 H 1318.92 -6.64839 -3.93966 0
M  V30 14413 H 1317.26 -5.97553 -3.54902 0
M  V30 14414 H 1320.45 -3.86883 -2.63513 0
M  V30 14415 H 1320.62 -5.49385 -3.43627 0
M  V30 14416 N 1314.03 1.01274 -1.20754 0
M  V30 14417 C 1314.96 2.11763 -0.983805 0
M  V30 14418 C 1315.94 1.69869 0.0885635 0
M  V30 14419 O 1317.13 1.94075 -0.0697239 0
M  V30 14420 C 1314.26 3.43087 -0.539287 0
M  V30 14421 C 1313.21 3.9874 -1.55534 0
M  V30 14422 C 1312.54 5.25877 -0.967322 0
M  V30 14423 C 1313.84 4.31688 -2.94012 0
M  V30 14424 H 1315.53 2.30737 -1.90789 0
M  V30 14425 H 1313.08 1.10884 -0.918734 0
M  V30 14426 H 1315.03 4.19773 -0.369979 0
M  V30 14427 H 1313.75 3.23883 0.420435 0
M  V30 14428 H 1312.41 3.24166 -1.71207 0
M  V30 14429 H 1312.06 5.03 0.000448307 0
M  V30 14430 H 1311.76 5.64077 -1.64594 0
M  V30 14431 H 1313.28 6.05215 -0.809167 0
M  V30 14432 H 1314.7 4.99246 -2.81827 0
M  V30 14433 H 1313.1 4.81011 -3.58815 0
M  V30 14434 H 1314.17 3.4029 -3.45442 0
M  V30 14435 N 1315.51 1.01404 1.20644 0
M  V30 14436 C 1316.46 0.582109 2.23339 0
M  V30 14437 C 1317.43 -0.39649 1.61298 0
M  V30 14438 O 1318.61 -0.296504 1.88482 0
M  V30 14439 C 1315.75 -0.076029 3.45016 0
M  V30 14440 C 1314.86 0.946829 4.21496 0
M  V30 14441 C 1314 0.26001 5.30563 0
M  V30 14442 C 1313.04 1.2698 5.98784 0
M  V30 14443 N 1312.18 0.609827 6.99447 0
M  V30 14444 H 1317.02 1.46248 2.59645 0
M  V30 14445 H 1314.55 0.732145 1.27585 0
M  V30 14446 H 1316.51 -0.474714 4.1449 0
M  V30 14447 H 1315.14 -0.920062 3.0941 0
M  V30 14448 H 1314.19 1.4637 3.51113 0
M  V30 14449 H 1315.5 1.71491 4.68393 0
M  V30 14450 H 1314.66 -0.19431 6.06389 0
M  V30 14451 H 1313.4 -0.540395 4.84697 0
M  V30 14452 H 1312.4 1.73453 5.21722 0
M  V30 14453 H 1313.63 2.07144 6.46737 0
M  V30 14454 H 1311.57 -0.170756 6.55778 0
M  V30 14455 H 1311.49 1.31601 7.44458 0
M  V30 14456 H 1312.76 0.179014 7.79294 0
M  V30 14457 N 1316.99 -1.36373 0.789944 0
M  V30 14458 C 1318.24 -1.98476 0.359165 0
M  V30 14459 C 1318.55 -1.634 -1.07517 0
M  V30 14460 O 1319.76 -2.18742 -1.60824 0
M  V30 14461 C 1318.21 -3.55011 0.591228 0
M  V30 14462 C 1317.82 -3.99011 2.03701 0
M  V30 14463 C 1319.56 -4.23903 0.224979 0
M  V30 14464 C 1317.47 -5.48325 2.2157 0
M  V30 14465 H 1316.4 -0.742612 0.130552 0
M  V30 14466 H 1319.05 -1.55664 0.971652 0
M  V30 14467 H 1317.43 -3.95895 -0.0909788 0
M  V30 14468 H 1318.61 -3.69324 2.75566 0
M  V30 14469 H 1316.92 -3.42957 2.36155 0
M  V30 14470 H 1319.52 -5.33638 0.336764 0
M  V30 14471 H 1319.86 -4.08004 -0.826964 0
M  V30 14472 H 1320.4 -3.88383 0.860443 0
M  V30 14473 H 1317.13 -5.69173 3.25149 0
M  V30 14474 H 1316.65 -5.79637 1.54211 0
M  V30 14475 H 1318.33 -6.14556 2.0231 0
M  V30 14476 N 1318.47 -0.542005 -1.47987 0
M  V30 14477 C 1319.4 0.25143 -2.27817 0
M  V30 14478 C 1320.41 0.893436 -1.36094 0
M  V30 14479 O 1321.6 0.769849 -1.61045 0
M  V30 14480 C 1318.7 1.37236 -3.0987 0
M  V30 14481 C 1317.87 0.830021 -4.29452 0
M  V30 14482 C 1316.93 1.83356 -4.93221 0
M  V30 14483 O 1315.96 1.38571 -5.52075 0
M  V30 14484 N 1317.16 3.16631 -4.86544 0
M  V30 14485 H 1319.92 -0.433281 -2.96551 0
M  V30 14486 H 1317.49 -0.377099 -1.57447 0
M  V30 14487 H 1319.48 2.04212 -3.49399 0
M  V30 14488 H 1318.05 1.96055 -2.43478 0
M  V30 14489 H 1317.27 -0.0160827 -3.94197 0
M  V30 14490 H 1318.56 0.446762 -5.06835 0
M  V30 14491 H 1317.95 3.55673 -4.39901 0
M  V30 14492 H 1316.51 3.79207 -5.30137 0
M  V30 14493 N 1319.94 1.55134 -0.277709 0
M  V30 14494 C 1321.17 2.04519 0.344472 0
M  V30 14495 C 1321.59 1.15466 1.4849 0
M  V30 14496 O 1320.95 0.153798 1.80646 0
M  V30 14497 C 1321 3.51602 0.800527 0
M  V30 14498 O 1320.1 3.65632 1.90754 0
M  V30 14499 H 1319.44 0.660212 0.0708226 0
M  V30 14500 H 1321.97 2.00393 -0.412764 0
M  V30 14501 H 1321.98 3.93015 1.09559 0
M  V30 14502 H 1320.66 4.15886 -0.033838 0
M  V30 14503 H 1319.24 3.36122 1.61481 0
M  V30 14504 N 1321.42 0.00503138 1.57599 0
M  V30 14505 C 1322.67 -0.677979 1.89964 0
M  V30 14506 C 1322.98 -1.74657 0.88059 0
M  V30 14507 O 1324.19 -2.48455 1.09463 0
M  V30 14508 C 1322.65 -1.25708 3.37232 0
M  V30 14509 C 1322.25 -0.223045 4.47444 0
M  V30 14510 C 1324 -1.91799 3.787 0
M  V30 14511 C 1321.9 -0.812416 5.85793 0
M  V30 14512 H 1320.83 -0.256991 0.708852 0
M  V30 14513 H 1323.49 0.0663988 1.8338 0
M  V30 14514 H 1321.87 -2.05228 3.3867 0
M  V30 14515 H 1323.04 0.54794 4.57531 0
M  V30 14516 H 1321.36 0.337714 4.15028 0
M  V30 14517 H 1323.95 -2.36808 4.79402 0
M  V30 14518 H 1324.3 -2.75067 3.1248 0
M  V30 14519 H 1324.83 -1.19004 3.79583 0
M  V30 14520 H 1321.57 -0.0184031 6.55497 0
M  V30 14521 H 1321.09 -1.55244 5.79361 0
M  V30 14522 H 1322.77 -1.30952 6.33609 0
M  V30 14523 N 1322.9 -1.55308 -0.267798 0
M  V30 14524 C 1323.86 -1.87765 -1.31442 0
M  V30 14525 C 1324.86 -0.752571 -1.42102 0
M  V30 14526 O 1326.05 -1.02072 -1.41163 0
M  V30 14527 C 1323.18 -2.08754 -2.69508 0
M  V30 14528 H 1324.38 -2.8133 -1.03891 0
M  V30 14529 H 1321.93 -1.47879 -0.506111 0
M  V30 14530 H 1322.67 -1.17588 -3.02231 0
M  V30 14531 H 1322.45 -2.90674 -2.63156 0
M  V30 14532 H 1323.94 -2.3512 -3.4512 0
M  V30 14533 N 1324.38 0.532545 -1.4833 0
M  V30 14534 C 1325.31 1.64662 -1.65555 0
M  V30 14535 C 1326.29 1.62447 -0.50447 0
M  V30 14536 O 1327.47 1.79684 -0.736712 0
M  V30 14537 C 1324.6 3.03256 -1.69272 0
M  V30 14538 C 1323.56 3.20329 -2.83854 0
M  V30 14539 C 1322.88 4.59958 -2.72659 0
M  V30 14540 C 1324.18 3.03345 -4.25181 0
M  V30 14541 H 1325.88 1.50502 -2.58823 0
M  V30 14542 H 1323.42 0.722612 -1.24556 0
M  V30 14543 H 1325.38 3.81064 -1.79911 0
M  V30 14544 H 1324.1 3.18433 -0.725805 0
M  V30 14545 H 1322.76 2.44937 -2.72766 0
M  V30 14546 H 1322.41 4.71967 -1.73942 0
M  V30 14547 H 1322.11 4.72327 -3.49544 0
M  V30 14548 H 1323.63 5.39869 -2.85262 0
M  V30 14549 H 1325.05 3.70948 -4.37116 0
M  V30 14550 H 1323.44 3.27208 -5.03045 0
M  V30 14551 H 1324.51 1.998 -4.41824 0
M  V30 14552 N 1325.86 1.36875 0.78122 0
M  V30 14553 C 1326.8 1.31869 1.89418 0
M  V30 14554 C 1327.77 0.185904 1.65056 0
M  V30 14555 O 1328.96 0.373745 1.87104 0
M  V30 14556 C 1326.1 1.12205 3.2635 0
M  V30 14557 C 1325.21 2.34631 3.62729 0
M  V30 14558 C 1324.35 2.07914 4.8882 0
M  V30 14559 C 1323.38 3.26257 5.17902 0
M  V30 14560 N 1322.52 2.99152 6.35179 0
M  V30 14561 H 1327.36 2.2703 1.93032 0
M  V30 14562 H 1324.9 1.12826 0.943857 0
M  V30 14563 H 1326.86 0.988282 4.05326 0
M  V30 14564 H 1325.49 0.206959 3.22136 0
M  V30 14565 H 1324.54 2.58782 2.78812 0
M  V30 14566 H 1325.85 3.22919 3.80164 0
M  V30 14567 H 1325 1.91514 5.7568 0
M  V30 14568 H 1323.74 1.1695 4.7347 0
M  V30 14569 H 1322.75 3.43207 4.29522 0
M  V30 14570 H 1323.97 4.1806 5.35166 0
M  V30 14571 H 1321.92 2.10807 6.21205 0
M  V30 14572 H 1321.84 3.80981 6.52985 0
M  V30 14573 H 1323.1 2.86349 7.25 0
M  V30 14574 N 1327.33 -1.00632 1.21289 0
M  V30 14575 C 1328.24 -2.12829 0.986957 0
M  V30 14576 C 1329.26 -1.73895 -0.0605152 0
M  V30 14577 O 1330.44 -2.00985 0.129238 0
M  V30 14578 C 1327.5 -3.4226 0.553089 0
M  V30 14579 C 1326.56 -3.95376 1.67262 0
M  V30 14580 C 1325.79 -5.18629 1.25936 0
M  V30 14581 O 1326.02 -5.70246 0.132402 0
M  V30 14582 O 1324.95 -5.65157 2.07077 0
M  V30 14583 H 1328.78 -2.34765 1.92663 0
M  V30 14584 H 1326.36 -1.11208 0.997654 0
M  V30 14585 H 1328.24 -4.20177 0.320856 0
M  V30 14586 H 1326.92 -3.21716 -0.357881 0
M  V30 14587 H 1325.83 -3.18692 1.95924 0
M  V30 14588 H 1327.16 -4.20328 2.56097 0
M  V30 14589 N 1328.81 -1.02043 -1.20104 0
M  V30 14590 C 1329.76 -0.593945 -2.23027 0
M  V30 14591 C 1330.73 0.387931 -1.61506 0
M  V30 14592 O 1331.91 0.286504 -1.88637 0
M  V30 14593 C 1329.05 0.0577309 -3.45052 0
M  V30 14594 C 1328.17 -0.969169 -4.20988 0
M  V30 14595 C 1327.3 -0.288143 -5.30418 0
M  V30 14596 C 1326.34 -1.30154 -5.98102 0
M  V30 14597 N 1325.48 -0.646912 -6.99113 0
M  V30 14598 H 1330.32 -1.47623 -2.58866 0
M  V30 14599 H 1327.85 -0.738901 -1.27195 0
M  V30 14600 H 1329.81 0.452726 -4.14736 0
M  V30 14601 H 1328.44 0.90364 -3.09894 0
M  V30 14602 H 1327.49 -1.48229 -3.50332 0
M  V30 14603 H 1328.81 -1.73972 -4.67477 0
M  V30 14604 H 1327.96 0.162149 -6.06483 0
M  V30 14605 H 1326.7 0.514683 -4.84977 0
M  V30 14606 H 1325.7 -1.76218 -5.20795 0
M  V30 14607 H 1326.93 -2.10571 -6.45629 0
M  V30 14608 H 1324.88 0.135976 -6.55859 0
M  V30 14609 H 1324.79 -1.35548 -7.43749 0
M  V30 14610 H 1326.06 -0.220339 -7.79189 0
M  V30 14611 N 1330.29 1.35952 -0.797165 0
M  V30 14612 C 1331.54 1.98639 -0.372405 0
M  V30 14613 C 1331.86 1.63571 1.06158 0
M  V30 14614 O 1331.13 0.913516 1.73297 0
M  V30 14615 H 1329.71 0.734753 -0.13471 0
M  V30 14616 H 1332.37 1.66022 -1.02092 0
M  V30 14617 H 1331.47 3.08533 -0.47049 0
M  V30 14618 N 1331.77 0.549846 1.47697 0
M  V30 14619 C 1332.7 -0.239345 2.27947 0
M  V30 14620 C 1333.71 -0.886206 1.36566 0
M  V30 14621 O 1334.9 -0.761298 1.61451 0
M  V30 14622 C 1332 -1.35591 3.10593 0
M  V30 14623 C 1331.18 -0.807234 4.29887 0
M  V30 14624 C 1330.23 -1.80738 4.94187 0
M  V30 14625 O 1329.26 -1.35641 5.52802 0
M  V30 14626 N 1330.46 -3.14046 4.88216 0
M  V30 14627 H 1333.23 0.449001 2.96318 0
M  V30 14628 H 1330.79 0.385443 1.57245 0
M  V30 14629 H 1332.78 -2.02356 3.50477 0
M  V30 14630 H 1331.35 -1.94761 2.44514 0
M  V30 14631 H 1330.57 0.0369877 3.94183 0
M  V30 14632 H 1331.86 -0.419877 5.07065 0
M  V30 14633 H 1331.26 -3.53335 4.41781 0
M  V30 14634 H 1329.81 -3.7639 5.32141 0
M  V30 14635 N 1333.25 -1.54984 0.285932 0
M  V30 14636 C 1334.49 -1.99436 -0.32709 0
M  V30 14637 C 1334.82 -1.17582 -1.55562 0
M  V30 14638 O 1334.09 -0.268002 -1.94058 0
M  V30 14639 H 1332.67 -0.736662 -0.123846 0
M  V30 14640 H 1335.33 -1.90881 0.393774 0
M  V30 14641 H 1334.42 -3.0609 -0.609523 0
M  V30 14642 N 1334.72 -0.0133892 -1.57594 0
M  V30 14643 C 1336.14 0.527615 -1.7909 0
M  V30 14644 C 1336.49 1.73179 -0.922142 0
M  V30 14645 O 1335.61 2.1602 -0.128233 0
M  V30 14646 C 1336.21 0.963949 -3.24798 0
M  V30 14647 C 1334.77 1.45017 -3.47343 0
M  V30 14648 C 1333.91 0.407548 -2.74289 0
M  V30 14649 H 1336.86 -0.239505 -1.56882 0
M  V30 14650 H 1336.88 1.82924 -3.33645 0
M  V30 14651 H 1336.4 0.0873315 -3.88002 0
M  V30 14652 H 1334.5 2.34724 -2.89371 0
M  V30 14653 H 1334.61 1.4684 -4.56043 0
M  V30 14654 H 1332.97 0.872174 -2.39301 0
M  V30 14655 H 1333.76 -0.460333 -3.402 0
M  V30 14656 N 1336.2 1.55448 0.259558 0
M  V30 14657 C 1337.14 1.84197 1.3471 0
M  V30 14658 C 1338.11 0.69603 1.4695 0
M  V30 14659 O 1339.3 0.940458 1.63364 0
M  V30 14660 C 1336.42 2.01549 2.72205 0
M  V30 14661 C 1335.47 3.2415 2.77181 0
M  V30 14662 S 1336.3 4.81149 2.35066 0
M  V30 14663 C 1337.46 5.0149 3.74511 0
M  V30 14664 H 1337.69 2.76153 1.10122 0
M  V30 14665 H 1335.23 1.47392 0.459893 0
M  V30 14666 H 1337.18 2.12231 3.51381 0
M  V30 14667 H 1335.84 1.10458 2.94037 0
M  V30 14668 H 1335.04 3.33219 3.78129 0
M  V30 14669 H 1334.64 3.12128 2.06038 0
M  V30 14670 H 1336.93 4.88057 4.69901 0
M  V30 14671 H 1337.87 6.03507 3.70385 0
M  V30 14672 H 1338.28 4.294 3.66437 0
M  V30 14673 N 1337.68 -0.524672 1.4861 0
M  V30 14674 C 1338.93 -1.28021 1.56898 0
M  V30 14675 C 1339.26 -1.92948 0.245203 0
M  V30 14676 O 1338.51 -1.8013 -0.764966 0
M  V30 14677 C 1338.81 -2.3871 2.65993 0
M  V30 14678 C 1338.48 -1.914 4.08261 0
M  V30 14679 C 1337.14 -1.78215 4.46982 0
M  V30 14680 C 1339.49 -1.55713 4.97396 0
M  V30 14681 C 1336.82 -1.27687 5.72637 0
M  V30 14682 C 1339.17 -1.06645 6.23546 0
M  V30 14683 C 1337.83 -0.920818 6.61118 0
M  V30 14684 H 1337.1 -0.468461 0.57413 0
M  V30 14685 H 1339.75 -0.584901 1.82349 0
M  V30 14686 H 1338.06 -3.13932 2.34422 0
M  V30 14687 H 1339.75 -2.96827 2.6962 0
M  V30 14688 H 1336.34 -2.02614 3.77684 0
M  V30 14689 H 1340.53 -1.64757 4.68155 0
M  V30 14690 H 1335.78 -1.15103 6.00468 0
M  V30 14691 H 1339.96 -0.781048 6.92006 0
M  V30 14692 H 1337.58 -0.527091 7.5837 0
M  V30 14693 N 1339.16 -1.37287 -0.77395 0
M  V30 14694 C 1340.09 -1.35569 -1.90114 0
M  V30 14695 C 1341.07 -0.224658 -1.6861 0
M  V30 14696 O 1342.25 -0.424676 -1.895 0
M  V30 14697 C 1339.38 -1.15971 -3.27365 0
M  V30 14698 C 1338.34 -2.26063 -3.63427 0
M  V30 14699 C 1337.66 -1.9159 -4.99197 0
M  V30 14700 C 1338.96 -3.68236 -3.70405 0
M  V30 14701 H 1340.66 -2.29891 -1.91808 0
M  V30 14702 H 1338.2 -1.10661 -0.92142 0
M  V30 14703 H 1340.16 -1.134 -4.05855 0
M  V30 14704 H 1338.88 -0.181043 -3.26098 0
M  V30 14705 H 1337.54 -2.27786 -2.87244 0
M  V30 14706 H 1337.19 -0.922586 -4.94467 0
M  V30 14707 H 1336.89 -2.65309 -5.24294 0
M  V30 14708 H 1338.41 -1.90602 -5.80089 0
M  V30 14709 H 1339.83 -3.68655 -4.39052 0
M  V30 14710 H 1338.22 -4.4099 -4.06999 0
M  V30 14711 H 1339.29 -4.02021 -2.71122 0
M  V30 14712 N 1340.64 0.999871 -1.21821 0
M  V30 14713 C 1341.91 1.71135 -0.947213 0
M  V30 14714 C 1342.29 2.04087 0.539601 0
M  V30 14715 O 1341.64 1.71866 1.5058 0
M  V30 14716 C 1341.85 2.96704 -1.8376 0
M  V30 14717 C 1343.2 3.69627 -2.08952 0
M  V30 14718 O 1344.22 3.06697 -1.81151 0
M  V30 14719 O 1343.08 4.82832 -2.55999 0
M  V30 14720 H 1340.18 0.746631 -0.355628 0
M  V30 14721 H 1342.72 1.05684 -1.32774 0
M  V30 14722 H 1341.49 2.68802 -2.84361 0
M  V30 14723 H 1341.12 3.69894 -1.45821 0
M  V30 14724 N 1342.11 1.02678 1.19562 0
M  V30 14725 C 1343.08 0.610407 2.20922 0
M  V30 14726 C 1344.08 -0.324858 1.57484 0
M  V30 14727 O 1345.27 -0.112153 1.73839 0
M  V30 14728 C 1342.4 -0.107115 3.40732 0
M  V30 14729 H 1343.59 1.50722 2.59274 0
M  V30 14730 H 1341.15 0.817725 1.33203 0
M  V30 14731 H 1341.88 -1.01837 3.07896 0
M  V30 14732 H 1341.67 0.564901 3.88009 0
M  V30 14733 H 1343.16 -0.385423 4.15818 0
M  V30 14734 N 1343.59 -1.35528 0.804364 0
M  V30 14735 C 1344.87 -1.93175 0.307049 0
M  V30 14736 C 1345.25 -1.73466 -1.20303 0
M  V30 14737 O 1344.6 -1.10235 -2.00151 0
M  V30 14738 C 1344.81 -3.41576 0.716018 0
M  V30 14739 C 1346.16 -4.18719 0.704242 0
M  V30 14740 O 1347.18 -3.50081 0.657423 0
M  V30 14741 O 1346.04 -5.41181 0.760601 0
M  V30 14742 H 1343.13 -0.823142 0.0797888 0
M  V30 14743 H 1345.68 -1.44617 0.887912 0
M  V30 14744 H 1344.45 -3.49642 1.75688 0
M  V30 14745 H 1344.07 -3.97448 0.109843 0
M  V30 14746 N 1345.07 -0.557671 -1.47404 0
M  V30 14747 C 1346.32 -0.0337884 -2.02472 0
M  V30 14748 C 1346.65 1.31624 -1.43197 0
M  V30 14749 O 1345.9 1.86989 -0.577366 0
M  V30 14750 C 1346.2 0.108324 -3.57236 0
M  V30 14751 C 1345.87 -1.17088 -4.35432 0
M  V30 14752 C 1344.53 -1.5214 -4.56516 0
M  V30 14753 C 1346.88 -2.01854 -4.80525 0
M  V30 14754 C 1344.21 -2.71803 -5.19942 0
M  V30 14755 C 1346.56 -3.2072 -5.45272 0
M  V30 14756 C 1345.22 -3.56085 -5.64588 0
M  V30 14757 H 1344.49 -0.012364 -0.740897 0
M  V30 14758 H 1347.14 -0.729276 -1.7707 0
M  V30 14759 H 1345.45 0.886781 -3.81633 0
M  V30 14760 H 1347.14 0.529031 -3.97495 0
M  V30 14761 H 1343.73 -0.887952 -4.19301 0
M  V30 14762 H 1347.92 -1.76081 -4.64014 0
M  V30 14763 H 1343.17 -2.99371 -5.33092 0
M  V30 14764 H 1347.35 -3.86689 -5.79176 0
M  V30 14765 H 1344.97 -4.48903 -6.13506 0
M  V30 14766 N 1346.55 1.54831 -0.294147 0
M  V30 14767 C 1347.8 2.00298 0.317605 0
M  V30 14768 C 1348.13 1.18228 1.54064 0
M  V30 14769 O 1347.4 0.257034 1.92794 0
M  V30 14770 C 1347.69 3.53602 0.680991 0
M  V30 14771 C 1347.54 4.46416 -0.550711 0
M  V30 14772 C 1348.86 4.13379 1.51016 0
M  V30 14773 H 1345.98 0.728135 0.113965 0
M  V30 14774 H 1348.62 1.85636 -0.404883 0
M  V30 14775 H 1346.77 3.66227 1.29654 0
M  V30 14776 H 1348.44 4.45707 -1.18922 0
M  V30 14777 H 1346.68 4.17294 -1.18524 0
M  V30 14778 H 1347.36 5.51423 -0.252412 0
M  V30 14779 H 1349.83 4.04148 0.99012 0
M  V30 14780 H 1348.71 5.20818 1.73321 0
M  V30 14781 H 1348.97 3.64817 2.49722 0
M  V30 14782 N 1348.03 0.0217466 1.57585 0
M  V30 14783 C 1348.99 -0.947546 2.08696 0
M  V30 14784 C 1349.99 -1.25879 1.00055 0
M  V30 14785 O 1351.18 -1.20035 1.26242 0
M  V30 14786 C 1348.31 -2.26624 2.54665 0
M  V30 14787 H 1349.51 -0.505016 2.95617 0
M  V30 14788 H 1347.06 -0.226152 1.54655 0
M  V30 14789 H 1347.79 -2.75521 1.71052 0
M  V30 14790 H 1347.58 -2.05347 3.34028 0
M  V30 14791 H 1349.07 -2.96114 2.94459 0
M  V30 14792 N 1349.51 -1.55583 -0.251311 0
M  V30 14793 C 1350.75 -1.77209 -0.979966 0
M  V30 14794 C 1351.08 -0.585279 -1.85485 0
M  V30 14795 O 1350.34 0.431559 -1.90882 0
M  V30 14796 C 1350.63 -3.04291 -1.87461 0
M  V30 14797 C 1350.3 -4.35844 -1.15545 0
M  V30 14798 C 1348.96 -4.71594 -0.956679 0
M  V30 14799 C 1351.31 -5.17189 -0.645381 0
M  V30 14800 C 1348.64 -5.86227 -0.235465 0
M  V30 14801 C 1350.99 -6.32569 0.0623441 0
M  V30 14802 C 1349.66 -6.66943 0.272634 0
M  V30 14803 H 1348.93 -0.648452 -0.358595 0
M  V30 14804 H 1351.58 -1.89856 -0.250423 0
M  V30 14805 H 1349.88 -2.86637 -2.67108 0
M  V30 14806 H 1351.58 -3.18221 -2.44001 0
M  V30 14807 H 1348.17 -4.07757 -1.32031 0
M  V30 14808 H 1352.35 -4.90028 -0.786505 0
M  V30 14809 H 1347.61 -6.11369 -0.0620232 0
M  V30 14810 H 1351.78 -6.94844 0.465234 0
M  V30 14811 H 1349.41 -7.55617 0.833442 0
M  V30 14812 N 1350.98 0.516783 -1.48886 0
M  V30 14813 C 1352.21 1.29628 -1.61258 0
M  V30 14814 C 1352.63 1.86744 -0.27786 0
M  V30 14815 O 1351.98 1.67061 0.734639 0
M  V30 14816 C 1352.03 2.43779 -2.66935 0
M  V30 14817 O 1351.76 1.89014 -3.95228 0
M  V30 14818 C 1353.26 3.35398 -2.89867 0
M  V30 14819 H 1350.48 0.393736 -0.543335 0
M  V30 14820 H 1353.02 0.622069 -1.94809 0
M  V30 14821 H 1351.18 3.0706 -2.36206 0
M  V30 14822 H 1351.59 2.63833 -4.53312 0
M  V30 14823 H 1353.06 4.11812 -3.6758 0
M  V30 14824 H 1353.54 3.91436 -1.99185 0
M  V30 14825 H 1354.15 2.77898 -3.21952 0
M  V30 14826 N 1352.46 1.37696 0.766659 0
M  V30 14827 C 1353.41 1.33966 1.90147 0
M  V30 14828 C 1354.4 0.2276 1.67864 0
M  V30 14829 O 1355.61 0.395912 1.75592 0
M  V30 14830 H 1351.98 0.417611 0.625384 0
M  V30 14831 H 1353.96 2.29753 1.9041 0
M  V30 14832 C 1352.7 1.16859 3.27474 0
M  V30 14833 H 1352.03 2.01686 3.452 0
M  V30 14834 H 1353.47 1.18301 4.07162 0
M  V30 14835 C 1351.93 -0.125418 3.36666 0
M  V30 14836 O 1352.46 -1.10717 3.86141 0
M  V30 14837 N 1350.66 -0.17784 2.90055 0
M  V30 14838 H 1350.21 0.621737 2.49984 0
M  V30 14839 H 1350.17 -1.04325 2.96587 0
M  V30 14840 N 1353.94 -0.993397 1.22349 0
M  V30 14841 C 1354.89 -2.06784 0.960445 0
M  V30 14842 C 1355.87 -1.60655 -0.0887385 0
M  V30 14843 O 1357.07 -1.76581 0.121716 0
M  V30 14844 C 1354.19 -3.39034 0.539552 0
M  V30 14845 C 1353.28 -3.91798 1.62344 0
M  V30 14846 N 1353.67 -4.17791 2.85104 0
M  V30 14847 C 1351.97 -4.20197 1.49501 0
M  V30 14848 C 1352.67 -4.6067 3.55187 0
M  V30 14849 N 1351.65 -4.64333 2.82658 0
M  V30 14850 H 1355.45 -2.24821 1.89295 0
M  V30 14851 H 1352.96 -1.17509 1.12095 0
M  V30 14852 H 1354.96 -4.15573 0.332419 0
M  V30 14853 H 1353.62 -3.22397 -0.38606 0
M  V30 14854 H 1354.63 -4.05999 3.21536 0
M  V30 14855 H 1351.31 -4.12634 0.635546 0
M  V30 14856 H 1352.7 -4.89408 4.60358 0
M  V30 14857 N 1355.42 -1.03311 -1.19015 0
M  V30 14858 C 1356.66 -0.732039 -1.88805 0
M  V30 14859 C 1356.99 0.739688 -1.79886 0
M  V30 14860 O 1356.25 1.55476 -1.18851 0
M  V30 14861 C 1356.55 -1.13402 -3.38932 0
M  V30 14862 C 1356.21 -2.60473 -3.68055 0
M  V30 14863 C 1354.87 -3.00654 -3.75713 0
M  V30 14864 C 1357.23 -3.55604 -3.81045 0
M  V30 14865 C 1354.55 -4.3487 -3.93833 0
M  V30 14866 C 1356.91 -4.89529 -4.00679 0
M  V30 14867 C 1355.57 -5.29392 -4.06571 0
M  V30 14868 H 1354.84 -0.267872 -0.690888 0
M  V30 14869 H 1357.49 -1.29673 -1.40915 0
M  V30 14870 H 1355.79 -0.487997 -3.88749 0
M  V30 14871 H 1357.49 -0.878532 -3.91258 0
M  V30 14872 H 1354.08 -2.28348 -3.62706 0
M  V30 14873 H 1358.26 -3.25711 -3.74467 0
M  V30 14874 H 1353.52 -4.65285 -3.96636 0
M  V30 14875 H 1357.69 -5.63153 -4.09672 0
M  V30 14876 H 1355.32 -6.33402 -4.20364 0
M  V30 14877 N 1356.9 1.35099 -0.81154 0
M  V30 14878 C 1357.84 2.29717 -0.223372 0
M  V30 14879 C 1358.81 1.53049 0.645396 0
M  V30 14880 O 1360 1.81467 0.589436 0
M  V30 14881 C 1357.14 3.3952 0.618057 0
M  V30 14882 C 1356.25 4.31145 -0.271693 0
M  V30 14883 C 1355.39 5.28044 0.578214 0
M  V30 14884 C 1354.42 6.11306 -0.311628 0
M  V30 14885 N 1353.56 7.00328 0.498539 0
M  V30 14886 H 1358.4 2.79426 -1.03563 0
M  V30 14887 H 1355.94 1.37518 -0.522231 0
M  V30 14888 H 1357.9 4.01854 1.12111 0
M  V30 14889 H 1356.53 2.91075 1.39554 0
M  V30 14890 H 1355.58 3.69773 -0.892885 0
M  V30 14891 H 1356.89 4.89545 -0.956392 0
M  V30 14892 H 1356.04 5.95774 1.1462 0
M  V30 14893 H 1354.78 4.70152 1.29646 0
M  V30 14894 H 1353.79 5.42518 -0.891849 0
M  V30 14895 H 1355.01 6.71277 -1.02781 0
M  V30 14896 H 1352.96 6.44919 1.20067 0
M  V30 14897 H 1352.88 7.55892 -0.12801 0
M  V30 14898 H 1354.14 7.72401 1.04965 0
M  V30 14899 N 1358.37 0.56548 1.47106 0
M  V30 14900 C 1359.31 -0.215154 2.28188 0
M  V30 14901 C 1360.32 -0.871671 1.37498 0
M  V30 14902 O 1361.51 -0.744131 1.6225 0
M  V30 14903 C 1358.61 -1.32289 3.12014 0
M  V30 14904 C 1357.78 -0.761594 4.30719 0
M  V30 14905 C 1356.84 -1.75486 4.96076 0
M  V30 14906 O 1355.87 -1.29771 5.5421 0
M  V30 14907 N 1357.07 -3.0885 4.9152 0
M  V30 14908 H 1359.83 0.480405 2.95825 0
M  V30 14909 H 1357.39 0.402099 1.56827 0
M  V30 14910 H 1359.39 -1.98628 3.52603 0
M  V30 14911 H 1357.96 -1.92156 2.46566 0
M  V30 14912 H 1357.18 0.078794 3.94121 0
M  V30 14913 H 1358.46 -0.366072 5.07481 0
M  V30 14914 H 1357.86 -3.4863 4.45504 0
M  V30 14915 H 1356.42 -3.70725 5.36103 0
M  V30 14916 N 1359.85 -1.54672 0.302354 0
M  V30 14917 C 1361.1 -2.00463 -0.306978 0
M  V30 14918 C 1361.43 -1.19043 -1.53435 0
M  V30 14919 O 1360.71 -0.267255 -1.92655 0
M  V30 14920 C 1360.99 -3.53958 -0.662229 0
M  V30 14921 C 1360.84 -4.46118 0.574378 0
M  V30 14922 C 1362.16 -4.14174 -1.48821 0
M  V30 14923 H 1359.28 -0.728729 -0.110102 0
M  V30 14924 H 1361.92 -1.85419 0.414722 0
M  V30 14925 H 1360.07 -3.66909 -1.2771 0
M  V30 14926 H 1361.74 -4.45071 1.21284 0
M  V30 14927 H 1359.99 -4.1666 1.20736 0
M  V30 14928 H 1360.66 -5.51281 0.281651 0
M  V30 14929 H 1363.13 -4.04668 -0.968674 0
M  V30 14930 H 1362.01 -5.2173 -1.70556 0
M  V30 14931 H 1362.27 -3.66136 -2.47784 0
M  V30 14932 N 1361.33 -0.0301034 -1.57571 0
M  V30 14933 C 1362.58 0.648323 -1.91841 0
M  V30 14934 C 1362.91 1.72078 -0.906601 0
M  V30 14935 O 1362.16 1.95518 0.0843233 0
M  V30 14936 C 1362.46 1.30206 -3.32838 0
M  V30 14937 C 1362.13 0.359876 -4.49462 0
M  V30 14938 C 1360.79 0.100552 -4.81095 0
M  V30 14939 C 1363.14 -0.287048 -5.20409 0
M  V30 14940 C 1360.47 -0.813484 -5.81033 0
M  V30 14941 C 1362.82 -1.18914 -6.21323 0
M  V30 14942 C 1361.48 -1.45735 -6.51397 0
M  V30 14943 H 1360.75 0.237238 -0.701997 0
M  V30 14944 H 1363.4 -0.0920804 -1.91278 0
M  V30 14945 H 1361.71 2.11724 -3.29667 0
M  V30 14946 H 1363.4 1.83356 -3.56625 0
M  V30 14947 H 1359.99 0.572172 -4.24764 0
M  V30 14948 H 1364.18 -0.0997611 -4.962 0
M  V30 14949 H 1359.43 -1.02897 -6.02679 0
M  V30 14950 H 1363.61 -1.69661 -6.75417 0
M  V30 14951 H 1361.23 -2.16727 -7.28652 0
M  V30 14952 N 1362.81 1.55714 0.243056 0
M  V30 14953 C 1364.03 1.82126 0.992219 0
M  V30 14954 C 1364.46 0.607665 1.78014 0
M  V30 14955 O 1363.82 -0.443351 1.75796 0
M  V30 14956 C 1363.86 3.06314 1.90274 0
M  V30 14957 O 1362.97 2.83499 2.99503 0
M  V30 14958 H 1362.31 0.601082 0.282128 0
M  V30 14959 H 1364.84 2.02904 0.262881 0
M  V30 14960 H 1364.85 3.35849 2.31666 0
M  V30 14961 H 1363.52 3.94282 1.32344 0
M  V30 14962 H 1362.1 2.65141 2.62211 0
M  V30 14963 N 1364.29 -0.50888 1.49158 0
M  V30 14964 C 1365.56 -1.27021 1.48745 0
M  V30 14965 C 1365.94 -2.10045 0.210772 0
M  V30 14966 O 1365.29 -2.13773 -0.807061 0
M  V30 14967 C 1365.5 -2.13367 2.76181 0
M  V30 14968 C 1366.85 -2.72815 3.25357 0
M  V30 14969 O 1367.87 -2.23639 2.77243 0
M  V30 14970 O 1366.73 -3.62316 4.09133 0
M  V30 14971 H 1363.83 -0.574387 0.594986 0
M  V30 14972 H 1366.37 -0.523798 1.61414 0
M  V30 14973 H 1365.14 -1.51941 3.60596 0
M  V30 14974 H 1364.77 -2.95215 2.66334 0
M  V30 14975 N 1365.76 -1.381 -0.759346 0
M  V30 14976 C 1367.01 -1.3419 -1.52055 0
M  V30 14977 C 1367.34 0.0697657 -1.94075 0
M  V30 14978 O 1366.62 1.02975 -1.65004 0
M  V30 14979 C 1366.9 -2.29236 -2.7771 0
M  V30 14980 C 1366.75 -3.79237 -2.41866 0
M  V30 14981 C 1368.07 -2.22511 -3.79706 0
M  V30 14982 H 1365.19 -0.488768 -0.551611 0
M  V30 14983 H 1367.83 -1.68902 -0.870174 0
M  V30 14984 H 1365.98 -1.99764 -3.33206 0
M  V30 14985 H 1367.66 -4.19358 -1.92189 0
M  V30 14986 H 1365.9 -3.97199 -1.74399 0
M  V30 14987 H 1366.57 -4.41193 -3.31742 0
M  V30 14988 H 1369.05 -2.48516 -3.33735 0
M  V30 14989 H 1367.92 -2.91134 -4.6533 0
M  V30 14990 H 1368.18 -1.22206 -4.24874 0
M  V30 14991 N 1367.24 0.986894 -1.22875 0
M  V30 14992 C 1368.17 2.08035 -0.961971 0
M  V30 14993 C 1369.19 1.62683 0.0616475 0
M  V30 14994 O 1370.38 1.77659 -0.173094 0
M  V30 14995 C 1367.48 3.36208 -0.426302 0
M  V30 14996 C 1366.65 4.10562 -1.50856 0
M  V30 14997 C 1365.71 5.17014 -0.97891 0
M  V30 14998 O 1364.73 5.44259 -1.66645 0
M  V30 14999 N 1365.94 5.80167 0.196613 0
M  V30 15000 H 1368.7 2.315 -1.90336 0
M  V30 15001 H 1366.26 1.1531 -1.13645 0
M  V30 15002 H 1368.25 4.0466 -0.0571577 0
M  V30 15003 H 1366.82 3.09761 0.420345 0
M  V30 15004 H 1366.04 3.36656 -2.05076 0
M  V30 15005 H 1367.33 4.57007 -2.23655 0
M  V30 15006 H 1366.73 5.60409 0.771892 0
M  V30 15007 H 1365.29 6.49825 0.507083 0
M  V30 15008 N 1368.72 1.0394 1.18466 0
M  V30 15009 C 1369.68 0.633804 2.20262 0
M  V30 15010 C 1370.68 -0.308136 1.5782 0
M  V30 15011 O 1371.87 -0.0937087 1.73948 0
M  V30 15012 C 1369.01 -0.0709693 3.40826 0
M  V30 15013 H 1370.2 1.53463 2.57661 0
M  V30 15014 H 1367.75 0.831806 1.32328 0
M  V30 15015 H 1368.49 -0.985659 3.08958 0
M  V30 15016 H 1368.27 0.606023 3.87388 0
M  V30 15017 H 1369.76 -0.341298 4.16203 0
M  V30 15018 N 1370.2 -1.34667 0.818693 0
M  V30 15019 C 1371.61 -1.51436 0.503921 0
M  V30 15020 C 1371.81 -1.76468 -0.972691 0
M  V30 15021 O 1370.87 -1.81314 -1.75731 0
M  V30 15022 C 1372.18 -2.68198 1.35978 0
M  V30 15023 C 1373.73 -2.8208 1.35647 0
M  V30 15024 C 1374.21 -4.01881 2.19672 0
M  V30 15025 N 1375.7 -4.0908 2.17273 0
M  V30 15026 C 1376.43 -5.00925 2.79038 0
M  V30 15027 N 1375.93 -5.9802 3.49777 0
M  V30 15028 N 1377.72 -4.93764 2.68615 0
M  V30 15029 H 1369.87 -1.16677 1.77483 0
M  V30 15030 H 1372.14 -0.571873 0.756085 0
M  V30 15031 H 1371.84 -2.56317 2.4082 0
M  V30 15032 H 1371.72 -3.63105 1.0215 0
M  V30 15033 H 1374.1 -2.93405 0.315849 0
M  V30 15034 H 1374.18 -1.87994 1.7347 0
M  V30 15035 H 1373.83 -3.91316 3.23781 0
M  V30 15036 H 1373.76 -4.95171 1.79202 0
M  V30 15037 H 1376.25 -3.3958 1.65814 0
M  V30 15038 H 1376.56 -6.64722 3.94162 0
M  V30 15039 H 1374.91 -5.98157 3.53883 0
M  V30 15040 H 1378.1 -4.16868 2.12929 0
M  V30 15041 H 1378.27 -5.65147 3.17038 0
M  V30 15042 N 1371.68 -0.573274 -1.46804 0
M  V30 15043 C 1372.59 0.168081 -2.33997 0
M  V30 15044 C 1373.6 0.895652 -1.49178 0
M  V30 15045 O 1374.78 0.860951 -1.8207 0
M  V30 15046 C 1371.84 1.17483 -3.26188 0
M  V30 15047 C 1370.9 0.452956 -4.26904 0
M  V30 15048 C 1370.14 1.41175 -5.1469 0
M  V30 15049 O 1370.36 2.64767 -5.05227 0
M  V30 15050 O 1369.29 0.927472 -5.94711 0
M  V30 15051 H 1373.12 -0.547576 -2.98723 0
M  V30 15052 H 1370.71 -0.333747 -1.45624 0
M  V30 15053 H 1372.59 1.75557 -3.8309 0
M  V30 15054 H 1371.26 1.87213 -2.6407 0
M  V30 15055 H 1370.17 -0.169383 -3.73716 0
M  V30 15056 H 1371.5 -0.203186 -4.9178 0
M  V30 15057 N 1373.15 1.5451 -0.310553 0
M  V30 15058 C 1374.1 2.23871 0.561277 0
M  V30 15059 C 1375.07 1.22475 1.12202 0
M  V30 15060 O 1376.26 1.51121 1.16477 0
M  V30 15061 C 1373.4 2.99029 1.72267 0
M  V30 15062 C 1372.51 4.15218 1.19241 0
M  V30 15063 C 1371.64 4.77935 2.31843 0
M  V30 15064 C 1370.68 5.86251 1.75999 0
M  V30 15065 N 1369.82 6.42885 2.82212 0
M  V30 15066 H 1374.66 2.97977 -0.0367998 0
M  V30 15067 H 1372.2 1.4707 -0.0299317 0
M  V30 15068 H 1374.16 3.40842 2.40588 0
M  V30 15069 H 1372.79 2.27281 2.29223 0
M  V30 15070 H 1371.84 3.78279 0.401148 0
M  V30 15071 H 1373.15 4.93225 0.743675 0
M  V30 15072 H 1372.3 5.2265 3.08094 0
M  V30 15073 H 1371.04 3.99281 2.80047 0
M  V30 15074 H 1370.05 5.40952 0.982415 0
M  V30 15075 H 1371.27 6.66795 1.28688 0
M  V30 15076 H 1369.22 5.67109 3.29732 0
M  V30 15077 H 1369.14 7.16267 2.41864 0
M  V30 15078 H 1370.4 6.92256 3.58332 0
M  V30 15079 N 1374.63 0.0384594 1.57553 0
M  V30 15080 C 1375.54 -0.955737 2.14249 0
M  V30 15081 C 1376.56 -1.35056 1.09708 0
M  V30 15082 O 1377.74 -1.43008 1.41812 0
M  V30 15083 C 1374.8 -2.21647 2.66596 0
M  V30 15084 C 1373.86 -1.88119 3.85888 0
M  V30 15085 C 1373.09 -3.08182 4.35729 0
M  V30 15086 O 1373.32 -4.21145 3.84699 0
M  V30 15087 O 1372.25 -2.89936 5.27467 0
M  V30 15088 H 1376.08 -0.50361 2.99495 0
M  V30 15089 H 1373.66 -0.182698 1.48279 0
M  V30 15090 H 1375.54 -2.9564 3.00291 0
M  V30 15091 H 1374.22 -2.66022 1.84428 0
M  V30 15092 H 1373.13 -1.11481 3.57103 0
M  V30 15093 H 1374.46 -1.48553 4.69247 0
M  V30 15094 N 1376.11 -1.55841 -0.234795 0
M  V30 15095 C 1377.04 -1.94344 -1.29432 0
M  V30 15096 C 1378.02 -0.809912 -1.49581 0
M  V30 15097 O 1379.21 -1.07117 -1.61986 0
M  V30 15098 C 1376.34 -2.24866 -2.64675 0
M  V30 15099 C 1375.29 -3.40584 -2.59203 0
M  V30 15100 C 1374.62 -3.56678 -3.98353 0
M  V30 15101 C 1375.92 -4.75935 -2.15135 0
M  V30 15102 H 1377.61 -2.83096 -0.97454 0
M  V30 15103 H 1375.16 -1.36205 -0.467355 0
M  V30 15104 H 1377.11 -2.50392 -3.38942 0
M  V30 15105 H 1375.83 -1.32953 -2.98314 0
M  V30 15106 H 1374.49 -3.15087 -1.87393 0
M  V30 15107 H 1374.14 -2.62164 -4.29277 0
M  V30 15108 H 1373.84 -4.34503 -3.95577 0
M  V30 15109 H 1375.37 -3.84538 -4.74302 0
M  V30 15110 H 1376.78 -5.00753 -2.7914 0
M  V30 15111 H 1375.18 -5.56949 -2.23446 0
M  V30 15112 H 1376.25 -4.72182 -1.10328 0
M  V30 15113 N 1377.59 0.500963 -1.49426 0
M  V30 15114 C 1378.52 1.6192 -1.62217 0
M  V30 15115 C 1379.53 1.54774 -0.504868 0
M  V30 15116 O 1380.72 1.60705 -0.776919 0
M  V30 15117 C 1377.82 3.0071 -1.56291 0
M  V30 15118 C 1377 3.3304 -2.83555 0
M  V30 15119 C 1376.06 4.51241 -2.7068 0
M  V30 15120 O 1375.08 4.53023 -3.44615 0
M  V30 15121 N 1376.28 5.51156 -1.82228 0
M  V30 15122 H 1379.05 1.51374 -2.58662 0
M  V30 15123 H 1376.61 0.688837 -1.46515 0
M  V30 15124 H 1378.6 3.77705 -1.45332 0
M  V30 15125 H 1377.17 3.0518 -0.677043 0
M  V30 15126 H 1376.39 2.44942 -3.08865 0
M  V30 15127 H 1377.68 3.51437 -3.67926 0
M  V30 15128 H 1377.08 5.52516 -1.21417 0
M  V30 15129 H 1375.63 6.27253 -1.77192 0
M  V30 15130 N 1379.07 1.38501 0.752011 0
M  V30 15131 C 1380.3 1.38032 1.54125 0
M  V30 15132 C 1380.71 -0.0295066 1.88777 0
M  V30 15133 O 1380.07 -0.996522 1.52891 0
M  V30 15134 C 1380.12 2.23741 2.83941 0
M  V30 15135 O 1379.84 3.59232 2.50767 0
M  V30 15136 C 1381.34 2.31469 3.7807 0
M  V30 15137 H 1378.56 0.472077 0.476848 0
M  V30 15138 H 1381.1 1.82101 0.930572 0
M  V30 15139 H 1379.26 1.8313 3.41383 0
M  V30 15140 H 1379.67 4.04376 3.34036 0
M  V30 15141 H 1381.15 2.95722 4.66103 0
M  V30 15142 H 1381.62 1.32882 4.18616 0
M  V30 15143 H 1382.23 2.72477 3.26552 0
M  V30 15144 N 1380.55 -0.980364 1.23396 0
M  V30 15145 C 1381.79 -1.71592 1.06015 0
M  V30 15146 C 1382.11 -1.91401 -0.403103 0
M  V30 15147 O 1383.31 -2.62405 -0.696853 0
M  V30 15148 C 1381.77 -3.08795 1.84861 0
M  V30 15149 C 1381.38 -2.96873 3.35515 0
M  V30 15150 C 1383.12 -3.8631 1.75968 0
M  V30 15151 C 1381.03 -4.29308 4.06753 0
M  V30 15152 H 1379.96 -0.643423 0.393095 0
M  V30 15153 H 1382.61 -1.09345 1.47363 0
M  V30 15154 H 1380.99 -3.71797 1.36318 0
M  V30 15155 H 1382.17 -2.4296 3.91544 0
M  V30 15156 H 1380.48 -2.32833 3.45221 0
M  V30 15157 H 1383.08 -4.84355 2.26504 0
M  V30 15158 H 1383.42 -4.09983 0.722464 0
M  V30 15159 H 1383.95 -3.3001 2.22122 0
M  V30 15160 H 1380.69 -4.10831 5.10782 0
M  V30 15161 H 1380.21 -4.83086 3.55511 0
M  V30 15162 H 1381.89 -4.97995 4.1305 0
M  V30 15163 N 1382.02 -1.04567 -1.17913 0
M  V30 15164 C 1383.27 -0.752023 -1.88018 0
M  V30 15165 C 1383.6 0.720567 -1.8066 0
M  V30 15166 O 1382.85 1.54207 -1.20493 0
M  V30 15167 C 1383.15 -1.1699 -3.3771 0
M  V30 15168 C 1382.82 -2.64363 -3.65271 0
M  V30 15169 C 1381.48 -3.04622 -3.72503 0
M  V30 15170 C 1383.83 -3.59626 -3.77251 0
M  V30 15171 C 1381.16 -4.39023 -3.89199 0
M  V30 15172 C 1383.51 -4.93752 -3.95465 0
M  V30 15173 C 1382.18 -5.33675 -4.00933 0
M  V30 15174 H 1381.45 -0.275185 -0.688008 0
M  V30 15175 H 1384.09 -1.31161 -1.39532 0
M  V30 15176 H 1382.4 -0.529202 -3.8821 0
M  V30 15177 H 1384.1 -0.919981 -3.90304 0
M  V30 15178 H 1380.69 -2.32182 -3.60263 0
M  V30 15179 H 1384.87 -3.29665 -3.70992 0
M  V30 15180 H 1380.13 -4.69466 -3.91679 0
M  V30 15181 H 1384.3 -5.67467 -4.03676 0
M  V30 15182 H 1381.93 -6.37825 -4.13623 0
M  V30 15183 N 1383.5 1.34231 -0.825823 0
M  V30 15184 C 1384.78 1.92662 -0.337743 0
M  V30 15185 C 1385.16 1.75358 1.17529 0
M  V30 15186 O 1384.51 1.13405 1.98372 0
M  V30 15187 C 1384.72 3.40394 -0.770269 0
M  V30 15188 C 1386.06 4.17546 -0.770767 0
M  V30 15189 O 1387.09 3.4899 -0.713035 0
M  V30 15190 O 1385.95 5.39903 -0.846602 0
M  V30 15191 H 1383.04 0.821768 -0.0928741 0
M  V30 15192 H 1385.59 1.43187 -0.910807 0
M  V30 15193 H 1384.36 3.46802 -1.81228 0
M  V30 15194 H 1383.98 3.97223 -0.17306 0
M  V30 15195 N 1384.98 0.581051 1.46498 0
M  V30 15196 C 1386.21 0.0715652 2.06776 0
M  V30 15197 C 1386.62 -1.23267 1.43006 0
M  V30 15198 O 1385.98 -1.74489 0.534776 0
M  V30 15199 C 1386.03 -0.102666 3.61354 0
M  V30 15200 O 1385.75 1.14995 4.22739 0
M  V30 15201 C 1387.25 -0.646692 4.38558 0
M  V30 15202 H 1384.47 0.0566964 0.6686 0
M  V30 15203 H 1387.02 0.801248 1.8815 0
M  V30 15204 H 1385.17 -0.782564 3.79414 0
M  V30 15205 H 1385.59 0.962718 5.15589 0
M  V30 15206 H 1387.06 -0.717791 5.47313 0
M  V30 15207 H 1387.54 -1.6633 4.06486 0
M  V30 15208 H 1388.14 -0.00171739 4.253 0
M  V30 15209 N 1386.46 -1.54343 0.318742 0
M  V30 15210 C 1387.39 -2.27118 -0.542206 0
M  V30 15211 C 1388.37 -1.27731 -1.12334 0
M  V30 15212 O 1389.55 -1.56535 -1.14937 0
M  V30 15213 C 1386.68 -3.02535 -1.70558 0
M  V30 15214 C 1385.64 -4.09218 -1.25398 0
M  V30 15215 C 1384.96 -4.72449 -2.50391 0
M  V30 15216 C 1386.26 -5.20971 -0.372332 0
M  V30 15217 H 1387.96 -2.9933 0.0648226 0
M  V30 15218 H 1385.5 -1.43963 0.0326168 0
M  V30 15219 H 1387.46 -3.52174 -2.31412 0
M  V30 15220 H 1386.18 -2.27931 -2.33912 0
M  V30 15221 H 1384.84 -3.60455 -0.668392 0
M  V30 15222 H 1384.49 -3.94466 -3.12099 0
M  V30 15223 H 1384.19 -5.4451 -2.20868 0
M  V30 15224 H 1385.71 -5.2486 -3.12016 0
M  V30 15225 H 1387.13 -5.66396 -0.887029 0
M  V30 15226 H 1385.52 -5.99859 -0.17009 0
M  V30 15227 H 1386.59 -4.81198 0.598064 0
M  V30 15228 N 1387.94 -0.0468143 -1.5753 0
M  V30 15229 C 1389.35 0.489509 -1.80169 0
M  V30 15230 C 1389.7 1.71184 -0.958669 0
M  V30 15231 O 1388.82 2.15699 -0.174025 0
M  V30 15232 C 1389.42 0.894838 -3.26769 0
M  V30 15233 C 1387.98 1.37617 -3.50341 0
M  V30 15234 C 1387.12 0.349275 -2.75092 0
M  V30 15235 H 1390.07 -0.272728 -1.56339 0
M  V30 15236 H 1390.1 1.75805 -3.3745 0
M  V30 15237 H 1389.61 0.00501096 -3.881 0
M  V30 15238 H 1387.71 2.28533 -2.94285 0
M  V30 15239 H 1387.82 1.37133 -4.59055 0
M  V30 15240 H 1386.19 0.821219 -2.41098 0
M  V30 15241 H 1386.97 -0.532391 -3.39147 0
M  V30 15242 N 1389.41 1.55964 0.226527 0
M  V30 15243 C 1390.83 1.68978 0.793936 0
M  V30 15244 C 1391.18 0.647938 1.85192 0
M  V30 15245 O 1390.3 -0.201907 2.15456 0
M  V30 15246 C 1390.9 3.06351 1.44687 0
M  V30 15247 C 1389.46 3.21237 1.96173 0
M  V30 15248 C 1388.6 2.64896 0.8201 0
M  V30 15249 H 1391.55 1.587 0.00195967 0
M  V30 15250 H 1391.57 3.01932 2.31554 0
M  V30 15251 H 1391.09 3.82156 0.676611 0
M  V30 15252 H 1389.19 2.50292 2.76016 0
M  V30 15253 H 1389.3 4.28394 2.14512 0
M  V30 15254 H 1387.66 2.23247 1.22609 0
M  V30 15255 H 1388.45 3.43243 0.0625967 0
M  V30 15256 N 1390.89 -0.493031 1.4969 0
M  V30 15257 C 1391.83 -1.61165 1.61558 0
M  V30 15258 C 1392.8 -1.55828 0.464363 0
M  V30 15259 O 1393.99 -1.7577 0.680973 0
M  V30 15260 C 1391.11 -2.997 1.5779 0
M  V30 15261 C 1390.16 -3.2327 2.78207 0
M  V30 15262 S 1390.99 -3.05531 4.39785 0
M  V30 15263 C 1392.15 -4.46447 4.38675 0
M  V30 15264 H 1392.38 -1.50854 2.56185 0
M  V30 15265 H 1389.92 -0.678777 1.38679 0
M  V30 15266 H 1391.87 -3.79579 1.56302 0
M  V30 15267 H 1390.53 -3.07419 0.644379 0
M  V30 15268 H 1389.73 -4.24422 2.71812 0
M  V30 15269 H 1389.33 -2.51126 2.77149 0
M  V30 15270 H 1391.62 -5.38683 4.10886 0
M  V30 15271 H 1392.56 -4.5789 5.40132 0
M  V30 15272 H 1392.97 -4.27499 3.68652 0
M  V30 15273 N 1392.37 -1.38898 -0.744656 0
M  V30 15274 C 1393.79 -1.20291 -1.04892 0
M  V30 15275 C 1393.99 -0.0577705 -2.01417 0
M  V30 15276 O 1393.04 0.593638 -2.45422 0
M  V30 15277 C 1394.36 -2.53302 -1.62045 0
M  V30 15278 C 1395.9 -2.60063 -1.74173 0
M  V30 15279 C 1396.38 -3.93272 -2.34736 0
M  V30 15280 N 1397.87 -3.9486 -2.42157 0
M  V30 15281 C 1398.6 -4.94698 -2.89933 0
M  V30 15282 N 1398.1 -6.04934 -3.37678 0
M  V30 15283 N 1399.89 -4.82083 -2.89055 0
M  V30 15284 H 1392.04 -2.12144 -0.104294 0
M  V30 15285 H 1394.31 -0.941725 -0.108895 0
M  V30 15286 H 1394.01 -3.376 -0.985868 0
M  V30 15287 H 1393.89 -2.72335 -2.60986 0
M  V30 15288 H 1396.27 -1.76155 -2.36756 0
M  V30 15289 H 1396.36 -2.44889 -0.739115 0
M  V30 15290 H 1396 -4.77607 -1.72784 0
M  V30 15291 H 1395.93 -4.05762 -3.35656 0
M  V30 15292 H 1398.42 -3.15243 -2.08399 0
M  V30 15293 H 1398.73 -6.77036 -3.72616 0
M  V30 15294 H 1397.08 -6.08541 -3.35712 0
M  V30 15295 H 1400.27 -3.9507 -2.51072 0
M  V30 15296 H 1400.44 -5.60039 -3.25975 0
M  V30 15297 N 1393.85 0.973806 -1.23914 0
M  V30 15298 C 1395.08 1.74853 -1.10046 0
M  V30 15299 C 1395.49 1.85927 0.350388 0
M  V30 15300 O 1394.83 1.34252 1.25388 0
M  V30 15301 C 1394.89 3.18919 -1.65924 0
M  V30 15302 C 1394.56 3.31335 -3.14748 0
M  V30 15303 C 1395.55 3.17141 -4.11968 0
M  V30 15304 C 1393.24 3.55772 -3.54587 0
M  V30 15305 C 1395.23 3.27199 -5.47009 0
M  V30 15306 C 1392.92 3.65468 -4.89771 0
M  V30 15307 C 1393.92 3.51193 -5.85792 0
M  V30 15308 O 1393.6 3.60534 -7.18519 0
M  V30 15309 H 1393.34 0.555345 -0.385445 0
M  V30 15310 H 1395.89 1.23168 -1.64374 0
M  V30 15311 H 1394.12 3.71882 -1.06023 0
M  V30 15312 H 1395.81 3.78177 -1.47434 0
M  V30 15313 H 1396.58 2.98153 -3.82531 0
M  V30 15314 H 1392.45 3.65951 -2.80358 0
M  V30 15315 H 1396 3.15974 -6.21937 0
M  V30 15316 H 1391.9 3.83969 -5.18882 0
M  V30 15317 H 1392.66 3.77288 -7.26358 0
M  V30 15318 N 1395.33 1.05191 1.17357 0
M  V30 15319 C 1396.26 0.610878 2.20909 0
M  V30 15320 C 1397.27 -0.325369 1.59515 0
M  V30 15321 O 1398.46 -0.118104 1.78109 0
M  V30 15322 C 1395.56 -0.126086 3.38665 0
M  V30 15323 C 1394.73 0.820857 4.29629 0
M  V30 15324 C 1393.79 0.125154 5.26051 0
M  V30 15325 O 1392.82 0.759245 5.64114 0
M  V30 15326 N 1394.02 -1.13742 5.69248 0
M  V30 15327 H 1396.79 1.50158 2.5937 0
M  V30 15328 H 1394.35 0.933814 1.32256 0
M  V30 15329 H 1396.34 -0.601627 4.00203 0
M  V30 15330 H 1394.91 -0.918459 2.98803 0
M  V30 15331 H 1394.13 1.47602 3.65523 0
M  V30 15332 H 1395.42 1.46363 4.87294 0
M  V30 15333 H 1394.81 -1.67291 5.40398 0
M  V30 15334 H 1393.37 -1.55703 6.3293 0
M  V30 15335 N 1396.8 -1.33791 0.83293 0
M  V30 15336 C 1397.71 -2.33108 0.264169 0
M  V30 15337 C 1398.73 -1.6308 -0.606694 0
M  V30 15338 O 1399.91 -1.94777 -0.512225 0
M  V30 15339 C 1396.97 -3.42208 -0.556315 0
M  V30 15340 C 1396.03 -4.27966 0.338123 0
M  V30 15341 C 1395.27 -5.31856 -0.443297 0
M  V30 15342 O 1395.49 -5.45234 -1.6756 0
M  V30 15343 O 1394.42 -6.01632 0.179599 0
M  V30 15344 H 1398.25 -2.83602 1.08645 0
M  V30 15345 H 1395.83 -1.37027 0.595307 0
M  V30 15346 H 1397.72 -4.088 -1.02277 0
M  V30 15347 H 1396.39 -2.9394 -1.35575 0
M  V30 15348 H 1395.3 -3.64262 0.852293 0
M  V30 15349 H 1396.63 -4.79701 1.10217 0
M  V30 15350 N 1398.28 -0.588812 -1.46187 0
M  V30 15351 C 1399.51 -0.0825301 -2.06735 0
M  V30 15352 C 1399.93 1.22507 -1.43658 0
M  V30 15353 O 1399.28 1.74203 -0.544022 0
M  V30 15354 C 1399.33 0.083501 -3.61404 0
M  V30 15355 O 1399.05 -1.17235 -4.22123 0
M  V30 15356 C 1400.56 0.623425 -4.38894 0
M  V30 15357 H 1397.78 -0.0602413 -0.66829 0
M  V30 15358 H 1400.32 -0.811215 -1.87722 0
M  V30 15359 H 1398.47 0.762432 -3.79823 0
M  V30 15360 H 1398.89 -0.990047 -5.15071 0
M  V30 15361 H 1400.36 0.688755 -5.47686 0
M  V30 15362 H 1400.84 1.64172 -4.07362 0
M  V30 15363 H 1401.45 -0.0208373 -4.25295 0
M  V30 15364 N 1399.76 1.54172 -0.326923 0
M  V30 15365 C 1400.69 2.20703 0.580137 0
M  V30 15366 C 1401.67 1.18523 1.11315 0
M  V30 15367 O 1402.86 1.47276 1.17652 0
M  V30 15368 C 1399.98 2.87137 1.79638 0
M  V30 15369 C 1399.03 4.03064 1.39432 0
M  V30 15370 S 1399.86 5.33785 0.428179 0
M  V30 15371 C 1401.02 6.03715 1.65163 0
M  V30 15372 H 1401.25 2.97296 0.0149964 0
M  V30 15373 H 1398.78 1.54 -0.111004 0
M  V30 15374 H 1400.74 3.26035 2.49423 0
M  V30 15375 H 1399.4 2.1034 2.33272 0
M  V30 15376 H 1398.6 4.48424 2.3007 0
M  V30 15377 H 1398.2 3.65858 0.776144 0
M  V30 15378 H 1400.49 6.26098 2.58858 0
M  V30 15379 H 1401.43 6.97156 1.24014 0
M  V30 15380 H 1401.84 5.33666 1.84014 0
M  V30 15381 N 1401.24 0.0551678 1.57503 0
M  V30 15382 C 1402.46 -0.630692 1.97578 0
M  V30 15383 C 1402.89 -1.63348 0.932686 0
M  V30 15384 O 1402.25 -1.81004 -0.103632 0
M  V30 15385 C 1402.29 -1.29049 3.36718 0
M  V30 15386 O 1401.4 -2.40621 3.34926 0
M  V30 15387 H 1400.74 -0.163625 0.643524 0
M  V30 15388 H 1403.27 0.124753 2.04219 0
M  V30 15389 H 1403.28 -1.64124 3.73534 0
M  V30 15390 H 1401.95 -0.55559 4.12172 0
M  V30 15391 H 1400.53 -2.07463 3.0986 0
M  V30 15392 N 1402.72 -1.56081 -0.218252 0
M  V30 15393 C 1403.68 -1.91851 -1.25402 0
M  V30 15394 C 1404.68 -0.797399 -1.39636 0
M  V30 15395 O 1405.87 -1.06511 -1.37844 0
M  V30 15396 C 1403 -2.17223 -2.6273 0
M  V30 15397 H 1404.19 -2.84493 -0.948882 0
M  V30 15398 H 1401.75 -1.49414 -0.458809 0
M  V30 15399 H 1402.48 -1.27144 -2.98337 0
M  V30 15400 H 1402.27 -2.98899 -2.53775 0
M  V30 15401 H 1403.76 -2.45981 -3.37466 0
M  V30 15402 N 1404.2 0.485086 -1.49949 0
M  V30 15403 C 1405.44 1.23486 -1.5948 0
M  V30 15404 C 1405.76 1.93377 -0.294082 0
M  V30 15405 O 1406.96 2.70173 -0.268133 0
M  V30 15406 C 1405.42 2.24303 -2.81454 0
M  V30 15407 C 1405.03 1.60279 -4.18347 0
M  V30 15408 C 1406.77 3.0001 -3.00324 0
M  V30 15409 C 1404.68 2.593 -5.31524 0
M  V30 15410 H 1403.61 0.464595 -0.593858 0
M  V30 15411 H 1406.26 0.506893 -1.7636 0
M  V30 15412 H 1404.64 3.00332 -2.58102 0
M  V30 15413 H 1405.82 0.901352 -4.51899 0
M  V30 15414 H 1404.13 0.969053 -4.04967 0
M  V30 15415 H 1406.73 3.74091 -3.82048 0
M  V30 15416 H 1407.07 3.5857 -2.11502 0
M  V30 15417 H 1407.6 2.31095 -3.2379 0
M  V30 15418 H 1404.34 2.05498 -6.22455 0
M  V30 15419 H 1403.86 3.27638 -5.02408 0
M  V30 15420 H 1405.54 3.21411 -5.61519 0
M  V30 15421 N 1405.67 1.39291 0.737279 0
M  V30 15422 C 1407.09 1.20845 1.04253 0
M  V30 15423 C 1407.29 0.0684513 2.01384 0
M  V30 15424 O 1406.35 -0.580615 2.45734 0
M  V30 15425 C 1407.66 2.54158 1.60699 0
M  V30 15426 C 1409.21 2.60983 1.72791 0
M  V30 15427 C 1409.68 3.94511 2.32647 0
M  V30 15428 N 1411.17 3.96138 2.4006 0
M  V30 15429 C 1411.91 4.96229 2.87306 0
M  V30 15430 N 1411.4 6.06716 3.34465 0
M  V30 15431 N 1413.2 4.83609 2.86494 0
M  V30 15432 H 1405.35 2.12196 0.0930416 0
M  V30 15433 H 1407.61 0.942289 0.103899 0
M  V30 15434 H 1407.32 3.38118 0.96795 0
M  V30 15435 H 1407.19 2.73715 2.59538 0
M  V30 15436 H 1409.58 1.77408 2.35818 0
M  V30 15437 H 1409.66 2.45278 0.726118 0
M  V30 15438 H 1409.3 4.78516 1.70249 0
M  V30 15439 H 1409.23 4.07536 3.33499 0
M  V30 15440 H 1411.72 3.16344 2.06725 0
M  V30 15441 H 1412.04 6.79002 3.6902 0
M  V30 15442 H 1410.38 6.10313 3.3248 0
M  V30 15443 H 1413.57 3.96396 2.48973 0
M  V30 15444 H 1413.75 5.6176 3.23001 0
M  V30 15445 N 1407.15 -0.967221 1.24429 0
M  V30 15446 C 1408.38 -1.7452 1.11133 0
M  V30 15447 C 1408.79 -1.85785 -0.336087 0
M  V30 15448 O 1408.15 -1.34652 -1.23188 0
M  V30 15449 C 1408.2 -3.16544 1.74591 0
M  V30 15450 O 1407.92 -3.05845 3.13673 0
M  V30 15451 C 1409.42 -4.10677 1.6691 0
M  V30 15452 H 1406.64 -0.547267 0.388253 0
M  V30 15453 H 1409.19 -1.2143 1.64545 0
M  V30 15454 H 1407.34 -3.66618 1.2518 0
M  V30 15455 H 1407.76 -3.95346 3.44676 0
M  V30 15456 H 1409.23 -5.07987 2.15992 0
M  V30 15457 H 1409.71 -4.34652 0.630411 0
M  V30 15458 H 1410.31 -3.66514 2.15749 0
M  V30 15459 N 1408.63 -1.05812 -1.16797 0
M  V30 15460 C 1409.88 -0.782869 -1.8773 0
M  V30 15461 C 1410.23 0.683013 -1.79869 0
M  V30 15462 O 1409.52 1.49357 -1.20012 0
M  V30 15463 C 1409.72 -1.20565 -3.3645 0
M  V30 15464 C 1409.55 -2.71109 -3.58789 0
M  V30 15465 C 1408.32 -3.38506 -3.75155 0
M  V30 15466 C 1410.51 -3.69327 -3.57914 0
M  V30 15467 N 1408.5 -4.77851 -3.85398 0
M  V30 15468 C 1409.87 -4.94431 -3.74082 0
M  V30 15469 C 1411.92 -3.62707 -3.41099 0
M  V30 15470 C 1410.63 -6.13707 -3.75175 0
M  V30 15471 C 1412.65 -4.81429 -3.43483 0
M  V30 15472 C 1412.01 -6.0536 -3.60165 0
M  V30 15473 H 1408.11 -0.338798 -0.704798 0
M  V30 15474 H 1410.7 -1.3513 -1.40171 0
M  V30 15475 H 1408.87 -0.665104 -3.82663 0
M  V30 15476 H 1410.6 -0.879581 -3.95026 0
M  V30 15477 H 1407.35 -2.88907 -3.75273 0
M  V30 15478 H 1407.78 -5.50324 -3.943 0
M  V30 15479 H 1412.42 -2.67851 -3.27133 0
M  V30 15480 H 1410.14 -7.08901 -3.87925 0
M  V30 15481 H 1413.72 -4.77966 -3.31722 0
M  V30 15482 H 1412.6 -6.95688 -3.61923 0
M  V30 15483 N 1410.11 1.33347 -0.840014 0
M  V30 15484 C 1411.35 1.98037 -0.43692 0
M  V30 15485 C 1411.69 1.66382 1.00154 0
M  V30 15486 O 1410.96 0.944311 1.70038 0
M  V30 15487 C 1411.24 3.54012 -0.65937 0
M  V30 15488 C 1411.1 3.9535 -2.14518 0
M  V30 15489 C 1412.42 4.39972 -0.106258 0
M  V30 15490 H 1409.54 0.719373 -0.160221 0
M  V30 15491 H 1412.18 1.57969 -1.05574 0
M  V30 15492 H 1410.33 3.88274 -0.132633 0
M  V30 15493 H 1412 3.7134 -2.73687 0
M  V30 15494 H 1410.24 3.4504 -2.62926 0
M  V30 15495 H 1410.91 5.03992 -2.25158 0
M  V30 15496 H 1413.39 4.12362 -0.556511 0
M  V30 15497 H 1412.27 5.48125 -0.291583 0
M  V30 15498 H 1412.53 4.30872 0.990032 0
M  V30 15499 N 1411.59 0.596556 1.45873 0
M  V30 15500 C 1412.52 -0.166704 2.28593 0
M  V30 15501 C 1413.53 -0.84231 1.39316 0
M  V30 15502 O 1414.72 -0.709548 1.63792 0
M  V30 15503 C 1411.82 -1.25641 3.1475 0
M  V30 15504 C 1410.99 -0.67006 4.32237 0
M  V30 15505 C 1410.05 -1.64924 4.99686 0
M  V30 15506 O 1409.08 -1.17986 5.56838 0
M  V30 15507 N 1410.28 -2.98355 4.9796 0
M  V30 15508 H 1413.04 0.543045 2.94739 0
M  V30 15509 H 1410.61 0.435274 1.55939 0
M  V30 15510 H 1412.6 -1.91104 3.56737 0
M  V30 15511 H 1411.17 -1.86883 2.50586 0
M  V30 15512 H 1410.39 0.162375 3.93865 0
M  V30 15513 H 1411.68 -0.258345 5.08144 0
M  V30 15514 H 1411.07 -3.39101 4.52799 0
M  V30 15515 H 1409.63 -3.5927 5.43846 0
M  V30 15516 N 1413.06 -1.53996 0.335095 0
M  V30 15517 C 1414 -2.22258 -0.559809 0
M  V30 15518 C 1415.01 -1.22636 -1.07071 0
M  V30 15519 O 1416.2 -1.4904 -0.982312 0
M  V30 15520 C 1413.3 -2.88256 -1.78218 0
M  V30 15521 C 1412.47 -4.14118 -1.40801 0
M  V30 15522 C 1411.53 -4.63603 -2.48915 0
M  V30 15523 O 1410.56 -5.28015 -2.12576 0
M  V30 15524 N 1411.76 -4.3881 -3.80034 0
M  V30 15525 H 1414.52 -2.9969 0.0247521 0
M  V30 15526 H 1412.08 -1.61119 0.158826 0
M  V30 15527 H 1414.08 -3.1828 -2.4996 0
M  V30 15528 H 1412.65 -2.14461 -2.27431 0
M  V30 15529 H 1411.87 -3.90732 -0.521729 0
M  V30 15530 H 1413.15 -4.96005 -1.13388 0
M  V30 15531 H 1412.55 -3.87278 -4.12349 0
M  V30 15532 H 1411.11 -4.73461 -4.47971 0
M  V30 15533 N 1414.54 -0.0635198 -1.57472 0
M  V30 15534 C 1415.77 0.620205 -1.9791 0
M  V30 15535 C 1416.19 1.62851 -0.941335 0
M  V30 15536 O 1415.55 1.81056 0.0940313 0
M  V30 15537 C 1415.6 1.27261 -3.37397 0
M  V30 15538 O 1414.7 2.38841 -3.36197 0
M  V30 15539 H 1414.04 0.16021 -0.644382 0
M  V30 15540 H 1416.57 -0.135582 -2.0415 0
M  V30 15541 H 1416.58 1.6214 -3.74399 0
M  V30 15542 H 1415.26 0.533723 -4.12461 0
M  V30 15543 H 1413.83 2.05817 -3.10956 0
M  V30 15544 N 1416.02 1.56195 0.209972 0
M  V30 15545 C 1416.93 1.96539 1.28101 0
M  V30 15546 C 1417.95 0.870858 1.50639 0
M  V30 15547 O 1419.12 1.17539 1.63544 0
M  V30 15548 C 1416.19 2.28392 2.60841 0
M  V30 15549 C 1415.25 3.51474 2.46505 0
M  V30 15550 C 1414.48 3.81798 3.72915 0
M  V30 15551 O 1414.7 3.13627 4.76439 0
M  V30 15552 O 1413.64 4.75264 3.69334 0
M  V30 15553 H 1417.46 2.87838 0.968671 0
M  V30 15554 H 1415.05 1.43556 0.413777 0
M  V30 15555 H 1416.93 2.50022 3.39215 0
M  V30 15556 H 1415.61 1.40264 2.91732 0
M  V30 15557 H 1414.51 3.35109 1.66292 0
M  V30 15558 H 1415.85 4.40021 2.2055 0
M  V30 15559 N 1417.5 -0.477127 1.50204 0
M  V30 15560 C 1418.73 -1.25307 1.64638 0
M  V30 15561 C 1419.14 -1.85942 0.327274 0
M  V30 15562 O 1418.5 -1.6895 -0.690088 0
M  V30 15563 C 1418.55 -2.36616 2.73304 0
M  V30 15564 O 1418.27 -1.78469 4.00101 0
M  V30 15565 C 1419.77 -3.27595 2.98658 0
M  V30 15566 H 1416.99 -0.379192 0.553583 0
M  V30 15567 H 1419.53 -0.5702 1.9639 0
M  V30 15568 H 1417.69 -3.00689 2.44264 0
M  V30 15569 H 1418.1 -2.51722 4.60148 0
M  V30 15570 H 1419.58 -4.01921 3.7837 0
M  V30 15571 H 1420.05 -3.86017 2.09493 0
M  V30 15572 H 1420.66 -2.69264 3.29206 0
M  V30 15573 N 1418.98 -1.3968 -0.729882 0
M  V30 15574 C 1419.92 -1.38808 -1.84393 0
M  V30 15575 C 1420.89 -0.247035 -1.64253 0
M  V30 15576 O 1422.08 -0.44293 -1.85588 0
M  V30 15577 C 1419.22 -1.2424 -3.2196 0
M  V30 15578 C 1418.33 -2.47932 -3.53771 0
M  V30 15579 C 1417.47 -2.25913 -4.80767 0
M  V30 15580 C 1416.51 -3.45254 -5.05436 0
M  V30 15581 N 1415.64 -3.2252 -6.23638 0
M  V30 15582 H 1420.48 -2.34038 -1.84473 0
M  V30 15583 H 1418.02 -1.16252 -0.901332 0
M  V30 15584 H 1419.98 -1.13804 -4.01378 0
M  V30 15585 H 1418.61 -0.326375 -3.21146 0
M  V30 15586 H 1417.66 -2.68952 -2.69015 0
M  V30 15587 H 1418.97 -3.36806 -3.67917 0
M  V30 15588 H 1418.13 -2.12748 -5.68175 0
M  V30 15589 H 1416.86 -1.34441 -4.68804 0
M  V30 15590 H 1415.87 -3.58912 -4.16488 0
M  V30 15591 H 1417.09 -4.37634 -5.19282 0
M  V30 15592 H 1415.04 -2.33718 -6.12953 0
M  V30 15593 H 1414.96 -4.04954 -6.38395 0
M  V30 15594 H 1416.23 -3.1306 -7.13872 0
M  V30 15595 N 1420.45 0.960609 -1.2494 0
M  V30 15596 C 1421.38 2.074 -1.07274 0
M  V30 15597 C 1422.37 1.70092 0.0164365 0
M  V30 15598 O 1423.55 1.93604 -0.151975 0
M  V30 15599 C 1420.68 3.40491 -0.684317 0
M  V30 15600 C 1419.63 3.91784 -1.72306 0
M  V30 15601 C 1418.96 5.21301 -1.18949 0
M  V30 15602 C 1420.26 4.18829 -3.12056 0
M  V30 15603 H 1421.95 2.22438 -2.00404 0
M  V30 15604 H 1419.5 1.06888 -0.964937 0
M  V30 15605 H 1421.45 4.17826 -0.547686 0
M  V30 15606 H 1420.18 3.25374 0.282687 0
M  V30 15607 H 1418.84 3.16613 -1.84802 0
M  V30 15608 H 1418.48 5.02549 -0.212892 0
M  V30 15609 H 1418.18 5.56588 -1.8837 0
M  V30 15610 H 1419.71 6.01238 -1.06513 0
M  V30 15611 H 1421.12 4.86844 -3.02748 0
M  V30 15612 H 1419.52 4.6536 -3.78894 0
M  V30 15613 H 1420.59 3.25333 -3.59564 0
M  V30 15614 N 1421.93 1.0643 1.16234 0
M  V30 15615 C 1423.16 0.802671 1.91238 0
M  V30 15616 C 1423.58 -0.637222 1.76978 0
M  V30 15617 O 1422.94 -1.44419 1.09603 0
M  V30 15618 C 1422.99 1.20389 3.3991 0
M  V30 15619 O 1422.09 0.343516 4.10967 0
M  V30 15620 H 1421.43 0.29323 0.595745 0
M  V30 15621 H 1423.96 1.42046 1.47255 0
M  V30 15622 H 1423.97 1.17604 3.90683 0
M  V30 15623 H 1422.65 2.2527 3.49608 0
M  V30 15624 H 1421.23 0.433051 3.70377 0
M  V30 15625 N 1423.41 -1.329 0.847073 0
M  V30 15626 C 1424.66 -1.96774 0.443022 0
M  V30 15627 C 1424.97 -1.67813 -1.0049 0
M  V30 15628 O 1426.18 -2.25366 -1.51402 0
M  V30 15629 C 1424.63 -3.52184 0.741268 0
M  V30 15630 C 1424.24 -3.90013 2.20441 0
M  V30 15631 C 1425.99 -4.22568 0.404569 0
M  V30 15632 C 1423.89 -5.38434 2.44627 0
M  V30 15633 H 1422.82 -0.736406 0.161932 0
M  V30 15634 H 1425.47 -1.51402 1.0368 0
M  V30 15635 H 1423.86 -3.95925 0.0770158 0
M  V30 15636 H 1425.03 -3.57304 2.90982 0
M  V30 15637 H 1423.35 -3.32633 2.50489 0
M  V30 15638 H 1425.94 -5.3173 0.562795 0
M  V30 15639 H 1426.29 -4.11144 -0.653172 0
M  V30 15640 H 1426.82 -3.84384 1.0244 0
M  V30 15641 H 1423.56 -5.5487 3.48997 0
M  V30 15642 H 1423.08 -5.72575 1.78656 0
M  V30 15643 H 1424.76 -6.05423 2.28194 0
M  V30 15644 N 1424.89 -0.604284 -1.45555 0
M  V30 15645 C 1426.3 -0.183613 -1.85795 0
M  V30 15646 C 1426.65 1.25869 -1.50504 0
M  V30 15647 O 1425.78 1.9539 -0.930148 0
M  V30 15648 C 1426.37 -0.326455 -3.37224 0
M  V30 15649 C 1424.93 0.0394987 -3.76379 0
M  V30 15650 C 1424.08 -0.65243 -2.69516 0
M  V30 15651 H 1427.03 -0.811173 -1.36403 0
M  V30 15652 H 1427.05 0.442258 -3.77921 0
M  V30 15653 H 1426.56 -1.37627 -3.62878 0
M  V30 15654 H 1424.66 1.08862 -3.56342 0
M  V30 15655 H 1424.77 -0.35185 -4.77806 0
M  V30 15656 H 1423.14 -0.0904148 -2.54539 0
M  V30 15657 H 1423.92 -1.70432 -2.98007 0
M  V30 15658 N 1426.37 1.53816 -0.343257 0
M  V30 15659 C 1427.3 2.22552 0.548015 0
M  V30 15660 C 1428.31 1.23202 1.06419 0
M  V30 15661 O 1429.5 1.49559 0.974394 0
M  V30 15662 C 1426.6 2.89197 1.76687 0
M  V30 15663 C 1425.77 4.14859 1.38603 0
M  V30 15664 C 1424.83 4.64917 2.46453 0
M  V30 15665 O 1423.86 5.29135 2.09773 0
M  V30 15666 N 1425.06 4.4082 3.77701 0
M  V30 15667 H 1427.83 2.99672 -0.040645 0
M  V30 15668 H 1425.39 1.61033 -0.167368 0
M  V30 15669 H 1427.38 3.19601 2.48268 0
M  V30 15670 H 1425.95 2.15664 2.26291 0
M  V30 15671 H 1425.17 3.91003 0.501001 0
M  V30 15672 H 1426.46 4.96599 1.10756 0
M  V30 15673 H 1425.85 3.8946 4.1029 0
M  V30 15674 H 1424.41 4.7583 4.45453 0
M  V30 15675 N 1427.84 0.0718701 1.57436 0
M  V30 15676 C 1428.77 -0.89288 2.15754 0
M  V30 15677 C 1429.76 -1.31036 1.0846 0
M  V30 15678 O 1430.94 -1.38139 1.36496 0
M  V30 15679 C 1428.07 -2.16044 2.71923 0
M  V30 15680 C 1427.02 -1.88236 3.84384 0
M  V30 15681 C 1426.35 -3.21624 4.27156 0
M  V30 15682 C 1427.65 -1.18758 5.0862 0
M  V30 15683 H 1429.34 -0.407061 2.9662 0
M  V30 15684 H 1426.89 -0.194354 1.42682 0
M  V30 15685 H 1428.84 -2.83952 3.11366 0
M  V30 15686 H 1427.57 -2.66868 1.88279 0
M  V30 15687 H 1426.23 -1.22734 3.45445 0
M  V30 15688 H 1425.87 -3.70289 3.40433 0
M  V30 15689 H 1425.57 -3.03809 5.02965 0
M  V30 15690 H 1427.1 -3.90729 4.69215 0
M  V30 15691 H 1428.51 -1.76735 5.45378 0
M  V30 15692 H 1426.91 -1.11201 5.89707 0
M  V30 15693 H 1427.98 -0.166682 4.84613 0
M  V30 15694 N 1429.32 -1.56304 -0.201686 0
M  V30 15695 C 1430.55 -1.84692 -0.943583 0
M  V30 15696 C 1430.97 -0.654649 -1.7634 0
M  V30 15697 O 1430.33 0.396586 -1.76909 0
M  V30 15698 C 1430.38 -3.11251 -1.82085 0
M  V30 15699 O 1429.48 -2.9134 -2.91881 0
M  V30 15700 H 1428.82 -0.608351 -0.266092 0
M  V30 15701 H 1431.35 -2.0353 -0.208992 0
M  V30 15702 H 1431.36 -3.41874 -2.2268 0
M  V30 15703 H 1430.04 -3.97652 -1.21844 0
M  V30 15704 H 1428.62 -2.72 -2.55089 0
M  V30 15705 N 1430.8 0.469154 -1.50455 0
M  V30 15706 C 1432.05 1.2229 -1.6178 0
M  V30 15707 C 1432.38 1.91577 -0.318073 0
M  V30 15708 O 1431.65 1.82205 0.68057 0
M  V30 15709 C 1431.94 2.26504 -2.79943 0
M  V30 15710 C 1431.79 1.61509 -4.19804 0
M  V30 15711 C 1433.11 3.27796 -2.93662 0
M  V30 15712 H 1430.23 0.443241 -0.588817 0
M  V30 15713 H 1432.87 0.516431 -1.82847 0
M  V30 15714 H 1431.02 2.86757 -2.62112 0
M  V30 15715 H 1432.69 1.04838 -4.49229 0
M  V30 15716 H 1430.94 0.918162 -4.23972 0
M  V30 15717 H 1431.61 2.37248 -4.98415 0
M  V30 15718 H 1434.08 2.77568 -3.09992 0
M  V30 15719 H 1432.96 3.98041 -3.77961 0
M  V30 15720 H 1433.22 3.92033 -2.04359 0
M  V30 15721 N 1432.28 1.40065 0.722464 0
M  V30 15722 C 1433.51 1.41271 1.51163 0
M  V30 15723 C 1433.92 0.0105425 1.88797 0
M  V30 15724 O 1433.28 -0.963867 1.5497 0
M  V30 15725 C 1433.33 2.29713 2.79131 0
M  V30 15726 O 1433.05 3.6447 2.43091 0
M  V30 15727 C 1434.55 2.39437 3.73075 0
M  V30 15728 H 1431.77 0.482086 0.466727 0
M  V30 15729 H 1434.32 1.84033 0.891736 0
M  V30 15730 H 1432.47 1.9033 3.37421 0
M  V30 15731 H 1432.88 4.11371 3.25383 0
M  V30 15732 H 1434.36 3.05543 4.59726 0
M  V30 15733 H 1434.84 1.41731 4.15703 0
M  V30 15734 H 1435.44 2.79342 3.20699 0
M  V30 15735 N 1433.76 -0.95397 1.25448 0
M  V30 15736 C 1435.03 -1.67502 1.01008 0
M  V30 15737 C 1435.41 -2.05949 -0.463483 0
M  V30 15738 O 1434.76 -1.77336 -1.44098 0
M  V30 15739 C 1434.97 -2.89679 1.94645 0
M  V30 15740 C 1436.32 -3.61617 2.22526 0
M  V30 15741 O 1437.34 -2.99762 1.92409 0
M  V30 15742 O 1436.2 -4.72998 2.73743 0
M  V30 15743 H 1433.3 -0.732917 0.383094 0
M  V30 15744 H 1435.84 -1.00684 1.36605 0
M  V30 15745 H 1434.62 -2.58063 2.94141 0
M  V30 15746 H 1434.24 -3.64228 1.59449 0
M  V30 15747 N 1435.24 -1.07045 -1.15668 0
M  V30 15748 C 1436.47 -0.811567 -1.89992 0
M  V30 15749 C 1436.87 0.638628 -1.78096 0
M  V30 15750 O 1436.22 1.44953 -1.12846 0
M  V30 15751 C 1436.28 -1.13665 -3.41058 0
M  V30 15752 C 1435.94 -2.58681 -3.7674 0
M  V30 15753 C 1436.94 -3.56923 -3.78023 0
M  V30 15754 C 1434.62 -2.94178 -4.07142 0
M  V30 15755 C 1436.62 -4.88699 -4.09209 0
M  V30 15756 C 1434.31 -4.26152 -4.37993 0
M  V30 15757 C 1435.3 -5.23222 -4.39007 0
M  V30 15758 O 1434.99 -6.52826 -4.6912 0
M  V30 15759 H 1434.72 -0.293243 -0.609085 0
M  V30 15760 H 1437.28 -1.42941 -1.47502 0
M  V30 15761 H 1435.51 -0.461762 -3.83933 0
M  V30 15762 H 1437.2 -0.860808 -3.96667 0
M  V30 15763 H 1437.96 -3.30842 -3.54639 0
M  V30 15764 H 1433.84 -2.19272 -4.05513 0
M  V30 15765 H 1437.39 -5.6446 -4.09915 0
M  V30 15766 H 1433.28 -4.51988 -4.60844 0
M  V30 15767 H 1434.05 -6.5793 -4.86898 0
M  V30 15768 N 1436.71 1.32449 -0.85411 0
M  V30 15769 C 1437.62 2.32658 -0.301221 0
M  V30 15770 C 1438.64 1.64025 0.580673 0
M  V30 15771 O 1439.82 1.95568 0.481172 0
M  V30 15772 C 1436.88 3.43049 0.501803 0
M  V30 15773 C 1435.94 4.27374 -0.406166 0
M  V30 15774 C 1435.17 5.32494 0.358627 0
M  V30 15775 O 1435.4 5.4783 1.58865 0
M  V30 15776 O 1434.33 6.0127 -0.275291 0
M  V30 15777 H 1438.16 2.81838 -1.13143 0
M  V30 15778 H 1435.74 1.36063 -0.617032 0
M  V30 15779 H 1437.62 4.10375 0.957608 0
M  V30 15780 H 1436.3 2.9606 1.30882 0
M  V30 15781 H 1435.21 3.6286 -0.910136 0
M  V30 15782 H 1436.54 4.77887 -1.17835 0
M  V30 15783 N 1438.19 0.611994 1.45232 0
M  V30 15784 C 1439.44 0.106467 2.01419 0
M  V30 15785 C 1439.75 -1.2723 1.48566 0
M  V30 15786 O 1440.96 -1.8708 1.96757 0
M  V30 15787 C 1439.42 0.139639 3.59629 0
M  V30 15788 C 1439.02 1.51853 4.21479 0
M  V30 15789 C 1440.77 -0.310417 4.23364 0
M  V30 15790 C 1438.67 1.50785 5.71855 0
M  V30 15791 H 1437.6 0.0360345 0.753138 0
M  V30 15792 H 1440.26 0.767974 1.66657 0
M  V30 15793 H 1438.64 -0.588606 3.91601 0
M  V30 15794 H 1439.81 2.26884 4.01074 0
M  V30 15795 H 1438.13 1.91105 3.69956 0
M  V30 15796 H 1440.72 -0.337656 5.33633 0
M  V30 15797 H 1441.07 -1.33398 3.94348 0
M  V30 15798 H 1441.6 0.364704 3.96125 0
M  V30 15799 H 1438.34 2.50916 6.05575 0
M  V30 15800 H 1437.86 0.800195 5.94438 0
M  V30 15801 H 1439.54 1.23341 6.35135 0
M  V30 15802 N 1439.67 -1.53632 0.351409 0
M  V30 15803 C 1440.6 -2.21598 -0.544952 0
M  V30 15804 C 1441.58 -1.20279 -1.09415 0
M  V30 15805 O 1442.76 -1.49129 -1.15295 0
M  V30 15806 C 1439.89 -2.89959 -1.75048 0
M  V30 15807 C 1438.94 -4.05232 -1.33002 0
M  V30 15808 S 1439.77 -5.34399 -0.343204 0
M  V30 15809 C 1440.93 -6.06266 -1.55538 0
M  V30 15810 H 1441.16 -2.97282 0.0323028 0
M  V30 15811 H 1438.69 -1.53804 0.13549 0
M  V30 15812 H 1440.65 -3.29961 -2.44204 0
M  V30 15813 H 1439.31 -2.14025 -2.29896 0
M  V30 15814 H 1438.5 -4.52027 -2.22907 0
M  V30 15815 H 1438.11 -3.67046 -0.717841 0
M  V30 15816 H 1440.4 -6.30137 -2.48865 0
M  V30 15817 H 1441.34 -6.9904 -1.12907 0
M  V30 15818 H 1441.75 -5.36526 -1.755 0
M  V30 15819 N 1441.15 -0.0802183 -1.57396 0
M  V30 15820 C 1442.06 0.898597 -2.16708 0
M  V30 15821 C 1443.07 1.321 -1.1325 0
M  V30 15822 O 1444.25 1.39197 -1.45554 0
M  V30 15823 C 1441.31 2.14501 -2.72379 0
M  V30 15824 C 1440.38 1.77822 -3.9074 0
M  V30 15825 C 1439.61 2.96521 -4.43747 0
M  V30 15826 O 1439.83 4.10797 -3.9573 0
M  V30 15827 O 1438.77 2.75849 -5.34968 0
M  V30 15828 H 1442.59 0.424027 -3.00725 0
M  V30 15829 H 1440.18 0.14332 -1.48711 0
M  V30 15830 H 1442.06 2.87575 -3.08024 0
M  V30 15831 H 1440.73 2.61039 -1.91416 0
M  V30 15832 H 1439.64 1.01974 -3.59934 0
M  V30 15833 H 1440.97 1.36059 -4.73021 0
M  V30 15834 N 1442.63 1.56409 0.193394 0
M  V30 15835 C 1443.56 1.91211 1.26377 0
M  V30 15836 C 1444.57 0.802944 1.41622 0
M  V30 15837 O 1445.76 1.08136 1.42017 0
M  V30 15838 C 1442.86 2.13039 2.63567 0
M  V30 15839 C 1442.03 3.44192 2.69909 0
M  V30 15840 C 1441.09 3.55111 3.88307 0
M  V30 15841 O 1440.12 4.2792 3.75331 0
M  V30 15842 N 1441.32 2.88325 5.03834 0
M  V30 15843 H 1444.08 2.83624 0.968383 0
M  V30 15844 H 1441.65 1.57297 0.383302 0
M  V30 15845 H 1443.64 2.1763 3.41202 0
M  V30 15846 H 1442.21 1.27116 2.85588 0
M  V30 15847 H 1441.43 3.51452 1.78535 0
M  V30 15848 H 1442.72 4.30536 2.71139 0
M  V30 15849 H 1442.11 2.29003 5.17276 0
M  V30 15850 H 1440.67 2.98542 5.7941 0
M  V30 15851 N 1444.1 -0.461169 1.50702 0
M  V30 15852 C 1445.52 -0.795741 1.38348 0
M  V30 15853 C 1445.72 -1.96473 0.447263 0
M  V30 15854 O 1444.78 -2.52276 -0.106445 0
M  V30 15855 C 1446.09 -1.09849 2.79917 0
M  V30 15856 C 1447.64 -1.20435 2.88902 0
M  V30 15857 C 1448.11 -1.54017 4.31327 0
M  V30 15858 N 1449.6 -1.60989 4.34323 0
M  V30 15859 C 1450.34 -1.88498 5.41531 0
M  V30 15860 N 1449.83 -2.13959 6.58933 0
M  V30 15861 N 1451.63 -1.90082 5.28985 0
M  V30 15862 H 1443.78 0.309076 2.10139 0
M  V30 15863 H 1446.04 0.0757918 0.944965 0
M  V30 15864 H 1445.75 -0.312479 3.50309 0
M  V30 15865 H 1445.62 -2.03221 3.17775 0
M  V30 15866 H 1448.01 -1.98102 2.18723 0
M  V30 15867 H 1448.09 -0.250195 2.54573 0
M  V30 15868 H 1447.73 -0.768865 5.02047 0
M  V30 15869 H 1447.66 -2.50599 4.6315 0
M  V30 15870 H 1450.15 -1.43312 3.49672 0
M  V30 15871 H 1450.47 -2.34251 7.36442 0
M  V30 15872 H 1448.81 -2.11331 6.62091 0
M  V30 15873 H 1452 -1.69693 4.36259 0
M  V30 15874 H 1452.18 -2.11184 6.12622 0
M  V30 15875 N 1445.58 -1.40446 -0.715026 0
M  V30 15876 C 1446.51 -1.43511 -1.84193 0
M  V30 15877 C 1447.49 -0.295969 -1.67505 0
M  V30 15878 O 1448.68 -0.504667 -1.87528 0
M  V30 15879 C 1445.81 -1.29751 -3.22152 0
M  V30 15880 C 1444.76 -2.41274 -3.53512 0
M  V30 15881 C 1444.09 -2.12591 -4.90621 0
M  V30 15882 C 1445.39 -3.83614 -3.54454 0
M  V30 15883 H 1447.08 -2.37819 -1.81885 0
M  V30 15884 H 1444.63 -1.14469 -0.873655 0
M  V30 15885 H 1446.58 -1.30511 -4.0068 0
M  V30 15886 H 1445.3 -0.319189 -3.25037 0
M  V30 15887 H 1443.96 -2.39764 -2.77324 0
M  V30 15888 H 1443.61 -1.13148 -4.90109 0
M  V30 15889 H 1443.31 -2.87308 -5.1257 0
M  V30 15890 H 1444.84 -2.15034 -5.71483 0
M  V30 15891 H 1446.25 -3.86945 -4.23021 0
M  V30 15892 H 1444.65 -4.57855 -3.87929 0
M  V30 15893 H 1445.72 -4.13159 -2.53827 0
M  V30 15894 N 1447.06 0.947303 -1.25952 0
M  V30 15895 C 1448.31 1.68945 -1.10915 0
M  V30 15896 C 1448.63 1.91848 0.349216 0
M  V30 15897 O 1447.9 1.5108 1.24706 0
M  V30 15898 H 1446.48 0.626086 -0.407462 0
M  V30 15899 H 1449.14 1.13854 -1.58187 0
M  V30 15900 H 1448.24 2.6657 -1.62317 0
M  V30 15901 N 1448.54 1.07657 1.15099 0
M  V30 15902 C 1449.45 0.711198 2.2356 0
M  V30 15903 C 1450.46 -0.278932 1.7175 0
M  V30 15904 O 1451.64 -0.124788 2.01013 0
M  V30 15905 C 1448.71 0.117855 3.465 0
M  V30 15906 C 1447.77 1.16162 4.13286 0
M  V30 15907 C 1447 0.596494 5.30356 0
M  V30 15908 O 1447.22 -0.586474 5.67377 0
M  V30 15909 O 1446.16 1.34288 5.86729 0
M  V30 15910 H 1449.98 1.61578 2.5715 0
M  V30 15911 H 1447.57 0.84973 1.22882 0
M  V30 15912 H 1449.45 -0.210613 4.20873 0
M  V30 15913 H 1448.12 -0.760008 3.14652 0
M  V30 15914 H 1447.03 1.54249 3.4082 0
M  V30 15915 H 1448.36 2.01149 4.49221 0
M  V30 15916 N 1450.02 -1.31994 0.861122 0
M  V30 15917 C 1450.95 -2.31214 0.325963 0
M  V30 15918 C 1451.93 -1.59965 -0.578383 0
M  V30 15919 O 1453.11 -1.87726 -0.497268 0
M  V30 15920 C 1450.24 -3.43953 -0.481001 0
M  V30 15921 C 1449.2 -4.2673 0.329474 0
M  V30 15922 C 1448.52 -5.31293 -0.602627 0
M  V30 15923 C 1449.82 -4.98498 1.55874 0
M  V30 15924 H 1451.52 -2.76223 1.15503 0
M  V30 15925 H 1449.06 -1.32797 0.556856 0
M  V30 15926 H 1451.02 -4.12409 -0.86585 0
M  V30 15927 H 1449.74 -2.97687 -1.3435 0
M  V30 15928 H 1448.4 -3.59929 0.696159 0
M  V30 15929 H 1448.05 -4.8128 -1.46215 0
M  V30 15930 H 1447.75 -5.87565 -0.0643044 0
M  V30 15931 H 1449.27 -6.02611 -0.984512 0
M  V30 15932 H 1450.68 -5.596 1.24583 0
M  V30 15933 H 1449.08 -5.64525 2.03548 0
M  V30 15934 H 1450.15 -4.25991 2.31646 0
M  V30 15935 N 1451.49 -0.619688 -1.44906 0
M  V30 15936 C 1452.43 0.130316 -2.28829 0
M  V30 15937 C 1453.44 0.820039 -1.40639 0
M  V30 15938 O 1454.63 0.683401 -1.649 0
M  V30 15939 C 1451.73 1.20618 -3.16709 0
M  V30 15940 C 1450.9 0.60121 -4.33248 0
M  V30 15941 C 1449.96 1.56954 -5.02247 0
M  V30 15942 O 1448.99 1.09112 -5.58644 0
M  V30 15943 N 1450.19 2.90395 -5.02644 0
M  V30 15944 H 1452.95 -0.589867 -2.93838 0
M  V30 15945 H 1450.51 -0.460028 -1.55227 0
M  V30 15946 H 1452.51 1.85404 -3.59732 0
M  V30 15947 H 1451.08 1.82873 -2.53528 0
M  V30 15948 H 1450.3 -0.225015 -3.93557 0
M  V30 15949 H 1451.58 0.177471 -5.0849 0
M  V30 15950 H 1450.98 3.31855 -4.58136 0
M  V30 15951 H 1449.54 3.50572 -5.49493 0
M  V30 15952 N 1452.97 1.53444 -0.359552 0
M  V30 15953 C 1453.94 2.24173 0.477412 0
M  V30 15954 C 1454.94 1.24747 1.01464 0
M  V30 15955 O 1456.13 1.49069 0.901343 0
M  V30 15956 C 1453.26 2.9738 1.66667 0
M  V30 15957 H 1454.45 2.99566 -0.141407 0
M  V30 15958 H 1452 1.55904 -0.111143 0
M  V30 15959 H 1452.74 2.26214 2.32374 0
M  V30 15960 H 1452.52 3.70325 1.28848 0
M  V30 15961 H 1454.01 3.51165 2.25994 0
M  V30 15962 N 1454.45 0.0885642 1.57351 0
M  V30 15963 C 1455.38 -0.869946 2.16689 0
M  V30 15964 C 1456.36 -1.29878 1.09844 0
M  V30 15965 O 1457.55 -1.36684 1.37954 0
M  V30 15966 C 1454.68 -2.13148 2.74199 0
M  V30 15967 C 1453.63 -1.84149 3.86359 0
M  V30 15968 C 1452.96 -3.17075 4.30543 0
M  V30 15969 C 1454.26 -1.13357 5.09851 0
M  V30 15970 H 1455.95 -0.375578 2.97035 0
M  V30 15971 H 1453.5 -0.17921 1.42881 0
M  V30 15972 H 1455.45 -2.80634 3.14361 0
M  V30 15973 H 1454.17 -2.64856 1.91098 0
M  V30 15974 H 1452.83 -1.19063 3.46727 0
M  V30 15975 H 1452.48 -3.66658 3.44342 0
M  V30 15976 H 1452.18 -2.98457 5.06159 0
M  V30 15977 H 1453.7 -3.85731 4.73333 0
M  V30 15978 H 1455.12 -1.70941 5.47222 0
M  V30 15979 H 1453.52 -1.0494 5.90853 0
M  V30 15980 H 1454.59 -0.115273 4.84763 0
M  V30 15981 N 1455.93 -1.56509 -0.185096 0
M  V30 15982 C 1456.86 -1.91878 -1.25361 0
M  V30 15983 C 1457.87 -0.810443 -1.41194 0
M  V30 15984 O 1459.06 -1.08887 -1.41442 0
M  V30 15985 C 1456.16 -2.14433 -2.62434 0
M  V30 15986 C 1455.34 -3.45618 -2.6808 0
M  V30 15987 C 1454.39 -3.57165 -3.86419 0
M  V30 15988 O 1453.42 -4.29904 -3.73056 0
M  V30 15989 N 1454.62 -2.90993 -5.02298 0
M  V30 15990 H 1457.39 -2.84133 -0.953328 0
M  V30 15991 H 1454.95 -1.57498 -0.374955 0
M  V30 15992 H 1456.94 -2.19437 -3.40044 0
M  V30 15993 H 1455.51 -1.28629 -2.84909 0
M  V30 15994 H 1454.73 -3.52394 -1.76669 0
M  V30 15995 H 1456.02 -4.31968 -2.68851 0
M  V30 15996 H 1455.42 -2.31743 -5.16054 0
M  V30 15997 H 1453.97 -3.01611 -5.77819 0
M  V30 15998 N 1457.41 0.45317 -1.50944 0
M  V30 15999 C 1458.63 1.23136 -1.6689 0
M  V30 16000 C 1459.06 1.84639 -0.359185 0
M  V30 16001 O 1458.41 1.68106 0.678983 0
M  V30 16002 C 1458.46 2.30275 -2.77499 0
M  V30 16003 O 1457.57 3.35371 -2.39999 0
M  V30 16004 H 1456.91 0.361475 -0.556984 0
M  V30 16005 H 1459.44 0.537174 -1.97422 0
M  V30 16006 H 1459.45 2.75309 -3.01113 0
M  V30 16007 H 1458.12 1.84885 -3.72546 0
M  V30 16008 H 1456.7 2.95924 -2.26899 0
M  V30 16009 N 1458.88 1.40823 0.707568 0
M  V30 16010 C 1460.11 1.43061 1.50161 0
M  V30 16011 C 1460.53 0.0342144 1.88069 0
M  V30 16012 O 1459.89 -0.959674 1.53818 0
M  V30 16013 C 1459.94 2.33459 2.74826 0
M  V30 16014 O 1459.04 1.78336 3.71847 0
M  V30 16015 H 1458.39 0.48602 0.452417 0
M  V30 16016 H 1460.92 1.85147 0.870742 0
M  V30 16017 H 1460.93 2.48922 3.23267 0
M  V30 16018 H 1459.6 3.34927 2.46571 0
M  V30 16019 H 1458.18 1.7226 3.30728 0
M  V30 16020 N 1460.36 -0.94061 1.26453 0
M  V30 16021 C 1461.29 -2.05667 1.10559 0
M  V30 16022 C 1462.27 -1.70097 0.0106258 0
M  V30 16023 O 1463.46 -1.93338 0.182756 0
M  V30 16024 C 1460.59 -3.3936 0.7384 0
M  V30 16025 C 1459.54 -3.88993 1.78517 0
M  V30 16026 C 1458.87 -5.19343 1.27228 0
M  V30 16027 C 1460.17 -4.13812 3.1868 0
M  V30 16028 H 1461.86 -2.19221 2.03918 0
M  V30 16029 H 1459.41 -1.05339 0.98182 0
M  V30 16030 H 1461.36 -4.16902 0.61409 0
M  V30 16031 H 1460.09 -3.25783 -0.230887 0
M  V30 16032 H 1458.74 -3.13633 1.89816 0
M  V30 16033 H 1458.39 -5.02147 0.292816 0
M  V30 16034 H 1458.09 -5.53521 1.97201 0
M  V30 16035 H 1459.62 -5.99468 1.16065 0
M  V30 16036 H 1461.03 -4.81966 3.10455 0
M  V30 16037 H 1459.43 -4.59273 3.86249 0
M  V30 16038 H 1460.5 -3.19571 3.64695 0
M  V30 16039 N 1461.84 -1.08266 -1.14527 0
M  V30 16040 C 1462.77 -0.669233 -2.19212 0
M  V30 16041 C 1463.79 0.282962 -1.60322 0
M  V30 16042 O 1464.97 0.0708403 -1.78359 0
M  V30 16043 C 1462.07 0.0362509 -3.38881 0
M  V30 16044 C 1461.25 -0.934477 -4.27301 0
M  V30 16045 C 1460.31 -0.264584 -5.25534 0
M  V30 16046 O 1459.33 -0.908543 -5.61902 0
M  V30 16047 N 1460.53 0.98609 -5.72063 0
M  V30 16048 H 1463.3 -1.56982 -2.55297 0
M  V30 16049 H 1460.86 -0.968551 -1.29733 0
M  V30 16050 H 1462.85 0.495309 -4.01658 0
M  V30 16051 H 1461.42 0.838913 -3.01133 0
M  V30 16052 H 1460.64 -1.57241 -3.61481 0
M  V30 16053 H 1461.93 -1.59232 -4.83242 0
M  V30 16054 H 1461.33 1.52904 -5.44644 0
M  V30 16055 H 1459.89 1.38867 -6.36835 0
M  V30 16056 N 1463.32 1.31536 -0.86811 0
M  V30 16057 C 1464.23 2.32326 -0.32588 0
M  V30 16058 C 1465.25 1.64632 0.563243 0
M  V30 16059 O 1466.42 1.96067 0.460403 0
M  V30 16060 C 1463.49 3.43562 0.46539 0
M  V30 16061 C 1462.55 4.26919 -0.451472 0
M  V30 16062 C 1461.78 5.32844 0.302129 0
M  V30 16063 O 1462 5.49485 1.53045 0
M  V30 16064 O 1460.94 6.00944 -0.339048 0
M  V30 16065 H 1464.76 2.80622 -1.16126 0
M  V30 16066 H 1462.35 1.35401 -0.631428 0
M  V30 16067 H 1464.23 4.11368 0.914028 0
M  V30 16068 H 1462.91 2.97432 1.27734 0
M  V30 16069 H 1461.81 3.61874 -0.948571 0
M  V30 16070 H 1463.15 4.7661 -1.22897 0
M  V30 16071 N 1464.8 0.627364 1.44575 0
M  V30 16072 C 1465.73 -0.118179 2.28895 0
M  V30 16073 C 1466.74 -0.812569 1.41071 0
M  V30 16074 O 1467.93 -0.674646 1.6526 0
M  V30 16075 C 1465.03 -1.18937 3.17344 0
M  V30 16076 C 1464.2 -0.578226 4.33561 0
M  V30 16077 C 1463.26 -1.54288 5.03072 0
M  V30 16078 O 1462.29 -1.06148 5.59215 0
M  V30 16079 N 1463.49 -2.87725 5.04177 0
M  V30 16080 H 1466.26 0.605442 2.93521 0
M  V30 16081 H 1463.82 0.468253 1.54981 0
M  V30 16082 H 1465.81 -1.83494 3.60711 0
M  V30 16083 H 1464.38 -1.81526 2.54494 0
M  V30 16084 H 1463.6 0.245883 3.93432 0
M  V30 16085 H 1464.89 -0.150502 5.08577 0
M  V30 16086 H 1464.29 -3.29421 4.5989 0
M  V30 16087 H 1462.84 -3.47653 5.51344 0
M  V30 16088 N 1466.28 -1.53251 0.367684 0
M  V30 16089 C 1467.21 -2.23396 -0.512539 0
M  V30 16090 C 1468.22 -1.2488 -1.04446 0
M  V30 16091 O 1469.41 -1.5109 -0.950477 0
M  V30 16092 C 1466.51 -2.91971 -1.72064 0
M  V30 16093 C 1465.68 -4.17011 -1.31986 0
M  V30 16094 C 1464.74 -4.68779 -2.39025 0
M  V30 16095 O 1463.77 -5.32405 -2.01328 0
M  V30 16096 N 1464.97 -4.46773 -3.7064 0
M  V30 16097 H 1467.73 -2.9957 0.0883152 0
M  V30 16098 H 1465.3 -1.60746 0.192966 0
M  V30 16099 H 1467.29 -3.23511 -2.43152 0
M  V30 16100 H 1465.86 -2.19237 -2.22831 0
M  V30 16101 H 1465.08 -3.91751 -0.438732 0
M  V30 16102 H 1466.37 -4.98298 -1.02842 0
M  V30 16103 H 1465.76 -3.95938 -4.04042 0
M  V30 16104 H 1464.32 -4.82857 -4.37827 0
M  V30 16105 N 1467.75 -0.0969077 -1.57302 0
M  V30 16106 C 1468.98 0.578086 -1.99181 0
M  V30 16107 C 1469.4 1.60818 -0.975667 0
M  V30 16108 O 1468.76 1.81215 0.0556054 0
M  V30 16109 C 1468.81 1.20076 -3.40021 0
M  V30 16110 O 1467.91 2.31656 -3.41188 0
M  V30 16111 H 1467.25 0.146506 -0.647636 0
M  V30 16112 H 1469.78 -0.178855 -2.03817 0
M  V30 16113 H 1469.79 1.54162 -3.77754 0
M  V30 16114 H 1468.47 0.446114 -4.135 0
M  V30 16115 H 1467.05 1.99175 -3.15252 0
M  V30 16116 N 1469.23 1.56605 0.176793 0
M  V30 16117 C 1470.48 1.81324 0.892535 0
M  V30 16118 C 1470.8 0.67301 1.83018 0
M  V30 16119 O 1470.07 -0.307498 1.93472 0
M  V30 16120 H 1468.65 0.668881 0.332576 0
M  V30 16121 H 1471.31 1.94086 0.17792 0
M  V30 16122 H 1470.41 2.75168 1.47272 0
M  V30 16123 N 1470.71 -0.445159 1.51182 0
M  V30 16124 C 1471.64 -1.5473 1.74874 0
M  V30 16125 C 1472.62 -1.5923 0.598323 0
M  V30 16126 O 1473.81 -1.75083 0.840219 0
M  V30 16127 C 1470.94 -2.92872 1.86664 0
M  V30 16128 C 1469.89 -3.03235 3.02048 0
M  V30 16129 C 1469.22 -4.43279 2.99012 0
M  V30 16130 C 1470.52 -2.7804 4.42144 0
M  V30 16131 H 1472.21 -1.35156 2.67158 0
M  V30 16132 H 1469.76 -0.648763 1.28558 0
M  V30 16133 H 1471.71 -3.69927 2.01822 0
M  V30 16134 H 1470.43 -3.1366 0.910225 0
M  V30 16135 H 1469.09 -2.28617 2.86583 0
M  V30 16136 H 1468.74 -4.61023 2.01163 0
M  V30 16137 H 1468.44 -4.51144 3.76488 0
M  V30 16138 H 1469.96 -5.22319 3.16252 0
M  V30 16139 H 1471.38 -3.44831 4.58 0
M  V30 16140 H 1469.77 -2.97323 5.21267 0
M  V30 16141 H 1470.84 -1.737 4.52721 0
M  V30 16142 N 1472.19 -1.41197 -0.700089 0
M  V30 16143 C 1473.42 -1.43449 -1.4868 0
M  V30 16144 C 1473.83 -0.0368799 -1.89164 0
M  V30 16145 O 1473.17 0.953129 -1.57039 0
M  V30 16146 C 1473.23 -2.27583 -2.78291 0
M  V30 16147 C 1472.89 -3.75805 -2.60038 0
M  V30 16148 C 1473.89 -4.68074 -2.2628 0
M  V30 16149 C 1471.58 -4.19796 -2.75819 0
M  V30 16150 C 1473.57 -6.02322 -2.08535 0
M  V30 16151 C 1471.26 -5.5411 -2.57692 0
M  V30 16152 C 1472.26 -6.45189 -2.24099 0
M  V30 16153 O 1471.94 -7.77025 -2.06125 0
M  V30 16154 H 1471.68 -0.490779 -0.464879 0
M  V30 16155 H 1474.23 -1.86071 -0.869864 0
M  V30 16156 H 1472.46 -1.79767 -3.42375 0
M  V30 16157 H 1474.15 -2.21591 -3.40077 0
M  V30 16158 H 1474.91 -4.35379 -2.13707 0
M  V30 16159 H 1470.79 -3.49213 -3.0095 0
M  V30 16160 H 1474.34 -6.73376 -1.82238 0
M  V30 16161 H 1470.23 -5.86386 -2.69854 0
M  V30 16162 H 1471 -7.88121 -2.20924 0
M  V30 16163 N 1473.67 0.933891 -1.2695 0
M  V30 16164 C 1474.9 1.71263 -1.15553 0
M  V30 16165 C 1475.3 1.86948 0.291059 0
M  V30 16166 O 1474.65 1.38173 1.21053 0
M  V30 16167 C 1474.71 3.13479 -1.75986 0
M  V30 16168 C 1474.37 3.21154 -3.2513 0
M  V30 16169 C 1475.37 3.03874 -4.21849 0
M  V30 16170 C 1473.05 3.44311 -3.65726 0
M  V30 16171 C 1475.05 3.09631 -5.57142 0
M  V30 16172 C 1472.74 3.49702 -5.01151 0
M  V30 16173 C 1473.73 3.32379 -5.96668 0
M  V30 16174 O 1473.42 3.37493 -7.29626 0
M  V30 16175 H 1473.15 0.542801 -0.402918 0
M  V30 16176 H 1475.71 1.17877 -1.68209 0
M  V30 16177 H 1473.94 3.6832 -1.178 0
M  V30 16178 H 1475.63 3.73295 -1.59391 0
M  V30 16179 H 1476.39 2.85832 -3.91823 0
M  V30 16180 H 1472.27 3.56847 -2.91859 0
M  V30 16181 H 1475.82 2.96028 -6.31675 0
M  V30 16182 H 1471.71 3.67267 -5.30835 0
M  V30 16183 H 1472.48 3.53988 -7.37994 0
M  V30 16184 N 1475.14 1.08871 1.13951 0
M  V30 16185 C 1476.07 0.744715 2.21306 0
M  V30 16186 C 1477.05 -0.275019 1.67862 0
M  V30 16187 O 1478.24 -0.144339 1.93663 0
M  V30 16188 C 1475.37 0.158336 3.46939 0
M  V30 16189 C 1474.32 1.10695 4.13438 0
M  V30 16190 C 1473.65 0.382552 5.3333 0
M  V30 16191 C 1474.95 2.44704 4.61429 0
M  V30 16192 H 1476.64 1.6423 2.50337 0
M  V30 16193 H 1474.19 0.791088 1.20324 0
M  V30 16194 H 1476.14 -0.0943587 4.21294 0
M  V30 16195 H 1474.87 -0.774413 3.17286 0
M  V30 16196 H 1473.53 1.34482 3.41043 0
M  V30 16197 H 1473.17 -0.554153 4.99938 0
M  V30 16198 H 1472.87 1.01499 5.78767 0
M  V30 16199 H 1474.4 0.138023 6.10444 0
M  V30 16200 H 1475.81 2.25156 5.27236 0
M  V30 16201 H 1474.21 3.03684 5.17586 0
M  V30 16202 H 1475.28 3.05883 3.76249 0
M  V30 16203 N 1476.62 -1.31073 0.875073 0
M  V30 16204 C 1477.85 -2.01223 0.502383 0
M  V30 16205 C 1478.27 -1.65223 -0.899053 0
M  V30 16206 O 1477.63 -0.863559 -1.59412 0
M  V30 16207 C 1477.68 -3.54269 0.672747 0
M  V30 16208 O 1476.78 -4.11409 -0.285718 0
M  V30 16209 H 1476.12 -0.633422 0.199181 0
M  V30 16210 H 1478.65 -1.67152 1.17989 0
M  V30 16211 H 1478.66 -4.04027 0.567973 0
M  V30 16212 H 1477.34 -3.79811 1.69459 0
M  V30 16213 H 1475.91 -3.72654 -0.135472 0
M  V30 16214 N 1478.1 -0.635022 -1.4424 0
M  V30 16215 C 1479.33 -0.14826 -2.06368 0
M  V30 16216 C 1479.74 1.17875 -1.47482 0
M  V30 16217 O 1479.1 1.72384 -0.599168 0
M  V30 16218 C 1479.15 -0.031519 -3.61486 0
M  V30 16219 O 1478.87 -1.30605 -4.18179 0
M  V30 16220 C 1480.37 0.483479 -4.40656 0
M  V30 16221 H 1477.59 -0.081472 -0.666036 0
M  V30 16222 H 1480.14 -0.870526 -1.85046 0
M  V30 16223 H 1478.29 0.641208 -3.82057 0
M  V30 16224 H 1478.71 -1.15341 -5.11661 0
M  V30 16225 H 1480.18 0.514164 -5.496 0
M  V30 16226 H 1480.66 1.51129 -4.12379 0
M  V30 16227 H 1481.26 -0.156131 -4.25013 0
M  V30 16228 N 1479.58 1.53054 -0.375806 0
M  V30 16229 C 1480.81 2.0582 0.211135 0
M  V30 16230 C 1481.22 1.24856 1.4162 0
M  V30 16231 O 1480.58 0.291786 1.80152 0
M  V30 16232 C 1480.63 3.56577 0.594573 0
M  V30 16233 O 1480.35 4.34472 -0.562607 0
M  V30 16234 C 1481.85 4.25639 1.23882 0
M  V30 16235 H 1479.07 0.670085 0.0350268 0
M  V30 16236 H 1481.62 1.9732 -0.537135 0
M  V30 16237 H 1479.77 3.65194 1.29275 0
M  V30 16238 H 1480.18 5.23902 -0.250487 0
M  V30 16239 H 1481.66 5.32408 1.45759 0
M  V30 16240 H 1482.14 3.80001 2.20218 0
M  V30 16241 H 1482.74 4.21302 0.581786 0
M  V30 16242 N 1481.06 0.105248 1.57248 0
M  V30 16243 C 1482.3 -0.556878 1.95004 0
M  V30 16244 C 1482.64 -1.672 0.987818 0
M  V30 16245 O 1481.91 -1.94487 0.022616 0
M  V30 16246 C 1482.19 -1.10252 3.42807 0
M  V30 16247 C 1482.05 0.00823908 4.49799 0
M  V30 16248 C 1483.37 -1.99774 3.92146 0
M  V30 16249 H 1480.48 -0.200959 0.709073 0
M  V30 16250 H 1483.13 0.178019 1.89164 0
M  V30 16251 H 1481.28 -1.7288 3.47915 0
M  V30 16252 H 1482.95 0.642944 4.56797 0
M  V30 16253 H 1481.19 0.673265 4.28544 0
M  V30 16254 H 1481.86 -0.414538 5.50441 0
M  V30 16255 H 1484.34 -1.47036 3.89255 0
M  V30 16256 H 1483.21 -2.34874 4.9611 0
M  V30 16257 H 1483.48 -2.91902 3.32033 0
M  V30 16258 N 1482.53 -1.56697 -0.168486 0
M  V30 16259 C 1483.48 -1.96628 -1.20855 0
M  V30 16260 C 1484.45 -0.830623 -1.4384 0
M  V30 16261 O 1485.64 -1.09097 -1.56533 0
M  V30 16262 C 1482.78 -2.3338 -2.5422 0
M  V30 16263 C 1481.89 -3.60137 -2.3859 0
M  V30 16264 C 1481.02 -3.86088 -3.64842 0
M  V30 16265 C 1480.06 -5.06184 -3.44157 0
M  V30 16266 N 1479.2 -5.28254 -4.62485 0
M  V30 16267 H 1484.04 -2.8529 -0.86102 0
M  V30 16268 H 1481.58 -1.41162 -0.413741 0
M  V30 16269 H 1483.54 -2.52711 -3.31953 0
M  V30 16270 H 1482.17 -1.47825 -2.86963 0
M  V30 16271 H 1481.22 -3.48704 -1.52019 0
M  V30 16272 H 1482.53 -4.48028 -2.19254 0
M  V30 16273 H 1481.68 -4.05802 -4.5101 0
M  V30 16274 H 1480.42 -2.96578 -3.8716 0
M  V30 16275 H 1479.43 -4.86366 -2.56376 0
M  V30 16276 H 1480.65 -5.97228 -3.23258 0
M  V30 16277 H 1478.6 -4.41695 -4.85017 0
M  V30 16278 H 1478.52 -6.10373 -4.46072 0
M  V30 16279 H 1479.78 -5.52448 -5.49928 0
M  V30 16280 N 1484.01 0.437135 -1.51416 0
M  V30 16281 C 1484.92 1.55581 -1.75589 0
M  V30 16282 C 1485.94 1.61797 -0.640132 0
M  V30 16283 O 1487.11 1.79035 -0.922406 0
M  V30 16284 C 1484.18 2.91561 -1.87598 0
M  V30 16285 C 1483.24 2.9546 -3.11451 0
M  V30 16286 C 1482.47 4.24954 -3.22878 0
M  V30 16287 O 1482.7 5.17341 -2.40238 0
M  V30 16288 O 1481.63 4.35141 -4.15856 0
M  V30 16289 H 1485.46 1.38098 -2.70486 0
M  V30 16290 H 1483.04 0.620163 -1.3592 0
M  V30 16291 H 1484.92 3.72262 -1.97481 0
M  V30 16292 H 1483.6 3.09171 -0.958889 0
M  V30 16293 H 1482.51 2.13713 -3.07046 0
M  V30 16294 H 1483.84 2.82794 -4.0285 0
M  V30 16295 N 1485.49 1.41566 0.692592 0
M  V30 16296 C 1486.42 1.38067 1.81694 0
M  V30 16297 C 1487.4 0.247482 1.60706 0
M  V30 16298 O 1488.59 0.43487 1.83415 0
M  V30 16299 C 1485.71 1.15438 3.18421 0
M  V30 16300 C 1484.76 2.31515 3.58194 0
M  V30 16301 S 1485.59 3.94003 3.6266 0
M  V30 16302 C 1486.75 3.73683 5.02108 0
M  V30 16303 H 1486.98 2.33215 1.84386 0
M  V30 16304 H 1484.51 1.28125 0.861585 0
M  V30 16305 H 1486.47 1.03069 3.9735 0
M  V30 16306 H 1485.13 0.219055 3.13335 0
M  V30 16307 H 1484.33 2.11383 4.57529 0
M  V30 16308 H 1483.93 2.40307 2.86581 0
M  V30 16309 H 1486.22 3.33573 5.89691 0
M  V30 16310 H 1487.16 4.72631 5.27281 0
M  V30 16311 H 1487.57 3.06899 4.73786 0
M  V30 16312 N 1486.97 -0.927146 1.27443 0
M  V30 16313 C 1488.19 -1.71426 1.16739 0
M  V30 16314 C 1488.62 -1.86122 -0.272063 0
M  V30 16315 O 1487.98 -1.36165 -1.19703 0
M  V30 16316 C 1488.02 -3.09131 1.85661 0
M  V30 16317 O 1487.13 -3.95897 1.15495 0
M  V30 16318 H 1486.47 -0.525428 0.405983 0
M  V30 16319 H 1489 -1.16022 1.68523 0
M  V30 16320 H 1489.01 -3.59442 1.93042 0
M  V30 16321 H 1487.68 -2.97752 2.90373 0
M  V30 16322 H 1486.26 -3.54337 1.16187 0
M  V30 16323 N 1488.45 -1.09474 -1.13372 0
M  V30 16324 C 1489.39 -0.73458 -2.18798 0
M  V30 16325 C 1490.36 0.284433 -1.63647 0
M  V30 16326 O 1491.55 0.165958 -1.90077 0
M  V30 16327 C 1488.69 -0.161826 -3.4472 0
M  V30 16328 C 1487.8 -1.23494 -4.13973 0
M  V30 16329 C 1486.94 -0.624886 -5.27512 0
M  V30 16330 C 1485.98 -1.67927 -5.88614 0
M  V30 16331 N 1485.11 -1.09021 -6.93584 0
M  V30 16332 H 1489.95 -1.63787 -2.48954 0
M  V30 16333 H 1487.49 -0.818297 -1.22239 0
M  V30 16334 H 1489.45 0.188053 -4.16776 0
M  V30 16335 H 1488.08 0.70473 -3.15013 0
M  V30 16336 H 1487.13 -1.70209 -3.40196 0
M  V30 16337 H 1488.44 -2.0335 -4.55467 0
M  V30 16338 H 1487.6 -0.22388 -6.06287 0
M  V30 16339 H 1486.33 0.205214 -4.87268 0
M  V30 16340 H 1485.34 -2.08982 -5.08534 0
M  V30 16341 H 1486.56 -2.51204 -6.3093 0
M  V30 16342 H 1484.51 -0.281401 -6.55396 0
M  V30 16343 H 1484.43 -1.82573 -7.33623 0
M  V30 16344 H 1485.7 -0.715428 -7.7621 0
M  V30 16345 N 1489.92 1.30607 -0.882012 0
M  V30 16346 C 1490.87 2.2821 -0.344826 0
M  V30 16347 C 1491.84 1.56254 0.563361 0
M  V30 16348 O 1493.03 1.84336 0.492416 0
M  V30 16349 C 1490.17 3.42319 0.437216 0
M  V30 16350 C 1489.28 4.29098 -0.499851 0
M  V30 16351 C 1488.41 5.30366 0.297497 0
M  V30 16352 C 1487.45 6.08795 -0.63523 0
M  V30 16353 N 1486.59 7.01986 0.12661 0
M  V30 16354 H 1491.43 2.73543 -1.18229 0
M  V30 16355 H 1488.97 1.34556 -0.594392 0
M  V30 16356 H 1490.93 4.07232 0.906521 0
M  V30 16357 H 1489.56 2.98063 1.23928 0
M  V30 16358 H 1488.61 3.6452 -1.08764 0
M  V30 16359 H 1489.92 4.83787 -1.21454 0
M  V30 16360 H 1489.07 6.01013 0.828786 0
M  V30 16361 H 1487.81 4.76364 1.04542 0
M  V30 16362 H 1486.82 5.37028 -1.17817 0
M  V30 16363 H 1488.04 6.64885 -1.3822 0
M  V30 16364 H 1485.99 6.50376 0.857125 0
M  V30 16365 H 1485.91 7.5415 -0.528512 0
M  V30 16366 H 1487.17 7.76879 0.638738 0
M  V30 16367 N 1491.4 0.642663 1.43901 0
M  V30 16368 C 1492.37 -0.0457858 2.29154 0
M  V30 16369 C 1493.37 -0.760988 1.41653 0
M  V30 16370 O 1494.56 -0.603832 1.634 0
M  V30 16371 C 1491.69 -1.07552 3.23489 0
M  V30 16372 H 1492.88 0.704193 2.91515 0
M  V30 16373 H 1490.43 0.403361 1.51006 0
M  V30 16374 H 1491.17 -1.85509 2.66002 0
M  V30 16375 H 1490.95 -0.566468 3.87987 0
M  V30 16376 H 1492.44 -1.55663 3.87503 0
M  V30 16377 N 1492.88 -1.52852 0.383918 0
M  V30 16378 C 1494.29 -1.86477 -0.0912997 0
M  V30 16379 C 1494.64 -1.30382 -1.46611 0
M  V30 16380 O 1493.77 -0.633042 -2.06934 0
M  V30 16381 C 1494.36 -3.38361 -0.172447 0
M  V30 16382 C 1492.92 -3.71716 -0.591948 0
M  V30 16383 C 1492.07 -2.76176 0.24945 0
M  V30 16384 H 1495.02 -1.46839 0.602006 0
M  V30 16385 H 1495.04 -3.67325 -0.992603 0
M  V30 16386 H 1494.55 -3.79158 0.8283 0
M  V30 16387 H 1492.65 -3.36486 -1.60026 0
M  V30 16388 H 1492.77 -4.77792 -0.353835 0
M  V30 16389 H 1491.13 -2.53106 -0.284469 0
M  V30 16390 H 1491.91 -3.19809 1.24808 0
M  V30 16391 N 1494.36 -0.113586 -1.5719 0
M  V30 16392 C 1495.58 0.556928 -1.99783 0
M  V30 16393 C 1496.01 1.59774 -0.992669 0
M  V30 16394 O 1495.37 1.81263 0.0363821 0
M  V30 16395 C 1495.42 1.16463 -3.41275 0
M  V30 16396 O 1494.52 2.28024 -3.43626 0
M  V30 16397 H 1493.86 0.139628 -0.649153 0
M  V30 16398 H 1496.39 -0.200462 -2.03616 0
M  V30 16399 H 1496.4 1.50147 -3.79368 0
M  V30 16400 H 1495.08 0.402232 -4.1395 0
M  V30 16401 H 1493.65 1.9582 -3.17347 0
M  V30 16402 N 1495.84 1.56784 0.160173 0
M  V30 16403 C 1496.75 2.00514 1.21783 0
M  V30 16404 C 1497.76 0.918341 1.47792 0
M  V30 16405 O 1498.94 1.22683 1.59721 0
M  V30 16406 C 1496 2.36575 2.53443 0
M  V30 16407 C 1495.07 3.59138 2.35198 0
M  V30 16408 C 1494.3 3.93469 3.6058 0
M  V30 16409 O 1494.52 3.28625 4.6622 0
M  V30 16410 O 1493.46 4.86774 3.54027 0
M  V30 16411 H 1497.28 2.90774 0.876607 0
M  V30 16412 H 1494.87 1.44799 0.367897 0
M  V30 16413 H 1496.75 2.60687 3.31089 0
M  V30 16414 H 1495.42 1.49474 2.87122 0
M  V30 16415 H 1494.33 3.4023 1.55546 0
M  V30 16416 H 1495.66 4.46815 2.0644 0
M  V30 16417 N 1497.32 -0.429099 1.51646 0
M  V30 16418 C 1498.56 -1.17482 1.63954 0
M  V30 16419 C 1498.88 -1.92152 0.36565 0
M  V30 16420 O 1500.08 -2.68991 0.368221 0
M  V30 16421 C 1498.54 -2.13703 2.89585 0
M  V30 16422 C 1498.15 -1.44642 4.24008 0
M  V30 16423 C 1499.89 -2.88657 3.11252 0
M  V30 16424 C 1497.8 -2.39395 5.40781 0
M  V30 16425 H 1496.73 -0.442234 0.610692 0
M  V30 16426 H 1499.38 -0.441088 1.7812 0
M  V30 16427 H 1497.76 -2.90545 2.69071 0
M  V30 16428 H 1498.94 -0.733012 4.54932 0
M  V30 16429 H 1497.25 -0.818084 4.08285 0
M  V30 16430 H 1499.85 -3.59653 3.95669 0
M  V30 16431 H 1500.19 -3.50473 2.24664 0
M  V30 16432 H 1500.72 -2.18919 3.32144 0
M  V30 16433 H 1497.46 -1.82255 6.29653 0
M  V30 16434 H 1496.98 -3.08766 5.14222 0
M  V30 16435 H 1498.66 -3.0035 5.73061 0
M  V30 16436 N 1498.79 -1.41931 -0.685074 0
M  V30 16437 C 1500.02 -1.45432 -1.47866 0
M  V30 16438 C 1500.44 -0.0641302 -1.87991 0
M  V30 16439 O 1499.8 0.935081 -1.55325 0
M  V30 16440 C 1499.85 -2.37801 -2.71077 0
M  V30 16441 O 1498.95 -1.84229 -3.68963 0
M  V30 16442 H 1498.29 -0.493156 -0.444627 0
M  V30 16443 H 1500.82 -1.86508 -0.841177 0
M  V30 16444 H 1500.83 -2.54033 -3.19266 0
M  V30 16445 H 1499.51 -3.38807 -2.41211 0
M  V30 16446 H 1498.09 -1.775 -3.27945 0
M  V30 16447 N 1500.27 0.920374 -1.27933 0
M  V30 16448 C 1501.69 1.19761 -1.05496 0
M  V30 16449 C 1501.89 2.00435 0.206864 0
M  V30 16450 O 1500.94 2.35518 0.910356 0
M  V30 16451 C 1502.26 1.93863 -2.29864 0
M  V30 16452 C 1503.8 2.06773 -2.34976 0
M  V30 16453 C 1504.28 2.84282 -3.59093 0
M  V30 16454 N 1505.77 2.91847 -3.59694 0
M  V30 16455 C 1506.51 3.52303 -4.52404 0
M  V30 16456 N 1506 4.14092 -5.55427 0
M  V30 16457 N 1507.79 3.49778 -4.40013 0
M  V30 16458 H 1499.95 0.381596 -2.08944 0
M  V30 16459 H 1502.21 0.231451 -0.919312 0
M  V30 16460 H 1501.91 1.42008 -3.21756 0
M  V30 16461 H 1501.79 2.94446 -2.35757 0
M  V30 16462 H 1504.18 2.57812 -1.43586 0
M  V30 16463 H 1504.26 1.05388 -2.33082 0
M  V30 16464 H 1503.9 2.33925 -4.50823 0
M  V30 16465 H 1503.83 3.85968 -3.5824 0
M  V30 16466 H 1506.32 2.4794 -2.85191 0
M  V30 16467 H 1506.63 4.58183 -6.22325 0
M  V30 16468 H 1504.98 4.12616 -5.59261 0
M  V30 16469 H 1508.17 3.00712 -3.58733 0
M  V30 16470 H 1508.34 3.96603 -5.12455 0
M  V30 16471 N 1501.75 1.10074 1.1279 0
M  V30 16472 C 1502.7 0.746173 2.18405 0
M  V30 16473 C 1503.67 -0.275751 1.63795 0
M  V30 16474 O 1504.85 -0.155876 1.90162 0
M  V30 16475 C 1501.99 0.180105 3.4463 0
M  V30 16476 C 1501.1 1.25688 4.13312 0
M  V30 16477 C 1500.24 0.652852 5.27173 0
M  V30 16478 C 1499.28 1.71046 5.87716 0
M  V30 16479 N 1498.42 1.12698 6.92996 0
M  V30 16480 H 1503.26 1.65105 2.48081 0
M  V30 16481 H 1500.79 0.824768 1.21803 0
M  V30 16482 H 1502.75 -0.165948 4.1687 0
M  V30 16483 H 1501.38 -0.688014 3.15383 0
M  V30 16484 H 1500.43 1.72011 3.39288 0
M  V30 16485 H 1501.74 2.05762 4.54382 0
M  V30 16486 H 1500.9 0.25603 6.0616 0
M  V30 16487 H 1499.64 -0.17937 4.8737 0
M  V30 16488 H 1498.64 2.11676 5.07418 0
M  V30 16489 H 1499.87 2.54547 6.29589 0
M  V30 16490 H 1497.81 0.316154 6.55238 0
M  V30 16491 H 1497.73 1.86461 7.32645 0
M  V30 16492 H 1499 0.756582 7.7582 0
M  V30 16493 N 1503.23 -1.30138 0.888926 0
M  V30 16494 C 1504.46 -1.99853 0.523676 0
M  V30 16495 C 1504.87 -1.66783 -0.893312 0
M  V30 16496 O 1504.21 -0.903292 -1.59957 0
M  V30 16497 C 1504.27 -3.54055 0.623332 0
M  V30 16498 C 1503.93 -4.10652 2.00534 0
M  V30 16499 C 1504.93 -4.26353 2.97522 0
M  V30 16500 C 1502.62 -4.45938 2.3118 0
M  V30 16501 C 1504.61 -4.76557 4.23288 0
M  V30 16502 C 1502.3 -4.95841 3.57191 0
M  V30 16503 C 1503.3 -5.11103 4.53059 0
M  V30 16504 O 1502.98 -5.59927 5.76833 0
M  V30 16505 H 1502.72 -0.645553 0.200591 0
M  V30 16506 H 1505.27 -1.66899 1.19724 0
M  V30 16507 H 1503.5 -3.86551 -0.107221 0
M  V30 16508 H 1505.19 -4.05009 0.26879 0
M  V30 16509 H 1505.95 -3.9939 2.75159 0
M  V30 16510 H 1501.83 -4.33324 1.57326 0
M  V30 16511 H 1505.38 -4.88385 4.98123 0
M  V30 16512 H 1501.27 -5.22239 3.7939 0
M  V30 16513 H 1502.04 -5.78263 5.79271 0
M  V30 16514 N 1504.71 -0.650285 -1.43559 0
M  V30 16515 C 1505.64 0.0817484 -2.29054 0
M  V30 16516 C 1506.65 0.790023 -1.42346 0
M  V30 16517 O 1507.84 0.648269 -1.66312 0
M  V30 16518 C 1504.94 1.13873 -3.19196 0
M  V30 16519 C 1504.11 0.509177 -4.34426 0
M  V30 16520 C 1503.17 1.46265 -5.05463 0
M  V30 16521 O 1502.2 0.972378 -5.60833 0
M  V30 16522 N 1503.4 2.79668 -5.08691 0
M  V30 16523 H 1506.16 -0.652062 -2.92521 0
M  V30 16524 H 1503.73 -0.49285 -1.54216 0
M  V30 16525 H 1505.72 1.77732 -3.63584 0
M  V30 16526 H 1504.29 1.77454 -2.5735 0
M  V30 16527 H 1503.51 -0.308444 -3.92991 0
M  V30 16528 H 1504.8 0.0695732 -5.08752 0
M  V30 16529 H 1504.19 3.22062 -4.65072 0
M  V30 16530 H 1502.75 3.38838 -5.56805 0
M  V30 16531 N 1506.18 1.52647 -0.392018 0
M  V30 16532 C 1507.41 2.06511 0.191815 0
M  V30 16533 C 1507.83 1.26162 1.39516 0
M  V30 16534 O 1507.19 0.287373 1.79008 0
M  V30 16535 C 1507.24 3.56571 0.537512 0
M  V30 16536 O 1506.34 3.78774 1.63106 0
M  V30 16537 H 1505.68 0.663647 0.0216546 0
M  V30 16538 H 1508.21 1.96779 -0.560274 0
M  V30 16539 H 1508.22 4.00059 0.801044 0
M  V30 16540 H 1506.9 4.14489 -0.342239 0
M  V30 16541 H 1505.48 3.47175 1.36103 0
M  V30 16542 N 1507.66 0.121921 1.57128 0
M  V30 16543 C 1508.57 -0.840825 2.19014 0
M  V30 16544 C 1509.59 -1.29051 1.16712 0
M  V30 16545 O 1510.76 -1.35289 1.49194 0
M  V30 16546 C 1507.83 -2.07204 2.7797 0
M  V30 16547 C 1506.89 -1.67399 3.95318 0
M  V30 16548 C 1506.12 -2.84652 4.51452 0
M  V30 16549 O 1506.35 -4.00161 4.06482 0
M  V30 16550 O 1505.28 -2.61568 5.42094 0
M  V30 16551 H 1509.11 -0.344146 3.01744 0
M  V30 16552 H 1506.69 -0.103841 1.49039 0
M  V30 16553 H 1508.57 -2.79307 3.1554 0
M  V30 16554 H 1507.25 -2.55872 1.9827 0
M  V30 16555 H 1506.16 -0.92395 3.62511 0
M  V30 16556 H 1507.49 -1.2347 4.76462 0
M  V30 16557 N 1509.14 -1.56867 -0.151857 0
M  V30 16558 C 1510.39 -1.83082 -0.865285 0
M  V30 16559 C 1510.72 -0.702056 -1.81387 0
M  V30 16560 O 1509.97 0.309291 -1.9324 0
M  V30 16561 C 1510.27 -3.15597 -1.6773 0
M  V30 16562 C 1509.94 -4.4231 -0.875929 0
M  V30 16563 C 1508.6 -4.76724 -0.654826 0
M  V30 16564 C 1510.95 -5.20246 -0.315162 0
M  V30 16565 C 1508.28 -5.86538 0.13783 0
M  V30 16566 C 1510.63 -6.30892 0.464508 0
M  V30 16567 C 1509.29 -6.63859 0.696233 0
M  V30 16568 H 1508.56 -0.669945 -0.31663 0
M  V30 16569 H 1511.21 -1.91064 -0.129175 0
M  V30 16570 H 1509.52 -3.03044 -2.48338 0
M  V30 16571 H 1511.21 -3.33094 -2.23269 0
M  V30 16572 H 1507.8 -4.15328 -1.05832 0
M  V30 16573 H 1511.99 -4.94038 -0.473273 0
M  V30 16574 H 1507.24 -6.10525 0.32691 0
M  V30 16575 H 1511.42 -6.90479 0.906187 0
M  V30 16576 H 1509.04 -7.48788 1.3123 0
M  V30 16577 N 1510.62 0.421051 -1.51871 0
M  V30 16578 C 1511.53 1.5371 -1.7723 0
M  V30 16579 C 1512.54 1.61109 -0.657256 0
M  V30 16580 O 1513.72 1.78047 -0.941343 0
M  V30 16581 C 1510.79 2.89555 -1.9068 0
M  V30 16582 C 1509.85 2.9214 -3.14567 0
M  V30 16583 C 1509.08 4.21505 -3.27367 0
M  V30 16584 O 1509.3 5.14764 -2.45712 0
M  V30 16585 O 1508.24 4.30706 -4.20448 0
M  V30 16586 H 1512.06 1.35221 -2.71935 0
M  V30 16587 H 1509.65 0.605712 -1.3657 0
M  V30 16588 H 1511.53 3.70147 -2.01418 0
M  V30 16589 H 1510.2 3.08137 -0.991627 0
M  V30 16590 H 1509.11 2.10444 -3.09296 0
M  V30 16591 H 1510.44 2.78505 -4.05827 0
M  V30 16592 N 1512.1 1.42293 0.677538 0
M  V30 16593 C 1513.01 1.47953 1.82063 0
M  V30 16594 C 1514.02 0.36851 1.70053 0
M  V30 16595 O 1515.2 0.618996 1.91652 0
M  V30 16596 C 1512.26 1.3769 3.18186 0
M  V30 16597 C 1511.32 2.59261 3.42173 0
M  V30 16598 C 1510.56 2.49478 4.71801 0
M  V30 16599 O 1510.78 1.52915 5.49521 0
M  V30 16600 O 1509.71 3.39562 4.96972 0
M  V30 16601 H 1513.54 2.4443 1.80244 0
M  V30 16602 H 1511.13 1.24027 0.832932 0
M  V30 16603 H 1513.01 1.34319 3.9942 0
M  V30 16604 H 1511.68 0.443377 3.20649 0
M  V30 16605 H 1510.59 2.68207 2.60798 0
M  V30 16606 H 1511.92 3.51503 3.44538 0
M  V30 16607 N 1513.57 -0.913576 1.28419 0
M  V30 16608 C 1514.82 -1.65731 1.14961 0
M  V30 16609 C 1515.14 -1.93269 -0.301079 0
M  V30 16610 O 1516.34 -2.6573 -0.556778 0
M  V30 16611 C 1514.8 -2.98562 2.00969 0
M  V30 16612 C 1514.41 -2.78671 3.5078 0
M  V30 16613 C 1516.15 -3.76439 1.96198 0
M  V30 16614 C 1514.06 -4.07144 4.28938 0
M  V30 16615 H 1512.99 -0.621681 0.426648 0
M  V30 16616 H 1515.64 -1.0138 1.52952 0
M  V30 16617 H 1514.02 -3.64049 1.55835 0
M  V30 16618 H 1515.19 -2.21864 4.03873 0
M  V30 16619 H 1513.51 -2.14206 3.57078 0
M  V30 16620 H 1516.11 -4.71668 2.51861 0
M  V30 16621 H 1516.45 -4.05577 0.938771 0
M  V30 16622 H 1516.98 -3.17772 2.39303 0
M  V30 16623 H 1513.72 -3.83178 5.31841 0
M  V30 16624 H 1513.24 -4.63562 3.80619 0
M  V30 16625 H 1514.92 -4.754 4.38866 0
M  V30 16626 N 1515.05 -1.1067 -1.12204 0
M  V30 16627 C 1515.96 -0.770221 -2.21596 0
M  V30 16628 C 1516.98 0.233297 -1.72429 0
M  V30 16629 O 1518.15 0.0714493 -2.01273 0
M  V30 16630 C 1515.22 -0.209682 -3.46065 0
M  V30 16631 C 1514.28 -1.27079 -4.1006 0
M  V30 16632 C 1513.51 -0.736899 -5.28588 0
M  V30 16633 O 1513.74 0.435838 -5.68732 0
M  V30 16634 O 1512.67 -1.49797 -5.82962 0
M  V30 16635 H 1516.5 -1.6834 -2.52776 0
M  V30 16636 H 1514.08 -0.882012 -1.20586 0
M  V30 16637 H 1515.96 0.0989516 -4.21284 0
M  V30 16638 H 1514.64 0.676316 -3.16556 0
M  V30 16639 H 1513.55 -1.63231 -3.3661 0
M  V30 16640 H 1514.88 -2.12989 -4.4373 0
M  V30 16641 N 1516.53 1.29665 -0.895815 0
M  V30 16642 C 1517.78 1.9533 -0.518725 0
M  V30 16643 C 1518.1 1.70995 0.937322 0
M  V30 16644 O 1517.37 1.03955 1.66043 0
M  V30 16645 H 1515.95 0.722736 -0.188841 0
M  V30 16646 H 1518.61 1.57991 -1.14126 0
M  V30 16647 H 1517.71 3.04193 -0.698057 0
M  V30 16648 N 1518.01 0.657889 1.43212 0
M  V30 16649 C 1519.42 0.325876 1.56238 0
M  V30 16650 C 1519.62 -1.16975 1.6407 0
M  V30 16651 O 1518.68 -1.95473 1.59833 0
M  V30 16652 C 1519.99 1.04134 2.82093 0
M  V30 16653 C 1521.54 1.02204 2.95844 0
M  V30 16654 C 1522.02 1.71849 4.24537 0
M  V30 16655 N 1523.51 1.68635 4.31412 0
M  V30 16656 C 1524.24 2.19393 5.29768 0
M  V30 16657 N 1523.74 2.7846 6.34375 0
M  V30 16658 N 1525.53 2.09866 5.21452 0
M  V30 16659 H 1517.68 1.62839 1.36371 0
M  V30 16660 H 1519.95 0.685072 0.655271 0
M  V30 16661 H 1519.65 2.09647 2.82385 0
M  V30 16662 H 1519.53 0.595842 3.72464 0
M  V30 16663 H 1521.91 -0.0247029 2.9509 0
M  V30 16664 H 1521.99 1.50627 2.06749 0
M  V30 16665 H 1521.64 2.76482 4.26052 0
M  V30 16666 H 1521.57 1.20888 5.12536 0
M  V30 16667 H 1524.06 1.25536 3.56439 0
M  V30 16668 H 1524.37 3.14855 7.05752 0
M  V30 16669 H 1522.72 2.82523 6.34985 0
M  V30 16670 H 1525.91 1.63422 4.38647 0
M  V30 16671 H 1526.08 2.49732 5.97945 0
M  V30 16672 N 1519.49 -1.52437 0.400108 0
M  V30 16673 C 1520.73 -2.02677 -0.171293 0
M  V30 16674 C 1521.09 -1.28088 -1.43566 0
M  V30 16675 O 1520.38 -0.37592 -1.87876 0
M  V30 16676 C 1520.57 -3.54133 -0.482141 0
M  V30 16677 C 1520.4 -4.43392 0.750551 0
M  V30 16678 C 1519.17 -4.89 1.27306 0
M  V30 16679 C 1521.37 -4.87918 1.62604 0
M  V30 16680 N 1519.35 -5.62361 2.46217 0
M  V30 16681 C 1520.72 -5.59969 2.66148 0
M  V30 16682 C 1522.78 -4.69945 1.64486 0
M  V30 16683 C 1521.48 -6.15955 3.71473 0
M  V30 16684 C 1523.51 -5.26821 2.68725 0
M  V30 16685 C 1522.87 -5.98787 3.7099 0
M  V30 16686 H 1518.97 -0.781617 -0.0244842 0
M  V30 16687 H 1521.55 -1.86698 0.552429 0
M  V30 16688 H 1519.72 -3.70203 -1.17491 0
M  V30 16689 H 1521.46 -3.91065 -1.04164 0
M  V30 16690 H 1518.21 -4.66227 0.832434 0
M  V30 16691 H 1518.64 -6.03688 3.06414 0
M  V30 16692 H 1523.28 -4.13801 0.867657 0
M  V30 16693 H 1521 -6.71175 4.50055 0
M  V30 16694 H 1524.58 -5.14789 2.71078 0
M  V30 16695 H 1523.46 -6.4201 4.50325 0
M  V30 16696 N 1520.96 -0.130252 -1.57061 0
M  V30 16697 C 1521.91 0.815767 -2.15902 0
M  V30 16698 C 1522.88 1.2558 -1.08715 0
M  V30 16699 O 1524.07 1.33132 -1.36677 0
M  V30 16700 C 1521.21 2.0561 -2.77162 0
M  V30 16701 C 1520.32 1.6634 -3.98692 0
M  V30 16702 C 1519.45 2.85425 -4.48002 0
M  V30 16703 C 1518.49 2.42449 -5.62036 0
M  V30 16704 N 1517.63 3.54486 -6.0604 0
M  V30 16705 H 1522.47 0.307164 -2.96413 0
M  V30 16706 H 1520.01 0.139913 -1.46433 0
M  V30 16707 H 1521.97 2.78298 -3.10815 0
M  V30 16708 H 1520.6 2.5391 -1.99323 0
M  V30 16709 H 1519.65 0.834817 -3.71127 0
M  V30 16710 H 1520.96 1.30765 -4.81354 0
M  V30 16711 H 1520.11 3.66325 -4.83623 0
M  V30 16712 H 1518.85 3.24235 -3.64312 0
M  V30 16713 H 1517.86 1.59985 -5.26008 0
M  V30 16714 H 1519.08 2.04744 -6.475 0
M  V30 16715 H 1517.03 3.92948 -5.25289 0
M  V30 16716 H 1516.95 3.22871 -6.83586 0
M  V30 16717 H 1518.21 4.35792 -6.46302 0
M  V30 16718 N 1522.44 1.56945 0.143535 0
M  V30 16719 C 1523.39 1.98526 1.17711 0
M  V30 16720 C 1524.36 0.853402 1.425 0
M  V30 16721 O 1525.55 1.11574 1.54777 0
M  V30 16722 C 1522.69 2.37395 2.50475 0
M  V30 16723 C 1521.8 3.63887 2.32831 0
M  V30 16724 C 1520.93 3.91844 3.58653 0
M  V30 16725 C 1519.97 5.11595 3.36061 0
M  V30 16726 N 1519.11 5.35545 4.54022 0
M  V30 16727 H 1523.95 2.86624 0.815524 0
M  V30 16728 H 1521.49 1.41802 0.391231 0
M  V30 16729 H 1523.44 2.5796 3.27891 0
M  V30 16730 H 1522.07 1.52372 2.84575 0
M  V30 16731 H 1521.13 3.51078 1.46452 0
M  V30 16732 H 1522.44 4.51459 2.12098 0
M  V30 16733 H 1521.59 4.12926 4.44497 0
M  V30 16734 H 1520.33 3.027 3.82393 0
M  V30 16735 H 1519.34 4.90383 2.48606 0
M  V30 16736 H 1520.56 6.02295 3.13716 0
M  V30 16737 H 1518.51 4.49355 4.77929 0
M  V30 16738 H 1518.42 6.17393 4.36305 0
M  V30 16739 H 1519.69 5.61127 5.4107 0
M  V30 16740 N 1523.92 -0.412991 1.52093 0
M  V30 16741 C 1524.85 -1.50986 1.78117 0
M  V30 16742 C 1525.83 -1.57925 0.631963 0
M  V30 16743 O 1527.02 -1.73261 0.877168 0
M  V30 16744 C 1524.15 -2.88846 1.92835 0
M  V30 16745 C 1523.1 -2.96759 3.08412 0
M  V30 16746 C 1522.43 -4.36837 3.08347 0
M  V30 16747 C 1523.73 -2.68599 4.47942 0
M  V30 16748 H 1525.42 -1.29459 2.69964 0
M  V30 16749 H 1522.97 -0.621348 1.29905 0
M  V30 16750 H 1524.92 -3.65563 2.09623 0
M  V30 16751 H 1523.64 -3.11658 0.976553 0
M  V30 16752 H 1522.3 -2.22487 2.91368 0
M  V30 16753 H 1521.95 -4.56652 2.10897 0
M  V30 16754 H 1521.65 -4.43056 3.85973 0
M  V30 16755 H 1523.18 -5.15493 3.2726 0
M  V30 16756 H 1524.59 -3.35039 4.65212 0
M  V30 16757 H 1522.99 -2.86199 5.27456 0
M  V30 16758 H 1524.06 -1.64058 4.56304 0
M  V30 16759 N 1525.4 -1.4265 -0.669982 0
M  V30 16760 C 1526.62 -1.46992 -1.46315 0
M  V30 16761 C 1527.05 -0.0840655 -1.87912 0
M  V30 16762 O 1526.41 0.918554 -1.56308 0
M  V30 16763 C 1526.46 -2.40663 -2.6854 0
M  V30 16764 O 1525.56 -1.88132 -3.66988 0
M  V30 16765 H 1524.9 -0.497844 -0.439372 0
M  V30 16766 H 1527.43 -1.8739 -0.821348 0
M  V30 16767 H 1527.44 -2.57405 -3.16554 0
M  V30 16768 H 1526.12 -3.41346 -2.37604 0
M  V30 16769 H 1524.69 -1.80969 -3.26044 0
M  V30 16770 N 1526.88 0.906753 -1.28902 0
M  V30 16771 C 1528.1 1.69547 -1.19452 0
M  V30 16772 C 1528.53 1.86531 0.242418 0
M  V30 16773 O 1527.89 1.38052 1.17521 0
M  V30 16774 C 1527.93 3.06139 -1.90556 0
M  V30 16775 O 1527.04 3.9401 -1.21779 0
M  V30 16776 H 1526.38 0.518902 -0.41429 0
M  V30 16777 H 1528.91 1.13327 -1.70347 0
M  V30 16778 H 1528.92 3.56326 -1.98736 0
M  V30 16779 H 1527.59 2.93094 -2.95074 0
M  V30 16780 H 1526.17 3.52444 -1.2181 0
M  V30 16781 N 1528.36 1.11264 1.11616 0
M  V30 16782 C 1529.29 0.727118 2.17361 0
M  V30 16783 C 1530.3 -0.240356 1.61016 0
M  V30 16784 O 1531.49 -0.0235265 1.78484 0
M  V30 16785 C 1528.59 0.05361 3.38858 0
M  V30 16786 C 1527.76 1.04744 4.24673 0
M  V30 16787 C 1526.82 0.403827 5.24648 0
M  V30 16788 O 1525.85 1.0572 5.59296 0
M  V30 16789 N 1527.05 -0.834071 5.74477 0
M  V30 16790 H 1529.81 1.63696 2.51045 0
M  V30 16791 H 1527.38 1.00261 1.2712 0
M  V30 16792 H 1529.37 -0.388643 4.0283 0
M  V30 16793 H 1527.94 -0.758778 3.03251 0
M  V30 16794 H 1527.16 1.6677 3.57185 0
M  V30 16795 H 1528.45 1.71988 4.7885 0
M  V30 16796 H 1527.84 -1.3841 5.48506 0
M  V30 16797 H 1526.4 -1.21933 6.40293 0
M  V30 16798 N 1529.83 -1.29188 0.902679 0
M  V30 16799 C 1530.76 -2.3006 0.399357 0
M  V30 16800 C 1531.74 -1.61724 -0.527199 0
M  V30 16801 O 1532.93 -1.89213 -0.437293 0
M  V30 16802 C 1530.06 -3.45309 -0.371331 0
M  V30 16803 C 1529.01 -4.25466 0.465068 0
M  V30 16804 C 1528.34 -5.32941 -0.433295 0
M  V30 16805 C 1529.64 -4.93287 1.71655 0
M  V30 16806 H 1531.33 -2.72409 1.24233 0
M  V30 16807 H 1528.88 -1.30958 0.598822 0
M  V30 16808 H 1530.83 -4.14955 -0.734207 0
M  V30 16809 H 1529.56 -3.01811 -1.24811 0
M  V30 16810 H 1528.22 -3.57532 0.810315 0
M  V30 16811 H 1527.86 -4.85688 -1.3083 0
M  V30 16812 H 1527.56 -5.87472 0.122657 0
M  V30 16813 H 1529.09 -6.05438 -0.792298 0
M  V30 16814 H 1530.5 -5.55353 1.42323 0
M  V30 16815 H 1528.9 -5.57763 2.21405 0
M  V30 16816 H 1529.97 -4.18406 2.45081 0
M  V30 16817 N 1531.31 -0.665475 -1.42861 0
M  V30 16818 C 1532.56 -0.184156 -2.01962 0
M  V30 16819 C 1532.89 1.20301 -1.52451 0
M  V30 16820 O 1532.17 1.80573 -0.722756 0
M  V30 16821 C 1532.45 -0.208497 -3.59496 0
M  V30 16822 C 1532.3 -1.63045 -4.19209 0
M  V30 16823 C 1533.62 0.448421 -4.3781 0
M  V30 16824 H 1530.74 -0.0683924 -0.73382 0
M  V30 16825 H 1533.38 -0.84849 -1.70002 0
M  V30 16826 H 1531.53 0.357179 -3.86855 0
M  V30 16827 H 1533.2 -2.24766 -4.02837 0
M  V30 16828 H 1531.45 -2.17401 -3.75392 0
M  V30 16829 H 1532.12 -1.59924 -5.28326 0
M  V30 16830 H 1534.59 -0.0330053 -4.16087 0
M  V30 16831 H 1533.47 0.400713 -5.47435 0
M  V30 16832 H 1533.73 1.52454 -4.14982 0
M  V30 16833 N 1532.79 1.52222 -0.408187 0
M  V30 16834 C 1533.7 2.30725 0.424645 0
M  V30 16835 C 1534.72 1.38412 1.05442 0
M  V30 16836 O 1535.89 1.71486 1.05614 0
M  V30 16837 C 1532.96 3.11273 1.52677 0
M  V30 16838 C 1532.02 4.19323 0.920143 0
M  V30 16839 C 1531.25 4.96021 1.96974 0
M  V30 16840 O 1531.47 4.73011 3.18774 0
M  V30 16841 O 1530.41 5.80887 1.5765 0
M  V30 16842 H 1534.23 3.02935 -0.215411 0
M  V30 16843 H 1531.82 1.48413 -0.171414 0
M  V30 16844 H 1533.7 3.61436 2.16661 0
M  V30 16845 H 1532.38 2.41857 2.15144 0
M  V30 16846 H 1531.28 3.7331 0.243037 0
M  V30 16847 H 1532.62 4.91028 0.339405 0
M  V30 16848 N 1534.27 0.138579 1.5699 0
M  V30 16849 C 1535.22 -0.815878 2.12902 0
M  V30 16850 C 1536.2 -1.21511 1.0547 0
M  V30 16851 O 1537.39 -1.18294 1.31665 0
M  V30 16852 C 1534.52 -2.0583 2.74752 0
M  V30 16853 C 1533.61 -1.68255 3.89296 0
M  V30 16854 N 1534 -1.01456 4.9552 0
M  V30 16855 C 1532.3 -1.97583 3.99846 0
M  V30 16856 C 1533 -0.834498 5.75683 0
M  V30 16857 N 1531.97 -1.36571 5.26165 0
M  V30 16858 H 1535.78 -0.296204 2.92404 0
M  V30 16859 H 1533.29 -0.0632473 1.62277 0
M  V30 16860 H 1535.29 -2.75197 3.13165 0
M  V30 16861 H 1533.95 -2.58323 1.96721 0
M  V30 16862 H 1534.96 -0.67628 5.13466 0
M  V30 16863 H 1531.64 -2.51985 3.32881 0
M  V30 16864 H 1533.03 -0.308664 6.71191 0
M  V30 16865 N 1535.75 -1.57019 -0.13521 0
M  V30 16866 C 1536.99 -1.85801 -0.851896 0
M  V30 16867 C 1537.35 -0.724449 -1.77808 0
M  V30 16868 O 1538.55 -0.893619 -2.53511 0
M  V30 16869 C 1536.82 -3.19788 -1.59595 0
M  V30 16870 S 1538.38 -3.70159 -2.35644 0
M  V30 16871 H 1535.2 -0.651534 -0.284649 0
M  V30 16872 H 1537.8 -1.95184 -0.111177 0
M  V30 16873 H 1536.5 -4.00247 -0.907221 0
M  V30 16874 H 1536.04 -3.13441 -2.37735 0
M  V30 16875 H 1538.05 -3.40364 -3.61063 0
M  V30 16876 N 1537.22 0.404919 -1.52309 0
M  V30 16877 C 1538.16 1.51276 -1.72186 0
M  V30 16878 C 1539.17 1.5125 -0.602276 0
M  V30 16879 O 1540.36 1.55439 -0.877549 0
M  V30 16880 C 1537.46 2.90162 -1.75099 0
M  V30 16881 C 1536.63 3.14333 -3.04161 0
M  V30 16882 C 1535.69 4.33113 -2.9883 0
M  V30 16883 O 1534.72 4.30189 -3.72728 0
M  V30 16884 N 1535.92 5.38451 -2.16911 0
M  V30 16885 H 1538.68 1.34618 -2.67765 0
M  V30 16886 H 1536.24 0.594264 -1.50599 0
M  V30 16887 H 1538.24 3.67697 -1.69058 0
M  V30 16888 H 1536.81 3.00257 -0.869756 0
M  V30 16889 H 1536.03 2.24803 -3.23817 0
M  V30 16890 H 1537.31 3.27327 -3.89531 0
M  V30 16891 H 1536.71 5.43676 -1.56309 0
M  V30 16892 H 1535.27 6.14715 -2.16724 0
M  V30 16893 N 1538.7 1.43003 0.662408 0
M  V30 16894 C 1539.65 1.47448 1.77561 0
M  V30 16895 C 1540.62 0.325121 1.62887 0
M  V30 16896 O 1541.8 0.530971 1.83263 0
M  V30 16897 C 1538.94 1.3946 3.15666 0
M  V30 16898 C 1538.06 2.64529 3.41539 0
M  V30 16899 C 1537.19 2.48594 4.69441 0
M  V30 16900 C 1536.23 3.68976 4.88388 0
M  V30 16901 N 1535.37 3.51908 6.0754 0
M  V30 16902 H 1540.21 2.42573 1.73097 0
M  V30 16903 H 1537.75 1.2042 0.84484 0
M  V30 16904 H 1539.7 1.32824 3.95492 0
M  V30 16905 H 1538.33 0.479227 3.19223 0
M  V30 16906 H 1537.39 2.81481 2.55877 0
M  V30 16907 H 1538.7 3.53977 3.51429 0
M  V30 16908 H 1537.85 2.39614 5.57378 0
M  V30 16909 H 1536.59 1.56656 4.61855 0
M  V30 16910 H 1535.6 3.78374 3.9889 0
M  V30 16911 H 1536.82 4.61911 4.9781 0
M  V30 16912 H 1534.77 2.62697 6.01104 0
M  V30 16913 H 1534.68 4.34951 6.18347 0
M  V30 16914 H 1535.95 3.46763 6.98123 0
M  V30 16915 N 1540.18 -0.899904 1.29381 0
M  V30 16916 C 1541.11 -2.02045 1.17047 0
M  V30 16917 C 1542.09 -1.69977 0.0647354 0
M  V30 16918 O 1543.28 -1.92659 0.244173 0
M  V30 16919 C 1540.41 -3.36839 0.845991 0
M  V30 16920 C 1539.36 -3.83117 1.90802 0
M  V30 16921 C 1538.69 -5.15032 1.43686 0
M  V30 16922 C 1539.99 -4.03464 3.31684 0
M  V30 16923 H 1541.68 -2.12623 2.10789 0
M  V30 16924 H 1539.23 -1.02162 1.01484 0
M  V30 16925 H 1541.18 -4.14737 0.746413 0
M  V30 16926 H 1539.9 -3.26352 -0.127125 0
M  V30 16927 H 1538.56 -3.07435 1.99698 0
M  V30 16928 H 1538.21 -5.00961 0.452422 0
M  V30 16929 H 1537.91 -5.46967 2.14711 0
M  V30 16930 H 1539.43 -5.95472 1.35078 0
M  V30 16931 H 1540.85 -4.71845 3.25631 0
M  V30 16932 H 1539.25 -4.46752 4.00665 0
M  V30 16933 H 1540.32 -3.07807 3.74677 0
M  V30 16934 N 1541.66 -1.11854 -1.11024 0
M  V30 16935 C 1542.57 -0.79368 -2.20767 0
M  V30 16936 C 1543.58 0.214996 -1.72667 0
M  V30 16937 O 1544.76 0.0500976 -2.01338 0
M  V30 16938 C 1541.83 -0.246375 -3.45823 0
M  V30 16939 C 1540.89 -1.31421 -4.0869 0
M  V30 16940 C 1540.12 -0.792922 -5.27777 0
M  V30 16941 O 1540.34 0.375492 -5.69163 0
M  V30 16942 O 1539.28 -1.55971 -5.8134 0
M  V30 16943 H 1543.1 -1.71011 -2.50976 0
M  V30 16944 H 1540.69 -0.894752 -1.19643 0
M  V30 16945 H 1542.57 0.0542632 -4.21365 0
M  V30 16946 H 1541.24 0.642703 -3.17255 0
M  V30 16947 H 1540.15 -1.66792 -3.3486 0
M  V30 16948 H 1541.48 -2.17683 -4.41446 0
M  V30 16949 N 1543.14 1.28707 -0.909517 0
M  V30 16950 C 1544.05 2.31171 -0.399628 0
M  V30 16951 C 1545.06 1.6634 0.510582 0
M  V30 16952 O 1546.24 1.97432 0.397792 0
M  V30 16953 C 1543.3 3.44869 0.355852 0
M  V30 16954 C 1542.36 4.25267 -0.587065 0
M  V30 16955 C 1541.6 5.33536 0.132456 0
M  V30 16956 O 1541.82 5.54075 1.35486 0
M  V30 16957 O 1540.75 5.99561 -0.530062 0
M  V30 16958 H 1544.58 2.76785 -1.24995 0
M  V30 16959 H 1542.17 1.33323 -0.674186 0
M  V30 16960 H 1544.05 4.14068 0.782692 0
M  V30 16961 H 1542.72 3.01345 1.18207 0
M  V30 16962 H 1541.63 3.58673 -1.06322 0
M  V30 16963 H 1542.96 4.72459 -1.37998 0
M  V30 16964 N 1544.61 0.673042 1.42506 0
M  V30 16965 C 1545.55 -0.0452975 2.29155 0
M  V30 16966 C 1546.56 -0.767277 1.43585 0
M  V30 16967 O 1547.75 -0.621728 1.67322 0
M  V30 16968 C 1544.85 -1.0878 3.20967 0
M  V30 16969 C 1544.02 -0.439999 4.35181 0
M  V30 16970 C 1543.08 -1.38205 5.07726 0
M  V30 16971 O 1542.11 -0.883031 5.62309 0
M  V30 16972 N 1543.31 -2.7154 5.13075 0
M  V30 16973 H 1546.07 0.698517 2.91446 0
M  V30 16974 H 1543.63 0.517322 1.53412 0
M  V30 16975 H 1545.63 -1.71925 3.66366 0
M  V30 16976 H 1544.2 -1.73337 2.6014 0
M  V30 16977 H 1543.42 0.370926 3.92451 0
M  V30 16978 H 1544.7 0.0113738 5.08799 0
M  V30 16979 H 1544.1 -3.14623 4.70137 0
M  V30 16980 H 1542.66 -3.29937 5.62126 0
M  V30 16981 N 1546.09 -1.52004 0.416254 0
M  V30 16982 C 1547.03 -2.2371 -0.450474 0
M  V30 16983 C 1548 -1.24812 -1.04215 0
M  V30 16984 O 1549.19 -1.53885 -1.08866 0
M  V30 16985 C 1546.31 -2.97122 -1.62592 0
M  V30 16986 C 1545.36 -4.10508 -1.15695 0
M  V30 16987 S 1546.19 -5.35374 -0.116239 0
M  V30 16988 C 1547.35 -6.12318 -1.29684 0
M  V30 16989 H 1547.58 -2.96878 0.158361 0
M  V30 16990 H 1545.12 -1.53091 0.200602 0
M  V30 16991 H 1547.07 -3.40022 -2.2999 0
M  V30 16992 H 1545.73 -2.23583 -2.20611 0
M  V30 16993 H 1544.93 -4.61075 -2.03534 0
M  V30 16994 H 1544.53 -3.69761 -0.561518 0
M  V30 16995 H 1546.82 -6.40125 -2.21914 0
M  V30 16996 H 1547.76 -7.032 -0.831569 0
M  V30 16997 H 1548.17 -5.43487 -1.52586 0
M  V30 16998 N 1547.57 -0.146903 -1.56914 0
M  V30 16999 C 1548.52 0.809917 -2.18044 0
M  V30 17000 C 1549.51 1.25536 -1.13741 0
M  V30 17001 O 1550.72 1.22385 -1.31992 0
M  V30 17002 H 1547.09 0.279387 -0.698174 0
M  V30 17003 H 1549.06 0.270135 -2.97175 0
M  V30 17004 C 1547.81 2.03904 -2.81635 0
M  V30 17005 H 1547.14 1.70526 -3.61609 0
M  V30 17006 H 1548.58 2.68795 -3.2791 0
M  V30 17007 C 1547.04 2.84696 -1.80138 0
M  V30 17008 O 1547.57 3.81036 -1.27179 0
M  V30 17009 N 1545.77 2.49229 -1.49444 0
M  V30 17010 H 1545.32 1.70949 -1.92702 0
M  V30 17011 H 1545.28 3.03577 -0.817811 0
M  V30 17012 N 1549.05 1.57088 0.126881 0
M  V30 17013 C 1550 1.99764 1.15599 0
M  V30 17014 C 1550.97 0.868468 1.41587 0
M  V30 17015 O 1552.15 1.13209 1.53585 0
M  V30 17016 C 1549.29 2.40038 2.47943 0
M  V30 17017 C 1548.4 3.66336 2.28958 0
M  V30 17018 C 1547.54 3.95626 3.54477 0
M  V30 17019 C 1546.58 5.15131 3.30616 0
M  V30 17020 N 1545.71 5.4033 4.48317 0
M  V30 17021 H 1550.55 2.87473 0.785078 0
M  V30 17022 H 1548.09 1.42209 0.376169 0
M  V30 17023 H 1550.05 2.61423 3.25136 0
M  V30 17024 H 1548.68 1.55382 2.82942 0
M  V30 17025 H 1547.73 3.52612 1.4272 0
M  V30 17026 H 1549.04 4.53684 2.07298 0
M  V30 17027 H 1548.2 4.17617 4.40092 0
M  V30 17028 H 1546.94 3.06738 3.79161 0
M  V30 17029 H 1545.94 4.92992 2.43391 0
M  V30 17030 H 1547.17 6.05588 3.0731 0
M  V30 17031 H 1545.11 4.54399 4.73136 0
M  V30 17032 H 1545.03 6.21985 4.29733 0
M  V30 17033 H 1546.3 5.66835 5.35088 0
M  V30 17034 N 1550.53 -0.396836 1.52522 0
M  V30 17035 C 1551.46 -1.49088 1.79708 0
M  V30 17036 C 1552.44 -1.57246 0.648678 0
M  V30 17037 O 1553.62 -1.72321 0.895495 0
M  V30 17038 C 1550.75 -2.86785 1.95887 0
M  V30 17039 C 1549.71 -2.93472 3.11542 0
M  V30 17040 C 1549.03 -4.33542 3.12963 0
M  V30 17041 C 1550.33 -2.63832 4.50766 0
M  V30 17042 H 1552.03 -1.26588 2.71322 0
M  V30 17043 H 1549.57 -0.607535 1.30557 0
M  V30 17044 H 1551.53 -3.63319 2.13489 0
M  V30 17045 H 1550.25 -3.10605 1.00955 0
M  V30 17046 H 1548.91 -2.19384 2.93711 0
M  V30 17047 H 1548.56 -4.5439 2.15729 0
M  V30 17048 H 1548.26 -4.38938 3.9065 0
M  V30 17049 H 1549.78 -5.11993 3.32709 0
M  V30 17050 H 1551.19 -3.30086 4.68739 0
M  V30 17051 H 1549.59 -2.80589 5.30462 0
M  V30 17052 H 1550.66 -1.59209 4.58018 0
M  V30 17053 N 1552.01 -1.43353 -0.654814 0
M  V30 17054 C 1553.42 -1.26718 -0.970297 0
M  V30 17055 C 1553.62 -0.185747 -2.00642 0
M  V30 17056 O 1552.68 0.436357 -2.48701 0
M  V30 17057 C 1553.99 -2.63095 -1.45608 0
M  V30 17058 C 1555.54 -2.70613 -1.57281 0
M  V30 17059 C 1556.01 -4.07404 -2.0925 0
M  V30 17060 N 1557.5 -4.09461 -2.16555 0
M  V30 17061 C 1558.24 -5.12135 -2.57885 0
M  V30 17062 N 1557.74 -6.25185 -2.98523 0
M  V30 17063 N 1559.53 -4.9949 -2.57811 0
M  V30 17064 H 1551.68 -2.12378 0.0308331 0
M  V30 17065 H 1553.94 -0.946744 -0.0487843 0
M  V30 17066 H 1553.65 -3.43186 -0.769171 0
M  V30 17067 H 1553.52 -2.88381 -2.43138 0
M  V30 17068 H 1555.91 -1.90855 -2.25074 0
M  V30 17069 H 1555.99 -2.49094 -0.581879 0
M  V30 17070 H 1555.63 -4.87628 -1.4206 0
M  V30 17071 H 1555.56 -4.26287 -3.09172 0
M  V30 17072 H 1558.06 -3.27858 -1.87929 0
M  V30 17073 H 1558.37 -6.99362 -3.28804 0
M  V30 17074 H 1556.71 -6.28659 -2.96332 0
M  V30 17075 H 1559.9 -4.10238 -2.25438 0
M  V30 17076 H 1560.08 -5.79637 -2.89699 0
M  V30 17077 N 1553.48 0.89303 -1.29857 0
M  V30 17078 C 1554.43 1.9979 -1.15554 0
M  V30 17079 C 1555.4 1.66033 -0.0471157 0
M  V30 17080 O 1556.59 1.89575 -0.215846 0
M  V30 17081 C 1553.73 3.34595 -0.844993 0
M  V30 17082 C 1552.84 3.81093 -2.03451 0
M  V30 17083 C 1551.97 5.04506 -1.66275 0
M  V30 17084 C 1551.01 5.4339 -2.8177 0
M  V30 17085 N 1550.15 6.57987 -2.44945 0
M  V30 17086 H 1554.99 2.11355 -2.10079 0
M  V30 17087 H 1552.53 1.03497 -1.04531 0
M  V30 17088 H 1554.48 4.12175 -0.645598 0
M  V30 17089 H 1553.11 3.22738 0.0633626 0
M  V30 17090 H 1552.17 2.99491 -2.34541 0
M  V30 17091 H 1553.48 4.05855 -2.8997 0
M  V30 17092 H 1552.63 5.89688 -1.42664 0
M  V30 17093 H 1551.37 4.81597 -0.769144 0
M  V30 17094 H 1550.38 4.56738 -3.06056 0
M  V30 17095 H 1551.6 5.68276 -3.71805 0
M  V30 17096 H 1549.55 6.36669 -1.58079 0
M  V30 17097 H 1549.46 6.82579 -3.24996 0
M  V30 17098 H 1550.73 7.46421 -2.24669 0
M  V30 17099 N 1554.96 1.12442 1.10429 0
M  V30 17100 C 1556.21 0.874466 1.81758 0
M  V30 17101 C 1556.52 -0.601487 1.86122 0
M  V30 17102 O 1557.73 -0.968037 2.53656 0
M  V30 17103 C 1556.19 1.51478 3.2647 0
M  V30 17104 C 1555.79 3.02552 3.30403 0
M  V30 17105 C 1557.54 1.34511 4.02625 0
M  V30 17106 C 1555.44 3.59518 4.69575 0
M  V30 17107 H 1554.37 0.323494 0.681078 0
M  V30 17108 H 1557.03 1.35091 1.24188 0
M  V30 17109 H 1555.41 0.966 3.84037 0
M  V30 17110 H 1556.58 3.63924 2.82659 0
M  V30 17111 H 1554.9 3.18917 2.67733 0
M  V30 17112 H 1557.49 1.74492 5.05427 0
M  V30 17113 H 1557.84 0.288788 4.15297 0
M  V30 17114 H 1558.37 1.86311 3.51473 0
M  V30 17115 H 1555.11 4.6491 4.62103 0
M  V30 17116 H 1554.63 3.02922 5.17686 0
M  V30 17117 H 1556.31 3.58581 5.38543 0
M  V30 17118 N 1556.44 -1.28223 0.91633 0
M  V30 17119 C 1557.37 -2.26291 0.363986 0
M  V30 17120 C 1558.38 -1.54964 -0.498988 0
M  V30 17121 O 1559.57 -1.75726 -0.31345 0
M  V30 17122 C 1556.67 -3.35219 -0.498126 0
M  V30 17123 C 1555.85 -4.36054 0.34293 0
M  V30 17124 C 1554.91 -5.24232 -0.454688 0
M  V30 17125 O 1553.93 -5.69043 0.133649 0
M  V30 17126 N 1555.13 -5.53268 -1.75714 0
M  V30 17127 H 1557.9 -2.74323 1.20694 0
M  V30 17128 H 1555.46 -1.41731 0.782551 0
M  V30 17129 H 1557.45 -3.91148 -1.03852 0
M  V30 17130 H 1556.02 -2.86876 -1.2418 0
M  V30 17131 H 1555.24 -3.7955 1.06468 0
M  V30 17132 H 1556.53 -5.00444 0.918322 0
M  V30 17133 H 1555.93 -5.18698 -2.25762 0
M  V30 17134 H 1554.48 -6.11943 -2.2443 0
M  V30 17135 N 1557.92 -0.68059 -1.42147 0
M  V30 17136 C 1558.87 0.00572503 -2.32599 0
M  V30 17137 C 1559.86 0.784449 -1.50142 0
M  V30 17138 O 1561.07 0.69176 -1.66177 0
M  V30 17139 H 1557.44 0.0206483 -0.751716 0
M  V30 17140 H 1559.41 -0.774447 -2.88175 0
M  V30 17141 C 1558.16 0.939019 -3.3478 0
M  V30 17142 H 1557.48 0.349225 -3.98272 0
M  V30 17143 H 1558.92 1.38782 -4.00644 0
M  V30 17144 C 1557.38 2.04814 -2.67493 0
M  V30 17145 O 1557.91 3.13526 -2.51126 0
M  V30 17146 N 1556.12 1.82153 -2.26426 0
M  V30 17147 H 1555.67 0.93743 -2.39938 0
M  V30 17148 H 1555.62 2.56551 -1.81738 0
M  V30 17149 N 1559.4 1.51781 -0.424309 0
M  V30 17150 C 1560.35 2.24259 0.411339 0
M  V30 17151 C 1561.33 1.25976 1.00094 0
M  V30 17152 O 1562.52 1.51136 0.921238 0
M  V30 17153 C 1559.65 3.07858 1.51917 0
M  V30 17154 C 1558.74 4.13561 0.939599 0
M  V30 17155 N 1559.13 5.05723 0.08803 0
M  V30 17156 C 1557.43 4.29314 1.20855 0
M  V30 17157 C 1558.13 5.81221 -0.236076 0
M  V30 17158 N 1557.1 5.42291 0.376983 0
M  V30 17159 H 1560.9 2.92874 -0.2454 0
M  V30 17160 H 1558.42 1.60682 -0.235612 0
M  V30 17161 H 1560.42 3.58347 2.13056 0
M  V30 17162 H 1559.08 2.40784 2.17837 0
M  V30 17163 H 1560.09 5.17156 -0.277436 0
M  V30 17164 H 1556.76 3.73469 1.86621 0
M  V30 17165 H 1558.15 6.65457 -0.928241 0
M  V30 17166 N 1560.87 0.155222 1.56834 0
M  V30 17167 C 1562.12 -0.493831 1.95561 0
M  V30 17168 C 1562.44 -1.65468 1.04305 0
M  V30 17169 O 1563.64 -2.36891 1.32646 0
M  V30 17170 C 1562.1 -0.929923 3.47679 0
M  V30 17171 C 1561.71 0.204447 4.47533 0
M  V30 17172 C 1563.45 -1.5483 3.95257 0
M  V30 17173 C 1561.36 -0.250375 5.9087 0
M  V30 17174 H 1560.29 -0.188258 0.73012 0
M  V30 17175 H 1562.94 0.240883 1.81912 0
M  V30 17176 H 1561.32 -1.72014 3.56689 0
M  V30 17177 H 1562.49 0.981535 4.50225 0
M  V30 17178 H 1560.81 0.731756 4.0992 0
M  V30 17179 H 1563.41 -1.90036 4.9979 0
M  V30 17180 H 1563.75 -2.44031 3.37275 0
M  V30 17181 H 1564.28 -0.822828 3.89197 0
M  V30 17182 H 1561.02 0.606461 6.52689 0
M  V30 17183 H 1560.54 -0.993164 5.9152 0
M  V30 17184 H 1562.22 -0.699645 6.43206 0
M  V30 17185 N 1562.35 -1.57153 -0.118549 0
M  V30 17186 C 1563.28 -1.97022 -1.1711 0
M  V30 17187 C 1564.3 -0.869599 -1.37629 0
M  V30 17188 O 1565.49 -1.14788 -1.36696 0
M  V30 17189 C 1562.59 -2.25371 -2.53103 0
M  V30 17190 C 1561.76 -3.56677 -2.5318 0
M  V30 17191 C 1560.82 -3.73233 -3.70922 0
M  V30 17192 O 1559.84 -4.4534 -3.54487 0
M  V30 17193 N 1561.05 -3.12036 -4.89504 0
M  V30 17194 H 1563.81 -2.87921 -0.831959 0
M  V30 17195 H 1561.37 -1.58947 -0.307817 0
M  V30 17196 H 1563.36 -2.33662 -3.3043 0
M  V30 17197 H 1561.93 -1.40597 -2.79197 0
M  V30 17198 H 1561.15 -3.5957 -1.61564 0
M  V30 17199 H 1562.44 -4.42982 -2.50288 0
M  V30 17200 H 1561.84 -2.53422 -5.05761 0
M  V30 17201 H 1560.4 -3.25846 -5.64506 0
M  V30 17202 N 1563.83 0.388742 -1.5273 0
M  V30 17203 C 1565.06 1.15495 -1.71664 0
M  V30 17204 C 1565.47 1.83717 -0.435127 0
M  V30 17205 O 1564.83 1.72686 0.590411 0
M  V30 17206 C 1564.88 2.20279 -2.86635 0
M  V30 17207 O 1564.6 1.54838 -4.09825 0
M  V30 17208 C 1566.1 3.09625 -3.1725 0
M  V30 17209 H 1563.32 0.346271 -0.57475 0
M  V30 17210 H 1565.87 0.454729 -1.9938 0
M  V30 17211 H 1564.02 2.85936 -2.61379 0
M  V30 17212 H 1564.44 2.24466 -4.74042 0
M  V30 17213 H 1565.91 3.79177 -4.01159 0
M  V30 17214 H 1566.39 3.73147 -2.31643 0
M  V30 17215 H 1566.99 2.49612 -3.44345 0
M  V30 17216 N 1565.31 1.43698 0.647203 0
M  V30 17217 C 1566.24 1.52135 1.77136 0
M  V30 17218 C 1567.22 0.375551 1.65902 0
M  V30 17219 O 1568.4 0.593564 1.84907 0
M  V30 17220 C 1565.53 1.44974 3.15594 0
M  V30 17221 C 1564.49 2.57866 3.41598 0
M  V30 17222 C 1563.81 2.35757 4.7992 0
M  V30 17223 C 1565.11 4.00089 3.35747 0
M  V30 17224 H 1566.81 2.46227 1.70332 0
M  V30 17225 H 1564.35 1.18507 0.818046 0
M  V30 17226 H 1566.31 1.4948 3.93997 0
M  V30 17227 H 1565.03 0.473905 3.23143 0
M  V30 17228 H 1563.69 2.52722 2.65569 0
M  V30 17229 H 1563.34 1.36403 4.84152 0
M  V30 17230 H 1563.04 3.11436 4.98278 0
M  V30 17231 H 1564.56 2.42055 5.60572 0
M  V30 17232 H 1565.98 4.06687 4.04078 0
M  V30 17233 H 1564.37 4.75842 3.65642 0
M  V30 17234 H 1565.44 4.24798 2.33825 0
M  V30 17235 N 1566.79 -0.886131 1.30328 0
M  V30 17236 C 1567.73 -1.99174 1.16612 0
M  V30 17237 C 1568.7 -1.66006 0.0559202 0
M  V30 17238 O 1569.89 -1.89458 0.225897 0
M  V30 17239 C 1567.03 -3.34142 0.862726 0
M  V30 17240 C 1566.14 -3.80008 2.05469 0
M  V30 17241 C 1565.28 -5.03617 1.68949 0
M  V30 17242 C 1564.32 -5.41888 2.84647 0
M  V30 17243 N 1563.45 -6.56678 2.48431 0
M  V30 17244 H 1568.29 -2.10238 2.11197 0
M  V30 17245 H 1565.83 -1.02941 1.05079 0
M  V30 17246 H 1567.79 -4.11826 0.667447 0
M  V30 17247 H 1566.42 -3.22767 -0.0462461 0
M  V30 17248 H 1565.47 -2.98243 2.36126 0
M  V30 17249 H 1566.78 -4.04312 2.92119 0
M  V30 17250 H 1565.94 -5.88923 1.45789 0
M  V30 17251 H 1564.67 -4.81182 0.794674 0
M  V30 17252 H 1563.68 -4.55109 3.08474 0
M  V30 17253 H 1564.9 -5.66296 3.74813 0
M  V30 17254 H 1562.85 -6.35821 1.61453 0
M  V30 17255 H 1562.77 -6.80846 3.28611 0
M  V30 17256 H 1564.04 -7.45219 2.28624 0
M  V30 17257 N 1568.26 -1.13026 -1.09832 0
M  V30 17258 C 1569.21 -0.803817 -2.1635 0
M  V30 17259 C 1570.18 0.232226 -1.64469 0
M  V30 17260 O 1571.37 0.105403 -1.90509 0
M  V30 17261 C 1568.51 -0.271414 -3.44031 0
M  V30 17262 C 1567.62 -1.36602 -4.09834 0
M  V30 17263 C 1566.75 -0.792393 -5.25257 0
M  V30 17264 C 1565.79 -1.86569 -5.82974 0
M  V30 17265 N 1564.93 -1.31032 -6.89764 0
M  V30 17266 H 1569.77 -1.71624 -2.43617 0
M  V30 17267 H 1567.31 -0.856772 -1.19574 0
M  V30 17268 H 1569.27 0.0553638 -4.17163 0
M  V30 17269 H 1567.9 0.604154 -3.17096 0
M  V30 17270 H 1566.95 -1.80946 -3.34608 0
M  V30 17271 H 1568.26 -2.17737 -4.48767 0
M  V30 17272 H 1567.41 -0.416652 -6.05268 0
M  V30 17273 H 1566.15 0.0500894 -4.87674 0
M  V30 17274 H 1565.16 -2.25054 -5.01628 0
M  V30 17275 H 1566.38 -2.7115 -6.22619 0
M  V30 17276 H 1564.33 -0.489768 -6.54169 0
M  V30 17277 H 1564.25 -2.0582 -7.27444 0
M  V30 17278 H 1565.51 -0.962011 -7.73541 0
M  V30 17279 N 1569.74 1.27735 -0.923117 0
M  V30 17280 C 1570.99 1.95207 -0.571456 0
M  V30 17281 C 1571.34 1.71257 0.876863 0
M  V30 17282 O 1570.64 1.02842 1.61661 0
M  V30 17283 C 1570.83 3.47677 -0.827959 0
M  V30 17284 C 1570.66 3.86453 -2.29966 0
M  V30 17285 C 1569.43 4.10138 -2.95152 0
M  V30 17286 C 1571.63 3.96395 -3.27683 0
M  V30 17287 N 1569.61 4.35658 -4.32522 0
M  V30 17288 C 1570.98 4.26236 -4.50247 0
M  V30 17289 C 1573.04 3.78953 -3.22954 0
M  V30 17290 C 1571.74 4.40453 -5.68677 0
M  V30 17291 C 1573.76 3.94391 -4.40692 0
M  V30 17292 C 1573.13 4.24615 -5.62033 0
M  V30 17293 H 1569.23 0.73781 -0.259154 0
M  V30 17294 H 1571.81 1.54194 -1.18879 0
M  V30 17295 H 1569.98 3.87659 -0.239823 0
M  V30 17296 H 1571.71 4.02308 -0.439388 0
M  V30 17297 H 1568.47 4.04795 -2.45841 0
M  V30 17298 H 1568.89 4.52484 -5.03574 0
M  V30 17299 H 1573.53 3.5463 -2.30212 0
M  V30 17300 H 1571.25 4.63603 -6.61889 0
M  V30 17301 H 1574.84 3.82321 -4.38545 0
M  V30 17302 H 1573.72 4.36305 -6.51619 0
M  V30 17303 N 1571.22 0.688118 1.41784 0
M  V30 17304 C 1572.15 -0.0323076 2.28177 0
M  V30 17305 C 1573.13 -0.795419 1.41816 0
M  V30 17306 O 1574.32 -0.787785 1.71249 0
M  V30 17307 C 1571.44 -1.05308 3.21913 0
M  V30 17308 C 1570.49 -0.384003 4.24768 0
M  V30 17309 S 1571.32 0.86817 5.28416 0
M  V30 17310 C 1572.48 -0.151191 6.25717 0
M  V30 17311 H 1572.71 0.700456 2.88931 0
M  V30 17312 H 1570.24 0.478125 1.46811 0
M  V30 17313 H 1572.2 -1.63689 3.76452 0
M  V30 17314 H 1570.86 -1.75837 2.6027 0
M  V30 17315 H 1570.06 -1.15469 4.90594 0
M  V30 17316 H 1569.66 0.126545 3.73786 0
M  V30 17317 H 1571.95 -1.0068 6.69977 0
M  V30 17318 H 1572.89 0.472955 7.06519 0
M  V30 17319 H 1573.3 -0.502631 5.62258 0
M  V30 17320 N 1572.7 -1.51554 0.432352 0
M  V30 17321 C 1573.66 -2.26195 -0.369912 0
M  V30 17322 C 1574.66 -1.29446 -0.953961 0
M  V30 17323 O 1575.85 -1.53199 -0.829193 0
M  V30 17324 C 1572.98 -3.04993 -1.52289 0
M  V30 17325 H 1574.18 -2.98551 0.284173 0
M  V30 17326 H 1571.73 -1.55197 0.1854 0
M  V30 17327 H 1572.46 -2.37043 -2.21317 0
M  V30 17328 H 1572.25 -3.76051 -1.11032 0
M  V30 17329 H 1573.74 -3.61547 -2.08982 0
M  V30 17330 N 1574.18 -0.163538 -1.56749 0
M  V30 17331 C 1575.09 0.782461 -2.21167 0
M  V30 17332 C 1576.1 1.25911 -1.20093 0
M  V30 17333 O 1577.28 1.31286 -1.52728 0
M  V30 17334 C 1574.34 1.99761 -2.83366 0
M  V30 17335 C 1573.4 1.56859 -3.99617 0
M  V30 17336 C 1572.64 2.72582 -4.58841 0
M  V30 17337 O 1572.86 3.89243 -4.16949 0
M  V30 17338 O 1571.79 2.47104 -5.48838 0
M  V30 17339 H 1575.62 0.264023 -3.0255 0
M  V30 17340 H 1573.21 0.06429 -1.49262 0
M  V30 17341 H 1575.09 2.70843 -3.22835 0
M  V30 17342 H 1573.76 2.50526 -2.04984 0
M  V30 17343 H 1572.67 0.827511 -3.64833 0
M  V30 17344 H 1574 1.10794 -4.79568 0
M  V30 17345 N 1575.65 1.57214 0.110213 0
M  V30 17346 C 1576.9 1.85586 0.817649 0
M  V30 17347 C 1577.23 0.750536 1.79111 0
M  V30 17348 O 1576.51 -0.242864 1.92978 0
M  V30 17349 C 1576.79 3.24565 1.55979 0
M  V30 17350 C 1576.64 4.45708 0.605339 0
M  V30 17351 C 1577.96 3.61233 2.51393 0
M  V30 17352 H 1575.08 0.675037 0.295794 0
M  V30 17353 H 1577.72 1.89824 0.0816541 0
M  V30 17354 H 1575.87 3.21083 2.18718 0
M  V30 17355 H 1577.55 4.61298 -0.0138894 0
M  V30 17356 H 1575.79 4.33722 -0.0824644 0
M  V30 17357 H 1576.46 5.39643 1.16143 0
M  V30 17358 H 1578.94 3.65563 1.98754 0
M  V30 17359 H 1577.81 4.59438 3.00346 0
M  V30 17360 H 1578.07 2.89116 3.34461 0
M  V30 17361 N 1577.13 -0.380637 1.52934 0
M  V30 17362 C 1578.41 -1.13958 1.58975 0
M  V30 17363 C 1578.79 -2.07503 0.388028 0
M  V30 17364 O 1578.14 -2.19844 -0.622984 0
M  V30 17365 C 1578.35 -1.89192 2.9327 0
M  V30 17366 C 1579.7 -2.44259 3.47308 0
M  V30 17367 O 1580.72 -1.99338 2.95199 0
M  V30 17368 O 1579.58 -3.26338 4.38367 0
M  V30 17369 H 1576.67 -0.521896 0.641525 0
M  V30 17370 H 1579.22 -0.385114 1.65272 0
M  V30 17371 H 1577.99 -1.20834 3.72176 0
M  V30 17372 H 1577.61 -2.71581 2.90395 0
M  V30 17373 N 1578.61 -1.44039 -0.639573 0
M  V30 17374 C 1579.86 -1.46594 -1.40136 0
M  V30 17375 C 1580.19 -0.0949646 -1.93968 0
M  V30 17376 O 1579.46 0.886201 -1.73138 0
M  V30 17377 C 1579.75 -2.51947 -2.57283 0
M  V30 17378 C 1579.6 -3.98371 -2.08855 0
M  V30 17379 C 1580.92 -2.53891 -3.59482 0
M  V30 17380 H 1578.04 -0.533759 -0.508203 0
M  V30 17381 H 1580.68 -1.75669 -0.723898 0
M  V30 17382 H 1578.83 -2.27285 -3.15077 0
M  V30 17383 H 1580.5 -4.34137 -1.55956 0
M  V30 17384 H 1578.75 -4.10551 -1.40109 0
M  V30 17385 H 1579.42 -4.67721 -2.93157 0
M  V30 17386 H 1581.89 -2.75906 -3.11473 0
M  V30 17387 H 1580.77 -3.29524 -4.38982 0
M  V30 17388 H 1581.03 -1.57774 -4.12989 0
M  V30 17389 N 1580.09 0.879207 -1.30796 0
M  V30 17390 C 1581.34 1.6315 -1.19951 0
M  V30 17391 C 1581.66 1.92958 0.244468 0
M  V30 17392 O 1580.92 1.55316 1.19061 0
M  V30 17393 C 1581.22 2.97578 -1.97945 0
M  V30 17394 C 1580.88 2.873 -3.47519 0
M  V30 17395 C 1579.55 2.84204 -3.88306 0
M  V30 17396 C 1581.9 2.75006 -4.42743 0
M  V30 17397 C 1579.23 2.6666 -5.22599 0
M  V30 17398 C 1581.58 2.59 -5.7715 0
M  V30 17399 C 1580.24 2.54282 -6.17168 0
M  V30 17400 H 1579.51 0.597008 -0.438934 0
M  V30 17401 H 1582.16 1.02179 -1.61962 0
M  V30 17402 H 1580.46 3.62532 -1.48587 0
M  V30 17403 H 1582.16 3.54759 -1.86941 0
M  V30 17404 H 1578.75 2.90522 -3.15111 0
M  V30 17405 H 1582.93 2.7646 -4.12169 0
M  V30 17406 H 1578.19 2.61426 -5.5269 0
M  V30 17407 H 1582.36 2.48462 -6.50568 0
M  V30 17408 H 1579.99 2.40446 -7.21172 0
M  V30 17409 N 1581.57 1.13606 1.09231 0
M  V30 17410 C 1582.5 0.837908 2.17948 0
M  V30 17411 C 1583.48 -0.203575 1.68877 0
M  V30 17412 O 1584.66 -0.0620702 1.94101 0
M  V30 17413 C 1581.79 0.305342 3.45955 0
M  V30 17414 C 1580.75 1.2813 4.08371 0
M  V30 17415 C 1580.07 0.608412 5.31227 0
M  V30 17416 C 1581.37 2.64055 4.50636 0
M  V30 17417 H 1583.07 1.747 2.43147 0
M  V30 17418 H 1580.61 0.84141 1.1686 0
M  V30 17419 H 1582.57 0.0844116 4.21315 0
M  V30 17420 H 1581.29 -0.639144 3.20285 0
M  V30 17421 H 1579.95 1.48826 3.35032 0
M  V30 17422 H 1579.6 -0.341613 5.01839 0
M  V30 17423 H 1579.3 1.25956 5.73942 0
M  V30 17424 H 1580.82 0.396809 6.09309 0
M  V30 17425 H 1582.24 2.47316 5.17212 0
M  V30 17426 H 1580.63 3.25364 5.0424 0
M  V30 17427 H 1581.7 3.21566 3.62937 0
M  V30 17428 N 1583.05 -1.27244 0.929878 0
M  V30 17429 C 1583.99 -2.26773 0.429287 0
M  V30 17430 C 1584.96 -1.58238 -0.50498 0
M  V30 17431 O 1586.15 -1.86037 -0.423661 0
M  V30 17432 C 1583.29 -3.43706 -0.309865 0
M  V30 17433 C 1582.4 -4.26948 0.658764 0
M  V30 17434 C 1581.54 -5.31105 -0.10045 0
M  V30 17435 C 1580.57 -6.06018 0.860743 0
M  V30 17436 N 1579.71 -7.01972 0.134015 0
M  V30 17437 H 1584.55 -2.68967 1.283 0
M  V30 17438 H 1582.09 -1.32257 0.643923 0
M  V30 17439 H 1584.05 -4.10316 -0.754754 0
M  V30 17440 H 1582.68 -3.02457 -1.1278 0
M  V30 17441 H 1581.73 -3.60232 1.22218 0
M  V30 17442 H 1583.04 -4.78946 1.39326 0
M  V30 17443 H 1582.19 -6.03674 -0.605153 0
M  V30 17444 H 1580.93 -4.79915 -0.867902 0
M  V30 17445 H 1579.94 -5.32285 1.37668 0
M  V30 17446 H 1581.16 -6.59297 1.62801 0
M  V30 17447 H 1579.11 -6.53109 -0.615152 0
M  V30 17448 H 1579.03 -7.51669 0.808045 0
M  V30 17449 H 1580.29 -7.78714 -0.349964 0
M  V30 17450 N 1584.52 -0.695628 -1.41417 0
M  V30 17451 C 1585.43 -0.0308378 -2.3458 0
M  V30 17452 C 1586.45 0.766 -1.56232 0
M  V30 17453 O 1587.63 0.703548 -1.88712 0
M  V30 17454 C 1584.69 0.894162 -3.34971 0
M  V30 17455 C 1583.75 0.0895231 -4.29207 0
M  V30 17456 C 1582.98 0.970467 -5.24802 0
M  V30 17457 O 1583.21 2.20997 -5.25848 0
M  V30 17458 O 1582.14 0.420114 -6.00432 0
M  V30 17459 H 1585.97 -0.798775 -2.93007 0
M  V30 17460 H 1583.55 -0.455964 -1.42272 0
M  V30 17461 H 1585.43 1.42458 -3.9659 0
M  V30 17462 H 1584.11 1.64159 -2.78987 0
M  V30 17463 H 1583.02 -0.4855 -3.70936 0
M  V30 17464 H 1584.35 -0.619241 -4.88289 0
M  V30 17465 N 1586 1.51322 -0.440383 0
M  V30 17466 C 1586.91 2.31574 0.37561 0
M  V30 17467 C 1587.93 1.40617 1.02483 0
M  V30 17468 O 1589.1 1.73688 1.01953 0
M  V30 17469 C 1586.17 3.14441 1.4604 0
M  V30 17470 C 1585.23 4.21181 0.830991 0
M  V30 17471 C 1584.46 5.00087 1.86409 0
M  V30 17472 O 1584.69 4.79666 3.08669 0
M  V30 17473 O 1583.62 5.84101 1.45293 0
M  V30 17474 H 1587.45 3.0241 -0.27962 0
M  V30 17475 H 1585.03 1.48016 -0.202857 0
M  V30 17476 H 1586.91 3.6595 2.08946 0
M  V30 17477 H 1585.59 2.46366 2.09965 0
M  V30 17478 H 1584.49 3.73741 0.163798 0
M  V30 17479 H 1585.83 4.91638 0.235174 0
M  V30 17480 N 1587.48 0.171848 1.5666 0
M  V30 17481 C 1588.73 -0.467156 1.97963 0
M  V30 17482 C 1589.08 -1.60824 1.05609 0
M  V30 17483 O 1588.37 -1.9136 0.0958638 0
M  V30 17484 C 1588.57 -0.99711 3.43209 0
M  V30 17485 C 1588.4 0.0910934 4.49608 0
M  V30 17486 C 1587.17 0.540935 5.02396 0
M  V30 17487 C 1589.36 0.891679 5.06511 0
M  V30 17488 N 1587.35 1.60939 5.92429 0
M  V30 17489 C 1588.72 1.81005 5.9299 0
M  V30 17490 C 1590.77 0.9367 4.8901 0
M  V30 17491 C 1589.48 2.76964 6.6384 0
M  V30 17492 C 1591.5 1.88423 5.60581 0
M  V30 17493 C 1590.86 2.79008 6.46787 0
M  V30 17494 H 1586.96 -0.139033 0.769541 0
M  V30 17495 H 1589.55 0.272188 1.92788 0
M  V30 17496 H 1587.72 -1.70597 3.48929 0
M  V30 17497 H 1589.45 -1.60479 3.71522 0
M  V30 17498 H 1586.2 0.138545 4.73397 0
M  V30 17499 H 1586.63 2.14412 6.4215 0
M  V30 17500 H 1591.27 0.250396 4.22058 0
M  V30 17501 H 1588.99 3.46582 7.30005 0
M  V30 17502 H 1592.57 1.92518 5.49025 0
M  V30 17503 H 1591.45 3.51133 7.01196 0
M  V30 17504 N 1588.96 -1.5727 -0.101874 0
M  V30 17505 C 1590.37 -1.74753 -0.657147 0
M  V30 17506 C 1590.72 -0.793052 -1.79458 0
M  V30 17507 O 1589.84 0.0300559 -2.16379 0
M  V30 17508 C 1590.44 -3.1688 -1.19885 0
M  V30 17509 C 1589 -3.3581 -1.70025 0
M  V30 17510 C 1588.15 -2.70575 -0.607007 0
M  V30 17511 H 1591.1 -1.58214 0.124158 0
M  V30 17512 H 1591.12 -3.19378 -2.06829 0
M  V30 17513 H 1590.63 -3.86325 -0.37079 0
M  V30 17514 H 1588.73 -2.71434 -2.55253 0
M  V30 17515 H 1588.84 -4.44086 -1.79791 0
M  V30 17516 H 1587.21 -2.32284 -1.04481 0
M  V30 17517 H 1587.99 -3.42655 0.21036 0
M  V30 17518 N 1590.44 0.372521 -1.53134 0
M  V30 17519 C 1591.4 1.43875 -1.78417 0
M  V30 17520 C 1592.4 1.46879 -0.654455 0
M  V30 17521 O 1593.59 1.47761 -0.922619 0
M  V30 17522 C 1590.72 2.83046 -1.89994 0
M  V30 17523 H 1591.91 1.22733 -2.73636 0
M  V30 17524 H 1589.47 0.605247 -1.44106 0
M  V30 17525 H 1590.2 3.09511 -0.968179 0
M  V30 17526 H 1589.99 2.82265 -2.72156 0
M  V30 17527 H 1591.48 3.60273 -2.11171 0
M  V30 17528 N 1591.91 1.44376 0.631925 0
M  V30 17529 C 1592.84 1.54005 1.75512 0
M  V30 17530 C 1593.82 0.393126 1.65495 0
M  V30 17531 O 1595.01 0.613143 1.84267 0
M  V30 17532 C 1592.14 1.48313 3.14039 0
M  V30 17533 C 1591.09 2.61474 3.38844 0
M  V30 17534 C 1590.42 2.40834 4.77392 0
M  V30 17535 C 1591.72 4.03627 3.31485 0
M  V30 17536 H 1593.41 2.48019 1.6771 0
M  V30 17537 H 1590.96 1.19368 0.80543 0
M  V30 17538 H 1592.91 1.5365 3.9239 0
M  V30 17539 H 1591.64 0.508152 3.22623 0
M  V30 17540 H 1590.3 2.55525 2.62874 0
M  V30 17541 H 1589.94 1.4153 4.82678 0
M  V30 17542 H 1589.64 3.16703 4.94947 0
M  V30 17543 H 1591.17 2.47988 5.57974 0
M  V30 17544 H 1592.58 4.1095 3.99741 0
M  V30 17545 H 1590.98 4.79694 3.60574 0
M  V30 17546 H 1592.05 4.27255 2.29307 0
M  V30 17547 N 1593.39 -0.872258 1.31261 0
M  V30 17548 C 1594.64 -1.6219 1.20576 0
M  V30 17549 C 1594.96 -1.93557 -0.236769 0
M  V30 17550 O 1594.23 -1.58094 -1.15686 0
M  V30 17551 H 1592.81 -0.601265 0.443272 0
M  V30 17552 H 1595.47 -1.04438 1.64556 0
M  V30 17553 H 1594.57 -2.56653 1.77582 0
M  V30 17554 N 1594.87 -1.14184 -1.08627 0
M  V30 17555 C 1596.15 -0.81955 -1.77603 0
M  V30 17556 C 1596.53 0.687377 -1.99595 0
M  V30 17557 O 1595.87 1.62744 -1.60396 0
M  V30 17558 C 1596.08 -1.61574 -3.09346 0
M  V30 17559 C 1597.43 -1.81367 -3.83916 0
M  V30 17560 O 1598.46 -1.58241 -3.19121 0
M  V30 17561 O 1597.32 -2.20011 -5.00257 0
M  V30 17562 H 1594.41 -0.300086 -0.770635 0
M  V30 17563 H 1596.96 -1.24691 -1.15109 0
M  V30 17564 H 1595.73 -2.63946 -2.88874 0
M  V30 17565 H 1595.35 -1.18386 -3.79566 0
M  V30 17566 N 1596.35 1.26749 -0.936613 0
M  V30 17567 C 1597.57 1.98597 -0.597817 0
M  V30 17568 C 1598 1.69324 0.8192 0
M  V30 17569 O 1597.36 0.938634 1.55111 0
M  V30 17570 C 1597.4 3.50656 -0.841007 0
M  V30 17571 O 1596.51 4.12304 0.0891038 0
M  V30 17572 H 1595.85 0.623197 -0.229176 0
M  V30 17573 H 1598.38 1.61332 -1.2583 0
M  V30 17574 H 1598.39 4.00857 -0.760093 0
M  V30 17575 H 1597.06 3.71293 -1.87388 0
M  V30 17576 H 1595.64 3.72876 -0.0424804 0
M  V30 17577 N 1597.83 0.703118 1.41046 0
M  V30 17578 C 1598.74 0.0432777 2.3456 0
M  V30 17579 C 1599.75 -0.757704 1.56636 0
M  V30 17580 O 1600.93 -0.693531 1.89082 0
M  V30 17581 C 1597.99 -0.876385 3.35441 0
M  V30 17582 C 1597.05 -0.06676 4.29248 0
M  V30 17583 C 1596.29 -0.942622 5.2531 0
M  V30 17584 O 1596.51 -2.18205 5.27013 0
M  V30 17585 O 1595.44 -0.388266 6.00646 0
M  V30 17586 H 1599.27 0.814302 2.9258 0
M  V30 17587 H 1596.86 0.463503 1.42028 0
M  V30 17588 H 1598.74 -1.40353 3.9734 0
M  V30 17589 H 1597.41 -1.62677 2.79853 0
M  V30 17590 H 1596.32 0.505165 3.70674 0
M  V30 17591 H 1597.65 0.645128 4.87954 0
M  V30 17592 N 1599.3 -1.51086 0.448402 0
M  V30 17593 C 1600.55 -2.01367 -0.115904 0
M  V30 17594 C 1600.87 -1.33658 -1.42811 0
M  V30 17595 O 1602.07 -1.74968 -2.07602 0
M  V30 17596 C 1600.53 -3.58981 -0.257092 0
M  V30 17597 C 1600.14 -4.35634 1.04534 0
M  V30 17598 C 1601.88 -4.17373 -0.774573 0
M  V30 17599 C 1599.79 -5.84978 0.869184 0
M  V30 17600 H 1598.72 -0.752528 -0.0470907 0
M  V30 17601 H 1601.37 -1.74098 0.57985 0
M  V30 17602 H 1599.75 -3.82742 -1.01611 0
M  V30 17603 H 1600.92 -4.23612 1.81354 0
M  V30 17604 H 1599.24 -3.88745 1.49219 0
M  V30 17605 H 1601.84 -5.26673 -0.923032 0
M  V30 17606 H 1602.18 -3.77267 -1.75997 0
M  V30 17607 H 1602.71 -3.97732 -0.0735697 0
M  V30 17608 H 1599.45 -6.29516 1.82729 0
M  V30 17609 H 1598.97 -5.99634 0.140969 0
M  V30 17610 H 1600.65 -6.44852 0.526752 0
M  V30 17611 N 1600.78 -0.180154 -1.56567 0
M  V30 17612 C 1601.71 0.742131 -2.21393 0
M  V30 17613 C 1602.69 1.23253 -1.1723 0
M  V30 17614 O 1603.88 1.28408 -1.45688 0
M  V30 17615 C 1601.01 1.96799 -2.8616 0
M  V30 17616 C 1599.96 1.6131 -3.96438 0
M  V30 17617 C 1599.29 2.91434 -4.48297 0
M  V30 17618 C 1600.59 0.834382 -5.15592 0
M  V30 17619 H 1602.28 0.201759 -2.98719 0
M  V30 17620 H 1599.83 0.0956016 -1.43682 0
M  V30 17621 H 1601.78 2.61828 -3.30188 0
M  V30 17622 H 1600.51 2.53264 -2.06215 0
M  V30 17623 H 1599.16 0.986451 -3.53079 0
M  V30 17624 H 1598.81 3.45958 -3.65133 0
M  V30 17625 H 1598.51 2.68439 -5.22699 0
M  V30 17626 H 1600.04 3.57478 -4.95017 0
M  V30 17627 H 1601.45 1.38745 -5.56258 0
M  V30 17628 H 1599.85 0.703132 -5.95966 0
M  V30 17629 H 1600.92 -0.167554 -4.8461 0
M  V30 17630 N 1602.26 1.57322 0.0935319 0
M  V30 17631 C 1603.21 2.02171 1.11336 0
M  V30 17632 C 1604.18 0.898305 1.39713 0
M  V30 17633 O 1605.36 1.16441 1.51149 0
M  V30 17634 C 1602.5 2.45243 2.42796 0
M  V30 17635 C 1601.62 3.7111 2.21136 0
M  V30 17636 C 1600.75 4.03056 3.46005 0
M  V30 17637 C 1599.79 5.22028 3.19615 0
M  V30 17638 N 1598.93 5.49718 4.36755 0
M  V30 17639 H 1603.77 2.89073 0.723924 0
M  V30 17640 H 1601.3 1.42975 0.345919 0
M  V30 17641 H 1603.26 2.68261 3.19518 0
M  V30 17642 H 1601.89 1.61348 2.79583 0
M  V30 17643 H 1600.94 3.5556 1.35209 0
M  V30 17644 H 1602.26 4.57979 1.97628 0
M  V30 17645 H 1601.41 4.26858 4.31135 0
M  V30 17646 H 1600.15 3.14712 3.72569 0
M  V30 17647 H 1599.15 4.98044 2.32879 0
M  V30 17648 H 1600.38 6.11971 2.94396 0
M  V30 17649 H 1598.32 4.64333 4.63391 0
M  V30 17650 H 1598.24 6.30961 4.16443 0
M  V30 17651 H 1599.51 5.78057 5.22944 0
M  V30 17652 N 1603.74 -0.364395 1.53329 0
M  V30 17653 C 1604.69 -1.44645 1.79851 0
M  V30 17654 C 1605.66 -1.53151 0.642951 0
M  V30 17655 O 1606.84 -1.6902 0.885252 0
M  V30 17656 C 1603.98 -2.81575 1.99523 0
M  V30 17657 C 1603.09 -2.82026 3.27239 0
M  V30 17658 C 1602.23 -4.1054 3.37091 0
M  V30 17659 C 1601.27 -4.05138 4.58835 0
M  V30 17660 N 1600.4 -5.25303 4.65834 0
M  V30 17661 H 1605.24 -1.21329 2.72182 0
M  V30 17662 H 1602.78 -0.588143 1.34831 0
M  V30 17663 H 1604.74 -3.61124 2.08915 0
M  V30 17664 H 1603.37 -3.03288 1.10527 0
M  V30 17665 H 1602.42 -1.94704 3.26794 0
M  V30 17666 H 1603.73 -2.73907 4.16865 0
M  V30 17667 H 1602.89 -4.98504 3.45801 0
M  V30 17668 H 1601.63 -4.21413 2.45483 0
M  V30 17669 H 1600.63 -3.1556 4.50224 0
M  V30 17670 H 1601.86 -3.95866 5.51785 0
M  V30 17671 H 1599.8 -5.36759 3.77128 0
M  V30 17672 H 1599.72 -5.19358 5.49367 0
M  V30 17673 H 1600.99 -6.15096 4.78829 0
M  V30 17674 N 1605.22 -1.44709 -0.62426 0
M  V30 17675 C 1606.15 -1.48097 -1.74928 0
M  V30 17676 C 1607.16 -0.373567 -1.58456 0
M  V30 17677 O 1608.35 -0.639699 -1.66644 0
M  V30 17678 C 1605.45 -1.30576 -3.12735 0
M  V30 17679 C 1604.62 -2.54688 -3.55602 0
M  V30 17680 C 1603.68 -2.31966 -4.72311 0
M  V30 17681 O 1602.71 -3.05492 -4.80274 0
M  V30 17682 N 1603.91 -1.35463 -5.64473 0
M  V30 17683 H 1606.68 -2.45086 -1.72491 0
M  V30 17684 H 1604.24 -1.40236 -0.809039 0
M  V30 17685 H 1606.23 -1.13212 -3.88542 0
M  V30 17686 H 1604.8 -0.419262 -3.09776 0
M  V30 17687 H 1604.02 -2.87282 -2.69931 0
M  V30 17688 H 1605.31 -3.37223 -3.80996 0
M  V30 17689 H 1604.7 -0.747509 -5.60739 0
M  V30 17690 H 1603.26 -1.24075 -6.39882 0
M  V30 17691 N 1606.69 0.865285 -1.31722 0
M  V30 17692 C 1607.62 1.98871 -1.22362 0
M  V30 17693 C 1608.61 1.69745 -0.109779 0
M  V30 17694 O 1609.79 1.91944 -0.295167 0
M  V30 17695 C 1606.92 3.34477 -0.935 0
M  V30 17696 C 1605.87 3.77924 -2.00892 0
M  V30 17697 C 1605.2 5.11042 -1.57291 0
M  V30 17698 C 1606.5 3.94528 -3.42264 0
M  V30 17699 H 1608.19 2.06959 -2.16352 0
M  V30 17700 H 1605.74 0.994355 -1.04157 0
M  V30 17701 H 1607.69 4.12612 -0.856111 0
M  V30 17702 H 1606.42 3.26575 0.0405536 0
M  V30 17703 H 1605.08 3.02032 -2.07779 0
M  V30 17704 H 1604.72 4.99586 -0.585084 0
M  V30 17705 H 1604.42 5.41082 -2.29138 0
M  V30 17706 H 1605.95 5.91681 -1.50818 0
M  V30 17707 H 1607.36 4.63045 -3.38027 0
M  V30 17708 H 1605.76 4.35972 -4.12369 0
M  V30 17709 H 1606.83 2.97765 -3.82706 0
M  V30 17710 N 1608.17 1.14759 1.0802 0
M  V30 17711 C 1609.12 0.838134 2.15044 0
M  V30 17712 C 1610.09 -0.206031 1.64817 0
M  V30 17713 O 1611.27 -0.0750812 1.90652 0
M  V30 17714 C 1608.41 0.326112 3.43556 0
M  V30 17715 C 1607.53 1.43104 4.07609 0
M  V30 17716 C 1606.66 0.875857 5.2393 0
M  V30 17717 C 1605.7 1.9582 5.79932 0
M  V30 17718 N 1604.84 1.41989 6.87593 0
M  V30 17719 H 1609.68 1.75478 2.40856 0
M  V30 17720 H 1607.22 0.875686 1.18195 0
M  V30 17721 H 1609.17 0.0110103 4.17199 0
M  V30 17722 H 1607.8 -0.55363 3.18017 0
M  V30 17723 H 1606.86 1.86247 3.31687 0
M  V30 17724 H 1608.17 2.24849 4.45246 0
M  V30 17725 H 1607.32 0.512893 6.04528 0
M  V30 17726 H 1606.06 0.0275017 4.87692 0
M  V30 17727 H 1605.07 2.33006 4.97984 0
M  V30 17728 H 1606.29 2.81021 6.18227 0
M  V30 17729 H 1604.24 0.593779 6.53307 0
M  V30 17730 H 1604.15 2.17367 7.24077 0
M  V30 17731 H 1605.42 1.08495 7.71913 0
M  V30 17732 N 1609.65 -1.26251 0.943322 0
M  V30 17733 C 1610.58 -2.25468 0.411904 0
M  V30 17734 C 1611.6 -1.55988 -0.466005 0
M  V30 17735 O 1612.78 -1.76352 -0.276106 0
M  V30 17736 C 1609.88 -3.362 -0.426909 0
M  V30 17737 C 1609.06 -4.35228 0.435346 0
M  V30 17738 C 1608.12 -5.25078 -0.343388 0
M  V30 17739 O 1607.14 -5.68632 0.254322 0
M  V30 17740 N 1608.34 -5.5687 -1.63939 0
M  V30 17741 H 1611.11 -2.71701 1.26486 0
M  V30 17742 H 1608.67 -1.40039 0.812438 0
M  V30 17743 H 1610.66 -3.93263 -0.955316 0
M  V30 17744 H 1609.23 -2.89446 -1.18067 0
M  V30 17745 H 1608.45 -3.77206 1.14495 0
M  V30 17746 H 1609.74 -4.98384 1.02427 0
M  V30 17747 H 1609.14 -5.2337 -2.14709 0
M  V30 17748 H 1607.7 -6.16566 -2.11399 0
M  V30 17749 N 1611.13 -0.710588 -1.40671 0
M  V30 17750 C 1612.37 -0.252303 -2.02837 0
M  V30 17751 C 1612.73 1.13154 -1.55113 0
M  V30 17752 O 1613.93 1.68653 -2.09307 0
M  V30 17753 C 1612.21 -0.323902 -3.55929 0
M  V30 17754 S 1613.76 0.0581316 -4.38761 0
M  V30 17755 H 1610.58 -0.100448 -0.703869 0
M  V30 17756 H 1613.18 -0.931699 -1.71871 0
M  V30 17757 H 1611.89 -1.33279 -3.88156 0
M  V30 17758 H 1611.42 0.37414 -3.91617 0
M  V30 17759 H 1613.43 1.28162 -4.79363 0
M  V30 17760 N 1612.61 1.50847 -0.456408 0
M  V30 17761 C 1614.02 1.59222 -0.109731 0
M  V30 17762 C 1614.22 1.46582 1.3826 0
M  V30 17763 O 1613.28 1.31678 2.15446 0
M  V30 17764 C 1614.59 2.9366 -0.646846 0
M  V30 17765 C 1616.14 3.07019 -0.60897 0
M  V30 17766 C 1616.62 4.44009 -1.12338 0
M  V30 17767 N 1618.11 4.50381 -1.08217 0
M  V30 17768 C 1618.84 5.54741 -1.45086 0
M  V30 17769 N 1618.34 6.66427 -1.89333 0
M  V30 17770 N 1620.13 5.45204 -1.36782 0
M  V30 17771 H 1612.28 1.57307 -1.42717 0
M  V30 17772 H 1614.54 0.742587 -0.589295 0
M  V30 17773 H 1614.25 3.0834 -1.69172 0
M  V30 17774 H 1614.12 3.7711 -0.0822535 0
M  V30 17775 H 1616.51 2.91995 0.426958 0
M  V30 17776 H 1616.59 2.25362 -1.21019 0
M  V30 17777 H 1616.24 4.59781 -2.15787 0
M  V30 17778 H 1616.17 5.24235 -0.498512 0
M  V30 17779 H 1618.66 3.70231 -0.757467 0
M  V30 17780 H 1618.97 7.42101 -2.15652 0
M  V30 17781 H 1617.32 6.67585 -1.93275 0
M  V30 17782 H 1620.51 4.56837 -1.02066 0
M  V30 17783 H 1620.68 6.26419 -1.65842 0
M  V30 17784 N 1614.09 0.188454 1.56469 0
M  V30 17785 C 1615.02 -0.730379 2.21783 0
M  V30 17786 C 1616 -1.22629 1.17882 0
M  V30 17787 O 1617.18 -1.27634 1.46367 0
M  V30 17788 C 1614.31 -1.95278 2.872 0
M  V30 17789 C 1613.27 -1.59205 3.97288 0
M  V30 17790 C 1612.59 -2.89052 4.49836 0
M  V30 17791 C 1613.89 -0.807027 5.16027 0
M  V30 17792 H 1615.59 -0.185914 2.98822 0
M  V30 17793 H 1613.13 -0.0879804 1.43731 0
M  V30 17794 H 1615.08 -2.60074 3.31571 0
M  V30 17795 H 1613.81 -2.52167 2.07556 0
M  V30 17796 H 1612.47 -0.967713 3.53597 0
M  V30 17797 H 1612.12 -3.44017 3.66963 0
M  V30 17798 H 1611.82 -2.65663 5.24115 0
M  V30 17799 H 1613.34 -3.54847 4.96906 0
M  V30 17800 H 1614.75 -1.35794 5.56986 0
M  V30 17801 H 1613.15 -0.671516 5.96331 0
M  V30 17802 H 1614.22 0.193251 4.84515 0
M  V30 17803 N 1615.56 -1.5737 -0.0851874 0
M  V30 17804 C 1616.49 -2.05796 -1.10319 0
M  V30 17805 C 1617.47 -0.948796 -1.4118 0
M  V30 17806 O 1618.66 -1.22069 -1.51039 0
M  V30 17807 C 1615.79 -2.49069 -2.42037 0
M  V30 17808 C 1614.74 -3.6374 -2.25561 0
M  V30 17809 C 1614.07 -3.93023 -3.62543 0
M  V30 17810 C 1615.37 -4.94274 -1.68793 0
M  V30 17811 H 1617.06 -2.91095 -0.700274 0
M  V30 17812 H 1614.61 -1.40039 -0.335405 0
M  V30 17813 H 1616.56 -2.81558 -3.13534 0
M  V30 17814 H 1615.29 -1.60781 -2.84283 0
M  V30 17815 H 1613.95 -3.31513 -1.56507 0
M  V30 17816 H 1613.59 -3.01887 -4.02335 0
M  V30 17817 H 1613.29 -4.70229 -3.52362 0
M  V30 17818 H 1614.82 -4.27995 -4.35491 0
M  V30 17819 H 1616.23 -5.25079 -2.30141 0
M  V30 17820 H 1614.63 -5.75711 -1.69344 0
M  V30 17821 H 1615.7 -4.80548 -0.648204 0
M  V30 17822 N 1617.04 0.356258 -1.53521 0
M  V30 17823 C 1618.29 1.09953 -1.70406 0
M  V30 17824 C 1618.62 1.8869 -0.459304 0
M  V30 17825 O 1617.9 1.86751 0.54354 0
M  V30 17826 C 1618.18 2.05114 -2.95973 0
M  V30 17827 C 1618.03 1.29924 -4.30627 0
M  V30 17828 C 1619.35 3.0511 -3.17168 0
M  V30 17829 H 1616.47 0.398343 -0.620074 0
M  V30 17830 H 1619.11 0.379376 -1.86174 0
M  V30 17831 H 1617.26 2.66524 -2.82661 0
M  V30 17832 H 1618.93 0.71226 -4.55768 0
M  V30 17833 H 1617.18 0.601141 -4.29615 0
M  V30 17834 H 1617.85 1.99624 -5.1464 0
M  V30 17835 H 1620.32 2.53809 -3.29728 0
M  V30 17836 H 1619.2 3.68908 -4.06445 0
M  V30 17837 H 1619.46 3.75794 -2.32876 0
M  V30 17838 N 1618.52 1.45038 0.616577 0
M  V30 17839 C 1619.74 1.52321 1.40759 0
M  V30 17840 C 1620.17 0.15375 1.87471 0
M  V30 17841 O 1619.53 -0.859908 1.5961 0
M  V30 17842 C 1619.58 2.50464 2.59423 0
M  V30 17843 O 1618.68 2.01623 3.59753 0
M  V30 17844 H 1618.02 0.513808 0.420592 0
M  V30 17845 H 1620.55 1.90309 0.751234 0
M  V30 17846 H 1620.56 2.68977 3.06783 0
M  V30 17847 H 1619.24 3.4993 2.24771 0
M  V30 17848 H 1617.81 1.92945 3.19103 0
M  V30 17849 N 1620 -0.858287 1.32179 0
M  V30 17850 C 1621.27 -1.59548 1.13154 0
M  V30 17851 C 1621.65 -2.0882 -0.309439 0
M  V30 17852 O 1621 -1.87536 -1.30547 0
M  V30 17853 C 1621.21 -2.74443 2.15597 0
M  V30 17854 C 1622.56 -3.44115 2.48737 0
M  V30 17855 O 1623.58 -2.84664 2.14114 0
M  V30 17856 O 1622.44 -4.51389 3.08074 0
M  V30 17857 H 1619.54 -0.702481 0.436405 0
M  V30 17858 H 1622.08 -0.902731 1.43697 0
M  V30 17859 H 1620.86 -2.35533 3.12473 0
M  V30 17860 H 1620.48 -3.51397 1.86028 0
M  V30 17861 N 1621.48 -1.1533 -1.07409 0
M  V30 17862 C 1622.72 -0.922348 -1.79376 0
M  V30 17863 C 1623.04 0.551929 -1.87652 0
M  V30 17864 O 1624.24 0.900444 -2.56133 0
M  V30 17865 C 1622.7 -1.60081 -3.22339 0
M  V30 17866 C 1622.31 -3.11206 -3.22265 0
M  V30 17867 C 1624.05 -1.45138 -3.98917 0
M  V30 17868 C 1621.96 -3.71842 -4.59878 0
M  V30 17869 H 1620.89 -0.341438 -0.672262 0
M  V30 17870 H 1623.54 -1.38336 -1.20562 0
M  V30 17871 H 1621.92 -1.06748 -3.81341 0
M  V30 17872 H 1623.1 -3.7129 -2.72911 0
M  V30 17873 H 1621.41 -3.25903 -2.59183 0
M  V30 17874 H 1624.01 -1.87832 -5.00623 0
M  V30 17875 H 1624.35 -0.398796 -4.14385 0
M  V30 17876 H 1624.88 -1.95564 -3.46409 0
M  V30 17877 H 1621.62 -4.76998 -4.49614 0
M  V30 17878 H 1621.14 -3.16541 -5.09472 0
M  V30 17879 H 1622.82 -3.72733 -5.28847 0
M  V30 17880 N 1622.95 1.25748 -0.950004 0
M  V30 17881 C 1623.89 2.25247 -0.423855 0
M  V30 17882 C 1624.9 1.56233 0.457726 0
M  V30 17883 O 1626.09 1.76496 0.266749 0
M  V30 17884 C 1623.19 3.36422 0.409074 0
M  V30 17885 C 1622.36 4.34991 -0.458421 0
M  V30 17886 C 1621.42 5.25253 0.315537 0
M  V30 17887 O 1620.45 5.68489 -0.284474 0
M  V30 17888 N 1621.65 5.57732 1.60983 0
M  V30 17889 H 1624.41 2.71026 -1.27925 0
M  V30 17890 H 1621.97 1.39607 -0.819853 0
M  V30 17891 H 1623.97 3.93764 0.934447 0
M  V30 17892 H 1622.54 2.90068 1.1653 0
M  V30 17893 H 1621.76 3.76594 -1.16494 0
M  V30 17894 H 1623.04 4.97833 -1.05068 0
M  V30 17895 H 1622.44 5.24502 2.1193 0
M  V30 17896 H 1621 6.17678 2.08126 0
M  V30 17897 N 1624.43 0.718038 1.40292 0
M  V30 17898 C 1625.66 0.268326 2.05153 0
M  V30 17899 C 1626.07 -1.09075 1.54104 0
M  V30 17900 O 1625.43 -1.68597 0.698654 0
M  V30 17901 C 1625.48 0.242222 3.60688 0
M  V30 17902 O 1625.2 1.54764 4.09853 0
M  V30 17903 C 1626.7 -0.225741 4.42725 0
M  V30 17904 H 1623.92 0.120165 0.660153 0
M  V30 17905 H 1626.47 0.976933 1.79656 0
M  V30 17906 H 1624.62 -0.417367 3.85145 0
M  V30 17907 H 1625.04 1.44976 5.04066 0
M  V30 17908 H 1626.51 -0.192857 5.51663 0
M  V30 17909 H 1626.99 -1.26829 4.20489 0
M  V30 17910 H 1627.59 0.40366 4.2338 0
M  V30 17911 N 1625.91 -1.50602 0.464402 0
M  V30 17912 C 1627.16 -2.01478 -0.0945398 0
M  V30 17913 C 1627.47 -1.35165 -1.41386 0
M  V30 17914 O 1628.68 -1.7716 -2.05735 0
M  V30 17915 C 1627.13 -3.59233 -0.219003 0
M  V30 17916 C 1626.74 -4.345 1.09148 0
M  V30 17917 C 1628.49 -4.18172 -0.730262 0
M  V30 17918 C 1626.39 -5.84023 0.931179 0
M  V30 17919 H 1625.32 -0.752985 -0.0391065 0
M  V30 17920 H 1627.97 -1.73473 0.598283 0
M  V30 17921 H 1626.36 -3.83798 -0.975455 0
M  V30 17922 H 1627.53 -4.21665 1.85837 0
M  V30 17923 H 1625.85 -3.8714 1.53334 0
M  V30 17924 H 1628.44 -5.27622 -0.867119 0
M  V30 17925 H 1628.79 -3.79113 -1.71986 0
M  V30 17926 H 1629.32 -3.97788 -0.0313808 0
M  V30 17927 H 1626.06 -6.27543 1.89395 0
M  V30 17928 H 1625.58 -5.99451 0.20456 0
M  V30 17929 H 1627.26 -6.44257 0.595118 0
M  V30 17930 N 1627.39 -0.19675 -1.56367 0
M  V30 17931 C 1628.32 0.75534 -2.16396 0
M  V30 17932 C 1629.33 1.17558 -1.12623 0
M  V30 17933 O 1630.52 1.11102 -1.39709 0
M  V30 17934 C 1627.62 2.03159 -2.71256 0
M  V30 17935 C 1626.8 1.77088 -3.99948 0
M  V30 17936 C 1625.85 2.89176 -4.39618 0
M  V30 17937 O 1624.88 2.58712 -5.07007 0
M  V30 17938 N 1626.08 4.17569 -4.03257 0
M  V30 17939 H 1628.85 0.241991 -2.98721 0
M  V30 17940 H 1626.41 -0.0148423 -1.61893 0
M  V30 17941 H 1628.4 2.77287 -2.94778 0
M  V30 17942 H 1626.97 2.45611 -1.93375 0
M  V30 17943 H 1626.19 0.867309 -3.84541 0
M  V30 17944 H 1627.48 1.5707 -4.83949 0
M  V30 17945 H 1626.88 4.45171 -3.49054 0
M  V30 17946 H 1625.43 4.88319 -4.31726 0
M  V30 17947 N 1628.87 1.57413 0.0768405 0
M  V30 17948 C 1630.28 1.75776 0.629262 0
M  V30 17949 C 1630.63 0.821502 1.78173 0
M  V30 17950 O 1629.75 0.00437198 2.164 0
M  V30 17951 C 1630.35 3.18747 1.14828 0
M  V30 17952 C 1628.91 3.38472 1.64661 0
M  V30 17953 C 1628.05 2.71506 0.563884 0
M  V30 17954 H 1631.01 1.57996 -0.149312 0
M  V30 17955 H 1631.03 3.22628 2.01722 0
M  V30 17956 H 1630.54 3.86866 0.309282 0
M  V30 17957 H 1628.64 2.75461 2.50903 0
M  V30 17958 H 1628.75 4.4689 1.72703 0
M  V30 17959 H 1627.12 2.33917 1.00772 0
M  V30 17960 H 1627.9 3.42277 -0.264847 0
M  V30 17961 N 1630.34 -0.348112 1.53707 0
M  V30 17962 C 1631.57 -1.11346 1.74976 0
M  V30 17963 C 1631.99 -1.81726 0.485525 0
M  V30 17964 O 1631.35 -1.72384 -0.561565 0
M  V30 17965 C 1631.4 -2.10611 2.92703 0
M  V30 17966 O 1630.5 -3.18042 2.62532 0
M  V30 17967 H 1629.85 -0.322247 0.580563 0
M  V30 17968 H 1632.38 -0.399898 2.00654 0
M  V30 17969 H 1632.39 -2.53912 3.19363 0
M  V30 17970 H 1631.06 -1.58782 3.84397 0
M  V30 17971 H 1629.64 -2.79591 2.46746 0
M  V30 17972 N 1631.82 -1.45363 -0.608876 0
M  V30 17973 C 1632.75 -1.56778 -1.7304 0
M  V30 17974 C 1633.73 -0.419405 -1.64848 0
M  V30 17975 O 1634.92 -0.64238 -1.83268 0
M  V30 17976 C 1632.05 -1.5329 -3.1164 0
M  V30 17977 C 1631 -2.66832 -3.34641 0
M  V30 17978 C 1630.33 -2.48398 -4.735 0
M  V30 17979 C 1631.63 -4.0885 -3.25021 0
M  V30 17980 H 1633.32 -2.50656 -1.63743 0
M  V30 17981 H 1630.87 -1.20635 -0.786338 0
M  V30 17982 H 1632.82 -1.59873 -3.89895 0
M  V30 17983 H 1631.55 -0.559414 -3.21773 0
M  V30 17984 H 1630.2 -2.59675 -2.58775 0
M  V30 17985 H 1629.85 -1.49191 -4.80366 0
M  V30 17986 H 1629.55 -3.24537 -4.89846 0
M  V30 17987 H 1631.08 -2.56833 -5.53958 0
M  V30 17988 H 1632.49 -4.17257 -3.93153 0
M  V30 17989 H 1630.89 -4.85369 -3.52897 0
M  V30 17990 H 1631.96 -4.30849 -2.2248 0
M  V30 17991 N 1633.3 0.851265 -1.32632 0
M  V30 17992 C 1634.25 1.98152 -1.21813 0
M  V30 17993 C 1635.24 1.68959 -0.122182 0
M  V30 17994 O 1636.45 1.77724 -0.285332 0
M  V30 17995 H 1632.82 0.650275 -0.377686 0
M  V30 17996 H 1634.79 2.04405 -2.17397 0
M  V30 17997 C 1633.54 3.34141 -0.961521 0
M  V30 17998 H 1632.87 3.57136 -1.79704 0
M  V30 17999 H 1634.31 4.13763 -0.926077 0
M  V30 18000 C 1632.77 3.35223 0.335704 0
M  V30 18001 O 1633.3 3.78461 1.34647 0
M  V30 18002 N 1631.5 2.88376 0.358875 0
M  V30 18003 H 1631.05 2.53383 -0.464194 0
M  V30 18004 H 1631.01 2.89482 1.22668 0
M  V30 18005 N 1634.78 1.15898 1.06796 0
M  V30 18006 C 1636 0.961859 1.83747 0
M  V30 18007 C 1636.43 -0.48494 1.81741 0
M  V30 18008 O 1635.79 -1.3461 1.21449 0
M  V30 18009 C 1635.83 1.48764 3.28484 0
M  V30 18010 O 1634.94 0.690576 4.06577 0
M  V30 18011 H 1634.28 0.342664 0.568751 0
M  V30 18012 H 1636.81 1.54015 1.34687 0
M  V30 18013 H 1636.82 1.50291 3.79311 0
M  V30 18014 H 1635.49 2.54089 3.29259 0
M  V30 18015 H 1634.07 0.74539 3.65374 0
M  V30 18016 N 1636.26 -1.25243 0.956659 0
M  V30 18017 C 1637.5 -1.93299 0.613446 0
M  V30 18018 C 1637.84 -1.74723 -0.847671 0
M  V30 18019 O 1637.11 -1.09357 -1.60846 0
M  V30 18020 C 1637.39 -3.46637 0.975421 0
M  V30 18021 C 1637.25 -3.74431 2.49242 0
M  V30 18022 C 1638.57 -4.37228 0.501948 0
M  V30 18023 H 1635.68 -0.702027 0.224338 0
M  V30 18024 H 1638.33 -1.47822 1.19368 0
M  V30 18025 H 1636.48 -3.85503 0.48167 0
M  V30 18026 H 1638.15 -3.4519 3.06009 0
M  V30 18027 H 1636.39 -3.19967 2.92923 0
M  V30 18028 H 1637.06 -4.81674 2.69619 0
M  V30 18029 H 1639.54 -4.05677 0.925514 0
M  V30 18030 H 1638.41 -5.43274 0.783895 0
M  V30 18031 H 1638.68 -4.38036 -0.598082 0
M  V30 18032 N 1637.73 -0.725468 -1.3991 0
M  V30 18033 C 1638.68 -0.0682776 -2.325 0
M  V30 18034 C 1639.68 0.736285 -1.52562 0
M  V30 18035 O 1640.88 0.638542 -1.68293 0
M  V30 18036 H 1637.26 -0.00327742 -0.751993 0
M  V30 18037 H 1639.23 -0.865735 -2.85565 0
M  V30 18038 C 1637.98 0.832036 -3.37598 0
M  V30 18039 H 1637.3 0.222341 -3.99181 0
M  V30 18040 H 1638.74 1.25965 -4.04856 0
M  V30 18041 C 1637.2 1.96201 -2.73874 0
M  V30 18042 O 1637.73 3.05378 -2.60974 0
M  V30 18043 N 1635.94 1.74857 -2.32106 0
M  V30 18044 H 1635.48 0.860621 -2.42798 0
M  V30 18045 H 1635.44 2.50639 -1.89808 0
M  V30 18046 N 1639.21 1.50354 -0.472382 0
M  V30 18047 C 1640.12 2.32318 0.326405 0
M  V30 18048 C 1641.14 1.4276 0.994771 0
M  V30 18049 O 1642.31 1.75811 0.98246 0
M  V30 18050 C 1639.38 3.17468 1.39337 0
M  V30 18051 C 1638.44 4.22848 0.741465 0
M  V30 18052 C 1637.67 5.03929 1.75759 0
M  V30 18053 O 1637.9 4.86105 2.98425 0
M  V30 18054 O 1636.83 5.87051 1.32871 0
M  V30 18055 H 1640.66 3.01749 -0.343702 0
M  V30 18056 H 1638.24 1.47553 -0.234207 0
M  V30 18057 H 1640.12 3.703 2.01136 0
M  V30 18058 H 1638.8 2.50764 2.04692 0
M  V30 18059 H 1637.71 3.74005 0.0844848 0
M  V30 18060 H 1639.04 4.92026 0.130838 0
M  V30 18061 N 1640.69 0.205039 1.56261 0
M  V30 18062 C 1641.94 -0.430245 1.97467 0
M  V30 18063 C 1642.26 -1.6146 1.09342 0
M  V30 18064 O 1641.53 -1.95188 0.166836 0
M  V30 18065 H 1640.11 -0.161945 0.729234 0
M  V30 18066 H 1642.77 0.294089 1.92668 0
M  V30 18067 H 1641.87 -0.767699 3.02511 0
M  V30 18068 N 1642.17 -1.57451 -0.0684915 0
M  V30 18069 C 1643.42 -1.87041 -0.765505 0
M  V30 18070 C 1643.74 -0.797489 -1.77947 0
M  V30 18071 O 1643.01 0.17349 -1.9513 0
M  V30 18072 H 1641.59 -0.690203 -0.285708 0
M  V30 18073 H 1644.25 -1.94851 -0.0437957 0
M  V30 18074 H 1643.35 -2.8466 -1.27966 0
M  V30 18075 N 1643.65 0.339955 -1.5389 0
M  V30 18076 C 1644.58 1.43837 -1.78448 0
M  V30 18077 C 1645.59 1.48559 -0.665885 0
M  V30 18078 O 1646.78 1.51577 -0.942686 0
M  V30 18079 C 1643.88 2.82474 -1.87248 0
M  V30 18080 C 1643.05 3.01149 -3.17219 0
M  V30 18081 C 1642.11 4.20049 -3.16931 0
M  V30 18082 O 1641.14 4.13994 -3.90638 0
M  V30 18083 N 1642.34 5.28767 -2.39553 0
M  V30 18084 H 1645.11 1.2314 -2.73234 0
M  V30 18085 H 1642.67 0.529855 -1.52984 0
M  V30 18086 H 1644.66 3.60196 -1.84502 0
M  V30 18087 H 1643.23 2.96297 -0.996322 0
M  V30 18088 H 1642.45 2.10867 -3.3306 0
M  V30 18089 H 1643.74 3.10511 -4.03063 0
M  V30 18090 H 1643.14 5.36557 -1.79228 0
M  V30 18091 H 1641.69 6.04969 -2.42601 0
M  V30 18092 N 1645.13 1.45684 0.601159 0
M  V30 18093 C 1646.07 1.54846 1.71147 0
M  V30 18094 C 1647.04 0.393914 1.61361 0
M  V30 18095 O 1648.23 0.608222 1.80846 0
M  V30 18096 C 1645.37 1.52723 3.09467 0
M  V30 18097 C 1644.48 2.78776 3.30012 0
M  V30 18098 C 1643.62 2.68281 4.58474 0
M  V30 18099 C 1642.65 3.89358 4.72299 0
M  V30 18100 N 1641.79 3.77359 5.92068 0
M  V30 18101 H 1646.63 2.49696 1.62653 0
M  V30 18102 H 1644.17 1.23894 0.793006 0
M  V30 18103 H 1646.13 1.49479 3.89502 0
M  V30 18104 H 1644.76 0.614189 3.16903 0
M  V30 18105 H 1643.81 2.9208 2.43708 0
M  V30 18106 H 1645.12 3.68563 3.36099 0
M  V30 18107 H 1644.27 2.63039 5.46713 0
M  V30 18108 H 1643.01 1.76103 4.54795 0
M  V30 18109 H 1642.02 3.94952 3.82482 0
M  V30 18110 H 1643.24 4.82609 4.77771 0
M  V30 18111 H 1641.19 2.87955 5.89422 0
M  V30 18112 H 1641.11 4.60786 5.99343 0
M  V30 18113 H 1642.37 3.76061 6.82787 0
M  V30 18114 N 1646.6 -0.84422 1.33082 0
M  V30 18115 C 1647.85 -1.59404 1.23585 0
M  V30 18116 C 1648.17 -1.94593 -0.198208 0
M  V30 18117 O 1649.37 -2.68307 -0.415138 0
M  V30 18118 C 1647.83 -2.87489 2.16513 0
M  V30 18119 C 1647.44 -2.59685 3.65059 0
M  V30 18120 C 1649.18 -3.6551 2.15877 0
M  V30 18121 C 1647.09 -3.83834 4.49917 0
M  V30 18122 H 1646.02 -0.598191 0.459003 0
M  V30 18123 H 1648.67 -0.931299 1.58111 0
M  V30 18124 H 1647.05 -3.55276 1.74913 0
M  V30 18125 H 1648.22 -2.00143 4.15065 0
M  V30 18126 H 1646.54 -1.94977 3.6793 0
M  V30 18127 H 1649.14 -4.57654 2.76509 0
M  V30 18128 H 1649.48 -4.00031 1.15244 0
M  V30 18129 H 1650.01 -3.0464 2.55811 0
M  V30 18130 H 1646.75 -3.54448 5.51404 0
M  V30 18131 H 1646.27 -4.42734 4.04656 0
M  V30 18132 H 1647.95 -4.51468 4.63449 0
M  V30 18133 N 1648.08 -1.16463 -1.0618 0
M  V30 18134 C 1649.03 -0.87224 -2.13683 0
M  V30 18135 C 1650 0.179784 -1.65124 0
M  V30 18136 O 1651.18 0.0447406 -1.90748 0
M  V30 18137 C 1648.32 -0.380728 -3.42993 0
M  V30 18138 C 1647.44 -1.49571 -4.05281 0
M  V30 18139 C 1646.57 -0.959099 -5.2247 0
M  V30 18140 C 1645.61 -2.05021 -5.76743 0
M  V30 18141 N 1644.75 -1.5291 -6.85247 0
M  V30 18142 H 1649.59 -1.79288 -2.38033 0
M  V30 18143 H 1647.12 -0.894379 -1.16787 0
M  V30 18144 H 1649.08 -0.0773816 -4.17128 0
M  V30 18145 H 1647.71 0.502966 -3.18857 0
M  V30 18146 H 1646.76 -1.915 -3.28682 0
M  V30 18147 H 1648.08 -2.31904 -4.41613 0
M  V30 18148 H 1647.23 -0.609003 -6.03636 0
M  V30 18149 H 1645.97 -0.105086 -4.87587 0
M  V30 18150 H 1644.97 -2.40899 -4.94214 0
M  V30 18151 H 1646.2 -2.90821 -6.13678 0
M  V30 18152 H 1644.15 -0.697639 -6.5228 0
M  V30 18153 H 1644.06 -2.28859 -7.20527 0
M  V30 18154 H 1645.33 -1.20762 -7.70089 0
M  V30 18155 N 1649.56 1.24734 -0.963288 0
M  V30 18156 C 1650.51 2.27557 -0.481704 0
M  V30 18157 C 1651.5 1.63245 0.452488 0
M  V30 18158 O 1652.71 1.76981 0.328263 0
M  V30 18159 H 1649.08 0.73936 -0.137297 0
M  V30 18160 H 1651.05 2.65555 -1.361 0
M  V30 18161 C 1649.8 3.47023 0.216806 0
M  V30 18162 H 1649.13 3.9675 -0.492916 0
M  V30 18163 H 1650.57 4.20828 0.517659 0
M  V30 18164 C 1649.02 3.04466 1.44229 0
M  V30 18165 O 1649.55 3.11238 2.53956 0
M  V30 18166 N 1647.76 2.59563 1.30674 0
M  V30 18167 H 1647.31 2.54252 0.41395 0
M  V30 18168 H 1647.27 2.31453 2.12783 0
M  V30 18169 N 1651.04 0.732878 1.39523 0
M  V30 18170 C 1651.95 0.0930216 2.34416 0
M  V30 18171 C 1652.96 -0.724309 1.58208 0
M  V30 18172 O 1654.14 -0.653267 1.90511 0
M  V30 18173 C 1651.2 -0.805036 3.37224 0
M  V30 18174 C 1650.27 0.0243049 4.29293 0
M  V30 18175 C 1649.5 -0.830984 5.27191 0
M  V30 18176 O 1649.72 -2.06977 5.31523 0
M  V30 18177 O 1648.66 -0.260772 6.01335 0
M  V30 18178 H 1652.48 0.876179 2.90786 0
M  V30 18179 H 1650.07 0.493525 1.41013 0
M  V30 18180 H 1651.95 -1.31894 4.00228 0
M  V30 18181 H 1650.62 -1.56704 2.83241 0
M  V30 18182 H 1649.53 0.583677 3.69519 0
M  V30 18183 H 1650.86 0.748485 4.86476 0
M  V30 18184 N 1652.52 -1.50101 0.480349 0
M  V30 18185 C 1653.48 -2.27258 -0.297763 0
M  V30 18186 C 1654.48 -1.32415 -0.912296 0
M  V30 18187 O 1655.67 -1.5576 -0.780035 0
M  V30 18188 C 1652.8 -3.09684 -1.42508 0
M  V30 18189 H 1653.99 -2.97495 0.379011 0
M  V30 18190 H 1651.55 -1.54528 0.234681 0
M  V30 18191 H 1652.28 -2.43964 -2.13663 0
M  V30 18192 H 1652.07 -3.79393 -0.990125 0
M  V30 18193 H 1653.56 -3.68013 -1.97374 0
M  V30 18194 N 1653.99 -0.213323 -1.5615 0
M  V30 18195 C 1654.9 0.711703 -2.23544 0
M  V30 18196 C 1655.92 1.22027 -1.24038 0
M  V30 18197 O 1657.1 1.26361 -1.56828 0
M  V30 18198 C 1654.16 1.90645 -2.89578 0
M  V30 18199 C 1653.22 1.44066 -4.04405 0
M  V30 18200 C 1652.45 2.57846 -4.6728 0
M  V30 18201 O 1652.68 3.75781 -4.29121 0
M  V30 18202 O 1651.61 2.29518 -5.56422 0
M  V30 18203 H 1655.44 0.167635 -3.03237 0
M  V30 18204 H 1653.02 0.016771 -1.49391 0
M  V30 18205 H 1654.9 2.60435 -3.31288 0
M  V30 18206 H 1653.58 2.43877 -2.12851 0
M  V30 18207 H 1652.49 0.711024 -3.67281 0
M  V30 18208 H 1653.82 0.954809 -4.8285 0
M  V30 18209 N 1655.47 1.57485 0.0601405 0
M  V30 18210 C 1656.88 1.76433 0.610583 0
M  V30 18211 C 1657.23 0.840353 1.77292 0
M  V30 18212 O 1656.36 0.0273238 2.16383 0
M  V30 18213 C 1656.95 3.19947 1.11441 0
M  V30 18214 C 1655.51 3.402 1.61062 0
M  V30 18215 C 1654.66 2.72089 0.535055 0
M  V30 18216 H 1657.61 1.57829 -0.166062 0
M  V30 18217 H 1657.63 3.24749 1.98288 0
M  V30 18218 H 1657.14 3.87172 0.268233 0
M  V30 18219 H 1655.25 2.78106 2.47967 0
M  V30 18220 H 1655.36 4.48696 1.67954 0
M  V30 18221 H 1653.72 2.34972 0.982855 0
M  V30 18222 H 1654.51 3.41977 -0.301135 0
M  V30 18223 N 1656.95 -0.331789 1.54068 0
M  V30 18224 C 1657.86 -1.43116 1.8589 0
M  V30 18225 C 1658.88 -1.57003 0.75007 0
M  V30 18226 O 1660.05 -1.72256 1.04355 0
M  V30 18227 C 1657.12 -2.77945 2.07238 0
M  V30 18228 C 1656.18 -2.73303 3.31065 0
M  V30 18229 C 1655.41 -4.01702 3.51385 0
M  V30 18230 O 1655.63 -4.99562 2.75306 0
M  V30 18231 O 1654.57 -4.0546 4.44844 0
M  V30 18232 H 1658.39 -1.19137 2.79357 0
M  V30 18233 H 1655.98 -0.525057 1.3987 0
M  V30 18234 H 1657.86 -3.57774 2.22656 0
M  V30 18235 H 1656.54 -3.01831 1.16959 0
M  V30 18236 H 1655.44 -1.92054 3.21039 0
M  V30 18237 H 1656.78 -2.54371 4.21374 0
M  V30 18238 N 1658.43 -1.46001 -0.593424 0
M  V30 18239 C 1659.68 -1.50755 -1.352 0
M  V30 18240 C 1660 -0.154929 -1.93882 0
M  V30 18241 O 1659.26 0.848161 -1.76365 0
M  V30 18242 C 1659.56 -2.54568 -2.50858 0
M  V30 18243 C 1659.22 -3.98888 -2.10236 0
M  V30 18244 C 1657.89 -4.38182 -1.98872 0
M  V30 18245 C 1660.24 -4.89591 -1.78746 0
M  V30 18246 C 1657.57 -5.66057 -1.5426 0
M  V30 18247 C 1659.92 -6.17892 -1.35617 0
M  V30 18248 C 1658.58 -6.56103 -1.22822 0
M  V30 18249 H 1657.85 -0.551652 -0.494734 0
M  V30 18250 H 1660.5 -1.79422 -0.669327 0
M  V30 18251 H 1658.8 -2.19523 -3.24526 0
M  V30 18252 H 1660.5 -2.5548 -3.09081 0
M  V30 18253 H 1657.09 -3.67822 -2.20012 0
M  V30 18254 H 1661.27 -4.59959 -1.86416 0
M  V30 18255 H 1656.53 -5.94444 -1.42988 0
M  V30 18256 H 1660.7 -6.87609 -1.10301 0
M  V30 18257 H 1658.33 -7.55086 -0.880285 0
M  V30 18258 N 1659.91 0.83715 -1.33527 0
M  V30 18259 C 1660.87 1.92865 -1.23837 0
M  V30 18260 C 1661.87 1.60032 -0.157005 0
M  V30 18261 O 1663.06 1.69339 -0.408654 0
M  V30 18262 C 1660.19 3.28568 -0.908617 0
M  V30 18263 H 1661.38 2.02883 -2.20859 0
M  V30 18264 H 1658.94 1.02944 -1.1761 0
M  V30 18265 H 1659.67 3.24246 0.0590328 0
M  V30 18266 H 1659.46 3.53779 -1.69064 0
M  V30 18267 H 1660.95 4.0853 -0.86561 0
M  V30 18268 N 1661.38 1.17024 1.05561 0
M  V30 18269 C 1662.61 0.981293 1.82717 0
M  V30 18270 C 1663.03 -0.465636 1.82246 0
M  V30 18271 O 1662.39 -1.33315 1.22869 0
M  V30 18272 C 1662.44 1.52239 3.26888 0
M  V30 18273 O 1661.54 0.73366 4.05822 0
M  V30 18274 H 1660.89 0.348677 0.565084 0
M  V30 18275 H 1663.42 1.55435 1.33046 0
M  V30 18276 H 1663.43 1.54306 3.77695 0
M  V30 18277 H 1662.1 2.57567 3.26545 0
M  V30 18278 H 1660.68 0.784101 3.64563 0
M  V30 18279 N 1662.86 -1.24221 0.969889 0
M  V30 18280 C 1664.28 -1.4454 0.676778 0
M  V30 18281 C 1664.48 -1.86591 -0.760656 0
M  V30 18282 O 1663.53 -2.00538 -1.5343 0
M  V30 18283 C 1664.85 -2.50546 1.66274 0
M  V30 18284 C 1666.4 -2.64372 1.67561 0
M  V30 18285 C 1666.87 -3.73577 2.6496 0
M  V30 18286 N 1668.36 -3.81007 2.63416 0
M  V30 18287 C 1669.1 -4.65037 3.35452 0
M  V30 18288 N 1668.59 -5.53238 4.17013 0
M  V30 18289 N 1670.39 -4.59138 3.24266 0
M  V30 18290 H 1662.54 -0.952237 1.89858 0
M  V30 18291 H 1664.8 -0.479972 0.817515 0
M  V30 18292 H 1664.51 -2.26541 2.6902 0
M  V30 18293 H 1664.38 -3.48745 1.43724 0
M  V30 18294 H 1666.77 -2.87733 0.655247 0
M  V30 18295 H 1666.85 -1.66523 1.94174 0
M  V30 18296 H 1666.49 -3.50965 3.67132 0
M  V30 18297 H 1666.42 -4.70944 2.35626 0
M  V30 18298 H 1668.91 -3.17969 2.04216 0
M  V30 18299 H 1669.23 -6.1432 4.68861 0
M  V30 18300 H 1667.57 -5.52896 4.21107 0
M  V30 18301 H 1670.76 -3.89247 2.60008 0
M  V30 18302 H 1670.93 -5.24399 3.8067 0
M  V30 18303 N 1664.34 -0.740267 -1.39132 0
M  V30 18304 C 1665.27 -0.118951 -2.33197 0
M  V30 18305 C 1666.25 0.718416 -1.54184 0
M  V30 18306 O 1667.44 0.662322 -1.82557 0
M  V30 18307 C 1664.57 0.78512 -3.38309 0
M  V30 18308 C 1663.52 0.0515093 -4.27969 0
M  V30 18309 C 1662.85 1.07295 -5.23824 0
M  V30 18310 C 1664.15 -1.10903 -5.1039 0
M  V30 18311 H 1665.84 -0.904687 -2.85405 0
M  V30 18312 H 1663.39 -0.436493 -1.37225 0
M  V30 18313 H 1665.34 1.22935 -4.03069 0
M  V30 18314 H 1664.06 1.60303 -2.84553 0
M  V30 18315 H 1662.72 -0.373156 -3.64696 0
M  V30 18316 H 1662.37 1.88456 -4.66362 0
M  V30 18317 H 1662.07 0.586827 -5.84662 0
M  V30 18318 H 1663.59 1.51677 -5.91461 0
M  V30 18319 H 1665.01 -0.742993 -5.68465 0
M  V30 18320 H 1663.41 -1.52513 -5.80396 0
M  V30 18321 H 1664.48 -1.92825 -4.44912 0
M  V30 18322 N 1665.82 1.49844 -0.488302 0
M  V30 18323 C 1666.73 2.32651 0.301746 0
M  V30 18324 C 1667.74 1.43807 0.979573 0
M  V30 18325 O 1668.92 1.76844 0.963758 0
M  V30 18326 C 1665.99 3.18928 1.35962 0
M  V30 18327 C 1665.05 4.23611 0.696575 0
M  V30 18328 C 1664.28 5.05765 1.70404 0
M  V30 18329 O 1664.5 4.89243 2.93253 0
M  V30 18330 O 1663.44 5.88427 1.26637 0
M  V30 18331 H 1667.26 3.01367 -0.375687 0
M  V30 18332 H 1664.85 1.47296 -0.249844 0
M  V30 18333 H 1666.73 3.72413 1.97198 0
M  V30 18334 H 1665.4 2.52921 2.02021 0
M  V30 18335 H 1664.31 3.74073 0.0448118 0
M  V30 18336 H 1665.64 4.92137 0.0786446 0
M  V30 18337 N 1667.3 0.221601 1.56034 0
M  V30 18338 C 1668.52 -0.414945 2.02696 0
M  V30 18339 C 1668.94 -1.53344 1.10141 0
M  V30 18340 O 1668.3 -1.82162 0.111026 0
M  V30 18341 C 1668.35 -0.946532 3.48888 0
M  V30 18342 O 1668.07 0.12737 4.37915 0
M  V30 18343 C 1669.57 -1.65631 4.11195 0
M  V30 18344 H 1666.79 -0.101548 0.663271 0
M  V30 18345 H 1669.33 0.338069 2.01686 0
M  V30 18346 H 1667.49 -1.64982 3.50514 0
M  V30 18347 H 1667.9 -0.272211 5.23793 0
M  V30 18348 H 1669.38 -1.98027 5.15257 0
M  V30 18349 H 1669.85 -2.56947 3.56195 0
M  V30 18350 H 1670.46 -0.998231 4.13419 0
M  V30 18351 N 1668.77 -1.57515 -0.0517878 0
M  V30 18352 C 1669.68 -2.08427 -1.07681 0
M  V30 18353 C 1670.7 -1.01797 -1.41115 0
M  V30 18354 O 1671.88 -1.33394 -1.50891 0
M  V30 18355 C 1668.94 -2.53472 -2.36544 0
M  V30 18356 C 1668 -3.74488 -2.09899 0
M  V30 18357 C 1667.24 -4.17374 -3.32618 0
M  V30 18358 O 1667.46 -3.59962 -4.42475 0
M  V30 18359 O 1666.39 -5.10006 -3.19653 0
M  V30 18360 H 1670.22 -2.96122 -0.674217 0
M  V30 18361 H 1667.8 -1.4699 -0.267274 0
M  V30 18362 H 1669.69 -2.82876 -3.12345 0
M  V30 18363 H 1668.36 -1.68899 -2.76143 0
M  V30 18364 H 1667.27 -3.50137 -1.31739 0
M  V30 18365 H 1668.6 -4.59975 -1.75169 0
M  V30 18366 N 1670.25 0.323614 -1.54242 0
M  V30 18367 C 1671.18 1.40344 -1.86616 0
M  V30 18368 C 1672.16 1.53972 -0.722963 0
M  V30 18369 O 1673.35 1.67852 -0.976692 0
M  V30 18370 C 1670.48 2.77112 -2.09347 0
M  V30 18371 C 1669.43 2.78273 -3.25189 0
M  V30 18372 C 1668.76 4.18116 -3.33291 0
M  V30 18373 C 1670.06 2.42025 -4.6284 0
M  V30 18374 H 1671.75 1.13499 -2.77053 0
M  V30 18375 H 1669.3 0.544553 -1.33306 0
M  V30 18376 H 1671.25 3.52719 -2.3058 0
M  V30 18377 H 1669.98 3.05435 -1.1566 0
M  V30 18378 H 1668.64 2.05121 -3.03844 0
M  V30 18379 H 1668.28 4.4358 -2.37163 0
M  V30 18380 H 1667.98 4.19799 -4.11147 0
M  V30 18381 H 1669.51 4.95536 -3.56758 0
M  V30 18382 H 1670.92 3.07346 -4.83954 0
M  V30 18383 H 1669.32 2.5496 -5.43245 0
M  V30 18384 H 1670.39 1.37175 -4.65092 0
M  V30 18385 N 1671.73 1.46313 0.585673 0
M  V30 18386 C 1672.68 1.56653 1.69495 0
M  V30 18387 C 1673.65 0.411007 1.60935 0
M  V30 18388 O 1674.83 0.627369 1.80191 0
M  V30 18389 C 1671.97 1.55996 3.0783 0
M  V30 18390 C 1671.09 2.82261 3.27036 0
M  V30 18391 C 1670.22 2.73129 4.55603 0
M  V30 18392 C 1669.26 3.94346 4.68143 0
M  V30 18393 N 1668.4 3.83617 5.88032 0
M  V30 18394 H 1673.24 2.51407 1.59995 0
M  V30 18395 H 1670.77 1.24729 0.779821 0
M  V30 18396 H 1672.73 1.53602 3.87895 0
M  V30 18397 H 1671.36 0.647766 3.16234 0
M  V30 18398 H 1670.41 2.94648 2.40596 0
M  V30 18399 H 1671.73 3.72107 3.32171 0
M  V30 18400 H 1670.88 2.68823 5.43893 0
M  V30 18401 H 1669.62 1.80917 4.52902 0
M  V30 18402 H 1668.62 3.98987 3.78272 0
M  V30 18403 H 1669.85 4.8765 4.72625 0
M  V30 18404 H 1667.8 2.9419 5.86334 0
M  V30 18405 H 1667.71 4.67117 5.94422 0
M  V30 18406 H 1668.98 3.83281 6.7876 0
M  V30 18407 N 1673.21 -0.830057 1.33969 0
M  V30 18408 C 1674.12 -1.97244 1.27012 0
M  V30 18409 C 1675.14 -1.73076 0.179075 0
M  V30 18410 O 1676.31 -1.97301 0.404262 0
M  V30 18411 C 1673.38 -3.31409 1.01827 0
M  V30 18412 C 1672.44 -3.68633 2.20018 0
M  V30 18413 C 1671.67 -4.96397 1.96025 0
M  V30 18414 O 1671.89 -5.63014 0.91494 0
M  V30 18415 O 1670.83 -5.31331 2.82791 0
M  V30 18416 H 1674.65 -2.06056 2.23103 0
M  V30 18417 H 1672.24 -0.964399 1.14104 0
M  V30 18418 H 1674.12 -4.11779 0.895337 0
M  V30 18419 H 1672.8 -3.23581 0.0877091 0
M  V30 18420 H 1671.7 -2.88738 2.37869 0
M  V30 18421 H 1673.04 -3.81138 3.11439 0
M  V30 18422 N 1674.69 -1.17582 -1.04939 0
M  V30 18423 C 1675.62 -0.918221 -2.14688 0
M  V30 18424 C 1676.6 0.140757 -1.69517 0
M  V30 18425 O 1677.78 -0.0100118 -1.94197 0
M  V30 18426 C 1674.91 -0.433531 -3.44584 0
M  V30 18427 C 1673.87 -1.43199 -4.03334 0
M  V30 18428 C 1673.19 -0.805154 -5.28603 0
M  V30 18429 C 1674.49 -2.80598 -4.40525 0
M  V30 18430 H 1676.19 -1.83604 -2.36495 0
M  V30 18431 H 1673.73 -0.884202 -1.13657 0
M  V30 18432 H 1675.69 -0.240722 -4.20712 0
M  V30 18433 H 1674.41 0.519832 -3.22437 0
M  V30 18434 H 1673.07 -1.61158 -3.29277 0
M  V30 18435 H 1672.72 0.155124 -5.02761 0
M  V30 18436 H 1672.42 -1.4717 -5.68871 0
M  V30 18437 H 1673.94 -0.622677 -6.07417 0
M  V30 18438 H 1675.36 -2.66341 -5.07676 0
M  V30 18439 H 1673.75 -3.43854 -4.91817 0
M  V30 18440 H 1674.82 -3.34815 -3.50752 0
M  V30 18441 N 1676.17 1.23705 -0.976463 0
M  V30 18442 C 1677.11 2.27034 -0.505813 0
M  V30 18443 C 1678.11 1.63716 0.435148 0
M  V30 18444 O 1679.31 1.7732 0.309474 0
M  V30 18445 H 1675.69 0.737862 -0.145131 0
M  V30 18446 H 1677.66 2.64097 -1.38908 0
M  V30 18447 C 1676.41 3.47234 0.179987 0
M  V30 18448 H 1675.73 3.96205 -0.534969 0
M  V30 18449 H 1677.17 4.21353 0.472996 0
M  V30 18450 C 1675.63 3.05979 1.40991 0
M  V30 18451 O 1676.16 3.13914 2.50641 0
M  V30 18452 N 1674.37 2.60934 1.27913 0
M  V30 18453 H 1673.91 2.54677 0.38696 0
M  V30 18454 H 1673.87 2.33697 2.10316 0
M  V30 18455 N 1677.64 0.747635 1.38738 0
M  V30 18456 C 1678.87 0.311781 2.04537 0
M  V30 18457 C 1679.29 -1.05782 1.56383 0
M  V30 18458 O 1678.64 -1.67077 0.734259 0
M  V30 18459 C 1678.69 0.318675 3.60093 0
M  V30 18460 O 1678.42 1.63423 4.06478 0
M  V30 18461 C 1679.92 -0.131782 4.43104 0
M  V30 18462 H 1677.14 0.134141 0.657455 0
M  V30 18463 H 1679.68 1.01482 1.77543 0
M  V30 18464 H 1677.84 -0.335578 3.85944 0
M  V30 18465 H 1678.25 1.55636 5.00877 0
M  V30 18466 H 1679.72 -0.0757978 5.51948 0
M  V30 18467 H 1680.2 -1.17881 4.23085 0
M  V30 18468 H 1680.81 0.493375 4.22429 0
M  V30 18469 N 1679.12 -1.49583 0.496242 0
M  V30 18470 C 1680.05 -2.26936 -0.321366 0
M  V30 18471 C 1681.07 -1.33282 -0.934863 0
M  V30 18472 O 1682.26 -1.58602 -0.819008 0
M  V30 18473 C 1679.36 -3.05503 -1.467 0
M  V30 18474 C 1678.53 -4.26697 -0.961687 0
M  V30 18475 C 1677.59 -4.8735 -1.98436 0
M  V30 18476 O 1676.61 -5.47553 -1.55482 0
M  V30 18477 N 1677.82 -4.76577 -3.31443 0
M  V30 18478 H 1680.58 -2.97744 0.341884 0
M  V30 18479 H 1678.14 -1.58532 0.328504 0
M  V30 18480 H 1680.13 -3.42954 -2.1486 0
M  V30 18481 H 1678.7 -2.37334 -2.03449 0
M  V30 18482 H 1677.92 -3.9406 -0.105143 0
M  V30 18483 H 1679.21 -5.05221 -0.602405 0
M  V30 18484 H 1678.61 -4.28756 -3.69032 0
M  V30 18485 H 1677.17 -5.18226 -3.95329 0
M  V30 18486 N 1680.6 -0.229873 -1.55915 0
M  V30 18487 C 1681.85 0.393361 -1.9956 0
M  V30 18488 C 1682.2 1.56794 -1.11506 0
M  V30 18489 O 1681.49 1.90872 -0.16682 0
M  V30 18490 C 1681.69 0.869043 -3.46673 0
M  V30 18491 C 1681.52 -0.2579 -4.4896 0
M  V30 18492 C 1680.29 -0.727024 -5.00042 0
M  V30 18493 C 1682.48 -1.07905 -5.02853 0
M  V30 18494 N 1680.47 -1.82816 -5.86047 0
M  V30 18495 C 1681.84 -2.02888 -5.85864 0
M  V30 18496 C 1683.89 -1.11755 -4.85196 0
M  V30 18497 C 1682.6 -3.01411 -6.53103 0
M  V30 18498 C 1684.62 -2.09099 -5.53201 0
M  V30 18499 C 1683.98 -3.02821 -6.35987 0
M  V30 18500 H 1680.08 0.110376 -0.774171 0
M  V30 18501 H 1682.67 -0.343552 -1.91645 0
M  V30 18502 H 1680.84 1.57529 -3.5502 0
M  V30 18503 H 1682.57 1.46579 -3.77222 0
M  V30 18504 H 1679.32 -0.314148 -4.72557 0
M  V30 18505 H 1679.75 -2.38097 -6.3375 0
M  V30 18506 H 1684.39 -0.406867 -4.20838 0
M  V30 18507 H 1682.11 -3.73437 -7.16638 0
M  V30 18508 H 1685.69 -2.12762 -5.41501 0
M  V30 18509 H 1684.57 -3.76915 -6.8768 0
M  V30 18510 N 1682.08 1.5754 0.0434337 0
M  V30 18511 C 1683.35 1.79733 0.771713 0
M  V30 18512 C 1683.73 0.82446 1.94334 0
M  V30 18513 O 1683.08 -0.136485 2.28092 0
M  V30 18514 C 1683.29 3.27049 1.2182 0
M  V30 18515 C 1684.64 3.91648 1.64002 0
M  V30 18516 O 1685.66 3.31111 1.31315 0
M  V30 18517 O 1684.52 4.98206 2.24618 0
M  V30 18518 H 1681.62 0.73861 0.372001 0
M  V30 18519 H 1684.16 1.69687 0.0213187 0
M  V30 18520 H 1682.94 3.89439 0.381158 0
M  V30 18521 H 1682.56 3.41929 2.02905 0
M  V30 18522 N 1683.56 -0.31543 1.54411 0
M  V30 18523 C 1684.51 -1.3898 1.80745 0
M  V30 18524 C 1685.49 -1.46567 0.663849 0
M  V30 18525 O 1686.68 -1.50963 0.924084 0
M  V30 18526 C 1683.81 -2.7571 2.04546 0
M  V30 18527 C 1682.9 -2.72403 3.2505 0
M  V30 18528 N 1683.29 -2.38715 4.45925 0
M  V30 18529 C 1681.59 -3.03523 3.26787 0
M  V30 18530 C 1682.29 -2.44346 5.27892 0
M  V30 18531 N 1681.26 -2.81118 4.65268 0
M  V30 18532 H 1685.06 -1.11875 2.71774 0
M  V30 18533 H 1682.58 -0.523951 1.53716 0
M  V30 18534 H 1684.58 -3.53156 2.21554 0
M  V30 18535 H 1683.24 -3.03738 1.14775 0
M  V30 18536 H 1684.25 -2.11419 4.72782 0
M  V30 18537 H 1680.92 -3.3654 2.47076 0
M  V30 18538 H 1682.31 -2.21221 6.34437 0
M  V30 18539 N 1685.03 -1.46622 -0.577906 0
M  V30 18540 C 1685.97 -1.52068 -1.70148 0
M  V30 18541 C 1686.95 -0.374405 -1.58231 0
M  V30 18542 O 1688.13 -0.579245 -1.79379 0
M  V30 18543 C 1685.26 -1.40377 -3.0824 0
M  V30 18544 C 1684.3 -2.59247 -3.38664 0
M  V30 18545 S 1685.14 -4.21576 -3.30203 0
M  V30 18546 C 1686.29 -4.12401 -4.70825 0
M  V30 18547 H 1686.52 -2.4713 -1.6527 0
M  V30 18548 H 1684.06 -1.34567 -0.757045 0
M  V30 18549 H 1686.02 -1.34318 -3.87903 0
M  V30 18550 H 1684.68 -0.467354 -3.10604 0
M  V30 18551 H 1683.87 -2.47073 -4.39285 0
M  V30 18552 H 1683.47 -2.6232 -2.66579 0
M  V30 18553 H 1685.76 -3.79378 -5.61319 0
M  V30 18554 H 1686.71 -5.13037 -4.88056 0
M  V30 18555 H 1687.11 -3.43578 -4.479 0
M  V30 18556 N 1686.51 0.822941 -1.34408 0
M  V30 18557 C 1687.75 1.59269 -1.28112 0
M  V30 18558 C 1688.12 1.91437 0.146924 0
M  V30 18559 O 1689.32 2.66716 0.334053 0
M  V30 18560 C 1687.59 2.85727 -2.14698 0
M  V30 18561 S 1689.15 3.76272 -2.25754 0
M  V30 18562 H 1685.97 0.545903 -0.455534 0
M  V30 18563 H 1688.57 0.972069 -1.6962 0
M  V30 18564 H 1687.27 2.60092 -3.17459 0
M  V30 18565 H 1686.8 3.52786 -1.74086 0
M  V30 18566 H 1688.82 4.75138 -1.43031 0
M  V30 18567 N 1687.99 1.18137 1.04314 0
M  V30 18568 C 1688.92 0.863879 2.12296 0
M  V30 18569 C 1689.94 -0.137469 1.62219 0
M  V30 18570 O 1691.12 0.0900306 1.78273 0
M  V30 18571 C 1688.22 0.269002 3.37831 0
M  V30 18572 C 1687.4 1.3154 4.17152 0
M  V30 18573 C 1686.46 0.736666 5.21018 0
M  V30 18574 O 1685.48 1.41075 5.5144 0
M  V30 18575 N 1686.68 -0.467037 5.78618 0
M  V30 18576 H 1689.45 1.7933 2.40127 0
M  V30 18577 H 1687.01 1.08142 1.20486 0
M  V30 18578 H 1689 -0.131671 4.04486 0
M  V30 18579 H 1687.57 -0.564386 3.07463 0
M  V30 18580 H 1686.79 1.89148 3.45856 0
M  V30 18581 H 1688.08 2.02093 4.66943 0
M  V30 18582 H 1687.48 -1.03247 5.56198 0
M  V30 18583 H 1686.04 -0.809663 6.46752 0
M  V30 18584 N 1689.47 -1.23186 0.98301 0
M  V30 18585 C 1690.4 -2.24044 0.483426 0
M  V30 18586 C 1691.41 -1.57392 -0.416143 0
M  V30 18587 O 1692.6 -1.77141 -0.219861 0
M  V30 18588 C 1689.7 -3.37388 -0.319733 0
M  V30 18589 C 1688.88 -4.33623 0.57359 0
M  V30 18590 C 1687.93 -5.25905 -0.176165 0
M  V30 18591 O 1686.96 -5.67535 0.435099 0
M  V30 18592 N 1688.16 -5.61804 -1.46139 0
M  V30 18593 H 1690.93 -2.67539 1.35066 0
M  V30 18594 H 1688.49 -1.37384 0.856579 0
M  V30 18595 H 1690.48 -3.96103 -0.829719 0
M  V30 18596 H 1689.05 -2.93056 -1.08799 0
M  V30 18597 H 1688.27 -3.73373 1.26437 0
M  V30 18598 H 1689.56 -4.94873 1.18231 0
M  V30 18599 H 1688.96 -5.29936 -1.97949 0
M  V30 18600 H 1687.51 -6.22979 -1.91676 0
M  V30 18601 N 1690.95 -0.754982 -1.38339 0
M  V30 18602 C 1692.19 -0.312224 -2.00382 0
M  V30 18603 C 1692.53 1.10362 -1.59793 0
M  V30 18604 O 1691.8 1.75611 -0.83613 0
M  V30 18605 C 1692.08 -0.436701 -3.57442 0
M  V30 18606 C 1691.94 -1.89376 -4.07991 0
M  V30 18607 C 1693.26 0.169083 -4.39775 0
M  V30 18608 H 1690.37 -0.114922 -0.727985 0
M  V30 18609 H 1693.02 -0.954887 -1.64262 0
M  V30 18610 H 1691.17 0.11043 -3.88343 0
M  V30 18611 H 1692.84 -2.4993 -3.87728 0
M  V30 18612 H 1691.08 -2.40834 -3.60807 0
M  V30 18613 H 1691.75 -1.932 -5.17086 0
M  V30 18614 H 1694.23 -0.297554 -4.15035 0
M  V30 18615 H 1693.1 0.0517531 -5.48876 0
M  V30 18616 H 1693.37 1.25754 -4.23838 0
M  V30 18617 N 1692.42 1.49318 -0.504168 0
M  V30 18618 C 1693.65 2.06569 0.0358894 0
M  V30 18619 C 1694.06 1.36437 1.31079 0
M  V30 18620 O 1693.41 0.437416 1.78416 0
M  V30 18621 C 1693.47 3.57726 0.356656 0
M  V30 18622 C 1693.13 4.49565 -0.820987 0
M  V30 18623 C 1694.13 4.90892 -1.71235 0
M  V30 18624 C 1691.81 4.9182 -1.02069 0
M  V30 18625 C 1693.81 5.73214 -2.78754 0
M  V30 18626 C 1691.49 5.73919 -2.09905 0
M  V30 18627 C 1692.49 6.14521 -2.98082 0
M  V30 18628 O 1692.18 6.94977 -4.04057 0
M  V30 18629 H 1691.91 0.675742 -0.0186739 0
M  V30 18630 H 1694.47 1.93044 -0.701664 0
M  V30 18631 H 1692.7 3.69271 1.14785 0
M  V30 18632 H 1694.39 3.97204 0.835704 0
M  V30 18633 H 1695.15 4.58889 -1.5699 0
M  V30 18634 H 1691.03 4.59717 -0.343714 0
M  V30 18635 H 1694.57 6.04826 -3.47609 0
M  V30 18636 H 1690.47 6.05334 -2.24144 0
M  V30 18637 H 1691.24 7.13289 -4.01449 0
M  V30 18638 N 1693.9 0.238138 1.5579 0
M  V30 18639 C 1694.87 -0.651703 2.1974 0
M  V30 18640 C 1695.87 -1.10932 1.16408 0
M  V30 18641 O 1697.06 -1.01544 1.41543 0
M  V30 18642 C 1694.19 -1.8947 2.83397 0
M  V30 18643 H 1695.38 -0.0939013 2.99753 0
M  V30 18644 H 1692.93 -0.0114348 1.56296 0
M  V30 18645 H 1693.67 -2.49395 2.07298 0
M  V30 18646 H 1693.45 -1.57486 3.59083 0
M  V30 18647 H 1694.94 -2.52831 3.32365 0
M  V30 18648 N 1695.38 -1.57561 -0.0350783 0
M  V30 18649 C 1696.8 -1.54746 -0.390618 0
M  V30 18650 C 1697 -0.963454 -1.76974 0
M  V30 18651 O 1696.05 -0.581878 -2.45704 0
M  V30 18652 C 1697.37 -2.9922 -0.297984 0
M  V30 18653 C 1698.91 -3.10739 -0.375506 0
M  V30 18654 C 1699.39 -4.56933 -0.312387 0
M  V30 18655 N 1700.88 -4.61709 -0.371364 0
M  V30 18656 C 1701.61 -5.72359 -0.34532 0
M  V30 18657 N 1701.11 -6.92266 -0.271921 0
M  V30 18658 N 1702.9 -5.60713 -0.394605 0
M  V30 18659 H 1695.05 -1.93876 0.867519 0
M  V30 18660 H 1697.32 -0.888974 0.329285 0
M  V30 18661 H 1697.02 -3.45651 0.649499 0
M  V30 18662 H 1696.9 -3.60987 -1.094 0
M  V30 18663 H 1699.28 -2.6426 -1.31342 0
M  V30 18664 H 1699.37 -2.51815 0.449752 0
M  V30 18665 H 1699.01 -5.04079 0.621834 0
M  V30 18666 H 1698.94 -5.13762 -1.15567 0
M  V30 18667 H 1701.43 -3.75436 -0.430848 0
M  V30 18668 H 1701.74 -7.72373 -0.256983 0
M  V30 18669 H 1700.09 -6.94592 -0.238058 0
M  V30 18670 H 1703.28 -4.65933 -0.449896 0
M  V30 18671 H 1703.45 -6.46938 -0.37084 0
M  V30 18672 N 1696.86 0.307236 -1.54576 0
M  V30 18673 C 1697.81 1.3787 -1.85096 0
M  V30 18674 C 1698.78 1.5066 -0.69935 0
M  V30 18675 O 1699.96 1.65618 -0.947373 0
M  V30 18676 C 1697.1 2.73976 -2.09836 0
M  V30 18677 C 1696.21 2.69687 -3.3748 0
M  V30 18678 C 1695.35 3.97746 -3.52096 0
M  V30 18679 C 1694.39 3.87829 -4.73556 0
M  V30 18680 N 1693.52 5.07651 -4.8501 0
M  V30 18681 H 1698.36 1.11144 -2.76498 0
M  V30 18682 H 1695.9 0.537696 -1.36921 0
M  V30 18683 H 1697.86 3.53121 -2.22174 0
M  V30 18684 H 1696.49 2.98977 -1.21707 0
M  V30 18685 H 1695.54 1.82441 -3.33795 0
M  V30 18686 H 1696.85 2.58247 -4.26743 0
M  V30 18687 H 1696.01 4.85327 -3.64065 0
M  V30 18688 H 1694.75 4.12012 -2.60955 0
M  V30 18689 H 1693.75 2.98633 -4.61626 0
M  V30 18690 H 1694.98 3.75114 -5.66098 0
M  V30 18691 H 1692.92 5.22393 -3.9679 0
M  V30 18692 H 1692.84 4.9861 -5.68264 0
M  V30 18693 H 1694.11 5.969 -5.01328 0
M  V30 18694 N 1698.34 1.46926 0.570122 0
M  V30 18695 C 1699.25 1.6105 1.70587 0
M  V30 18696 C 1700.26 0.493636 1.66851 0
M  V30 18697 O 1701.44 0.759454 1.86532 0
M  V30 18698 C 1698.5 1.60913 3.07096 0
M  V30 18699 C 1697.56 2.83928 3.21999 0
M  V30 18700 C 1696.8 2.83788 4.51996 0
M  V30 18701 O 1697.02 1.93256 5.36664 0
M  V30 18702 O 1695.95 3.75491 4.70415 0
M  V30 18703 H 1699.78 2.57126 1.61616 0
M  V30 18704 H 1697.37 1.29863 0.738637 0
M  V30 18705 H 1699.25 1.63576 3.88356 0
M  V30 18706 H 1697.92 0.680005 3.16477 0
M  V30 18707 H 1696.83 2.86814 2.40185 0
M  V30 18708 H 1698.16 3.76091 3.17516 0
M  V30 18709 N 1699.82 -0.815801 1.34842 0
M  V30 18710 C 1700.78 -1.90871 1.2689 0
M  V30 18711 C 1701.78 -1.59762 0.182445 0
M  V30 18712 O 1702.97 -1.68667 0.435543 0
M  V30 18713 C 1700.1 -3.27081 0.960774 0
M  V30 18714 H 1701.29 -1.99343 2.24059 0
M  V30 18715 H 1698.85 -1.0106 1.19233 0
M  V30 18716 H 1699.58 -3.24299 -0.00744059 0
M  V30 18717 H 1699.37 -3.51045 1.74671 0
M  V30 18718 H 1700.86 -4.07101 0.930494 0
M  V30 18719 N 1701.29 -1.18689 -1.03686 0
M  V30 18720 C 1702.22 -0.94094 -2.13702 0
M  V30 18721 C 1703.2 0.12277 -1.69656 0
M  V30 18722 O 1704.39 -0.0306085 -1.94176 0
M  V30 18723 C 1701.52 -0.470054 -3.44104 0
M  V30 18724 C 1700.47 -1.47468 -4.01792 0
M  V30 18725 C 1699.8 -0.861174 -5.2772 0
M  V30 18726 C 1701.1 -2.85254 -4.37524 0
M  V30 18727 H 1702.79 -1.86102 -2.34534 0
M  V30 18728 H 1700.34 -0.896207 -1.12713 0
M  V30 18729 H 1702.29 -0.28533 -4.20433 0
M  V30 18730 H 1701.02 0.485604 -3.2297 0
M  V30 18731 H 1699.68 -1.64641 -3.2755 0
M  V30 18732 H 1699.32 0.10179 -5.02897 0
M  V30 18733 H 1699.02 -1.53196 -5.67278 0
M  V30 18734 H 1700.55 -0.687066 -6.06722 0
M  V30 18735 H 1701.96 -2.71711 -5.04823 0
M  V30 18736 H 1700.36 -3.49051 -4.88143 0
M  V30 18737 H 1701.43 -3.38516 -3.47181 0
M  V30 18738 N 1702.77 1.22662 -0.989529 0
M  V30 18739 C 1703.72 2.24466 -0.536994 0
M  V30 18740 C 1704.69 1.60467 0.428907 0
M  V30 18741 O 1705.87 1.87846 0.334418 0
M  V30 18742 C 1703.01 3.44793 0.145526 0
M  V30 18743 C 1702.13 4.23318 -0.861716 0
M  V30 18744 C 1701.26 5.30979 -0.153062 0
M  V30 18745 C 1700.3 6.01221 -1.1489 0
M  V30 18746 N 1699.44 7.00533 -0.468782 0
M  V30 18747 H 1704.28 2.62539 -1.40987 0
M  V30 18748 H 1701.81 1.29035 -0.706291 0
M  V30 18749 H 1703.77 4.1345 0.558128 0
M  V30 18750 H 1702.4 3.07494 0.982213 0
M  V30 18751 H 1701.45 3.5399 -1.39266 0
M  V30 18752 H 1702.77 4.71753 -1.62019 0
M  V30 18753 H 1701.92 6.05874 0.316443 0
M  V30 18754 H 1700.66 4.8351 0.63794 0
M  V30 18755 H 1699.66 5.25111 -1.62907 0
M  V30 18756 H 1700.89 6.50779 -1.94072 0
M  V30 18757 H 1698.84 6.55301 0.302844 0
M  V30 18758 H 1698.75 7.46958 -1.16576 0
M  V30 18759 H 1700.02 7.79497 -0.0219686 0
M  V30 18760 N 1704.25 0.762308 1.37937 0
M  V30 18761 C 1705.5 0.321732 1.99523 0
M  V30 18762 C 1705.82 -1.10286 1.60816 0
M  V30 18763 O 1705.09 -1.75565 0.869117 0
M  V30 18764 H 1703.67 0.115967 0.737943 0
M  V30 18765 H 1706.33 0.978339 1.68566 0
M  V30 18766 H 1705.43 0.391818 3.09631 0
M  V30 18767 N 1705.73 -1.49049 0.51208 0
M  V30 18768 C 1706.98 -2.0208 -0.0284326 0
M  V30 18769 C 1707.3 -1.39303 -1.36454 0
M  V30 18770 O 1706.57 -0.552155 -1.87958 0
M  V30 18771 H 1705.15 -0.746878 -0.0134968 0
M  V30 18772 H 1707.81 -1.82954 0.671842 0
M  V30 18773 H 1706.9 -3.11739 -0.149966 0
M  V30 18774 N 1707.21 -0.246397 -1.55662 0
M  V30 18775 C 1708.14 0.647563 -2.24341 0
M  V30 18776 C 1709.12 1.1817 -1.22352 0
M  V30 18777 O 1710.3 1.22114 -1.51003 0
M  V30 18778 C 1707.43 1.84485 -2.94249 0
M  V30 18779 C 1706.39 1.4435 -4.02923 0
M  V30 18780 C 1705.71 2.72158 -4.60255 0
M  V30 18781 C 1707.01 0.614951 -5.18667 0
M  V30 18782 H 1708.71 0.0748803 -2.99306 0
M  V30 18783 H 1706.25 0.034575 -1.43958 0
M  V30 18784 H 1708.2 2.47588 -3.40995 0
M  V30 18785 H 1706.93 2.4429 -2.16772 0
M  V30 18786 H 1705.59 0.835811 -3.56945 0
M  V30 18787 H 1705.24 3.3016 -3.79478 0
M  V30 18788 H 1704.94 2.46028 -5.33614 0
M  V30 18789 H 1706.46 3.36161 -5.09734 0
M  V30 18790 H 1707.87 1.15028 -5.61642 0
M  V30 18791 H 1706.27 0.449729 -5.98412 0
M  V30 18792 H 1707.34 -0.372943 -4.83464 0
M  V30 18793 N 1708.68 1.57577 0.026722 0
M  V30 18794 C 1709.59 2.10114 1.04351 0
M  V30 18795 C 1710.61 1.04029 1.39477 0
M  V30 18796 O 1711.79 1.35778 1.48749 0
M  V30 18797 C 1708.85 2.57203 2.32481 0
M  V30 18798 C 1707.91 3.77779 2.03915 0
M  V30 18799 C 1707.14 4.22613 3.25936 0
M  V30 18800 O 1707.37 3.66955 4.36692 0
M  V30 18801 O 1706.3 5.15026 3.11499 0
M  V30 18802 H 1710.13 2.97157 0.627021 0
M  V30 18803 H 1707.71 1.47396 0.243855 0
M  V30 18804 H 1709.59 2.87809 3.07805 0
M  V30 18805 H 1708.27 1.7327 2.73421 0
M  V30 18806 H 1707.18 3.52188 1.26152 0
M  V30 18807 H 1708.51 4.62703 1.67829 0
M  V30 18808 N 1710.16 -0.299034 1.54737 0
M  V30 18809 C 1711.11 -1.36887 1.85824 0
M  V30 18810 C 1712.08 -1.50287 0.70733 0
M  V30 18811 O 1713.26 -1.65114 0.956143 0
M  V30 18812 C 1710.4 -2.7286 2.11286 0
M  V30 18813 C 1709.52 -2.67893 3.38906 0
M  V30 18814 C 1708.65 -3.95873 3.542 0
M  V30 18815 C 1707.69 -3.85312 4.75606 0
M  V30 18816 N 1706.83 -5.05072 4.87695 0
M  V30 18817 H 1711.67 -1.09676 2.77083 0
M  V30 18818 H 1709.2 -0.530427 1.37204 0
M  V30 18819 H 1711.16 -3.51938 2.24043 0
M  V30 18820 H 1709.79 -2.98327 1.23291 0
M  V30 18821 H 1708.84 -1.80669 3.34758 0
M  V30 18822 H 1710.16 -2.5598 4.28107 0
M  V30 18823 H 1709.31 -4.83389 3.66633 0
M  V30 18824 H 1708.05 -4.10622 2.63136 0
M  V30 18825 H 1707.05 -2.9618 4.63203 0
M  V30 18826 H 1708.28 -3.72106 5.68079 0
M  V30 18827 H 1706.23 -5.20281 3.99554 0
M  V30 18828 H 1706.14 -4.9559 5.709 0
M  V30 18829 H 1707.41 -5.94233 5.04487 0
M  V30 18830 N 1711.64 -1.47227 -0.562322 0
M  V30 18831 C 1712.87 -1.57196 -1.34526 0
M  V30 18832 C 1713.28 -0.220303 -1.8751 0
M  V30 18833 O 1712.64 0.785664 -1.64723 0
M  V30 18834 C 1712.69 -2.59312 -2.51872 0
M  V30 18835 O 1712.41 -3.89229 -2.01078 0
M  V30 18836 C 1713.91 -2.79416 -3.44153 0
M  V30 18837 H 1711.13 -0.530971 -0.410257 0
M  V30 18838 H 1713.68 -1.92804 -0.68168 0
M  V30 18839 H 1711.83 -2.26652 -3.14178 0
M  V30 18840 H 1712.25 -4.44985 -2.77648 0
M  V30 18841 H 1713.72 -3.54743 -4.2292 0
M  V30 18842 H 1714.2 -1.87054 -3.97376 0
M  V30 18843 H 1714.8 -3.13254 -2.87667 0
M  V30 18844 N 1713.12 0.808639 -1.35273 0
M  V30 18845 C 1714.36 1.56794 -1.28621 0
M  V30 18846 C 1714.7 1.93697 0.139686 0
M  V30 18847 O 1713.97 1.61185 1.08856 0
M  V30 18848 C 1714.25 2.85794 -2.19075 0
M  V30 18849 C 1714.11 2.5538 -3.70271 0
M  V30 18850 C 1715.43 3.87481 -2.08678 0
M  V30 18851 H 1712.55 0.568873 -0.468564 0
M  V30 18852 H 1715.19 0.930499 -1.65655 0
M  V30 18853 H 1713.34 3.40191 -1.87622 0
M  V30 18854 H 1715.01 2.07182 -4.12157 0
M  V30 18855 H 1713.25 1.88605 -3.90654 0
M  V30 18856 H 1713.92 3.47432 -4.28947 0
M  V30 18857 H 1716.4 3.42478 -2.36323 0
M  V30 18858 H 1715.28 4.75523 -2.7417 0
M  V30 18859 H 1715.54 4.29004 -1.06809 0
M  V30 18860 N 1714.6 1.19237 1.03055 0
M  V30 18861 C 1715.82 1.01983 1.80594 0
M  V30 18862 C 1716.25 -0.426875 1.83192 0
M  V30 18863 O 1715.6 -1.30678 1.2567 0
M  V30 18864 C 1715.65 1.59139 3.23585 0
M  V30 18865 O 1714.76 0.819576 4.04174 0
M  V30 18866 H 1714.1 0.360585 0.557561 0
M  V30 18867 H 1716.63 1.58222 1.29719 0
M  V30 18868 H 1716.64 1.62283 3.74337 0
M  V30 18869 H 1715.31 2.64436 3.21009 0
M  V30 18870 H 1713.89 0.861253 3.62818 0
M  V30 18871 N 1716.07 -1.22136 0.99602 0
M  V30 18872 C 1717 -2.26463 0.568909 0
M  V30 18873 C 1717.99 -1.65189 -0.405783 0
M  V30 18874 O 1719.17 -1.91935 -0.295735 0
M  V30 18875 C 1716.3 -3.47112 -0.114166 0
M  V30 18876 C 1715.25 -4.20844 0.779387 0
M  V30 18877 C 1714.58 -5.34687 -0.0367787 0
M  V30 18878 C 1715.88 -4.79195 2.07773 0
M  V30 18879 H 1717.57 -2.62443 1.44097 0
M  V30 18880 H 1715.12 -1.26156 0.694314 0
M  V30 18881 H 1717.07 -4.19258 -0.424381 0
M  V30 18882 H 1715.8 -3.10238 -1.02079 0
M  V30 18883 H 1714.46 -3.50537 1.07329 0
M  V30 18884 H 1714.1 -4.94054 -0.94442 0
M  V30 18885 H 1713.8 -5.84944 0.558092 0
M  V30 18886 H 1715.33 -6.09647 -0.341016 0
M  V30 18887 H 1716.74 -5.43266 1.83126 0
M  V30 18888 H 1715.14 -5.39803 2.62169 0
M  V30 18889 H 1716.21 -3.99073 2.75442 0
M  V30 18890 N 1717.55 -0.769612 -1.37531 0
M  V30 18891 C 1718.48 -0.11267 -2.28923 0
M  V30 18892 C 1719.5 0.666541 -1.4853 0
M  V30 18893 O 1720.69 0.504986 -1.71208 0
M  V30 18894 C 1717.79 0.864111 -3.27699 0
M  V30 18895 C 1716.96 0.139166 -4.37179 0
M  V30 18896 C 1716.02 1.029 -5.16041 0
M  V30 18897 O 1715.04 0.493571 -5.67056 0
M  V30 18898 N 1716.25 2.3555 -5.30562 0
M  V30 18899 H 1719.01 -0.897628 -2.85942 0
M  V30 18900 H 1716.57 -0.621776 -1.49484 0
M  V30 18901 H 1718.56 1.46279 -3.77339 0
M  V30 18902 H 1717.13 1.55005 -2.71463 0
M  V30 18903 H 1716.35 -0.640396 -3.88963 0
M  V30 18904 H 1717.64 -0.361847 -5.07512 0
M  V30 18905 H 1717.04 2.81489 -4.90694 0
M  V30 18906 H 1715.6 2.90429 -5.83519 0
M  V30 18907 N 1719.03 1.48775 -0.519977 0
M  V30 18908 C 1719.98 2.29461 0.248242 0
M  V30 18909 C 1720.95 1.36734 0.943027 0
M  V30 18910 O 1722.13 1.65697 0.946003 0
M  V30 18911 C 1719.27 3.19868 1.29531 0
M  V30 18912 C 1718.39 4.27666 0.610379 0
M  V30 18913 C 1717.52 5.05266 1.63951 0
M  V30 18914 C 1716.56 6.04878 0.937496 0
M  V30 18915 N 1715.7 6.75573 1.91171 0
M  V30 18916 H 1720.54 2.94643 -0.446016 0
M  V30 18917 H 1718.07 1.45262 -0.231792 0
M  V30 18918 H 1720.03 3.70675 1.91456 0
M  V30 18919 H 1718.66 2.5663 1.95808 0
M  V30 18920 H 1717.71 3.80202 -0.122598 0
M  V30 18921 H 1719.03 4.98765 0.0586864 0
M  V30 18922 H 1718.18 5.60037 2.33332 0
M  V30 18923 H 1716.92 4.33983 2.22509 0
M  V30 18924 H 1715.92 5.49321 0.229562 0
M  V30 18925 H 1717.15 6.78155 0.358166 0
M  V30 18926 H 1715.09 6.07048 2.48655 0
M  V30 18927 H 1715.01 7.42712 1.41118 0
M  V30 18928 H 1716.28 7.34938 2.59781 0
M  V30 18929 N 1720.51 0.254649 1.55529 0
M  V30 18930 C 1721.79 -0.418663 1.91067 0
M  V30 18931 C 1722.17 -1.75284 1.17638 0
M  V30 18932 O 1721.51 -2.26569 0.296411 0
M  V30 18933 C 1721.72 -0.579125 3.44162 0
M  V30 18934 C 1723.07 -0.871451 4.15561 0
M  V30 18935 O 1724.1 -0.664702 3.49943 0
M  V30 18936 O 1722.95 -1.26563 5.31643 0
M  V30 18937 H 1720.05 -0.22593 0.795541 0
M  V30 18938 H 1722.59 0.299288 1.6704 0
M  V30 18939 H 1721.37 0.36062 3.89635 0
M  V30 18940 H 1720.99 -1.34732 3.74076 0
M  V30 18941 N 1721.99 -1.57589 -0.0183649 0
M  V30 18942 C 1722.92 -2.1029 -1.01492 0
M  V30 18943 C 1723.9 -1.00782 -1.37029 0
M  V30 18944 O 1725.08 -1.28365 -1.45726 0
M  V30 18945 C 1722.21 -2.59111 -2.31255 0
M  V30 18946 C 1721.17 -3.72979 -2.0993 0
M  V30 18947 C 1720.49 -4.08046 -3.45547 0
M  V30 18948 C 1721.79 -5.00988 -1.47677 0
M  V30 18949 H 1723.49 -2.93804 -0.57618 0
M  V30 18950 H 1721.03 -1.41336 -0.275708 0
M  V30 18951 H 1722.99 -2.94602 -3.0131 0
M  V30 18952 H 1721.71 -1.72694 -2.77208 0
M  V30 18953 H 1720.37 -3.37853 -1.42306 0
M  V30 18954 H 1720.02 -3.1868 -3.89169 0
M  V30 18955 H 1719.72 -4.8475 -3.32101 0
M  V30 18956 H 1721.24 -4.46081 -4.16947 0
M  V30 18957 H 1722.65 -5.34368 -2.07663 0
M  V30 18958 H 1721.05 -5.82375 -1.44774 0
M  V30 18959 H 1722.12 -4.82865 -0.443804 0
M  V30 18960 N 1723.46 0.290824 -1.54893 0
M  V30 18961 C 1724.69 1.04775 -1.78988 0
M  V30 18962 C 1725.11 1.79799 -0.552637 0
M  V30 18963 O 1724.47 1.74349 0.497199 0
M  V30 18964 C 1724.52 1.99603 -3.00318 0
M  V30 18965 O 1723.62 3.08079 -2.74155 0
M  V30 18966 H 1722.97 0.300478 -0.592123 0
M  V30 18967 H 1725.5 0.325151 -2.02 0
M  V30 18968 H 1725.51 2.41884 -3.28567 0
M  V30 18969 H 1724.18 1.44406 -3.90025 0
M  V30 18970 H 1722.76 2.7024 -2.56953 0
M  V30 18971 N 1724.94 1.47523 0.554506 0
M  V30 18972 C 1725.85 1.62851 1.68869 0
M  V30 18973 C 1726.87 0.511305 1.66318 0
M  V30 18974 O 1728.04 0.779195 1.85716 0
M  V30 18975 C 1725.11 1.64161 3.05372 0
M  V30 18976 C 1724.17 2.87327 3.1897 0
M  V30 18977 C 1723.4 2.88566 4.48961 0
M  V30 18978 O 1723.63 1.98937 5.34584 0
M  V30 18979 O 1722.56 3.80459 4.66406 0
M  V30 18980 H 1726.39 2.58826 1.5888 0
M  V30 18981 H 1723.97 1.3064 0.724822 0
M  V30 18982 H 1725.85 1.67686 3.866 0
M  V30 18983 H 1724.53 0.713534 3.15738 0
M  V30 18984 H 1723.44 2.89345 2.37129 0
M  V30 18985 H 1724.77 3.79438 3.13509 0
M  V30 18986 N 1726.42 -0.801453 1.357 0
M  V30 18987 C 1727.35 -1.9196 1.23396 0
M  V30 18988 C 1728.33 -1.62151 0.12072 0
M  V30 18989 O 1729.52 -1.8626 0.289725 0
M  V30 18990 C 1726.64 -3.26491 0.901174 0
M  V30 18991 C 1725.69 -3.75243 2.02718 0
M  V30 18992 S 1726.52 -3.92435 3.64356 0
M  V30 18993 C 1727.68 -5.2986 3.33165 0
M  V30 18994 H 1727.91 -2.02103 2.1804 0
M  V30 18995 H 1725.44 -0.959388 1.20976 0
M  V30 18996 H 1727.4 -4.04208 0.715976 0
M  V30 18997 H 1726.06 -3.14088 -0.0272881 0
M  V30 18998 H 1725.26 -4.72694 1.7486 0
M  V30 18999 H 1724.86 -3.0454 2.17098 0
M  V30 19000 H 1727.15 -6.14029 2.86312 0
M  V30 19001 H 1728.09 -5.62715 4.29835 0
M  V30 19002 H 1728.5 -4.9639 2.68807 0
M  V30 19003 N 1727.9 -1.19782 -1.02421 0
M  V30 19004 C 1728.85 -0.907509 -2.09161 0
M  V30 19005 C 1729.83 0.129596 -1.60377 0
M  V30 19006 O 1731.02 -0.0767382 -1.76834 0
M  V30 19007 C 1728.15 -0.453095 -3.40297 0
M  V30 19008 C 1727.24 -1.5232 -3.95802 0
M  V30 19009 N 1727.63 -2.74379 -4.24912 0
M  V30 19010 C 1725.93 -1.38758 -4.23866 0
M  V30 19011 C 1726.63 -3.43348 -4.6956 0
M  V30 19012 N 1725.61 -2.70749 -4.71376 0
M  V30 19013 H 1729.41 -1.83512 -2.29566 0
M  V30 19014 H 1726.92 -1.09068 -1.20324 0
M  V30 19015 H 1728.92 -0.226551 -4.16284 0
M  V30 19016 H 1727.58 0.467983 -3.2131 0
M  V30 19017 H 1728.59 -3.11099 -4.1405 0
M  V30 19018 H 1725.27 -0.530327 -4.14118 0
M  V30 19019 H 1726.66 -4.47753 -5.00966 0
M  V30 19020 N 1729.38 1.21606 -1.00248 0
M  V30 19021 C 1730.29 2.2757 -0.570004 0
M  V30 19022 C 1731.3 1.69669 0.385788 0
M  V30 19023 O 1732.48 1.99839 0.250246 0
M  V30 19024 C 1729.54 3.46558 0.0990566 0
M  V30 19025 C 1728.61 4.19741 -0.9009 0
M  V30 19026 C 1727.84 5.33048 -0.263673 0
M  V30 19027 O 1728.06 5.62599 0.940131 0
M  V30 19028 O 1727 5.93978 -0.973342 0
M  V30 19029 H 1730.82 2.66751 -1.45182 0
M  V30 19030 H 1728.41 1.27955 -0.771224 0
M  V30 19031 H 1730.29 4.18733 0.47339 0
M  V30 19032 H 1728.96 3.09283 0.955285 0
M  V30 19033 H 1727.87 3.49798 -1.32634 0
M  V30 19034 H 1729.2 4.60921 -1.72664 0
M  V30 19035 N 1730.86 0.776895 1.37121 0
M  V30 19036 C 1732.1 0.353097 2.00312 0
M  V30 19037 C 1732.46 -1.06005 1.60563 0
M  V30 19038 O 1731.75 -1.71999 0.844208 0
M  V30 19039 C 1731.94 0.440201 3.54679 0
M  V30 19040 C 1731.77 1.86027 4.09419 0
M  V30 19041 C 1730.54 2.4821 4.40136 0
M  V30 19042 C 1732.74 2.82056 4.30057 0
M  V30 19043 N 1730.72 3.81936 4.80623 0
M  V30 19044 C 1732.09 4.0059 4.7321 0
M  V30 19045 C 1734.15 2.79276 4.12201 0
M  V30 19046 C 1732.85 5.16736 5.00376 0
M  V30 19047 C 1734.88 3.94599 4.40506 0
M  V30 19048 C 1734.24 5.11876 4.83904 0
M  V30 19049 H 1730.34 0.17636 0.761854 0
M  V30 19050 H 1732.92 1.01182 1.66344 0
M  V30 19051 H 1731.09 -0.188373 3.87943 0
M  V30 19052 H 1732.83 -0.00614674 4.047 0
M  V30 19053 H 1729.58 1.99787 4.29398 0
M  V30 19054 H 1730 4.50704 5.05168 0
M  V30 19055 H 1734.65 1.89775 3.77816 0
M  V30 19056 H 1732.36 6.06833 5.33647 0
M  V30 19057 H 1735.95 3.93794 4.28273 0
M  V30 19058 H 1734.83 5.9963 5.05385 0
M  V30 19059 N 1732.33 -1.48497 0.527859 0
M  V30 19060 C 1733.27 -2.26435 -0.283291 0
M  V30 19061 C 1734.24 -1.32198 -0.946698 0
M  V30 19062 O 1735.43 -1.61536 -0.97151 0
M  V30 19063 C 1732.56 -3.08364 -1.40104 0
M  V30 19064 C 1731.6 -4.17959 -0.849258 0
M  V30 19065 S 1732.43 -5.34761 0.281209 0
M  V30 19066 C 1733.59 -6.2025 -0.839067 0
M  V30 19067 H 1733.82 -2.94885 0.378142 0
M  V30 19068 H 1731.36 -1.51182 0.313608 0
M  V30 19069 H 1733.31 -3.56145 -2.04134 0
M  V30 19070 H 1731.98 -2.39332 -2.03419 0
M  V30 19071 H 1731.17 -4.74902 -1.68772 0
M  V30 19072 H 1730.77 -3.72907 -0.285691 0
M  V30 19073 H 1733.06 -6.54823 -1.7382 0
M  V30 19074 H 1734.01 -7.07431 -0.307661 0
M  V30 19075 H 1734.41 -5.53308 -1.11851 0
M  V30 19076 N 1733.81 -0.262893 -1.55392 0
M  V30 19077 C 1735.04 0.361057 -2.03725 0
M  V30 19078 C 1735.45 1.5037 -1.14168 0
M  V30 19079 O 1734.81 1.81804 -0.159284 0
M  V30 19080 C 1734.86 0.853697 -3.51275 0
M  V30 19081 O 1734.58 -0.243431 -4.37423 0
M  V30 19082 C 1736.08 1.54671 -4.15442 0
M  V30 19083 H 1733.3 0.0839272 -0.665731 0
M  V30 19084 H 1735.85 -0.391424 -2.00719 0
M  V30 19085 H 1734 1.55631 -3.54765 0
M  V30 19086 H 1734.42 0.133241 -5.24331 0
M  V30 19087 H 1735.89 1.84296 -5.20326 0
M  V30 19088 H 1736.37 2.47413 -3.62882 0
M  V30 19089 H 1736.97 0.888269 -4.15921 0
M  V30 19090 N 1735.29 1.57597 0.0100073 0
M  V30 19091 C 1736.22 2.04622 1.0326 0
M  V30 19092 C 1737.23 0.962343 1.31312 0
M  V30 19093 O 1738.42 1.23933 1.28464 0
M  V30 19094 C 1735.52 2.42271 2.36976 0
M  V30 19095 C 1734.7 3.73271 2.28008 0
M  V30 19096 C 1733.76 3.97899 3.4433 0
M  V30 19097 O 1732.78 4.68702 3.22966 0
M  V30 19098 N 1733.98 3.45015 4.66846 0
M  V30 19099 H 1736.75 2.92968 0.63164 0
M  V30 19100 H 1734.31 1.6069 0.197591 0
M  V30 19101 H 1736.3 2.55869 3.13549 0
M  V30 19102 H 1734.87 1.59496 2.68849 0
M  V30 19103 H 1734.09 3.69846 1.3641 0
M  V30 19104 H 1735.38 4.59172 2.19178 0
M  V30 19105 H 1734.78 2.87661 4.87101 0
M  V30 19106 H 1733.33 3.6396 5.40718 0
M  V30 19107 N 1736.77 -0.282606 1.55045 0
M  V30 19108 C 1737.73 -1.33228 1.86502 0
M  V30 19109 C 1738.73 -1.42814 0.738977 0
M  V30 19110 O 1739.92 -1.42131 1.0072 0
M  V30 19111 C 1737.05 -2.71488 2.06173 0
M  V30 19112 H 1738.25 -1.06571 2.80326 0
M  V30 19113 H 1735.8 -0.520199 1.47389 0
M  V30 19114 H 1736.53 -3.03339 1.14699 0
M  V30 19115 H 1736.32 -2.65917 2.8815 0
M  V30 19116 H 1737.81 -3.47348 2.31817 0
M  V30 19117 N 1738.25 -1.47815 -0.546675 0
M  V30 19118 C 1739.16 -1.63744 -1.68003 0
M  V30 19119 C 1740.17 -0.520118 -1.66044 0
M  V30 19120 O 1741.35 -0.789033 -1.853 0
M  V30 19121 C 1738.41 -1.65778 -3.04497 0
M  V30 19122 C 1737.47 -2.89015 -3.17441 0
M  V30 19123 C 1736.71 -2.90943 -4.47424 0
M  V30 19124 O 1736.93 -2.01769 -5.33522 0
M  V30 19125 O 1735.86 -3.82927 -4.64382 0
M  V30 19126 H 1739.69 -2.59665 -1.57505 0
M  V30 19127 H 1737.27 -1.31022 -0.717883 0
M  V30 19128 H 1739.16 -1.69734 -3.85705 0
M  V30 19129 H 1737.83 -0.730268 -3.15355 0
M  V30 19130 H 1736.74 -2.90599 -2.35591 0
M  V30 19131 H 1738.07 -3.81095 -3.11492 0
M  V30 19132 N 1739.72 0.794246 -1.36123 0
M  V30 19133 C 1740.63 1.93807 -1.32197 0
M  V30 19134 C 1741.65 1.7254 -0.2249 0
M  V30 19135 O 1742.83 1.9616 -0.456431 0
M  V30 19136 C 1739.89 3.28593 -1.10578 0
M  V30 19137 C 1738.95 3.6267 -2.29715 0
M  V30 19138 C 1738.18 4.91025 -2.09118 0
M  V30 19139 O 1738.41 5.6039 -1.06389 0
M  V30 19140 O 1737.34 5.23647 -2.96779 0
M  V30 19141 H 1741.17 2.00068 -2.28487 0
M  V30 19142 H 1738.75 0.933808 -1.16621 0
M  V30 19143 H 1740.63 4.0926 -1.0042 0
M  V30 19144 H 1739.31 3.23235 -0.17347 0
M  V30 19145 H 1738.22 2.82329 -2.4544 0
M  V30 19146 H 1739.55 3.72747 -3.21435 0
M  V30 19147 N 1741.2 1.20323 1.01785 0
M  V30 19148 C 1742.11 0.966603 2.13761 0
M  V30 19149 C 1743.13 -0.0771059 1.73829 0
M  V30 19150 O 1744.3 0.110054 2.01099 0
M  V30 19151 C 1741.37 0.520405 3.42772 0
M  V30 19152 C 1740.43 1.63482 3.96954 0
M  V30 19153 C 1739.66 1.20981 5.19807 0
M  V30 19154 O 1739.89 0.0779814 5.70347 0
M  V30 19155 O 1738.82 2.01674 5.67108 0
M  V30 19156 H 1742.65 1.90414 2.36593 0
M  V30 19157 H 1740.23 0.986997 1.12155 0
M  V30 19158 H 1742.11 0.280747 4.20464 0
M  V30 19159 H 1740.79 -0.388563 3.21359 0
M  V30 19160 H 1739.69 1.92874 3.20547 0
M  V30 19161 H 1741.03 2.52074 4.22752 0
M  V30 19162 N 1742.68 -1.21073 1.00892 0
M  V30 19163 C 1743.91 -1.93952 0.71178 0
M  V30 19164 C 1744.32 -1.74538 -0.730278 0
M  V30 19165 O 1743.66 -1.05164 -1.50619 0
M  V30 19166 C 1743.72 -3.46502 0.957957 0
M  V30 19167 C 1743.39 -3.89669 2.38762 0
M  V30 19168 C 1744.38 -3.96053 3.36805 0
M  V30 19169 C 1742.07 -4.21873 2.72632 0
M  V30 19170 C 1744.06 -4.34042 4.66783 0
M  V30 19171 C 1741.75 -4.59538 4.02825 0
M  V30 19172 C 1742.75 -4.65593 4.99712 0
M  V30 19173 O 1742.44 -5.02398 6.27576 0
M  V30 19174 H 1742.17 -0.623495 0.261208 0
M  V30 19175 H 1744.72 -1.54728 1.35086 0
M  V30 19176 H 1742.95 -3.85813 0.261704 0
M  V30 19177 H 1744.64 -4.00603 0.653596 0
M  V30 19178 H 1745.41 -3.71346 3.11974 0
M  V30 19179 H 1741.29 -4.16356 1.97912 0
M  V30 19180 H 1744.83 -4.38683 5.42405 0
M  V30 19181 H 1740.73 -4.837 4.27439 0
M  V30 19182 H 1741.49 -5.20417 6.3175 0
M  V30 19183 N 1744.16 -0.784156 -1.36707 0
M  V30 19184 C 1745.09 -0.193081 -2.327 0
M  V30 19185 C 1746.07 0.668999 -1.56392 0
M  V30 19186 O 1747.25 0.603908 -1.84571 0
M  V30 19187 C 1744.38 0.677092 -3.40636 0
M  V30 19188 C 1743.34 -0.0846718 -4.27916 0
M  V30 19189 C 1742.66 0.905754 -5.26973 0
M  V30 19190 C 1743.96 -1.27085 -5.06603 0
M  V30 19191 H 1745.66 -0.995029 -2.82382 0
M  V30 19192 H 1743.2 -0.479929 -1.35767 0
M  V30 19193 H 1745.16 1.1005 -4.06776 0
M  V30 19194 H 1743.88 1.51169 -2.89509 0
M  V30 19195 H 1742.54 -0.488992 -3.63324 0
M  V30 19196 H 1742.19 1.73524 -4.72121 0
M  V30 19197 H 1741.89 0.400524 -5.86233 0
M  V30 19198 H 1743.41 1.32784 -5.95987 0
M  V30 19199 H 1744.83 -0.923469 -5.65814 0
M  V30 19200 H 1743.22 -1.70901 -5.7525 0
M  V30 19201 H 1744.29 -2.06882 -4.38552 0
M  V30 19202 N 1745.64 1.48215 -0.535727 0
M  V30 19203 C 1746.55 2.33494 0.227577 0
M  V30 19204 C 1747.56 1.4685 0.933327 0
M  V30 19205 O 1748.74 1.7982 0.907008 0
M  V30 19206 C 1745.8 3.23092 1.25747 0
M  V30 19207 C 1744.86 4.25613 0.561454 0
M  V30 19208 C 1744.1 5.1093 1.54228 0
M  V30 19209 O 1744.32 4.98325 2.77539 0
M  V30 19210 O 1743.25 5.92158 1.07852 0
M  V30 19211 H 1747.08 3.0002 -0.471375 0
M  V30 19212 H 1744.67 1.46427 -0.296579 0
M  V30 19213 H 1746.55 3.78498 1.8525 0
M  V30 19214 H 1745.22 2.5922 1.93872 0
M  V30 19215 H 1744.13 3.74026 -0.0742194 0
M  V30 19216 H 1745.46 4.92138 -0.0779649 0
M  V30 19217 N 1747.11 0.27113 1.5525 0
M  V30 19218 C 1748.53 -0.0831186 1.59383 0
M  V30 19219 C 1748.73 -1.54931 1.28835 0
M  V30 19220 O 1747.79 -2.29756 1.0473 0
M  V30 19221 C 1749.1 0.287921 2.99318 0
M  V30 19222 C 1750.65 0.234209 3.12123 0
M  V30 19223 C 1751.12 0.57963 4.54317 0
M  V30 19224 N 1752.61 0.531033 4.60146 0
M  V30 19225 C 1753.35 0.771156 5.68191 0
M  V30 19226 N 1752.84 1.07569 6.84398 0
M  V30 19227 N 1754.64 0.700223 5.57722 0
M  V30 19228 H 1746.79 1.22702 1.73373 0
M  V30 19229 H 1749.05 0.495424 0.808244 0
M  V30 19230 H 1748.76 1.30746 3.26494 0
M  V30 19231 H 1748.63 -0.373205 3.75349 0
M  V30 19232 H 1751.02 -0.776035 2.84713 0
M  V30 19233 H 1751.1 0.929535 2.38313 0
M  V30 19234 H 1750.74 1.58754 4.82452 0
M  V30 19235 H 1750.67 -0.137442 5.26421 0
M  V30 19236 H 1753.16 0.305377 3.76664 0
M  V30 19237 H 1753.48 1.24568 7.62694 0
M  V30 19238 H 1751.82 1.11342 6.86023 0
M  V30 19239 H 1755.01 0.462183 4.65813 0
M  V30 19240 H 1755.19 0.890744 6.41849 0
M  V30 19241 N 1748.59 -1.576 -0.00164943 0
M  V30 19242 C 1749.87 -1.81716 -0.723788 0
M  V30 19243 C 1750.25 -0.875694 -1.9208 0
M  V30 19244 O 1749.6 0.0759629 -2.28374 0
M  V30 19245 C 1749.81 -3.30164 -1.13106 0
M  V30 19246 C 1751.16 -3.95859 -1.5356 0
M  V30 19247 O 1752.18 -3.34477 -1.2249 0
M  V30 19248 O 1751.04 -5.03986 -2.1133 0
M  V30 19249 H 1748.13 -0.748213 -0.352287 0
M  V30 19250 H 1750.68 -1.69683 0.0236782 0
M  V30 19251 H 1749.45 -3.90313 -0.277771 0
M  V30 19252 H 1749.07 -3.47188 -1.93768 0
M  V30 19253 N 1750.07 0.274379 -1.55193 0
M  V30 19254 C 1751.32 1.00617 -1.75734 0
M  V30 19255 C 1751.65 1.86334 -0.557679 0
M  V30 19256 O 1750.9 1.90221 0.459848 0
M  V30 19257 C 1751.2 1.91958 -3.01475 0
M  V30 19258 C 1750.87 1.22002 -4.34081 0
M  V30 19259 C 1749.53 1.02658 -4.70122 0
M  V30 19260 C 1751.88 0.722087 -5.16174 0
M  V30 19261 C 1749.21 0.322465 -5.85813 0
M  V30 19262 C 1751.56 0.0315683 -6.32592 0
M  V30 19263 C 1750.22 -0.173595 -6.67274 0
M  V30 19264 H 1749.49 0.368182 -0.643058 0
M  V30 19265 H 1752.14 0.278579 -1.89463 0
M  V30 19266 H 1750.45 2.71333 -2.8264 0
M  V30 19267 H 1752.14 2.48698 -3.14564 0
M  V30 19268 H 1748.73 1.3807 -4.05752 0
M  V30 19269 H 1752.92 0.859163 -4.88807 0
M  V30 19270 H 1748.17 0.152775 -6.11209 0
M  V30 19271 H 1752.35 -0.362033 -6.95458 0
M  V30 19272 H 1749.97 -0.721178 -7.56771 0
M  V30 19273 N 1751.55 1.48103 0.538828 0
M  V30 19274 C 1752.46 1.64632 1.67133 0
M  V30 19275 C 1753.47 0.528917 1.65766 0
M  V30 19276 O 1754.65 0.798849 1.84879 0
M  V30 19277 C 1751.72 1.67391 3.03614 0
M  V30 19278 C 1750.78 2.90694 3.15904 0
M  V30 19279 C 1750.01 2.93311 4.45875 0
M  V30 19280 O 1750.23 2.04596 5.32444 0
M  V30 19281 O 1749.17 3.85384 4.62345 0
M  V30 19282 H 1752.99 2.60496 1.56126 0
M  V30 19283 H 1750.58 1.31401 0.710925 0
M  V30 19284 H 1752.46 1.71777 3.84799 0
M  V30 19285 H 1751.13 0.746982 3.14963 0
M  V30 19286 H 1750.04 2.91844 2.34047 0
M  V30 19287 H 1751.37 3.82742 3.09467 0
M  V30 19288 N 1753.03 -0.787016 1.36542 0
M  V30 19289 C 1754.26 -1.5736 1.33871 0
M  V30 19290 C 1754.66 -1.89024 -0.0814846 0
M  V30 19291 O 1754.01 -1.50771 -1.04947 0
M  V30 19292 C 1754.07 -2.91978 2.09735 0
M  V30 19293 C 1753.73 -2.8303 3.58808 0
M  V30 19294 C 1754.73 -2.55108 4.53008 0
M  V30 19295 C 1752.42 -3.01531 4.01727 0
M  V30 19296 C 1754.41 -2.45793 5.88103 0
M  V30 19297 C 1752.1 -2.91838 5.36911 0
M  V30 19298 C 1753.09 -2.64007 6.29912 0
M  V30 19299 O 1752.78 -2.54312 7.62614 0
M  V30 19300 H 1752.51 -0.494659 0.460748 0
M  V30 19301 H 1755.07 -0.984519 1.80268 0
M  V30 19302 H 1753.3 -3.52946 1.58005 0
M  V30 19303 H 1754.99 -3.53268 1.99891 0
M  V30 19304 H 1755.75 -2.40514 4.21163 0
M  V30 19305 H 1751.63 -3.22199 3.2971 0
M  V30 19306 H 1755.18 -2.23991 6.60662 0
M  V30 19307 H 1751.07 -3.05995 5.68364 0
M  V30 19308 H 1751.84 -2.69776 7.72763 0
M  V30 19309 N 1754.5 -1.20861 -1.01145 0
M  V30 19310 C 1755.45 -0.962085 -2.09792 0
M  V30 19311 C 1756.42 0.109588 -1.65738 0
M  V30 19312 O 1757.61 -0.0362022 -1.90766 0
M  V30 19313 C 1754.75 -0.52586 -3.4107 0
M  V30 19314 C 1753.86 -1.66626 -3.98572 0
M  V30 19315 C 1752.99 -1.17983 -5.17932 0
M  V30 19316 C 1752.03 -2.29298 -5.67529 0
M  V30 19317 N 1751.17 -1.81836 -6.78145 0
M  V30 19318 H 1756.01 -1.89222 -2.30215 0
M  V30 19319 H 1753.55 -0.943108 -1.12889 0
M  V30 19320 H 1755.51 -0.25423 -4.16425 0
M  V30 19321 H 1754.14 0.367275 -3.20704 0
M  V30 19322 H 1753.19 -2.05268 -3.20264 0
M  V30 19323 H 1754.5 -2.50426 -4.3138 0
M  V30 19324 H 1753.65 -0.864477 -6.0051 0
M  V30 19325 H 1752.39 -0.311793 -4.86702 0
M  V30 19326 H 1751.4 -2.61644 -4.83552 0
M  V30 19327 H 1752.62 -3.16587 -6.00791 0
M  V30 19328 H 1750.57 -0.973665 -6.48734 0
M  V30 19329 H 1750.49 -2.59213 -7.10172 0
M  V30 19330 H 1751.75 -1.53315 -7.64274 0
M  V30 19331 N 1755.98 1.20536 -1.01532 0
M  V30 19332 C 1757.21 1.93853 -0.723104 0
M  V30 19333 C 1757.63 1.74697 0.715994 0
M  V30 19334 O 1756.98 1.06013 1.48551 0
M  V30 19335 C 1757.03 3.45986 -1.04767 0
M  V30 19336 O 1756.75 3.64514 -2.43025 0
M  V30 19337 C 1758.26 4.36449 -0.776323 0
M  V30 19338 H 1755.48 0.616179 -0.265639 0
M  V30 19339 H 1758.02 1.53064 -1.35616 0
M  V30 19340 H 1756.17 3.84659 -0.460039 0
M  V30 19341 H 1756.59 4.58513 -2.54689 0
M  V30 19342 H 1758.06 5.41853 -1.05351 0
M  V30 19343 H 1758.54 4.38245 0.289524 0
M  V30 19344 H 1759.15 4.03437 -1.34605 0
M  V30 19345 N 1757.46 0.791395 1.36289 0
M  V30 19346 C 1758.87 0.427611 1.81737 0
M  V30 19347 C 1759.22 -1.04868 1.65822 0
M  V30 19348 O 1758.35 -1.81379 1.18028 0
M  V30 19349 C 1758.94 0.769378 3.29949 0
M  V30 19350 C 1757.5 0.458397 3.73598 0
M  V30 19351 C 1756.65 1.00299 2.58526 0
M  V30 19352 H 1759.6 0.98437 1.24482 0
M  V30 19353 H 1759.62 0.061211 3.80451 0
M  V30 19354 H 1759.13 1.8439 3.415 0
M  V30 19355 H 1757.23 -0.608006 3.67606 0
M  V30 19356 H 1757.35 0.980392 4.68962 0
M  V30 19357 H 1755.71 0.426106 2.5111 0
M  V30 19358 H 1756.49 2.08331 2.72861 0
M  V30 19359 N 1758.94 -1.47929 0.54358 0
M  V30 19360 C 1760.22 -1.95535 -0.0505687 0
M  V30 19361 C 1760.6 -1.48603 -1.49934 0
M  V30 19362 O 1759.94 -0.718655 -2.16905 0
M  V30 19363 C 1760.15 -3.48907 0.0807654 0
M  V30 19364 C 1761.5 -4.2454 -0.0715671 0
M  V30 19365 O 1762.53 -3.56199 0.007637 0
M  V30 19366 O 1761.39 -5.45975 -0.239596 0
M  V30 19367 H 1758.48 -0.823883 -0.0717396 0
M  V30 19368 H 1761.03 -1.58391 0.60914 0
M  V30 19369 H 1759.8 -3.75828 1.08944 0
M  V30 19370 H 1759.42 -3.92781 -0.617178 0
M  V30 19371 N 1760.42 -0.27936 -1.55104 0
M  V30 19372 C 1761.33 0.616249 -2.26361 0
M  V30 19373 C 1762.34 1.16656 -1.29102 0
M  V30 19374 O 1763.52 1.19596 -1.62046 0
M  V30 19375 C 1760.58 1.78191 -2.97403 0
M  V30 19376 C 1759.65 1.26785 -4.10151 0
M  V30 19377 C 1758.88 2.37795 -4.77796 0
M  V30 19378 O 1759.1 3.57242 -4.44673 0
M  V30 19379 O 1758.04 2.05711 -5.65656 0
M  V30 19380 H 1761.86 0.0388715 -3.03675 0
M  V30 19381 H 1759.45 -0.0466058 -1.49327 0
M  V30 19382 H 1761.33 2.4615 -3.42036 0
M  V30 19383 H 1760 2.3463 -2.23003 0
M  V30 19384 H 1758.91 0.554608 -3.69966 0
M  V30 19385 H 1760.24 0.749157 -4.86465 0
M  V30 19386 N 1761.9 1.57599 -0.0067085 0
M  V30 19387 C 1762.83 2.11878 0.981331 0
M  V30 19388 C 1763.81 1.02949 1.35408 0
M  V30 19389 O 1764.99 1.30667 1.43665 0
M  V30 19390 C 1762.12 2.62757 2.27104 0
M  V30 19391 C 1761.08 3.76272 2.0397 0
M  V30 19392 C 1760.4 4.13491 3.39012 0
M  V30 19393 C 1761.7 5.03274 1.39688 0
M  V30 19394 H 1763.4 2.94683 0.529366 0
M  V30 19395 H 1760.94 1.41757 0.253187 0
M  V30 19396 H 1762.89 2.99359 2.96585 0
M  V30 19397 H 1761.62 1.77082 2.74426 0
M  V30 19398 H 1760.28 3.40074 1.36913 0
M  V30 19399 H 1759.93 3.24831 3.8405 0
M  V30 19400 H 1759.63 4.89972 3.24347 0
M  V30 19401 H 1761.15 4.52657 4.09797 0
M  V30 19402 H 1762.56 5.37604 1.99136 0
M  V30 19403 H 1760.96 5.84604 1.3549 0
M  V30 19404 H 1762.03 4.8351 0.366928 0
M  V30 19405 N 1763.37 -0.266145 1.55336 0
M  V30 19406 C 1764.31 -1.35159 1.85107 0
M  V30 19407 C 1765.32 -1.45213 0.736006 0
M  V30 19408 O 1766.51 -1.46907 1.01393 0
M  V30 19409 C 1763.61 -2.73218 2.00512 0
M  V30 19410 C 1762.78 -2.85671 3.31226 0
M  V30 19411 C 1761.84 -4.0445 3.36611 0
M  V30 19412 O 1760.87 -3.94884 4.09945 0
M  V30 19413 N 1762.07 -5.16735 2.64508 0
M  V30 19414 H 1764.83 -1.09963 2.78798 0
M  V30 19415 H 1762.39 -0.456261 1.55338 0
M  V30 19416 H 1764.39 -3.50983 2.01477 0
M  V30 19417 H 1762.96 -2.91206 1.13655 0
M  V30 19418 H 1762.18 -1.94736 3.42741 0
M  V30 19419 H 1763.46 -2.90927 4.17419 0
M  V30 19420 H 1762.86 -5.27395 2.04624 0
M  V30 19421 H 1761.42 -5.92706 2.71189 0
M  V30 19422 N 1764.85 -1.48386 -0.530967 0
M  V30 19423 C 1765.8 -1.62835 -1.63564 0
M  V30 19424 C 1766.77 -0.470453 -1.59298 0
M  V30 19425 O 1767.95 -0.693813 -1.77738 0
M  V30 19426 C 1765.09 -1.67314 -3.01828 0
M  V30 19427 C 1764.21 -2.94204 -3.16335 0
M  V30 19428 C 1763.34 -2.8985 -4.45152 0
M  V30 19429 C 1762.38 -4.11449 -4.53185 0
M  V30 19430 N 1761.52 -4.05178 -5.7339 0
M  V30 19431 H 1766.36 -2.57172 -1.50554 0
M  V30 19432 H 1763.89 -1.27537 -0.732991 0
M  V30 19433 H 1765.85 -1.67892 -3.81927 0
M  V30 19434 H 1764.48 -0.764688 -3.13612 0
M  V30 19435 H 1763.53 -3.03375 -2.29495 0
M  V30 19436 H 1764.85 -3.84179 -3.18132 0
M  V30 19437 H 1764 -2.88824 -5.33541 0
M  V30 19438 H 1762.74 -1.97602 -4.45875 0
M  V30 19439 H 1761.74 -4.12751 -3.63203 0
M  V30 19440 H 1762.97 -5.04855 -4.54201 0
M  V30 19441 H 1760.92 -3.15749 -5.75012 0
M  V30 19442 H 1760.83 -4.88857 -5.76676 0
M  V30 19443 H 1762.1 -4.08209 -6.64067 0
M  V30 19444 N 1766.33 0.779763 -1.36958 0
M  V30 19445 C 1767.29 1.87439 -1.31906 0
M  V30 19446 C 1768.29 1.59222 -0.224739 0
M  V30 19447 O 1769.48 1.67453 -0.480109 0
M  V30 19448 C 1766.61 3.24419 -1.04716 0
M  V30 19449 H 1767.81 1.93333 -2.29265 0
M  V30 19450 H 1765.36 0.978634 -1.21871 0
M  V30 19451 H 1766.1 3.24205 -0.0785442 0
M  V30 19452 H 1765.88 3.4629 -1.83917 0
M  V30 19453 H 1767.37 4.04491 -1.0381 0
M  V30 19454 N 1767.81 1.21396 1.00503 0
M  V30 19455 C 1769.05 1.0327 1.74537 0
M  V30 19456 C 1769.39 -0.432746 1.89317 0
M  V30 19457 O 1768.66 -1.32111 1.42747 0
M  V30 19458 C 1768.94 1.73045 3.15797 0
M  V30 19459 C 1768.8 3.27108 3.0874 0
M  V30 19460 C 1770.12 1.47298 4.14718 0
M  V30 19461 H 1767.24 0.376563 0.633537 0
M  V30 19462 H 1769.88 1.49571 1.17169 0
M  V30 19463 H 1768.03 1.33682 3.64776 0
M  V30 19464 H 1769.7 3.75839 2.67475 0
M  V30 19465 H 1767.94 3.57413 2.45843 0
M  V30 19466 H 1768.61 3.71096 4.08646 0
M  V30 19467 H 1771.09 1.81468 3.74444 0
M  V30 19468 H 1769.97 1.98633 5.11699 0
M  V30 19469 H 1770.23 0.402981 4.4026 0
M  V30 19470 N 1769.29 -1.19996 1.0217 0
M  V30 19471 C 1770.2 -2.26634 0.606136 0
M  V30 19472 C 1771.21 -1.70262 -0.358746 0
M  V30 19473 O 1772.39 -2.00212 -0.218422 0
M  V30 19474 C 1769.45 -3.46672 -0.0439096 0
M  V30 19475 C 1768.51 -4.18254 0.967563 0
M  V30 19476 C 1767.75 -5.32561 0.348443 0
M  V30 19477 O 1767.97 -5.64024 -0.850508 0
M  V30 19478 O 1766.9 -5.92354 1.06772 0
M  V30 19479 H 1770.73 -2.64407 1.49407 0
M  V30 19480 H 1768.31 -1.26712 0.791483 0
M  V30 19481 H 1770.2 -4.19433 -0.406714 0
M  V30 19482 H 1768.87 -3.10764 -0.90596 0
M  V30 19483 H 1767.78 -3.47644 1.38183 0
M  V30 19484 H 1769.11 -4.58116 1.79975 0
M  V30 19485 N 1770.76 -0.798611 -1.35867 0
M  V30 19486 C 1771.67 -0.204758 -2.33705 0
M  V30 19487 C 1772.69 0.648001 -1.61484 0
M  V30 19488 O 1773.87 0.561628 -1.93411 0
M  V30 19489 C 1770.93 0.643225 -3.40681 0
M  V30 19490 C 1769.99 -0.229099 -4.28688 0
M  V30 19491 C 1769.22 0.578508 -5.30555 0
M  V30 19492 O 1769.45 1.81382 -5.40793 0
M  V30 19493 O 1768.38 -0.0264291 -6.01894 0
M  V30 19494 H 1772.21 -1.01392 -2.86275 0
M  V30 19495 H 1769.79 -0.560242 -1.38498 0
M  V30 19496 H 1771.67 1.12648 -4.06065 0
M  V30 19497 H 1770.35 1.43012 -2.90395 0
M  V30 19498 H 1769.26 -0.759314 -3.66313 0
M  V30 19499 H 1770.59 -0.979736 -4.82351 0
M  V30 19500 N 1772.24 1.47639 -0.551417 0
M  V30 19501 C 1773.17 2.26857 0.247231 0
M  V30 19502 C 1774.15 1.33688 0.925546 0
M  V30 19503 O 1775.34 1.63061 0.945688 0
M  V30 19504 C 1772.46 3.10554 1.35181 0
M  V30 19505 C 1771.51 4.19257 0.782657 0
M  V30 19506 S 1772.34 5.34246 -0.366249 0
M  V30 19507 C 1773.5 6.21507 0.740284 0
M  V30 19508 H 1773.73 2.94246 -0.425008 0
M  V30 19509 H 1771.26 1.50663 -0.33762 0
M  V30 19510 H 1773.22 3.59348 1.98442 0
M  V30 19511 H 1771.88 2.42537 1.99586 0
M  V30 19512 H 1771.08 4.77527 1.61196 0
M  V30 19513 H 1770.68 3.73315 0.226329 0
M  V30 19514 H 1772.97 6.57505 1.6338 0
M  V30 19515 H 1773.91 7.07831 0.195076 0
M  V30 19516 H 1774.32 5.55017 1.03035 0
M  V30 19517 N 1773.72 0.287581 1.54954 0
M  V30 19518 C 1774.67 -0.594449 2.23013 0
M  V30 19519 C 1775.64 -1.14007 1.20795 0
M  V30 19520 O 1776.82 -1.18708 1.49376 0
M  V30 19521 C 1773.96 -1.76687 2.96439 0
M  V30 19522 C 1773.08 -1.25391 4.13402 0
M  V30 19523 C 1772.21 -2.38912 4.74441 0
M  V30 19524 C 1771.25 -1.84683 5.83574 0
M  V30 19525 N 1770.39 -2.91725 6.38624 0
M  V30 19526 H 1775.23 -0.00743921 2.97999 0
M  V30 19527 H 1772.76 0.00809578 1.47098 0
M  V30 19528 H 1774.72 -2.45621 3.37233 0
M  V30 19529 H 1773.35 -2.32571 2.23853 0
M  V30 19530 H 1772.4 -0.45726 3.77642 0
M  V30 19531 H 1773.72 -0.816813 4.92067 0
M  V30 19532 H 1772.87 -3.15818 5.18019 0
M  V30 19533 H 1771.61 -2.85943 3.95079 0
M  V30 19534 H 1770.61 -1.06261 5.39434 0
M  V30 19535 H 1771.84 -1.38572 6.64812 0
M  V30 19536 H 1769.78 -3.38115 5.62152 0
M  V30 19537 H 1769.7 -2.5247 7.12597 0
M  V30 19538 H 1770.97 -3.68569 6.86861 0
M  V30 19539 N 1775.2 -1.57593 0.0150662 0
M  V30 19540 C 1776.61 -1.5591 -0.341189 0
M  V30 19541 C 1776.81 -1.01927 -1.73819 0
M  V30 19542 O 1775.87 -0.659752 -2.43728 0
M  V30 19543 C 1777.18 -3.00016 -0.202639 0
M  V30 19544 C 1778.73 -3.11777 -0.276457 0
M  V30 19545 C 1779.21 -4.57696 -0.166859 0
M  V30 19546 N 1780.7 -4.62657 -0.224287 0
M  V30 19547 C 1781.43 -5.73168 -0.163053 0
M  V30 19548 N 1780.93 -6.92781 -0.0515442 0
M  V30 19549 N 1782.72 -5.61685 -0.216018 0
M  V30 19550 H 1774.87 -1.91018 0.92876 0
M  V30 19551 H 1777.14 -0.878048 0.3574 0
M  V30 19552 H 1776.84 -3.43409 0.759136 0
M  V30 19553 H 1776.72 -3.64285 -0.978599 0
M  V30 19554 H 1779.1 -2.68305 -1.22868 0
M  V30 19555 H 1779.18 -2.50257 0.529637 0
M  V30 19556 H 1778.83 -5.01846 0.781888 0
M  V30 19557 H 1778.76 -5.17179 -0.991635 0
M  V30 19558 H 1781.25 -3.76617 -0.311188 0
M  V30 19559 H 1781.56 -7.72799 -0.0111287 0
M  V30 19560 H 1779.91 -6.94998 -0.0169584 0
M  V30 19561 H 1783.1 -4.67128 -0.301435 0
M  V30 19562 H 1783.27 -6.4779 -0.164834 0
M  V30 19563 N 1776.68 0.257904 -1.55475 0
M  V30 19564 C 1777.64 1.30244 -1.88598 0
M  V30 19565 C 1778.64 1.4162 -0.761604 0
M  V30 19566 O 1779.83 1.4051 -1.02968 0
M  V30 19567 C 1776.96 2.68173 -2.10466 0
M  V30 19568 H 1778.15 1.02098 -2.81986 0
M  V30 19569 H 1775.71 0.496685 -1.48198 0
M  V30 19570 H 1776.44 3.01476 -1.1951 0
M  V30 19571 H 1776.23 2.61299 -2.92344 0
M  V30 19572 H 1777.72 3.43616 -2.37313 0
M  V30 19573 N 1778.15 1.48666 0.52309 0
M  V30 19574 C 1779.1 1.63701 1.62698 0
M  V30 19575 C 1780.07 0.478895 1.59047 0
M  V30 19576 O 1781.26 0.703229 1.77368 0
M  V30 19577 C 1778.4 1.68912 3.00936 0
M  V30 19578 C 1777.51 2.95878 3.1477 0
M  V30 19579 C 1776.64 2.92206 4.43609 0
M  V30 19580 C 1775.68 4.13846 4.50996 0
M  V30 19581 N 1774.82 4.08213 5.71233 0
M  V30 19582 H 1779.66 2.57967 1.49188 0
M  V30 19583 H 1777.2 1.27924 0.726217 0
M  V30 19584 H 1779.16 1.69915 3.81031 0
M  V30 19585 H 1777.79 0.781309 3.13202 0
M  V30 19586 H 1776.84 3.04588 2.27883 0
M  V30 19587 H 1778.15 3.85861 3.1609 0
M  V30 19588 H 1777.3 2.91649 5.32002 0
M  V30 19589 H 1776.04 1.99964 4.44821 0
M  V30 19590 H 1775.05 4.14671 3.61009 0
M  V30 19591 H 1776.27 5.07256 4.51517 0
M  V30 19592 H 1774.22 3.18794 5.73329 0
M  V30 19593 H 1774.14 4.91908 5.74075 0
M  V30 19594 H 1775.4 4.11725 6.61893 0
M  V30 19595 N 1779.63 -0.772489 1.37369 0
M  V30 19596 C 1780.54 -1.91679 1.35263 0
M  V30 19597 C 1781.56 -1.72161 0.252321 0
M  V30 19598 O 1782.73 -1.95409 0.487581 0
M  V30 19599 C 1779.8 -3.26792 1.15792 0
M  V30 19600 C 1778.86 -3.5897 2.35455 0
M  V30 19601 C 1778.09 -4.87636 2.16903 0
M  V30 19602 O 1778.32 -5.58627 1.15291 0
M  V30 19603 O 1777.25 -5.18859 3.05072 0
M  V30 19604 H 1781.08 -1.96408 2.31641 0
M  V30 19605 H 1778.66 -0.915136 1.18092 0
M  V30 19606 H 1780.54 -4.07611 1.06918 0
M  V30 19607 H 1779.22 -3.22918 0.224872 0
M  V30 19608 H 1778.13 -2.78389 2.49901 0
M  V30 19609 H 1779.46 -3.67586 3.27325 0
M  V30 19610 N 1781.11 -1.21927 -0.998575 0
M  V30 19611 C 1782.02 -1.00049 -2.12197 0
M  V30 19612 C 1783.04 0.0494414 -1.7393 0
M  V30 19613 O 1784.21 -0.142033 -2.00899 0
M  V30 19614 C 1781.28 -0.574871 -3.41901 0
M  V30 19615 C 1780.34 -1.69776 -3.94303 0
M  V30 19616 C 1779.57 -1.29236 -5.17816 0
M  V30 19617 O 1779.79 -0.168709 -5.7015 0
M  V30 19618 O 1778.73 -2.10671 -5.63827 0
M  V30 19619 H 1782.55 -1.94154 -2.33534 0
M  V30 19620 H 1780.14 -1.00472 -1.10571 0
M  V30 19621 H 1782.02 -0.347603 -4.19964 0
M  V30 19622 H 1780.7 0.337389 -3.21937 0
M  V30 19623 H 1779.6 -1.9795 -3.17438 0
M  V30 19624 H 1780.94 -2.58768 -4.18688 0
M  V30 19625 N 1782.59 1.19452 -1.02805 0
M  V30 19626 C 1783.55 2.20857 -0.612757 0
M  V30 19627 C 1784.55 1.57519 0.323182 0
M  V30 19628 O 1785.74 1.7385 0.110303 0
M  V30 19629 C 1782.87 3.40743 0.103488 0
M  V30 19630 H 1784.07 2.59113 -1.50998 0
M  V30 19631 H 1781.62 1.33116 -0.819142 0
M  V30 19632 H 1782.35 3.08004 1.0151 0
M  V30 19633 H 1782.14 3.87949 -0.56903 0
M  V30 19634 H 1783.63 4.15858 0.380998 0
M  V30 19635 N 1784.07 0.805805 1.35442 0
M  V30 19636 C 1785 0.173326 2.28544 0
M  V30 19637 C 1786.01 -0.626927 1.50245 0
M  V30 19638 O 1787.2 -0.459416 1.72487 0
M  V30 19639 C 1784.3 -0.776924 3.29874 0
M  V30 19640 C 1783.47 -0.0232073 4.37394 0
M  V30 19641 C 1782.53 -0.891823 5.18587 0
M  V30 19642 O 1781.56 -0.343052 5.68165 0
M  V30 19643 N 1782.76 -2.214 5.36621 0
M  V30 19644 H 1785.53 0.973125 2.83461 0
M  V30 19645 H 1783.09 0.66119 1.47783 0
M  V30 19646 H 1785.08 -1.36223 3.81085 0
M  V30 19647 H 1783.65 -1.47753 2.75477 0
M  V30 19648 H 1782.87 0.743298 3.87129 0
M  V30 19649 H 1784.16 0.496278 5.06374 0
M  V30 19650 H 1783.55 -2.6838 4.97985 0
M  V30 19651 H 1782.11 -2.74856 5.91014 0
M  V30 19652 N 1785.54 -1.47344 0.559239 0
M  V30 19653 C 1786.48 -2.28095 -0.224826 0
M  V30 19654 C 1787.49 -1.37127 -0.877492 0
M  V30 19655 O 1788.68 -1.61933 -0.751002 0
M  V30 19656 C 1785.78 -3.1145 -1.33611 0
M  V30 19657 C 1784.95 -4.30392 -0.779845 0
M  V30 19658 C 1784.01 -4.95327 -1.77587 0
M  V30 19659 O 1783.04 -5.53654 -1.32119 0
M  V30 19660 N 1784.24 -4.90206 -3.10931 0
M  V30 19661 H 1787 -2.96026 0.46786 0
M  V30 19662 H 1784.56 -1.56996 0.395448 0
M  V30 19663 H 1786.56 -3.51758 -2.00121 0
M  V30 19664 H 1785.13 -2.45749 -1.932 0
M  V30 19665 H 1784.35 -3.94151 0.0620861 0
M  V30 19666 H 1785.63 -5.07322 -0.387581 0
M  V30 19667 H 1785.03 -4.44022 -3.50515 0
M  V30 19668 H 1783.59 -5.34527 -3.72994 0
M  V30 19669 N 1787.02 -0.295795 -1.54799 0
M  V30 19670 C 1787.97 0.582614 -2.23325 0
M  V30 19671 C 1788.94 1.13365 -1.21398 0
M  V30 19672 O 1790.12 1.17914 -1.50003 0
M  V30 19673 C 1787.26 1.75112 -2.97371 0
M  V30 19674 C 1786.38 1.23197 -4.14061 0
M  V30 19675 C 1785.51 2.36393 -4.75701 0
M  V30 19676 C 1784.55 1.81585 -5.84545 0
M  V30 19677 N 1783.69 2.88334 -6.40162 0
M  V30 19678 H 1788.53 -0.00836451 -2.97999 0
M  V30 19679 H 1786.07 -0.0158966 -1.47091 0
M  V30 19680 H 1788.02 2.4383 -3.38531 0
M  V30 19681 H 1786.65 2.31381 -2.25084 0
M  V30 19682 H 1785.71 0.437226 -3.77879 0
M  V30 19683 H 1787.02 0.790706 -4.92493 0
M  V30 19684 H 1786.17 3.13067 -5.19687 0
M  V30 19685 H 1784.91 2.83844 -3.9659 0
M  V30 19686 H 1783.92 1.03399 -5.3999 0
M  V30 19687 H 1785.14 1.35045 -6.65537 0
M  V30 19688 H 1783.09 3.35129 -5.63937 0
M  V30 19689 H 1783 2.48687 -7.13926 0
M  V30 19690 H 1784.27 3.64921 -6.88805 0
M  V30 19691 N 1788.5 1.57583 -0.0234236 0
M  V30 19692 C 1789.41 2.13328 0.976138 0
M  V30 19693 C 1790.43 1.08414 1.36097 0
M  V30 19694 O 1791.6 1.40441 1.44354 0
M  V30 19695 C 1788.67 2.64469 2.24181 0
M  V30 19696 C 1787.73 3.84076 1.91793 0
M  V30 19697 C 1786.96 4.32768 3.12326 0
M  V30 19698 O 1787.19 3.80663 4.24797 0
M  V30 19699 O 1786.12 5.24676 2.94956 0
M  V30 19700 H 1789.95 2.99001 0.532166 0
M  V30 19701 H 1787.53 1.48098 0.196838 0
M  V30 19702 H 1789.41 2.97456 2.98492 0
M  V30 19703 H 1788.09 1.81881 2.6777 0
M  V30 19704 H 1786.99 3.56023 1.14883 0
M  V30 19705 H 1788.33 4.67808 1.53024 0
M  V30 19706 N 1789.98 -0.249655 1.5561 0
M  V30 19707 C 1790.94 -1.29242 1.89286 0
M  V30 19708 C 1791.94 -1.41214 0.769104 0
M  V30 19709 O 1793.13 -1.39962 1.03712 0
M  V30 19710 C 1790.26 -2.67053 2.11885 0
M  V30 19711 H 1791.46 -1.00601 2.82523 0
M  V30 19712 H 1789.01 -0.488819 1.4846 0
M  V30 19713 H 1789.75 -3.00838 1.21107 0
M  V30 19714 H 1789.53 -2.59745 2.93726 0
M  V30 19715 H 1791.02 -3.42353 2.39132 0
M  V30 19716 N 1791.46 -1.48941 -0.515198 0
M  V30 19717 C 1792.4 -1.64561 -1.61828 0
M  V30 19718 C 1793.37 -0.487323 -1.5879 0
M  V30 19719 O 1794.56 -0.712626 -1.76992 0
M  V30 19720 C 1791.7 -1.70506 -3.00036 0
M  V30 19721 C 1790.81 -2.97543 -3.13197 0
M  V30 19722 C 1789.95 -2.94555 -4.42053 0
M  V30 19723 C 1788.99 -4.16232 -4.48795 0
M  V30 19724 N 1788.12 -4.11236 -5.6906 0
M  V30 19725 H 1792.96 -2.58754 -1.47818 0
M  V30 19726 H 1790.5 -1.28307 -0.719423 0
M  V30 19727 H 1792.46 -1.71934 -3.80125 0
M  V30 19728 H 1791.09 -0.797907 -3.12783 0
M  V30 19729 H 1790.14 -3.05792 -2.26264 0
M  V30 19730 H 1791.45 -3.87532 -3.14039 0
M  V30 19731 H 1790.61 -2.94466 -5.30447 0
M  V30 19732 H 1789.35 -2.0232 -4.43754 0
M  V30 19733 H 1788.35 -4.1658 -3.58805 0
M  V30 19734 H 1789.58 -5.09644 -4.48821 0
M  V30 19735 H 1787.52 -3.2183 -5.7163 0
M  V30 19736 H 1787.44 -4.94945 -5.71459 0
M  V30 19737 H 1788.71 -4.15229 -6.59701 0
M  V30 19738 N 1792.94 0.765193 -1.37777 0
M  V30 19739 C 1794.18 1.52623 -1.33545 0
M  V30 19740 C 1794.51 1.94043 0.077992 0
M  V30 19741 O 1793.79 1.64566 1.03673 0
M  V30 19742 C 1794.07 2.78679 -2.28057 0
M  V30 19743 C 1793.93 2.43471 -3.78209 0
M  V30 19744 C 1795.24 3.80646 -2.20899 0
M  V30 19745 H 1792.36 0.553678 -0.486425 0
M  V30 19746 H 1795.01 0.877326 -1.68532 0
M  V30 19747 H 1793.16 3.3405 -1.9835 0
M  V30 19748 H 1794.83 1.93965 -4.1854 0
M  V30 19749 H 1793.07 1.76081 -3.96457 0
M  V30 19750 H 1793.74 3.33609 -4.39783 0
M  V30 19751 H 1796.22 3.34786 -2.47099 0
M  V30 19752 H 1795.09 4.6656 -2.89159 0
M  V30 19753 H 1795.35 4.25389 -1.20403 0
M  V30 19754 N 1794.41 1.22455 0.992094 0
M  V30 19755 C 1795.36 0.99534 2.08235 0
M  V30 19756 C 1796.33 -0.0832064 1.65891 0
M  V30 19757 O 1797.52 0.0665468 1.90684 0
M  V30 19758 C 1794.66 0.580055 3.4019 0
M  V30 19759 C 1793.77 1.72946 3.95871 0
M  V30 19760 C 1792.9 1.26208 5.15989 0
M  V30 19761 C 1791.94 2.38298 5.63809 0
M  V30 19762 N 1791.08 1.92602 6.75166 0
M  V30 19763 H 1795.92 1.92861 2.27175 0
M  V30 19764 H 1793.46 0.960948 1.11374 0
M  V30 19765 H 1795.41 0.320448 4.15968 0
M  V30 19766 H 1794.04 -0.316208 3.21248 0
M  V30 19767 H 1793.1 2.10337 3.16958 0
M  V30 19768 H 1794.41 2.57257 4.27341 0
M  V30 19769 H 1793.56 0.959904 5.99058 0
M  V30 19770 H 1792.3 0.389184 4.86145 0
M  V30 19771 H 1791.31 2.69304 4.79328 0
M  V30 19772 H 1792.53 3.26105 5.95678 0
M  V30 19773 H 1790.48 1.07675 6.47103 0
M  V30 19774 H 1790.39 2.70478 7.05959 0
M  V30 19775 H 1791.66 1.65455 7.61738 0
M  V30 19776 N 1795.89 -1.18905 1.03437 0
M  V30 19777 C 1796.82 -2.24539 0.640669 0
M  V30 19778 C 1797.8 -1.66396 -0.353024 0
M  V30 19779 O 1798.99 -1.92779 -0.234522 0
M  V30 19780 C 1796.12 -3.473 -0.00367731 0
M  V30 19781 C 1795.07 -4.18151 0.912881 0
M  V30 19782 C 1794.4 -5.34534 0.133347 0
M  V30 19783 C 1795.7 -4.72342 2.22913 0
M  V30 19784 H 1797.39 -2.57726 1.52374 0
M  V30 19785 H 1794.94 -1.23883 0.734098 0
M  V30 19786 H 1796.89 -4.20396 -0.290783 0
M  V30 19787 H 1795.61 -3.13328 -0.921578 0
M  V30 19788 H 1794.27 -3.46945 1.18427 0
M  V30 19789 H 1793.92 -4.96809 -0.786762 0
M  V30 19790 H 1793.62 -5.82872 0.743905 0
M  V30 19791 H 1795.15 -6.10423 -0.146889 0
M  V30 19792 H 1796.56 -5.37165 2.00317 0
M  V30 19793 H 1794.96 -5.31189 2.79209 0
M  V30 19794 H 1796.03 -3.90108 2.87999 0
M  V30 19795 N 1797.37 -0.812977 -1.35013 0
M  V30 19796 C 1798.3 -0.242397 -2.32238 0
M  V30 19797 C 1799.28 0.635676 -1.57776 0
M  V30 19798 O 1800.47 0.564621 -1.85811 0
M  V30 19799 C 1797.6 0.604686 -3.41995 0
M  V30 19800 C 1796.55 -0.17542 -4.2764 0
M  V30 19801 C 1795.88 0.793772 -5.28775 0
M  V30 19802 C 1797.18 -1.37802 -5.03794 0
M  V30 19803 H 1798.87 -1.0547 -2.80208 0
M  V30 19804 H 1796.42 -0.508619 -1.34718 0
M  V30 19805 H 1798.37 1.01396 -4.09019 0
M  V30 19806 H 1797.09 1.44994 -2.9265 0
M  V30 19807 H 1795.75 -0.565948 -3.62205 0
M  V30 19808 H 1795.4 1.63471 -4.75696 0
M  V30 19809 H 1795.1 0.276085 -5.86951 0
M  V30 19810 H 1796.62 1.20112 -5.9867 0
M  V30 19811 H 1798.04 -1.04328 -5.63727 0
M  V30 19812 H 1796.43 -1.83064 -5.71496 0
M  V30 19813 H 1797.5 -2.16138 -4.34065 0
M  V30 19814 N 1798.85 1.47045 -0.567045 0
M  V30 19815 C 1800.08 2.06835 -0.0518309 0
M  V30 19816 C 1800.49 1.41823 1.24626 0
M  V30 19817 O 1799.85 0.518102 1.74991 0
M  V30 19818 C 1799.9 3.6124 0.137142 0
M  V30 19819 O 1799.62 4.23817 -1.10955 0
M  V30 19820 C 1801.12 4.37921 0.688511 0
M  V30 19821 H 1798.34 0.669111 -0.0503138 0
M  V30 19822 H 1800.88 1.88906 -0.783258 0
M  V30 19823 H 1799.04 3.7865 0.818733 0
M  V30 19824 H 1799.45 5.16484 -0.913475 0
M  V30 19825 H 1800.93 5.46603 0.769984 0
M  V30 19826 H 1801.4 4.0488 1.70201 0
M  V30 19827 H 1802.01 4.25279 0.0423004 0
M  V30 19828 N 1800.33 0.304 1.5464 0
M  V30 19829 C 1801.24 -0.580159 2.27313 0
M  V30 19830 C 1802.25 -1.14588 1.30941 0
M  V30 19831 O 1803.43 -1.17002 1.63928 0
M  V30 19832 C 1800.49 -1.73437 3.00201 0
M  V30 19833 C 1799.55 -1.20243 4.12116 0
M  V30 19834 C 1798.79 -2.30164 4.81519 0
M  V30 19835 O 1799.01 -3.50123 4.503 0
M  V30 19836 O 1797.94 -1.96686 5.68857 0
M  V30 19837 H 1801.77 0.00944552 3.03699 0
M  V30 19838 H 1799.35 0.0703565 1.49234 0
M  V30 19839 H 1801.24 -2.40677 3.45908 0
M  V30 19840 H 1799.91 -2.31053 2.26708 0
M  V30 19841 H 1798.82 -0.495679 3.70802 0
M  V30 19842 H 1800.15 -0.67167 4.87596 0
M  V30 19843 N 1801.8 -1.57568 0.0317802 0
M  V30 19844 C 1803.03 -1.9662 -0.659953 0
M  V30 19845 C 1803.45 -0.908334 -1.64715 0
M  V30 19846 O 1802.81 0.130491 -1.8083 0
M  V30 19847 C 1802.86 -3.34765 -1.34033 0
M  V30 19848 O 1801.96 -3.31317 -2.45566 0
M  V30 19849 H 1801.3 -0.641024 -0.17316 0
M  V30 19850 H 1803.83 -2.04382 0.0944231 0
M  V30 19851 H 1803.84 -3.71056 -1.69651 0
M  V30 19852 H 1802.52 -4.11302 -0.616716 0
M  V30 19853 H 1801.1 -3.06746 -2.1204 0
M  V30 19854 N 1803.28 0.241399 -1.5574 0
M  V30 19855 C 1804.53 0.970098 -1.78093 0
M  V30 19856 C 1804.86 1.84763 -0.598005 0
M  V30 19857 O 1804.14 1.90268 0.403516 0
M  V30 19858 C 1804.42 1.82594 -3.10373 0
M  V30 19859 C 1804.27 0.976228 -4.39078 0
M  V30 19860 C 1805.59 2.80743 -3.38927 0
M  V30 19861 H 1802.71 0.35125 -0.647914 0
M  V30 19862 H 1805.35 0.240232 -1.88475 0
M  V30 19863 H 1803.5 2.44823 -3.01652 0
M  V30 19864 H 1805.17 0.37222 -4.59796 0
M  V30 19865 H 1803.42 0.280807 -4.3289 0
M  V30 19866 H 1804.09 1.60899 -5.2803 0
M  V30 19867 H 1806.56 2.28651 -3.47646 0
M  V30 19868 H 1805.44 3.37743 -4.3269 0
M  V30 19869 H 1805.7 3.57484 -2.6011 0
M  V30 19870 N 1804.76 1.49212 0.507292 0
M  V30 19871 C 1805.71 1.65894 1.6304 0
M  V30 19872 C 1806.7 0.524951 1.61061 0
M  V30 19873 O 1807.91 0.704392 1.65645 0
M  V30 19874 H 1804.28 0.522994 0.540353 0
M  V30 19875 H 1806.25 2.60176 1.4612 0
M  V30 19876 C 1805 1.73692 3.01208 0
M  V30 19877 H 1804.33 2.60323 3.03434 0
M  V30 19878 H 1805.77 1.89402 3.79346 0
M  V30 19879 C 1804.23 0.480378 3.33458 0
M  V30 19880 O 1804.76 -0.396732 3.99736 0
M  V30 19881 N 1802.96 0.345216 2.88542 0
M  V30 19882 H 1802.51 1.05997 2.34782 0
M  V30 19883 H 1802.47 -0.494453 3.10488 0
M  V30 19884 N 1806.24 -0.757876 1.38181 0
M  V30 19885 C 1807.46 -1.55221 1.37555 0
M  V30 19886 C 1807.89 -1.8807 -0.0336083 0
M  V30 19887 O 1807.25 -1.50258 -1.0145 0
M  V30 19888 C 1807.29 -2.83064 2.23399 0
M  V30 19889 O 1806.4 -3.78034 1.64814 0
M  V30 19890 H 1805.74 -0.469644 0.469394 0
M  V30 19891 H 1808.27 -0.936923 1.81887 0
M  V30 19892 H 1808.28 -3.32031 2.37106 0
M  V30 19893 H 1806.95 -2.58485 3.2582 0
M  V30 19894 H 1805.53 -3.36723 1.60225 0
M  V30 19895 N 1807.72 -1.22979 -0.985586 0
M  V30 19896 C 1808.96 -1.06033 -1.72872 0
M  V30 19897 C 1809.3 0.402572 -1.89982 0
M  V30 19898 O 1808.57 1.29824 -1.44831 0
M  V30 19899 C 1808.85 -1.78047 -3.13004 0
M  V30 19900 C 1808.71 -3.31979 -3.03497 0
M  V30 19901 C 1810.03 -1.53877 -4.12323 0
M  V30 19902 H 1807.14 -0.386594 -0.627466 0
M  V30 19903 H 1809.79 -1.51416 -1.14775 0
M  V30 19904 H 1807.94 -1.39469 -3.62603 0
M  V30 19905 H 1809.61 -3.80047 -2.61462 0
M  V30 19906 H 1807.85 -3.61279 -2.40125 0
M  V30 19907 H 1808.52 -3.7755 -4.02691 0
M  V30 19908 H 1811 -1.87402 -3.7151 0
M  V30 19909 H 1809.87 -2.06749 -5.08474 0
M  V30 19910 H 1810.14 -0.472972 -4.39563 0
M  V30 19911 N 1809.19 1.18355 -1.04066 0
M  V30 19912 C 1810.44 1.87665 -0.73923 0
M  V30 19913 C 1810.76 1.81226 0.735963 0
M  V30 19914 O 1811.96 2.45899 1.15091 0
M  V30 19915 C 1810.42 3.36671 -1.27203 0
M  V30 19916 C 1810.03 3.5164 -2.77585 0
M  V30 19917 C 1811.77 4.11383 -1.04712 0
M  V30 19918 C 1809.68 4.94605 -3.24222 0
M  V30 19919 H 1808.61 0.702908 -0.27283 0
M  V30 19920 H 1811.26 1.33733 -1.25649 0
M  V30 19921 H 1809.64 3.90072 -0.682621 0
M  V30 19922 H 1810.81 3.08511 -3.42283 0
M  V30 19923 H 1809.13 2.90334 -2.98488 0
M  V30 19924 H 1811.73 5.16832 -1.37071 0
M  V30 19925 H 1812.07 4.16297 0.0156344 0
M  V30 19926 H 1812.6 3.64154 -1.60114 0
M  V30 19927 H 1809.34 4.94859 -4.29878 0
M  V30 19928 H 1808.86 5.38449 -2.6426 0
M  V30 19929 H 1810.54 5.6332 -3.18245 0
M  V30 19930 N 1810.67 0.820125 1.3458 0
M  V30 19931 C 1811.64 0.245462 2.27882 0
M  V30 19932 C 1812.64 -0.575025 1.50167 0
M  V30 19933 O 1813.83 -0.391536 1.69743 0
M  V30 19934 C 1810.96 -0.656199 3.34525 0
M  V30 19935 H 1812.15 1.06853 2.80218 0
M  V30 19936 H 1809.7 0.591777 1.44664 0
M  V30 19937 H 1810.44 -1.50244 2.87398 0
M  V30 19938 H 1810.22 -0.0693951 3.92039 0
M  V30 19939 H 1811.71 -1.05216 4.04128 0
M  V30 19940 N 1812.15 -1.46743 0.574835 0
M  V30 19941 C 1813.08 -2.2832 -0.20062 0
M  V30 19942 C 1814.1 -1.3805 -0.862898 0
M  V30 19943 O 1815.28 -1.6272 -0.733785 0
M  V30 19944 C 1812.38 -3.1285 -1.303 0
M  V30 19945 C 1811.56 -4.31195 -0.734153 0
M  V30 19946 C 1810.62 -4.97183 -1.72324 0
M  V30 19947 O 1809.64 -5.55025 -1.26239 0
M  V30 19948 N 1810.84 -4.93476 -3.05714 0
M  V30 19949 H 1813.61 -2.95513 0.499231 0
M  V30 19950 H 1811.17 -1.56568 0.412077 0
M  V30 19951 H 1813.16 -3.53861 -1.96378 0
M  V30 19952 H 1811.73 -2.47784 -1.90583 0
M  V30 19953 H 1810.95 -3.94063 0.103888 0
M  V30 19954 H 1812.24 -5.07704 -0.333751 0
M  V30 19955 H 1811.64 -4.47715 -3.45786 0
M  V30 19956 H 1810.2 -5.38453 -3.67304 0
M  V30 19957 N 1813.63 -0.312197 -1.54477 0
M  V30 19958 C 1814.59 0.54612 -2.22599 0
M  V30 19959 C 1815.59 1.05252 -1.21568 0
M  V30 19960 O 1816.78 0.946756 -1.46226 0
M  V30 19961 C 1813.91 1.75733 -2.92114 0
M  V30 19962 H 1815.11 -0.0492216 -2.9986 0
M  V30 19963 H 1812.66 -0.063149 -1.56172 0
M  V30 19964 H 1813.39 2.39221 -2.18961 0
M  V30 19965 H 1813.18 1.40175 -3.66188 0
M  V30 19966 H 1814.67 2.36685 -3.44049 0
M  V30 19967 N 1815.11 1.57549 -0.040136 0
M  V30 19968 C 1816.52 1.79959 0.497142 0
M  V30 19969 C 1816.87 0.951403 1.71589 0
M  V30 19970 O 1815.99 0.16488 2.15771 0
M  V30 19971 C 1816.59 3.26387 0.908682 0
M  V30 19972 C 1815.15 3.49754 1.39101 0
M  V30 19973 C 1814.29 2.74941 0.360933 0
M  V30 19974 H 1817.25 1.56453 -0.266099 0
M  V30 19975 H 1817.27 3.36702 1.77234 0
M  V30 19976 H 1816.78 3.88094 0.0214628 0
M  V30 19977 H 1814.88 2.93313 2.29778 0
M  V30 19978 H 1814.99 4.58469 1.39078 0
M  V30 19979 H 1813.36 2.40747 0.831432 0
M  V30 19980 H 1814.14 3.39369 -0.51801 0
M  V30 19981 N 1816.58 -0.233136 1.55866 0
M  V30 19982 C 1818 -0.801092 1.6864 0
M  V30 19983 C 1818.35 -1.85465 0.640081 0
M  V30 19984 O 1817.47 -2.15368 -0.211038 0
M  V30 19985 C 1818.07 -1.45984 3.05735 0
M  V30 19986 C 1816.63 -1.97533 3.20403 0
M  V30 19987 C 1815.77 -0.831321 2.64546 0
M  V30 19988 H 1818.72 -0.00868708 1.58698 0
M  V30 19989 H 1818.74 -2.32832 3.00948 0
M  V30 19990 H 1818.26 -0.692805 3.81866 0
M  V30 19991 H 1816.36 -2.77074 2.4912 0
M  V30 19992 H 1816.47 -2.16326 4.27481 0
M  V30 19993 H 1814.83 -1.23554 2.22725 0
M  V30 19994 H 1815.62 -0.0771465 3.43213 0
M  V30 19995 N 1818.06 -1.49479 -0.499372 0
M  V30 19996 C 1819.31 -1.59284 -1.25525 0
M  V30 19997 C 1819.64 -0.27941 -1.92179 0
M  V30 19998 O 1818.92 0.717142 -1.80796 0
M  V30 19999 C 1819.2 -2.75323 -2.32098 0
M  V30 20000 C 1819.05 -4.16464 -1.69934 0
M  V30 20001 C 1820.37 -2.86998 -3.33646 0
M  V30 20002 H 1817.49 -0.579768 -0.455015 0
M  V30 20003 H 1820.13 -1.81769 -0.553165 0
M  V30 20004 H 1818.28 -2.56282 -2.91979 0
M  V30 20005 H 1819.96 -4.47026 -1.13867 0
M  V30 20006 H 1818.2 -4.22036 -1.0034 0
M  V30 20007 H 1818.87 -4.93534 -2.47242 0
M  V30 20008 H 1821.35 -3.04337 -2.83757 0
M  V30 20009 H 1820.22 -3.69865 -4.05575 0
M  V30 20010 H 1820.48 -1.96419 -3.9607 0
M  V30 20011 N 1819.54 0.750537 -1.38581 0
M  V30 20012 C 1820.5 1.84599 -1.35852 0
M  V30 20013 C 1821.5 1.58709 -0.258462 0
M  V30 20014 O 1822.69 1.66397 -0.51552 0
M  V30 20015 C 1819.83 3.22124 -1.11573 0
M  V30 20016 H 1821.02 1.88426 -2.33314 0
M  V30 20017 H 1818.57 0.952564 -1.23919 0
M  V30 20018 H 1819.31 3.23965 -0.147295 0
M  V30 20019 H 1819.09 3.42311 -1.91221 0
M  V30 20020 H 1820.58 4.02198 -1.12367 0
M  V30 20021 N 1821.02 1.235 0.979051 0
M  V30 20022 C 1821.95 0.975198 2.07419 0
M  V30 20023 C 1822.96 -0.0512875 1.62719 0
M  V30 20024 O 1824.15 0.184403 1.77545 0
M  V30 20025 C 1821.25 0.447701 3.3593 0
M  V30 20026 C 1820.43 1.53467 4.09593 0
M  V30 20027 C 1819.49 1.01181 5.16381 0
M  V30 20028 O 1818.51 1.70108 5.43187 0
M  V30 20029 N 1819.71 -0.159667 5.8028 0
M  V30 20030 H 1822.48 1.91806 2.30283 0
M  V30 20031 H 1820.04 1.14377 1.14584 0
M  V30 20032 H 1822.03 0.0829228 4.04615 0
M  V30 20033 H 1820.6 -0.400613 3.10022 0
M  V30 20034 H 1819.82 2.07215 3.35344 0
M  V30 20035 H 1821.11 2.2656 4.55574 0
M  V30 20036 H 1820.51 -0.736193 5.60889 0
M  V30 20037 H 1819.06 -0.465696 6.50134 0
M  V30 20038 N 1822.5 -1.17802 1.04693 0
M  V30 20039 C 1823.41 -2.25298 0.654072 0
M  V30 20040 C 1824.42 -1.70984 -0.32255 0
M  V30 20041 O 1825.6 -2.0063 -0.175904 0
M  V30 20042 C 1822.66 -3.46687 0.0296345 0
M  V30 20043 C 1821.73 -4.16108 1.05606 0
M  V30 20044 C 1820.96 -5.31702 0.461329 0
M  V30 20045 O 1821.18 -5.65701 -0.730679 0
M  V30 20046 O 1820.12 -5.89956 1.19312 0
M  V30 20047 H 1823.94 -2.61179 1.54982 0
M  V30 20048 H 1821.53 -1.25005 0.818182 0
M  V30 20049 H 1823.41 -4.20201 -0.317654 0
M  V30 20050 H 1822.08 -3.12615 -0.839839 0
M  V30 20051 H 1820.99 -3.44635 1.45526 0
M  V30 20052 H 1822.32 -4.54195 1.89651 0
M  V30 20053 N 1823.98 -0.827251 -1.34143 0
M  V30 20054 C 1824.94 -0.257543 -2.27748 0
M  V30 20055 C 1825.94 0.567053 -1.5047 0
M  V30 20056 O 1827.13 0.382529 -1.69948 0
M  V30 20057 C 1824.26 0.638449 -3.34868 0
M  V30 20058 H 1825.45 -1.08338 -2.79648 0
M  V30 20059 H 1823.01 -0.599441 -1.44348 0
M  V30 20060 H 1823.74 1.48717 -2.8819 0
M  V30 20061 H 1823.53 0.0486033 -3.9207 0
M  V30 20062 H 1825.02 1.03071 -4.0468 0
M  V30 20063 N 1825.45 1.46436 -0.582609 0
M  V30 20064 C 1826.38 2.33089 0.138477 0
M  V30 20065 C 1827.36 1.45339 0.883777 0
M  V30 20066 O 1828.55 1.74156 0.859257 0
M  V30 20067 C 1825.68 3.27611 1.15276 0
M  V30 20068 C 1824.63 4.24801 0.522308 0
M  V30 20069 C 1823.96 5.0883 1.64306 0
M  V30 20070 C 1825.26 5.19496 -0.540449 0
M  V30 20071 H 1826.95 2.93629 -0.585013 0
M  V30 20072 H 1824.5 1.41196 -0.282781 0
M  V30 20073 H 1826.45 3.87087 1.66558 0
M  V30 20074 H 1825.18 2.65177 1.90653 0
M  V30 20075 H 1823.84 3.66587 0.0305728 0
M  V30 20076 H 1823.48 4.42782 2.38649 0
M  V30 20077 H 1823.18 5.74649 1.22686 0
M  V30 20078 H 1824.71 5.7117 2.15864 0
M  V30 20079 H 1826.12 5.73189 -0.112706 0
M  V30 20080 H 1824.52 5.93658 -0.876957 0
M  V30 20081 H 1825.59 4.63434 -1.42677 0
M  V30 20082 N 1826.93 0.320385 1.54309 0
M  V30 20083 C 1827.88 -0.547011 2.24224 0
M  V30 20084 C 1828.85 -1.11419 1.23187 0
M  V30 20085 O 1830.03 -1.15513 1.5186 0
M  V30 20086 C 1827.17 -1.70359 3.0012 0
M  V30 20087 C 1826.29 -1.16594 4.15968 0
M  V30 20088 C 1825.42 -2.28795 4.79402 0
M  V30 20089 C 1824.46 -1.72263 5.8736 0
M  V30 20090 N 1823.6 -2.78113 6.44668 0
M  V30 20091 H 1828.44 0.0557725 2.97948 0
M  V30 20092 H 1825.97 0.0392956 1.47048 0
M  V30 20093 H 1827.93 -2.38413 3.42367 0
M  V30 20094 H 1826.56 -2.27771 2.28736 0
M  V30 20095 H 1825.61 -0.377054 3.78527 0
M  V30 20096 H 1826.93 -0.712254 4.93689 0
M  V30 20097 H 1826.08 -3.04759 5.24601 0
M  V30 20098 H 1824.82 -2.77499 4.01056 0
M  V30 20099 H 1823.82 -0.947951 5.41566 0
M  V30 20100 H 1825.05 -1.2444 6.67601 0
M  V30 20101 H 1823 -3.26115 5.69197 0
M  V30 20102 H 1822.91 -2.37298 7.17792 0
M  V30 20103 H 1824.18 -3.53916 6.94524 0
M  V30 20104 N 1828.41 -1.57525 0.0484906 0
M  V30 20105 C 1829.36 -2.11374 -0.926816 0
M  V30 20106 C 1830.33 -1.02045 -1.31058 0
M  V30 20107 O 1831.51 -1.29577 -1.40052 0
M  V30 20108 C 1828.65 -2.66107 -2.19729 0
M  V30 20109 C 1827.76 -3.89513 -1.86826 0
M  V30 20110 C 1826.9 -4.32571 -3.08312 0
M  V30 20111 C 1825.94 -5.48684 -2.71317 0
M  V30 20112 N 1825.08 -5.86808 -3.85488 0
M  V30 20113 H 1829.92 -2.94417 -0.460721 0
M  V30 20114 H 1827.45 -1.45509 -0.215789 0
M  V30 20115 H 1829.41 -2.95939 -2.94068 0
M  V30 20116 H 1828.04 -1.85865 -2.63921 0
M  V30 20117 H 1827.09 -3.66289 -1.02647 0
M  V30 20118 H 1828.4 -4.73912 -1.55592 0
M  V30 20119 H 1827.56 -4.63941 -3.90952 0
M  V30 20120 H 1826.3 -3.46978 -3.42721 0
M  V30 20121 H 1825.3 -5.16988 -1.87092 0
M  V30 20122 H 1826.53 -6.35991 -2.38102 0
M  V30 20123 H 1824.47 -5.04168 -4.19703 0
M  V30 20124 H 1824.39 -6.65892 -3.57944 0
M  V30 20125 H 1825.66 -6.22792 -4.68776 0
M  V30 20126 N 1829.89 0.224867 -1.55988 0
M  V30 20127 C 1830.8 1.2997 -1.95307 0
M  V30 20128 C 1831.81 1.51463 -0.856444 0
M  V30 20129 O 1832.99 1.64658 -1.15973 0
M  V30 20130 C 1830.05 2.63009 -2.25892 0
M  V30 20131 C 1829.12 2.49847 -3.49106 0
M  V30 20132 C 1828.35 3.76541 -3.78223 0
M  V30 20133 O 1828.57 4.7941 -3.09066 0
M  V30 20134 O 1827.51 3.73852 -4.71718 0
M  V30 20135 H 1831.33 0.996093 -2.869 0
M  V30 20136 H 1828.92 0.427457 -1.43154 0
M  V30 20137 H 1830.8 3.41586 -2.46774 0
M  V30 20138 H 1829.47 2.93057 -1.37474 0
M  V30 20139 H 1828.38 1.69482 -3.33507 0
M  V30 20140 H 1829.71 2.24739 -4.37896 0
M  V30 20141 N 1831.37 1.49742 0.491438 0
M  V30 20142 C 1832.3 1.70033 1.60034 0
M  V30 20143 C 1833.28 0.549076 1.60994 0
M  V30 20144 O 1834.46 0.785983 1.77584 0
M  V30 20145 C 1831.59 1.7757 2.98473 0
M  V30 20146 C 1830.55 2.9258 3.12379 0
M  V30 20147 C 1829.87 2.85239 4.52264 0
M  V30 20148 C 1831.17 4.33385 2.91504 0
M  V30 20149 H 1832.87 2.62875 1.43307 0
M  V30 20150 H 1830.41 1.26502 0.687989 0
M  V30 20151 H 1832.36 1.90351 3.75958 0
M  V30 20152 H 1831.09 0.813343 3.1631 0
M  V30 20153 H 1829.75 2.79417 2.37322 0
M  V30 20154 H 1829.4 1.86892 4.66991 0
M  V30 20155 H 1829.1 3.62437 4.62508 0
M  V30 20156 H 1830.62 3.00041 5.31797 0
M  V30 20157 H 1832.03 4.4718 3.58752 0
M  V30 20158 H 1830.43 5.11878 3.13211 0
M  V30 20159 H 1831.5 4.47166 1.87539 0
M  V30 20160 N 1832.84 -0.743177 1.38977 0
M  V30 20161 C 1833.75 -1.88767 1.39299 0
M  V30 20162 C 1834.77 -1.71587 0.288782 0
M  V30 20163 O 1835.95 -1.94331 0.52892 0
M  V30 20164 C 1833.01 -3.24263 1.22697 0
M  V30 20165 C 1832.07 -3.53895 2.43017 0
M  V30 20166 C 1831.31 -4.82925 2.27198 0
M  V30 20167 O 1831.53 -5.56056 1.27114 0
M  V30 20168 O 1830.46 -5.12271 3.16009 0
M  V30 20169 H 1834.29 -1.9145 2.35755 0
M  V30 20170 H 1831.87 -0.889881 1.20006 0
M  V30 20171 H 1833.76 -4.05251 1.1554 0
M  V30 20172 H 1832.43 -3.22368 0.293317 0
M  V30 20173 H 1831.34 -2.73026 2.5575 0
M  V30 20174 H 1832.67 -3.6056 3.35048 0
M  V30 20175 N 1834.32 -1.24018 -0.972487 0
M  V30 20176 C 1835.55 -1.10392 -1.74989 0
M  V30 20177 C 1835.97 0.34396 -1.8564 0
M  V30 20178 O 1835.32 1.23757 -1.34128 0
M  V30 20179 C 1835.37 -1.73247 -3.17282 0
M  V30 20180 O 1835.09 -3.12374 -3.07171 0
M  V30 20181 C 1836.6 -1.65168 -4.11381 0
M  V30 20182 H 1833.82 -0.38593 -0.548907 0
M  V30 20183 H 1836.36 -1.64028 -1.22127 0
M  V30 20184 H 1834.51 -1.23625 -3.67145 0
M  V30 20185 H 1834.93 -3.42997 -3.96804 0
M  V30 20186 H 1836.4 -2.13837 -5.08898 0
M  V30 20187 H 1836.88 -0.61198 -4.34915 0
M  V30 20188 H 1837.49 -2.14194 -3.67425 0
M  V30 20189 N 1835.8 1.17245 -1.05316 0
M  V30 20190 C 1836.73 2.23491 -0.67631 0
M  V30 20191 C 1837.71 1.66937 0.326507 0
M  V30 20192 O 1838.9 1.93127 0.203823 0
M  V30 20193 C 1836.03 3.47262 -0.0515755 0
M  V30 20194 C 1834.98 4.16646 -0.97929 0
M  V30 20195 C 1834.31 5.34254 -0.218369 0
M  V30 20196 C 1835.61 4.68736 -2.30399 0
M  V30 20197 H 1837.3 2.55269 -1.56455 0
M  V30 20198 H 1834.85 1.22699 -0.753714 0
M  V30 20199 H 1836.8 4.20805 0.223865 0
M  V30 20200 H 1835.52 3.14755 0.871614 0
M  V30 20201 H 1834.18 3.45017 -1.23931 0
M  V30 20202 H 1833.83 4.97998 0.707624 0
M  V30 20203 H 1833.53 5.81615 -0.83654 0
M  V30 20204 H 1835.05 6.1058 0.0497574 0
M  V30 20205 H 1836.47 5.3391 -2.08837 0
M  V30 20206 H 1834.87 5.2668 -2.87625 0
M  V30 20207 H 1835.94 3.85477 -2.94169 0
M  V30 20208 N 1837.28 0.834353 1.33702 0
M  V30 20209 C 1838.51 0.441228 2.02141 0
M  V30 20210 C 1838.92 -0.956226 1.62794 0
M  V30 20211 O 1838.28 -1.6207 0.839027 0
M  V30 20212 C 1838.33 0.547035 3.57337 0
M  V30 20213 O 1838.05 1.88942 3.95262 0
M  V30 20214 C 1839.55 0.150282 4.43045 0
M  V30 20215 H 1836.77 0.175681 0.647593 0
M  V30 20216 H 1839.32 1.12568 1.7073 0
M  V30 20217 H 1837.47 -0.0894532 3.87297 0
M  V30 20218 H 1837.88 1.87174 4.89965 0
M  V30 20219 H 1839.36 0.275374 5.51313 0
M  V30 20220 H 1839.84 -0.907361 4.29725 0
M  V30 20221 H 1840.44 0.761025 4.18436 0
M  V30 20222 N 1838.76 -1.46125 0.590367 0
M  V30 20223 C 1839.98 -2.06726 0.0847301 0
M  V30 20224 C 1840.4 -1.43788 -1.22354 0
M  V30 20225 O 1839.76 -0.545876 -1.74145 0
M  V30 20226 C 1839.81 -3.61412 -0.079655 0
M  V30 20227 O 1839.53 -4.21998 1.17684 0
M  V30 20228 C 1841.03 -4.38961 -0.618754 0
M  V30 20229 H 1838.25 -0.668226 0.0609525 0
M  V30 20230 H 1840.79 -1.87636 0.813212 0
M  V30 20231 H 1838.95 -3.79904 -0.758389 0
M  V30 20232 H 1839.36 -5.14966 0.995528 0
M  V30 20233 H 1840.84 -5.47759 -0.682926 0
M  V30 20234 H 1841.31 -4.07537 -1.63739 0
M  V30 20235 H 1841.92 -4.25292 0.0253632 0
M  V30 20236 N 1840.23 -0.328564 -1.54137 0
M  V30 20237 C 1841.18 0.550592 -2.25989 0
M  V30 20238 C 1842.18 1.11442 -1.27581 0
M  V30 20239 O 1843.38 1.06189 -1.45341 0
M  V30 20240 H 1839.76 0.196215 -0.72595 0
M  V30 20241 H 1841.73 -0.0776348 -2.98299 0
M  V30 20242 C 1840.48 1.69733 -3.03457 0
M  V30 20243 H 1839.8 1.27273 -3.79001 0
M  V30 20244 H 1841.24 2.28797 -3.56971 0
M  V30 20245 C 1839.7 2.61791 -2.12054 0
M  V30 20246 O 1840.23 3.63641 -1.7067 0
M  V30 20247 N 1838.44 2.30138 -1.7744 0
M  V30 20248 H 1837.98 1.47355 -2.11292 0
M  V30 20249 H 1837.94 2.91994 -1.16564 0
M  V30 20250 N 1841.71 1.57497 -0.0568439 0
M  V30 20251 C 1842.94 1.96945 0.624196 0
M  V30 20252 C 1843.35 0.933312 1.64578 0
M  V30 20253 O 1842.69 -0.0902107 1.83478 0
M  V30 20254 C 1842.76 3.32652 1.3632 0
M  V30 20255 C 1842.42 4.54292 0.496798 0
M  V30 20256 C 1843.42 5.19348 -0.239466 0
M  V30 20257 C 1841.1 5.0049 0.426059 0
M  V30 20258 C 1843.1 6.28943 -1.03485 0
M  V30 20259 C 1840.78 6.09961 -0.373005 0
M  V30 20260 C 1841.78 6.74049 -1.10214 0
M  V30 20261 O 1841.47 7.81414 -1.88805 0
M  V30 20262 H 1841.2 0.652944 0.175043 0
M  V30 20263 H 1843.75 2.05042 -0.121272 0
M  V30 20264 H 1841.98 3.21126 2.15442 0
M  V30 20265 H 1843.67 3.56808 1.93502 0
M  V30 20266 H 1844.44 4.84611 -0.194318 0
M  V30 20267 H 1840.32 4.50394 0.983188 0
M  V30 20268 H 1843.86 6.78898 -1.60447 0
M  V30 20269 H 1839.76 6.44134 -0.419771 0
M  V30 20270 H 1840.53 7.98219 -1.81077 0
M  V30 20271 N 1843.19 -0.216591 1.56105 0
M  V30 20272 C 1844.12 -1.29202 1.89313 0
M  V30 20273 C 1845.14 -1.42798 0.781832 0
M  V30 20274 O 1846.32 -1.43607 1.06016 0
M  V30 20275 C 1843.42 -2.66701 2.09102 0
M  V30 20276 C 1842.6 -2.74989 3.40147 0
M  V30 20277 C 1841.66 -3.93536 3.49308 0
M  V30 20278 O 1840.68 -3.81642 4.22301 0
M  V30 20279 N 1841.88 -5.08059 2.80814 0
M  V30 20280 H 1844.65 -1.01038 2.82155 0
M  V30 20281 H 1842.21 -0.406611 1.56711 0
M  V30 20282 H 1844.2 -3.44396 2.12541 0
M  V30 20283 H 1842.77 -2.87443 1.22862 0
M  V30 20284 H 1841.99 -1.83733 3.48763 0
M  V30 20285 H 1843.28 -2.775 4.26464 0
M  V30 20286 H 1842.68 -5.20618 2.21299 0
M  V30 20287 H 1841.24 -5.83778 2.89908 0
M  V30 20288 N 1844.67 -1.5 -0.48349 0
M  V30 20289 C 1845.91 -1.61577 -1.2355 0
M  V30 20290 C 1846.27 -0.3065 -1.89943 0
M  V30 20291 O 1845.56 0.694667 -1.78564 0
M  V30 20292 C 1845.76 -2.72475 -2.31283 0
M  V30 20293 C 1845.59 -4.14059 -1.75457 0
M  V30 20294 C 1844.36 -4.80623 -1.55979 0
M  V30 20295 C 1846.55 -4.98715 -1.2565 0
M  V30 20296 N 1844.54 -6.06463 -0.952659 0
M  V30 20297 C 1845.91 -6.15177 -0.771821 0
M  V30 20298 C 1847.96 -4.84582 -1.14388 0
M  V30 20299 C 1846.66 -7.1906 -0.185638 0
M  V30 20300 C 1848.69 -5.88631 -0.571647 0
M  V30 20301 C 1848.05 -7.04333 -0.097282 0
M  V30 20302 H 1844.15 -0.645496 -0.441428 0
M  V30 20303 H 1846.74 -1.87074 -0.539582 0
M  V30 20304 H 1844.91 -2.48721 -2.98316 0
M  V30 20305 H 1846.64 -2.73477 -2.98316 0
M  V30 20306 H 1843.39 -4.3771 -1.8085 0
M  V30 20307 H 1843.82 -6.73698 -0.667863 0
M  V30 20308 H 1848.46 -3.95427 -1.49658 0
M  V30 20309 H 1846.18 -8.07901 0.179294 0
M  V30 20310 H 1849.76 -5.79758 -0.487042 0
M  V30 20311 H 1848.64 -7.83469 0.338582 0
M  V30 20312 N 1846.15 0.735796 -1.39369 0
M  V30 20313 C 1847.08 1.86303 -1.4076 0
M  V30 20314 C 1848.06 1.67926 -0.27107 0
M  V30 20315 O 1849.24 1.88257 -0.476773 0
M  V30 20316 C 1846.37 3.24043 -1.24955 0
M  V30 20317 C 1845.33 3.57055 -2.35999 0
M  V30 20318 C 1844.65 4.93723 -2.05284 0
M  V30 20319 C 1845.95 3.60109 -3.7831 0
M  V30 20320 H 1847.65 1.85396 -2.35093 0
M  V30 20321 H 1845.19 0.890552 -1.1316 0
M  V30 20322 H 1847.15 4.02574 -1.24549 0
M  V30 20323 H 1845.87 3.25475 -0.270902 0
M  V30 20324 H 1844.53 2.80853 -2.35621 0
M  V30 20325 H 1844.18 4.91734 -1.05859 0
M  V30 20326 H 1843.88 5.16779 -2.79667 0
M  V30 20327 H 1845.4 5.74612 -2.06527 0
M  V30 20328 H 1846.81 4.28718 -3.80622 0
M  V30 20329 H 1845.21 3.94683 -4.52046 0
M  V30 20330 H 1846.28 2.59932 -4.09345 0
M  V30 20331 N 1847.63 1.24532 0.965897 0
M  V30 20332 C 1848.87 1.09801 1.72404 0
M  V30 20333 C 1849.23 -0.356766 1.88656 0
M  V30 20334 O 1850.43 -0.625626 2.61418 0
M  V30 20335 C 1848.7 1.8194 3.07624 0
M  V30 20336 S 1850.26 1.82962 3.98836 0
M  V30 20337 H 1847.08 0.392672 0.592731 0
M  V30 20338 H 1849.68 1.57889 1.15288 0
M  V30 20339 H 1848.38 2.86899 2.93457 0
M  V30 20340 H 1847.92 1.34193 3.69805 0
M  V30 20341 H 1849.93 0.898584 4.87996 0
M  V30 20342 N 1849.1 -1.16685 1.05936 0
M  V30 20343 C 1850.33 -1.91035 0.794553 0
M  V30 20344 C 1850.75 -1.77234 -0.650663 0
M  V30 20345 O 1850.1 -1.11454 -1.44514 0
M  V30 20346 C 1850.15 -3.41859 1.17536 0
M  V30 20347 O 1849.88 -3.55243 2.56386 0
M  V30 20348 C 1851.38 -4.33267 0.937774 0
M  V30 20349 H 1848.6 -0.605896 0.288325 0
M  V30 20350 H 1851.14 -1.47925 1.41203 0
M  V30 20351 H 1849.3 -3.82686 0.602486 0
M  V30 20352 H 1849.71 -4.48744 2.71531 0
M  V30 20353 H 1851.18 -5.3757 1.25389 0
M  V30 20354 H 1851.66 -4.39017 -0.126673 0
M  V30 20355 H 1852.27 -3.98163 1.49486 0
M  V30 20356 N 1850.58 -0.841432 -1.33258 0
M  V30 20357 C 1852 -0.529552 -1.50559 0
M  V30 20358 C 1852.2 0.942598 -1.78094 0
M  V30 20359 O 1851.25 1.72628 -1.84271 0
M  V30 20360 C 1852.57 -1.40511 -2.65852 0
M  V30 20361 C 1854.11 -1.40415 -2.79737 0
M  V30 20362 C 1854.59 -2.26462 -3.98094 0
M  V30 20363 N 1856.08 -2.24185 -4.05334 0
M  V30 20364 C 1856.82 -2.875 -4.96116 0
M  V30 20365 N 1856.31 -3.59877 -5.91997 0
M  V30 20366 N 1858.1 -2.76957 -4.89133 0
M  V30 20367 H 1850.26 -1.79438 -1.13648 0
M  V30 20368 H 1852.52 -0.765683 -0.558958 0
M  V30 20369 H 1852.22 -2.45136 -2.52193 0
M  V30 20370 H 1852.1 -1.08299 -3.61319 0
M  V30 20371 H 1854.49 -0.365604 -2.92826 0
M  V30 20372 H 1854.57 -1.76636 -1.85023 0
M  V30 20373 H 1854.21 -3.30377 -3.85764 0
M  V30 20374 H 1854.14 -1.87581 -4.92058 0
M  V30 20375 H 1856.63 -1.71553 -3.36716 0
M  V30 20376 H 1856.94 -4.05388 -6.57936 0
M  V30 20377 H 1855.29 -3.63985 -5.92064 0
M  V30 20378 H 1858.48 -2.19974 -4.13194 0
M  V30 20379 H 1858.65 -3.26585 -5.59684 0
M  V30 20380 N 1852.06 1.4581 -0.598108 0
M  V30 20381 C 1852.99 2.33223 0.113747 0
M  V30 20382 C 1853.97 1.46268 0.868312 0
M  V30 20383 O 1855.16 1.75058 0.840737 0
M  V30 20384 C 1852.29 3.28815 1.11795 0
M  V30 20385 C 1851.24 4.25331 0.477223 0
M  V30 20386 C 1850.57 5.10544 1.589 0
M  V30 20387 C 1851.87 5.18894 -0.595518 0
M  V30 20388 H 1853.56 2.92992 -0.616123 0
M  V30 20389 H 1851.11 1.40888 -0.297741 0
M  V30 20390 H 1853.06 3.88832 1.62443 0
M  V30 20391 H 1851.78 2.67185 1.87829 0
M  V30 20392 H 1850.44 3.66599 -0.00831044 0
M  V30 20393 H 1850.09 4.45288 2.33939 0
M  V30 20394 H 1849.79 5.75918 1.16584 0
M  V30 20395 H 1851.31 5.73427 2.09794 0
M  V30 20396 H 1852.73 5.73037 -0.173494 0
M  V30 20397 H 1851.12 5.92694 -0.939873 0
M  V30 20398 H 1852.19 4.61895 -1.47584 0
M  V30 20399 N 1853.54 0.336733 1.53961 0
M  V30 20400 C 1854.49 -0.538599 2.26278 0
M  V30 20401 C 1855.48 -1.10764 1.2817 0
M  V30 20402 O 1856.69 -1.05416 1.45902 0
M  V30 20403 H 1853.06 -0.192363 0.72698 0
M  V30 20404 H 1855.03 0.0934532 2.98254 0
M  V30 20405 C 1853.78 -1.68121 3.04353 0
M  V30 20406 H 1853.1 -1.25261 3.7967 0
M  V30 20407 H 1854.54 -2.26901 3.58179 0
M  V30 20408 C 1853 -2.60663 2.13439 0
M  V30 20409 O 1853.53 -3.62731 1.72596 0
M  V30 20410 N 1851.74 -2.29194 1.78658 0
M  V30 20411 H 1851.29 -1.46233 2.1207 0
M  V30 20412 H 1851.24 -2.91371 1.18111 0
M  V30 20413 N 1855.02 -1.57465 0.0651956 0
M  V30 20414 C 1856.26 -1.92856 -0.604233 0
M  V30 20415 C 1856.58 -0.945431 -1.70548 0
M  V30 20416 O 1855.85 0.00749144 -1.95899 0
M  V30 20417 H 1854.43 -0.711933 -0.226185 0
M  V30 20418 H 1857.1 -1.94521 0.121499 0
M  V30 20419 H 1856.19 -2.94481 -1.03381 0
M  V30 20420 N 1856.49 0.20831 -1.56217 0
M  V30 20421 C 1857.44 1.2582 -1.93489 0
M  V30 20422 C 1858.41 1.45907 -0.793748 0
M  V30 20423 O 1859.6 1.59258 -1.05078 0
M  V30 20424 C 1856.74 2.60077 -2.26835 0
M  V30 20425 C 1855.85 2.47678 -3.53948 0
M  V30 20426 C 1854.98 3.74549 -3.76678 0
M  V30 20427 C 1854.02 3.56928 -4.97261 0
M  V30 20428 N 1853.16 4.75779 -5.16313 0
M  V30 20429 H 1858 0.933346 -2.83006 0
M  V30 20430 H 1855.54 0.449531 -1.40063 0
M  V30 20431 H 1857.49 3.38277 -2.44181 0
M  V30 20432 H 1856.12 2.90632 -1.40474 0
M  V30 20433 H 1855.18 1.60844 -3.44722 0
M  V30 20434 H 1856.49 2.30585 -4.42303 0
M  V30 20435 H 1855.64 4.61191 -3.94193 0
M  V30 20436 H 1854.38 3.94582 -2.86629 0
M  V30 20437 H 1853.39 2.6867 -4.79683 0
M  V30 20438 H 1854.61 3.38353 -5.88808 0
M  V30 20439 H 1852.56 4.96101 -4.29209 0
M  V30 20440 H 1852.47 4.61462 -5.98823 0
M  V30 20441 H 1853.74 5.6381 -5.38274 0
M  V30 20442 N 1857.97 1.50255 0.475528 0
M  V30 20443 C 1859.21 1.62657 1.23783 0
M  V30 20444 C 1859.58 0.317805 1.89352 0
M  V30 20445 O 1860.78 0.317219 2.66922 0
M  V30 20446 C 1859.05 2.77114 2.25704 0
M  V30 20447 S 1860.61 3.09623 3.10932 0
M  V30 20448 H 1857.42 0.573455 0.420321 0
M  V30 20449 H 1860.03 1.8802 0.535591 0
M  V30 20450 H 1858.73 3.70695 1.76107 0
M  V30 20451 H 1858.26 2.53823 3.00562 0
M  V30 20452 H 1860.28 2.53106 4.26792 0
M  V30 20453 N 1859.45 -0.728395 1.39758 0
M  V30 20454 C 1860.4 -1.84245 1.39005 0
M  V30 20455 C 1861.37 -1.64226 0.248783 0
M  V30 20456 O 1862.55 -1.8554 0.444904 0
M  V30 20457 C 1859.69 -3.21828 1.24583 0
M  V30 20458 C 1858.8 -3.53507 2.48308 0
M  V30 20459 C 1857.94 -4.80526 2.26425 0
M  V30 20460 C 1856.98 -5.05069 3.45792 0
M  V30 20461 N 1856.12 -6.23295 3.23184 0
M  V30 20462 H 1860.96 -1.84224 2.34234 0
M  V30 20463 H 1858.49 -0.900094 1.16347 0
M  V30 20464 H 1860.45 -4.01257 1.14231 0
M  V30 20465 H 1859.08 -3.21111 0.329793 0
M  V30 20466 H 1858.13 -2.68729 2.69238 0
M  V30 20467 H 1859.44 -3.67558 3.37198 0
M  V30 20468 H 1858.6 -5.67949 2.13353 0
M  V30 20469 H 1857.34 -4.6866 1.3494 0
M  V30 20470 H 1856.34 -4.16106 3.59355 0
M  V30 20471 H 1857.57 -5.18815 4.38186 0
M  V30 20472 H 1855.51 -6.12704 2.3437 0
M  V30 20473 H 1855.43 -6.37964 4.05633 0
M  V30 20474 H 1856.7 -7.13539 3.13819 0
M  V30 20475 N 1860.93 -1.25042 -0.959279 0
M  V30 20476 C 1862.16 -1.12242 -1.73809 0
M  V30 20477 C 1862.57 0.324251 -1.85995 0
M  V30 20478 O 1861.93 1.22328 -1.35433 0
M  V30 20479 C 1861.98 -1.76603 -3.15426 0
M  V30 20480 O 1861.7 -3.15614 -3.03841 0
M  V30 20481 C 1863.2 -1.69522 -4.09606 0
M  V30 20482 H 1860.42 -0.39173 -0.544783 0
M  V30 20483 H 1862.96 -1.65314 -1.2038 0
M  V30 20484 H 1861.12 -1.27512 -3.65813 0
M  V30 20485 H 1861.53 -3.47186 -3.93144 0
M  V30 20486 H 1863.01 -2.19223 -5.06602 0
M  V30 20487 H 1863.48 -0.658074 -4.34242 0
M  V30 20488 H 1864.09 -2.18079 -3.65133 0
M  V30 20489 N 1862.41 1.16121 -1.06553 0
M  V30 20490 C 1863.34 2.22761 -0.699976 0
M  V30 20491 C 1864.32 1.67274 0.308783 0
M  V30 20492 O 1865.5 1.93333 0.183328 0
M  V30 20493 C 1862.63 3.47187 -0.0884044 0
M  V30 20494 C 1861.59 4.15584 -1.02343 0
M  V30 20495 C 1860.91 5.33992 -0.275022 0
M  V30 20496 C 1862.21 4.66266 -2.35358 0
M  V30 20497 H 1863.91 2.53595 -1.59153 0
M  V30 20498 H 1861.45 1.21893 -0.766686 0
M  V30 20499 H 1863.41 4.21019 0.17922 0
M  V30 20500 H 1862.13 3.15661 0.838181 0
M  V30 20501 H 1860.79 3.43683 -1.27584 0
M  V30 20502 H 1860.44 4.9872 0.654765 0
M  V30 20503 H 1860.14 5.80695 -0.898181 0
M  V30 20504 H 1861.66 6.10598 -0.0150056 0
M  V30 20505 H 1863.07 5.31665 -2.14488 0
M  V30 20506 H 1861.47 5.236 -2.93195 0
M  V30 20507 H 1862.54 3.82335 -2.98241 0
M  V30 20508 N 1863.88 0.848487 1.3281 0
M  V30 20509 C 1864.79 0.291355 2.32784 0
M  V30 20510 C 1865.81 -0.587621 1.63777 0
M  V30 20511 O 1866.99 -0.489458 1.95362 0
M  V30 20512 C 1864.05 -0.51634 3.42834 0
M  V30 20513 C 1863.11 0.388046 4.27543 0
M  V30 20514 C 1862.35 -0.381197 5.32337 0
M  V30 20515 O 1862.57 -1.61186 5.47152 0
M  V30 20516 O 1861.5 0.2498 6.01381 0
M  V30 20517 H 1865.33 1.11947 2.82315 0
M  V30 20518 H 1862.91 0.611259 1.36323 0
M  V30 20519 H 1864.8 -0.974995 4.09966 0
M  V30 20520 H 1863.47 -1.32136 2.95503 0
M  V30 20521 H 1862.38 0.894745 3.63243 0
M  V30 20522 H 1863.71 1.15808 4.78382 0
M  V30 20523 N 1865.36 -1.4549 0.605832 0
M  V30 20524 C 1866.27 -2.34313 -0.115915 0
M  V30 20525 C 1867.29 -1.51136 -0.862199 0
M  V30 20526 O 1868.46 -1.83943 -0.820181 0
M  V30 20527 C 1865.53 -3.28724 -1.10188 0
M  V30 20528 C 1864.59 -4.27807 -0.357749 0
M  V30 20529 C 1863.82 -5.17707 -1.29675 0
M  V30 20530 O 1864.05 -5.10999 -2.53448 0
M  V30 20531 O 1862.98 -5.9663 -0.794767 0
M  V30 20532 H 1866.81 -2.97429 0.613981 0
M  V30 20533 H 1864.39 -1.44845 0.366103 0
M  V30 20534 H 1866.27 -3.86905 -1.6698 0
M  V30 20535 H 1864.95 -2.68175 -1.81284 0
M  V30 20536 H 1863.86 -3.73246 0.252588 0
M  V30 20537 H 1865.19 -4.91206 0.312682 0
M  V30 20538 N 1866.84 -0.344893 -1.5378 0
M  V30 20539 C 1868.09 0.25158 -2.01233 0
M  V30 20540 C 1868.42 1.50094 -1.23229 0
M  V30 20541 O 1867.69 1.91845 -0.320282 0
M  V30 20542 C 1867.98 0.564366 -3.5565 0
M  V30 20543 C 1867.83 -0.697186 -4.44364 0
M  V30 20544 C 1869.15 1.37343 -4.18121 0
M  V30 20545 H 1866.27 0.0899643 -0.731488 0
M  V30 20546 H 1868.91 -0.465697 -1.84204 0
M  V30 20547 H 1867.06 1.17543 -3.70292 0
M  V30 20548 H 1868.73 -1.33512 -4.41557 0
M  V30 20549 H 1866.98 -1.3218 -4.13172 0
M  V30 20550 H 1867.65 -0.433571 -5.50295 0
M  V30 20551 H 1870.12 0.85671 -4.07185 0
M  V30 20552 H 1869 1.56103 -5.26235 0
M  V30 20553 H 1869.26 2.37593 -3.7283 0
M  V30 20554 N 1868.32 1.57428 -0.0735454 0
M  V30 20555 C 1869.56 1.94654 0.590036 0
M  V30 20556 C 1869.92 0.953457 1.67114 0
M  V30 20557 O 1869.21 -0.0239893 1.91585 0
M  V30 20558 C 1869.41 3.36302 1.20978 0
M  V30 20559 C 1869.24 4.49297 0.190244 0
M  V30 20560 C 1868.01 5.04796 -0.225707 0
M  V30 20561 C 1870.2 5.11096 -0.573191 0
M  V30 20562 N 1868.19 6.01334 -1.23577 0
M  V30 20563 C 1869.56 6.03149 -1.43568 0
M  V30 20564 C 1871.61 4.9391 -0.629068 0
M  V30 20565 C 1870.31 6.7986 -2.34909 0
M  V30 20566 C 1872.34 5.71266 -1.52999 0
M  V30 20567 C 1871.7 6.62969 -2.38015 0
M  V30 20568 H 1867.8 0.759341 0.186884 0
M  V30 20569 H 1870.39 1.94113 -0.151096 0
M  V30 20570 H 1868.56 3.37578 1.92083 0
M  V30 20571 H 1870.29 3.6076 1.83398 0
M  V30 20572 H 1867.04 4.73337 0.157761 0
M  V30 20573 H 1867.47 6.54301 -1.73836 0
M  V30 20574 H 1872.11 4.22798 0.014025 0
M  V30 20575 H 1869.83 7.50249 -3.00253 0
M  V30 20576 H 1873.41 5.59989 -1.57808 0
M  V30 20577 H 1872.29 7.21781 -3.06597 0
M  V30 20578 N 1869.8 -0.200022 1.56326 0
M  V30 20579 C 1870.76 -1.23155 1.93302 0
M  V30 20580 C 1871.76 -1.38696 0.81364 0
M  V30 20581 O 1872.95 -1.36592 1.08112 0
M  V30 20582 C 1870.08 -2.60177 2.20274 0
M  V30 20583 H 1871.27 -0.915616 2.85581 0
M  V30 20584 H 1868.83 -0.44134 1.4994 0
M  V30 20585 H 1869.56 -2.96833 1.30617 0
M  V30 20586 H 1869.35 -2.50269 3.01841 0
M  V30 20587 H 1870.84 -3.34572 2.49903 0
M  V30 20588 N 1871.27 -1.50505 -0.467553 0
M  V30 20589 C 1872.51 -1.63311 -1.22918 0
M  V30 20590 C 1872.88 -0.327842 -1.8918 0
M  V30 20591 O 1874.08 -0.33137 -2.6675 0
M  V30 20592 C 1872.35 -2.78308 -2.24231 0
M  V30 20593 S 1873.91 -3.11268 -3.09286 0
M  V30 20594 H 1870.73 -0.575676 -0.417274 0
M  V30 20595 H 1873.33 -1.88302 -0.525612 0
M  V30 20596 H 1872.03 -3.71623 -1.74139 0
M  V30 20597 H 1871.56 -2.55413 -2.99212 0
M  V30 20598 H 1873.58 -2.55366 -4.25444 0
M  V30 20599 N 1872.75 0.720973 -1.40142 0
M  V30 20600 C 1874 1.48179 -1.39336 0
M  V30 20601 C 1874.35 1.92399 0.00644899 0
M  V30 20602 O 1873.65 1.64891 0.975787 0
M  V30 20603 C 1873.84 2.72513 -2.31239 0
M  V30 20604 C 1873.67 2.40453 -3.80016 0
M  V30 20605 C 1872.44 2.32058 -4.48862 0
M  V30 20606 C 1874.64 2.05075 -4.71645 0
M  V30 20607 N 1872.62 1.92616 -5.829 0
M  V30 20608 C 1873.99 1.7619 -5.94438 0
M  V30 20609 C 1876.05 1.91664 -4.59532 0
M  V30 20610 C 1874.75 1.35244 -7.06471 0
M  V30 20611 C 1876.77 1.52122 -5.715 0
M  V30 20612 C 1876.14 1.24132 -6.93376 0
M  V30 20613 H 1872.24 0.540518 -0.565123 0
M  V30 20614 H 1874.82 0.836604 -1.7581 0
M  V30 20615 H 1872.99 3.3479 -1.96901 0
M  V30 20616 H 1874.72 3.38816 -2.21327 0
M  V30 20617 H 1871.48 2.4962 -4.02476 0
M  V30 20618 H 1871.9 1.75449 -6.53871 0
M  V30 20619 H 1876.54 2.11967 -3.65828 0
M  V30 20620 H 1874.26 1.13683 -8.00064 0
M  V30 20621 H 1877.85 1.42331 -5.64121 0
M  V30 20622 H 1876.73 0.939937 -7.78547 0
M  V30 20623 N 1874.23 1.25549 0.952634 0
M  V30 20624 C 1875.18 1.02791 2.03514 0
M  V30 20625 C 1876.16 -0.0358706 1.6086 0
M  V30 20626 O 1877.36 0.179707 1.76085 0
M  V30 20627 C 1874.49 0.650727 3.37076 0
M  V30 20628 C 1873.57 1.75137 3.86248 0
M  V30 20629 N 1873.96 2.98686 4.08192 0
M  V30 20630 C 1872.26 1.63235 4.15055 0
M  V30 20631 C 1872.96 3.70141 4.48743 0
M  V30 20632 N 1871.94 2.97771 4.54789 0
M  V30 20633 H 1875.74 1.96585 2.18476 0
M  V30 20634 H 1873.25 1.15898 1.13761 0
M  V30 20635 H 1875.25 0.468871 4.14255 0
M  V30 20636 H 1873.91 -0.279854 3.23492 0
M  V30 20637 H 1874.92 3.3471 3.95208 0
M  V30 20638 H 1871.6 0.770867 4.10322 0
M  V30 20639 H 1872.99 4.762 4.74008 0
M  V30 20640 N 1875.71 -1.15554 1.07168 0
M  V30 20641 C 1876.62 -2.2386 0.701714 0
M  V30 20642 C 1877.63 -1.7163 -0.28621 0
M  V30 20643 O 1878.81 -2.00958 -0.133308 0
M  V30 20644 C 1875.88 -3.46546 0.103165 0
M  V30 20645 C 1874.94 -4.13774 1.14409 0
M  V30 20646 C 1874.17 -5.30604 0.574007 0
M  V30 20647 O 1874.39 -5.67123 -0.610521 0
M  V30 20648 O 1873.33 -5.87293 1.31799 0
M  V30 20649 H 1877.15 -2.57833 1.60487 0
M  V30 20650 H 1874.74 -1.23241 0.844514 0
M  V30 20651 H 1876.62 -4.2078 -0.228452 0
M  V30 20652 H 1875.29 -3.14327 -0.773339 0
M  V30 20653 H 1874.2 -3.4147 1.52803 0
M  V30 20654 H 1875.53 -4.5007 1.99243 0
M  V30 20655 N 1877.19 -0.855519 -1.32358 0
M  V30 20656 C 1878.12 -0.316159 -2.3135 0
M  V30 20657 C 1879.1 0.585159 -1.59718 0
M  V30 20658 O 1880.28 0.505221 -1.87513 0
M  V30 20659 C 1877.41 0.495577 -3.43746 0
M  V30 20660 C 1876.37 -0.311382 -4.26866 0
M  V30 20661 C 1875.69 0.625144 -5.31033 0
M  V30 20662 C 1876.99 -1.5376 -4.99154 0
M  V30 20663 H 1878.69 -1.14331 -2.7671 0
M  V30 20664 H 1876.23 -0.551221 -1.33032 0
M  V30 20665 H 1878.19 0.883325 -4.12038 0
M  V30 20666 H 1876.91 1.3561 -2.97115 0
M  V30 20667 H 1875.57 -0.680895 -3.60221 0
M  V30 20668 H 1875.22 1.48254 -4.80656 0
M  V30 20669 H 1874.92 0.0892112 -5.87532 0
M  V30 20670 H 1876.44 1.01005 -6.02188 0
M  V30 20671 H 1877.86 -1.2221 -5.60123 0
M  V30 20672 H 1876.25 -2.01153 -5.65382 0
M  V30 20673 H 1877.32 -2.29838 -4.26969 0
M  V30 20674 N 1878.67 1.45167 -0.61354 0
M  V30 20675 C 1879.6 2.3333 0.089004 0
M  V30 20676 C 1880.58 1.47181 0.85275 0
M  V30 20677 O 1881.76 1.7594 0.822122 0
M  V30 20678 C 1878.89 3.29982 1.08301 0
M  V30 20679 C 1877.85 4.25813 0.432084 0
M  V30 20680 C 1877.17 5.122 1.53476 0
M  V30 20681 C 1878.47 5.18233 -0.65052 0
M  V30 20682 H 1880.17 2.92322 -0.647165 0
M  V30 20683 H 1877.71 1.40565 -0.312667 0
M  V30 20684 H 1879.66 3.90533 1.5831 0
M  V30 20685 H 1878.39 2.69162 1.84985 0
M  V30 20686 H 1877.05 3.6657 -0.0471927 0
M  V30 20687 H 1876.7 4.47744 2.29203 0
M  V30 20688 H 1876.4 5.77122 1.10469 0
M  V30 20689 H 1877.92 5.7562 2.037 0
M  V30 20690 H 1879.33 5.72821 -0.234262 0
M  V30 20691 H 1877.73 5.91664 -1.00268 0
M  V30 20692 H 1878.8 4.60304 -1.52475 0
M  V30 20693 N 1880.14 0.353044 1.53595 0
M  V30 20694 C 1881.37 -0.244309 2.05956 0
M  V30 20695 C 1881.79 -1.42681 1.22571 0
M  V30 20696 O 1881.15 -1.79681 0.241723 0
M  V30 20697 C 1881.2 -0.628083 3.55088 0
M  V30 20698 O 1880.3 -1.72693 3.74501 0
M  V30 20699 H 1879.64 -0.038537 0.662881 0
M  V30 20700 H 1882.17 0.510013 1.98141 0
M  V30 20701 H 1882.18 -0.902597 3.97891 0
M  V30 20702 H 1880.86 0.236643 4.15226 0
M  V30 20703 H 1879.44 -1.44895 3.43599 0
M  V30 20704 N 1881.62 -1.57387 0.0818932 0
M  V30 20705 C 1882.85 -1.97913 -0.592784 0
M  V30 20706 C 1883.26 -0.959377 -1.63072 0
M  V30 20707 O 1882.6 0.0610095 -1.83599 0
M  V30 20708 C 1882.66 -3.34778 -1.3101 0
M  V30 20709 C 1882.33 -4.55025 -0.424461 0
M  V30 20710 C 1883.33 -5.18902 0.322059 0
M  V30 20711 C 1881.01 -5.01104 -0.346382 0
M  V30 20712 C 1883 -6.27217 1.13478 0
M  V30 20713 C 1880.69 -6.0929 0.469997 0
M  V30 20714 C 1881.69 -6.7221 1.20924 0
M  V30 20715 O 1881.38 -7.78311 2.01213 0
M  V30 20716 H 1881.11 -0.655646 -0.164633 0
M  V30 20717 H 1883.66 -2.04823 0.153877 0
M  V30 20718 H 1881.89 -3.24513 -2.10305 0
M  V30 20719 H 1883.58 -3.59841 -1.87801 0
M  V30 20720 H 1884.35 -4.8424 0.271391 0
M  V30 20721 H 1880.23 -4.51901 -0.91141 0
M  V30 20722 H 1883.77 -6.7626 1.71227 0
M  V30 20723 H 1879.67 -6.43384 0.522194 0
M  V30 20724 H 1880.44 -7.95237 1.93753 0
M  V30 20725 N 1883.1 0.191729 -1.56429 0
M  V30 20726 C 1884.03 1.24024 -1.97839 0
M  V30 20727 C 1885.01 1.47291 -0.850853 0
M  V30 20728 O 1886.2 1.58971 -1.11543 0
M  V30 20729 C 1883.33 2.58373 -2.32079 0
M  V30 20730 C 1882.28 2.49712 -3.47603 0
M  V30 20731 C 1881.61 3.88365 -3.67528 0
M  V30 20732 C 1882.91 2.01929 -4.81687 0
M  V30 20733 H 1884.6 0.8961 -2.85675 0
M  V30 20734 H 1882.15 0.429616 -1.37442 0
M  V30 20735 H 1884.1 3.31908 -2.59643 0
M  V30 20736 H 1882.82 2.94534 -1.41129 0
M  V30 20737 H 1881.48 1.78632 -3.20135 0
M  V30 20738 H 1881.13 4.21884 -2.73903 0
M  V30 20739 H 1880.83 3.83444 -4.45246 0
M  V30 20740 H 1882.35 4.63518 -3.97472 0
M  V30 20741 H 1883.77 2.65225 -5.0826 0
M  V30 20742 H 1882.16 2.08002 -5.62899 0
M  V30 20743 H 1883.23 0.972649 -4.75045 0
M  V30 20744 N 1884.58 1.50751 0.459565 0
M  V30 20745 C 1885.49 1.7326 1.58171 0
M  V30 20746 C 1886.5 0.616042 1.6273 0
M  V30 20747 O 1887.68 0.895726 1.80385 0
M  V30 20748 C 1884.74 1.83249 2.94314 0
M  V30 20749 C 1883.81 3.07031 3.00051 0
M  V30 20750 C 1883.04 3.16534 4.297 0
M  V30 20751 O 1883.26 2.32532 5.2085 0
M  V30 20752 O 1882.2 4.0935 4.41266 0
M  V30 20753 H 1886.02 2.68406 1.42098 0
M  V30 20754 H 1883.61 1.34985 0.640273 0
M  V30 20755 H 1885.49 1.91933 3.75153 0
M  V30 20756 H 1884.16 0.912887 3.10561 0
M  V30 20757 H 1883.07 3.0384 2.18248 0
M  V30 20758 H 1884.4 3.98608 2.88743 0
M  V30 20759 N 1886.06 -0.713531 1.40522 0
M  V30 20760 C 1887 -1.82761 1.40951 0
M  V30 20761 C 1887.97 -1.63953 0.266188 0
M  V30 20762 O 1889.16 -1.85058 0.464558 0
M  V30 20763 C 1886.3 -3.20488 1.27989 0
M  V30 20764 C 1885.41 -3.50853 2.52044 0
M  V30 20765 C 1884.55 -4.78097 2.31509 0
M  V30 20766 C 1883.58 -5.01373 3.51129 0
M  V30 20767 N 1882.72 -6.19832 3.29777 0
M  V30 20768 H 1887.56 -1.81729 2.36175 0
M  V30 20769 H 1885.1 -0.887703 1.17296 0
M  V30 20770 H 1887.06 -4.00023 1.1848 0
M  V30 20771 H 1885.69 -3.20743 0.363832 0
M  V30 20772 H 1884.74 -2.65858 2.72073 0
M  V30 20773 H 1886.05 -3.63961 3.41077 0
M  V30 20774 H 1885.2 -5.65654 2.19365 0
M  V30 20775 H 1883.94 -4.67203 1.39903 0
M  V30 20776 H 1882.95 -4.12271 3.63748 0
M  V30 20777 H 1884.17 -5.14139 4.43664 0
M  V30 20778 H 1882.12 -6.10184 2.40855 0
M  V30 20779 H 1882.04 -6.33626 4.12376 0
M  V30 20780 H 1883.3 -7.1017 3.2137 0
M  V30 20781 N 1887.53 -1.26053 -0.945962 0
M  V30 20782 C 1888.5 -1.07262 -2.02553 0
M  V30 20783 C 1889.5 -0.0225237 -1.60784 0
M  V30 20784 O 1890.69 -0.265501 -1.72165 0
M  V30 20785 C 1887.82 -0.63045 -3.3502 0
M  V30 20786 H 1889.01 -2.03105 -2.20655 0
M  V30 20787 H 1886.56 -1.08582 -1.12426 0
M  V30 20788 H 1887.3 0.330188 -3.22615 0
M  V30 20789 H 1887.08 -1.38863 -3.66687 0
M  V30 20790 H 1888.57 -0.520674 -4.14341 0
M  V30 20791 N 1889.01 1.14984 -1.07779 0
M  V30 20792 C 1889.96 2.2193 -0.696405 0
M  V30 20793 C 1890.95 1.66815 0.294832 0
M  V30 20794 O 1892.16 1.79305 0.158081 0
M  V30 20795 H 1888.53 0.722908 -0.207143 0
M  V30 20796 H 1890.51 2.51374 -1.60791 0
M  V30 20797 C 1889.25 3.4751 -0.114943 0
M  V30 20798 H 1888.58 3.90245 -0.86883 0
M  V30 20799 H 1890.02 4.23846 0.114195 0
M  V30 20800 C 1888.48 3.16827 1.14552 0
M  V30 20801 O 1889.01 3.34026 2.23135 0
M  V30 20802 N 1887.21 2.70836 1.05339 0
M  V30 20803 H 1886.76 2.5704 0.169728 0
M  V30 20804 H 1886.72 2.50681 1.89754 0
M  V30 20805 N 1890.49 0.862526 1.31902 0
M  V30 20806 C 1891.44 0.31091 2.28696 0
M  V30 20807 C 1892.41 -0.586495 1.55401 0
M  V30 20808 O 1893.59 -0.519727 1.83585 0
M  V30 20809 C 1890.73 -0.487986 3.41632 0
M  V30 20810 C 1889.84 0.436096 4.29793 0
M  V30 20811 C 1888.98 -0.376197 5.29866 0
M  V30 20812 C 1888.02 0.544784 6.09671 0
M  V30 20813 N 1887.16 -0.230806 7.01721 0
M  V30 20814 H 1892 1.14156 2.75268 0
M  V30 20815 H 1889.53 0.574352 1.35424 0
M  V30 20816 H 1891.49 -0.966875 4.05842 0
M  V30 20817 H 1890.12 -1.28339 2.96191 0
M  V30 20818 H 1889.17 1.03341 3.66094 0
M  V30 20819 H 1890.48 1.14259 4.85537 0
M  V30 20820 H 1889.64 -0.917915 5.99716 0
M  V30 20821 H 1888.38 -1.11602 4.74759 0
M  V30 20822 H 1887.38 1.09832 5.38718 0
M  V30 20823 H 1888.61 1.28334 6.66864 0
M  V30 20824 H 1886.55 -0.95358 6.49032 0
M  V30 20825 H 1886.47 0.416499 7.54852 0
M  V30 20826 H 1887.74 -0.753996 7.75845 0
M  V30 20827 N 1891.97 -1.4484 0.62123 0
M  V30 20828 C 1893.21 -2.02981 0.130446 0
M  V30 20829 C 1893.57 -1.47918 -1.23036 0
M  V30 20830 O 1892.86 -0.649739 -1.80247 0
M  V30 20831 C 1893.06 -3.57369 0.0470922 0
M  V30 20832 C 1892.89 -4.27409 1.39827 0
M  V30 20833 C 1891.66 -4.64785 1.98251 0
M  V30 20834 C 1893.85 -4.58492 2.33 0
M  V30 20835 N 1891.84 -5.19746 3.26707 0
M  V30 20836 C 1893.21 -5.14431 3.46064 0
M  V30 20837 C 1895.26 -4.40439 2.32203 0
M  V30 20838 C 1893.96 -5.54218 4.58514 0
M  V30 20839 C 1895.99 -4.81267 3.43709 0
M  V30 20840 C 1895.35 -5.37311 4.55496 0
M  V30 20841 H 1891.45 -0.776638 0.0914226 0
M  V30 20842 H 1894.04 -1.76471 0.822563 0
M  V30 20843 H 1892.21 -3.83512 -0.61428 0
M  V30 20844 H 1893.94 -4.02172 -0.451606 0
M  V30 20845 H 1890.69 -4.48781 1.51304 0
M  V30 20846 H 1891.12 -5.51712 3.92356 0
M  V30 20847 H 1895.76 -3.96411 1.47031 0
M  V30 20848 H 1893.48 -5.97205 5.44401 0
M  V30 20849 H 1897.06 -4.69019 3.44256 0
M  V30 20850 H 1895.94 -5.68321 5.40353 0
M  V30 20851 N 1893.45 -0.361184 -1.53405 0
M  V30 20852 C 1894.38 0.479368 -2.28526 0
M  V30 20853 C 1895.36 1.08768 -1.3078 0
M  V30 20854 O 1896.54 1.10576 -1.59645 0
M  V30 20855 C 1893.67 1.6215 -3.07123 0
M  V30 20856 C 1892.63 1.14065 -4.12521 0
M  V30 20857 C 1891.95 2.37267 -4.79175 0
M  V30 20858 C 1893.25 0.228522 -5.218 0
M  V30 20859 H 1894.95 -0.147344 -2.99037 0
M  V30 20860 H 1892.49 -0.0723051 -1.43818 0
M  V30 20861 H 1894.45 2.21612 -3.58422 0
M  V30 20862 H 1893.17 2.27538 -2.34295 0
M  V30 20863 H 1891.83 0.568735 -3.62162 0
M  V30 20864 H 1891.48 3.01102 -4.02923 0
M  V30 20865 H 1891.18 2.05768 -5.50394 0
M  V30 20866 H 1892.7 2.97424 -5.33265 0
M  V30 20867 H 1894.11 0.730497 -5.68627 0
M  V30 20868 H 1892.51 0.00460259 -6.001 0
M  V30 20869 H 1893.58 -0.730537 -4.79365 0
M  V30 20870 N 1894.92 1.57341 -0.0902386 0
M  V30 20871 C 1895.87 2.14982 0.887997 0
M  V30 20872 C 1896.87 1.09142 1.29555 0
M  V30 20873 O 1898.07 1.27494 1.27064 0
M  V30 20874 H 1894.45 0.687648 0.304376 0
M  V30 20875 H 1896.42 2.96008 0.377094 0
M  V30 20876 C 1895.17 2.74101 2.13925 0
M  V30 20877 H 1894.49 3.55226 1.83452 0
M  V30 20878 H 1895.93 3.18007 2.80442 0
M  V30 20879 C 1894.39 1.69757 2.91005 0
M  V30 20880 O 1894.92 1.13359 3.85373 0
M  V30 20881 N 1893.13 1.40362 2.54454 0
M  V30 20882 H 1892.67 1.86414 1.77785 0
M  V30 20883 H 1892.63 0.707837 3.06328 0
M  V30 20884 N 1896.4 -0.183431 1.56529 0
M  V30 20885 C 1897.31 -1.24746 1.98684 0
M  V30 20886 C 1898.33 -1.49139 0.8963 0
M  V30 20887 O 1899.5 -1.61525 1.20298 0
M  V30 20888 C 1896.57 -2.56927 2.32786 0
M  V30 20889 C 1895.63 -2.40503 3.55607 0
M  V30 20890 C 1894.86 -3.66381 3.88073 0
M  V30 20891 O 1895.09 -4.71048 3.21668 0
M  V30 20892 O 1894.02 -3.61214 4.81465 0
M  V30 20893 H 1897.85 -0.919676 2.8944 0
M  V30 20894 H 1895.43 -0.389352 1.44237 0
M  V30 20895 H 1897.31 -3.34923 2.55744 0
M  V30 20896 H 1895.99 -2.89309 1.45196 0
M  V30 20897 H 1894.9 -1.6058 3.37883 0
M  V30 20898 H 1896.23 -2.1305 4.43701 0
M  V30 20899 N 1897.88 -1.50992 -0.451564 0
M  V30 20900 C 1899.13 -1.63197 -1.20394 0
M  V30 20901 C 1899.46 -0.340409 -1.91193 0
M  V30 20902 O 1898.73 0.65926 -1.82986 0
M  V30 20903 C 1899.02 -2.82567 -2.23221 0
M  V30 20904 C 1898.87 -4.2166 -1.56598 0
M  V30 20905 C 1900.19 -2.97468 -3.24347 0
M  V30 20906 H 1897.31 -0.59395 -0.43634 0
M  V30 20907 H 1899.95 -1.83437 -0.495056 0
M  V30 20908 H 1898.1 -2.65441 -2.83678 0
M  V30 20909 H 1899.77 -4.50422 -0.995877 0
M  V30 20910 H 1898.02 -4.25015 -0.86862 0
M  V30 20911 H 1898.69 -5.0115 -2.31415 0
M  V30 20912 H 1901.16 -3.13211 -2.73931 0
M  V30 20913 H 1900.04 -3.82581 -3.93603 0
M  V30 20914 H 1900.3 -2.08921 -3.89621 0
M  V30 20915 N 1899.36 0.706069 -1.40899 0
M  V30 20916 C 1900.27 1.85007 -1.44255 0
M  V30 20917 C 1901.28 1.70761 -0.334174 0
M  V30 20918 O 1902.46 1.9286 -0.580258 0
M  V30 20919 C 1899.53 3.20896 -1.31251 0
M  V30 20920 C 1898.59 3.47327 -2.52314 0
M  V30 20921 C 1897.82 4.76732 -2.39922 0
M  V30 20922 O 1898.04 5.5249 -1.41813 0
M  V30 20923 O 1896.98 5.03713 -3.2948 0
M  V30 20924 H 1900.8 1.85132 -2.40748 0
M  V30 20925 H 1898.39 0.857751 -1.22323 0
M  V30 20926 H 1900.27 4.02045 -1.26244 0
M  V30 20927 H 1898.94 3.21477 -0.378684 0
M  V30 20928 H 1897.85 2.66149 -2.62899 0
M  V30 20929 H 1899.18 3.5155 -3.4449 0
M  V30 20930 N 1900.84 1.26553 0.939264 0
M  V30 20931 C 1902.08 1.1221 1.68568 0
M  V30 20932 C 1902.41 -0.334213 1.91607 0
M  V30 20933 O 1901.67 -1.26177 1.49593 0
M  V30 20934 C 1901.97 1.83848 3.06488 0
M  V30 20935 C 1901.63 3.33739 3.03198 0
M  V30 20936 C 1900.29 3.74626 3.02008 0
M  V30 20937 C 1902.65 4.29432 2.9536 0
M  V30 20938 C 1899.97 5.0959 2.90748 0
M  V30 20939 C 1902.33 5.64439 2.85641 0
M  V30 20940 C 1900.99 6.04635 2.82795 0
M  V30 20941 H 1900.26 0.410606 0.616833 0
M  V30 20942 H 1902.91 1.57019 1.09623 0
M  V30 20943 H 1901.21 1.31514 3.69068 0
M  V30 20944 H 1902.91 1.70189 3.63093 0
M  V30 20945 H 1899.5 3.01216 3.04905 0
M  V30 20946 H 1903.68 3.98824 2.95386 0
M  V30 20947 H 1898.94 5.39894 2.86923 0
M  V30 20948 H 1903.11 6.3827 2.7854 0
M  V30 20949 H 1900.74 7.09171 2.73826 0
M  V30 20950 N 1902.31 -1.14411 1.08387 0
M  V30 20951 C 1903.26 -2.19489 0.713668 0
M  V30 20952 C 1904.23 -1.63368 -0.300036 0
M  V30 20953 O 1905.42 -1.8991 -0.184088 0
M  V30 20954 C 1902.56 -3.44859 0.128925 0
M  V30 20955 C 1901.67 -4.15132 1.19538 0
M  V30 20956 C 1900.8 -5.28084 0.574521 0
M  V30 20957 C 1899.84 -5.9019 1.62303 0
M  V30 20958 N 1898.98 -6.94593 1.02398 0
M  V30 20959 H 1903.82 -2.50505 1.61404 0
M  V30 20960 H 1901.36 -1.23014 0.806595 0
M  V30 20961 H 1903.32 -4.16578 -0.227814 0
M  V30 20962 H 1901.95 -3.14327 -0.734757 0
M  V30 20963 H 1901 -3.41804 1.66955 0
M  V30 20964 H 1902.31 -4.57387 1.98994 0
M  V30 20965 H 1901.46 -6.06473 0.166017 0
M  V30 20966 H 1900.2 -4.8705 -0.251701 0
M  V30 20967 H 1899.21 -5.10505 2.0412 0
M  V30 20968 H 1900.43 -6.33299 2.45172 0
M  V30 20969 H 1898.38 -6.55635 0.218849 0
M  V30 20970 H 1898.3 -7.35332 1.75564 0
M  V30 20971 H 1899.56 -7.76857 0.641327 0
M  V30 20972 N 1903.79 -0.869509 -1.31443 0
M  V30 20973 C 1904.72 -0.340679 -2.31001 0
M  V30 20974 C 1905.7 0.568186 -1.6033 0
M  V30 20975 O 1906.89 0.485305 -1.88038 0
M  V30 20976 C 1904.02 0.45909 -3.44252 0
M  V30 20977 C 1902.97 -0.356639 -4.26512 0
M  V30 20978 C 1902.3 0.568786 -5.31666 0
M  V30 20979 C 1903.6 -1.59045 -4.97496 0
M  V30 20980 H 1905.29 -1.1726 -2.75482 0
M  V30 20981 H 1902.84 -0.5653 -1.3244 0
M  V30 20982 H 1904.79 0.839573 -4.12952 0
M  V30 20983 H 1903.52 1.32451 -2.98537 0
M  V30 20984 H 1902.17 -0.719063 -3.59479 0
M  V30 20985 H 1901.82 1.43148 -4.82201 0
M  V30 20986 H 1901.52 0.0268906 -5.87594 0
M  V30 20987 H 1903.05 0.946122 -6.03225 0
M  V30 20988 H 1904.46 -1.28144 -5.58795 0
M  V30 20989 H 1902.86 -2.07139 -5.63217 0
M  V30 20990 H 1903.93 -2.34354 -4.24507 0
M  V30 20991 N 1905.27 1.44508 -0.628902 0
M  V30 20992 C 1906.22 2.3067 0.0773497 0
M  V30 20993 C 1907.19 1.43353 0.839003 0
M  V30 20994 O 1908.37 1.72258 0.820487 0
M  V30 20995 C 1905.51 3.28596 1.05447 0
M  V30 20996 C 1904.63 4.31016 0.291465 0
M  V30 20997 C 1903.76 5.16035 1.2602 0
M  V30 20998 C 1902.8 6.10166 0.486229 0
M  V30 20999 N 1901.94 6.87892 1.40532 0
M  V30 21000 H 1906.78 2.90523 -0.663346 0
M  V30 21001 H 1904.31 1.43143 -0.338906 0
M  V30 21002 H 1906.27 3.83856 1.63433 0
M  V30 21003 H 1904.9 2.70448 1.76232 0
M  V30 21004 H 1903.95 3.78246 -0.404285 0
M  V30 21005 H 1905.27 4.97827 -0.311447 0
M  V30 21006 H 1904.42 5.75802 1.91147 0
M  V30 21007 H 1903.16 4.49293 1.89704 0
M  V30 21008 H 1902.16 5.4951 -0.178543 0
M  V30 21009 H 1903.39 6.78943 -0.145859 0
M  V30 21010 H 1901.33 6.2382 2.0294 0
M  V30 21011 H 1901.25 7.51134 0.856369 0
M  V30 21012 H 1902.52 7.52183 2.04549 0
M  V30 21013 N 1906.75 0.369315 1.53212 0
M  V30 21014 C 1907.98 -0.219858 2.05729 0
M  V30 21015 C 1908.39 -1.42148 1.24255 0
M  V30 21016 O 1907.75 -1.80274 0.284146 0
M  V30 21017 C 1907.8 -0.609683 3.56322 0
M  V30 21018 O 1907.52 0.544184 4.34707 0
M  V30 21019 C 1909.02 -1.25685 4.2511 0
M  V30 21020 H 1906.24 -0.037867 0.669931 0
M  V30 21021 H 1908.79 0.528765 1.97546 0
M  V30 21022 H 1906.94 -1.30822 3.64643 0
M  V30 21023 H 1907.36 0.228276 5.24003 0
M  V30 21024 H 1908.83 -1.48014 5.31785 0
M  V30 21025 H 1909.31 -2.21827 3.79064 0
M  V30 21026 H 1909.91 -0.59964 4.21052 0
M  V30 21027 N 1908.23 -1.57291 0.0985816 0
M  V30 21028 C 1909.46 -1.98819 -0.57259 0
M  V30 21029 C 1909.87 -0.977787 -1.61508 0
M  V30 21030 O 1909.23 0.0321385 -1.82472 0
M  V30 21031 C 1909.28 -3.40393 -1.21716 0
M  V30 21032 O 1909 -4.37565 -0.216366 0
M  V30 21033 C 1910.5 -3.96943 -1.97361 0
M  V30 21034 H 1907.72 -0.653268 -0.153239 0
M  V30 21035 H 1910.26 -2.03716 0.178898 0
M  V30 21036 H 1908.42 -3.36499 -1.91956 0
M  V30 21037 H 1908.83 -5.20046 -0.68205 0
M  V30 21038 H 1910.31 -4.98144 -2.37816 0
M  V30 21039 H 1910.78 -3.34953 -2.84083 0
M  V30 21040 H 1911.39 -4.0432 -1.3193 0
M  V30 21041 N 1909.71 0.175127 -1.56624 0
M  V30 21042 C 1910.62 1.23691 -1.99343 0
M  V30 21043 C 1911.63 1.48662 -0.904197 0
M  V30 21044 O 1912.81 1.60885 -1.21153 0
M  V30 21045 C 1909.87 2.55689 -2.34145 0
M  V30 21046 C 1908.93 2.38614 -3.56878 0
M  V30 21047 C 1908.17 3.64318 -3.9001 0
M  V30 21048 O 1908.39 4.69335 -3.24162 0
M  V30 21049 O 1907.32 3.58655 -4.83373 0
M  V30 21050 H 1911.15 0.904314 -2.89924 0
M  V30 21051 H 1908.73 0.381697 -1.44442 0
M  V30 21052 H 1910.62 3.33562 -2.57516 0
M  V30 21053 H 1909.29 2.88535 -1.46728 0
M  V30 21054 H 1908.2 1.58786 -3.3873 0
M  V30 21055 H 1909.53 2.10694 -4.44825 0
M  V30 21056 N 1911.18 1.5123 0.44355 0
M  V30 21057 C 1912.13 1.7266 1.55857 0
M  V30 21058 C 1913.13 0.59279 1.5869 0
M  V30 21059 O 1914.33 0.774014 1.62509 0
M  V30 21060 H 1910.71 0.545442 0.517684 0
M  V30 21061 H 1912.68 2.66139 1.34954 0
M  V30 21062 C 1911.43 1.86311 2.9357 0
M  V30 21063 H 1910.75 2.72958 2.9212 0
M  V30 21064 H 1912.19 2.0532 3.70971 0
M  V30 21065 C 1910.65 0.621377 3.3112 0
M  V30 21066 O 1911.18 -0.226833 4.01059 0
M  V30 21067 N 1909.38 0.467286 2.86818 0
M  V30 21068 H 1908.93 1.15859 2.30075 0
M  V30 21069 H 1908.89 -0.36232 3.12305 0
M  V30 21070 N 1912.66 -0.698586 1.41271 0
M  V30 21071 C 1913.91 -1.45425 1.39766 0
M  V30 21072 C 1914.22 -1.95598 0.00891528 0
M  V30 21073 O 1915.43 -2.71195 -0.128757 0
M  V30 21074 C 1913.89 -2.62952 2.45732 0
M  V30 21075 C 1913.49 -2.19578 3.90499 0
M  V30 21076 C 1915.24 -3.40602 2.53359 0
M  V30 21077 C 1913.14 -3.34046 4.88024 0
M  V30 21078 H 1912.07 -0.546236 0.519752 0
M  V30 21079 H 1914.73 -0.758678 1.67082 0
M  V30 21080 H 1913.11 -3.34762 2.11542 0
M  V30 21081 H 1914.28 -1.55077 4.33921 0
M  V30 21082 H 1912.6 -1.5493 3.86504 0
M  V30 21083 H 1915.19 -4.25809 3.23405 0
M  V30 21084 H 1915.54 -3.85582 1.56946 0
M  V30 21085 H 1916.07 -2.75846 2.86625 0
M  V30 21086 H 1912.81 -2.94081 5.8583 0
M  V30 21087 H 1912.33 -3.97407 4.49253 0
M  V30 21088 H 1914.01 -3.99867 5.0864 0
M  V30 21089 N 1914.14 -1.27049 -0.93254 0
M  V30 21090 C 1915.55 -1.11887 -1.49459 0
M  V30 21091 C 1915.9 0.297825 -1.93926 0
M  V30 21092 O 1915.03 1.19024 -1.80727 0
M  V30 21093 C 1915.62 -2.02497 -2.71626 0
M  V30 21094 C 1914.18 -1.91455 -3.24071 0
M  V30 21095 C 1913.33 -1.95337 -1.96821 0
M  V30 21096 H 1916.28 -1.40013 -0.747138 0
M  V30 21097 H 1916.3 -1.57794 -3.46239 0
M  V30 21098 H 1915.81 -3.05598 -2.39231 0
M  V30 21099 H 1913.91 -0.913212 -3.61236 0
M  V30 21100 H 1914.03 -2.77443 -3.90592 0
M  V30 21101 H 1912.39 -1.395 -2.13101 0
M  V30 21102 H 1913.17 -3.00084 -1.66746 0
M  V30 21103 N 1915.62 1.13835 -1.08993 0
M  V30 21104 C 1916.87 1.84645 -0.82163 0
M  V30 21105 C 1917.19 1.83685 0.65458 0
M  V30 21106 O 1916.46 1.28948 1.47477 0
M  V30 21107 H 1915.04 0.683691 -0.300958 0
M  V30 21108 H 1917.7 1.37915 -1.37715 0
M  V30 21109 H 1916.79 2.89292 -1.17117 0
M  V30 21110 N 1917.1 0.876467 1.3098 0
M  V30 21111 C 1918.34 0.489671 1.96078 0
M  V30 21112 C 1918.66 -0.962603 1.69585 0
M  V30 21113 O 1917.93 -1.67568 1.01478 0
M  V30 21114 H 1916.51 0.178091 0.72546 0
M  V30 21115 H 1919.18 1.11768 1.59668 0
M  V30 21116 H 1918.27 0.652822 3.05196 0
M  V30 21117 N 1918.57 -1.44173 0.636557 0
M  V30 21118 C 1919.54 -2.29133 -0.0554994 0
M  V30 21119 C 1920.54 -1.41329 -0.766986 0
M  V30 21120 O 1921.73 -1.63142 -0.610753 0
M  V30 21121 C 1918.86 -3.23031 -1.08922 0
M  V30 21122 H 1920.05 -2.91811 0.691829 0
M  V30 21123 H 1917.6 -1.51175 0.396956 0
M  V30 21124 H 1918.34 -2.65213 -1.86635 0
M  V30 21125 H 1918.12 -3.87743 -0.58291 0
M  V30 21126 H 1919.61 -3.8684 -1.57304 0
M  V30 21127 N 1920.05 -0.377435 -1.53014 0
M  V30 21128 C 1920.96 0.471045 -2.29822 0
M  V30 21129 C 1921.98 1.0821 -1.36259 0
M  V30 21130 O 1923.15 1.09048 -1.69324 0
M  V30 21131 C 1920.22 1.58917 -3.08134 0
M  V30 21132 C 1919.28 1.00444 -4.17384 0
M  V30 21133 C 1918.51 2.06928 -4.91952 0
M  V30 21134 O 1918.74 3.2824 -4.66492 0
M  V30 21135 O 1917.67 1.69321 -5.77593 0
M  V30 21136 H 1921.5 -0.154333 -3.03308 0
M  V30 21137 H 1919.08 -0.141478 -1.48729 0
M  V30 21138 H 1920.96 2.23899 -3.56997 0
M  V30 21139 H 1919.64 2.19973 -2.37473 0
M  V30 21140 H 1918.54 0.3182 -3.72744 0
M  V30 21141 H 1919.88 0.438266 -4.90245 0
M  V30 21142 N 1921.53 1.57237 -0.106922 0
M  V30 21143 C 1922.44 2.18202 0.861685 0
M  V30 21144 C 1923.46 1.15476 1.30159 0
M  V30 21145 O 1924.63 1.47896 1.36707 0
M  V30 21146 C 1921.7 2.7598 2.09847 0
M  V30 21147 C 1920.76 3.93702 1.71164 0
M  V30 21148 C 1919.99 4.48716 2.88946 0
M  V30 21149 O 1920.21 4.02645 4.04021 0
M  V30 21150 O 1919.15 5.39573 2.66729 0
M  V30 21151 H 1922.97 3.01402 0.372924 0
M  V30 21152 H 1920.56 1.48933 0.118058 0
M  V30 21153 H 1922.44 3.12861 2.82305 0
M  V30 21154 H 1921.12 1.9582 2.57753 0
M  V30 21155 H 1920.02 3.61613 0.958499 0
M  V30 21156 H 1921.36 4.75262 1.28011 0
M  V30 21157 N 1923.01 -0.166818 1.56715 0
M  V30 21158 C 1924.26 -0.881043 1.8144 0
M  V30 21159 C 1924.57 -1.83216 0.684925 0
M  V30 21160 O 1925.78 -2.58908 0.817234 0
M  V30 21161 C 1924.23 -1.61724 3.21517 0
M  V30 21162 C 1923.84 -0.709534 4.42346 0
M  V30 21163 C 1925.58 -2.31943 3.55532 0
M  V30 21164 C 1923.49 -1.44622 5.73444 0
M  V30 21165 H 1922.42 -0.332741 0.676609 0
M  V30 21166 H 1925.07 -0.133924 1.83011 0
M  V30 21167 H 1923.45 -2.40928 3.14277 0
M  V30 21168 H 1924.63 0.0458591 4.60777 0
M  V30 21169 H 1922.94 -0.116776 4.16236 0
M  V30 21170 H 1925.54 -2.87662 4.50727 0
M  V30 21171 H 1925.88 -3.07495 2.80629 0
M  V30 21172 H 1926.42 -1.59678 3.64346 0
M  V30 21173 H 1923.16 -0.732937 6.51389 0
M  V30 21174 H 1922.68 -2.17483 5.58982 0
M  V30 21175 H 1924.35 -1.9925 6.15555 0
M  V30 21176 N 1924.49 -1.51463 -0.435524 0
M  V30 21177 C 1925.71 -1.68316 -1.21179 0
M  V30 21178 C 1926.14 -0.380709 -1.84207 0
M  V30 21179 O 1925.49 0.659318 -1.68887 0
M  V30 21180 C 1925.54 -2.80168 -2.27021 0
M  V30 21181 O 1924.65 -2.43897 -3.32548 0
M  V30 21182 H 1923.99 -0.561165 -0.35495 0
M  V30 21183 H 1926.52 -1.98036 -0.514097 0
M  V30 21184 H 1926.53 -3.04305 -2.71776 0
M  V30 21185 H 1925.2 -3.74678 -1.80524 0
M  V30 21186 H 1923.78 -2.30337 -2.93256 0
M  V30 21187 N 1925.96 0.691085 -1.4164 0
M  V30 21188 C 1926.87 1.83467 -1.46209 0
M  V30 21189 C 1927.89 1.70397 -0.352267 0
M  V30 21190 O 1929.07 1.92234 -0.60068 0
M  V30 21191 C 1926.13 3.19485 -1.34648 0
M  V30 21192 C 1925.19 3.44631 -2.55984 0
M  V30 21193 C 1924.43 4.7416 -2.44964 0
M  V30 21194 O 1924.65 5.50955 -1.47664 0
M  V30 21195 O 1923.58 5.0019 -3.34804 0
M  V30 21196 H 1927.41 1.82568 -2.42698 0
M  V30 21197 H 1924.99 0.844729 -1.23226 0
M  V30 21198 H 1926.88 4.00684 -1.30501 0
M  V30 21199 H 1925.55 3.21058 -0.41276 0
M  V30 21200 H 1924.46 2.63345 -2.65707 0
M  V30 21201 H 1925.79 3.47877 -3.48199 0
M  V30 21202 N 1927.44 1.27542 0.925789 0
M  V30 21203 C 1928.69 1.14161 1.67616 0
M  V30 21204 C 1929.02 -0.311471 1.91686 0
M  V30 21205 O 1928.3 -1.22766 1.5086 0
M  V30 21206 C 1928.58 1.92778 3.04152 0
M  V30 21207 C 1928.43 3.46081 2.87312 0
M  V30 21208 C 1929.75 1.73374 4.04511 0
M  V30 21209 H 1926.87 0.416091 0.608307 0
M  V30 21210 H 1929.51 1.56719 1.0742 0
M  V30 21211 H 1927.66 1.5661 3.55536 0
M  V30 21212 H 1929.33 3.92089 2.43031 0
M  V30 21213 H 1927.58 3.72324 2.22615 0
M  V30 21214 H 1928.25 3.96333 3.84219 0
M  V30 21215 H 1930.72 2.04914 3.62146 0
M  V30 21216 H 1929.6 2.30773 4.98031 0
M  V30 21217 H 1929.86 0.682154 4.36806 0
M  V30 21218 N 1928.92 -1.13255 1.09595 0
M  V30 21219 C 1929.85 -2.20827 0.758791 0
M  V30 21220 C 1930.83 -1.68034 -0.264325 0
M  V30 21221 O 1932.02 -1.93751 -0.132005 0
M  V30 21222 C 1929.15 -3.46831 0.180424 0
M  V30 21223 C 1928.1 -4.12724 1.13325 0
M  V30 21224 C 1927.43 -5.33075 0.416504 0
M  V30 21225 C 1928.73 -4.59862 2.47637 0
M  V30 21226 H 1930.42 -2.49287 1.65821 0
M  V30 21227 H 1927.97 -1.19818 0.798734 0
M  V30 21228 H 1929.92 -4.21346 -0.0675313 0
M  V30 21229 H 1928.64 -3.17773 -0.754194 0
M  V30 21230 H 1927.3 -3.40179 1.36651 0
M  V30 21231 H 1926.95 -5.00281 -0.522308 0
M  V30 21232 H 1926.65 -5.78109 1.05183 0
M  V30 21233 H 1928.17 -6.10344 0.17689 0
M  V30 21234 H 1929.59 -5.25791 2.28509 0
M  V30 21235 H 1927.99 -5.15642 3.06974 0
M  V30 21236 H 1929.06 -3.74294 3.08273 0
M  V30 21237 N 1930.4 -0.883401 -1.30514 0
M  V30 21238 C 1931.68 -0.421186 -1.91011 0
M  V30 21239 C 1932.06 1.09793 -1.80301 0
M  V30 21240 O 1931.4 1.93254 -1.21923 0
M  V30 21241 C 1931.61 -0.917533 -3.36723 0
M  V30 21242 C 1932.96 -0.951573 -4.138 0
M  V30 21243 O 1933.99 -0.86409 -3.4556 0
M  V30 21244 O 1932.84 -1.08053 -5.35711 0
M  V30 21245 H 1929.94 -0.128514 -0.816954 0
M  V30 21246 H 1932.48 -0.972198 -1.39091 0
M  V30 21247 H 1931.26 -1.96135 -3.38595 0
M  V30 21248 H 1930.88 -0.345595 -3.96095 0
M  V30 21249 N 1931.88 1.43833 -0.644194 0
M  V30 21250 C 1933.1 2.06784 -0.159719 0
M  V30 21251 C 1933.53 1.47913 1.16204 0
M  V30 21252 O 1932.88 0.585574 1.71583 0
M  V30 21253 C 1932.93 3.60527 -0.0724271 0
M  V30 21254 O 1932.04 4.0088 0.967917 0
M  V30 21255 H 1931.38 0.657771 -0.0907406 0
M  V30 21256 H 1933.91 1.8449 -0.884568 0
M  V30 21257 H 1933.92 4.07841 0.113872 0
M  V30 21258 H 1932.59 4.02755 -1.03736 0
M  V30 21259 H 1931.17 3.65174 0.755135 0
M  V30 21260 N 1933.35 0.385544 1.52811 0
M  V30 21261 C 1934.28 -0.442951 2.2926 0
M  V30 21262 C 1935.27 -1.06674 1.32494 0
M  V30 21263 O 1936.45 -1.08022 1.61384 0
M  V30 21264 C 1933.58 -1.57243 3.09664 0
M  V30 21265 C 1932.53 -1.07488 4.14283 0
M  V30 21266 C 1931.86 -2.29614 4.82889 0
M  V30 21267 C 1933.16 -0.145479 5.22097 0
M  V30 21268 H 1934.85 0.1949 2.98765 0
M  V30 21269 H 1932.4 0.0951762 1.43685 0
M  V30 21270 H 1934.35 -2.15882 3.61902 0
M  V30 21271 H 1933.08 -2.23781 2.37885 0
M  V30 21272 H 1931.74 -0.511047 3.6302 0
M  V30 21273 H 1931.38 -2.94653 4.07662 0
M  V30 21274 H 1931.08 -1.96985 5.53598 0
M  V30 21275 H 1932.61 -2.88902 5.37929 0
M  V30 21276 H 1934.02 -0.639941 5.69717 0
M  V30 21277 H 1932.42 0.0908687 6.00031 0
M  V30 21278 H 1933.49 0.806707 4.78142 0
M  V30 21279 N 1934.83 -1.57178 0.115259 0
M  V30 21280 C 1935.74 -2.18656 -0.850101 0
M  V30 21281 C 1936.76 -1.16164 -1.29545 0
M  V30 21282 O 1937.93 -1.48619 -1.35921 0
M  V30 21283 C 1935 -2.77089 -2.0838 0
M  V30 21284 C 1934.06 -3.94604 -1.69074 0
M  V30 21285 C 1933.29 -4.50242 -2.86563 0
M  V30 21286 O 1933.52 -4.04782 -4.0188 0
M  V30 21287 O 1932.45 -5.4098 -2.63864 0
M  V30 21288 H 1936.28 -3.01595 -0.356934 0
M  V30 21289 H 1933.86 -1.48993 -0.110158 0
M  V30 21290 H 1935.74 -3.14353 -2.80642 0
M  V30 21291 H 1934.42 -1.97184 -2.56711 0
M  V30 21292 H 1933.33 -3.62116 -0.939308 0
M  V30 21293 H 1934.66 -4.75934 -1.25489 0
M  V30 21294 N 1936.31 0.158505 -1.56801 0
M  V30 21295 C 1937.26 1.21526 -1.98328 0
M  V30 21296 C 1938.25 1.45117 -0.873926 0
M  V30 21297 O 1939.46 1.45545 -1.05908 0
M  V30 21298 H 1935.83 0.408803 -0.631177 0
M  V30 21299 H 1937.81 0.838242 -2.86384 0
M  V30 21300 C 1936.55 2.54396 -2.37019 0
M  V30 21301 H 1935.88 2.3707 -3.21928 0
M  V30 21302 H 1937.32 3.26994 -2.69909 0
M  V30 21303 C 1935.78 3.14095 -1.21845 0
M  V30 21304 O 1936.31 3.98411 -0.51298 0
M  V30 21305 N 1934.51 2.73373 -0.985675 0
M  V30 21306 H 1934.06 2.04907 -1.56112 0
M  V30 21307 H 1934.02 3.13651 -0.216926 0
M  V30 21308 N 1937.79 1.51692 0.427485 0
M  V30 21309 C 1938.72 1.76668 1.52679 0
M  V30 21310 C 1939.7 0.616865 1.58521 0
M  V30 21311 O 1940.89 0.860595 1.7409 0
M  V30 21312 C 1938.02 1.9007 2.90673 0
M  V30 21313 C 1936.97 3.05566 2.99689 0
M  V30 21314 C 1936.3 3.04165 4.39759 0
M  V30 21315 C 1937.6 4.45359 2.72861 0
M  V30 21316 H 1939.29 2.68717 1.32029 0
M  V30 21317 H 1936.84 1.29306 0.633716 0
M  V30 21318 H 1938.79 2.06125 3.67546 0
M  V30 21319 H 1937.51 0.946769 3.12576 0
M  V30 21320 H 1936.17 2.89231 2.25257 0
M  V30 21321 H 1935.82 2.0653 4.58644 0
M  V30 21322 H 1935.52 3.81727 4.46719 0
M  V30 21323 H 1937.04 3.22326 5.18592 0
M  V30 21324 H 1938.46 4.61993 3.39463 0
M  V30 21325 H 1936.85 5.24701 2.91219 0
M  V30 21326 H 1937.92 4.54717 1.68405 0
M  V30 21327 N 1939.27 -0.683564 1.42004 0
M  V30 21328 C 1940.2 -1.80812 1.39221 0
M  V30 21329 C 1941.18 -1.60545 0.25771 0
M  V30 21330 O 1942.36 -1.83135 0.446539 0
M  V30 21331 C 1939.49 -3.17679 1.17463 0
M  V30 21332 C 1938.54 -3.56713 2.33791 0
M  V30 21333 S 1939.37 -3.60144 3.96304 0
M  V30 21334 C 1940.52 -4.99718 3.76872 0
M  V30 21335 H 1940.76 -1.82897 2.34384 0
M  V30 21336 H 1938.29 -0.853409 1.28671 0
M  V30 21337 H 1940.25 -3.96686 1.05597 0
M  V30 21338 H 1938.91 -3.13189 0.239001 0
M  V30 21339 H 1938.1 -4.56174 2.14292 0
M  V30 21340 H 1937.7 -2.85045 2.42127 0
M  V30 21341 H 1940 -5.87555 3.37321 0
M  V30 21342 H 1940.94 -5.24261 4.75979 0
M  V30 21343 H 1941.35 -4.71823 3.09909 0
M  V30 21344 N 1940.75 -1.28031 -0.919012 0
M  V30 21345 C 1942.16 -1.05624 -1.19649 0
M  V30 21346 C 1942.36 0.204731 -2.00457 0
M  V30 21347 O 1941.42 0.907849 -2.35615 0
M  V30 21348 C 1942.73 -2.3007 -1.93619 0
M  V30 21349 C 1944.28 -2.35196 -2.06523 0
M  V30 21350 C 1944.75 -3.59395 -2.839 0
M  V30 21351 N 1946.24 -3.60004 -2.91464 0
M  V30 21352 C 1946.98 -4.52779 -3.51822 0
M  V30 21353 N 1946.48 -5.55868 -4.13501 0
M  V30 21354 N 1948.27 -4.40385 -3.4931 0
M  V30 21355 H 1940.42 -2.08985 -0.379372 0
M  V30 21356 H 1942.68 -0.919558 -0.230473 0
M  V30 21357 H 1942.39 -3.21907 -1.41665 0
M  V30 21358 H 1942.26 -2.36071 -2.94195 0
M  V30 21359 H 1944.65 -1.4386 -2.57659 0
M  V30 21360 H 1944.73 -2.33194 -1.0514 0
M  V30 21361 H 1944.37 -4.51072 -2.33445 0
M  V30 21362 H 1944.3 -3.58651 -3.85587 0
M  V30 21363 H 1946.8 -2.85455 -2.47637 0
M  V30 21364 H 1947.11 -6.22812 -4.57521 0
M  V30 21365 H 1945.45 -5.597 -4.12021 0
M  V30 21366 H 1948.64 -3.59053 -3.0033 0
M  V30 21367 H 1948.82 -5.12877 -3.96057 0
M  V30 21368 N 1942.22 1.12672 -1.10194 0
M  V30 21369 C 1943.17 2.16406 -0.717811 0
M  V30 21370 C 1944.16 1.58588 0.271775 0
M  V30 21371 O 1945.35 1.76815 0.0809013 0
M  V30 21372 C 1942.48 3.42979 -0.148524 0
M  V30 21373 C 1941.56 4.07785 -1.165 0
M  V30 21374 N 1941.96 4.47639 -2.35485 0
M  V30 21375 C 1940.25 4.3453 -1.00495 0
M  V30 21376 C 1940.95 4.98247 -3.00208 0
M  V30 21377 N 1939.93 4.93596 -2.27736 0
M  V30 21378 H 1943.73 2.44983 -1.62359 0
M  V30 21379 H 1941.25 1.29551 -0.979299 0
M  V30 21380 H 1943.24 4.16649 0.144731 0
M  V30 21381 H 1941.9 3.15872 0.752008 0
M  V30 21382 H 1942.91 4.40088 -2.73026 0
M  V30 21383 H 1939.59 4.17194 -0.159768 0
M  V30 21384 H 1940.98 5.38817 -4.01405 0
M  V30 21385 N 1943.7 0.89031 1.30043 0
M  V30 21386 C 1944.93 0.525833 2.00623 0
M  V30 21387 C 1945.35 -0.87971 1.66261 0
M  V30 21388 O 1944.71 -1.58394 0.882105 0
M  V30 21389 C 1944.76 0.714046 3.5346 0
M  V30 21390 O 1943.86 -0.237685 4.11714 0
M  V30 21391 H 1943.2 0.20656 0.631054 0
M  V30 21392 H 1945.73 1.19932 1.65763 0
M  V30 21393 H 1945.74 0.615086 4.03337 0
M  V30 21394 H 1944.42 1.73881 3.77807 0
M  V30 21395 H 1942.99 -0.0919722 3.72787 0
M  V30 21396 N 1945.18 -1.43489 0.651812 0
M  V30 21397 C 1946.09 -2.34564 -0.0413115 0
M  V30 21398 C 1947.11 -1.53803 -0.81368 0
M  V30 21399 O 1948.28 -1.86459 -0.761246 0
M  V30 21400 C 1945.35 -3.32063 -0.996745 0
M  V30 21401 C 1944.41 -4.28728 -0.221464 0
M  V30 21402 C 1943.64 -5.2157 -1.13139 0
M  V30 21403 O 1943.86 -5.18804 -2.37062 0
M  V30 21404 O 1942.8 -5.98856 -0.604552 0
M  V30 21405 H 1946.62 -2.95325 0.708295 0
M  V30 21406 H 1944.21 -1.43607 0.411999 0
M  V30 21407 H 1946.09 -3.92022 -1.54586 0
M  V30 21408 H 1944.77 -2.73807 -1.7266 0
M  V30 21409 H 1943.67 -3.72254 0.371205 0
M  V30 21410 H 1945.01 -4.89962 0.468797 0
M  V30 21411 N 1946.66 -0.393643 -1.52605 0
M  V30 21412 C 1947.93 0.244939 -1.9406 0
M  V30 21413 C 1948.31 1.63981 -1.32942 0
M  V30 21414 O 1947.66 2.2298 -0.499195 0
M  V30 21415 C 1947.87 0.266912 -3.47978 0
M  V30 21416 C 1949.22 0.493768 -4.21719 0
M  V30 21417 O 1950.24 0.346936 -3.54506 0
M  V30 21418 O 1949.1 0.78183 -5.40879 0
M  V30 21419 H 1946.2 0.153387 -0.812651 0
M  V30 21420 H 1948.74 -0.448465 -1.63667 0
M  V30 21421 H 1947.52 -0.709958 -3.84806 0
M  V30 21422 H 1947.14 1.00506 -3.84687 0
M  V30 21423 N 1948.14 1.57115 -0.123593 0
M  V30 21424 C 1949.08 2.16817 0.842196 0
M  V30 21425 C 1950.08 1.11865 1.27211 0
M  V30 21426 O 1951.28 1.3016 1.24331 0
M  V30 21427 H 1947.66 0.693949 0.289721 0
M  V30 21428 H 1949.63 2.96741 0.314221 0
M  V30 21429 C 1948.38 2.78577 2.08062 0
M  V30 21430 H 1947.7 3.59037 1.75876 0
M  V30 21431 H 1949.14 3.23884 2.73634 0
M  V30 21432 C 1947.6 1.75892 2.87339 0
M  V30 21433 O 1948.13 1.21508 3.82882 0
M  V30 21434 N 1946.34 1.45728 2.5142 0
M  V30 21435 H 1945.88 1.90143 1.73791 0
M  V30 21436 H 1945.84 0.772654 3.04758 0
M  V30 21437 N 1949.61 -0.150187 1.56883 0
M  V30 21438 C 1951.02 -0.710574 1.72649 0
M  V30 21439 C 1951.38 -1.81812 0.737493 0
M  V30 21440 O 1950.5 -2.16184 -0.0965795 0
M  V30 21441 C 1951.1 -1.29572 3.13044 0
M  V30 21442 C 1949.65 -1.80271 3.30423 0
M  V30 21443 C 1948.8 -0.689923 2.6858 0
M  V30 21444 H 1951.75 0.0754473 1.58521 0
M  V30 21445 H 1951.77 -2.16552 3.12867 0
M  V30 21446 H 1951.29 -0.489412 3.85002 0
M  V30 21447 H 1949.39 -2.63479 2.63457 0
M  V30 21448 H 1949.5 -1.93362 4.38347 0
M  V30 21449 H 1947.86 -1.11574 2.28961 0
M  V30 21450 H 1948.65 0.104892 3.4314 0
M  V30 21451 N 1951.09 -1.51916 -0.419434 0
M  V30 21452 C 1952.04 -1.75117 -1.5309 0
M  V30 21453 C 1953.03 -0.617961 -1.57726 0
M  V30 21454 O 1954.24 -0.79977 -1.61257 0
M  V30 21455 H 1950.62 -0.553609 -0.508941 0
M  V30 21456 H 1952.59 -2.68253 -1.30702 0
M  V30 21457 C 1951.34 -1.90958 -2.90569 0
M  V30 21458 H 1950.66 -2.77571 -2.8774 0
M  V30 21459 H 1952.1 -2.11196 -3.67658 0
M  V30 21460 C 1950.56 -0.673977 -3.3009 0
M  V30 21461 O 1951.09 0.163 -4.01369 0
M  V30 21462 N 1949.29 -0.512857 -2.86039 0
M  V30 21463 H 1948.84 -1.19505 -2.28202 0
M  V30 21464 H 1948.8 0.312589 -3.12842 0
M  V30 21465 N 1952.57 0.676023 -1.42365 0
M  V30 21466 C 1953.5 1.80154 -1.41695 0
M  V30 21467 C 1954.52 1.597 -0.316199 0
M  V30 21468 O 1955.7 1.68841 -0.579207 0
M  V30 21469 C 1952.8 3.17239 -1.19217 0
M  V30 21470 C 1951.98 3.64553 -2.41703 0
M  V30 21471 C 1951.04 4.80367 -2.14788 0
M  V30 21472 O 1950.06 4.90975 -2.87979 0
M  V30 21473 N 1951.26 5.6899 -1.15025 0
M  V30 21474 H 1954.03 1.81214 -2.38708 0
M  V30 21475 H 1951.59 0.859069 -1.37228 0
M  V30 21476 H 1953.58 3.92371 -0.991311 0
M  V30 21477 H 1952.15 3.11086 -0.307313 0
M  V30 21478 H 1951.37 2.80112 -2.77364 0
M  V30 21479 H 1952.66 3.92906 -3.23268 0
M  V30 21480 H 1952.06 5.6307 -0.544872 0
M  V30 21481 H 1950.62 6.43939 -1.00926 0
M  V30 21482 N 1954.05 1.28517 0.912209 0
M  V30 21483 C 1955.3 1.15138 1.65609 0
M  V30 21484 C 1955.61 -0.299022 1.93301 0
M  V30 21485 O 1956.82 -0.55395 2.65789 0
M  V30 21486 C 1955.27 2.01287 2.98348 0
M  V30 21487 C 1954.88 3.51076 2.78297 0
M  V30 21488 C 1956.62 1.96599 3.7623 0
M  V30 21489 C 1954.53 4.29371 4.06687 0
M  V30 21490 H 1953.46 0.42731 0.621226 0
M  V30 21491 H 1956.11 1.5306 1.01217 0
M  V30 21492 H 1954.49 1.56222 3.63883 0
M  V30 21493 H 1955.67 4.04109 2.21434 0
M  V30 21494 H 1953.98 3.57306 2.13826 0
M  V30 21495 H 1956.58 2.52362 4.71399 0
M  V30 21496 H 1956.92 0.943087 4.05477 0
M  V30 21497 H 1957.46 2.39641 3.17517 0
M  V30 21498 H 1954.2 5.32248 3.82612 0
M  V30 21499 H 1953.72 3.81112 4.63156 0
M  V30 21500 H 1955.39 4.39372 4.74933 0
M  V30 21501 N 1955.53 -1.12086 1.1079 0
M  V30 21502 C 1956.94 -1.35679 0.840432 0
M  V30 21503 C 1957.14 -1.94177 -0.538279 0
M  V30 21504 O 1956.2 -2.17035 -1.29043 0
M  V30 21505 C 1957.51 -2.29487 1.94309 0
M  V30 21506 C 1959.06 -2.43069 1.97197 0
M  V30 21507 C 1959.53 -3.40194 3.06646 0
M  V30 21508 N 1961.03 -3.47753 3.05977 0
M  V30 21509 C 1961.76 -4.22826 3.87305 0
M  V30 21510 N 1961.26 -5.00933 4.78579 0
M  V30 21511 N 1963.05 -4.1827 3.75509 0
M  V30 21512 H 1955.2 -0.724754 1.99652 0
M  V30 21513 H 1957.46 -0.381544 0.86783 0
M  V30 21514 H 1957.17 -1.93685 2.93563 0
M  V30 21515 H 1957.04 -3.29644 1.83343 0
M  V30 21516 H 1959.43 -2.7815 0.985735 0
M  V30 21517 H 1959.51 -1.42788 2.12239 0
M  V30 21518 H 1959.16 -3.05842 4.05491 0
M  V30 21519 H 1959.09 -4.40314 2.88845 0
M  V30 21520 H 1961.58 -2.92035 2.39841 0
M  V30 21521 H 1961.89 -5.55565 5.37185 0
M  V30 21522 H 1960.23 -5.00117 4.82605 0
M  V30 21523 H 1963.43 -3.56334 3.03551 0
M  V30 21524 H 1963.6 -4.76521 4.39126 0
M  V30 21525 N 1957 -0.897194 -1.29569 0
M  V30 21526 C 1958.25 -0.517823 -1.9494 0
M  V30 21527 C 1958.57 0.940096 -1.71527 0
M  V30 21528 O 1959.77 1.42687 -2.30982 0
M  V30 21529 C 1958.23 -0.875183 -3.49097 0
M  V30 21530 C 1957.84 -2.3517 -3.81312 0
M  V30 21531 C 1959.58 -0.565601 -4.20715 0
M  V30 21532 C 1957.49 -2.65005 -5.28702 0
M  V30 21533 H 1956.42 -0.189928 -0.729687 0
M  V30 21534 H 1959.07 -1.09385 -1.47334 0
M  V30 21535 H 1957.45 -0.228115 -3.95342 0
M  V30 21536 H 1958.62 -3.04411 -3.45934 0
M  V30 21537 H 1956.94 -2.63005 -3.22827 0
M  V30 21538 H 1959.54 -0.765387 -5.29194 0
M  V30 21539 H 1959.88 0.49573 -4.13338 0
M  V30 21540 H 1960.41 -1.1704 -3.80193 0
M  V30 21541 H 1957.15 -3.69927 -5.41142 0
M  V30 21542 H 1956.67 -2.00386 -5.65337 0
M  V30 21543 H 1958.35 -2.51141 -5.96269 0
M  V30 21544 N 1958.48 1.43142 -0.659413 0
M  V30 21545 C 1959.41 2.33495 0.0147266 0
M  V30 21546 C 1960.39 1.49819 0.805493 0
M  V30 21547 O 1961.58 1.78466 0.765732 0
M  V30 21548 C 1958.71 3.33261 0.977483 0
M  V30 21549 C 1957.66 4.26972 0.296396 0
M  V30 21550 C 1956.99 5.16824 1.37103 0
M  V30 21551 C 1958.29 5.15901 -0.815063 0
M  V30 21552 H 1959.98 2.90115 -0.739837 0
M  V30 21553 H 1957.53 1.39499 -0.357229 0
M  V30 21554 H 1959.48 3.95372 1.45805 0
M  V30 21555 H 1958.21 2.74911 1.76328 0
M  V30 21556 H 1956.86 3.66234 -0.16379 0
M  V30 21557 H 1956.51 4.5481 2.14842 0
M  V30 21558 H 1956.21 5.80345 0.920528 0
M  V30 21559 H 1957.74 5.81809 1.85284 0
M  V30 21560 H 1959.15 5.71786 -0.416382 0
M  V30 21561 H 1957.55 5.88175 -1.19041 0
M  V30 21562 H 1958.62 4.5522 -1.67042 0
M  V30 21563 N 1959.96 0.40173 1.52394 0
M  V30 21564 C 1960.92 -0.41541 2.25404 0
M  V30 21565 C 1961.92 -0.979848 1.27498 0
M  V30 21566 O 1963.11 -0.859891 1.51498 0
M  V30 21567 C 1960.25 -1.58403 3.01863 0
M  V30 21568 H 1961.44 0.223965 2.99063 0
M  V30 21569 H 1958.99 0.154095 1.55539 0
M  V30 21570 H 1959.73 -2.26048 2.32536 0
M  V30 21571 H 1959.51 -1.18586 3.73737 0
M  V30 21572 H 1961 -2.16224 3.57263 0
M  V30 21573 N 1961.44 -1.57047 0.131923 0
M  V30 21574 C 1962.37 -2.13088 -0.844174 0
M  V30 21575 C 1963.38 -1.07666 -1.22114 0
M  V30 21576 O 1964.57 -1.34995 -1.16784 0
M  V30 21577 C 1961.67 -2.62623 -2.14201 0
M  V30 21578 C 1960.85 -3.92283 -1.93475 0
M  V30 21579 C 1959.9 -4.27284 -3.07107 0
M  V30 21580 O 1958.93 -4.95876 -2.79456 0
M  V30 21581 N 1960.13 -3.85646 -4.33887 0
M  V30 21582 H 1962.9 -2.97465 -0.365306 0
M  V30 21583 H 1960.46 -1.61816 -0.0521136 0
M  V30 21584 H 1962.45 -2.8306 -2.89239 0
M  V30 21585 H 1961.02 -1.83054 -2.53397 0
M  V30 21586 H 1960.24 -3.80625 -1.02558 0
M  V30 21587 H 1961.53 -4.7704 -1.76947 0
M  V30 21588 H 1960.93 -3.30348 -4.59224 0
M  V30 21589 H 1959.48 -4.11165 -5.05754 0
M  V30 21590 N 1962.92 0.141865 -1.5696 0
M  V30 21591 C 1964.14 0.868403 -1.87793 0
M  V30 21592 C 1964.56 1.74504 -0.720691 0
M  V30 21593 O 1963.92 1.79859 0.309372 0
M  V30 21594 C 1963.97 1.72086 -3.17913 0
M  V30 21595 O 1963.69 0.879548 -4.2918 0
M  V30 21596 C 1965.19 2.55454 -3.62296 0
M  V30 21597 H 1962.41 0.250842 -0.62235 0
M  V30 21598 H 1964.95 0.133113 -2.04066 0
M  V30 21599 H 1963.11 2.40915 -3.03379 0
M  V30 21600 H 1963.52 1.4653 -5.03616 0
M  V30 21601 H 1965 3.10834 -4.56165 0
M  V30 21602 H 1965.47 3.31735 -2.87834 0
M  V30 21603 H 1966.08 1.91906 -3.79542 0
M  V30 21604 N 1964.39 1.52136 0.411372 0
M  V30 21605 C 1965.32 1.78277 1.50796 0
M  V30 21606 C 1966.31 0.633643 1.57857 0
M  V30 21607 O 1967.49 0.879011 1.73168 0
M  V30 21608 C 1964.62 1.93142 2.88641 0
M  V30 21609 C 1963.57 3.08727 2.96431 0
M  V30 21610 C 1962.9 3.08812 4.36508 0
M  V30 21611 C 1964.2 4.48228 2.68122 0
M  V30 21612 H 1965.89 2.70102 1.29171 0
M  V30 21613 H 1963.44 1.29971 0.619965 0
M  V30 21614 H 1965.39 2.10012 3.65339 0
M  V30 21615 H 1964.12 0.979869 3.11554 0
M  V30 21616 H 1962.78 2.91604 2.22177 0
M  V30 21617 H 1962.42 2.11383 4.56428 0
M  V30 21618 H 1962.12 3.86444 4.42645 0
M  V30 21619 H 1963.65 3.27809 5.15144 0
M  V30 21620 H 1965.06 4.65568 3.34544 0
M  V30 21621 H 1963.46 5.27761 2.85638 0
M  V30 21622 H 1964.53 4.56478 1.63572 0
M  V30 21623 N 1965.87 -0.668464 1.42721 0
M  V30 21624 C 1967.1 -1.45659 1.46939 0
M  V30 21625 C 1967.52 -1.88619 0.0826133 0
M  V30 21626 O 1966.87 -1.58537 -0.904 0
M  V30 21627 C 1966.92 -2.70158 2.40202 0
M  V30 21628 O 1966.65 -2.28999 3.73485 0
M  V30 21629 C 1968.15 -3.63662 2.53505 0
M  V30 21630 H 1965.37 -0.447982 0.499553 0
M  V30 21631 H 1967.91 -0.820826 1.87304 0
M  V30 21632 H 1966.07 -3.29909 2.03074 0
M  V30 21633 H 1966.48 -3.09441 4.23493 0
M  V30 21634 H 1967.95 -4.47726 3.22871 0
M  V30 21635 H 1968.43 -4.09989 1.57498 0
M  V30 21636 H 1969.04 -3.09801 2.91382 0
M  V30 21637 N 1967.35 -1.28999 -0.905381 0
M  V30 21638 C 1968.63 -1.07329 -1.63523 0
M  V30 21639 C 1969.01 0.384519 -2.07568 0
M  V30 21640 O 1968.36 1.37223 -1.82708 0
M  V30 21641 C 1968.57 -2.05563 -2.82037 0
M  V30 21642 C 1969.91 -2.3617 -3.52858 0
M  V30 21643 O 1970.94 -2.03713 -2.92198 0
M  V30 21644 O 1969.8 -2.91601 -4.62202 0
M  V30 21645 H 1966.89 -0.410796 -0.717757 0
M  V30 21646 H 1969.44 -1.40349 -0.953949 0
M  V30 21647 H 1968.21 -3.03779 -2.46645 0
M  V30 21648 H 1967.83 -1.73238 -3.57875 0
M  V30 21649 N 1968.83 1.11497 -1.11383 0
M  V30 21650 C 1970.08 1.8286 -0.860611 0
M  V30 21651 C 1970.4 1.85032 0.615471 0
M  V30 21652 O 1969.67 1.32047 1.44708 0
M  V30 21653 H 1968.25 0.677153 -0.315392 0
M  V30 21654 H 1970.91 1.34963 -1.40609 0
M  V30 21655 H 1970.01 2.86743 -1.23227 0
M  V30 21656 N 1970.31 0.904053 1.29092 0
M  V30 21657 C 1971.56 0.531152 1.94995 0
M  V30 21658 C 1971.88 -0.926415 1.71588 0
M  V30 21659 O 1971.15 -1.65378 1.0501 0
M  V30 21660 H 1969.73 0.193439 0.721519 0
M  V30 21661 H 1972.39 1.1513 1.57262 0
M  V30 21662 H 1971.48 0.717412 3.03743 0
M  V30 21663 N 1971.79 -1.4279 0.666995 0
M  V30 21664 C 1973.03 -2.01942 0.186305 0
M  V30 21665 C 1973.36 -1.52579 -1.20139 0
M  V30 21666 O 1972.64 -0.724677 -1.80496 0
M  V30 21667 C 1972.92 -3.59474 0.212322 0
M  V30 21668 C 1972.78 -4.19035 1.63491 0
M  V30 21669 C 1974.09 -4.37857 -0.443762 0
M  V30 21670 H 1971.21 -0.733747 0.0691733 0
M  V30 21671 H 1973.86 -1.69912 0.850298 0
M  V30 21672 H 1972.01 -3.86892 -0.353062 0
M  V30 21673 H 1973.68 -4.02598 2.25195 0
M  V30 21674 H 1971.92 -3.75161 2.178 0
M  V30 21675 H 1972.59 -5.28155 1.60486 0
M  V30 21676 H 1975.07 -4.16083 0.0374331 0
M  V30 21677 H 1973.94 -5.47478 -0.394887 0
M  V30 21678 H 1974.2 -4.15144 -1.52012 0
M  V30 21679 N 1973.26 -0.409806 -1.52179 0
M  V30 21680 C 1974.2 0.459953 -2.23517 0
M  V30 21681 C 1975.17 1.04743 -1.24369 0
M  V30 21682 O 1976.36 1.09517 -1.53422 0
M  V30 21683 C 1973.49 1.6385 -2.9643 0
M  V30 21684 C 1972.53 1.17434 -4.10014 0
M  V30 21685 S 1973.36 0.138933 -5.3532 0
M  V30 21686 C 1974.52 1.32279 -6.11762 0
M  V30 21687 H 1974.75 -0.145775 -2.96942 0
M  V30 21688 H 1972.29 -0.19411 -1.53175 0
M  V30 21689 H 1974.24 2.31429 -3.39044 0
M  V30 21690 H 1972.91 2.21557 -2.22646 0
M  V30 21691 H 1972.1 2.05487 -4.60208 0
M  V30 21692 H 1971.7 0.577187 -3.69519 0
M  V30 21693 H 1973.99 2.24626 -6.39179 0
M  V30 21694 H 1974.94 0.861371 -7.02841 0
M  V30 21695 H 1975.34 1.54889 -5.42835 0
M  V30 21696 N 1974.74 1.56975 -0.14025 0
M  V30 21697 C 1976.02 1.87494 0.557244 0
M  V30 21698 C 1976.4 1.04507 1.83416 0
M  V30 21699 O 1975.75 0.129958 2.2813 0
M  V30 21700 C 1975.96 3.39006 0.829213 0
M  V30 21701 C 1977.3 4.08077 1.17296 0
M  V30 21702 O 1978.33 3.44146 0.918788 0
M  V30 21703 O 1977.19 5.20966 1.65096 0
M  V30 21704 H 1974.28 0.776892 0.283492 0
M  V30 21705 H 1976.83 1.68781 -0.176354 0
M  V30 21706 H 1975.6 3.91229 -0.0747688 0
M  V30 21707 H 1975.22 3.63224 1.61723 0
M  V30 21708 N 1976.22 -0.133539 1.57033 0
M  V30 21709 C 1977.13 -1.18362 2.02553 0
M  V30 21710 C 1978.15 -1.46212 0.943294 0
M  V30 21711 O 1979.32 -1.57616 1.25376 0
M  V30 21712 C 1976.39 -2.49391 2.40842 0
M  V30 21713 C 1975.45 -2.29068 3.63079 0
M  V30 21714 C 1974.68 -3.53849 3.99533 0
M  V30 21715 O 1974.9 -4.60576 3.36491 0
M  V30 21716 O 1973.84 -3.45713 4.92713 0
M  V30 21717 H 1977.66 -0.827128 2.9222 0
M  V30 21718 H 1975.25 -0.343267 1.45403 0
M  V30 21719 H 1977.13 -3.26617 2.66269 0
M  V30 21720 H 1975.81 -2.84544 1.54326 0
M  V30 21721 H 1974.71 -1.49749 3.42821 0
M  V30 21722 H 1976.05 -1.98826 4.50254 0
M  V30 21723 N 1977.7 -1.52352 -0.403298 0
M  V30 21724 C 1978.63 -1.79074 -1.49849 0
M  V30 21725 C 1979.61 -0.642006 -1.57519 0
M  V30 21726 O 1980.79 -0.888182 -1.72699 0
M  V30 21727 C 1977.92 -1.9467 -2.87612 0
M  V30 21728 C 1976.88 -3.10295 -2.9479 0
M  V30 21729 C 1976.2 -3.11122 -4.34864 0
M  V30 21730 C 1977.5 -4.49643 -2.65741 0
M  V30 21731 H 1979.2 -2.70783 -1.27737 0
M  V30 21732 H 1976.74 -1.30298 -0.613064 0
M  V30 21733 H 1978.7 -2.11947 -3.64221 0
M  V30 21734 H 1977.42 -0.996377 -3.1103 0
M  V30 21735 H 1976.08 -2.92778 -2.20627 0
M  V30 21736 H 1975.73 -2.13801 -4.553 0
M  V30 21737 H 1975.43 -3.88786 -4.4059 0
M  V30 21738 H 1976.95 -3.30536 -5.13399 0
M  V30 21739 H 1978.37 -4.67335 -3.3207 0
M  V30 21740 H 1976.76 -5.29268 -2.82835 0
M  V30 21741 H 1977.83 -4.57339 -1.61149 0
M  V30 21742 N 1979.18 0.660885 -1.43074 0
M  V30 21743 C 1980.42 1.41668 -1.43572 0
M  V30 21744 C 1980.74 1.95506 -0.0607715 0
M  V30 21745 O 1981.94 2.71441 0.0568092 0
M  V30 21746 C 1980.4 2.56345 -2.52617 0
M  V30 21747 C 1980.01 2.09147 -3.96183 0
M  V30 21748 C 1981.75 3.33765 -2.623 0
M  V30 21749 C 1979.66 3.20989 -4.96709 0
M  V30 21750 H 1978.59 0.532264 -0.534051 0
M  V30 21751 H 1981.24 0.714113 -1.69035 0
M  V30 21752 H 1979.62 3.29036 -2.20343 0
M  V30 21753 H 1980.8 1.43518 -4.3788 0
M  V30 21754 H 1979.11 1.44628 -3.90476 0
M  V30 21755 H 1981.71 4.17085 -3.34581 0
M  V30 21756 H 1982.05 3.81285 -1.67114 0
M  V30 21757 H 1982.58 2.6815 -2.93837 0
M  V30 21758 H 1979.32 2.78445 -5.93421 0
M  V30 21759 H 1978.84 3.85356 -4.59631 0
M  V30 21760 H 1980.52 3.86241 -5.19063 0
M  V30 21761 N 1980.65 1.29477 0.898527 0
M  V30 21762 C 1981.6 1.1459 2.02415 0
M  V30 21763 C 1982.6 0.0611919 1.69289 0
M  V30 21764 O 1983.8 0.221075 1.78637 0
M  V30 21765 H 1980.18 0.353997 0.663468 0
M  V30 21766 H 1982.15 2.09886 2.12109 0
M  V30 21767 C 1980.9 0.840435 3.3739 0
M  V30 21768 H 1980.22 1.66712 3.63383 0
M  V30 21769 H 1981.66 0.77631 4.16833 0
M  V30 21770 C 1980.12 -0.456337 3.33795 0
M  V30 21771 O 1980.65 -1.48204 3.73361 0
M  V30 21772 N 1978.86 -0.462604 2.86894 0
M  V30 21773 H 1978.4 0.372545 2.54892 0
M  V30 21774 H 1978.36 -1.33024 2.84872 0
M  V30 21775 N 1982.13 -1.10905 1.11972 0
M  V30 21776 C 1983.04 -2.20682 0.796029 0
M  V30 21777 C 1984.06 -1.72689 -0.213158 0
M  V30 21778 O 1985.23 -2.01343 -0.047955 0
M  V30 21779 C 1982.3 -3.45797 0.250055 0
M  V30 21780 C 1981.36 -4.08549 1.31855 0
M  V30 21781 C 1980.59 -5.27692 0.798538 0
M  V30 21782 O 1980.82 -5.69202 -0.369435 0
M  V30 21783 O 1979.75 -5.81174 1.5659 0
M  V30 21784 H 1983.58 -2.50794 1.71278 0
M  V30 21785 H 1981.16 -1.19548 0.896024 0
M  V30 21786 H 1983.04 -4.21371 -0.0497791 0
M  V30 21787 H 1981.72 -3.17324 -0.639327 0
M  V30 21788 H 1980.63 -3.34682 1.67148 0
M  V30 21789 H 1981.96 -4.41215 2.18153 0
M  V30 21790 N 1983.61 -0.910886 -1.2861 0
M  V30 21791 C 1984.52 -0.402088 -2.31129 0
M  V30 21792 C 1985.54 0.508811 -1.66394 0
M  V30 21793 O 1986.71 0.395691 -1.97475 0
M  V30 21794 C 1983.78 0.352182 -3.44907 0
M  V30 21795 C 1982.84 -0.59159 -4.25204 0
M  V30 21796 C 1982.07 0.126778 -5.33549 0
M  V30 21797 O 1982.29 1.34897 -5.54219 0
M  V30 21798 O 1981.23 -0.536442 -5.99505 0
M  V30 21799 H 1985.05 -1.25289 -2.76652 0
M  V30 21800 H 1982.64 -0.675604 -1.33251 0
M  V30 21801 H 1984.52 0.778285 -4.14151 0
M  V30 21802 H 1983.2 1.17886 -3.01471 0
M  V30 21803 H 1982.1 -1.06703 -3.5856 0
M  V30 21804 H 1983.44 -1.38501 -4.72312 0
M  V30 21805 N 1985.09 1.42434 -0.674558 0
M  V30 21806 C 1986.02 2.33498 -0.0100395 0
M  V30 21807 C 1987 1.50665 0.789558 0
M  V30 21808 O 1988.18 1.79268 0.74676 0
M  V30 21809 C 1985.31 3.34279 0.942081 0
M  V30 21810 C 1984.27 4.27263 0.251094 0
M  V30 21811 C 1983.59 5.18249 1.31614 0
M  V30 21812 C 1984.89 5.15008 -0.869735 0
M  V30 21813 H 1986.59 2.89314 -0.770566 0
M  V30 21814 H 1984.13 1.39112 -0.372004 0
M  V30 21815 H 1986.09 3.96896 1.41604 0
M  V30 21816 H 1984.81 2.76765 1.73403 0
M  V30 21817 H 1983.47 3.6604 -0.202625 0
M  V30 21818 H 1983.12 4.57063 2.10006 0
M  V30 21819 H 1982.82 5.81288 0.858923 0
M  V30 21820 H 1984.34 5.83742 1.79103 0
M  V30 21821 H 1985.76 5.71312 -0.477004 0
M  V30 21822 H 1984.15 5.86879 -1.25273 0
M  V30 21823 H 1985.22 4.53422 -1.71861 0
M  V30 21824 N 1986.57 0.417871 1.51959 0
M  V30 21825 C 1987.48 -0.409946 2.3099 0
M  V30 21826 C 1988.49 -1.04559 1.39081 0
M  V30 21827 O 1989.67 -1.0452 1.72155 0
M  V30 21828 C 1986.73 -1.50691 3.12239 0
M  V30 21829 C 1985.79 -0.893424 4.199 0
M  V30 21830 C 1985.03 -1.93812 4.97265 0
M  V30 21831 O 1985.25 -3.15756 4.75031 0
M  V30 21832 O 1984.18 -1.53948 5.81879 0
M  V30 21833 H 1988.01 0.234696 3.02792 0
M  V30 21834 H 1985.6 0.180861 1.48301 0
M  V30 21835 H 1987.48 -2.14355 3.62808 0
M  V30 21836 H 1986.15 -2.136 2.43222 0
M  V30 21837 H 1985.06 -0.219262 3.73457 0
M  V30 21838 H 1986.39 -0.308133 4.91235 0
M  V30 21839 N 1988.04 -1.56898 0.148573 0
M  V30 21840 C 1989.27 -2.0054 -0.509047 0
M  V30 21841 C 1989.69 -1.02867 -1.58315 0
M  V30 21842 O 1989.04 -0.0259297 -1.82482 0
M  V30 21843 C 1989.1 -3.44093 -1.10825 0
M  V30 21844 O 1988.82 -4.38032 -0.077048 0
M  V30 21845 C 1990.32 -4.03021 -1.84633 0
M  V30 21846 H 1987.54 -0.657812 -0.132378 0
M  V30 21847 H 1990.08 -2.03044 0.243618 0
M  V30 21848 H 1988.24 -3.42436 -1.81153 0
M  V30 21849 H 1988.65 -5.21953 -0.516256 0
M  V30 21850 H 1990.12 -5.05458 -2.21847 0
M  V30 21851 H 1990.6 -3.43821 -2.73283 0
M  V30 21852 H 1991.21 -4.08313 -1.19 0
M  V30 21853 N 1989.52 0.125209 -1.57102 0
M  V30 21854 C 1990.77 0.834085 -1.84524 0
M  V30 21855 C 1991.1 1.8017 -0.732742 0
M  V30 21856 O 1990.35 1.93738 0.276448 0
M  V30 21857 C 1990.65 1.62349 -3.18398 0
M  V30 21858 C 1990.32 0.800729 -4.43733 0
M  V30 21859 C 1988.98 0.573817 -4.77766 0
M  V30 21860 C 1991.33 0.226814 -5.20706 0
M  V30 21861 C 1988.66 -0.237364 -5.8622 0
M  V30 21862 C 1991.01 -0.571524 -6.30013 0
M  V30 21863 C 1989.68 -0.80881 -6.62582 0
M  V30 21864 H 1988.95 0.305213 -0.675223 0
M  V30 21865 H 1991.59 0.0967265 -1.91256 0
M  V30 21866 H 1989.9 2.43158 -3.07215 0
M  V30 21867 H 1991.59 2.17583 -3.36836 0
M  V30 21868 H 1988.18 0.987673 -4.17065 0
M  V30 21869 H 1992.37 0.389351 -4.9477 0
M  V30 21870 H 1987.62 -0.430488 -6.09883 0
M  V30 21871 H 1991.8 -1.02325 -6.88841 0
M  V30 21872 H 1989.43 -1.4392 -7.46452 0
M  V30 21873 N 1991 1.52564 0.395213 0
M  V30 21874 C 1991.95 1.77531 1.50285 0
M  V30 21875 C 1992.94 0.642976 1.56723 0
M  V30 21876 O 1994.15 0.825323 1.59964 0
M  V30 21877 H 1990.52 0.561636 0.500069 0
M  V30 21878 H 1992.49 2.70298 1.26418 0
M  V30 21879 C 1991.24 1.95557 2.87494 0
M  V30 21880 H 1990.57 2.82114 2.83288 0
M  V30 21881 H 1992.01 2.17019 3.64251 0
M  V30 21882 C 1990.47 0.726406 3.28976 0
M  V30 21883 O 1991 -0.0991246 4.01578 0
M  V30 21884 N 1989.2 0.558299 2.85187 0
M  V30 21885 H 1988.75 1.2312 2.26272 0
M  V30 21886 H 1988.71 -0.262779 3.133 0
M  V30 21887 N 1992.48 -0.653289 1.43422 0
M  V30 21888 C 1993.7 -1.4459 1.4869 0
M  V30 21889 C 1994.13 -1.87801 0.10599 0
M  V30 21890 O 1993.49 -1.5737 -0.90025 0
M  V30 21891 C 1993.53 -2.65713 2.43781 0
M  V30 21892 O 1992.64 -3.64767 1.92402 0
M  V30 21893 H 1991.98 -0.433532 0.502938 0
M  V30 21894 H 1994.51 -0.799423 1.88336 0
M  V30 21895 H 1994.52 -3.13528 2.61082 0
M  V30 21896 H 1993.19 -2.33604 3.44096 0
M  V30 21897 H 1991.77 -3.2391 1.84761 0
M  V30 21898 N 1993.96 -1.29952 -0.891648 0
M  V30 21899 C 1995.37 -1.08138 -1.17381 0
M  V30 21900 C 1995.57 0.162165 -2.00846 0
M  V30 21901 O 1994.63 0.857667 -2.37488 0
M  V30 21902 C 1995.94 -2.34125 -1.88695 0
M  V30 21903 C 1997.49 -2.39524 -2.01487 0
M  V30 21904 C 1997.96 -3.65336 -2.76213 0
M  V30 21905 N 1999.46 -3.66105 -2.83762 0
M  V30 21906 C 2000.19 -4.6014 -3.42139 0
M  V30 21907 N 1999.69 -5.64513 -4.01617 0
M  V30 21908 N 2001.48 -4.47695 -3.3989 0
M  V30 21909 H 1993.63 -2.09742 -0.334958 0
M  V30 21910 H 1995.89 -0.924239 -0.210916 0
M  V30 21911 H 1995.6 -3.24839 -1.34805 0
M  V30 21912 H 1995.47 -2.42258 -2.89121 0
M  V30 21913 H 1997.86 -1.49293 -2.5455 0
M  V30 21914 H 1997.94 -2.35371 -1.0017 0
M  V30 21915 H 1997.59 -4.55922 -2.23824 0
M  V30 21916 H 1997.52 -3.66749 -3.77893 0
M  V30 21917 H 2000.01 -2.90643 -2.41526 0
M  V30 21918 H 2000.32 -6.32376 -4.44207 0
M  V30 21919 H 1998.66 -5.68313 -4.00056 0
M  V30 21920 H 2001.86 -3.65343 -2.92647 0
M  V30 21921 H 2002.03 -5.21162 -3.85089 0
M  V30 21922 N 1995.44 1.1031 -1.12559 0
M  V30 21923 C 1996.68 1.82752 -0.892935 0
M  V30 21924 C 1997.04 1.83606 0.575029 0
M  V30 21925 O 1996.33 1.28667 1.41969 0
M  V30 21926 C 1996.52 3.28699 -1.40326 0
M  V30 21927 C 1996.35 3.42062 -2.91931 0
M  V30 21928 C 1995.12 3.54398 -3.60181 0
M  V30 21929 C 1997.32 3.35357 -3.89923 0
M  V30 21930 N 1995.3 3.56351 -4.99887 0
M  V30 21931 C 1996.67 3.44071 -5.15767 0
M  V30 21932 C 1998.73 3.18965 -3.82316 0
M  V30 21933 C 1997.43 3.38081 -6.34897 0
M  V30 21934 C 1999.46 3.14297 -5.0097 0
M  V30 21935 C 1998.82 3.23593 -6.25673 0
M  V30 21936 H 1994.92 0.683442 -0.38004 0
M  V30 21937 H 1997.5 1.31902 -1.43213 0
M  V30 21938 H 1995.67 3.7804 -0.891099 0
M  V30 21939 H 1997.41 3.89108 -1.11254 0
M  V30 21940 H 1994.16 3.5746 -3.10676 0
M  V30 21941 H 1994.58 3.60935 -5.72761 0
M  V30 21942 H 1999.23 3.10655 -2.86799 0
M  V30 21943 H 1996.94 3.45156 -7.3068 0
M  V30 21944 H 2000.53 3.02762 -4.96816 0
M  V30 21945 H 1999.41 3.19985 -7.15946 0
M  V30 21946 N 1996.91 0.917694 1.28125 0
M  V30 21947 C 1998.33 0.616431 1.47215 0
M  V30 21948 C 1998.53 -0.837161 1.83286 0
M  V30 21949 O 1997.59 -1.61591 1.94022 0
M  V30 21950 C 1998.9 1.55772 2.57207 0
M  V30 21951 C 2000.45 1.56486 2.71074 0
M  V30 21952 C 2000.92 2.49286 3.84214 0
M  V30 21953 N 2002.41 2.47436 3.91573 0
M  V30 21954 C 2003.15 3.15936 4.7851 0
M  V30 21955 N 2002.64 3.9378 5.70008 0
M  V30 21956 N 2004.44 3.05004 4.72154 0
M  V30 21957 H 1996.59 1.85758 1.02993 0
M  V30 21958 H 1998.85 0.796969 0.513366 0
M  V30 21959 H 1998.56 2.59423 2.37471 0
M  V30 21960 H 1998.43 1.2918 3.5439 0
M  V30 21961 H 2000.82 0.535708 2.90197 0
M  V30 21962 H 2000.9 1.87122 1.7441 0
M  V30 21963 H 2000.54 3.52306 3.65846 0
M  V30 21964 H 2000.47 2.1595 4.80284 0
M  V30 21965 H 2002.96 1.90893 3.26141 0
M  V30 21966 H 2003.28 4.43058 6.33182 0
M  V30 21967 H 2001.62 3.97885 5.69836 0
M  V30 21968 H 2004.81 2.4369 3.99666 0
M  V30 21969 H 2004.99 3.5866 5.39691 0
M  V30 21970 N 1998.39 -1.42074 0.682102 0
M  V30 21971 C 1999.3 -2.34598 0.00845226 0
M  V30 21972 C 2000.32 -1.55494 -0.780873 0
M  V30 21973 O 2001.49 -1.88032 -0.721524 0
M  V30 21974 C 1998.56 -3.34103 -0.926085 0
M  V30 21975 C 1997.62 -4.29102 -0.130475 0
M  V30 21976 C 1996.85 -5.23853 -1.0205 0
M  V30 21977 O 1997.08 -5.23716 -2.26004 0
M  V30 21978 O 1996.01 -6.00004 -0.47739 0
M  V30 21979 H 1999.84 -2.93756 0.770779 0
M  V30 21980 H 1997.42 -1.42701 0.442368 0
M  V30 21981 H 1999.3 -3.95212 -1.46236 0
M  V30 21982 H 1997.98 -2.77408 -1.66814 0
M  V30 21983 H 1996.88 -3.71383 0.450082 0
M  V30 21984 H 1998.22 -4.88858 0.57262 0
M  V30 21985 N 1999.87 -0.425924 -1.51735 0
M  V30 21986 C 2000.8 0.382011 -2.30354 0
M  V30 21987 C 2001.78 1.03124 -1.35276 0
M  V30 21988 O 2002.97 1.03705 -1.64191 0
M  V30 21989 C 2000.1 1.48978 -3.13724 0
M  V30 21990 C 1999.05 0.964659 -4.16987 0
M  V30 21991 C 1998.38 2.1673 -4.88807 0
M  V30 21992 C 1999.68 0.00700314 -5.223 0
M  V30 21993 H 2001.37 -0.274043 -2.98143 0
M  V30 21994 H 1998.92 -0.133238 -1.43382 0
M  V30 21995 H 2000.87 2.06211 -3.67498 0
M  V30 21996 H 1999.59 2.17396 -2.43735 0
M  V30 21997 H 1998.25 0.414618 -3.64248 0
M  V30 21998 H 1997.9 2.83741 -4.15331 0
M  V30 21999 H 1997.6 1.82239 -5.58626 0
M  V30 22000 H 1999.12 2.74538 -5.454 0
M  V30 22001 H 2000.54 0.488665 -5.71214 0
M  V30 22002 H 1998.93 -0.249924 -5.99579 0
M  V30 22003 H 2000 -0.933195 -4.75836 0
M  V30 22004 N 2001.35 1.56817 -0.156891 0
M  V30 22005 C 2002.3 2.1384 0.790976 0
M  V30 22006 C 2003.28 1.0688 1.20272 0
M  V30 22007 O 2004.47 1.33036 1.16749 0
M  V30 22008 C 2001.6 2.77136 2.0261 0
M  V30 22009 C 2000.69 3.91233 1.637 0
M  V30 22010 N 2001.08 4.96671 0.956661 0
M  V30 22011 C 1999.38 4.02125 1.92903 0
M  V30 22012 C 2000.08 5.76618 0.767257 0
M  V30 22013 N 1999.05 5.27723 1.30421 0
M  V30 22014 H 2002.86 2.92729 0.262059 0
M  V30 22015 H 2000.37 1.6234 0.0443045 0
M  V30 22016 H 2002.37 3.16355 2.71523 0
M  V30 22017 H 2001.03 1.99723 2.5601 0
M  V30 22018 H 2002.04 5.1422 0.61631 0
M  V30 22019 H 1998.72 3.35799 2.48083 0
M  V30 22020 H 2000.11 6.71505 0.230312 0
M  V30 22021 N 2002.83 -0.116876 1.57166 0
M  V30 22022 C 2003.74 -1.16207 2.03797 0
M  V30 22023 C 2004.75 -1.45203 0.958749 0
M  V30 22024 O 2005.93 -1.56277 1.27041 0
M  V30 22025 C 2002.99 -2.46823 2.43474 0
M  V30 22026 C 2002.05 -2.25205 3.65488 0
M  V30 22027 C 2001.29 -3.49592 4.03263 0
M  V30 22028 O 2001.51 -4.56981 3.41357 0
M  V30 22029 O 2000.44 -3.40468 4.96352 0
M  V30 22030 H 2004.27 -0.796087 2.9308 0
M  V30 22031 H 2001.85 -0.327825 1.45759 0
M  V30 22032 H 2003.74 -3.23774 2.69719 0
M  V30 22033 H 2002.41 -2.82891 1.57335 0
M  V30 22034 H 2001.32 -1.46104 3.4439 0
M  V30 22035 H 2002.65 -1.94039 4.52338 0
M  V30 22036 N 2004.3 -1.52772 -0.387116 0
M  V30 22037 C 2005.21 -1.8061 -1.49724 0
M  V30 22038 C 2006.23 -0.692981 -1.59605 0
M  V30 22039 O 2007.41 -0.98077 -1.75906 0
M  V30 22040 C 2004.47 -1.97083 -2.85236 0
M  V30 22041 C 2003.53 -3.20997 -2.8506 0
M  V30 22042 C 2002.76 -3.36675 -4.14108 0
M  V30 22043 O 2002.99 -2.57118 -5.09163 0
M  V30 22044 O 2001.92 -4.29938 -4.21233 0
M  V30 22045 H 2005.75 -2.7488 -1.2913 0
M  V30 22046 H 2003.33 -1.37886 -0.57514 0
M  V30 22047 H 2005.21 -2.09614 -3.65568 0
M  V30 22048 H 2003.89 -1.06002 -3.05852 0
M  V30 22049 H 2002.8 -3.13907 -2.03503 0
M  V30 22050 H 2004.13 -4.1193 -2.69396 0
M  V30 22051 N 2005.78 0.645673 -1.43767 0
M  V30 22052 C 2006.74 1.74013 -1.49171 0
M  V30 22053 C 2007.74 1.56355 -0.375476 0
M  V30 22054 O 2008.93 1.62115 -0.637529 0
M  V30 22055 C 2006.07 3.12961 -1.3516 0
M  V30 22056 H 2007.26 1.706 -2.46649 0
M  V30 22057 H 2004.81 0.858019 -1.30643 0
M  V30 22058 H 2005.55 3.2198 -0.387199 0
M  V30 22059 H 2005.33 3.27184 -2.16086 0
M  V30 22060 H 2006.82 3.92755 -1.41891 0
M  V30 22061 N 2007.26 1.30423 0.884744 0
M  V30 22062 C 2008.51 1.19435 1.63899 0
M  V30 22063 C 2008.84 -0.25033 1.9258 0
M  V30 22064 O 2008.11 -1.17904 1.5469 0
M  V30 22065 C 2008.4 2.02357 2.97865 0
M  V30 22066 C 2008.25 3.55046 2.76156 0
M  V30 22067 C 2009.57 1.86156 3.98791 0
M  V30 22068 H 2006.69 0.435234 0.594761 0
M  V30 22069 H 2009.33 1.60058 1.0238 0
M  V30 22070 H 2007.48 1.67842 3.50373 0
M  V30 22071 H 2009.15 3.99622 2.30434 0
M  V30 22072 H 2007.39 3.79218 2.10657 0
M  V30 22073 H 2008.07 4.08356 3.71415 0
M  V30 22074 H 2010.54 2.16332 3.55443 0
M  V30 22075 H 2009.42 2.46501 4.90437 0
M  V30 22076 H 2009.68 0.820775 4.34414 0
M  V30 22077 N 2008.74 -1.09711 1.13142 0
M  V30 22078 C 2010.15 -1.33866 0.869023 0
M  V30 22079 C 2010.35 -1.95275 -0.49697 0
M  V30 22080 O 2009.41 -2.19723 -1.2441 0
M  V30 22081 C 2010.72 -2.25314 1.99133 0
M  V30 22082 C 2012.27 -2.38831 2.02308 0
M  V30 22083 C 2012.75 -3.33613 3.13793 0
M  V30 22084 N 2014.24 -3.41185 3.13284 0
M  V30 22085 C 2014.97 -4.14516 3.96187 0
M  V30 22086 N 2014.47 -4.90669 4.89097 0
M  V30 22087 N 2016.26 -4.1021 3.84297 0
M  V30 22088 H 2008.41 -0.682242 2.01145 0
M  V30 22089 H 2010.67 -0.36305 0.875728 0
M  V30 22090 H 2010.38 -1.87415 2.97605 0
M  V30 22091 H 2010.25 -3.25681 1.90294 0
M  V30 22092 H 2012.64 -2.75996 1.04451 0
M  V30 22093 H 2012.72 -1.38254 2.1522 0
M  V30 22094 H 2012.37 -2.97172 4.11887 0
M  V30 22095 H 2012.3 -4.34088 2.9812 0
M  V30 22096 H 2014.79 -2.86882 2.45982 0
M  V30 22097 H 2015.1 -5.44045 5.48849 0
M  V30 22098 H 2013.45 -4.89768 4.93105 0
M  V30 22099 H 2016.64 -3.49815 3.11042 0
M  V30 22100 H 2016.81 -4.671 4.49135 0
M  V30 22101 N 2010.22 -0.924476 -1.27637 0
M  V30 22102 C 2011.63 -0.62423 -1.46886 0
M  V30 22103 C 2011.83 0.827429 -1.83728 0
M  V30 22104 O 2010.89 1.6056 -1.94876 0
M  V30 22105 C 2012.2 -1.57134 -2.56378 0
M  V30 22106 C 2013.75 -1.57921 -2.7024 0
M  V30 22107 C 2014.22 -2.5132 -3.82886 0
M  V30 22108 N 2015.72 -2.49509 -3.90256 0
M  V30 22109 C 2016.45 -3.18469 -4.76828 0
M  V30 22110 N 2015.95 -3.96797 -5.67912 0
M  V30 22111 N 2017.74 -3.07503 -4.7053 0
M  V30 22112 H 2009.89 -1.86302 -1.02006 0
M  V30 22113 H 2012.15 -0.79968 -0.509132 0
M  V30 22114 H 2011.86 -2.60679 -2.36092 0
M  V30 22115 H 2011.73 -1.31058 -3.537 0
M  V30 22116 H 2014.12 -0.55109 -2.89909 0
M  V30 22117 H 2014.2 -1.88045 -1.73415 0
M  V30 22118 H 2013.85 -3.54241 -3.63972 0
M  V30 22119 H 2013.78 -2.18494 -4.79132 0
M  V30 22120 H 2016.27 -1.9262 -3.25124 0
M  V30 22121 H 2016.58 -4.4641 -6.30823 0
M  V30 22122 H 2014.92 -4.00901 -5.67718 0
M  V30 22123 H 2018.12 -2.45806 -3.98368 0
M  V30 22124 H 2018.29 -3.61517 -5.37782 0
M  V30 22125 N 2011.69 1.41711 -0.689627 0
M  V30 22126 C 2012.63 2.29192 0.018551 0
M  V30 22127 C 2013.64 1.44471 0.750468 0
M  V30 22128 O 2014.83 1.68037 0.602159 0
M  V30 22129 C 2011.93 3.22215 1.05027 0
M  V30 22130 C 2011.1 4.35665 0.389181 0
M  V30 22131 C 2010.16 5.09304 1.3227 0
M  V30 22132 O 2009.19 5.63301 0.817347 0
M  V30 22133 N 2010.39 5.16209 2.65533 0
M  V30 22134 H 2013.15 2.90611 -0.732482 0
M  V30 22135 H 2010.71 1.52798 -0.535191 0
M  V30 22136 H 2012.71 3.68347 1.67638 0
M  V30 22137 H 2011.28 2.62145 1.7029 0
M  V30 22138 H 2010.5 3.91991 -0.416702 0
M  V30 22139 H 2011.78 5.08751 -0.070752 0
M  V30 22140 H 2011.18 4.73777 3.09115 0
M  V30 22141 H 2009.74 5.65938 3.23354 0
M  V30 22142 N 2013.17 0.433965 1.51507 0
M  V30 22143 C 2014.12 -0.37918 2.27664 0
M  V30 22144 C 2015.09 -1.01975 1.31112 0
M  V30 22145 O 2016.27 -1.0393 1.6001 0
M  V30 22146 C 2013.41 -1.47628 3.1193 0
M  V30 22147 C 2012.53 -0.854176 4.23471 0
M  V30 22148 C 2011.66 -1.92604 4.95053 0
M  V30 22149 C 2010.7 -1.28219 5.9852 0
M  V30 22150 N 2009.84 -2.29527 6.63522 0
M  V30 22151 H 2014.68 0.276629 2.96713 0
M  V30 22152 H 2012.22 0.148264 1.46351 0
M  V30 22153 H 2014.17 -2.1236 3.59109 0
M  V30 22154 H 2012.8 -2.10176 2.45002 0
M  V30 22155 H 2011.86 -0.0952329 3.80281 0
M  V30 22156 H 2013.17 -0.344086 4.97612 0
M  V30 22157 H 2012.32 -2.65006 5.45762 0
M  V30 22158 H 2011.06 -2.46985 4.20535 0
M  V30 22159 H 2010.07 -0.543619 5.47106 0
M  V30 22160 H 2011.29 -0.745758 6.74993 0
M  V30 22161 H 2009.24 -2.82995 5.91819 0
M  V30 22162 H 2009.15 -1.834 7.33417 0
M  V30 22163 H 2010.42 -3.01423 7.18863 0
M  V30 22164 N 2014.65 -1.56732 0.165206 0
M  V30 22165 C 2015.58 -2.20674 -0.763223 0
M  V30 22166 C 2016.56 -1.16048 -1.24366 0
M  V30 22167 O 2017.75 -1.44456 -1.29793 0
M  V30 22168 C 2014.88 -2.84269 -1.9952 0
M  V30 22169 C 2013.83 -3.94881 -1.65085 0
M  V30 22170 C 2013.16 -4.45496 -2.95698 0
M  V30 22171 C 2014.46 -5.14773 -0.883543 0
M  V30 22172 H 2016.15 -2.98513 -0.230254 0
M  V30 22173 H 2013.7 -1.43585 -0.109308 0
M  V30 22174 H 2015.65 -3.27674 -2.64967 0
M  V30 22175 H 2014.37 -2.03789 -2.55221 0
M  V30 22176 H 2013.03 -3.52122 -1.0201 0
M  V30 22177 H 2012.68 -3.61815 -3.49426 0
M  V30 22178 H 2012.38 -5.20114 -2.73414 0
M  V30 22179 H 2013.9 -4.91584 -3.62185 0
M  V30 22180 H 2015.32 -5.54908 -1.44047 0
M  V30 22181 H 2013.72 -5.95268 -0.759968 0
M  V30 22182 H 2014.79 -4.84748 0.121303 0
M  V30 22183 N 2016.13 0.10854 -1.57226 0
M  V30 22184 C 2017.06 1.13362 -2.04135 0
M  V30 22185 C 2018.04 1.42573 -0.927733 0
M  V30 22186 O 2019.22 1.52835 -1.19813 0
M  V30 22187 C 2016.35 2.45708 -2.45449 0
M  V30 22188 C 2015.31 2.30935 -3.60351 0
M  V30 22189 C 2014.63 3.68337 -3.87597 0
M  V30 22190 C 2015.93 1.76112 -4.91713 0
M  V30 22191 H 2017.63 0.74341 -2.90024 0
M  V30 22192 H 2015.17 0.356157 -1.39526 0
M  V30 22193 H 2017.13 3.17679 -2.76872 0
M  V30 22194 H 2015.85 2.86639 -1.56544 0
M  V30 22195 H 2014.51 1.61411 -3.29153 0
M  V30 22196 H 2014.16 4.06772 -2.95881 0
M  V30 22197 H 2013.86 3.59303 -4.64946 0
M  V30 22198 H 2015.38 4.41797 -4.21483 0
M  V30 22199 H 2016.8 2.3791 -5.21605 0
M  V30 22200 H 2015.19 1.77872 -5.73133 0
M  V30 22201 H 2016.26 0.71947 -4.79533 0
M  V30 22202 N 2017.61 1.52975 0.379009 0
M  V30 22203 C 2018.52 1.81401 1.48764 0
M  V30 22204 C 2019.53 0.701435 1.59235 0
M  V30 22205 O 2020.71 0.990085 1.75383 0
M  V30 22206 C 2017.77 1.98593 2.84186 0
M  V30 22207 C 2016.83 3.22504 2.83354 0
M  V30 22208 C 2016.07 3.38866 4.12317 0
M  V30 22209 O 2016.29 2.59814 5.07792 0
M  V30 22210 O 2015.22 4.32165 4.18947 0
M  V30 22211 H 2019.05 2.75561 1.27671 0
M  V30 22212 H 2016.64 1.38189 0.56782 0
M  V30 22213 H 2018.52 2.11549 3.64451 0
M  V30 22214 H 2017.19 1.07622 3.05285 0
M  V30 22215 H 2016.1 3.14982 2.01835 0
M  V30 22216 H 2017.43 4.13353 2.67208 0
M  V30 22217 N 2019.08 -0.63804 1.44107 0
M  V30 22218 C 2020.02 -1.76333 1.46421 0
M  V30 22219 C 2021.03 -1.58805 0.358429 0
M  V30 22220 O 2022.22 -1.67246 0.623768 0
M  V30 22221 C 2019.32 -3.13967 1.27586 0
M  V30 22222 C 2018.49 -3.58016 2.51283 0
M  V30 22223 C 2017.55 -4.74503 2.27449 0
M  V30 22224 O 2016.58 -4.83167 3.00895 0
M  V30 22225 N 2017.78 -5.6574 1.3007 0
M  V30 22226 H 2020.54 -1.74822 2.43429 0
M  V30 22227 H 2018.1 -0.822384 1.39458 0
M  V30 22228 H 2020.1 -3.89605 1.09499 0
M  V30 22229 H 2018.67 -3.10162 0.389684 0
M  V30 22230 H 2017.89 -2.7266 2.84693 0
M  V30 22231 H 2019.17 -3.84197 3.33572 0
M  V30 22232 H 2018.57 -5.61427 0.693968 0
M  V30 22233 H 2017.13 -6.41037 1.17964 0
M  V30 22234 N 2020.56 -1.3089 -0.877815 0
M  V30 22235 C 2021.79 -1.23199 -1.66844 0
M  V30 22236 C 2022.21 0.200808 -1.87025 0
M  V30 22237 O 2021.57 1.14417 -1.40636 0
M  V30 22238 C 2021.62 -1.97328 -3.01818 0
M  V30 22239 O 2020.72 -1.30526 -3.91199 0
M  V30 22240 H 2020.06 -0.425746 -0.509545 0
M  V30 22241 H 2022.59 -1.7283 -1.09504 0
M  V30 22242 H 2022.6 -2.06624 -3.51811 0
M  V30 22243 H 2021.28 -3.01529 -2.86449 0
M  V30 22244 H 2019.86 -1.29631 -3.49643 0
M  V30 22245 N 2022.04 1.0911 -1.13723 0
M  V30 22246 C 2023.29 1.80725 -0.895618 0
M  V30 22247 C 2023.6 1.86812 0.579725 0
M  V30 22248 O 2024.81 2.54768 0.938368 0
M  V30 22249 C 2023.26 3.24679 -1.55278 0
M  V30 22250 C 2022.87 3.26849 -3.06388 0
M  V30 22251 C 2024.62 4.01028 -1.392 0
M  V30 22252 C 2022.52 4.65347 -3.64974 0
M  V30 22253 H 2021.45 0.677257 -0.33142 0
M  V30 22254 H 2024.1 1.22603 -1.36531 0
M  V30 22255 H 2022.49 3.82883 -1.01075 0
M  V30 22256 H 2023.66 2.78393 -3.67198 0
M  V30 22257 H 2021.98 2.63993 -3.2202 0
M  V30 22258 H 2024.57 5.03356 -1.80379 0
M  V30 22259 H 2024.92 4.14932 -0.337236 0
M  V30 22260 H 2025.45 3.49274 -1.904 0
M  V30 22261 H 2022.19 4.56646 -4.70271 0
M  V30 22262 H 2021.71 5.14115 -3.08943 0
M  V30 22263 H 2023.39 5.34322 -3.64841 0
M  V30 22264 N 2023.52 0.931232 1.27145 0
M  V30 22265 C 2024.45 0.39037 2.25851 0
M  V30 22266 C 2025.46 -0.480869 1.55536 0
M  V30 22267 O 2026.65 -0.292921 1.7608 0
M  V30 22268 C 2023.75 -0.458971 3.35778 0
M  V30 22269 C 2022.93 0.393796 4.35624 0
M  V30 22270 C 2021.98 -0.393477 5.24727 0
M  V30 22271 O 2021.01 0.20005 5.68848 0
M  V30 22272 N 2022.21 -1.69245 5.55281 0
M  V30 22273 H 2024.98 1.23887 2.72896 0
M  V30 22274 H 2022.54 0.799038 1.40808 0
M  V30 22275 H 2024.53 -0.992799 3.92334 0
M  V30 22276 H 2023.1 -1.20824 2.88306 0
M  V30 22277 H 2022.32 1.1089 3.78282 0
M  V30 22278 H 2023.61 0.976663 4.99338 0
M  V30 22279 H 2023.01 -2.19693 5.21298 0
M  V30 22280 H 2021.56 -2.17273 6.14521 0
M  V30 22281 N 2025 -1.41343 0.697132 0
M  V30 22282 C 2026.22 -2.06049 0.236356 0
M  V30 22283 C 2026.65 -1.52124 -1.10634 0
M  V30 22284 O 2026.01 -0.648852 -1.69291 0
M  V30 22285 C 2026.05 -3.6001 0.206185 0
M  V30 22286 O 2025.16 -4.04197 -0.818466 0
M  V30 22287 H 2024.5 -0.65395 0.115091 0
M  V30 22288 H 2027.03 -1.8108 0.952431 0
M  V30 22289 H 2027.04 -4.07983 0.0375737 0
M  V30 22290 H 2025.71 -3.98628 1.18612 0
M  V30 22291 H 2024.29 -3.67725 -0.619082 0
M  V30 22292 N 2026.48 -0.441993 -1.51275 0
M  V30 22293 C 2027.44 0.355502 -2.26426 0
M  V30 22294 C 2028.44 0.945699 -1.30051 0
M  V30 22295 O 2029.63 0.819422 -1.53724 0
M  V30 22296 C 2026.76 1.50344 -3.05957 0
M  V30 22297 H 2027.95 -0.303177 -2.98364 0
M  V30 22298 H 2025.51 -0.195279 -1.55075 0
M  V30 22299 H 2026.24 2.19803 -2.38447 0
M  V30 22300 H 2026.03 1.08636 -3.7675 0
M  V30 22301 H 2027.52 2.06676 -3.6287 0
M  V30 22302 N 2027.95 1.56642 -0.173515 0
M  V30 22303 C 2028.89 2.15251 0.787381 0
M  V30 22304 C 2029.9 1.10866 1.19217 0
M  V30 22305 O 2031.09 1.38044 1.13164 0
M  V30 22306 C 2028.19 2.6821 2.07163 0
M  V30 22307 C 2027.36 3.97275 1.83006 0
M  V30 22308 C 2026.42 4.35276 2.95671 0
M  V30 22309 O 2025.45 5.03111 2.6621 0
M  V30 22310 N 2026.65 3.97014 4.23509 0
M  V30 22311 H 2029.41 2.98329 0.28631 0
M  V30 22312 H 2026.97 1.61897 0.00919258 0
M  V30 22313 H 2028.97 2.90629 2.81632 0
M  V30 22314 H 2027.54 1.89708 2.48454 0
M  V30 22315 H 2026.76 3.83211 0.924298 0
M  V30 22316 H 2028.04 4.81564 1.64237 0
M  V30 22317 H 2027.44 3.42407 4.50304 0
M  V30 22318 H 2026 4.24429 4.94675 0
M  V30 22319 N 2029.43 -0.1002 1.57281 0
M  V30 22320 C 2030.34 -1.14039 2.05018 0
M  V30 22321 C 2031.36 -1.44178 0.974096 0
M  V30 22322 O 2032.53 -1.54921 1.28691 0
M  V30 22323 C 2029.6 -2.44226 2.46078 0
M  V30 22324 C 2028.66 -2.21315 3.67856 0
M  V30 22325 C 2027.89 -3.45295 4.06948 0
M  V30 22326 O 2028.12 -4.53334 3.46185 0
M  V30 22327 O 2027.05 -3.35185 4.99935 0
M  V30 22328 H 2030.88 -0.764957 2.93908 0
M  V30 22329 H 2028.46 -0.312347 1.46098 0
M  V30 22330 H 2030.34 -3.20895 2.73138 0
M  V30 22331 H 2029.02 -2.81206 1.60327 0
M  V30 22332 H 2027.92 -1.42444 3.4592 0
M  V30 22333 H 2029.26 -1.89231 4.54371 0
M  V30 22334 N 2030.91 -1.53174 -0.370891 0
M  V30 22335 C 2032.14 -1.73 -1.13484 0
M  V30 22336 C 2032.55 -0.456538 -1.83197 0
M  V30 22337 O 2031.91 0.570218 -1.73363 0
M  V30 22338 C 2031.96 -2.89186 -2.16919 0
M  V30 22339 O 2031.68 -4.11604 -1.50045 0
M  V30 22340 C 2033.18 -3.20841 -3.05901 0
M  V30 22341 H 2030.4 -0.578752 -0.33954 0
M  V30 22342 H 2032.95 -1.99897 -0.43143 0
M  V30 22343 H 2031.1 -2.64699 -2.82866 0
M  V30 22344 H 2031.52 -4.76629 -2.18918 0
M  V30 22345 H 2032.99 -4.05557 -3.7447 0
M  V30 22346 H 2033.47 -2.35982 -3.70418 0
M  V30 22347 H 2034.07 -3.47235 -2.45577 0
M  V30 22348 N 2032.39 0.630389 -1.44443 0
M  V30 22349 C 2033.3 1.77101 -1.53859 0
M  V30 22350 C 2034.31 1.68749 -0.424221 0
M  V30 22351 O 2035.49 1.89513 -0.681673 0
M  V30 22352 C 2032.55 3.13487 -1.48077 0
M  V30 22353 C 2031.62 3.33464 -2.7037 0
M  V30 22354 C 2030.85 4.63344 -2.64855 0
M  V30 22355 O 2031.07 5.44196 -1.70899 0
M  V30 22356 O 2030.01 4.85539 -3.55718 0
M  V30 22357 H 2033.83 1.7211 -2.50223 0
M  V30 22358 H 2031.42 0.791704 -1.26698 0
M  V30 22359 H 2033.3 3.94788 -1.47378 0
M  V30 22360 H 2031.97 3.19018 -0.54856 0
M  V30 22361 H 2030.88 2.51839 -2.76637 0
M  V30 22362 H 2032.21 3.32795 -3.6264 0
M  V30 22363 N 2033.87 1.31354 0.870861 0
M  V30 22364 C 2034.81 1.18928 1.978 0
M  V30 22365 C 2035.78 0.07529 1.65929 0
M  V30 22366 O 2036.97 0.247992 1.89181 0
M  V30 22367 C 2034.11 0.901663 3.33113 0
M  V30 22368 C 2033.22 2.0989 3.77584 0
M  V30 22369 C 2032.36 1.74815 5.01611 0
M  V30 22370 C 2031.39 2.90952 5.38529 0
M  V30 22371 N 2030.53 2.56077 6.53734 0
M  V30 22372 H 2035.37 2.13636 2.07759 0
M  V30 22373 H 2032.91 1.06273 1.01708 0
M  V30 22374 H 2034.87 0.715464 4.11019 0
M  V30 22375 H 2033.5 -0.00857463 3.22799 0
M  V30 22376 H 2032.55 2.3959 2.95467 0
M  V30 22377 H 2033.86 2.96817 4.00875 0
M  V30 22378 H 2033.01 1.52652 5.87182 0
M  V30 22379 H 2031.75 0.850776 4.80222 0
M  V30 22380 H 2030.76 3.13764 4.51478 0
M  V30 22381 H 2031.98 3.81397 5.61884 0
M  V30 22382 H 2029.93 1.68863 6.33894 0
M  V30 22383 H 2029.85 3.36535 6.76964 0
M  V30 22384 H 2031.11 2.37306 7.425 0
M  V30 22385 N 2035.34 -1.08505 1.143 0
M  V30 22386 C 2036.57 -1.85155 0.934475 0
M  V30 22387 C 2036.99 -1.81002 -0.511866 0
M  V30 22388 O 2036.35 -1.19437 -1.36398 0
M  V30 22389 C 2036.4 -3.30656 1.43871 0
M  V30 22390 O 2035.5 -4.07557 0.630143 0
M  V30 22391 H 2034.84 -0.573775 0.334183 0
M  V30 22392 H 2037.37 -1.36959 1.51998 0
M  V30 22393 H 2037.38 -3.815 1.44644 0
M  V30 22394 H 2036.06 -3.32995 2.49173 0
M  V30 22395 H 2034.64 -3.66441 0.691067 0
M  V30 22396 N 2036.82 -0.937962 -1.26649 0
M  V30 22397 C 2037.75 -0.462649 -2.28871 0
M  V30 22398 C 2038.73 0.4824 -1.63116 0
M  V30 22399 O 2039.92 0.384947 -1.90347 0
M  V30 22400 C 2037.05 0.275964 -3.46202 0
M  V30 22401 C 2036 -0.582222 -4.24021 0
M  V30 22402 C 2035.33 0.286161 -5.33934 0
M  V30 22403 C 2036.63 -1.85193 -4.88365 0
M  V30 22404 H 2038.32 -1.31698 -2.68879 0
M  V30 22405 H 2035.87 -0.634709 -1.29257 0
M  V30 22406 H 2037.82 0.619496 -4.16822 0
M  V30 22407 H 2036.54 1.1644 -3.05138 0
M  V30 22408 H 2035.2 -0.908604 -3.55162 0
M  V30 22409 H 2034.85 1.17386 -4.89111 0
M  V30 22410 H 2034.55 -0.284618 -5.8691 0
M  V30 22411 H 2036.08 0.625035 -6.07393 0
M  V30 22412 H 2037.49 -1.57584 -5.51217 0
M  V30 22413 H 2035.89 -2.36702 -5.51445 0
M  V30 22414 H 2036.96 -2.56526 -4.11488 0
M  V30 22415 N 2038.3 1.40971 -0.704618 0
M  V30 22416 C 2039.25 2.2799 -0.0216885 0
M  V30 22417 C 2040.23 1.42681 0.743698 0
M  V30 22418 O 2041.43 1.65872 0.617703 0
M  V30 22419 C 2038.55 3.31092 0.907373 0
M  V30 22420 C 2037.64 4.23876 0.137755 0
M  V30 22421 N 2038.03 4.98205 -0.87323 0
M  V30 22422 C 2036.33 4.44447 0.371921 0
M  V30 22423 C 2037.03 5.6618 -1.33471 0
M  V30 22424 N 2036.01 5.39592 -0.658918 0
M  V30 22425 H 2039.81 2.82896 -0.796698 0
M  V30 22426 H 2037.32 1.53291 -0.536241 0
M  V30 22427 H 2039.32 3.92266 1.41185 0
M  V30 22428 H 2037.98 2.77746 1.68188 0
M  V30 22429 H 2038.99 5.02495 -1.25375 0
M  V30 22430 H 2035.67 4.02096 1.12361 0
M  V30 22431 H 2037.06 6.35752 -2.17415 0
M  V30 22432 N 2039.78 0.45001 1.51039 0
M  V30 22433 C 2040.71 -0.345315 2.30933 0
M  V30 22434 C 2041.69 -1.00959 1.36899 0
M  V30 22435 O 2042.87 -1.0108 1.6582 0
M  V30 22436 C 2040 -1.43968 3.16055 0
M  V30 22437 C 2038.96 -0.898198 4.18469 0
M  V30 22438 C 2038.28 -2.08927 4.92193 0
M  V30 22439 C 2039.58 0.0760911 5.22245 0
M  V30 22440 H 2041.28 0.321441 2.97669 0
M  V30 22441 H 2038.82 0.156032 1.43152 0
M  V30 22442 H 2040.78 -2.00338 3.70732 0
M  V30 22443 H 2039.5 -2.1349 2.47163 0
M  V30 22444 H 2038.16 -0.356617 3.64861 0
M  V30 22445 H 2037.81 -2.77098 4.19792 0
M  V30 22446 H 2037.51 -1.73328 5.61454 0
M  V30 22447 H 2039.03 -2.65827 5.49698 0
M  V30 22448 H 2040.45 -0.397728 5.71919 0
M  V30 22449 H 2038.84 0.345281 5.99106 0
M  V30 22450 H 2039.91 1.00878 4.74291 0
M  V30 22451 N 2041.26 -1.56548 0.18182 0
M  V30 22452 C 2042.51 -1.96371 -0.460566 0
M  V30 22453 C 2042.82 -1.07099 -1.63674 0
M  V30 22454 O 2044.02 -1.36648 -2.34605 0
M  V30 22455 C 2042.48 -3.49207 -0.870777 0
M  V30 22456 C 2042.09 -4.47122 0.280378 0
M  V30 22457 C 2043.83 -3.97828 -1.48099 0
M  V30 22458 C 2041.74 -5.9121 -0.15005 0
M  V30 22459 H 2040.67 -0.73321 -0.175838 0
M  V30 22460 H 2043.32 -1.81477 0.271724 0
M  V30 22461 H 2041.7 -3.59557 -1.65935 0
M  V30 22462 H 2042.88 -4.48494 1.05781 0
M  V30 22463 H 2041.19 -4.08619 0.801227 0
M  V30 22464 H 2043.79 -5.02944 -1.81525 0
M  V30 22465 H 2044.13 -3.41369 -2.38271 0
M  V30 22466 H 2044.66 -3.90538 -0.75665 0
M  V30 22467 H 2041.4 -6.51565 0.717155 0
M  V30 22468 H 2040.92 -5.93121 -0.892621 0
M  V30 22469 H 2042.6 -6.44301 -0.590372 0
M  V30 22470 N 2042.73 0.0918577 -1.57332 0
M  V30 22471 C 2043.67 1.13749 -1.98982 0
M  V30 22472 C 2044.68 1.36133 -0.892834 0
M  V30 22473 O 2045.87 1.34728 -1.17092 0
M  V30 22474 C 2042.97 2.49241 -2.29635 0
M  V30 22475 C 2042.14 2.4709 -3.60923 0
M  V30 22476 C 2041.2 3.64534 -3.79475 0
M  V30 22477 O 2040.23 3.46877 -4.51292 0
M  V30 22478 N 2041.43 4.84137 -3.20299 0
M  V30 22479 H 2044.19 0.78297 -2.89292 0
M  V30 22480 H 2041.75 0.280794 -1.59446 0
M  V30 22481 H 2043.75 3.26417 -2.39236 0
M  V30 22482 H 2042.32 2.76771 -1.45316 0
M  V30 22483 H 2041.54 1.55438 -3.62261 0
M  V30 22484 H 2042.82 2.42733 -4.47167 0
M  V30 22485 H 2042.22 5.01386 -2.6197 0
M  V30 22486 H 2040.78 5.58894 -3.35381 0
M  V30 22487 N 2044.21 1.53368 0.362763 0
M  V30 22488 C 2045.12 1.82969 1.46832 0
M  V30 22489 C 2046.14 0.718285 1.58482 0
M  V30 22490 O 2047.31 1.00863 1.74323 0
M  V30 22491 C 2044.38 2.01596 2.82064 0
M  V30 22492 C 2043.44 3.25491 2.79918 0
M  V30 22493 C 2042.67 3.4322 4.087 0
M  V30 22494 O 2042.9 2.65185 5.05008 0
M  V30 22495 O 2041.83 4.36585 4.1434 0
M  V30 22496 H 2045.66 2.769 1.24741 0
M  V30 22497 H 2043.24 1.38783 0.553131 0
M  V30 22498 H 2045.12 2.15403 3.62187 0
M  V30 22499 H 2043.8 1.10854 3.04127 0
M  V30 22500 H 2042.71 3.17105 1.98483 0
M  V30 22501 H 2044.04 4.16164 2.62809 0
M  V30 22502 N 2045.69 -0.62272 1.44776 0
M  V30 22503 C 2046.92 -1.41403 1.51723 0
M  V30 22504 C 2047.34 -1.87534 0.145802 0
M  V30 22505 O 2046.7 -1.59244 -0.866667 0
M  V30 22506 C 2046.75 -2.60482 2.49362 0
M  V30 22507 O 2045.85 -3.60604 2.00096 0
M  V30 22508 H 2045.19 -0.422766 0.51202 0
M  V30 22509 H 2047.72 -0.759294 1.89989 0
M  V30 22510 H 2047.73 -3.0792 2.67674 0
M  V30 22511 H 2046.41 -2.26253 3.48974 0
M  V30 22512 H 2044.98 -3.19918 1.9159 0
M  V30 22513 N 2047.17 -1.31814 -0.863883 0
M  V30 22514 C 2048.1 -1.22574 -1.98741 0
M  V30 22515 C 2049.08 -0.111585 -1.69734 0
M  V30 22516 O 2050.26 -0.29721 -1.91912 0
M  V30 22517 C 2047.39 -0.938559 -3.34378 0
M  V30 22518 C 2046.35 -2.01295 -3.7771 0
M  V30 22519 C 2045.67 -1.57834 -5.10874 0
M  V30 22520 C 2046.97 -3.42684 -3.94164 0
M  V30 22521 H 2048.67 -2.16572 -2.06729 0
M  V30 22522 H 2046.21 -1.04262 -0.993246 0
M  V30 22523 H 2048.17 -0.860501 -4.12521 0
M  V30 22524 H 2046.89 0.0370783 -3.26579 0
M  V30 22525 H 2045.55 -2.081 -3.01811 0
M  V30 22526 H 2045.2 -0.5904 -4.99523 0
M  V30 22527 H 2044.9 -2.29713 -5.40838 0
M  V30 22528 H 2046.42 -1.51448 -5.9152 0
M  V30 22529 H 2047.84 -3.38519 -4.62685 0
M  V30 22530 H 2046.23 -4.12833 -4.35533 0
M  V30 22531 H 2047.3 -3.83023 -2.97358 0
M  V30 22532 N 2048.65 1.07897 -1.14873 0
M  V30 22533 C 2049.87 1.84117 -0.943847 0
M  V30 22534 C 2050.29 1.81844 0.507767 0
M  V30 22535 O 2049.65 1.22585 1.352 0
M  V30 22536 C 2049.7 3.31438 -1.4433 0
M  V30 22537 O 2049.42 3.33746 -2.83805 0
M  V30 22538 C 2050.92 4.24445 -1.2791 0
M  V30 22539 H 2048.14 0.581068 -0.335561 0
M  V30 22540 H 2050.68 1.36237 -1.52512 0
M  V30 22541 H 2048.84 3.76689 -0.904683 0
M  V30 22542 H 2049.25 4.25748 -3.06332 0
M  V30 22543 H 2050.73 5.25906 -1.67711 0
M  V30 22544 H 2051.2 4.38636 -0.222593 0
M  V30 22545 H 2051.81 3.85025 -1.80653 0
M  V30 22546 N 2050.12 0.944665 1.2615 0
M  V30 22547 C 2051.37 0.594093 1.93589 0
M  V30 22548 C 2051.7 -0.867382 1.74088 0
M  V30 22549 O 2050.95 -1.63636 1.07339 0
M  V30 22550 C 2051.25 0.886852 3.46222 0
M  V30 22551 C 2050.92 2.33276 3.85867 0
M  V30 22552 C 2049.58 2.72801 3.964 0
M  V30 22553 C 2051.93 3.27224 4.05677 0
M  V30 22554 C 2049.26 4.05362 4.24144 0
M  V30 22555 C 2051.61 4.59386 4.34911 0
M  V30 22556 C 2050.28 4.98721 4.4366 0
M  V30 22557 H 2049.55 0.217394 0.708393 0
M  V30 22558 H 2052.19 1.19183 1.49892 0
M  V30 22559 H 2050.5 0.206616 3.91255 0
M  V30 22560 H 2052.2 0.594328 3.96571 0
M  V30 22561 H 2048.79 2.01619 3.78216 0
M  V30 22562 H 2052.97 2.97883 3.96963 0
M  V30 22563 H 2048.23 4.35496 4.29131 0
M  V30 22564 H 2052.4 5.32171 4.49185 0
M  V30 22565 H 2050.03 6.01466 4.64911 0
M  V30 22566 N 2051.6 -1.40596 0.712085 0
M  V30 22567 C 2052.85 -2.00181 0.247097 0
M  V30 22568 C 2053.16 -1.57102 -1.16526 0
M  V30 22569 O 2054.37 -2.09361 -1.72858 0
M  V30 22570 C 2052.83 -3.57771 0.390856 0
M  V30 22571 C 2052.43 -4.09825 1.80964 0
M  V30 22572 C 2054.18 -4.24498 -0.0135164 0
M  V30 22573 C 2052.09 -5.59907 1.90417 0
M  V30 22574 H 2051.02 -0.748773 0.0886278 0
M  V30 22575 H 2053.67 -1.60876 0.882669 0
M  V30 22576 H 2052.05 -3.94759 -0.313241 0
M  V30 22577 H 2053.22 -3.84221 2.54383 0
M  V30 22578 H 2051.54 -3.55682 2.16516 0
M  V30 22579 H 2054.13 -5.34688 0.0364444 0
M  V30 22580 H 2054.48 -4.02714 -1.05487 0
M  V30 22581 H 2055.01 -3.92603 0.640898 0
M  V30 22582 H 2051.75 -5.86541 2.92661 0
M  V30 22583 H 2051.27 -5.87385 1.21404 0
M  V30 22584 H 2052.95 -6.24951 1.67466 0
M  V30 22585 N 2053.08 -0.458013 -1.50798 0
M  V30 22586 C 2054.36 0.162411 -1.94925 0
M  V30 22587 C 2054.74 1.58194 -1.39777 0
M  V30 22588 O 2054.09 2.20663 -0.59332 0
M  V30 22589 C 2054.3 0.119083 -3.48797 0
M  V30 22590 C 2055.64 0.314458 -4.23434 0
M  V30 22591 O 2056.67 0.196266 -3.55659 0
M  V30 22592 O 2055.53 0.551722 -5.43708 0
M  V30 22593 H 2052.62 0.118781 -0.818425 0
M  V30 22594 H 2055.17 -0.517478 -1.61618 0
M  V30 22595 H 2053.94 -0.872528 -3.81448 0
M  V30 22596 H 2053.56 0.840995 -3.88604 0
M  V30 22597 N 2054.56 1.56449 -0.190119 0
M  V30 22598 C 2055.51 2.1886 0.732745 0
M  V30 22599 C 2056.48 1.1343 1.21338 0
M  V30 22600 O 2057.66 1.4166 1.27817 0
M  V30 22601 C 2054.8 2.84809 1.94878 0
M  V30 22602 C 2053.91 4.04751 1.50998 0
M  V30 22603 C 2053.05 4.58572 2.68114 0
M  V30 22604 C 2052.09 5.70883 2.20815 0
M  V30 22605 N 2051.23 6.19132 3.3109 0
M  V30 22606 H 2056.07 2.97369 0.193776 0
M  V30 22607 H 2053.6 1.46861 0.0839065 0
M  V30 22608 H 2055.56 3.21213 2.66229 0
M  V30 22609 H 2054.19 2.08872 2.46115 0
M  V30 22610 H 2053.24 3.74043 0.69252 0
M  V30 22611 H 2054.55 4.85996 1.12292 0
M  V30 22612 H 2053.71 4.97256 3.47594 0
M  V30 22613 H 2052.45 3.76425 3.1009 0
M  V30 22614 H 2051.45 5.31733 1.39786 0
M  V30 22615 H 2052.68 6.54845 1.79875 0
M  V30 22616 H 2050.62 5.39908 3.72607 0
M  V30 22617 H 2050.54 6.95415 2.96538 0
M  V30 22618 H 2051.81 6.62468 4.108 0
M  V30 22619 N 2056.04 -0.0835127 1.57379 0
M  V30 22620 C 2056.97 -1.12692 1.99582 0
M  V30 22621 C 2057.98 -1.35658 0.900041 0
M  V30 22622 O 2059.17 -1.34105 1.17805 0
M  V30 22623 C 2056.27 -2.4802 2.30953 0
M  V30 22624 C 2055.44 -2.45172 3.62228 0
M  V30 22625 C 2054.5 -3.62516 3.81403 0
M  V30 22626 O 2053.53 -3.44479 4.53126 0
M  V30 22627 N 2054.73 -4.82432 3.22862 0
M  V30 22628 H 2057.5 -0.767618 2.89703 0
M  V30 22629 H 2055.06 -0.272335 1.59593 0
M  V30 22630 H 2057.05 -3.25144 2.40964 0
M  V30 22631 H 2055.62 -2.75996 1.46781 0
M  V30 22632 H 2054.84 -1.53514 3.6308 0
M  V30 22633 H 2056.13 -2.40359 4.48448 0
M  V30 22634 H 2055.53 -4.9999 2.64625 0
M  V30 22635 H 2054.08 -5.57108 3.3834 0
M  V30 22636 N 2057.52 -1.53558 -0.354624 0
M  V30 22637 C 2058.45 -1.83751 -1.44076 0
M  V30 22638 C 2059.43 -0.691795 -1.55397 0
M  V30 22639 O 2060.61 -0.942676 -1.69786 0
M  V30 22640 C 2057.74 -2.03721 -2.81274 0
M  V30 22641 C 2056.7 -3.19517 -2.84769 0
M  V30 22642 C 2056.02 -3.248 -4.24746 0
M  V30 22643 C 2057.32 -4.5787 -2.51301 0
M  V30 22644 H 2059.02 -2.7471 -1.19058 0
M  V30 22645 H 2056.56 -1.32182 -0.5713 0
M  V30 22646 H 2058.51 -2.23427 -3.57293 0
M  V30 22647 H 2057.24 -1.09482 -3.07703 0
M  V30 22648 H 2055.9 -2.99649 -2.11201 0
M  V30 22649 H 2055.55 -2.28177 -4.48268 0
M  V30 22650 H 2055.25 -4.02606 -4.27998 0
M  V30 22651 H 2056.77 -3.46702 -5.02623 0
M  V30 22652 H 2058.18 -4.77663 -3.17034 0
M  V30 22653 H 2056.58 -5.37998 -2.65853 0
M  V30 22654 H 2057.65 -4.62234 -1.46518 0
M  V30 22655 N 2058.99 0.615033 -1.45104 0
M  V30 22656 C 2059.96 1.7081 -1.52828 0
M  V30 22657 C 2060.96 1.55523 -0.408557 0
M  V30 22658 O 2062.15 1.60726 -0.671773 0
M  V30 22659 C 2059.28 3.10023 -1.41768 0
M  V30 22660 H 2060.47 1.6533 -2.50212 0
M  V30 22661 H 2058.02 0.830115 -1.32434 0
M  V30 22662 H 2058.76 3.21086 -0.455409 0
M  V30 22663 H 2058.54 3.22527 -2.22977 0
M  V30 22664 H 2060.03 3.89657 -1.5019 0
M  V30 22665 N 2060.47 1.3227 0.85688 0
M  V30 22666 C 2061.43 1.2096 1.94682 0
M  V30 22667 C 2062.43 0.133231 1.60247 0
M  V30 22668 O 2063.62 0.383471 1.69927 0
M  V30 22669 C 2060.76 0.85974 3.29881 0
M  V30 22670 H 2061.95 2.17823 2.06139 0
M  V30 22671 H 2059.5 1.16069 1.04679 0
M  V30 22672 H 2060.24 -0.107161 3.24123 0
M  V30 22673 H 2060.02 1.63794 3.5625 0
M  V30 22674 H 2061.51 0.804868 4.0977 0
M  V30 22675 N 2061.95 -1.07287 1.15444 0
M  V30 22676 C 2063.18 -1.83348 0.952215 0
M  V30 22677 C 2063.59 -1.82396 -0.50282 0
M  V30 22678 O 2062.93 -1.23432 -1.36052 0
M  V30 22679 C 2062.99 -3.31539 1.39004 0
M  V30 22680 C 2062.66 -3.56209 2.86293 0
M  V30 22681 C 2063.65 -3.50097 3.84354 0
M  V30 22682 C 2061.34 -3.83854 3.23977 0
M  V30 22683 C 2063.33 -3.7128 5.18102 0
M  V30 22684 C 2061.02 -4.04688 4.57898 0
M  V30 22685 C 2062.02 -3.98396 5.5477 0
M  V30 22686 O 2061.71 -4.18672 6.86271 0
M  V30 22687 H 2061.44 -0.585295 0.338239 0
M  V30 22688 H 2063.99 -1.36329 1.53634 0
M  V30 22689 H 2062.22 -3.79371 0.74932 0
M  V30 22690 H 2063.91 -3.89066 1.15682 0
M  V30 22691 H 2064.68 -3.28741 3.56587 0
M  V30 22692 H 2060.56 -3.87866 2.49161 0
M  V30 22693 H 2064.1 -3.66284 5.93702 0
M  V30 22694 H 2060 -4.25531 4.8538 0
M  V30 22695 H 2060.76 -4.36016 6.92699 0
M  V30 22696 N 2063.43 -0.951342 -1.25647 0
M  V30 22697 C 2064.68 -0.600038 -1.92568 0
M  V30 22698 C 2064.99 0.866499 -1.7536 0
M  V30 22699 O 2066.2 1.32762 -2.36826 0
M  V30 22700 C 2064.65 -1.02246 -3.45071 0
M  V30 22701 C 2064.26 -2.51131 -3.70995 0
M  V30 22702 C 2066 -0.743532 -4.17938 0
M  V30 22703 C 2063.91 -2.87191 -5.16987 0
M  V30 22704 H 2062.84 -0.220706 -0.720975 0
M  V30 22705 H 2065.49 -1.15535 -1.42562 0
M  V30 22706 H 2063.87 -0.395588 -3.94019 0
M  V30 22707 H 2065.05 -3.18809 -3.32712 0
M  V30 22708 H 2063.36 -2.76461 -3.11381 0
M  V30 22709 H 2065.96 -0.989148 -5.25471 0
M  V30 22710 H 2066.3 0.319973 -4.15069 0
M  V30 22711 H 2066.84 -1.3306 -3.74887 0
M  V30 22712 H 2063.57 -3.92545 -5.24965 0
M  V30 22713 H 2063.09 -2.24183 -5.56329 0
M  V30 22714 H 2064.77 -2.76205 -5.85081 0
M  V30 22715 N 2064.91 1.40216 -0.719531 0
M  V30 22716 C 2065.87 2.29067 -0.078186 0
M  V30 22717 C 2066.87 1.45561 0.683282 0
M  V30 22718 O 2068.06 1.66426 0.514598 0
M  V30 22719 C 2065.19 3.28832 0.899035 0
M  V30 22720 H 2066.38 2.87281 -0.860786 0
M  V30 22721 H 2063.94 1.48604 -0.48442 0
M  V30 22722 H 2064.67 2.75643 1.70855 0
M  V30 22723 H 2064.46 3.90482 0.355853 0
M  V30 22724 H 2065.95 3.95353 1.34483 0
M  V30 22725 N 2066.38 0.466004 1.50553 0
M  V30 22726 C 2067.66 -0.152071 1.95008 0
M  V30 22727 C 2068.04 -1.57451 1.40614 0
M  V30 22728 O 2067.39 -2.20345 0.605014 0
M  V30 22729 C 2067.6 -0.100584 3.48855 0
M  V30 22730 C 2068.95 -0.291998 4.23595 0
M  V30 22731 O 2069.97 -0.177401 3.55758 0
M  V30 22732 O 2068.83 -0.52288 5.43993 0
M  V30 22733 H 2065.92 -0.114439 0.819044 0
M  V30 22734 H 2068.47 0.526042 1.61341 0
M  V30 22735 H 2067.24 0.892745 3.8098 0
M  V30 22736 H 2066.86 -0.820375 3.89044 0
M  V30 22737 N 2067.86 -1.56346 0.198413 0
M  V30 22738 C 2068.81 -2.19245 -0.721128 0
M  V30 22739 C 2069.78 -1.14072 -1.20735 0
M  V30 22740 O 2070.96 -1.42336 -1.27063 0
M  V30 22741 C 2068.1 -2.85839 -1.93365 0
M  V30 22742 C 2067.22 -4.05546 -1.48849 0
M  V30 22743 C 2066.35 -4.59988 -2.65678 0
M  V30 22744 C 2065.39 -5.72046 -2.17784 0
M  V30 22745 N 2064.53 -6.20879 -3.27802 0
M  V30 22746 H 2069.37 -2.97468 -0.178003 0
M  V30 22747 H 2066.9 -1.46903 -0.076117 0
M  V30 22748 H 2068.86 -3.2262 -2.64522 0
M  V30 22749 H 2067.49 -2.10174 -2.45004 0
M  V30 22750 H 2066.54 -3.74405 -0.672674 0
M  V30 22751 H 2067.86 -4.86584 -1.09713 0
M  V30 22752 H 2067.01 -4.99092 -3.44952 0
M  V30 22753 H 2065.75 -3.78064 -3.08089 0
M  V30 22754 H 2064.75 -5.32467 -1.36964 0
M  V30 22755 H 2065.98 -6.5579 -1.76399 0
M  V30 22756 H 2063.93 -5.41876 -3.69738 0
M  V30 22757 H 2063.84 -6.96977 -2.92845 0
M  V30 22758 H 2065.11 -6.64637 -4.07281 0
M  V30 22759 N 2069.34 0.0751653 -1.57421 0
M  V30 22760 C 2070.59 0.776106 -1.87362 0
M  V30 22761 C 2070.92 1.77394 -0.790247 0
M  V30 22762 O 2070.19 1.93471 0.199817 0
M  V30 22763 C 2070.48 1.4871 -3.27959 0
M  V30 22764 C 2070.33 0.505905 -4.46946 0
M  V30 22765 C 2071.65 2.43284 -3.66744 0
M  V30 22766 H 2068.77 0.280684 -0.681458 0
M  V30 22767 H 2071.41 0.0393497 -1.89959 0
M  V30 22768 H 2069.56 2.11512 -3.25876 0
M  V30 22769 H 2071.23 -0.116642 -4.61153 0
M  V30 22770 H 2069.48 -0.179057 -4.3343 0
M  V30 22771 H 2070.15 1.04094 -5.42096 0
M  V30 22772 H 2072.62 1.90562 -3.69899 0
M  V30 22773 H 2071.5 2.90037 -4.66015 0
M  V30 22774 H 2071.76 3.27938 -2.96494 0
M  V30 22775 N 2070.82 1.53744 0.346476 0
M  V30 22776 C 2072.1 1.61474 1.10388 0
M  V30 22777 C 2072.48 0.434154 2.06587 0
M  V30 22778 O 2071.82 -0.573858 2.21177 0
M  V30 22779 C 2072.03 2.97411 1.82613 0
M  V30 22780 C 2073.38 3.52662 2.36462 0
M  V30 22781 O 2074.41 2.99567 1.92713 0
M  V30 22782 O 2073.26 4.45528 3.16492 0
M  V30 22783 H 2070.36 0.652991 0.507476 0
M  V30 22784 H 2072.9 1.66089 0.348204 0
M  V30 22785 H 2071.68 3.74775 1.12514 0
M  V30 22786 H 2071.3 2.96373 2.65045 0
M  V30 22787 N 2072.3 -0.607329 1.45428 0
M  V30 22788 C 2073.26 -1.69997 1.53732 0
M  V30 22789 C 2074.26 -1.55304 0.416799 0
M  V30 22790 O 2075.45 -1.60367 0.680287 0
M  V30 22791 C 2072.58 -3.09267 1.43411 0
M  V30 22792 H 2073.77 -1.64001 2.51085 0
M  V30 22793 H 2071.33 -0.82308 1.32872 0
M  V30 22794 H 2072.06 -3.2084 0.47243 0
M  V30 22795 H 2071.85 -3.2134 2.24685 0
M  V30 22796 H 2073.34 -3.88855 1.52255 0
M  V30 22797 N 2073.77 -1.32722 -0.849853 0
M  V30 22798 C 2074.74 -1.21991 -1.94038 0
M  V30 22799 C 2075.74 -0.141727 -1.60174 0
M  V30 22800 O 2076.93 -0.392477 -1.69721 0
M  V30 22801 C 2074.06 -0.877223 -3.2942 0
M  V30 22802 H 2075.25 -2.18913 -2.04981 0
M  V30 22803 H 2072.81 -1.16623 -1.04062 0
M  V30 22804 H 2073.54 0.0899704 -3.24175 0
M  V30 22805 H 2073.33 -1.65681 -3.55376 0
M  V30 22806 H 2074.82 -0.826588 -4.09338 0
M  V30 22807 N 2075.25 1.06673 -1.16011 0
M  V30 22808 C 2076.18 2.13994 -0.820931 0
M  V30 22809 C 2077.2 1.61909 0.170124 0
M  V30 22810 O 2078.39 1.78418 -0.0540947 0
M  V30 22811 C 2075.49 3.38304 -0.200883 0
M  V30 22812 C 2074.66 4.19718 -1.23108 0
M  V30 22813 C 2073.72 5.22396 -0.631544 0
M  V30 22814 O 2072.74 5.54171 -1.29936 0
M  V30 22815 N 2073.95 5.7756 0.583519 0
M  V30 22816 H 2076.71 2.43691 -1.74456 0
M  V30 22817 H 2074.27 1.2264 -1.05693 0
M  V30 22818 H 2076.26 4.04138 0.213139 0
M  V30 22819 H 2074.83 3.06263 0.626218 0
M  V30 22820 H 2074.05 3.49597 -1.82142 0
M  V30 22821 H 2075.34 4.7092 -1.92644 0
M  V30 22822 H 2074.74 5.54005 1.14432 0
M  V30 22823 H 2073.3 6.44989 0.939804 0
M  V30 22824 N 2076.73 0.957992 1.25141 0
M  V30 22825 C 2077.66 0.425072 2.24206 0
M  V30 22826 C 2078.64 -0.495458 1.54868 0
M  V30 22827 O 2079.83 -0.429066 1.83552 0
M  V30 22828 C 2076.95 -0.387415 3.36477 0
M  V30 22829 C 2076 0.473995 4.23858 0
M  V30 22830 S 2076.83 1.90829 5.00344 0
M  V30 22831 C 2077.99 1.10432 6.16081 0
M  V30 22832 H 2078.22 1.26461 2.69063 0
M  V30 22833 H 2075.75 0.762309 1.34269 0
M  V30 22834 H 2077.71 -0.850242 4.01598 0
M  V30 22835 H 2076.37 -1.20182 2.90198 0
M  V30 22836 H 2075.57 -0.149333 5.03779 0
M  V30 22837 H 2075.17 0.872164 3.63688 0
M  V30 22838 H 2077.46 0.354618 6.76571 0
M  V30 22839 H 2078.4 1.87757 6.82754 0
M  V30 22840 H 2078.81 0.632973 5.6094 0
M  V30 22841 N 2078.21 -1.39832 0.726957 0
M  V30 22842 C 2079.62 -1.83534 0.342368 0
M  V30 22843 C 2079.97 -1.6075 -1.12489 0
M  V30 22844 O 2079.1 -1.09438 -1.86688 0
M  V30 22845 C 2079.69 -3.33178 0.614625 0
M  V30 22846 C 2078.25 -3.7533 0.283621 0
M  V30 22847 C 2077.4 -2.62923 0.881297 0
M  V30 22848 H 2080.35 -1.28939 0.925229 0
M  V30 22849 H 2080.37 -3.80322 -0.116329 0
M  V30 22850 H 2079.88 -3.49729 1.68259 0
M  V30 22851 H 2077.98 -3.64369 -0.778826 0
M  V30 22852 H 2078.09 -4.73025 0.760562 0
M  V30 22853 H 2076.46 -2.52825 0.308504 0
M  V30 22854 H 2077.24 -2.82282 1.95375 0
M  V30 22855 N 2079.69 -0.473982 -1.50304 0
M  V30 22856 C 2080.62 0.355019 -2.26434 0
M  V30 22857 C 2081.63 0.954546 -1.3188 0
M  V30 22858 O 2082.82 0.842462 -1.57368 0
M  V30 22859 C 2079.92 1.51219 -3.03292 0
M  V30 22860 C 2079.09 1.02492 -4.25222 0
M  V30 22861 C 2078.15 2.05649 -4.8435 0
M  V30 22862 O 2077.18 1.63594 -5.45184 0
M  V30 22863 N 2078.38 3.38481 -4.71605 0
M  V30 22864 H 2081.15 -0.297646 -2.98218 0
M  V30 22865 H 2078.71 -0.304934 -1.59002 0
M  V30 22866 H 2080.7 2.19927 -3.39726 0
M  V30 22867 H 2079.27 2.0695 -2.34287 0
M  V30 22868 H 2078.49 0.16363 -3.9386 0
M  V30 22869 H 2079.78 0.677339 -5.04271 0
M  V30 22870 H 2079.17 3.75356 -4.23231 0
M  V30 22871 H 2077.73 4.02979 -5.123 0
M  V30 22872 N 2081.16 1.56239 -0.206702 0
M  V30 22873 C 2082.07 2.2324 0.721172 0
M  V30 22874 C 2083.09 1.2352 1.22552 0
M  V30 22875 O 2084.27 1.56291 1.27025 0
M  V30 22876 C 2081.33 2.88767 1.91871 0
M  V30 22877 C 2080.39 4.03791 1.45779 0
M  V30 22878 C 2079.63 4.66183 2.59825 0
M  V30 22879 O 2079.85 4.27524 3.77597 0
M  V30 22880 O 2078.78 5.55444 2.31874 0
M  V30 22881 H 2082.61 3.03163 0.180488 0
M  V30 22882 H 2080.19 1.49382 0.0231036 0
M  V30 22883 H 2082.08 3.30181 2.61837 0
M  V30 22884 H 2080.75 2.11815 2.44777 0
M  V30 22885 H 2079.66 3.66976 0.726587 0
M  V30 22886 H 2080.99 4.82441 0.975269 0
M  V30 22887 N 2082.64 -0.0668159 1.57458 0
M  V30 22888 C 2083.61 -1.06329 2.03044 0
M  V30 22889 C 2084.61 -1.31301 0.928259 0
M  V30 22890 O 2085.8 -1.26938 1.193 0
M  V30 22891 C 2082.93 -2.40573 2.41532 0
M  V30 22892 H 2084.12 -0.67029 2.92313 0
M  V30 22893 H 2081.67 -0.312678 1.53141 0
M  V30 22894 H 2082.41 -2.84695 1.55303 0
M  V30 22895 H 2082.19 -2.23788 3.21965 0
M  V30 22896 H 2083.68 -3.12189 2.77359 0
M  V30 22897 N 2084.12 -1.53926 -0.338317 0
M  V30 22898 C 2085.05 -1.78601 -1.43647 0
M  V30 22899 C 2086.07 -0.667465 -1.48488 0
M  V30 22900 O 2087.26 -0.944299 -1.51477 0
M  V30 22901 C 2084.36 -1.87548 -2.82274 0
M  V30 22902 C 2083.53 -3.17539 -3.00811 0
M  V30 22903 C 2082.59 -3.17377 -4.19712 0
M  V30 22904 O 2081.61 -3.91078 -4.13578 0
M  V30 22905 N 2082.82 -2.40116 -5.28512 0
M  V30 22906 H 2085.58 -2.73365 -1.22849 0
M  V30 22907 H 2083.14 -1.5304 -0.528227 0
M  V30 22908 H 2085.13 -1.84885 -3.6 0
M  V30 22909 H 2083.7 -0.999475 -2.96191 0
M  V30 22910 H 2082.92 -3.33284 -2.10512 0
M  V30 22911 H 2084.21 -4.03394 -3.10082 0
M  V30 22912 H 2083.61 -1.79799 -5.36366 0
M  V30 22913 H 2082.17 -2.43245 -6.04711 0
M  V30 22914 N 2085.6 0.599608 -1.45748 0
M  V30 22915 C 2086.55 1.70982 -1.55028 0
M  V30 22916 C 2087.52 1.61319 -0.395631 0
M  V30 22917 O 2088.7 1.80781 -0.610146 0
M  V30 22918 C 2085.84 3.09304 -1.53052 0
M  V30 22919 C 2084.95 3.29715 -2.79127 0
M  V30 22920 C 2084.09 4.58189 -2.68769 0
M  V30 22921 C 2083.13 4.71885 -3.89861 0
M  V30 22922 N 2082.27 5.91666 -3.77989 0
M  V30 22923 H 2087.11 1.62387 -2.49869 0
M  V30 22924 H 2084.64 0.791687 -1.23979 0
M  V30 22925 H 2086.6 3.89343 -1.49893 0
M  V30 22926 H 2085.23 3.16838 -0.617561 0
M  V30 22927 H 2084.28 2.43397 -2.92339 0
M  V30 22928 H 2085.59 3.35707 -3.68921 0
M  V30 22929 H 2084.75 5.46433 -2.63621 0
M  V30 22930 H 2083.49 4.54608 -1.76587 0
M  V30 22931 H 2082.49 3.82062 -3.95359 0
M  V30 22932 H 2083.72 4.77257 -4.83118 0
M  V30 22933 H 2081.66 5.89115 -2.88582 0
M  V30 22934 H 2081.58 5.98853 -4.61423 0
M  V30 22935 H 2082.85 6.82387 -3.76787 0
M  V30 22936 N 2087.08 1.33171 0.842803 0
M  V30 22937 C 2088.33 1.23754 1.59273 0
M  V30 22938 C 2088.64 -0.196137 1.94614 0
M  V30 22939 O 2089.85 -0.412282 2.68351 0
M  V30 22940 C 2088.3 2.16819 2.87259 0
M  V30 22941 C 2087.91 3.65335 2.59296 0
M  V30 22942 C 2089.65 2.16266 3.6528 0
M  V30 22943 C 2087.56 4.50325 3.83355 0
M  V30 22944 H 2086.49 0.459639 0.597702 0
M  V30 22945 H 2089.14 1.5821 0.929616 0
M  V30 22946 H 2087.52 1.75291 3.5509 0
M  V30 22947 H 2088.7 4.15278 1.99701 0
M  V30 22948 H 2087.01 3.68138 1.94586 0
M  V30 22949 H 2089.61 2.76995 4.57359 0
M  V30 22950 H 2089.95 1.1567 3.99908 0
M  V30 22951 H 2090.49 2.56135 3.04368 0
M  V30 22952 H 2087.22 5.51781 3.53861 0
M  V30 22953 H 2086.74 4.05127 4.42303 0
M  V30 22954 H 2088.42 4.6393 4.50975 0
M  V30 22955 N 2088.56 -1.06056 1.16576 0
M  V30 22956 C 2089.49 -2.13555 0.832268 0
M  V30 22957 C 2090.5 -1.61997 -0.161536 0
M  V30 22958 O 2091.69 -1.78387 0.0635559 0
M  V30 22959 C 2088.79 -3.38193 0.218821 0
M  V30 22960 C 2087.96 -4.19059 1.25332 0
M  V30 22961 C 2087.02 -5.22054 0.659239 0
M  V30 22962 O 2086.05 -5.53474 1.32874 0
M  V30 22963 N 2087.25 -5.77861 -0.552882 0
M  V30 22964 H 2090.01 -2.42762 1.75745 0
M  V30 22965 H 2087.58 -1.22078 1.06342 0
M  V30 22966 H 2089.57 -4.04246 -0.191703 0
M  V30 22967 H 2088.14 -3.06591 -0.609967 0
M  V30 22968 H 2087.36 -3.48626 1.83993 0
M  V30 22969 H 2088.65 -4.69892 1.95139 0
M  V30 22970 H 2088.04 -5.54604 -1.11493 0
M  V30 22971 H 2086.6 -6.45478 -0.905585 0
M  V30 22972 N 2090.03 -0.964615 -1.24631 0
M  V30 22973 C 2091.26 -0.641907 -1.97216 0
M  V30 22974 C 2091.68 0.781279 -1.71107 0
M  V30 22975 O 2091.04 1.52981 -0.972952 0
M  V30 22976 C 2091.09 -0.918908 -3.48695 0
M  V30 22977 O 2090.19 -0.00276058 -4.124 0
M  V30 22978 H 2089.53 -0.243001 -0.617937 0
M  V30 22979 H 2092.06 -1.29393 -1.58489 0
M  V30 22980 H 2092.07 -0.849197 -3.99065 0
M  V30 22981 H 2090.75 -1.95612 -3.67027 0
M  V30 22982 H 2089.33 -0.125529 -3.72689 0
M  V30 22983 N 2091.51 1.39445 -0.734362 0
M  V30 22984 C 2092.79 1.94487 -0.208359 0
M  V30 22985 C 2093.17 1.6712 1.28974 0
M  V30 22986 O 2092.52 0.999082 2.05501 0
M  V30 22987 C 2092.73 3.44777 -0.541289 0
M  V30 22988 C 2094.07 4.2176 -0.490275 0
M  V30 22989 O 2095.1 3.52972 -0.478443 0
M  V30 22990 O 2093.96 5.4435 -0.48425 0
M  V30 22991 H 2091.05 0.826136 -0.037802 0
M  V30 22992 H 2093.6 1.48948 -0.813177 0
M  V30 22993 H 2092.37 3.58128 -1.5767 0
M  V30 22994 H 2091.99 3.97492 0.0925302 0
M  V30 22995 N 2092.99 0.481946 1.5005 0
M  V30 22996 C 2093.92 -0.296253 2.31613 0
M  V30 22997 C 2094.9 -0.98032 1.3901 0
M  V30 22998 O 2096.09 -0.975402 1.67927 0
M  V30 22999 C 2093.22 -1.37231 3.19037 0
M  V30 23000 C 2092.17 -0.809232 4.2028 0
M  V30 23001 C 2091.5 -1.98439 4.96514 0
M  V30 23002 C 2092.8 0.18685 5.21966 0
M  V30 23003 H 2094.49 0.384509 2.96921 0
M  V30 23004 H 2092.04 0.186362 1.42789 0
M  V30 23005 H 2093.99 -1.92429 3.74899 0
M  V30 23006 H 2092.71 -2.082 2.51636 0
M  V30 23007 H 2091.37 -0.279145 3.65536 0
M  V30 23008 H 2091.02 -2.68131 4.25576 0
M  V30 23009 H 2090.72 -1.6138 5.65005 0
M  V30 23010 H 2092.24 -2.54107 5.55213 0
M  V30 23011 H 2093.66 -0.276326 5.72634 0
M  V30 23012 H 2092.05 0.472282 5.98239 0
M  V30 23013 H 2093.12 1.10915 4.72044 0
M  V30 23014 N 2094.47 -1.56127 0.214985 0
M  V30 23015 C 2095.7 -2.02519 -0.423533 0
M  V30 23016 C 2096.11 -1.0949 -1.5381 0
M  V30 23017 O 2095.47 -0.103303 -1.82207 0
M  V30 23018 C 2095.52 -3.48484 -0.961313 0
M  V30 23019 O 2095.24 -4.37965 0.108806 0
M  V30 23020 C 2096.74 -4.10489 -1.67373 0
M  V30 23021 H 2093.96 -0.662835 -0.104359 0
M  V30 23022 H 2096.5 -2.01828 0.329517 0
M  V30 23023 H 2094.66 -3.49811 -1.66466 0
M  V30 23024 H 2095.07 -5.23673 -0.294413 0
M  V30 23025 H 2096.55 -5.14412 -2.00209 0
M  V30 23026 H 2097.02 -3.55102 -2.58455 0
M  V30 23027 H 2097.63 -4.12992 -1.01575 0
M  V30 23028 N 2095.95 0.0584645 -1.57492 0
M  V30 23029 C 2097.17 0.771417 -1.9252 0
M  V30 23030 C 2097.6 1.69644 -0.812561 0
M  V30 23031 O 2096.95 1.79786 0.233784 0
M  V30 23032 C 2097 1.52975 -3.26544 0
M  V30 23033 O 2096.11 2.64128 -3.16718 0
M  V30 23034 H 2095.45 0.209569 -0.630061 0
M  V30 23035 H 2097.98 0.022721 -2.04587 0
M  V30 23036 H 2097.99 1.90612 -3.60737 0
M  V30 23037 H 2096.66 0.851136 -4.07098 0
M  V30 23038 H 2095.24 2.29251 -2.94106 0
M  V30 23039 N 2097.42 1.54103 0.330149 0
M  V30 23040 C 2098.37 1.7941 1.40698 0
M  V30 23041 C 2099.36 0.649833 1.47194 0
M  V30 23042 O 2100.55 0.909637 1.51837 0
M  V30 23043 C 2097.68 2.01906 2.77649 0
M  V30 23044 C 2096.76 3.22436 2.75492 0
M  V30 23045 N 2097.16 4.43627 2.42959 0
M  V30 23046 C 2095.45 3.23876 3.06628 0
M  V30 23047 C 2096.15 5.25536 2.49372 0
M  V30 23048 N 2095.13 4.62564 2.85544 0
M  V30 23049 H 2098.93 2.70694 1.14463 0
M  V30 23050 H 2096.45 1.53209 0.538595 0
M  V30 23051 H 2098.44 2.18174 3.55255 0
M  V30 23052 H 2097.1 1.11872 3.04819 0
M  V30 23053 H 2098.11 4.70743 2.1592 0
M  V30 23054 H 2094.79 2.43854 3.38883 0
M  V30 23055 H 2096.18 6.32297 2.27265 0
M  V30 23056 N 2098.9 -0.59187 1.46064 0
M  V30 23057 C 2099.81 -1.72959 1.585 0
M  V30 23058 C 2100.83 -1.67565 0.468813 0
M  V30 23059 O 2102 -1.87639 0.731679 0
M  V30 23060 C 2099.07 -3.09451 1.56336 0
M  V30 23061 C 2098.13 -3.26179 2.79117 0
M  V30 23062 C 2097.36 -4.56159 2.77046 0
M  V30 23063 O 2097.59 -5.39474 1.85268 0
M  V30 23064 O 2096.52 -4.75937 3.68466 0
M  V30 23065 H 2100.35 -1.65416 2.54699 0
M  V30 23066 H 2097.93 -0.757834 1.28753 0
M  V30 23067 H 2099.81 -3.90742 1.57793 0
M  V30 23068 H 2098.49 -3.17451 0.632949 0
M  V30 23069 H 2097.4 -2.44416 2.83217 0
M  V30 23070 H 2098.73 -3.23064 3.71336 0
M  V30 23071 N 2100.38 -1.33616 -0.835729 0
M  V30 23072 C 2101.63 -1.24597 -1.58614 0
M  V30 23073 C 2101.94 0.185813 -1.94715 0
M  V30 23074 O 2103.15 0.398045 -2.68566 0
M  V30 23075 C 2101.6 -2.18339 -2.86105 0
M  V30 23076 C 2101.21 -3.66705 -2.57355 0
M  V30 23077 C 2102.96 -2.182 -3.64128 0
M  V30 23078 C 2100.86 -4.52352 -3.80962 0
M  V30 23079 H 2099.79 -0.462802 -0.595256 0
M  V30 23080 H 2102.44 -1.58701 -0.921212 0
M  V30 23081 H 2100.83 -1.77172 -3.54156 0
M  V30 23082 H 2102 -4.16331 -1.97496 0
M  V30 23083 H 2100.32 -3.69164 -1.92631 0
M  V30 23084 H 2102.91 -2.79417 -4.55884 0
M  V30 23085 H 2103.26 -1.17789 -3.99289 0
M  V30 23086 H 2103.79 -2.57745 -3.03005 0
M  V30 23087 H 2100.53 -5.5365 -3.5093 0
M  V30 23088 H 2100.05 -4.07467 -4.40149 0
M  V30 23089 H 2101.73 -4.66315 -4.48508 0
M  V30 23090 N 2101.86 1.05436 -1.17136 0
M  V30 23091 C 2103.08 1.82612 -0.983237 0
M  V30 23092 C 2103.51 1.82295 0.463697 0
M  V30 23093 O 2102.87 1.23011 1.33184 0
M  V30 23094 C 2102.91 3.26726 -1.52587 0
M  V30 23095 O 2102.02 4.05743 -0.737979 0
M  V30 23096 H 2101.36 0.564713 -0.349279 0
M  V30 23097 H 2103.89 1.3288 -1.55576 0
M  V30 23098 H 2103.9 3.77531 -1.54708 0
M  V30 23099 H 2102.57 3.26271 -2.57915 0
M  V30 23100 H 2101.15 3.64479 -0.78798 0
M  V30 23101 N 2103.34 0.971211 1.24118 0
M  V30 23102 C 2104.27 0.523167 2.27564 0
M  V30 23103 C 2105.25 -0.438983 1.64338 0
M  V30 23104 O 2106.43 -0.334345 1.913 0
M  V30 23105 C 2103.56 -0.184078 3.46812 0
M  V30 23106 C 2102.52 0.694439 4.22329 0
M  V30 23107 C 2101.84 -0.144498 5.34505 0
M  V30 23108 C 2103.14 1.98076 4.83284 0
M  V30 23109 H 2104.84 1.3878 2.65293 0
M  V30 23110 H 2102.38 0.668756 1.27529 0
M  V30 23111 H 2104.34 -0.508765 4.18318 0
M  V30 23112 H 2103.06 -1.08309 3.08118 0
M  V30 23113 H 2101.72 1.00245 3.52628 0
M  V30 23114 H 2101.37 -1.04377 4.92051 0
M  V30 23115 H 2101.07 0.440127 5.85949 0
M  V30 23116 H 2102.59 -0.463776 6.08836 0
M  V30 23117 H 2104 1.72143 5.46845 0
M  V30 23118 H 2102.4 2.5124 5.44976 0
M  V30 23119 H 2103.47 2.67346 4.04542 0
M  V30 23120 N 2104.81 -1.39054 0.741747 0
M  V30 23121 C 2105.72 -2.34352 0.107946 0
M  V30 23122 C 2106.74 -1.58666 -0.71422 0
M  V30 23123 O 2107.92 -1.90923 -0.641124 0
M  V30 23124 C 2104.98 -3.3773 -0.783547 0
M  V30 23125 C 2104.04 -4.29269 0.0516392 0
M  V30 23126 C 2103.28 -5.27709 -0.797398 0
M  V30 23127 O 2103.5 -5.3283 -2.03588 0
M  V30 23128 O 2102.43 -6.01489 -0.222478 0
M  V30 23129 H 2106.26 -2.90223 0.894677 0
M  V30 23130 H 2103.84 -1.40696 0.502494 0
M  V30 23131 H 2105.73 -4.01059 -1.29342 0
M  V30 23132 H 2104.4 -2.84233 -1.54898 0
M  V30 23133 H 2103.31 -3.6914 0.607193 0
M  V30 23134 H 2104.64 -4.85989 0.779446 0
M  V30 23135 N 2106.29 -0.489897 -1.49792 0
M  V30 23136 C 2107.2 0.29927 -2.32683 0
M  V30 23137 C 2108.22 0.978042 -1.43911 0
M  V30 23138 O 2109.39 0.961875 -1.76946 0
M  V30 23139 C 2106.46 1.35623 -3.19073 0
M  V30 23140 C 2105.52 0.692067 -4.23685 0
M  V30 23141 C 2104.75 1.69866 -5.05946 0
M  V30 23142 O 2104.98 2.92732 -4.89555 0
M  V30 23143 O 2103.91 1.2601 -5.88562 0
M  V30 23144 H 2107.74 -0.378894 -3.01327 0
M  V30 23145 H 2105.32 -0.251411 -1.47269 0
M  V30 23146 H 2107.2 1.96801 -3.72622 0
M  V30 23147 H 2105.88 2.01752 -2.53136 0
M  V30 23148 H 2104.79 0.040831 -3.74078 0
M  V30 23149 H 2106.12 0.0734074 -4.92145 0
M  V30 23150 N 2107.77 1.56011 -0.223262 0
M  V30 23151 C 2108.7 2.16337 0.726193 0
M  V30 23152 C 2109.68 1.10827 1.18979 0
M  V30 23153 O 2110.87 1.39092 1.27223 0
M  V30 23154 C 2107.99 2.74503 1.98408 0
M  V30 23155 C 2107.04 3.92856 1.66031 0
M  V30 23156 S 2107.87 5.29736 0.783603 0
M  V30 23157 C 2109.03 5.91341 2.05102 0
M  V30 23158 H 2109.26 2.96533 0.213451 0
M  V30 23159 H 2106.79 1.54398 -0.00793866 0
M  V30 23160 H 2108.75 3.08655 2.70634 0
M  V30 23161 H 2107.41 1.94297 2.46794 0
M  V30 23162 H 2106.61 4.32063 2.59495 0
M  V30 23163 H 2106.21 3.5986 1.01867 0
M  V30 23164 H 2108.5 6.07419 3.00082 0
M  V30 23165 H 2109.44 6.87321 1.70283 0
M  V30 23166 H 2109.85 5.2019 2.19233 0
M  V30 23167 N 2109.25 -0.0501116 1.5752 0
M  V30 23168 C 2110.2 -1.05718 2.05164 0
M  V30 23169 C 2111.17 -1.37182 0.936492 0
M  V30 23170 O 2112.35 -1.4788 1.20565 0
M  V30 23171 C 2109.49 -2.3594 2.51846 0
M  V30 23172 C 2108.6 -2.10818 3.77067 0
M  V30 23173 C 2107.74 -3.34759 4.12444 0
M  V30 23174 C 2106.78 -3.05097 5.30643 0
M  V30 23175 N 2105.91 -4.21429 5.61553 0
M  V30 23176 H 2110.75 -0.643931 2.9096 0
M  V30 23177 H 2108.29 -0.30636 1.43874 0
M  V30 23178 H 2110.25 -3.11999 2.7697 0
M  V30 23179 H 2108.88 -2.75027 1.68997 0
M  V30 23180 H 2107.93 -1.25352 3.59153 0
M  V30 23181 H 2109.24 -1.84923 4.63255 0
M  V30 23182 H 2108.4 -4.19199 4.38585 0
M  V30 23183 H 2107.14 -3.63748 3.24867 0
M  V30 23184 H 2106.14 -2.19056 5.04276 0
M  V30 23185 H 2107.37 -2.77407 6.19856 0
M  V30 23186 H 2105.31 -4.5041 4.76935 0
M  V30 23187 H 2105.23 -3.98884 6.42205 0
M  V30 23188 H 2106.5 -5.06804 5.92258 0
M  V30 23189 N 2110.73 -1.54276 -0.321972 0
M  V30 23190 C 2111.67 -1.83772 -1.3963 0
M  V30 23191 C 2112.64 -0.684941 -1.5132 0
M  V30 23192 O 2113.83 -0.931526 -1.66515 0
M  V30 23193 C 2110.97 -2.07212 -2.75966 0
M  V30 23194 C 2110.08 -3.34892 -2.72895 0
M  V30 23195 C 2109.22 -3.48284 -4.01088 0
M  V30 23196 C 2108.26 -4.69833 -3.9233 0
M  V30 23197 N 2107.39 -4.80144 -5.12256 0
M  V30 23198 H 2112.23 -2.75425 -1.13777 0
M  V30 23199 H 2109.77 -1.36401 -0.550737 0
M  V30 23200 H 2111.73 -2.18794 -3.55225 0
M  V30 23201 H 2110.36 -1.18848 -3.00125 0
M  V30 23202 H 2109.41 -3.32039 -1.85618 0
M  V30 23203 H 2110.72 -4.2426 -2.62307 0
M  V30 23204 H 2109.88 -3.59417 -4.88778 0
M  V30 23205 H 2108.61 -2.57011 -4.14483 0
M  V30 23206 H 2107.62 -4.58755 -3.03024 0
M  V30 23207 H 2108.84 -5.62492 -3.80498 0
M  V30 23208 H 2106.79 -3.91787 -5.26155 0
M  V30 23209 H 2106.71 -5.6348 -5.0401 0
M  V30 23210 H 2107.98 -4.9561 -6.01657 0
M  V30 23211 N 2112.2 0.584116 -1.46376 0
M  V30 23212 C 2113.15 1.68815 -1.5325 0
M  V30 23213 C 2114.14 1.56013 -0.393561 0
M  V30 23214 O 2115.33 1.64951 -0.641886 0
M  V30 23215 C 2112.46 3.07599 -1.5244 0
M  V30 23216 C 2111.55 3.25703 -2.71622 0
M  V30 23217 N 2111.94 3.13972 -3.96555 0
M  V30 23218 C 2110.23 3.56638 -2.67816 0
M  V30 23219 C 2110.94 3.34042 -4.76226 0
M  V30 23220 N 2109.91 3.59131 -4.08075 0
M  V30 23221 H 2113.71 1.58273 -2.47642 0
M  V30 23222 H 2111.23 0.788103 -1.41995 0
M  V30 23223 H 2113.22 3.86834 -1.55452 0
M  V30 23224 H 2111.88 3.19272 -0.591231 0
M  V30 23225 H 2112.9 2.91868 -4.27824 0
M  V30 23226 H 2109.57 3.75004 -1.83516 0
M  V30 23227 H 2110.96 3.30167 -5.85183 0
M  V30 23228 N 2113.68 1.34058 0.828631 0
M  V30 23229 C 2114.63 1.25159 1.96056 0
M  V30 23230 C 2115.63 0.150843 1.68727 0
M  V30 23231 O 2116.83 0.315456 1.77214 0
M  V30 23232 H 2113.21 0.388669 0.643771 0
M  V30 23233 H 2115.18 2.20835 2.00685 0
M  V30 23234 C 2113.93 1.0181 3.32461 0
M  V30 23235 H 2113.25 1.8574 3.54035 0
M  V30 23236 H 2114.69 0.996172 4.12132 0
M  V30 23237 C 2113.15 -0.278758 3.35745 0
M  V30 23238 O 2113.68 -1.28204 3.80692 0
M  V30 23239 N 2111.88 -0.309877 2.88943 0
M  V30 23240 H 2111.43 0.507134 2.52559 0
M  V30 23241 H 2111.39 -1.17737 2.91523 0
M  V30 23242 N 2115.16 -1.04814 1.17694 0
M  V30 23243 C 2116.09 -2.12661 0.854872 0
M  V30 23244 C 2117.11 -1.62159 -0.144345 0
M  V30 23245 O 2118.3 -1.78309 0.0824726 0
M  V30 23246 C 2115.4 -3.37942 0.254679 0
M  V30 23247 C 2114.57 -4.17706 1.2977 0
M  V30 23248 C 2113.63 -5.21326 0.714573 0
M  V30 23249 O 2112.65 -5.52033 1.38736 0
M  V30 23250 N 2113.86 -5.78415 -0.491561 0
M  V30 23251 H 2116.62 -2.40885 1.7831 0
M  V30 23252 H 2114.18 -1.20943 1.0763 0
M  V30 23253 H 2116.17 -4.04426 -0.148817 0
M  V30 23254 H 2114.74 -3.07221 -0.577415 0
M  V30 23255 H 2113.96 -3.46655 1.8768 0
M  V30 23256 H 2115.25 -4.67796 2.00112 0
M  V30 23257 H 2114.65 -5.55756 -1.05604 0
M  V30 23258 H 2113.21 -6.46403 -0.837072 0
M  V30 23259 N 2116.64 -0.977779 -1.23601 0
M  V30 23260 C 2117.89 -0.643936 -1.91567 0
M  V30 23261 C 2118.21 0.824798 -1.76698 0
M  V30 23262 O 2117.48 1.58974 -1.14473 0
M  V30 23263 H 2116.06 -0.235177 -0.709014 0
M  V30 23264 H 2118.72 -1.24103 -1.50282 0
M  V30 23265 H 2117.82 -0.893282 -2.99043 0
M  V30 23266 N 2118.12 1.38658 -0.749111 0
M  V30 23267 C 2119.06 2.30496 -0.118423 0
M  V30 23268 C 2120.03 1.49947 0.714492 0
M  V30 23269 O 2121.22 1.78591 0.671546 0
M  V30 23270 C 2118.36 3.3635 0.772186 0
M  V30 23271 C 2117.47 4.31935 -0.0748716 0
M  V30 23272 C 2116.61 5.24859 0.818323 0
M  V30 23273 C 2115.65 6.12091 -0.0326386 0
M  V30 23274 N 2114.78 6.97327 0.817267 0
M  V30 23275 H 2119.62 2.83856 -0.90718 0
M  V30 23276 H 2117.16 1.39755 -0.459001 0
M  V30 23277 H 2119.12 3.96326 1.30313 0
M  V30 23278 H 2117.75 2.84411 1.52677 0
M  V30 23279 H 2116.8 3.73458 -0.723395 0
M  V30 23280 H 2118.11 4.93396 -0.732237 0
M  V30 23281 H 2117.27 5.8993 1.4166 0
M  V30 23282 H 2116.01 4.63754 1.50943 0
M  V30 23283 H 2115.01 5.4602 -0.643614 0
M  V30 23284 H 2116.24 6.75264 -0.720742 0
M  V30 23285 H 2114.18 6.38775 1.49341 0
M  V30 23286 H 2114.1 7.55689 0.216698 0
M  V30 23287 H 2115.37 7.66813 1.40066 0
M  V30 23288 N 2119.6 0.497834 1.49531 0
M  V30 23289 C 2120.51 -0.286926 2.32839 0
M  V30 23290 C 2121.52 -0.970397 1.44427 0
M  V30 23291 O 2122.7 -0.952478 1.77454 0
M  V30 23292 C 2119.76 -1.33928 3.19788 0
M  V30 23293 C 2118.82 -0.669588 4.24046 0
M  V30 23294 C 2118.06 -1.67181 5.0684 0
M  V30 23295 O 2118.28 -2.90132 4.91101 0
M  V30 23296 O 2117.21 -1.22887 5.89222 0
M  V30 23297 H 2121.04 0.394869 3.01122 0
M  V30 23298 H 2118.62 0.259218 1.47134 0
M  V30 23299 H 2120.51 -1.94822 3.73661 0
M  V30 23300 H 2119.18 -2.00407 2.54202 0
M  V30 23301 H 2118.09 -0.0209922 3.74094 0
M  V30 23302 H 2119.42 -0.0473067 4.92177 0
M  V30 23303 N 2121.07 -1.5589 0.231532 0
M  V30 23304 C 2122.04 -2.19461 -0.661012 0
M  V30 23305 C 2123.04 -1.15936 -1.11424 0
M  V30 23306 O 2124.23 -1.41111 -1.02144 0
M  V30 23307 C 2121.36 -2.82592 -1.90669 0
M  V30 23308 H 2122.55 -2.9971 -0.106607 0
M  V30 23309 H 2120.1 -1.5629 -0.0180602 0
M  V30 23310 H 2120.84 -2.06239 -2.50272 0
M  V30 23311 H 2120.62 -3.58412 -1.59007 0
M  V30 23312 H 2122.11 -3.3129 -2.54238 0
M  V30 23313 N 2122.55 0.0417572 -1.57545 0
M  V30 23314 C 2123.51 1.03085 -2.0471 0
M  V30 23315 C 2124.51 1.29808 -0.94903 0
M  V30 23316 O 2125.7 1.25024 -1.21304 0
M  V30 23317 C 2122.84 2.367 -2.45329 0
M  V30 23318 H 2124.03 0.623701 -2.93343 0
M  V30 23319 H 2121.58 0.288275 -1.53619 0
M  V30 23320 H 2122.32 2.82188 -1.59813 0
M  V30 23321 H 2122.1 2.18637 -3.25485 0
M  V30 23322 H 2123.59 3.07737 -2.8229 0
M  V30 23323 N 2124.03 1.54445 0.313786 0
M  V30 23324 C 2124.96 1.80863 1.40787 0
M  V30 23325 C 2125.97 0.691004 1.47408 0
M  V30 23326 O 2127.16 0.968278 1.49955 0
M  V30 23327 C 2124.26 1.92015 2.79255 0
M  V30 23328 C 2123.44 3.22285 2.95722 0
M  V30 23329 C 2122.5 3.24014 4.1461 0
M  V30 23330 O 2121.52 3.97608 4.07304 0
M  V30 23331 N 2122.72 2.48493 5.24625 0
M  V30 23332 H 2125.49 2.75284 1.18485 0
M  V30 23333 H 2123.05 1.53861 0.503813 0
M  V30 23334 H 2125.04 1.90589 3.57013 0
M  V30 23335 H 2123.61 1.04647 2.94564 0
M  V30 23336 H 2122.83 3.36591 2.05183 0
M  V30 23337 H 2124.12 4.08276 3.03625 0
M  V30 23338 H 2123.52 1.88309 5.33438 0
M  V30 23339 H 2122.07 2.52834 6.00765 0
M  V30 23340 N 2125.51 -0.576345 1.46683 0
M  V30 23341 C 2126.92 -0.900361 1.31779 0
M  V30 23342 C 2127.12 -1.99344 0.293964 0
M  V30 23343 O 2126.18 -2.50697 -0.301245 0
M  V30 23344 C 2127.49 -1.31169 2.70583 0
M  V30 23345 C 2129.04 -1.42419 2.78722 0
M  V30 23346 C 2129.52 -1.86916 4.18123 0
M  V30 23347 N 2131.01 -1.94099 4.20571 0
M  V30 23348 C 2131.74 -2.29817 5.2533 0
M  V30 23349 N 2131.24 -2.64282 6.40411 0
M  V30 23350 N 2133.03 -2.30426 5.12699 0
M  V30 23351 H 2125.18 0.145622 2.119 0
M  V30 23352 H 2127.44 0.00247797 0.947997 0
M  V30 23353 H 2127.15 -0.582484 3.46843 0
M  V30 23354 H 2127.02 -2.2719 3.01106 0
M  V30 23355 H 2129.41 -2.14425 2.02746 0
M  V30 23356 H 2129.49 -0.446341 2.51876 0
M  V30 23357 H 2129.14 -1.15486 4.94596 0
M  V30 23358 H 2129.07 -2.8567 4.4238 0
M  V30 23359 H 2131.56 -1.69927 3.3754 0
M  V30 23360 H 2131.87 -2.90509 7.16118 0
M  V30 23361 H 2130.22 -2.61906 6.43762 0
M  V30 23362 H 2133.41 -2.02927 4.21827 0
M  V30 23363 H 2133.58 -2.57934 5.94453 0
M  V30 23364 N 2126.99 -1.34495 -0.82151 0
M  V30 23365 C 2128.23 -1.27119 -1.58014 0
M  V30 23366 C 2128.56 0.158163 -1.93555 0
M  V30 23367 O 2127.84 1.10389 -1.60139 0
M  V30 23368 C 2128.12 -2.16338 -2.87871 0
M  V30 23369 C 2127.98 -3.67818 -2.58902 0
M  V30 23370 C 2129.29 -2.04971 -3.89455 0
M  V30 23371 H 2126.41 -0.463115 -0.573318 0
M  V30 23372 H 2129.06 -1.6476 -0.946264 0
M  V30 23373 H 2127.21 -1.84367 -3.41966 0
M  V30 23374 H 2128.88 -4.10161 -2.11106 0
M  V30 23375 H 2127.12 -3.88837 -1.92324 0
M  V30 23376 H 2127.79 -4.25612 -3.51509 0
M  V30 23377 H 2130.27 -2.33044 -3.44717 0
M  V30 23378 H 2129.14 -2.6962 -4.78118 0
M  V30 23379 H 2129.4 -1.02711 -4.30003 0
M  V30 23380 N 2128.46 1.04188 -1.18248 0
M  V30 23381 C 2129.39 2.14099 -0.931872 0
M  V30 23382 C 2130.38 1.69603 0.129961 0
M  V30 23383 O 2131.56 1.94187 -0.0223769 0
M  V30 23384 C 2128.69 3.443 -0.455463 0
M  V30 23385 C 2127.64 4.02414 -1.45764 0
M  V30 23386 C 2126.97 5.2808 -0.838796 0
M  V30 23387 C 2128.27 4.38729 -2.83397 0
M  V30 23388 H 2129.96 2.35321 -1.85106 0
M  V30 23389 H 2127.51 1.13091 -0.891421 0
M  V30 23390 H 2129.46 4.2055 -0.267505 0
M  V30 23391 H 2128.19 3.22761 0.499291 0
M  V30 23392 H 2126.85 3.28245 -1.63251 0
M  V30 23393 H 2126.49 5.02849 0.123108 0
M  V30 23394 H 2126.19 5.67923 -1.5079 0
M  V30 23395 H 2127.72 6.07008 -0.661341 0
M  V30 23396 H 2129.13 5.0597 -2.69568 0
M  V30 23397 H 2127.53 4.89618 -3.46979 0
M  V30 23398 H 2128.6 3.48613 -3.37041 0
M  V30 23399 N 2129.94 0.98432 1.23081 0
M  V30 23400 C 2131.17 0.673202 1.9617 0
M  V30 23401 C 2131.59 -0.753958 1.72328 0
M  V30 23402 O 2130.95 -1.51414 0.997167 0
M  V30 23403 C 2131 0.974266 3.47189 0
M  V30 23404 O 2130.1 0.0683695 4.12343 0
M  V30 23405 H 2129.44 0.252801 0.613993 0
M  V30 23406 H 2131.97 1.31898 1.5641 0
M  V30 23407 H 2131.98 0.912577 3.97663 0
M  V30 23408 H 2130.66 2.01426 3.63868 0
M  V30 23409 H 2129.24 0.184805 3.72442 0
M  V30 23410 N 2131.42 -1.38259 0.756453 0
M  V30 23411 C 2132.35 -2.2902 0.0908208 0
M  V30 23412 C 2133.37 -1.47887 -0.680684 0
M  V30 23413 O 2134.55 -1.70718 -0.521301 0
M  V30 23414 C 2131.65 -3.26859 -0.895342 0
M  V30 23415 C 2130.83 -4.37026 -0.180877 0
M  V30 23416 C 2129.89 -5.15035 -1.0782 0
M  V30 23417 O 2128.91 -5.66559 -0.547658 0
M  V30 23418 N 2130.11 -5.28291 -2.40602 0
M  V30 23419 H 2132.88 -2.86785 0.870302 0
M  V30 23420 H 2130.44 -1.50071 0.607483 0
M  V30 23421 H 2132.43 -3.75926 -1.49873 0
M  V30 23422 H 2131 -2.69972 -1.57588 0
M  V30 23423 H 2130.22 -3.89557 0.603252 0
M  V30 23424 H 2131.51 -5.07834 0.313403 0
M  V30 23425 H 2130.91 -4.87986 -2.86158 0
M  V30 23426 H 2129.47 -5.80721 -2.95984 0
M  V30 23427 N 2132.9 -0.505757 -1.49264 0
M  V30 23428 C 2134.15 0.0389421 -2.01662 0
M  V30 23429 C 2134.46 1.37604 -1.39012 0
M  V30 23430 O 2135.67 2.00771 -1.82766 0
M  V30 23431 C 2134.12 0.119854 -3.597 0
M  V30 23432 C 2133.73 -1.21089 -4.31325 0
M  V30 23433 C 2135.47 0.614665 -4.20026 0
M  V30 23434 C 2133.38 -1.09188 -5.81233 0
M  V30 23435 H 2132.31 0.0183265 -0.753777 0
M  V30 23436 H 2134.96 -0.645894 -1.71757 0
M  V30 23437 H 2133.34 0.869244 -3.86342 0
M  V30 23438 H 2134.52 -1.97394 -4.1638 0
M  V30 23439 H 2132.83 -1.63951 -3.82765 0
M  V30 23440 H 2135.43 0.721287 -5.29813 0
M  V30 23441 H 2135.77 1.61466 -3.83711 0
M  V30 23442 H 2136.31 -0.0783291 -3.97723 0
M  V30 23443 H 2133.05 -2.06629 -6.22081 0
M  V30 23444 H 2132.57 -0.369793 -5.98659 0
M  V30 23445 H 2134.24 -0.772559 -6.42371 0
M  V30 23446 N 2134.38 1.55765 -0.239796 0
M  V30 23447 C 2135.65 1.90659 0.436876 0
M  V30 23448 C 2136.03 1.1596 1.76398 0
M  V30 23449 O 2135.38 0.274778 2.26842 0
M  V30 23450 C 2135.59 3.43593 0.611939 0
M  V30 23451 C 2136.94 4.1471 0.911065 0
M  V30 23452 O 2137.96 3.49293 0.698064 0
M  V30 23453 O 2136.82 5.30411 1.3163 0
M  V30 23454 H 2133.92 0.793348 0.233511 0
M  V30 23455 H 2136.46 1.67318 -0.283335 0
M  V30 23456 H 2135.23 3.89961 -0.323424 0
M  V30 23457 H 2134.86 3.72773 1.38296 0
M  V30 23458 N 2135.85 -0.0334016 1.57565 0
M  V30 23459 C 2137.1 -0.726157 1.89354 0
M  V30 23460 C 2137.43 -1.75237 0.837002 0
M  V30 23461 O 2136.71 -1.93933 -0.148452 0
M  V30 23462 C 2136.99 -1.39963 3.31787 0
M  V30 23463 C 2136.84 -0.387227 4.4813 0
M  V30 23464 C 2138.16 -2.33475 3.73065 0
M  V30 23465 H 2135.28 -0.262518 0.688661 0
M  V30 23466 H 2137.92 0.0110285 1.89997 0
M  V30 23467 H 2136.07 -2.02797 3.31369 0
M  V30 23468 H 2137.75 0.238867 4.60681 0
M  V30 23469 H 2135.99 0.293911 4.32803 0
M  V30 23470 H 2136.66 -0.896846 5.44666 0
M  V30 23471 H 2139.14 -1.80688 3.74822 0
M  V30 23472 H 2138.01 -2.7758 4.73541 0
M  V30 23473 H 2138.27 -3.19962 3.05085 0
M  V30 23474 N 2137.33 -1.54609 -0.305591 0
M  V30 23475 C 2138.3 -1.84504 -1.35982 0
M  V30 23476 C 2139.3 -0.717695 -1.43895 0
M  V30 23477 O 2140.49 -0.985988 -1.4361 0
M  V30 23478 C 2137.62 -2.0212 -2.74518 0
M  V30 23479 H 2138.81 -2.78713 -1.10721 0
M  V30 23480 H 2136.36 -1.46601 -0.542022 0
M  V30 23481 H 2137.1 -1.10183 -3.05009 0
M  V30 23482 H 2136.88 -2.84171 -2.70166 0
M  V30 23483 H 2138.37 -2.26635 -3.50751 0
M  V30 23484 N 2138.81 0.568558 -1.46987 0
M  V30 23485 C 2139.74 1.69147 -1.54668 0
M  V30 23486 C 2140.76 1.56914 -0.433789 0
M  V30 23487 O 2141.94 1.6408 -0.702853 0
M  V30 23488 C 2139.04 3.07522 -1.4242 0
M  V30 23489 C 2138.22 3.45619 -2.68078 0
M  V30 23490 C 2137.28 4.63111 -2.49829 0
M  V30 23491 O 2136.3 4.68261 -3.23605 0
M  V30 23492 N 2137.5 5.5889 -1.56914 0
M  V30 23493 H 2140.27 1.63008 -2.51492 0
M  V30 23494 H 2137.83 0.75491 -1.43223 0
M  V30 23495 H 2139.82 3.83937 -1.27963 0
M  V30 23496 H 2138.39 3.07949 -0.537222 0
M  V30 23497 H 2137.61 2.58767 -2.97378 0
M  V30 23498 H 2138.9 3.67844 -3.51523 0
M  V30 23499 H 2138.3 5.57477 -0.961042 0
M  V30 23500 H 2136.86 6.34678 -1.48414 0
M  V30 23501 N 2140.29 1.34929 0.814366 0
M  V30 23502 C 2141.24 1.27211 1.92577 0
M  V30 23503 C 2142.21 0.145599 1.65461 0
M  V30 23504 O 2143.39 0.328007 1.87959 0
M  V30 23505 C 2140.53 1.04214 3.28989 0
M  V30 23506 C 2139.64 2.25716 3.68343 0
M  V30 23507 C 2138.78 1.95932 4.93745 0
M  V30 23508 C 2137.82 3.13531 5.25704 0
M  V30 23509 N 2136.95 2.83574 6.42285 0
M  V30 23510 H 2141.79 2.22255 1.98511 0
M  V30 23511 H 2139.33 1.10491 0.97109 0
M  V30 23512 H 2141.29 0.889147 4.07615 0
M  V30 23513 H 2139.92 0.128343 3.22545 0
M  V30 23514 H 2138.97 2.51906 2.85039 0
M  V30 23515 H 2140.28 3.13553 3.87925 0
M  V30 23516 H 2139.44 1.77419 5.80179 0
M  V30 23517 H 2138.18 1.05369 4.76181 0
M  V30 23518 H 2137.18 3.32631 4.37763 0
M  V30 23519 H 2138.41 4.04885 5.45202 0
M  V30 23520 H 2136.35 1.95596 6.26161 0
M  V30 23521 H 2136.27 3.64944 6.62081 0
M  V30 23522 H 2137.54 2.68584 7.31767 0
M  V30 23523 N 2141.77 -1.0356 1.18799 0
M  V30 23524 C 2142.71 -2.11687 0.919622 0
M  V30 23525 C 2143.68 -1.65484 -0.142958 0
M  V30 23526 O 2144.87 -1.908 -0.00223972 0
M  V30 23527 C 2142.01 -3.4206 0.457036 0
M  V30 23528 C 2141.12 -4.01848 1.58562 0
M  V30 23529 C 2140.26 -5.20204 1.07524 0
M  V30 23530 C 2139.3 -5.72033 2.17817 0
M  V30 23531 N 2138.43 -6.8167 1.68136 0
M  V30 23532 H 2143.27 -2.33981 1.84546 0
M  V30 23533 H 2140.81 -1.14766 0.920172 0
M  V30 23534 H 2142.77 -4.16852 0.170279 0
M  V30 23535 H 2141.4 -3.19899 -0.431815 0
M  V30 23536 H 2140.45 -3.24335 1.98774 0
M  V30 23537 H 2141.76 -4.36338 2.41684 0
M  V30 23538 H 2140.92 -6.02129 0.743314 0
M  V30 23539 H 2139.65 -4.87232 0.213672 0
M  V30 23540 H 2138.66 -4.88725 2.51849 0
M  V30 23541 H 2139.88 -6.07047 3.04418 0
M  V30 23542 H 2137.83 -6.50564 0.842764 0
M  V30 23543 H 2137.75 -7.15251 2.44852 0
M  V30 23544 H 2139.02 -7.67208 1.37886 0
M  V30 23545 N 2143.25 -0.990834 -1.22557 0
M  V30 23546 C 2144.18 -0.559304 -2.26703 0
M  V30 23547 C 2145.16 0.412782 -1.65016 0
M  V30 23548 O 2146.34 0.303868 -1.91808 0
M  V30 23549 C 2143.47 0.12888 -3.47061 0
M  V30 23550 C 2142.43 -0.76154 -4.2117 0
M  V30 23551 C 2141.75 0.0594442 -5.34667 0
M  V30 23552 C 2143.05 -2.0574 -4.80071 0
M  V30 23553 H 2144.75 -1.42983 -2.63052 0
M  V30 23554 H 2142.29 -0.68896 -1.26449 0
M  V30 23555 H 2144.24 0.44215 -4.19074 0
M  V30 23556 H 2142.97 1.03394 -3.09802 0
M  V30 23557 H 2141.63 -1.05842 -3.50989 0
M  V30 23558 H 2141.28 0.965355 -4.9365 0
M  V30 23559 H 2140.98 -0.533291 -5.85175 0
M  V30 23560 H 2142.5 0.366857 -6.09497 0
M  V30 23561 H 2143.91 -1.80821 -5.44037 0
M  V30 23562 H 2142.31 -2.59878 -5.4091 0
M  V30 23563 H 2143.38 -2.73748 -4.00237 0
M  V30 23564 N 2144.72 1.37856 -0.763775 0
M  V30 23565 C 2145.66 2.28969 -0.102965 0
M  V30 23566 C 2146.67 1.48246 0.672832 0
M  V30 23567 O 2147.86 1.70992 0.51224 0
M  V30 23568 C 2144.96 3.27329 0.877995 0
M  V30 23569 C 2144.13 4.37116 0.157698 0
M  V30 23570 C 2143.19 5.156 1.05087 0
M  V30 23571 O 2142.22 5.66842 0.517604 0
M  V30 23572 N 2143.42 5.29559 2.37797 0
M  V30 23573 H 2146.18 2.8632 -0.885499 0
M  V30 23574 H 2143.74 1.49747 -0.615433 0
M  V30 23575 H 2145.74 3.76715 1.47877 0
M  V30 23576 H 2144.31 2.70804 1.56154 0
M  V30 23577 H 2143.53 3.89231 -0.623902 0
M  V30 23578 H 2144.81 5.07661 -0.34033 0
M  V30 23579 H 2144.21 4.89496 2.83566 0
M  V30 23580 H 2142.77 5.82282 2.929 0
M  V30 23581 N 2146.2 0.513665 1.48994 0
M  V30 23582 C 2147.48 -0.0899538 1.95393 0
M  V30 23583 C 2147.86 -1.52898 1.45552 0
M  V30 23584 O 2147.21 -2.18308 0.674808 0
M  V30 23585 C 2147.42 0.010453 3.48998 0
M  V30 23586 C 2148.76 -0.157087 4.24309 0
M  V30 23587 O 2149.79 -0.0641299 3.56142 0
M  V30 23588 O 2148.65 -0.349548 5.45381 0
M  V30 23589 H 2145.74 -0.0883243 0.82227 0
M  V30 23590 H 2148.29 0.577105 1.59586 0
M  V30 23591 H 2147.06 1.0135 3.77947 0
M  V30 23592 H 2146.68 -0.696188 3.91458 0
M  V30 23593 N 2147.68 -1.55636 0.248053 0
M  V30 23594 C 2148.93 -1.99266 -0.376927 0
M  V30 23595 C 2149.26 -1.13602 -1.57506 0
M  V30 23596 O 2148.53 -0.199686 -1.93472 0
M  V30 23597 C 2148.82 -3.51425 -0.785664 0
M  V30 23598 C 2148.67 -4.47854 0.417942 0
M  V30 23599 C 2149.99 -4.08714 -1.63221 0
M  V30 23600 H 2147.11 -0.724431 -0.135531 0
M  V30 23601 H 2149.75 -1.86756 0.349594 0
M  V30 23602 H 2147.9 -3.62216 -1.40469 0
M  V30 23603 H 2149.57 -4.49041 1.05638 0
M  V30 23604 H 2147.81 -4.20629 1.06084 0
M  V30 23605 H 2148.49 -5.51929 0.0886002 0
M  V30 23606 H 2150.96 -4.01031 -1.10966 0
M  V30 23607 H 2149.84 -5.15443 -1.88706 0
M  V30 23608 H 2150.1 -3.57242 -2.60443 0
M  V30 23609 N 2149.16 0.0250451 -1.5758 0
M  V30 23610 C 2150.38 0.730408 -1.94113 0
M  V30 23611 C 2150.81 1.67882 -0.848362 0
M  V30 23612 O 2150.17 1.80242 0.195596 0
M  V30 23613 C 2150.21 1.46014 -3.29715 0
M  V30 23614 O 2149.32 2.57351 -3.22249 0
M  V30 23615 H 2148.66 0.196157 -0.634365 0
M  V30 23616 H 2151.19 -0.0206802 -2.0459 0
M  V30 23617 H 2151.2 1.82917 -3.64699 0
M  V30 23618 H 2149.87 0.764593 -4.08811 0
M  V30 23619 H 2148.45 2.22961 -2.98903 0
M  V30 23620 N 2150.64 1.54769 0.297388 0
M  V30 23621 C 2151.57 1.80857 1.39161 0
M  V30 23622 C 2152.55 0.659989 1.48603 0
M  V30 23623 O 2153.73 0.900341 1.65608 0
M  V30 23624 C 2150.86 1.94851 2.77039 0
M  V30 23625 C 2149.9 3.17294 2.85003 0
M  V30 23626 S 2150.74 4.75273 2.4673 0
M  V30 23627 C 2151.89 4.92208 3.86629 0
M  V30 23628 H 2152.13 2.73385 1.16824 0
M  V30 23629 H 2149.66 1.46227 0.495698 0
M  V30 23630 H 2151.62 2.03599 3.56452 0
M  V30 23631 H 2150.28 1.03255 2.96643 0
M  V30 23632 H 2149.47 3.23899 3.86142 0
M  V30 23633 H 2149.07 3.07011 2.13589 0
M  V30 23634 H 2151.36 4.76453 4.81663 0
M  V30 23635 H 2152.31 5.94295 3.84992 0
M  V30 23636 H 2152.72 4.20336 3.76799 0
M  V30 23637 N 2152.11 -0.560755 1.47286 0
M  V30 23638 C 2153.06 -1.66812 1.59507 0
M  V30 23639 C 2154.03 -1.60214 0.438263 0
M  V30 23640 O 2155.22 -1.791 0.657862 0
M  V30 23641 C 2152.36 -3.05138 1.61199 0
M  V30 23642 C 2151.47 -3.22198 2.87771 0
M  V30 23643 C 2150.6 -4.50902 2.80822 0
M  V30 23644 C 2149.64 -4.61382 4.02235 0
M  V30 23645 N 2148.78 -5.81436 3.93543 0
M  V30 23646 H 2153.62 -1.55705 2.54087 0
M  V30 23647 H 2151.16 -0.758538 1.26034 0
M  V30 23648 H 2153.11 -3.85232 1.60163 0
M  V30 23649 H 2151.74 -3.15089 0.701347 0
M  V30 23650 H 2150.8 -2.3556 2.9869 0
M  V30 23651 H 2152.11 -3.25807 3.77692 0
M  V30 23652 H 2151.26 -5.39251 2.78016 0
M  V30 23653 H 2150 -4.49766 1.88578 0
M  V30 23654 H 2149.01 -3.71445 4.0535 0
M  V30 23655 H 2150.23 -4.6428 4.95601 0
M  V30 23656 H 2148.18 -5.81257 3.041 0
M  V30 23657 H 2148.09 -5.86408 4.77139 0
M  V30 23658 H 2149.36 -6.72157 3.94747 0
M  V30 23659 N 2153.59 -1.35359 -0.807199 0
M  V30 23660 C 2154.84 -1.28598 -1.56425 0
M  V30 23661 C 2155.17 0.139777 -1.93997 0
M  V30 23662 O 2154.42 1.10489 -1.61526 0
M  V30 23663 C 2154.72 -2.13745 -2.8644 0
M  V30 23664 C 2154.39 -3.62545 -2.68089 0
M  V30 23665 C 2153.05 -4.03105 -2.62792 0
M  V30 23666 C 2155.4 -4.56965 -2.50664 0
M  V30 23667 C 2152.73 -5.36253 -2.38013 0
M  V30 23668 C 2155.08 -5.9031 -2.27415 0
M  V30 23669 C 2153.74 -6.30015 -2.20539 0
M  V30 23670 H 2153.01 -0.470572 -0.572401 0
M  V30 23671 H 2155.66 -1.6725 -0.932725 0
M  V30 23672 H 2153.97 -1.67972 -3.53967 0
M  V30 23673 H 2155.66 -2.0585 -3.44132 0
M  V30 23674 H 2152.25 -3.30359 -2.73059 0
M  V30 23675 H 2156.44 -4.26515 -2.53769 0
M  V30 23676 H 2151.69 -5.66017 -2.31159 0
M  V30 23677 H 2155.87 -6.63051 -2.12922 0
M  V30 23678 H 2153.49 -7.33118 -2.01101 0
M  V30 23679 N 2155.07 1.02928 -1.19346 0
M  V30 23680 C 2156.49 1.28572 -0.945592 0
M  V30 23681 C 2156.69 1.97841 0.382273 0
M  V30 23682 O 2155.74 2.26603 1.11388 0
M  V30 23683 C 2157.05 2.13321 -2.11931 0
M  V30 23684 C 2158.6 2.2663 -2.15889 0
M  V30 23685 C 2159.08 3.14751 -3.3271 0
M  V30 23686 N 2160.57 3.22339 -3.32644 0
M  V30 23687 C 2161.3 3.90712 -4.19681 0
M  V30 23688 N 2160.8 4.61319 -5.16872 0
M  V30 23689 N 2162.59 3.87107 -4.07559 0
M  V30 23690 H 2154.74 0.563808 -2.0478 0
M  V30 23691 H 2157.01 0.311375 -0.895405 0
M  V30 23692 H 2156.71 1.69745 -3.08025 0
M  V30 23693 H 2156.59 3.14032 -2.08959 0
M  V30 23694 H 2158.97 2.69437 -1.20365 0
M  V30 23695 H 2159.05 1.25471 -2.22914 0
M  V30 23696 H 2158.7 2.72652 -4.28513 0
M  V30 23697 H 2158.63 4.15968 -3.22921 0
M  V30 23698 H 2161.12 2.72052 -2.6229 0
M  V30 23699 H 2161.43 5.1112 -5.79634 0
M  V30 23700 H 2159.78 4.60185 -5.20821 0
M  V30 23701 H 2162.97 3.31086 -3.30908 0
M  V30 23702 H 2163.14 4.40119 -4.75604 0
M  V30 23703 N 2156.55 0.997319 1.2203 0
M  V30 23704 C 2157.48 0.571319 2.26403 0
M  V30 23705 C 2158.46 -0.404025 1.65232 0
M  V30 23706 O 2159.64 -0.293692 1.91966 0
M  V30 23707 C 2156.77 -0.110472 3.47124 0
M  V30 23708 C 2155.73 0.783865 4.20761 0
M  V30 23709 C 2155.05 -0.0310887 5.34691 0
M  V30 23710 C 2156.35 2.08283 4.78974 0
M  V30 23711 H 2158.05 1.44376 2.6229 0
M  V30 23712 H 2155.59 0.695656 1.26082 0
M  V30 23713 H 2157.55 -0.419919 4.19303 0
M  V30 23714 H 2156.27 -1.01749 3.10346 0
M  V30 23715 H 2154.93 1.07702 3.50422 0
M  V30 23716 H 2154.58 -0.939162 4.94155 0
M  V30 23717 H 2154.28 0.564316 5.84884 0
M  V30 23718 H 2155.8 -0.334528 6.09683 0
M  V30 23719 H 2157.22 1.83704 5.43071 0
M  V30 23720 H 2155.61 2.62743 5.39524 0
M  V30 23721 H 2156.68 2.75867 3.9878 0
M  V30 23722 N 2158.03 -1.37449 0.771075 0
M  V30 23723 C 2159.27 -1.99708 0.335092 0
M  V30 23724 C 2159.6 -1.6121 -1.08819 0
M  V30 23725 O 2158.86 -0.849533 -1.76299 0
M  V30 23726 C 2159.16 -3.54862 0.425162 0
M  V30 23727 C 2158.82 -4.13126 1.8066 0
M  V30 23728 C 2157.48 -4.28752 2.18462 0
M  V30 23729 C 2159.84 -4.45085 2.71198 0
M  V30 23730 C 2157.16 -4.7364 3.4624 0
M  V30 23731 C 2159.52 -4.91398 3.98385 0
M  V30 23732 C 2158.18 -5.0523 4.36233 0
M  V30 23733 H 2157.45 -0.730784 0.122619 0
M  V30 23734 H 2160.1 -1.64227 0.984968 0
M  V30 23735 H 2158.4 -3.90585 -0.308255 0
M  V30 23736 H 2160.1 -4.0094 0.0691372 0
M  V30 23737 H 2156.69 -4.0139 1.50279 0
M  V30 23738 H 2160.87 -4.32599 2.43253 0
M  V30 23739 H 2156.13 -4.82535 3.75459 0
M  V30 23740 H 2160.3 -5.15094 4.68669 0
M  V30 23741 H 2157.93 -5.39772 5.35304 0
M  V30 23742 N 2159.5 -0.52156 -1.4872 0
M  V30 23743 C 2160.44 0.282802 -2.27449 0
M  V30 23744 C 2161.45 0.912106 -1.3485 0
M  V30 23745 O 2162.64 0.79197 -1.59969 0
M  V30 23746 C 2159.74 1.41494 -3.07949 0
M  V30 23747 C 2158.91 0.889125 -4.28268 0
M  V30 23748 C 2157.97 1.90136 -4.90647 0
M  V30 23749 O 2157 1.46166 -5.50113 0
M  V30 23750 N 2158.2 3.23306 -4.82134 0
M  V30 23751 H 2160.96 -0.392372 -2.9712 0
M  V30 23752 H 2158.52 -0.355365 -1.57952 0
M  V30 23753 H 2160.52 2.09008 -3.46551 0
M  V30 23754 H 2159.09 1.99391 -2.40753 0
M  V30 23755 H 2158.31 0.0382432 -3.94181 0
M  V30 23756 H 2159.59 0.516566 -5.06171 0
M  V30 23757 H 2158.99 3.61702 -4.34958 0
M  V30 23758 H 2157.55 3.86477 -5.24861 0
M  V30 23759 N 2160.98 1.55502 -0.256304 0
M  V30 23760 C 2161.93 2.2177 0.63926 0
M  V30 23761 C 2162.9 1.18474 1.16418 0
M  V30 23762 O 2164.08 1.46954 1.21693 0
M  V30 23763 C 2161.22 2.92819 1.82623 0
M  V30 23764 C 2160.34 4.10791 1.33695 0
M  V30 23765 C 2159.47 4.69531 2.48423 0
M  V30 23766 C 2158.51 5.79735 1.96403 0
M  V30 23767 N 2157.65 6.32617 3.04533 0
M  V30 23768 H 2162.49 2.97924 0.0674772 0
M  V30 23769 H 2160.03 1.47084 0.0215424 0
M  V30 23770 H 2161.98 3.32216 2.52366 0
M  V30 23771 H 2160.61 2.19122 2.37034 0
M  V30 23772 H 2159.67 3.76644 0.533253 0
M  V30 23773 H 2160.98 4.90321 0.915786 0
M  V30 23774 H 2160.13 5.11551 3.26191 0
M  V30 23775 H 2158.87 3.89238 2.93845 0
M  V30 23776 H 2157.88 5.37183 1.17108 0
M  V30 23777 H 2159.1 6.61885 1.51939 0
M  V30 23778 H 2157.05 5.55225 3.49372 0
M  V30 23779 H 2156.96 7.07366 2.66776 0
M  V30 23780 H 2158.23 6.79295 3.82332 0
M  V30 23781 N 2162.46 -0.0166879 1.57591 0
M  V30 23782 C 2163.87 -0.561696 1.7805 0
M  V30 23783 C 2164.22 -1.74907 0.888926 0
M  V30 23784 O 2163.35 -2.16225 0.0869853 0
M  V30 23785 C 2163.94 -1.02576 3.22899 0
M  V30 23786 C 2162.5 -1.51619 3.44512 0
M  V30 23787 C 2161.65 -0.459817 2.73461 0
M  V30 23788 H 2164.6 0.209523 1.57311 0
M  V30 23789 H 2164.62 -1.89257 3.30094 0
M  V30 23790 H 2164.13 -0.16136 3.87764 0
M  V30 23791 H 2162.23 -2.40203 2.84839 0
M  V30 23792 H 2162.35 -1.55516 4.53157 0
M  V30 23793 H 2160.71 -0.917683 2.37594 0
M  V30 23794 H 2161.49 0.395327 3.41016 0
M  V30 23795 N 2163.94 -1.54924 -0.289176 0
M  V30 23796 C 2164.9 -1.85935 -1.34017 0
M  V30 23797 C 2165.9 -0.732916 -1.43126 0
M  V30 23798 O 2167.09 -1.00116 -1.42556 0
M  V30 23799 C 2164.22 -2.0502 -2.72359 0
M  V30 23800 H 2165.42 -2.79872 -1.07758 0
M  V30 23801 H 2162.97 -1.47168 -0.526442 0
M  V30 23802 H 2163.7 -1.13412 -3.03823 0
M  V30 23803 H 2163.49 -2.8702 -2.67136 0
M  V30 23804 H 2164.98 -2.30342 -3.48328 0
M  V30 23805 N 2165.42 0.552936 -1.47582 0
M  V30 23806 C 2166.36 1.68064 -1.60802 0
M  V30 23807 C 2167.36 1.62599 -0.475175 0
M  V30 23808 O 2168.56 1.67733 -0.653122 0
M  V30 23809 H 2164.94 0.556179 -0.506131 0
M  V30 23810 H 2166.91 1.54051 -2.5556 0
M  V30 23811 C 2165.66 3.06407 -1.64348 0
M  V30 23812 H 2164.98 3.11295 -2.50869 0
M  V30 23813 H 2166.42 3.8499 -1.77647 0
M  V30 23814 C 2164.88 3.34777 -0.377611 0
M  V30 23815 O 2165.41 3.98327 0.519466 0
M  V30 23816 N 2163.62 2.89467 -0.256324 0
M  V30 23817 H 2163.16 2.3793 -0.98727 0
M  V30 23818 H 2163.12 3.0882 0.589696 0
M  V30 23819 N 2166.89 1.35785 0.800009 0
M  V30 23820 C 2168.14 1.29425 1.55741 0
M  V30 23821 C 2168.47 -0.129487 1.94068 0
M  V30 23822 O 2167.72 -1.09631 1.6211 0
M  V30 23823 C 2168.02 2.15261 2.85302 0
M  V30 23824 C 2167.69 3.63962 2.66162 0
M  V30 23825 C 2166.35 4.04493 2.60651 0
M  V30 23826 C 2168.7 4.58288 2.48238 0
M  V30 23827 C 2166.03 5.37507 2.35166 0
M  V30 23828 C 2168.38 5.91507 2.24281 0
M  V30 23829 C 2167.05 6.31175 2.17195 0
M  V30 23830 H 2166.32 0.473601 0.569898 0
M  V30 23831 H 2168.96 1.67742 0.923842 0
M  V30 23832 H 2167.27 1.69846 3.53071 0
M  V30 23833 H 2168.97 2.07672 3.43036 0
M  V30 23834 H 2165.56 3.31802 2.71303 0
M  V30 23835 H 2169.74 4.27854 2.51504 0
M  V30 23836 H 2165 5.67235 2.28154 0
M  V30 23837 H 2169.17 6.64171 2.09403 0
M  V30 23838 H 2166.8 7.34175 1.9721 0
M  V30 23839 N 2168.37 -1.02294 1.19891 0
M  V30 23840 C 2169.28 -2.14169 0.957533 0
M  V30 23841 C 2170.3 -1.73795 -0.0844739 0
M  V30 23842 O 2171.47 -2.01144 0.101528 0
M  V30 23843 C 2168.54 -3.4299 0.50587 0
M  V30 23844 C 2167.6 -3.97643 1.61797 0
M  V30 23845 C 2166.83 -5.20315 1.18777 0
M  V30 23846 O 2167.06 -5.70375 0.0538032 0
M  V30 23847 O 2165.99 -5.67957 1.99268 0
M  V30 23848 H 2169.82 -2.37398 1.89409 0
M  V30 23849 H 2167.4 -1.12572 0.982234 0
M  V30 23850 H 2169.28 -4.20579 0.26292 0
M  V30 23851 H 2167.96 -3.21192 -0.402182 0
M  V30 23852 H 2166.87 -3.21362 1.91514 0
M  V30 23853 H 2168.2 -4.23817 2.5028 0
M  V30 23854 N 2169.85 -1.00378 -1.21499 0
M  V30 23855 C 2170.78 -0.521384 -2.23191 0
M  V30 23856 C 2171.8 0.389369 -1.58075 0
M  V30 23857 O 2172.98 0.189763 -1.77488 0
M  V30 23858 C 2170.08 0.262422 -3.37882 0
M  V30 23859 C 2169.26 -0.647107 -4.32587 0
M  V30 23860 C 2168.32 0.0868769 -5.26128 0
M  V30 23861 O 2167.34 -0.531365 -5.66714 0
M  V30 23862 N 2168.54 1.36582 -5.64203 0
M  V30 23863 H 2171.31 -1.39587 -2.65208 0
M  V30 23864 H 2168.87 -0.879774 -1.3591 0
M  V30 23865 H 2170.86 0.762368 -3.97454 0
M  V30 23866 H 2169.43 1.03809 -2.9486 0
M  V30 23867 H 2168.65 -1.32756 -3.71173 0
M  V30 23868 H 2169.94 -1.26613 -4.92795 0
M  V30 23869 H 2169.34 1.88926 -5.3322 0
M  V30 23870 H 2167.9 1.81075 -6.26143 0
M  V30 23871 N 2171.33 1.37038 -0.778354 0
M  V30 23872 C 2172.74 1.52865 -0.458743 0
M  V30 23873 C 2172.94 1.73503 1.02465 0
M  V30 23874 O 2172 1.76017 1.81036 0
M  V30 23875 C 2173.31 2.72117 -1.27956 0
M  V30 23876 C 2174.86 2.85982 -1.27213 0
M  V30 23877 C 2175.34 4.08225 -2.07645 0
M  V30 23878 N 2176.83 4.1535 -2.05033 0
M  V30 23879 C 2177.56 5.08988 -2.64044 0
M  V30 23880 N 2177.06 6.0814 -3.3187 0
M  V30 23881 N 2178.85 5.0152 -2.53838 0
M  V30 23882 H 2171 1.21895 -1.73941 0
M  V30 23883 H 2173.27 0.594067 -0.738775 0
M  V30 23884 H 2172.97 2.63353 -2.33105 0
M  V30 23885 H 2172.85 3.65977 -0.913259 0
M  V30 23886 H 2175.23 2.94213 -0.228607 0
M  V30 23887 H 2175.31 1.93061 -1.67812 0
M  V30 23888 H 2174.96 4.00755 -3.12022 0
M  V30 23889 H 2174.89 5.00272 -1.64423 0
M  V30 23890 H 2177.38 3.44352 -1.55659 0
M  V30 23891 H 2177.69 6.76131 -3.74255 0
M  V30 23892 H 2176.04 6.08399 -3.3597 0
M  V30 23893 H 2179.23 4.23005 -2.0046 0
M  V30 23894 H 2179.4 5.7431 -3.00121 0
M  V30 23895 N 2172.81 0.529439 1.48441 0
M  V30 23896 C 2173.74 -0.222417 2.32438 0
M  V30 23897 C 2174.72 -0.935598 1.42058 0
M  V30 23898 O 2175.9 -0.921483 1.70945 0
M  V30 23899 C 2173.03 -1.27012 3.23242 0
M  V30 23900 C 2171.99 -0.675114 4.22642 0
M  V30 23901 C 2171.31 -1.82543 5.02576 0
M  V30 23902 C 2172.61 0.352815 5.21107 0
M  V30 23903 H 2174.31 0.478777 2.95547 0
M  V30 23904 H 2171.85 0.231695 1.42124 0
M  V30 23905 H 2173.81 -1.80405 3.80831 0
M  V30 23906 H 2172.53 -2.00089 2.58132 0
M  V30 23907 H 2171.19 -0.162711 3.66239 0
M  V30 23908 H 2170.84 -2.54456 4.33891 0
M  V30 23909 H 2170.54 -1.43323 5.69853 0
M  V30 23910 H 2172.06 -2.36315 5.63017 0
M  V30 23911 H 2173.48 -0.0940075 5.73223 0
M  V30 23912 H 2171.87 0.662368 5.96433 0
M  V30 23913 H 2172.94 1.25877 4.68277 0
M  V30 23914 N 2174.29 -1.55364 0.264547 0
M  V30 23915 C 2175.22 -2.19475 -0.660544 0
M  V30 23916 C 2176.23 -1.17628 -1.1255 0
M  V30 23917 O 2177.42 -1.44407 -1.04923 0
M  V30 23918 C 2174.52 -2.79832 -1.91173 0
M  V30 23919 C 2173.69 -4.07269 -1.59533 0
M  V30 23920 C 2172.75 -4.51774 -2.6979 0
M  V30 23921 O 2171.78 -5.17776 -2.36425 0
M  V30 23922 N 2172.98 -4.2103 -3.99642 0
M  V30 23923 H 2175.74 -2.99491 -0.111888 0
M  V30 23924 H 2173.31 -1.61676 0.0852139 0
M  V30 23925 H 2175.3 -3.06555 -2.64209 0
M  V30 23926 H 2173.87 -2.03871 -2.36971 0
M  V30 23927 H 2173.09 -3.87948 -0.699303 0
M  V30 23928 H 2174.38 -4.9032 -1.35881 0
M  V30 23929 H 2173.77 -3.68079 -4.29575 0
M  V30 23930 H 2172.33 -4.52548 -4.69088 0
M  V30 23931 N 2175.76 0.00833021 -1.57598 0
M  V30 23932 C 2176.67 1.01892 -2.11318 0
M  V30 23933 C 2177.69 1.38254 -1.0565 0
M  V30 23934 O 2178.87 1.47155 -1.37505 0
M  V30 23935 C 2175.93 2.29464 -2.59899 0
M  V30 23936 C 2174.99 1.99492 -3.80134 0
M  V30 23937 C 2174.22 3.20981 -4.26388 0
M  V30 23938 O 2174.45 4.3238 -3.72027 0
M  V30 23939 O 2173.38 3.05467 -5.18627 0
M  V30 23940 H 2177.21 0.592299 -2.97868 0
M  V30 23941 H 2174.79 0.226636 -1.47671 0
M  V30 23942 H 2176.67 3.04425 -2.91382 0
M  V30 23943 H 2175.35 2.7138 -1.76449 0
M  V30 23944 H 2174.26 1.22033 -3.53636 0
M  V30 23945 H 2175.59 1.62418 -4.6463 0
M  V30 23946 N 2177.24 1.55075 0.280956 0
M  V30 23947 C 2178.47 1.79652 1.03634 0
M  V30 23948 C 2178.89 0.564074 1.79443 0
M  V30 23949 O 2178.25 -0.486088 1.74662 0
M  V30 23950 C 2178.3 3.01583 1.97687 0
M  V30 23951 O 2177.4 2.76111 3.06327 0
M  V30 23952 H 2176.74 0.594024 0.296701 0
M  V30 23953 H 2179.27 2.02203 0.312282 0
M  V30 23954 H 2179.28 3.301 2.39787 0
M  V30 23955 H 2177.96 3.90937 1.41919 0
M  V30 23956 H 2176.53 2.58668 2.68598 0
M  V30 23957 N 2178.72 -0.545102 1.47873 0
M  V30 23958 C 2179.67 -1.65111 1.61267 0
M  V30 23959 C 2180.64 -1.5974 0.455231 0
M  V30 23960 O 2181.82 -1.78392 0.676821 0
M  V30 23961 C 2178.96 -3.03411 1.64426 0
M  V30 23962 C 2178.07 -3.19128 2.91172 0
M  V30 23963 C 2177.21 -4.47898 2.85589 0
M  V30 23964 C 2176.25 -4.5709 4.07106 0
M  V30 23965 N 2175.39 -5.7723 3.99688 0
M  V30 23966 H 2180.23 -1.53001 2.55724 0
M  V30 23967 H 2177.76 -0.745128 1.26832 0
M  V30 23968 H 2179.72 -3.83511 1.6424 0
M  V30 23969 H 2178.35 -3.14327 0.734727 0
M  V30 23970 H 2177.4 -2.32379 3.01171 0
M  V30 23971 H 2178.71 -3.21783 3.81126 0
M  V30 23972 H 2177.87 -5.36272 2.8372 0
M  V30 23973 H 2176.61 -4.47741 1.93338 0
M  V30 23974 H 2175.61 -3.67125 4.09267 0
M  V30 23975 H 2176.84 -4.58998 5.00498 0
M  V30 23976 H 2174.78 -5.77998 3.10248 0
M  V30 23977 H 2174.7 -5.81315 4.83332 0
M  V30 23978 H 2175.97 -6.67932 4.01854 0
M  V30 23979 N 2180.2 -1.36208 -0.792797 0
M  V30 23980 C 2181.13 -1.24616 -1.9117 0
M  V30 23981 C 2182.11 -0.131043 -1.62071 0
M  V30 23982 O 2183.29 -0.301579 -1.86072 0
M  V30 23983 C 2180.42 -0.921945 -3.25911 0
M  V30 23984 C 2179.47 -2.05103 -3.73945 0
M  V30 23985 S 2180.3 -3.66847 -3.90107 0
M  V30 23986 C 2181.45 -3.36532 -5.27728 0
M  V30 23987 H 2181.69 -2.19323 -2.00711 0
M  V30 23988 H 2179.22 -1.21584 -0.951666 0
M  V30 23989 H 2181.18 -0.741699 -4.03744 0
M  V30 23990 H 2179.84 0.00728832 -3.14099 0
M  V30 23991 H 2179.03 -1.77867 -4.71571 0
M  V30 23992 H 2178.63 -2.19032 -3.03151 0
M  V30 23993 H 2180.93 -2.90215 -6.12194 0
M  V30 23994 H 2181.87 -4.33409 -5.59966 0
M  V30 23995 H 2182.28 -2.71962 -4.94668 0
M  V30 23996 N 2181.68 1.01656 -1.20431 0
M  V30 23997 C 2182.92 1.74663 -1.00874 0
M  V30 23998 C 2183.24 1.9012 0.459746 0
M  V30 23999 O 2184.44 2.6022 0.774445 0
M  V30 24000 C 2182.9 3.14147 -1.75612 0
M  V30 24001 C 2182.51 3.06703 -3.26554 0
M  V30 24002 C 2184.25 3.91364 -1.64422 0
M  V30 24003 C 2182.16 4.41194 -3.93829 0
M  V30 24004 H 2181.09 0.654809 -0.37382 0
M  V30 24005 H 2183.74 1.13672 -1.44052 0
M  V30 24006 H 2182.12 3.7568 -1.25221 0
M  V30 24007 H 2183.3 2.54477 -3.84159 0
M  V30 24008 H 2181.61 2.42979 -3.38157 0
M  V30 24009 H 2184.21 4.90866 -2.12026 0
M  V30 24010 H 2184.55 4.11947 -0.600434 0
M  V30 24011 H 2185.08 3.36459 -2.12227 0
M  V30 24012 H 2181.82 4.25814 -4.9836 0
M  V30 24013 H 2181.34 4.93427 -3.41013 0
M  V30 24014 H 2183.02 5.10038 -3.98084 0
M  V30 24015 N 2183.15 1.01021 1.20965 0
M  V30 24016 C 2184.08 0.5953 2.25784 0
M  V30 24017 C 2185.06 -0.386477 1.65651 0
M  V30 24018 O 2186.25 -0.273315 1.92267 0
M  V30 24019 C 2183.38 -0.0736489 3.47222 0
M  V30 24020 C 2182.33 0.828449 4.19906 0
M  V30 24021 C 2181.66 0.0256242 5.34694 0
M  V30 24022 C 2182.96 2.13351 4.76737 0
M  V30 24023 H 2184.65 1.4715 2.60744 0
M  V30 24024 H 2182.2 0.70899 1.25337 0
M  V30 24025 H 2184.15 -0.375423 4.19724 0
M  V30 24026 H 2182.88 -0.984519 3.11408 0
M  V30 24027 H 2181.54 1.11413 3.4926 0
M  V30 24028 H 2181.18 -0.886697 4.95123 0
M  V30 24029 H 2180.88 0.626319 5.84253 0
M  V30 24030 H 2182.41 -0.269844 6.10003 0
M  V30 24031 H 2183.82 1.89453 5.41092 0
M  V30 24032 H 2182.22 2.68451 5.36707 0
M  V30 24033 H 2183.29 2.80081 3.95832 0
M  V30 24034 N 2184.63 -1.36623 0.78561 0
M  V30 24035 C 2185.91 -1.9358 0.280398 0
M  V30 24036 C 2186.29 -1.71791 -1.22683 0
M  V30 24037 O 2185.64 -1.07466 -2.01651 0
M  V30 24038 C 2185.85 -3.4253 0.668878 0
M  V30 24039 C 2187.19 -4.1965 0.646471 0
M  V30 24040 O 2188.22 -3.50953 0.609116 0
M  V30 24041 O 2187.08 -5.42178 0.685949 0
M  V30 24042 H 2184.17 -0.824163 0.0684374 0
M  V30 24043 H 2186.72 -1.45827 0.867897 0
M  V30 24044 H 2185.49 -3.5203 1.70853 0
M  V30 24045 H 2185.11 -3.97562 0.0550603 0
M  V30 24046 N 2186.11 -0.537304 -1.48158 0
M  V30 24047 C 2187.02 0.225092 -2.33518 0
M  V30 24048 C 2188.04 0.931763 -1.4695 0
M  V30 24049 O 2189.21 0.905094 -1.79917 0
M  V30 24050 C 2186.28 1.25403 -3.23226 0
M  V30 24051 C 2185.34 0.556924 -4.25672 0
M  V30 24052 C 2184.57 1.53684 -5.11094 0
M  V30 24053 O 2184.79 2.77009 -4.9862 0
M  V30 24054 O 2183.73 1.07222 -5.92273 0
M  V30 24055 H 2187.55 -0.474567 -2.99969 0
M  V30 24056 H 2185.14 -0.298137 -1.46395 0
M  V30 24057 H 2187.02 1.84847 -3.78695 0
M  V30 24058 H 2185.7 1.93596 -2.59427 0
M  V30 24059 H 2184.6 -0.0781996 -3.74018 0
M  V30 24060 H 2185.94 -0.0832021 -4.9213 0
M  V30 24061 N 2187.59 1.55221 -0.272782 0
M  V30 24062 C 2188.83 1.99841 0.345178 0
M  V30 24063 C 2189.17 1.16093 1.55679 0
M  V30 24064 O 2188.44 0.230441 1.9313 0
M  V30 24065 C 2188.73 3.5263 0.729656 0
M  V30 24066 C 2188.58 4.47133 -0.489138 0
M  V30 24067 C 2189.9 4.11259 1.56698 0
M  V30 24068 H 2187.02 0.726495 0.123989 0
M  V30 24069 H 2189.66 1.86176 -0.379262 0
M  V30 24070 H 2187.81 3.64405 1.34689 0
M  V30 24071 H 2189.48 4.47304 -1.12769 0
M  V30 24072 H 2187.72 4.18888 -1.12762 0
M  V30 24073 H 2188.39 5.51718 -0.176396 0
M  V30 24074 H 2190.87 4.02745 1.04572 0
M  V30 24075 H 2189.75 5.1838 1.80481 0
M  V30 24076 H 2190.01 3.61341 2.54726 0
M  V30 24077 N 2189.07 2.77022e-05 1.576 0
M  V30 24078 C 2190.01 -0.991376 2.08424 0
M  V30 24079 C 2190.98 -1.34134 0.979661 0
M  V30 24080 O 2192.17 -1.4397 1.25209 0
M  V30 24081 C 2189.31 -2.27808 2.59224 0
M  V30 24082 C 2188.42 -1.98715 3.83584 0
M  V30 24083 C 2187.56 -3.21468 4.22885 0
M  V30 24084 C 2186.6 -2.88061 5.40081 0
M  V30 24085 N 2185.73 -4.0335 5.74676 0
M  V30 24086 H 2190.57 -0.551038 2.92861 0
M  V30 24087 H 2188.11 -0.260432 1.44776 0
M  V30 24088 H 2190.07 -3.03029 2.86756 0
M  V30 24089 H 2188.7 -2.69511 1.77661 0
M  V30 24090 H 2187.75 -1.13862 3.62959 0
M  V30 24091 H 2189.06 -1.70092 4.68903 0
M  V30 24092 H 2188.22 -4.05034 4.517 0
M  V30 24093 H 2186.95 -3.53229 3.36275 0
M  V30 24094 H 2185.96 -2.02902 5.1099 0
M  V30 24095 H 2187.18 -2.57547 6.28368 0
M  V30 24096 H 2185.13 -4.35008 4.91023 0
M  V30 24097 H 2185.05 -3.78251 6.5457 0
M  V30 24098 H 2186.32 -4.87705 6.08082 0
M  V30 24099 N 2190.54 -1.55222 -0.272728 0
M  V30 24100 C 2191.48 -1.83048 -1.36266 0
M  V30 24101 C 2192.46 -0.683547 -1.47534 0
M  V30 24102 O 2193.64 -0.926574 -1.64155 0
M  V30 24103 C 2190.77 -1.99234 -2.73904 0
M  V30 24104 C 2189.81 -3.21788 -2.79919 0
M  V30 24105 S 2190.65 -4.79138 -2.39137 0
M  V30 24106 C 2191.8 -4.98297 -3.78749 0
M  V30 24107 H 2192.03 -2.75209 -1.1246 0
M  V30 24108 H 2189.57 -1.46997 -0.472372 0
M  V30 24109 H 2191.53 -2.09244 -3.53167 0
M  V30 24110 H 2190.19 -1.07961 -2.94963 0
M  V30 24111 H 2189.38 -3.30001 -3.8094 0
M  V30 24112 H 2188.98 -3.1037 -2.08677 0
M  V30 24113 H 2191.27 -4.84055 -4.74022 0
M  V30 24114 H 2192.22 -6.00345 -3.75488 0
M  V30 24115 H 2192.62 -4.26277 -3.70065 0
M  V30 24116 N 2192.02 0.537252 -1.4816 0
M  V30 24117 C 2192.97 1.63854 -1.58543 0
M  V30 24118 C 2193.96 1.54681 -0.442996 0
M  V30 24119 O 2195.15 1.62825 -0.694039 0
M  V30 24120 C 2192.28 3.02593 -1.62149 0
M  V30 24121 C 2191.36 3.16896 -2.81847 0
M  V30 24122 N 2191.75 3.01197 -4.06343 0
M  V30 24123 C 2190.05 3.47937 -2.79027 0
M  V30 24124 C 2190.75 3.18722 -4.86612 0
M  V30 24125 N 2189.73 3.45967 -4.19294 0
M  V30 24126 H 2193.53 1.50315 -2.52552 0
M  V30 24127 H 2191.05 0.74253 -1.44431 0
M  V30 24128 H 2193.04 3.81692 -1.6768 0
M  V30 24129 H 2191.7 3.17229 -0.692506 0
M  V30 24130 H 2192.71 2.78109 -4.36893 0
M  V30 24131 H 2189.39 3.68976 -1.95353 0
M  V30 24132 H 2190.78 3.11383 -5.95391 0
M  V30 24133 N 2193.5 1.36626 0.785562 0
M  V30 24134 C 2194.43 1.33953 1.91256 0
M  V30 24135 C 2195.41 0.210355 1.68794 0
M  V30 24136 O 2196.6 0.408594 1.89853 0
M  V30 24137 C 2193.73 1.13191 3.28337 0
M  V30 24138 C 2192.68 2.22974 3.65331 0
M  V30 24139 C 2192.01 1.87351 5.00803 0
M  V30 24140 C 2193.31 3.65082 3.73514 0
M  V30 24141 H 2195 2.28257 1.93751 0
M  V30 24142 H 2192.55 1.09876 0.930768 0
M  V30 24143 H 2194.5 1.09955 4.06802 0
M  V30 24144 H 2193.22 0.15339 3.2624 0
M  V30 24145 H 2191.88 2.25342 2.89165 0
M  V30 24146 H 2191.53 0.880632 4.95231 0
M  V30 24147 H 2191.23 2.60855 5.26525 0
M  V30 24148 H 2192.75 1.85677 5.81684 0
M  V30 24149 H 2194.17 3.64919 4.42162 0
M  V30 24150 H 2192.57 4.37523 4.10723 0
M  V30 24151 H 2193.64 3.99708 2.7452 0
M  V30 24152 N 2194.98 -1.01016 1.20969 0
M  V30 24153 C 2196.39 -1.56164 1.02322 0
M  V30 24154 C 2196.74 -1.91684 -0.418512 0
M  V30 24155 O 2195.87 -1.7293 -1.30093 0
M  V30 24156 C 2196.46 -2.83757 1.85114 0
M  V30 24157 C 2195.02 -3.35409 1.70815 0
M  V30 24158 C 2194.17 -2.08651 1.82647 0
M  V30 24159 H 2197.12 -0.833232 1.35066 0
M  V30 24160 H 2197.14 -3.55429 1.35833 0
M  V30 24161 H 2196.65 -2.57873 2.9004 0
M  V30 24162 H 2194.75 -3.66239 0.685528 0
M  V30 24163 H 2194.86 -4.07177 2.52475 0
M  V30 24164 H 2193.23 -2.21407 1.259 0
M  V30 24165 H 2194.01 -1.85185 2.8907 0
M  V30 24166 N 2196.46 -1.01661 -1.20428 0
M  V30 24167 C 2197.42 -0.591655 -2.21432 0
M  V30 24168 C 2198.42 0.338198 -1.57203 0
M  V30 24169 O 2199.61 0.126887 -1.73737 0
M  V30 24170 C 2196.74 0.135998 -3.40629 0
M  V30 24171 H 2197.93 -1.48518 -2.60542 0
M  V30 24172 H 2195.49 -0.806402 -1.33891 0
M  V30 24173 H 2196.22 1.04444 -3.07021 0
M  V30 24174 H 2196.01 -0.531985 -3.88474 0
M  V30 24175 H 2197.5 0.420662 -4.15476 0
M  V30 24176 N 2197.93 1.36205 -0.792844 0
M  V30 24177 C 2198.86 2.32573 -0.207894 0
M  V30 24178 C 2199.85 1.56815 0.659028 0
M  V30 24179 O 2201.03 1.84952 0.592143 0
M  V30 24180 C 2198.16 3.4106 0.655389 0
M  V30 24181 C 2197.11 4.27854 -0.111917 0
M  V30 24182 C 2196.44 5.27539 0.872181 0
M  V30 24183 C 2197.74 5.05784 -1.30308 0
M  V30 24184 H 2199.43 2.81743 -1.01299 0
M  V30 24185 H 2196.98 1.35459 -0.488564 0
M  V30 24186 H 2198.93 4.07469 1.07457 0
M  V30 24187 H 2197.66 2.90466 1.49323 0
M  V30 24188 H 2196.32 3.63005 -0.512116 0
M  V30 24189 H 2195.96 4.73217 1.70514 0
M  V30 24190 H 2195.66 5.86477 0.363188 0
M  V30 24191 H 2197.19 5.96821 1.28986 0
M  V30 24192 H 2198.6 5.65214 -0.959478 0
M  V30 24193 H 2197 5.7415 -1.7456 0
M  V30 24194 H 2198.07 4.37226 -2.0967 0
M  V30 24195 N 2199.41 0.545154 1.47871 0
M  V30 24196 C 2200.32 -0.212705 2.33634 0
M  V30 24197 C 2201.34 -0.923957 1.47442 0
M  V30 24198 O 2202.51 -0.89554 1.80394 0
M  V30 24199 C 2199.58 -1.23687 3.23886 0
M  V30 24200 C 2198.64 -0.534342 4.25962 0
M  V30 24201 C 2197.87 -1.50971 5.11902 0
M  V30 24202 O 2198.1 -2.74361 5.00082 0
M  V30 24203 O 2197.03 -1.0408 5.92833 0
M  V30 24204 H 2200.86 0.490469 2.99713 0
M  V30 24205 H 2198.44 0.305896 1.46235 0
M  V30 24206 H 2200.32 -1.82836 3.7967 0
M  V30 24207 H 2199 -1.92218 2.6045 0
M  V30 24208 H 2197.91 0.0980336 3.73972 0
M  V30 24209 H 2199.24 0.1093 4.92079 0
M  V30 24210 N 2200.89 -1.55074 0.28101 0
M  V30 24211 C 2202.12 -2.04133 -0.337257 0
M  V30 24212 C 2202.53 -1.15915 -1.49028 0
M  V30 24213 O 2201.89 -0.180491 -1.81605 0
M  V30 24214 C 2201.94 -3.52248 -0.812644 0
M  V30 24215 O 2201.66 -4.37109 0.294464 0
M  V30 24216 C 2203.16 -4.17218 -1.49812 0
M  V30 24217 H 2200.38 -0.666665 -0.0761521 0
M  V30 24218 H 2202.93 -2.00249 0.414822 0
M  V30 24219 H 2201.08 -3.56557 -1.5148 0
M  V30 24220 H 2201.5 -5.24451 -0.0720403 0
M  V30 24221 H 2202.97 -5.22441 -1.78211 0
M  V30 24222 H 2203.45 -3.65745 -2.43161 0
M  V30 24223 H 2204.05 -4.16929 -0.839669 0
M  V30 24224 N 2202.37 -0.00838561 -1.57598 0
M  V30 24225 C 2203.32 0.980309 -2.08946 0
M  V30 24226 C 2204.29 1.33612 -0.986761 0
M  V30 24227 O 2205.47 1.43304 -1.25971 0
M  V30 24228 C 2202.61 2.2643 -2.60429 0
M  V30 24229 C 2201.72 1.96678 -3.84632 0
M  V30 24230 C 2200.86 3.1922 -4.24584 0
M  V30 24231 C 2199.9 2.85192 -5.41601 0
M  V30 24232 N 2199.04 4.00297 -5.76807 0
M  V30 24233 H 2203.88 0.535499 -2.93149 0
M  V30 24234 H 2201.41 0.252751 -1.44912 0
M  V30 24235 H 2203.37 3.01504 -2.88359 0
M  V30 24236 H 2202 2.68565 -1.79088 0
M  V30 24237 H 2201.05 1.11936 -3.63558 0
M  V30 24238 H 2202.36 1.67603 -4.69799 0
M  V30 24239 H 2201.52 4.02633 -4.53841 0
M  V30 24240 H 2200.26 3.51441 -3.38143 0
M  V30 24241 H 2199.26 2.00189 -5.12059 0
M  V30 24242 H 2200.49 2.54211 -6.29725 0
M  V30 24243 H 2198.43 4.32398 -4.93323 0
M  V30 24244 H 2198.35 3.74774 -6.56567 0
M  V30 24245 H 2199.62 4.84473 -6.1066 0
M  V30 24246 N 2203.85 1.55365 0.264492 0
M  V30 24247 C 2205.07 1.80741 1.01722 0
M  V30 24248 C 2205.5 0.583075 1.78835 0
M  V30 24249 O 2204.86 -0.467535 1.75168 0
M  V30 24250 C 2204.9 3.03663 1.94477 0
M  V30 24251 O 2204.01 2.79345 3.03381 0
M  V30 24252 H 2203.35 0.597137 0.290384 0
M  V30 24253 H 2205.88 2.02523 0.290818 0
M  V30 24254 H 2205.89 3.32625 2.36272 0
M  V30 24255 H 2204.56 3.9242 1.37765 0
M  V30 24256 H 2203.14 2.61503 2.6584 0
M  V30 24257 N 2205.33 -0.529387 1.48443 0
M  V30 24258 C 2206.57 -1.28709 1.56722 0
M  V30 24259 C 2206.9 -1.92703 0.240634 0
M  V30 24260 O 2206.18 -1.79315 -0.753422 0
M  V30 24261 C 2206.46 -2.37598 2.70591 0
M  V30 24262 C 2206.32 -1.7829 4.12956 0
M  V30 24263 C 2207.63 -3.39361 2.80218 0
M  V30 24264 H 2204.75 -0.466603 0.570483 0
M  V30 24265 H 2207.4 -0.589675 1.80618 0
M  V30 24266 H 2205.55 -2.97084 2.50347 0
M  V30 24267 H 2207.22 -1.2285 4.44641 0
M  V30 24268 H 2205.46 -1.08822 4.19929 0
M  V30 24269 H 2206.13 -2.57135 4.88452 0
M  V30 24270 H 2208.61 -2.89831 2.98558 0
M  V30 24271 H 2207.48 -4.12945 3.61618 0
M  V30 24272 H 2207.74 -3.99947 1.884 0
M  V30 24273 N 2206.8 -1.37041 -0.778305 0
M  V30 24274 C 2207.71 -1.3445 -1.92251 0
M  V30 24275 C 2208.73 -0.245021 -1.72266 0
M  V30 24276 O 2209.91 -0.479293 -1.95614 0
M  V30 24277 C 2206.97 -1.14405 -3.2728 0
M  V30 24278 C 2206.03 -2.33931 -3.59965 0
M  V30 24279 C 2205.26 -2.14834 -4.88551 0
M  V30 24280 O 2205.49 -1.12922 -5.59111 0
M  V30 24281 O 2204.42 -3.0287 -5.20147 0
M  V30 24282 H 2208.25 -2.30807 -1.97388 0
M  V30 24283 H 2205.83 -1.17703 -0.920134 0
M  V30 24284 H 2207.71 -1.05189 -4.0806 0
M  V30 24285 H 2206.39 -0.211181 -3.2301 0
M  V30 24286 H 2205.3 -2.48718 -2.79446 0
M  V30 24287 H 2206.63 -3.25763 -3.6897 0
M  V30 24288 N 2208.28 1.00373 -1.21503 0
M  V30 24289 C 2209.21 2.09341 -0.933211 0
M  V30 24290 C 2210.23 1.62583 0.084061 0
M  V30 24291 O 2211.42 1.7788 -0.148594 0
M  V30 24292 C 2208.52 3.36764 -0.379928 0
M  V30 24293 C 2207.69 4.12602 -1.45184 0
M  V30 24294 C 2206.75 5.18314 -0.907567 0
M  V30 24295 O 2205.77 5.46504 -1.59129 0
M  V30 24296 N 2206.98 5.79841 0.276547 0
M  V30 24297 H 2209.74 2.34101 -1.87128 0
M  V30 24298 H 2207.3 1.16866 -1.12045 0
M  V30 24299 H 2209.29 4.047 -0.00138601 0
M  V30 24300 H 2207.86 3.09152 0.462994 0
M  V30 24301 H 2207.08 3.39451 -2.00417 0
M  V30 24302 H 2208.37 4.60046 -2.17336 0
M  V30 24303 H 2207.77 5.59292 0.849049 0
M  V30 24304 H 2206.33 6.49064 0.596588 0
M  V30 24305 N 2209.76 1.02298 1.19887 0
M  V30 24306 C 2210.67 0.608548 2.2657 0
M  V30 24307 C 2211.69 -0.356934 1.703 0
M  V30 24308 O 2212.86 -0.216291 2.00235 0
M  V30 24309 C 2209.93 -0.0402204 3.46677 0
M  V30 24310 C 2208.99 0.972013 4.18151 0
M  V30 24311 C 2208.22 0.35411 5.32524 0
M  V30 24312 O 2208.44 -0.844505 5.64114 0
M  V30 24313 O 2207.38 1.07402 5.9224 0
M  V30 24314 H 2211.2 1.49688 2.64248 0
M  V30 24315 H 2208.79 0.792831 1.26628 0
M  V30 24316 H 2210.67 -0.40225 4.19476 0
M  V30 24317 H 2209.35 -0.902652 3.1086 0
M  V30 24318 H 2208.25 1.38552 3.47497 0
M  V30 24319 H 2209.59 1.80462 4.57924 0
M  V30 24320 N 2211.24 -1.35782 0.800057 0
M  V30 24321 C 2212.48 -1.99247 0.377936 0
M  V30 24322 C 2212.82 -1.63335 -1.05049 0
M  V30 24323 O 2212.09 -0.893415 -1.72767 0
M  V30 24324 C 2212.37 -3.55813 0.553984 0
M  V30 24325 C 2212.23 -4.01545 2.02687 0
M  V30 24326 C 2213.55 -4.40093 -0.0244028 0
M  V30 24327 H 2210.67 -0.723813 0.138795 0
M  V30 24328 H 2213.31 -1.61033 1.00838 0
M  V30 24329 H 2211.46 -3.88496 0.0173081 0
M  V30 24330 H 2213.13 -3.79301 2.62543 0
M  V30 24331 H 2211.37 -3.52693 2.52567 0
M  V30 24332 H 2212.04 -5.10454 2.10096 0
M  V30 24333 H 2214.52 -4.13832 0.433848 0
M  V30 24334 H 2213.4 -5.48749 0.128733 0
M  V30 24335 H 2213.66 -4.27743 -1.11751 0
M  V30 24336 N 2212.72 -0.552988 -1.4758 0
M  V30 24337 C 2213.96 -0.0274004 -2.02781 0
M  V30 24338 C 2214.29 1.31732 -1.4269 0
M  V30 24339 O 2213.57 1.85622 -0.58093 0
M  V30 24340 C 2213.85 0.0701738 -3.60032 0
M  V30 24341 C 2213.71 -1.30134 -4.30564 0
M  V30 24342 C 2215.02 0.785694 -4.3303 0
M  V30 24343 H 2212.14 -0.0114315 -0.736911 0
M  V30 24344 H 2214.79 -0.714463 -1.76055 0
M  V30 24345 H 2212.94 0.655315 -3.82933 0
M  V30 24346 H 2214.61 -1.92936 -4.19015 0
M  V30 24347 H 2212.85 -1.87715 -3.91082 0
M  V30 24348 H 2213.52 -1.18583 -5.39112 0
M  V30 24349 H 2216 0.288909 -4.15096 0
M  V30 24350 H 2214.87 0.822917 -5.42696 0
M  V30 24351 H 2215.13 1.84093 -4.01948 0
M  V30 24352 N 2214.19 1.54923 -0.28923 0
M  V30 24353 C 2215.13 2.20498 0.625544 0
M  V30 24354 C 2216.14 1.19404 1.10665 0
M  V30 24355 O 2217.33 1.46058 1.02612 0
M  V30 24356 C 2214.43 2.82838 1.86697 0
M  V30 24357 C 2213.6 4.09756 1.53033 0
M  V30 24358 C 2212.66 4.56009 2.62568 0
M  V30 24359 O 2211.69 5.21472 2.28157 0
M  V30 24360 N 2212.89 4.27335 3.92893 0
M  V30 24361 H 2215.65 2.99631 0.0642274 0
M  V30 24362 H 2213.21 1.6152 -0.110924 0
M  V30 24363 H 2215.21 3.10719 2.59298 0
M  V30 24364 H 2213.78 2.07615 2.33698 0
M  V30 24365 H 2213 3.89011 0.637496 0
M  V30 24366 H 2214.28 4.9242 1.28063 0
M  V30 24367 H 2213.68 3.74866 4.23665 0
M  V30 24368 H 2212.24 4.59954 4.61829 0
M  V30 24369 N 2215.67 0.0167433 1.57591 0
M  V30 24370 C 2216.9 -0.678685 1.95981 0
M  V30 24371 C 2217.32 -1.65574 0.892575 0
M  V30 24372 O 2216.68 -1.80697 -0.14774 0
M  V30 24373 C 2216.73 -1.37221 3.33471 0
M  V30 24374 O 2215.83 -2.48717 3.28959 0
M  V30 24375 H 2215.17 -0.179269 0.639342 0
M  V30 24376 H 2217.7 0.0749162 2.04463 0
M  V30 24377 H 2217.71 -1.73184 3.6942 0
M  V30 24378 H 2216.39 -0.655935 4.10695 0
M  V30 24379 H 2214.96 -2.14958 3.04709 0
M  V30 24380 N 2217.15 -1.55503 -0.256249 0
M  V30 24381 C 2218.08 -1.85964 -1.33978 0
M  V30 24382 C 2219.1 -0.745237 -1.44741 0
M  V30 24383 O 2220.28 -1.02327 -1.46258 0
M  V30 24384 C 2217.38 -2.02247 -2.71936 0
M  V30 24385 C 2216.56 -3.33038 -2.83556 0
M  V30 24386 C 2215.62 -3.39179 -4.02298 0
M  V30 24387 O 2214.64 -4.12451 -3.92266 0
M  V30 24388 N 2215.84 -2.67793 -5.15041 0
M  V30 24389 H 2218.61 -2.79492 -1.08186 0
M  V30 24390 H 2216.17 -1.55625 -0.446361 0
M  V30 24391 H 2218.16 -2.03708 -3.49693 0
M  V30 24392 H 2216.73 -1.15507 -2.90477 0
M  V30 24393 H 2215.95 -3.43974 -1.92549 0
M  V30 24394 H 2217.24 -4.19263 -2.88263 0
M  V30 24395 H 2216.64 -2.07977 -5.26082 0
M  V30 24396 H 2215.2 -2.74957 -5.90967 0
M  V30 24397 N 2218.63 0.521507 -1.48721 0
M  V30 24398 C 2219.56 1.63428 -1.66774 0
M  V30 24399 C 2220.54 1.62068 -0.516528 0
M  V30 24400 O 2221.72 1.79131 -0.750045 0
M  V30 24401 C 2218.85 3.0199 -1.71521 0
M  V30 24402 C 2217.81 3.18211 -2.86227 0
M  V30 24403 C 2217.13 4.57919 -2.76069 0
M  V30 24404 C 2218.43 3.00177 -4.27424 0
M  V30 24405 H 2220.13 1.48574 -2.59935 0
M  V30 24406 H 2217.67 0.713336 -1.2509 0
M  V30 24407 H 2219.63 3.79717 -1.82738 0
M  V30 24408 H 2218.35 3.17885 -0.749449 0
M  V30 24409 H 2217.01 2.42903 -2.74579 0
M  V30 24410 H 2216.66 4.70662 -1.77445 0
M  V30 24411 H 2216.36 4.69716 -3.53045 0
M  V30 24412 H 2217.88 5.37734 -2.89266 0
M  V30 24413 H 2219.3 3.67689 -4.39861 0
M  V30 24414 H 2217.69 3.23461 -5.05463 0
M  V30 24415 H 2218.76 1.96511 -4.43296 0
M  V30 24416 N 2220.11 1.37452 0.771027 0
M  V30 24417 C 2221.05 1.33361 1.90572 0
M  V30 24418 C 2222.05 0.22227 1.67935 0
M  V30 24419 O 2223.25 0.390335 1.75717 0
M  V30 24420 H 2219.63 0.415623 0.626707 0
M  V30 24421 H 2221.6 2.29148 1.91138 0
M  V30 24422 C 2220.35 1.15819 3.27843 0
M  V30 24423 H 2219.67 2.00589 3.45838 0
M  V30 24424 H 2221.11 1.17007 4.07536 0
M  V30 24425 C 2219.57 -0.136106 3.36625 0
M  V30 24426 O 2220.1 -1.11942 3.85787 0
M  V30 24427 N 2218.31 -0.187048 2.89997 0
M  V30 24428 H 2217.85 0.613797 2.50181 0
M  V30 24429 H 2217.81 -1.05266 2.96254 0
M  V30 24430 N 2221.58 -0.997276 1.22033 0
M  V30 24431 C 2222.53 -2.07087 0.953875 0
M  V30 24432 C 2223.52 -1.60626 -0.0938387 0
M  V30 24433 O 2224.71 -1.76619 0.11611 0
M  V30 24434 C 2221.84 -3.39203 0.528785 0
M  V30 24435 C 2220.93 -3.92311 1.61099 0
M  V30 24436 N 2221.32 -4.18694 2.83776 0
M  V30 24437 C 2219.61 -4.2067 1.48166 0
M  V30 24438 C 2220.32 -4.61795 3.53723 0
M  V30 24439 N 2219.29 -4.65228 2.81182 0
M  V30 24440 H 2223.09 -2.25421 1.88581 0
M  V30 24441 H 2220.61 -1.17865 1.11721 0
M  V30 24442 H 2222.6 -4.15676 0.319223 0
M  V30 24443 H 2221.26 -3.22273 -0.396294 0
M  V30 24444 H 2222.28 -4.07018 3.20245 0
M  V30 24445 H 2218.95 -4.12834 0.622442 0
M  V30 24446 H 2220.34 -4.90867 4.58802 0
M  V30 24447 N 2223.06 -1.02932 -1.19343 0
M  V30 24448 C 2224.3 -0.734761 -1.90737 0
M  V30 24449 C 2224.67 0.723383 -1.77852 0
M  V30 24450 O 2225.87 1.13104 -2.43846 0
M  V30 24451 C 2224.14 -1.17402 -3.37567 0
M  V30 24452 S 2225.7 -1.00336 -4.27174 0
M  V30 24453 H 2222.52 -0.267485 -0.658766 0
M  V30 24454 H 2225.12 -1.31925 -1.44278 0
M  V30 24455 H 2223.82 -2.23087 -3.44471 0
M  V30 24456 H 2223.35 -0.58284 -3.89059 0
M  V30 24457 H 2225.37 0.085828 -4.96126 0
M  V30 24458 N 2224.54 1.35356 -0.807246 0
M  V30 24459 C 2225.79 1.99044 -0.388498 0
M  V30 24460 C 2226.12 1.6389 1.04181 0
M  V30 24461 O 2225.39 0.902565 1.7229 0
M  V30 24462 C 2225.68 3.55514 -0.572846 0
M  V30 24463 C 2225.53 4.00464 -2.04814 0
M  V30 24464 C 2226.85 4.401 0.00106328 0
M  V30 24465 H 2223.97 0.723067 -0.142631 0
M  V30 24466 H 2226.61 1.60496 -1.0169 0
M  V30 24467 H 2224.76 3.88482 -0.0379108 0
M  V30 24468 H 2226.43 3.77903 -2.6455 0
M  V30 24469 H 2224.68 3.51349 -2.54433 0
M  V30 24470 H 2225.35 5.09333 -2.128 0
M  V30 24471 H 2227.82 4.13596 -0.455788 0
M  V30 24472 H 2226.7 5.48673 -0.157833 0
M  V30 24473 H 2226.96 4.2833 1.09481 0
M  V30 24474 N 2226.02 0.560807 1.47284 0
M  V30 24475 C 2226.97 -0.197901 2.31757 0
M  V30 24476 C 2227.96 -0.905828 1.43147 0
M  V30 24477 O 2229.17 -0.826705 1.59892 0
M  V30 24478 H 2225.54 -0.0826918 0.74744 0
M  V30 24479 H 2227.51 0.53368 2.93589 0
M  V30 24480 C 2226.26 -1.21244 3.25876 0
M  V30 24481 H 2225.58 -0.677121 3.94024 0
M  V30 24482 H 2227.02 -1.71412 3.87806 0
M  V30 24483 C 2225.48 -2.26217 2.49655 0
M  V30 24484 O 2226.01 -3.33204 2.24361 0
M  V30 24485 N 2224.22 -2.0024 2.106 0
M  V30 24486 H 2223.77 -1.13248 2.31371 0
M  V30 24487 H 2223.72 -2.70691 1.59918 0
M  V30 24488 N 2227.5 -1.54768 0.297442 0
M  V30 24489 C 2228.43 -2.26349 -0.573454 0
M  V30 24490 C 2229.41 -1.26171 -1.14083 0
M  V30 24491 O 2230.59 -1.54936 -1.17083 0
M  V30 24492 C 2227.72 -3.00156 -1.74711 0
M  V30 24493 C 2226.68 -4.07451 -1.31025 0
M  V30 24494 C 2226 -4.68954 -2.56878 0
M  V30 24495 C 2227.3 -5.20409 -0.444092 0
M  V30 24496 H 2229 -2.99391 0.0235657 0
M  V30 24497 H 2226.54 -1.43994 0.0127742 0
M  V30 24498 H 2228.5 -3.48951 -2.36243 0
M  V30 24499 H 2227.22 -2.24686 -2.37031 0
M  V30 24500 H 2225.88 -3.595 -0.718003 0
M  V30 24501 H 2225.53 -3.90128 -3.17505 0
M  V30 24502 H 2225.23 -5.41415 -2.28351 0
M  V30 24503 H 2226.75 -5.2051 -3.1922 0
M  V30 24504 H 2228.16 -5.6512 -0.965 0
M  V30 24505 H 2226.56 -5.99568 -0.252741 0
M  V30 24506 H 2227.63 -4.81976 0.531693 0
M  V30 24507 N 2228.97 -0.0251005 -1.5758 0
M  V30 24508 C 2230.2 0.663748 -1.95647 0
M  V30 24509 C 2230.61 1.66425 -0.899965 0
M  V30 24510 O 2229.96 1.83259 0.127159 0
M  V30 24511 C 2230.02 1.42994 -3.29838 0
M  V30 24512 C 2229.68 0.588225 -4.53199 0
M  V30 24513 C 2230.68 -0.134781 -5.19725 0
M  V30 24514 C 2228.36 0.526809 -4.9953 0
M  V30 24515 C 2230.36 -0.907921 -6.30901 0
M  V30 24516 C 2228.04 -0.250037 -6.10588 0
M  V30 24517 C 2229.04 -0.966113 -6.76133 0
M  V30 24518 O 2228.73 -1.73023 -7.85059 0
M  V30 24519 H 2228.46 0.188163 -0.649285 0
M  V30 24520 H 2231.02 -0.0799366 -2.05244 0
M  V30 24521 H 2229.25 2.21868 -3.1672 0
M  V30 24522 H 2230.94 2.00652 -3.52837 0
M  V30 24523 H 2231.7 -0.0966414 -4.84904 0
M  V30 24524 H 2227.58 1.07373 -4.48321 0
M  V30 24525 H 2231.12 -1.46736 -6.81993 0
M  V30 24526 H 2227.02 -0.289909 -6.44849 0
M  V30 24527 H 2227.79 -1.64958 -8.01705 0
M  V30 24528 N 2230.45 1.55637 0.247999 0
M  V30 24529 C 2231.4 1.90224 1.30703 0
M  V30 24530 C 2232.37 0.756358 1.4788 0
M  V30 24531 O 2233.55 1.00991 1.61881 0
M  V30 24532 C 2230.69 2.20142 2.65766 0
M  V30 24533 C 2229.81 3.4753 2.56606 0
M  V30 24534 C 2228.94 3.67024 3.84014 0
M  V30 24535 C 2227.98 4.88017 3.69467 0
M  V30 24536 N 2227.12 5.04037 4.88765 0
M  V30 24537 H 2231.96 2.80539 1.00507 0
M  V30 24538 H 2229.5 1.38874 0.485031 0
M  V30 24539 H 2231.45 2.35493 3.44382 0
M  V30 24540 H 2230.08 1.33032 2.94113 0
M  V30 24541 H 2229.14 3.40517 1.69565 0
M  V30 24542 H 2230.45 4.36292 2.41767 0
M  V30 24543 H 2229.6 3.82328 4.71074 0
M  V30 24544 H 2228.34 2.76494 4.01749 0
M  V30 24545 H 2227.35 4.72691 2.80791 0
M  V30 24546 H 2228.57 5.80006 3.53228 0
M  V30 24547 H 2226.52 4.16444 5.06863 0
M  V30 24548 H 2226.43 5.86885 4.76552 0
M  V30 24549 H 2227.7 5.23751 5.77326 0
M  V30 24550 N 2231.93 -0.513613 1.48996 0
M  V30 24551 C 2233.16 -1.29759 1.61794 0
M  V30 24552 C 2233.58 -1.85936 0.284508 0
M  V30 24553 O 2232.94 -1.65234 -0.746156 0
M  V30 24554 C 2232.99 -2.41268 2.67997 0
M  V30 24555 O 2232.09 -3.44768 2.26294 0
M  V30 24556 H 2231.43 -0.383621 0.54197 0
M  V30 24557 H 2233.96 -0.616273 1.95098 0
M  V30 24558 H 2233.97 -2.87216 2.89777 0
M  V30 24559 H 2232.65 -1.99743 3.64795 0
M  V30 24560 H 2231.22 -3.04825 2.14793 0
M  V30 24561 N 2233.41 -1.37859 -0.763727 0
M  V30 24562 C 2234.34 -1.36978 -1.89101 0
M  V30 24563 C 2235.32 -0.237182 -1.68438 0
M  V30 24564 O 2236.51 -0.438747 -1.89179 0
M  V30 24565 C 2233.64 -1.18401 -3.26494 0
M  V30 24566 C 2232.59 -2.28758 -3.61737 0
M  V30 24567 C 2231.92 -1.95295 -4.97759 0
M  V30 24568 C 2233.22 -3.70978 -3.67658 0
M  V30 24569 H 2234.91 -2.3131 -1.90095 0
M  V30 24570 H 2232.46 -1.11343 -0.91317 0
M  V30 24571 H 2234.41 -1.16413 -4.05001 0
M  V30 24572 H 2233.13 -0.205272 -3.25954 0
M  V30 24573 H 2231.79 -2.29914 -2.85543 0
M  V30 24574 H 2231.44 -0.959307 -4.93767 0
M  V30 24575 H 2231.14 -2.69198 -5.22308 0
M  V30 24576 H 2232.66 -1.94908 -5.78656 0
M  V30 24577 H 2234.08 -3.71907 -4.363 0
M  V30 24578 H 2232.47 -4.44002 -4.0371 0
M  V30 24579 H 2233.54 -4.04025 -2.68127 0
M  V30 24580 N 2234.89 0.990791 -1.22561 0
M  V30 24581 C 2236.11 1.77144 -1.07865 0
M  V30 24582 C 2236.54 1.84497 0.366414 0
M  V30 24583 O 2235.9 1.29898 1.26476 0
M  V30 24584 C 2235.94 3.18178 -1.69691 0
M  V30 24585 O 2235.05 4.01261 -0.952017 0
M  V30 24586 H 2234.39 0.545404 -0.378722 0
M  V30 24587 H 2236.92 1.24447 -1.62401 0
M  V30 24588 H 2236.93 3.68799 -1.74502 0
M  V30 24589 H 2235.6 3.12141 -2.74847 0
M  V30 24590 H 2234.18 3.5979 -0.980075 0
M  V30 24591 N 2236.37 1.03564 1.18795 0
M  V30 24592 C 2237.28 0.632544 2.25912 0
M  V30 24593 C 2238.29 -0.338852 1.70669 0
M  V30 24594 O 2239.47 -0.195041 2.00453 0
M  V30 24595 C 2236.53 -0.00344848 3.467 0
M  V30 24596 C 2235.59 1.01631 4.17097 0
M  V30 24597 C 2234.83 0.410571 5.32118 0
M  V30 24598 O 2235.05 -0.784626 5.64978 0
M  V30 24599 O 2233.98 1.13677 5.91068 0
M  V30 24600 H 2237.81 1.52483 2.62646 0
M  V30 24601 H 2235.39 0.806217 1.2578 0
M  V30 24602 H 2237.28 -0.357736 4.19879 0
M  V30 24603 H 2235.95 -0.869631 3.118 0
M  V30 24604 H 2234.86 1.4223 3.46008 0
M  V30 24605 H 2236.19 1.85309 4.55984 0
M  V30 24606 N 2237.84 -1.34926 0.814413 0
M  V30 24607 C 2239.09 -1.98835 0.399048 0
M  V30 24608 C 2239.42 -1.6444 -1.03311 0
M  V30 24609 O 2238.7 -0.911689 -1.71809 0
M  V30 24610 C 2238.98 -3.55206 0.591692 0
M  V30 24611 C 2238.83 -3.99372 2.06935 0
M  V30 24612 C 2240.15 -4.40094 0.0222763 0
M  V30 24613 H 2237.27 -0.7223 0.146464 0
M  V30 24614 H 2239.91 -1.59955 1.0254 0
M  V30 24615 H 2238.06 -3.88456 0.0585124 0
M  V30 24616 H 2239.74 -3.76495 2.66551 0
M  V30 24617 H 2237.98 -3.49995 2.56293 0
M  V30 24618 H 2238.65 -5.08197 2.15499 0
M  V30 24619 H 2241.13 -4.13349 0.477716 0
M  V30 24620 H 2240 -5.48582 0.186928 0
M  V30 24621 H 2240.26 -4.28904 -1.07208 0
M  V30 24622 N 2239.32 -0.56861 -1.46985 0
M  V30 24623 C 2240.27 0.172666 -2.30153 0
M  V30 24624 C 2241.24 0.897562 -1.39761 0
M  V30 24625 O 2242.42 0.891014 -1.68717 0
M  V30 24626 C 2239.56 1.18944 -3.23954 0
M  V30 24627 C 2238.68 0.469441 -4.29442 0
M  V30 24628 C 2237.81 1.4725 -5.10383 0
M  V30 24629 C 2236.85 0.738118 -6.07633 0
M  V30 24630 N 2235.99 1.68856 -6.81493 0
M  V30 24631 H 2240.83 -0.542647 -2.93018 0
M  V30 24632 H 2238.36 -0.279426 -1.44422 0
M  V30 24633 H 2240.32 1.79166 -3.7677 0
M  V30 24634 H 2238.95 1.87264 -2.62929 0
M  V30 24635 H 2238 -0.247534 -3.79594 0
M  V30 24636 H 2239.32 -0.105329 -4.98689 0
M  V30 24637 H 2238.47 2.14793 -5.67405 0
M  V30 24638 H 2237.21 2.0812 -4.41064 0
M  V30 24639 H 2236.21 0.0488326 -5.49778 0
M  V30 24640 H 2237.44 0.13501 -6.78966 0
M  V30 24641 H 2235.39 2.28562 -6.14895 0
M  V30 24642 H 2235.3 1.16623 -7.4695 0
M  V30 24643 H 2236.57 2.35477 -7.43082 0
M  V30 24644 N 2240.8 1.54608 -0.305646 0
M  V30 24645 C 2242.02 2.05107 0.307526 0
M  V30 24646 C 2242.45 1.18125 1.46383 0
M  V30 24647 O 2241.81 0.186356 1.8034 0
M  V30 24648 C 2241.86 3.52989 0.736978 0
M  V30 24649 O 2240.96 3.69013 1.84128 0
M  V30 24650 H 2240.3 0.661382 0.0589027 0
M  V30 24651 H 2242.83 1.99616 -0.448842 0
M  V30 24652 H 2242.84 3.94927 1.02452 0
M  V30 24653 H 2241.52 4.15758 -0.108847 0
M  V30 24654 H 2240.09 3.3898 1.55392 0
M  V30 24655 N 2242.28 0.033457 1.57564 0
M  V30 24656 C 2243.19 -0.962535 2.13945 0
M  V30 24657 C 2244.2 -1.35404 1.09278 0
M  V30 24658 O 2245.38 -1.43457 1.41358 0
M  V30 24659 C 2242.44 -2.22492 2.65891 0
M  V30 24660 C 2241.51 -1.89343 3.85289 0
M  V30 24661 C 2240.74 -3.09564 4.34748 0
M  V30 24662 O 2240.96 -4.22364 3.8336 0
M  V30 24663 O 2239.9 -2.91609 5.26543 0
M  V30 24664 H 2243.72 -0.513116 2.99334 0
M  V30 24665 H 2241.31 -0.187404 1.4822 0
M  V30 24666 H 2243.19 -2.96592 2.99351 0
M  V30 24667 H 2241.86 -2.66607 1.83583 0
M  V30 24668 H 2240.77 -1.12614 3.56748 0
M  V30 24669 H 2242.1 -1.50042 4.68773 0
M  V30 24670 N 2243.76 -1.55766 -0.239741 0
M  V30 24671 C 2245 -1.78196 -0.968202 0
M  V30 24672 C 2245.33 -0.599971 -1.847 0
M  V30 24673 O 2244.61 0.401491 -1.90311 0
M  V30 24674 C 2244.89 -3.10567 -1.82264 0
M  V30 24675 C 2244.75 -4.39182 -0.971555 0
M  V30 24676 C 2246.06 -3.39226 -2.80382 0
M  V30 24677 H 2243.18 -0.648287 -0.350561 0
M  V30 24678 H 2245.83 -1.88501 -0.238226 0
M  V30 24679 H 2243.98 -3.01913 -2.44501 0
M  V30 24680 H 2245.65 -4.59835 -0.367327 0
M  V30 24681 H 2243.89 -4.3292 -0.2762 0
M  V30 24682 H 2244.56 -5.28201 -1.60337 0
M  V30 24683 H 2247.04 -3.47889 -2.28281 0
M  V30 24684 H 2245.91 -4.3305 -3.37282 0
M  V30 24685 H 2246.17 -2.60491 -3.57207 0
M  V30 24686 N 2245.23 0.505704 -1.49266 0
M  V30 24687 C 2246.14 1.63424 -1.68315 0
M  V30 24688 C 2247.16 1.64547 -0.56571 0
M  V30 24689 O 2248.34 1.83054 -0.839833 0
M  V30 24690 C 2245.4 2.9981 -1.74112 0
M  V30 24691 C 2244.46 3.0935 -2.97659 0
M  V30 24692 C 2243.69 4.3923 -3.03171 0
M  V30 24693 O 2243.92 5.27755 -2.16405 0
M  V30 24694 O 2242.85 4.53645 -3.95588 0
M  V30 24695 H 2246.68 1.50284 -2.6391 0
M  V30 24696 H 2244.26 0.681478 -1.32952 0
M  V30 24697 H 2246.14 3.80877 -1.80306 0
M  V30 24698 H 2244.82 3.13221 -0.816956 0
M  V30 24699 H 2243.73 2.27488 -2.96985 0
M  V30 24700 H 2245.06 3.00864 -3.8954 0
M  V30 24701 N 2246.71 1.38262 0.756405 0
M  V30 24702 C 2247.65 1.29641 1.87799 0
M  V30 24703 C 2248.62 0.173967 1.61667 0
M  V30 24704 O 2249.81 0.350807 1.85207 0
M  V30 24705 C 2246.93 1.00803 3.23352 0
M  V30 24706 C 2245.98 2.14946 3.68376 0
M  V30 24707 S 2246.81 3.77061 3.80244 0
M  V30 24708 C 2247.97 3.50406 5.1862 0
M  V30 24709 H 2248.2 2.24567 1.94825 0
M  V30 24710 H 2245.74 1.24064 0.919095 0
M  V30 24711 H 2247.69 0.848484 4.01635 0
M  V30 24712 H 2246.35 0.0759921 3.14008 0
M  V30 24713 H 2245.55 1.90307 4.6669 0
M  V30 24714 H 2245.15 2.26993 2.97238 0
M  V30 24715 H 2247.44 3.06345 6.04284 0
M  V30 24716 H 2248.38 4.48103 5.48278 0
M  V30 24717 H 2248.79 2.84982 4.87284 0
M  V30 24718 N 2248.19 -0.984277 1.23084 0
M  V30 24719 C 2249.44 -1.72759 1.06217 0
M  V30 24720 C 2249.77 -1.90024 -0.40055 0
M  V30 24721 O 2249.04 -1.44969 -1.2967 0
M  V30 24722 C 2249.33 -3.12814 1.7838 0
M  V30 24723 C 2249.18 -3.03143 3.32301 0
M  V30 24724 C 2250.5 -4.12159 1.54316 0
M  V30 24725 H 2247.62 -0.627054 0.387262 0
M  V30 24726 H 2250.26 -1.14614 1.51538 0
M  V30 24727 H 2248.41 -3.62454 1.39854 0
M  V30 24728 H 2250.08 -2.61057 3.80325 0
M  V30 24729 H 2248.33 -2.39741 3.61534 0
M  V30 24730 H 2249 -4.02289 3.77979 0
M  V30 24731 H 2251.47 -3.7131 1.87797 0
M  V30 24732 H 2250.35 -5.08254 2.0729 0
M  V30 24733 H 2250.61 -4.39512 0.477649 0
M  V30 24734 N 2249.67 -1.04192 -1.18244 0
M  V30 24735 C 2250.92 -0.741227 -1.87587 0
M  V30 24736 C 2251.23 0.734034 -1.81304 0
M  V30 24737 O 2252.44 1.14829 -2.46021 0
M  V30 24738 C 2250.89 -1.27561 -3.36536 0
M  V30 24739 C 2250.5 -2.77959 -3.51344 0
M  V30 24740 C 2252.24 -1.0515 -4.11271 0
M  V30 24741 C 2250.15 -3.24748 -4.94259 0
M  V30 24742 H 2249.08 -0.273578 -0.702617 0
M  V30 24743 H 2251.73 -1.25792 -1.33599 0
M  V30 24744 H 2250.11 -0.686772 -3.89999 0
M  V30 24745 H 2251.29 -3.42611 -3.08147 0
M  V30 24746 H 2249.6 -2.98797 -2.90016 0
M  V30 24747 H 2252.2 -1.3762 -5.16686 0
M  V30 24748 H 2252.54 0.0112042 -4.16298 0
M  V30 24749 H 2253.08 -1.60501 -3.63984 0
M  V30 24750 H 2249.82 -4.30405 -4.94401 0
M  V30 24751 H 2249.34 -2.64833 -5.38167 0
M  V30 24752 H 2251.01 -3.18844 -5.62981 0
M  V30 24753 N 2251.15 1.34492 -0.821557 0
M  V30 24754 C 2252.09 2.29544 -0.240437 0
M  V30 24755 C 2253.06 1.53524 0.634004 0
M  V30 24756 O 2254.25 1.819 0.575934 0
M  V30 24757 C 2251.39 3.3997 0.592809 0
M  V30 24758 C 2250.5 4.30931 -0.303726 0
M  V30 24759 C 2249.64 5.28459 0.538956 0
M  V30 24760 C 2248.68 6.11058 -0.357049 0
M  V30 24761 N 2247.81 7.00679 0.44648 0
M  V30 24762 H 2252.65 2.78648 -1.05637 0
M  V30 24763 H 2250.19 1.37126 -0.532437 0
M  V30 24764 H 2252.15 4.02676 1.09122 0
M  V30 24765 H 2250.78 2.92104 1.37387 0
M  V30 24766 H 2249.83 3.69099 -0.92034 0
M  V30 24767 H 2251.14 4.88821 -0.992747 0
M  V30 24768 H 2250.3 5.9661 1.1019 0
M  V30 24769 H 2249.03 4.71103 1.26149 0
M  V30 24770 H 2248.04 5.41841 -0.932142 0
M  V30 24771 H 2249.26 6.70495 -1.07767 0
M  V30 24772 H 2247.21 6.45793 1.15271 0
M  V30 24773 H 2247.13 7.55776 -0.184181 0
M  V30 24774 H 2248.4 7.73159 0.992216 0
M  V30 24775 N 2252.62 0.576397 1.46681 0
M  V30 24776 C 2253.85 0.0649999 2.06798 0
M  V30 24777 C 2254.27 -1.23721 1.42614 0
M  V30 24778 O 2253.62 -1.74658 0.529234 0
M  V30 24779 C 2253.68 -0.114138 3.6132 0
M  V30 24780 O 2253.4 1.13652 4.23102 0
M  V30 24781 C 2254.9 -0.660613 4.3835 0
M  V30 24782 H 2252.12 0.0545733 0.668777 0
M  V30 24783 H 2254.66 0.79527 1.88403 0
M  V30 24784 H 2252.82 -0.794606 3.79163 0
M  V30 24785 H 2253.23 0.946343 5.15892 0
M  V30 24786 H 2254.7 -0.735164 5.47083 0
M  V30 24787 H 2255.18 -1.6762 4.05956 0
M  V30 24788 H 2255.79 -0.0152203 4.25297 0
M  V30 24789 N 2254.1 -1.54444 0.313841 0
M  V30 24790 C 2255.35 -1.99993 -0.291064 0
M  V30 24791 C 2255.67 -1.20369 -1.53416 0
M  V30 24792 O 2254.94 -0.302961 -1.93543 0
M  V30 24793 H 2253.52 -0.738776 -0.110539 0
M  V30 24794 H 2256.18 -1.90139 0.428139 0
M  V30 24795 H 2255.28 -3.0714 -0.554214 0
M  V30 24796 N 2255.58 -0.0418125 -1.57545 0
M  V30 24797 C 2257 0.314677 -1.56467 0
M  V30 24798 C 2257.2 1.72064 -1.04862 0
M  V30 24799 O 2256.25 2.42573 -0.701025 0
M  V30 24800 C 2257.57 0.151687 -3.00317 0
M  V30 24801 C 2259.11 0.223498 -3.12201 0
M  V30 24802 C 2259.59 0.089149 -4.57913 0
M  V30 24803 N 2261.08 0.145727 -4.62971 0
M  V30 24804 C 2261.81 0.0657451 -5.73362 0
M  V30 24805 N 2261.31 -0.06605 -6.92769 0
M  V30 24806 N 2263.1 0.120652 -5.6197 0
M  V30 24807 H 2255.25 -0.961048 -1.89414 0
M  V30 24808 H 2257.52 -0.372252 -0.871856 0
M  V30 24809 H 2257.22 -0.817315 -3.42071 0
M  V30 24810 H 2257.1 0.916628 -3.65893 0
M  V30 24811 H 2259.48 1.18297 -2.70351 0
M  V30 24812 H 2259.57 -0.572037 -2.49322 0
M  V30 24813 H 2259.21 -0.866955 -5.00446 0
M  V30 24814 H 2259.14 0.903711 -5.18788 0
M  V30 24815 H 2261.63 0.24722 -3.7709 0
M  V30 24816 H 2261.94 -0.120041 -7.72707 0
M  V30 24817 H 2260.29 -0.101007 -6.94927 0
M  V30 24818 H 2263.48 0.222105 -4.67573 0
M  V30 24819 H 2263.65 0.0548596 -6.47977 0
M  V30 24820 N 2257.06 1.55891 0.231477 0
M  V30 24821 C 2257.99 1.88072 1.31002 0
M  V30 24822 C 2259 0.76817 1.43537 0
M  V30 24823 O 2260.19 1.0464 1.44612 0
M  V30 24824 C 2257.29 2.06548 2.68684 0
M  V30 24825 C 2256.47 3.37507 2.78222 0
M  V30 24826 C 2255.52 3.45536 3.96851 0
M  V30 24827 O 2254.55 4.1864 3.85655 0
M  V30 24828 N 2255.75 2.75953 5.10715 0
M  V30 24829 H 2258.52 2.81178 1.03726 0
M  V30 24830 H 2256.08 1.56316 0.421546 0
M  V30 24831 H 2258.07 2.09245 3.46408 0
M  V30 24832 H 2256.64 1.20114 2.88602 0
M  V30 24833 H 2255.86 3.46994 1.87053 0
M  V30 24834 H 2257.15 4.23796 2.81557 0
M  V30 24835 H 2256.55 2.16321 5.22706 0
M  V30 24836 H 2255.1 2.84324 5.86518 0
M  V30 24837 N 2258.54 -0.497781 1.49532 0
M  V30 24838 C 2259.79 -1.24834 1.58428 0
M  V30 24839 C 2260.1 -1.93619 0.277677 0
M  V30 24840 O 2261.3 -2.7039 0.245218 0
M  V30 24841 C 2259.76 -2.26681 2.79542 0
M  V30 24842 C 2259.37 -1.63821 4.16973 0
M  V30 24843 C 2261.11 -3.02545 2.97769 0
M  V30 24844 C 2259.02 -2.63797 5.29306 0
M  V30 24845 H 2257.95 -0.469613 0.589898 0
M  V30 24846 H 2260.6 -0.521826 1.75924 0
M  V30 24847 H 2258.98 -3.02509 2.55547 0
M  V30 24848 H 2260.16 -0.939632 4.51118 0
M  V30 24849 H 2258.47 -1.00335 4.04131 0
M  V30 24850 H 2261.07 -3.77316 3.78862 0
M  V30 24851 H 2261.41 -3.60351 2.08454 0
M  V30 24852 H 2261.94 -2.33832 3.21819 0
M  V30 24853 H 2258.68 -2.10768 6.20691 0
M  V30 24854 H 2258.2 -3.31886 4.99612 0
M  V30 24855 H 2259.88 -3.2616 5.58774 0
M  V30 24856 N 2260.01 -1.38661 -0.749062 0
M  V30 24857 C 2261.26 -1.35317 -1.51054 0
M  V30 24858 C 2261.59 0.055341 -1.94121 0
M  V30 24859 O 2260.87 1.01746 -1.65765 0
M  V30 24860 C 2261.15 -2.31293 -2.75999 0
M  V30 24861 C 2261 -3.81024 -2.39041 0
M  V30 24862 C 2262.32 -2.25327 -3.78042 0
M  V30 24863 H 2259.44 -0.492854 -0.547963 0
M  V30 24864 H 2262.08 -1.69544 -0.857598 0
M  V30 24865 H 2260.23 -2.02235 -3.31713 0
M  V30 24866 H 2261.91 -4.20775 -1.89067 0
M  V30 24867 H 2260.15 -3.98485 -1.71442 0
M  V30 24868 H 2260.82 -4.43646 -3.28454 0
M  V30 24869 H 2263.3 -2.50989 -3.31879 0
M  V30 24870 H 2262.17 -2.94584 -4.63154 0
M  V30 24871 H 2262.43 -1.2536 -4.23954 0
M  V30 24872 N 2261.49 0.977736 -1.23605 0
M  V30 24873 C 2262.43 2.07315 -0.977405 0
M  V30 24874 C 2263.44 1.62725 0.0495559 0
M  V30 24875 O 2264.63 1.77525 -0.186292 0
M  V30 24876 C 2261.73 3.35882 -0.451275 0
M  V30 24877 C 2260.9 4.0943 -1.53903 0
M  V30 24878 C 2259.96 5.16273 -1.01731 0
M  V30 24879 O 2258.99 5.43006 -1.70686 0
M  V30 24880 N 2260.19 5.80297 0.153492 0
M  V30 24881 H 2262.95 2.30079 -1.92051 0
M  V30 24882 H 2260.51 1.14463 -1.14499 0
M  V30 24883 H 2262.51 4.04606 -0.0872286 0
M  V30 24884 H 2261.08 3.10065 0.397314 0
M  V30 24885 H 2260.3 3.35123 -2.07572 0
M  V30 24886 H 2261.58 4.55333 -2.27045 0
M  V30 24887 H 2260.98 5.60967 0.730224 0
M  V30 24888 H 2259.54 6.50183 0.458777 0
M  V30 24889 N 2262.97 1.04818 1.1769 0
M  V30 24890 C 2263.92 0.645836 2.2158 0
M  V30 24891 C 2264.89 -0.35013 1.62368 0
M  V30 24892 O 2266.07 -0.2424 1.89254 0
M  V30 24893 C 2263.21 0.0228174 3.45092 0
M  V30 24894 C 2262.33 1.06716 4.18612 0
M  V30 24895 C 2261.46 0.411861 5.29601 0
M  V30 24896 C 2260.5 1.44077 5.94902 0
M  V30 24897 N 2259.64 0.809904 6.97413 0
M  V30 24898 H 2264.48 1.53624 2.5535 0
M  V30 24899 H 2262.01 0.768386 1.25436 0
M  V30 24900 H 2263.97 -0.355807 4.1568 0
M  V30 24901 H 2262.6 -0.831067 3.11918 0
M  V30 24902 H 2261.65 1.56366 3.46777 0
M  V30 24903 H 2262.97 1.84835 4.6329 0
M  V30 24904 H 2262.12 -0.0205557 6.06697 0
M  V30 24905 H 2260.86 -0.401352 4.86046 0
M  V30 24906 H 2259.86 1.88325 5.1654 0
M  V30 24907 H 2261.09 2.25582 6.40538 0
M  V30 24908 H 2259.04 0.0171339 6.55998 0
M  V30 24909 H 2258.95 1.52869 7.40383 0
M  V30 24910 H 2260.22 0.402136 7.78462 0
M  V30 24911 N 2264.45 -1.34055 0.828678 0
M  V30 24912 C 2265.4 -2.29413 0.252607 0
M  V30 24913 C 2266.37 -1.53858 -0.625853 0
M  V30 24914 O 2267.55 -1.82203 -0.56628 0
M  V30 24915 C 2264.69 -3.4028 -0.574771 0
M  V30 24916 C 2263.8 -4.30764 0.326575 0
M  V30 24917 C 2262.94 -5.28737 -0.510923 0
M  V30 24918 C 2261.98 -6.1086 0.38945 0
M  V30 24919 N 2261.12 -7.00906 -0.409315 0
M  V30 24920 H 2265.96 -2.78084 1.07113 0
M  V30 24921 H 2263.49 -1.36842 0.539701 0
M  V30 24922 H 2265.45 -4.03249 -1.06985 0
M  V30 24923 H 2264.08 -2.92828 -1.35836 0
M  V30 24924 H 2263.13 -3.68605 0.939902 0
M  V30 24925 H 2264.44 -4.88288 1.01866 0
M  V30 24926 H 2263.6 -5.97186 -1.07024 0
M  V30 24927 H 2262.34 -4.71765 -1.23648 0
M  V30 24928 H 2261.34 -5.41339 0.960864 0
M  V30 24929 H 2262.57 -6.69914 1.11321 0
M  V30 24930 H 2260.51 -6.46395 -1.11845 0
M  V30 24931 H 2260.43 -7.55667 0.224259 0
M  V30 24932 H 2261.7 -7.73675 -0.9512 0
M  V30 24933 N 2265.93 -0.584167 -1.46374 0
M  V30 24934 C 2266.86 0.186078 -2.28443 0
M  V30 24935 C 2267.87 0.854091 -1.38597 0
M  V30 24936 O 2269.06 0.723409 -1.63184 0
M  V30 24937 C 2266.16 1.28305 -3.13673 0
M  V30 24938 C 2265.33 0.706682 -4.31654 0
M  V30 24939 C 2264.39 1.69155 -4.9827 0
M  V30 24940 O 2263.42 1.22702 -5.55817 0
M  V30 24941 N 2264.62 3.02566 -4.95413 0
M  V30 24942 H 2267.39 -0.518037 -2.95189 0
M  V30 24943 H 2264.95 -0.422038 -1.56302 0
M  V30 24944 H 2266.94 1.94121 -3.55104 0
M  V30 24945 H 2265.51 1.89001 -2.48993 0
M  V30 24946 H 2264.73 -0.128977 -3.93989 0
M  V30 24947 H 2266.02 0.301417 -5.07906 0
M  V30 24948 H 2265.42 3.42928 -4.49908 0
M  V30 24949 H 2263.97 3.63868 -5.40781 0
M  V30 24950 N 2267.41 1.54275 -0.322027 0
M  V30 24951 C 2268.63 2.04955 0.283016 0
M  V30 24952 C 2269.05 1.19825 1.45902 0
M  V30 24953 O 2268.41 0.228576 1.81063 0
M  V30 24954 C 2268.46 3.54278 0.718966 0
M  V30 24955 O 2268.18 4.36175 -0.410252 0
M  V30 24956 C 2269.68 4.21044 1.38698 0
M  V30 24957 H 2266.9 0.668449 0.0584499 0
M  V30 24958 H 2269.44 1.99078 -0.467769 0
M  V30 24959 H 2267.6 3.60448 1.41973 0
M  V30 24960 H 2268.01 5.24457 -0.0670338 0
M  V30 24961 H 2269.49 5.26982 1.64297 0
M  V30 24962 H 2269.96 3.72063 2.33379 0
M  V30 24963 H 2270.57 4.19008 0.728833 0
M  V30 24964 N 2268.88 0.0501669 1.5752 0
M  V30 24965 C 2269.79 -0.939789 2.14954 0
M  V30 24966 C 2270.81 -1.34237 1.10708 0
M  V30 24967 O 2271.99 -1.4195 1.42871 0
M  V30 24968 C 2269.05 -2.1966 2.68236 0
M  V30 24969 C 2268.11 -1.85246 3.87276 0
M  V30 24970 C 2267.34 -3.04935 4.38007 0
M  V30 24971 O 2267.57 -4.18274 3.87818 0
M  V30 24972 O 2266.5 -2.86008 5.29607 0
M  V30 24973 H 2270.33 -0.481339 2.99861 0
M  V30 24974 H 2267.91 -0.171673 1.4841 0
M  V30 24975 H 2269.79 -2.93401 3.0248 0
M  V30 24976 H 2268.47 -2.64645 1.864 0
M  V30 24977 H 2267.38 -1.08824 3.57922 0
M  V30 24978 H 2268.71 -1.45061 4.70338 0
M  V30 24979 N 2270.36 -1.56011 -0.223207 0
M  V30 24980 C 2271.31 -1.93133 -1.29623 0
M  V30 24981 C 2272.3 -0.813172 -1.48606 0
M  V30 24982 O 2273.51 -0.997992 -1.498 0
M  V30 24983 H 2269.88 -0.613733 -0.434552 0
M  V30 24984 H 2271.86 -2.82673 -0.955946 0
M  V30 24985 C 2270.6 -2.26297 -2.63979 0
M  V30 24986 H 2269.93 -3.1185 -2.50179 0
M  V30 24987 H 2271.37 -2.56157 -3.37875 0
M  V30 24988 C 2269.83 -1.08752 -3.18864 0
M  V30 24989 O 2270.36 -0.347797 -4.00192 0
M  V30 24990 N 2268.56 -0.871792 -2.77215 0
M  V30 24991 H 2268.11 -1.47505 -2.11187 0
M  V30 24992 H 2268.07 -0.0870457 -3.14279 0
M  V30 24993 N 2271.84 0.489844 -1.49794 0
M  V30 24994 C 2273.25 1.07115 -1.52916 0
M  V30 24995 C 2273.6 1.93543 -0.321772 0
M  V30 24996 O 2272.73 2.08832 0.567302 0
M  V30 24997 C 2273.32 1.94934 -2.77103 0
M  V30 24998 C 2271.88 2.48207 -2.82967 0
M  V30 24999 C 2271.03 1.26092 -2.46974 0
M  V30 25000 H 2273.98 0.273262 -1.5633 0
M  V30 25001 H 2274 2.79766 -2.57897 0
M  V30 25002 H 2273.51 1.32003 -3.64962 0
M  V30 25003 H 2271.61 3.14744 -1.99416 0
M  V30 25004 H 2271.73 2.84596 -3.85411 0
M  V30 25005 H 2270.09 1.58972 -1.98997 0
M  V30 25006 H 2270.87 0.648522 -3.37119 0
M  V30 25007 N 2273.32 1.39056 0.741698 0
M  V30 25008 C 2274.26 1.3724 1.85563 0
M  V30 25009 C 2275.23 0.233101 1.64456 0
M  V30 25010 O 2276.42 0.427179 1.85956 0
M  V30 25011 C 2273.56 1.21506 3.23002 0
M  V30 25012 C 2272.67 2.44924 3.5586 0
M  V30 25013 C 2271.81 2.21829 4.82665 0
M  V30 25014 C 2270.85 3.40957 5.08345 0
M  V30 25015 N 2269.98 3.17222 6.2635 0
M  V30 25016 H 2274.82 2.32465 1.86451 0
M  V30 25017 H 2272.36 1.15483 0.911155 0
M  V30 25018 H 2274.32 1.10397 4.02329 0
M  V30 25019 H 2272.95 0.299137 3.21411 0
M  V30 25020 H 2272 2.66661 2.71286 0
M  V30 25021 H 2273.31 3.33675 3.70759 0
M  V30 25022 H 2272.47 2.07924 5.69959 0
M  V30 25023 H 2271.21 1.30462 4.69927 0
M  V30 25024 H 2270.21 3.55368 4.19516 0
M  V30 25025 H 2271.44 4.33216 5.22973 0
M  V30 25026 H 2269.38 2.28513 6.14913 0
M  V30 25027 H 2269.3 3.99527 6.41806 0
M  V30 25028 H 2270.57 3.06996 7.16501 0
M  V30 25029 N 2274.8 -0.971167 1.24121 0
M  V30 25030 C 2275.71 -2.09915 1.04751 0
M  V30 25031 C 2276.72 -1.73997 -0.0106856 0
M  V30 25032 O 2277.9 -2.00532 0.186749 0
M  V30 25033 C 2274.96 -3.40535 0.650888 0
M  V30 25034 C 2274.02 -3.90423 1.78517 0
M  V30 25035 C 2273.26 -5.14809 1.40738 0
M  V30 25036 O 2273.48 -5.69633 0.29567 0
M  V30 25037 O 2272.41 -5.58995 2.23178 0
M  V30 25038 H 2276.24 -2.29151 1.99308 0
M  V30 25039 H 2273.82 -1.08305 1.0291 0
M  V30 25040 H 2275.71 -4.19085 0.441066 0
M  V30 25041 H 2274.38 -3.22609 -0.265592 0
M  V30 25042 H 2273.29 -3.1295 2.04972 0
M  V30 25043 H 2274.62 -4.1282 2.6803 0
M  V30 25044 N 2276.27 -1.05441 -1.17133 0
M  V30 25045 C 2277.2 -0.678688 -2.23419 0
M  V30 25046 C 2278.19 0.324731 -1.66972 0
M  V30 25047 O 2279.37 0.201768 -1.93149 0
M  V30 25048 C 2276.5 -0.055271 -3.47256 0
M  V30 25049 C 2275.45 -0.983723 -4.16542 0
M  V30 25050 C 2274.78 -0.224055 -5.3423 0
M  V30 25051 C 2276.08 -2.30898 -4.68491 0
M  V30 25052 H 2277.77 -1.56726 -2.55103 0
M  V30 25053 H 2275.32 -0.755019 -1.22619 0
M  V30 25054 H 2277.27 0.219386 -4.20829 0
M  V30 25055 H 2276 0.868264 -3.14847 0
M  V30 25056 H 2274.66 -1.24299 -3.44885 0
M  V30 25057 H 2274.3 0.702325 -4.98073 0
M  V30 25058 H 2274 -0.842729 -5.81525 0
M  V30 25059 H 2275.53 0.0432598 -6.10585 0
M  V30 25060 H 2276.94 -2.09405 -5.33688 0
M  V30 25061 H 2275.34 -2.88185 -5.26374 0
M  V30 25062 H 2276.41 -2.94579 -3.85164 0
M  V30 25063 N 2277.75 1.33613 -0.835776 0
M  V30 25064 C 2279.03 1.92406 -0.352051 0
M  V30 25065 C 2279.41 1.76226 1.16222 0
M  V30 25066 O 2278.76 1.14877 1.97524 0
M  V30 25067 C 2278.97 3.39812 -0.795545 0
M  V30 25068 C 2280.32 4.16961 -0.801776 0
M  V30 25069 O 2281.34 3.48451 -0.738951 0
M  V30 25070 O 2280.2 5.39259 -0.886702 0
M  V30 25071 H 2277.29 0.821056 -0.0989786 0
M  V30 25072 H 2279.84 1.42506 -0.921422 0
M  V30 25073 H 2278.61 3.45446 -1.83801 0
M  V30 25074 H 2278.23 3.97084 -0.202575 0
M  V30 25075 N 2279.23 0.591922 1.46062 0
M  V30 25076 C 2280.14 -0.138269 2.34192 0
M  V30 25077 C 2281.16 -0.876582 1.50306 0
M  V30 25078 O 2282.33 -0.837696 1.83152 0
M  V30 25079 C 2279.4 -1.1332 3.27658 0
M  V30 25080 C 2278.46 -0.398555 4.27446 0
M  V30 25081 C 2277.69 -1.34609 5.16446 0
M  V30 25082 O 2277.91 -2.58312 5.08558 0
M  V30 25083 O 2276.85 -0.851663 5.95844 0
M  V30 25084 H 2280.67 0.585572 2.98001 0
M  V30 25085 H 2278.26 0.352265 1.45188 0
M  V30 25086 H 2280.14 -1.70664 3.85294 0
M  V30 25087 H 2278.82 -1.83835 2.66433 0
M  V30 25088 H 2277.72 0.21696 3.7347 0
M  V30 25089 H 2279.06 0.265795 4.91482 0
M  V30 25090 N 2280.71 -1.54102 0.330204 0
M  V30 25091 C 2282.12 -1.59585 -0.022209 0
M  V30 25092 C 2282.32 -1.34656 -1.499 0
M  V30 25093 O 2281.38 -1.13425 -2.2559 0
M  V30 25094 C 2282.69 -2.98001 0.401984 0
M  V30 25095 C 2284.24 -3.11001 0.353199 0
M  V30 25096 C 2284.72 -4.51773 0.752656 0
M  V30 25097 N 2286.21 -4.57783 0.706319 0
M  V30 25098 C 2286.94 -5.64832 0.987516 0
M  V30 25099 N 2286.44 -6.79792 1.33619 0
M  V30 25100 N 2288.23 -5.54642 0.912638 0
M  V30 25101 H 2280.38 -1.68562 1.29231 0
M  V30 25102 H 2282.65 -0.788741 0.52592 0
M  V30 25103 H 2282.35 -3.21265 1.43115 0
M  V30 25104 H 2282.23 -3.765 -0.229633 0
M  V30 25105 H 2284.61 -2.87469 -0.666772 0
M  V30 25106 H 2284.69 -2.34591 1.01984 0
M  V30 25107 H 2284.34 -4.76039 1.77057 0
M  V30 25108 H 2284.27 -5.26562 0.0636335 0
M  V30 25109 H 2286.76 -3.75224 0.448956 0
M  V30 25110 H 2287.07 -7.57383 1.53595 0
M  V30 25111 H 2285.42 -6.81272 1.37451 0
M  V30 25112 H 2288.61 -4.63709 0.639683 0
M  V30 25113 H 2288.78 -6.3798 1.13514 0
M  V30 25114 N 2282.19 -0.0585199 -1.57491 0
M  V30 25115 C 2283.43 0.614524 -1.93265 0
M  V30 25116 C 2283.77 1.70059 -0.937746 0
M  V30 25117 O 2283.04 1.94468 0.0351311 0
M  V30 25118 C 2283.32 1.2038 -3.39383 0
M  V30 25119 C 2283.18 0.125296 -4.49625 0
M  V30 25120 C 2284.5 2.11327 -3.86043 0
M  V30 25121 H 2281.61 0.22192 -0.702795 0
M  V30 25122 H 2284.26 -0.121783 -1.89609 0
M  V30 25123 H 2282.41 1.83133 -3.42629 0
M  V30 25124 H 2284.08 -0.507051 -4.58505 0
M  V30 25125 H 2282.32 -0.545747 -4.30353 0
M  V30 25126 H 2282.99 0.577765 -5.48968 0
M  V30 25127 H 2285.47 1.58527 -3.84719 0
M  V30 25128 H 2284.34 2.49499 -4.88919 0
M  V30 25129 H 2284.61 3.0163 -3.23221 0
M  V30 25130 N 2283.66 1.56128 0.21493 0
M  V30 25131 C 2284.89 1.83538 0.95506 0
M  V30 25132 C 2285.31 0.638503 1.77675 0
M  V30 25133 O 2284.66 -0.392937 1.7822 0
M  V30 25134 C 2284.72 3.09539 1.86729 0
M  V30 25135 O 2284.44 4.2461 1.0788 0
M  V30 25136 C 2285.94 3.49985 2.72076 0
M  V30 25137 H 2283.16 0.609971 0.2796 0
M  V30 25138 H 2285.7 2.03223 0.228162 0
M  V30 25139 H 2283.86 2.9181 2.54805 0
M  V30 25140 H 2284.27 4.96233 1.69863 0
M  V30 25141 H 2285.74 4.41168 3.31775 0
M  V30 25142 H 2286.22 2.72046 3.44801 0
M  V30 25143 H 2286.83 3.70177 2.09402 0
M  V30 25144 N 2285.14 -0.481893 1.50052 0
M  V30 25145 C 2286.11 -1.56357 1.67586 0
M  V30 25146 C 2287.11 -1.51213 0.54692 0
M  V30 25147 O 2288.3 -1.54025 0.813752 0
M  V30 25148 C 2285.43 -2.96 1.69105 0
M  V30 25149 H 2286.62 -1.42131 2.64081 0
M  V30 25150 H 2284.17 -0.707509 1.3937 0
M  V30 25151 H 2284.91 -3.15682 0.742644 0
M  V30 25152 H 2284.69 -3.01141 2.5111 0
M  V30 25153 H 2286.18 -3.74552 1.84662 0
M  V30 25154 N 2286.62 -1.39448 -0.734313 0
M  V30 25155 C 2287.55 -1.40959 -1.86153 0
M  V30 25156 C 2288.53 -0.272857 -1.67897 0
M  V30 25157 O 2289.72 -0.478776 -1.88206 0
M  V30 25158 C 2286.85 -1.25299 -3.23909 0
M  V30 25159 C 2285.8 -2.36379 -3.56804 0
M  V30 25160 C 2285.13 -2.05809 -4.93504 0
M  V30 25161 C 2286.43 -3.78693 -3.59707 0
M  V30 25162 H 2288.12 -2.3529 -1.85146 0
M  V30 25163 H 2285.67 -1.13255 -0.889347 0
M  V30 25164 H 2287.62 -1.24977 -4.02441 0
M  V30 25165 H 2286.34 -0.274366 -3.25446 0
M  V30 25166 H 2285 -2.35919 -2.80602 0
M  V30 25167 H 2284.65 -1.06383 -4.91622 0
M  V30 25168 H 2284.35 -2.80217 -5.16481 0
M  V30 25169 H 2285.87 -2.07138 -5.74392 0
M  V30 25170 H 2287.29 -3.81078 -4.28313 0
M  V30 25171 H 2285.69 -4.52466 -3.94201 0
M  V30 25172 H 2286.76 -4.09621 -2.59496 0
M  V30 25173 N 2288.1 0.964571 -1.24635 0
M  V30 25174 C 2289.05 2.05966 -1.04148 0
M  V30 25175 C 2290.02 1.66036 0.0462328 0
M  V30 25176 O 2291.2 1.90488 -0.109006 0
M  V30 25177 C 2288.34 3.38814 -0.65569 0
M  V30 25178 C 2287.45 3.9192 -1.81721 0
M  V30 25179 C 2286.59 5.1305 -1.37671 0
M  V30 25180 C 2285.63 5.58361 -2.50798 0
M  V30 25181 N 2284.76 6.70708 -2.07593 0
M  V30 25182 H 2289.6 2.22823 -1.97873 0
M  V30 25183 H 2287.14 1.09206 -0.985519 0
M  V30 25184 H 2289.1 4.1515 -0.413027 0
M  V30 25185 H 2287.73 3.21872 0.24457 0
M  V30 25186 H 2286.78 3.12194 -2.17345 0
M  V30 25187 H 2288.09 4.21504 -2.66712 0
M  V30 25188 H 2287.25 5.96771 -1.09311 0
M  V30 25189 H 2285.99 4.85157 -0.497378 0
M  V30 25190 H 2284.99 4.7321 -2.79914 0
M  V30 25191 H 2286.22 5.88266 -3.39293 0
M  V30 25192 H 2284.16 6.44544 -1.22063 0
M  V30 25193 H 2284.08 6.99758 -2.86137 0
M  V30 25194 H 2285.35 7.57863 -1.82382 0
M  V30 25195 N 2289.58 1.0606 1.16572 0
M  V30 25196 C 2290.51 0.690527 2.23056 0
M  V30 25197 C 2291.49 -0.315871 1.67141 0
M  V30 25198 O 2292.67 -0.191522 1.93253 0
M  V30 25199 C 2289.8 0.073686 3.47222 0
M  V30 25200 C 2288.76 1.0058 4.16014 0
M  V30 25201 C 2288.08 0.252383 5.34104 0
M  V30 25202 C 2289.38 2.33379 4.6726 0
M  V30 25203 H 2291.08 1.58077 2.54268 0
M  V30 25204 H 2288.62 0.761512 1.22217 0
M  V30 25205 H 2290.58 -0.197066 4.20939 0
M  V30 25206 H 2289.3 -0.851555 3.15303 0
M  V30 25207 H 2287.96 1.26126 3.44221 0
M  V30 25208 H 2287.61 -0.675901 4.98438 0
M  V30 25209 H 2287.31 0.873557 5.8107 0
M  V30 25210 H 2288.83 -0.0108784 6.10599 0
M  V30 25211 H 2290.24 2.12233 5.32569 0
M  V30 25212 H 2288.64 2.90973 5.24838 0
M  V30 25213 H 2289.71 2.96617 3.83596 0
M  V30 25214 N 2291.06 -1.33168 0.84285 0
M  V30 25215 C 2292.01 -2.26615 0.250917 0
M  V30 25216 C 2292.99 -1.49439 -0.5964 0
M  V30 25217 O 2294.18 -1.71244 -0.447716 0
M  V30 25218 C 2291.31 -3.3854 -0.56972 0
M  V30 25219 C 2290.4 -4.23112 0.289328 0
M  V30 25220 N 2290.79 -4.86894 1.36995 0
M  V30 25221 C 2289.09 -4.45933 0.0770415 0
M  V30 25222 C 2289.79 -5.49883 1.89747 0
M  V30 25223 N 2288.76 -5.30227 1.19836 0
M  V30 25224 H 2292.56 -2.73447 1.07723 0
M  V30 25225 H 2290.08 -1.4712 0.687719 0
M  V30 25226 H 2292.08 -4.04478 -1.01011 0
M  V30 25227 H 2290.74 -2.93256 -1.39396 0
M  V30 25228 H 2291.75 -4.87335 1.75286 0
M  V30 25229 H 2288.42 -4.11359 -0.713434 0
M  V30 25230 H 2289.81 -6.10657 2.80263 0
M  V30 25231 N 2292.53 -0.599659 -1.45746 0
M  V30 25232 C 2293.76 -0.0977495 -2.06369 0
M  V30 25233 C 2294.17 1.21983 -1.44627 0
M  V30 25234 O 2293.51 1.75215 -0.551862 0
M  V30 25235 C 2293.58 0.12461 -3.59284 0
M  V30 25236 C 2293.24 -1.10995 -4.43316 0
M  V30 25237 C 2294.24 -2.02617 -4.78793 0
M  V30 25238 C 2291.92 -1.33655 -4.84192 0
M  V30 25239 C 2293.92 -3.15234 -5.53991 0
M  V30 25240 C 2291.6 -2.46574 -5.59146 0
M  V30 25241 C 2292.6 -3.37192 -5.93962 0
M  V30 25242 O 2292.29 -4.48147 -6.67397 0
M  V30 25243 H 2292.02 -0.0623272 -0.673121 0
M  V30 25244 H 2294.58 -0.825014 -1.88103 0
M  V30 25245 H 2292.81 0.906679 -3.75921 0
M  V30 25246 H 2294.49 0.577131 -4.01776 0
M  V30 25247 H 2295.26 -1.86332 -4.47778 0
M  V30 25248 H 2291.14 -0.64024 -4.56533 0
M  V30 25249 H 2294.68 -3.85988 -5.81084 0
M  V30 25250 H 2290.58 -2.62815 -5.89575 0
M  V30 25251 H 2291.35 -4.46729 -6.85839 0
M  V30 25252 N 2294.01 1.53925 -0.338371 0
M  V30 25253 C 2294.96 2.26335 0.536191 0
M  V30 25254 C 2295.95 1.28288 1.10628 0
M  V30 25255 O 2297.16 1.46014 1.05261 0
M  V30 25256 H 2293.53 0.727185 0.191589 0
M  V30 25257 H 2295.51 2.98244 -0.0966271 0
M  V30 25258 C 2294.25 3.04531 1.67798 0
M  V30 25259 H 2293.58 3.79803 1.24857 0
M  V30 25260 H 2295.02 3.5842 2.26519 0
M  V30 25261 C 2293.48 2.13717 2.60436 0
M  V30 25262 O 2294.01 1.72982 3.62547 0
M  V30 25263 N 2292.21 1.78902 2.29003 0
M  V30 25264 H 2291.76 2.12226 1.46007 0
M  V30 25265 H 2291.72 1.18421 2.91245 0
M  V30 25266 N 2295.49 0.0668712 1.57458 0
M  V30 25267 C 2296.4 -0.916937 2.15938 0
M  V30 25268 C 2297.42 -1.33056 1.12126 0
M  V30 25269 O 2298.59 -1.40426 1.44369 0
M  V30 25270 C 2295.66 -2.16802 2.70551 0
M  V30 25271 C 2294.72 -1.81128 3.89219 0
M  V30 25272 C 2293.95 -3.00272 4.41217 0
M  V30 25273 O 2294.17 -4.14137 3.92233 0
M  V30 25274 O 2293.11 -2.80375 5.3261 0
M  V30 25275 H 2296.93 -0.449508 3.00355 0
M  V30 25276 H 2294.52 -0.155923 1.48584 0
M  V30 25277 H 2296.4 -2.90176 3.05575 0
M  V30 25278 H 2295.08 -2.62653 1.89196 0
M  V30 25279 H 2293.98 -1.05022 3.59056 0
M  V30 25280 H 2295.32 -1.40065 4.7185 0
M  V30 25281 N 2296.97 -1.56239 -0.206647 0
M  V30 25282 C 2297.9 -1.96647 -1.25906 0
M  V30 25283 C 2298.88 -0.83676 -1.48096 0
M  V30 25284 O 2300.06 -1.10021 -1.60028 0
M  V30 25285 C 2297.19 -2.29603 -2.60576 0
M  V30 25286 C 2296.15 -3.45204 -2.53018 0
M  V30 25287 C 2295.47 -3.63805 -3.91854 0
M  V30 25288 C 2296.77 -4.79738 -2.06516 0
M  V30 25289 H 2298.47 -2.84807 -0.923319 0
M  V30 25290 H 2296.01 -1.37026 -0.442711 0
M  V30 25291 H 2297.97 -2.56464 -3.34371 0
M  V30 25292 H 2296.69 -1.38312 -2.95867 0
M  V30 25293 H 2295.35 -3.18415 -1.81679 0
M  V30 25294 H 2295 -2.69865 -4.24479 0
M  V30 25295 H 2294.7 -4.41567 -3.87675 0
M  V30 25296 H 2296.22 -3.93031 -4.67289 0
M  V30 25297 H 2297.64 -5.05706 -2.70063 0
M  V30 25298 H 2296.03 -5.60888 -2.13364 0
M  V30 25299 H 2297.1 -4.74095 -1.01793 0
M  V30 25300 N 2298.45 0.473929 -1.50305 0
M  V30 25301 C 2299.69 1.2238 -1.60834 0
M  V30 25302 C 2300.01 1.92529 -0.309424 0
M  V30 25303 O 2299.28 1.8398 0.672928 0
M  V30 25304 H 2297.86 0.454712 -0.59266 0
M  V30 25305 H 2300.53 0.546935 -1.87069 0
M  V30 25306 H 2299.62 1.97323 -2.41806 0
M  V30 25307 N 2299.92 1.39835 0.726907 0
M  V30 25308 C 2300.89 1.38966 1.82267 0
M  V30 25309 C 2301.89 0.285362 1.58248 0
M  V30 25310 O 2303.08 0.543689 1.65498 0
M  V30 25311 C 2300.21 1.17025 3.20184 0
M  V30 25312 H 2301.4 2.36479 1.84439 0
M  V30 25313 H 2298.95 1.25518 0.931393 0
M  V30 25314 H 2299.69 0.202261 3.23669 0
M  V30 25315 H 2299.47 1.97003 3.39016 0
M  V30 25316 H 2300.96 1.19177 4.00233 0
M  V30 25317 N 2301.4 -0.957948 1.25144 0
M  V30 25318 C 2302.35 -2.05411 1.05239 0
M  V30 25319 C 2303.32 -1.66058 -0.0374269 0
M  V30 25320 O 2304.5 -1.90428 0.119106 0
M  V30 25321 C 2301.64 -3.38461 0.673649 0
M  V30 25322 C 2300.76 -3.90951 1.83797 0
M  V30 25323 C 2299.89 -5.12313 1.4039 0
M  V30 25324 C 2298.93 -5.57023 2.53756 0
M  V30 25325 N 2298.07 -6.69598 2.11147 0
M  V30 25326 H 2302.91 -2.21771 1.99052 0
M  V30 25327 H 2300.44 -1.08682 0.991297 0
M  V30 25328 H 2302.4 -4.14926 0.435037 0
M  V30 25329 H 2301.03 -3.21997 -0.227497 0
M  V30 25330 H 2300.08 -3.11037 2.18998 0
M  V30 25331 H 2301.4 -4.20084 2.68944 0
M  V30 25332 H 2300.55 -5.96183 1.12474 0
M  V30 25333 H 2299.29 -4.84887 0.5231 0
M  V30 25334 H 2298.29 -4.71719 2.8242 0
M  V30 25335 H 2299.52 -5.86458 3.42408 0
M  V30 25336 H 2297.47 -6.43887 1.25479 0
M  V30 25337 H 2297.38 -6.98231 2.89844 0
M  V30 25338 H 2298.65 -7.56886 1.86399 0
M  V30 25339 N 2302.88 -1.06677 -1.16008 0
M  V30 25340 C 2304.13 -0.786978 -1.86908 0
M  V30 25341 C 2304.46 0.684986 -1.81718 0
M  V30 25342 O 2303.73 1.50215 -1.23554 0
M  V30 25343 C 2304.02 -1.28713 -3.36311 0
M  V30 25344 C 2303.87 -2.82314 -3.5017 0
M  V30 25345 C 2305.19 -0.898147 -4.30838 0
M  V30 25346 H 2302.31 -0.287355 -0.678672 0
M  V30 25347 H 2304.95 -1.32337 -1.36334 0
M  V30 25348 H 2303.1 -0.830835 -3.79512 0
M  V30 25349 H 2304.77 -3.36181 -3.1588 0
M  V30 25350 H 2303.01 -3.20852 -2.91953 0
M  V30 25351 H 2303.69 -3.12376 -4.5511 0
M  V30 25352 H 2306.16 -1.29121 -3.95559 0
M  V30 25353 H 2305.04 -1.27552 -5.33874 0
M  V30 25354 H 2305.3 0.196574 -4.41663 0
M  V30 25355 N 2304.36 1.32719 -0.8499 0
M  V30 25356 C 2305.59 2.01612 -0.464789 0
M  V30 25357 C 2306 1.63898 0.937163 0
M  V30 25358 O 2305.36 0.857885 1.61079 0
M  V30 25359 C 2305.41 3.56674 -0.588701 0
M  V30 25360 O 2305.13 3.93031 -1.93542 0
M  V30 25361 C 2306.63 4.4284 -0.201977 0
M  V30 25362 H 2303.85 0.645499 -0.183227 0
M  V30 25363 H 2306.39 1.69405 -1.14553 0
M  V30 25364 H 2304.55 3.87375 0.0442478 0
M  V30 25365 H 2304.96 4.87747 -1.9288 0
M  V30 25366 H 2306.44 5.50954 -0.339696 0
M  V30 25367 H 2306.91 4.30755 0.857149 0
M  V30 25368 H 2307.52 4.17519 -0.809806 0
M  V30 25369 N 2305.84 0.60738 1.45426 0
M  V30 25370 C 2306.75 -0.113422 2.34326 0
M  V30 25371 C 2307.76 -0.860591 1.51228 0
M  V30 25372 O 2308.94 -0.818223 1.8403 0
M  V30 25373 C 2306 -1.09838 3.28841 0
M  V30 25374 C 2305.06 -0.353196 4.27845 0
M  V30 25375 C 2304.3 -1.29124 5.17844 0
M  V30 25376 O 2304.52 -2.52904 5.11269 0
M  V30 25377 O 2303.45 -0.788418 5.96714 0
M  V30 25378 H 2307.28 0.617146 2.97363 0
M  V30 25379 H 2304.87 0.367644 1.44806 0
M  V30 25380 H 2306.75 -1.66568 3.87083 0
M  V30 25381 H 2305.42 -1.80998 2.68368 0
M  V30 25382 H 2304.33 0.25656 3.73219 0
M  V30 25383 H 2305.66 0.317909 4.91172 0
M  V30 25384 N 2307.31 -1.53743 0.34653 0
M  V30 25385 C 2308.73 -1.59599 -0.00528169 0
M  V30 25386 C 2308.93 -1.36239 -1.48463 0
M  V30 25387 O 2307.99 -1.15812 -2.24374 0
M  V30 25388 C 2309.3 -2.97558 0.433568 0
M  V30 25389 C 2310.85 -3.10609 0.386165 0
M  V30 25390 C 2311.32 -4.5095 0.80053 0
M  V30 25391 N 2312.81 -4.57008 0.754834 0
M  V30 25392 C 2313.55 -5.63753 1.04737 0
M  V30 25393 N 2313.04 -6.78337 1.40821 0
M  V30 25394 N 2314.84 -5.53642 0.971414 0
M  V30 25395 H 2306.99 -1.67182 1.31012 0
M  V30 25396 H 2309.25 -0.783118 0.534256 0
M  V30 25397 H 2308.96 -3.19729 1.46515 0
M  V30 25398 H 2308.83 -3.76723 -0.189687 0
M  V30 25399 H 2311.22 -2.8816 -0.636245 0
M  V30 25400 H 2311.3 -2.33496 1.04466 0
M  V30 25401 H 2310.94 -4.74134 1.82096 0
M  V30 25402 H 2310.87 -5.26464 0.119479 0
M  V30 25403 H 2313.36 -3.74726 0.488728 0
M  V30 25404 H 2313.68 -7.55711 1.6162 0
M  V30 25405 H 2312.02 -6.79776 1.44669 0
M  V30 25406 H 2315.21 -4.63004 0.688829 0
M  V30 25407 H 2315.39 -6.3674 1.20274 0
M  V30 25408 N 2308.79 -0.0752207 -1.5742 0
M  V30 25409 C 2309.74 0.890806 -2.12916 0
M  V30 25410 C 2310.71 1.29307 -1.04254 0
M  V30 25411 O 2311.89 1.37832 -1.31935 0
M  V30 25412 C 2309.03 2.15181 -2.69798 0
M  V30 25413 C 2308.15 1.80188 -3.92628 0
M  V30 25414 C 2307.28 3.00925 -4.37741 0
M  V30 25415 C 2306.32 2.61965 -5.5321 0
M  V30 25416 N 2305.46 3.75472 -5.93266 0
M  V30 25417 H 2310.3 0.410683 -2.95157 0
M  V30 25418 H 2307.84 0.191061 -1.45854 0
M  V30 25419 H 2309.79 2.89003 -3.00888 0
M  V30 25420 H 2308.42 2.60728 -1.90318 0
M  V30 25421 H 2307.48 0.964153 -3.67979 0
M  V30 25422 H 2308.79 1.47526 -4.76485 0
M  V30 25423 H 2307.94 3.83021 -4.7051 0
M  V30 25424 H 2306.68 3.36783 -3.52745 0
M  V30 25425 H 2305.69 1.7829 -5.20089 0
M  V30 25426 H 2306.91 2.27273 -6.3994 0
M  V30 25427 H 2304.86 4.11085 -5.11219 0
M  V30 25428 H 2304.77 3.4659 -6.71872 0
M  V30 25429 H 2306.04 4.58137 -6.30659 0
M  V30 25430 N 2310.27 1.56347 0.198358 0
M  V30 25431 C 2311.2 1.90808 1.26984 0
M  V30 25432 C 2312.22 0.798444 1.41876 0
M  V30 25433 O 2313.4 1.07684 1.4236 0
M  V30 25434 C 2310.5 2.12201 2.64242 0
M  V30 25435 C 2309.68 3.43333 2.71001 0
M  V30 25436 C 2308.74 3.53877 3.89433 0
M  V30 25437 O 2307.76 4.26726 3.76688 0
M  V30 25438 N 2308.96 2.86724 5.04747 0
M  V30 25439 H 2311.73 2.83315 0.977383 0
M  V30 25440 H 2309.29 1.57175 0.388294 0
M  V30 25441 H 2311.28 2.16546 3.41892 0
M  V30 25442 H 2309.85 1.26209 2.8599 0
M  V30 25443 H 2309.07 3.50884 1.7965 0
M  V30 25444 H 2310.36 4.29673 2.72504 0
M  V30 25445 H 2309.76 2.27359 5.18 0
M  V30 25446 H 2308.32 2.96701 5.80355 0
M  V30 25447 N 2311.75 -0.465951 1.50554 0
M  V30 25448 C 2312.68 -1.5809 1.65952 0
M  V30 25449 C 2313.69 -1.53553 0.540854 0
M  V30 25450 O 2314.88 -1.58848 0.814215 0
M  V30 25451 C 2311.98 -2.9698 1.63267 0
M  V30 25452 C 2311.16 -3.26331 2.9125 0
M  V30 25453 C 2310.21 -4.44801 2.81138 0
M  V30 25454 O 2309.24 -4.44856 3.55094 0
M  V30 25455 N 2310.44 -5.46753 1.95042 0
M  V30 25456 H 2313.21 -1.45296 2.62124 0
M  V30 25457 H 2310.77 -0.654454 1.48083 0
M  V30 25458 H 2312.76 -3.7421 1.54108 0
M  V30 25459 H 2311.33 -3.03517 0.748086 0
M  V30 25460 H 2310.55 -2.37666 3.14497 0
M  V30 25461 H 2311.84 -3.42755 3.76028 0
M  V30 25462 H 2311.24 -5.49532 1.34279 0
M  V30 25463 H 2309.79 -6.22947 1.91783 0
M  V30 25464 N 2313.23 -1.40218 -0.719481 0
M  V30 25465 C 2314.16 -1.42925 -1.84647 0
M  V30 25466 C 2315.14 -0.290649 -1.67598 0
M  V30 25467 O 2316.32 -0.49871 -1.87687 0
M  V30 25468 C 2313.45 -1.28728 -3.22562 0
M  V30 25469 C 2312.41 -2.4015 -3.54277 0
M  V30 25470 C 2311.73 -2.11032 -4.91294 0
M  V30 25471 C 2313.03 -3.82487 -3.5567 0
M  V30 25472 H 2314.73 -2.37241 -1.8264 0
M  V30 25473 H 2312.27 -1.14192 -0.877285 0
M  V30 25474 H 2314.23 -1.29239 -4.01093 0
M  V30 25475 H 2312.95 -0.308868 -3.25136 0
M  V30 25476 H 2311.61 -2.38882 -2.78084 0
M  V30 25477 H 2311.26 -1.11591 -4.90466 0
M  V30 25478 H 2310.96 -2.85679 -5.1348 0
M  V30 25479 H 2312.48 -2.13219 -5.72163 0
M  V30 25480 H 2313.89 -3.856 -4.24247 0
M  V30 25481 H 2312.29 -4.56621 -3.8938 0
M  V30 25482 H 2313.36 -4.12351 -2.55137 0
M  V30 25483 N 2314.7 0.951297 -1.25651 0
M  V30 25484 C 2315.61 2.08222 -1.08077 0
M  V30 25485 C 2316.63 1.73992 -0.0169971 0
M  V30 25486 O 2317.81 2.0021 -0.218628 0
M  V30 25487 C 2314.87 3.39457 -0.704982 0
M  V30 25488 C 2313.93 3.87534 -1.84706 0
M  V30 25489 C 2313.17 5.12505 -1.48911 0
M  V30 25490 O 2313.39 5.69091 -0.386256 0
M  V30 25491 O 2312.32 5.55373 -2.32043 0
M  V30 25492 H 2316.15 2.25951 -2.02928 0
M  V30 25493 H 2313.73 1.06654 -1.0462 0
M  V30 25494 H 2315.62 4.18331 -0.507683 0
M  V30 25495 H 2314.29 3.2299 0.214234 0
M  V30 25496 H 2313.2 3.09649 -2.09924 0
M  V30 25497 H 2314.53 4.08504 -2.74564 0
M  V30 25498 N 2316.18 1.07291 1.1544 0
M  V30 25499 C 2317.13 0.692691 2.2016 0
M  V30 25500 C 2318.1 -0.315611 1.63074 0
M  V30 25501 O 2319.28 -0.202202 1.89726 0
M  V30 25502 C 2316.42 0.0960115 3.44966 0
M  V30 25503 C 2315.54 1.15571 4.16254 0
M  V30 25504 C 2314.67 0.524104 5.28608 0
M  V30 25505 C 2313.71 1.56664 5.91712 0
M  V30 25506 N 2312.85 0.957653 6.95538 0
M  V30 25507 H 2317.69 1.59006 2.52034 0
M  V30 25508 H 2315.23 0.79482 1.23778 0
M  V30 25509 H 2317.18 -0.267555 4.16341 0
M  V30 25510 H 2315.81 -0.764717 3.13611 0
M  V30 25511 H 2314.87 1.63686 3.43382 0
M  V30 25512 H 2316.18 1.94621 4.59265 0
M  V30 25513 H 2315.33 0.108138 6.06604 0
M  V30 25514 H 2314.07 -0.298165 4.86788 0
M  V30 25515 H 2313.08 1.99239 5.12429 0
M  V30 25516 H 2314.3 2.39118 6.35609 0
M  V30 25517 H 2312.25 0.156277 6.55814 0
M  V30 25518 H 2312.16 1.68539 7.36974 0
M  V30 25519 H 2313.43 0.567169 7.77434 0
M  V30 25520 N 2317.66 -1.32267 0.856927 0
M  V30 25521 C 2318.9 -1.98976 0.46774 0
M  V30 25522 C 2319.26 -1.66323 -0.959202 0
M  V30 25523 O 2320.47 -2.26141 -1.45306 0
M  V30 25524 C 2318.74 -3.50425 0.702621 0
M  V30 25525 S 2320.3 -4.36868 0.411346 0
M  V30 25526 H 2317.11 -0.689093 0.175133 0
M  V30 25527 H 2319.72 -1.60923 1.11013 0
M  V30 25528 H 2318.42 -3.7168 1.74018 0
M  V30 25529 H 2317.95 -3.93372 0.0467398 0
M  V30 25530 H 2319.97 -4.90319 -0.761713 0
M  V30 25531 N 2319.14 -0.615084 -1.45102 0
M  V30 25532 C 2320.07 0.0865209 -2.3334 0
M  V30 25533 C 2321.05 0.851183 -1.47271 0
M  V30 25534 O 2322.23 0.82025 -1.76027 0
M  V30 25535 C 2319.36 1.0795 -3.30097 0
M  V30 25536 C 2318.32 0.427553 -4.25859 0
M  V30 25537 C 2317.64 1.52931 -5.12363 0
M  V30 25538 C 2318.94 -0.656035 -5.18164 0
M  V30 25539 H 2320.64 -0.650275 -2.92253 0
M  V30 25540 H 2318.18 -0.314163 -1.40531 0
M  V30 25541 H 2320.14 1.57894 -3.90701 0
M  V30 25542 H 2318.86 1.84699 -2.69359 0
M  V30 25543 H 2317.52 -0.0510936 -3.66564 0
M  V30 25544 H 2317.17 2.28726 -4.47988 0
M  V30 25545 H 2316.87 1.09855 -5.7724 0
M  V30 25546 H 2318.39 2.03087 -5.75837 0
M  V30 25547 H 2319.81 -0.240358 -5.72796 0
M  V30 25548 H 2318.2 -1.00898 -5.91557 0
M  V30 25549 H 2319.27 -1.52965 -4.60141 0
M  V30 25550 N 2320.62 1.53557 -0.354678 0
M  V30 25551 C 2321.56 2.25387 0.496928 0
M  V30 25552 C 2322.53 1.25638 1.08648 0
M  V30 25553 O 2323.72 1.54395 1.12101 0
M  V30 25554 C 2320.86 3.0384 1.63632 0
M  V30 25555 C 2319.97 4.18462 1.073 0
M  V30 25556 C 2319.11 4.8438 2.18059 0
M  V30 25557 C 2318.15 5.91052 1.59136 0
M  V30 25558 N 2317.28 6.50704 2.63684 0
M  V30 25559 H 2322.12 2.9775 -0.122128 0
M  V30 25560 H 2319.66 1.46923 -0.0720412 0
M  V30 25561 H 2321.62 3.47593 2.30727 0
M  V30 25562 H 2320.25 2.33753 2.22619 0
M  V30 25563 H 2319.3 3.79273 0.292642 0
M  V30 25564 H 2320.61 4.95153 0.602106 0
M  V30 25565 H 2319.77 5.3126 2.92998 0
M  V30 25566 H 2318.51 4.07138 2.68496 0
M  V30 25567 H 2317.51 5.43543 0.82708 0
M  V30 25568 H 2318.74 6.70208 1.09538 0
M  V30 25569 H 2316.68 5.7632 3.13355 0
M  V30 25570 H 2316.6 7.229 2.2125 0
M  V30 25571 H 2317.87 7.02235 3.38358 0
M  V30 25572 N 2322.1 0.083568 1.57378 0
M  V30 25573 C 2323.03 -0.876822 2.16412 0
M  V30 25574 C 2324.01 -1.30226 1.09431 0
M  V30 25575 O 2325.19 -1.37121 1.37519 0
M  V30 25576 C 2322.32 -2.14017 2.73521 0
M  V30 25577 C 2321.28 -1.85375 3.85772 0
M  V30 25578 C 2320.6 -3.1844 4.29534 0
M  V30 25579 C 2321.9 -1.14975 5.09488 0
M  V30 25580 H 2323.6 -0.385006 2.96914 0
M  V30 25581 H 2321.14 -0.183745 1.42823 0
M  V30 25582 H 2323.09 -2.81631 3.13468 0
M  V30 25583 H 2321.82 -2.65462 1.90257 0
M  V30 25584 H 2320.48 -1.20163 3.46347 0
M  V30 25585 H 2320.13 -3.67749 3.43176 0
M  V30 25586 H 2319.83 -3.00063 5.05209 0
M  V30 25587 H 2321.35 -3.87231 4.72106 0
M  V30 25588 H 2322.76 -1.72677 5.46677 0
M  V30 25589 H 2321.16 -1.06816 5.90517 0
M  V30 25590 H 2322.23 -0.130663 4.84724 0
M  V30 25591 N 2323.57 -1.5645 -0.190064 0
M  V30 25592 C 2324.8 -1.85389 -0.929831 0
M  V30 25593 C 2325.22 -0.667735 -1.75849 0
M  V30 25594 O 2324.58 0.383428 -1.77199 0
M  V30 25595 C 2324.63 -3.12596 -1.79767 0
M  V30 25596 O 2323.73 -2.93502 -2.89708 0
M  V30 25597 H 2323.07 -0.610312 -0.261563 0
M  V30 25598 H 2325.6 -2.0368 -0.193861 0
M  V30 25599 H 2325.61 -3.43519 -2.20133 0
M  V30 25600 H 2324.29 -3.98546 -1.18885 0
M  V30 25601 H 2322.87 -2.73888 -2.5306 0
M  V30 25602 N 2325.05 0.45796 -1.50799 0
M  V30 25603 C 2326.47 0.792795 -1.38517 0
M  V30 25604 C 2326.67 1.96378 -0.451443 0
M  V30 25605 O 2325.72 2.52298 0.101076 0
M  V30 25606 C 2327.04 1.09253 -2.80151 0
M  V30 25607 C 2328.58 1.1982 -2.89158 0
M  V30 25608 C 2329.06 1.53098 -4.31654 0
M  V30 25609 N 2330.55 1.60064 -4.34665 0
M  V30 25610 C 2331.29 1.87345 -5.41931 0
M  V30 25611 N 2330.78 2.12556 -6.59387 0
M  V30 25612 N 2332.57 1.88956 -5.29388 0
M  V30 25613 H 2324.73 -0.313548 -2.10073 0
M  V30 25614 H 2326.99 -0.0778028 -0.944802 0
M  V30 25615 H 2326.69 0.305022 -3.50375 0
M  V30 25616 H 2326.57 2.02544 -3.18207 0
M  V30 25617 H 2328.96 1.97636 -2.19144 0
M  V30 25618 H 2329.04 0.244776 -2.54626 0
M  V30 25619 H 2328.68 0.758178 -5.02209 0
M  V30 25620 H 2328.61 2.49613 -4.63682 0
M  V30 25621 H 2331.1 1.42567 -3.49976 0
M  V30 25622 H 2331.41 2.32684 -7.36938 0
M  V30 25623 H 2329.76 2.09921 -6.62539 0
M  V30 25624 H 2332.95 1.68765 -4.36619 0
M  V30 25625 H 2333.12 2.0988 -6.1307 0
M  V30 25626 N 2326.53 1.40598 0.712035 0
M  V30 25627 C 2327.48 1.41145 1.82611 0
M  V30 25628 C 2328.45 0.267932 1.63925 0
M  V30 25629 O 2329.63 0.466527 1.85009 0
M  V30 25630 C 2326.77 1.2833 3.20352 0
M  V30 25631 C 2325.88 2.52417 3.50585 0
M  V30 25632 C 2325.02 2.32017 4.77851 0
M  V30 25633 C 2324.06 3.51663 5.00999 0
M  V30 25634 N 2323.2 3.30436 6.19481 0
M  V30 25635 H 2328.04 2.36368 1.81478 0
M  V30 25636 H 2325.57 1.1739 0.886455 0
M  V30 25637 H 2327.53 1.18906 3.99897 0
M  V30 25638 H 2326.16 0.367245 3.20704 0
M  V30 25639 H 2325.21 2.72356 2.65568 0
M  V30 25640 H 2326.52 3.41464 3.63598 0
M  V30 25641 H 2325.68 2.19966 5.6542 0
M  V30 25642 H 2324.42 1.40401 4.67054 0
M  V30 25643 H 2323.42 3.64187 4.11884 0
M  V30 25644 H 2324.65 4.44211 5.13666 0
M  V30 25645 H 2322.59 2.41505 6.09927 0
M  V30 25646 H 2322.51 4.1305 6.33187 0
M  V30 25647 H 2323.78 3.22125 7.09828 0
M  V30 25648 N 2328.01 -0.94462 1.26153 0
M  V30 25649 C 2328.94 -2.04269 1.01732 0
M  V30 25650 C 2329.92 -1.62501 -0.0567816 0
M  V30 25651 O 2331.1 -1.88309 0.0849318 0
M  V30 25652 C 2328.23 -3.3437 0.539851 0
M  V30 25653 C 2327.28 -3.95108 1.606 0
M  V30 25654 S 2328.11 -4.29819 3.19399 0
M  V30 25655 C 2329.26 -5.63025 2.73412 0
M  V30 25656 H 2329.5 -2.2467 1.94707 0
M  V30 25657 H 2327.03 -1.08556 1.09795 0
M  V30 25658 H 2328.99 -4.09604 0.271028 0
M  V30 25659 H 2327.65 -3.11918 -0.369554 0
M  V30 25660 H 2326.84 -4.8894 1.22284 0
M  V30 25661 H 2326.44 -3.26393 1.82602 0
M  V30 25662 H 2328.74 -6.41584 2.17661 0
M  V30 25663 H 2329.68 -6.06222 3.65924 0
M  V30 25664 H 2330.09 -5.22737 2.13087 0
M  V30 25665 N 2329.49 -1.07901 -1.1487 0
M  V30 25666 C 2330.9 -0.80563 -1.37774 0
M  V30 25667 C 2331.1 0.587521 -1.92744 0
M  V30 25668 O 2330.16 1.34525 -2.1368 0
M  V30 25669 C 2331.47 -1.88406 -2.34358 0
M  V30 25670 C 2333.02 -1.90947 -2.48009 0
M  V30 25671 C 2333.49 -2.97889 -3.47888 0
M  V30 25672 N 2334.98 -2.97028 -3.55428 0
M  V30 25673 C 2335.72 -3.76419 -4.32546 0
M  V30 25674 N 2335.22 -4.65676 -5.1295 0
M  V30 25675 N 2337.01 -3.64743 -4.27691 0
M  V30 25676 H 2329.16 -1.97743 -0.77533 0
M  V30 25677 H 2331.42 -0.857839 -0.403506 0
M  V30 25678 H 2331.13 -2.88538 -2.01093 0
M  V30 25679 H 2331 -1.74895 -3.34203 0
M  V30 25680 H 2333.39 -0.914628 -2.80568 0
M  V30 25681 H 2333.47 -2.08536 -1.48143 0
M  V30 25682 H 2333.11 -3.97576 -3.16062 0
M  V30 25683 H 2333.04 -2.77546 -4.47522 0
M  V30 25684 H 2335.54 -2.32332 -2.98044 0
M  V30 25685 H 2335.85 -5.22872 -5.69056 0
M  V30 25686 H 2334.19 -4.69721 -5.12237 0
M  V30 25687 H 2337.38 -2.94385 -3.63944 0
M  V30 25688 H 2337.56 -4.26856 -4.87542 0
M  V30 25689 N 2330.96 1.31811 -0.863929 0
M  V30 25690 C 2331.91 2.28663 -0.313343 0
M  V30 25691 C 2332.88 1.55463 0.584841 0
M  V30 25692 O 2334.07 1.8364 0.517773 0
M  V30 25693 C 2331.21 3.41684 0.48435 0
M  V30 25694 C 2330.32 4.29747 -0.440669 0
M  V30 25695 C 2329.45 5.29906 0.370558 0
M  V30 25696 C 2328.49 6.09613 -0.551272 0
M  V30 25697 N 2327.63 7.01745 0.223339 0
M  V30 25698 H 2332.47 2.75146 -1.14449 0
M  V30 25699 H 2330.01 1.35363 -0.575793 0
M  V30 25700 H 2331.96 4.05944 0.962555 0
M  V30 25701 H 2330.59 2.96327 1.28024 0
M  V30 25702 H 2329.65 3.65984 -1.0373 0
M  V30 25703 H 2330.96 4.85415 -1.14776 0
M  V30 25704 H 2330.11 5.99813 0.911533 0
M  V30 25705 H 2328.85 4.74878 1.11097 0
M  V30 25706 H 2327.86 5.38601 -1.10405 0
M  V30 25707 H 2329.08 6.66727 -1.29044 0
M  V30 25708 H 2327.03 6.49133 0.946672 0
M  V30 25709 H 2326.94 7.54807 -0.424532 0
M  V30 25710 H 2328.21 7.75925 0.745739 0
M  V30 25711 N 2332.44 0.62277 1.44773 0
M  V30 25712 C 2333.35 -0.0885619 2.34433 0
M  V30 25713 C 2334.37 -0.844502 1.52132 0
M  V30 25714 O 2335.54 -0.798658 1.84888 0
M  V30 25715 C 2332.61 -1.06344 3.29987 0
M  V30 25716 C 2331.67 -0.307798 4.28195 0
M  V30 25717 C 2330.9 -1.23624 5.19185 0
M  V30 25718 O 2331.13 -2.47467 5.13922 0
M  V30 25719 O 2330.06 -0.725084 5.97517 0
M  V30 25720 H 2333.89 0.648651 2.96692 0
M  V30 25721 H 2331.47 0.382982 1.44408 0
M  V30 25722 H 2333.35 -1.62453 3.88828 0
M  V30 25723 H 2332.03 -1.78142 2.70272 0
M  V30 25724 H 2330.93 0.29613 3.72926 0
M  V30 25725 H 2332.27 0.369986 4.90807 0
M  V30 25726 N 2333.92 -1.53367 0.362817 0
M  V30 25727 C 2334.85 -2.21997 -0.528468 0
M  V30 25728 C 2335.83 -1.21089 -1.08518 0
M  V30 25729 O 2337.01 -1.49982 -1.14183 0
M  V30 25730 C 2334.14 -2.91252 -1.72888 0
M  V30 25731 C 2333.19 -4.06209 -1.29987 0
M  V30 25732 S 2334.02 -5.34639 -0.303481 0
M  V30 25733 C 2335.18 -6.07405 -1.51028 0
M  V30 25734 H 2335.41 -2.9725 0.0543945 0
M  V30 25735 H 2332.94 -1.53699 0.146916 0
M  V30 25736 H 2334.9 -3.31767 -2.41745 0
M  V30 25737 H 2333.56 -2.15728 -2.28299 0
M  V30 25738 H 2332.75 -4.53671 -2.19542 0
M  V30 25739 H 2332.36 -3.6757 -0.690543 0
M  V30 25740 H 2334.65 -6.31969 -2.44175 0
M  V30 25741 H 2335.59 -6.9986 -1.07709 0
M  V30 25742 H 2336 -5.37815 -1.71508 0
M  V30 25743 N 2335.4 -0.091913 -1.57332 0
M  V30 25744 C 2336.35 0.885709 -2.15077 0
M  V30 25745 C 2337.34 1.29439 -1.09279 0
M  V30 25746 O 2338.55 1.26929 -1.27629 0
M  V30 25747 H 2334.92 0.303644 -0.687971 0
M  V30 25748 H 2336.89 0.373943 -2.96048 0
M  V30 25749 C 2335.64 2.13633 -2.74329 0
M  V30 25750 H 2334.96 1.83074 -3.55421 0
M  V30 25751 H 2336.4 2.80104 -3.18305 0
M  V30 25752 C 2334.86 2.90824 -1.70067 0
M  V30 25753 O 2335.39 3.85252 -1.13769 0
M  V30 25754 N 2333.6 2.54305 -1.40633 0
M  V30 25755 H 2333.15 1.77587 -1.86603 0
M  V30 25756 H 2333.1 3.06253 -0.711096 0
M  V30 25757 N 2336.88 1.56548 0.181765 0
M  V30 25758 C 2338.12 1.81666 0.901399 0
M  V30 25759 C 2338.46 0.668107 1.82346 0
M  V30 25760 O 2337.73 -0.330581 1.9167 0
M  V30 25761 C 2338.01 3.17118 1.70612 0
M  V30 25762 C 2337.87 4.42485 0.807886 0
M  V30 25763 C 2339.19 3.49398 2.67599 0
M  V30 25764 H 2336.3 0.660851 0.326258 0
M  V30 25765 H 2338.95 1.89255 0.168101 0
M  V30 25766 H 2337.1 3.10779 2.33128 0
M  V30 25767 H 2338.77 4.60882 0.196409 0
M  V30 25768 H 2337.01 4.33647 0.115334 0
M  V30 25769 H 2337.68 5.33788 1.40623 0
M  V30 25770 H 2340.16 3.56122 2.15212 0
M  V30 25771 H 2339.03 4.45269 3.20977 0
M  V30 25772 H 2339.3 2.73569 3.47293 0
M  V30 25773 N 2338.35 -0.449957 1.5104 0
M  V30 25774 C 2339.28 -1.55284 1.74382 0
M  V30 25775 C 2340.27 -1.59419 0.593264 0
M  V30 25776 O 2341.45 -1.75349 0.834656 0
M  V30 25777 C 2338.58 -2.93463 1.85734 0
M  V30 25778 C 2337.53 -3.04192 3.01083 0
M  V30 25779 C 2336.86 -4.44226 2.97603 0
M  V30 25780 C 2338.16 -2.79442 4.41259 0
M  V30 25781 H 2339.85 -1.36003 2.66727 0
M  V30 25782 H 2337.4 -0.652842 1.28351 0
M  V30 25783 H 2339.35 -3.70566 2.00646 0
M  V30 25784 H 2338.08 -3.13947 0.900262 0
M  V30 25785 H 2336.74 -2.29526 2.85855 0
M  V30 25786 H 2336.38 -4.61659 1.99699 0
M  V30 25787 H 2336.08 -4.52337 3.75054 0
M  V30 25788 H 2337.61 -5.2332 3.14592 0
M  V30 25789 H 2339.02 -3.46284 4.56903 0
M  V30 25790 H 2337.42 -2.98976 5.2032 0
M  V30 25791 H 2338.49 -1.75137 4.52167 0
M  V30 25792 N 2339.83 -1.40974 -0.704569 0
M  V30 25793 C 2341.06 -1.43184 -1.49352 0
M  V30 25794 C 2341.48 -0.034584 -1.88768 0
M  V30 25795 O 2340.83 0.944054 -1.56185 0
M  V30 25796 C 2340.88 -2.33249 -2.76183 0
M  V30 25797 O 2340.6 -3.67536 -2.3843 0
M  V30 25798 C 2342.11 -2.44168 -3.69996 0
M  V30 25799 H 2339.33 -0.48799 -0.46055 0
M  V30 25800 H 2341.87 -1.85154 -0.868228 0
M  V30 25801 H 2340.02 -1.94612 -3.3497 0
M  V30 25802 H 2340.44 -4.15481 -3.20118 0
M  V30 25803 H 2341.91 -3.11372 -4.55797 0
M  V30 25804 H 2342.39 -1.47013 -4.13864 0
M  V30 25805 H 2343 -2.83404 -3.17116 0
M  V30 25806 N 2341.31 0.937917 -1.26653 0
M  V30 25807 C 2342.22 2.07064 -1.10279 0
M  V30 25808 C 2343.24 1.73964 -0.0354503 0
M  V30 25809 O 2344.41 1.99967 -0.239851 0
M  V30 25810 C 2341.48 3.3869 -0.740946 0
M  V30 25811 C 2340.54 3.85553 -1.88806 0
M  V30 25812 C 2339.77 5.10897 -1.54338 0
M  V30 25813 O 2339.99 5.68649 -0.446594 0
M  V30 25814 O 2338.93 5.52881 -2.3792 0
M  V30 25815 H 2342.75 2.23786 -2.05313 0
M  V30 25816 H 2340.34 1.05538 -1.05745 0
M  V30 25817 H 2342.22 4.17769 -0.552024 0
M  V30 25818 H 2340.9 3.23199 0.179965 0
M  V30 25819 H 2339.8 3.07405 -2.13197 0
M  V30 25820 H 2341.14 4.05569 -2.78881 0
M  V30 25821 N 2342.79 1.08509 1.14296 0
M  V30 25822 C 2344.03 0.826471 1.85852 0
M  V30 25823 C 2344.39 -0.640846 1.81414 0
M  V30 25824 O 2343.68 -1.46516 1.23465 0
M  V30 25825 C 2343.88 1.28385 3.33545 0
M  V30 25826 C 2343.71 2.79409 3.52364 0
M  V30 25827 C 2342.48 3.4717 3.67153 0
M  V30 25828 C 2344.67 3.77579 3.49197 0
M  V30 25829 N 2342.66 4.86716 3.7414 0
M  V30 25830 C 2344.03 5.03027 3.62441 0
M  V30 25831 C 2346.08 3.70569 3.3254 0
M  V30 25832 C 2344.78 6.22296 3.6075 0
M  V30 25833 C 2346.81 4.89314 3.32153 0
M  V30 25834 C 2346.17 6.13601 3.45939 0
M  V30 25835 H 2342.27 0.355155 0.696699 0
M  V30 25836 H 2344.86 1.38365 1.36979 0
M  V30 25837 H 2343.03 0.754233 3.81006 0
M  V30 25838 H 2344.76 0.971538 3.92865 0
M  V30 25839 H 2341.51 2.97587 3.68428 0
M  V30 25840 H 2341.94 5.59377 3.81349 0
M  V30 25841 H 2346.58 2.75413 3.20792 0
M  V30 25842 H 2344.3 7.17761 3.71274 0
M  V30 25843 H 2347.88 4.85578 3.20476 0
M  V30 25844 H 2346.76 7.03945 3.45587 0
M  V30 25845 N 2344.27 -1.31351 0.870907 0
M  V30 25846 C 2345.2 -2.30965 0.343137 0
M  V30 25847 C 2346.18 -1.6039 -0.566479 0
M  V30 25848 O 2347.36 -1.8809 -0.483303 0
M  V30 25849 C 2344.49 -3.44301 -0.455426 0
M  V30 25850 C 2343.45 -4.26473 0.361178 0
M  V30 25851 C 2342.77 -5.31726 -0.563127 0
M  V30 25852 C 2344.07 -4.97326 1.59575 0
M  V30 25853 H 2345.77 -2.75357 1.17553 0
M  V30 25854 H 2343.31 -1.3238 0.566709 0
M  V30 25855 H 2345.27 -4.13041 -0.835178 0
M  V30 25856 H 2343.99 -2.98678 -1.32134 0
M  V30 25857 H 2342.65 -3.59402 0.722888 0
M  V30 25858 H 2342.3 -4.82353 -1.42634 0
M  V30 25859 H 2342 -5.87596 -0.0206376 0
M  V30 25860 H 2343.52 -6.03326 -0.939702 0
M  V30 25861 H 2344.93 -5.58659 1.28738 0
M  V30 25862 H 2343.33 -5.62996 2.07738 0
M  V30 25863 H 2344.4 -4.24258 2.34805 0
M  V30 25864 N 2345.74 -0.630439 -1.44441 0
M  V30 25865 C 2346.71 0.065212 -2.29107 0
M  V30 25866 C 2347.71 0.77297 -1.41003 0
M  V30 25867 O 2348.9 0.617664 -1.62882 0
M  V30 25868 C 2346.03 1.10291 -3.22566 0
M  V30 25869 H 2347.22 -0.679453 -2.92102 0
M  V30 25870 H 2344.78 -0.390544 -1.51342 0
M  V30 25871 H 2345.51 1.87758 -2.64419 0
M  V30 25872 H 2345.3 0.599342 -3.87492 0
M  V30 25873 H 2346.79 1.58943 -3.8617 0
M  V30 25874 N 2347.22 1.53172 -0.370945 0
M  V30 25875 C 2348.19 2.24521 0.460739 0
M  V30 25876 C 2349.19 1.25498 1.00534 0
M  V30 25877 O 2350.38 1.49734 0.89024 0
M  V30 25878 C 2347.51 2.98611 1.64452 0
M  V30 25879 H 2348.7 2.99453 -0.163665 0
M  V30 25880 H 2346.25 1.55817 -0.122726 0
M  V30 25881 H 2346.99 2.27934 2.30687 0
M  V30 25882 H 2346.77 3.71272 1.26092 0
M  V30 25883 H 2348.26 3.52834 2.23378 0
M  V30 25884 N 2348.7 0.100255 1.57281 0
M  V30 25885 C 2349.93 -0.570474 1.9888 0
M  V30 25886 C 2350.34 -1.61404 0.979505 0
M  V30 25887 O 2349.7 -1.82475 -0.0301967 0
M  V30 25888 C 2349.75 -1.21354 3.40522 0
M  V30 25889 O 2349.47 -0.211709 4.37588 0
M  V30 25890 C 2350.97 -1.96939 3.97153 0
M  V30 25891 H 2348.19 -0.152544 0.65343 0
M  V30 25892 H 2350.74 0.181066 2.03697 0
M  V30 25893 H 2348.89 -1.91597 3.36703 0
M  V30 25894 H 2349.31 -0.676515 5.20119 0
M  V30 25895 H 2350.78 -2.37285 4.98397 0
M  V30 25896 H 2351.26 -2.83727 3.35255 0
M  V30 25897 H 2351.86 -1.31499 4.0446 0
M  V30 25898 N 2350.18 -1.56643 -0.17346 0
M  V30 25899 C 2351.46 -1.72742 -0.917586 0
M  V30 25900 C 2351.84 -0.661062 -2.00482 0
M  V30 25901 O 2351.18 0.32449 -2.26184 0
M  V30 25902 C 2351.39 -3.15864 -1.48428 0
M  V30 25903 C 2352.74 -3.76758 -1.95803 0
M  V30 25904 O 2353.77 -3.19129 -1.58226 0
M  V30 25905 O 2352.63 -4.77942 -2.65016 0
M  V30 25906 H 2349.72 -0.705346 -0.431759 0
M  V30 25907 H 2352.27 -1.6893 -0.161457 0
M  V30 25908 H 2351.04 -3.84958 -0.701647 0
M  V30 25909 H 2350.66 -3.23993 -2.30465 0
M  V30 25910 N 2351.66 0.44194 -1.51277 0
M  V30 25911 C 2352.59 1.55588 -1.66936 0
M  V30 25912 C 2353.57 1.54162 -0.516986 0
M  V30 25913 O 2354.75 1.73357 -0.74024 0
M  V30 25914 C 2351.88 2.94171 -1.67872 0
M  V30 25915 C 2350.93 3.13641 -2.89019 0
M  V30 25916 S 2351.76 2.90428 -4.49902 0
M  V30 25917 C 2352.91 4.31301 -4.53575 0
M  V30 25918 H 2353.15 1.42071 -2.61157 0
M  V30 25919 H 2350.68 0.631317 -1.40903 0
M  V30 25920 H 2352.64 3.74055 -1.69095 0
M  V30 25921 H 2351.3 3.05055 -0.74835 0
M  V30 25922 H 2350.49 4.14952 -2.86061 0
M  V30 25923 H 2350.09 2.41575 -2.85513 0
M  V30 25924 H 2352.39 5.24426 -4.28933 0
M  V30 25925 H 2353.33 4.39293 -5.55362 0
M  V30 25926 H 2353.74 4.14741 -3.8295 0
M  V30 25927 N 2353.14 1.41345 0.697083 0
M  V30 25928 C 2354.05 1.4543 1.84085 0
M  V30 25929 C 2355.06 0.34504 1.70545 0
M  V30 25930 O 2356.24 0.592526 1.92487 0
M  V30 25931 C 2353.3 1.33292 3.20053 0
M  V30 25932 C 2352.36 2.5452 3.45713 0
M  V30 25933 C 2351.6 2.42952 4.75195 0
M  V30 25934 O 2351.82 1.45328 5.51576 0
M  V30 25935 O 2350.75 3.32681 5.01604 0
M  V30 25936 H 2354.58 2.41922 1.83595 0
M  V30 25937 H 2352.16 1.22867 0.849945 0
M  V30 25938 H 2354.05 1.28801 4.01233 0
M  V30 25939 H 2352.72 0.399146 3.2123 0
M  V30 25940 H 2351.63 2.64588 2.64469 0
M  V30 25941 H 2352.96 3.46721 3.4935 0
M  V30 25942 N 2354.61 -0.931187 1.27148 0
M  V30 25943 C 2355.54 -2.0484 1.12085 0
M  V30 25944 C 2356.52 -1.70084 0.0232663 0
M  V30 25945 O 2357.71 -1.93197 0.197119 0
M  V30 25946 C 2354.84 -3.38801 0.763599 0
M  V30 25947 C 2353.79 -3.87656 1.81403 0
M  V30 25948 C 2353.12 -5.18383 1.31084 0
M  V30 25949 C 2354.42 -4.11432 3.21747 0
M  V30 25950 H 2356.11 -2.177 2.05541 0
M  V30 25951 H 2353.66 -1.04606 0.989621 0
M  V30 25952 H 2355.61 -4.16434 0.645055 0
M  V30 25953 H 2354.34 -3.25945 -0.20667 0
M  V30 25954 H 2353 -3.12213 1.92141 0
M  V30 25955 H 2352.64 -5.01916 0.330125 0
M  V30 25956 H 2352.34 -5.5204 2.01309 0
M  V30 25957 H 2353.87 -5.98588 1.20517 0
M  V30 25958 H 2355.28 -4.79645 3.14028 0
M  V30 25959 H 2353.68 -4.5639 3.89652 0
M  V30 25960 H 2354.75 -3.16852 3.67059 0
M  V30 25961 N 2356.09 -1.09114 -1.13719 0
M  V30 25962 C 2357.32 -0.846932 -1.88771 0
M  V30 25963 C 2357.73 0.60154 -1.78961 0
M  V30 25964 O 2357.09 1.41386 -1.15397 0
M  V30 25965 C 2357.14 -1.26919 -3.38488 0
M  V30 25966 O 2356.86 -2.66085 -3.48038 0
M  V30 25967 C 2358.36 -1.0569 -4.30517 0
M  V30 25968 H 2355.58 -0.304924 -0.597714 0
M  V30 25969 H 2358.13 -1.45229 -1.43975 0
M  V30 25970 H 2356.28 -0.70779 -3.80879 0
M  V30 25971 H 2356.7 -2.83803 -4.41085 0
M  V30 25972 H 2358.17 -1.40166 -5.33908 0
M  V30 25973 H 2358.65 0.00555696 -4.392 0
M  V30 25974 H 2359.25 -1.60409 -3.9389 0
M  V30 25975 N 2357.57 1.30887 -0.877861 0
M  V30 25976 C 2358.52 2.28318 -0.337578 0
M  V30 25977 C 2359.49 1.56075 0.568319 0
M  V30 25978 O 2360.67 1.84179 0.498266 0
M  V30 25979 C 2357.81 3.42179 0.448082 0
M  V30 25980 C 2356.92 4.29255 -0.486225 0
M  V30 25981 C 2356.06 5.30269 0.314334 0
M  V30 25982 C 2355.1 6.08994 -0.615898 0
M  V30 25983 N 2354.24 7.01942 0.148897 0
M  V30 25984 H 2359.08 2.73917 -1.1736 0
M  V30 25985 H 2356.61 1.34744 -0.590117 0
M  V30 25986 H 2358.57 4.06942 0.919445 0
M  V30 25987 H 2357.2 2.97668 1.24874 0
M  V30 25988 H 2356.25 3.64863 -1.07606 0
M  V30 25989 H 2357.56 4.84171 -1.19918 0
M  V30 25990 H 2356.72 6.00746 0.847863 0
M  V30 25991 H 2355.46 4.76029 1.06054 0
M  V30 25992 H 2354.46 5.37399 -1.16112 0
M  V30 25993 H 2355.69 6.6532 -1.36108 0
M  V30 25994 H 2353.63 6.50101 0.87777 0
M  V30 25995 H 2353.55 7.54314 -0.504565 0
M  V30 25996 H 2354.82 7.76672 0.6634 0
M  V30 25997 N 2359.05 0.638091 1.44105 0
M  V30 25998 C 2360.46 0.304314 1.56672 0
M  V30 25999 C 2360.66 -1.19225 1.62442 0
M  V30 26000 O 2359.72 -1.97657 1.57124 0
M  V30 26001 C 2361.03 1.00236 2.83502 0
M  V30 26002 C 2362.58 0.981168 2.97224 0
M  V30 26003 C 2363.06 1.65982 4.26865 0
M  V30 26004 N 2364.55 1.62674 4.33695 0
M  V30 26005 C 2365.28 2.12072 5.32741 0
M  V30 26006 N 2364.78 2.69692 6.38152 0
M  V30 26007 N 2366.57 2.0266 5.24295 0
M  V30 26008 H 2358.72 1.60945 1.38602 0
M  V30 26009 H 2360.98 0.675977 0.66465 0
M  V30 26010 H 2360.69 2.05735 2.85247 0
M  V30 26011 H 2360.56 0.544456 3.7325 0
M  V30 26012 H 2362.95 -0.065367 2.95028 0
M  V30 26013 H 2363.03 1.47763 2.08806 0
M  V30 26014 H 2362.68 2.70584 4.29822 0
M  V30 26015 H 2362.61 1.13813 5.14154 0
M  V30 26016 H 2365.1 1.20612 3.58136 0
M  V30 26017 H 2365.41 3.05099 7.10024 0
M  V30 26018 H 2363.76 2.73746 6.38818 0
M  V30 26019 H 2366.95 1.57361 4.40857 0
M  V30 26020 H 2367.12 2.41468 6.0133 0
M  V30 26021 N 2360.53 -1.52973 0.379063 0
M  V30 26022 C 2361.75 -2.06341 -0.209317 0
M  V30 26023 C 2362.18 -1.24975 -1.4058 0
M  V30 26024 O 2361.53 -0.272186 -1.79245 0
M  V30 26025 C 2361.58 -3.56103 -0.567723 0
M  V30 26026 O 2360.69 -3.77378 -1.66312 0
M  V30 26027 H 2360.03 -0.663439 -0.0272802 0
M  V30 26028 H 2362.56 -1.97247 0.54357 0
M  V30 26029 H 2362.57 -3.99366 -0.834933 0
M  V30 26030 H 2361.24 -4.14765 0.307086 0
M  V30 26031 H 2359.82 -3.46008 -1.39042 0
M  V30 26032 N 2362 -0.108595 -1.57225 0
M  V30 26033 C 2362.97 0.831044 -2.13603 0
M  V30 26034 C 2363.97 1.20171 -1.06843 0
M  V30 26035 O 2365.16 1.12893 -1.32668 0
M  V30 26036 C 2362.29 2.12239 -2.66772 0
M  V30 26037 H 2363.48 0.341265 -2.97952 0
M  V30 26038 H 2361.03 0.140542 -1.55667 0
M  V30 26039 H 2361.77 2.65671 -1.85982 0
M  V30 26040 H 2361.55 1.86619 -3.44842 0
M  V30 26041 H 2363.04 2.79429 -3.10337 0
M  V30 26042 N 2363.48 1.56732 0.16515 0
M  V30 26043 C 2364.73 1.82612 0.88208 0
M  V30 26044 C 2365.06 0.68741 1.81627 0
M  V30 26045 O 2364.34 -0.310234 1.9201 0
M  V30 26046 C 2364.62 3.18909 1.67239 0
M  V30 26047 C 2364.47 4.43317 0.76091 0
M  V30 26048 C 2365.79 3.52217 2.63878 0
M  V30 26049 H 2362.91 0.664275 0.319231 0
M  V30 26050 H 2365.55 1.89423 0.148019 0
M  V30 26051 H 2363.7 3.13234 2.29818 0
M  V30 26052 H 2365.37 4.61064 0.147515 0
M  V30 26053 H 2363.62 4.33745 0.069334 0
M  V30 26054 H 2364.29 5.35249 1.34953 0
M  V30 26055 H 2366.76 3.58385 2.11423 0
M  V30 26056 H 2365.64 4.48649 3.16237 0
M  V30 26057 H 2365.9 2.77237 3.44372 0
M  V30 26058 N 2364.96 -0.433911 1.51509 0
M  V30 26059 C 2365.87 -1.55207 1.7592 0
M  V30 26060 C 2366.89 -1.61661 0.643574 0
M  V30 26061 O 2368.06 -1.78839 0.926214 0
M  V30 26062 C 2365.13 -2.91161 1.88218 0
M  V30 26063 C 2364.19 -2.94796 3.12079 0
M  V30 26064 C 2363.42 -4.24266 3.23782 0
M  V30 26065 O 2363.64 -5.16829 2.41339 0
M  V30 26066 O 2362.58 -4.34255 4.16781 0
M  V30 26067 H 2366.4 -1.37522 2.70779 0
M  V30 26068 H 2363.99 -0.617269 1.36052 0
M  V30 26069 H 2365.87 -3.71841 1.98273 0
M  V30 26070 H 2364.55 -3.08967 0.965467 0
M  V30 26071 H 2363.45 -2.13059 3.07501 0
M  V30 26072 H 2364.79 -2.81936 4.03451 0
M  V30 26073 N 2366.44 -1.41713 -0.689577 0
M  V30 26074 C 2367.69 -1.41113 -1.44678 0
M  V30 26075 C 2368.01 -0.0232539 -1.94986 0
M  V30 26076 O 2367.28 0.935883 -1.72099 0
M  V30 26077 H 2365.86 -0.519436 -0.536838 0
M  V30 26078 H 2368.52 -1.77005 -0.815794 0
M  V30 26079 H 2367.62 -2.10197 -2.30702 0
M  V30 26080 N 2367.92 0.924431 -1.2764 0
M  V30 26081 C 2368.85 2.02625 -1.04969 0
M  V30 26082 C 2369.83 1.62571 0.0309219 0
M  V30 26083 O 2371.01 1.8815 -0.114879 0
M  V30 26084 C 2368.14 3.33469 -0.592978 0
M  V30 26085 C 2367.18 3.92503 -1.66865 0
M  V30 26086 S 2368.02 4.24683 -3.26197 0
M  V30 26087 C 2369.17 5.58604 -2.82335 0
M  V30 26088 H 2369.41 2.21544 -1.98256 0
M  V30 26089 H 2366.94 1.06796 -1.11508 0
M  V30 26090 H 2368.9 4.09121 -0.336158 0
M  V30 26091 H 2367.56 3.12467 0.319884 0
M  V30 26092 H 2366.75 4.86933 -1.30047 0
M  V30 26093 H 2366.35 3.23447 -1.87771 0
M  V30 26094 H 2368.65 6.3804 -2.27841 0
M  V30 26095 H 2369.59 6.00324 -3.75522 0
M  V30 26096 H 2370 5.19281 -2.21376 0
M  V30 26097 N 2369.39 1.09715 1.13139 0
M  V30 26098 C 2370.81 0.853914 1.66028 0
M  V30 26099 C 2371.16 -0.617109 1.86242 0
M  V30 26100 O 2370.28 -1.47501 1.58343 0
M  V30 26101 C 2370.88 1.54355 3.01596 0
M  V30 26102 C 2369.44 1.34721 3.51465 0
M  V30 26103 C 2368.58 1.59773 2.26645 0
M  V30 26104 H 2371.53 1.2559 0.970204 0
M  V30 26105 H 2371.55 0.978331 3.67708 0
M  V30 26106 H 2371.07 2.61415 2.86851 0
M  V30 26107 H 2369.17 0.297903 3.71407 0
M  V30 26108 H 2369.28 2.08408 4.31396 0
M  V30 26109 H 2367.64 1.02002 2.33383 0
M  V30 26110 H 2368.43 2.68069 2.14462 0
M  V30 26111 N 2370.87 -1.30419 0.88479 0
M  V30 26112 C 2372.1 -2.00845 0.517323 0
M  V30 26113 C 2372.52 -1.65887 -0.88675 0
M  V30 26114 O 2371.88 -0.875382 -1.58766 0
M  V30 26115 C 2371.93 -3.53759 0.699056 0
M  V30 26116 O 2371.03 -4.1161 -0.255136 0
M  V30 26117 H 2370.37 -0.631924 0.203883 0
M  V30 26118 H 2372.9 -1.6627 1.19228 0
M  V30 26119 H 2372.91 -4.03594 0.597983 0
M  V30 26120 H 2371.59 -3.78541 1.72277 0
M  V30 26121 H 2370.17 -3.72744 -0.107774 0
M  V30 26122 N 2372.35 -0.645724 -1.43764 0
M  V30 26123 C 2373.3 0.062444 -2.32516 0
M  V30 26124 C 2374.29 0.820829 -1.48185 0
M  V30 26125 O 2375.5 0.732077 -1.6444 0
M  V30 26126 H 2371.87 0.0389732 -0.750989 0
M  V30 26127 H 2373.84 -0.703943 -2.89978 0
M  V30 26128 C 2372.59 1.02038 -3.32391 0
M  V30 26129 H 2371.92 0.446242 -3.97302 0
M  V30 26130 H 2373.36 1.4851 -3.97141 0
M  V30 26131 C 2371.82 2.11276 -2.62419 0
M  V30 26132 O 2372.35 3.19556 -2.43406 0
M  V30 26133 N 2370.55 1.8762 -2.21917 0
M  V30 26134 H 2370.1 0.995661 -2.3758 0
M  V30 26135 H 2370.06 2.60907 -1.75428 0
M  V30 26136 N 2373.83 1.5277 -0.38717 0
M  V30 26137 C 2374.76 2.29307 0.440511 0
M  V30 26138 C 2375.74 1.32607 1.06533 0
M  V30 26139 O 2376.92 1.61499 1.0785 0
M  V30 26140 C 2374.05 3.09831 1.56914 0
M  V30 26141 C 2373.01 4.14397 1.07047 0
M  V30 26142 C 2372.33 4.83133 2.291 0
M  V30 26143 C 2373.63 5.22113 0.139923 0
M  V30 26144 H 2375.33 2.98744 -0.198079 0
M  V30 26145 H 2372.87 1.43675 -0.0967052 0
M  V30 26146 H 2374.83 3.62131 2.15497 0
M  V30 26147 H 2373.55 2.38123 2.23528 0
M  V30 26148 H 2372.21 3.63075 0.507183 0
M  V30 26149 H 2371.86 4.07975 2.94219 0
M  V30 26150 H 2371.56 5.53807 1.96396 0
M  V30 26151 H 2373.08 5.38236 2.8833 0
M  V30 26152 H 2374.5 5.69785 0.633878 0
M  V30 26153 H 2372.89 6.00021 -0.097254 0
M  V30 26154 H 2373.96 4.78056 -0.811795 0
M  V30 26155 N 2375.31 0.116931 1.57166 0
M  V30 26156 C 2376.58 -0.585016 1.86647 0
M  V30 26157 C 2376.96 -1.84947 1.01773 0
M  V30 26158 O 2376.31 -2.28298 0.096078 0
M  V30 26159 C 2376.52 -0.879447 3.37738 0
M  V30 26160 C 2377.87 -1.23341 4.06291 0
M  V30 26161 O 2378.89 -0.969775 3.42745 0
M  V30 26162 O 2377.75 -1.72811 5.18458 0
M  V30 26163 H 2374.85 -0.294994 0.772598 0
M  V30 26164 H 2377.39 0.151279 1.69024 0
M  V30 26165 H 2376.16 0.0166824 3.91296 0
M  V30 26166 H 2375.79 -1.67097 3.60783 0
M  V30 26167 N 2376.78 -1.56818 -0.156836 0
M  V30 26168 C 2378.01 -1.87319 -0.890298 0
M  V30 26169 C 2378.43 -0.704885 -1.74393 0
M  V30 26170 O 2377.79 0.345755 -1.77973 0
M  V30 26171 C 2377.84 -3.16339 -1.73096 0
M  V30 26172 O 2376.94 -2.99581 -2.83417 0
M  V30 26173 H 2376.29 -0.615723 -0.248559 0
M  V30 26174 H 2378.82 -2.04045 -0.150614 0
M  V30 26175 H 2378.83 -3.48111 -2.12797 0
M  V30 26176 H 2377.5 -4.00978 -1.10405 0
M  V30 26177 H 2376.08 -2.79194 -2.47194 0
M  V30 26178 N 2378.26 0.425871 -1.51737 0
M  V30 26179 C 2379.17 1.54272 -1.76741 0
M  V30 26180 C 2380.19 1.61317 -0.652138 0
M  V30 26181 O 2381.36 1.78345 -0.935686 0
M  V30 26182 C 2378.43 2.90159 -1.8976 0
M  V30 26183 C 2377.49 2.93137 -3.13638 0
M  V30 26184 C 2376.72 4.22542 -3.26027 0
M  V30 26185 O 2376.95 5.15541 -2.44076 0
M  V30 26186 O 2375.88 4.32038 -4.19078 0
M  V30 26187 H 2379.71 1.36084 -2.71505 0
M  V30 26188 H 2377.29 0.610045 -1.36377 0
M  V30 26189 H 2379.17 3.70784 -2.00242 0
M  V30 26190 H 2377.85 3.0845 -0.981839 0
M  V30 26191 H 2376.76 2.11425 -3.08626 0
M  V30 26192 H 2378.09 2.79792 -4.04941 0
M  V30 26193 N 2379.74 1.42077 0.682052 0
M  V30 26194 C 2380.99 1.42369 1.44426 0
M  V30 26195 C 2381.32 0.0373397 1.94164 0
M  V30 26196 O 2380.59 -0.93721 1.70431 0
M  V30 26197 C 2380.88 2.44198 2.64649 0
M  V30 26198 C 2380.73 3.91995 2.20589 0
M  V30 26199 C 2382.05 2.43107 3.66861 0
M  V30 26200 H 2379.17 0.518437 0.523825 0
M  V30 26201 H 2381.81 1.73443 0.77573 0
M  V30 26202 H 2379.96 2.17831 3.21686 0
M  V30 26203 H 2381.63 4.29316 1.68776 0
M  V30 26204 H 2379.88 4.06211 1.52235 0
M  V30 26205 H 2380.55 4.58812 3.06913 0
M  V30 26206 H 2383.02 2.66537 3.19526 0
M  V30 26207 H 2381.9 3.16347 4.48571 0
M  V30 26208 H 2382.16 1.45444 4.17491 0
M  V30 26209 N 2381.22 -0.917649 1.28129 0
M  V30 26210 C 2382.18 -2.00113 1.11747 0
M  V30 26211 C 2383.18 -1.60694 0.0583334 0
M  V30 26212 O 2384.37 -1.71531 0.303785 0
M  V30 26213 C 2381.5 -3.33532 0.704921 0
M  V30 26214 H 2382.7 -2.16076 2.0797 0
M  V30 26215 H 2380.25 -1.09979 1.1106 0
M  V30 26216 H 2380.99 -3.2327 -0.258242 0
M  V30 26217 H 2380.77 -3.63503 1.46997 0
M  V30 26218 H 2382.26 -4.13079 0.612841 0
M  V30 26219 N 2382.7 -1.10314 -1.12555 0
M  V30 26220 C 2383.94 -0.855934 -1.84514 0
M  V30 26221 C 2384.3 0.611904 -1.8241 0
M  V30 26222 O 2383.59 1.44533 -1.25781 0
M  V30 26223 C 2383.79 -1.33675 -3.3146 0
M  V30 26224 C 2383.61 -2.8498 -3.47874 0
M  V30 26225 C 2382.38 -3.52967 -3.61583 0
M  V30 26226 C 2384.58 -3.83087 -3.43145 0
M  V30 26227 N 2382.56 -4.92606 -3.6635 0
M  V30 26228 C 2383.94 -5.0873 -3.54392 0
M  V30 26229 C 2385.99 -3.75812 -3.26603 0
M  V30 26230 C 2384.69 -6.27956 -3.50804 0
M  V30 26231 C 2386.72 -4.94536 -3.24326 0
M  V30 26232 C 2386.08 -6.19027 -3.36133 0
M  V30 26233 H 2382.18 -0.366194 -0.69096 0
M  V30 26234 H 2384.76 -1.40527 -1.3476 0
M  V30 26235 H 2382.94 -0.814753 -3.79758 0
M  V30 26236 H 2384.67 -1.03392 -3.9127 0
M  V30 26237 H 2381.42 -3.03411 -3.63647 0
M  V30 26238 H 2381.85 -5.65373 -3.72401 0
M  V30 26239 H 2386.49 -2.80482 -3.1637 0
M  V30 26240 H 2384.21 -7.23577 -3.59808 0
M  V30 26241 H 2387.79 -4.90615 -3.1271 0
M  V30 26242 H 2386.67 -7.09354 -3.34345 0
M  V30 26243 N 2384.18 1.29948 -0.891694 0
M  V30 26244 C 2385.42 1.95493 -0.512521 0
M  V30 26245 C 2385.74 1.70697 0.942746 0
M  V30 26246 O 2385.01 1.03427 1.66372 0
M  V30 26247 H 2383.59 0.723332 -0.186546 0
M  V30 26248 H 2386.26 1.58353 -1.13624 0
M  V30 26249 H 2385.35 3.04413 -0.688395 0
M  V30 26250 N 2385.65 0.653339 1.4342 0
M  V30 26251 C 2386.6 -0.0381866 2.30768 0
M  V30 26252 C 2387.57 -0.814551 1.44756 0
M  V30 26253 O 2388.76 -0.791131 1.73625 0
M  V30 26254 C 2385.9 -0.998541 3.30338 0
M  V30 26255 C 2385.01 -0.218266 4.31448 0
M  V30 26256 C 2384.14 -1.17243 5.181 0
M  V30 26257 C 2383.18 -0.382595 6.10903 0
M  V30 26258 N 2382.32 -1.28836 6.90178 0
M  V30 26259 H 2387.16 0.712562 2.89355 0
M  V30 26260 H 2384.7 0.363153 1.42547 0
M  V30 26261 H 2386.65 -1.56894 3.86575 0
M  V30 26262 H 2385.28 -1.71616 2.734 0
M  V30 26263 H 2384.34 0.468427 3.77505 0
M  V30 26264 H 2385.65 0.395899 4.97226 0
M  V30 26265 H 2384.8 -1.81346 5.78963 0
M  V30 26266 H 2383.54 -1.8205 4.52448 0
M  V30 26267 H 2382.55 0.271787 5.49128 0
M  V30 26268 H 2383.77 0.261076 6.78598 0
M  V30 26269 H 2381.72 -1.92323 6.27175 0
M  V30 26270 H 2381.63 -0.728755 7.52479 0
M  V30 26271 H 2382.9 -1.91753 7.55547 0
M  V30 26272 N 2387.13 -1.52563 0.395266 0
M  V30 26273 C 2388.09 -2.25226 -0.424961 0
M  V30 26274 C 2389.09 -1.27081 -0.985244 0
M  V30 26275 O 2390.28 -1.51132 -0.866305 0
M  V30 26276 C 2387.42 -3.01189 -1.59681 0
M  V30 26277 H 2388.61 -2.99155 0.211285 0
M  V30 26278 H 2386.16 -1.55602 0.1475 0
M  V30 26279 H 2386.9 -2.31576 -2.27031 0
M  V30 26280 H 2386.68 -3.73231 -1.2017 0
M  V30 26281 H 2388.17 -3.56343 -2.17736 0
M  V30 26282 N 2388.61 -0.125265 -1.57101 0
M  V30 26283 C 2389.84 0.538761 -1.99762 0
M  V30 26284 C 2390.25 1.59825 -1.00506 0
M  V30 26285 O 2389.61 1.825 0.00116266 0
M  V30 26286 C 2389.66 1.15921 -3.4241 0
M  V30 26287 O 2389.38 0.142066 -4.3787 0
M  V30 26288 C 2390.88 1.90595 -4.00235 0
M  V30 26289 H 2388.1 0.142129 -0.655775 0
M  V30 26290 H 2390.65 -0.213449 -2.03383 0
M  V30 26291 H 2388.8 1.86217 -3.39709 0
M  V30 26292 H 2389.22 0.593683 -5.21129 0
M  V30 26293 H 2390.69 2.29326 -5.02109 0
M  V30 26294 H 2391.17 2.78357 -3.39726 0
M  V30 26295 H 2391.77 1.25048 -4.06501 0
M  V30 26296 N 2390.09 1.56899 0.148518 0
M  V30 26297 C 2391.02 1.94752 1.20849 0
M  V30 26298 C 2392.03 0.843176 1.39264 0
M  V30 26299 O 2393.22 1.12159 1.38862 0
M  V30 26300 C 2390.32 2.205 2.57358 0
M  V30 26301 C 2389.49 3.51781 2.59941 0
M  V30 26302 C 2388.55 3.66087 3.77977 0
M  V30 26303 O 2387.58 4.38494 3.62921 0
M  V30 26304 N 2388.78 3.02637 4.95369 0
M  V30 26305 H 2391.55 2.86281 0.886754 0
M  V30 26306 H 2389.11 1.5833 0.338094 0
M  V30 26307 H 2391.1 2.27313 3.34829 0
M  V30 26308 H 2389.67 1.35243 2.8183 0
M  V30 26309 H 2388.89 3.56422 1.68396 0
M  V30 26310 H 2390.18 4.38125 2.58696 0
M  V30 26311 H 2389.58 2.43724 5.10505 0
M  V30 26312 H 2388.13 3.15014 5.70622 0
M  V30 26313 N 2391.57 -0.417818 1.51961 0
M  V30 26314 C 2392.51 -1.50849 1.7468 0
M  V30 26315 C 2393.48 -1.55307 0.588974 0
M  V30 26316 O 2394.67 -1.72014 0.825575 0
M  V30 26317 C 2391.81 -2.88384 1.89549 0
M  V30 26318 C 2390.92 -2.93303 3.17171 0
M  V30 26319 C 2390.06 -4.22083 3.22521 0
M  V30 26320 C 2389.09 -4.20943 4.4438 0
M  V30 26321 N 2388.23 -5.41279 4.4717 0
M  V30 26322 H 2393.07 -1.30778 2.67771 0
M  V30 26323 H 2390.61 -0.634957 1.3269 0
M  V30 26324 H 2392.57 -3.68212 1.96152 0
M  V30 26325 H 2391.2 -3.06969 0.998478 0
M  V30 26326 H 2390.25 -2.06019 3.19782 0
M  V30 26327 H 2391.56 -2.88325 4.07026 0
M  V30 26328 H 2390.71 -5.10298 3.28148 0
M  V30 26329 H 2389.45 -4.29744 2.30589 0
M  V30 26330 H 2388.46 -3.31119 4.38908 0
M  V30 26331 H 2389.68 -4.14929 5.37597 0
M  V30 26332 H 2387.63 -5.49625 3.58117 0
M  V30 26333 H 2387.55 -5.38261 5.30859 0
M  V30 26334 H 2388.81 -6.31472 4.57016 0
M  V30 26335 N 2393.04 -1.42436 -0.674508 0
M  V30 26336 C 2393.95 -1.4834 -1.81748 0
M  V30 26337 C 2394.97 -0.372129 -1.69974 0
M  V30 26338 O 2396.15 -0.623074 -1.9152 0
M  V30 26339 C 2393.21 -1.38367 -3.17892 0
M  V30 26340 C 2392.27 -2.59988 -3.41621 0
M  V30 26341 C 2391.5 -2.50481 -4.71269 0
M  V30 26342 O 2391.73 -1.54084 -5.49194 0
M  V30 26343 O 2390.66 -3.40619 -4.96248 0
M  V30 26344 H 2394.49 -2.44813 -1.79723 0
M  V30 26345 H 2392.07 -1.24204 -0.83029 0
M  V30 26346 H 2393.95 -1.35168 -3.99133 0
M  V30 26347 H 2392.63 -0.450201 -3.20554 0
M  V30 26348 H 2391.54 -2.68762 -2.60227 0
M  V30 26349 H 2392.87 -3.52235 -3.43789 0
M  V30 26350 N 2394.52 0.910841 -1.28614 0
M  V30 26351 C 2395.77 1.65486 -1.15314 0
M  V30 26352 C 2396.08 1.93333 0.296965 0
M  V30 26353 O 2397.29 2.65848 0.551121 0
M  V30 26354 C 2395.75 2.98134 -2.01604 0
M  V30 26355 C 2395.35 2.77924 -3.51372 0
M  V30 26356 C 2397.1 3.76021 -1.96999 0
M  V30 26357 C 2395 4.0623 -4.29804 0
M  V30 26358 H 2393.93 0.620771 -0.427971 0
M  V30 26359 H 2396.59 1.01054 -1.53167 0
M  V30 26360 H 2394.97 3.63716 -1.56609 0
M  V30 26361 H 2396.14 2.21003 -4.04344 0
M  V30 26362 H 2394.46 2.13446 -3.57533 0
M  V30 26363 H 2397.05 4.7113 -2.52864 0
M  V30 26364 H 2397.4 4.05376 -0.947401 0
M  V30 26365 H 2397.93 3.17262 -2.39979 0
M  V30 26366 H 2394.67 3.82046 -5.32655 0
M  V30 26367 H 2394.19 4.62751 -3.81604 0
M  V30 26368 H 2395.87 4.74465 -4.39877 0
M  V30 26369 N 2396 1.10909 1.11969 0
M  V30 26370 C 2396.91 0.774935 2.21432 0
M  V30 26371 C 2397.93 -0.229627 1.72478 0
M  V30 26372 O 2399.1 -0.0671654 2.01288 0
M  V30 26373 C 2396.17 0.217047 3.4602 0
M  V30 26374 C 2395.23 1.27951 4.09789 0
M  V30 26375 C 2394.46 0.748148 5.2843 0
M  V30 26376 O 2394.68 -0.423733 5.68824 0
M  V30 26377 O 2393.62 1.51037 5.82642 0
M  V30 26378 H 2397.44 1.68877 2.52417 0
M  V30 26379 H 2395.03 0.884576 1.20398 0
M  V30 26380 H 2396.91 -0.089985 4.21304 0
M  V30 26381 H 2395.59 -0.669577 3.16699 0
M  V30 26382 H 2394.49 1.63947 3.36262 0
M  V30 26383 H 2395.83 2.13932 4.43276 0
M  V30 26384 N 2397.48 -1.29474 0.898573 0
M  V30 26385 C 2398.43 -2.27752 0.373859 0
M  V30 26386 C 2399.4 -1.56959 -0.543417 0
M  V30 26387 O 2400.58 -1.84949 -0.468902 0
M  V30 26388 C 2397.72 -3.42848 -0.393588 0
M  V30 26389 C 2396.83 -4.28427 0.554454 0
M  V30 26390 C 2395.97 -5.30702 -0.229933 0
M  V30 26391 C 2395.01 -6.07937 0.712706 0
M  V30 26392 N 2394.14 -7.0209 -0.0372049 0
M  V30 26393 H 2398.98 -2.72015 1.21703 0
M  V30 26394 H 2396.52 -1.33788 0.611479 0
M  V30 26395 H 2398.48 -4.08354 -0.854588 0
M  V30 26396 H 2397.11 -2.99617 -1.20122 0
M  V30 26397 H 2396.16 -3.63105 1.13397 0
M  V30 26398 H 2397.47 -4.82202 1.27605 0
M  V30 26399 H 2396.63 -6.02019 -0.752182 0
M  V30 26400 H 2395.37 -4.77656 -0.984674 0
M  V30 26401 H 2394.37 -5.35484 1.24646 0
M  V30 26402 H 2395.6 -6.63071 1.46676 0
M  V30 26403 H 2393.54 -6.51415 -0.774233 0
M  V30 26404 H 2393.46 -7.53416 0.624506 0
M  V30 26405 H 2394.73 -7.77629 -0.539754 0
M  V30 26406 N 2398.96 -0.660936 -1.43071 0
M  V30 26407 C 2399.89 0.0647239 -2.29109 0
M  V30 26408 C 2400.9 0.779423 -1.4293 0
M  V30 26409 O 2402.09 0.635892 -1.66789 0
M  V30 26410 C 2399.19 1.11498 -3.20034 0
M  V30 26411 C 2398.36 0.476878 -4.34793 0
M  V30 26412 C 2397.42 1.42504 -5.06536 0
M  V30 26413 O 2396.45 0.930672 -5.6154 0
M  V30 26414 N 2397.65 2.7588 -5.10755 0
M  V30 26415 H 2400.42 -0.673782 -2.92028 0
M  V30 26416 H 2397.98 -0.504297 -1.53846 0
M  V30 26417 H 2399.97 1.75025 -3.64895 0
M  V30 26418 H 2398.54 1.75537 -2.58661 0
M  V30 26419 H 2397.76 -0.337641 -3.92751 0
M  V30 26420 H 2399.05 0.0317631 -5.0879 0
M  V30 26421 H 2398.44 3.18597 -4.67453 0
M  V30 26422 H 2397 3.3469 -5.59308 0
M  V30 26423 N 2400.43 1.52351 -0.403352 0
M  V30 26424 C 2401.38 2.26854 0.424972 0
M  V30 26425 C 2402.35 1.29031 1.04596 0
M  V30 26426 O 2403.54 1.57884 1.07132 0
M  V30 26427 C 2400.68 3.08892 1.53882 0
M  V30 26428 C 2399.79 4.21664 0.939322 0
M  V30 26429 C 2398.92 4.91072 2.02539 0
M  V30 26430 C 2397.96 5.95815 1.40252 0
M  V30 26431 N 2397.1 6.58763 2.42849 0
M  V30 26432 H 2401.94 2.9721 -0.216793 0
M  V30 26433 H 2399.48 1.4662 -0.118747 0
M  V30 26434 H 2401.44 3.54757 2.19552 0
M  V30 26435 H 2400.07 2.40717 2.1507 0
M  V30 26436 H 2399.12 3.80012 0.171831 0
M  V30 26437 H 2400.43 4.96818 0.444273 0
M  V30 26438 H 2399.58 5.40312 2.75948 0
M  V30 26439 H 2398.32 4.15473 2.55408 0
M  V30 26440 H 2397.33 5.459 0.653737 0
M  V30 26441 H 2398.55 6.73353 0.881601 0
M  V30 26442 H 2396.5 5.85998 2.94861 0
M  V30 26443 H 2396.42 7.29573 1.98139 0
M  V30 26444 H 2397.68 7.12644 3.15845 0
M  V30 26445 N 2401.91 0.133594 1.57033 0
M  V30 26446 C 2403.16 -0.521614 1.95977 0
M  V30 26447 C 2403.49 -1.65391 1.01782 0
M  V30 26448 O 2402.77 -1.94414 0.0576923 0
M  V30 26449 C 2403.05 -1.04051 3.4474 0
M  V30 26450 C 2402.9 0.0893688 4.49711 0
M  V30 26451 C 2404.22 -1.92668 3.95686 0
M  V30 26452 H 2401.34 -0.188136 0.712582 0
M  V30 26453 H 2403.98 0.21211 1.88812 0
M  V30 26454 H 2402.13 -1.66577 3.50976 0
M  V30 26455 H 2403.8 0.725232 4.55563 0
M  V30 26456 H 2402.05 0.750453 4.27259 0
M  V30 26457 H 2402.72 -0.315187 5.51099 0
M  V30 26458 H 2405.19 -1.39991 3.91844 0
M  V30 26459 H 2404.07 -2.25888 5.00266 0
M  V30 26460 H 2404.33 -2.85866 3.37244 0
M  V30 26461 N 2403.39 -1.56975 -0.140195 0
M  V30 26462 C 2404.34 -1.95196 -1.17824 0
M  V30 26463 C 2405.32 -0.8241 -1.38193 0
M  V30 26464 O 2406.52 -1.08762 -1.39641 0
M  V30 26465 C 2403.65 -2.34188 -2.5102 0
M  V30 26466 C 2402.73 -3.5356 -2.34214 0
M  V30 26467 N 2403.12 -4.69892 -1.87176 0
M  V30 26468 C 2401.42 -3.58778 -2.64943 0
M  V30 26469 C 2402.12 -5.51973 -1.83576 0
M  V30 26470 N 2401.1 -4.9387 -2.27141 0
M  V30 26471 H 2404.9 -2.8261 -0.806767 0
M  V30 26472 H 2402.41 -1.58624 -0.34818 0
M  V30 26473 H 2404.41 -2.59778 -3.26069 0
M  V30 26474 H 2403.07 -1.48129 -2.88943 0
M  V30 26475 H 2404.08 -4.93517 -1.5704 0
M  V30 26476 H 2400.76 -2.83275 -3.06695 0
M  V30 26477 H 2402.15 -6.55252 -1.48643 0
M  V30 26478 N 2404.87 0.409753 -1.5218 0
M  V30 26479 C 2405.8 1.50606 -1.78438 0
M  V30 26480 C 2406.78 1.5779 -0.635323 0
M  V30 26481 O 2407.96 1.73074 -0.880853 0
M  V30 26482 C 2405.09 2.88435 -1.93449 0
M  V30 26483 C 2404.05 2.96102 -3.09043 0
M  V30 26484 C 2403.37 4.36179 -3.09276 0
M  V30 26485 C 2404.67 2.67645 -4.48513 0
M  V30 26486 H 2406.37 1.28884 -2.70239 0
M  V30 26487 H 2403.91 0.618582 -1.30037 0
M  V30 26488 H 2405.87 3.65116 -2.10401 0
M  V30 26489 H 2404.59 3.1145 -0.983184 0
M  V30 26490 H 2403.25 2.21866 -2.9184 0
M  V30 26491 H 2402.9 4.56202 -2.11869 0
M  V30 26492 H 2402.6 4.42234 -3.86915 0
M  V30 26493 H 2404.12 5.14795 -3.28357 0
M  V30 26494 H 2405.54 3.34048 -4.65924 0
M  V30 26495 H 2403.93 2.85076 -5.28064 0
M  V30 26496 H 2405 1.63087 -4.56652 0
M  V30 26497 N 2406.35 1.42792 0.666944 0
M  V30 26498 C 2407.29 1.46883 1.78028 0
M  V30 26499 C 2408.26 0.319948 1.62989 0
M  V30 26500 O 2409.45 0.52515 1.83431 0
M  V30 26501 C 2406.59 1.38457 3.16107 0
M  V30 26502 C 2405.7 2.63443 3.42377 0
M  V30 26503 C 2404.84 2.47102 4.70227 0
M  V30 26504 C 2403.88 3.67424 4.89557 0
M  V30 26505 N 2403.01 3.49977 6.08655 0
M  V30 26506 H 2407.85 2.42022 1.73866 0
M  V30 26507 H 2405.39 1.20151 0.848659 0
M  V30 26508 H 2407.35 1.31568 3.95911 0
M  V30 26509 H 2405.98 0.469089 3.19373 0
M  V30 26510 H 2405.03 2.80667 2.56769 0
M  V30 26511 H 2406.34 3.52859 3.52551 0
M  V30 26512 H 2405.5 2.37843 5.58136 0
M  V30 26513 H 2404.23 1.55188 4.6235 0
M  V30 26514 H 2403.24 3.77106 4.00089 0
M  V30 26515 H 2404.46 4.60328 4.99274 0
M  V30 26516 H 2402.41 2.60787 6.01935 0
M  V30 26517 H 2402.33 4.32986 6.19725 0
M  V30 26518 H 2403.6 3.44545 6.9922 0
M  V30 26519 N 2407.82 -0.904008 1.29095 0
M  V30 26520 C 2409.05 -1.69292 1.19812 0
M  V30 26521 C 2409.47 -1.86583 -0.238448 0
M  V30 26522 O 2408.83 -1.38302 -1.17227 0
M  V30 26523 C 2408.88 -3.05732 1.91207 0
M  V30 26524 O 2407.98 -3.9375 1.22618 0
M  V30 26525 H 2407.33 -0.518019 0.415394 0
M  V30 26526 H 2409.86 -1.12964 1.70588 0
M  V30 26527 H 2409.87 -3.55902 1.99494 0
M  V30 26528 H 2408.54 -2.92466 2.95697 0
M  V30 26529 H 2407.12 -3.52184 1.2256 0
M  V30 26530 N 2409.3 -1.11501 -1.11379 0
M  V30 26531 C 2410.55 -0.859025 -1.82493 0
M  V30 26532 C 2410.86 0.617245 -1.85606 0
M  V30 26533 O 2412.07 0.989507 -2.52826 0
M  V30 26534 C 2410.53 -1.48705 -3.27742 0
M  V30 26535 C 2410.13 -2.9974 -3.32956 0
M  V30 26536 C 2411.88 -1.31092 -4.03751 0
M  V30 26537 C 2409.79 -3.55524 -4.72606 0
M  V30 26538 H 2408.72 -0.317708 -0.683797 0
M  V30 26539 H 2411.37 -1.34033 -1.25329 0
M  V30 26540 H 2409.75 -0.933407 -3.84842 0
M  V30 26541 H 2410.92 -3.61514 -2.85734 0
M  V30 26542 H 2409.24 -3.16636 -2.70427 0
M  V30 26543 H 2411.83 -1.70201 -5.06888 0
M  V30 26544 H 2412.18 -0.253569 -4.15527 0
M  V30 26545 H 2412.71 -1.83324 -3.5304 0
M  V30 26546 H 2409.45 -4.60975 -4.66028 0
M  V30 26547 H 2408.97 -2.98522 -5.20235 0
M  V30 26548 H 2410.65 -3.54002 -5.41564 0
M  V30 26549 N 2410.78 1.28995 -0.905426 0
M  V30 26550 C 2412.01 1.99459 -0.549881 0
M  V30 26551 C 2412.42 1.67726 0.866804 0
M  V30 26552 O 2411.78 0.925432 1.57296 0
M  V30 26553 C 2411.83 3.53856 -0.739449 0
M  V30 26554 O 2411.55 3.84468 -2.10038 0
M  V30 26555 C 2413.05 4.41584 -0.389619 0
M  V30 26556 H 2410.27 0.637147 -0.21044 0
M  V30 26557 H 2412.82 1.64394 -1.21635 0
M  V30 26558 H 2410.97 3.87214 -0.120091 0
M  V30 26559 H 2411.39 4.79128 -2.13393 0
M  V30 26560 H 2412.86 5.49017 -0.573068 0
M  V30 26561 H 2413.34 4.34003 0.67368 0
M  V30 26562 H 2413.94 4.13709 -0.986162 0
M  V30 26563 N 2412.26 0.668514 1.42719 0
M  V30 26564 C 2413.17 -0.013934 2.34596 0
M  V30 26565 C 2414.19 -0.795675 1.54742 0
M  V30 26566 O 2415.36 -0.739433 1.87335 0
M  V30 26567 C 2412.43 -0.957924 3.33204 0
M  V30 26568 C 2411.49 -0.171415 4.28958 0
M  V30 26569 C 2410.72 -1.07044 5.22855 0
M  V30 26570 O 2410.94 -2.30991 5.21535 0
M  V30 26571 O 2409.88 -0.534621 5.99521 0
M  V30 26572 H 2413.7 0.742713 2.94478 0
M  V30 26573 H 2411.29 0.428731 1.43116 0
M  V30 26574 H 2413.17 -1.50001 3.93799 0
M  V30 26575 H 2411.85 -1.69453 2.75803 0
M  V30 26576 H 2410.75 0.414624 3.71795 0
M  V30 26577 H 2412.09 0.525946 4.89382 0
M  V30 26578 N 2413.74 -1.52135 0.411426 0
M  V30 26579 C 2414.98 -2.02137 -0.163852 0
M  V30 26580 C 2415.32 -1.29638 -1.44595 0
M  V30 26581 O 2414.59 -0.403387 -1.90271 0
M  V30 26582 C 2414.87 -3.57767 -0.409208 0
M  V30 26583 C 2414.73 -4.40913 0.889721 0
M  V30 26584 C 2416.05 -4.23697 -1.19035 0
M  V30 26585 H 2413.17 -0.734708 -0.0580766 0
M  V30 26586 H 2415.81 -1.82006 0.545342 0
M  V30 26587 H 2413.96 -3.75052 -1.01333 0
M  V30 26588 H 2415.63 -4.35334 1.52583 0
M  V30 26589 H 2413.87 -4.07034 1.50018 0
M  V30 26590 H 2414.54 -5.47889 0.672411 0
M  V30 26591 H 2417.02 -4.10525 -0.67887 0
M  V30 26592 H 2415.9 -5.32524 -1.33077 0
M  V30 26593 H 2416.16 -3.82807 -2.21159 0
M  V30 26594 N 2415.22 -0.14192 -1.5696 0
M  V30 26595 C 2416.46 0.509449 -1.95574 0
M  V30 26596 C 2416.78 1.65734 -1.02749 0
M  V30 26597 O 2416.05 1.95702 -0.0880655 0
M  V30 26598 H 2414.63 0.191192 -0.722118 0
M  V30 26599 H 2417.3 -0.21623 -1.93697 0
M  V30 26600 H 2416.39 0.888948 -2.99172 0
M  V30 26601 N 2416.69 1.57047 0.131868 0
M  V30 26602 C 2417.6 2.02678 1.18147 0
M  V30 26603 C 2418.62 0.94485 1.46112 0
M  V30 26604 O 2419.8 1.25544 1.57483 0
M  V30 26605 C 2416.86 2.41107 2.49135 0
M  V30 26606 C 2415.92 3.63322 2.28682 0
M  V30 26607 C 2415.15 3.99909 3.53424 0
M  V30 26608 O 2415.38 3.36981 4.60217 0
M  V30 26609 O 2414.31 4.9308 3.45189 0
M  V30 26610 H 2418.14 2.92307 0.824017 0
M  V30 26611 H 2415.72 1.45439 0.341719 0
M  V30 26612 H 2417.6 2.66617 3.26333 0
M  V30 26613 H 2416.28 1.54629 2.84379 0
M  V30 26614 H 2415.19 3.4298 1.49384 0
M  V30 26615 H 2416.52 4.50466 1.98347 0
M  V30 26616 N 2418.17 -0.401677 1.52395 0
M  V30 26617 C 2419.13 -1.47254 1.75639 0
M  V30 26618 C 2420.13 -1.48101 0.626306 0
M  V30 26619 O 2421.32 -1.49495 0.894253 0
M  V30 26620 C 2418.46 -2.8662 1.84558 0
M  V30 26621 H 2419.65 -1.27933 2.71244 0
M  V30 26622 H 2417.2 -0.632637 1.42924 0
M  V30 26623 H 2417.94 -3.11302 0.908937 0
M  V30 26624 H 2417.72 -2.87407 2.6672 0
M  V30 26625 H 2419.21 -3.64237 2.04257 0
M  V30 26626 N 2419.65 -1.43144 -0.659362 0
M  V30 26627 C 2420.58 -1.50628 -1.78419 0
M  V30 26628 C 2421.56 -0.361472 -1.66215 0
M  V30 26629 O 2422.75 -0.577866 -1.85403 0
M  V30 26630 C 2419.88 -1.42293 -3.16812 0
M  V30 26631 C 2418.83 -2.5496 -3.43772 0
M  V30 26632 C 2418.16 -2.31679 -4.81901 0
M  V30 26633 C 2419.46 -3.97228 -3.39127 0
M  V30 26634 H 2421.15 -2.44774 -1.72413 0
M  V30 26635 H 2418.7 -1.1781 -0.828063 0
M  V30 26636 H 2420.65 -1.46134 -3.9525 0
M  V30 26637 H 2419.37 -0.446492 -3.23534 0
M  V30 26638 H 2418.03 -2.50462 -2.67702 0
M  V30 26639 H 2417.68 -1.32293 -4.85291 0
M  V30 26640 H 2417.38 -3.072 -5.00901 0
M  V30 26641 H 2418.9 -2.37294 -5.62604 0
M  V30 26642 H 2420.32 -4.03247 -4.07511 0
M  V30 26643 H 2418.71 -4.72725 -3.69663 0
M  V30 26644 H 2419.78 -4.22801 -2.37418 0
M  V30 26645 N 2421.13 0.897149 -1.29572 0
M  V30 26646 C 2422.07 2.00156 -1.14919 0
M  V30 26647 C 2423.04 1.66047 -0.0418441 0
M  V30 26648 O 2424.23 1.89643 -0.209826 0
M  V30 26649 C 2421.37 3.34862 -0.834366 0
M  V30 26650 C 2420.48 3.81737 -2.0224 0
M  V30 26651 C 2419.62 5.05031 -1.64673 0
M  V30 26652 C 2418.66 5.44282 -2.80043 0
M  V30 26653 N 2417.79 6.58761 -2.42854 0
M  V30 26654 H 2422.63 2.12021 -2.09407 0
M  V30 26655 H 2420.17 1.03828 -1.04202 0
M  V30 26656 H 2422.13 4.12377 -0.632508 0
M  V30 26657 H 2420.76 3.22716 0.0736089 0
M  V30 26658 H 2419.81 3.00234 -2.33589 0
M  V30 26659 H 2421.12 4.06774 -2.8868 0
M  V30 26660 H 2420.28 5.90138 -1.40791 0
M  V30 26661 H 2419.02 4.81839 -0.75385 0
M  V30 26662 H 2418.02 4.57707 -3.04605 0
M  V30 26663 H 2419.25 5.69454 -3.69999 0
M  V30 26664 H 2417.19 6.37167 -1.56057 0
M  V30 26665 H 2417.11 6.83607 -3.22827 0
M  V30 26666 H 2418.38 7.4713 -2.22298 0
M  V30 26667 N 2422.61 1.1209 1.10786 0
M  V30 26668 C 2423.83 0.896684 1.8646 0
M  V30 26669 C 2424.25 -0.55388 1.80493 0
M  V30 26670 O 2423.61 -1.38276 1.19105 0
M  V30 26671 C 2423.66 1.35849 3.35004 0
M  V30 26672 O 2423.38 2.75219 3.40861 0
M  V30 26673 C 2424.88 1.17067 4.27563 0
M  V30 26674 H 2422.1 0.320664 0.58942 0
M  V30 26675 H 2424.64 1.48995 1.40074 0
M  V30 26676 H 2422.8 0.808525 3.78869 0
M  V30 26677 H 2423.21 2.95397 4.33406 0
M  V30 26678 H 2424.69 1.54272 5.30004 0
M  V30 26679 H 2425.16 0.110891 4.3906 0
M  V30 26680 H 2425.77 1.70796 3.89498 0
M  V30 26681 N 2424.08 -1.28513 0.912254 0
M  V30 26682 C 2425.33 -1.95327 0.54544 0
M  V30 26683 C 2425.66 -1.7165 -0.908283 0
M  V30 26684 O 2424.94 -1.03662 -1.64573 0
M  V30 26685 C 2425.22 -3.49838 0.853544 0
M  V30 26686 C 2425.07 -3.82922 2.35989 0
M  V30 26687 C 2426.39 -4.38717 0.348666 0
M  V30 26688 H 2423.51 -0.709446 0.199639 0
M  V30 26689 H 2426.15 -1.51908 1.14123 0
M  V30 26690 H 2424.3 -3.86952 0.346498 0
M  V30 26691 H 2425.98 -3.55686 2.93744 0
M  V30 26692 H 2424.22 -3.30019 2.81549 0
M  V30 26693 H 2424.89 -4.90812 2.52602 0
M  V30 26694 H 2427.37 -4.08666 0.783012 0
M  V30 26695 H 2426.24 -5.45684 0.593338 0
M  V30 26696 H 2426.5 -4.35675 -0.750973 0
M  V30 26697 N 2425.56 -0.676073 -1.42362 0
M  V30 26698 C 2426.49 -0.0125243 -2.33497 0
M  V30 26699 C 2427.47 0.787954 -1.50749 0
M  V30 26700 O 2428.66 0.744852 -1.79348 0
M  V30 26701 C 2425.79 0.938523 -3.34379 0
M  V30 26702 C 2424.74 0.246547 -4.27289 0
M  V30 26703 C 2424.07 1.31062 -5.18389 0
M  V30 26704 C 2425.37 -0.875215 -5.14915 0
M  V30 26705 H 2427.06 -0.773644 -2.89232 0
M  V30 26706 H 2424.61 -0.373484 -1.39072 0
M  V30 26707 H 2426.56 1.41181 -3.97046 0
M  V30 26708 H 2425.29 1.73108 -2.7695 0
M  V30 26709 H 2423.94 -0.20652 -3.66018 0
M  V30 26710 H 2423.59 2.0952 -4.57286 0
M  V30 26711 H 2423.29 0.852737 -5.8138 0
M  V30 26712 H 2424.82 1.78481 -5.83932 0
M  V30 26713 H 2426.23 -0.483084 -5.71261 0
M  V30 26714 H 2424.63 -1.25897 -5.86745 0
M  V30 26715 H 2425.7 -1.72343 -4.53239 0
M  V30 26716 N 2427.04 1.51915 -0.419488 0
M  V30 26717 C 2428.29 2.01523 0.152602 0
M  V30 26718 C 2428.61 1.30651 1.44759 0
M  V30 26719 O 2427.88 0.435569 1.90996 0
M  V30 26720 H 2426.46 0.744636 0.0593835 0
M  V30 26721 H 2429.12 1.86738 -0.558105 0
M  V30 26722 H 2428.22 3.10228 0.341315 0
M  V30 26723 N 2428.52 0.150242 1.56882 0
M  V30 26724 C 2429.47 -0.788206 2.16924 0
M  V30 26725 C 2430.44 -1.24185 1.10305 0
M  V30 26726 O 2431.62 -1.3138 1.38361 0
M  V30 26727 C 2428.76 -2.02064 2.79758 0
M  V30 26728 C 2427.87 -1.6125 4.00777 0
M  V30 26729 C 2427.01 -2.79697 4.516 0
M  V30 26730 C 2426.05 -2.35272 5.65078 0
M  V30 26731 N 2425.18 -3.46739 6.10505 0
M  V30 26732 H 2430.02 -0.269392 2.9678 0
M  V30 26733 H 2427.56 -0.121254 1.46599 0
M  V30 26734 H 2429.52 -2.74318 3.14334 0
M  V30 26735 H 2428.15 -2.51351 2.02541 0
M  V30 26736 H 2427.2 -0.787488 3.7216 0
M  V30 26737 H 2428.51 -1.24624 4.82981 0
M  V30 26738 H 2427.67 -3.60136 4.88248 0
M  V30 26739 H 2426.41 -3.19569 3.68411 0
M  V30 26740 H 2425.41 -1.53273 5.28003 0
M  V30 26741 H 2426.64 -1.96482 6.50055 0
M  V30 26742 H 2424.58 -3.86226 5.3025 0
M  V30 26743 H 2424.5 -3.14139 6.87643 0
M  V30 26744 H 2425.77 -4.27526 6.51799 0
M  V30 26745 N 2430 -1.57115 -0.123538 0
M  V30 26746 C 2430.94 -2.00009 -1.15174 0
M  V30 26747 C 2431.91 -0.871479 -1.41402 0
M  V30 26748 O 2433.1 -1.13536 -1.53344 0
M  V30 26749 C 2430.24 -2.40565 -2.47431 0
M  V30 26750 C 2429.35 -3.66823 -2.28178 0
M  V30 26751 C 2428.49 -3.96379 -3.53634 0
M  V30 26752 C 2427.53 -5.15833 -3.29519 0
M  V30 26753 N 2426.66 -5.41283 -4.47166 0
M  V30 26754 H 2431.5 -2.87639 -0.778957 0
M  V30 26755 H 2429.04 -1.42289 -0.373141 0
M  V30 26756 H 2431 -2.62115 -3.24579 0
M  V30 26757 H 2429.63 -1.55983 -2.82611 0
M  V30 26758 H 2428.68 -3.52915 -1.41969 0
M  V30 26759 H 2429.99 -4.54124 -2.06332 0
M  V30 26760 H 2429.15 -4.18553 -4.39202 0
M  V30 26761 H 2427.88 -3.07545 -3.78507 0
M  V30 26762 H 2426.89 -4.93509 -2.42341 0
M  V30 26763 H 2428.11 -6.06241 -3.06021 0
M  V30 26764 H 2426.06 -4.55405 -4.72167 0
M  V30 26765 H 2425.98 -6.22899 -4.28408 0
M  V30 26766 H 2427.25 -5.67972 -5.3388 0
M  V30 26767 N 2431.47 0.393589 -1.52606 0
M  V30 26768 C 2432.38 1.50489 -1.79973 0
M  V30 26769 C 2433.4 1.59897 -0.686209 0
M  V30 26770 O 2434.58 1.7632 -0.973305 0
M  V30 26771 C 2431.64 2.86068 -1.95872 0
M  V30 26772 C 2430.7 2.86419 -3.19786 0
M  V30 26773 C 2429.94 4.15532 -3.34916 0
M  V30 26774 O 2430.16 5.10248 -2.54957 0
M  V30 26775 O 2429.09 4.23052 -4.28148 0
M  V30 26776 H 2432.92 1.30294 -2.7433 0
M  V30 26777 H 2430.5 0.58098 -1.37641 0
M  V30 26778 H 2432.39 3.66453 -2.08062 0
M  V30 26779 H 2431.06 3.06298 -1.04704 0
M  V30 26780 H 2429.97 2.04831 -3.13041 0
M  V30 26781 H 2431.3 2.7114 -4.10784 0
M  V30 26782 N 2432.95 1.43492 0.651762 0
M  V30 26783 C 2434.18 1.48629 1.43934 0
M  V30 26784 C 2434.6 0.10462 1.8851 0
M  V30 26785 O 2433.95 -0.885436 1.59582 0
M  V30 26786 C 2434 2.43339 2.67336 0
M  V30 26787 O 2433.72 3.76132 2.24624 0
M  V30 26788 C 2435.23 2.57732 3.60679 0
M  V30 26789 H 2432.45 0.504747 0.442121 0
M  V30 26790 H 2434.99 1.88249 0.798911 0
M  V30 26791 H 2433.14 2.0691 3.27516 0
M  V30 26792 H 2433.56 4.27076 3.04477 0
M  V30 26793 H 2435.03 3.28074 4.43927 0
M  V30 26794 H 2435.51 1.62272 4.08123 0
M  V30 26795 H 2436.12 2.94978 3.06379 0
M  V30 26796 N 2434.43 -0.890264 1.30046 0
M  V30 26797 C 2435.36 -2.0117 1.18545 0
M  V30 26798 C 2436.34 -1.69924 0.0773655 0
M  V30 26799 O 2437.53 -1.92472 0.258484 0
M  V30 26800 C 2434.66 -3.36201 0.871 0
M  V30 26801 C 2433.61 -3.81688 1.93644 0
M  V30 26802 C 2432.94 -5.1395 1.47509 0
M  V30 26803 C 2434.24 -4.00988 3.34673 0
M  V30 26804 H 2435.93 -2.1105 2.12363 0
M  V30 26805 H 2433.48 -1.01405 1.0224 0
M  V30 26806 H 2435.43 -4.14171 0.777214 0
M  V30 26807 H 2434.15 -3.26438 -0.102868 0
M  V30 26808 H 2432.81 -3.05943 2.01977 0
M  V30 26809 H 2432.46 -5.00611 0.489639 0
M  V30 26810 H 2432.16 -5.45356 2.1877 0
M  V30 26811 H 2433.68 -5.94451 1.39499 0
M  V30 26812 H 2435.1 -4.69412 3.29128 0
M  V30 26813 H 2433.5 -4.43762 4.03974 0
M  V30 26814 H 2434.57 -3.05014 3.76954 0
M  V30 26815 N 2435.91 -1.12676 -1.1019 0
M  V30 26816 C 2437.15 -0.884947 -1.82473 0
M  V30 26817 C 2437.49 0.587698 -1.85094 0
M  V30 26818 O 2436.76 1.43455 -1.31343 0
M  V30 26819 C 2437.05 -1.46359 -3.29015 0
M  V30 26820 C 2436.9 -3.00479 -3.34713 0
M  V30 26821 C 2438.22 -1.12526 -4.25471 0
M  V30 26822 H 2435.34 -0.322926 -0.662486 0
M  V30 26823 H 2437.98 -1.39378 -1.29127 0
M  V30 26824 H 2436.13 -1.03084 -3.74574 0
M  V30 26825 H 2437.8 -3.52452 -2.97616 0
M  V30 26826 H 2436.04 -3.35877 -2.74535 0
M  V30 26827 H 2436.71 -3.36061 -4.37912 0
M  V30 26828 H 2439.19 -1.49907 -3.88159 0
M  V30 26829 H 2438.07 -1.55672 -5.26362 0
M  V30 26830 H 2438.33 -0.0378184 -4.42084 0
M  V30 26831 N 2437.39 1.28028 -0.919057 0
M  V30 26832 C 2438.3 2.30868 -0.416796 0
M  V30 26833 C 2439.31 1.66715 0.498206 0
M  V30 26834 O 2440.49 1.97723 0.383109 0
M  V30 26835 C 2437.55 3.45124 0.330213 0
M  V30 26836 C 2436.61 4.24819 -0.618652 0
M  V30 26837 C 2435.85 5.33619 0.0928021 0
M  V30 26838 O 2436.07 5.55067 1.31365 0
M  V30 26839 O 2435 5.99151 -0.574604 0
M  V30 26840 H 2438.83 2.75849 -1.27048 0
M  V30 26841 H 2436.42 1.32819 -0.684075 0
M  V30 26842 H 2438.3 4.14638 0.751899 0
M  V30 26843 H 2436.97 3.02215 1.15964 0
M  V30 26844 H 2435.88 3.57873 -1.08984 0
M  V30 26845 H 2437.21 4.7142 -1.41505 0
M  V30 26846 N 2438.86 0.683613 1.42002 0
M  V30 26847 C 2440.14 0.13811 1.95112 0
M  V30 26848 C 2440.52 -1.34915 1.62361 0
M  V30 26849 O 2439.87 -2.08969 0.924348 0
M  V30 26850 C 2440.08 0.416642 3.46504 0
M  V30 26851 C 2441.43 0.337908 4.23253 0
M  V30 26852 O 2442.45 0.350882 3.54468 0
M  V30 26853 O 2441.31 0.287692 5.45742 0
M  V30 26854 H 2438.4 0.0079945 0.826961 0
M  V30 26855 H 2440.95 0.758951 1.51783 0
M  V30 26856 H 2439.72 1.44657 3.6358 0
M  V30 26857 H 2439.35 -0.23577 3.969 0
M  V30 26858 N 2440.34 -1.5169 0.427538 0
M  V30 26859 C 2441.29 -2.27501 -0.388827 0
M  V30 26860 C 2442.26 -1.30679 -1.0253 0
M  V30 26861 O 2443.45 -1.59568 -1.04607 0
M  V30 26862 C 2440.59 -3.11301 -1.48949 0
M  V30 26863 C 2439.7 -4.23105 -0.87212 0
M  V30 26864 C 2438.83 -4.94232 -1.94701 0
M  V30 26865 C 2437.87 -5.97971 -1.30755 0
M  V30 26866 N 2437.01 -6.62543 -2.32338 0
M  V30 26867 H 2441.85 -2.96828 0.264049 0
M  V30 26868 H 2439.39 -1.46412 0.142058 0
M  V30 26869 H 2441.34 -3.58205 -2.13881 0
M  V30 26870 H 2439.97 -2.44108 -2.11213 0
M  V30 26871 H 2439.03 -3.80237 -0.111352 0
M  V30 26872 H 2440.34 -4.97461 -0.365177 0
M  V30 26873 H 2439.49 -5.44634 -2.67317 0
M  V30 26874 H 2438.23 -4.19484 -2.48766 0
M  V30 26875 H 2437.24 -5.46871 -0.566806 0
M  V30 26876 H 2438.46 -6.74671 -0.774365 0
M  V30 26877 H 2436.41 -5.90614 -2.85501 0
M  V30 26878 H 2436.32 -7.32633 -1.86507 0
M  V30 26879 H 2437.59 -7.17579 -3.04468 0
M  V30 26880 N 2441.82 -0.15856 -1.568 0
M  V30 26881 C 2442.75 0.77257 -2.20349 0
M  V30 26882 C 2443.73 1.24857 -1.1552 0
M  V30 26883 O 2444.92 1.30404 -1.43905 0
M  V30 26884 C 2442.05 2.00724 -2.83421 0
M  V30 26885 C 2441 1.66758 -3.94177 0
M  V30 26886 C 2440.33 2.97584 -4.44238 0
M  V30 26887 C 2441.63 0.905357 -5.14393 0
M  V30 26888 H 2443.32 0.242906 -2.98413 0
M  V30 26889 H 2440.87 0.115393 -1.43537 0
M  V30 26890 H 2442.82 2.66354 -3.26548 0
M  V30 26891 H 2441.54 2.56082 -2.02705 0
M  V30 26892 H 2440.2 1.03502 -3.51686 0
M  V30 26893 H 2439.85 3.50957 -3.60331 0
M  V30 26894 H 2439.55 2.75617 -5.1895 0
M  V30 26895 H 2441.08 3.64266 -4.90044 0
M  V30 26896 H 2442.49 1.46398 -5.54293 0
M  V30 26897 H 2440.89 0.785195 -5.94941 0
M  V30 26898 H 2441.96 -0.100753 -4.84795 0
M  V30 26899 N 2443.3 1.57178 0.115204 0
M  V30 26900 C 2444.52 1.89614 0.840321 0
M  V30 26901 C 2444.95 0.750875 1.72463 0
M  V30 26902 O 2444.31 -0.298447 1.78827 0
M  V30 26903 C 2444.36 3.20817 1.64648 0
M  V30 26904 O 2443.46 3.0699 2.75375 0
M  V30 26905 H 2442.8 0.622096 0.232147 0
M  V30 26906 H 2445.33 2.04372 0.0964618 0
M  V30 26907 H 2445.34 3.53631 2.03493 0
M  V30 26908 H 2444.02 4.03765 0.997345 0
M  V30 26909 H 2442.59 2.8565 2.39705 0
M  V30 26910 N 2444.78 -0.38549 1.52813 0
M  V30 26911 C 2445.71 -1.47749 1.80811 0
M  V30 26912 C 2446.69 -1.56759 0.660346 0
M  V30 26913 O 2447.87 -1.71651 0.908277 0
M  V30 26914 C 2445 -2.85321 1.98013 0
M  V30 26915 C 2443.96 -2.91148 3.13714 0
M  V30 26916 C 2443.28 -4.31204 3.16176 0
M  V30 26917 C 2444.58 -2.60475 4.52714 0
M  V30 26918 H 2446.28 -1.24568 2.72256 0
M  V30 26919 H 2443.82 -0.597816 1.31004 0
M  V30 26920 H 2445.78 -3.61722 2.16183 0
M  V30 26921 H 2444.5 -3.09846 1.03261 0
M  V30 26922 H 2443.16 -2.17195 2.95333 0
M  V30 26923 H 2442.81 -4.52774 2.191 0
M  V30 26924 H 2442.51 -4.36022 3.93901 0
M  V30 26925 H 2444.03 -5.09506 3.36505 0
M  V30 26926 H 2445.45 -3.26593 4.71179 0
M  V30 26927 H 2443.84 -2.76639 5.32533 0
M  V30 26928 H 2444.91 -1.55801 4.59188 0
M  V30 26929 N 2446.26 -1.43835 -0.644143 0
M  V30 26930 C 2447.19 -1.52512 -1.76812 0
M  V30 26931 C 2448.17 -0.379081 -1.65822 0
M  V30 26932 O 2449.35 -0.597498 -1.8478 0
M  V30 26933 C 2446.48 -1.45645 -3.15285 0
M  V30 26934 C 2445.44 -2.58592 -3.41049 0
M  V30 26935 C 2444.76 -2.36778 -4.79417 0
M  V30 26936 C 2446.06 -4.00803 -3.34895 0
M  V30 26937 H 2447.76 -2.46588 -1.69807 0
M  V30 26938 H 2445.3 -1.18681 -0.815521 0
M  V30 26939 H 2447.25 -1.50318 -3.93678 0
M  V30 26940 H 2445.98 -0.480781 -3.23042 0
M  V30 26941 H 2444.64 -2.53287 -2.65031 0
M  V30 26942 H 2444.29 -1.37433 -4.83861 0
M  V30 26943 H 2443.99 -3.12496 -4.97614 0
M  V30 26944 H 2445.51 -2.43248 -5.60056 0
M  V30 26945 H 2446.92 -4.07546 -4.03211 0
M  V30 26946 H 2445.32 -4.76619 -3.64628 0
M  V30 26947 H 2446.39 -4.25295 -2.32921 0
M  V30 26948 N 2447.73 0.883355 -1.30517 0
M  V30 26949 C 2448.68 2.01064 -1.16945 0
M  V30 26950 C 2449.68 1.69207 -0.0809446 0
M  V30 26951 O 2450.88 1.78367 -0.241908 0
M  V30 26952 H 2447.26 0.659292 -0.361716 0
M  V30 26953 H 2449.23 2.09645 -2.12347 0
M  V30 26954 C 2447.98 3.36386 -0.879753 0
M  V30 26955 H 2447.3 3.61412 -1.70942 0
M  V30 26956 H 2448.74 4.15898 -0.824903 0
M  V30 26957 C 2447.2 3.34305 0.417351 0
M  V30 26958 O 2447.73 3.75065 1.43836 0
M  V30 26959 N 2445.93 2.87415 0.429091 0
M  V30 26960 H 2445.48 2.5444 -0.402267 0
M  V30 26961 H 2445.44 2.86405 1.29691 0
M  V30 26962 N 2449.21 1.13259 1.09591 0
M  V30 26963 C 2450.44 0.916765 1.86038 0
M  V30 26964 C 2450.86 -0.529114 1.80505 0
M  V30 26965 O 2450.22 -1.37532 1.1813 0
M  V30 26966 C 2450.27 1.40709 3.32014 0
M  V30 26967 O 2449.37 0.591225 4.0814 0
M  V30 26968 H 2448.71 0.328693 0.576937 0
M  V30 26969 H 2451.24 1.50685 1.38403 0
M  V30 26970 H 2451.25 1.40997 3.82863 0
M  V30 26971 H 2449.93 2.45985 3.35357 0
M  V30 26972 H 2448.5 0.656069 3.67083 0
M  V30 26973 N 2450.69 -1.27539 0.925834 0
M  V30 26974 C 2451.64 -2.28887 0.413937 0
M  V30 26975 C 2452.63 -1.6183 -0.50075 0
M  V30 26976 O 2453.84 -1.75929 -0.380659 0
M  V30 26977 H 2450.21 -0.74311 0.115287 0
M  V30 26978 H 2452.18 -2.69478 1.28156 0
M  V30 26979 C 2450.93 -3.46227 -0.319731 0
M  V30 26980 H 2450.26 -3.98038 0.374916 0
M  V30 26981 H 2451.7 -4.19106 -0.642362 0
M  V30 26982 C 2450.15 -3.0005 -1.53204 0
M  V30 26983 O 2450.68 -3.03562 -2.63084 0
M  V30 26984 N 2448.89 -2.55569 -1.38322 0
M  V30 26985 H 2448.44 -2.52911 -0.489248 0
M  V30 26986 H 2448.4 -2.25035 -2.1956 0
M  V30 26987 N 2452.17 -0.691135 -1.41637 0
M  V30 26988 C 2453.41 -0.229293 -2.02103 0
M  V30 26989 C 2453.77 1.15675 -1.53743 0
M  V30 26990 O 2453.06 1.76863 -0.73688 0
M  V30 26991 C 2453.26 -0.22134 -3.56714 0
M  V30 26992 C 2453.08 -1.60508 -4.2008 0
M  V30 26993 C 2451.85 -2.20684 -4.54562 0
M  V30 26994 C 2454.05 -2.55086 -4.46582 0
M  V30 26995 N 2452.03 -3.51668 -5.03192 0
M  V30 26996 C 2453.41 -3.70744 -4.9694 0
M  V30 26997 C 2455.46 -2.53409 -4.28589 0
M  V30 26998 C 2454.16 -4.85 -5.31195 0
M  V30 26999 C 2456.19 -3.66774 -4.6393 0
M  V30 27000 C 2455.55 -4.81161 -5.14455 0
M  V30 27001 H 2451.65 -0.129194 -0.771254 0
M  V30 27002 H 2454.23 -0.907656 -1.72249 0
M  V30 27003 H 2452.41 0.426494 -3.86051 0
M  V30 27004 H 2454.14 0.254912 -4.03896 0
M  V30 27005 H 2450.89 -1.73013 -4.40867 0
M  V30 27006 H 2451.32 -4.18798 -5.31919 0
M  V30 27007 H 2455.96 -1.66191 -3.88768 0
M  V30 27008 H 2453.68 -5.72881 -5.69941 0
M  V30 27009 H 2457.26 -3.66722 -4.5167 0
M  V30 27010 H 2456.14 -5.67429 -5.41289 0
M  V30 27011 N 2453.65 1.51461 -0.435577 0
M  V30 27012 C 2454.89 2.01261 0.132972 0
M  V30 27013 C 2455.21 1.32442 1.43939 0
M  V30 27014 O 2456.41 1.73201 2.09078 0
M  V30 27015 C 2454.87 3.5875 0.287518 0
M  V30 27016 C 2454.48 4.36504 -1.00836 0
M  V30 27017 C 2456.22 4.16702 0.809931 0
M  V30 27018 C 2454.13 5.85694 -0.819557 0
M  V30 27019 H 2453.06 0.752102 0.053469 0
M  V30 27020 H 2455.71 1.74583 -0.565069 0
M  V30 27021 H 2454.09 3.81867 1.04852 0
M  V30 27022 H 2455.27 4.25135 -1.77756 0
M  V30 27023 H 2453.58 3.89996 -1.45918 0
M  V30 27024 H 2456.18 5.25871 0.96765 0
M  V30 27025 H 2456.52 3.75762 1.7919 0
M  V30 27026 H 2457.05 3.97655 0.107287 0
M  V30 27027 H 2453.79 6.31043 -1.77385 0
M  V30 27028 H 2453.31 5.99732 -0.0901262 0
M  V30 27029 H 2454.99 6.45276 -0.472062 0
M  V30 27030 N 2455.12 0.166873 1.56714 0
M  V30 27031 C 2456.09 -0.751194 2.1654 0
M  V30 27032 C 2457.09 -1.16123 1.1123 0
M  V30 27033 O 2458.28 -1.07891 1.36767 0
M  V30 27034 C 2455.41 -2.02191 2.74466 0
M  V30 27035 H 2456.6 -0.230447 2.99013 0
M  V30 27036 H 2454.16 -0.0826708 1.56081 0
M  V30 27037 H 2454.89 -2.58586 1.95714 0
M  V30 27038 H 2454.68 -1.73691 3.5153 0
M  V30 27039 H 2456.17 -2.67719 3.20494 0
M  V30 27040 N 2456.6 -1.57237 -0.106866 0
M  V30 27041 C 2457.85 -1.8576 -0.813697 0
M  V30 27042 C 2458.18 -0.754346 -1.7895 0
M  V30 27043 O 2457.46 0.238757 -1.93029 0
M  V30 27044 C 2457.74 -3.24897 -1.55288 0
M  V30 27045 C 2457.59 -4.45836 -0.595851 0
M  V30 27046 C 2458.91 -3.61768 -2.50624 0
M  V30 27047 H 2456.03 -0.675665 -0.294357 0
M  V30 27048 H 2458.67 -1.89841 -0.0776138 0
M  V30 27049 H 2456.82 -3.21548 -2.18035 0
M  V30 27050 H 2458.49 -4.61294 0.0237073 0
M  V30 27051 H 2456.74 -4.33703 0.0916953 0
M  V30 27052 H 2457.41 -5.39889 -1.14995 0
M  V30 27053 H 2459.88 -3.65985 -1.97976 0
M  V30 27054 H 2458.76 -4.60076 -2.99368 0
M  V30 27055 H 2459.02 -2.89827 -3.33845 0
M  V30 27056 N 2458.08 0.377381 -1.53015 0
M  V30 27057 C 2459.31 1.14216 -1.72517 0
M  V30 27058 C 2459.72 1.83389 -0.448768 0
M  V30 27059 O 2459.08 1.7312 0.577562 0
M  V30 27060 C 2459.13 2.18143 -2.88264 0
M  V30 27061 O 2458.85 1.51788 -4.10965 0
M  V30 27062 C 2460.35 3.07259 -3.19542 0
M  V30 27063 H 2457.57 0.34199 -0.577307 0
M  V30 27064 H 2460.12 0.4399 -1.99713 0
M  V30 27065 H 2458.27 2.83986 -2.63497 0
M  V30 27066 H 2458.69 2.20937 -4.75697 0
M  V30 27067 H 2460.16 3.76186 -4.03966 0
M  V30 27068 H 2460.64 3.71415 -2.34409 0
M  V30 27069 H 2461.24 2.47047 -3.46191 0
M  V30 27070 N 2459.56 1.44175 0.636506 0
M  V30 27071 C 2460.78 1.50367 1.42844 0
M  V30 27072 C 2461.21 0.1279 1.87665 0
M  V30 27073 O 2460.57 -0.881823 1.5841 0
M  V30 27074 C 2460.61 2.46865 2.6285 0
M  V30 27075 O 2459.72 1.96646 3.62497 0
M  V30 27076 H 2459.06 0.507963 0.427633 0
M  V30 27077 H 2461.59 1.89256 0.777389 0
M  V30 27078 H 2461.6 2.64723 3.1046 0
M  V30 27079 H 2460.27 3.46799 2.29572 0
M  V30 27080 H 2458.85 1.88529 3.21732 0
M  V30 27081 N 2461.04 -0.876421 1.30983 0
M  V30 27082 C 2462.45 -1.16111 1.095 0
M  V30 27083 C 2462.65 -2.01022 -0.138714 0
M  V30 27084 O 2461.71 -2.38472 -0.829893 0
M  V30 27085 C 2463.02 -1.8595 2.36312 0
M  V30 27086 C 2464.57 -1.98678 2.41859 0
M  V30 27087 C 2465.04 -2.7193 3.68535 0
M  V30 27088 N 2466.54 -2.7947 3.69392 0
M  V30 27089 C 2467.27 -3.36745 4.64101 0
M  V30 27090 N 2466.77 -3.95002 5.69162 0
M  V30 27091 N 2468.56 -3.34642 4.51632 0
M  V30 27092 H 2460.71 -0.310457 2.10119 0
M  V30 27093 H 2462.97 -0.200115 0.926638 0
M  V30 27094 H 2462.68 -1.31005 3.2639 0
M  V30 27095 H 2462.55 -2.86274 2.45615 0
M  V30 27096 H 2464.94 -2.5279 1.52254 0
M  V30 27097 H 2465.02 -0.974158 2.36524 0
M  V30 27098 H 2464.67 -2.18488 4.58503 0
M  V30 27099 H 2464.6 -3.73587 3.71134 0
M  V30 27100 H 2467.09 -2.38118 2.93442 0
M  V30 27101 H 2467.4 -4.36797 6.37517 0
M  V30 27102 H 2465.74 -3.93396 5.72944 0
M  V30 27103 H 2468.94 -2.88363 3.68733 0
M  V30 27104 H 2469.11 -3.78981 5.25621 0
M  V30 27105 N 2462.51 -1.13839 -1.08989 0
M  V30 27106 C 2463.48 -0.822752 -2.13924 0
M  V30 27107 C 2464.48 0.169872 -1.599 0
M  V30 27108 O 2465.67 -0.0577557 -1.74104 0
M  V30 27109 C 2462.8 -0.225378 -3.40154 0
M  V30 27110 H 2463.99 -1.75267 -2.43355 0
M  V30 27111 H 2461.55 -0.943616 -1.24602 0
M  V30 27112 H 2462.28 0.713538 -3.16353 0
M  V30 27113 H 2462.07 -0.94026 -3.80659 0
M  V30 27114 H 2463.56 -0.0215518 -4.17594 0
M  V30 27115 N 2463.99 1.27046 -0.932584 0
M  V30 27116 C 2464.9 2.30413 -0.441259 0
M  V30 27117 C 2465.92 1.67234 0.480496 0
M  V30 27118 O 2467.09 1.98118 0.362116 0
M  V30 27119 C 2464.16 3.45455 0.29359 0
M  V30 27120 C 2463.22 4.24139 -0.663675 0
M  V30 27121 C 2462.45 5.33688 0.0361994 0
M  V30 27122 O 2462.68 5.56429 1.2547 0
M  V30 27123 O 2461.61 5.98508 -0.63812 0
M  V30 27124 H 2465.44 2.74486 -1.29967 0
M  V30 27125 H 2463.02 1.32086 -0.698124 0
M  V30 27126 H 2464.9 4.15412 0.707878 0
M  V30 27127 H 2463.58 3.03428 1.12753 0
M  V30 27128 H 2462.49 3.56697 -1.12774 0
M  V30 27129 H 2463.82 4.69893 -1.46497 0
M  V30 27130 N 2465.47 0.698636 1.41269 0
M  V30 27131 C 2466.38 0.0358304 2.34573 0
M  V30 27132 C 2467.4 -0.762673 1.56395 0
M  V30 27133 O 2468.57 -0.69953 1.88861 0
M  V30 27134 C 2465.64 -0.887031 3.35161 0
M  V30 27135 C 2464.7 -0.0803879 4.29225 0
M  V30 27136 C 2463.93 -0.959295 5.25008 0
M  V30 27137 O 2464.15 -2.19877 5.26318 0
M  V30 27138 O 2463.09 -0.407334 6.0052 0
M  V30 27139 H 2466.91 0.805009 2.92837 0
M  V30 27140 H 2464.5 0.458991 1.42175 0
M  V30 27141 H 2466.38 -1.41614 3.96892 0
M  V30 27142 H 2465.06 -1.63565 2.79335 0
M  V30 27143 H 2463.96 0.493394 3.70832 0
M  V30 27144 H 2465.3 0.629632 4.88156 0
M  V30 27145 N 2466.95 -1.51228 0.443603 0
M  V30 27146 C 2468.19 -2.03085 -0.113175 0
M  V30 27147 C 2468.55 -1.32147 -1.39839 0
M  V30 27148 O 2467.84 -0.429575 -1.86722 0
M  V30 27149 C 2468.04 -3.55369 -0.380516 0
M  V30 27150 C 2467.87 -4.41061 0.877234 0
M  V30 27151 C 2466.64 -4.85154 1.41259 0
M  V30 27152 C 2468.83 -4.83061 1.76512 0
M  V30 27153 N 2466.82 -5.55079 2.62223 0
M  V30 27154 C 2468.19 -5.52117 2.82077 0
M  V30 27155 C 2470.24 -4.65042 1.77878 0
M  V30 27156 C 2468.94 -6.05063 3.88962 0
M  V30 27157 C 2470.97 -5.18909 2.83703 0
M  V30 27158 C 2470.33 -5.87916 3.87988 0
M  V30 27159 H 2466.43 -0.781997 -0.00208803 0
M  V30 27160 H 2469.02 -1.8504 0.605674 0
M  V30 27161 H 2467.19 -3.73416 -1.0684 0
M  V30 27162 H 2468.92 -3.93888 -0.929205 0
M  V30 27163 H 2465.67 -4.63651 0.965624 0
M  V30 27164 H 2466.1 -5.94665 3.23578 0
M  V30 27165 H 2470.74 -4.11147 0.985816 0
M  V30 27166 H 2468.46 -6.5801 4.69094 0
M  V30 27167 H 2472.04 -5.06814 2.85711 0
M  V30 27168 H 2470.92 -6.28849 4.68528 0
M  V30 27169 N 2468.43 -0.175182 -1.56623 0
M  V30 27170 C 2469.36 0.749156 -2.21156 0
M  V30 27171 C 2470.34 1.23624 -1.16838 0
M  V30 27172 O 2471.52 1.2887 -1.4528 0
M  V30 27173 C 2468.65 1.97706 -2.85534 0
M  V30 27174 C 2467.61 1.62568 -3.95924 0
M  V30 27175 C 2466.93 2.92856 -4.4737 0
M  V30 27176 C 2468.23 0.850747 -5.15325 0
M  V30 27177 H 2469.93 0.211242 -2.98654 0
M  V30 27178 H 2467.47 0.100163 -1.43651 0
M  V30 27179 H 2469.43 2.62875 -3.29355 0
M  V30 27180 H 2468.15 2.53918 -2.0541 0
M  V30 27181 H 2466.81 0.997657 -3.52764 0
M  V30 27182 H 2466.46 3.47115 -3.64033 0
M  V30 27183 H 2466.16 2.70097 -5.21844 0
M  V30 27184 H 2467.68 3.59048 -4.9388 0
M  V30 27185 H 2469.09 1.40511 -5.55814 0
M  V30 27186 H 2467.49 0.72205 -5.9574 0
M  V30 27187 H 2468.56 -0.152167 -4.84661 0
M  V30 27188 N 2469.91 1.57292 0.0985263 0
M  V30 27189 C 2470.85 2.02823 1.13866 0
M  V30 27190 C 2471.85 0.928691 1.41675 0
M  V30 27191 O 2473.05 1.11387 1.41396 0
M  V30 27192 H 2469.43 0.646324 0.384408 0
M  V30 27193 H 2471.4 2.89376 0.728296 0
M  V30 27194 C 2470.15 2.46558 2.45162 0
M  V30 27195 H 2469.47 3.30744 2.24607 0
M  V30 27196 H 2470.91 2.82196 3.16451 0
M  V30 27197 C 2469.37 1.33747 3.09214 0
M  V30 27198 O 2469.9 0.66471 3.96162 0
M  V30 27199 N 2468.11 1.08932 2.69411 0
M  V30 27200 H 2467.65 1.63821 1.98798 0
M  V30 27201 H 2467.61 0.336513 3.12594 0
M  V30 27202 N 2471.38 -0.369261 1.53213 0
M  V30 27203 C 2472.31 -1.45823 1.82368 0
M  V30 27204 C 2473.29 -1.5605 0.676935 0
M  V30 27205 O 2474.48 -1.70678 0.926431 0
M  V30 27206 C 2471.61 -2.83205 2.01028 0
M  V30 27207 C 2470.56 -2.87805 3.16785 0
M  V30 27208 C 2469.89 -4.27826 3.20732 0
M  V30 27209 C 2471.19 -2.55659 4.55451 0
M  V30 27210 H 2472.88 -1.21674 2.73562 0
M  V30 27211 H 2470.43 -0.583888 1.31631 0
M  V30 27212 H 2472.38 -3.59409 2.20007 0
M  V30 27213 H 2471.11 -3.08734 1.06541 0
M  V30 27214 H 2469.77 -2.14051 2.9762 0
M  V30 27215 H 2469.41 -4.50425 2.23889 0
M  V30 27216 H 2469.11 -4.3182 3.98504 0
M  V30 27217 H 2470.64 -5.05909 3.4189 0
M  V30 27218 H 2472.05 -3.21578 4.74616 0
M  V30 27219 H 2470.45 -2.70975 5.35437 0
M  V30 27220 H 2471.52 -1.50922 4.60815 0
M  V30 27221 N 2472.86 -1.4451 -0.628851 0
M  V30 27222 C 2473.79 -1.54379 -1.75184 0
M  V30 27223 C 2474.77 -0.396647 -1.65411 0
M  V30 27224 O 2475.96 -0.617063 -1.84136 0
M  V30 27225 C 2473.09 -1.48981 -3.13723 0
M  V30 27226 C 2472.04 -2.62195 -3.38287 0
M  V30 27227 C 2471.37 -2.41849 -4.76879 0
M  V30 27228 C 2472.67 -4.04332 -3.30625 0
M  V30 27229 H 2474.36 -2.48376 -1.67182 0
M  V30 27230 H 2471.91 -1.1954 -0.802888 0
M  V30 27231 H 2473.86 -1.54485 -3.92062 0
M  V30 27232 H 2472.58 -0.515017 -3.22514 0
M  V30 27233 H 2471.24 -2.56084 -2.62329 0
M  V30 27234 H 2470.89 -1.42557 -4.82376 0
M  V30 27235 H 2470.59 -3.17756 -4.94272 0
M  V30 27236 H 2472.12 -2.49174 -5.57445 0
M  V30 27237 H 2473.53 -4.118 -3.98866 0
M  V30 27238 H 2471.93 -4.8046 -3.59553 0
M  V30 27239 H 2473 -4.27742 -2.28397 0
M  V30 27240 N 2474.34 0.869463 -1.31446 0
M  V30 27241 C 2475.27 1.99259 -1.2173 0
M  V30 27242 C 2476.25 1.69779 -0.104389 0
M  V30 27243 O 2477.44 1.92036 -0.289072 0
M  V30 27244 C 2474.57 3.34772 -0.924376 0
M  V30 27245 C 2473.52 3.78559 -1.99692 0
M  V30 27246 C 2472.85 5.11539 -1.55667 0
M  V30 27247 C 2474.15 3.95613 -3.4101 0
M  V30 27248 H 2475.84 2.07645 -2.15694 0
M  V30 27249 H 2473.39 0.997657 -1.0384 0
M  V30 27250 H 2475.34 4.12882 -0.843006 0
M  V30 27251 H 2474.06 3.2656 0.0509219 0
M  V30 27252 H 2472.72 3.02691 -2.06819 0
M  V30 27253 H 2472.37 4.99769 -0.569219 0
M  V30 27254 H 2472.07 5.41807 -2.27419 0
M  V30 27255 H 2473.59 5.92157 -1.48939 0
M  V30 27256 H 2475.01 4.64116 -3.36555 0
M  V30 27257 H 2473.4 4.37279 -4.10983 0
M  V30 27258 H 2474.47 2.98979 -3.81759 0
M  V30 27259 N 2475.82 1.14415 1.08383 0
M  V30 27260 C 2476.73 0.84499 2.18854 0
M  V30 27261 C 2477.74 -0.174638 1.73121 0
M  V30 27262 O 2478.92 -0.00309317 2.014 0
M  V30 27263 C 2475.98 0.32702 3.45154 0
M  V30 27264 C 2475.05 1.40923 4.05511 0
M  V30 27265 C 2474.28 0.915885 5.25782 0
M  V30 27266 O 2474.5 -0.242551 5.69884 0
M  V30 27267 O 2473.44 1.69497 5.77542 0
M  V30 27268 H 2477.26 1.76822 2.46916 0
M  V30 27269 H 2474.85 0.922432 1.17523 0
M  V30 27270 H 2476.73 0.0440952 4.21377 0
M  V30 27271 H 2475.4 -0.568483 3.18669 0
M  V30 27272 H 2474.31 1.74562 3.30876 0
M  V30 27273 H 2475.64 2.27927 4.36246 0
M  V30 27274 N 2477.3 -1.26549 0.939309 0
M  V30 27275 C 2478.53 -1.97644 0.601697 0
M  V30 27276 C 2478.93 -1.7016 -0.827176 0
M  V30 27277 O 2478.28 -0.965366 -1.56289 0
M  V30 27278 C 2478.34 -3.51336 0.761787 0
M  V30 27279 C 2478 -4.02466 2.16494 0
M  V30 27280 C 2479 -4.14349 3.14024 0
M  V30 27281 C 2476.68 -4.36523 2.48501 0
M  V30 27282 C 2478.68 -4.59579 4.41662 0
M  V30 27283 C 2476.37 -4.81442 3.76373 0
M  V30 27284 C 2477.36 -4.92931 4.72766 0
M  V30 27285 O 2477.05 -5.3686 5.98361 0
M  V30 27286 H 2476.78 -0.637185 0.225769 0
M  V30 27287 H 2479.34 -1.62073 1.26181 0
M  V30 27288 H 2477.57 -3.86674 0.0445488 0
M  V30 27289 H 2479.26 -4.03642 0.427513 0
M  V30 27290 H 2480.02 -3.88285 2.90619 0
M  V30 27291 H 2475.9 -4.26816 1.74209 0
M  V30 27292 H 2479.45 -4.68461 5.16904 0
M  V30 27293 H 2475.34 -5.06949 3.99591 0
M  V30 27294 H 2476.11 -5.55086 6.01516 0
M  V30 27295 N 2478.77 -0.706118 -1.40896 0
M  V30 27296 C 2479.71 -0.00819805 -2.29199 0
M  V30 27297 C 2480.72 0.733556 -1.45337 0
M  V30 27298 O 2481.91 0.582507 -1.68728 0
M  V30 27299 C 2479.01 1.0126 -3.23419 0
M  V30 27300 C 2478.18 0.338311 -4.3609 0
M  V30 27301 C 2477.24 1.26317 -5.10813 0
M  V30 27302 O 2476.27 0.751552 -5.64217 0
M  V30 27303 N 2477.47 2.59491 -5.19273 0
M  V30 27304 H 2480.23 -0.766348 -2.89736 0
M  V30 27305 H 2477.79 -0.552987 -1.52163 0
M  V30 27306 H 2479.79 1.63328 -3.70278 0
M  V30 27307 H 2478.36 1.67219 -2.64115 0
M  V30 27308 H 2477.58 -0.462421 -3.91478 0
M  V30 27309 H 2478.86 -0.130121 -5.08634 0
M  V30 27310 H 2478.26 3.03564 -4.77352 0
M  V30 27311 H 2476.82 3.16727 -5.69673 0
M  V30 27312 N 2480.25 1.50991 -0.451617 0
M  V30 27313 C 2481.2 2.28091 0.352585 0
M  V30 27314 C 2482.17 1.32293 1.00438 0
M  V30 27315 O 2483.35 1.61212 1.02055 0
M  V30 27316 C 2480.49 3.13631 1.43977 0
M  V30 27317 C 2479.61 4.24439 0.804697 0
M  V30 27318 C 2478.74 4.97267 1.86813 0
M  V30 27319 C 2477.78 5.99976 1.21226 0
M  V30 27320 N 2476.92 6.66156 2.21768 0
M  V30 27321 H 2481.76 2.9637 -0.311238 0
M  V30 27322 H 2479.29 1.46168 -0.165333 0
M  V30 27323 H 2481.25 3.61563 2.08155 0
M  V30 27324 H 2479.88 2.47438 2.07303 0
M  V30 27325 H 2478.93 3.80366 0.050846 0
M  V30 27326 H 2480.25 4.97979 0.285989 0
M  V30 27327 H 2479.4 5.48818 2.58619 0
M  V30 27328 H 2478.14 4.23389 2.4206 0
M  V30 27329 H 2477.14 5.47703 0.479732 0
M  V30 27330 H 2478.37 6.75817 0.666933 0
M  V30 27331 H 2476.32 5.95082 2.76069 0
M  V30 27332 H 2476.23 7.35507 1.74828 0
M  V30 27333 H 2477.5 7.22332 2.93013 0
M  V30 27334 N 2481.73 0.183486 1.56528 0
M  V30 27335 C 2482.68 -0.754567 2.15152 0
M  V30 27336 C 2483.66 -1.18441 1.08906 0
M  V30 27337 O 2484.86 -1.14474 1.34999 0
M  V30 27338 C 2481.98 -1.97876 2.80535 0
M  V30 27339 C 2481.07 -1.57036 3.93955 0
M  V30 27340 N 2481.46 -0.872223 4.98223 0
M  V30 27341 C 2479.76 -1.8605 4.05341 0
M  V30 27342 C 2480.46 -0.669276 5.77837 0
M  V30 27343 N 2479.44 -1.21445 5.2986 0
M  V30 27344 H 2483.24 -0.212335 2.93132 0
M  V30 27345 H 2480.75 -0.016744 1.62391 0
M  V30 27346 H 2482.75 -2.66115 3.20918 0
M  V30 27347 H 2481.41 -2.52583 2.04039 0
M  V30 27348 H 2482.42 -0.528942 5.15192 0
M  V30 27349 H 2479.1 -2.42348 3.39961 0
M  V30 27350 H 2480.49 -0.116304 6.71799 0
M  V30 27351 N 2483.21 -1.57342 -0.0901833 0
M  V30 27352 C 2484.14 -1.97666 -1.14032 0
M  V30 27353 C 2485.12 -0.850641 -1.38574 0
M  V30 27354 O 2486.3 -1.11136 -1.52253 0
M  V30 27355 C 2483.43 -2.29764 -2.4885 0
M  V30 27356 C 2482.48 -3.52185 -2.40557 0
M  V30 27357 S 2483.31 -5.03718 -1.81736 0
M  V30 27358 C 2484.46 -5.38998 -3.18169 0
M  V30 27359 H 2484.7 -2.86429 -0.796586 0
M  V30 27360 H 2482.23 -1.51496 -0.298046 0
M  V30 27361 H 2484.19 -2.48933 -3.26409 0
M  V30 27362 H 2482.85 -1.41563 -2.8039 0
M  V30 27363 H 2482.04 -3.72102 -3.39936 0
M  V30 27364 H 2481.64 -3.32552 -1.71129 0
M  V30 27365 H 2483.94 -5.35944 -4.14452 0
M  V30 27366 H 2484.88 -6.39973 -3.03051 0
M  V30 27367 H 2485.29 -4.66458 -3.17927 0
M  V30 27368 N 2484.69 0.36113 -1.53407 0
M  V30 27369 C 2485.6 1.46637 -1.83125 0
M  V30 27370 C 2486.61 1.58406 -0.719971 0
M  V30 27371 O 2487.79 1.74216 -1.01049 0
M  V30 27372 C 2484.85 2.81849 -2.01896 0
M  V30 27373 C 2483.91 2.79571 -3.25789 0
M  V30 27374 C 2483.15 4.08334 -3.43655 0
M  V30 27375 O 2483.37 5.04725 -2.65723 0
M  V30 27376 O 2482.3 4.13875 -4.37025 0
M  V30 27377 H 2486.13 1.24446 -2.77032 0
M  V30 27378 H 2483.72 0.551654 -1.38842 0
M  V30 27379 H 2485.6 3.61958 -2.15788 0
M  V30 27380 H 2484.27 3.04008 -1.11178 0
M  V30 27381 H 2483.18 1.98145 -3.17316 0
M  V30 27382 H 2484.51 2.62366 -4.16443 0
M  V30 27383 N 2486.16 1.44842 0.621179 0
M  V30 27384 C 2487.39 1.51648 1.40749 0
M  V30 27385 C 2487.81 0.144583 1.88246 0
M  V30 27386 O 2487.16 -0.851388 1.61424 0
M  V30 27387 C 2487.22 2.48955 2.62114 0
M  V30 27388 O 2486.94 3.80812 2.16596 0
M  V30 27389 C 2488.44 2.65325 3.5513 0
M  V30 27390 H 2485.66 0.514012 0.431316 0
M  V30 27391 H 2488.2 1.89901 0.758801 0
M  V30 27392 H 2486.36 2.13811 3.23054 0
M  V30 27393 H 2486.77 4.33438 2.9535 0
M  V30 27394 H 2488.24 3.37417 4.36868 0
M  V30 27395 H 2488.72 1.70893 4.04589 0
M  V30 27396 H 2489.33 3.0141 3.00053 0
M  V30 27397 N 2487.64 -0.862479 1.31905 0
M  V30 27398 C 2488.89 -1.61609 1.22019 0
M  V30 27399 C 2489.22 -1.93253 -0.219876 0
M  V30 27400 O 2488.47 -1.56819 -1.17073 0
M  V30 27401 C 2488.77 -2.95033 2.01718 0
M  V30 27402 C 2488.44 -2.82851 3.5115 0
M  V30 27403 C 2487.1 -2.79236 3.91894 0
M  V30 27404 C 2489.45 -2.69346 4.46209 0
M  V30 27405 C 2486.78 -2.59983 5.25952 0
M  V30 27406 C 2489.13 -2.51629 5.80401 0
M  V30 27407 C 2487.8 -2.46402 6.20357 0
M  V30 27408 H 2487.07 -0.59137 0.446501 0
M  V30 27409 H 2489.71 -1.00109 1.6325 0
M  V30 27410 H 2488.02 -3.6061 1.53191 0
M  V30 27411 H 2489.71 -3.5235 1.91444 0
M  V30 27412 H 2486.3 -2.86486 3.18785 0
M  V30 27413 H 2490.49 -2.71189 4.15656 0
M  V30 27414 H 2485.74 -2.54366 5.55975 0
M  V30 27415 H 2489.92 -2.40158 6.5368 0
M  V30 27416 H 2487.55 -2.31243 7.24176 0
M  V30 27417 N 2489.12 -1.14988 -1.07775 0
M  V30 27418 C 2490.4 -0.832726 -1.76989 0
M  V30 27419 C 2490.78 0.672525 -2.00101 0
M  V30 27420 O 2490.13 1.61547 -1.61601 0
M  V30 27421 C 2490.34 -1.63869 -3.08136 0
M  V30 27422 C 2491.68 -1.84215 -3.82557 0
M  V30 27423 O 2492.71 -1.60609 -3.17936 0
M  V30 27424 O 2491.57 -2.23723 -4.98608 0
M  V30 27425 H 2488.66 -0.305804 -0.768383 0
M  V30 27426 H 2491.21 -1.25543 -1.14179 0
M  V30 27427 H 2489.98 -2.66085 -2.86905 0
M  V30 27428 H 2489.6 -1.21203 -3.78676 0
M  V30 27429 N 2490.6 1.26049 -0.946007 0
M  V30 27430 C 2491.53 2.2538 -0.416702 0
M  V30 27431 C 2492.54 1.56087 0.462684 0
M  V30 27432 O 2493.73 1.7641 0.272352 0
M  V30 27433 C 2490.83 3.3629 0.419753 0
M  V30 27434 C 2490.01 4.35134 -0.444608 0
M  V30 27435 C 2489.06 5.2515 0.332212 0
M  V30 27436 O 2488.09 5.68576 -0.266423 0
M  V30 27437 N 2489.29 5.57218 1.62753 0
M  V30 27438 H 2492.06 2.71431 -1.27064 0
M  V30 27439 H 2489.62 1.39866 -0.815417 0
M  V30 27440 H 2491.61 3.93465 0.946944 0
M  V30 27441 H 2490.18 2.89696 1.17451 0
M  V30 27442 H 2489.4 3.76962 -1.15297 0
M  V30 27443 H 2490.69 4.98164 -1.03487 0
M  V30 27444 H 2490.09 5.23826 2.13594 0
M  V30 27445 H 2488.64 6.17015 2.10086 0
M  V30 27446 N 2492.08 0.71358 1.4052 0
M  V30 27447 C 2493.02 0.0485636 2.32549 0
M  V30 27448 C 2494.02 -0.749193 1.51932 0
M  V30 27449 O 2495.22 -0.652787 1.67746 0
M  V30 27450 H 2491.6 -0.00309817 0.751994 0
M  V30 27451 H 2493.57 0.841494 2.86289 0
M  V30 27452 C 2492.32 -0.860628 3.36881 0
M  V30 27453 H 2491.64 -0.256176 3.98978 0
M  V30 27454 H 2493.08 -1.29393 4.03774 0
M  V30 27455 C 2491.54 -1.98516 2.72201 0
M  V30 27456 O 2492.07 -3.07579 2.58375 0
M  V30 27457 N 2490.28 -1.76819 2.30615 0
M  V30 27458 H 2489.82 -0.881175 2.4206 0
M  V30 27459 H 2489.78 -2.5224 1.87677 0
M  V30 27460 N 2493.55 -1.50749 0.459618 0
M  V30 27461 C 2494.8 -2.02556 -0.099461 0
M  V30 27462 C 2495.13 -1.34173 -1.40397 0
M  V30 27463 O 2494.41 -0.463716 -1.88891 0
M  V30 27464 C 2494.69 -3.58888 -0.295179 0
M  V30 27465 C 2494.54 -4.37859 1.02954 0
M  V30 27466 C 2495.86 -4.27269 -1.05495 0
M  V30 27467 H 2492.98 -0.736184 -0.0346731 0
M  V30 27468 H 2495.62 -1.80178 0.60297 0
M  V30 27469 H 2493.77 -3.78086 -0.893497 0
M  V30 27470 H 2495.45 -4.3026 1.66356 0
M  V30 27471 H 2493.69 -4.02056 1.62892 0
M  V30 27472 H 2494.36 -5.45473 0.846377 0
M  V30 27473 H 2496.84 -4.12477 -0.547921 0
M  V30 27474 H 2495.71 -5.36488 -1.16068 0
M  V30 27475 H 2495.97 -3.89649 -2.08868 0
M  V30 27476 N 2495.03 -0.191784 -1.56429 0
M  V30 27477 C 2496.31 0.495298 -1.89225 0
M  V30 27478 C 2496.69 1.79881 -1.10481 0
M  V30 27479 O 2496.04 2.2758 -0.204892 0
M  V30 27480 C 2496.25 0.717307 -3.41549 0
M  V30 27481 C 2497.6 1.03816 -4.11713 0
M  V30 27482 O 2498.62 0.805143 -3.46981 0
M  V30 27483 O 2497.48 1.47878 -5.26112 0
M  V30 27484 H 2494.57 0.257796 -0.785793 0
M  V30 27485 H 2497.12 -0.23175 -1.6811 0
M  V30 27486 H 2495.89 -0.203356 -3.90771 0
M  V30 27487 H 2495.51 1.49693 -3.68344 0
M  V30 27488 N 2496.51 1.57387 0.0818378 0
M  V30 27489 C 2497.46 1.99435 1.10498 0
M  V30 27490 C 2498.44 0.874821 1.3504 0
M  V30 27491 O 2499.64 1.1387 1.35509 0
M  V30 27492 C 2496.77 2.43343 2.42155 0
M  V30 27493 C 2495.85 3.62009 2.2093 0
M  V30 27494 N 2496.24 4.76515 1.69608 0
M  V30 27495 C 2494.54 3.68364 2.51444 0
M  V30 27496 C 2495.24 5.58406 1.62964 0
M  V30 27497 N 2494.22 5.0196 2.08655 0
M  V30 27498 H 2498.02 2.8541 0.701322 0
M  V30 27499 H 2495.53 1.59807 0.289068 0
M  V30 27500 H 2497.53 2.71701 3.16203 0
M  V30 27501 H 2496.19 1.58751 2.83246 0
M  V30 27502 H 2497.2 4.99005 1.38615 0
M  V30 27503 H 2493.88 2.94462 2.9597 0
M  V30 27504 H 2495.27 6.60317 1.24222 0
M  V30 27505 N 2497.99 -0.35299 1.53596 0
M  V30 27506 C 2499.24 -1.09165 1.69605 0
M  V30 27507 C 2499.55 -1.90091 0.460959 0
M  V30 27508 O 2500.76 -2.66822 0.501821 0
M  V30 27509 C 2499.21 -1.99005 2.99875 0
M  V30 27510 C 2498.82 -1.23331 4.30689 0
M  V30 27511 C 2500.56 -2.72786 3.25251 0
M  V30 27512 C 2498.47 -2.12146 5.5204 0
M  V30 27513 H 2497.4 -0.41125 0.631973 0
M  V30 27514 H 2500.05 -0.351771 1.80097 0
M  V30 27515 H 2498.43 -2.76775 2.83217 0
M  V30 27516 H 2499.61 -0.505376 4.5802 0
M  V30 27517 H 2497.92 -0.613591 4.11854 0
M  V30 27518 H 2500.52 -3.39487 4.13101 0
M  V30 27519 H 2500.86 -3.38841 2.41852 0
M  V30 27520 H 2501.4 -2.02094 3.42641 0
M  V30 27521 H 2498.14 -1.50648 6.37954 0
M  V30 27522 H 2497.66 -2.82755 5.28971 0
M  V30 27523 H 2499.33 -2.71417 5.87318 0
M  V30 27524 N 2499.47 -1.45169 -0.613489 0
M  V30 27525 C 2500.7 -1.52393 -1.39943 0
M  V30 27526 C 2501.11 -0.154564 -1.88166 0
M  V30 27527 O 2500.47 0.842815 -1.61873 0
M  V30 27528 C 2500.52 -2.50341 -2.6079 0
M  V30 27529 O 2500.24 -3.81956 -2.14573 0
M  V30 27530 C 2501.74 -2.67204 -3.53718 0
M  V30 27531 H 2498.96 -0.516292 -0.428584 0
M  V30 27532 H 2501.5 -1.90301 -0.74872 0
M  V30 27533 H 2499.66 -2.15521 -3.21915 0
M  V30 27534 H 2500.07 -4.34998 -2.93047 0
M  V30 27535 H 2501.55 -3.39729 -4.35073 0
M  V30 27536 H 2502.02 -1.73036 -4.03677 0
M  V30 27537 H 2502.63 -3.02997 -2.9845 0
M  V30 27538 N 2500.95 0.855472 -1.32361 0
M  V30 27539 C 2501.89 1.96398 -1.21229 0
M  V30 27540 C 2502.86 1.6583 -0.0946496 0
M  V30 27541 O 2504.05 1.88879 -0.270054 0
M  V30 27542 C 2501.19 3.32038 -0.940477 0
M  V30 27543 C 2500.3 3.75109 -2.14283 0
M  V30 27544 C 2499.44 4.99536 -1.80657 0
M  V30 27545 C 2498.47 5.35097 -2.97217 0
M  V30 27546 N 2497.61 6.50701 -2.63689 0
M  V30 27547 H 2502.45 2.05251 -2.16046 0
M  V30 27548 H 2499.99 1.00461 -1.07453 0
M  V30 27549 H 2501.95 4.10156 -0.763383 0
M  V30 27550 H 2500.58 3.22787 -0.029098 0
M  V30 27551 H 2499.63 2.92651 -2.43022 0
M  V30 27552 H 2500.94 3.97384 -3.01475 0
M  V30 27553 H 2500.09 5.8536 -1.59494 0
M  V30 27554 H 2498.83 4.79196 -0.906762 0
M  V30 27555 H 2497.84 4.47785 -3.19012 0
M  V30 27556 H 2499.06 5.57394 -3.87928 0
M  V30 27557 H 2497.01 6.3188 -1.76249 0
M  V30 27558 H 2496.93 6.7299 -3.44412 0
M  V30 27559 H 2498.19 7.3968 -2.45955 0
M  V30 27560 N 2502.42 1.15558 1.07164 0
M  V30 27561 C 2503.67 0.942993 1.8022 0
M  V30 27562 C 2504.02 -0.524177 1.85122 0
M  V30 27563 O 2503.32 -1.38367 1.32533 0
M  V30 27564 C 2503.51 1.49337 3.24705 0
M  V30 27565 C 2503.34 3.01253 3.33881 0
M  V30 27566 C 2502.11 3.69817 3.44331 0
M  V30 27567 C 2504.31 3.99023 3.24477 0
M  V30 27568 N 2502.29 5.09524 3.4243 0
M  V30 27569 C 2503.66 5.25059 3.29717 0
M  V30 27570 C 2505.72 3.90967 3.08301 0
M  V30 27571 C 2504.42 6.43979 3.20444 0
M  V30 27572 C 2506.45 5.09447 3.00362 0
M  V30 27573 C 2505.81 6.34359 3.06216 0
M  V30 27574 H 2501.91 0.398743 0.672702 0
M  V30 27575 H 2504.49 1.46796 1.27902 0
M  V30 27576 H 2502.66 0.995012 3.75438 0
M  V30 27577 H 2504.39 1.21942 3.85892 0
M  V30 27578 H 2501.15 3.20415 3.48756 0
M  V30 27579 H 2501.57 5.82497 3.45003 0
M  V30 27580 H 2506.21 2.95257 3.02627 0
M  V30 27581 H 2503.93 7.3992 3.24875 0
M  V30 27582 H 2507.52 5.04976 2.88946 0
M  V30 27583 H 2506.4 7.24498 3.0012 0
M  V30 27584 N 2503.9 -1.25546 0.952678 0
M  V30 27585 C 2505.15 -1.92504 0.602087 0
M  V30 27586 C 2505.46 -1.75452 -0.864633 0
M  V30 27587 O 2506.67 -2.36967 -1.3251 0
M  V30 27588 C 2505.13 -3.44962 1.02613 0
M  V30 27589 C 2504.73 -3.70727 2.51526 0
M  V30 27590 C 2506.48 -4.17858 0.747979 0
M  V30 27591 C 2504.38 -5.16681 2.87741 0
M  V30 27592 H 2503.31 -0.72074 0.221473 0
M  V30 27593 H 2505.97 -1.42439 1.15687 0
M  V30 27594 H 2504.35 -3.93977 0.399781 0
M  V30 27595 H 2505.52 -3.32372 3.19163 0
M  V30 27596 H 2503.84 -3.11087 2.76792 0
M  V30 27597 H 2506.43 -5.25366 0.994739 0
M  V30 27598 H 2506.78 -4.15102 -0.315556 0
M  V30 27599 H 2507.31 -3.74745 1.33459 0
M  V30 27600 H 2504.05 -5.24547 3.93104 0
M  V30 27601 H 2503.57 -5.5609 2.24775 0
M  V30 27602 H 2505.25 -5.84787 2.76827 0
M  V30 27603 N 2505.38 -0.721022 -1.40139 0
M  V30 27604 C 2506.63 -0.259839 -2.00019 0
M  V30 27605 C 2506.94 1.15524 -1.57841 0
M  V30 27606 O 2508.15 1.71522 -2.10458 0
M  V30 27607 C 2506.6 -0.413629 -3.57515 0
M  V30 27608 C 2506.21 -1.83569 -4.08664 0
M  V30 27609 C 2507.96 -0.0135133 -4.24498 0
M  V30 27610 C 2505.86 -1.93978 -5.58683 0
M  V30 27611 H 2504.79 -0.0933938 -0.748194 0
M  V30 27612 H 2507.44 -0.892894 -1.60311 0
M  V30 27613 H 2505.83 0.288099 -3.94951 0
M  V30 27614 H 2507 -2.56824 -3.82594 0
M  V30 27615 H 2505.31 -2.18776 -3.54297 0
M  V30 27616 H 2507.91 -0.0704894 -5.34654 0
M  V30 27617 H 2508.25 1.0292 -4.03377 0
M  V30 27618 H 2508.79 -0.665884 -3.92187 0
M  V30 27619 H 2505.53 -2.9639 -5.84665 0
M  V30 27620 H 2505.05 -1.25142 -5.866 0
M  V30 27621 H 2506.73 -1.71442 -6.23872 0
M  V30 27622 N 2506.86 1.50503 -0.467606 0
M  V30 27623 C 2507.79 2.26281 0.364615 0
M  V30 27624 C 2508.8 1.31474 0.960128 0
M  V30 27625 O 2509.99 1.5701 0.849126 0
M  V30 27626 C 2507.09 3.02648 1.52503 0
M  V30 27627 C 2506.26 4.24784 1.04294 0
M  V30 27628 C 2505.32 4.83474 2.077 0
M  V30 27629 O 2504.35 5.44486 1.65903 0
M  V30 27630 N 2505.55 4.70165 3.40477 0
M  V30 27631 H 2508.32 2.98342 -0.285002 0
M  V30 27632 H 2505.88 1.5913 -0.298191 0
M  V30 27633 H 2507.87 3.38791 2.21365 0
M  V30 27634 H 2506.44 2.33408 2.07941 0
M  V30 27635 H 2505.66 3.93787 0.180324 0
M  V30 27636 H 2506.95 5.0398 0.69871 0
M  V30 27637 H 2506.35 4.21636 3.77147 0
M  V30 27638 H 2504.9 5.10587 4.05147 0
M  V30 27639 N 2508.34 0.200077 1.56325 0
M  V30 27640 C 2509.3 -0.705094 2.18085 0
M  V30 27641 C 2510.3 -1.13738 1.13668 0
M  V30 27642 O 2511.49 -1.04966 1.39025 0
M  V30 27643 C 2508.62 -1.96324 2.78693 0
M  V30 27644 H 2509.81 -0.16697 2.99435 0
M  V30 27645 H 2507.37 -0.049545 1.56221 0
M  V30 27646 H 2508.1 -2.54376 2.01155 0
M  V30 27647 H 2507.89 -1.66196 3.55136 0
M  V30 27648 H 2509.38 -2.60861 3.261 0
M  V30 27649 N 2509.81 -1.57429 -0.0734901 0
M  V30 27650 C 2511.09 -1.78228 -0.805872 0
M  V30 27651 C 2511.47 -0.787224 -1.95872 0
M  V30 27652 O 2510.82 0.179989 -2.2779 0
M  V30 27653 C 2511.03 -3.24664 -1.28039 0
M  V30 27654 C 2512.38 -3.88447 -1.71446 0
M  V30 27655 O 2513.4 -3.28545 -1.3761 0
M  V30 27656 O 2512.26 -4.93829 -2.34084 0
M  V30 27657 H 2509.35 -0.731376 -0.386028 0
M  V30 27658 H 2511.9 -1.69615 -0.0536971 0
M  V30 27659 H 2510.67 -3.88641 -0.455408 0
M  V30 27660 H 2510.29 -3.37994 -2.09394 0
M  V30 27661 N 2511.29 0.344839 -1.53781 0
M  V30 27662 C 2512.52 1.10531 -1.74901 0
M  V30 27663 C 2512.93 1.82396 -0.487566 0
M  V30 27664 O 2512.29 1.74306 0.54071 0
M  V30 27665 C 2512.34 2.11979 -2.92826 0
M  V30 27666 O 2512.06 1.43037 -4.14092 0
M  V30 27667 C 2513.56 3.00412 -3.25987 0
M  V30 27668 H 2510.78 0.329668 -0.584431 0
M  V30 27669 H 2513.33 0.397439 -2.00601 0
M  V30 27670 H 2511.48 2.78333 -2.69462 0
M  V30 27671 H 2511.9 2.10797 -4.80276 0
M  V30 27672 H 2513.37 3.67532 -4.11854 0
M  V30 27673 H 2513.85 3.66359 -2.42235 0
M  V30 27674 H 2514.45 2.39648 -3.51353 0
M  V30 27675 N 2512.77 1.45492 0.605781 0
M  V30 27676 C 2513.7 1.57146 1.72706 0
M  V30 27677 C 2514.68 0.422913 1.64759 0
M  V30 27678 O 2515.87 0.646279 1.83131 0
M  V30 27679 C 2513 1.53953 3.11313 0
M  V30 27680 C 2511.95 2.67543 3.34073 0
M  V30 27681 C 2511.28 2.49405 4.72971 0
M  V30 27682 C 2512.58 4.09541 3.24151 0
M  V30 27683 H 2514.27 2.51004 1.6321 0
M  V30 27684 H 2511.82 1.20802 0.783769 0
M  V30 27685 H 2513.77 1.60703 3.89554 0
M  V30 27686 H 2512.49 0.566261 3.21654 0
M  V30 27687 H 2511.15 2.60225 2.58222 0
M  V30 27688 H 2510.8 1.50213 4.80047 0
M  V30 27689 H 2510.5 3.25579 4.89154 0
M  V30 27690 H 2512.02 2.58011 5.5341 0
M  V30 27691 H 2513.44 4.18093 3.92264 0
M  V30 27692 H 2511.83 4.86119 3.51863 0
M  V30 27693 H 2512.9 4.31321 2.21563 0
M  V30 27694 N 2514.25 -0.848441 1.32813 0
M  V30 27695 C 2515.18 -1.97297 1.24885 0
M  V30 27696 C 2516.16 -1.69592 0.131386 0
M  V30 27697 O 2517.34 -1.91552 0.319586 0
M  V30 27698 C 2514.47 -3.33259 0.977518 0
M  V30 27699 C 2513.43 -3.75335 2.05689 0
M  V30 27700 C 2512.75 -5.08997 1.63786 0
M  V30 27701 C 2514.05 -3.90137 3.47261 0
M  V30 27702 H 2515.75 -2.04187 2.1897 0
M  V30 27703 H 2513.29 -0.98101 1.05414 0
M  V30 27704 H 2515.25 -4.11488 0.908585 0
M  V30 27705 H 2513.97 -3.266 0.00103742 0
M  V30 27706 H 2512.63 -2.99362 2.11608 0
M  V30 27707 H 2512.28 -4.988 0.648656 0
M  V30 27708 H 2511.98 -5.3812 2.36009 0
M  V30 27709 H 2513.5 -5.89712 1.58341 0
M  V30 27710 H 2514.92 -4.58703 3.43896 0
M  V30 27711 H 2513.31 -4.30685 4.17888 0
M  V30 27712 H 2514.38 -2.92867 3.86467 0
M  V30 27713 N 2515.73 -1.16125 -1.06549 0
M  V30 27714 C 2517 -0.851451 -1.76096 0
M  V30 27715 C 2517.38 0.651264 -2.00803 0
M  V30 27716 O 2516.73 1.59824 -1.63305 0
M  V30 27717 C 2516.94 -1.67128 -3.06381 0
M  V30 27718 C 2518.29 -1.88262 -3.80582 0
M  V30 27719 O 2519.31 -1.63972 -3.16215 0
M  V30 27720 O 2518.17 -2.28999 -4.96208 0
M  V30 27721 H 2515.27 -0.313937 -0.765096 0
M  V30 27722 H 2517.81 -1.26747 -1.12841 0
M  V30 27723 H 2516.58 -2.69113 -2.84066 0
M  V30 27724 H 2516.21 -1.25213 -3.77369 0
M  V30 27725 N 2517.2 1.25039 -0.959323 0
M  V30 27726 C 2518.11 2.29425 -0.490034 0
M  V30 27727 C 2519.13 1.68216 0.444915 0
M  V30 27728 O 2520.31 1.98841 0.320011 0
M  V30 27729 C 2517.37 3.46 0.220248 0
M  V30 27730 C 2516.43 4.22636 -0.753492 0
M  V30 27731 C 2515.67 5.33644 -0.0770118 0
M  V30 27732 O 2515.89 5.58965 1.13639 0
M  V30 27733 O 2514.82 5.9702 -0.764929 0
M  V30 27734 H 2518.65 2.71667 -1.3576 0
M  V30 27735 H 2516.23 1.30575 -0.725984 0
M  V30 27736 H 2518.12 4.1682 0.619604 0
M  V30 27737 H 2516.79 3.05751 1.06291 0
M  V30 27738 H 2515.7 3.54225 -1.20315 0
M  V30 27739 H 2517.03 4.6668 -1.56431 0
M  V30 27740 N 2518.68 0.728444 1.39755 0
M  V30 27741 C 2519.91 0.282195 2.05471 0
M  V30 27742 C 2520.33 -1.07218 1.54551 0
M  V30 27743 O 2519.69 -1.67804 0.686401 0
M  V30 27744 C 2519.74 0.286327 3.59461 0
M  V30 27745 O 2518.84 -0.728227 4.05919 0
M  V30 27746 H 2518.18 0.129629 0.651224 0
M  V30 27747 H 2520.71 0.992531 1.78913 0
M  V30 27748 H 2520.72 0.128444 4.07798 0
M  V30 27749 H 2519.4 1.27463 3.95886 0
M  V30 27750 H 2517.98 -0.537017 3.69013 0
M  V30 27751 N 2520.16 -1.50253 0.475581 0
M  V30 27752 C 2521.07 -2.32387 -0.32146 0
M  V30 27753 C 2522.09 -1.42971 -0.99173 0
M  V30 27754 O 2523.26 -1.7602 -0.978716 0
M  V30 27755 C 2520.33 -3.17764 -1.38661 0
M  V30 27756 C 2519.39 -4.23005 -0.732464 0
M  V30 27757 C 2518.62 -5.04302 -1.74686 0
M  V30 27758 O 2518.84 -4.86739 -2.9739 0
M  V30 27759 O 2517.78 -5.87333 -1.31621 0
M  V30 27760 H 2521.6 -3.01675 0.350124 0
M  V30 27761 H 2519.19 -1.47503 0.237347 0
M  V30 27762 H 2521.07 -3.70727 -2.00348 0
M  V30 27763 H 2519.75 -2.51199 -2.04158 0
M  V30 27764 H 2518.65 -3.74022 -0.0765245 0
M  V30 27765 H 2519.99 -4.92053 -0.120366 0
M  V30 27766 N 2521.64 -0.208365 -1.56217 0
M  V30 27767 C 2522.59 0.707153 -2.197 0
M  V30 27768 C 2523.56 1.20006 -1.14838 0
M  V30 27769 O 2524.74 1.26155 -1.43142 0
M  V30 27770 C 2521.88 1.91541 -2.87064 0
M  V30 27771 C 2520.99 1.46264 -4.06486 0
M  V30 27772 C 2520.13 2.62744 -4.6167 0
M  V30 27773 C 2519.17 2.14137 -5.73421 0
M  V30 27774 N 2518.3 3.23842 -6.22953 0
M  V30 27775 H 2523.14 0.159059 -2.97575 0
M  V30 27776 H 2520.68 0.0667615 -1.46948 0
M  V30 27777 H 2522.64 2.62462 -3.24298 0
M  V30 27778 H 2521.27 2.4366 -2.1173 0
M  V30 27779 H 2520.32 0.648821 -3.74826 0
M  V30 27780 H 2521.63 1.06613 -4.87273 0
M  V30 27781 H 2520.79 3.41767 -5.01278 0
M  V30 27782 H 2519.53 3.05676 -3.80018 0
M  V30 27783 H 2518.53 1.33571 -5.33328 0
M  V30 27784 H 2519.76 1.7222 -6.569 0
M  V30 27785 H 2517.7 3.6628 -5.44219 0
M  V30 27786 H 2517.62 2.88402 -6.98828 0
M  V30 27787 H 2518.89 4.0304 -6.67217 0
M  V30 27788 N 2523.12 1.57465 0.0651402 0
M  V30 27789 C 2524.06 2.04146 1.07671 0
M  V30 27790 C 2525.03 0.923359 1.3807 0
M  V30 27791 O 2526.22 1.19149 1.49024 0
M  V30 27792 C 2523.36 2.49583 2.38333 0
M  V30 27793 C 2522.47 3.75039 2.14406 0
M  V30 27794 C 2521.61 4.09231 3.38679 0
M  V30 27795 C 2520.65 5.27708 3.10147 0
M  V30 27796 N 2519.78 5.57506 4.26768 0
M  V30 27797 H 2524.62 2.90332 0.671665 0
M  V30 27798 H 2522.16 1.43576 0.320075 0
M  V30 27799 H 2524.12 2.73981 3.14627 0
M  V30 27800 H 2522.75 1.66365 2.76627 0
M  V30 27801 H 2521.8 3.57941 1.28773 0
M  V30 27802 H 2523.11 4.61469 1.89335 0
M  V30 27803 H 2522.27 4.34565 4.23365 0
M  V30 27804 H 2521 3.21381 3.66832 0
M  V30 27805 H 2520.01 5.02163 2.23858 0
M  V30 27806 H 2521.23 6.17181 2.8331 0
M  V30 27807 H 2519.18 4.72616 4.5494 0
M  V30 27808 H 2519.1 6.3837 4.04994 0
M  V30 27809 H 2520.37 5.87395 5.12432 0
M  V30 27810 N 2524.59 -0.336679 1.53962 0
M  V30 27811 C 2525.54 -1.41378 1.82431 0
M  V30 27812 C 2526.51 -1.51967 0.670471 0
M  V30 27813 O 2527.7 -1.67396 0.915595 0
M  V30 27814 C 2524.84 -2.77931 2.04569 0
M  V30 27815 C 2523.95 -2.76078 3.32272 0
M  V30 27816 C 2523.08 -4.04393 3.44441 0
M  V30 27817 C 2522.12 -3.96796 4.66068 0
M  V30 27818 N 2521.26 -5.16815 4.75234 0
M  V30 27819 H 2526.1 -1.164 2.74326 0
M  V30 27820 H 2523.64 -0.563728 1.35869 0
M  V30 27821 H 2525.6 -3.57297 2.15394 0
M  V30 27822 H 2524.23 -3.01245 1.15979 0
M  V30 27823 H 2523.28 -1.88778 3.30253 0
M  V30 27824 H 2524.59 -2.66344 4.21737 0
M  V30 27825 H 2523.74 -4.92186 3.54737 0
M  V30 27826 H 2522.48 -4.16917 2.53044 0
M  V30 27827 H 2521.49 -3.07388 4.55843 0
M  V30 27828 H 2522.71 -3.85849 5.58836 0
M  V30 27829 H 2520.66 -5.2987 3.86748 0
M  V30 27830 H 2520.58 -5.09364 5.58645 0
M  V30 27831 H 2521.84 -6.06359 4.89846 0
M  V30 27832 N 2526.07 -1.45812 -0.598057 0
M  V30 27833 C 2527.48 -1.44675 -1.18009 0
M  V30 27834 C 2527.83 -0.179399 -1.95378 0
M  V30 27835 O 2526.96 0.718473 -2.04125 0
M  V30 27836 C 2527.55 -2.62109 -2.14673 0
M  V30 27837 C 2526.11 -2.64062 -2.68232 0
M  V30 27838 C 2525.26 -2.37093 -1.43812 0
M  V30 27839 H 2528.21 -1.53913 -0.386833 0
M  V30 27840 H 2528.23 -2.36752 -2.97874 0
M  V30 27841 H 2527.74 -3.54333 -1.58334 0
M  V30 27842 H 2525.85 -1.75869 -3.28482 0
M  V30 27843 H 2525.96 -3.63571 -3.12014 0
M  V30 27844 H 2524.32 -1.86841 -1.73097 0
M  V30 27845 H 2525.11 -3.31475 -0.893275 0
M  V30 27846 N 2527.55 0.841385 -1.33261 0
M  V30 27847 C 2528.48 1.95802 -1.19139 0
M  V30 27848 C 2529.5 1.62335 -0.122994 0
M  V30 27849 O 2530.68 1.74555 -0.373185 0
M  V30 27850 C 2527.78 3.29217 -0.804326 0
M  V30 27851 C 2526.96 3.90836 -1.96383 0
M  V30 27852 C 2526.02 5.02601 -1.55815 0
M  V30 27853 O 2525.04 5.21884 -2.27213 0
M  V30 27854 N 2526.24 5.78661 -0.461711 0
M  V30 27855 H 2529.01 2.08454 -2.1533 0
M  V30 27856 H 2526.57 1.01698 -1.25973 0
M  V30 27857 H 2528.56 4.01409 -0.515081 0
M  V30 27858 H 2527.13 3.12529 0.0668259 0
M  V30 27859 H 2526.35 3.11265 -2.41884 0
M  V30 27860 H 2527.64 4.28737 -2.73974 0
M  V30 27861 H 2527.04 5.65545 0.132243 0
M  V30 27862 H 2525.6 6.51387 -0.232128 0
M  V30 27863 N 2529.03 1.16688 1.05932 0
M  V30 27864 C 2529.96 0.834541 2.13467 0
M  V30 27865 C 2530.97 -0.159812 1.62014 0
M  V30 27866 O 2532.16 0.0654542 1.7838 0
M  V30 27867 C 2529.26 0.22242 3.38169 0
M  V30 27868 C 2528.44 1.25778 4.18926 0
M  V30 27869 C 2527.5 0.664794 5.21984 0
M  V30 27870 O 2526.52 1.33462 5.53332 0
M  V30 27871 N 2527.72 -0.546732 5.7792 0
M  V30 27872 H 2530.49 1.76004 2.42575 0
M  V30 27873 H 2528.05 1.06471 1.21965 0
M  V30 27874 H 2530.04 -0.187401 4.04266 0
M  V30 27875 H 2528.61 -0.606704 3.06656 0
M  V30 27876 H 2527.83 1.84364 3.4843 0
M  V30 27877 H 2529.12 1.95639 4.69684 0
M  V30 27878 H 2528.52 -1.10903 5.54723 0
M  V30 27879 H 2527.07 -0.898715 6.45574 0
M  V30 27880 N 2530.51 -1.24529 0.96594 0
M  V30 27881 C 2531.45 -2.2545 0.49406 0
M  V30 27882 C 2532.42 -1.59619 -0.459452 0
M  V30 27883 O 2533.61 -1.87174 -0.370205 0
M  V30 27884 C 2530.75 -3.44453 -0.211298 0
M  V30 27885 C 2529.86 -4.24886 0.780775 0
M  V30 27886 C 2529 -5.31175 0.0517039 0
M  V30 27887 C 2528.04 -6.03304 1.03396 0
M  V30 27888 N 2527.17 -7.013 0.33501 0
M  V30 27889 H 2532.01 -2.65182 1.35951 0
M  V30 27890 H 2529.55 -1.30359 0.681538 0
M  V30 27891 H 2531.51 -4.12309 -0.636927 0
M  V30 27892 H 2530.14 -3.05563 -1.04072 0
M  V30 27893 H 2529.19 -3.56584 1.32485 0
M  V30 27894 H 2530.5 -4.74759 1.52987 0
M  V30 27895 H 2529.66 -6.0516 -0.432008 0
M  V30 27896 H 2528.4 -4.82204 -0.730095 0
M  V30 27897 H 2527.4 -5.28124 1.52856 0
M  V30 27898 H 2528.63 -6.54364 1.81617 0
M  V30 27899 H 2526.57 -6.54603 -0.427844 0
M  V30 27900 H 2526.49 -7.49047 1.023 0
M  V30 27901 H 2527.76 -7.79397 -0.126791 0
M  V30 27902 N 2531.99 -0.735845 -1.39367 0
M  V30 27903 C 2532.9 -0.0980105 -2.34395 0
M  V30 27904 C 2533.91 0.72094 -1.58362 0
M  V30 27905 O 2535.09 0.649211 -1.90649 0
M  V30 27906 C 2532.15 0.797857 -3.37395 0
M  V30 27907 C 2531.21 -0.0334417 -4.29287 0
M  V30 27908 C 2530.45 0.819761 -5.27367 0
M  V30 27909 O 2530.67 2.05845 -5.31962 0
M  V30 27910 O 2529.6 0.247973 -6.01389 0
M  V30 27911 H 2533.43 -0.882366 -2.90599 0
M  V30 27912 H 2531.01 -0.496525 -1.40908 0
M  V30 27913 H 2532.9 1.31041 -4.00507 0
M  V30 27914 H 2531.57 1.56101 -2.83574 0
M  V30 27915 H 2530.48 -0.59154 -3.69394 0
M  V30 27916 H 2531.81 -0.758837 -4.86315 0
M  V30 27917 N 2533.46 1.49999 -0.483543 0
M  V30 27918 C 2534.74 1.95172 0.129302 0
M  V30 27919 C 2535.12 1.42442 1.55799 0
M  V30 27920 O 2534.47 0.630688 2.19624 0
M  V30 27921 C 2534.68 3.48949 0.0598638 0
M  V30 27922 C 2536.03 4.23907 0.242543 0
M  V30 27923 O 2537.05 3.55941 0.135871 0
M  V30 27924 O 2535.91 5.44566 0.459358 0
M  V30 27925 H 2533 0.820323 0.104873 0
M  V30 27926 H 2535.55 1.60716 -0.544835 0
M  V30 27927 H 2534.32 3.79912 -0.937146 0
M  V30 27928 H 2533.94 3.89975 0.774916 0
M  V30 27929 N 2534.94 0.216646 1.56104 0
M  V30 27930 C 2536.19 -0.416998 1.98467 0
M  V30 27931 C 2536.52 -1.59763 1.10405 0
M  V30 27932 O 2535.8 -1.93835 0.160666 0
M  V30 27933 C 2536.08 -0.856308 3.4977 0
M  V30 27934 C 2535.93 0.327625 4.48605 0
M  V30 27935 C 2537.25 -1.71423 4.05342 0
M  V30 27936 H 2534.37 -0.150099 0.721553 0
M  V30 27937 H 2537.01 0.311897 1.87423 0
M  V30 27938 H 2535.16 -1.47738 3.59313 0
M  V30 27939 H 2536.83 0.965697 4.51079 0
M  V30 27940 H 2535.08 0.975879 4.22681 0
M  V30 27941 H 2535.75 -0.0226179 5.51995 0
M  V30 27942 H 2538.22 -1.19024 3.98714 0
M  V30 27943 H 2537.1 -1.99052 5.11536 0
M  V30 27944 H 2537.36 -2.67587 3.51923 0
M  V30 27945 N 2536.42 -1.57498 -0.0567885 0
M  V30 27946 C 2537.35 -2.07752 -1.06589 0
M  V30 27947 C 2538.33 -0.974106 -1.39446 0
M  V30 27948 O 2539.52 -1.24773 -1.48813 0
M  V30 27949 C 2536.65 -2.53394 -2.37505 0
M  V30 27950 C 2535.6 -3.67749 -2.18963 0
M  V30 27951 C 2534.93 -3.99498 -3.55395 0
M  V30 27952 C 2536.23 -4.97238 -1.5985 0
M  V30 27953 H 2537.92 -2.92311 -0.647655 0
M  V30 27954 H 2535.47 -1.40622 -0.310091 0
M  V30 27955 H 2537.42 -2.87167 -3.08404 0
M  V30 27956 H 2536.14 -1.65883 -2.81337 0
M  V30 27957 H 2534.8 -3.34282 -1.50502 0
M  V30 27958 H 2534.45 -3.09095 -3.96824 0
M  V30 27959 H 2534.15 -4.76508 -3.43823 0
M  V30 27960 H 2535.67 -4.3578 -4.27701 0
M  V30 27961 H 2537.09 -5.29145 -2.20632 0
M  V30 27962 H 2535.48 -5.78671 -1.58932 0
M  V30 27963 H 2536.55 -4.81639 -0.561421 0
M  V30 27964 N 2537.9 0.328509 -1.54138 0
M  V30 27965 C 2538.84 1.40408 -1.83178 0
M  V30 27966 C 2539.81 1.51609 -0.678521 0
M  V30 27967 O 2541 1.66908 -0.924459 0
M  V30 27968 C 2538.14 2.76842 -2.0604 0
M  V30 27969 C 2537.25 2.74312 -3.33732 0
M  V30 27970 C 2536.39 4.02561 -3.46581 0
M  V30 27971 C 2535.43 3.94319 -4.68166 0
M  V30 27972 N 2534.56 5.14287 -4.77968 0
M  V30 27973 H 2539.4 1.14944 -2.7494 0
M  V30 27974 H 2536.94 0.556514 -1.36167 0
M  V30 27975 H 2538.9 3.5615 -2.17286 0
M  V30 27976 H 2537.53 3.00626 -1.17575 0
M  V30 27977 H 2536.58 1.87024 -3.31249 0
M  V30 27978 H 2537.89 2.64103 -4.23144 0
M  V30 27979 H 2537.05 4.90298 -3.57342 0
M  V30 27980 H 2535.79 4.15569 -2.55252 0
M  V30 27981 H 2534.79 3.04966 -4.57467 0
M  V30 27982 H 2536.02 3.8288 -5.60874 0
M  V30 27983 H 2533.96 5.27811 -3.89553 0
M  V30 27984 H 2533.88 5.06394 -5.61338 0
M  V30 27985 H 2535.15 6.03753 -4.93055 0
M  V30 27986 N 2539.38 1.46127 0.590316 0
M  V30 27987 C 2540.79 1.30914 0.912894 0
M  V30 27988 C 2540.99 0.274928 1.99616 0
M  V30 27989 O 2540.05 -0.325153 2.50398 0
M  V30 27990 C 2541.36 2.69319 1.33745 0
M  V30 27991 C 2542.91 2.7735 1.45072 0
M  V30 27992 C 2543.38 4.1632 1.90897 0
M  V30 27993 N 2544.87 4.187 1.98103 0
M  V30 27994 C 2545.61 5.23113 2.34819 0
M  V30 27995 N 2545.11 6.3786 2.70381 0
M  V30 27996 N 2546.9 5.10477 2.35308 0
M  V30 27997 H 2539.05 2.1203 -0.125395 0
M  V30 27998 H 2541.31 0.947977 0.00656814 0
M  V30 27999 H 2541.02 3.46271 0.615554 0
M  V30 28000 H 2540.89 2.98924 2.30053 0
M  V30 28001 H 2543.28 2.00691 2.1635 0
M  V30 28002 H 2543.36 2.51438 0.470355 0
M  V30 28003 H 2543 4.93472 1.202 0
M  V30 28004 H 2542.93 4.39634 2.89878 0
M  V30 28005 H 2545.43 3.35903 1.7314 0
M  V30 28006 H 2545.74 7.13313 2.97329 0
M  V30 28007 H 2544.08 6.41234 2.68037 0
M  V30 28008 H 2547.27 4.19872 2.06943 0
M  V30 28009 H 2547.45 5.91964 2.63595 0
M  V30 28010 N 2540.85 -0.834306 1.33705 0
M  V30 28011 C 2541.78 -1.95961 1.26971 0
M  V30 28012 C 2542.76 -1.69443 0.149366 0
M  V30 28013 O 2543.95 -1.91203 0.339885 0
M  V30 28014 C 2541.08 -3.32204 1.01281 0
M  V30 28015 C 2540.03 -3.73132 2.09658 0
M  V30 28016 C 2539.36 -5.07232 1.69175 0
M  V30 28017 C 2540.66 -3.86432 3.51379 0
M  V30 28018 H 2542.35 -2.01854 2.21123 0
M  V30 28019 H 2539.9 -0.969775 1.06449 0
M  V30 28020 H 2541.85 -4.10502 0.952178 0
M  V30 28021 H 2540.58 -3.26581 0.0356777 0
M  V30 28022 H 2539.24 -2.97101 2.14771 0
M  V30 28023 H 2538.88 -4.98084 0.701524 0
M  V30 28024 H 2538.58 -5.35587 2.41704 0
M  V30 28025 H 2540.11 -5.88 1.64586 0
M  V30 28026 H 2541.52 -4.5503 3.48742 0
M  V30 28027 H 2539.92 -4.26229 4.22432 0
M  V30 28028 H 2540.99 -2.88752 3.89552 0
M  V30 28029 N 2542.33 -1.17248 -1.05312 0
M  V30 28030 C 2543.28 -0.888096 -2.13029 0
M  V30 28031 C 2544.25 0.167508 -1.65253 0
M  V30 28032 O 2545.43 0.0305639 -1.90776 0
M  V30 28033 C 2542.57 -0.406207 -3.42701 0
M  V30 28034 C 2541.69 -1.52579 -4.04158 0
M  V30 28035 C 2540.82 -0.9979 -5.21743 0
M  V30 28036 C 2539.86 -2.09301 -5.75204 0
M  V30 28037 N 2539 -1.57998 -6.84091 0
M  V30 28038 H 2543.84 -1.81052 -2.36694 0
M  V30 28039 H 2541.37 -0.903034 -1.16119 0
M  V30 28040 H 2543.33 -0.108378 -4.17059 0
M  V30 28041 H 2541.96 0.479257 -3.19222 0
M  V30 28042 H 2541.01 -1.93937 -3.2725 0
M  V30 28043 H 2542.33 -2.3518 -4.39877 0
M  V30 28044 H 2541.48 -0.653845 -6.03166 0
M  V30 28045 H 2540.22 -0.141318 -4.87495 0
M  V30 28046 H 2539.22 -2.44566 -4.9241 0
M  V30 28047 H 2540.45 -2.95373 -6.11499 0
M  V30 28048 H 2538.4 -0.746094 -6.51743 0
M  V30 28049 H 2538.31 -2.34207 -7.18807 0
M  V30 28050 H 2539.58 -1.26482 -7.6917 0
M  V30 28051 N 2543.81 1.24015 -0.972531 0
M  V30 28052 C 2544.77 2.23421 -0.511442 0
M  V30 28053 C 2545.77 1.55882 0.394651 0
M  V30 28054 O 2546.96 1.73167 0.189438 0
M  V30 28055 C 2544.1 3.39917 0.258709 0
M  V30 28056 H 2545.29 2.65727 -1.39029 0
M  V30 28057 H 2542.84 1.36711 -0.757609 0
M  V30 28058 H 2543.58 3.03056 1.15445 0
M  V30 28059 H 2543.36 3.9014 -0.391591 0
M  V30 28060 H 2544.85 4.13689 0.570172 0
M  V30 28061 N 2545.29 0.743226 1.38974 0
M  V30 28062 C 2546.2 0.11044 2.3434 0
M  V30 28063 C 2547.21 -0.712531 1.58742 0
M  V30 28064 O 2548.39 -0.639092 1.90991 0
M  V30 28065 C 2545.46 -0.779953 3.37813 0
M  V30 28066 C 2544.52 0.0562073 4.29263 0
M  V30 28067 C 2543.75 -0.791782 5.27794 0
M  V30 28068 O 2543.97 -2.03021 5.33046 0
M  V30 28069 O 2542.91 -0.216077 6.01512 0
M  V30 28070 H 2546.73 0.897765 2.90127 0
M  V30 28071 H 2544.32 0.503991 1.40642 0
M  V30 28072 H 2546.2 -1.28916 4.01197 0
M  V30 28073 H 2544.87 -1.54595 2.84398 0
M  V30 28074 H 2543.78 0.611121 3.69075 0
M  V30 28075 H 2545.11 0.784617 4.85906 0
M  V30 28076 N 2546.77 -1.4974 0.491491 0
M  V30 28077 C 2547.7 -2.31797 -0.2815 0
M  V30 28078 C 2548.68 -1.39631 -0.971448 0
M  V30 28079 O 2549.86 -1.68545 -0.964689 0
M  V30 28080 C 2546.99 -3.19905 -1.35197 0
M  V30 28081 C 2545.95 -4.20787 -0.782455 0
M  V30 28082 C 2545.27 -4.97767 -1.95274 0
M  V30 28083 C 2546.57 -5.21836 0.220082 0
M  V30 28084 H 2548.27 -2.9667 0.403407 0
M  V30 28085 H 2545.81 -1.42667 0.19545 0
M  V30 28086 H 2547.77 -3.76116 -1.90038 0
M  V30 28087 H 2546.49 -2.52956 -2.06593 0
M  V30 28088 H 2545.15 -3.65706 -0.255864 0
M  V30 28089 H 2544.8 -4.27274 -2.65416 0
M  V30 28090 H 2544.5 -5.66021 -1.57779 0
M  V30 28091 H 2546.02 -5.5682 -2.50567 0
M  V30 28092 H 2547.43 -5.72798 -0.239859 0
M  V30 28093 H 2545.83 -5.97926 0.510365 0
M  V30 28094 H 2546.9 -4.71328 1.13919 0
M  V30 28095 N 2548.24 -0.224922 -1.55987 0
M  V30 28096 C 2549.19 0.700244 -2.21809 0
M  V30 28097 C 2550.19 1.19712 -1.19856 0
M  V30 28098 O 2551.39 1.15655 -1.37927 0
M  V30 28099 H 2547.77 0.244245 -0.71123 0
M  V30 28100 H 2549.74 0.121696 -2.98152 0
M  V30 28101 C 2548.49 1.89615 -2.91447 0
M  V30 28102 H 2547.81 1.52293 -3.69658 0
M  V30 28103 H 2549.25 2.52119 -3.40899 0
M  V30 28104 C 2547.71 2.75365 -1.94103 0
M  V30 28105 O 2548.24 3.74224 -1.4601 0
M  V30 28106 N 2546.45 2.41471 -1.61679 0
M  V30 28107 H 2545.99 1.61133 -2.00982 0
M  V30 28108 H 2545.95 2.99124 -0.968089 0
M  V30 28109 N 2549.72 1.57526 0.0484352 0
M  V30 28110 C 2551 1.79487 0.777415 0
M  V30 28111 C 2551.38 0.818286 1.94595 0
M  V30 28112 O 2550.73 -0.143726 2.28048 0
M  V30 28113 C 2550.94 3.2666 1.22858 0
M  V30 28114 C 2552.29 3.91126 1.65245 0
M  V30 28115 O 2553.31 3.30693 1.32366 0
M  V30 28116 O 2552.17 4.9749 2.26198 0
M  V30 28117 H 2549.26 0.737425 0.374344 0
M  V30 28118 H 2551.81 1.69679 0.026706 0
M  V30 28119 H 2550.58 3.89316 0.393521 0
M  V30 28120 H 2550.2 3.41283 2.0399 0
M  V30 28121 N 2551.2 -0.32033 1.5431 0
M  V30 28122 C 2552.45 -1.05543 1.71882 0
M  V30 28123 C 2552.76 -1.8907 0.501176 0
M  V30 28124 O 2553.97 -2.65698 0.558305 0
M  V30 28125 C 2552.42 -1.92599 3.04029 0
M  V30 28126 C 2552.03 -1.14168 4.33209 0
M  V30 28127 C 2553.78 -2.65826 3.30964 0
M  V30 28128 C 2551.68 -2.00389 5.56416 0
M  V30 28129 H 2550.61 -0.397752 0.640554 0
M  V30 28130 H 2553.26 -0.31349 1.80802 0
M  V30 28131 H 2551.65 -2.70705 2.89024 0
M  V30 28132 H 2552.82 -0.408109 4.58989 0
M  V30 28133 H 2551.14 -0.526092 4.13063 0
M  V30 28134 H 2553.73 -3.30649 4.20209 0
M  V30 28135 H 2554.08 -3.33635 2.48985 0
M  V30 28136 H 2554.61 -1.9478 3.46851 0
M  V30 28137 H 2551.35 -1.37082 6.41006 0
M  V30 28138 H 2550.87 -2.71471 5.34849 0
M  V30 28139 H 2552.55 -2.58898 5.92943 0
M  V30 28140 N 2552.68 -1.46438 -0.582558 0
M  V30 28141 C 2554.09 -1.31396 -0.905939 0
M  V30 28142 C 2554.29 -0.285511 -1.99467 0
M  V30 28143 O 2553.35 0.311869 -2.50567 0
M  V30 28144 C 2554.66 -2.70024 -1.32315 0
M  V30 28145 C 2556.21 -2.78116 -1.43599 0
M  V30 28146 C 2556.69 -4.17326 -1.88687 0
M  V30 28147 N 2558.18 -4.19744 -1.9588 0
M  V30 28148 C 2558.91 -5.24351 -2.32042 0
M  V30 28149 N 2558.41 -6.39285 -2.66995 0
M  V30 28150 N 2560.2 -5.11718 -2.32597 0
M  V30 28151 H 2552.35 -2.1196 0.136638 0
M  V30 28152 H 2554.62 -0.947999 -0.0015407 0
M  V30 28153 H 2554.32 -3.46593 -0.597181 0
M  V30 28154 H 2554.2 -3.0014 -2.28464 0
M  V30 28155 H 2556.58 -2.01835 -2.15282 0
M  V30 28156 H 2556.66 -2.51684 -0.457014 0
M  V30 28157 H 2556.31 -4.94102 -1.17582 0
M  V30 28158 H 2556.24 -4.41165 -2.87543 0
M  V30 28159 H 2558.73 -3.36817 -1.71356 0
M  V30 28160 H 2559.04 -7.1488 -2.93542 0
M  V30 28161 H 2557.39 -6.42646 -2.64633 0
M  V30 28162 H 2560.58 -4.20963 -2.04713 0
M  V30 28163 H 2560.75 -5.93354 -2.60452 0
M  V30 28164 N 2554.16 0.827204 -1.34146 0
M  V30 28165 C 2555.57 1.39964 -1.23559 0
M  V30 28166 C 2555.92 1.95695 0.140697 0
M  V30 28167 O 2555.04 1.89725 1.04084 0
M  V30 28168 C 2555.64 2.54437 -2.23712 0
M  V30 28169 C 2554.2 3.07601 -2.1693 0
M  V30 28170 C 2553.34 1.80452 -2.10552 0
M  V30 28171 H 2556.3 0.631965 -1.45574 0
M  V30 28172 H 2556.32 3.32408 -1.85163 0
M  V30 28173 H 2555.83 2.13845 -3.2387 0
M  V30 28174 H 2553.93 3.52709 -1.20113 0
M  V30 28175 H 2554.04 3.66982 -3.07995 0
M  V30 28176 H 2552.41 2.01175 -1.56207 0
M  V30 28177 H 2553.19 1.4204 -3.12537 0
M  V30 28178 N 2555.63 1.17805 1.04688 0
M  V30 28179 C 2556.58 0.899381 2.12555 0
M  V30 28180 C 2557.55 -0.158742 1.6534 0
M  V30 28181 O 2558.74 -0.0204462 1.90789 0
M  V30 28182 C 2555.88 0.424375 3.42481 0
M  V30 28183 C 2554.99 1.5472 4.03343 0
M  V30 28184 C 2554.12 1.02556 5.21206 0
M  V30 28185 C 2553.16 2.12349 5.74086 0
M  V30 28186 N 2552.3 1.61624 6.83244 0
M  V30 28187 H 2557.14 1.82305 2.35731 0
M  V30 28188 H 2554.68 0.909179 1.15639 0
M  V30 28189 H 2556.64 0.130495 4.16996 0
M  V30 28190 H 2555.27 -0.462321 3.19472 0
M  V30 28191 H 2554.32 1.9567 3.26217 0
M  V30 28192 H 2555.63 2.37509 4.38624 0
M  V30 28193 H 2554.78 0.685824 6.02811 0
M  V30 28194 H 2553.52 0.167169 4.87413 0
M  V30 28195 H 2552.53 2.47174 4.91106 0
M  V30 28196 H 2553.75 2.98612 6.09924 0
M  V30 28197 H 2551.7 0.780647 6.51339 0
M  V30 28198 H 2551.62 2.38016 7.17554 0
M  V30 28199 H 2552.88 1.30559 7.68489 0
M  V30 28200 N 2557.11 -1.23497 0.979094 0
M  V30 28201 C 2558.36 -1.92162 0.648212 0
M  V30 28202 C 2558.69 -1.76224 -0.816018 0
M  V30 28203 O 2557.97 -1.1224 -1.58847 0
M  V30 28204 C 2558.25 -3.44822 1.03779 0
M  V30 28205 C 2558.1 -3.69874 2.55955 0
M  V30 28206 C 2559.42 -4.36252 0.58073 0
M  V30 28207 H 2556.54 -0.697866 0.236964 0
M  V30 28208 H 2559.18 -1.45645 1.22014 0
M  V30 28209 H 2557.33 -3.84571 0.551126 0
M  V30 28210 H 2559 -3.39615 3.12185 0
M  V30 28211 H 2557.25 -3.14631 2.98647 0
M  V30 28212 H 2557.92 -4.76732 2.78263 0
M  V30 28213 H 2560.39 -4.03941 0.998536 0
M  V30 28214 H 2559.27 -5.41771 0.881759 0
M  V30 28215 H 2559.53 -4.39043 -0.518975 0
M  V30 28216 N 2558.59 -0.750586 -1.38578 0
M  V30 28217 C 2559.87 -0.231043 -1.94231 0
M  V30 28218 C 2560.25 1.27015 -1.68613 0
M  V30 28219 O 2559.6 2.04321 -1.023 0
M  V30 28220 C 2559.81 -0.581489 -3.44122 0
M  V30 28221 C 2561.15 -0.539463 -4.21159 0
M  V30 28222 O 2562.18 -0.519603 -3.5239 0
M  V30 28223 O 2561.04 -0.547745 -5.43748 0
M  V30 28224 H 2558.13 -0.0474408 -0.825638 0
M  V30 28225 H 2560.68 -0.830504 -1.47989 0
M  V30 28226 H 2559.45 -1.61839 -3.56264 0
M  V30 28227 H 2559.07 0.0461348 -3.97573 0
M  V30 28228 N 2560.07 1.49477 -0.499425 0
M  V30 28229 C 2561.29 2.07352 0.0446855 0
M  V30 28230 C 2561.72 1.35751 1.30205 0
M  V30 28231 O 2561.08 0.413763 1.76515 0
M  V30 28232 C 2561.13 3.59488 0.28295 0
M  V30 28233 O 2560.23 3.89401 1.35798 0
M  V30 28234 H 2559.57 0.663509 -0.0255263 0
M  V30 28235 H 2562.1 1.92304 -0.698594 0
M  V30 28236 H 2562.11 4.04737 0.514936 0
M  V30 28237 H 2560.79 4.11013 -0.635708 0
M  V30 28238 H 2559.36 3.55963 1.11107 0
M  V30 28239 N 2561.55 0.233191 1.55865 0
M  V30 28240 C 2562.78 -0.39987 2.02999 0
M  V30 28241 C 2563.19 -1.52522 1.11277 0
M  V30 28242 O 2562.55 -1.82074 0.12456 0
M  V30 28243 C 2562.6 -0.920578 3.49582 0
M  V30 28244 O 2562.32 0.159911 4.37808 0
M  V30 28245 C 2563.82 -1.62571 4.12414 0
M  V30 28246 H 2561.04 -0.0966164 0.664008 0
M  V30 28247 H 2563.58 0.353048 2.01429 0
M  V30 28248 H 2561.74 -1.62372 3.5173 0
M  V30 28249 H 2562.15 -0.233278 5.23981 0
M  V30 28250 H 2563.63 -1.94192 5.16714 0
M  V30 28251 H 2564.1 -2.54293 3.58095 0
M  V30 28252 H 2564.71 -0.96748 4.1415 0
M  V30 28253 N 2563.03 -1.57549 -0.0400806 0
M  V30 28254 C 2564.44 -1.54621 -0.395529 0
M  V30 28255 C 2564.64 -0.95783 -1.77279 0
M  V30 28256 O 2563.7 -0.574074 -2.45887 0
M  V30 28257 C 2565.01 -2.99124 -0.307482 0
M  V30 28258 C 2566.56 -3.10619 -0.38537 0
M  V30 28259 C 2567.03 -4.56832 -0.326892 0
M  V30 28260 N 2568.52 -4.61589 -0.386021 0
M  V30 28261 C 2569.26 -5.72247 -0.36349 0
M  V30 28262 N 2568.76 -6.92176 -0.293899 0
M  V30 28263 N 2570.55 -5.60585 -0.412405 0
M  V30 28264 H 2562.7 -1.9415 0.861359 0
M  V30 28265 H 2564.96 -0.890015 0.326461 0
M  V30 28266 H 2564.67 -3.45855 0.638522 0
M  V30 28267 H 2564.54 -3.60638 -1.10545 0
M  V30 28268 H 2566.93 -2.63842 -1.3218 0
M  V30 28269 H 2567.01 -2.51957 0.441755 0
M  V30 28270 H 2566.65 -5.04274 0.605827 0
M  V30 28271 H 2566.58 -5.13393 -1.17198 0
M  V30 28272 H 2569.08 -3.75297 -0.442766 0
M  V30 28273 H 2569.39 -7.72287 -0.281504 0
M  V30 28274 H 2567.73 -6.94513 -0.26011 0
M  V30 28275 H 2570.92 -4.65788 -0.464687 0
M  V30 28276 H 2571.1 -6.46817 -0.391378 0
M  V30 28277 N 2564.5 0.312142 -1.54478 0
M  V30 28278 C 2565.78 1.06764 -1.63893 0
M  V30 28279 C 2566.16 2.05569 -0.480064 0
M  V30 28280 O 2565.51 2.224 0.524448 0
M  V30 28281 C 2565.72 1.75943 -3.01405 0
M  V30 28282 C 2567.07 2.28548 -3.57842 0
M  V30 28283 O 2568.09 1.85992 -3.03785 0
M  V30 28284 O 2566.95 3.06489 -4.52467 0
M  V30 28285 H 2564.04 0.492804 -0.664133 0
M  V30 28286 H 2566.59 0.31112 -1.66824 0
M  V30 28287 H 2565.36 1.04138 -3.77188 0
M  V30 28288 H 2564.98 2.58378 -3.02203 0
M  V30 28289 N 2565.98 1.46745 0.574784 0
M  V30 28290 C 2566.91 1.53949 1.69801 0
M  V30 28291 C 2567.93 0.427134 1.57097 0
M  V30 28292 O 2569.12 0.695892 1.64376 0
M  V30 28293 C 2566.22 1.41116 3.08123 0
M  V30 28294 C 2565.39 2.66611 3.46753 0
M  V30 28295 C 2564.45 2.47864 4.64166 0
M  V30 28296 O 2563.47 3.21617 4.69629 0
M  V30 28297 N 2564.68 1.54544 5.5955 0
M  V30 28298 H 2567.44 2.50799 1.64073 0
M  V30 28299 H 2565 1.42901 0.760975 0
M  V30 28300 H 2566.99 1.26334 3.84476 0
M  V30 28301 H 2565.56 0.524163 3.08174 0
M  V30 28302 H 2564.78 2.96278 2.60025 0
M  V30 28303 H 2566.07 3.4996 3.69331 0
M  V30 28304 H 2565.47 0.937402 5.57879 0
M  V30 28305 H 2564.03 1.45722 6.35302 0
M  V30 28306 N 2567.46 -0.820078 1.34583 0
M  V30 28307 C 2568.42 -1.91273 1.26283 0
M  V30 28308 C 2569.42 -1.59819 0.177372 0
M  V30 28309 O 2570.61 -1.68805 0.430186 0
M  V30 28310 C 2567.74 -3.27384 0.950385 0
M  V30 28311 H 2568.94 -2.00054 2.23425 0
M  V30 28312 H 2566.49 -1.01438 1.18912 0
M  V30 28313 H 2567.23 -3.24295 -0.0177368 0
M  V30 28314 H 2567.01 -3.51598 1.73556 0
M  V30 28315 H 2568.5 -4.07395 0.917564 0
M  V30 28316 N 2568.94 -1.18359 -1.04062 0
M  V30 28317 C 2569.9 -0.912744 -2.10242 0
M  V30 28318 C 2570.9 0.1019 -1.60477 0
M  V30 28319 O 2572.09 -0.131547 -1.73703 0
M  V30 28320 C 2569.22 -0.369446 -3.38892 0
M  V30 28321 H 2570.42 -1.8543 -2.35702 0
M  V30 28322 H 2567.97 -0.995615 -1.20487 0
M  V30 28323 H 2568.7 0.57872 -3.19095 0
M  V30 28324 H 2568.49 -1.10086 -3.76329 0
M  V30 28325 H 2569.98 -0.198648 -4.17127 0
M  V30 28326 N 2570.42 1.22976 -0.98563 0
M  V30 28327 C 2571.36 2.26652 -0.522671 0
M  V30 28328 C 2572.36 1.64035 0.422969 0
M  V30 28329 O 2573.56 1.77545 0.296287 0
M  V30 28330 H 2569.94 0.736764 -0.15061 0
M  V30 28331 H 2571.91 2.63057 -1.40867 0
M  V30 28332 C 2570.66 3.47358 0.154177 0
M  V30 28333 H 2569.98 3.95796 -0.564399 0
M  V30 28334 H 2571.42 4.21693 0.441669 0
M  V30 28335 C 2569.88 3.07018 1.38713 0
M  V30 28336 O 2570.41 3.15768 2.48301 0
M  V30 28337 N 2568.62 2.61877 1.25971 0
M  V30 28338 H 2568.16 2.54958 0.368023 0
M  V30 28339 H 2568.12 2.35254 2.08574 0
M  V30 28340 N 2571.89 0.757924 1.38178 0
M  V30 28341 C 2572.82 0.148638 2.33026 0
M  V30 28342 C 2573.8 -0.698723 1.55087 0
M  V30 28343 O 2574.99 -0.63902 1.83385 0
M  V30 28344 C 2572.12 -0.741975 3.39282 0
M  V30 28345 C 2571.07 0.00299469 4.28 0
M  V30 28346 C 2570.4 -1.00615 5.25148 0
M  V30 28347 C 2571.7 1.17394 5.08936 0
M  V30 28348 H 2573.39 0.940959 2.84229 0
M  V30 28349 H 2570.94 0.453932 1.36658 0
M  V30 28350 H 2572.89 -1.17792 4.04602 0
M  V30 28351 H 2571.62 -1.56666 2.86571 0
M  V30 28352 H 2570.28 0.419568 3.64191 0
M  V30 28353 H 2569.92 -1.82502 4.68724 0
M  V30 28354 H 2569.62 -0.512325 5.85362 0
M  V30 28355 H 2571.15 -1.44133 5.93345 0
M  V30 28356 H 2572.56 0.815324 5.67473 0
M  V30 28357 H 2570.96 1.59892 5.78407 0
M  V30 28358 H 2572.03 1.98475 4.4242 0
M  V30 28359 N 2573.37 -1.4921 0.507345 0
M  V30 28360 C 2574.31 -2.26023 -0.314469 0
M  V30 28361 C 2575.28 -1.30881 -0.964826 0
M  V30 28362 O 2576.47 -1.60182 -0.993679 0
M  V30 28363 C 2573.59 -3.06404 -1.4434 0
M  V30 28364 C 2572.64 -4.16749 -0.906776 0
M  V30 28365 S 2573.47 -5.35098 0.207487 0
M  V30 28366 C 2574.63 -6.19035 -0.924464 0
M  V30 28367 H 2574.86 -2.95378 0.337468 0
M  V30 28368 H 2572.4 -1.51599 0.292744 0
M  V30 28369 H 2574.35 -3.53298 -2.09023 0
M  V30 28370 H 2573.01 -2.36506 -2.06698 0
M  V30 28371 H 2572.21 -4.72531 -1.75301 0
M  V30 28372 H 2571.81 -3.72478 -0.337055 0
M  V30 28373 H 2574.1 -6.52365 -1.82828 0
M  V30 28374 H 2575.04 -7.0694 -0.405123 0
M  V30 28375 H 2575.45 -5.51714 -1.19466 0
M  V30 28376 N 2574.85 -0.241454 -1.55739 0
M  V30 28377 C 2575.81 0.647025 -2.19878 0
M  V30 28378 C 2576.81 1.10684 -1.16644 0
M  V30 28379 O 2578 1.01243 -1.41759 0
M  V30 28380 C 2575.14 1.88866 -2.838 0
M  V30 28381 H 2576.33 0.0875213 -2.99772 0
M  V30 28382 H 2573.88 0.00810826 -1.56298 0
M  V30 28383 H 2574.62 2.48953 -2.07829 0
M  V30 28384 H 2574.4 1.56722 -3.59417 0
M  V30 28385 H 2575.89 2.52123 -3.32902 0
M  V30 28386 N 2576.33 1.57568 0.0317248 0
M  V30 28387 C 2577.28 2.0747 1.05161 0
M  V30 28388 C 2578.27 0.987944 1.37608 0
M  V30 28389 O 2579.48 1.17284 1.36544 0
M  V30 28390 H 2575.85 0.662047 0.356649 0
M  V30 28391 H 2577.82 2.92204 0.604906 0
M  V30 28392 C 2576.57 2.56735 2.34484 0
M  V30 28393 H 2575.89 3.39973 2.10377 0
M  V30 28394 H 2577.33 2.95364 3.04198 0
M  V30 28395 C 2575.79 1.46742 3.03263 0
M  V30 28396 O 2576.32 0.832138 3.92986 0
M  V30 28397 N 2574.53 1.20261 2.64548 0
M  V30 28398 H 2574.08 1.72105 1.91671 0
M  V30 28399 H 2574.03 0.468792 3.10885 0
M  V30 28400 N 2577.81 -0.303946 1.54641 0
M  V30 28401 C 2579.22 -0.649437 1.45789 0
M  V30 28402 C 2579.42 -1.90841 0.646693 0
M  V30 28403 O 2578.48 -2.52035 0.153227 0
M  V30 28404 C 2579.79 -0.805176 2.8972 0
M  V30 28405 C 2581.34 -0.901252 2.99744 0
M  V30 28406 C 2581.81 -1.08901 4.44865 0
M  V30 28407 N 2583.31 -1.15529 4.48561 0
M  V30 28408 C 2584.04 -1.31881 5.58028 0
M  V30 28409 N 2583.54 -1.45149 6.77424 0
M  V30 28410 N 2585.33 -1.34745 5.45711 0
M  V30 28411 H 2577.48 0.523273 2.05853 0
M  V30 28412 H 2579.74 0.172447 0.932183 0
M  V30 28413 H 2579.45 0.0489726 3.51666 0
M  V30 28414 H 2579.32 -1.69507 3.36967 0
M  V30 28415 H 2581.71 -1.74589 2.37913 0
M  V30 28416 H 2581.79 0.0125981 2.55797 0
M  V30 28417 H 2581.44 -0.249152 5.07289 0
M  V30 28418 H 2581.37 -2.01704 4.86439 0
M  V30 28419 H 2583.86 -1.06639 3.62542 0
M  V30 28420 H 2584.17 -1.57373 7.56607 0
M  V30 28421 H 2582.51 -1.42211 6.80295 0
M  V30 28422 H 2585.71 -1.23988 4.51381 0
M  V30 28423 H 2585.88 -1.47146 6.31072 0
M  V30 28424 N 2579.28 -1.47047 -0.566994 0
M  V30 28425 C 2580.53 -1.52867 -1.32198 0
M  V30 28426 C 2580.85 -0.188422 -1.94088 0
M  V30 28427 O 2580.12 0.786661 -1.79411 0
M  V30 28428 H 2578.7 -0.563065 -0.490884 0
M  V30 28429 H 2581.37 -1.83282 -0.662847 0
M  V30 28430 H 2580.46 -2.28993 -2.12058 0
M  V30 28431 N 2580.76 0.812929 -1.35016 0
M  V30 28432 C 2582.04 1.55615 -1.18504 0
M  V30 28433 C 2582.42 2.0975 0.238384 0
M  V30 28434 O 2581.77 1.91859 1.24106 0
M  V30 28435 C 2581.98 2.66967 -2.24788 0
M  V30 28436 C 2583.33 3.35474 -2.60274 0
M  V30 28437 O 2584.35 2.77232 -2.23653 0
M  V30 28438 O 2583.21 4.40673 -3.23218 0
M  V30 28439 H 2580.3 0.687264 -0.459996 0
M  V30 28440 H 2582.85 0.853438 -1.46678 0
M  V30 28441 H 2581.62 2.24792 -3.20288 0
M  V30 28442 H 2581.24 3.4488 -1.97847 0
M  V30 28443 N 2582.24 1.18909 1.03433 0
M  V30 28444 C 2583.19 0.889743 2.09923 0
M  V30 28445 C 2584.17 -0.143188 1.60262 0
M  V30 28446 O 2585.37 0.0617433 1.76892 0
M  V30 28447 C 2582.5 0.424228 3.40669 0
M  V30 28448 C 2581.58 1.48959 3.97079 0
M  V30 28449 N 2581.97 2.70766 4.27223 0
M  V30 28450 C 2580.27 1.3516 4.25027 0
M  V30 28451 C 2580.97 3.39355 4.72454 0
M  V30 28452 N 2579.95 2.66743 4.73655 0
M  V30 28453 H 2583.75 1.8156 2.31113 0
M  V30 28454 H 2581.26 1.08044 1.21245 0
M  V30 28455 H 2583.26 0.19125 4.16461 0
M  V30 28456 H 2581.92 -0.495207 3.20902 0
M  V30 28457 H 2582.93 3.07578 4.16673 0
M  V30 28458 H 2579.61 0.495199 4.14553 0
M  V30 28459 H 2581 4.4349 5.04744 0
M  V30 28460 N 2583.72 -1.22452 0.992137 0
M  V30 28461 C 2584.96 -1.92906 0.675761 0
M  V30 28462 C 2585.32 -1.75543 -0.777731 0
M  V30 28463 O 2586.52 -2.40253 -1.20549 0
M  V30 28464 C 2584.79 -3.41018 1.06966 0
M  V30 28465 S 2586.35 -4.30058 0.871532 0
M  V30 28466 H 2583.17 -0.66668 0.247101 0
M  V30 28467 H 2585.77 -1.48267 1.27426 0
M  V30 28468 H 2584.48 -3.51168 2.12389 0
M  V30 28469 H 2584.01 -3.90667 0.462927 0
M  V30 28470 H 2586.02 -4.95627 -0.238349 0
M  V30 28471 N 2585.2 -0.765242 -1.37774 0
M  V30 28472 C 2586.61 -0.444135 -1.53296 0
M  V30 28473 C 2586.81 1.04116 -1.72517 0
M  V30 28474 O 2585.87 1.82708 -1.74282 0
M  V30 28475 C 2587.18 -1.25354 -2.73326 0
M  V30 28476 C 2588.73 -1.24478 -2.87183 0
M  V30 28477 C 2589.2 -2.0374 -4.10188 0
M  V30 28478 N 2590.7 -2.0106 -4.17288 0
M  V30 28479 C 2591.43 -2.59175 -5.11484 0
M  V30 28480 N 2590.93 -3.26051 -6.11279 0
M  V30 28481 N 2592.72 -2.49041 -5.0392 0
M  V30 28482 H 2584.87 -1.7277 -1.23549 0
M  V30 28483 H 2587.13 -0.733072 -0.60109 0
M  V30 28484 H 2586.84 -2.30581 -2.65566 0
M  V30 28485 H 2586.71 -0.878295 -3.66832 0
M  V30 28486 H 2589.1 -0.200522 -2.94418 0
M  V30 28487 H 2589.18 -1.65962 -1.94654 0
M  V30 28488 H 2588.83 -3.08183 -4.03714 0
M  V30 28489 H 2588.76 -1.59642 -5.01819 0
M  V30 28490 H 2591.25 -1.52366 -3.45822 0
M  V30 28491 H 2591.56 -3.67786 -6.79671 0
M  V30 28492 H 2589.9 -3.30149 -6.11577 0
M  V30 28493 H 2593.1 -1.96414 -4.24899 0
M  V30 28494 H 2593.27 -2.94627 -5.77147 0
M  V30 28495 N 2586.67 1.48939 -0.515251 0
M  V30 28496 C 2587.62 2.29381 0.255526 0
M  V30 28497 C 2588.59 1.36434 0.947363 0
M  V30 28498 O 2589.78 1.65396 0.951259 0
M  V30 28499 C 2586.92 3.19456 1.30545 0
M  V30 28500 C 2586.03 4.2747 0.623954 0
M  V30 28501 C 2585.16 5.04743 1.65554 0
M  V30 28502 C 2584.2 6.04577 0.956695 0
M  V30 28503 N 2583.34 6.74962 1.93314 0
M  V30 28504 H 2588.18 2.94783 -0.436659 0
M  V30 28505 H 2585.72 1.45335 -0.227179 0
M  V30 28506 H 2587.68 3.70066 1.92632 0
M  V30 28507 H 2586.31 2.56008 1.96621 0
M  V30 28508 H 2585.36 3.80239 -0.110526 0
M  V30 28509 H 2586.67 4.98744 0.0745215 0
M  V30 28510 H 2585.82 5.59293 2.35109 0
M  V30 28511 H 2584.56 4.33274 2.23885 0
M  V30 28512 H 2583.57 5.49245 0.247001 0
M  V30 28513 H 2584.79 6.78038 0.379695 0
M  V30 28514 H 2582.74 6.06255 2.50581 0
M  V30 28515 H 2582.66 7.42261 1.43476 0
M  V30 28516 H 2583.92 7.3411 2.62113 0
M  V30 28517 N 2588.15 0.249709 1.55609 0
M  V30 28518 C 2589.08 -0.642787 2.24478 0
M  V30 28519 C 2590.06 -1.17909 1.22603 0
M  V30 28520 O 2591.25 -1.21792 1.51263 0
M  V30 28521 C 2588.38 -1.83858 2.94641 0
M  V30 28522 C 2587.33 -1.43493 4.03229 0
M  V30 28523 C 2586.66 -2.71178 4.60833 0
M  V30 28524 C 2587.96 -0.60391 5.18797 0
M  V30 28525 H 2589.65 -0.0685099 2.99322 0
M  V30 28526 H 2587.2 -0.031511 1.43966 0
M  V30 28527 H 2589.15 -2.46862 3.41522 0
M  V30 28528 H 2587.88 -2.43828 2.17291 0
M  V30 28529 H 2586.54 -0.828212 3.57122 0
M  V30 28530 H 2586.18 -3.29352 3.8018 0
M  V30 28531 H 2585.88 -2.44892 5.34137 0
M  V30 28532 H 2587.41 -3.35075 5.10448 0
M  V30 28533 H 2588.82 -1.13832 5.61885 0
M  V30 28534 H 2587.22 -0.436992 5.98507 0
M  V30 28535 H 2588.29 0.383232 4.83383 0
M  V30 28536 N 2589.63 -1.57583 -0.0233682 0
M  V30 28537 C 2590.88 -1.89812 -0.714086 0
M  V30 28538 C 2591.21 -0.848143 -1.747 0
M  V30 28539 O 2590.49 0.1361 -1.94023 0
M  V30 28540 C 2590.77 -3.32671 -1.37847 0
M  V30 28541 C 2590.62 -4.48368 -0.358685 0
M  V30 28542 C 2591.94 -3.74544 -2.31095 0
M  V30 28543 H 2589.06 -0.690318 -0.258127 0
M  V30 28544 H 2591.7 -1.89986 0.0231261 0
M  V30 28545 H 2589.85 -3.32654 -2.00683 0
M  V30 28546 H 2591.52 -4.6052 0.268196 0
M  V30 28547 H 2589.77 -4.32607 0.321463 0
M  V30 28548 H 2590.44 -5.45226 -0.862147 0
M  V30 28549 H 2592.91 -3.75964 -1.78297 0
M  V30 28550 H 2591.79 -4.75298 -2.74559 0
M  V30 28551 H 2592.05 -3.07116 -3.18013 0
M  V30 28552 N 2591.11 0.29574 -1.548 0
M  V30 28553 C 2592.02 1.38738 -1.89179 0
M  V30 28554 C 2593.04 1.5521 -0.786509 0
M  V30 28555 O 2594.21 1.69773 -1.08347 0
M  V30 28556 C 2591.28 2.73033 -2.13668 0
M  V30 28557 C 2590.34 2.65502 -3.37354 0
M  V30 28558 C 2589.57 3.93391 -3.60665 0
M  V30 28559 O 2589.79 4.93001 -2.86891 0
M  V30 28560 O 2588.73 3.94967 -4.54186 0
M  V30 28561 H 2592.55 1.12584 -2.82061 0
M  V30 28562 H 2590.14 0.49227 -1.41057 0
M  V30 28563 H 2592.02 3.5248 -2.30946 0
M  V30 28564 H 2590.7 2.99019 -1.23972 0
M  V30 28565 H 2589.6 1.84508 -3.25434 0
M  V30 28566 H 2590.94 2.44467 -4.27196 0
M  V30 28567 N 2592.59 1.47346 0.559187 0
M  V30 28568 C 2594 1.47753 1.14132 0
M  V30 28569 C 2594.35 0.231137 1.94834 0
M  V30 28570 O 2593.47 -0.664101 2.05958 0
M  V30 28571 C 2594.07 2.67708 2.07648 0
M  V30 28572 C 2592.63 2.71081 2.61136 0
M  V30 28573 C 2591.78 2.40823 1.37476 0
M  V30 28574 H 2594.73 1.54885 0.34589 0
M  V30 28575 H 2594.75 2.44566 2.91492 0
M  V30 28576 H 2594.26 3.58407 1.48884 0
M  V30 28577 H 2592.36 1.84517 3.23704 0
M  V30 28578 H 2592.47 3.71716 3.02265 0
M  V30 28579 H 2590.84 1.91365 1.68082 0
M  V30 28580 H 2591.62 3.33727 0.805076 0
M  V30 28581 N 2594.07 -0.805758 1.35445 0
M  V30 28582 C 2595 -1.92575 1.24288 0
M  V30 28583 C 2596.01 -1.61952 0.16599 0
M  V30 28584 O 2597.2 -1.73505 0.419334 0
M  V30 28585 C 2594.3 -3.26969 0.89133 0
M  V30 28586 C 2593.47 -3.85492 2.06676 0
M  V30 28587 C 2592.53 -4.98294 1.69086 0
M  V30 28588 O 2591.56 -5.15677 2.40969 0
M  V30 28589 N 2592.76 -5.77233 0.614971 0
M  V30 28590 H 2595.52 -2.02672 2.20781 0
M  V30 28591 H 2593.09 -0.98322 1.28625 0
M  V30 28592 H 2595.08 -3.99902 0.621326 0
M  V30 28593 H 2593.65 -3.12596 0.016059 0
M  V30 28594 H 2592.87 -3.04742 2.50052 0
M  V30 28595 H 2594.16 -4.21323 2.85245 0
M  V30 28596 H 2593.55 -5.65697 0.0177474 0
M  V30 28597 H 2592.11 -6.50542 0.40475 0
M  V30 28598 N 2595.54 -1.19456 -1.02801 0
M  V30 28599 C 2596.79 -0.992027 -1.75618 0
M  V30 28600 C 2597.11 0.477867 -1.89673 0
M  V30 28601 O 2598.31 0.799241 -2.59469 0
M  V30 28602 C 2596.77 -1.72606 -3.15809 0
M  V30 28603 C 2596.38 -3.23612 -3.09805 0
M  V30 28604 C 2598.12 -1.6068 -3.92915 0
M  V30 28605 C 2596.03 -3.89601 -4.44932 0
M  V30 28606 H 2594.96 -0.367555 -0.658346 0
M  V30 28607 H 2597.61 -1.42961 -1.15041 0
M  V30 28608 H 2595.99 -1.2163 -3.76858 0
M  V30 28609 H 2597.16 -3.81713 -2.58131 0
M  V30 28610 H 2595.48 -3.35823 -2.46195 0
M  V30 28611 H 2598.08 -2.07332 -4.92867 0
M  V30 28612 H 2598.42 -0.561098 -4.12501 0
M  V30 28613 H 2598.95 -2.09007 -3.38469 0
M  V30 28614 H 2595.69 -4.94274 -4.3055 0
M  V30 28615 H 2595.21 -3.36289 -4.96658 0
M  V30 28616 H 2596.89 -3.93199 -5.13813 0
M  V30 28617 N 2597.02 1.21924 -0.998617 0
M  V30 28618 C 2598.25 1.95371 -0.69605 0
M  V30 28619 C 2598.67 1.73197 0.733795 0
M  V30 28620 O 2598.03 1.01477 1.5024 0
M  V30 28621 C 2598.08 3.46029 -1.01472 0
M  V30 28622 O 2597.18 4.12235 -0.116487 0
M  V30 28623 H 2596.52 0.611001 -0.259949 0
M  V30 28624 H 2599.05 1.5486 -1.33714 0
M  V30 28625 H 2599.06 3.96571 -0.958924 0
M  V30 28626 H 2597.74 3.61493 -2.05659 0
M  V30 28627 H 2596.31 3.72201 -0.228258 0
M  V30 28628 N 2598.5 0.772537 1.37367 0
M  V30 28629 C 2599.41 0.160122 2.34053 0
M  V30 28630 C 2600.43 -0.6787 1.60218 0
M  V30 28631 O 2601.6 -0.598436 1.92304 0
M  V30 28632 C 2598.67 -0.708122 3.39391 0
M  V30 28633 C 2597.73 0.147248 4.29047 0
M  V30 28634 C 2596.96 -0.679651 5.29355 0
M  V30 28635 O 2597.18 -1.91669 5.37233 0
M  V30 28636 O 2596.12 -0.0884386 6.01835 0
M  V30 28637 H 2599.94 0.959103 2.88158 0
M  V30 28638 H 2597.53 0.53371 1.39542 0
M  V30 28639 H 2599.41 -1.20377 4.03841 0
M  V30 28640 H 2598.09 -1.48528 2.87613 0
M  V30 28641 H 2596.99 0.68927 3.67695 0
M  V30 28642 H 2598.33 0.887508 4.84132 0
M  V30 28643 N 2599.98 -1.48664 0.523142 0
M  V30 28644 C 2600.91 -2.32342 -0.232269 0
M  V30 28645 C 2601.89 -1.4166 -0.941612 0
M  V30 28646 O 2603.07 -1.70553 -0.928721 0
M  V30 28647 C 2600.2 -3.227 -1.28381 0
M  V30 28648 C 2599.16 -4.22352 -0.693024 0
M  V30 28649 C 2598.48 -5.01797 -1.84672 0
M  V30 28650 C 2599.78 -5.21252 0.330721 0
M  V30 28651 H 2601.48 -2.95747 0.466244 0
M  V30 28652 H 2599.02 -1.42221 0.225668 0
M  V30 28653 H 2600.98 -3.80063 -1.82018 0
M  V30 28654 H 2599.7 -2.57281 -2.01181 0
M  V30 28655 H 2598.36 -3.66166 -0.178235 0
M  V30 28656 H 2598.01 -4.32808 -2.56293 0
M  V30 28657 H 2597.71 -5.6924 -1.45737 0
M  V30 28658 H 2599.23 -5.6201 -2.38699 0
M  V30 28659 H 2600.65 -5.73178 -0.118306 0
M  V30 28660 H 2599.04 -5.96709 0.637079 0
M  V30 28661 H 2600.11 -4.68806 1.23891 0
M  V30 28662 N 2601.46 -0.257958 -1.55475 0
M  V30 28663 C 2602.4 0.653037 -2.23245 0
M  V30 28664 C 2603.4 1.17142 -1.22369 0
M  V30 28665 O 2604.6 1.12704 -1.40349 0
M  V30 28666 H 2600.98 0.229104 -0.716251 0
M  V30 28667 H 2602.95 0.0584263 -2.98343 0
M  V30 28668 C 2601.7 1.8339 -2.95404 0
M  V30 28669 H 2601.02 1.44418 -3.72805 0
M  V30 28670 H 2602.46 2.44832 -3.4617 0
M  V30 28671 C 2600.92 2.71186 -1.999 0
M  V30 28672 O 2601.45 3.71043 -1.53915 0
M  V30 28673 N 2599.66 2.37987 -1.66765 0
M  V30 28674 H 2599.2 1.56834 -2.04355 0
M  V30 28675 H 2599.16 2.97004 -1.03132 0
M  V30 28676 N 2602.93 1.57593 0.0150108 0
M  V30 28677 C 2603.88 2.03942 1.0194 0
M  V30 28678 C 2604.87 0.931309 1.31208 0
M  V30 28679 O 2606.06 1.19515 1.30557 0
M  V30 28680 C 2603.19 2.53395 2.31616 0
M  V30 28681 C 2602.28 3.71054 2.05377 0
M  V30 28682 N 2602.67 4.8328 1.49244 0
M  V30 28683 C 2600.96 3.78697 2.35594 0
M  V30 28684 C 2601.67 5.64816 1.39133 0
M  V30 28685 N 2600.64 5.10358 1.87178 0
M  V30 28686 H 2604.44 2.88127 0.579639 0
M  V30 28687 H 2601.96 1.60889 0.221028 0
M  V30 28688 H 2603.95 2.84867 3.04395 0
M  V30 28689 H 2602.61 1.70621 2.76258 0
M  V30 28690 H 2603.63 5.04435 1.17326 0
M  V30 28691 H 2600.3 3.06751 2.83214 0
M  V30 28692 H 2601.69 6.64992 0.961036 0
M  V30 28693 N 2604.41 -0.287527 1.54955 0
M  V30 28694 C 2605.83 -0.633938 1.4647 0
M  V30 28695 C 2606.03 -1.90144 0.666898 0
M  V30 28696 O 2605.08 -2.51858 0.17995 0
M  V30 28697 C 2606.4 -0.774402 2.90557 0
M  V30 28698 C 2607.95 -0.86941 3.00683 0
M  V30 28699 C 2608.42 -1.04177 4.45995 0
M  V30 28700 N 2609.91 -1.10764 4.49762 0
M  V30 28701 C 2610.65 -1.25954 5.59395 0
M  V30 28702 N 2610.14 -1.37956 6.78926 0
M  V30 28703 N 2611.94 -1.2895 5.47109 0
M  V30 28704 H 2604.09 0.545077 2.05287 0
M  V30 28705 H 2606.35 0.182325 0.930302 0
M  V30 28706 H 2606.06 0.0862688 3.51594 0
M  V30 28707 H 2605.93 -1.65924 3.38746 0
M  V30 28708 H 2608.32 -1.72056 2.39752 0
M  V30 28709 H 2608.4 0.0397281 2.55769 0
M  V30 28710 H 2608.04 -0.195333 5.07524 0
M  V30 28711 H 2607.97 -1.96533 4.88551 0
M  V30 28712 H 2610.46 -1.02788 3.63652 0
M  V30 28713 H 2610.78 -1.4934 7.58233 0
M  V30 28714 H 2609.12 -1.34987 6.81765 0
M  V30 28715 H 2612.31 -1.19194 4.5267 0
M  V30 28716 H 2612.48 -1.40444 6.32597 0
M  V30 28717 N 2605.89 -1.47641 -0.551365 0
M  V30 28718 C 2607.14 -1.54565 -1.30827 0
M  V30 28719 C 2607.47 -0.210395 -1.93359 0
M  V30 28720 O 2606.72 0.797301 -1.78722 0
M  V30 28721 C 2607.02 -2.61649 -2.43464 0
M  V30 28722 C 2606.69 -4.04746 -1.98725 0
M  V30 28723 C 2605.35 -4.43698 -1.86241 0
M  V30 28724 C 2607.7 -4.94509 -1.64651 0
M  V30 28725 C 2605.03 -5.70243 -1.37985 0
M  V30 28726 C 2607.38 -6.21523 -1.17864 0
M  V30 28727 C 2606.04 -6.59352 -1.0398 0
M  V30 28728 H 2605.31 -0.565595 -0.478731 0
M  V30 28729 H 2607.96 -1.81265 -0.617665 0
M  V30 28730 H 2606.27 -2.28727 -3.18105 0
M  V30 28731 H 2607.96 -2.64228 -3.01637 0
M  V30 28732 H 2604.55 -3.73972 -2.09387 0
M  V30 28733 H 2608.74 -4.6511 -1.73166 0
M  V30 28734 H 2603.99 -5.98296 -1.25904 0
M  V30 28735 H 2608.17 -6.90486 -0.905618 0
M  V30 28736 H 2605.79 -7.57298 -0.663661 0
M  V30 28737 N 2607.37 0.798563 -1.3587 0
M  V30 28738 C 2608.33 1.89239 -1.2931 0
M  V30 28739 C 2609.33 1.59516 -0.202775 0
M  V30 28740 O 2610.52 1.68099 -0.456986 0
M  V30 28741 C 2607.65 3.25831 -1.00235 0
M  V30 28742 H 2608.85 1.96474 -2.26579 0
M  V30 28743 H 2606.4 0.995336 -1.2051 0
M  V30 28744 H 2607.13 3.24282 -0.033858 0
M  V30 28745 H 2606.92 3.48792 -1.79127 0
M  V30 28746 H 2608.41 4.05883 -0.982261 0
M  V30 28747 N 2608.85 1.19999 1.02166 0
M  V30 28748 C 2609.81 0.946077 2.08763 0
M  V30 28749 C 2610.81 -0.0763563 1.60619 0
M  V30 28750 O 2612 0.159165 1.73471 0
M  V30 28751 C 2609.13 0.423314 3.38262 0
M  V30 28752 H 2610.32 1.89157 2.32722 0
M  V30 28753 H 2607.88 1.01466 1.18888 0
M  V30 28754 H 2608.61 -0.527881 3.19975 0
M  V30 28755 H 2608.4 1.1606 3.7453 0
M  V30 28756 H 2609.89 0.264985 4.16758 0
M  V30 28757 N 2610.32 -1.21392 1.00507 0
M  V30 28758 C 2611.57 -1.89777 0.683193 0
M  V30 28759 C 2611.89 -1.78961 -0.789439 0
M  V30 28760 O 2613.09 -2.42374 -1.2234 0
M  V30 28761 C 2611.55 -3.40299 1.17152 0
M  V30 28762 C 2611.16 -3.59726 2.67023 0
M  V30 28763 C 2612.9 -4.1431 0.924534 0
M  V30 28764 C 2610.81 -5.04012 3.09396 0
M  V30 28765 H 2609.74 -0.710698 0.251842 0
M  V30 28766 H 2612.39 -1.37404 1.21624 0
M  V30 28767 H 2610.77 -3.91927 0.56652 0
M  V30 28768 H 2611.94 -3.18537 3.32973 0
M  V30 28769 H 2610.26 -2.99067 2.89737 0
M  V30 28770 H 2612.86 -5.20674 1.21667 0
M  V30 28771 H 2613.2 -4.16067 -0.139213 0
M  V30 28772 H 2613.73 -3.68747 1.49233 0
M  V30 28773 H 2610.47 -5.07402 4.14998 0
M  V30 28774 H 2609.99 -5.46056 2.48158 0
M  V30 28775 H 2611.67 -5.72519 3.01381 0
M  V30 28776 N 2611.8 -0.779811 -1.36955 0
M  V30 28777 C 2613.03 -0.35826 -2.04282 0
M  V30 28778 C 2613.45 1.01408 -1.58423 0
M  V30 28779 O 2612.81 1.65141 -0.748208 0
M  V30 28780 C 2612.86 -0.419542 -3.58151 0
M  V30 28781 O 2611.96 0.57707 -4.08343 0
M  V30 28782 H 2611.3 -0.15371 -0.645964 0
M  V30 28783 H 2613.83 -1.05825 -1.75106 0
M  V30 28784 H 2613.84 -0.279707 -4.0704 0
M  V30 28785 H 2612.52 -1.42068 -3.90883 0
M  V30 28786 H 2611.1 0.39969 -3.70752 0
M  V30 28787 N 2613.28 1.48384 -0.531019 0
M  V30 28788 C 2614.23 2.26614 0.251052 0
M  V30 28789 C 2615.21 1.32766 0.908953 0
M  V30 28790 O 2616.41 1.57297 0.811588 0
M  V30 28791 C 2613.54 3.17868 1.29672 0
M  V30 28792 C 2612.62 4.19189 0.643553 0
M  V30 28793 N 2613.01 5.05072 -0.271311 0
M  V30 28794 C 2611.31 4.36812 0.900634 0
M  V30 28795 C 2612.01 5.78077 -0.648211 0
M  V30 28796 N 2610.99 5.43599 -0.00905542 0
M  V30 28797 H 2614.79 2.90392 -0.452753 0
M  V30 28798 H 2612.3 1.58603 -0.349119 0
M  V30 28799 H 2614.3 3.72572 1.87072 0
M  V30 28800 H 2612.96 2.55645 2.00189 0
M  V30 28801 H 2613.97 5.13881 -0.643973 0
M  V30 28802 H 2610.65 3.85778 1.5963 0
M  V30 28803 H 2612.04 6.57186 -1.39845 0
M  V30 28804 N 2614.76 0.2662 1.55336 0
M  V30 28805 C 2616.17 -0.0881785 1.59356 0
M  V30 28806 C 2616.37 -1.5534 1.28343 0
M  V30 28807 O 2615.43 -2.30087 1.04 0
M  V30 28808 C 2616.74 0.278416 2.99408 0
M  V30 28809 C 2618.29 0.224298 3.12195 0
M  V30 28810 C 2618.77 0.565203 4.54499 0
M  V30 28811 N 2620.26 0.516421 4.60312 0
M  V30 28812 C 2620.99 0.753113 5.68433 0
M  V30 28813 N 2620.49 1.05395 6.84736 0
M  V30 28814 N 2622.28 0.682512 5.57941 0
M  V30 28815 H 2614.43 1.22151 1.73761 0
M  V30 28816 H 2616.7 0.492856 0.809813 0
M  V30 28817 H 2616.4 1.29708 3.26908 0
M  V30 28818 H 2616.28 -0.38512 3.75229 0
M  V30 28819 H 2618.66 -0.78507 2.84466 0
M  V30 28820 H 2618.74 0.921964 2.38607 0
M  V30 28821 H 2618.39 1.57222 4.82953 0
M  V30 28822 H 2618.32 -0.154155 5.26374 0
M  V30 28823 H 2620.81 0.293416 3.76759 0
M  V30 28824 H 2621.12 1.22146 7.63086 0
M  V30 28825 H 2619.47 1.09163 6.86373 0
M  V30 28826 H 2622.66 0.447391 4.65957 0
M  V30 28827 H 2622.83 0.870361 6.42128 0
M  V30 28828 N 2616.24 -1.57599 -0.0066531 0
M  V30 28829 C 2617.49 -1.89456 -0.692045 0
M  V30 28830 C 2617.8 -0.867617 -1.75305 0
M  V30 28831 O 2619 -1.07618 -2.4926 0
M  V30 28832 C 2617.46 -3.36291 -1.28204 0
M  V30 28833 C 2617.07 -4.47267 -0.256213 0
M  V30 28834 C 2618.81 -3.77267 -1.94601 0
M  V30 28835 C 2616.72 -5.85175 -0.855825 0
M  V30 28836 H 2615.65 -0.706927 -0.26224 0
M  V30 28837 H 2618.3 -1.83424 0.0528012 0
M  V30 28838 H 2616.68 -3.37139 -2.07734 0
M  V30 28839 H 2617.86 -4.57924 0.514003 0
M  V30 28840 H 2616.17 -4.15267 0.306935 0
M  V30 28841 H 2618.77 -4.77633 -2.40355 0
M  V30 28842 H 2619.11 -3.10432 -2.77376 0
M  V30 28843 H 2619.64 -3.7869 -1.21815 0
M  V30 28844 H 2616.38 -6.55466 -0.0670009 0
M  V30 28845 H 2615.9 -5.78194 -1.59535 0
M  V30 28846 H 2617.58 -6.32621 -1.35646 0
M  V30 28847 N 2617.72 0.279305 -1.55105 0
M  V30 28848 C 2618.66 1.34509 -1.87552 0
M  V30 28849 C 2619.63 1.49374 -0.72641 0
M  V30 28850 O 2620.82 1.63883 -0.977092 0
M  V30 28851 C 2617.96 2.70147 -2.14743 0
M  V30 28852 C 2617.07 2.63556 -3.4229 0
M  V30 28853 C 2616.21 3.91331 -3.59213 0
M  V30 28854 C 2615.24 3.79225 -4.80474 0
M  V30 28855 N 2614.38 4.98821 -4.94087 0
M  V30 28856 H 2619.22 1.06138 -2.78458 0
M  V30 28857 H 2616.76 0.512912 -1.37868 0
M  V30 28858 H 2618.72 3.49057 -2.28507 0
M  V30 28859 H 2617.35 2.96733 -1.2708 0
M  V30 28860 H 2616.4 1.76391 -3.37032 0
M  V30 28861 H 2617.71 2.50508 -4.31332 0
M  V30 28862 H 2616.86 4.78681 -3.72759 0
M  V30 28863 H 2615.6 4.07238 -2.68344 0
M  V30 28864 H 2614.61 2.90258 -4.66937 0
M  V30 28865 H 2615.83 3.64842 -5.72772 0
M  V30 28866 H 2613.78 5.15151 -4.06148 0
M  V30 28867 H 2613.7 4.88279 -5.77165 0
M  V30 28868 H 2614.96 5.87761 -5.12013 0
M  V30 28869 N 2619.19 1.47931 0.543528 0
M  V30 28870 C 2620.42 1.58896 1.32513 0
M  V30 28871 C 2620.84 0.244164 1.87215 0
M  V30 28872 O 2620.19 -0.764623 1.6571 0
M  V30 28873 C 2620.24 2.62499 2.48549 0
M  V30 28874 O 2619.97 3.91758 1.96105 0
M  V30 28875 C 2621.47 2.83776 3.40567 0
M  V30 28876 H 2618.69 0.536152 0.403463 0
M  V30 28877 H 2621.23 1.93656 0.657072 0
M  V30 28878 H 2619.39 2.30634 3.11266 0
M  V30 28879 H 2619.8 4.48485 2.71959 0
M  V30 28880 H 2621.27 3.601 4.18368 0
M  V30 28881 H 2621.75 1.92099 3.94962 0
M  V30 28882 H 2622.36 3.16892 2.83654 0
M  V30 28883 N 2620.67 -0.791347 1.36292 0
M  V30 28884 C 2621.92 -1.54608 1.30157 0
M  V30 28885 C 2622.24 -1.94634 -0.119375 0
M  V30 28886 O 2621.51 -1.64795 -1.05921 0
M  V30 28887 H 2620.09 -0.57338 0.478795 0
M  V30 28888 H 2622.75 -0.94303 1.70567 0
M  V30 28889 H 2621.85 -2.45453 1.92767 0
M  V30 28890 N 2622.15 -1.2054 -1.01528 0
M  V30 28891 C 2623.1 -0.95542 -2.10096 0
M  V30 28892 C 2624.07 0.114849 -1.65702 0
M  V30 28893 O 2625.25 -0.0301454 -1.90776 0
M  V30 28894 C 2622.39 -0.515029 -3.41235 0
M  V30 28895 C 2621.5 -1.6536 -3.99099 0
M  V30 28896 C 2620.64 -1.16338 -5.18304 0
M  V30 28897 C 2619.68 -2.27495 -5.68254 0
M  V30 28898 N 2618.82 -1.79682 -6.78718 0
M  V30 28899 H 2623.66 -1.8849 -2.30815 0
M  V30 28900 H 2621.19 -0.939519 -1.13188 0
M  V30 28901 H 2623.15 -0.241008 -4.16503 0
M  V30 28902 H 2621.78 0.377456 -3.20586 0
M  V30 28903 H 2620.83 -2.0425 -3.20914 0
M  V30 28904 H 2622.14 -2.49055 -4.32173 0
M  V30 28905 H 2621.3 -0.845407 -6.00781 0
M  V30 28906 H 2620.04 -0.296339 -4.86799 0
M  V30 28907 H 2619.04 -2.60107 -4.8438 0
M  V30 28908 H 2620.27 -3.14678 -6.01793 0
M  V30 28909 H 2618.21 -0.953064 -6.4904 0
M  V30 28910 H 2618.13 -2.56957 -7.10992 0
M  V30 28911 H 2619.4 -1.50888 -7.64757 0
M  V30 28912 N 2623.63 1.20858 -1.01149 0
M  V30 28913 C 2624.59 2.21681 -0.582263 0
M  V30 28914 C 2625.59 1.57058 0.344859 0
M  V30 28915 O 2626.78 1.73682 0.134251 0
M  V30 28916 C 2623.91 3.40568 0.150437 0
M  V30 28917 H 2625.11 2.6117 -1.47413 0
M  V30 28918 H 2622.66 1.34232 -0.800719 0
M  V30 28919 H 2623.39 3.06576 1.05745 0
M  V30 28920 H 2623.18 3.88696 -0.515512 0
M  V30 28921 H 2624.67 4.15294 0.438271 0
M  V30 28922 N 2625.11 0.787064 1.3654 0
M  V30 28923 C 2626.33 0.369089 2.04089 0
M  V30 28924 C 2626.76 -1.00567 1.58959 0
M  V30 28925 O 2626.11 -1.64742 0.756955 0
M  V30 28926 C 2626.16 0.438529 3.57924 0
M  V30 28927 O 2625.27 -0.555407 4.08643 0
M  V30 28928 H 2624.61 0.157133 0.64514 0
M  V30 28929 H 2627.14 1.06752 1.74543 0
M  V30 28930 H 2627.15 0.30129 4.06886 0
M  V30 28931 H 2625.82 1.44139 3.90124 0
M  V30 28932 H 2624.4 -0.380022 3.70959 0
M  V30 28933 N 2626.58 -1.48101 0.53888 0
M  V30 28934 C 2627.83 -2.01699 0.00598865 0
M  V30 28935 C 2628.15 -1.42043 -1.34474 0
M  V30 28936 O 2629.35 -1.87193 -1.9665 0
M  V30 28937 C 2627.81 -3.59878 -0.0396994 0
M  V30 28938 C 2627.42 -4.28521 1.30667 0
M  V30 28939 C 2629.16 -4.21291 -0.52095 0
M  V30 28940 C 2627.07 -5.78657 1.22108 0
M  V30 28941 H 2626 -0.753998 -0.0015313 0
M  V30 28942 H 2628.65 -1.70276 0.683993 0
M  V30 28943 H 2627.03 -3.88182 -0.782969 0
M  V30 28944 H 2628.2 -4.11879 2.0662 0
M  V30 28945 H 2626.52 -3.79018 1.72437 0
M  V30 28946 H 2629.12 -5.31288 -0.60309 0
M  V30 28947 H 2629.46 -3.87213 -1.52879 0
M  V30 28948 H 2629.99 -3.9745 0.166904 0
M  V30 28949 H 2626.73 -6.17324 2.20435 0
M  V30 28950 H 2626.25 -5.97687 0.503055 0
M  V30 28951 H 2627.93 -6.40491 0.915458 0
M  V30 28952 N 2628.06 -0.274434 -1.55192 0
M  V30 28953 C 2629.47 0.223456 -1.85358 0
M  V30 28954 C 2629.82 1.55498 -1.19645 0
M  V30 28955 O 2628.95 2.10906 -0.484535 0
M  V30 28956 C 2629.54 0.412226 -3.36283 0
M  V30 28957 C 2628.1 0.854349 -3.66576 0
M  V30 28958 C 2627.25 -0.0527543 -2.7725 0
M  V30 28959 H 2630.2 -0.496242 -1.50742 0
M  V30 28960 H 2630.22 1.25088 -3.59351 0
M  V30 28961 H 2629.73 -0.557032 -3.84082 0
M  V30 28962 H 2627.83 1.8351 -3.24276 0
M  V30 28963 H 2627.95 0.692143 -4.74074 0
M  V30 28964 H 2626.31 0.46344 -2.50448 0
M  V30 28965 H 2627.09 -1.01788 -3.27863 0
M  V30 28966 N 2629.54 1.576 -0.00170483 0
M  V30 28967 C 2630.47 2.11565 0.988053 0
M  V30 28968 C 2631.45 1.02519 1.35735 0
M  V30 28969 O 2632.64 1.3021 1.44079 0
M  V30 28970 C 2629.77 2.62035 2.27937 0
M  V30 28971 C 2628.72 3.75622 2.05163 0
M  V30 28972 C 2628.05 4.12413 3.40323 0
M  V30 28973 C 2629.35 5.02828 1.41285 0
M  V30 28974 H 2631.04 2.94513 0.538719 0
M  V30 28975 H 2628.59 1.41676 0.257687 0
M  V30 28976 H 2630.54 2.98415 2.97533 0
M  V30 28977 H 2629.26 1.7621 2.74986 0
M  V30 28978 H 2627.92 3.39638 1.37992 0
M  V30 28979 H 2627.57 3.2361 3.85079 0
M  V30 28980 H 2627.27 4.8894 3.25901 0
M  V30 28981 H 2628.79 4.51354 4.11232 0
M  V30 28982 H 2630.21 5.36969 2.00841 0
M  V30 28983 H 2628.6 5.84171 1.37346 0
M  V30 28984 H 2629.67 4.83391 0.382278 0
M  V30 28985 N 2631.02 -0.271076 1.55251 0
M  V30 28986 C 2631.96 -1.33513 1.88263 0
M  V30 28987 C 2632.93 -1.48986 0.734322 0
M  V30 28988 O 2634.12 -1.63362 0.985769 0
M  V30 28989 C 2631.26 -2.69004 2.16173 0
M  V30 28990 C 2630.37 -2.61737 3.43683 0
M  V30 28991 C 2629.51 -3.8942 3.61283 0
M  V30 28992 C 2628.55 -3.76671 4.82478 0
M  V30 28993 N 2627.68 -4.96193 4.96726 0
M  V30 28994 H 2632.52 -1.0466 2.79017 0
M  V30 28995 H 2630.06 -0.505594 1.38138 0
M  V30 28996 H 2632.02 -3.4784 2.30355 0
M  V30 28997 H 2630.65 -2.96055 1.28652 0
M  V30 28998 H 2629.7 -1.74601 3.37962 0
M  V30 28999 H 2631.01 -2.48217 4.32654 0
M  V30 29000 H 2630.17 -4.76697 3.75293 0
M  V30 29001 H 2628.91 -4.05809 2.705 0
M  V30 29002 H 2627.91 -2.87777 4.6847 0
M  V30 29003 H 2629.14 -3.61799 5.74698 0
M  V30 29004 H 2627.08 -5.12989 4.08874 0
M  V30 29005 H 2627 -4.85212 5.79746 0
M  V30 29006 H 2628.27 -5.85037 5.15123 0
M  V30 29007 N 2632.5 -1.48217 -0.535675 0
M  V30 29008 C 2633.41 -1.64988 -1.66782 0
M  V30 29009 C 2634.42 -0.532443 -1.65653 0
M  V30 29010 O 2635.6 -0.802782 -1.84709 0
M  V30 29011 C 2632.66 -1.68037 -3.03257 0
M  V30 29012 C 2631.72 -2.91366 -3.15285 0
M  V30 29013 C 2630.96 -2.9426 -4.45249 0
M  V30 29014 O 2631.18 -2.05729 -5.32007 0
M  V30 29015 O 2630.11 -3.86368 -4.61523 0
M  V30 29016 H 2633.94 -2.60828 -1.55571 0
M  V30 29017 H 2631.53 -1.31552 -0.708127 0
M  V30 29018 H 2633.41 -1.72596 -3.84433 0
M  V30 29019 H 2632.08 -0.753684 -3.14804 0
M  V30 29020 H 2630.99 -2.92341 -2.33425 0
M  V30 29021 H 2632.32 -3.834 -3.08651 0
M  V30 29022 N 2633.97 0.784108 -1.3671 0
M  V30 29023 C 2634.9 1.91114 -1.34156 0
M  V30 29024 C 2635.89 1.68772 -0.212151 0
M  V30 29025 O 2637.07 1.89809 -0.410615 0
M  V30 29026 C 2634.2 3.28216 -1.13541 0
M  V30 29027 C 2633.15 3.65094 -2.23362 0
M  V30 29028 C 2632.48 5.00603 -1.87884 0
M  V30 29029 C 2633.78 3.73125 -3.65479 0
M  V30 29030 H 2635.47 1.93508 -2.28463 0
M  V30 29031 H 2633.02 0.929599 -1.09975 0
M  V30 29032 H 2634.97 4.06685 -1.10388 0
M  V30 29033 H 2633.7 3.26223 -0.156861 0
M  V30 29034 H 2632.36 2.88925 -2.2565 0
M  V30 29035 H 2632 4.95137 -0.885902 0
M  V30 29036 H 2631.7 5.26247 -2.61415 0
M  V30 29037 H 2633.23 5.81486 -1.86296 0
M  V30 29038 H 2634.64 4.41773 -3.6539 0
M  V30 29039 H 2633.04 4.10257 -4.3796 0
M  V30 29040 H 2634.11 2.74095 -4 0
M  V30 29041 N 2635.45 1.21076 1.00888 0
M  V30 29042 C 2636.36 0.982462 2.13037 0
M  V30 29043 C 2637.38 -0.0641856 1.73882 0
M  V30 29044 O 2638.55 0.124996 2.01012 0
M  V30 29045 C 2635.62 0.545864 3.42376 0
M  V30 29046 C 2634.68 1.66427 3.95728 0
M  V30 29047 C 2633.91 1.24841 5.18893 0
M  V30 29048 O 2634.14 0.120365 5.70273 0
M  V30 29049 O 2633.07 2.05883 5.65593 0
M  V30 29050 H 2636.9 1.92167 2.35171 0
M  V30 29051 H 2634.48 0.995305 1.11418 0
M  V30 29052 H 2636.36 0.311986 4.20244 0
M  V30 29053 H 2635.04 -0.364671 3.21639 0
M  V30 29054 H 2633.95 1.95251 3.19105 0
M  V30 29055 H 2635.28 2.55209 4.20867 0
M  V30 29056 N 2636.93 -1.2032 1.01789 0
M  V30 29057 C 2637.86 -2.22567 0.547396 0
M  V30 29058 C 2638.88 -1.58519 -0.370894 0
M  V30 29059 O 2640.06 -1.77698 -0.169036 0
M  V30 29060 C 2637.16 -3.38166 -0.222972 0
M  V30 29061 C 2636.34 -4.31802 0.697547 0
M  V30 29062 C 2635.4 -5.26194 -0.0254695 0
M  V30 29063 O 2634.42 -5.66056 0.597466 0
M  V30 29064 N 2635.62 -5.65759 -1.29989 0
M  V30 29065 H 2638.39 -2.63561 1.42673 0
M  V30 29066 H 2635.95 -1.34874 0.895576 0
M  V30 29067 H 2637.94 -3.98317 -0.715932 0
M  V30 29068 H 2636.51 -2.96051 -1.00361 0
M  V30 29069 H 2635.73 -3.69598 1.37079 0
M  V30 29070 H 2637.02 -4.91283 1.32356 0
M  V30 29071 H 2636.42 -5.35388 -1.8269 0
M  V30 29072 H 2634.98 -6.28214 -1.73755 0
M  V30 29073 N 2638.41 -0.794293 -1.3612 0
M  V30 29074 C 2639.66 -0.36894 -1.99111 0
M  V30 29075 C 2639.98 1.06067 -1.63034 0
M  V30 29076 O 2639.24 1.74832 -0.879334 0
M  V30 29077 C 2639.54 -0.485332 -3.54089 0
M  V30 29078 C 2639.2 -1.87646 -4.1 0
M  V30 29079 C 2637.87 -2.25707 -4.24982 0
M  V30 29080 C 2640.22 -2.78714 -4.40418 0
M  V30 29081 C 2637.55 -3.54229 -4.67695 0
M  V30 29082 C 2639.9 -4.06668 -4.84565 0
M  V30 29083 C 2638.56 -4.44745 -4.97753 0
M  V30 29084 H 2637.83 -0.135005 -0.728598 0
M  V30 29085 H 2640.48 -1.0127 -1.62532 0
M  V30 29086 H 2638.78 0.241916 -3.91052 0
M  V30 29087 H 2640.48 -0.13718 -4.00765 0
M  V30 29088 H 2637.07 -1.57071 -3.98782 0
M  V30 29089 H 2641.25 -2.5056 -4.28408 0
M  V30 29090 H 2636.51 -3.83595 -4.76093 0
M  V30 29091 H 2640.68 -4.77345 -5.07065 0
M  V30 29092 H 2638.31 -5.44388 -5.30608 0
M  V30 29093 N 2639.89 1.47813 -0.546727 0
M  V30 29094 C 2640.83 2.31557 0.220007 0
M  V30 29095 C 2641.83 1.42276 0.919447 0
M  V30 29096 O 2643.03 1.59096 0.841925 0
M  V30 29097 H 2639.41 0.746617 0.0898202 0
M  V30 29098 H 2641.38 2.94085 -0.505641 0
M  V30 29099 C 2640.13 3.24704 1.24348 0
M  V30 29100 H 2639.45 3.9336 0.714689 0
M  V30 29101 H 2640.89 3.86153 1.75105 0
M  V30 29102 C 2639.35 2.47485 2.28589 0
M  V30 29103 O 2639.88 2.21171 3.3533 0
M  V30 29104 N 2638.09 2.0868 2.0224 0
M  V30 29105 H 2637.63 2.3028 1.15451 0
M  V30 29106 H 2637.59 1.57328 2.72204 0
M  V30 29107 N 2641.36 0.28266 1.55044 0
M  V30 29108 C 2642.59 -0.337941 2.04628 0
M  V30 29109 C 2643.01 -1.48121 1.15939 0
M  V30 29110 O 2642.37 -1.80596 0.159564 0
M  V30 29111 C 2642.42 -0.789298 3.51856 0
M  V30 29112 O 2641.52 -1.89585 3.66239 0
M  V30 29113 H 2640.87 -0.0687145 0.660435 0
M  V30 29114 H 2643.4 0.41916 2.0026 0
M  V30 29115 H 2643.41 -1.08304 3.93363 0
M  V30 29116 H 2642.08 0.047115 4.15873 0
M  V30 29117 H 2640.66 -1.60407 3.36636 0
M  V30 29118 N 2642.84 -1.57597 0.0100627 0
M  V30 29119 C 2644.12 -1.82249 -0.710264 0
M  V30 29120 C 2644.5 -0.889945 -1.91424 0
M  V30 29121 O 2643.85 0.0589891 -2.28424 0
M  V30 29122 C 2644.06 -3.30995 -1.1065 0
M  V30 29123 C 2645.41 -3.96989 -1.50614 0
M  V30 29124 O 2646.43 -3.35378 -1.20001 0
M  V30 29125 O 2645.29 -5.05543 -2.07578 0
M  V30 29126 H 2642.38 -0.750811 -0.346717 0
M  V30 29127 H 2644.93 -1.69661 0.0362876 0
M  V30 29128 H 2643.7 -3.90508 -0.248758 0
M  V30 29129 H 2643.32 -3.48619 -1.91183 0
M  V30 29130 N 2644.32 0.262839 -1.55393 0
M  V30 29131 C 2645.57 0.990912 -1.75681 0
M  V30 29132 C 2645.88 1.8708 -0.571003 0
M  V30 29133 O 2647.09 2.63442 -0.656532 0
M  V30 29134 C 2645.54 1.81183 -3.10968 0
M  V30 29135 C 2645.15 0.980111 -4.37147 0
M  V30 29136 C 2646.9 2.53359 -3.40602 0
M  V30 29137 C 2644.8 1.796 -5.6347 0
M  V30 29138 H 2643.73 0.373704 -0.654875 0
M  V30 29139 H 2646.38 0.246171 -1.81841 0
M  V30 29140 H 2644.77 2.59792 -2.98872 0
M  V30 29141 H 2645.94 0.237477 -4.60188 0
M  V30 29142 H 2644.26 0.372424 -4.14731 0
M  V30 29143 H 2646.85 3.14825 -4.32191 0
M  V30 29144 H 2647.2 3.24164 -2.61196 0
M  V30 29145 H 2647.73 1.81773 -3.53841 0
M  V30 29146 H 2644.47 1.13197 -6.45652 0
M  V30 29147 H 2643.99 2.51433 -5.44556 0
M  V30 29148 H 2645.67 2.36713 -6.02143 0
M  V30 29149 N 2645.8 1.48499 0.527807 0
M  V30 29150 C 2646.73 1.59273 1.64817 0
M  V30 29151 C 2647.74 0.476897 1.55658 0
M  V30 29152 O 2648.93 0.747834 1.62079 0
M  V30 29153 C 2646.03 1.50847 3.03477 0
M  V30 29154 C 2645.21 2.77507 3.38095 0
M  V30 29155 C 2644.26 2.62505 4.56045 0
M  V30 29156 O 2643.29 3.36395 4.59159 0
M  V30 29157 N 2644.49 1.72267 5.5435 0
M  V30 29158 H 2647.26 2.55892 1.56011 0
M  V30 29159 H 2644.82 1.4525 0.715126 0
M  V30 29160 H 2646.81 1.38502 3.80262 0
M  V30 29161 H 2645.38 0.621941 3.06351 0
M  V30 29162 H 2644.6 3.04401 2.50467 0
M  V30 29163 H 2645.89 3.61533 3.5801 0
M  V30 29164 H 2645.29 1.11441 5.54615 0
M  V30 29165 H 2643.84 1.6586 6.30344 0
M  V30 29166 N 2647.28 -0.776847 1.37123 0
M  V30 29167 C 2648.22 -1.88996 1.32473 0
M  V30 29168 C 2649.19 -1.64996 0.191172 0
M  V30 29169 O 2650.38 -1.86983 0.379716 0
M  V30 29170 C 2647.52 -3.2599 1.13246 0
M  V30 29171 C 2646.63 -3.61978 2.35788 0
M  V30 29172 C 2645.77 -4.88154 2.09474 0
M  V30 29173 C 2644.81 -5.16858 3.27909 0
M  V30 29174 N 2643.94 -6.34221 3.01179 0
M  V30 29175 H 2648.78 -1.92306 2.27645 0
M  V30 29176 H 2646.32 -0.94025 1.13127 0
M  V30 29177 H 2648.28 -4.05008 1.00122 0
M  V30 29178 H 2646.91 -3.22068 0.217243 0
M  V30 29179 H 2645.96 -2.77984 2.59671 0
M  V30 29180 H 2647.27 -3.79131 3.24131 0
M  V30 29181 H 2646.43 -5.75065 1.93351 0
M  V30 29182 H 2645.17 -4.73095 1.1846 0
M  V30 29183 H 2644.17 -4.28424 3.44576 0
M  V30 29184 H 2645.4 -5.33829 4.19766 0
M  V30 29185 H 2643.34 -6.20529 2.1279 0
M  V30 29186 H 2643.26 -6.51765 3.83064 0
M  V30 29187 H 2644.53 -7.24082 2.88662 0
M  V30 29188 N 2648.76 -1.2161 -1.00244 0
M  V30 29189 C 2649.69 -1.00176 -2.10919 0
M  V30 29190 C 2650.67 0.0741288 -1.69938 0
M  V30 29191 O 2651.85 -0.0862094 -1.94009 0
M  V30 29192 C 2648.98 -0.568416 -3.42617 0
M  V30 29193 C 2647.94 -1.58916 -3.97404 0
M  V30 29194 C 2647.26 -1.01196 -5.25037 0
M  V30 29195 C 2648.56 -2.97668 -4.29175 0
M  V30 29196 H 2650.26 -1.92743 -2.29108 0
M  V30 29197 H 2647.8 -0.928121 -1.101 0
M  V30 29198 H 2649.75 -0.405629 -4.19443 0
M  V30 29199 H 2648.48 0.392904 -3.24228 0
M  V30 29200 H 2647.14 -1.73955 -3.227 0
M  V30 29201 H 2646.79 -0.0422849 -5.02982 0
M  V30 29202 H 2646.49 -1.6938 -5.62658 0
M  V30 29203 H 2648.01 -0.860554 -6.04505 0
M  V30 29204 H 2649.42 -2.86058 -4.96834 0
M  V30 29205 H 2647.82 -3.62889 -4.77945 0
M  V30 29206 H 2648.89 -3.48321 -3.37343 0
M  V30 29207 N 2650.23 1.19778 -1.02425 0
M  V30 29208 C 2651.16 2.25074 -0.621609 0
M  V30 29209 C 2652.14 1.66091 0.367119 0
M  V30 29210 O 2653.33 1.92573 0.250858 0
M  V30 29211 C 2650.46 3.47284 0.0331216 0
M  V30 29212 C 2649.41 4.1891 -0.877397 0
M  V30 29213 C 2648.74 5.34628 -0.0880236 0
M  V30 29214 C 2650.04 4.74215 -2.189 0
M  V30 29215 H 2651.73 2.59008 -1.50183 0
M  V30 29216 H 2649.28 1.24501 -0.723569 0
M  V30 29217 H 2651.23 4.20134 0.326414 0
M  V30 29218 H 2649.96 3.12536 0.948109 0
M  V30 29219 H 2648.62 3.47936 -1.15481 0
M  V30 29220 H 2648.26 4.96124 0.828854 0
M  V30 29221 H 2647.96 5.83482 -0.694461 0
M  V30 29222 H 2649.49 6.10277 0.198636 0
M  V30 29223 H 2650.9 5.38844 -1.95755 0
M  V30 29224 H 2649.3 5.33537 -2.74696 0
M  V30 29225 H 2650.37 3.92536 -2.84681 0
M  V30 29226 N 2651.71 0.801501 1.35697 0
M  V30 29227 C 2652.62 0.209732 2.33661 0
M  V30 29228 C 2653.64 -0.644562 1.61621 0
M  V30 29229 O 2654.81 -0.557511 1.9353 0
M  V30 29230 C 2651.88 -0.635973 3.40817 0
M  V30 29231 C 2650.94 0.238222 4.28639 0
M  V30 29232 C 2650.17 -0.567214 5.30677 0
M  V30 29233 O 2650.4 -1.8023 5.41178 0
M  V30 29234 O 2649.33 0.0392394 6.01887 0
M  V30 29235 H 2653.16 1.02001 2.86059 0
M  V30 29236 H 2650.74 0.563188 1.38378 0
M  V30 29237 H 2652.62 -1.11783 4.06303 0
M  V30 29238 H 2651.3 -1.42394 2.90699 0
M  V30 29239 H 2650.2 0.767109 3.66151 0
M  V30 29240 H 2651.54 0.99 4.82141 0
M  V30 29241 N 2653.19 -1.47521 0.554558 0
M  V30 29242 C 2654.6 -1.86311 0.120479 0
M  V30 29243 C 2654.95 -1.46148 -1.30902 0
M  V30 29244 O 2654.08 -0.863329 -1.98433 0
M  V30 29245 C 2654.67 -3.38137 0.211868 0
M  V30 29246 C 2653.23 -3.76029 -0.167158 0
M  V30 29247 C 2652.38 -2.71574 0.560624 0
M  V30 29248 H 2655.33 -1.39076 0.764433 0
M  V30 29249 H 2655.35 -3.76203 -0.570209 0
M  V30 29250 H 2654.86 -3.67338 1.25238 0
M  V30 29251 H 2652.96 -3.52444 -1.20888 0
M  V30 29252 H 2653.08 -4.78725 0.189557 0
M  V30 29253 H 2651.44 -2.547 0.00401313 0
M  V30 29254 H 2652.22 -3.03617 1.60224 0
M  V30 29255 N 2654.67 -0.290879 -1.54892 0
M  V30 29256 C 2655.6 0.583044 -2.26104 0
M  V30 29257 C 2656.58 1.14617 -1.25686 0
M  V30 29258 O 2657.76 1.17739 -1.54439 0
M  V30 29259 C 2654.89 1.75982 -2.99412 0
M  V30 29260 C 2653.85 1.32751 -4.06892 0
M  V30 29261 C 2653.17 2.58864 -4.67861 0
M  V30 29262 C 2654.47 0.466148 -5.20216 0
M  V30 29263 H 2656.17 -0.0108741 -2.99398 0
M  V30 29264 H 2653.71 -0.00666999 -1.43998 0
M  V30 29265 H 2655.67 2.3772 -3.47947 0
M  V30 29266 H 2654.39 2.37981 -2.23679 0
M  V30 29267 H 2653.05 0.733236 -3.59192 0
M  V30 29268 H 2652.7 3.19156 -3.88778 0
M  V30 29269 H 2652.4 2.30644 -5.40442 0
M  V30 29270 H 2653.92 3.21424 -5.19152 0
M  V30 29271 H 2655.34 0.988948 -5.64706 0
M  V30 29272 H 2653.73 0.278155 -5.99455 0
M  V30 29273 H 2654.8 -0.511257 -4.82197 0
M  V30 29274 N 2656.15 1.57589 -0.0184203 0
M  V30 29275 C 2657.06 2.13017 0.982906 0
M  V30 29276 C 2658.07 1.07981 1.36441 0
M  V30 29277 O 2659.25 1.39982 1.448 0
M  V30 29278 C 2656.31 2.63756 2.25019 0
M  V30 29279 C 2655.37 3.83465 1.93011 0
M  V30 29280 C 2654.61 4.31775 3.13698 0
M  V30 29281 O 2654.83 3.79312 4.26003 0
M  V30 29282 O 2653.76 5.23737 2.9662 0
M  V30 29283 H 2657.59 2.98831 0.541656 0
M  V30 29284 H 2655.17 1.48034 0.201539 0
M  V30 29285 H 2657.06 2.96507 2.99435 0
M  V30 29286 H 2655.73 1.8103 2.68346 0
M  V30 29287 H 2654.64 3.55657 1.16013 0
M  V30 29288 H 2655.97 4.6732 1.54508 0
M  V30 29289 N 2657.62 -0.254594 1.5553 0
M  V30 29290 C 2658.59 -1.29842 1.88875 0
M  V30 29291 C 2659.59 -1.41458 0.764616 0
M  V30 29292 O 2660.78 -1.40291 1.03267 0
M  V30 29293 C 2657.91 -2.67725 2.11036 0
M  V30 29294 H 2659.1 -1.01497 2.82203 0
M  V30 29295 H 2656.65 -0.49353 1.48304 0
M  V30 29296 H 2657.39 -3.01221 1.20151 0
M  V30 29297 H 2657.17 -2.60677 2.92899 0
M  V30 29298 H 2658.66 -3.4311 2.38044 0
M  V30 29299 N 2659.1 -1.48777 -0.519925 0
M  V30 29300 C 2660.01 -1.66747 -1.65023 0
M  V30 29301 C 2661.03 -0.549983 -1.65079 0
M  V30 29302 O 2662.2 -0.822328 -1.83847 0
M  V30 29303 C 2659.27 -1.71244 -3.01457 0
M  V30 29304 C 2658.33 -2.94693 -3.12177 0
M  V30 29305 C 2657.56 -2.98965 -4.42103 0
M  V30 29306 O 2657.79 -2.1136 -5.29795 0
M  V30 29307 O 2656.72 -3.91241 -4.57399 0
M  V30 29308 H 2660.55 -2.62464 -1.52796 0
M  V30 29309 H 2658.13 -1.32296 -0.694134 0
M  V30 29310 H 2660.01 -1.76664 -3.82581 0
M  V30 29311 H 2658.69 -0.78703 -3.13987 0
M  V30 29312 H 2657.59 -2.94801 -2.30311 0
M  V30 29313 H 2658.93 -3.86652 -3.04568 0
M  V30 29314 N 2660.58 0.769564 -1.37534 0
M  V30 29315 C 2661.83 1.52348 -1.32185 0
M  V30 29316 C 2662.14 1.9539 0.0906211 0
M  V30 29317 O 2663.35 2.70188 0.26658 0
M  V30 29318 C 2661.8 2.75115 -2.32034 0
M  V30 29319 C 2661.41 2.39163 -3.78821 0
M  V30 29320 C 2663.16 3.53052 -2.357 0
M  V30 29321 C 2661.06 3.58445 -4.70395 0
M  V30 29322 H 2659.99 0.571975 -0.491285 0
M  V30 29323 H 2662.64 0.842711 -1.63005 0
M  V30 29324 H 2661.03 3.45093 -1.94235 0
M  V30 29325 H 2662.2 1.76955 -4.25469 0
M  V30 29326 H 2660.51 1.74396 -3.78121 0
M  V30 29327 H 2663.11 4.41713 -3.0132 0
M  V30 29328 H 2663.45 3.93068 -1.37124 0
M  V30 29329 H 2663.99 2.90073 -2.72218 0
M  V30 29330 H 2660.73 3.23508 -5.70108 0
M  V30 29331 H 2660.25 4.19751 -4.2845 0
M  V30 29332 H 2661.93 4.2523 -4.87635 0
M  V30 29333 N 2662.06 1.22139 0.995977 0
M  V30 29334 C 2662.99 0.946521 2.08743 0
M  V30 29335 C 2664 -0.0737071 1.62633 0
M  V30 29336 O 2665.19 0.159918 1.77782 0
M  V30 29337 C 2662.29 0.401364 3.36515 0
M  V30 29338 C 2661.47 1.47808 4.11669 0
M  V30 29339 C 2660.52 0.940552 5.17726 0
M  V30 29340 O 2659.55 1.62606 5.4548 0
M  V30 29341 N 2660.75 -0.239621 5.80005 0
M  V30 29342 H 2663.52 1.88615 2.32905 0
M  V30 29343 H 2661.08 1.12787 1.1615 0
M  V30 29344 H 2663.07 0.0271548 4.04691 0
M  V30 29345 H 2661.64 -0.443299 3.09441 0
M  V30 29346 H 2660.86 2.02574 3.38168 0
M  V30 29347 H 2662.15 2.20261 4.58653 0
M  V30 29348 H 2661.55 -0.81342 5.59821 0
M  V30 29349 H 2660.1 -0.555247 6.49431 0
M  V30 29350 N 2663.54 -1.19233 1.03059 0
M  V30 29351 C 2664.47 -2.21974 0.570971 0
M  V30 29352 C 2665.48 -1.58903 -0.35406 0
M  V30 29353 O 2666.67 -1.77867 -0.15018 0
M  V30 29354 C 2663.77 -3.38383 -0.187092 0
M  V30 29355 C 2662.94 -4.31038 0.743307 0
M  V30 29356 C 2662 -5.26191 0.0303418 0
M  V30 29357 O 2661.03 -5.6539 0.657471 0
M  V30 29358 N 2662.23 -5.67106 -1.23981 0
M  V30 29359 H 2665 -2.62033 1.4546 0
M  V30 29360 H 2662.56 -1.33917 0.90983 0
M  V30 29361 H 2664.55 -3.99054 -0.673645 0
M  V30 29362 H 2663.12 -2.97099 -0.972153 0
M  V30 29363 H 2662.34 -3.68124 1.40992 0
M  V30 29364 H 2663.63 -4.89852 1.37559 0
M  V30 29365 H 2663.02 -5.37296 -1.77002 0
M  V30 29366 H 2661.58 -6.30021 -1.67082 0
M  V30 29367 N 2665.01 -0.808686 -1.3527 0
M  V30 29368 C 2666.26 -0.389267 -1.98316 0
M  V30 29369 C 2666.58 1.04764 -1.64467 0
M  V30 29370 O 2665.85 1.72514 -0.928205 0
M  V30 29371 H 2664.43 -0.140947 -0.733582 0
M  V30 29372 H 2667.1 -1.03499 -1.65148 0
M  V30 29373 H 2666.19 -0.496685 -3.08122 0
M  V30 29374 N 2666.49 1.47225 -0.562374 0
M  V30 29375 C 2667.74 2.0276 -0.0403117 0
M  V30 29376 C 2668.07 1.43526 1.30821 0
M  V30 29377 O 2667.35 0.592737 1.85248 0
M  V30 29378 C 2667.63 3.60069 0.0472477 0
M  V30 29379 C 2667.48 4.29726 -1.32873 0
M  V30 29380 C 2668.8 4.33521 0.758106 0
M  V30 29381 H 2665.92 0.736824 -0.0161235 0
M  V30 29382 H 2668.56 1.75597 -0.725659 0
M  V30 29383 H 2666.71 3.83343 0.630919 0
M  V30 29384 H 2668.38 4.17778 -1.956 0
M  V30 29385 H 2666.63 3.89879 -1.90202 0
M  V30 29386 H 2667.3 5.38346 -1.22013 0
M  V30 29387 H 2669.77 4.15271 0.262473 0
M  V30 29388 H 2668.65 5.43209 0.788345 0
M  V30 29389 H 2668.91 4.03112 1.8153 0
M  V30 29390 N 2667.97 0.299089 1.54736 0
M  V30 29391 C 2668.92 -0.593618 2.24898 0
M  V30 29392 C 2669.91 -1.13857 1.25431 0
M  V30 29393 O 2671.12 -1.08943 1.43288 0
M  V30 29394 H 2667.49 -0.210033 0.722073 0
M  V30 29395 H 2669.46 0.0206945 2.98393 0
M  V30 29396 C 2668.21 -1.75493 3.00162 0
M  V30 29397 H 2667.54 -1.34483 3.76503 0
M  V30 29398 H 2668.98 -2.35567 3.52539 0
M  V30 29399 C 2667.44 -2.6579 2.0702 0
M  V30 29400 O 2667.97 -3.66832 1.63699 0
M  V30 29401 N 2666.17 -2.33482 1.73016 0
M  V30 29402 H 2665.72 -1.51361 2.08441 0
M  V30 29403 H 2665.68 -2.94165 1.1097 0
M  V30 29404 N 2669.45 -1.57577 0.0267774 0
M  V30 29405 C 2670.38 -2.1311 -0.95427 0
M  V30 29406 C 2671.36 -1.04665 -1.34086 0
M  V30 29407 O 2672.54 -1.32486 -1.4199 0
M  V30 29408 C 2669.67 -2.65628 -2.23739 0
M  V30 29409 C 2668.63 -3.78839 -1.99162 0
M  V30 29410 C 2667.95 -4.17775 -3.33719 0
M  V30 29411 C 2669.25 -5.05012 -1.33268 0
M  V30 29412 H 2670.95 -2.95333 -0.491796 0
M  V30 29413 H 2668.49 -1.42068 -0.235115 0
M  V30 29414 H 2670.45 -3.03111 -2.92748 0
M  V30 29415 H 2669.17 -1.80563 -2.72148 0
M  V30 29416 H 2667.83 -3.4179 -1.32571 0
M  V30 29417 H 2667.48 -3.29695 -3.79882 0
M  V30 29418 H 2667.18 -4.94063 -3.18081 0
M  V30 29419 H 2668.7 -4.57839 -4.03999 0
M  V30 29420 H 2670.12 -5.40096 -1.92273 0
M  V30 29421 H 2668.51 -5.86282 -1.28035 0
M  V30 29422 H 2669.58 -4.83938 -0.305326 0
M  V30 29423 N 2670.93 0.246342 -1.55663 0
M  V30 29424 C 2671.87 1.30501 -1.90363 0
M  V30 29425 C 2672.84 1.47799 -0.757931 0
M  V30 29426 O 2674.03 1.61773 -1.01163 0
M  V30 29427 C 2671.17 2.65531 -2.20425 0
M  V30 29428 C 2670.28 2.56236 -3.47803 0
M  V30 29429 C 2669.42 3.83623 -3.67433 0
M  V30 29430 C 2668.46 3.68948 -4.8841 0
M  V30 29431 N 2667.59 4.88228 -5.04557 0
M  V30 29432 H 2672.43 1.00208 -2.80646 0
M  V30 29433 H 2669.97 0.483553 -1.38925 0
M  V30 29434 H 2671.93 3.44131 -2.35859 0
M  V30 29435 H 2670.56 2.93971 -1.33345 0
M  V30 29436 H 2669.61 1.69202 -3.40697 0
M  V30 29437 H 2670.92 2.41302 -4.36549 0
M  V30 29438 H 2670.08 4.70666 -3.82829 0
M  V30 29439 H 2668.81 4.01455 -2.76921 0
M  V30 29440 H 2667.82 2.80288 -4.72989 0
M  V30 29441 H 2669.04 3.5261 -5.80381 0
M  V30 29442 H 2666.99 5.0642 -4.16983 0
M  V30 29443 H 2666.91 4.75927 -5.87392 0
M  V30 29444 H 2668.18 5.76768 -5.24365 0
M  V30 29445 N 2672.4 1.4905 0.512027 0
M  V30 29446 C 2673.31 1.6762 1.64136 0
M  V30 29447 C 2674.33 0.55873 1.64785 0
M  V30 29448 O 2675.51 0.832066 1.83408 0
M  V30 29449 C 2672.57 1.7284 3.00545 0
M  V30 29450 C 2671.63 2.96345 3.10609 0
M  V30 29451 C 2670.87 3.01306 4.40512 0
M  V30 29452 O 2671.09 2.14166 5.28667 0
M  V30 29453 O 2670.02 3.93661 4.55318 0
M  V30 29454 H 2673.85 2.6327 1.51402 0
M  V30 29455 H 2671.43 1.32662 0.687108 0
M  V30 29456 H 2673.32 1.7869 3.81638 0
M  V30 29457 H 2671.99 0.803671 3.13565 0
M  V30 29458 H 2670.9 2.96018 2.28745 0
M  V30 29459 H 2672.23 3.88261 3.02513 0
M  V30 29460 N 2673.88 -0.762259 1.3794 0
M  V30 29461 C 2674.79 -1.90669 1.36684 0
M  V30 29462 C 2675.81 -1.71969 0.265108 0
M  V30 29463 O 2676.98 -1.95041 0.502089 0
M  V30 29464 C 2674.05 -3.25923 1.18217 0
M  V30 29465 C 2673.11 -3.5721 2.38116 0
M  V30 29466 C 2672.34 -4.86011 2.20521 0
M  V30 29467 O 2672.57 -5.57755 1.19439 0
M  V30 29468 O 2671.5 -5.16577 3.0892 0
M  V30 29469 H 2675.33 -1.94681 2.33095 0
M  V30 29470 H 2672.91 -0.906335 1.18768 0
M  V30 29471 H 2674.79 -4.06805 1.09944 0
M  V30 29472 H 2673.47 -3.22742 0.248864 0
M  V30 29473 H 2672.38 -2.76524 2.51963 0
M  V30 29474 H 2673.71 -3.65143 3.30047 0
M  V30 29475 N 2675.36 -1.22666 -0.989486 0
M  V30 29476 C 2676.64 -0.961718 -1.70324 0
M  V30 29477 C 2677.02 0.522243 -2.04538 0
M  V30 29478 O 2676.37 1.49115 -1.73139 0
M  V30 29479 C 2676.58 -1.86274 -2.95132 0
M  V30 29480 C 2677.92 -2.12085 -3.67839 0
M  V30 29481 O 2678.95 -1.8375 -3.05147 0
M  V30 29482 O 2677.81 -2.60092 -4.8064 0
M  V30 29483 H 2674.9 -0.361959 -0.743582 0
M  V30 29484 H 2677.45 -1.33667 -1.04552 0
M  V30 29485 H 2676.22 -2.86634 -2.66377 0
M  V30 29486 H 2675.84 -1.48959 -3.68642 0
M  V30 29487 N 2676.84 1.18685 -1.0369 0
M  V30 29488 C 2678.09 1.88571 -0.738063 0
M  V30 29489 C 2678.41 1.80121 0.733941 0
M  V30 29490 O 2677.67 1.19347 1.55096 0
M  V30 29491 C 2677.97 3.38568 -1.14483 0
M  V30 29492 C 2677.63 3.67221 -2.61647 0
M  V30 29493 C 2676.3 3.74751 -3.01852 0
M  V30 29494 C 2678.65 3.79907 -3.56819 0
M  V30 29495 C 2675.98 3.92443 -4.36125 0
M  V30 29496 C 2678.33 3.99114 -4.90806 0
M  V30 29497 C 2676.99 4.04879 -5.30688 0
M  V30 29498 H 2676.26 0.690029 -0.270076 0
M  V30 29499 H 2678.91 1.405 -1.30123 0
M  V30 29500 H 2677.21 3.88591 -0.500406 0
M  V30 29501 H 2678.91 3.90976 -0.891019 0
M  V30 29502 H 2675.5 3.61975 -2.29504 0
M  V30 29503 H 2679.69 3.73426 -3.26905 0
M  V30 29504 H 2674.94 3.95148 -4.66549 0
M  V30 29505 H 2679.12 4.07872 -5.64458 0
M  V30 29506 H 2676.74 4.1834 -6.34741 0
M  V30 29507 N 2678.32 0.815849 1.34839 0
M  V30 29508 C 2679.27 0.220929 2.31548 0
M  V30 29509 C 2680.26 -0.634429 1.57071 0
M  V30 29510 O 2681.47 -0.526559 1.72126 0
M  V30 29511 H 2677.84 0.0526914 0.750152 0
M  V30 29512 H 2679.81 1.05154 2.79258 0
M  V30 29513 C 2678.56 -0.608367 3.42336 0
M  V30 29514 H 2677.88 0.0404824 3.9978 0
M  V30 29515 H 2679.32 -0.990858 4.1226 0
M  V30 29516 C 2677.78 -1.77777 2.86176 0
M  V30 29517 O 2678.31 -2.87566 2.80479 0
M  V30 29518 N 2676.52 -1.59225 2.43096 0
M  V30 29519 H 2676.07 -0.699193 2.4793 0
M  V30 29520 H 2676.02 -2.37623 2.0587 0
M  V30 29521 N 2679.8 -1.46924 0.570174 0
M  V30 29522 C 2680.74 -2.30171 -0.170217 0
M  V30 29523 C 2681.71 -1.39856 -0.896074 0
M  V30 29524 O 2682.9 -1.68812 -0.889218 0
M  V30 29525 C 2680.04 -3.24081 -1.18599 0
M  V30 29526 C 2679.15 -4.29491 -0.464871 0
M  V30 29527 C 2678.29 -5.10539 -1.46707 0
M  V30 29528 C 2677.32 -6.07712 -0.731651 0
M  V30 29529 N 2676.46 -6.81672 -1.6813 0
M  V30 29530 H 2681.3 -2.9296 0.545765 0
M  V30 29531 H 2678.84 -1.44392 0.280963 0
M  V30 29532 H 2680.8 -3.7696 -1.78765 0
M  V30 29533 H 2679.43 -2.63129 -1.86984 0
M  V30 29534 H 2678.48 -3.79567 0.251573 0
M  V30 29535 H 2679.79 -4.98677 0.110636 0
M  V30 29536 H 2678.94 -5.67634 -2.14189 0
M  V30 29537 H 2677.68 -4.41285 -2.0765 0
M  V30 29538 H 2676.69 -5.49783 -0.042982 0
M  V30 29539 H 2677.91 -6.7898 -0.127784 0
M  V30 29540 H 2675.86 -6.15138 -2.27907 0
M  V30 29541 H 2675.78 -7.47074 -1.15828 0
M  V30 29542 H 2677.04 -7.43332 -2.34687 0
M  V30 29543 N 2681.27 -0.307291 -1.54575 0
M  V30 29544 C 2682.55 0.353571 -1.92378 0
M  V30 29545 C 2682.93 1.7119 -1.2352 0
M  V30 29546 O 2682.28 2.25433 -0.373141 0
M  V30 29547 C 2682.49 0.461978 -3.45929 0
M  V30 29548 C 2683.84 0.729902 -4.18279 0
M  V30 29549 O 2684.86 0.545543 -3.51998 0
M  V30 29550 O 2683.72 1.08445 -5.35632 0
M  V30 29551 H 2680.81 0.198798 -0.802751 0
M  V30 29552 H 2683.36 -0.355812 -1.65928 0
M  V30 29553 H 2682.13 -0.49266 -3.88186 0
M  V30 29554 H 2681.75 1.21958 -3.78434 0
M  V30 29555 N 2682.75 1.57561 -0.0351337 0
M  V30 29556 C 2683.68 2.06103 0.979637 0
M  V30 29557 C 2684.66 0.958069 1.31377 0
M  V30 29558 O 2685.85 1.22884 1.4294 0
M  V30 29559 C 2682.97 2.48812 2.29805 0
M  V30 29560 C 2682.02 3.70187 2.1181 0
M  V30 29561 S 2682.85 5.16567 1.41133 0
M  V30 29562 C 2684.01 5.62577 2.74331 0
M  V30 29563 H 2684.24 2.91854 0.566455 0
M  V30 29564 H 2681.77 1.53385 0.176717 0
M  V30 29565 H 2683.73 2.74084 3.05595 0
M  V30 29566 H 2682.39 1.63396 2.68254 0
M  V30 29567 H 2681.59 3.97938 3.09292 0
M  V30 29568 H 2681.19 3.45099 1.44162 0
M  V30 29569 H 2683.48 5.67184 3.70552 0
M  V30 29570 H 2684.42 6.62031 2.51237 0
M  V30 29571 H 2684.83 4.90247 2.79854 0
M  V30 29572 N 2684.23 -0.238084 1.55791 0
M  V30 29573 C 2685.18 -1.3146 1.91888 0
M  V30 29574 C 2686.17 -1.49376 0.798955 0
M  V30 29575 O 2687.38 -1.50746 0.983652 0
M  V30 29576 H 2683.75 -0.440389 0.609559 0
M  V30 29577 H 2685.72 -0.982876 2.81748 0
M  V30 29578 C 2684.47 -2.66126 2.23768 0
M  V30 29579 H 2683.8 -2.53144 3.09449 0
M  V30 29580 H 2685.24 -3.40304 2.52921 0
M  V30 29581 C 2683.69 -3.19888 1.05705 0
M  V30 29582 O 2684.22 -4.00505 0.309594 0
M  V30 29583 N 2682.43 -2.78034 0.8453 0
M  V30 29584 H 2681.98 -2.12585 1.45483 0
M  V30 29585 H 2681.94 -3.14348 0.0570525 0
M  V30 29586 N 2685.71 -1.4932 -0.504115 0
M  V30 29587 C 2686.62 -1.68488 -1.63245 0
M  V30 29588 C 2687.63 -0.567461 -1.64487 0
M  V30 29589 O 2688.81 -0.841781 -1.82965 0
M  V30 29590 C 2685.87 -1.74431 -2.99624 0
M  V30 29591 C 2684.94 -2.97988 -3.09033 0
M  V30 29592 C 2684.17 -3.03638 -4.38907 0
M  V30 29593 O 2684.39 -2.16967 -5.27524 0
M  V30 29594 O 2683.33 -3.9607 -4.53224 0
M  V30 29595 H 2687.15 -2.64069 -1.50004 0
M  V30 29596 H 2684.74 -1.33024 -0.680063 0
M  V30 29597 H 2686.62 -1.80711 -3.80685 0
M  V30 29598 H 2685.29 -0.820288 -3.13134 0
M  V30 29599 H 2684.2 -2.97227 -2.27172 0
M  V30 29600 H 2685.53 -3.8986 -3.00449 0
M  V30 29601 N 2687.19 0.754933 -1.38342 0
M  V30 29602 C 2688.46 1.50449 -1.24998 0
M  V30 29603 C 2688.84 2.10572 0.149207 0
M  V30 29604 O 2688.19 1.9695 1.15857 0
M  V30 29605 C 2688.4 2.57193 -2.35908 0
M  V30 29606 C 2689.75 3.24133 -2.74268 0
M  V30 29607 O 2690.77 2.67497 -2.3521 0
M  V30 29608 O 2689.63 4.26567 -3.41617 0
M  V30 29609 H 2686.73 0.667136 -0.488732 0
M  V30 29610 H 2689.27 0.790459 -1.50166 0
M  V30 29611 H 2688.04 2.11005 -3.29534 0
M  V30 29612 H 2687.67 3.36178 -2.12297 0
M  V30 29613 N 2688.66 1.23189 0.982967 0
M  V30 29614 C 2689.61 1.0082 2.09614 0
M  V30 29615 C 2690.61 -0.0519698 1.6932 0
M  V30 29616 O 2691.81 0.101316 1.79715 0
M  V30 29617 H 2688.19 0.308911 0.685622 0
M  V30 29618 H 2690.16 1.95257 2.25649 0
M  V30 29619 C 2688.91 0.613304 3.42248 0
M  V30 29620 H 2688.23 1.42079 3.73702 0
M  V30 29621 H 2689.67 0.496282 4.21086 0
M  V30 29622 C 2688.13 -0.678175 3.30004 0
M  V30 29623 O 2688.66 -1.728 3.62633 0
M  V30 29624 N 2686.86 -0.653115 2.83166 0
M  V30 29625 H 2686.41 0.201537 2.5681 0
M  V30 29626 H 2686.37 -1.51747 2.75355 0
M  V30 29627 N 2690.14 -1.18133 1.04318 0
M  V30 29628 C 2691.05 -2.25504 0.646916 0
M  V30 29629 C 2692.07 -1.70881 -0.327977 0
M  V30 29630 O 2693.24 -2.00573 -0.182273 0
M  V30 29631 C 2690.31 -3.46695 0.0186273 0
M  V30 29632 C 2689.37 -4.16441 1.04285 0
M  V30 29633 C 2688.6 -5.31846 0.444445 0
M  V30 29634 O 2688.83 -5.65466 -0.748636 0
M  V30 29635 O 2687.76 -5.90332 1.17439 0
M  V30 29636 H 2691.59 -2.61669 1.54152 0
M  V30 29637 H 2689.17 -1.25264 0.81421 0
M  V30 29638 H 2691.05 -4.20098 -0.330994 0
M  V30 29639 H 2689.73 -3.12347 -0.84976 0
M  V30 29640 H 2688.63 -3.45095 1.44431 0
M  V30 29641 H 2689.97 -4.54795 1.88208 0
M  V30 29642 N 2691.62 -0.822988 -1.34405 0
M  V30 29643 C 2692.87 -0.41028 -1.97892 0
M  V30 29644 C 2693.19 1.03014 -1.65569 0
M  V30 29645 O 2692.46 1.7152 -0.946451 0
M  V30 29646 H 2691.04 -0.14872 -0.732046 0
M  V30 29647 H 2693.7 -1.05245 -1.64041 0
M  V30 29648 H 2692.8 -0.529338 -3.07578 0
M  V30 29649 N 2693.1 1.4662 -0.577957 0
M  V30 29650 C 2694.33 2.06791 -0.0672005 0
M  V30 29651 C 2694.74 1.42745 1.23569 0
M  V30 29652 O 2694.1 0.531092 1.74601 0
M  V30 29653 C 2694.15 3.61332 0.110293 0
M  V30 29654 O 2693.87 4.2298 -1.14102 0
M  V30 29655 C 2695.37 4.3842 0.655948 0
M  V30 29656 H 2692.59 0.668719 -0.055285 0
M  V30 29657 H 2695.14 1.88318 -0.797275 0
M  V30 29658 H 2693.29 3.79248 0.790571 0
M  V30 29659 H 2693.7 5.15791 -0.951833 0
M  V30 29660 H 2695.18 5.4716 0.729341 0
M  V30 29661 H 2695.66 4.06134 1.67188 0
M  V30 29662 H 2696.26 4.25299 0.0106944 0
M  V30 29663 N 2694.58 0.315484 1.5441 0
M  V30 29664 C 2695.82 -0.289936 2.00717 0
M  V30 29665 C 2696.16 -1.52418 1.20342 0
M  V30 29666 O 2695.43 -1.92421 0.283613 0
M  V30 29667 C 2695.71 -0.632134 3.54508 0
M  V30 29668 C 2695.57 0.612258 4.45614 0
M  V30 29669 C 2696.89 -1.45297 4.15424 0
M  V30 29670 H 2694 -0.103907 0.729638 0
M  V30 29671 H 2696.65 0.430459 1.8506 0
M  V30 29672 H 2694.8 -1.24588 3.67981 0
M  V30 29673 H 2696.47 1.25061 4.44024 0
M  V30 29674 H 2694.71 1.24271 4.15619 0
M  V30 29675 H 2695.38 0.328476 5.51022 0
M  V30 29676 H 2697.86 -0.934259 4.05476 0
M  V30 29677 H 2696.73 -1.66117 5.2316 0
M  V30 29678 H 2697 -2.44665 3.68228 0
M  V30 29679 N 2696.05 -1.5754 0.0434891 0
M  V30 29680 C 2697 -2.11078 -0.933522 0
M  V30 29681 C 2697.97 -1.01628 -1.31381 0
M  V30 29682 O 2699.16 -1.29132 -1.40462 0
M  V30 29683 C 2696.3 -2.65408 -2.20573 0
M  V30 29684 C 2695.41 -3.88918 -1.88061 0
M  V30 29685 C 2694.54 -4.3159 -3.09683 0
M  V30 29686 C 2693.58 -5.47819 -2.73057 0
M  V30 29687 N 2692.72 -5.85581 -3.87349 0
M  V30 29688 H 2697.56 -2.94269 -0.470066 0
M  V30 29689 H 2695.1 -1.45439 -0.220408 0
M  V30 29690 H 2697.06 -2.95004 -2.95006 0
M  V30 29691 H 2695.69 -1.85026 -2.64509 0
M  V30 29692 H 2694.74 -3.65961 -1.0381 0
M  V30 29693 H 2696.05 -4.73416 -1.57096 0
M  V30 29694 H 2695.2 -4.62697 -3.92423 0
M  V30 29695 H 2693.94 -3.45888 -3.43821 0
M  V30 29696 H 2692.95 -5.16391 -1.88733 0
M  V30 29697 H 2694.17 -6.35232 -2.4012 0
M  V30 29698 H 2692.12 -5.02833 -4.21302 0
M  V30 29699 H 2692.04 -6.64752 -3.60056 0
M  V30 29700 H 2693.3 -6.213 -4.70751 0
M  V30 29701 N 2697.53 0.229818 -1.55915 0
M  V30 29702 C 2698.44 1.3059 -1.94894 0
M  V30 29703 C 2699.46 1.51734 -0.851631 0
M  V30 29704 O 2700.63 1.65025 -1.1545 0
M  V30 29705 C 2697.7 2.63725 -2.25056 0
M  V30 29706 C 2696.76 2.50954 -3.48311 0
M  V30 29707 C 2695.99 3.7774 -3.77025 0
M  V30 29708 O 2696.22 4.80389 -3.07542 0
M  V30 29709 O 2695.15 3.75348 -4.70529 0
M  V30 29710 H 2698.98 1.0052 -2.86582 0
M  V30 29711 H 2696.56 0.432 -1.43018 0
M  V30 29712 H 2698.44 3.42367 -2.45688 0
M  V30 29713 H 2697.12 2.93492 -1.36543 0
M  V30 29714 H 2696.03 1.7054 -3.32967 0
M  V30 29715 H 2697.36 2.26128 -4.37181 0
M  V30 29716 N 2699.01 1.49585 0.49619 0
M  V30 29717 C 2699.94 1.69524 1.60573 0
M  V30 29718 C 2700.92 0.543962 1.61168 0
M  V30 29719 O 2702.11 0.780341 1.77832 0
M  V30 29720 C 2699.24 1.76622 2.99035 0
M  V30 29721 C 2698.19 2.91587 3.13307 0
M  V30 29722 C 2697.52 2.83802 4.53167 0
M  V30 29723 C 2698.82 4.32457 2.92879 0
M  V30 29724 H 2700.51 2.62419 1.44141 0
M  V30 29725 H 2698.06 1.26283 0.692001 0
M  V30 29726 H 2700.01 1.89156 3.76561 0
M  V30 29727 H 2698.73 0.803296 3.16567 0
M  V30 29728 H 2697.39 2.78662 2.38208 0
M  V30 29729 H 2697.04 1.85408 4.67582 0
M  V30 29730 H 2696.74 3.60967 4.63656 0
M  V30 29731 H 2698.26 2.98351 5.32747 0
M  V30 29732 H 2699.68 4.46039 3.6017 0
M  V30 29733 H 2698.08 5.10881 3.14835 0
M  V30 29734 H 2699.15 4.46568 1.88958 0
M  V30 29735 N 2700.49 -0.747586 1.3874 0
M  V30 29736 C 2701.42 -1.87489 1.39176 0
M  V30 29737 C 2702.4 -1.6815 0.256823 0
M  V30 29738 O 2703.58 -1.88654 0.460795 0
M  V30 29739 C 2700.71 -3.2509 1.22203 0
M  V30 29740 C 2699.67 -3.59043 2.32964 0
M  V30 29741 C 2698.99 -4.95446 2.01091 0
M  V30 29742 C 2700.29 -3.63304 3.75244 0
M  V30 29743 H 2701.99 -1.87382 2.33513 0
M  V30 29744 H 2699.53 -0.900114 1.12401 0
M  V30 29745 H 2701.49 -4.03615 1.21131 0
M  V30 29746 H 2700.21 -3.25693 0.243298 0
M  V30 29747 H 2698.87 -2.82841 2.33231 0
M  V30 29748 H 2698.52 -4.92614 1.01687 0
M  V30 29749 H 2698.22 -5.19131 2.75276 0
M  V30 29750 H 2699.74 -5.76342 2.01648 0
M  V30 29751 H 2701.16 -4.3193 3.76974 0
M  V30 29752 H 2699.55 -3.98501 4.48684 0
M  V30 29753 H 2700.62 -2.63393 4.07127 0
M  V30 29754 N 2701.97 -1.23709 -0.97642 0
M  V30 29755 C 2702.9 -0.979611 -2.07211 0
M  V30 29756 C 2703.91 0.0478242 -1.6273 0
M  V30 29757 O 2705.1 -0.188181 -1.77505 0
M  V30 29758 C 2702.2 -0.454849 -3.35834 0
M  V30 29759 C 2701.37 -1.54338 -4.09266 0
M  V30 29760 C 2700.43 -1.0228 -5.16164 0
M  V30 29761 O 2699.46 -1.71263 -5.42824 0
M  V30 29762 N 2700.66 0.147317 -5.80313 0
M  V30 29763 H 2703.43 -1.92296 -2.29875 0
M  V30 29764 H 2700.99 -1.1462 -1.14341 0
M  V30 29765 H 2702.98 -0.0915342 -4.04596 0
M  V30 29766 H 2701.55 0.394014 -3.10107 0
M  V30 29767 H 2700.77 -2.07929 -3.34902 0
M  V30 29768 H 2702.06 -2.2753 -4.55091 0
M  V30 29769 H 2701.45 0.724254 -5.61045 0
M  V30 29770 H 2700.01 0.451858 -6.50232 0
M  V30 29771 N 2703.44 1.17579 -1.04943 0
M  V30 29772 C 2704.86 1.3978 -0.770307 0
M  V30 29773 C 2705.06 1.91187 0.636383 0
M  V30 29774 O 2704.12 2.10188 1.39919 0
M  V30 29775 C 2705.43 2.39077 -1.82381 0
M  V30 29776 C 2706.98 2.52788 -1.84573 0
M  V30 29777 C 2707.45 3.55356 -2.88939 0
M  V30 29778 N 2708.94 3.62872 -2.87886 0
M  V30 29779 C 2709.68 4.41986 -3.65289 0
M  V30 29780 N 2709.17 5.24635 -4.5247 0
M  V30 29781 N 2710.97 4.36835 -3.5374 0
M  V30 29782 H 2703.12 0.825403 -1.95706 0
M  V30 29783 H 2705.38 0.425207 -0.847292 0
M  V30 29784 H 2705.09 2.08371 -2.83327 0
M  V30 29785 H 2704.96 3.38546 -1.66333 0
M  V30 29786 H 2707.35 2.82805 -0.842929 0
M  V30 29787 H 2707.43 1.53402 -2.04698 0
M  V30 29788 H 2707.07 3.26078 -3.89404 0
M  V30 29789 H 2707 4.5444 -2.66067 0
M  V30 29790 H 2709.49 3.0386 -2.24671 0
M  V30 29791 H 2709.81 5.82178 -5.08221 0
M  V30 29792 H 2708.15 5.24025 -4.56533 0
M  V30 29793 H 2711.34 3.71318 -2.85027 0
M  V30 29794 H 2711.52 4.98248 -4.1431 0
M  V30 29795 N 2704.92 0.830104 1.33967 0
M  V30 29796 C 2706.17 0.420768 1.97671 0
M  V30 29797 C 2706.49 -1.02135 1.66113 0
M  V30 29798 O 2705.76 -1.71016 0.955533 0
M  V30 29799 H 2704.34 0.1526 0.731247 0
M  V30 29800 H 2707 1.06113 1.63481 0
M  V30 29801 H 2706.1 0.545642 3.07293 0
M  V30 29802 N 2706.4 -1.46311 0.585725 0
M  V30 29803 C 2707.68 -1.95599 0.00545469 0
M  V30 29804 C 2708.06 -1.52837 -1.45617 0
M  V30 29805 O 2707.41 -0.780484 -2.14757 0
M  V30 29806 C 2707.62 -3.48532 0.180662 0
M  V30 29807 C 2708.96 -4.2457 0.0500537 0
M  V30 29808 O 2709.99 -3.56031 0.109652 0
M  V30 29809 O 2708.85 -5.46437 -0.0831265 0
M  V30 29810 H 2705.94 -0.825599 -0.0481136 0
M  V30 29811 H 2708.49 -1.56581 0.654255 0
M  V30 29812 H 2707.26 -3.72554 1.19663 0
M  V30 29813 H 2706.88 -3.94387 -0.504429 0
M  V30 29814 N 2707.88 -0.323668 -1.54241 0
M  V30 29815 C 2708.83 0.557764 -2.25814 0
M  V30 29816 C 2709.82 1.11847 -1.27227 0
M  V30 29817 O 2711.03 1.06649 -1.45003 0
M  V30 29818 H 2707.4 0.198519 -0.725323 0
M  V30 29819 H 2709.37 -0.0681636 -2.98322 0
M  V30 29820 C 2708.12 1.70696 -3.02916 0
M  V30 29821 H 2707.45 1.28476 -3.78595 0
M  V30 29822 H 2708.89 2.29929 -3.56242 0
M  V30 29823 C 2707.34 2.62463 -2.11222 0
M  V30 29824 O 2707.87 3.64181 -1.69514 0
M  V30 29825 N 2706.08 2.307 -1.76708 0
M  V30 29826 H 2705.63 1.48025 -2.10823 0
M  V30 29827 H 2705.59 2.92362 -1.15636 0
M  V30 29828 N 2709.36 1.57515 -0.0518432 0
M  V30 29829 C 2710.29 2.14601 0.920246 0
M  V30 29830 C 2711.27 1.06785 1.32404 0
M  V30 29831 O 2712.45 1.34728 1.39864 0
M  V30 29832 C 2709.58 2.69154 2.19485 0
M  V30 29833 C 2708.54 3.81959 1.93109 0
M  V30 29834 C 2707.86 4.23031 3.2703 0
M  V30 29835 C 2709.16 5.07068 1.25217 0
M  V30 29836 H 2710.86 2.96078 0.444749 0
M  V30 29837 H 2708.4 1.42424 0.212483 0
M  V30 29838 H 2710.36 3.0773 2.87889 0
M  V30 29839 H 2709.08 1.8487 2.69241 0
M  V30 29840 H 2707.74 3.43856 1.27117 0
M  V30 29841 H 2707.39 3.35697 3.74589 0
M  V30 29842 H 2707.09 4.99061 3.1018 0
M  V30 29843 H 2708.61 4.64209 3.96665 0
M  V30 29844 H 2710.03 5.43087 1.83656 0
M  V30 29845 H 2708.42 5.88245 1.18691 0
M  V30 29846 H 2709.49 4.84362 0.228297 0
M  V30 29847 N 2710.84 -0.221546 1.56035 0
M  V30 29848 C 2711.77 -1.29802 1.88902 0
M  V30 29849 C 2712.78 -1.43045 0.777294 0
M  V30 29850 O 2713.97 -1.43943 1.05559 0
M  V30 29851 C 2711.07 -2.67363 2.08255 0
M  V30 29852 C 2710.24 -2.76068 3.39272 0
M  V30 29853 C 2709.3 -3.94643 3.48056 0
M  V30 29854 O 2708.33 -3.82981 4.21087 0
M  V30 29855 N 2709.53 -5.08948 2.792 0
M  V30 29856 H 2712.29 -1.01933 2.81833 0
M  V30 29857 H 2709.86 -0.411584 1.56581 0
M  V30 29858 H 2711.85 -3.45069 2.11447 0
M  V30 29859 H 2710.42 -2.87832 1.21949 0
M  V30 29860 H 2709.64 -1.84839 3.48178 0
M  V30 29861 H 2710.93 -2.78853 4.2558 0
M  V30 29862 H 2710.32 -5.21318 2.19645 0
M  V30 29863 H 2708.88 -5.84695 2.88053 0
M  V30 29864 N 2712.31 -1.49846 -0.48825 0
M  V30 29865 C 2713.25 -1.63587 -1.60536 0
M  V30 29866 C 2714.26 -0.517999 -1.54339 0
M  V30 29867 O 2715.45 -0.790544 -1.6004 0
M  V30 29868 C 2712.55 -1.5884 -2.99371 0
M  V30 29869 C 2711.72 -2.86374 -3.30619 0
M  V30 29870 C 2710.78 -2.74504 -4.48925 0
M  V30 29871 O 2709.81 -3.48451 -4.50078 0
M  V30 29872 N 2711.01 -1.86904 -5.49588 0
M  V30 29873 H 2713.77 -2.59938 -1.49171 0
M  V30 29874 H 2711.33 -1.47095 -0.676365 0
M  V30 29875 H 2713.33 -1.48536 -3.76456 0
M  V30 29876 H 2711.9 -0.702946 -3.04594 0
M  V30 29877 H 2711.12 -3.10934 -2.42309 0
M  V30 29878 H 2712.4 -3.70898 -3.48299 0
M  V30 29879 H 2711.8 -1.26107 -5.51465 0
M  V30 29880 H 2710.36 -1.82514 -6.25725 0
M  V30 29881 N 2713.79 0.740218 -1.39135 0
M  V30 29882 C 2715.21 1.04507 -1.20625 0
M  V30 29883 C 2715.41 2.01398 -0.0642005 0
M  V30 29884 O 2714.46 2.45611 0.5858 0
M  V30 29885 C 2715.78 1.61236 -2.53818 0
M  V30 29886 C 2717.32 1.73342 -2.60618 0
M  V30 29887 C 2717.8 2.33479 -3.94019 0
M  V30 29888 N 2719.29 2.40895 -3.95631 0
M  V30 29889 C 2720.03 2.88352 -4.95621 0
M  V30 29890 N 2719.52 3.35745 -6.06009 0
M  V30 29891 N 2721.31 2.87514 -4.83003 0
M  V30 29892 H 2713.47 0.0975203 -2.12176 0
M  V30 29893 H 2715.73 0.105888 -0.942068 0
M  V30 29894 H 2715.43 0.975085 -3.37913 0
M  V30 29895 H 2715.31 2.60115 -2.73166 0
M  V30 29896 H 2717.7 2.36192 -1.7691 0
M  V30 29897 H 2717.78 0.731293 -2.45124 0
M  V30 29898 H 2717.42 1.71258 -4.78156 0
M  V30 29899 H 2717.35 3.34359 -4.06831 0
M  V30 29900 H 2719.84 2.07392 -3.15907 0
M  V30 29901 H 2720.15 3.70452 -6.78222 0
M  V30 29902 H 2718.5 3.33768 -6.0961 0
M  V30 29903 H 2721.69 2.49809 -3.9587 0
M  V30 29904 H 2721.86 3.24186 -5.61077 0
M  V30 29905 N 2715.27 1.24225 0.969846 0
M  V30 29906 C 2716.52 1.07469 1.70685 0
M  V30 29907 C 2716.83 -0.386828 1.91737 0
M  V30 29908 O 2718.04 -0.674535 2.62987 0
M  V30 29909 C 2716.49 1.87477 3.07214 0
M  V30 29910 C 2716.1 3.38025 2.94012 0
M  V30 29911 C 2717.85 1.79244 3.84801 0
M  V30 29912 C 2715.75 4.10386 4.25837 0
M  V30 29913 H 2714.68 0.398547 0.64006 0
M  V30 29914 H 2717.33 1.48287 1.08089 0
M  V30 29915 H 2715.72 1.39472 3.70626 0
M  V30 29916 H 2716.89 3.93594 2.39625 0
M  V30 29917 H 2715.2 3.47187 2.29892 0
M  V30 29918 H 2717.8 2.30611 4.82413 0
M  V30 29919 H 2718.14 0.757269 4.09355 0
M  V30 29920 H 2718.68 2.24918 3.28111 0
M  V30 29921 H 2715.42 5.14253 4.06477 0
M  V30 29922 H 2714.94 3.59603 4.80048 0
M  V30 29923 H 2716.62 4.17265 4.94468 0
M  V30 29924 N 2716.75 -1.1702 1.05565 0
M  V30 29925 C 2717.98 -1.91287 0.788484 0
M  V30 29926 C 2718.39 -1.77026 -0.656287 0
M  V30 29927 O 2717.75 -1.10994 -1.44867 0
M  V30 29928 C 2717.8 -3.4223 1.1645 0
M  V30 29929 O 2717.52 -3.56056 2.55257 0
M  V30 29930 C 2719.02 -4.33563 0.924013 0
M  V30 29931 H 2716.24 -0.606808 0.2864 0
M  V30 29932 H 2718.78 -1.48373 1.40733 0
M  V30 29933 H 2716.94 -3.82876 0.590333 0
M  V30 29934 H 2717.35 -4.49604 2.70105 0
M  V30 29935 H 2718.83 -5.37965 1.23682 0
M  V30 29936 H 2719.3 -4.38975 -0.140611 0
M  V30 29937 H 2719.91 -3.98636 1.48221 0
M  V30 29938 N 2718.23 -0.837197 -1.33524 0
M  V30 29939 C 2719.5 -0.354099 -1.92368 0
M  V30 29940 C 2719.88 1.16034 -1.7635 0
M  V30 29941 O 2719.23 1.97401 -1.15087 0
M  V30 29942 C 2719.44 -0.79916 -3.39727 0
M  V30 29943 C 2720.79 -0.806213 -4.16876 0
M  V30 29944 O 2721.81 -0.742658 -3.48372 0
M  V30 29945 O 2720.67 -0.89244 -5.39164 0
M  V30 29946 H 2717.77 -0.0998523 -0.82095 0
M  V30 29947 H 2720.31 -0.922938 -1.42408 0
M  V30 29948 H 2719.08 -1.84168 -3.4525 0
M  V30 29949 H 2718.71 -0.2068 -3.97062 0
M  V30 29950 N 2719.7 1.45999 -0.593476 0
M  V30 29951 C 2720.61 2.34207 0.135776 0
M  V30 29952 C 2721.63 1.504 0.874982 0
M  V30 29953 O 2722.81 1.83241 0.835746 0
M  V30 29954 C 2719.87 3.27778 1.12971 0
M  V30 29955 C 2718.93 4.27488 0.394006 0
M  V30 29956 C 2718.16 5.16589 1.34059 0
M  V30 29957 O 2718.39 5.08832 2.57771 0
M  V30 29958 O 2717.32 5.95934 0.845322 0
M  V30 29959 H 2721.15 2.97939 -0.588743 0
M  V30 29960 H 2718.73 1.4515 -0.35381 0
M  V30 29961 H 2720.61 3.85476 1.70254 0
M  V30 29962 H 2719.29 2.66628 1.83551 0
M  V30 29963 H 2718.2 3.73447 -0.220934 0
M  V30 29964 H 2719.53 4.91453 -0.271026 0
M  V30 29965 N 2721.18 0.331843 1.54067 0
M  V30 29966 C 2722.6 -0.0205108 1.59587 0
M  V30 29967 C 2722.8 -1.49756 1.34816 0
M  V30 29968 O 2721.85 -2.25469 1.13665 0
M  V30 29969 C 2723.17 0.405155 2.97958 0
M  V30 29970 C 2724.72 0.356509 3.10963 0
M  V30 29971 C 2725.19 0.757463 4.51693 0
M  V30 29972 N 2726.68 0.711191 4.57708 0
M  V30 29973 C 2727.42 0.993527 5.64727 0
M  V30 29974 N 2726.91 1.34342 6.7965 0
M  V30 29975 N 2728.71 0.91854 5.54544 0
M  V30 29976 H 2720.86 1.2941 1.68424 0
M  V30 29977 H 2723.12 0.526759 0.788181 0
M  V30 29978 H 2722.83 1.43457 3.21112 0
M  V30 29979 H 2722.7 -0.225626 3.76525 0
M  V30 29980 H 2725.09 -0.663712 2.87539 0
M  V30 29981 H 2725.17 1.02234 2.34482 0
M  V30 29982 H 2724.81 1.77564 4.7585 0
M  V30 29983 H 2724.74 0.0692369 5.26554 0
M  V30 29984 H 2727.23 0.452949 3.75176 0
M  V30 29985 H 2727.55 1.54401 7.57219 0
M  V30 29986 H 2725.89 1.38176 6.81126 0
M  V30 29987 H 2729.08 0.644617 4.6364 0
M  V30 29988 H 2729.25 1.14193 6.37859 0
M  V30 29989 N 2722.66 -1.57485 0.0601958 0
M  V30 29990 C 2723.61 -2.12056 -0.911082 0
M  V30 29991 C 2724.58 -1.03016 -1.30296 0
M  V30 29992 O 2725.76 -1.30614 -1.39085 0
M  V30 29993 C 2722.9 -2.67733 -2.17746 0
M  V30 29994 C 2722.02 -3.9089 -1.83926 0
M  V30 29995 C 2721.15 -4.3485 -3.05088 0
M  V30 29996 C 2720.19 -5.50685 -2.67232 0
M  V30 29997 N 2719.33 -5.89656 -3.81116 0
M  V30 29998 H 2724.17 -2.94751 -0.438829 0
M  V30 29999 H 2721.7 -1.45665 -0.20497 0
M  V30 30000 H 2723.66 -2.98116 -2.91861 0
M  V30 30001 H 2722.29 -1.87821 -2.62532 0
M  V30 30002 H 2721.34 -3.67042 -0.999223 0
M  V30 30003 H 2722.66 -4.75055 -1.52066 0
M  V30 30004 H 2721.81 -4.66834 -3.87494 0
M  V30 30005 H 2720.55 -3.49515 -3.40133 0
M  V30 30006 H 2719.55 -5.18364 -1.83245 0
M  V30 30007 H 2720.78 -6.37743 -2.33369 0
M  V30 30008 H 2718.72 -5.07273 -4.15945 0
M  V30 30009 H 2718.64 -6.68534 -3.52985 0
M  V30 30010 H 2719.91 -6.26258 -4.64134 0
M  V30 30011 N 2724.14 0.213268 -1.5615 0
M  V30 30012 C 2725.55 0.563333 -1.49328 0
M  V30 30013 C 2725.75 1.86746 -0.756859 0
M  V30 30014 O 2724.81 2.50713 -0.29991 0
M  V30 30015 C 2726.12 0.634892 -2.93921 0
M  V30 30016 C 2727.67 0.72496 -3.04489 0
M  V30 30017 C 2728.15 0.82779 -4.50457 0
M  V30 30018 N 2729.64 0.891796 -4.54534 0
M  V30 30019 C 2730.37 0.991215 -5.64768 0
M  V30 30020 N 2729.87 1.05407 -6.84734 0
M  V30 30021 N 2731.66 1.027 -5.52638 0
M  V30 30022 H 2723.81 -0.642402 -2.02452 0
M  V30 30023 H 2726.08 -0.226503 -0.920544 0
M  V30 30024 H 2725.78 -0.253921 -3.50782 0
M  V30 30025 H 2725.66 1.49573 -3.46277 0
M  V30 30026 H 2728.04 1.60421 -2.47688 0
M  V30 30027 H 2728.12 -0.161714 -2.55288 0
M  V30 30028 H 2727.77 -0.0470357 -5.07878 0
M  V30 30029 H 2727.7 1.73 -4.97372 0
M  V30 30030 H 2730.19 0.853206 -3.68142 0
M  V30 30031 H 2730.5 1.12993 -7.64495 0
M  V30 30032 H 2728.85 1.02306 -6.87429 0
M  V30 30033 H 2732.04 0.974606 -4.57842 0
M  V30 30034 H 2732.21 1.10102 -6.38578 0
M  V30 30035 N 2725.62 1.50103 0.480296 0
M  V30 30036 C 2726.53 1.71064 1.60544 0
M  V30 30037 C 2727.54 0.593558 1.63563 0
M  V30 30038 O 2728.72 0.870782 1.81602 0
M  V30 30039 C 2725.78 1.79176 2.96811 0
M  V30 30040 C 2724.84 3.02867 3.04254 0
M  V30 30041 C 2724.08 3.10582 4.34021 0
M  V30 30042 O 2724.3 2.25332 5.24005 0
M  V30 30043 O 2723.23 4.0323 4.46866 0
M  V30 30044 H 2727.06 2.66422 1.45783 0
M  V30 30045 H 2724.65 1.3409 0.658814 0
M  V30 30046 H 2726.53 1.86745 3.77762 0
M  V30 30047 H 2725.2 0.870002 3.11789 0
M  V30 30048 H 2724.11 3.00803 2.22414 0
M  V30 30049 H 2725.44 3.94591 2.94209 0
M  V30 30050 N 2727.09 -0.732829 1.39526 0
M  V30 30051 C 2728 -1.87727 1.40698 0
M  V30 30052 C 2729.02 -1.71368 0.301526 0
M  V30 30053 O 2730.2 -1.93932 0.543347 0
M  V30 30054 C 2727.26 -3.23342 1.25104 0
M  V30 30055 C 2726.32 -3.52079 2.4564 0
M  V30 30056 C 2725.56 -4.81224 2.3078 0
M  V30 30057 O 2725.78 -5.55096 1.31243 0
M  V30 30058 O 2724.71 -5.09909 3.19808 0
M  V30 30059 H 2728.54 -1.89693 2.37172 0
M  V30 30060 H 2726.12 -0.880938 1.20664 0
M  V30 30061 H 2728.01 -4.04381 1.18548 0
M  V30 30062 H 2726.68 -3.22141 0.317266 0
M  V30 30063 H 2725.59 -2.71117 2.57772 0
M  V30 30064 H 2726.92 -3.5806 3.37718 0
M  V30 30065 N 2728.57 -1.24737 -0.963244 0
M  V30 30066 C 2729.82 -1.08372 -1.70113 0
M  V30 30067 C 2730.13 0.376654 -1.91939 0
M  V30 30068 O 2731.34 0.660578 -2.63341 0
M  V30 30069 C 2729.8 -1.89104 -3.06215 0
M  V30 30070 C 2729.4 -3.3958 -2.92215 0
M  V30 30071 C 2731.15 -1.81282 -3.83845 0
M  V30 30072 C 2729.06 -4.12639 -4.23655 0
M  V30 30073 H 2727.99 -0.401936 -0.637937 0
M  V30 30074 H 2730.64 -1.48858 -1.07301 0
M  V30 30075 H 2729.02 -1.41436 -3.69881 0
M  V30 30076 H 2730.19 -3.9486 -2.37534 0
M  V30 30077 H 2728.51 -3.48401 -2.28047 0
M  V30 30078 H 2731.1 -2.33166 -4.81184 0
M  V30 30079 H 2731.45 -0.778967 -4.08947 0
M  V30 30080 H 2731.98 -2.26655 -3.26914 0
M  V30 30081 H 2728.72 -5.16402 -4.03744 0
M  V30 30082 H 2728.24 -3.62143 -4.78134 0
M  V30 30083 H 2729.92 -4.19882 -4.92248 0
M  V30 30084 N 2730.05 1.16459 -1.06184 0
M  V30 30085 C 2731 2.20811 -0.671652 0
M  V30 30086 C 2731.97 1.62765 0.331158 0
M  V30 30087 O 2733.15 1.89524 0.220296 0
M  V30 30088 C 2730.29 3.45042 -0.0630897 0
M  V30 30089 C 2729.41 4.17338 -1.11594 0
M  V30 30090 C 2728.54 5.29084 -0.473639 0
M  V30 30091 C 2727.58 5.9318 -1.5101 0
M  V30 30092 N 2726.72 6.9642 -0.89124 0
M  V30 30093 H 2731.56 2.5354 -1.56594 0
M  V30 30094 H 2729.09 1.24531 -0.782973 0
M  V30 30095 H 2731.05 4.16067 0.307271 0
M  V30 30096 H 2729.68 3.12867 0.794608 0
M  V30 30097 H 2728.73 3.44928 -1.60402 0
M  V30 30098 H 2730.05 4.61101 -1.9023 0
M  V30 30099 H 2729.2 6.06679 -0.0502499 0
M  V30 30100 H 2727.94 4.86481 0.344601 0
M  V30 30101 H 2726.94 5.14307 -1.9434 0
M  V30 30102 H 2728.17 6.37862 -2.33042 0
M  V30 30103 H 2726.11 6.55933 -0.0936906 0
M  V30 30104 H 2726.03 7.38549 -1.61499 0
M  V30 30105 H 2727.3 7.7794 -0.492959 0
M  V30 30106 N 2731.53 0.844266 1.33079 0
M  V30 30107 C 2732.78 0.438868 1.96868 0
M  V30 30108 C 2733.09 -1.00844 1.67601 0
M  V30 30109 O 2734.3 -1.51877 2.25046 0
M  V30 30110 C 2732.75 0.733832 3.52339 0
M  V30 30111 C 2732.36 2.19617 3.90477 0
M  V30 30112 C 2734.1 0.395649 4.22652 0
M  V30 30113 C 2732.01 2.4349 5.38949 0
M  V30 30114 H 2730.94 0.160377 0.736746 0
M  V30 30115 H 2733.59 1.0336 1.51621 0
M  V30 30116 H 2731.97 0.0686586 3.9594 0
M  V30 30117 H 2733.15 2.90227 3.57917 0
M  V30 30118 H 2731.46 2.49786 3.33161 0
M  V30 30119 H 2734.06 0.55157 5.31848 0
M  V30 30120 H 2734.4 -0.661849 4.11005 0
M  V30 30121 H 2734.94 1.01628 3.84599 0
M  V30 30122 H 2731.68 3.47825 5.55606 0
M  V30 30123 H 2731.2 1.77447 5.72951 0
M  V30 30124 H 2732.87 2.26915 6.05903 0
M  V30 30125 N 2733.01 -1.45682 0.60121 0
M  V30 30126 C 2733.95 -2.30481 -0.121356 0
M  V30 30127 C 2734.92 -1.41725 -0.866207 0
M  V30 30128 O 2736.11 -1.7066 -0.85321 0
M  V30 30129 C 2733.25 -3.26523 -1.11698 0
M  V30 30130 C 2732.36 -4.30381 -0.373665 0
M  V30 30131 C 2731.5 -5.13536 -1.35845 0
M  V30 30132 C 2730.54 -6.09127 -0.602582 0
M  V30 30133 N 2729.67 -6.85085 -1.53633 0
M  V30 30134 H 2734.51 -2.91736 0.607783 0
M  V30 30135 H 2732.05 -1.43763 0.311527 0
M  V30 30136 H 2734.01 -3.80667 -1.70729 0
M  V30 30137 H 2732.64 -2.67036 -1.81361 0
M  V30 30138 H 2731.69 -3.78948 0.332028 0
M  V30 30139 H 2733 -4.9833 0.216388 0
M  V30 30140 H 2732.16 -5.72049 -2.02101 0
M  V30 30141 H 2730.89 -4.45591 -1.98243 0
M  V30 30142 H 2729.9 -5.49751 0.0736448 0
M  V30 30143 H 2731.12 -6.79098 0.016266 0
M  V30 30144 H 2729.07 -6.19833 -2.14808 0
M  V30 30145 H 2728.99 -7.49363 -0.999557 0
M  V30 30146 H 2730.26 -7.48143 -2.18867 0
M  V30 30147 N 2734.48 -0.340009 -1.53889 0
M  V30 30148 C 2735.42 0.552711 -2.22436 0
M  V30 30149 C 2736.43 1.06679 -1.22977 0
M  V30 30150 O 2737.62 0.977548 -1.49353 0
M  V30 30151 C 2734.72 1.77297 -2.88823 0
M  V30 30152 C 2733.89 1.39478 -4.14565 0
M  V30 30153 C 2732.95 2.47434 -4.64395 0
M  V30 30154 O 2731.98 2.10889 -5.28691 0
M  V30 30155 N 2733.18 3.78631 -4.40021 0
M  V30 30156 H 2735.94 -0.0343196 -2.9968 0
M  V30 30157 H 2733.5 -0.163968 -1.61068 0
M  V30 30158 H 2735.5 2.48942 -3.19076 0
M  V30 30159 H 2734.07 2.26746 -2.15186 0
M  V30 30160 H 2733.29 0.509253 -3.90897 0
M  V30 30161 H 2734.57 1.11804 -4.96364 0
M  V30 30162 H 2733.97 4.11111 -3.88593 0
M  V30 30163 H 2732.53 4.46457 -4.74889 0
M  V30 30164 N 2735.96 1.57451 -0.0685468 0
M  V30 30165 C 2736.9 2.09514 0.929336 0
M  V30 30166 C 2737.91 1.02659 1.26353 0
M  V30 30167 O 2739.1 1.30181 1.22128 0
M  V30 30168 C 2736.2 2.53781 2.24608 0
M  V30 30169 C 2735.37 3.8417 2.09122 0
M  V30 30170 C 2734.43 4.14565 3.24072 0
M  V30 30171 O 2733.46 4.84215 2.99206 0
M  V30 30172 N 2734.66 3.67853 4.49071 0
M  V30 30173 H 2737.42 2.95752 0.484849 0
M  V30 30174 H 2734.98 1.61475 0.117262 0
M  V30 30175 H 2736.98 2.71178 3.00408 0
M  V30 30176 H 2735.55 1.72697 2.60566 0
M  V30 30177 H 2734.77 3.76185 1.17808 0
M  V30 30178 H 2736.05 4.69524 1.96021 0
M  V30 30179 H 2735.45 3.11579 4.7216 0
M  V30 30180 H 2734.01 3.90456 5.21908 0
M  V30 30181 N 2737.44 -0.204984 1.56261 0
M  V30 30182 C 2738.37 -1.25696 1.96781 0
M  V30 30183 C 2739.35 -1.48007 0.838335 0
M  V30 30184 O 2740.54 -1.59911 1.10192 0
M  V30 30185 C 2737.67 -2.60331 2.2988 0
M  V30 30186 C 2736.62 -2.5265 3.45473 0
M  V30 30187 C 2735.95 -3.91467 3.64222 0
M  V30 30188 C 2737.25 -2.06005 4.79957 0
M  V30 30189 H 2738.94 -0.920288 2.84905 0
M  V30 30190 H 2736.49 -0.441253 1.37073 0
M  V30 30191 H 2738.44 -3.34098 2.5682 0
M  V30 30192 H 2737.16 -2.9572 1.38627 0
M  V30 30193 H 2735.82 -1.8134 3.18609 0
M  V30 30194 H 2735.47 -4.24191 2.70316 0
M  V30 30195 H 2735.17 -3.87205 4.4198 0
M  V30 30196 H 2736.7 -4.66871 3.93528 0
M  V30 30197 H 2738.11 -2.69524 5.05994 0
M  V30 30198 H 2736.51 -2.12767 5.61115 0
M  V30 30199 H 2737.58 -1.01289 4.74203 0
M  V30 30200 N 2738.92 -1.50356 -0.472329 0
M  V30 30201 C 2739.85 -1.72057 -1.57856 0
M  V30 30202 C 2740.83 -0.569533 -1.60282 0
M  V30 30203 O 2742.02 -0.808534 -1.76568 0
M  V30 30204 C 2739.15 -1.81357 -2.96188 0
M  V30 30205 C 2738.1 -2.96535 -3.08628 0
M  V30 30206 C 2737.43 -2.90975 -4.48595 0
M  V30 30207 C 2738.73 -4.37062 -2.85962 0
M  V30 30208 H 2740.42 -2.64679 -1.39948 0
M  V30 30209 H 2737.97 -1.27368 -0.671823 0
M  V30 30210 H 2739.92 -1.95123 -3.73504 0
M  V30 30211 H 2738.64 -0.853558 -3.15249 0
M  V30 30212 H 2737.3 -2.82417 -2.33744 0
M  V30 30213 H 2736.95 -1.92823 -4.64573 0
M  V30 30214 H 2736.65 -3.68297 -4.57855 0
M  V30 30215 H 2738.17 -3.06789 -5.27933 0
M  V30 30216 H 2739.59 -4.51712 -3.53028 0
M  V30 30217 H 2737.98 -5.15825 -3.06667 0
M  V30 30218 H 2739.05 -4.49517 -1.8183 0
M  V30 30219 N 2740.4 0.725419 -1.39912 0
M  V30 30220 C 2741.33 1.85001 -1.35305 0
M  V30 30221 C 2742.34 1.60708 -0.260131 0
M  V30 30222 O 2743.53 1.70765 -0.519779 0
M  V30 30223 C 2740.63 3.21216 -1.08045 0
M  V30 30224 C 2739.8 3.72786 -2.288 0
M  V30 30225 C 2738.86 4.87588 -1.9785 0
M  V30 30226 O 2737.89 5.0075 -2.70625 0
M  V30 30227 N 2739.09 5.72666 -0.950468 0
M  V30 30228 H 2741.86 1.89455 -2.32222 0
M  V30 30229 H 2739.42 0.906556 -1.34139 0
M  V30 30230 H 2741.41 3.95599 -0.853424 0
M  V30 30231 H 2739.98 3.11971 -0.198284 0
M  V30 30232 H 2739.2 2.89645 -2.67394 0
M  V30 30233 H 2740.49 4.03976 -3.09324 0
M  V30 30234 H 2739.89 5.64631 -0.347535 0
M  V30 30235 H 2738.44 6.47076 -0.783346 0
M  V30 30236 N 2741.88 1.25246 0.956615 0
M  V30 30237 C 2743.1 1.12611 1.73569 0
M  V30 30238 C 2743.52 -0.320292 1.86063 0
M  V30 30239 O 2742.88 -1.22039 1.35693 0
M  V30 30240 C 2742.93 1.77274 3.1505 0
M  V30 30241 O 2742.65 3.1626 3.03169 0
M  V30 30242 C 2744.15 1.70393 4.09245 0
M  V30 30243 H 2741.37 0.392888 0.543948 0
M  V30 30244 H 2743.91 1.6557 1.20028 0
M  V30 30245 H 2742.07 1.2829 3.65541 0
M  V30 30246 H 2742.48 3.48022 3.92404 0
M  V30 30247 H 2743.96 2.203 5.06134 0
M  V30 30248 H 2744.43 0.667315 4.34101 0
M  V30 30249 H 2745.04 2.18855 3.64668 0
M  V30 30250 N 2743.35 -1.15894 1.068 0
M  V30 30251 C 2744.3 -2.20452 0.683352 0
M  V30 30252 C 2745.27 -1.62939 -0.322521 0
M  V30 30253 O 2746.46 -1.89638 -0.210242 0
M  V30 30254 C 2743.6 -3.45004 0.0813872 0
M  V30 30255 C 2742.71 -4.1674 1.13806 0
M  V30 30256 C 2741.84 -5.28826 0.501691 0
M  V30 30257 C 2740.88 -5.92371 1.54154 0
M  V30 30258 N 2740.02 -6.95938 0.92816 0
M  V30 30259 H 2744.86 -2.52706 1.57936 0
M  V30 30260 H 2742.4 -1.24114 0.789566 0
M  V30 30261 H 2744.35 -4.16224 -0.285201 0
M  V30 30262 H 2742.98 -3.13284 -0.778005 0
M  V30 30263 H 2742.04 -3.44073 1.62229 0
M  V30 30264 H 2743.35 -4.60086 1.92672 0
M  V30 30265 H 2742.5 -6.06644 0.0824228 0
M  V30 30266 H 2741.24 -4.86657 -0.318797 0
M  V30 30267 H 2740.25 -5.13269 1.97065 0
M  V30 30268 H 2741.47 -6.36617 2.36422 0
M  V30 30269 H 2739.42 -6.55874 0.128475 0
M  V30 30270 H 2739.33 -7.37682 1.65414 0
M  V30 30271 H 2740.6 -7.77667 0.534208 0
M  V30 30272 N 2744.83 -0.851312 -1.32629 0
M  V30 30273 C 2745.78 -0.265342 -2.26451 0
M  V30 30274 C 2746.77 0.586873 -1.49815 0
M  V30 30275 O 2747.96 0.436804 -1.71526 0
M  V30 30276 C 2745.09 0.548152 -3.38896 0
M  V30 30277 C 2744.17 -0.316264 -4.22919 0
M  V30 30278 N 2744.56 -1.40093 -4.86012 0
M  V30 30279 C 2742.86 -0.105434 -4.45875 0
M  V30 30280 C 2743.56 -1.93245 -5.48663 0
M  V30 30281 N 2742.54 -1.2321 -5.29453 0
M  V30 30282 H 2746.34 -1.09462 -2.72755 0
M  V30 30283 H 2743.85 -0.697073 -1.46679 0
M  V30 30284 H 2745.85 0.984331 -4.05113 0
M  V30 30285 H 2744.51 1.37526 -2.94137 0
M  V30 30286 H 2745.52 -1.78385 -4.86209 0
M  V30 30287 H 2742.2 0.687227 -4.11805 0
M  V30 30288 H 2743.59 -2.84146 -6.0886 0
M  V30 30289 N 2746.31 1.45361 -0.608928 0
M  V30 30290 C 2747.26 2.32282 0.121598 0
M  V30 30291 C 2748.25 1.46048 0.858275 0
M  V30 30292 O 2749.46 1.62524 0.773689 0
M  V30 30293 H 2745.83 0.749754 0.0580728 0
M  V30 30294 H 2747.8 2.91676 -0.629918 0
M  V30 30295 C 2746.55 3.29686 1.10464 0
M  V30 30296 H 2745.88 3.96037 0.547208 0
M  V30 30297 H 2747.32 3.93232 1.58569 0
M  V30 30298 C 2745.77 2.56957 2.17886 0
M  V30 30299 O 2746.3 2.35195 3.25648 0
M  V30 30300 N 2744.51 2.1707 1.93207 0
M  V30 30301 H 2744.06 2.34969 1.0558 0
M  V30 30302 H 2744.02 1.68731 2.65287 0
M  V30 30303 N 2747.79 0.348166 1.53706 0
M  V30 30304 C 2748.75 -0.494019 2.23813 0
M  V30 30305 C 2749.75 -1.02386 1.23991 0
M  V30 30306 O 2750.94 -0.91237 1.48396 0
M  V30 30307 C 2748.07 -1.68867 2.96136 0
M  V30 30308 H 2749.27 0.119193 2.99663 0
M  V30 30309 H 2746.82 0.0995813 1.55982 0
M  V30 30310 H 2747.55 -2.34045 2.24485 0
M  V30 30311 H 2747.34 -1.3159 3.6936 0
M  V30 30312 H 2748.83 -2.28591 3.49479 0
M  V30 30313 N 2749.27 -1.57412 0.0768958 0
M  V30 30314 C 2750.2 -2.16038 -0.885988 0
M  V30 30315 C 2751.18 -1.08878 -1.30689 0
M  V30 30316 O 2752.36 -1.36936 -1.37703 0
M  V30 30317 C 2749.49 -2.72611 -2.15175 0
M  V30 30318 C 2748.45 -3.84983 -1.87008 0
M  V30 30319 C 2747.77 -4.28181 -3.20258 0
M  V30 30320 C 2749.07 -5.08996 -1.17134 0
M  V30 30321 H 2750.77 -2.96748 -0.397589 0
M  V30 30322 H 2748.31 -1.42744 -0.189798 0
M  V30 30323 H 2750.26 -3.12271 -2.82957 0
M  V30 30324 H 2748.99 -1.8913 -2.66266 0
M  V30 30325 H 2747.65 -3.45835 -1.2163 0
M  V30 30326 H 2747.3 -3.41614 -3.69201 0
M  V30 30327 H 2747 -5.03933 -3.02201 0
M  V30 30328 H 2748.52 -4.7046 -3.89229 0
M  V30 30329 H 2749.93 -5.4594 -1.74993 0
M  V30 30330 H 2748.33 -5.90059 -1.09318 0
M  V30 30331 H 2749.4 -4.84664 -0.15121 0
M  V30 30332 N 2750.74 0.196695 -1.56368 0
M  V30 30333 C 2751.69 1.24378 -1.94419 0
M  V30 30334 C 2752.66 1.45313 -0.804569 0
M  V30 30335 O 2753.85 1.58473 -1.06259 0
M  V30 30336 C 2750.99 2.58384 -2.28761 0
M  V30 30337 C 2750.1 2.45041 -3.55779 0
M  V30 30338 C 2749.23 3.71739 -3.79451 0
M  V30 30339 C 2748.27 3.53223 -4.999 0
M  V30 30340 N 2747.41 4.71929 -5.19834 0
M  V30 30341 H 2752.25 0.912288 -2.83692 0
M  V30 30342 H 2749.79 0.43911 -1.40393 0
M  V30 30343 H 2751.75 3.36453 -2.46688 0
M  V30 30344 H 2750.38 2.8958 -1.4263 0
M  V30 30345 H 2749.43 1.58278 -3.45908 0
M  V30 30346 H 2750.74 2.27292 -4.44004 0
M  V30 30347 H 2749.89 4.58249 -3.97609 0
M  V30 30348 H 2748.63 3.92441 -2.89553 0
M  V30 30349 H 2747.64 2.65098 -4.81667 0
M  V30 30350 H 2748.86 3.33968 -5.91306 0
M  V30 30351 H 2746.81 4.92897 -4.32884 0
M  V30 30352 H 2746.73 4.56999 -6.02236 0
M  V30 30353 H 2747.99 5.59794 -5.42449 0
M  V30 30354 N 2752.22 1.50604 0.464349 0
M  V30 30355 C 2753.5 1.52452 1.22547 0
M  V30 30356 C 2753.88 0.273072 2.09326 0
M  V30 30357 O 2753.23 -0.743204 2.16076 0
M  V30 30358 C 2753.44 2.82397 2.05069 0
M  V30 30359 C 2754.79 3.33317 2.6303 0
M  V30 30360 O 2755.81 2.83764 2.15305 0
M  V30 30361 O 2754.67 4.19715 3.50003 0
M  V30 30362 H 2751.76 0.611785 0.55646 0
M  V30 30363 H 2754.31 1.62899 0.47562 0
M  V30 30364 H 2753.08 3.6495 1.41163 0
M  V30 30365 H 2752.7 2.74985 2.87174 0
M  V30 30366 N 2753.7 -0.717989 1.40295 0
M  V30 30367 C 2754.63 -1.84495 1.43122 0
M  V30 30368 C 2755.61 -1.67567 0.292433 0
M  V30 30369 O 2756.8 -1.87634 0.500707 0
M  V30 30370 C 2753.93 -3.22425 1.29071 0
M  V30 30371 C 2752.88 -3.54021 2.40527 0
M  V30 30372 C 2752.21 -4.91069 2.11555 0
M  V30 30373 C 2753.51 -3.55262 3.82865 0
M  V30 30374 H 2755.2 -1.82387 2.37435 0
M  V30 30375 H 2752.75 -0.87607 1.14285 0
M  V30 30376 H 2754.7 -4.00955 1.29665 0
M  V30 30377 H 2753.42 -3.25103 0.312328 0
M  V30 30378 H 2752.08 -2.7783 2.39178 0
M  V30 30379 H 2751.73 -4.90347 1.12113 0
M  V30 30380 H 2751.43 -5.13175 2.86225 0
M  V30 30381 H 2752.95 -5.71935 2.13827 0
M  V30 30382 H 2754.37 -4.23837 3.86051 0
M  V30 30383 H 2752.77 -3.88894 4.57035 0
M  V30 30384 H 2753.84 -2.54698 4.12622 0
M  V30 30385 N 2755.18 -1.25752 -0.94996 0
M  V30 30386 C 2756.59 -1.02675 -1.22189 0
M  V30 30387 C 2756.79 0.253553 -1.99898 0
M  V30 30388 O 2755.85 0.965035 -2.33331 0
M  V30 30389 C 2757.16 -2.2528 -1.99171 0
M  V30 30390 C 2758.71 -2.3009 -2.12197 0
M  V30 30391 C 2759.19 -3.52365 -2.9258 0
M  V30 30392 N 2760.68 -3.52789 -3.00156 0
M  V30 30393 C 2761.41 -4.44065 -3.62759 0
M  V30 30394 N 2760.91 -5.45619 -4.26933 0
M  V30 30395 N 2762.7 -4.31736 -3.59945 0
M  V30 30396 H 2754.85 -2.07997 -0.430221 0
M  V30 30397 H 2757.12 -0.913664 -0.252828 0
M  V30 30398 H 2756.82 -3.18356 -1.49473 0
M  V30 30399 H 2756.7 -2.28826 -2.99864 0
M  V30 30400 H 2759.08 -1.37534 -2.61091 0
M  V30 30401 H 2759.16 -2.3056 -1.10795 0
M  V30 30402 H 2758.81 -4.45245 -2.44375 0
M  V30 30403 H 2758.74 -3.49141 -3.94218 0
M  V30 30404 H 2761.23 -2.79331 -2.54524 0
M  V30 30405 H 2761.54 -6.1147 -4.72572 0
M  V30 30406 H 2759.89 -5.49486 -4.25547 0
M  V30 30407 H 2763.08 -3.51623 -3.08997 0
M  V30 30408 H 2763.25 -5.03066 -4.08446 0
M  V30 30409 N 2756.66 1.15326 -1.07413 0
M  V30 30410 C 2757.88 1.90549 -0.818889 0
M  V30 30411 C 2758.31 1.77513 0.622163 0
M  V30 30412 O 2757.66 1.10826 1.43482 0
M  V30 30413 C 2757.71 3.38875 -1.23273 0
M  V30 30414 O 2756.82 4.1066 -0.378418 0
M  V30 30415 H 2756.16 0.593233 -0.29828 0
M  V30 30416 H 2758.69 1.46043 -1.43292 0
M  V30 30417 H 2758.7 3.8967 -1.20919 0
M  V30 30418 H 2757.37 3.47682 -2.28232 0
M  V30 30419 H 2755.95 3.69996 -0.464502 0
M  V30 30420 N 2758.13 0.858334 1.32176 0
M  V30 30421 C 2759.07 0.262875 2.27688 0
M  V30 30422 C 2760.08 -0.567487 1.52589 0
M  V30 30423 O 2761.27 -0.391377 1.74157 0
M  V30 30424 C 2758.37 -0.646879 3.32669 0
M  V30 30425 C 2757.54 0.148449 4.37148 0
M  V30 30426 C 2756.6 -0.687637 5.21688 0
M  V30 30427 O 2755.63 -0.119834 5.69074 0
M  V30 30428 N 2756.83 -2.00172 5.44896 0
M  V30 30429 H 2759.59 1.08361 2.79424 0
M  V30 30430 H 2757.15 0.718673 1.45075 0
M  V30 30431 H 2759.15 -1.21164 3.86137 0
M  V30 30432 H 2757.72 -1.36829 2.81063 0
M  V30 30433 H 2756.94 0.894639 3.83914 0
M  V30 30434 H 2758.22 0.694603 5.04036 0
M  V30 30435 H 2757.62 -2.48632 5.08133 0
M  V30 30436 H 2756.18 -2.51452 6.01344 0
M  V30 30437 N 2759.61 -1.45036 0.616628 0
M  V30 30438 C 2761.03 -1.57106 0.281022 0
M  V30 30439 C 2761.23 -1.60655 -1.21624 0
M  V30 30440 O 2760.28 -1.54173 -1.99968 0
M  V30 30441 C 2761.6 -2.84958 0.960167 0
M  V30 30442 C 2763.15 -2.98648 0.936937 0
M  V30 30443 C 2763.62 -4.29282 1.59627 0
M  V30 30444 N 2765.11 -4.36062 1.56217 0
M  V30 30445 C 2765.85 -5.35831 2.0414 0
M  V30 30446 N 2765.34 -6.42085 2.60189 0
M  V30 30447 N 2767.14 -5.27246 1.94854 0
M  V30 30448 H 2759.29 -1.40976 1.58869 0
M  V30 30449 H 2761.55 -0.674611 0.666036 0
M  V30 30450 H 2761.26 -2.8827 2.01478 0
M  V30 30451 H 2761.13 -3.74017 0.488987 0
M  V30 30452 H 2763.52 -2.94898 -0.109157 0
M  V30 30453 H 2763.6 -2.10976 1.44647 0
M  V30 30454 H 2763.24 -4.33791 2.64173 0
M  V30 30455 H 2763.17 -5.15787 1.06168 0
M  V30 30456 H 2765.66 -3.59887 1.15282 0
M  V30 30457 H 2765.98 -7.14475 2.94525 0
M  V30 30458 H 2764.32 -6.42811 2.64232 0
M  V30 30459 H 2767.51 -4.43145 1.50799 0
M  V30 30460 H 2767.68 -6.04848 2.32514 0
M  V30 30461 N 2761.09 -0.356312 -1.53519 0
M  V30 30462 C 2762.51 -0.00488072 -1.59599 0
M  V30 30463 C 2762.71 1.47593 -1.37181 0
M  V30 30464 O 2761.76 2.23632 -1.17238 0
M  V30 30465 C 2763.08 -0.452506 -2.97276 0
M  V30 30466 C 2764.62 -0.405935 -3.10357 0
M  V30 30467 C 2765.1 -0.829228 -4.50431 0
M  V30 30468 N 2766.59 -0.783918 -4.56518 0
M  V30 30469 C 2767.32 -1.08324 -5.63075 0
M  V30 30470 N 2766.82 -1.45138 -6.77427 0
M  V30 30471 N 2768.61 -1.00665 -5.53013 0
M  V30 30472 H 2760.76 -1.32074 -1.66344 0
M  V30 30473 H 2763.03 -0.539232 -0.779701 0
M  V30 30474 H 2762.73 -1.48547 -3.18789 0
M  V30 30475 H 2762.61 0.165696 -3.76836 0
M  V30 30476 H 2764.99 0.617883 -2.88559 0
M  V30 30477 H 2765.08 -1.05951 -2.32826 0
M  V30 30478 H 2764.72 -1.85112 -4.72965 0
M  V30 30479 H 2764.65 -0.152998 -5.26378 0
M  V30 30480 H 2767.14 -0.512579 -3.74408 0
M  V30 30481 H 2767.45 -1.66428 -7.54666 0
M  V30 30482 H 2765.8 -1.48995 -6.78841 0
M  V30 30483 H 2768.99 -0.718297 -4.62556 0
M  V30 30484 H 2769.16 -1.24326 -6.35962 0
M  V30 30485 N 2762.57 1.57369 -0.0852427 0
M  V30 30486 C 2763.52 2.13479 0.877231 0
M  V30 30487 C 2764.49 1.05076 1.2864 0
M  V30 30488 O 2765.67 1.3281 1.36989 0
M  V30 30489 C 2762.81 2.71163 2.13459 0
M  V30 30490 C 2761.92 3.93767 1.77684 0
M  V30 30491 C 2761.06 4.39649 2.98132 0
M  V30 30492 C 2760.1 5.54867 2.58437 0
M  V30 30493 N 2759.23 5.95645 3.71687 0
M  V30 30494 H 2764.07 2.95412 0.391881 0
M  V30 30495 H 2761.61 1.45973 0.18177 0
M  V30 30496 H 2763.57 3.02722 2.87081 0
M  V30 30497 H 2762.2 1.91974 2.59511 0
M  V30 30498 H 2761.25 3.68585 0.940703 0
M  V30 30499 H 2762.56 4.77414 1.44489 0
M  V30 30500 H 2761.72 4.72939 3.80018 0
M  V30 30501 H 2760.46 3.54882 3.3453 0
M  V30 30502 H 2759.46 5.21214 1.74975 0
M  V30 30503 H 2760.69 6.41375 2.23194 0
M  V30 30504 H 2758.63 5.13826 4.07822 0
M  V30 30505 H 2758.55 6.74065 3.42305 0
M  V30 30506 H 2759.82 6.33563 4.54112 0
M  V30 30507 N 2764.05 -0.188399 1.5647 0
M  V30 30508 C 2764.99 -1.23346 1.95076 0
M  V30 30509 C 2765.96 -1.44884 0.812264 0
M  V30 30510 O 2767.15 -1.57907 1.07098 0
M  V30 30511 C 2764.29 -2.57167 2.30128 0
M  V30 30512 C 2763.4 -2.43151 3.57074 0
M  V30 30513 C 2762.54 -3.69722 3.81417 0
M  V30 30514 C 2761.58 -3.50566 5.01766 0
M  V30 30515 N 2760.71 -4.69165 5.2233 0
M  V30 30516 H 2765.55 -0.89723 2.84172 0
M  V30 30517 H 2763.09 -0.431659 1.40624 0
M  V30 30518 H 2765.05 -3.3514 2.48469 0
M  V30 30519 H 2763.68 -2.88819 1.44164 0
M  V30 30520 H 2762.73 -1.56441 3.46743 0
M  V30 30521 H 2764.04 -2.24934 4.45204 0
M  V30 30522 H 2763.2 -4.56134 4.00034 0
M  V30 30523 H 2761.93 -3.909 2.9163 0
M  V30 30524 H 2760.94 -2.6254 4.83066 0
M  V30 30525 H 2762.16 -3.30827 5.93069 0
M  V30 30526 H 2760.11 -4.90595 4.35491 0
M  V30 30527 H 2760.03 -4.53798 6.04651 0
M  V30 30528 H 2761.3 -5.56909 5.4541 0
M  V30 30529 N 2765.53 -1.50848 -0.456355 0
M  V30 30530 C 2766.49 -1.70216 -1.5349 0
M  V30 30531 C 2767.49 -0.572507 -1.50263 0
M  V30 30532 O 2768.68 -0.839777 -1.52622 0
M  V30 30533 C 2765.81 -1.74105 -2.93088 0
M  V30 30534 H 2767 -2.66455 -1.37628 0
M  V30 30535 H 2764.56 -1.40551 -0.683751 0
M  V30 30536 H 2765.29 -0.796119 -3.14376 0
M  V30 30537 H 2765.08 -2.56185 -2.96836 0
M  V30 30538 H 2766.57 -1.90993 -3.71364 0
M  V30 30539 N 2767 0.710538 -1.40674 0
M  V30 30540 C 2767.93 1.83734 -1.44098 0
M  V30 30541 C 2768.91 1.6741 -0.301315 0
M  V30 30542 O 2770.1 1.87366 -0.510651 0
M  V30 30543 C 2767.23 3.21736 -1.30779 0
M  V30 30544 C 2766.18 3.5274 -2.42401 0
M  V30 30545 C 2765.51 4.8994 -2.14156 0
M  V30 30546 C 2766.81 3.53227 -3.84744 0
M  V30 30547 H 2768.5 1.81125 -2.38399 0
M  V30 30548 H 2766.05 0.869996 -1.14748 0
M  V30 30549 H 2768 4.00262 -1.3179 0
M  V30 30550 H 2766.73 3.24933 -0.329565 0
M  V30 30551 H 2765.39 2.76558 -2.40648 0
M  V30 30552 H 2765.03 4.89745 -1.14712 0
M  V30 30553 H 2764.73 5.1165 -2.88943 0
M  V30 30554 H 2766.26 5.70793 -2.16858 0
M  V30 30555 H 2767.67 4.21783 -3.88293 0
M  V30 30556 H 2766.07 3.86465 -4.59091 0
M  V30 30557 H 2767.14 2.52506 -4.13967 0
M  V30 30558 N 2768.48 1.26254 0.943277 0
M  V30 30559 C 2769.39 1.09401 2.0753 0
M  V30 30560 C 2770.41 0.0280755 1.73977 0
M  V30 30561 O 2771.58 0.231372 2.00067 0
M  V30 30562 C 2768.65 0.726582 3.39001 0
M  V30 30563 C 2767.71 1.8717 3.8635 0
M  V30 30564 C 2766.94 1.52171 5.11546 0
M  V30 30565 O 2767.17 0.422485 5.68833 0
M  V30 30566 O 2766.1 2.35575 5.53885 0
M  V30 30567 H 2769.93 2.04363 2.24654 0
M  V30 30568 H 2767.51 1.05297 1.05986 0
M  V30 30569 H 2769.39 0.534309 4.17999 0
M  V30 30570 H 2768.07 -0.193664 3.2312 0
M  V30 30571 H 2766.97 2.11892 3.08306 0
M  V30 30572 H 2768.31 2.77159 4.06748 0
M  V30 30573 N 2769.96 -1.14755 1.08024 0
M  V30 30574 C 2771.21 -1.85048 0.802501 0
M  V30 30575 C 2771.52 -1.8362 -0.674028 0
M  V30 30576 O 2772.73 -2.49664 -1.06678 0
M  V30 30577 C 2771.18 -3.3216 1.38556 0
M  V30 30578 C 2770.79 -3.42016 2.8936 0
M  V30 30579 C 2772.54 -4.07591 1.18615 0
M  V30 30580 C 2770.44 -4.83315 3.40823 0
M  V30 30581 H 2769.37 -0.693243 0.29653 0
M  V30 30582 H 2772.02 -1.29391 1.30116 0
M  V30 30583 H 2770.41 -3.8753 0.814624 0
M  V30 30584 H 2771.58 -2.96716 3.52557 0
M  V30 30585 H 2769.89 -2.80036 3.0817 0
M  V30 30586 H 2772.49 -5.11882 1.54534 0
M  V30 30587 H 2772.83 -4.1611 0.125672 0
M  V30 30588 H 2773.37 -3.5851 1.72382 0
M  V30 30589 H 2770.11 -4.79983 4.46427 0
M  V30 30590 H 2769.63 -5.29169 2.82383 0
M  V30 30591 H 2771.31 -5.52194 3.37181 0
M  V30 30592 N 2771.44 -0.865331 -1.31719 0
M  V30 30593 C 2772.66 -0.487451 -2.0159 0
M  V30 30594 C 2773.09 0.911278 -1.64552 0
M  V30 30595 O 2772.45 1.60048 -0.851717 0
M  V30 30596 C 2772.49 -0.646463 -3.54758 0
M  V30 30597 O 2771.6 0.316212 -4.11186 0
M  V30 30598 H 2770.94 -0.194479 -0.634881 0
M  V30 30599 H 2773.47 -1.16747 -1.68022 0
M  V30 30600 H 2773.48 -0.538003 -4.04437 0
M  V30 30601 H 2772.15 -1.66639 -3.81057 0
M  V30 30602 H 2770.73 0.163097 -3.72543 0
M  V30 30603 N 2772.92 1.44707 -0.624311 0
M  V30 30604 C 2773.87 2.27751 0.106426 0
M  V30 30605 C 2774.85 1.38278 0.822679 0
M  V30 30606 O 2776.04 1.6214 0.709911 0
M  V30 30607 C 2773.17 3.25471 1.09194 0
M  V30 30608 C 2772.26 4.22433 0.375662 0
M  V30 30609 N 2772.65 5.02324 -0.591969 0
M  V30 30610 C 2770.95 4.41655 0.621015 0
M  V30 30611 C 2771.65 5.72785 -1.01453 0
M  V30 30612 N 2770.62 5.42441 -0.354746 0
M  V30 30613 H 2774.42 2.86925 -0.636515 0
M  V30 30614 H 2771.94 1.56062 -0.449278 0
M  V30 30615 H 2773.94 3.83715 1.62999 0
M  V30 30616 H 2772.6 2.67859 1.83526 0
M  V30 30617 H 2773.61 5.08745 -0.969479 0
M  V30 30618 H 2770.28 3.95149 1.34772 0
M  V30 30619 H 2771.67 6.46962 -1.81356 0
M  V30 30620 N 2774.39 0.364449 1.53328 0
M  V30 30621 C 2775.33 -0.517253 2.23287 0
M  V30 30622 C 2776.34 -1.04709 1.24659 0
M  V30 30623 O 2777.53 -0.953664 1.50889 0
M  V30 30624 C 2774.63 -1.7268 2.91607 0
M  V30 30625 C 2773.8 -1.32865 4.16732 0
M  V30 30626 C 2772.86 -2.40014 4.68273 0
M  V30 30627 O 2771.89 -2.02452 5.31979 0
M  V30 30628 N 2773.09 -3.71583 4.45989 0
M  V30 30629 H 2775.85 0.0819918 2.99588 0
M  V30 30630 H 2773.41 0.189572 1.60786 0
M  V30 30631 H 2775.41 -2.43835 3.22997 0
M  V30 30632 H 2773.98 -2.23294 2.18766 0
M  V30 30633 H 2773.2 -0.447 3.91657 0
M  V30 30634 H 2774.48 -1.03893 4.9808 0
M  V30 30635 H 2773.88 -4.04877 3.95084 0
M  V30 30636 H 2772.44 -4.38845 4.81932 0
M  V30 30637 N 2775.87 -1.57322 0.0935872 0
M  V30 30638 C 2777.12 -1.95389 -0.5652 0
M  V30 30639 C 2777.47 -0.974661 -1.65886 0
M  V30 30640 O 2776.77 -0.000410064 -1.916 0
M  V30 30641 C 2776.96 -3.37815 -1.16686 0
M  V30 30642 C 2776.79 -4.49503 -0.133012 0
M  V30 30643 C 2775.56 -5.04467 0.289972 0
M  V30 30644 C 2777.76 -5.10325 0.638231 0
M  V30 30645 N 2775.74 -5.99711 1.31224 0
M  V30 30646 C 2777.11 -6.01271 1.51237 0
M  V30 30647 C 2779.16 -4.93069 0.691914 0
M  V30 30648 C 2777.87 -6.76814 2.43548 0
M  V30 30649 C 2779.89 -5.69272 1.60261 0
M  V30 30650 C 2779.26 -6.59884 2.46439 0
M  V30 30651 H 2775.35 -0.761659 -0.177199 0
M  V30 30652 H 2777.94 -1.93905 0.175803 0
M  V30 30653 H 2776.11 -3.39996 -1.87769 0
M  V30 30654 H 2777.84 -3.63066 -1.78789 0
M  V30 30655 H 2774.6 -4.735 -0.0974709 0
M  V30 30656 H 2775.02 -6.52034 1.82154 0
M  V30 30657 H 2779.66 -4.22781 0.0398174 0
M  V30 30658 H 2777.38 -7.46365 3.09783 0
M  V30 30659 H 2780.97 -5.57934 1.64927 0
M  V30 30660 H 2779.85 -7.17818 3.15764 0
M  V30 30661 N 2777.35 0.180099 -1.56568 0
M  V30 30662 C 2778.58 0.912614 -1.85351 0
M  V30 30663 C 2778.99 1.76718 -0.675826 0
M  V30 30664 O 2778.33 1.80048 0.364469 0
M  V30 30665 C 2778.39 1.84686 -3.08434 0
M  V30 30666 C 2778.06 1.17276 -4.41696 0
M  V30 30667 C 2779.05 0.542442 -5.17062 0
M  V30 30668 C 2776.74 1.17214 -4.88432 0
M  V30 30669 C 2778.73 -0.0795073 -6.3735 0
M  V30 30670 C 2776.42 0.546363 -6.08653 0
M  V30 30671 C 2777.42 -0.0783658 -6.82955 0
M  V30 30672 O 2777.11 -0.694299 -8.00896 0
M  V30 30673 H 2776.84 0.271025 -0.619291 0
M  V30 30674 H 2779.39 0.187732 -2.0454 0
M  V30 30675 H 2777.62 2.61183 -2.85168 0
M  V30 30676 H 2779.31 2.44845 -3.23737 0
M  V30 30677 H 2780.08 0.53496 -4.82041 0
M  V30 30678 H 2775.96 1.6478 -4.30544 0
M  V30 30679 H 2779.5 -0.567734 -6.95286 0
M  V30 30680 H 2775.4 0.551397 -6.43141 0
M  V30 30681 H 2776.16 -0.592681 -8.16351 0
M  V30 30682 N 2778.83 1.51088 0.448349 0
M  V30 30683 C 2779.76 1.67786 1.56143 0
M  V30 30684 C 2780.77 0.558737 1.52912 0
M  V30 30685 O 2781.96 0.832698 1.57887 0
M  V30 30686 C 2779.06 1.66721 2.95055 0
M  V30 30687 C 2778.23 2.95039 3.2291 0
M  V30 30688 C 2777.29 2.8631 4.41489 0
M  V30 30689 O 2776.32 3.60261 4.40682 0
M  V30 30690 N 2777.52 2.0141 5.4444 0
M  V30 30691 H 2780.29 2.63802 1.42227 0
M  V30 30692 H 2777.85 1.48836 0.637127 0
M  V30 30693 H 2779.84 1.58464 3.72386 0
M  V30 30694 H 2778.41 0.783456 3.02623 0
M  V30 30695 H 2777.63 3.17249 2.3398 0
M  V30 30696 H 2778.92 3.80002 3.38343 0
M  V30 30697 H 2778.32 1.40683 5.47928 0
M  V30 30698 H 2776.87 1.9904 6.20666 0
M  V30 30699 N 2780.31 -0.703068 1.41049 0
M  V30 30700 C 2781.54 -1.48983 1.43135 0
M  V30 30701 C 2781.94 -1.89171 0.032887 0
M  V30 30702 O 2781.29 -1.56837 -0.956442 0
M  V30 30703 C 2781.35 -2.78771 2.26995 0
M  V30 30704 C 2781.01 -2.60831 3.75255 0
M  V30 30705 C 2782.01 -2.27268 4.67595 0
M  V30 30706 C 2779.7 -2.76705 4.19213 0
M  V30 30707 C 2781.69 -2.09806 6.0188 0
M  V30 30708 C 2779.38 -2.58861 5.53565 0
M  V30 30709 C 2780.37 -2.25461 6.44714 0
M  V30 30710 O 2780.06 -2.07765 7.76588 0
M  V30 30711 H 2779.79 -0.465913 0.489797 0
M  V30 30712 H 2782.35 -0.873789 1.85887 0
M  V30 30713 H 2780.58 -3.42754 1.79044 0
M  V30 30714 H 2782.27 -3.40544 2.20873 0
M  V30 30715 H 2783.03 -2.14625 4.34927 0
M  V30 30716 H 2778.91 -3.01687 3.48577 0
M  V30 30717 H 2782.46 -1.83659 6.7299 0
M  V30 30718 H 2778.35 -2.71091 5.85815 0
M  V30 30719 H 2779.12 -2.22587 7.87653 0
M  V30 30720 N 2781.78 -1.26752 -0.936569 0
M  V30 30721 C 2782.73 -1.0871 -2.03595 0
M  V30 30722 C 2783.7 0.00923623 -1.66097 0
M  V30 30723 O 2784.89 -0.151411 -1.90198 0
M  V30 30724 C 2782.03 -0.730999 -3.37269 0
M  V30 30725 C 2781.14 -1.90406 -3.87775 0
M  V30 30726 C 2780.27 -1.49065 -5.09856 0
M  V30 30727 C 2779.31 -2.63173 -5.52636 0
M  V30 30728 N 2778.45 -2.22482 -6.65917 0
M  V30 30729 H 2783.29 -2.02788 -2.1836 0
M  V30 30730 H 2780.83 -1.0096 -1.06984 0
M  V30 30731 H 2782.79 -0.505401 -4.14127 0
M  V30 30732 H 2781.42 0.172811 -3.22337 0
M  V30 30733 H 2780.47 -2.24246 -3.07275 0
M  V30 30734 H 2781.78 -2.76035 -4.15459 0
M  V30 30735 H 2780.93 -1.22577 -5.94188 0
M  V30 30736 H 2779.67 -0.605326 -4.83929 0
M  V30 30737 H 2778.68 -2.90386 -4.66858 0
M  V30 30738 H 2779.9 -3.52313 -5.80562 0
M  V30 30739 H 2777.85 -1.3639 -6.41665 0
M  V30 30740 H 2777.77 -3.01653 -6.93211 0
M  V30 30741 H 2779.03 -1.99218 -7.53613 0
M  V30 30742 N 2783.26 1.1418 -1.08631 0
M  V30 30743 C 2784.68 1.37259 -0.814387 0
M  V30 30744 C 2784.88 1.93115 0.575237 0
M  V30 30745 O 2783.93 2.14533 1.33161 0
M  V30 30746 C 2785.25 2.33154 -1.89894 0
M  V30 30747 C 2786.8 2.46788 -1.92522 0
M  V30 30748 C 2787.27 3.45984 -3.00098 0
M  V30 30749 N 2788.76 3.53529 -2.99285 0
M  V30 30750 C 2789.5 4.3014 -3.79166 0
M  V30 30751 N 2788.99 5.09975 -4.68932 0
M  V30 30752 N 2790.79 4.25359 -3.67458 0
M  V30 30753 H 2782.94 0.762723 -1.98233 0
M  V30 30754 H 2785.2 0.398036 -0.86039 0
M  V30 30755 H 2784.91 1.99252 -2.89813 0
M  V30 30756 H 2784.78 3.33083 -1.77019 0
M  V30 30757 H 2787.17 2.7998 -0.932474 0
M  V30 30758 H 2787.25 1.46812 -2.09475 0
M  V30 30759 H 2786.89 3.13524 -3.99581 0
M  V30 30760 H 2786.82 4.45746 -2.8039 0
M  V30 30761 H 2789.31 2.96559 -2.34225 0
M  V30 30762 H 2789.63 5.65715 -5.26485 0
M  V30 30763 H 2787.97 5.09236 -4.72973 0
M  V30 30764 H 2791.16 3.62062 -2.96696 0
M  V30 30765 H 2791.33 4.84815 -4.29952 0
M  V30 30766 N 2784.74 0.872304 1.31258 0
M  V30 30767 C 2785.67 0.28701 2.27396 0
M  V30 30768 C 2786.69 -0.551271 1.53182 0
M  V30 30769 O 2787.87 -0.372883 1.74562 0
M  V30 30770 C 2784.97 -0.611559 3.33336 0
M  V30 30771 C 2784.15 0.194806 4.36966 0
M  V30 30772 C 2783.21 -0.632266 5.22388 0
M  V30 30773 O 2782.23 -0.059469 5.69169 0
M  V30 30774 N 2783.43 -1.94382 5.46988 0
M  V30 30775 H 2786.2 1.11318 2.78259 0
M  V30 30776 H 2783.76 0.73402 1.44304 0
M  V30 30777 H 2785.75 -1.17061 3.874 0
M  V30 30778 H 2784.32 -1.33841 2.82499 0
M  V30 30779 H 2783.54 0.935308 3.82943 0
M  V30 30780 H 2784.83 0.748023 5.03271 0
M  V30 30781 H 2784.23 -2.43228 5.10741 0
M  V30 30782 H 2782.79 -2.4506 6.03977 0
M  V30 30783 N 2786.22 -1.44374 0.631976 0
M  V30 30784 C 2787.18 -2.29114 -0.0627739 0
M  V30 30785 C 2788.18 -1.41085 -0.771469 0
M  V30 30786 O 2789.37 -1.62948 -0.61593 0
M  V30 30787 C 2786.5 -3.22683 -1.09947 0
M  V30 30788 H 2787.7 -2.92029 0.682561 0
M  V30 30789 H 2785.25 -1.513 0.392154 0
M  V30 30790 H 2785.98 -2.64619 -1.87476 0
M  V30 30791 H 2785.77 -3.87556 -0.595218 0
M  V30 30792 H 2787.26 -3.86339 -1.58532 0
M  V30 30793 N 2787.7 -0.372575 -1.53133 0
M  V30 30794 C 2788.97 0.271659 -1.93704 0
M  V30 30795 C 2789.35 1.65797 -1.3067 0
M  V30 30796 O 2788.7 2.23647 -0.468419 0
M  V30 30797 C 2788.91 0.314842 -3.47577 0
M  V30 30798 C 2790.26 0.551838 -4.20999 0
M  V30 30799 O 2791.28 0.395758 -3.53995 0
M  V30 30800 O 2790.14 0.856295 -5.3975 0
M  V30 30801 H 2787.24 0.164571 -0.81046 0
M  V30 30802 H 2789.78 -0.425867 -1.64269 0
M  V30 30803 H 2788.55 -0.65686 -3.85747 0
M  V30 30804 H 2788.18 1.05798 -3.83266 0
M  V30 30805 N 2789.17 1.5727 -0.101929 0
M  V30 30806 C 2790.45 1.8608 0.6028 0
M  V30 30807 C 2790.83 1.00004 1.8591 0
M  V30 30808 O 2790.18 0.0742889 2.28379 0
M  V30 30809 C 2790.39 3.36883 0.911635 0
M  V30 30810 C 2791.74 4.05095 1.27212 0
M  V30 30811 O 2792.76 3.41804 1.00244 0
M  V30 30812 O 2791.62 5.16785 1.77751 0
M  V30 30813 H 2788.71 0.769748 0.302353 0
M  V30 30814 H 2791.26 1.69161 -0.135143 0
M  V30 30815 H 2790.03 3.91295 0.0206568 0
M  V30 30816 H 2789.66 3.59172 1.70532 0
M  V30 30817 N 2790.65 -0.171793 1.56661 0
M  V30 30818 C 2791.58 -1.21494 1.99403 0
M  V30 30819 C 2792.56 -1.46195 0.869541 0
M  V30 30820 O 2793.75 -1.57537 1.13559 0
M  V30 30821 C 2790.88 -2.55396 2.35351 0
M  V30 30822 C 2789.83 -2.45265 3.50755 0
M  V30 30823 C 2789.16 -3.83653 3.72444 0
M  V30 30824 C 2790.46 -1.95778 4.84219 0
M  V30 30825 H 2792.15 -0.859648 2.86793 0
M  V30 30826 H 2789.7 -0.412079 1.37978 0
M  V30 30827 H 2791.65 -3.28575 2.63849 0
M  V30 30828 H 2790.38 -2.92713 1.44869 0
M  V30 30829 H 2789.03 -1.74541 3.22383 0
M  V30 30830 H 2788.68 -4.18362 2.79253 0
M  V30 30831 H 2788.38 -3.77743 4.50093 0
M  V30 30832 H 2789.91 -4.58418 4.03342 0
M  V30 30833 H 2791.32 -2.58731 5.11597 0
M  V30 30834 H 2789.72 -2.00817 5.65502 0
M  V30 30835 H 2790.79 -0.912075 4.76245 0
M  V30 30836 N 2792.13 -1.51324 -0.44033 0
M  V30 30837 C 2793.06 -1.75367 -1.54171 0
M  V30 30838 C 2794.04 -0.603403 -1.59038 0
M  V30 30839 O 2795.23 -0.845804 -1.74814 0
M  V30 30840 C 2792.36 -1.87598 -2.92274 0
M  V30 30841 C 2791.31 -3.03014 -3.02269 0
M  V30 30842 C 2790.64 -3.00425 -4.42322 0
M  V30 30843 C 2791.94 -4.43029 -2.76627 0
M  V30 30844 H 2793.63 -2.67588 -1.34302 0
M  V30 30845 H 2791.18 -1.28764 -0.644656 0
M  V30 30846 H 2793.13 -2.03002 -3.69281 0
M  V30 30847 H 2791.85 -0.920234 -3.13368 0
M  V30 30848 H 2790.51 -2.87311 -2.27701 0
M  V30 30849 H 2790.16 -2.02634 -4.60379 0
M  V30 30850 H 2789.86 -3.77926 -4.49939 0
M  V30 30851 H 2791.38 -3.17918 -5.21306 0
M  V30 30852 H 2792.8 -4.59099 -3.43368 0
M  V30 30853 H 2791.2 -5.22213 -2.95657 0
M  V30 30854 H 2792.27 -4.53273 -1.72254 0
M  V30 30855 N 2793.61 0.695578 -1.41419 0
M  V30 30856 C 2794.56 1.80951 -1.43267 0
M  V30 30857 C 2795.53 1.63601 -0.287045 0
M  V30 30858 O 2796.71 1.84451 -0.488087 0
M  V30 30859 C 2793.85 3.18833 -1.3206 0
M  V30 30860 C 2792.96 3.47615 -2.56491 0
M  V30 30861 C 2792.1 4.75111 -2.37578 0
M  V30 30862 C 2791.14 4.96861 -3.57486 0
M  V30 30863 N 2790.27 6.15582 -3.37643 0
M  V30 30864 H 2795.11 1.78707 -2.3847 0
M  V30 30865 H 2792.65 0.872694 -1.18416 0
M  V30 30866 H 2794.61 3.98482 -1.23565 0
M  V30 30867 H 2793.24 3.20254 -0.404648 0
M  V30 30868 H 2792.29 2.62372 -2.75437 0
M  V30 30869 H 2793.6 3.59588 -3.45684 0
M  V30 30870 H 2792.76 5.62814 -2.2655 0
M  V30 30871 H 2791.5 4.65383 -1.45842 0
M  V30 30872 H 2790.5 4.07605 -3.68969 0
M  V30 30873 H 2791.73 5.08447 -4.50176 0
M  V30 30874 H 2789.67 6.07067 -2.48606 0
M  V30 30875 H 2789.59 6.28323 -4.20412 0
M  V30 30876 H 2790.86 7.0602 -3.30387 0
M  V30 30877 N 2795.09 1.27247 0.929833 0
M  V30 30878 C 2796.33 1.14694 1.69188 0
M  V30 30879 C 2796.69 -0.302587 1.89601 0
M  V30 30880 O 2797.89 -0.550497 2.63103 0
M  V30 30881 C 2796.16 1.90676 3.02287 0
M  V30 30882 S 2797.72 1.9431 3.93432 0
M  V30 30883 H 2794.54 0.409487 0.581241 0
M  V30 30884 H 2797.14 1.61126 1.10719 0
M  V30 30885 H 2795.85 2.95186 2.8512 0
M  V30 30886 H 2795.38 1.44729 3.6581 0
M  V30 30887 H 2797.39 1.03798 4.85222 0
M  V30 30888 N 2796.57 -1.13603 1.09235 0
M  V30 30889 C 2797.5 -2.21067 0.751776 0
M  V30 30890 C 2798.48 -1.67949 -0.269659 0
M  V30 30891 O 2799.66 -1.93708 -0.138156 0
M  V30 30892 C 2796.79 -3.46887 0.169411 0
M  V30 30893 C 2795.75 -4.13082 1.12014 0
M  V30 30894 C 2795.07 -5.33205 0.399577 0
M  V30 30895 C 2796.37 -4.60646 2.46176 0
M  V30 30896 H 2798.07 -2.49812 1.65029 0
M  V30 30897 H 2795.61 -1.20071 0.794926 0
M  V30 30898 H 2797.56 -4.21322 -0.0809084 0
M  V30 30899 H 2796.29 -3.17532 -0.76428 0
M  V30 30900 H 2794.95 -3.40612 1.3557 0
M  V30 30901 H 2794.6 -5.00113 -0.538189 0
M  V30 30902 H 2794.3 -5.7844 1.03347 0
M  V30 30903 H 2795.82 -6.10397 0.157511 0
M  V30 30904 H 2797.23 -5.26514 2.26838 0
M  V30 30905 H 2795.63 -5.16614 3.05335 0
M  V30 30906 H 2796.7 -3.75271 3.07083 0
M  V30 30907 N 2798.04 -0.879253 -1.30793 0
M  V30 30908 C 2799.32 -0.41512 -1.91144 0
M  V30 30909 C 2799.7 1.10365 -1.79952 0
M  V30 30910 O 2799.05 1.9364 -1.21309 0
M  V30 30911 C 2799.26 -0.906837 -3.37013 0
M  V30 30912 C 2800.61 -0.93843 -4.141 0
M  V30 30913 O 2801.63 -0.853114 -3.45833 0
M  V30 30914 O 2800.49 -1.06352 -5.36052 0
M  V30 30915 H 2797.58 -0.12592 -0.817357 0
M  V30 30916 H 2800.13 -0.967777 -1.39399 0
M  V30 30917 H 2798.9 -1.95059 -3.39216 0
M  V30 30918 H 2798.52 -0.333018 -3.96203 0
M  V30 30919 N 2799.52 1.44037 -0.639624 0
M  V30 30920 C 2800.8 1.95444 -0.0780463 0
M  V30 30921 C 2801.18 1.58136 1.39844 0
M  V30 30922 O 2800.53 0.859652 2.11713 0
M  V30 30923 C 2800.74 3.47621 -0.309893 0
M  V30 30924 C 2802.08 4.24092 -0.207596 0
M  V30 30925 O 2803.11 3.55379 -0.241715 0
M  V30 30926 O 2801.97 5.46369 -0.119737 0
M  V30 30927 H 2799.06 0.826816 0.0174388 0
M  V30 30928 H 2801.61 1.54045 -0.711918 0
M  V30 30929 H 2800.38 3.67856 -1.33408 0
M  V30 30930 H 2800 3.95988 0.357707 0
M  V30 30931 N 2801 0.380691 1.52933 0
M  V30 30932 C 2802.25 -0.205442 2.00651 0
M  V30 30933 C 2802.56 -1.4862 1.27167 0
M  V30 30934 O 2803.77 -2.15186 1.65551 0
M  V30 30935 C 2802.22 -0.416663 3.5748 0
M  V30 30936 C 2801.83 0.850346 4.39856 0
M  V30 30937 C 2803.58 -0.959629 4.13511 0
M  V30 30938 C 2801.48 0.607877 5.88268 0
M  V30 30939 H 2800.41 -0.0805482 0.749685 0
M  V30 30940 H 2803.06 0.501763 1.76507 0
M  V30 30941 H 2801.45 -1.1855 3.77838 0
M  V30 30942 H 2802.62 1.62314 4.31266 0
M  V30 30943 H 2800.93 1.31763 3.95003 0
M  V30 30944 H 2803.53 -1.1566 5.22041 0
M  V30 30945 H 2803.87 -1.9262 3.69057 0
M  V30 30946 H 2804.41 -0.250576 3.9701 0
M  V30 30947 H 2801.15 1.5452 6.37027 0
M  V30 30948 H 2800.67 -0.126141 5.99667 0
M  V30 30949 H 2802.35 0.239128 6.46558 0
M  V30 30950 N 2802.48 -1.57214 0.110268 0
M  V30 30951 C 2803.39 -2.18385 -0.857039 0
M  V30 30952 C 2804.4 -1.15752 -1.29913 0
M  V30 30953 O 2805.58 -1.48186 -1.36392 0
M  V30 30954 C 2802.64 -2.76426 -2.09259 0
M  V30 30955 C 2801.71 -3.94066 -1.70326 0
M  V30 30956 C 2800.94 -4.4933 -2.87991 0
M  V30 30957 O 2801.16 -4.03504 -4.03163 0
M  V30 30958 O 2800.1 -5.4014 -2.6558 0
M  V30 30959 H 2803.92 -3.0148 -0.366508 0
M  V30 30960 H 2801.51 -1.48958 -0.114888 0
M  V30 30961 H 2803.39 -3.13461 -2.81639 0
M  V30 30962 H 2802.06 -1.96368 -2.57335 0
M  V30 30963 H 2800.97 -3.61816 -0.950801 0
M  V30 30964 H 2802.3 -4.75533 -1.26999 0
M  V30 30965 N 2803.96 0.163482 -1.5675 0
M  V30 30966 C 2804.9 1.20227 -1.97013 0
M  V30 30967 C 2805.87 1.43574 -0.835211 0
M  V30 30968 O 2807.06 1.56183 -1.09596 0
M  V30 30969 C 2804.2 2.53474 -2.3419 0
M  V30 30970 C 2803.31 2.37439 -3.60897 0
M  V30 30971 C 2802.45 3.63607 -3.87251 0
M  V30 30972 C 2801.48 3.42539 -5.0728 0
M  V30 30973 N 2800.62 4.60796 -5.29728 0
M  V30 30974 H 2805.46 0.851908 -2.85564 0
M  V30 30975 H 2803 0.409232 -1.41293 0
M  V30 30976 H 2804.96 3.31145 -2.53769 0
M  V30 30977 H 2803.59 2.86489 -1.48741 0
M  V30 30978 H 2802.64 1.50905 -3.49187 0
M  V30 30979 H 2803.95 2.17823 -4.48726 0
M  V30 30980 H 2803.1 4.49712 -4.0724 0
M  V30 30981 H 2801.84 3.86211 -2.97812 0
M  V30 30982 H 2800.85 2.54822 -4.87182 0
M  V30 30983 H 2802.07 3.2135 -5.98257 0
M  V30 30984 H 2800.02 4.83604 -4.43241 0
M  V30 30985 H 2799.94 4.44122 -6.11794 0
M  V30 30986 H 2801.2 5.48162 -5.54201 0
M  V30 30987 N 2805.43 1.51555 0.432299 0
M  V30 30988 C 2806.38 1.73233 1.52509 0
M  V30 30989 C 2807.35 0.574127 1.55862 0
M  V30 30990 O 2808.54 0.809123 1.72794 0
M  V30 30991 C 2805.68 1.86788 2.90179 0
M  V30 30992 C 2804.79 3.14358 2.96316 0
M  V30 30993 C 2803.92 3.18479 4.25141 0
M  V30 30994 C 2802.96 4.40343 4.25164 0
M  V30 30995 N 2802.1 4.41985 5.45522 0
M  V30 30996 H 2806.94 2.66511 1.33327 0
M  V30 30997 H 2804.48 1.32078 0.647589 0
M  V30 30998 H 2806.43 1.9263 3.70067 0
M  V30 30999 H 2805.06 0.969141 3.07908 0
M  V30 31000 H 2804.12 3.17801 2.09061 0
M  V30 31001 H 2805.43 4.04256 2.92196 0
M  V30 31002 H 2804.58 3.23264 5.13406 0
M  V30 31003 H 2803.32 2.26478 4.31925 0
M  V30 31004 H 2802.33 4.35729 3.35292 0
M  V30 31005 H 2803.55 5.33614 4.2004 0
M  V30 31006 H 2801.5 3.52856 5.53018 0
M  V30 31007 H 2801.41 5.25699 5.43302 0
M  V30 31008 H 2802.68 4.50969 6.35804 0
M  V30 31009 N 2806.91 -0.688069 1.41786 0
M  V30 31010 C 2807.84 -1.81418 1.47003 0
M  V30 31011 C 2808.82 -1.66909 0.32791 0
M  V30 31012 O 2810.01 -1.8653 0.540395 0
M  V30 31013 C 2807.14 -3.19615 1.35881 0
M  V30 31014 C 2806.09 -3.48839 2.47982 0
M  V30 31015 C 2805.42 -4.86471 2.21923 0
M  V30 31016 C 2806.72 -3.47061 3.90315 0
M  V30 31017 H 2808.41 -1.7731 2.4125 0
M  V30 31018 H 2805.96 -0.851631 1.16117 0
M  V30 31019 H 2807.91 -3.98114 1.38141 0
M  V30 31020 H 2806.63 -3.24368 0.381217 0
M  V30 31021 H 2805.29 -2.72694 2.45017 0
M  V30 31022 H 2804.94 -4.87858 1.22489 0
M  V30 31023 H 2804.64 -5.06989 2.97046 0
M  V30 31024 H 2806.17 -5.67271 2.25911 0
M  V30 31025 H 2807.58 -4.15553 3.94954 0
M  V30 31026 H 2805.98 -3.79112 4.65182 0
M  V30 31027 H 2807.05 -2.45889 4.17932 0
M  V30 31028 N 2808.39 -1.27739 -0.923072 0
M  V30 31029 C 2809.35 -1.10898 -2.00585 0
M  V30 31030 C 2810.35 -0.0515209 -1.60717 0
M  V30 31031 O 2811.54 -0.296511 -1.71658 0
M  V30 31032 C 2808.67 -0.690776 -3.33828 0
M  V30 31033 H 2809.87 -2.07052 -2.16955 0
M  V30 31034 H 2807.42 -1.10592 -1.10449 0
M  V30 31035 H 2808.16 0.271944 -3.23158 0
M  V30 31036 H 2807.94 -1.45455 -3.64123 0
M  V30 31037 H 2809.43 -0.595324 -4.13335 0
M  V30 31038 N 2809.87 1.13022 -1.09836 0
M  V30 31039 C 2811.09 1.88769 -0.859123 0
M  V30 31040 C 2811.52 1.78792 0.58437 0
M  V30 31041 O 2810.88 1.13845 1.41099 0
M  V30 31042 C 2810.92 3.36184 -1.30433 0
M  V30 31043 O 2810.03 4.09765 -0.46544 0
M  V30 31044 H 2809.37 0.586772 -0.310797 0
M  V30 31045 H 2811.9 1.42971 -1.46357 0
M  V30 31046 H 2811.91 3.87017 -1.29157 0
M  V30 31047 H 2810.58 3.42763 -2.35556 0
M  V30 31048 H 2809.16 3.68927 -0.542879 0
M  V30 31049 N 2811.35 0.886177 1.30325 0
M  V30 31050 C 2812.28 0.370068 2.30549 0
M  V30 31051 C 2813.26 -0.547722 1.6104 0
M  V30 31052 O 2814.44 -0.461319 1.88641 0
M  V30 31053 C 2811.57 -0.415214 3.44809 0
M  V30 31054 C 2810.53 0.410925 4.26023 0
M  V30 31055 C 2809.85 -0.501034 5.32347 0
M  V30 31056 C 2811.15 1.65368 4.9543 0
M  V30 31057 H 2812.85 1.20758 2.73967 0
M  V30 31058 H 2810.39 0.58212 1.31709 0
M  V30 31059 H 2812.35 -0.786917 4.13987 0
M  V30 31060 H 2811.07 -1.28639 3.00199 0
M  V30 31061 H 2809.73 0.764782 3.58534 0
M  V30 31062 H 2809.38 -1.36995 4.83985 0
M  V30 31063 H 2809.08 0.0479389 5.8758 0
M  V30 31064 H 2810.6 -0.869227 6.04381 0
M  V30 31065 H 2812.01 1.35249 5.57118 0
M  V30 31066 H 2810.41 2.14294 5.60534 0
M  V30 31067 H 2811.48 2.3974 4.21488 0
M  V30 31068 N 2812.82 -1.43695 0.647253 0
M  V30 31069 C 2814.24 -1.85168 0.238722 0
M  V30 31070 C 2814.59 -1.54177 -1.21342 0
M  V30 31071 O 2813.71 -0.987777 -1.92541 0
M  V30 31072 C 2814.31 -3.36105 0.426481 0
M  V30 31073 C 2812.87 -3.76331 0.0723202 0
M  V30 31074 C 2812.01 -2.67459 0.7322 0
M  V30 31075 H 2814.96 -1.33933 0.851333 0
M  V30 31076 H 2814.98 -3.79068 -0.329803 0
M  V30 31077 H 2814.5 -3.5863 1.48346 0
M  V30 31078 H 2812.6 -3.59419 -0.982292 0
M  V30 31079 H 2812.71 -4.7655 0.493625 0
M  V30 31080 H 2811.07 -2.54159 0.165984 0
M  V30 31081 H 2811.86 -2.92812 1.79209 0
M  V30 31082 N 2814.3 -0.388796 -1.52729 0
M  V30 31083 C 2815.21 0.453952 -2.30166 0
M  V30 31084 C 2816.23 1.07194 -1.3706 0
M  V30 31085 O 2817.4 1.07787 -1.70129 0
M  V30 31086 C 2814.47 1.56623 -3.09306 0
M  V30 31087 C 2813.53 0.973393 -4.18119 0
M  V30 31088 C 2812.76 2.03266 -4.93476 0
M  V30 31089 O 2812.99 3.24764 -4.68919 0
M  V30 31090 O 2811.92 1.65024 -5.78836 0
M  V30 31091 H 2815.75 -0.176869 -3.03185 0
M  V30 31092 H 2813.33 -0.152527 -1.48619 0
M  V30 31093 H 2815.21 2.2124 -3.58651 0
M  V30 31094 H 2813.89 2.18202 -2.39101 0
M  V30 31095 H 2812.8 0.290491 -3.7297 0
M  V30 31096 H 2814.13 0.401822 -4.90557 0
M  V30 31097 N 2815.78 1.57153 -0.118604 0
M  V30 31098 C 2817.19 1.82213 0.406838 0
M  V30 31099 C 2817.54 1.03574 1.66634 0
M  V30 31100 O 2816.67 0.272209 2.14681 0
M  V30 31101 C 2817.26 3.3051 0.744891 0
M  V30 31102 C 2815.82 3.56252 1.21497 0
M  V30 31103 C 2814.97 2.76398 0.223462 0
M  V30 31104 H 2817.92 1.54933 -0.34374 0
M  V30 31105 H 2817.94 3.45117 1.60234 0
M  V30 31106 H 2817.45 3.87719 -0.171979 0
M  V30 31107 H 2815.55 3.044 2.14875 0
M  V30 31108 H 2815.67 4.64831 1.16057 0
M  V30 31109 H 2814.03 2.44592 0.710417 0
M  V30 31110 H 2814.81 3.36366 -0.686498 0
M  V30 31111 N 2817.26 -0.155167 1.56834 0
M  V30 31112 C 2818.67 -0.507523 1.51315 0
M  V30 31113 C 2818.87 -1.83808 0.825647 0
M  V30 31114 O 2817.93 -2.49427 0.392754 0
M  V30 31115 C 2819.24 -0.525368 2.96075 0
M  V30 31116 C 2820.79 -0.611451 3.0697 0
M  V30 31117 C 2821.27 -0.660036 4.53219 0
M  V30 31118 N 2822.76 -0.722484 4.57531 0
M  V30 31119 C 2823.49 -0.780923 5.68057 0
M  V30 31120 N 2822.99 -0.799206 6.88175 0
M  V30 31121 N 2824.78 -0.82118 5.56069 0
M  V30 31122 H 2816.93 0.717098 1.99929 0
M  V30 31123 H 2819.2 0.260512 0.911503 0
M  V30 31124 H 2818.9 0.383936 3.49598 0
M  V30 31125 H 2818.78 -1.36618 3.5159 0
M  V30 31126 H 2821.16 -1.51118 2.53471 0
M  V30 31127 H 2821.24 0.256351 2.54512 0
M  V30 31128 H 2820.89 0.235499 5.07354 0
M  V30 31129 H 2820.82 -1.54421 5.0345 0
M  V30 31130 H 2823.31 -0.715984 3.71055 0
M  V30 31131 H 2823.62 -0.845418 7.68162 0
M  V30 31132 H 2821.97 -0.767216 6.90752 0
M  V30 31133 H 2825.16 -0.80401 4.61143 0
M  V30 31134 H 2825.33 -0.863259 6.42224 0
M  V30 31135 N 2818.74 -1.51782 -0.424256 0
M  V30 31136 C 2820.01 -1.55648 -1.18462 0
M  V30 31137 C 2820.39 -0.328475 -2.08529 0
M  V30 31138 O 2819.74 0.685654 -2.1797 0
M  V30 31139 C 2819.95 -2.87734 -1.97509 0
M  V30 31140 C 2821.3 -3.40174 -2.541 0
M  V30 31141 O 2822.32 -2.89373 -2.07706 0
M  V30 31142 O 2821.18 -4.28847 -3.38752 0
M  V30 31143 H 2818.28 -0.626324 -0.540044 0
M  V30 31144 H 2820.82 -1.64102 -0.432263 0
M  V30 31145 H 2819.59 -3.68565 -1.31437 0
M  V30 31146 H 2819.22 -2.82503 -2.79782 0
M  V30 31147 N 2820.21 0.68054 -1.42149 0
M  V30 31148 C 2821.12 1.82375 -1.47568 0
M  V30 31149 C 2822.14 1.7013 -0.36492 0
M  V30 31150 O 2823.32 1.91782 -0.61495 0
M  V30 31151 C 2820.38 3.18476 -1.37018 0
M  V30 31152 C 2819.44 3.4272 -2.58538 0
M  V30 31153 C 2818.68 4.72327 -2.48481 0
M  V30 31154 O 2818.9 5.49842 -1.51755 0
M  V30 31155 O 2817.83 4.97688 -3.38512 0
M  V30 31156 H 2821.66 1.8076 -2.44049 0
M  V30 31157 H 2819.24 0.835548 -1.23851 0
M  V30 31158 H 2821.13 3.99703 -1.33475 0
M  V30 31159 H 2819.8 3.20742 -0.436608 0
M  V30 31160 H 2818.71 2.61364 -2.67656 0
M  V30 31161 H 2820.04 3.4528 -3.50775 0
M  V30 31162 N 2821.69 1.28226 0.916285 0
M  V30 31163 C 2823.11 1.05878 1.19424 0
M  V30 31164 C 2823.31 -0.200464 2.005 0
M  V30 31165 O 2822.36 -0.902832 2.35808 0
M  V30 31166 C 2823.68 2.30482 1.93129 0
M  V30 31167 C 2825.23 2.35635 2.06022 0
M  V30 31168 C 2825.7 3.59999 2.83134 0
M  V30 31169 N 2827.19 3.60624 2.90697 0
M  V30 31170 C 2827.93 4.53527 3.50857 0
M  V30 31171 N 2827.42 5.56746 4.12317 0
M  V30 31172 N 2829.22 4.41128 3.48372 0
M  V30 31173 H 2821.37 2.09065 0.374923 0
M  V30 31174 H 2823.63 0.920046 0.228515 0
M  V30 31175 H 2823.34 3.22207 1.4098 0
M  V30 31176 H 2823.21 2.36696 2.93692 0
M  V30 31177 H 2825.6 1.44408 2.57352 0
M  V30 31178 H 2825.68 2.33417 1.04643 0
M  V30 31179 H 2825.32 4.51568 2.32484 0
M  V30 31180 H 2825.25 3.5947 3.84823 0
M  V30 31181 H 2827.74 2.85981 2.47029 0
M  V30 31182 H 2828.06 6.23784 4.56194 0
M  V30 31183 H 2826.4 5.60575 4.10829 0
M  V30 31184 H 2829.59 3.59692 2.99566 0
M  V30 31185 H 2829.76 5.13718 3.94965 0
M  V30 31186 N 2823.17 -1.12438 1.10433 0
M  V30 31187 C 2824.12 -2.18166 0.753141 0
M  V30 31188 C 2825.09 -1.63882 -0.27052 0
M  V30 31189 O 2826.27 -1.90211 -0.149804 0
M  V30 31190 C 2823.41 -3.4457 0.191106 0
M  V30 31191 C 2822.53 -4.12908 1.27006 0
M  V30 31192 C 2821.66 -5.26962 0.669679 0
M  V30 31193 C 2820.7 -5.87166 1.72922 0
M  V30 31194 N 2819.84 -6.92633 1.1491 0
M  V30 31195 H 2824.68 -2.47553 1.65896 0
M  V30 31196 H 2822.21 -1.21539 0.828652 0
M  V30 31197 H 2824.17 -4.16921 -0.152638 0
M  V30 31198 H 2822.8 -3.15601 -0.677942 0
M  V30 31199 H 2821.85 -3.38737 1.73093 0
M  V30 31200 H 2823.17 -4.53723 2.07212 0
M  V30 31201 H 2822.32 -6.06075 0.27538 0
M  V30 31202 H 2821.06 -4.87425 -0.16381 0
M  V30 31203 H 2820.06 -5.0674 2.13294 0
M  V30 31204 H 2821.29 -6.28774 2.56555 0
M  V30 31205 H 2819.23 -6.55133 0.337071 0
M  V30 31206 H 2819.15 -7.32046 1.88799 0
M  V30 31207 H 2820.42 -7.75574 0.781346 0
M  V30 31208 N 2824.65 -0.893076 -1.29853 0
M  V30 31209 C 2825.9 -0.511632 -1.95103 0
M  V30 31210 C 2826.21 0.945537 -1.71228 0
M  V30 31211 O 2827.42 1.4342 -2.30528 0
M  V30 31212 C 2825.87 -0.864095 -3.49373 0
M  V30 31213 C 2825.48 -2.33958 -3.82057 0
M  V30 31214 C 2827.23 -0.552241 -4.20893 0
M  V30 31215 C 2825.13 -2.63325 -5.29541 0
M  V30 31216 H 2824.06 -0.18761 -0.730287 0
M  V30 31217 H 2826.71 -1.08916 -1.4768 0
M  V30 31218 H 2825.1 -0.215562 -3.95413 0
M  V30 31219 H 2826.27 -3.03311 -3.46899 0
M  V30 31220 H 2824.58 -2.61979 -3.2366 0
M  V30 31221 H 2827.18 -0.748582 -5.29434 0
M  V30 31222 H 2827.52 0.508851 -4.13178 0
M  V30 31223 H 2828.06 -1.15832 -3.80562 0
M  V30 31224 H 2824.8 -3.68207 -5.42314 0
M  V30 31225 H 2824.32 -1.9859 -5.6597 0
M  V30 31226 H 2826 -2.49247 -5.97064 0
M  V30 31227 N 2826.13 1.4335 -0.654865 0
M  V30 31228 C 2827.07 2.30772 0.0357308 0
M  V30 31229 C 2828.04 1.44843 0.81301 0
M  V30 31230 O 2829.23 1.73709 0.789283 0
M  V30 31231 C 2826.37 3.30444 0.995025 0
M  V30 31232 C 2825.48 4.31471 0.213675 0
M  V30 31233 C 2824.62 5.18224 1.16692 0
M  V30 31234 C 2823.66 6.10943 0.376094 0
M  V30 31235 N 2822.79 6.90315 1.28101 0
M  V30 31236 H 2827.63 2.89279 -0.71564 0
M  V30 31237 H 2825.17 1.42508 -0.36467 0
M  V30 31238 H 2827.13 3.86741 1.56483 0
M  V30 31239 H 2825.76 2.73583 1.71325 0
M  V30 31240 H 2824.81 3.77455 -0.472444 0
M  V30 31241 H 2826.12 4.97184 -0.401191 0
M  V30 31242 H 2825.28 5.79156 1.8073 0
M  V30 31243 H 2824.02 4.52641 1.81569 0
M  V30 31244 H 2823.02 5.49099 -0.27763 0
M  V30 31245 H 2824.25 6.7857 -0.268298 0
M  V30 31246 H 2822.19 6.27379 1.91655 0
M  V30 31247 H 2822.11 7.52556 0.720747 0
M  V30 31248 H 2823.38 7.5575 1.90949 0
M  V30 31249 N 2827.61 0.39689 1.52521 0
M  V30 31250 C 2828.52 -0.44174 2.30404 0
M  V30 31251 C 2829.53 -1.06466 1.37626 0
M  V30 31252 O 2830.71 -1.06883 1.70699 0
M  V30 31253 C 2827.77 -1.5498 3.10132 0
M  V30 31254 C 2826.83 -0.951206 4.18629 0
M  V30 31255 C 2826.07 -2.00646 4.94547 0
M  V30 31256 O 2826.29 -3.22272 4.70634 0
M  V30 31257 O 2825.22 -1.61952 5.79703 0
M  V30 31258 H 2829.05 0.192946 3.03086 0
M  V30 31259 H 2826.63 0.160406 1.48536 0
M  V30 31260 H 2828.52 -2.19335 3.5982 0
M  V30 31261 H 2827.19 -2.16931 2.40255 0
M  V30 31262 H 2826.1 -0.270707 3.73119 0
M  V30 31263 H 2827.43 -0.375801 4.90763 0
M  V30 31264 N 2829.08 -1.57088 0.126936 0
M  V30 31265 C 2830.33 -1.9464 -0.52899 0
M  V30 31266 C 2830.65 -1.01307 -1.67321 0
M  V30 31267 O 2831.85 -1.28356 -2.39243 0
M  V30 31268 C 2830.31 -3.45947 -0.992422 0
M  V30 31269 C 2829.92 -4.47829 0.12377 0
M  V30 31270 C 2831.66 -3.92403 -1.61927 0
M  V30 31271 C 2829.57 -5.90323 -0.356807 0
M  V30 31272 H 2828.5 -0.726609 -0.201384 0
M  V30 31273 H 2831.15 -1.82317 0.208064 0
M  V30 31274 H 2829.53 -3.53532 -1.78414 0
M  V30 31275 H 2830.7 -4.51921 0.900247 0
M  V30 31276 H 2829.02 -4.11172 0.657772 0
M  V30 31277 H 2831.62 -4.96285 -1.99011 0
M  V30 31278 H 2831.96 -3.32823 -2.50069 0
M  V30 31279 H 2832.49 -3.87651 -0.892826 0
M  V30 31280 H 2829.23 -6.53675 0.488751 0
M  V30 31281 H 2828.75 -5.89635 -1.09959 0
M  V30 31282 H 2830.43 -6.41841 -0.815435 0
M  V30 31283 N 2830.56 0.146848 -1.56914 0
M  V30 31284 C 2831.84 0.888134 -1.74274 0
M  V30 31285 C 2832.22 1.99331 -0.694995 0
M  V30 31286 O 2831.57 2.26702 0.286053 0
M  V30 31287 C 2831.78 1.43045 -3.18338 0
M  V30 31288 C 2833.12 1.8938 -3.80027 0
M  V30 31289 O 2834.15 1.52786 -3.21768 0
M  V30 31290 O 2833.01 2.56866 -4.82372 0
M  V30 31291 H 2830.1 0.419725 -0.712573 0
M  V30 31292 H 2832.65 0.132761 -1.6918 0
M  V30 31293 H 2831.42 0.636207 -3.86093 0
M  V30 31294 H 2831.04 2.24932 -3.27858 0
M  V30 31295 N 2832.04 1.52005 0.4162 0
M  V30 31296 C 2833.46 1.4065 0.754295 0
M  V30 31297 C 2833.66 0.505427 1.95058 0
M  V30 31298 O 2832.71 -0.0314613 2.5248 0
M  V30 31299 C 2834.02 2.83057 1.01485 0
M  V30 31300 C 2835.57 2.92352 1.118 0
M  V30 31301 C 2836.05 4.35711 1.41137 0
M  V30 31302 N 2837.54 4.38914 1.48016 0
M  V30 31303 C 2838.27 5.46892 1.72328 0
M  V30 31304 N 2837.77 6.64998 1.94292 0
M  V30 31305 N 2839.56 5.34398 1.74285 0
M  V30 31306 H 2831.71 2.09128 -0.37136 0
M  V30 31307 H 2833.98 0.942297 -0.103828 0
M  V30 31308 H 2833.68 3.51083 0.208283 0
M  V30 31309 H 2833.56 3.23672 1.93692 0
M  V30 31310 H 2835.94 2.24511 1.91517 0
M  V30 31311 H 2836.02 2.55204 0.174465 0
M  V30 31312 H 2835.67 5.04109 0.619395 0
M  V30 31313 H 2835.6 4.70389 2.36731 0
M  V30 31314 H 2838.09 3.53774 1.32861 0
M  V30 31315 H 2838.4 7.43075 2.12272 0
M  V30 31316 H 2836.75 6.68076 1.91571 0
M  V30 31317 H 2839.94 4.41107 1.5666 0
M  V30 31318 H 2840.11 6.18624 1.92894 0
M  V30 31319 N 2833.52 -0.672992 1.42508 0
M  V30 31320 C 2834.43 -1.8159 1.48533 0
M  V30 31321 C 2835.44 -1.69934 0.373937 0
M  V30 31322 O 2836.62 -1.91453 0.625112 0
M  V30 31323 C 2833.68 -3.17745 1.38705 0
M  V30 31324 C 2832.75 -3.41344 2.60352 0
M  V30 31325 C 2831.98 -4.71002 2.50983 0
M  V30 31326 O 2832.2 -5.4903 1.54669 0
M  V30 31327 O 2831.14 -4.95886 3.41147 0
M  V30 31328 H 2834.96 -1.79463 2.45004 0
M  V30 31329 H 2832.55 -0.828968 1.24292 0
M  V30 31330 H 2834.43 -3.98989 1.35593 0
M  V30 31331 H 2833.1 -3.20506 0.453612 0
M  V30 31332 H 2832.01 -2.5994 2.69039 0
M  V30 31333 H 2833.34 -3.43414 3.52601 0
M  V30 31334 N 2835 -1.2871 -0.909472 0
M  V30 31335 C 2835.93 -1.15545 -2.02908 0
M  V30 31336 C 2836.91 -0.0521316 -1.7002 0
M  V30 31337 O 2838.09 -0.229883 -1.92835 0
M  V30 31338 C 2835.22 -0.820994 -3.37457 0
M  V30 31339 C 2834.18 -1.87956 -3.84521 0
M  V30 31340 C 2833.5 -1.39864 -5.16084 0
M  V30 31341 C 2834.8 -3.28683 -4.05912 0
M  V30 31342 H 2836.5 -2.09207 -2.1418 0
M  V30 31343 H 2834.04 -1.00723 -1.02912 0
M  V30 31344 H 2835.99 -0.715644 -4.15279 0
M  V30 31345 H 2834.72 0.151317 -3.26249 0
M  V30 31346 H 2833.38 -1.97413 -3.08907 0
M  V30 31347 H 2833.03 -0.415268 -5.01283 0
M  V30 31348 H 2832.73 -2.1065 -5.48544 0
M  V30 31349 H 2834.25 -1.30659 -5.96457 0
M  V30 31350 H 2835.66 -3.22124 -4.74246 0
M  V30 31351 H 2834.06 -3.97342 -4.4971 0
M  V30 31352 H 2835.13 -3.72385 -3.10576 0
M  V30 31353 N 2836.47 1.1185 -1.11028 0
M  V30 31354 C 2837.41 2.17514 -0.722528 0
M  V30 31355 C 2838.42 1.60965 0.243754 0
M  V30 31356 O 2839.61 1.78479 0.0272939 0
M  V30 31357 C 2836.71 3.38868 -0.0464574 0
M  V30 31358 C 2835.88 4.24893 -1.03847 0
M  V30 31359 C 2834.94 5.24732 -0.392752 0
M  V30 31360 O 2833.97 5.59518 -1.04539 0
M  V30 31361 N 2835.17 5.74299 0.846195 0
M  V30 31362 H 2837.93 2.5139 -1.63165 0
M  V30 31363 H 2835.49 1.27331 -0.999921 0
M  V30 31364 H 2837.49 4.02747 0.397145 0
M  V30 31365 H 2836.06 3.0309 0.765178 0
M  V30 31366 H 2835.28 3.57537 -1.66016 0
M  V30 31367 H 2836.56 4.79212 -1.70977 0
M  V30 31368 H 2835.96 5.48213 1.39568 0
M  V30 31369 H 2834.52 6.40034 1.23285 0
M  V30 31370 N 2837.95 0.89995 1.29378 0
M  V30 31371 C 2838.9 0.376283 2.27712 0
M  V30 31372 C 2839.87 -0.541746 1.57017 0
M  V30 31373 O 2841.05 -0.466933 1.84998 0
M  V30 31374 C 2838.19 -0.389939 3.4289 0
M  V30 31375 C 2837.31 0.559013 4.28368 0
M  V30 31376 C 2836.44 -0.224285 5.30726 0
M  V30 31377 C 2835.48 0.719175 6.0786 0
M  V30 31378 N 2834.62 -0.0297335 7.02094 0
M  V30 31379 H 2839.46 1.21993 2.71886 0
M  V30 31380 H 2836.99 0.612903 1.33723 0
M  V30 31381 H 2838.95 -0.850242 4.08444 0
M  V30 31382 H 2837.58 -1.19804 2.99745 0
M  V30 31383 H 2836.63 1.13783 3.62984 0
M  V30 31384 H 2837.95 1.28119 4.82065 0
M  V30 31385 H 2837.1 -0.745775 6.02099 0
M  V30 31386 H 2835.84 -0.97959 4.77761 0
M  V30 31387 H 2834.84 1.25216 5.35351 0
M  V30 31388 H 2836.07 1.47381 6.62914 0
M  V30 31389 H 2834.02 -0.767301 6.51497 0
M  V30 31390 H 2833.93 0.632524 7.53349 0
M  V30 31391 H 2835.2 -0.531479 7.77686 0
M  V30 31392 N 2839.43 -1.43001 0.662458 0
M  V30 31393 C 2840.38 -2.30788 -0.0234918 0
M  V30 31394 C 2841.35 -1.45272 -0.805317 0
M  V30 31395 O 2842.53 -1.74126 -0.78006 0
M  V30 31396 C 2839.67 -3.30967 -0.977487 0
M  V30 31397 C 2838.79 -4.31578 -0.19079 0
M  V30 31398 C 2837.92 -5.18836 -1.13942 0
M  V30 31399 C 2836.96 -6.11134 -0.343688 0
M  V30 31400 N 2836.1 -6.90984 -1.24438 0
M  V30 31401 H 2840.94 -2.88896 0.730972 0
M  V30 31402 H 2838.47 -1.42313 0.372222 0
M  V30 31403 H 2840.43 -3.87566 -1.5443 0
M  V30 31404 H 2839.06 -2.74487 -1.69872 0
M  V30 31405 H 2838.11 -3.77199 0.492455 0
M  V30 31406 H 2839.43 -4.96964 0.427552 0
M  V30 31407 H 2838.58 -5.80106 -1.77656 0
M  V30 31408 H 2837.32 -4.53598 -1.79166 0
M  V30 31409 H 2836.32 -5.48944 0.306747 0
M  V30 31410 H 2837.55 -6.78418 0.30428 0
M  V30 31411 H 2835.49 -6.28386 -1.88325 0
M  V30 31412 H 2835.41 -7.52928 -0.680827 0
M  V30 31413 H 2836.68 -7.56752 -1.86938 0
M  V30 31414 N 2840.91 -0.404973 -1.52308 0
M  V30 31415 C 2841.86 0.422557 -2.26899 0
M  V30 31416 C 2842.83 1.04458 -1.29142 0
M  V30 31417 O 2844.01 1.06964 -1.57998 0
M  V30 31418 C 2841.15 1.53553 -3.09056 0
M  V30 31419 C 2840.26 0.934834 -4.21764 0
M  V30 31420 C 2839.4 2.02016 -4.91287 0
M  V30 31421 C 2838.44 1.39618 -5.95964 0
M  V30 31422 N 2837.57 2.42148 -6.59021 0
M  V30 31423 H 2842.41 -0.219955 -2.97187 0
M  V30 31424 H 2839.95 -0.120308 -1.46607 0
M  V30 31425 H 2841.91 2.19175 -3.54991 0
M  V30 31426 H 2840.54 2.14813 -2.40946 0
M  V30 31427 H 2839.59 0.167787 -3.8003 0
M  V30 31428 H 2840.9 0.438985 -4.96865 0
M  V30 31429 H 2840.06 2.75373 -5.40606 0
M  V30 31430 H 2838.8 2.54965 -4.15745 0
M  V30 31431 H 2837.8 0.647927 -5.45969 0
M  V30 31432 H 2839.03 0.874435 -6.73447 0
M  V30 31433 H 2836.97 2.94237 -5.86311 0
M  V30 31434 H 2836.89 1.97363 -7.29783 0
M  V30 31435 H 2838.16 3.15087 -7.1298 0
M  V30 31436 N 2842.39 1.57018 -0.135265 0
M  V30 31437 C 2843.3 2.19721 0.822187 0
M  V30 31438 C 2844.31 1.17805 1.28055 0
M  V30 31439 O 2845.49 1.50338 1.34017 0
M  V30 31440 C 2842.55 2.79721 2.04835 0
M  V30 31441 C 2841.61 3.96725 1.64035 0
M  V30 31442 C 2840.85 4.53854 2.80806 0
M  V30 31443 O 2841.07 4.09867 3.96693 0
M  V30 31444 O 2840 5.44296 2.56953 0
M  V30 31445 H 2843.83 3.02025 0.318499 0
M  V30 31446 H 2841.42 1.49122 0.0911759 0
M  V30 31447 H 2843.3 3.17902 2.76616 0
M  V30 31448 H 2841.97 2.00437 2.54179 0
M  V30 31449 H 2840.88 3.63283 0.893119 0
M  V30 31450 H 2842.21 4.77494 1.19418 0
M  V30 31451 N 2843.86 -0.138524 1.5699 0
M  V30 31452 C 2844.77 -1.19005 2.02176 0
M  V30 31453 C 2845.79 -1.46511 0.938647 0
M  V30 31454 O 2846.97 -1.58013 1.24875 0
M  V30 31455 C 2844.03 -2.50154 2.40049 0
M  V30 31456 C 2843.09 -2.3022 3.6235 0
M  V30 31457 C 2842.33 -3.55116 3.98407 0
M  V30 31458 O 2842.55 -4.61642 3.35027 0
M  V30 31459 O 2841.48 -3.47276 4.91613 0
M  V30 31460 H 2845.31 -0.836401 2.91956 0
M  V30 31461 H 2842.89 -0.347881 1.45293 0
M  V30 31462 H 2844.78 -3.27461 2.65231 0
M  V30 31463 H 2843.45 -2.85032 1.53422 0
M  V30 31464 H 2842.36 -1.50837 3.42344 0
M  V30 31465 H 2843.69 -2.00255 4.49621 0
M  V30 31466 N 2845.34 -1.52224 -0.408133 0
M  V30 31467 C 2846.27 -1.78598 -1.50416 0
M  V30 31468 C 2847.25 -0.637002 -1.57722 0
M  V30 31469 O 2848.44 -0.882695 -1.7298 0
M  V30 31470 C 2845.57 -1.93756 -2.88229 0
M  V30 31471 C 2844.52 -3.09358 -2.95773 0
M  V30 31472 C 2843.85 -3.0974 -4.3585 0
M  V30 31473 C 2845.15 -4.48797 -2.67167 0
M  V30 31474 H 2846.84 -2.70376 -1.28596 0
M  V30 31475 H 2844.39 -1.30103 -0.617198 0
M  V30 31476 H 2846.34 -2.10789 -3.64892 0
M  V30 31477 H 2845.07 -0.986497 -3.11345 0
M  V30 31478 H 2843.72 -2.92076 -2.21556 0
M  V30 31479 H 2843.37 -2.12354 -4.55977 0
M  V30 31480 H 2843.07 -3.87385 -4.41822 0
M  V30 31481 H 2844.6 -3.28904 -5.14446 0
M  V30 31482 H 2846.01 -4.66279 -3.33552 0
M  V30 31483 H 2844.41 -5.28367 -2.84514 0
M  V30 31484 H 2845.48 -4.56825 -1.62601 0
M  V30 31485 N 2846.82 0.665425 -1.42863 0
M  V30 31486 C 2847.77 1.79997 -1.47322 0
M  V30 31487 C 2848.76 1.65787 -0.347992 0
M  V30 31488 O 2849.97 1.72282 -0.521436 0
M  V30 31489 H 2846.34 0.593659 -0.461598 0
M  V30 31490 H 2848.31 1.73356 -2.42879 0
M  V30 31491 C 2847.06 3.182 -1.40157 0
M  V30 31492 H 2846.39 3.29766 -2.26041 0
M  V30 31493 H 2847.83 3.97577 -1.47338 0
M  V30 31494 C 2846.29 3.36695 -0.117552 0
M  V30 31495 O 2846.82 3.93116 0.825989 0
M  V30 31496 N 2845.02 2.90583 -0.0316729 0
M  V30 31497 H 2844.57 2.44853 -0.80029 0
M  V30 31498 H 2844.53 3.03334 0.826782 0
M  V30 31499 N 2848.3 1.29191 0.902633 0
M  V30 31500 C 2849.26 1.14075 1.98795 0
M  V30 31501 C 2850.26 0.0770832 1.60615 0
M  V30 31502 O 2851.45 0.323783 1.71165 0
M  V30 31503 C 2848.58 0.743797 3.32687 0
M  V30 31504 H 2849.78 2.10477 2.13634 0
M  V30 31505 H 2847.33 1.12336 1.08676 0
M  V30 31506 H 2848.06 -0.220498 3.2355 0
M  V30 31507 H 2847.85 1.51229 3.61763 0
M  V30 31508 H 2849.34 0.661007 4.12335 0
M  V30 31509 N 2849.78 -1.1126 1.1162 0
M  V30 31510 C 2851.02 -1.83309 0.867495 0
M  V30 31511 C 2851.36 -1.84525 -0.605333 0
M  V30 31512 O 2850.63 -1.29968 -1.44702 0
M  V30 31513 C 2850.91 -3.30397 1.43213 0
M  V30 31514 C 2850.77 -3.37565 2.97271 0
M  V30 31515 C 2852.09 -4.26526 1.08461 0
M  V30 31516 H 2849.2 -0.665537 0.31659 0
M  V30 31517 H 2851.85 -1.30452 1.38139 0
M  V30 31518 H 2850 -3.75541 0.995048 0
M  V30 31519 H 2851.67 -3.00965 3.49596 0
M  V30 31520 H 2849.91 -2.77727 3.33242 0
M  V30 31521 H 2850.58 -4.41099 3.31867 0
M  V30 31522 H 2853.06 -3.89571 1.46196 0
M  V30 31523 H 2851.93 -5.27824 1.50643 0
M  V30 31524 H 2852.2 -4.421 -0.00436797 0
M  V30 31525 N 2851.25 -0.906798 -1.28899 0
M  V30 31526 C 2852.67 -0.603928 -1.47732 0
M  V30 31527 C 2852.87 0.85267 -1.8257 0
M  V30 31528 O 2851.93 1.6323 -1.92645 0
M  V30 31529 C 2853.24 -1.53585 -2.58519 0
M  V30 31530 C 2854.79 -1.54182 -2.72391 0
M  V30 31531 C 2855.26 -2.4602 -3.86314 0
M  V30 31532 N 2856.75 -2.44107 -3.93657 0
M  V30 31533 C 2857.49 -3.11868 -4.81172 0
M  V30 31534 N 2856.98 -3.88933 -5.73326 0
M  V30 31535 N 2858.78 -3.0099 -4.74723 0
M  V30 31536 H 2850.93 -1.84879 -1.04564 0
M  V30 31537 H 2853.19 -0.792588 -0.520104 0
M  V30 31538 H 2852.9 -2.574 -2.39662 0
M  V30 31539 H 2852.77 -1.26171 -3.55472 0
M  V30 31540 H 2855.16 -0.511086 -2.90641 0
M  V30 31541 H 2855.24 -1.85637 -1.7599 0
M  V30 31542 H 2854.88 -3.49191 -3.68819 0
M  V30 31543 H 2854.81 -2.11871 -4.82098 0
M  V30 31544 H 2857.3 -1.88121 -3.27748 0
M  V30 31545 H 2857.62 -4.37674 -6.36915 0
M  V30 31546 H 2855.96 -3.93039 -5.73189 0
M  V30 31547 H 2859.15 -2.40293 -4.01717 0
M  V30 31548 H 2859.33 -3.54072 -5.42713 0
M  V30 31549 N 2852.73 1.42648 -0.670032 0
M  V30 31550 C 2854.15 1.55955 -0.339137 0
M  V30 31551 C 2854.35 1.65058 1.15577 0
M  V30 31552 O 2853.4 1.61488 1.94108 0
M  V30 31553 C 2854.72 2.81198 -1.06527 0
M  V30 31554 C 2856.27 2.94965 -1.04713 0
M  V30 31555 C 2856.74 4.23062 -1.75449 0
M  V30 31556 N 2858.23 4.29964 -1.72294 0
M  V30 31557 C 2858.97 5.27885 -2.23886 0
M  V30 31558 N 2858.46 6.31986 -2.8384 0
M  V30 31559 N 2860.26 5.19651 -2.14288 0
M  V30 31560 H 2852.41 1.34983 -1.63992 0
M  V30 31561 H 2854.67 0.649427 -0.690615 0
M  V30 31562 H 2854.38 2.80594 -2.12038 0
M  V30 31563 H 2854.25 3.71945 -0.627464 0
M  V30 31564 H 2856.64 2.951 -0.000367837 0
M  V30 31565 H 2856.72 2.05462 -1.52378 0
M  V30 31566 H 2856.36 4.23688 -2.80091 0
M  V30 31567 H 2856.29 5.11491 -1.25238 0
M  V30 31568 H 2858.78 3.5536 -1.2856 0
M  V30 31569 H 2859.1 7.03052 -3.2084 0
M  V30 31570 H 2857.44 6.32562 -2.87908 0
M  V30 31571 H 2860.63 4.37243 -1.67142 0
M  V30 31572 H 2860.8 5.95802 -2.54803 0
M  V30 31573 N 2854.21 0.413044 1.52091 0
M  V30 31574 C 2855.14 -0.445954 2.2482 0
M  V30 31575 C 2856.16 -1.0069 1.27927 0
M  V30 31576 O 2857.35 -0.905177 1.53847 0
M  V30 31577 C 2854.45 -1.63315 2.96954 0
M  V30 31578 C 2853.62 -1.1954 4.20748 0
M  V30 31579 C 2852.68 -2.24995 4.75672 0
M  V30 31580 O 2851.7 -1.85425 5.38151 0
M  V30 31581 N 2852.91 -3.57206 4.57585 0
M  V30 31582 H 2855.67 0.177262 2.99175 0
M  V30 31583 H 2853.23 0.240629 1.60102 0
M  V30 31584 H 2855.22 -2.33435 3.3059 0
M  V30 31585 H 2853.79 -2.16221 2.2576 0
M  V30 31586 H 2853.01 -0.322171 3.92881 0
M  V30 31587 H 2854.3 -0.879945 5.01133 0
M  V30 31588 H 2853.7 -3.92102 4.07765 0
M  V30 31589 H 2852.26 -4.23291 4.95649 0
M  V30 31590 N 2855.69 -1.56945 0.143591 0
M  V30 31591 C 2856.65 -2.15401 -0.783257 0
M  V30 31592 C 2857.65 -1.09494 -1.17761 0
M  V30 31593 O 2858.84 -1.3515 -1.0991 0
M  V30 31594 C 2855.97 -2.71434 -2.06244 0
M  V30 31595 H 2857.17 -2.98638 -0.27481 0
M  V30 31596 H 2854.72 -1.55941 -0.105832 0
M  V30 31597 H 2855.46 -1.91854 -2.61463 0
M  V30 31598 H 2855.24 -3.48913 -1.78891 0
M  V30 31599 H 2856.73 -3.16484 -2.72447 0
M  V30 31600 N 2857.17 0.130197 -1.57061 0
M  V30 31601 C 2858.08 1.17931 -2.02804 0
M  V30 31602 C 2859.09 1.46011 -0.946404 0
M  V30 31603 O 2860.27 1.57349 -1.25711 0
M  V30 31604 C 2857.33 2.48878 -2.41372 0
M  V30 31605 C 2856.4 2.28295 -3.63565 0
M  V30 31606 C 2855.63 3.52998 -4.00285 0
M  V30 31607 O 2855.85 4.59858 -3.37471 0
M  V30 31608 O 2854.79 3.44664 -4.93447 0
M  V30 31609 H 2858.61 0.820906 -2.92395 0
M  V30 31610 H 2856.2 0.340171 -1.45476 0
M  V30 31611 H 2858.08 3.26049 -2.66964 0
M  V30 31612 H 2856.75 2.84215 -1.54931 0
M  V30 31613 H 2855.66 1.49019 -3.43139 0
M  V30 31614 H 2856.99 1.97867 -4.50677 0
M  V30 31615 N 2858.65 1.52438 0.400055 0
M  V30 31616 C 2859.89 1.66612 1.14389 0
M  V30 31617 C 2860.21 0.402961 1.90791 0
M  V30 31618 O 2859.48 -0.582392 1.87043 0
M  V30 31619 H 2858.06 0.614133 0.425265 0
M  V30 31620 H 2860.73 1.89514 0.455043 0
M  V30 31621 H 2859.82 2.51142 1.85294 0
M  V30 31622 N 2860.12 -0.657839 1.43214 0
M  V30 31623 C 2861.05 -1.78259 1.50818 0
M  V30 31624 C 2862.03 -1.66176 0.363241 0
M  V30 31625 O 2863.22 -1.85342 0.579839 0
M  V30 31626 C 2860.35 -3.16661 1.4263 0
M  V30 31627 C 2859.3 -3.43501 2.55326 0
M  V30 31628 C 2858.63 -4.81654 2.32192 0
M  V30 31629 C 2859.93 -3.38704 3.97589 0
M  V30 31630 H 2861.62 -1.72152 2.44957 0
M  V30 31631 H 2859.17 -0.826809 1.17898 0
M  V30 31632 H 2861.12 -3.95095 1.46555 0
M  V30 31633 H 2859.85 -3.23486 0.449934 0
M  V30 31634 H 2858.51 -2.67435 2.50747 0
M  V30 31635 H 2858.15 -4.8515 1.32809 0
M  V30 31636 H 2857.85 -5.00574 3.07733 0
M  V30 31637 H 2859.38 -5.62352 2.37893 0
M  V30 31638 H 2860.79 -4.07082 4.0368 0
M  V30 31639 H 2859.19 -3.6916 4.73118 0
M  V30 31640 H 2860.26 -2.36968 4.23053 0
M  V30 31641 N 2861.6 -1.29668 -0.895769 0
M  V30 31642 C 2862.83 -1.20888 -1.68526 0
M  V30 31643 C 2863.25 0.226563 -1.86731 0
M  V30 31644 O 2862.61 1.16344 -1.39046 0
M  V30 31645 C 2862.66 -1.9315 -3.04509 0
M  V30 31646 O 2861.76 -1.25122 -3.92961 0
M  V30 31647 H 2861.1 -0.418684 -0.515364 0
M  V30 31648 H 2863.63 -1.71304 -1.11875 0
M  V30 31649 H 2863.64 -2.01756 -3.54625 0
M  V30 31650 H 2862.32 -2.97553 -2.90577 0
M  V30 31651 H 2860.89 -1.248 -3.51396 0
M  V30 31652 N 2863.08 1.10667 -1.12208 0
M  V30 31653 C 2863.99 2.20512 -0.800724 0
M  V30 31654 C 2865.01 1.72734 0.209482 0
M  V30 31655 O 2866.18 2.01353 0.0436696 0
M  V30 31656 C 2863.25 3.45743 -0.257414 0
M  V30 31657 C 2862.31 4.08268 -1.32725 0
M  V30 31658 C 2861.54 5.27521 -0.809767 0
M  V30 31659 O 2861.76 5.6928 0.35732 0
M  V30 31660 O 2860.7 5.80839 -1.57826 0
M  V30 31661 H 2864.52 2.50429 -1.71811 0
M  V30 31662 H 2862.11 1.19357 -0.898567 0
M  V30 31663 H 2863.99 4.2138 0.0408108 0
M  V30 31664 H 2862.67 3.17459 0.632572 0
M  V30 31665 H 2861.57 3.34326 -1.6786 0
M  V30 31666 H 2862.91 4.40749 -2.19091 0
M  V30 31667 N 2864.56 0.913621 1.28416 0
M  V30 31668 C 2865.83 0.465652 1.89976 0
M  V30 31669 C 2866.21 -1.05555 1.82815 0
M  V30 31670 O 2865.56 -1.90356 1.264 0
M  V30 31671 C 2865.77 0.995871 3.3449 0
M  V30 31672 C 2867.12 1.04789 4.11466 0
M  V30 31673 O 2868.14 0.944506 3.43449 0
M  V30 31674 O 2867 1.20527 5.33044 0
M  V30 31675 H 2864.1 0.147546 0.813732 0
M  V30 31676 H 2866.64 1.0044 1.36784 0
M  V30 31677 H 2865.42 2.03984 3.33925 0
M  V30 31678 H 2865.04 0.437947 3.95181 0
M  V30 31679 N 2866.04 -1.4229 0.677588 0
M  V30 31680 C 2867.28 -2.01102 0.200613 0
M  V30 31681 C 2867.6 -1.5386 -1.198 0
M  V30 31682 O 2866.87 -0.761471 -1.80495 0
M  V30 31683 H 2865.45 -0.743601 0.0711765 0
M  V30 31684 H 2868.12 -1.74168 0.874721 0
M  V30 31685 H 2867.21 -3.11432 0.204055 0
M  V30 31686 N 2867.51 -0.421104 -1.5187 0
M  V30 31687 C 2868.48 0.386672 -2.25915 0
M  V30 31688 C 2869.48 0.963532 -1.28735 0
M  V30 31689 O 2870.67 0.840529 -1.5258 0
M  V30 31690 C 2867.8 1.54546 -3.03856 0
M  V30 31691 H 2868.99 -0.262031 -2.98753 0
M  V30 31692 H 2866.54 -0.173889 -1.5533 0
M  V30 31693 H 2867.28 2.23068 -2.35396 0
M  V30 31694 H 2867.06 1.13817 -3.75217 0
M  V30 31695 H 2868.55 2.11657 -3.59988 0
M  V30 31696 N 2868.99 1.56866 -0.151912 0
M  V30 31697 C 2869.96 2.15814 0.771823 0
M  V30 31698 C 2870.96 1.10117 1.17179 0
M  V30 31699 O 2872.15 1.35731 1.09191 0
M  V30 31700 C 2869.28 2.72524 2.04801 0
M  V30 31701 H 2870.47 2.9878 0.258969 0
M  V30 31702 H 2868.02 1.55995 0.0975606 0
M  V30 31703 H 2868.76 1.93238 2.60441 0
M  V30 31704 H 2868.54 3.49857 1.77038 0
M  V30 31705 H 2870.03 3.17925 2.70765 0
M  V30 31706 N 2870.47 -0.121866 1.57128 0
M  V30 31707 C 2871.4 -1.17991 1.95329 0
M  V30 31708 C 2872.38 -1.4026 0.822549 0
M  V30 31709 O 2873.57 -1.54461 1.08046 0
M  V30 31710 C 2870.69 -2.53428 2.24704 0
M  V30 31711 C 2869.74 -2.47604 3.47267 0
M  V30 31712 S 2870.57 -1.91848 4.99955 0
M  V30 31713 C 2871.73 -3.28964 5.32479 0
M  V30 31714 H 2871.96 -0.854132 2.84766 0
M  V30 31715 H 2869.49 -0.328508 1.50865 0
M  V30 31716 H 2871.45 -3.31358 2.42306 0
M  V30 31717 H 2870.11 -2.83186 1.35885 0
M  V30 31718 H 2869.31 -3.47364 3.65177 0
M  V30 31719 H 2868.91 -1.77794 3.29037 0
M  V30 31720 H 2871.2 -4.25165 5.27485 0
M  V30 31721 H 2872.14 -3.15884 6.33738 0
M  V30 31722 H 2872.55 -3.2726 4.59958 0
M  V30 31723 N 2871.95 -1.52648 -0.391965 0
M  V30 31724 C 2872.91 -1.76573 -1.46132 0
M  V30 31725 C 2873.91 -0.635724 -1.477 0
M  V30 31726 O 2875.1 -0.903754 -1.48923 0
M  V30 31727 C 2872.23 -1.86379 -2.85439 0
M  V30 31728 H 2873.43 -2.72053 -1.26203 0
M  V30 31729 H 2870.98 -1.43324 -0.623523 0
M  V30 31730 H 2871.71 -0.92874 -3.10717 0
M  V30 31731 H 2871.5 -2.68544 -2.85703 0
M  V30 31732 H 2872.99 -2.06572 -3.62929 0
M  V30 31733 N 2873.43 0.650235 -1.43561 0
M  V30 31734 C 2874.67 1.41219 -1.45551 0
M  V30 31735 C 2875.01 1.94033 -0.0805813 0
M  V30 31736 O 2874.28 1.72476 0.899013 0
M  V30 31737 C 2874.56 2.59144 -2.50033 0
M  V30 31738 C 2874.42 2.11803 -3.96812 0
M  V30 31739 C 2875.74 3.61355 -2.51218 0
M  V30 31740 H 2872.85 0.512146 -0.529976 0
M  V30 31741 H 2875.5 0.736902 -1.75128 0
M  V30 31742 H 2873.65 3.16754 -2.24943 0
M  V30 31743 H 2875.32 1.59171 -4.32969 0
M  V30 31744 H 2873.56 1.43149 -4.09501 0
M  V30 31745 H 2874.23 2.96617 -4.65535 0
M  V30 31746 H 2876.71 3.1351 -2.73589 0
M  V30 31747 H 2875.58 4.41413 -3.2626 0
M  V30 31748 H 2875.85 4.14147 -1.54708 0
M  V30 31749 N 2874.9 1.30141 0.88888 0
M  V30 31750 C 2875.81 1.18104 2.02703 0
M  V30 31751 C 2876.83 0.10184 1.73702 0
M  V30 31752 O 2878.01 0.316019 1.98905 0
M  V30 31753 C 2875.07 0.86971 3.35614 0
M  V30 31754 C 2874.13 2.03388 3.78063 0
M  V30 31755 C 2873.37 1.7373 5.04632 0
M  V30 31756 O 2873.59 0.663366 5.66529 0
M  V30 31757 O 2872.52 2.58855 5.43395 0
M  V30 31758 H 2876.35 2.13707 2.15784 0
M  V30 31759 H 2873.93 1.09697 1.01424 0
M  V30 31760 H 2875.82 0.711116 4.15357 0
M  V30 31761 H 2874.49 -0.0564433 3.23651 0
M  V30 31762 H 2873.4 2.24777 2.99042 0
M  V30 31763 H 2874.73 2.94162 3.94626 0
M  V30 31764 N 2876.38 -1.1007 1.12794 0
M  V30 31765 C 2877.79 -1.6361 0.899375 0
M  V30 31766 C 2878.14 -1.87873 -0.565514 0
M  V30 31767 O 2877.27 -1.6235 -1.43078 0
M  V30 31768 C 2877.86 -2.97224 1.62613 0
M  V30 31769 C 2876.42 -3.47616 1.44362 0
M  V30 31770 C 2875.57 -2.22153 1.65962 0
M  V30 31771 H 2878.52 -0.935201 1.28217 0
M  V30 31772 H 2878.54 -3.6487 1.07936 0
M  V30 31773 H 2878.05 -2.79533 2.69226 0
M  V30 31774 H 2876.16 -3.70444 0.400213 0
M  V30 31775 H 2876.27 -4.25485 2.20226 0
M  V30 31776 H 2874.63 -2.30482 1.08399 0
M  V30 31777 H 2875.42 -2.06988 2.73881 0
M  V30 31778 N 2877.86 -0.920419 -1.2793 0
M  V30 31779 C 2879.09 -0.573122 -1.98804 0
M  V30 31780 C 2879.5 0.847171 -1.68726 0
M  V30 31781 O 2878.86 1.56205 -0.943726 0
M  V30 31782 C 2878.91 -0.780695 -3.52969 0
M  V30 31783 O 2878.63 -2.14511 -3.81991 0
M  V30 31784 C 2880.13 -0.441127 -4.411 0
M  V30 31785 H 2877.35 -0.217861 -0.634648 0
M  V30 31786 H 2879.9 -1.23545 -1.62963 0
M  V30 31787 H 2878.05 -0.165272 -3.87047 0
M  V30 31788 H 2878.47 -2.1897 -4.76605 0
M  V30 31789 H 2879.94 -0.637102 -5.48311 0
M  V30 31790 H 2880.42 0.622984 -4.34759 0
M  V30 31791 H 2881.02 -1.03438 -4.1253 0
M  V30 31792 N 2879.34 1.41929 -0.685124 0
M  V30 31793 C 2880.27 2.29185 0.0258276 0
M  V30 31794 C 2881.28 1.44232 0.755051 0
M  V30 31795 O 2882.47 1.67845 0.607491 0
M  V30 31796 C 2879.57 3.2188 1.0605 0
M  V30 31797 C 2878.75 4.35539 0.403011 0
M  V30 31798 C 2877.8 5.08882 1.33886 0
M  V30 31799 O 2876.83 5.63039 0.835227 0
M  V30 31800 N 2878.03 5.15364 2.67171 0
M  V30 31801 H 2880.8 2.90842 -0.723252 0
M  V30 31802 H 2878.36 1.52967 -0.530337 0
M  V30 31803 H 2880.35 3.67813 1.68806 0
M  V30 31804 H 2878.92 2.61603 1.71121 0
M  V30 31805 H 2878.14 3.92122 -0.404254 0
M  V30 31806 H 2879.43 5.08771 -0.0545992 0
M  V30 31807 H 2878.83 4.72793 3.10617 0
M  V30 31808 H 2877.38 5.64908 3.25149 0
M  V30 31809 N 2880.82 0.429152 1.51644 0
M  V30 31810 C 2882.07 -0.141502 2.01203 0
M  V30 31811 C 2882.38 -1.44499 1.31831 0
M  V30 31812 O 2883.58 -2.0981 1.72313 0
M  V30 31813 C 2882.04 -0.302723 3.58625 0
M  V30 31814 C 2881.65 0.989852 4.36928 0
M  V30 31815 C 2883.39 -0.827588 4.16355 0
M  V30 31816 C 2881.3 0.794722 5.86036 0
M  V30 31817 H 2880.23 -0.0566568 0.751868 0
M  V30 31818 H 2882.88 0.557663 1.74821 0
M  V30 31819 H 2881.26 -1.0647 3.81419 0
M  V30 31820 H 2882.44 1.75952 4.25884 0
M  V30 31821 H 2880.75 1.44263 3.90611 0
M  V30 31822 H 2883.35 -0.989934 5.25456 0
M  V30 31823 H 2883.69 -1.80781 3.74999 0
M  V30 31824 H 2884.22 -0.124143 3.97606 0
M  V30 31825 H 2880.96 1.74708 6.31789 0
M  V30 31826 H 2880.48 0.0647022 5.99765 0
M  V30 31827 H 2882.16 0.444704 6.4547 0
M  V30 31828 N 2882.29 -1.56783 0.160229 0
M  V30 31829 C 2883.23 -2.14576 -0.805602 0
M  V30 31830 C 2884.24 -1.09851 -1.20152 0
M  V30 31831 O 2885.43 -1.3708 -1.1433 0
M  V30 31832 C 2882.53 -2.66444 -2.0943 0
M  V30 31833 C 2881.7 -3.95709 -1.86368 0
M  V30 31834 C 2880.76 -4.32754 -2.9935 0
M  V30 31835 O 2879.79 -5.00836 -2.70466 0
M  V30 31836 N 2880.99 -3.93409 -4.2686 0
M  V30 31837 H 2883.75 -2.98076 -0.311592 0
M  V30 31838 H 2881.31 -1.61884 -0.0229181 0
M  V30 31839 H 2883.31 -2.88231 -2.84086 0
M  V30 31840 H 2881.88 -1.87595 -2.50054 0
M  V30 31841 H 2881.1 -3.82413 -0.956754 0
M  V30 31842 H 2882.38 -4.80154 -1.68313 0
M  V30 31843 H 2881.78 -3.38577 -4.53191 0
M  V30 31844 H 2880.34 -4.2022 -4.98255 0
M  V30 31845 N 2883.77 0.113531 -1.57191 0
M  V30 31846 C 2884.7 1.1401 -2.03774 0
M  V30 31847 C 2885.68 1.42867 -0.923201 0
M  V30 31848 O 2886.87 1.53214 -1.19327 0
M  V30 31849 C 2884 2.46486 -2.44667 0
M  V30 31850 C 2882.95 2.32078 -3.59616 0
M  V30 31851 C 2882.28 3.69566 -3.86426 0
M  V30 31852 C 2883.58 1.77672 -4.91152 0
M  V30 31853 H 2885.27 0.752615 -2.89786 0
M  V30 31854 H 2882.82 0.360585 -1.39412 0
M  V30 31855 H 2884.77 3.18556 -2.75862 0
M  V30 31856 H 2883.5 2.87134 -1.55633 0
M  V30 31857 H 2882.16 1.62456 -3.28639 0
M  V30 31858 H 2881.8 4.07709 -2.94588 0
M  V30 31859 H 2881.5 3.60778 -4.63803 0
M  V30 31860 H 2883.03 4.43133 -4.20078 0
M  V30 31861 H 2884.44 2.39565 -5.20847 0
M  V30 31862 H 2882.84 1.79691 -5.72566 0
M  V30 31863 H 2883.91 0.734692 -4.79302 0
M  V30 31864 N 2885.25 1.52854 0.383864 0
M  V30 31865 C 2886.48 1.72332 1.15397 0
M  V30 31866 C 2886.9 0.443012 1.82809 0
M  V30 31867 O 2886.26 -0.601615 1.71027 0
M  V30 31868 C 2886.31 2.87712 2.17381 0
M  V30 31869 O 2885.41 2.55044 3.24078 0
M  V30 31870 H 2884.75 0.572889 0.335699 0
M  V30 31871 H 2887.28 1.99667 0.446585 0
M  V30 31872 H 2887.29 3.13355 2.61291 0
M  V30 31873 H 2885.97 3.8059 1.67703 0
M  V30 31874 H 2884.54 2.40158 2.85269 0
M  V30 31875 N 2886.73 -0.642612 1.43904 0
M  V30 31876 C 2887.68 -1.75509 1.49884 0
M  V30 31877 C 2888.65 -1.62423 0.347566 0
M  V30 31878 O 2889.83 -1.82513 0.556209 0
M  V30 31879 C 2886.97 -3.13712 1.43802 0
M  V30 31880 C 2886.08 -3.37856 2.69216 0
M  V30 31881 C 2885.22 -4.65966 2.55048 0
M  V30 31882 C 2884.26 -4.8325 3.7568 0
M  V30 31883 N 2883.4 -6.02627 3.60257 0
M  V30 31884 H 2888.24 -1.69733 2.44938 0
M  V30 31885 H 2885.77 -0.828144 1.21574 0
M  V30 31886 H 2887.73 -3.93621 1.38269 0
M  V30 31887 H 2886.36 -3.18531 0.523229 0
M  V30 31888 H 2885.41 -2.51968 2.84985 0
M  V30 31889 H 2886.72 -3.46511 3.58792 0
M  V30 31890 H 2885.88 -5.54018 2.47283 0
M  V30 31891 H 2884.62 -4.5965 1.63014 0
M  V30 31892 H 2883.62 -3.93631 3.83842 0
M  V30 31893 H 2884.85 -4.91389 4.68736 0
M  V30 31894 H 2882.79 -5.97422 2.70966 0
M  V30 31895 H 2882.71 -6.12287 4.43442 0
M  V30 31896 H 2883.98 -6.93272 3.56363 0
M  V30 31897 N 2888.21 -1.30611 -0.881966 0
M  V30 31898 C 2889.62 -1.09007 -1.16574 0
M  V30 31899 C 2889.82 0.147235 -2.00961 0
M  V30 31900 O 2888.88 0.839994 -2.38118 0
M  V30 31901 C 2890.19 -2.35521 -1.8695 0
M  V30 31902 C 2891.74 -2.41015 -1.99702 0
M  V30 31903 C 2892.22 -3.67379 -2.7349 0
M  V30 31904 N 2893.71 -3.68204 -2.81034 0
M  V30 31905 C 2894.44 -4.6267 -3.3871 0
M  V30 31906 N 2893.94 -5.67482 -3.97411 0
M  V30 31907 N 2895.73 -4.50209 -3.36553 0
M  V30 31908 H 2887.88 -2.09985 -0.319361 0
M  V30 31909 H 2890.14 -0.925781 -0.204041 0
M  V30 31910 H 2889.85 -3.25832 -1.32388 0
M  V30 31911 H 2889.72 -2.444 -2.87313 0
M  V30 31912 H 2892.11 -1.51181 -2.53433 0
M  V30 31913 H 2892.19 -2.36109 -0.984176 0
M  V30 31914 H 2891.84 -4.57573 -2.2043 0
M  V30 31915 H 2891.77 -3.69547 -3.75157 0
M  V30 31916 H 2894.26 -2.9243 -2.39359 0
M  V30 31917 H 2894.57 -6.3566 -4.39495 0
M  V30 31918 H 2892.92 -5.71271 -3.95822 0
M  V30 31919 H 2896.11 -3.67508 -2.89924 0
M  V30 31920 H 2896.28 -5.2401 -3.81206 0
M  V30 31921 N 2889.69 1.0947 -1.13376 0
M  V30 31922 C 2890.93 1.82083 -0.906491 0
M  V30 31923 C 2891.29 1.84028 0.561368 0
M  V30 31924 O 2890.58 1.29719 1.41009 0
M  V30 31925 C 2890.77 3.27648 -1.42765 0
M  V30 31926 C 2890.6 3.39883 -2.94465 0
M  V30 31927 C 2889.37 3.51712 -3.62804 0
M  V30 31928 C 2891.57 3.32451 -3.92404 0
M  V30 31929 N 2889.55 3.52626 -5.02522 0
M  V30 31930 C 2890.92 3.40228 -5.1831 0
M  V30 31931 C 2892.98 3.16115 -3.84676 0
M  V30 31932 C 2891.68 3.33353 -6.37392 0
M  V30 31933 C 2893.71 3.10565 -5.03292 0
M  V30 31934 C 2893.07 3.18934 -6.28061 0
M  V30 31935 H 2889.17 0.680599 -0.385109 0
M  V30 31936 H 2891.75 1.30834 -1.44189 0
M  V30 31937 H 2889.92 3.77367 -0.919169 0
M  V30 31938 H 2891.66 3.8827 -1.14142 0
M  V30 31939 H 2888.41 3.55141 -3.13324 0
M  V30 31940 H 2888.83 3.56668 -5.75427 0
M  V30 31941 H 2893.48 3.08515 -2.891 0
M  V30 31942 H 2891.19 3.39717 -7.33224 0
M  V30 31943 H 2894.78 2.99062 -4.99052 0
M  V30 31944 H 2893.66 3.14656 -7.18305 0
M  V30 31945 N 2891.16 0.92719 1.2744 0
M  V30 31946 C 2892.58 0.627355 1.46753 0
M  V30 31947 C 2892.78 -0.823517 1.83903 0
M  V30 31948 O 2891.84 -1.60145 1.95217 0
M  V30 31949 C 2893.15 1.57679 2.56043 0
M  V30 31950 C 2894.7 1.58496 2.69904 0
M  V30 31951 C 2895.17 2.52135 3.82351 0
M  V30 31952 N 2896.66 2.50339 3.89724 0
M  V30 31953 C 2897.4 3.19483 4.76149 0
M  V30 31954 N 2896.89 3.98005 5.67066 0
M  V30 31955 N 2898.69 3.08504 4.69874 0
M  V30 31956 H 2890.84 1.86519 1.0161 0
M  V30 31957 H 2893.1 0.800762 0.507429 0
M  V30 31958 H 2892.81 2.6118 2.35537 0
M  V30 31959 H 2892.68 1.3181 3.5342 0
M  V30 31960 H 2895.07 0.557259 2.89791 0
M  V30 31961 H 2895.15 1.88413 1.73015 0
M  V30 31962 H 2894.79 3.55015 3.63217 0
M  V30 31963 H 2894.72 2.19514 4.78666 0
M  V30 31964 H 2897.21 1.93312 3.24714 0
M  V30 31965 H 2897.53 4.47751 6.29872 0
M  V30 31966 H 2895.87 4.02108 5.66863 0
M  V30 31967 H 2899.06 2.46653 3.97844 0
M  V30 31968 H 2899.24 3.62661 5.37011 0
M  V30 31969 N 2892.64 -1.41564 0.692641 0
M  V30 31970 C 2893.55 -2.34586 0.0258863 0
M  V30 31971 C 2894.57 -1.5607 -0.769296 0
M  V30 31972 O 2895.74 -1.88563 -0.70753 0
M  V30 31973 C 2892.81 -3.34782 -0.90123 0
M  V30 31974 C 2891.87 -4.29187 -0.0985824 0
M  V30 31975 C 2891.1 -5.24596 -0.981542 0
M  V30 31976 O 2891.33 -5.25381 -2.22106 0
M  V30 31977 O 2890.26 -6.00342 -0.432787 0
M  V30 31978 H 2894.09 -2.93175 0.792588 0
M  V30 31979 H 2891.67 -1.42368 0.45296 0
M  V30 31980 H 2893.55 -3.96288 -1.43295 0
M  V30 31981 H 2892.23 -2.7864 -1.64747 0
M  V30 31982 H 2891.13 -3.71038 0.477669 0
M  V30 31983 H 2892.47 -4.88419 0.608933 0
M  V30 31984 N 2894.12 -0.437188 -1.51415 0
M  V30 31985 C 2895.37 0.13083 -2.01275 0
M  V30 31986 C 2895.68 1.43798 -1.32595 0
M  V30 31987 O 2896.89 2.08893 -1.73424 0
M  V30 31988 C 2895.34 0.2837 -3.5878 0
M  V30 31989 C 2894.95 -1.01301 -4.36397 0
M  V30 31990 C 2896.7 0.805496 -4.16788 0
M  V30 31991 C 2894.6 -0.82579 -5.85606 0
M  V30 31992 H 2893.53 0.0526686 -0.752158 0
M  V30 31993 H 2896.18 -0.566927 -1.74523 0
M  V30 31994 H 2894.57 1.04446 -3.81978 0
M  V30 31995 H 2895.74 -1.78208 -4.24945 0
M  V30 31996 H 2894.05 -1.46333 -3.89841 0
M  V30 31997 H 2896.65 0.962054 -5.25974 0
M  V30 31998 H 2896.99 1.7879 -3.75952 0
M  V30 31999 H 2897.53 0.103055 -3.97666 0
M  V30 32000 H 2894.27 -1.78056 -6.30854 0
M  V30 32001 H 2893.79 -0.0965083 -5.99722 0
M  V30 32002 H 2895.47 -0.478929 -6.45225 0
M  V30 32003 N 2895.6 1.56696 -0.168541 0
M  V30 32004 C 2896.51 2.21415 0.775396 0
M  V30 32005 C 2897.52 1.20494 1.25527 0
M  V30 32006 O 2898.7 1.53146 1.30798 0
M  V30 32007 C 2895.76 2.84002 1.98855 0
M  V30 32008 C 2894.83 4.00116 1.55583 0
M  V30 32009 C 2894.06 4.59709 2.71116 0
M  V30 32010 O 2894.28 4.18189 3.8791 0
M  V30 32011 O 2893.22 5.49624 2.4535 0
M  V30 32012 H 2897.04 3.02633 0.254363 0
M  V30 32013 H 2894.63 1.49281 0.0595245 0
M  V30 32014 H 2896.51 3.23698 2.69811 0
M  V30 32015 H 2895.18 2.05783 2.4987 0
M  V30 32016 H 2894.09 3.65095 0.81586 0
M  V30 32017 H 2895.42 4.79919 1.09263 0
M  V30 32018 N 2897.08 -0.105193 1.57249 0
M  V30 32019 C 2898.3 -0.828231 1.90145 0
M  V30 32020 C 2898.73 -1.71981 0.761841 0
M  V30 32021 O 2898.08 -1.79013 -0.287054 0
M  V30 32022 C 2898.13 -1.62602 3.21859 0
M  V30 32023 O 2897.24 -2.73414 3.08737 0
M  V30 32024 H 2896.58 -0.228181 0.623562 0
M  V30 32025 H 2899.11 -0.0834466 2.0443 0
M  V30 32026 H 2899.12 -2.01237 3.54919 0
M  V30 32027 H 2897.79 -0.971616 4.04391 0
M  V30 32028 H 2896.37 -2.37881 2.87171 0
M  V30 32029 N 2898.55 -1.53055 -0.375752 0
M  V30 32030 C 2899.5 -1.78774 -1.45974 0
M  V30 32031 C 2900.47 -0.631579 -1.53624 0
M  V30 32032 O 2901.66 -0.872697 -1.69672 0
M  V30 32033 C 2898.8 -1.97429 -2.83047 0
M  V30 32034 C 2897.91 -3.25139 -2.84445 0
M  V30 32035 C 2897.04 -3.34038 -4.13028 0
M  V30 32036 C 2896.08 -4.55819 -4.08528 0
M  V30 32037 N 2895.22 -4.61927 -5.28742 0
M  V30 32038 H 2900.06 -2.71275 -1.23344 0
M  V30 32039 H 2897.6 -1.34391 -0.598123 0
M  V30 32040 H 2899.56 -2.06232 -3.62663 0
M  V30 32041 H 2898.19 -1.08275 -3.04099 0
M  V30 32042 H 2897.24 -3.25342 -1.97122 0
M  V30 32043 H 2898.55 -4.14822 -2.76991 0
M  V30 32044 H 2897.7 -3.42096 -5.01054 0
M  V30 32045 H 2896.44 -2.42352 -4.23222 0
M  V30 32046 H 2895.45 -4.47872 -3.18889 0
M  V30 32047 H 2896.67 -5.48835 -3.99946 0
M  V30 32048 H 2894.62 -3.73138 -5.3954 0
M  V30 32049 H 2894.54 -5.45501 -5.23416 0
M  V30 32050 H 2895.8 -4.74256 -6.18629 0
M  V30 32051 N 2900.03 0.634971 -1.44242 0
M  V30 32052 C 2901.28 1.3946 -1.46823 0
M  V30 32053 C 2901.61 1.94246 -0.0993704 0
M  V30 32054 O 2900.86 1.73865 0.898295 0
M  V30 32055 C 2901.16 2.58042 -2.47284 0
M  V30 32056 C 2900.83 2.21567 -3.92707 0
M  V30 32057 C 2899.49 2.11333 -4.3231 0
M  V30 32058 C 2901.84 1.92687 -4.84274 0
M  V30 32059 C 2899.17 1.704 -5.6141 0
M  V30 32060 C 2901.52 1.53247 -6.13757 0
M  V30 32061 C 2900.19 1.41551 -6.52319 0
M  V30 32062 H 2899.46 0.510321 -0.537265 0
M  V30 32063 H 2902.1 0.720409 -1.77433 0
M  V30 32064 H 2900.41 3.30676 -2.10144 0
M  V30 32065 H 2902.1 3.16267 -2.46528 0
M  V30 32066 H 2898.69 2.3045 -3.61373 0
M  V30 32067 H 2902.88 1.99505 -4.54435 0
M  V30 32068 H 2898.13 1.59945 -5.90108 0
M  V30 32069 H 2902.31 1.29937 -6.84171 0
M  V30 32070 H 2899.94 1.09605 -7.52257 0
M  V30 32071 N 2901.51 1.31076 0.875027 0
M  V30 32072 C 2902.47 1.18266 1.96331 0
M  V30 32073 C 2903.47 0.111135 1.60415 0
M  V30 32074 O 2904.66 0.360017 1.70439 0
M  V30 32075 C 2901.8 0.814198 3.31034 0
M  V30 32076 H 2902.99 2.14961 2.09121 0
M  V30 32077 H 2900.54 1.14615 1.06269 0
M  V30 32078 H 2901.28 -0.151818 3.23944 0
M  V30 32079 H 2901.06 1.58869 3.58473 0
M  V30 32080 H 2902.55 0.748321 4.10841 0
M  V30 32081 N 2902.99 -1.08867 1.13955 0
M  V30 32082 C 2903.92 -2.15521 0.779944 0
M  V30 32083 C 2904.93 -1.61555 -0.200991 0
M  V30 32084 O 2906.12 -1.78489 0.0200363 0
M  V30 32085 C 2903.22 -3.38626 0.136286 0
M  V30 32086 C 2902.4 -4.21991 1.15076 0
M  V30 32087 C 2901.45 -5.23506 0.531737 0
M  V30 32088 O 2900.48 -5.56549 1.19337 0
M  V30 32089 N 2901.68 -5.76341 -0.693632 0
M  V30 32090 H 2904.45 -2.46976 1.69773 0
M  V30 32091 H 2902.01 -1.24635 1.03333 0
M  V30 32092 H 2904 -4.03658 -0.290224 0
M  V30 32093 H 2902.57 -3.05013 -0.68455 0
M  V30 32094 H 2901.79 -3.53009 1.75437 0
M  V30 32095 H 2903.08 -4.74511 1.83622 0
M  V30 32096 H 2902.48 -5.5172 -1.24984 0
M  V30 32097 H 2901.03 -6.43078 -1.06272 0
M  V30 32098 N 2904.47 -0.933936 -1.26946 0
M  V30 32099 C 2905.71 -0.577659 -1.94086 0
M  V30 32100 C 2906.04 0.88211 -1.73347 0
M  V30 32101 O 2905.3 1.6454 -1.05948 0
M  V30 32102 C 2905.6 -0.857467 -3.46961 0
M  V30 32103 C 2905.26 -2.29996 -3.8783 0
M  V30 32104 C 2903.92 -2.6943 -3.98699 0
M  V30 32105 C 2906.28 -3.23773 -4.08437 0
M  V30 32106 C 2903.6 -4.01752 -4.27566 0
M  V30 32107 C 2905.96 -4.55682 -4.3879 0
M  V30 32108 C 2904.62 -4.94941 -4.47872 0
M  V30 32109 H 2903.89 -0.21138 -0.710211 0
M  V30 32110 H 2906.54 -1.17908 -1.50897 0
M  V30 32111 H 2904.84 -0.173438 -3.91416 0
M  V30 32112 H 2906.54 -0.560685 -3.97061 0
M  V30 32113 H 2903.13 -1.98406 -3.79912 0
M  V30 32114 H 2907.31 -2.94506 -3.99474 0
M  V30 32115 H 2902.57 -4.31842 -4.32808 0
M  V30 32116 H 2906.74 -5.28343 -4.53681 0
M  V30 32117 H 2904.37 -5.97503 -4.69994 0
M  V30 32118 N 2905.94 1.41194 -0.700139 0
M  V30 32119 C 2907.36 1.55201 -0.372142 0
M  V30 32120 C 2907.56 1.67472 1.1205 0
M  V30 32121 O 2906.62 1.65569 1.90639 0
M  V30 32122 C 2907.93 2.78876 -1.12467 0
M  V30 32123 C 2909.48 2.92677 -1.10946 0
M  V30 32124 C 2909.95 4.19245 -1.84383 0
M  V30 32125 N 2911.44 4.26213 -1.81375 0
M  V30 32126 C 2912.18 5.23017 -2.35033 0
M  V30 32127 N 2911.67 6.25824 -2.97181 0
M  V30 32128 N 2913.47 5.14988 -2.25263 0
M  V30 32129 H 2905.62 1.31474 -1.66818 0
M  V30 32130 H 2907.88 0.634632 -0.704235 0
M  V30 32131 H 2907.59 2.76033 -2.17942 0
M  V30 32132 H 2907.46 3.7053 -0.706217 0
M  V30 32133 H 2909.85 2.95033 -0.0629628 0
M  V30 32134 H 2909.93 2.02184 -1.56701 0
M  V30 32135 H 2909.57 4.17651 -2.89015 0
M  V30 32136 H 2909.5 5.08719 -1.36059 0
M  V30 32137 H 2911.99 3.52553 -1.36069 0
M  V30 32138 H 2912.31 6.96088 -3.3568 0
M  V30 32139 H 2910.65 6.26312 -3.0126 0
M  V30 32140 H 2913.84 4.33599 -1.76379 0
M  V30 32141 H 2914.02 5.90263 -2.67383 0
M  V30 32142 N 2907.42 0.445212 1.51181 0
M  V30 32143 C 2908.84 0.0979234 1.59299 0
M  V30 32144 C 2909.04 -1.39343 1.45553 0
M  V30 32145 O 2908.09 -2.16417 1.30077 0
M  V30 32146 C 2909.41 0.625057 2.94132 0
M  V30 32147 C 2910.96 0.586191 3.07462 0
M  V30 32148 C 2911.43 1.09043 4.4483 0
M  V30 32149 N 2912.92 1.04875 4.51171 0
M  V30 32150 C 2913.66 1.40969 5.55801 0
M  V30 32151 N 2913.15 1.84387 6.67812 0
M  V30 32152 N 2914.95 1.32736 5.46203 0
M  V30 32153 H 2907.1 1.41547 1.58361 0
M  V30 32154 H 2909.36 0.583773 0.746936 0
M  V30 32155 H 2909.07 1.66881 3.09586 0
M  V30 32156 H 2908.94 0.0542925 3.77161 0
M  V30 32157 H 2911.33 -0.448594 2.9167 0
M  V30 32158 H 2911.41 1.19345 2.26253 0
M  V30 32159 H 2911.05 2.12372 4.61368 0
M  V30 32160 H 2910.98 0.459631 5.2459 0
M  V30 32161 H 2913.47 0.729997 3.70782 0
M  V30 32162 H 2913.79 2.10145 7.43679 0
M  V30 32163 H 2912.13 1.8832 6.69 0
M  V30 32164 H 2915.32 0.986758 4.57581 0
M  V30 32165 H 2915.49 1.61193 6.27631 0
M  V30 32166 N 2908.9 -1.56605 0.176849 0
M  V30 32167 C 2909.83 -2.21235 -0.746802 0
M  V30 32168 C 2910.81 -1.16969 -1.235 0
M  V30 32169 O 2912 -1.45417 -1.28715 0
M  V30 32170 C 2909.13 -2.85744 -1.97402 0
M  V30 32171 C 2908.08 -3.96097 -1.62146 0
M  V30 32172 C 2907.41 -4.47681 -2.92379 0
M  V30 32173 C 2908.71 -5.15415 -0.845263 0
M  V30 32174 H 2910.4 -2.98676 -0.208064 0
M  V30 32175 H 2907.95 -1.43662 -0.0986342 0
M  V30 32176 H 2909.9 -3.29634 -2.62525 0
M  V30 32177 H 2908.62 -2.0568 -2.53699 0
M  V30 32178 H 2907.28 -3.5287 -0.993902 0
M  V30 32179 H 2906.93 -3.64402 -3.46728 0
M  V30 32180 H 2906.63 -5.22131 -2.69542 0
M  V30 32181 H 2908.15 -4.94262 -3.58522 0
M  V30 32182 H 2909.57 -5.55964 -1.39919 0
M  V30 32183 H 2907.97 -5.95817 -0.71571 0
M  V30 32184 H 2909.04 -4.84645 0.157324 0
M  V30 32185 N 2910.38 0.0968524 -1.57302 0
M  V30 32186 C 2911.33 1.1365 -2.02944 0
M  V30 32187 C 2912.32 1.41576 -0.930198 0
M  V30 32188 O 2913.53 1.41277 -1.11538 0
M  V30 32189 H 2909.9 0.38372 -0.646733 0
M  V30 32190 H 2911.87 0.725216 -2.89453 0
M  V30 32191 C 2910.62 2.44899 -2.46819 0
M  V30 32192 H 2909.94 2.24255 -3.30983 0
M  V30 32193 H 2911.38 3.16151 -2.82532 0
M  V30 32194 C 2909.84 3.09072 -1.34076 0
M  V30 32195 O 2910.37 3.96091 -0.668925 0
M  V30 32196 N 2908.58 2.69295 -1.09219 0
M  V30 32197 H 2908.13 1.98623 -1.64032 0
M  V30 32198 H 2908.08 3.12558 -0.339839 0
M  V30 32199 N 2911.86 1.53252 0.36763 0
M  V30 32200 C 2913.1 1.69335 1.11049 0
M  V30 32201 C 2913.43 0.444097 1.89362 0
M  V30 32202 O 2912.69 -0.57392 1.87095 0
M  V30 32203 C 2912.99 2.89328 2.09819 0
M  V30 32204 C 2912.65 4.25918 1.48002 0
M  V30 32205 C 2911.31 4.63062 1.30871 0
M  V30 32206 C 2913.67 5.10869 1.03259 0
M  V30 32207 C 2910.99 5.82795 0.675766 0
M  V30 32208 C 2913.35 6.31246 0.413659 0
M  V30 32209 C 2912.01 6.67104 0.229821 0
M  V30 32210 H 2911.28 0.619641 0.406357 0
M  V30 32211 H 2913.93 1.87434 0.392525 0
M  V30 32212 H 2912.23 2.65733 2.87912 0
M  V30 32213 H 2913.93 2.98965 2.67246 0
M  V30 32214 H 2910.52 3.9667 1.62329 0
M  V30 32215 H 2914.7 4.82724 1.15288 0
M  V30 32216 H 2909.96 6.0917 0.521726 0
M  V30 32217 H 2914.13 6.96375 0.0587544 0
M  V30 32218 H 2911.76 7.59746 -0.262696 0
M  V30 32219 N 2913.34 -0.627313 1.44577 0
M  V30 32220 C 2914.3 -1.721 1.51375 0
M  V30 32221 C 2915.3 -1.55864 0.395357 0
M  V30 32222 O 2916.49 -1.6129 0.658122 0
M  V30 32223 C 2913.62 -3.11214 1.39135 0
M  V30 32224 H 2914.81 -1.67445 2.48801 0
M  V30 32225 H 2912.37 -0.841313 1.31726 0
M  V30 32226 H 2913.1 -3.21461 0.42817 0
M  V30 32227 H 2912.89 -3.24406 2.20235 0
M  V30 32228 H 2914.38 -3.90916 1.46881 0
M  V30 32229 N 2914.81 -1.31539 -0.868063 0
M  V30 32230 C 2915.75 -1.1517 -1.98163 0
M  V30 32231 C 2916.76 -0.0902621 -1.6255 0
M  V30 32232 O 2917.95 -0.33794 -1.75272 0
M  V30 32233 C 2915.05 -0.737834 -3.30771 0
M  V30 32234 C 2914.22 -1.88469 -3.94713 0
M  V30 32235 C 2913.28 -1.45657 -5.05639 0
M  V30 32236 O 2912.31 -2.16652 -5.26356 0
M  V30 32237 N 2913.51 -0.345032 -5.79474 0
M  V30 32238 H 2916.27 -2.11086 -2.1275 0
M  V30 32239 H 2913.83 -1.23898 -1.04215 0
M  V30 32240 H 2915.83 -0.434102 -4.02365 0
M  V30 32241 H 2914.4 0.129779 -3.1233 0
M  V30 32242 H 2913.62 -2.35564 -3.16075 0
M  V30 32243 H 2914.9 -2.6528 -4.3417 0
M  V30 32244 H 2914.3 0.24616 -5.65164 0
M  V30 32245 H 2912.86 -0.100843 -6.51722 0
M  V30 32246 N 2916.29 1.08262 -1.1453 0
M  V30 32247 C 2917.54 1.80055 -0.909024 0
M  V30 32248 C 2917.85 1.87237 0.565826 0
M  V30 32249 O 2919.06 2.55459 0.919409 0
M  V30 32250 C 2917.52 3.23517 -1.57687 0
M  V30 32251 C 2917.12 3.24563 -3.08808 0
M  V30 32252 C 2918.87 3.99983 -1.42177 0
M  V30 32253 C 2916.77 4.62622 -3.68422 0
M  V30 32254 H 2915.7 0.674775 -0.336444 0
M  V30 32255 H 2918.36 1.21585 -1.37439 0
M  V30 32256 H 2916.74 3.82122 -1.03918 0
M  V30 32257 H 2917.91 2.75656 -3.69256 0
M  V30 32258 H 2916.23 2.61592 -3.23973 0
M  V30 32259 H 2918.82 5.02002 -1.84115 0
M  V30 32260 H 2919.17 4.1467 -0.368062 0
M  V30 32261 H 2919.7 3.4785 -1.9299 0
M  V30 32262 H 2916.44 4.53138 -4.73652 0
M  V30 32263 H 2915.96 5.11805 -3.12755 0
M  V30 32264 H 2917.64 5.31596 -3.68802 0
M  V30 32265 N 2917.77 0.940655 1.26449 0
M  V30 32266 C 2918.72 0.420708 2.24085 0
M  V30 32267 C 2919.7 -0.482274 1.53502 0
M  V30 32268 O 2920.9 -0.317606 1.74127 0
M  V30 32269 C 2918.02 -0.313392 3.41867 0
M  V30 32270 C 2917.11 0.606852 4.19736 0
M  V30 32271 N 2917.5 1.7324 4.75207 0
M  V30 32272 C 2915.8 0.412338 4.4409 0
M  V30 32273 C 2916.5 2.30582 5.34048 0
M  V30 32274 N 2915.48 1.5939 5.19707 0
M  V30 32275 H 2919.28 1.27991 2.64567 0
M  V30 32276 H 2916.79 0.796461 1.41528 0
M  V30 32277 H 2918.79 -0.702919 4.10931 0
M  V30 32278 H 2917.45 -1.16937 3.02912 0
M  V30 32279 H 2918.46 2.11456 4.72765 0
M  V30 32280 H 2915.14 -0.401911 4.15561 0
M  V30 32281 H 2916.53 3.25414 5.8784 0
M  V30 32282 N 2919.25 -1.40821 0.707617 0
M  V30 32283 C 2920.48 -2.05346 0.253109 0
M  V30 32284 C 2920.89 -1.53291 -1.10215 0
M  V30 32285 O 2920.25 -0.686135 -1.69111 0
M  V30 32286 C 2920.3 -3.60857 0.215474 0
M  V30 32287 O 2920.02 -4.10989 1.51721 0
M  V30 32288 C 2921.52 -4.42545 -0.258559 0
M  V30 32289 H 2918.74 -0.661025 0.115268 0
M  V30 32290 H 2921.28 -1.80375 0.963586 0
M  V30 32291 H 2919.44 -3.84825 -0.44591 0
M  V30 32292 H 2919.85 -5.05127 1.41235 0
M  V30 32293 H 2921.33 -5.51505 -0.233752 0
M  V30 32294 H 2921.8 -4.19537 -1.29943 0
M  V30 32295 H 2922.41 -4.23668 0.37226 0
M  V30 32296 N 2920.73 -0.453223 -1.50943 0
M  V30 32297 C 2921.97 0.108047 -2.02512 0
M  V30 32298 C 2922.3 1.40965 -1.33576 0
M  V30 32299 O 2921.58 1.89086 -0.455704 0
M  V30 32300 C 2921.86 0.31039 -3.5876 0
M  V30 32301 C 2921.72 -1.01097 -4.38291 0
M  V30 32302 C 2923.03 1.07305 -4.26818 0
M  V30 32303 H 2920.15 0.0377935 -0.73603 0
M  V30 32304 H 2922.8 -0.595327 -1.80432 0
M  V30 32305 H 2920.95 0.909516 -3.77704 0
M  V30 32306 H 2922.62 -1.6453 -4.30961 0
M  V30 32307 H 2920.86 -1.61186 -4.02742 0
M  V30 32308 H 2921.53 -0.823246 -5.45827 0
M  V30 32309 H 2924.01 0.565401 -4.12241 0
M  V30 32310 H 2922.88 1.18341 -5.35991 0
M  V30 32311 H 2923.14 2.10518 -3.8876 0
M  V30 32312 N 2922.2 1.56509 -0.185151 0
M  V30 32313 C 2923.62 1.58683 0.170837 0
M  V30 32314 C 2923.82 1.201 1.61797 0
M  V30 32315 O 2922.88 0.919079 2.35179 0
M  V30 32316 C 2924.19 3.0045 -0.122512 0
M  V30 32317 C 2925.74 3.12939 -0.0618249 0
M  V30 32318 C 2926.21 4.56821 -0.32835 0
M  V30 32319 N 2927.7 4.62373 -0.276614 0
M  V30 32320 C 2928.44 5.71577 -0.456823 0
M  V30 32321 N 2927.93 6.89287 -0.696841 0
M  V30 32322 N 2929.73 5.60733 -0.391767 0
M  V30 32323 H 2921.88 1.79872 -1.1296 0
M  V30 32324 H 2924.14 0.834321 -0.450124 0
M  V30 32325 H 2923.85 3.33204 -1.12552 0
M  V30 32326 H 2923.72 3.72722 0.579513 0
M  V30 32327 H 2926.11 2.80003 0.931776 0
M  V30 32328 H 2926.19 2.43074 -0.796774 0
M  V30 32329 H 2925.83 4.90468 -1.31922 0
M  V30 32330 H 2925.76 5.24863 0.427373 0
M  V30 32331 H 2928.25 3.77775 -0.0973123 0
M  V30 32332 H 2928.57 7.68401 -0.823426 0
M  V30 32333 H 2926.91 6.91117 -0.733619 0
M  V30 32334 H 2930.1 4.67652 -0.204745 0
M  V30 32335 H 2930.28 6.45782 -0.535632 0
M  V30 32336 N 2923.68 -0.0885089 1.57351 0
M  V30 32337 C 2924.59 -1.12512 2.05859 0
M  V30 32338 C 2925.61 -1.4345 0.984783 0
M  V30 32339 O 2926.78 -1.53961 1.29839 0
M  V30 32340 C 2923.85 -2.42391 2.47886 0
M  V30 32341 C 2922.91 -2.18576 3.6949 0
M  V30 32342 C 2922.14 -3.42261 4.09503 0
M  V30 32343 O 2922.37 -4.50749 3.49544 0
M  V30 32344 O 2921.3 -3.3146 5.02412 0
M  V30 32345 H 2925.13 -0.743094 2.94469 0
M  V30 32346 H 2922.71 -0.301481 1.46327 0
M  V30 32347 H 2924.59 -3.18857 2.75515 0
M  V30 32348 H 2923.27 -2.80007 1.62412 0
M  V30 32349 H 2922.17 -1.39869 3.46969 0
M  V30 32350 H 2923.51 -1.85849 4.55764 0
M  V30 32351 N 2925.16 -1.53445 -0.359498 0
M  V30 32352 C 2926.07 -1.83281 -1.46442 0
M  V30 32353 C 2927.09 -0.721656 -1.58329 0
M  V30 32354 O 2928.26 -1.01234 -1.74108 0
M  V30 32355 C 2925.33 -2.02195 -2.81634 0
M  V30 32356 C 2924.39 -3.26086 -2.79224 0
M  V30 32357 C 2923.62 -3.44089 -4.07968 0
M  V30 32358 O 2923.84 -2.6626 -5.04442 0
M  V30 32359 O 2922.78 -4.37466 -4.1341 0
M  V30 32360 H 2926.6 -2.77165 -1.24151 0
M  V30 32361 H 2924.19 -1.38901 -0.550176 0
M  V30 32362 H 2926.07 -2.16173 -3.61728 0
M  V30 32363 H 2924.75 -1.11501 -3.0389 0
M  V30 32364 H 2923.65 -3.17526 -1.97807 0
M  V30 32365 H 2924.99 -4.16722 -2.61922 0
M  V30 32366 N 2926.64 0.619637 -1.44908 0
M  V30 32367 C 2927.87 1.40588 -1.51798 0
M  V30 32368 C 2928.28 1.8823 -0.146586 0
M  V30 32369 O 2927.64 1.61514 0.849669 0
M  V30 32370 C 2927.69 2.61849 -2.49233 0
M  V30 32371 O 2927.41 2.1619 -3.81043 0
M  V30 32372 C 2928.91 3.54848 -2.65703 0
M  V30 32373 H 2926.13 0.430768 -0.51447 0
M  V30 32374 H 2928.67 0.75678 -1.89982 0
M  V30 32375 H 2926.83 3.22826 -2.14154 0
M  V30 32376 H 2927.24 2.94889 -4.33752 0
M  V30 32377 H 2928.72 4.36509 -3.37882 0
M  V30 32378 H 2929.19 4.04407 -1.71323 0
M  V30 32379 H 2929.8 2.99732 -3.0173 0
M  V30 32380 N 2928.12 1.31997 0.861075 0
M  V30 32381 C 2929.05 1.14727 1.97264 0
M  V30 32382 C 2930.03 0.0484074 1.62528 0
M  V30 32383 O 2931.21 0.206511 1.87365 0
M  V30 32384 C 2928.34 0.754919 3.3018 0
M  V30 32385 C 2927.38 1.8581 3.83897 0
M  V30 32386 S 2928.22 3.46522 4.08268 0
M  V30 32387 C 2929.37 3.09244 5.44168 0
M  V30 32388 H 2929.61 2.08826 2.11611 0
M  V30 32389 H 2927.14 1.16584 1.0123 0
M  V30 32390 H 2929.1 0.535304 4.06995 0
M  V30 32391 H 2927.76 -0.1671 3.13655 0
M  V30 32392 H 2926.95 1.53642 4.80011 0
M  V30 32393 H 2926.55 2.03324 3.13904 0
M  V30 32394 H 2928.85 2.5869 6.26168 0
M  V30 32395 H 2929.79 4.04355 5.81294 0
M  V30 32396 H 2930.2 2.4644 5.07866 0
M  V30 32397 N 2929.59 -1.07653 1.15103 0
M  V30 32398 C 2930.53 -2.14142 0.78856 0
M  V30 32399 C 2931.51 -1.60913 -0.233607 0
M  V30 32400 O 2932.69 -1.88112 -0.120874 0
M  V30 32401 C 2929.82 -3.38263 0.172093 0
M  V30 32402 C 2928.86 -4.10262 1.16566 0
M  V30 32403 S 2929.7 -4.62079 2.70635 0
M  V30 32404 C 2930.85 -5.89477 2.104 0
M  V30 32405 H 2931.08 -2.44558 1.69052 0
M  V30 32406 H 2928.62 -1.19879 0.973054 0
M  V30 32407 H 2930.58 -4.10118 -0.177151 0
M  V30 32408 H 2929.24 -3.0603 -0.707415 0
M  V30 32409 H 2928.43 -4.99358 0.682488 0
M  V30 32410 H 2928.03 -3.44356 1.45929 0
M  V30 32411 H 2930.32 -6.6149 1.46417 0
M  V30 32412 H 2931.27 -6.42503 2.9765 0
M  V30 32413 H 2931.67 -5.42853 1.54826 0
M  V30 32414 N 2931.07 -0.947348 -1.25949 0
M  V30 32415 C 2932.32 -0.599098 -1.93749 0
M  V30 32416 C 2932.65 0.860602 -1.7409 0
M  V30 32417 O 2931.93 1.61652 -1.08161 0
M  V30 32418 C 2932.21 -0.949695 -3.47351 0
M  V30 32419 C 2932.06 -2.46459 -3.76269 0
M  V30 32420 C 2933.38 -0.469519 -4.37588 0
M  V30 32421 H 2930.5 -0.219127 -0.703671 0
M  V30 32422 H 2933.14 -1.18268 -1.48703 0
M  V30 32423 H 2931.29 -0.453076 -3.85849 0
M  V30 32424 H 2932.96 -3.03441 -3.4745 0
M  V30 32425 H 2931.21 -2.90543 -3.22129 0
M  V30 32426 H 2931.88 -2.66041 -4.83659 0
M  V30 32427 H 2934.35 -0.895412 -4.06352 0
M  V30 32428 H 2933.23 -0.743595 -5.4384 0
M  V30 32429 H 2933.49 0.630541 -4.3758 0
M  V30 32430 N 2932.55 1.40444 -0.715075 0
M  V30 32431 C 2933.48 2.28197 -0.0112827 0
M  V30 32432 C 2934.46 1.4331 0.768185 0
M  V30 32433 O 2935.65 1.72722 0.754931 0
M  V30 32434 C 2932.77 3.23866 0.991396 0
M  V30 32435 C 2931.82 4.25424 0.302798 0
M  V30 32436 S 2932.65 5.26661 -0.968945 0
M  V30 32437 C 2933.81 6.25892 0.0316438 0
M  V30 32438 H 2934.04 2.8754 -0.755518 0
M  V30 32439 H 2931.57 1.4587 -0.50608 0
M  V30 32440 H 2933.53 3.7951 1.56468 0
M  V30 32441 H 2932.19 2.63581 1.70833 0
M  V30 32442 H 2931.39 4.92711 1.06077 0
M  V30 32443 H 2930.99 3.73476 -0.197919 0
M  V30 32444 H 2933.28 6.71778 0.878646 0
M  V30 32445 H 2934.22 7.05486 -0.607822 0
M  V30 32446 H 2934.63 5.63115 0.395141 0
M  V30 32447 N 2934.03 0.461222 1.507 0
M  V30 32448 C 2935.26 -0.0951392 2.06681 0
M  V30 32449 C 2935.67 -1.3438 1.32618 0
M  V30 32450 O 2935.03 -1.78228 0.392562 0
M  V30 32451 C 2935.08 -0.393253 3.59355 0
M  V30 32452 O 2934.8 0.805872 4.30624 0
M  V30 32453 C 2936.3 -0.997669 4.31928 0
M  V30 32454 H 2933.52 0.00268438 0.670995 0
M  V30 32455 H 2936.07 0.647171 1.9399 0
M  V30 32456 H 2934.22 -1.08548 3.71882 0
M  V30 32457 H 2934.63 0.5445 5.21666 0
M  V30 32458 H 2936.11 -1.15609 5.39758 0
M  V30 32459 H 2936.59 -1.98516 3.91776 0
M  V30 32460 H 2937.19 -0.344114 4.23906 0
M  V30 32461 N 2935.51 -1.56408 0.193449 0
M  V30 32462 C 2936.42 -2.22621 -0.740073 0
M  V30 32463 C 2937.43 -1.22476 -1.23594 0
M  V30 32464 O 2938.61 -1.55208 -1.28345 0
M  V30 32465 C 2935.67 -2.8713 -1.94312 0
M  V30 32466 C 2934.73 -4.0254 -1.49198 0
M  V30 32467 C 2933.97 -4.63964 -2.63768 0
M  V30 32468 O 2934.19 -4.24308 -3.81208 0
M  V30 32469 O 2933.12 -5.53458 -2.36575 0
M  V30 32470 H 2936.95 -3.02999 -0.206184 0
M  V30 32471 H 2934.54 -1.49357 -0.0357676 0
M  V30 32472 H 2936.42 -3.27949 -2.64627 0
M  V30 32473 H 2935.09 -2.09732 -2.46564 0
M  V30 32474 H 2934 -3.66347 -0.757673 0
M  V30 32475 H 2935.33 -4.81597 -1.01614 0
M  V30 32476 N 2936.98 0.0801629 -1.57396 0
M  V30 32477 C 2938.26 0.81342 -1.77884 0
M  V30 32478 C 2938.64 1.96204 -0.778913 0
M  V30 32479 O 2937.99 2.27712 0.189643 0
M  V30 32480 C 2938.2 1.29415 -3.24119 0
M  V30 32481 C 2939.55 1.73091 -3.87717 0
M  V30 32482 O 2940.57 1.39002 -3.27959 0
M  V30 32483 O 2939.43 2.36176 -4.92832 0
M  V30 32484 H 2936.52 0.389125 -0.729733 0
M  V30 32485 H 2939.07 0.0608868 -1.69591 0
M  V30 32486 H 2937.84 0.471879 -3.88444 0
M  V30 32487 H 2937.47 2.10824 -3.37104 0
M  V30 32488 N 2938.46 1.53634 0.351355 0
M  V30 32489 C 2939.4 1.75878 1.45404 0
M  V30 32490 C 2940.37 0.607593 1.50821 0
M  V30 32491 O 2941.56 0.841848 1.68657 0
M  V30 32492 C 2938.68 1.85039 2.83687 0
M  V30 32493 C 2937.73 3.07128 2.9593 0
M  V30 32494 S 2938.56 4.6635 2.63207 0
M  V30 32495 C 2939.72 4.7838 4.03613 0
M  V30 32496 H 2939.95 2.69131 1.26317 0
M  V30 32497 H 2937.49 1.44403 0.546556 0
M  V30 32498 H 2939.44 1.91003 3.63357 0
M  V30 32499 H 2938.1 0.928127 3.00074 0
M  V30 32500 H 2937.3 3.1019 3.97238 0
M  V30 32501 H 2936.9 2.9935 2.24199 0
M  V30 32502 H 2939.19 4.59309 4.98038 0
M  V30 32503 H 2940.13 5.80462 4.05549 0
M  V30 32504 H 2940.54 4.06896 3.91275 0
M  V30 32505 N 2939.94 -0.611943 1.45234 0
M  V30 32506 C 2941.35 -1.19384 1.43542 0
M  V30 32507 C 2941.7 -1.9554 0.160747 0
M  V30 32508 O 2940.83 -2.0343 -0.737919 0
M  V30 32509 C 2941.42 -2.17164 2.60049 0
M  V30 32510 C 2939.98 -2.70739 2.6149 0
M  V30 32511 C 2939.13 -1.46068 2.3571 0
M  V30 32512 H 2942.08 -0.401502 1.53537 0
M  V30 32513 H 2942.1 -3.0012 2.33898 0
M  V30 32514 H 2941.61 -1.61708 3.52806 0
M  V30 32515 H 2939.71 -3.30146 1.72727 0
M  V30 32516 H 2939.83 -3.15469 3.60577 0
M  V30 32517 H 2938.19 -1.74872 1.85181 0
M  V30 32518 H 2938.97 -0.924864 3.30607 0
M  V30 32519 N 2941.42 -1.32452 -0.854063 0
M  V30 32520 C 2942.35 -1.24048 -1.97824 0
M  V30 32521 C 2943.33 -0.124196 -1.69646 0
M  V30 32522 O 2944.51 -0.311464 -1.91686 0
M  V30 32523 C 2941.64 -0.963383 -3.33671 0
M  V30 32524 C 2940.6 -2.04096 -3.76203 0
M  V30 32525 C 2939.92 -1.61627 -5.09687 0
M  V30 32526 C 2941.22 -3.45604 -3.91606 0
M  V30 32527 H 2942.92 -2.18102 -2.05114 0
M  V30 32528 H 2940.46 -1.04998 -0.98547 0
M  V30 32529 H 2942.42 -0.891134 -4.1187 0
M  V30 32530 H 2941.14 0.0128074 -3.26597 0
M  V30 32531 H 2939.8 -2.10337 -3.00256 0
M  V30 32532 H 2939.45 -0.627506 -4.9907 0
M  V30 32533 H 2939.15 -2.33726 -5.39116 0
M  V30 32534 H 2940.67 -1.55839 -5.90378 0
M  V30 32535 H 2942.09 -3.41948 -4.60157 0
M  V30 32536 H 2940.48 -4.16058 -4.32453 0
M  V30 32537 H 2941.55 -3.85222 -2.94503 0
M  V30 32538 N 2942.9 1.07041 -1.15672 0
M  V30 32539 C 2943.81 2.17853 -0.870473 0
M  V30 32540 C 2944.82 1.73313 0.154422 0
M  V30 32541 O 2946 2.0139 -0.0204113 0
M  V30 32542 C 2943.06 3.44749 -0.367279 0
M  V30 32543 C 2942.13 4.03839 -1.45646 0
M  V30 32544 C 2941.36 5.24678 -0.977184 0
M  V30 32545 O 2941.58 5.70128 0.176027 0
M  V30 32546 O 2940.52 5.75524 -1.76225 0
M  V30 32547 H 2944.34 2.44836 -1.79692 0
M  V30 32548 H 2941.93 1.16438 -0.936085 0
M  V30 32549 H 2943.81 4.21297 -0.0932687 0
M  V30 32550 H 2942.48 3.19311 0.531254 0
M  V30 32551 H 2941.39 3.28816 -1.78412 0
M  V30 32552 H 2942.72 4.33556 -2.33002 0
M  V30 32553 N 2944.38 0.954014 1.25445 0
M  V30 32554 C 2945.62 0.604135 1.9244 0
M  V30 32555 C 2945.94 -0.862765 1.75544 0
M  V30 32556 O 2947.14 -1.32258 2.37108 0
M  V30 32557 C 2945.6 1.0298 3.44852 0
M  V30 32558 C 2945.21 2.5192 3.70459 0
M  V30 32559 C 2946.95 0.752425 4.17778 0
M  V30 32560 C 2944.86 2.8829 5.16374 0
M  V30 32561 H 2943.79 0.22224 0.720504 0
M  V30 32562 H 2946.44 1.15838 1.42316 0
M  V30 32563 H 2944.82 0.403973 3.93934 0
M  V30 32564 H 2946 3.19517 3.32033 0
M  V30 32565 H 2944.31 2.77123 3.10792 0
M  V30 32566 H 2946.91 1.00033 5.25259 0
M  V30 32567 H 2947.25 -0.311139 4.15136 0
M  V30 32568 H 2947.78 1.33857 3.74603 0
M  V30 32569 H 2944.52 3.93662 5.24128 0
M  V30 32570 H 2944.04 2.25367 5.55851 0
M  V30 32571 H 2945.72 2.77449 5.84492 0
M  V30 32572 N 2945.85 -1.40063 0.722513 0
M  V30 32573 C 2947.08 -2.05589 0.273483 0
M  V30 32574 C 2947.5 -1.54095 -1.07872 0
M  V30 32575 O 2946.86 -0.679282 -1.68094 0
M  V30 32576 C 2946.91 -3.5958 0.271087 0
M  V30 32577 O 2946.01 -4.05607 -0.745427 0
M  V30 32578 H 2945.35 -0.651767 0.126867 0
M  V30 32579 H 2947.88 -1.79332 0.984938 0
M  V30 32580 H 2947.89 -4.07849 0.111156 0
M  V30 32581 H 2946.57 -3.96423 1.25783 0
M  V30 32582 H 2945.15 -3.68782 -0.552655 0
M  V30 32583 N 2947.33 -0.469207 -1.50453 0
M  V30 32584 C 2948.56 0.084055 -2.06429 0
M  V30 32585 C 2948.97 1.34225 -1.33343 0
M  V30 32586 O 2948.31 1.79388 -0.395688 0
M  V30 32587 C 2948.37 0.439987 -3.56797 0
M  V30 32588 C 2948.04 -0.715918 -4.51358 0
M  V30 32589 C 2949.04 -1.5974 -4.94752 0
M  V30 32590 C 2946.72 -0.905708 -4.94067 0
M  V30 32591 C 2948.71 -2.6531 -5.7956 0
M  V30 32592 C 2946.4 -1.96463 -5.78658 0
M  V30 32593 C 2947.4 -2.83669 -6.21306 0
M  V30 32594 O 2947.09 -3.87739 -7.04211 0
M  V30 32595 H 2946.82 -0.00290939 -0.675994 0
M  V30 32596 H 2949.37 -0.656452 -1.94628 0
M  V30 32597 H 2947.6 1.23365 -3.66494 0
M  V30 32598 H 2949.29 0.928112 -3.95147 0
M  V30 32599 H 2950.06 -1.46245 -4.62425 0
M  V30 32600 H 2945.94 -0.236407 -4.60393 0
M  V30 32601 H 2949.48 -3.33408 -6.12768 0
M  V30 32602 H 2945.38 -2.09966 -6.10397 0
M  V30 32603 H 2946.15 -3.84704 -7.22457 0
M  V30 32604 N 2948.81 1.56303 -0.201741 0
M  V30 32605 C 2950.06 1.9806 0.435917 0
M  V30 32606 C 2950.39 1.08876 1.60809 0
M  V30 32607 O 2949.66 0.142163 1.9398 0
M  V30 32608 C 2949.95 3.48937 0.889645 0
M  V30 32609 C 2949.8 4.48897 -0.284803 0
M  V30 32610 C 2951.12 4.03688 1.75283 0
M  V30 32611 H 2948.24 0.720088 0.156978 0
M  V30 32612 H 2950.88 1.87712 -0.293998 0
M  V30 32613 H 2949.03 3.57887 1.5116 0
M  V30 32614 H 2950.7 4.5198 -0.92261 0
M  V30 32615 H 2948.94 4.23593 -0.935501 0
M  V30 32616 H 2949.62 5.51949 0.0752895 0
M  V30 32617 H 2952.09 3.9756 1.22823 0
M  V30 32618 H 2950.97 5.09614 2.03924 0
M  V30 32619 H 2951.23 3.49353 2.70933 0
M  V30 32620 N 2950.29 -0.0718147 1.57436 0
M  V30 32621 C 2951.7 -0.623647 1.75976 0
M  V30 32622 C 2952.05 -1.7791 0.827186 0
M  V30 32623 O 2951.17 -2.16397 0.0112805 0
M  V30 32624 C 2951.77 -1.1381 3.19112 0
M  V30 32625 C 2950.33 -1.6358 3.38996 0
M  V30 32626 C 2949.48 -0.555213 2.71685 0
M  V30 32627 H 2952.43 0.154356 1.57948 0
M  V30 32628 H 2952.45 -2.00691 3.2327 0
M  V30 32629 H 2951.96 -0.29693 3.86962 0
M  V30 32630 H 2950.06 -2.50022 2.7626 0
M  V30 32631 H 2950.17 -1.71276 4.47439 0
M  V30 32632 H 2948.54 -1.00025 2.34237 0
M  V30 32633 H 2949.32 0.275772 3.42191 0
M  V30 32634 N 2951.77 -1.53818 -0.343203 0
M  V30 32635 C 2952.99 -1.75331 -1.10787 0
M  V30 32636 C 2953.42 -0.491324 -1.8157 0
M  V30 32637 O 2952.77 0.556059 -1.72562 0
M  V30 32638 C 2952.82 -2.93374 -2.09676 0
M  V30 32639 O 2951.93 -2.63546 -3.17202 0
M  V30 32640 H 2951.27 -0.581588 -0.320392 0
M  V30 32641 H 2953.8 -2.00781 -0.39349 0
M  V30 32642 H 2953.81 -3.20172 -2.52891 0
M  V30 32643 H 2952.48 -3.84902 -1.57554 0
M  V30 32644 H 2951.06 -2.47637 -2.78801 0
M  V30 32645 N 2953.24 0.604233 -1.45557 0
M  V30 32646 C 2954.47 1.3897 -1.53281 0
M  V30 32647 C 2954.89 1.88064 -0.166542 0
M  V30 32648 O 2954.24 1.62406 0.832491 0
M  V30 32649 C 2954.29 2.59191 -2.51997 0
M  V30 32650 O 2954.02 2.12137 -3.83314 0
M  V30 32651 C 2955.52 3.5201 -2.69451 0
M  V30 32652 H 2952.74 0.425287 -0.51901 0
M  V30 32653 H 2955.28 0.736587 -1.90774 0
M  V30 32654 H 2953.44 3.20537 -2.17566 0
M  V30 32655 H 2953.85 2.90271 -4.36856 0
M  V30 32656 H 2955.32 4.32901 -3.42492 0
M  V30 32657 H 2955.8 4.02567 -1.75603 0
M  V30 32658 H 2956.41 2.96515 -3.04892 0
M  V30 32659 N 2954.72 1.32903 0.847027 0
M  V30 32660 C 2955.95 1.26732 1.63164 0
M  V30 32661 C 2956.36 -0.165562 1.88474 0
M  V30 32662 O 2955.7 -1.11555 1.45949 0
M  V30 32663 C 2955.76 1.96528 3.01027 0
M  V30 32664 C 2955.43 3.45851 2.98724 0
M  V30 32665 C 2956.43 4.412 2.75024 0
M  V30 32666 C 2954.11 3.87903 3.19118 0
M  V30 32667 C 2956.1 5.76576 2.71733 0
M  V30 32668 C 2953.79 5.23386 3.15453 0
M  V30 32669 C 2954.79 6.17533 2.9179 0
M  V30 32670 O 2954.48 7.50535 2.88013 0
M  V30 32671 H 2954.21 0.438267 0.514682 0
M  V30 32672 H 2956.76 1.75705 1.0638 0
M  V30 32673 H 2954.99 1.42135 3.59631 0
M  V30 32674 H 2956.68 1.83965 3.61817 0
M  V30 32675 H 2957.45 4.10037 2.59027 0
M  V30 32676 H 2953.33 3.15038 3.36559 0
M  V30 32677 H 2956.87 6.50034 2.53183 0
M  V30 32678 H 2952.77 5.54176 3.30997 0
M  V30 32679 H 2953.54 7.59986 3.03913 0
M  V30 32680 N 2956.2 -1.06426 1.16238 0
M  V30 32681 C 2957.13 -2.15838 0.890845 0
M  V30 32682 C 2958.11 -1.69324 -0.162303 0
M  V30 32683 O 2959.3 -1.94194 -0.014685 0
M  V30 32684 C 2956.43 -3.45107 0.389675 0
M  V30 32685 C 2955.38 -4.05122 1.38058 0
M  V30 32686 C 2954.71 -5.29584 0.737867 0
M  V30 32687 C 2956.01 -4.44058 2.74973 0
M  V30 32688 H 2957.7 -2.38811 1.80582 0
M  V30 32689 H 2955.25 -1.14772 0.869677 0
M  V30 32690 H 2957.2 -4.20984 0.187201 0
M  V30 32691 H 2955.92 -3.21749 -0.560794 0
M  V30 32692 H 2954.58 -3.313 1.56958 0
M  V30 32693 H 2954.23 -5.02523 -0.219047 0
M  V30 32694 H 2953.93 -5.70697 1.39924 0
M  V30 32695 H 2955.45 -6.08159 0.545381 0
M  V30 32696 H 2956.87 -5.11022 2.59864 0
M  V30 32697 H 2955.26 -4.9615 3.37572 0
M  V30 32698 H 2956.33 -3.54982 3.30327 0
M  V30 32699 N 2957.68 -0.960653 -1.24937 0
M  V30 32700 C 2958.91 -0.636079 -1.9688 0
M  V30 32701 C 2959.32 0.793063 -1.71336 0
M  V30 32702 O 2958.68 1.53124 -0.992944 0
M  V30 32703 C 2958.73 -0.892595 -3.50307 0
M  V30 32704 O 2958.45 -2.26555 -3.74973 0
M  V30 32705 C 2959.95 -0.581237 -4.39473 0
M  V30 32706 H 2957.17 -0.237942 -0.627395 0
M  V30 32707 H 2959.72 -1.28667 -1.5895 0
M  V30 32708 H 2957.87 -0.288325 -3.86326 0
M  V30 32709 H 2958.28 -2.34022 -4.69397 0
M  V30 32710 H 2959.76 -0.811221 -5.46007 0
M  V30 32711 H 2960.24 0.484353 -4.36521 0
M  V30 32712 H 2960.84 -1.1651 -4.0903 0
M  V30 32713 N 2959.16 1.39677 -0.729931 0
M  V30 32714 C 2960.07 2.34435 -0.0880735 0
M  V30 32715 C 2961.08 1.58055 0.727647 0
M  V30 32716 O 2962.26 1.90373 0.657287 0
M  V30 32717 C 2959.32 3.37053 0.812152 0
M  V30 32718 C 2958.38 4.29297 -0.0152435 0
M  V30 32719 C 2957.62 5.27014 0.842109 0
M  V30 32720 O 2957.84 5.31085 2.08098 0
M  V30 32721 O 2956.77 6.01278 0.273465 0
M  V30 32722 H 2960.6 2.90971 -0.87004 0
M  V30 32723 H 2958.19 1.41117 -0.490547 0
M  V30 32724 H 2960.07 3.99948 1.32738 0
M  V30 32725 H 2958.74 2.8291 1.57302 0
M  V30 32726 H 2957.65 3.69641 -0.575876 0
M  V30 32727 H 2958.98 4.86633 -0.738215 0
M  V30 32728 N 2960.63 0.47718 1.50202 0
M  V30 32729 C 2961.88 -0.0774194 2.01551 0
M  V30 32730 C 2962.2 -1.40232 1.36361 0
M  V30 32731 O 2963.4 -2.04222 1.78901 0
M  V30 32732 C 2961.86 -0.188476 3.59406 0
M  V30 32733 C 2961.47 1.12836 4.33558 0
M  V30 32734 C 2963.21 -0.694709 4.18777 0
M  V30 32735 C 2961.12 0.980762 5.83211 0
M  V30 32736 H 2960.05 -0.032708 0.75329 0
M  V30 32737 H 2962.7 0.612999 1.72958 0
M  V30 32738 H 2961.08 -0.942814 3.84613 0
M  V30 32739 H 2962.25 1.89412 4.20071 0
M  V30 32740 H 2960.57 1.56617 3.85824 0
M  V30 32741 H 2963.17 -0.822263 5.2834 0
M  V30 32742 H 2963.51 -1.68759 3.8056 0
M  V30 32743 H 2964.04 0.00241512 3.978 0
M  V30 32744 H 2960.78 1.9472 6.25911 0
M  V30 32745 H 2960.3 0.25548 5.99256 0
M  V30 32746 H 2961.98 0.649831 6.43728 0
M  V30 32747 N 2962.11 -1.56194 0.210027 0
M  V30 32748 C 2963.34 -2.02383 -0.429961 0
M  V30 32749 C 2963.76 -1.09001 -1.54157 0
M  V30 32750 O 2963.11 -0.0975176 -1.82239 0
M  V30 32751 C 2963.16 -3.48177 -0.972372 0
M  V30 32752 O 2962.88 -4.37997 0.0949001 0
M  V30 32753 C 2964.39 -4.09955 -1.68676 0
M  V30 32754 H 2961.61 -0.6625 -0.106463 0
M  V30 32755 H 2964.15 -2.01931 0.323107 0
M  V30 32756 H 2962.3 -3.49281 -1.67576 0
M  V30 32757 H 2962.72 -5.23577 -0.311038 0
M  V30 32758 H 2964.19 -5.13774 -2.01842 0
M  V30 32759 H 2964.67 -3.5428 -2.59581 0
M  V30 32760 H 2965.28 -4.12668 -1.02885 0
M  V30 32761 N 2963.59 0.0634645 -1.57472 0
M  V30 32762 C 2964.54 1.08163 -2.00711 0
M  V30 32763 C 2965.52 1.34009 -0.890522 0
M  V30 32764 O 2966.72 1.3417 -1.15444 0
M  V30 32765 C 2963.85 2.39299 -2.46153 0
M  V30 32766 C 2962.93 2.1669 -3.64563 0
M  V30 32767 N 2963.32 1.64035 -4.78462 0
M  V30 32768 C 2961.62 2.47128 -3.71273 0
M  V30 32769 C 2962.32 1.56436 -5.6027 0
M  V30 32770 N 2961.3 2.02783 -5.04361 0
M  V30 32771 H 2965.1 0.667966 -2.86209 0
M  V30 32772 H 2962.61 0.270398 -1.60133 0
M  V30 32773 H 2964.61 3.13011 -2.75372 0
M  V30 32774 H 2963.27 2.81374 -1.62045 0
M  V30 32775 H 2964.28 1.32782 -5.00589 0
M  V30 32776 H 2960.96 2.92513 -2.97897 0
M  V30 32777 H 2962.35 1.16507 -6.61722 0
M  V30 32778 N 2965.07 1.53998 0.33504 0
M  V30 32779 C 2966.31 1.71907 1.07591 0
M  V30 32780 C 2966.65 0.485297 1.88039 0
M  V30 32781 O 2965.92 -0.51772 1.87483 0
M  V30 32782 C 2966.21 2.98775 2.01011 0
M  V30 32783 C 2966.06 4.32379 1.23969 0
M  V30 32784 C 2967.38 3.21348 3.00705 0
M  V30 32785 H 2964.5 0.625511 0.389749 0
M  V30 32786 H 2967.14 1.8668 0.353651 0
M  V30 32787 H 2965.29 2.86312 2.62598 0
M  V30 32788 H 2966.96 4.56708 0.649303 0
M  V30 32789 H 2965.2 4.30403 0.541803 0
M  V30 32790 H 2965.87 5.17346 1.92503 0
M  V30 32791 H 2968.35 3.33199 2.49235 0
M  V30 32792 H 2967.23 4.11497 3.63265 0
M  V30 32793 H 2967.49 2.3804 3.72545 0
M  V30 32794 N 2966.55 -0.596505 1.45875 0
M  V30 32795 C 2967.77 -1.38643 1.54249 0
M  V30 32796 C 2968.2 -1.87241 0.179604 0
M  V30 32797 O 2967.55 -1.60781 -0.837803 0
M  V30 32798 C 2967.6 -2.55942 2.5402 0
M  V30 32799 O 2966.71 -3.56936 2.06568 0
M  V30 32800 H 2966.05 -0.413462 0.519563 0
M  V30 32801 H 2968.58 -0.724902 1.91328 0
M  V30 32802 H 2968.59 -3.03042 2.73184 0
M  V30 32803 H 2967.26 -2.19921 3.52998 0
M  V30 32804 H 2965.84 -3.1641 1.9733 0
M  V30 32805 N 2968.02 -1.3335 -0.839967 0
M  V30 32806 C 2968.96 -1.19347 -1.95675 0
M  V30 32807 C 2969.97 -0.124721 -1.62322 0
M  V30 32808 O 2971.16 -0.375042 -1.74516 0
M  V30 32809 C 2968.26 -0.807829 -3.29131 0
M  V30 32810 C 2967.43 -1.96799 -3.90626 0
M  V30 32811 C 2966.49 -1.5635 -5.02435 0
M  V30 32812 O 2965.52 -2.27768 -5.21642 0
M  V30 32813 N 2966.72 -0.467869 -5.78611 0
M  V30 32814 H 2969.48 -2.15551 -2.08225 0
M  V30 32815 H 2967.04 -1.26081 -1.01564 0
M  V30 32816 H 2969.04 -0.519352 -4.01354 0
M  V30 32817 H 2967.61 0.0635001 -3.12535 0
M  V30 32818 H 2966.83 -2.42215 -3.11007 0
M  V30 32819 H 2968.11 -2.7443 -4.28446 0
M  V30 32820 H 2967.51 0.126225 -5.65559 0
M  V30 32821 H 2966.07 -0.23906 -6.51361 0
M  V30 32822 N 2969.5 1.05808 -1.16801 0
M  V30 32823 C 2970.47 2.11574 -0.881433 0
M  V30 32824 C 2971.47 1.60308 0.125711 0
M  V30 32825 O 2972.66 1.73879 -0.105746 0
M  V30 32826 C 2969.79 3.39403 -0.319097 0
M  V30 32827 H 2970.98 2.38429 -1.81911 0
M  V30 32828 H 2968.53 1.21952 -0.977619 0
M  V30 32829 H 2969.27 3.182 0.626026 0
M  V30 32830 H 2969.05 3.77922 -1.04488 0
M  V30 32831 H 2970.54 4.17376 -0.136704 0
M  V30 32832 N 2970.98 0.967265 1.24426 0
M  V30 32833 C 2971.91 0.515939 2.27729 0
M  V30 32834 C 2972.89 -0.444198 1.64198 0
M  V30 32835 O 2974.08 -0.340417 1.91193 0
M  V30 32836 C 2971.21 -0.195088 3.46752 0
M  V30 32837 C 2970.16 0.681027 4.22547 0
M  V30 32838 C 2969.49 -0.161467 5.34456 0
M  V30 32839 C 2970.79 1.96541 4.8391 0
M  V30 32840 H 2972.48 1.37937 2.65732 0
M  V30 32841 H 2970.03 0.664704 1.27741 0
M  V30 32842 H 2971.98 -0.522044 4.18154 0
M  V30 32843 H 2970.7 -1.09287 3.07773 0
M  V30 32844 H 2969.36 0.991248 3.52945 0
M  V30 32845 H 2969.01 -1.05938 4.91717 0
M  V30 32846 H 2968.71 0.421521 5.86086 0
M  V30 32847 H 2970.23 -0.483104 6.08686 0
M  V30 32848 H 2971.65 1.70406 5.47389 0
M  V30 32849 H 2970.05 2.49508 5.45771 0
M  V30 32850 H 2971.12 2.6606 4.05389 0
M  V30 32851 N 2972.46 -1.39288 0.737328 0
M  V30 32852 C 2973.39 -2.33221 0.114029 0
M  V30 32853 C 2974.37 -1.54032 -0.721668 0
M  V30 32854 O 2975.56 -1.82416 -0.666174 0
M  V30 32855 C 2972.69 -3.38143 -0.792259 0
M  V30 32856 C 2971.64 -4.27957 -0.0605426 0
M  V30 32857 C 2970.97 -5.23597 -1.084 0
M  V30 32858 C 2972.27 -5.10623 1.09826 0
M  V30 32859 H 2973.96 -2.85595 0.898661 0
M  V30 32860 H 2971.51 -1.37317 0.433595 0
M  V30 32861 H 2973.46 -4.02809 -1.23786 0
M  V30 32862 H 2972.18 -2.84214 -1.60903 0
M  V30 32863 H 2970.84 -3.64774 0.365457 0
M  V30 32864 H 2970.49 -4.65963 -1.8944 0
M  V30 32865 H 2970.19 -5.84537 -0.599166 0
M  V30 32866 H 2971.71 -5.9114 -1.52925 0
M  V30 32867 H 2973.13 -5.68621 0.730992 0
M  V30 32868 H 2971.52 -5.80717 1.51288 0
M  V30 32869 H 2972.59 -4.45318 1.91886 0
M  V30 32870 N 2973.94 -0.485139 -1.49947 0
M  V30 32871 C 2974.85 0.306656 -2.32587 0
M  V30 32872 C 2975.86 0.982607 -1.436 0
M  V30 32873 O 2977.04 0.967488 -1.7664 0
M  V30 32874 C 2974.1 1.36635 -3.18641 0
M  V30 32875 C 2973.17 0.705515 -4.23463 0
M  V30 32876 C 2972.4 1.71472 -5.05404 0
M  V30 32877 O 2972.62 2.94285 -4.88623 0
M  V30 32878 O 2971.56 1.27878 -5.88159 0
M  V30 32879 H 2975.38 -0.369325 -3.01446 0
M  V30 32880 H 2972.97 -0.246735 -1.47349 0
M  V30 32881 H 2974.85 1.97983 -3.71995 0
M  V30 32882 H 2973.52 2.02555 -2.52494 0
M  V30 32883 H 2972.43 0.0527075 -3.74063 0
M  V30 32884 H 2973.76 0.0890322 -4.92119 0
M  V30 32885 N 2975.42 1.56081 -0.218307 0
M  V30 32886 C 2976.66 1.98511 0.414886 0
M  V30 32887 C 2976.99 1.10575 1.59646 0
M  V30 32888 O 2976.27 0.162729 1.93818 0
M  V30 32889 C 2976.55 3.49861 0.852585 0
M  V30 32890 C 2976.41 4.4857 -0.332399 0
M  V30 32891 C 2977.72 4.05524 1.70991 0
M  V30 32892 H 2974.84 0.721713 0.149331 0
M  V30 32893 H 2977.49 1.87389 -0.313891 0
M  V30 32894 H 2975.64 3.5947 1.47356 0
M  V30 32895 H 2977.31 4.50976 -0.970497 0
M  V30 32896 H 2975.55 4.22577 -0.980376 0
M  V30 32897 H 2976.22 5.51997 0.0167437 0
M  V30 32898 H 2978.7 3.9884 1.18599 0
M  V30 32899 H 2977.57 5.11748 1.98508 0
M  V30 32900 H 2977.83 3.52207 2.67213 0
M  V30 32901 N 2976.89 -0.0551124 1.57504 0
M  V30 32902 C 2977.8 -1.0812 2.082 0
M  V30 32903 C 2978.82 -1.41329 1.01499 0
M  V30 32904 O 2980 -1.51172 1.33075 0
M  V30 32905 C 2977.06 -2.37078 2.52972 0
M  V30 32906 C 2976.12 -2.10689 3.74044 0
M  V30 32907 C 2975.35 -3.33498 4.16671 0
M  V30 32908 O 2975.58 -4.43233 3.59027 0
M  V30 32909 O 2974.51 -3.20729 5.0933 0
M  V30 32910 H 2978.34 -0.680466 2.95979 0
M  V30 32911 H 2975.92 -0.270376 1.46933 0
M  V30 32912 H 2977.8 -3.12941 2.82216 0
M  V30 32913 H 2976.48 -2.76499 1.68315 0
M  V30 32914 H 2975.39 -1.32478 3.49858 0
M  V30 32915 H 2976.72 -1.7614 4.59604 0
M  V30 32916 N 2978.37 -1.54173 -0.326869 0
M  V30 32917 C 2979.3 -1.79663 -1.42316 0
M  V30 32918 C 2980.32 -0.678482 -1.47988 0
M  V30 32919 O 2981.51 -0.95553 -1.50771 0
M  V30 32920 C 2978.61 -1.89641 -2.80873 0
M  V30 32921 C 2977.78 -3.19766 -2.98443 0
M  V30 32922 C 2976.84 -3.20488 -4.17342 0
M  V30 32923 O 2975.86 -3.94141 -4.1066 0
M  V30 32924 N 2977.07 -2.44037 -5.26713 0
M  V30 32925 H 2979.83 -2.7427 -1.20814 0
M  V30 32926 H 2977.39 -1.53429 -0.516839 0
M  V30 32927 H 2979.38 -1.87555 -3.58616 0
M  V30 32928 H 2977.95 -1.02146 -2.9544 0
M  V30 32929 H 2977.17 -3.34839 -2.08029 0
M  V30 32930 H 2978.46 -4.05687 -3.07076 0
M  V30 32931 H 2977.86 -1.8378 -5.35015 0
M  V30 32932 H 2976.42 -2.47732 -6.02887 0
M  V30 32933 N 2979.85 0.58876 -1.4619 0
M  V30 32934 C 2980.78 1.7086 -1.59151 0
M  V30 32935 C 2981.76 1.64254 -0.442112 0
M  V30 32936 O 2982.95 1.82364 -0.667608 0
M  V30 32937 C 2980.08 3.09495 -1.57576 0
M  V30 32938 C 2979.03 3.30928 -2.71424 0
M  V30 32939 C 2978.36 4.70028 -2.54908 0
M  V30 32940 C 2979.66 3.19349 -4.13296 0
M  V30 32941 H 2981.35 1.60269 -2.52892 0
M  V30 32942 H 2978.9 0.769617 -1.21708 0
M  V30 32943 H 2980.85 3.87652 -1.65238 0
M  V30 32944 H 2979.57 3.20971 -0.603761 0
M  V30 32945 H 2978.23 2.55167 -2.63221 0
M  V30 32946 H 2977.88 4.78261 -1.55805 0
M  V30 32947 H 2977.58 4.85321 -3.31266 0
M  V30 32948 H 2979.1 5.50361 -2.64452 0
M  V30 32949 H 2980.52 3.87358 -4.22643 0
M  V30 32950 H 2978.91 3.46166 -4.90193 0
M  V30 32951 H 2979.98 2.16514 -4.33877 0
M  V30 32952 N 2981.33 1.33794 0.832883 0
M  V30 32953 C 2982.26 1.27179 1.95826 0
M  V30 32954 C 2983.24 0.151169 1.69427 0
M  V30 32955 O 2984.42 0.34192 1.91166 0
M  V30 32956 C 2981.55 1.01634 3.32096 0
M  V30 32957 C 2980.51 2.10055 3.72909 0
M  V30 32958 C 2979.83 1.69715 5.07051 0
M  V30 32959 C 2981.13 3.5179 3.86058 0
M  V30 32960 H 2982.83 2.21338 2.01618 0
M  V30 32961 H 2980.37 1.06552 0.968641 0
M  V30 32962 H 2982.33 0.956546 4.104 0
M  V30 32963 H 2981.05 0.039153 3.26577 0
M  V30 32964 H 2979.71 2.15087 2.96872 0
M  V30 32965 H 2979.36 0.706824 4.98009 0
M  V30 32966 H 2979.06 2.42273 5.35329 0
M  V30 32967 H 2980.58 1.65212 5.87824 0
M  V30 32968 H 2982 3.49226 4.54658 0
M  V30 32969 H 2980.39 4.22885 4.25779 0
M  V30 32970 H 2981.46 3.89859 2.88337 0
M  V30 32971 N 2982.81 -1.05187 1.1736 0
M  V30 32972 C 2983.75 -2.15041 0.886565 0
M  V30 32973 C 2984.75 -1.68745 -0.148804 0
M  V30 32974 O 2985.95 -1.8 -0.00171959 0
M  V30 32975 H 2982.33 -0.70218 0.26916 0
M  V30 32976 H 2984.3 -2.36455 1.8202 0
M  V30 32977 C 2983.05 -3.45198 0.416394 0
M  V30 32978 H 2982.37 -3.81222 1.20456 0
M  V30 32979 H 2983.81 -4.23236 0.254436 0
M  V30 32980 C 2982.27 -3.25581 -0.865959 0
M  V30 32981 O 2982.8 -3.52148 -1.93274 0
M  V30 32982 N 2981.01 -2.78963 -0.81413 0
M  V30 32983 H 2980.55 -2.57543 0.0542071 0
M  V30 32984 H 2980.51 -2.66217 -1.67259 0
M  V30 32985 N 2984.28 -0.97385 -1.23911 0
M  V30 32986 C 2985.25 -0.513819 -2.23366 0
M  V30 32987 C 2986.25 0.392992 -1.55924 0
M  V30 32988 O 2987.44 0.187596 -1.73187 0
M  V30 32989 C 2984.57 0.255092 -3.39944 0
M  V30 32990 H 2985.76 -1.39312 -2.65579 0
M  V30 32991 H 2983.31 -0.759063 -1.36631 0
M  V30 32992 H 2984.05 1.15122 -3.03179 0
M  V30 32993 H 2983.83 -0.395742 -3.90098 0
M  V30 32994 H 2985.32 0.565769 -4.1375 0
M  V30 32995 N 2985.76 1.38895 -0.744705 0
M  V30 32996 C 2987.17 1.83083 -0.365713 0
M  V30 32997 C 2987.52 1.62169 1.10433 0
M  V30 32998 O 2986.65 1.11807 1.85279 0
M  V30 32999 C 2987.24 3.32369 -0.657004 0
M  V30 33000 C 2985.8 3.74938 -0.331395 0
M  V30 33001 C 2984.95 2.61779 -0.914707 0
M  V30 33002 H 2987.9 1.2775 -0.941574 0
M  V30 33003 H 2987.92 3.80439 0.0678878 0
M  V30 33004 H 2987.43 3.47558 -1.72699 0
M  V30 33005 H 2985.53 3.65332 0.732362 0
M  V30 33006 H 2985.65 4.72018 -0.820738 0
M  V30 33007 H 2984.01 2.52411 -0.340675 0
M  V30 33008 H 2984.79 2.79772 -1.98954 0
M  V30 33009 N 2987.24 0.493084 1.49688 0
M  V30 33010 C 2988.52 -0.116872 1.95251 0
M  V30 33011 C 2988.9 -1.54889 1.43431 0
M  V30 33012 O 2988.25 -2.19218 0.644659 0
M  V30 33013 C 2988.46 -0.0376436 3.4898 0
M  V30 33014 C 2989.8 -0.215546 4.24053 0
M  V30 33015 O 2990.83 -0.113204 3.5602 0
M  V30 33016 O 2989.69 -0.424674 5.44847 0
M  V30 33017 H 2986.78 -0.0996476 0.820975 0
M  V30 33018 H 2989.33 0.555057 1.60366 0
M  V30 33019 H 2988.1 0.961317 3.79308 0
M  V30 33020 H 2987.72 -0.750069 3.90461 0
M  V30 33021 N 2988.72 -1.55963 0.226582 0
M  V30 33022 C 2989.65 -2.23499 -0.67604 0
M  V30 33023 C 2990.63 -1.20839 -1.19716 0
M  V30 33024 O 2991.81 -1.49438 -1.24024 0
M  V30 33025 C 2988.94 -2.91879 -1.88212 0
M  V30 33026 C 2987.9 -4.01055 -1.49463 0
M  V30 33027 C 2987.22 -4.56756 -2.77989 0
M  V30 33028 C 2988.52 -5.17843 -0.68086 0
M  V30 33029 H 2990.22 -2.99187 -0.112937 0
M  V30 33030 H 2987.76 -1.43903 -0.0528793 0
M  V30 33031 H 2989.72 -3.37819 -2.51905 0
M  V30 33032 H 2988.44 -2.13647 -2.47027 0
M  V30 33033 H 2987.1 -3.55853 -0.881136 0
M  V30 33034 H 2986.75 -3.75248 -3.34959 0
M  V30 33035 H 2986.45 -5.30442 -2.52794 0
M  V30 33036 H 2987.97 -5.05417 -3.42616 0
M  V30 33037 H 2989.39 -5.60134 -1.22161 0
M  V30 33038 H 2987.78 -5.97792 -0.525793 0
M  V30 33039 H 2988.85 -4.83899 0.311431 0
M  V30 33040 N 2990.2 0.0467589 -1.57531 0
M  V30 33041 C 2991.44 0.746138 -1.90295 0
M  V30 33042 C 2991.8 1.73456 -0.823224 0
M  V30 33043 O 2993 2.48089 -1.03467 0
M  V30 33044 C 2991.27 1.41372 -3.28251 0
M  V30 33045 S 2992.83 2.1447 -3.82816 0
M  V30 33046 H 2989.65 0.247586 -0.6665 0
M  V30 33047 H 2992.25 0.00131707 -1.955 0
M  V30 33048 H 2990.96 0.680866 -4.04713 0
M  V30 33049 H 2990.49 2.19746 -3.26306 0
M  V30 33050 H 2992.5 3.41365 -3.60117 0
M  V30 33051 N 2991.67 1.54344 0.318688 0
M  V30 33052 C 2992.64 1.83344 1.37541 0
M  V30 33053 C 2993.64 0.705469 1.44498 0
M  V30 33054 O 2994.83 0.973778 1.44441 0
M  V30 33055 C 2991.96 1.99785 2.76222 0
M  V30 33056 H 2993.15 2.77764 1.1308 0
M  V30 33057 H 2990.71 1.46136 0.554431 0
M  V30 33058 H 2991.44 1.07593 3.05932 0
M  V30 33059 H 2991.23 2.8187 2.72565 0
M  V30 33060 H 2992.72 2.23653 3.5266 0
M  V30 33061 N 2993.15 -0.580999 1.465 0
M  V30 33062 C 2994.1 -1.68994 1.57193 0
M  V30 33063 C 2995.07 -1.60803 0.416143 0
M  V30 33064 O 2996.25 -1.7999 0.633118 0
M  V30 33065 C 2993.39 -3.0733 1.56978 0
M  V30 33066 C 2992.51 -3.26134 2.83303 0
M  V30 33067 C 2991.64 -4.54729 2.74582 0
M  V30 33068 C 2990.68 -4.66882 3.95838 0
M  V30 33069 N 2989.82 -5.86805 3.85493 0
M  V30 33070 H 2994.66 -1.59192 2.51917 0
M  V30 33071 H 2992.2 -0.775835 1.24977 0
M  V30 33072 H 2994.15 -3.87402 1.54839 0
M  V30 33073 H 2992.78 -3.16025 0.657858 0
M  V30 33074 H 2991.84 -2.39654 2.95415 0
M  V30 33075 H 2993.15 -3.30981 3.73166 0
M  V30 33076 H 2992.3 -5.43032 2.70558 0
M  V30 33077 H 2991.04 -4.52322 1.82362 0
M  V30 33078 H 2990.05 -3.76996 4.00192 0
M  V30 33079 H 2991.27 -4.71066 4.89156 0
M  V30 33080 H 2989.22 -5.85392 2.96061 0
M  V30 33081 H 2989.13 -5.92928 4.69012 0
M  V30 33082 H 2990.4 -6.77533 3.85446 0
M  V30 33083 N 2994.63 -1.34234 -0.825776 0
M  V30 33084 C 2995.91 -1.17014 -1.56739 0
M  V30 33085 C 2996.29 0.258388 -2.09513 0
M  V30 33086 O 2995.64 1.25931 -1.90666 0
M  V30 33087 C 2995.85 -2.2223 -2.691 0
M  V30 33088 C 2997.19 -2.57061 -3.37942 0
M  V30 33089 O 2998.22 -2.20997 -2.79354 0
M  V30 33090 O 2997.08 -3.18998 -4.43737 0
M  V30 33091 H 2994.17 -0.453418 -0.691622 0
M  V30 33092 H 2996.72 -1.45857 -0.867396 0
M  V30 33093 H 2995.49 -3.18128 -2.27838 0
M  V30 33094 H 2995.11 -1.94547 -3.46752 0
M  V30 33095 N 2996.11 1.04563 -1.17917 0
M  V30 33096 C 2997.36 1.77677 -0.971455 0
M  V30 33097 C 2997.68 1.8798 0.499368 0
M  V30 33098 O 2996.94 1.38069 1.38692 0
M  V30 33099 C 2997.24 3.21298 -1.56533 0
M  V30 33100 C 2996.9 3.31039 -3.06144 0
M  V30 33101 C 2995.57 3.33404 -3.4698 0
M  V30 33102 C 2997.92 3.31541 -4.02156 0
M  V30 33103 C 2995.25 3.33909 -4.82412 0
M  V30 33104 C 2997.6 3.33585 -5.37497 0
M  V30 33105 C 2996.26 3.34241 -5.77788 0
M  V30 33106 H 2995.53 0.650165 -0.355481 0
M  V30 33107 H 2998.18 1.22847 -1.46905 0
M  V30 33108 H 2996.48 3.79096 -0.989617 0
M  V30 33109 H 2998.18 3.76503 -1.3801 0
M  V30 33110 H 2994.77 3.29915 -2.73595 0
M  V30 33111 H 2998.95 3.28909 -3.71662 0
M  V30 33112 H 2994.21 3.32731 -5.12933 0
M  V30 33113 H 2998.38 3.32923 -6.11666 0
M  V30 33114 H 2996.01 3.34385 -6.82708 0
M  V30 33115 N 2997.59 0.980408 1.23393 0
M  V30 33116 C 2998.5 0.528904 2.2856 0
M  V30 33117 C 2999.51 -0.416299 1.68947 0
M  V30 33118 O 3000.69 -0.286216 1.99356 0
M  V30 33119 C 2997.75 -0.161489 3.46324 0
M  V30 33120 C 2996.81 0.825118 4.21296 0
M  V30 33121 C 2996.05 0.167577 5.33437 0
M  V30 33122 O 2996.27 -1.04136 5.60814 0
M  V30 33123 O 2995.2 0.866152 5.95635 0
M  V30 33124 H 2999.03 1.40351 2.69324 0
M  V30 33125 H 2996.62 0.748042 1.29324 0
M  V30 33126 H 2998.5 -0.548767 4.17812 0
M  V30 33127 H 2997.17 -1.01086 3.07511 0
M  V30 33128 H 2996.08 1.2631 3.52132 0
M  V30 33129 H 2997.41 1.6433 4.63957 0
M  V30 33130 N 2999.06 -1.38498 0.75206 0
M  V30 33131 C 3000.34 -1.94206 0.23311 0
M  V30 33132 C 3000.72 -1.68748 -1.26835 0
M  V30 33133 O 3000.07 -1.02517 -2.04212 0
M  V30 33134 C 3000.28 -3.4406 0.585151 0
M  V30 33135 C 3001.63 -4.21101 0.543945 0
M  V30 33136 O 3002.65 -3.52334 0.523353 0
M  V30 33137 O 3001.51 -5.4369 0.553531 0
M  V30 33138 H 2998.6 -0.825587 0.0483194 0
M  V30 33139 H 3001.15 -1.479 0.832079 0
M  V30 33140 H 2999.92 -3.56091 1.62218 0
M  V30 33141 H 2999.55 -3.97578 -0.0419039 0
M  V30 33142 N 3000.54 -0.501015 -1.49424 0
M  V30 33143 C 3001.47 0.266734 -2.31972 0
M  V30 33144 C 3002.45 0.962538 -1.40247 0
M  V30 33145 O 3003.64 0.953938 -1.69156 0
M  V30 33146 C 3000.77 1.33157 -3.20759 0
M  V30 33147 C 2999.72 0.755646 -4.21277 0
M  V30 33148 C 2999.05 1.921 -4.99001 0
M  V30 33149 C 3000.35 -0.253304 -5.21685 0
M  V30 33150 H 3002.04 -0.422289 -2.96407 0
M  V30 33151 H 2999.59 -0.20453 -1.4254 0
M  V30 33152 H 3001.54 1.8764 -3.77319 0
M  V30 33153 H 3000.27 2.04978 -2.54266 0
M  V30 33154 H 2998.92 0.232573 -3.65862 0
M  V30 33155 H 2998.57 2.6269 -4.28956 0
M  V30 33156 H 2998.27 1.54172 -5.67014 0
M  V30 33157 H 2999.8 2.47016 -5.58404 0
M  V30 33158 H 3001.21 0.203382 -5.72939 0
M  V30 33159 H 2999.61 -0.548427 -5.97589 0
M  V30 33160 H 3000.68 -1.16918 -4.70594 0
M  V30 33161 N 3002.02 1.5584 -0.234849 0
M  V30 33162 C 3003.27 1.98645 0.393225 0
M  V30 33163 C 3003.6 1.12277 1.58821 0
M  V30 33164 O 3002.85 0.170765 1.94954 0
M  V30 33165 C 3003.15 3.46949 0.857971 0
M  V30 33166 C 3002.82 4.50323 -0.227938 0
M  V30 33167 C 3001.48 4.78314 -0.526212 0
M  V30 33168 C 3003.83 5.12251 -0.961666 0
M  V30 33169 C 3001.16 5.65511 -1.5625 0
M  V30 33170 C 3003.51 6.00571 -1.98739 0
M  V30 33171 C 3002.17 6.269 -2.29244 0
M  V30 33172 H 3001.44 0.726895 0.143891 0
M  V30 33173 H 3004.09 1.88455 -0.340153 0
M  V30 33174 H 3002.4 3.5441 1.67034 0
M  V30 33175 H 3004.09 3.77449 1.35401 0
M  V30 33176 H 3000.68 4.28597 0.014687 0
M  V30 33177 H 3004.87 4.90684 -0.744474 0
M  V30 33178 H 3000.12 5.8417 -1.80432 0
M  V30 33179 H 3004.3 6.47603 -2.56091 0
M  V30 33180 H 3001.92 6.94262 -3.09683 0
M  V30 33181 N 3003.5 -0.038404 1.57553 0
M  V30 33182 C 3004.45 -1.04191 2.05944 0
M  V30 33183 C 3005.42 -1.36483 0.946661 0
M  V30 33184 O 3006.6 -1.4698 1.21661 0
M  V30 33185 C 3003.74 -2.34062 2.53592 0
M  V30 33186 C 3002.85 -2.0801 3.78624 0
M  V30 33187 C 3001.99 -3.31684 4.1492 0
M  V30 33188 C 3001.03 -3.01145 5.32896 0
M  V30 33189 N 3000.17 -4.17244 5.6467 0
M  V30 33190 H 3005.01 -0.62229 2.9143 0
M  V30 33191 H 3002.54 -0.295659 1.44098 0
M  V30 33192 H 3004.5 -3.09932 2.79281 0
M  V30 33193 H 3003.13 -2.73764 1.71036 0
M  V30 33194 H 3002.18 -1.22679 3.60075 0
M  V30 33195 H 3003.49 -1.81476 4.64616 0
M  V30 33196 H 3002.65 -4.15928 4.41688 0
M  V30 33197 H 3001.39 -3.61324 3.27561 0
M  V30 33198 H 3000.39 -2.15302 5.0589 0
M  V30 33199 H 3001.62 -2.72793 6.21901 0
M  V30 33200 H 2999.56 -4.46853 4.80269 0
M  V30 33201 H 2999.48 -3.94101 6.45152 0
M  V30 33202 H 3000.75 -5.02388 5.96008 0
M  V30 33203 N 3004.98 -1.54511 -0.310498 0
M  V30 33204 C 3005.91 -1.81163 -1.40402 0
M  V30 33205 C 3006.92 -0.69414 -1.4726 0
M  V30 33206 O 3008.11 -0.971467 -1.49749 0
M  V30 33207 C 3005.21 -1.92609 -2.78846 0
M  V30 33208 C 3004.38 -3.22913 -2.95035 0
M  V30 33209 C 3003.44 -3.24896 -4.13919 0
M  V30 33210 O 3002.47 -3.98474 -4.06456 0
M  V30 33211 N 3003.67 -2.49609 -5.24095 0
M  V30 33212 H 3006.44 -2.75536 -1.17898 0
M  V30 33213 H 3004 -1.53968 -0.500537 0
M  V30 33214 H 3005.99 -1.91348 -3.56606 0
M  V30 33215 H 3004.56 -1.05274 -2.9434 0
M  V30 33216 H 3003.78 -3.37027 -2.04466 0
M  V30 33217 H 3005.07 -4.08921 -3.02756 0
M  V30 33218 H 3004.47 -1.89444 -5.33036 0
M  V30 33219 H 3003.02 -2.54112 -6.00225 0
M  V30 33220 N 3006.46 0.573222 -1.46806 0
M  V30 33221 C 3007.37 1.70927 -1.6069 0
M  V30 33222 C 3008.38 1.66955 -0.490113 0
M  V30 33223 O 3009.56 1.86692 -0.755515 0
M  V30 33224 C 3006.62 3.07435 -1.60264 0
M  V30 33225 C 3005.68 3.22598 -2.83248 0
M  V30 33226 C 3004.92 4.52594 -2.82833 0
M  V30 33227 O 3005.14 5.37071 -1.92123 0
M  V30 33228 O 3004.07 4.71207 -3.74497 0
M  V30 33229 H 3007.9 1.62159 -2.56784 0
M  V30 33230 H 3005.48 0.741376 -1.29707 0
M  V30 33231 H 3007.37 3.88701 -1.62756 0
M  V30 33232 H 3006.04 3.1662 -0.673324 0
M  V30 33233 H 3004.95 2.40789 -2.86306 0
M  V30 33234 H 3006.28 3.18309 -3.7542 0
M  V30 33235 N 3007.93 1.3467 0.818645 0
M  V30 33236 C 3008.84 1.28683 1.96158 0
M  V30 33237 C 3009.86 0.193772 1.72918 0
M  V30 33238 O 3011.04 0.42101 1.9695 0
M  V30 33239 C 3008.1 1.04639 3.30532 0
M  V30 33240 C 3007.16 2.23142 3.66751 0
M  V30 33241 C 3006.39 2.00236 4.94713 0
M  V30 33242 O 3006.62 0.962739 5.62217 0
M  V30 33243 O 3005.55 2.87295 5.28909 0
M  V30 33244 H 3009.38 2.24845 2.04153 0
M  V30 33245 H 3006.96 1.14919 0.954671 0
M  V30 33246 H 3008.84 0.930288 4.11003 0
M  V30 33247 H 3007.52 0.115196 3.23495 0
M  V30 33248 H 3006.43 2.40313 2.86706 0
M  V30 33249 H 3007.76 3.14666 3.78479 0
M  V30 33250 N 3009.41 -1.03936 1.1847 0
M  V30 33251 C 3010.64 -1.81345 1.00641 0
M  V30 33252 C 3011.06 -1.82871 -0.440445 0
M  V30 33253 O 3010.42 -1.24697 -1.31607 0
M  V30 33254 C 3010.47 -3.24756 1.56735 0
M  V30 33255 O 3009.57 -4.04771 0.789588 0
M  V30 33256 H 3008.91 -0.560219 0.356442 0
M  V30 33257 H 3011.44 -1.30888 1.57256 0
M  V30 33258 H 3011.45 -3.7553 1.59503 0
M  V30 33259 H 3010.13 -3.2296 2.62049 0
M  V30 33260 H 3008.7 -3.63446 0.834331 0
M  V30 33261 N 3010.89 -0.986938 -1.22871 0
M  V30 33262 C 3011.82 -0.552104 -2.26879 0
M  V30 33263 C 3012.8 0.418019 -1.64884 0
M  V30 33264 O 3013.99 0.309957 -1.9171 0
M  V30 33265 C 3011.12 0.139898 -3.47018 0
M  V30 33266 C 3010.07 -0.748165 -4.2141 0
M  V30 33267 C 3009.4 0.0764192 -5.34645 0
M  V30 33268 C 3010.7 -2.04214 -4.80722 0
M  V30 33269 H 3012.39 -1.42147 -2.63504 0
M  V30 33270 H 3009.94 -0.684942 -1.26667 0
M  V30 33271 H 3011.89 0.455453 -4.18931 0
M  V30 33272 H 3010.61 1.04377 -3.09472 0
M  V30 33273 H 3009.27 -1.04727 -3.51323 0
M  V30 33274 H 3008.92 0.981023 -4.93341 0
M  V30 33275 H 3008.62 -0.514709 -5.85341 0
M  V30 33276 H 3010.14 0.386206 -6.09377 0
M  V30 33277 H 3011.56 -1.79093 -5.44609 0
M  V30 33278 H 3009.95 -2.58159 -5.41732 0
M  V30 33279 H 3011.02 -2.72476 -4.01105 0
M  V30 33280 N 3012.37 1.38098 -0.759394 0
M  V30 33281 C 3013.31 2.30402 -0.135549 0
M  V30 33282 C 3014.28 1.50474 0.703329 0
M  V30 33283 O 3015.47 1.79086 0.658255 0
M  V30 33284 C 3012.61 3.36915 0.747169 0
M  V30 33285 C 3011.72 4.31868 -0.106969 0
M  V30 33286 C 3010.86 5.25453 0.779296 0
M  V30 33287 C 3009.9 6.1205 -0.0781255 0
M  V30 33288 N 3009.03 6.97915 0.765423 0
M  V30 33289 H 3013.87 2.83174 -0.928249 0
M  V30 33290 H 3011.41 1.39411 -0.469374 0
M  V30 33291 H 3013.37 3.97284 1.27364 0
M  V30 33292 H 3012 2.85538 1.50559 0
M  V30 33293 H 3011.05 3.7291 -0.751129 0
M  V30 33294 H 3012.36 4.92838 -0.768884 0
M  V30 33295 H 3011.52 5.90966 1.37272 0
M  V30 33296 H 3010.26 4.64863 1.47493 0
M  V30 33297 H 3009.26 5.45526 -0.684174 0
M  V30 33298 H 3010.49 6.7471 -0.770905 0
M  V30 33299 H 3008.43 6.39867 1.4459 0
M  V30 33300 H 3008.35 7.5583 0.160533 0
M  V30 33301 H 3009.62 7.67833 1.34363 0
M  V30 33302 N 3013.85 0.508932 1.49156 0
M  V30 33303 C 3014.79 -0.278866 2.30922 0
M  V30 33304 C 3015.79 -0.955357 1.3989 0
M  V30 33305 O 3016.99 -0.882141 1.56902 0
M  V30 33306 H 3013.37 -0.108792 0.744089 0
M  V30 33307 H 3015.34 0.430634 2.95276 0
M  V30 33308 C 3014.09 -1.32571 3.21435 0
M  V30 33309 H 3013.41 -0.814565 3.91414 0
M  V30 33310 H 3014.85 -1.84876 3.81572 0
M  V30 33311 C 3013.31 -2.34813 2.41587 0
M  V30 33312 O 3013.84 -3.4085 2.12566 0
M  V30 33313 N 3012.05 -2.07485 2.03465 0
M  V30 33314 H 3011.59 -1.21274 2.27267 0
M  V30 33315 H 3011.55 -2.7612 1.5035 0
M  V30 33316 N 3015.32 -1.55714 0.243111 0
M  V30 33317 C 3016.57 -1.98027 -0.383153 0
M  V30 33318 C 3016.89 -1.13439 -1.59345 0
M  V30 33319 O 3018.09 -1.45749 -2.29062 0
M  V30 33320 C 3016.55 -3.52355 -0.733073 0
M  V30 33321 C 3016.16 -4.45677 0.455618 0
M  V30 33322 C 3017.9 -4.03333 -1.32374 0
M  V30 33323 C 3015.81 -5.91343 0.0820631 0
M  V30 33324 H 3014.74 -0.739545 -0.146931 0
M  V30 33325 H 3017.39 -1.80271 0.342729 0
M  V30 33326 H 3015.77 -3.65792 -1.51698 0
M  V30 33327 H 3016.94 -4.43998 1.23299 0
M  V30 33328 H 3015.26 -4.0516 0.960957 0
M  V30 33329 H 3017.86 -5.0968 -1.61649 0
M  V30 33330 H 3018.2 -3.50456 -2.24692 0
M  V30 33331 H 3018.73 -3.93206 -0.602816 0
M  V30 33332 H 3015.47 -6.48249 0.972285 0
M  V30 33333 H 3014.99 -5.96167 -0.659186 0
M  V30 33334 H 3016.67 -6.46121 -0.337086 0
M  V30 33335 N 3016.8 0.030048 -1.57571 0
M  V30 33336 C 3017.75 1.03097 -2.06494 0
M  V30 33337 C 3018.72 1.35979 -0.953886 0
M  V30 33338 O 3019.9 1.46333 -1.22439 0
M  V30 33339 C 3017.04 2.32714 -2.5483 0
M  V30 33340 C 3016.16 2.05999 -3.79721 0
M  V30 33341 C 3015.29 3.29479 -4.16674 0
M  V30 33342 C 3014.33 2.98315 -5.34485 0
M  V30 33343 N 3013.47 4.14244 -5.66874 0
M  V30 33344 H 3018.31 0.606826 -2.91756 0
M  V30 33345 H 3015.85 0.288013 -1.44253 0
M  V30 33346 H 3017.8 3.08446 -2.80921 0
M  V30 33347 H 3016.43 2.72853 -1.72486 0
M  V30 33348 H 3015.49 1.20768 -3.6072 0
M  V30 33349 H 3016.8 1.79009 -4.65572 0
M  V30 33350 H 3015.95 4.1358 -4.43888 0
M  V30 33351 H 3014.69 3.59582 -3.29472 0
M  V30 33352 H 3013.7 2.12616 -5.07025 0
M  V30 33353 H 3014.92 2.69491 -6.23339 0
M  V30 33354 H 3012.87 4.44299 -4.82632 0
M  V30 33355 H 3012.78 3.90674 -6.47233 0
M  V30 33356 H 3014.05 4.99221 -5.98664 0
M  V30 33357 N 3018.28 1.54674 0.3023 0
M  V30 33358 C 3019.56 1.64569 1.05718 0
M  V30 33359 C 3019.94 0.493144 2.05259 0
M  V30 33360 O 3019.29 -0.510276 2.2273 0
M  V30 33361 C 3019.5 3.0252 1.7402 0
M  V30 33362 C 3020.84 3.5929 2.26265 0
M  V30 33363 O 3021.87 3.04963 1.84054 0
M  V30 33364 O 3020.73 4.5441 3.03602 0
M  V30 33365 H 3017.82 0.667258 0.488565 0
M  V30 33366 H 3020.37 1.67018 0.300492 0
M  V30 33367 H 3019.14 3.77844 1.01734 0
M  V30 33368 H 3018.76 3.03842 2.56448 0
M  V30 33369 N 3019.76 -0.565428 1.47108 0
M  V30 33370 C 3020.98 -1.3534 1.57155 0
M  V30 33371 C 3021.41 -1.86817 0.21928 0
M  V30 33372 O 3020.77 -1.62522 -0.80351 0
M  V30 33373 C 3020.81 -2.50496 2.59392 0
M  V30 33374 O 3019.92 -3.52474 2.14092 0
M  V30 33375 H 3019.26 -0.402348 0.528216 0
M  V30 33376 H 3021.79 -0.684155 1.92822 0
M  V30 33377 H 3021.8 -2.97179 2.79551 0
M  V30 33378 H 3020.47 -2.12384 3.57583 0
M  V30 33379 H 3019.05 -3.12153 2.03997 0
M  V30 33380 N 3021.24 -1.35102 -0.811492 0
M  V30 33381 C 3022.17 -1.30278 -1.93778 0
M  V30 33382 C 3023.15 -0.178105 -1.69165 0
M  V30 33383 O 3024.33 -0.372289 -1.90598 0
M  V30 33384 C 3021.46 -1.06905 -3.30437 0
M  V30 33385 C 3020.42 -2.15961 -3.6952 0
M  V30 33386 C 3019.74 -1.7776 -5.04287 0
M  V30 33387 C 3021.04 -3.57888 -3.80413 0
M  V30 33388 H 3022.74 -2.24518 -1.98071 0
M  V30 33389 H 3020.28 -1.0808 -0.951567 0
M  V30 33390 H 3022.24 -1.02172 -4.08826 0
M  V30 33391 H 3020.96 -0.0911035 -3.26473 0
M  V30 33392 H 3019.62 -2.19783 -2.93413 0
M  V30 33393 H 3019.27 -0.785964 -4.96822 0
M  V30 33394 H 3018.97 -2.50759 -5.31407 0
M  V30 33395 H 3020.49 -1.74543 -5.85121 0
M  V30 33396 H 3021.9 -3.56415 -4.49045 0
M  V30 33397 H 3020.3 -4.29606 -4.18998 0
M  V30 33398 H 3021.37 -3.94396 -2.82098 0
M  V30 33399 N 3022.71 1.03306 -1.19019 0
M  V30 33400 C 3023.65 2.11555 -0.881884 0
M  V30 33401 C 3024.66 1.62329 0.123683 0
M  V30 33402 O 3025.85 1.7819 -0.105173 0
M  V30 33403 C 3022.95 3.3759 -0.297694 0
M  V30 33404 C 3022.12 4.1602 -1.35079 0
M  V30 33405 C 3021.18 5.20373 -0.780903 0
M  V30 33406 O 3020.21 5.50222 -1.45755 0
M  V30 33407 N 3021.41 5.78994 0.417863 0
M  V30 33408 H 3024.17 2.38595 -1.81364 0
M  V30 33409 H 3021.73 1.19563 -1.09162 0
M  V30 33410 H 3023.73 4.04583 0.0973029 0
M  V30 33411 H 3022.3 3.07931 0.538245 0
M  V30 33412 H 3021.52 3.44237 -1.9208 0
M  V30 33413 H 3022.8 4.65209 -2.06053 0
M  V30 33414 H 3022.2 5.57055 0.985183 0
M  V30 33415 H 3020.76 6.47416 0.754688 0
M  V30 33416 N 3024.19 0.99344 1.22346 0
M  V30 33417 C 3025.12 0.502443 2.23625 0
M  V30 33418 C 3026.14 -0.402757 1.57739 0
M  V30 33419 O 3027.33 -0.204804 1.77321 0
M  V30 33420 C 3024.43 -0.291058 3.37648 0
M  V30 33421 C 3023.6 0.610408 4.3312 0
M  V30 33422 C 3022.66 -0.131479 5.26036 0
M  V30 33423 O 3021.68 0.483299 5.67144 0
M  V30 33424 N 3022.89 -1.41361 5.63025 0
M  V30 33425 H 3025.65 1.37334 2.66382 0
M  V30 33426 H 3023.21 0.86822 1.36651 0
M  V30 33427 H 3025.2 -0.796038 3.96794 0
M  V30 33428 H 3023.77 -1.06305 2.93969 0
M  V30 33429 H 3022.99 1.29605 3.72285 0
M  V30 33430 H 3024.28 1.22431 4.9385 0
M  V30 33431 H 3023.68 -1.9344 5.31599 0
M  V30 33432 H 3022.24 -1.86377 6.24585 0
M  V30 33433 N 3025.67 -1.37693 0.766707 0
M  V30 33434 C 3026.9 -2.04615 0.338751 0
M  V30 33435 C 3027.32 -1.57449 -1.02915 0
M  V30 33436 O 3026.68 -0.732416 -1.65847 0
M  V30 33437 C 3026.73 -3.58535 0.385347 0
M  V30 33438 O 3025.83 -4.07773 -0.616009 0
M  V30 33439 H 3025.17 -0.647401 0.147539 0
M  V30 33440 H 3027.7 -1.76108 1.04149 0
M  V30 33441 H 3027.71 -4.07288 0.240854 0
M  V30 33442 H 3026.39 -3.92221 1.38331 0
M  V30 33443 H 3024.96 -3.70354 -0.43505 0
M  V30 33444 N 3027.15 -0.516835 -1.48884 0
M  V30 33445 C 3028.37 0.0204836 -2.0739 0
M  V30 33446 C 3028.8 1.28612 -1.37261 0
M  V30 33447 O 3028.16 1.76021 -0.434335 0
M  V30 33448 C 3028.2 0.240977 -3.59794 0
M  V30 33449 O 3027.31 1.31244 -3.90959 0
M  V30 33450 H 3026.65 -0.033268 -0.663166 0
M  V30 33451 H 3029.18 -0.720989 -1.91476 0
M  V30 33452 H 3029.19 0.467666 -4.05311 0
M  V30 33453 H 3027.86 -0.683632 -4.10243 0
M  V30 33454 H 3026.44 1.06945 -3.57236 0
M  V30 33455 N 3028.63 1.55583 -0.251365 0
M  V30 33456 C 3029.87 1.98658 0.371399 0
M  V30 33457 C 3030.2 1.1409 1.58141 0
M  V30 33458 O 3029.47 0.224742 1.94607 0
M  V30 33459 H 3028.05 0.733723 0.140212 0
M  V30 33460 H 3030.71 1.9171 -0.351191 0
M  V30 33461 H 3029.8 3.04658 0.677501 0
M  V30 33462 N 3030.1 -0.0216912 1.57585 0
M  V30 33463 C 3031.52 -0.377457 1.55072 0
M  V30 33464 C 3031.72 -1.76149 0.978454 0
M  V30 33465 O 3030.78 -2.45201 0.602731 0
M  V30 33466 C 3032.09 -0.272552 2.99462 0
M  V30 33467 C 3033.64 -0.349093 3.11047 0
M  V30 33468 C 3034.11 -0.273556 4.57182 0
M  V30 33469 N 3035.6 -0.332125 4.62008 0
M  V30 33470 C 3036.34 -0.296682 5.72632 0
M  V30 33471 N 3035.83 -0.213099 6.92472 0
M  V30 33472 N 3037.63 -0.346954 5.61028 0
M  V30 33473 H 3029.78 0.883959 1.93132 0
M  V30 33474 H 3032.04 0.336825 0.886145 0
M  V30 33475 H 3031.75 0.678841 3.45086 0
M  V30 33476 H 3031.62 -1.06329 3.61903 0
M  V30 33477 H 3034.01 -1.29092 2.65366 0
M  V30 33478 H 3034.09 0.471129 2.51424 0
M  V30 33479 H 3033.73 0.664637 5.03533 0
M  V30 33480 H 3033.66 -1.11198 5.14726 0
M  V30 33481 H 3036.15 -0.398937 3.75788 0
M  V30 33482 H 3036.47 -0.191356 7.72563 0
M  V30 33483 H 3034.81 -0.179039 6.94769 0
M  V30 33484 H 3038 -0.410296 4.66298 0
M  V30 33485 H 3038.18 -0.315865 6.4723 0
M  V30 33486 N 3031.58 -1.54832 -0.294093 0
M  V30 33487 C 3032.83 -1.73649 -1.02611 0
M  V30 33488 C 3033.15 -0.533195 -1.88192 0
M  V30 33489 O 3034.35 -0.603322 -2.64712 0
M  V30 33490 C 3032.81 -3.07254 -1.87411 0
M  V30 33491 C 3032.42 -4.35084 -1.06799 0
M  V30 33492 C 3034.16 -3.35428 -2.6017 0
M  V30 33493 C 3032.07 -5.59737 -1.90916 0
M  V30 33494 H 3031 -0.647213 -0.386822 0
M  V30 33495 H 3033.65 -1.81308 -0.282757 0
M  V30 33496 H 3032.03 -2.93577 -2.6576 0
M  V30 33497 H 3033.2 -4.59616 -0.330145 0
M  V30 33498 H 3031.52 -4.13897 -0.455906 0
M  V30 33499 H 3034.12 -4.25761 -3.23469 0
M  V30 33500 H 3034.46 -2.54612 -3.29361 0
M  V30 33501 H 3034.99 -3.50107 -1.88865 0
M  V30 33502 H 3031.73 -6.4324 -1.26183 0
M  V30 33503 H 3031.25 -5.3938 -2.62354 0
M  V30 33504 H 3032.93 -5.97252 -2.48796 0
M  V30 33505 N 3033.06 0.557619 -1.47405 0
M  V30 33506 C 3034.34 1.3184 -1.4449 0
M  V30 33507 C 3034.72 2.10624 -0.141637 0
M  V30 33508 O 3034.07 2.11005 0.876871 0
M  V30 33509 C 3034.28 2.22327 -2.6902 0
M  V30 33510 C 3035.62 2.83359 -3.16217 0
M  V30 33511 O 3036.65 2.32629 -2.69745 0
M  V30 33512 O 3035.51 3.75564 -3.97006 0
M  V30 33513 H 3032.6 0.593629 -0.57579 0
M  V30 33514 H 3035.15 0.576556 -1.59606 0
M  V30 33515 H 3033.92 1.63709 -3.55408 0
M  V30 33516 H 3033.54 3.03808 -2.56489 0
M  V30 33517 N 3034.54 1.35531 0.804316 0
M  V30 33518 C 3035.79 1.28265 1.55663 0
M  V30 33519 C 3036.1 -0.140317 1.95096 0
M  V30 33520 O 3037.31 -0.335255 2.69422 0
M  V30 33521 C 3035.76 2.24957 2.80931 0
M  V30 33522 C 3035.37 3.72611 2.48726 0
M  V30 33523 C 3037.12 2.26639 3.58936 0
M  V30 33524 C 3035.02 4.6112 3.703 0
M  V30 33525 H 3033.95 0.476569 0.584293 0
M  V30 33526 H 3036.6 1.60808 0.883922 0
M  V30 33527 H 3034.99 1.85389 3.49924 0
M  V30 33528 H 3036.16 4.20827 1.87726 0
M  V30 33529 H 3034.47 3.7356 1.83962 0
M  V30 33530 H 3037.07 2.89981 4.49238 0
M  V30 33531 H 3037.41 1.27076 3.96431 0
M  V30 33532 H 3037.95 2.64747 2.96907 0
M  V30 33533 H 3034.69 5.6169 3.37912 0
M  V30 33534 H 3034.21 4.17629 4.30519 0
M  V30 33535 H 3035.89 4.76655 4.37503 0
M  V30 33536 N 3036.02 -1.02674 1.19565 0
M  V30 33537 C 3037.27 -1.75512 0.993895 0
M  V30 33538 C 3037.58 -1.89724 -0.475849 0
M  V30 33539 O 3038.79 -2.59554 -0.796479 0
M  V30 33540 C 3037.24 -3.15625 1.72942 0
M  V30 33541 C 3036.85 -3.0946 3.23942 0
M  V30 33542 C 3038.59 -3.92744 1.61099 0
M  V30 33543 C 3036.5 -4.44517 3.90075 0
M  V30 33544 H 3035.43 -0.657954 0.368255 0
M  V30 33545 H 3038.08 -1.14889 1.43083 0
M  V30 33546 H 3036.46 -3.76729 1.22031 0
M  V30 33547 H 3037.64 -2.57724 3.81988 0
M  V30 33548 H 3035.95 -2.45837 3.36085 0
M  V30 33549 H 3038.55 -4.92646 2.07856 0
M  V30 33550 H 3038.89 -4.12441 0.565487 0
M  V30 33551 H 3039.43 -3.38246 2.09367 0
M  V30 33552 H 3036.16 -4.30024 4.94732 0
M  V30 33553 H 3035.68 -4.963 3.36818 0
M  V30 33554 H 3037.36 -5.13394 3.93745 0
M  V30 33555 N 3037.5 -0.999914 -1.21817 0
M  V30 33556 C 3038.45 -0.527143 -2.21822 0
M  V30 33557 C 3039.43 0.408487 -1.55628 0
M  V30 33558 O 3040.62 0.234166 -1.75444 0
M  V30 33559 C 3037.75 0.149926 -3.42972 0
M  V30 33560 C 3036.84 -0.806423 -4.16362 0
M  V30 33561 N 3037.23 -1.95716 -4.664 0
M  V30 33562 C 3035.53 -0.623749 -4.41617 0
M  V30 33563 C 3036.23 -2.55799 -5.22438 0
M  V30 33564 N 3035.2 -1.84004 -5.11511 0
M  V30 33565 H 3039 -1.40468 -2.58159 0
M  V30 33566 H 3036.52 -0.863078 -1.37567 0
M  V30 33567 H 3038.52 0.506058 -4.13817 0
M  V30 33568 H 3037.18 1.02351 -3.08147 0
M  V30 33569 H 3038.19 -2.33771 -4.62138 0
M  V30 33570 H 3034.86 0.203183 -4.17005 0
M  V30 33571 H 3036.25 -3.5309 -5.71644 0
M  V30 33572 N 3038.97 1.37284 -0.773999 0
M  V30 33573 C 3040.2 2.04432 -0.349597 0
M  V30 33574 C 3040.62 1.57992 1.02079 0
M  V30 33575 O 3039.98 0.741201 1.65457 0
M  V30 33576 C 3040.03 3.58326 -0.404355 0
M  V30 33577 O 3039.13 4.08094 0.594375 0
M  V30 33578 H 3038.47 0.64661 -0.15097 0
M  V30 33579 H 3041 1.75553 -1.05082 0
M  V30 33580 H 3041.01 4.07155 -0.26245 0
M  V30 33581 H 3039.69 3.91482 -1.4041 0
M  V30 33582 H 3038.27 3.70579 0.415403 0
M  V30 33583 N 3040.45 0.524724 1.48608 0
M  V30 33584 C 3041.4 -0.240915 2.29539 0
M  V30 33585 C 3042.37 -0.938657 1.37034 0
M  V30 33586 O 3043.55 -0.940708 1.65998 0
M  V30 33587 C 3040.69 -1.28509 3.2028 0
M  V30 33588 C 3039.81 -0.596722 4.27859 0
M  V30 33589 C 3038.94 -1.62337 5.05787 0
M  V30 33590 C 3037.98 -0.91818 6.05174 0
M  V30 33591 N 3037.12 -1.89013 6.76179 0
M  V30 33592 H 3041.96 0.45542 2.94499 0
M  V30 33593 H 3039.49 0.236429 1.45188 0
M  V30 33594 H 3041.45 -1.90272 3.71285 0
M  V30 33595 H 3040.08 -1.94987 2.57254 0
M  V30 33596 H 3039.13 0.134735 3.80161 0
M  V30 33597 H 3040.45 -0.042763 4.98782 0
M  V30 33598 H 3039.6 -2.31543 5.60779 0
M  V30 33599 H 3038.34 -2.21122 4.34691 0
M  V30 33600 H 3037.34 -0.212023 5.49391 0
M  V30 33601 H 3038.57 -0.336514 6.78266 0
M  V30 33602 H 3036.52 -2.46715 6.07838 0
M  V30 33603 H 3036.43 -1.38746 7.43159 0
M  V30 33604 H 3037.7 -2.57433 7.35764 0
M  V30 33605 N 3041.93 -1.55447 0.259613 0
M  V30 33606 C 3042.88 -2.21906 -0.634539 0
M  V30 33607 C 3043.85 -1.18721 -1.16166 0
M  V30 33608 O 3045.03 -1.47212 -1.2138 0
M  V30 33609 C 3042.17 -2.93207 -1.82 0
M  V30 33610 C 3041.28 -4.11075 -1.3282 0
M  V30 33611 C 3040.42 -4.70059 -2.47423 0
M  V30 33612 C 3039.46 -5.80151 -1.95169 0
M  V30 33613 N 3038.6 -6.33264 -3.03185 0
M  V30 33614 H 3043.44 -2.97937 -0.0611362 0
M  V30 33615 H 3040.97 -1.47088 -0.0184119 0
M  V30 33616 H 3042.93 -3.32752 -2.51658 0
M  V30 33617 H 3041.56 -2.19626 -2.36567 0
M  V30 33618 H 3040.61 -3.76756 -0.525235 0
M  V30 33619 H 3041.92 -4.90515 -0.905348 0
M  V30 33620 H 3041.08 -5.12244 -3.25102 0
M  V30 33621 H 3039.82 -3.89863 -2.93016 0
M  V30 33622 H 3038.82 -5.37431 -1.15964 0
M  V30 33623 H 3040.05 -6.62207 -1.5053 0
M  V30 33624 H 3037.99 -5.55968 -3.4819 0
M  V30 33625 H 3037.91 -7.07932 -2.6527 0
M  V30 33626 H 3039.18 -6.80108 -3.80886 0
M  V30 33627 N 3043.41 0.0133338 -1.57594 0
M  V30 33628 C 3044.64 0.712294 -1.94252 0
M  V30 33629 C 3045.05 1.68042 -0.860659 0
M  V30 33630 O 3044.41 1.81783 0.1616 0
M  V30 33631 C 3044.46 1.45575 -3.30893 0
M  V30 33632 O 3044.18 0.526463 -4.34925 0
M  V30 33633 C 3045.68 2.25043 -3.8193 0
M  V30 33634 H 3042.9 0.19923 -0.64074 0
M  V30 33635 H 3045.44 -0.0338215 -2.04472 0
M  V30 33636 H 3043.6 2.15361 -3.22023 0
M  V30 33637 H 3044.01 1.04953 -5.13892 0
M  V30 33638 H 3045.49 2.72581 -4.80004 0
M  V30 33639 H 3045.96 3.07146 -3.13939 0
M  V30 33640 H 3046.57 1.60301 -3.93934 0
M  V30 33641 N 3044.89 1.54985 0.285878 0
M  V30 33642 C 3045.85 1.8622 1.33621 0
M  V30 33643 C 3046.85 0.735961 1.42969 0
M  V30 33644 O 3048.04 1.0042 1.42343 0
M  V30 33645 C 3045.17 2.056 2.71922 0
M  V30 33646 H 3046.36 2.801 1.07162 0
M  V30 33647 H 3043.92 1.47279 0.523309 0
M  V30 33648 H 3044.65 1.14058 3.03581 0
M  V30 33649 H 3044.44 2.87588 2.66525 0
M  V30 33650 H 3045.93 2.31083 3.47837 0
M  V30 33651 N 3046.36 -0.549794 1.47699 0
M  V30 33652 C 3047.33 -1.63834 1.60285 0
M  V30 33653 C 3048.33 -1.53549 0.477421 0
M  V30 33654 O 3049.52 -1.57574 0.742693 0
M  V30 33655 C 3046.65 -3.03401 1.55436 0
M  V30 33656 H 3047.84 -1.54022 2.57327 0
M  V30 33657 H 3045.4 -0.770305 1.36 0
M  V30 33658 H 3046.13 -3.18739 0.597968 0
M  V30 33659 H 3045.92 -3.12275 2.37121 0
M  V30 33660 H 3047.41 -3.82581 1.67396 0
M  V30 33661 N 3047.84 -1.35955 -0.797117 0
M  V30 33662 C 3048.77 -1.32326 -1.92385 0
M  V30 33663 C 3049.75 -0.196037 -1.68967 0
M  V30 33664 O 3050.94 -0.392484 -1.90193 0
M  V30 33665 C 3048.07 -1.10404 -3.29285 0
M  V30 33666 C 3047.02 -2.19868 -3.67208 0
M  V30 33667 C 3046.35 -1.83099 -5.02373 0
M  V30 33668 C 3047.65 -3.61902 -3.76595 0
M  V30 33669 H 3049.34 -2.26606 -1.95679 0
M  V30 33670 H 3046.89 -1.09083 -0.94005 0
M  V30 33671 H 3048.84 -1.06502 -4.0772 0
M  V30 33672 H 3047.57 -0.125725 -3.26358 0
M  V30 33673 H 3046.22 -2.22883 -2.91065 0
M  V30 33674 H 3045.87 -0.838614 -4.9596 0
M  V30 33675 H 3045.57 -2.56382 -5.28718 0
M  V30 33676 H 3047.1 -1.80739 -5.83237 0
M  V30 33677 H 3048.51 -3.61157 -4.4524 0
M  V30 33678 H 3046.91 -4.34026 -4.14417 0
M  V30 33679 H 3047.98 -3.97366 -2.77899 0
M  V30 33680 N 3049.32 1.02038 -1.20108 0
M  V30 33681 C 3050.25 2.10608 -0.904273 0
M  V30 33682 C 3051.27 1.62452 0.106459 0
M  V30 33683 O 3052.45 1.78068 -0.124066 0
M  V30 33684 C 3049.55 3.37255 -0.333483 0
M  V30 33685 C 3048.73 4.14564 -1.39484 0
M  V30 33686 C 3047.79 5.19516 -0.836052 0
M  V30 33687 O 3046.81 5.48645 -1.51583 0
M  V30 33688 N 3048.01 5.79405 0.356429 0
M  V30 33689 H 3050.78 2.36658 -1.83884 0
M  V30 33690 H 3048.34 1.18398 -1.10424 0
M  V30 33691 H 3050.33 4.04663 0.0543859 0
M  V30 33692 H 3048.9 3.08485 0.505554 0
M  V30 33693 H 3048.12 3.4218 -1.9572 0
M  V30 33694 H 3049.41 4.62998 -2.10975 0
M  V30 33695 H 3048.81 5.58069 0.926045 0
M  V30 33696 H 3047.37 6.4818 0.685979 0
M  V30 33697 N 3050.8 1.00636 1.21285 0
M  V30 33698 C 3052.02 0.708476 1.94924 0
M  V30 33699 C 3052.45 -0.722752 1.7366 0
M  V30 33700 O 3051.81 -1.49591 1.02432 0
M  V30 33701 C 3051.85 1.03673 3.45376 0
M  V30 33702 O 3050.96 0.142733 4.12153 0
M  V30 33703 H 3050.3 0.263834 0.609334 0
M  V30 33704 H 3052.83 1.34697 1.54006 0
M  V30 33705 H 3052.84 0.984156 3.95952 0
M  V30 33706 H 3051.51 2.07957 3.60176 0
M  V30 33707 H 3050.09 0.251953 3.72048 0
M  V30 33708 N 3052.28 -1.36872 0.781268 0
M  V30 33709 C 3053.24 -2.28491 0.180134 0
M  V30 33710 C 3054.24 -1.48459 -0.617772 0
M  V30 33711 O 3055.43 -1.68553 -0.439962 0
M  V30 33712 C 3052.56 -3.32509 -0.751682 0
M  V30 33713 H 3053.75 -2.83162 0.987887 0
M  V30 33714 H 3051.31 -1.46299 0.550127 0
M  V30 33715 H 3052.04 -2.82979 -1.58408 0
M  V30 33716 H 3051.83 -3.91679 -0.181581 0
M  V30 33717 H 3053.32 -4.00951 -1.1674 0
M  V30 33718 N 3053.75 -0.532597 -1.48328 0
M  V30 33719 C 3054.98 -0.00357936 -2.069 0
M  V30 33720 C 3055.4 1.279 -1.38878 0
M  V30 33721 O 3054.75 1.76152 -0.47715 0
M  V30 33722 C 3054.81 0.221353 -3.60822 0
M  V30 33723 O 3054.53 -1.01041 -4.26289 0
M  V30 33724 C 3056.03 0.790454 -4.36196 0
M  V30 33725 H 3053.25 -0.0346953 -0.670102 0
M  V30 33726 H 3055.79 -0.738989 -1.90681 0
M  V30 33727 H 3053.95 0.906818 -3.76637 0
M  V30 33728 H 3054.36 -0.792774 -5.18474 0
M  V30 33729 H 3055.83 0.897252 -5.44659 0
M  V30 33730 H 3056.31 1.79598 -4.00801 0
M  V30 33731 H 3056.92 0.141471 -4.25065 0
M  V30 33732 N 3055.23 1.55307 -0.267853 0
M  V30 33733 C 3056.64 1.85262 0.231311 0
M  V30 33734 C 3056.99 1.18985 1.56004 0
M  V30 33735 O 3056.12 0.475591 2.11109 0
M  V30 33736 C 3056.71 3.36105 0.426478 0
M  V30 33737 C 3055.27 3.6621 0.869881 0
M  V30 33738 C 3054.42 2.7727 -0.041001 0
M  V30 33739 H 3057.37 1.50951 -0.489847 0
M  V30 33740 H 3057.39 3.58818 1.2661 0
M  V30 33741 H 3056.9 3.84314 -0.540746 0
M  V30 33742 H 3055.01 3.23495 1.84883 0
M  V30 33743 H 3055.12 4.73776 0.712233 0
M  V30 33744 H 3053.48 2.5025 0.474053 0
M  V30 33745 H 3054.27 3.28291 -1.00398 0
M  V30 33746 N 3056.71 -0.00497598 1.57599 0
M  V30 33747 C 3057.96 -0.691885 1.90633 0
M  V30 33748 C 3058.29 -1.73699 0.868474 0
M  V30 33749 O 3057.56 -1.94169 -0.113448 0
M  V30 33750 C 3057.85 -1.33955 3.34257 0
M  V30 33751 C 3057.7 -0.306334 4.48756 0
M  V30 33752 C 3059.02 -2.26708 3.77215 0
M  V30 33753 H 3056.14 -0.250053 0.693284 0
M  V30 33754 H 3058.78 0.0452967 1.89946 0
M  V30 33755 H 3056.93 -1.96788 3.34973 0
M  V30 33756 H 3058.6 0.321922 4.60175 0
M  V30 33757 H 3056.85 0.371928 4.32203 0
M  V30 33758 H 3057.52 -0.798458 5.46195 0
M  V30 33759 H 3059.99 -1.73898 3.7802 0
M  V30 33760 H 3058.87 -2.68993 4.7847 0
M  V30 33761 H 3059.13 -3.14407 3.10806 0
M  V30 33762 N 3058.19 -1.55135 -0.277654 0
M  V30 33763 C 3059.1 -1.90786 -1.36521 0
M  V30 33764 C 3060.11 -0.804569 -1.54281 0
M  V30 33765 O 3061.29 -1.10321 -1.68497 0
M  V30 33766 C 3058.36 -2.1684 -2.7052 0
M  V30 33767 C 3057.42 -3.40429 -2.61546 0
M  V30 33768 C 3056.65 -3.65231 -3.89155 0
M  V30 33769 O 3056.87 -2.92625 -4.89619 0
M  V30 33770 O 3055.81 -4.58764 -3.89639 0
M  V30 33771 H 3059.63 -2.83356 -1.09285 0
M  V30 33772 H 3057.22 -1.41622 -0.475774 0
M  V30 33773 H 3059.1 -2.35044 -3.4976 0
M  V30 33774 H 3057.77 -1.27453 -2.97552 0
M  V30 33775 H 3056.68 -3.27565 -1.80698 0
M  V30 33776 H 3058.01 -4.3002 -2.39465 0
M  V30 33777 N 3059.67 0.541953 -1.47989 0
M  V30 33778 C 3061.08 0.869359 -1.33844 0
M  V30 33779 C 3061.28 1.98604 -0.340409 0
M  V30 33780 O 3060.34 2.51331 0.242652 0
M  V30 33781 C 3061.65 1.24818 -2.73571 0
M  V30 33782 C 3063.2 1.35875 -2.8197 0
M  V30 33783 C 3063.67 1.77106 -4.22371 0
M  V30 33784 N 3065.17 1.8423 -4.24987 0
M  V30 33785 C 3065.9 2.17493 -5.30551 0
M  V30 33786 N 3065.4 2.49264 -6.46405 0
M  V30 33787 N 3067.19 2.18397 -5.17937 0
M  V30 33788 H 3059.34 -0.195038 -2.11503 0
M  V30 33789 H 3061.6 -0.0246029 -0.947681 0
M  V30 33790 H 3061.31 0.501374 -3.48108 0
M  V30 33791 H 3061.18 2.201 -3.06326 0
M  V30 33792 H 3063.57 2.09635 -2.07695 0
M  V30 33793 H 3063.65 0.387434 -2.52849 0
M  V30 33794 H 3063.3 1.03911 -4.97157 0
M  V30 33795 H 3063.23 2.75267 -4.48927 0
M  V30 33796 H 3065.72 1.62003 -3.41414 0
M  V30 33797 H 3066.03 2.73716 -7.22703 0
M  V30 33798 H 3064.37 2.4681 -6.497 0
M  V30 33799 H 3067.57 1.93026 -4.26449 0
M  V30 33800 H 3067.74 2.4399 -6.00311 0
M  V30 33801 N 3061.15 1.36376 0.789896 0
M  V30 33802 C 3062.39 1.30773 1.55004 0
M  V30 33803 C 3062.72 -0.112945 1.93871 0
M  V30 33804 O 3062 -1.06622 1.62672 0
M  V30 33805 C 3062.28 2.22998 2.82744 0
M  V30 33806 C 3062.14 3.7376 2.50247 0
M  V30 33807 C 3063.45 2.14004 3.84565 0
M  V30 33808 H 3060.57 0.476369 0.562353 0
M  V30 33809 H 3063.22 1.66924 0.907552 0
M  V30 33810 H 3061.37 1.92298 3.3757 0
M  V30 33811 H 3063.04 4.14976 2.01475 0
M  V30 33812 H 3061.28 3.93219 1.83197 0
M  V30 33813 H 3061.95 4.337 3.4148 0
M  V30 33814 H 3064.43 2.41026 3.39184 0
M  V30 33815 H 3063.3 2.80705 4.71695 0
M  V30 33816 H 3063.56 1.12719 4.27489 0
M  V30 33817 N 3062.62 -1.014 1.20647 0
M  V30 33818 C 3063.57 -2.09994 0.957655 0
M  V30 33819 C 3064.54 -1.65715 -0.113086 0
M  V30 33820 O 3065.73 -1.90773 0.0321755 0
M  V30 33821 C 3062.87 -3.4118 0.51866 0
M  V30 33822 C 3061.98 -3.98923 1.65784 0
M  V30 33823 C 3061.11 -5.1818 1.1689 0
M  V30 33824 C 3060.15 -5.68011 2.281 0
M  V30 33825 N 3059.29 -6.78527 1.80404 0
M  V30 33826 H 3064.13 -2.30614 1.88736 0
M  V30 33827 H 3061.67 -1.13088 0.940723 0
M  V30 33828 H 3063.62 -4.16477 0.24544 0
M  V30 33829 H 3062.25 -3.20626 -0.374044 0
M  V30 33830 H 3061.31 -3.20697 2.04592 0
M  V30 33831 H 3062.62 -4.31907 2.49515 0
M  V30 33832 H 3061.77 -6.00691 0.8518 0
M  V30 33833 H 3060.51 -4.86767 0.30152 0
M  V30 33834 H 3059.52 -4.84103 2.60623 0
M  V30 33835 H 3060.74 -6.01458 3.15318 0
M  V30 33836 H 3058.69 -6.48938 0.95997 0
M  V30 33837 H 3058.6 -7.10718 2.57713 0
M  V30 33838 H 3059.87 -7.64596 1.51702 0
M  V30 33839 N 3064.1 -1.01278 -1.2075 0
M  V30 33840 C 3065.03 -0.600104 -2.25657 0
M  V30 33841 C 3066.01 0.382951 -1.65733 0
M  V30 33842 O 3067.2 0.269222 -1.92325 0
M  V30 33843 C 3064.33 0.0662587 -3.47237 0
M  V30 33844 C 3063.28 -0.837384 -4.19728 0
M  V30 33845 C 3062.61 -0.0370042 -5.34687 0
M  V30 33846 C 3063.91 -2.14365 -4.76282 0
M  V30 33847 H 3065.6 -1.47705 -2.6043 0
M  V30 33848 H 3063.15 -0.711656 -1.25186 0
M  V30 33849 H 3065.1 0.366489 -4.19803 0
M  V30 33850 H 3063.82 0.977889 -3.11617 0
M  V30 33851 H 3062.48 -1.12156 -3.49022 0
M  V30 33852 H 3062.13 0.876157 -4.9531 0
M  V30 33853 H 3061.83 -0.638753 -5.84118 0
M  V30 33854 H 3063.36 0.256861 -6.10059 0
M  V30 33855 H 3064.77 -1.90605 -5.40687 0
M  V30 33856 H 3063.17 -2.69592 -5.36134 0
M  V30 33857 H 3064.24 -2.80923 -3.95235 0
M  V30 33858 N 3065.58 1.36456 -0.788516 0
M  V30 33859 C 3066.51 2.28746 -0.144248 0
M  V30 33860 C 3067.52 1.49435 0.645983 0
M  V30 33861 O 3068.71 1.71888 0.481314 0
M  V30 33862 C 3065.81 3.2886 0.818811 0
M  V30 33863 C 3064.99 4.37329 0.0788286 0
M  V30 33864 C 3064.05 5.17411 0.9577 0
M  V30 33865 O 3063.07 5.67683 0.415278 0
M  V30 33866 N 3064.27 5.33762 2.28207 0
M  V30 33867 H 3067.04 2.84676 -0.936999 0
M  V30 33868 H 3064.6 1.48612 -0.642343 0
M  V30 33869 H 3066.59 3.79321 1.41058 0
M  V30 33870 H 3065.16 2.73576 1.51245 0
M  V30 33871 H 3064.38 3.88043 -0.694007 0
M  V30 33872 H 3065.67 5.06964 -0.431842 0
M  V30 33873 H 3065.07 4.94531 2.74691 0
M  V30 33874 H 3063.62 5.87471 2.8235 0
M  V30 33875 N 3067.06 0.540456 1.48043 0
M  V30 33876 C 3067.97 -0.220122 2.33565 0
M  V30 33877 C 3068.98 -0.928634 1.47148 0
M  V30 33878 O 3070.16 -0.901263 1.80109 0
M  V30 33879 C 3067.22 -1.24715 3.23492 0
M  V30 33880 C 3066.29 -0.547863 4.2579 0
M  V30 33881 C 3065.52 -1.52596 5.1142 0
M  V30 33882 O 3065.74 -2.75947 4.99209 0
M  V30 33883 O 3064.68 -1.05961 5.925 0
M  V30 33884 H 3068.5 0.480951 2.99868 0
M  V30 33885 H 3066.09 0.301252 1.46331 0
M  V30 33886 H 3067.97 -1.8404 3.79087 0
M  V30 33887 H 3066.64 -1.93044 2.59838 0
M  V30 33888 H 3065.55 0.0861598 3.74001 0
M  V30 33889 H 3066.88 0.0936761 4.92111 0
M  V30 33890 N 3068.54 -1.55163 0.276085 0
M  V30 33891 C 3069.5 -2.21264 -0.597886 0
M  V30 33892 C 3070.5 -1.1908 -1.08058 0
M  V30 33893 O 3071.69 -1.43979 -0.980601 0
M  V30 33894 C 3068.82 -2.87937 -1.82497 0
M  V30 33895 H 3070.01 -2.99893 -0.0207242 0
M  V30 33896 H 3067.57 -1.56277 0.0267097 0
M  V30 33897 H 3068.3 -2.13323 -2.44262 0
M  V30 33898 H 3068.09 -3.62819 -1.48677 0
M  V30 33899 H 3069.58 -3.38436 -2.44645 0
M  V30 33900 N 3070.01 -0.00338196 -1.576 0
M  V30 33901 C 3070.94 0.985801 -2.1167 0
M  V30 33902 C 3071.92 1.35625 -1.02663 0
M  V30 33903 O 3073.11 1.43941 -1.30364 0
M  V30 33904 C 3070.24 2.27658 -2.62277 0
M  V30 33905 C 3069.19 2.04764 -3.7584 0
M  V30 33906 C 3068.52 3.39884 -4.12775 0
M  V30 33907 C 3069.82 1.4075 -5.02978 0
M  V30 33908 H 3071.51 0.535585 -2.94571 0
M  V30 33909 H 3069.06 0.256179 -1.41703 0
M  V30 33910 H 3071.01 2.97216 -2.98732 0
M  V30 33911 H 3069.74 2.74799 -1.76503 0
M  V30 33912 H 3068.4 1.3763 -3.39784 0
M  V30 33913 H 3068.04 3.84734 -3.24019 0
M  V30 33914 H 3067.74 3.2538 -4.89287 0
M  V30 33915 H 3069.27 4.10752 -4.51791 0
M  V30 33916 H 3070.68 2.0027 -5.37182 0
M  V30 33917 H 3069.08 1.36724 -5.84317 0
M  V30 33918 H 3070.15 0.377133 -4.83431 0
M  V30 33919 N 3071.49 1.5528 0.269423 0
M  V30 33920 C 3072.72 1.80417 1.02296 0
M  V30 33921 C 3073.14 0.577394 1.79019 0
M  V30 33922 O 3072.5 -0.473094 1.75019 0
M  V30 33923 C 3072.55 3.03044 1.9544 0
M  V30 33924 O 3071.65 2.7838 3.04267 0
M  V30 33925 H 3070.99 0.596212 0.292279 0
M  V30 33926 H 3073.52 2.02429 0.297247 0
M  V30 33927 H 3073.53 3.31873 2.37327 0
M  V30 33928 H 3072.21 3.91981 1.3901 0
M  V30 33929 H 3070.78 2.60657 2.66669 0
M  V30 33930 N 3072.97 -0.534097 1.48274 0
M  V30 33931 C 3073.9 -1.65491 1.58573 0
M  V30 33932 C 3074.91 -1.55859 0.470294 0
M  V30 33933 O 3076.1 -1.62395 0.740957 0
M  V30 33934 C 3073.2 -3.04114 1.49559 0
M  V30 33935 C 3072.38 -3.39269 2.76072 0
M  V30 33936 C 3071.44 -4.57154 2.6057 0
M  V30 33937 O 3070.46 -4.60581 3.34446 0
M  V30 33938 N 3071.66 -5.55076 1.69915 0
M  V30 33939 H 3074.43 -1.57094 2.55228 0
M  V30 33940 H 3071.99 -0.721277 1.44946 0
M  V30 33941 H 3073.98 -3.80846 1.36889 0
M  V30 33942 H 3072.55 -3.06611 0.608949 0
M  V30 33943 H 3071.77 -2.51755 3.03336 0
M  V30 33944 H 3073.06 -3.5954 3.60012 0
M  V30 33945 H 3072.46 -5.55082 1.09089 0
M  V30 33946 H 3071.01 -6.31042 1.63186 0
M  V30 33947 N 3074.45 -1.36793 -0.782652 0
M  V30 33948 C 3075.38 -1.34359 -1.90971 0
M  V30 33949 C 3076.36 -0.213947 -1.68749 0
M  V30 33950 O 3077.54 -0.412634 -1.89766 0
M  V30 33951 C 3074.67 -1.1389 -3.28095 0
M  V30 33952 C 3073.63 -2.23751 -3.64856 0
M  V30 33953 C 3072.95 -1.88417 -5.00403 0
M  V30 33954 C 3074.25 -3.65876 -3.72736 0
M  V30 33955 H 3075.95 -2.28668 -1.93264 0
M  V30 33956 H 3073.49 -1.10074 -0.928428 0
M  V30 33957 H 3075.45 -1.1082 -4.06567 0
M  V30 33958 H 3074.17 -0.160333 -3.26206 0
M  V30 33959 H 3072.83 -2.25957 -2.88685 0
M  V30 33960 H 3072.48 -0.89117 -4.95043 0
M  V30 33961 H 3072.18 -2.61975 -5.25969 0
M  V30 33962 H 3073.7 -1.86915 -5.81288 0
M  V30 33963 H 3075.12 -3.65859 -4.41384 0
M  V30 33964 H 3073.51 -4.38397 -4.09791 0
M  V30 33965 H 3074.58 -4.00291 -2.73669 0
M  V30 33966 N 3075.93 1.00759 -1.21184 0
M  V30 33967 C 3077.2 1.71733 -0.936327 0
M  V30 33968 C 3077.58 2.0374 0.552549 0
M  V30 33969 O 3076.93 1.70906 1.51669 0
M  V30 33970 C 3077.14 2.97865 -1.81872 0
M  V30 33971 C 3078.49 3.70947 -2.06601 0
M  V30 33972 O 3079.51 3.07841 -1.792 0
M  V30 33973 O 3078.37 4.84448 -2.52928 0
M  V30 33974 H 3075.47 0.748874 -0.35088 0
M  V30 33975 H 3078.01 1.06525 -1.321 0
M  V30 33976 H 3076.78 2.70602 -2.82648 0
M  V30 33977 H 3076.41 3.70813 -1.4347 0
M  V30 33978 N 3077.4 1.01917 1.20211 0
M  V30 33979 C 3078.65 0.709988 1.89646 0
M  V30 33980 C 3078.98 -0.760599 1.79012 0
M  V30 33981 O 3078.23 -1.56851 1.17031 0
M  V30 33982 C 3078.53 1.09444 3.4023 0
M  V30 33983 C 3078.2 2.56167 3.71065 0
M  V30 33984 C 3076.86 2.96256 3.79191 0
M  V30 33985 C 3079.21 3.5114 3.85162 0
M  V30 33986 C 3076.54 4.30251 3.98874 0
M  V30 33987 C 3078.89 4.84827 4.06356 0
M  V30 33988 C 3077.56 5.24619 4.12712 0
M  V30 33989 H 3076.83 0.259803 0.693962 0
M  V30 33990 H 3079.47 1.28023 1.42417 0
M  V30 33991 H 3077.78 0.442664 3.89291 0
M  V30 33992 H 3079.48 0.83288 3.92255 0
M  V30 33993 H 3076.07 2.24106 3.65342 0
M  V30 33994 H 3080.25 3.21326 3.78237 0
M  V30 33995 H 3075.51 4.60631 4.02031 0
M  V30 33996 H 3079.68 5.58341 4.16207 0
M  V30 33997 H 3077.31 6.2846 4.27717 0
M  V30 33998 N 3078.88 -1.36036 0.795742 0
M  V30 33999 C 3079.81 -2.28666 0.156377 0
M  V30 34000 C 3080.83 -1.49776 -0.638049 0
M  V30 34001 O 3082.02 -1.72141 -0.472192 0
M  V30 34002 C 3079.12 -3.29289 -0.801359 0
M  V30 34003 C 3078.29 -4.37365 -0.0556349 0
M  V30 34004 C 3077.35 -5.17912 -0.930247 0
M  V30 34005 O 3076.37 -5.67895 -0.385167 0
M  V30 34006 N 3077.58 -5.34965 -2.25373 0
M  V30 34007 H 3080.34 -2.84175 0.952083 0
M  V30 34008 H 3077.9 -1.48269 0.650216 0
M  V30 34009 H 3079.89 -3.80064 -1.39044 0
M  V30 34010 H 3078.46 -2.74374 -1.49792 0
M  V30 34011 H 3077.68 -3.87669 0.714576 0
M  V30 34012 H 3078.97 -5.06728 0.458722 0
M  V30 34013 H 3078.37 -4.95981 -2.72064 0
M  V30 34014 H 3076.93 -5.8896 -2.7923 0
M  V30 34015 N 3080.36 -0.5483 -1.47755 0
M  V30 34016 C 3081.61 -0.0291595 -2.03379 0
M  V30 34017 C 3081.96 1.30253 -1.41605 0
M  V30 34018 O 3081.25 1.8326 -0.559134 0
M  V30 34019 C 3081.45 0.131006 -3.5716 0
M  V30 34020 C 3081.28 -1.18361 -4.33844 0
M  V30 34021 C 3080.05 -1.74849 -4.74084 0
M  V30 34022 C 3082.25 -2.09869 -4.69531 0
M  V30 34023 N 3080.23 -3.00408 -5.35377 0
M  V30 34024 C 3081.6 -3.20006 -5.31033 0
M  V30 34025 C 3083.65 -2.09972 -4.5146 0
M  V30 34026 C 3082.36 -4.30333 -5.76373 0
M  V30 34027 C 3084.38 -3.19306 -4.97793 0
M  V30 34028 C 3083.74 -4.28162 -5.59336 0
M  V30 34029 H 3079.84 -0.0526174 -0.780228 0
M  V30 34030 H 3082.43 -0.733625 -1.8035 0
M  V30 34031 H 3080.6 0.80458 -3.79975 0
M  V30 34032 H 3082.33 0.651406 -3.99423 0
M  V30 34033 H 3079.09 -1.28758 -4.55761 0
M  V30 34034 H 3079.51 -3.64382 -5.70574 0
M  V30 34035 H 3084.15 -1.271 -4.03244 0
M  V30 34036 H 3081.87 -5.13972 -6.23585 0
M  V30 34037 H 3085.46 -3.20462 -4.85587 0
M  V30 34038 H 3084.34 -5.11368 -5.94535 0
M  V30 34039 N 3081.84 1.55014 -0.28431 0
M  V30 34040 C 3082.75 2.26557 0.60902 0
M  V30 34041 C 3083.76 1.29474 1.16244 0
M  V30 34042 O 3084.94 1.62427 1.19078 0
M  V30 34043 C 3082.01 2.97971 1.77241 0
M  V30 34044 C 3081.07 4.10554 1.25475 0
M  V30 34045 C 3080.3 4.78553 2.36269 0
M  V30 34046 O 3080.52 4.45811 3.55821 0
M  V30 34047 O 3079.46 5.6631 2.03904 0
M  V30 34048 H 3083.28 3.03686 0.0291764 0
M  V30 34049 H 3080.87 1.49312 -0.0513728 0
M  V30 34050 H 3082.75 3.4282 2.45056 0
M  V30 34051 H 3081.42 2.23751 2.33917 0
M  V30 34052 H 3080.33 3.70141 0.542794 0
M  V30 34053 H 3081.66 4.86702 0.733623 0
M  V30 34054 N 3083.32 0.0117398 1.57596 0
M  V30 34055 C 3084.26 -0.97586 2.09155 0
M  V30 34056 C 3085.23 -1.33402 0.989603 0
M  V30 34057 O 3086.42 -1.43035 1.26275 0
M  V30 34058 C 3083.56 -2.25876 2.6091 0
M  V30 34059 C 3082.67 -1.95859 3.8505 0
M  V30 34060 C 3081.81 -3.18316 4.25263 0
M  V30 34061 C 3080.85 -2.84039 5.42207 0
M  V30 34062 N 3079.98 -3.99068 5.77658 0
M  V30 34063 H 3084.82 -0.529259 2.93262 0
M  V30 34064 H 3082.36 -0.249666 1.44966 0
M  V30 34065 H 3084.32 -3.0089 2.89 0
M  V30 34066 H 3082.95 -2.68184 1.79659 0
M  V30 34067 H 3082 -1.11162 3.63796 0
M  V30 34068 H 3083.31 -1.66602 4.70154 0
M  V30 34069 H 3082.47 -4.01666 4.54697 0
M  V30 34070 H 3081.2 -3.5072 3.3889 0
M  V30 34071 H 3080.21 -1.99098 5.12484 0
M  V30 34072 H 3081.43 -2.5287 6.30265 0
M  V30 34073 H 3079.38 -4.31347 4.94242 0
M  V30 34074 H 3079.3 -3.73376 6.57363 0
M  V30 34075 H 3080.57 -4.83173 6.1169 0
M  V30 34076 N 3084.79 -1.55421 -0.261185 0
M  V30 34077 C 3086.04 -1.76844 -0.992667 0
M  V30 34078 C 3086.37 -0.57446 -1.85509 0
M  V30 34079 O 3085.65 0.427679 -1.8974 0
M  V30 34080 C 3085.93 -3.08026 -1.86527 0
M  V30 34081 C 3085.78 -4.37801 -1.03199 0
M  V30 34082 C 3087.1 -3.35329 -2.8503 0
M  V30 34083 H 3084.22 -0.643394 -0.359461 0
M  V30 34084 H 3086.86 -1.88154 -0.264181 0
M  V30 34085 H 3085.01 -2.98515 -2.48639 0
M  V30 34086 H 3086.69 -4.59285 -0.430662 0
M  V30 34087 H 3084.93 -4.32498 -0.335835 0
M  V30 34088 H 3085.6 -5.25941 -1.67601 0
M  V30 34089 H 3088.08 -3.4471 -2.33053 0
M  V30 34090 H 3086.95 -4.2836 -3.43218 0
M  V30 34091 H 3087.21 -2.55543 -3.60763 0
M  V30 34092 N 3086.27 0.526227 -1.48555 0
M  V30 34093 C 3087.22 1.65136 -1.63807 0
M  V30 34094 C 3088.21 1.61715 -0.504426 0
M  V30 34095 O 3089.42 1.66528 -0.68327 0
M  V30 34096 H 3085.8 0.54696 -0.51608 0
M  V30 34097 H 3087.77 1.49417 -2.58297 0
M  V30 34098 C 3086.52 3.03392 -1.69848 0
M  V30 34099 H 3085.84 3.0672 -2.56443 0
M  V30 34100 H 3087.28 3.81723 -1.84562 0
M  V30 34101 C 3085.74 3.34042 -0.437934 0
M  V30 34102 O 3086.27 3.99199 0.447534 0
M  V30 34103 N 3084.47 2.88958 -0.308494 0
M  V30 34104 H 3084.02 2.36111 -1.03003 0
M  V30 34105 H 3083.98 3.09834 0.533898 0
M  V30 34106 N 3087.75 1.37206 0.775387 0
M  V30 34107 C 3088.7 1.32674 1.88855 0
M  V30 34108 C 3089.67 0.192928 1.64976 0
M  V30 34109 O 3090.85 0.381706 1.86943 0
M  V30 34110 C 3087.99 1.13593 3.25869 0
M  V30 34111 C 3087.11 2.36173 3.61727 0
M  V30 34112 C 3086.24 2.09993 4.87931 0
M  V30 34113 C 3085.28 3.28459 5.16509 0
M  V30 34114 N 3084.42 3.01853 6.339 0
M  V30 34115 H 3089.26 2.2785 1.92064 0
M  V30 34116 H 3086.79 1.13227 0.939046 0
M  V30 34117 H 3088.75 1.00553 4.04901 0
M  V30 34118 H 3087.38 0.22067 3.22045 0
M  V30 34119 H 3086.43 2.59967 2.77708 0
M  V30 34120 H 3087.75 3.24535 3.78786 0
M  V30 34121 H 3086.9 1.93963 5.74859 0
M  V30 34122 H 3085.64 1.18964 4.72968 0
M  V30 34123 H 3084.64 3.45032 4.28057 0
M  V30 34124 H 3085.87 4.20334 5.33382 0
M  V30 34125 H 3083.81 2.1345 6.20302 0
M  V30 34126 H 3083.73 3.83757 6.51357 0
M  V30 34127 H 3085 2.89433 7.23774 0
M  V30 34128 N 3089.23 -1.00115 1.21716 0
M  V30 34129 C 3090.16 -2.08694 0.92315 0
M  V30 34130 C 3091.14 -1.62073 -0.130799 0
M  V30 34131 O 3092.32 -1.885 -0.000997509 0
M  V30 34132 C 3089.45 -3.36483 0.386866 0
M  V30 34133 C 3088.5 -4.02018 1.42422 0
M  V30 34134 S 3089.33 -4.43932 2.99474 0
M  V30 34135 C 3090.49 -5.74903 2.47462 0
M  V30 34136 H 3090.72 -2.33312 1.84263 0
M  V30 34137 H 3088.25 -1.13448 1.04732 0
M  V30 34138 H 3090.21 -4.10414 0.0840268 0
M  V30 34139 H 3088.87 -3.0991 -0.511359 0
M  V30 34140 H 3088.06 -4.94006 0.998679 0
M  V30 34141 H 3087.67 -3.34378 1.67533 0
M  V30 34142 H 3089.96 -6.50839 1.88188 0
M  V30 34143 H 3090.9 -6.22273 3.37908 0
M  V30 34144 H 3091.31 -5.31908 1.89036 0
M  V30 34145 N 3090.71 -1.02553 -1.19669 0
M  V30 34146 C 3091.94 -0.738474 -1.92951 0
M  V30 34147 C 3092.35 0.706124 -1.75529 0
M  V30 34148 O 3091.69 1.49154 -1.07232 0
M  V30 34149 C 3091.75 -1.00568 -3.45147 0
M  V30 34150 C 3091.41 -2.44116 -3.86337 0
M  V30 34151 C 3092.41 -3.42238 -3.91368 0
M  V30 34152 C 3090.1 -2.78427 -4.18071 0
M  V30 34153 C 3092.09 -4.72728 -4.2756 0
M  V30 34154 C 3089.78 -4.09128 -4.53936 0
M  V30 34155 C 3090.78 -5.06089 -4.58654 0
M  V30 34156 O 3090.46 -6.34449 -4.9369 0
M  V30 34157 H 3090.2 -0.269787 -0.619832 0
M  V30 34158 H 3092.75 -1.37209 -1.52849 0
M  V30 34159 H 3090.98 -0.314916 -3.85416 0
M  V30 34160 H 3092.67 -0.708812 -3.99663 0
M  V30 34161 H 3093.43 -3.17068 -3.67005 0
M  V30 34162 H 3089.31 -2.03638 -4.13585 0
M  V30 34163 H 3092.86 -5.48406 -4.31157 0
M  V30 34164 H 3088.75 -4.34073 -4.77756 0
M  V30 34165 H 3089.52 -6.38871 -5.1165 0
M  V30 34166 N 3092.19 1.35612 -0.802945 0
M  V30 34167 C 3093.13 2.29854 -0.208781 0
M  V30 34168 C 3094.1 1.52636 0.655101 0
M  V30 34169 O 3095.29 1.81089 0.600947 0
M  V30 34170 C 3092.43 3.39121 0.639604 0
M  V30 34171 C 3091.54 4.31309 -0.24431 0
M  V30 34172 C 3090.68 5.27666 0.611732 0
M  V30 34173 C 3089.71 6.11492 -0.272805 0
M  V30 34174 N 3088.85 6.99997 0.542999 0
M  V30 34175 H 3093.69 2.80078 -1.01787 0
M  V30 34176 H 3091.23 1.37847 -0.513489 0
M  V30 34177 H 3093.19 4.01134 1.14661 0
M  V30 34178 H 3091.82 2.90183 1.41399 0
M  V30 34179 H 3090.87 3.70332 -0.869387 0
M  V30 34180 H 3092.18 4.90143 -0.925288 0
M  V30 34181 H 3091.33 5.95034 1.18401 0
M  V30 34182 H 3090.07 4.6932 1.32629 0
M  V30 34183 H 3089.08 5.43074 -0.857382 0
M  V30 34184 H 3090.3 6.71916 -0.985169 0
M  V30 34185 H 3088.25 6.44143 1.2416 0
M  V30 34186 H 3088.17 7.55958 -0.0800095 0
M  V30 34187 H 3089.43 7.71719 1.09867 0
M  V30 34188 N 3093.66 0.556128 1.47462 0
M  V30 34189 C 3094.94 -0.0339548 1.95571 0
M  V30 34190 C 3095.32 -1.48666 1.49872 0
M  V30 34191 O 3094.67 -2.16286 0.737057 0
M  V30 34192 C 3094.88 0.110404 3.48825 0
M  V30 34193 C 3096.23 -0.035497 4.24585 0
M  V30 34194 O 3097.25 0.0378982 3.5618 0
M  V30 34195 O 3096.11 -0.193203 5.46158 0
M  V30 34196 H 3093.2 -0.0647376 0.824462 0
M  V30 34197 H 3095.75 0.622575 1.57867 0
M  V30 34198 H 3094.52 1.12133 3.74889 0
M  V30 34199 H 3094.14 -0.583786 3.93291 0
M  V30 34200 N 3095.14 -1.54861 0.292527 0
M  V30 34201 C 3096.56 -1.59483 -0.061118 0
M  V30 34202 C 3096.76 -1.30961 -1.53139 0
M  V30 34203 O 3095.81 -1.07891 -2.28289 0
M  V30 34204 C 3097.13 -2.98893 0.329195 0
M  V30 34205 C 3098.67 -3.1177 0.277255 0
M  V30 34206 C 3099.15 -4.53474 0.642264 0
M  V30 34207 N 3100.64 -4.59369 0.594476 0
M  V30 34208 C 3101.38 -5.67073 0.849485 0
M  V30 34209 N 3100.87 -6.82849 1.17002 0
M  V30 34210 N 3102.66 -5.56702 0.777114 0
M  V30 34211 H 3094.82 -1.71663 1.25082 0
M  V30 34212 H 3097.08 -0.801331 0.50653 0
M  V30 34213 H 3096.78 -3.24659 1.35238 0
M  V30 34214 H 3096.66 -3.75828 -0.321376 0
M  V30 34215 H 3099.05 -2.85757 -0.736675 0
M  V30 34216 H 3099.13 -2.37008 0.96233 0
M  V30 34217 H 3098.77 -4.80215 1.65396 0
M  V30 34218 H 3098.7 -5.2656 -0.0647906 0
M  V30 34219 H 3101.19 -3.76207 0.357322 0
M  V30 34220 H 3101.5 -7.60903 1.3508 0
M  V30 34221 H 3099.85 -6.84422 1.20797 0
M  V30 34222 H 3103.04 -4.65131 0.526415 0
M  V30 34223 H 3103.21 -6.40558 0.979225 0
M  V30 34224 N 3096.62 -0.0200973 -1.57587 0
M  V30 34225 C 3097.55 0.993323 -2.06557 0
M  V30 34226 C 3098.56 1.2945 -0.98725 0
M  V30 34227 O 3099.75 1.26073 -1.26364 0
M  V30 34228 C 3096.85 2.32305 -2.46754 0
M  V30 34229 C 3096.03 2.20836 -3.77558 0
M  V30 34230 C 3095.09 3.36667 -4.04403 0
M  V30 34231 O 3094.11 3.13955 -4.74785 0
M  V30 34232 N 3095.31 4.6017 -3.5387 0
M  V30 34233 H 3098.08 0.575565 -2.94121 0
M  V30 34234 H 3095.64 0.166861 -1.61038 0
M  V30 34235 H 3097.63 3.08604 -2.61812 0
M  V30 34236 H 3096.2 2.65753 -1.64603 0
M  V30 34237 H 3095.42 1.29321 -3.72384 0
M  V30 34238 H 3096.71 2.10367 -4.63274 0
M  V30 34239 H 3096.11 4.81518 -2.96912 0
M  V30 34240 H 3094.66 5.33668 -3.74222 0
M  V30 34241 N 3098.1 1.55557 0.252939 0
M  V30 34242 C 3099.35 1.76756 0.979881 0
M  V30 34243 C 3099.67 0.582977 1.86082 0
M  V30 34244 O 3098.94 -0.401463 1.91742 0
M  V30 34245 H 3097.52 0.65187 0.364793 0
M  V30 34246 H 3100.18 1.92988 0.272339 0
M  V30 34247 H 3099.27 2.6766 1.60513 0
M  V30 34248 N 3099.58 -0.518341 1.48832 0
M  V30 34249 C 3100.99 -0.847956 1.3521 0
M  V30 34250 C 3101.19 -1.98037 0.371962 0
M  V30 34251 O 3100.25 -2.51686 -0.202637 0
M  V30 34252 C 3101.56 -1.2045 2.75522 0
M  V30 34253 C 3103.11 -1.31372 2.84096 0
M  V30 34254 C 3103.58 -1.70364 4.25135 0
M  V30 34255 N 3105.07 -1.77445 4.27864 0
M  V30 34256 C 3105.81 -2.09025 5.33944 0
M  V30 34257 N 3105.31 -2.38948 6.50289 0
M  V30 34258 N 3107.1 -2.1013 5.21346 0
M  V30 34259 H 3099.25 0.228661 2.11166 0
M  V30 34260 H 3101.51 0.0396765 0.947169 0
M  V30 34261 H 3101.22 -0.44593 3.48862 0
M  V30 34262 H 3101.09 -2.15199 3.09789 0
M  V30 34263 H 3103.48 -2.06304 2.11004 0
M  V30 34264 H 3103.56 -0.347158 2.53433 0
M  V30 34265 H 3103.2 -0.959887 4.98747 0
M  V30 34266 H 3103.13 -2.6809 4.5325 0
M  V30 34267 H 3105.63 -1.56551 3.43948 0
M  V30 34268 H 3105.94 -2.62184 7.26966 0
M  V30 34269 H 3104.28 -2.36442 6.53544 0
M  V30 34270 H 3107.47 -1.86218 4.29466 0
M  V30 34271 H 3107.65 -2.34408 6.04117 0
M  V30 34272 N 3101.05 -1.37615 -0.7681 0
M  V30 34273 C 3102.3 -1.33025 -1.52678 0
M  V30 34274 C 3102.63 0.0841577 -1.94318 0
M  V30 34275 O 3101.88 1.05817 -1.64624 0
M  V30 34276 C 3102.18 -2.21861 -2.802 0
M  V30 34277 C 3101.85 -3.70075 -2.57595 0
M  V30 34278 C 3100.51 -4.10466 -2.51139 0
M  V30 34279 C 3102.86 -4.63957 -2.37474 0
M  V30 34280 C 3100.19 -5.42849 -2.22556 0
M  V30 34281 C 3102.54 -5.96581 -2.10414 0
M  V30 34282 C 3101.21 -6.36073 -2.02405 0
M  V30 34283 H 3100.48 -0.486773 -0.558689 0
M  V30 34284 H 3103.12 -1.69853 -0.884441 0
M  V30 34285 H 3101.43 -1.78041 -3.49011 0
M  V30 34286 H 3103.13 -2.15621 -3.38095 0
M  V30 34287 H 3099.72 -3.38044 -2.63485 0
M  V30 34288 H 3103.9 -4.33608 -2.4145 0
M  V30 34289 H 3099.16 -5.72406 -2.14853 0
M  V30 34290 H 3103.33 -6.68878 -1.93845 0
M  V30 34291 H 3100.96 -7.38577 -1.80021 0
M  V30 34292 N 3102.53 0.994677 -1.22245 0
M  V30 34293 C 3103.81 1.7073 -0.954489 0
M  V30 34294 C 3104.19 2.04315 0.530909 0
M  V30 34295 O 3103.54 1.72505 1.49848 0
M  V30 34296 C 3103.75 2.95919 -1.85021 0
M  V30 34297 C 3105.09 3.68734 -2.10523 0
M  V30 34298 O 3106.12 3.05923 -1.82455 0
M  V30 34299 O 3104.98 4.81738 -2.58052 0
M  V30 34300 H 3102.07 0.74511 -0.358803 0
M  V30 34301 H 3104.62 1.05118 -1.33223 0
M  V30 34302 H 3103.39 2.67589 -2.85502 0
M  V30 34303 H 3103.01 3.6927 -1.47395 0
M  V30 34304 N 3104.01 1.03186 1.19123 0
M  V30 34305 C 3105.43 0.749471 1.40908 0
M  V30 34306 C 3105.63 -0.664695 1.90221 0
M  V30 34307 O 3104.68 -1.43024 2.08087 0
M  V30 34308 C 3105.99 1.78811 2.41758 0
M  V30 34309 C 3107.54 1.808 2.555 0
M  V30 34310 C 3108.02 2.83632 3.59607 0
M  V30 34311 N 3109.51 2.82468 3.67105 0
M  V30 34312 C 3110.24 3.58688 4.4736 0
M  V30 34313 N 3109.74 4.44632 5.31295 0
M  V30 34314 N 3111.53 3.47216 4.42038 0
M  V30 34315 H 3103.68 1.94459 0.854365 0
M  V30 34316 H 3105.95 0.840886 0.437738 0
M  V30 34317 H 3105.65 2.80203 2.12554 0
M  V30 34318 H 3105.53 1.61289 3.40978 0
M  V30 34319 H 3107.91 0.800853 2.84025 0
M  V30 34320 H 3107.99 2.02399 1.56424 0
M  V30 34321 H 3107.64 3.8452 3.31823 0
M  V30 34322 H 3107.57 2.59291 4.5834 0
M  V30 34323 H 3110.06 2.20136 3.07162 0
M  V30 34324 H 3110.37 4.99522 5.89659 0
M  V30 34325 H 3108.72 4.48704 5.30745 0
M  V30 34326 H 3111.91 2.79484 3.75508 0
M  V30 34327 H 3112.08 4.06868 5.04343 0
M  V30 34328 N 3105.49 -1.35184 0.810125 0
M  V30 34329 C 3106.71 -2.03434 0.403676 0
M  V30 34330 C 3107.14 -1.60643 -0.978541 0
M  V30 34331 O 3106.5 -0.784808 -1.63433 0
M  V30 34332 C 3106.54 -3.57128 0.499217 0
M  V30 34333 O 3105.65 -4.09527 -0.485967 0
M  V30 34334 H 3104.99 -0.64238 0.168061 0
M  V30 34335 H 3107.52 -1.72706 1.09699 0
M  V30 34336 H 3107.53 -4.06316 0.370308 0
M  V30 34337 H 3106.2 -3.87621 1.5074 0
M  V30 34338 H 3104.78 -3.7155 -0.317004 0
M  V30 34339 N 3106.97 -0.56394 -1.47165 0
M  V30 34340 C 3108.21 -0.0424694 -2.02756 0
M  V30 34341 C 3108.55 1.30668 -1.43665 0
M  V30 34342 O 3107.82 1.85185 -0.594708 0
M  V30 34343 C 3108.1 0.043416 -3.60074 0
M  V30 34344 C 3107.96 -1.3333 -4.29585 0
M  V30 34345 C 3109.28 0.753492 -4.33602 0
M  V30 34346 H 3106.39 -0.0169076 -0.736806 0
M  V30 34347 H 3109.04 -0.727527 -1.75519 0
M  V30 34348 H 3107.19 0.626839 -3.8341 0
M  V30 34349 H 3108.86 -1.96045 -4.17569 0
M  V30 34350 H 3107.1 -1.90617 -3.89676 0
M  V30 34351 H 3107.77 -1.22586 -5.38216 0
M  V30 34352 H 3110.25 0.258053 -4.15299 0
M  V30 34353 H 3109.12 0.782564 -5.43293 0
M  V30 34354 H 3109.39 1.81101 -4.03305 0
M  V30 34355 N 3108.44 1.54704 -0.300735 0
M  V30 34356 C 3109.35 2.2719 0.584956 0
M  V30 34357 C 3110.37 1.30699 1.14864 0
M  V30 34358 O 3111.55 1.63681 1.17348 0
M  V30 34359 C 3108.61 2.99834 1.74071 0
M  V30 34360 C 3107.67 4.11862 1.21113 0
M  V30 34361 C 3106.91 4.81032 2.3118 0
M  V30 34362 O 3107.13 4.4956 3.51072 0
M  V30 34363 O 3106.06 5.6844 1.97887 0
M  V30 34364 H 3109.89 3.037 -0.00303516 0
M  V30 34365 H 3107.47 1.49249 -0.0672064 0
M  V30 34366 H 3109.36 3.454 2.41407 0
M  V30 34367 H 3108.03 2.26219 2.31531 0
M  V30 34368 H 3106.94 3.70696 0.503505 0
M  V30 34369 H 3108.27 4.87453 0.68196 0
M  V30 34370 N 3109.92 0.0284543 1.57574 0
M  V30 34371 C 3110.87 -0.953621 2.10178 0
M  V30 34372 C 3111.84 -1.32345 1.0037 0
M  V30 34373 O 3113.02 -1.41688 1.27785 0
M  V30 34374 C 3110.16 -2.23096 2.63291 0
M  V30 34375 C 3109.28 -1.91764 3.87105 0
M  V30 34376 C 3108.41 -3.13788 4.28615 0
M  V30 34377 C 3107.45 -2.78272 5.45189 0
M  V30 34378 N 3106.59 -3.92919 5.81858 0
M  V30 34379 H 3111.43 -0.498125 2.93807 0
M  V30 34380 H 3108.97 -0.234276 1.45222 0
M  V30 34381 H 3110.92 -2.97808 2.92175 0
M  V30 34382 H 3109.55 -2.66263 1.82494 0
M  V30 34383 H 3108.61 -1.07297 3.64954 0
M  V30 34384 H 3109.92 -1.61606 4.71895 0
M  V30 34385 H 3109.07 -3.9682 4.58932 0
M  V30 34386 H 3107.81 -3.47106 3.42591 0
M  V30 34387 H 3106.82 -1.93652 5.14567 0
M  V30 34388 H 3108.04 -2.46171 6.32911 0
M  V30 34389 H 3105.99 -4.26081 4.9879 0
M  V30 34390 H 3105.9 -3.66383 6.61286 0
M  V30 34391 H 3107.17 -4.76658 6.1678 0
M  V30 34392 N 3111.4 -1.55689 -0.244686 0
M  V30 34393 C 3112.65 -1.78803 -0.969592 0
M  V30 34394 C 3113 -0.597748 -1.82879 0
M  V30 34395 O 3112.29 0.408945 -1.87185 0
M  V30 34396 C 3112.49 -3.05086 -1.86164 0
M  V30 34397 C 3112.32 -4.36283 -1.09029 0
M  V30 34398 C 3111.09 -4.99015 -0.794497 0
M  V30 34399 C 3113.29 -5.12177 -0.466793 0
M  V30 34400 N 3111.27 -6.139 0.000687852 0
M  V30 34401 C 3112.64 -6.197 0.192864 0
M  V30 34402 C 3114.69 -4.96467 -0.377484 0
M  V30 34403 C 3113.4 -7.1322 0.933258 0
M  V30 34404 C 3115.42 -5.90367 0.349385 0
M  V30 34405 C 3114.78 -6.97299 0.997671 0
M  V30 34406 H 3110.88 -0.706215 -0.335833 0
M  V30 34407 H 3113.47 -1.93184 -0.242525 0
M  V30 34408 H 3111.64 -2.9203 -2.56072 0
M  V30 34409 H 3113.37 -3.16486 -2.52228 0
M  V30 34410 H 3110.13 -4.60485 -1.10683 0
M  V30 34411 H 3110.55 -6.75896 0.386438 0
M  V30 34412 H 3115.19 -4.1387 -0.864357 0
M  V30 34413 H 3112.91 -7.95316 1.43173 0
M  V30 34414 H 3116.5 -5.80288 0.419184 0
M  V30 34415 H 3115.38 -7.68706 1.55114 0
M  V30 34416 N 3112.88 0.510441 -1.49105 0
M  V30 34417 C 3114.29 0.840773 -1.35658 0
M  V30 34418 C 3114.49 1.97837 -0.382459 0
M  V30 34419 O 3113.55 2.5179 0.189286 0
M  V30 34420 C 3114.86 1.18987 -2.76157 0
M  V30 34421 C 3116.41 1.29863 -2.84789 0
M  V30 34422 C 3116.89 1.68107 -4.26033 0
M  V30 34423 N 3118.38 1.75174 -4.28799 0
M  V30 34424 C 3119.11 2.06191 -5.35045 0
M  V30 34425 N 3118.61 2.35496 -6.51547 0
M  V30 34426 N 3120.4 2.07362 -5.22453 0
M  V30 34427 H 3112.55 -0.239857 -2.11041 0
M  V30 34428 H 3114.82 -0.044699 -0.946946 0
M  V30 34429 H 3114.52 0.427423 -3.49093 0
M  V30 34430 H 3114.4 2.13553 -3.10926 0
M  V30 34431 H 3116.78 2.05182 -2.12095 0
M  V30 34432 H 3116.86 0.333713 -2.53614 0
M  V30 34433 H 3116.51 0.933424 -4.99249 0
M  V30 34434 H 3116.44 2.65683 -4.54665 0
M  V30 34435 H 3118.93 1.54724 -3.44773 0
M  V30 34436 H 3119.24 2.58325 -7.28346 0
M  V30 34437 H 3117.59 2.32973 -6.54789 0
M  V30 34438 H 3120.78 1.83937 -4.30447 0
M  V30 34439 H 3120.95 2.31201 -6.05351 0
M  V30 34440 N 3114.36 1.38021 0.760791 0
M  V30 34441 C 3115.77 1.1906 1.06287 0
M  V30 34442 C 3115.97 0.0342957 2.01471 0
M  V30 34443 O 3115.03 -0.622197 2.44714 0
M  V30 34444 C 3116.34 2.51396 1.64986 0
M  V30 34445 C 3117.89 2.58016 1.77191 0
M  V30 34446 C 3118.36 3.9051 2.39303 0
M  V30 34447 N 3119.86 3.92011 2.46742 0
M  V30 34448 C 3120.59 4.91286 2.95678 0
M  V30 34449 N 3120.09 6.00958 3.44705 0
M  V30 34450 N 3121.88 4.78682 2.94653 0
M  V30 34451 H 3114.03 2.12008 0.129007 0
M  V30 34452 H 3116.29 0.940392 0.119861 0
M  V30 34453 H 3116 3.36428 1.02514 0
M  V30 34454 H 3115.87 2.69275 2.64142 0
M  V30 34455 H 3118.26 1.73384 2.38793 0
M  V30 34456 H 3118.34 2.44011 0.767602 0
M  V30 34457 H 3117.99 4.75561 1.78338 0
M  V30 34458 H 3117.92 4.01823 3.40362 0
M  V30 34459 H 3120.41 3.12793 2.12059 0
M  V30 34460 H 3120.72 6.72648 3.8048 0
M  V30 34461 H 3119.06 6.04588 3.42781 0
M  V30 34462 H 3122.26 3.92118 2.55658 0
M  V30 34463 H 3122.43 5.56203 3.32479 0
M  V30 34464 N 3115.83 -0.98818 1.22771 0
M  V30 34465 C 3117.08 -1.72839 1.05512 0
M  V30 34466 C 3117.41 -1.90149 -0.409111 0
M  V30 34467 O 3116.66 -1.44529 -1.31947 0
M  V30 34468 C 3116.96 -3.13463 1.71684 0
M  V30 34469 C 3116.63 -3.16055 3.2159 0
M  V30 34470 C 3115.29 -3.1647 3.62492 0
M  V30 34471 C 3117.64 -3.11976 4.17517 0
M  V30 34472 C 3114.97 -3.10512 4.97794 0
M  V30 34473 C 3117.32 -3.07561 5.52801 0
M  V30 34474 C 3115.99 -3.06293 5.93077 0
M  V30 34475 H 3115.26 -0.632464 0.386096 0
M  V30 34476 H 3117.9 -1.15698 1.52598 0
M  V30 34477 H 3116.21 -3.73943 1.16936 0
M  V30 34478 H 3117.91 -3.69489 1.55816 0
M  V30 34479 H 3114.5 -3.16485 2.89024 0
M  V30 34480 H 3118.68 -3.10802 3.86931 0
M  V30 34481 H 3113.94 -3.07879 5.28224 0
M  V30 34482 H 3118.11 -3.03361 6.26853 0
M  V30 34483 H 3115.74 -3.01432 6.97885 0
M  V30 34484 N 3117.31 -1.03816 -1.18575 0
M  V30 34485 C 3118.26 -0.597447 -2.20033 0
M  V30 34486 C 3119.25 0.358768 -1.56849 0
M  V30 34487 O 3120.44 0.178231 -1.761 0
M  V30 34488 C 3117.57 0.0407361 -3.43276 0
M  V30 34489 C 3116.65 -0.938477 -4.13586 0
M  V30 34490 N 3117.04 -2.10455 -4.59937 0
M  V30 34491 C 3115.34 -0.763931 -4.39409 0
M  V30 34492 C 3116.04 -2.72291 -5.14036 0
M  V30 34493 N 3115.02 -2.00185 -5.05398 0
M  V30 34494 H 3118.82 -1.4861 -2.53559 0
M  V30 34495 H 3116.34 -0.906408 -1.34752 0
M  V30 34496 H 3118.33 0.374149 -4.15218 0
M  V30 34497 H 3116.99 0.924959 -3.11247 0
M  V30 34498 H 3118 -2.48355 -4.54467 0
M  V30 34499 H 3114.68 0.0704135 -4.17441 0
M  V30 34500 H 3116.07 -3.71098 -5.60122 0
M  V30 34501 N 3118.79 1.34753 -0.817283 0
M  V30 34502 C 3120.02 2.02391 -0.414884 0
M  V30 34503 C 3120.43 1.61711 0.982157 0
M  V30 34504 O 3119.77 0.81551 1.64606 0
M  V30 34505 C 3119.83 3.56907 -0.431044 0
M  V30 34506 C 3119.5 4.20891 -1.78044 0
M  V30 34507 C 3120.49 4.41811 -2.74042 0
M  V30 34508 C 3118.18 4.57782 -2.06738 0
M  V30 34509 C 3120.17 4.9874 -3.9691 0
M  V30 34510 C 3117.86 5.14423 -3.29867 0
M  V30 34511 C 3118.86 5.34845 -4.2477 0
M  V30 34512 O 3118.55 5.90288 -5.45724 0
M  V30 34513 H 3118.28 0.655452 -0.165404 0
M  V30 34514 H 3120.83 1.73127 -1.10527 0
M  V30 34515 H 3119.06 3.85407 0.316006 0
M  V30 34516 H 3120.75 4.0587 -0.049478 0
M  V30 34517 H 3121.52 4.1368 -2.53168 0
M  V30 34518 H 3117.4 4.41194 -1.33674 0
M  V30 34519 H 3120.94 5.14596 -4.70996 0
M  V30 34520 H 3116.84 5.41983 -3.50606 0
M  V30 34521 H 3117.61 6.08728 -5.47167 0
M  V30 34522 N 3120.27 0.571737 1.46864 0
M  V30 34523 C 3121.55 -0.0132101 1.95596 0
M  V30 34524 C 3121.93 -1.47068 1.5144 0
M  V30 34525 O 3121.27 -2.15492 0.759955 0
M  V30 34526 C 3121.48 0.147396 3.48689 0
M  V30 34527 C 3122.83 0.00953793 4.24599 0
M  V30 34528 O 3123.86 0.0756737 3.5612 0
M  V30 34529 O 3122.72 -0.135265 5.46333 0
M  V30 34530 H 3119.81 -0.0559894 0.825103 0
M  V30 34531 H 3122.36 0.639284 1.57198 0
M  V30 34532 H 3121.13 1.16103 3.73679 0
M  V30 34533 H 3120.75 -0.542039 3.93888 0
M  V30 34534 N 3121.75 -1.54542 0.308935 0
M  V30 34535 C 3123 -1.99474 -0.298818 0
M  V30 34536 C 3123.31 -1.20095 -1.54391 0
M  V30 34537 O 3124.52 -1.55333 -2.22674 0
M  V30 34538 C 3122.97 -3.55147 -0.582968 0
M  V30 34539 C 3122.58 -4.43344 0.644235 0
M  V30 34540 C 3124.32 -4.08584 -1.15148 0
M  V30 34541 C 3122.23 -5.90463 0.332798 0
M  V30 34542 H 3121.16 -0.745112 -0.115432 0
M  V30 34543 H 3123.81 -1.78655 0.418879 0
M  V30 34544 H 3122.19 -3.71897 -1.36047 0
M  V30 34545 H 3123.37 -4.38369 1.4202 0
M  V30 34546 H 3121.68 -4.0072 1.13193 0
M  V30 34547 H 3124.28 -5.16077 -1.39887 0
M  V30 34548 H 3124.62 -3.5967 -2.09626 0
M  V30 34549 H 3125.16 -3.95409 -0.435501 0
M  V30 34550 H 3121.89 -6.43542 1.24635 0
M  V30 34551 H 3121.41 -5.98426 -0.405739 0
M  V30 34552 H 3123.09 -6.4697 -0.0627408 0
M  V30 34553 N 3123.23 -0.0368104 -1.57557 0
M  V30 34554 C 3124.17 0.942462 -2.10681 0
M  V30 34555 C 3125.14 1.31811 -1.0107 0
M  V30 34556 O 3126.33 1.41008 -1.28535 0
M  V30 34557 C 3123.47 2.21696 -2.64471 0
M  V30 34558 C 3122.58 1.89708 -3.88117 0
M  V30 34559 C 3121.72 3.1151 -4.30273 0
M  V30 34560 C 3120.75 2.75377 -5.46657 0
M  V30 34561 N 3119.89 3.89828 -5.83934 0
M  V30 34562 H 3124.73 0.482536 -2.94067 0
M  V30 34563 H 3122.27 0.226571 -1.45345 0
M  V30 34564 H 3124.23 2.96254 -2.93751 0
M  V30 34565 H 3122.86 2.65291 -1.83903 0
M  V30 34566 H 3121.91 1.0536 -3.65518 0
M  V30 34567 H 3123.22 1.59102 -4.72745 0
M  V30 34568 H 3122.37 3.94381 -4.6103 0
M  V30 34569 H 3121.11 3.45284 -3.44427 0
M  V30 34570 H 3120.12 1.9092 -5.15587 0
M  V30 34571 H 3121.34 2.42811 -6.34208 0
M  V30 34572 H 3119.29 4.2343 -5.01042 0
M  V30 34573 H 3119.21 3.62871 -6.6322 0
M  V30 34574 H 3120.47 4.7338 -6.19299 0
M  V30 34575 N 3124.7 1.55817 0.236426 0
M  V30 34576 C 3125.95 1.77338 0.96095 0
M  V30 34577 C 3126.27 0.602674 1.86084 0
M  V30 34578 O 3127.47 0.701152 2.6229 0
M  V30 34579 C 3125.93 3.13998 1.75879 0
M  V30 34580 C 3125.54 4.38748 0.905772 0
M  V30 34581 C 3127.28 3.44853 2.47542 0
M  V30 34582 C 3125.19 5.66437 1.7001 0
M  V30 34583 H 3124.12 0.661124 0.362535 0
M  V30 34584 H 3126.77 1.82233 0.215271 0
M  V30 34585 H 3125.15 3.03238 2.54681 0
M  V30 34586 H 3126.32 4.60524 0.159334 0
M  V30 34587 H 3124.64 4.15304 0.301977 0
M  V30 34588 H 3127.24 4.37473 3.07444 0
M  V30 34589 H 3127.58 2.6666 3.19684 0
M  V30 34590 H 3128.11 3.56875 1.75741 0
M  V30 34591 H 3124.85 6.4748 1.02222 0
M  V30 34592 H 3124.37 5.48745 2.42154 0
M  V30 34593 H 3126.05 6.06074 2.26458 0
M  V30 34594 N 3126.18 -0.502526 1.49373 0
M  V30 34595 C 3127.43 -1.25675 1.58783 0
M  V30 34596 C 3127.76 -1.92562 0.273853 0
M  V30 34597 O 3127.01 -1.81247 -0.73811 0
M  V30 34598 C 3127.31 -2.3473 2.69512 0
M  V30 34599 C 3126.98 -1.85311 4.11061 0
M  V30 34600 C 3125.64 -1.71552 4.49581 0
M  V30 34601 C 3127.99 -1.48303 4.99655 0
M  V30 34602 C 3125.32 -1.19162 5.74471 0
M  V30 34603 C 3127.67 -0.973661 6.25062 0
M  V30 34604 C 3126.33 -0.822456 6.62414 0
M  V30 34605 H 3125.6 -0.459877 0.581029 0
M  V30 34606 H 3128.25 -0.557735 1.83198 0
M  V30 34607 H 3126.56 -3.10413 2.39062 0
M  V30 34608 H 3128.25 -2.92787 2.74002 0
M  V30 34609 H 3124.84 -1.96978 3.80654 0
M  V30 34610 H 3129.03 -1.57781 4.70552 0
M  V30 34611 H 3124.28 -1.06166 6.02112 0
M  V30 34612 H 3128.46 -0.678111 6.93091 0
M  V30 34613 H 3126.08 -0.414319 7.5907 0
M  V30 34614 N 3127.66 -1.38422 -0.75346 0
M  V30 34615 C 3128.61 -1.35777 -1.88858 0
M  V30 34616 C 3129.6 -0.243637 -1.67639 0
M  V30 34617 O 3130.81 -0.41268 -1.75205 0
M  V30 34618 H 3127.18 -0.423571 -0.621363 0
M  V30 34619 H 3129.15 -2.31563 -1.88205 0
M  V30 34620 C 3127.9 -1.19984 -3.26342 0
M  V30 34621 H 3127.23 -2.04977 -3.43256 0
M  V30 34622 H 3128.67 -1.22188 -4.06012 0
M  V30 34623 C 3127.12 0.0932275 -3.36771 0
M  V30 34624 O 3127.65 1.0702 -3.87181 0
M  V30 34625 N 3125.86 0.150103 -2.90212 0
M  V30 34626 H 3125.41 -0.645606 -2.49379 0
M  V30 34627 H 3125.37 1.01485 -2.9757 0
M  V30 34628 N 3129.14 0.981655 -1.23294 0
M  V30 34629 C 3130.07 2.07624 -0.970818 0
M  V30 34630 C 3131.08 1.62708 0.054722 0
M  V30 34631 O 3132.27 1.77583 -0.180655 0
M  V30 34632 C 3129.37 3.36024 -0.440609 0
M  V30 34633 C 3128.54 4.09916 -1.52602 0
M  V30 34634 C 3127.6 5.16593 -1.00091 0
M  V30 34635 O 3126.63 5.43545 -1.68961 0
M  V30 34636 N 3127.83 5.80245 0.171915 0
M  V30 34637 H 3130.6 2.30688 -1.9132 0
M  V30 34638 H 3128.16 1.14826 -1.14135 0
M  V30 34639 H 3130.15 4.04632 -0.0743822 0
M  V30 34640 H 3128.72 3.09937 0.407156 0
M  V30 34641 H 3127.94 3.3578 -2.06507 0
M  V30 34642 H 3129.23 4.56051 -2.25598 0
M  V30 34643 H 3128.63 5.60733 0.748031 0
M  V30 34644 H 3127.18 6.50034 0.479418 0
M  V30 34645 N 3130.62 1.04444 1.18022 0
M  V30 34646 C 3131.86 0.76094 1.8863 0
M  V30 34647 C 3132.22 -0.703926 1.7906 0
M  V30 34648 O 3131.51 -1.50746 1.18264 0
M  V30 34649 C 3131.7 1.16637 3.37832 0
M  V30 34650 C 3131.53 2.6691 3.61924 0
M  V30 34651 C 3130.3 3.34112 3.79074 0
M  V30 34652 C 3132.5 3.65131 3.62193 0
M  V30 34653 N 3130.48 4.73327 3.9094 0
M  V30 34654 C 3131.85 4.90039 3.79819 0
M  V30 34655 C 3133.91 3.58707 3.45302 0
M  V30 34656 C 3132.61 6.09293 3.82301 0
M  V30 34657 C 3134.64 4.77393 3.49069 0
M  V30 34658 C 3134 6.01122 3.67195 0
M  V30 34659 H 3130.1 0.330562 0.708698 0
M  V30 34660 H 3132.68 1.33488 1.41736 0
M  V30 34661 H 3130.85 0.620467 3.83412 0
M  V30 34662 H 3132.59 0.83349 3.96024 0
M  V30 34663 H 3129.34 2.84514 3.78614 0
M  V30 34664 H 3129.76 5.45692 4.00686 0
M  V30 34665 H 3134.41 2.64021 3.30232 0
M  V30 34666 H 3132.12 7.04332 3.96159 0
M  V30 34667 H 3135.71 4.74068 3.37269 0
M  V30 34668 H 3134.59 6.91423 3.70005 0
M  V30 34669 N 3132.09 -1.34317 0.824418 0
M  V30 34670 C 3133.02 -2.32024 0.262118 0
M  V30 34671 C 3134 -1.5831 -0.622249 0
M  V30 34672 O 3135.19 -1.86284 -0.548815 0
M  V30 34673 C 3132.32 -3.42497 -0.575609 0
M  V30 34674 C 3131.27 -4.27476 0.211745 0
M  V30 34675 C 3130.6 -5.29431 -0.74882 0
M  V30 34676 C 3131.9 -5.02605 1.42077 0
M  V30 34677 H 3133.59 -2.79302 1.07847 0
M  V30 34678 H 3131.14 -1.34282 0.520046 0
M  V30 34679 H 3133.09 -4.09866 -0.979179 0
M  V30 34680 H 3131.82 -2.93872 -1.42503 0
M  V30 34681 H 3130.48 -3.61711 0.5967 0
M  V30 34682 H 3130.12 -4.77067 -1.59423 0
M  V30 34683 H 3129.82 -5.87164 -0.22621 0
M  V30 34684 H 3131.35 -5.99669 -1.15021 0
M  V30 34685 H 3132.76 -5.62821 1.09113 0
M  V30 34686 H 3131.16 -5.6992 1.87913 0
M  V30 34687 H 3132.23 -4.32213 2.19818 0
M  V30 34688 N 3133.57 -0.579517 -1.46558 0
M  V30 34689 C 3134.8 -0.0694011 -2.06784 0
M  V30 34690 C 3135.21 1.23417 -1.42877 0
M  V30 34691 O 3134.57 1.74545 -0.53295 0
M  V30 34692 C 3134.62 0.106448 -3.61343 0
M  V30 34693 O 3134.34 -1.14552 -4.22859 0
M  V30 34694 C 3135.84 0.651282 -4.3849 0
M  V30 34695 H 3133.06 -0.0559966 -0.668659 0
M  V30 34696 H 3135.61 -0.799278 -1.88233 0
M  V30 34697 H 3133.76 0.786534 -3.79332 0
M  V30 34698 H 3134.18 -0.957321 -5.15689 0
M  V30 34699 H 3135.65 0.723518 -5.47238 0
M  V30 34700 H 3136.13 1.66755 -4.06312 0
M  V30 34701 H 3136.73 0.00616854 -4.253 0
M  V30 34702 N 3135.05 1.54376 -0.317127 0
M  V30 34703 C 3135.96 2.27798 0.560827 0
M  V30 34704 C 3136.98 1.3191 1.13471 0
M  V30 34705 O 3138.15 1.64916 1.15606 0
M  V30 34706 C 3135.22 3.01663 1.70881 0
M  V30 34707 C 3134.28 4.13123 1.16738 0
M  V30 34708 C 3133.51 4.83457 2.26065 0
M  V30 34709 O 3133.73 4.53258 3.46284 0
M  V30 34710 O 3132.67 5.70507 1.91846 0
M  V30 34711 H 3136.49 3.0368 -0.0352464 0
M  V30 34712 H 3134.08 1.49169 -0.0830325 0
M  V30 34713 H 3135.96 3.47941 2.3773 0
M  V30 34714 H 3134.64 2.28662 2.29118 0
M  V30 34715 H 3133.54 3.71209 0.464159 0
M  V30 34716 H 3134.88 4.88149 0.630221 0
M  V30 34717 N 3136.53 0.0451655 1.57535 0
M  V30 34718 C 3137.49 -0.916424 2.10082 0
M  V30 34719 C 3138.49 -1.24378 1.01915 0
M  V30 34720 O 3139.68 -1.18146 1.28012 0
M  V30 34721 C 3136.81 -2.22814 2.58005 0
M  V30 34722 H 3138.01 -0.461024 2.96335 0
M  V30 34723 H 3135.56 -0.203142 1.54974 0
M  V30 34724 H 3136.29 -2.72948 1.75128 0
M  V30 34725 H 3136.08 -2.0036 3.37044 0
M  V30 34726 H 3137.57 -2.91705 2.98828 0
M  V30 34727 N 3138.01 -1.5594 -0.228159 0
M  V30 34728 C 3138.92 -1.95032 -1.30382 0
M  V30 34729 C 3139.93 -0.853245 -1.51643 0
M  V30 34730 O 3141.11 -1.15625 -1.64902 0
M  V30 34731 C 3138.17 -2.25337 -2.63485 0
M  V30 34732 C 3137.23 -3.48578 -2.50584 0
M  V30 34733 C 3136.47 -3.77427 -3.77339 0
M  V30 34734 O 3136.69 -3.08053 -4.80062 0
M  V30 34735 O 3135.62 -4.70928 -3.74847 0
M  V30 34736 H 3139.45 -2.86689 -1.00215 0
M  V30 34737 H 3137.04 -1.43064 -0.430478 0
M  V30 34738 H 3138.92 -2.46052 -3.42106 0
M  V30 34739 H 3137.59 -1.36855 -2.93347 0
M  V30 34740 H 3136.5 -3.33148 -1.70185 0
M  V30 34741 H 3137.83 -4.37421 -2.25663 0
M  V30 34742 N 3139.48 0.494597 -1.49638 0
M  V30 34743 C 3140.42 1.61228 -1.62905 0
M  V30 34744 C 3141.43 1.54557 -0.511452 0
M  V30 34745 O 3142.62 1.60373 -0.783753 0
M  V30 34746 C 3139.72 3.00042 -1.57569 0
M  V30 34747 C 3138.89 3.3183 -2.8497 0
M  V30 34748 C 3137.95 4.50085 -2.72599 0
M  V30 34749 O 3136.98 4.51552 -3.4654 0
M  V30 34750 N 3138.18 5.50376 -1.84573 0
M  V30 34751 H 3140.94 1.50272 -2.59304 0
M  V30 34752 H 3138.5 0.682594 -1.46807 0
M  V30 34753 H 3140.5 3.77082 -1.46938 0
M  V30 34754 H 3139.07 3.04889 -0.690027 0
M  V30 34755 H 3138.29 2.43625 -3.09904 0
M  V30 34756 H 3139.57 3.49868 -3.69418 0
M  V30 34757 H 3138.97 5.51995 -1.23768 0
M  V30 34758 H 3137.53 6.26493 -1.7986 0
M  V30 34759 N 3140.96 1.3882 0.746109 0
M  V30 34760 C 3142.21 1.35437 1.50542 0
M  V30 34761 C 3142.54 -0.0532327 1.94427 0
M  V30 34762 O 3141.79 -1.03185 1.66287 0
M  V30 34763 C 3142.09 2.26291 2.76635 0
M  V30 34764 C 3141.76 3.74126 2.51675 0
M  V30 34765 C 3140.42 4.1441 2.44577 0
M  V30 34766 C 3142.77 4.67676 2.30063 0
M  V30 34767 C 3140.1 5.46321 2.13892 0
M  V30 34768 C 3142.45 5.99853 2.00897 0
M  V30 34769 C 3141.12 6.39212 1.9226 0
M  V30 34770 H 3140.39 0.4956 0.550874 0
M  V30 34771 H 3143.03 1.71238 0.857307 0
M  V30 34772 H 3141.34 1.83571 3.46134 0
M  V30 34773 H 3143.03 2.20973 3.34622 0
M  V30 34774 H 3139.62 3.42193 2.58074 0
M  V30 34775 H 3143.81 4.37394 2.34521 0
M  V30 34776 H 3139.06 5.75751 2.05719 0
M  V30 34777 H 3143.24 6.71877 1.83179 0
M  V30 34778 H 3140.87 7.41348 1.68248 0
M  V30 34779 N 3142.44 -0.975103 1.23812 0
M  V30 34780 C 3143.37 -2.08636 1.04849 0
M  V30 34781 C 3144.35 -1.70061 -0.036256 0
M  V30 34782 O 3145.54 -1.93768 0.129404 0
M  V30 34783 C 3142.67 -3.41266 0.644594 0
M  V30 34784 C 3141.62 -3.93765 1.67728 0
M  V30 34785 C 3140.95 -5.22652 1.12867 0
M  V30 34786 C 3142.25 -4.22437 3.07155 0
M  V30 34787 H 3143.94 -2.24758 1.97799 0
M  V30 34788 H 3141.49 -1.08005 0.952416 0
M  V30 34789 H 3143.44 -4.18436 0.498961 0
M  V30 34790 H 3142.16 -3.25023 -0.320583 0
M  V30 34791 H 3140.82 -3.18745 1.811 0
M  V30 34792 H 3140.47 -5.02763 0.154316 0
M  V30 34793 H 3140.17 -5.58745 1.81872 0
M  V30 34794 H 3141.69 -6.02439 0.994997 0
M  V30 34795 H 3143.11 -4.90338 2.97054 0
M  V30 34796 H 3141.51 -4.69743 3.73445 0
M  V30 34797 H 3142.58 -3.29501 3.55749 0
M  V30 34798 N 3143.92 -1.05068 -1.17467 0
M  V30 34799 C 3145.33 -0.771794 -1.39698 0
M  V30 34800 C 3145.53 0.634348 -1.91254 0
M  V30 34801 O 3144.59 1.39695 -2.10336 0
M  V30 34802 C 3145.9 -1.82635 -2.38883 0
M  V30 34803 C 3147.45 -1.84842 -2.52591 0
M  V30 34804 C 3147.93 -2.89317 -3.55049 0
M  V30 34805 N 3149.42 -2.88272 -3.62565 0
M  V30 34806 C 3150.15 -3.65759 -4.41597 0
M  V30 34807 N 3149.65 -4.53028 -5.24154 0
M  V30 34808 N 3151.44 -3.54205 -4.36458 0
M  V30 34809 H 3143.59 -1.95794 -0.82332 0
M  V30 34810 H 3145.86 -0.847744 -0.424305 0
M  V30 34811 H 3145.56 -2.83549 -2.0807 0
M  V30 34812 H 3145.44 -1.66693 -3.38369 0
M  V30 34813 H 3147.82 -0.845938 -2.82715 0
M  V30 34814 H 3147.9 -2.04862 -1.53184 0
M  V30 34815 H 3147.55 -3.89751 -3.25664 0
M  V30 34816 H 3147.48 -2.6655 -4.54157 0
M  V30 34817 H 3149.97 -2.24995 -3.03621 0
M  V30 34818 H 3150.28 -5.0884 -5.81637 0
M  V30 34819 H 3148.63 -4.5709 -5.23539 0
M  V30 34820 H 3151.82 -2.85422 -3.71015 0
M  V30 34821 H 3151.99 -4.1484 -4.97807 0
M  V30 34822 N 3145.4 1.33878 -0.831529 0
M  V30 34823 C 3146.34 2.29359 -0.257489 0
M  V30 34824 C 3147.31 1.53991 0.622577 0
M  V30 34825 O 3148.5 1.82323 0.5624 0
M  V30 34826 C 3145.64 3.40401 0.567527 0
M  V30 34827 C 3144.75 4.30693 -0.335742 0
M  V30 34828 C 3143.89 5.28845 0.499669 0
M  V30 34829 C 3142.93 6.10776 -0.40245 0
M  V30 34830 N 3142.06 7.00991 0.394397 0
M  V30 34831 H 3146.9 2.77855 -1.07705 0
M  V30 34832 H 3144.44 1.36726 -0.542613 0
M  V30 34833 H 3146.4 4.03476 1.06126 0
M  V30 34834 H 3145.03 2.93117 1.35212 0
M  V30 34835 H 3144.08 3.68405 -0.947745 0
M  V30 34836 H 3145.39 4.8807 -1.02905 0
M  V30 34837 H 3144.55 5.97412 1.05753 0
M  V30 34838 H 3143.28 4.72027 1.22644 0
M  V30 34839 H 3142.29 5.41133 -0.972383 0
M  V30 34840 H 3143.51 6.69675 -1.12747 0
M  V30 34841 H 3141.46 6.46632 1.10469 0
M  V30 34842 H 3141.38 7.55618 -0.240341 0
M  V30 34843 H 3142.65 7.73875 0.934731 0
M  V30 34844 N 3146.87 0.587281 1.46249 0
M  V30 34845 C 3148.1 0.0803664 2.06744 0
M  V30 34846 C 3148.52 -1.22657 1.43529 0
M  V30 34847 O 3147.87 -1.7426 0.542199 0
M  V30 34848 C 3147.93 -0.0872834 3.61395 0
M  V30 34849 O 3147.65 1.16793 4.22245 0
M  V30 34850 C 3149.15 -0.628018 4.38829 0
M  V30 34851 H 3146.37 0.0595419 0.668353 0
M  V30 34852 H 3148.91 0.80925 1.87807 0
M  V30 34853 H 3147.07 -0.766407 3.79743 0
M  V30 34854 H 3147.48 0.984656 5.15175 0
M  V30 34855 H 3148.95 -0.694487 5.47614 0
M  V30 34856 H 3149.43 -1.64598 4.0719 0
M  V30 34857 H 3150.04 0.0163862 4.25297 0
M  V30 34858 N 3148.35 -1.54206 0.325309 0
M  V30 34859 C 3149.28 -2.21898 -0.573911 0
M  V30 34860 C 3150.3 -1.21954 -1.07848 0
M  V30 34861 O 3151.49 -1.48413 -0.991755 0
M  V30 34862 C 3148.59 -2.87118 -1.80045 0
M  V30 34863 C 3147.76 -4.13216 -1.43428 0
M  V30 34864 C 3146.82 -4.62013 -2.51854 0
M  V30 34865 O 3145.84 -5.26655 -2.15925 0
M  V30 34866 N 3147.05 -4.36388 -3.82812 0
M  V30 34867 H 3149.81 -2.99699 0.00572186 0
M  V30 34868 H 3147.37 -1.61217 0.148592 0
M  V30 34869 H 3149.36 -3.16686 -2.51976 0
M  V30 34870 H 3147.93 -2.13013 -2.28789 0
M  V30 34871 H 3147.15 -3.90393 -0.54653 0
M  V30 34872 H 3148.44 -4.95275 -1.16535 0
M  V30 34873 H 3147.84 -3.84652 -4.148 0
M  V30 34874 H 3146.4 -4.70607 -4.50968 0
M  V30 34875 N 3149.83 -0.0535194 -1.57509 0
M  V30 34876 C 3151.08 0.61921 -1.9196 0
M  V30 34877 C 3151.39 1.71865 -0.933912 0
M  V30 34878 O 3152.6 2.4497 -1.17056 0
M  V30 34879 C 3151.06 1.15272 -3.4094 0
M  V30 34880 C 3150.66 0.0852693 -4.47919 0
M  V30 34881 C 3152.41 1.80056 -3.84422 0
M  V30 34882 C 3150.31 0.631794 -5.88016 0
M  V30 34883 H 3149.24 0.23506 -0.716424 0
M  V30 34884 H 3151.9 -0.12279 -1.83089 0
M  V30 34885 H 3150.28 1.94711 -3.44824 0
M  V30 34886 H 3151.45 -0.688454 -4.55628 0
M  V30 34887 H 3149.77 -0.465251 -4.13793 0
M  V30 34888 H 3152.36 2.21945 -4.86461 0
M  V30 34889 H 3152.71 2.65322 -3.20795 0
M  V30 34890 H 3153.24 1.07269 -3.83064 0
M  V30 34891 H 3149.98 -0.18329 -6.55244 0
M  V30 34892 H 3149.5 1.37345 -5.83863 0
M  V30 34893 H 3151.18 1.11395 -6.37338 0
M  V30 34894 N 3151.31 1.56059 0.219886 0
M  V30 34895 C 3152.72 1.69314 0.786736 0
M  V30 34896 C 3153.07 0.655815 1.84915 0
M  V30 34897 O 3152.2 -0.192734 2.1554 0
M  V30 34898 C 3152.79 3.06965 1.43381 0
M  V30 34899 C 3151.35 3.22069 1.94804 0
M  V30 34900 C 3150.5 2.65242 0.808816 0
M  V30 34901 H 3153.45 1.58699 -0.00479567 0
M  V30 34902 H 3153.47 3.02915 2.30267 0
M  V30 34903 H 3152.98 3.82441 0.660338 0
M  V30 34904 H 3151.08 2.51465 2.74948 0
M  V30 34905 H 3151.2 4.29303 2.12686 0
M  V30 34906 H 3149.56 2.23767 1.21658 0
M  V30 34907 H 3150.34 3.43266 0.0479854 0
M  V30 34908 N 3152.79 -0.486655 1.49898 0
M  V30 34909 C 3153.7 -1.61267 1.70382 0
M  V30 34910 C 3154.71 -1.63813 0.586619 0
M  V30 34911 O 3155.89 -1.8197 0.863076 0
M  V30 34912 C 3152.95 -2.97568 1.77916 0
M  V30 34913 C 3152.02 -3.05535 3.01574 0
M  V30 34914 C 3151.25 -4.35334 3.08739 0
M  V30 34915 O 3151.47 -5.24956 2.23109 0
M  V30 34916 O 3150.41 -4.48571 4.01333 0
M  V30 34917 H 3154.23 -1.46912 2.65802 0
M  V30 34918 H 3151.82 -0.664492 1.33809 0
M  V30 34919 H 3153.7 -3.7855 1.85142 0
M  V30 34920 H 3152.37 -3.12155 0.856777 0
M  V30 34921 H 3151.28 -2.23687 2.99858 0
M  V30 34922 H 3152.61 -2.95879 3.9334 0
M  V30 34923 N 3154.27 -1.39214 -0.738737 0
M  V30 34924 C 3155.21 -1.37773 -1.87407 0
M  V30 34925 C 3156.21 -0.261404 -1.67371 0
M  V30 34926 O 3157.41 -0.43124 -1.74758 0
M  V30 34927 H 3153.79 -0.430137 -0.616836 0
M  V30 34928 H 3155.76 -2.33546 -1.85738 0
M  V30 34929 C 3154.51 -1.23439 -3.25051 0
M  V30 34930 H 3153.83 -2.08606 -3.41063 0
M  V30 34931 H 3155.27 -1.26487 -4.04694 0
M  V30 34932 C 3153.73 0.0575032 -3.36851 0
M  V30 34933 O 3154.26 1.02908 -3.88295 0
M  V30 34934 N 3152.47 0.119313 -2.90355 0
M  V30 34935 H 3152.01 -0.67202 -2.4868 0
M  V30 34936 H 3151.97 0.983233 -2.9863 0
M  V30 34937 N 3155.74 0.968523 -1.24328 0
M  V30 34938 C 3156.99 1.71463 -1.09416 0
M  V30 34939 C 3157.34 1.88937 0.363389 0
M  V30 34940 O 3156.64 1.43918 1.26484 0
M  V30 34941 C 3156.83 3.10692 -1.7665 0
M  V30 34942 C 3156.66 3.06799 -3.28792 0
M  V30 34943 C 3155.43 3.11326 -3.98 0
M  V30 34944 C 3157.63 2.8904 -4.25395 0
M  V30 34945 N 3155.61 2.97444 -5.37029 0
M  V30 34946 C 3156.98 2.83445 -5.51416 0
M  V30 34947 C 3159.04 2.73614 -4.1598 0
M  V30 34948 C 3157.74 2.64001 -6.69101 0
M  V30 34949 C 3159.77 2.55538 -5.33343 0
M  V30 34950 C 3159.13 2.50651 -6.58296 0
M  V30 34951 H 3155.23 0.636004 -0.454998 0
M  V30 34952 H 3157.81 1.14834 -1.5723 0
M  V30 34953 H 3155.98 3.65515 -1.31351 0
M  V30 34954 H 3157.71 3.74004 -1.54606 0
M  V30 34955 H 3154.47 3.19975 -3.4916 0
M  V30 34956 H 3154.89 2.93746 -6.09953 0
M  V30 34957 H 3159.53 2.76175 -3.20136 0
M  V30 34958 H 3157.25 2.60184 -7.65069 0
M  V30 34959 H 3160.84 2.44548 -5.27909 0
M  V30 34960 H 3159.72 2.36843 -7.4758 0
M  V30 34961 N 3157.22 1.0569 1.16908 0
M  V30 34962 C 3158.13 0.673189 2.24734 0
M  V30 34963 C 3159.15 -0.308013 1.71252 0
M  V30 34964 O 3160.32 -0.158853 2.00773 0
M  V30 34965 C 3157.39 0.0590869 3.4665 0
M  V30 34966 C 3156.45 1.09138 4.15196 0
M  V30 34967 C 3155.68 0.506484 5.31291 0
M  V30 34968 O 3155.91 -0.682592 5.66301 0
M  V30 34969 O 3154.84 1.2432 5.88921 0
M  V30 34970 H 3158.67 1.57195 2.59853 0
M  V30 34971 H 3156.25 0.828773 1.24305 0
M  V30 34972 H 3158.13 -0.281944 4.20456 0
M  V30 34973 H 3156.81 -0.813249 3.13318 0
M  V30 34974 H 3155.71 1.48448 3.43386 0
M  V30 34975 H 3157.05 1.93503 4.52567 0
M  V30 34976 N 3158.7 -1.33435 0.838617 0
M  V30 34977 C 3159.65 -2.26694 0.243721 0
M  V30 34978 C 3160.63 -1.49248 -0.601142 0
M  V30 34979 O 3161.83 -1.71101 -0.453151 0
M  V30 34980 C 3158.95 -3.38357 -0.580465 0
M  V30 34981 C 3158.04 -4.23202 0.275893 0
M  V30 34982 N 3158.43 -4.87327 1.35449 0
M  V30 34983 C 3156.73 -4.45956 0.0628831 0
M  V30 34984 C 3157.43 -5.50482 1.88 0
M  V30 34985 N 3156.41 -5.30604 1.18152 0
M  V30 34986 H 3160.21 -2.73787 1.06854 0
M  V30 34987 H 3157.72 -1.47337 0.683044 0
M  V30 34988 H 3159.72 -4.04155 -1.02294 0
M  V30 34989 H 3158.38 -2.92812 -1.40326 0
M  V30 34990 H 3159.39 -4.87889 1.73738 0
M  V30 34991 H 3156.07 -4.11131 -0.726491 0
M  V30 34992 H 3157.46 -6.11544 2.78323 0
M  V30 34993 N 3160.18 -0.595029 -1.45935 0
M  V30 34994 C 3161.14 0.121062 -2.2888 0
M  V30 34995 C 3162.14 0.807124 -1.39076 0
M  V30 34996 O 3163.33 0.6572 -1.61327 0
M  V30 34997 C 3160.46 1.18124 -3.1978 0
M  V30 34998 H 3161.66 -0.60802 -2.93672 0
M  V30 34999 H 3159.21 -0.353522 -1.5225 0
M  V30 35000 H 3159.94 1.9415 -2.59762 0
M  V30 35001 H 3159.73 0.693656 -3.85916 0
M  V30 35002 H 3161.22 1.68312 -3.82179 0
M  V30 35003 N 3161.66 1.54031 -0.333483 0
M  V30 35004 C 3162.6 2.24681 0.527942 0
M  V30 35005 C 3163.57 1.24129 1.10369 0
M  V30 35006 O 3164.76 1.52836 1.14218 0
M  V30 35007 C 3161.9 3.01556 1.67803 0
M  V30 35008 C 3161.01 4.16944 1.13056 0
M  V30 35009 C 3160.15 4.81328 2.24714 0
M  V30 35010 C 3159.18 5.88802 1.67267 0
M  V30 35011 N 3158.32 6.47008 2.72626 0
M  V30 35012 H 3163.16 2.9789 -0.0810831 0
M  V30 35013 H 3160.7 1.47009 -0.0517868 0
M  V30 35014 H 3162.66 3.4438 2.35496 0
M  V30 35015 H 3161.29 2.30663 2.25819 0
M  V30 35016 H 3160.34 3.78833 0.344882 0
M  V30 35017 H 3161.65 4.94276 0.670286 0
M  V30 35018 H 3160.8 5.27172 3.00292 0
M  V30 35019 H 3159.54 4.03399 2.74082 0
M  V30 35020 H 3158.55 5.42352 0.901907 0
M  V30 35021 H 3159.77 6.68634 1.18763 0
M  V30 35022 H 3157.72 5.71947 3.21267 0
M  V30 35023 H 3157.64 7.19782 2.31191 0
M  V30 35024 H 3158.9 6.97506 3.48003 0
M  V30 35025 N 3163.13 0.0618717 1.57479 0
M  V30 35026 C 3164.36 -0.617905 1.97143 0
M  V30 35027 C 3164.77 -1.64279 0.938562 0
M  V30 35028 O 3164.11 -1.83506 -0.0843527 0
M  V30 35029 C 3164.18 -1.35257 3.33085 0
M  V30 35030 C 3163.84 -0.482292 4.54448 0
M  V30 35031 C 3164.84 0.256045 5.19269 0
M  V30 35032 C 3162.52 -0.410079 5.00623 0
M  V30 35033 C 3164.52 1.05492 6.2861 0
M  V30 35034 C 3162.2 0.392476 6.09838 0
M  V30 35035 C 3163.2 1.12365 6.73694 0
M  V30 35036 O 3162.89 1.91299 7.80807 0
M  V30 35037 H 3162.62 -0.172957 0.6535 0
M  V30 35038 H 3165.18 0.127817 2.05002 0
M  V30 35039 H 3163.41 -2.14415 3.21812 0
M  V30 35040 H 3165.09 -1.92362 3.57424 0
M  V30 35041 H 3165.86 0.209788 4.84546 0
M  V30 35042 H 3161.74 -0.968804 4.50705 0
M  V30 35043 H 3165.28 1.62614 6.78382 0
M  V30 35044 H 3161.18 0.440333 6.43996 0
M  V30 35045 H 3161.95 1.83625 7.97637 0
M  V30 35046 N 3164.61 -1.56173 -0.211607 0
M  V30 35047 C 3165.56 -1.93223 -1.26228 0
M  V30 35048 C 3166.53 -0.790666 -1.46074 0
M  V30 35049 O 3167.71 -1.04742 -1.5948 0
M  V30 35050 C 3164.85 -2.26285 -2.60555 0
M  V30 35051 C 3163.97 -3.53425 -2.48425 0
M  V30 35052 C 3163.1 -3.75887 -3.75343 0
M  V30 35053 C 3162.14 -4.96507 -3.57977 0
M  V30 35054 N 3161.28 -5.15307 -4.76868 0
M  V30 35055 H 3166.12 -2.82809 -0.939317 0
M  V30 35056 H 3163.66 -1.39968 -0.452487 0
M  V30 35057 H 3165.61 -2.43467 -3.38792 0
M  V30 35058 H 3164.24 -1.39861 -2.90928 0
M  V30 35059 H 3163.3 -3.44382 -1.61571 0
M  V30 35060 H 3164.61 -4.41815 -2.31518 0
M  V30 35061 H 3163.76 -3.93218 -4.62022 0
M  V30 35062 H 3162.5 -2.85795 -3.95186 0
M  V30 35063 H 3161.51 -4.79115 -2.69682 0
M  V30 35064 H 3162.73 -5.88092 -3.39595 0
M  V30 35065 H 3160.68 -4.28161 -4.97006 0
M  V30 35066 H 3160.59 -5.97848 -4.62725 0
M  V30 35067 H 3161.86 -5.37083 -5.64944 0
M  V30 35068 N 3166.09 0.478699 -1.50154 0
M  V30 35069 C 3167.34 1.23033 -1.6197 0
M  V30 35070 C 3167.69 1.89844 -0.312563 0
M  V30 35071 O 3166.98 1.78784 0.688963 0
M  V30 35072 C 3167.18 2.30412 -2.73212 0
M  V30 35073 C 3167.01 1.74135 -4.14617 0
M  V30 35074 C 3165.78 1.54444 -4.81119 0
M  V30 35075 C 3167.98 1.24057 -4.99113 0
M  V30 35076 N 3165.96 0.933292 -6.06764 0
M  V30 35077 C 3167.33 0.752178 -6.1542 0
M  V30 35078 C 3169.38 1.1284 -4.84945 0
M  V30 35079 C 3168.09 0.162681 -7.19116 0
M  V30 35080 C 3170.11 0.552852 -5.8881 0
M  V30 35081 C 3169.47 0.0747957 -7.0436 0
M  V30 35082 H 3165.57 0.439365 -0.646902 0
M  V30 35083 H 3168.16 0.533607 -1.87245 0
M  V30 35084 H 3166.33 2.9752 -2.49672 0
M  V30 35085 H 3168.06 2.97441 -2.74428 0
M  V30 35086 H 3164.82 1.79452 -4.38285 0
M  V30 35087 H 3165.24 0.646352 -6.73907 0
M  V30 35088 H 3169.88 1.48395 -3.95903 0
M  V30 35089 H 3167.6 -0.205085 -8.0784 0
M  V30 35090 H 3171.19 0.468531 -5.7991 0
M  V30 35091 H 3170.07 -0.363593 -7.83357 0
M  V30 35092 N 3167.57 1.39603 0.731343 0
M  V30 35093 C 3168.8 1.40105 1.51836 0
M  V30 35094 C 3169.21 -0.00523308 1.89199 0
M  V30 35095 O 3168.55 -0.987846 1.54878 0
M  V30 35096 C 3168.61 2.21333 2.83288 0
M  V30 35097 C 3168.28 3.69924 2.68338 0
M  V30 35098 C 3169.27 4.62922 2.36642 0
M  V30 35099 C 3166.96 4.13553 2.85095 0
M  V30 35100 C 3168.95 5.97531 2.2189 0
M  V30 35101 C 3166.64 5.48237 2.69961 0
M  V30 35102 C 3167.64 6.40041 2.38404 0
M  V30 35103 O 3167.32 7.72244 2.23369 0
M  V30 35104 H 3167.06 0.48031 0.475687 0
M  V30 35105 H 3169.61 1.84089 0.911064 0
M  V30 35106 H 3167.84 1.72102 3.46291 0
M  V30 35107 H 3169.53 2.13967 3.44925 0
M  V30 35108 H 3170.3 4.30514 2.23344 0
M  V30 35109 H 3166.17 3.42428 3.08649 0
M  V30 35110 H 3169.72 6.69153 1.97181 0
M  V30 35111 H 3165.62 5.80235 2.82839 0
M  V30 35112 H 3166.38 7.83009 2.38411 0
M  V30 35113 N 3169.05 -0.961916 1.2484 0
M  V30 35114 C 3169.98 -2.07512 1.07056 0
M  V30 35115 C 3170.96 -1.7009 -0.0182166 0
M  V30 35116 O 3172.14 -1.9362 0.149949 0
M  V30 35117 C 3169.27 -3.40563 0.680753 0
M  V30 35118 C 3168.23 -3.91964 1.71895 0
M  V30 35119 C 3167.55 -5.21426 1.18404 0
M  V30 35120 C 3168.85 -4.19156 3.11618 0
M  V30 35121 H 3170.55 -2.22647 2.00171 0
M  V30 35122 H 3168.09 -1.06989 0.963818 0
M  V30 35123 H 3170.05 -4.17883 0.543313 0
M  V30 35124 H 3168.77 -3.25345 -0.286092 0
M  V30 35125 H 3167.43 -3.16806 1.84471 0
M  V30 35126 H 3167.08 -5.02571 0.207632 0
M  V30 35127 H 3166.78 -5.56785 1.87788 0
M  V30 35128 H 3168.3 -6.01349 1.05884 0
M  V30 35129 H 3169.71 -4.8716 3.02238 0
M  V30 35130 H 3168.11 -4.65756 3.78406 0
M  V30 35131 H 3169.18 -3.25709 3.59224 0
M  V30 35132 N 3170.52 -1.06308 -1.16346 0
M  V30 35133 C 3171.47 -0.674001 -2.20739 0
M  V30 35134 C 3172.44 0.329425 -1.628 0
M  V30 35135 O 3173.63 0.218279 -1.89547 0
M  V30 35136 C 3170.77 -0.0667615 -3.45035 0
M  V30 35137 C 3169.88 -1.12038 -4.17219 0
M  V30 35138 C 3169.01 -0.479269 -5.29034 0
M  V30 35139 C 3168.05 -1.51642 -5.93019 0
M  V30 35140 N 3167.19 -0.898651 -6.96325 0
M  V30 35141 H 3172.03 -1.56864 -2.53373 0
M  V30 35142 H 3169.57 -0.784298 -1.24448 0
M  V30 35143 H 3171.53 0.302843 -4.16099 0
M  V30 35144 H 3170.16 0.791278 -3.12951 0
M  V30 35145 H 3169.21 -1.60769 -3.44757 0
M  V30 35146 H 3170.52 -1.9072 -4.60898 0
M  V30 35147 H 3169.67 -0.0567059 -6.06673 0
M  V30 35148 H 3168.41 0.339424 -4.86517 0
M  V30 35149 H 3167.42 -1.94887 -5.141 0
M  V30 35150 H 3168.64 -2.33721 -6.37614 0
M  V30 35151 H 3166.59 -0.100671 -6.55923 0
M  V30 35152 H 3166.51 -1.62285 -7.38376 0
M  V30 35153 H 3167.77 -0.501237 -7.77887 0
M  V30 35154 N 3172 1.32989 -0.845682 0
M  V30 35155 C 3172.91 2.32845 -0.286441 0
M  V30 35156 C 3173.93 1.63653 0.591076 0
M  V30 35157 O 3175.1 1.95258 0.493581 0
M  V30 35158 C 3172.17 3.42724 0.523576 0
M  V30 35159 C 3171.23 4.27624 -0.37902 0
M  V30 35160 C 3170.46 5.32255 0.392432 0
M  V30 35161 O 3170.69 5.46811 1.6234 0
M  V30 35162 O 3169.62 6.01433 -0.237106 0
M  V30 35163 H 3173.45 2.8255 -1.11351 0
M  V30 35164 H 3171.03 1.36452 -0.60838 0
M  V30 35165 H 3172.91 4.09759 0.983646 0
M  V30 35166 H 3171.59 2.95223 1.32759 0
M  V30 35167 H 3170.5 3.63431 -0.887076 0
M  V30 35168 H 3171.83 4.78625 -1.14798 0
M  V30 35169 N 3173.48 0.60276 1.45618 0
M  V30 35170 C 3174.41 -0.106301 2.33258 0
M  V30 35171 C 3175.39 -0.863638 1.46545 0
M  V30 35172 O 3176.58 -0.835144 1.75325 0
M  V30 35173 C 3173.71 -1.10745 3.2917 0
M  V30 35174 C 3172.66 -0.463642 4.25481 0
M  V30 35175 C 3171.99 -1.57269 5.11048 0
M  V30 35176 C 3173.29 0.612081 5.18701 0
M  V30 35177 H 3174.98 0.625474 2.92794 0
M  V30 35178 H 3172.53 0.302237 1.40792 0
M  V30 35179 H 3174.48 -1.61201 3.89348 0
M  V30 35180 H 3173.2 -1.86976 2.67783 0
M  V30 35181 H 3171.86 0.0200141 3.66595 0
M  V30 35182 H 3171.51 -2.32516 4.46033 0
M  V30 35183 H 3171.21 -1.14745 5.76288 0
M  V30 35184 H 3172.73 -2.07962 5.74094 0
M  V30 35185 H 3174.15 0.191787 5.72979 0
M  V30 35186 H 3172.55 0.95879 5.92391 0
M  V30 35187 H 3173.62 1.49058 4.61421 0
M  V30 35188 N 3174.96 -1.53852 0.341647 0
M  V30 35189 C 3175.89 -2.22495 -0.550343 0
M  V30 35190 C 3176.9 -1.23091 -1.06548 0
M  V30 35191 O 3178.09 -1.49457 -0.975958 0
M  V30 35192 C 3175.19 -2.89012 -1.7699 0
M  V30 35193 C 3174.37 -4.14714 -1.39037 0
M  V30 35194 C 3173.42 -4.64658 -2.46939 0
M  V30 35195 O 3172.45 -5.28915 -2.10326 0
M  V30 35196 N 3173.65 -4.40424 -3.78162 0
M  V30 35197 H 3176.42 -2.99677 0.0375087 0
M  V30 35198 H 3173.98 -1.6105 0.165682 0
M  V30 35199 H 3175.97 -3.19341 -2.48603 0
M  V30 35200 H 3174.54 -2.15428 -2.26517 0
M  V30 35201 H 3173.76 -3.90951 -0.505093 0
M  V30 35202 H 3175.05 -4.96483 -1.11276 0
M  V30 35203 H 3174.45 -3.8903 -4.10697 0
M  V30 35204 H 3173 -4.75364 -4.45951 0
M  V30 35205 N 3176.44 -0.0702223 -1.57443 0
M  V30 35206 C 3177.71 0.640168 -1.84828 0
M  V30 35207 C 3178.09 1.87887 -0.962377 0
M  V30 35208 O 3177.44 2.28483 -0.028261 0
M  V30 35209 C 3177.65 0.979323 -3.34978 0
M  V30 35210 C 3179 1.35348 -4.0245 0
M  V30 35211 O 3180.02 1.0711 -3.39714 0
M  V30 35212 O 3178.88 1.88127 -5.13099 0
M  V30 35213 H 3175.98 0.3178 -0.7635 0
M  V30 35214 H 3178.52 -0.101034 -1.69399 0
M  V30 35215 H 3177.29 0.0994888 -3.91174 0
M  V30 35216 H 3176.92 1.77734 -3.55663 0
M  V30 35217 N 3177.91 1.56283 0.203321 0
M  V30 35218 C 3179.16 1.79784 0.923151 0
M  V30 35219 C 3179.48 0.641882 1.84133 0
M  V30 35220 O 3178.75 -0.340259 1.92922 0
M  V30 35221 H 3177.33 0.663146 0.34387 0
M  V30 35222 H 3180 1.93757 0.210803 0
M  V30 35223 H 3179.09 2.72631 1.51916 0
M  V30 35224 N 3179.39 -0.470729 1.50406 0
M  V30 35225 C 3180.64 -1.21956 1.60654 0
M  V30 35226 C 3180.96 -1.93087 0.312555 0
M  V30 35227 O 3182.16 -2.69904 0.293949 0
M  V30 35228 C 3180.62 -2.21602 2.83585 0
M  V30 35229 C 3180.23 -1.56273 4.1986 0
M  V30 35230 C 3181.97 -2.97125 3.03178 0
M  V30 35231 C 3179.88 -2.54207 5.33978 0
M  V30 35232 H 3178.81 -0.458897 0.598272 0
M  V30 35233 H 3181.46 -0.49001 1.76837 0
M  V30 35234 H 3179.84 -2.97851 2.60962 0
M  V30 35235 H 3181.01 -0.85811 4.5274 0
M  V30 35236 H 3179.33 -0.930295 4.05875 0
M  V30 35237 H 3181.93 -3.70421 3.85606 0
M  V30 35238 H 3182.27 -3.56532 2.1492 0
M  V30 35239 H 3182.8 -2.27989 3.25984 0
M  V30 35240 H 3179.54 -1.99538 6.24391 0
M  V30 35241 H 3179.06 -3.2282 5.05517 0
M  V30 35242 H 3180.74 -3.16029 5.64566 0
M  V30 35243 N 3180.87 -1.39989 -0.72393 0
M  V30 35244 C 3182.12 -1.37543 -1.48076 0
M  V30 35245 C 3182.44 0.0243015 -1.94985 0
M  V30 35246 O 3181.71 0.977572 -1.69766 0
M  V30 35247 H 3180.29 -0.506191 -0.549345 0
M  V30 35248 H 3182.95 -1.74963 -0.858715 0
M  V30 35249 H 3182.05 -2.04509 -2.35759 0
M  V30 35250 N 3182.35 0.955282 -1.25348 0
M  V30 35251 C 3183.28 2.05518 -1.01464 0
M  V30 35252 C 3184.29 1.62787 0.0201969 0
M  V30 35253 O 3185.48 1.7716 -0.218282 0
M  V30 35254 C 3182.58 3.35013 -0.511786 0
M  V30 35255 C 3181.76 4.06587 -1.61263 0
M  V30 35256 C 3180.82 5.14354 -1.11026 0
M  V30 35257 O 3179.84 5.39839 -1.80452 0
M  V30 35258 N 3181.04 5.80479 0.048798 0
M  V30 35259 H 3183.81 2.26578 -1.9617 0
M  V30 35260 H 3181.37 1.12379 -1.16545 0
M  V30 35261 H 3183.36 4.04383 -0.160194 0
M  V30 35262 H 3181.93 3.10731 0.341322 0
M  V30 35263 H 3181.15 3.31325 -2.13583 0
M  V30 35264 H 3182.44 4.51163 -2.35221 0
M  V30 35265 H 3181.84 5.62193 0.628923 0
M  V30 35266 H 3180.39 6.50905 0.341428 0
M  V30 35267 N 3183.83 1.06924 1.1578 0
M  V30 35268 C 3185.24 0.793921 1.38452 0
M  V30 35269 C 3185.44 -0.603841 1.92239 0
M  V30 35270 O 3184.5 -1.36331 2.12532 0
M  V30 35271 C 3185.81 1.86412 2.35947 0
M  V30 35272 C 3187.36 1.88837 2.49619 0
M  V30 35273 C 3187.84 2.94929 3.50401 0
M  V30 35274 N 3189.33 2.94004 3.57933 0
M  V30 35275 C 3190.06 3.72739 4.35722 0
M  V30 35276 N 3189.56 4.6131 5.1688 0
M  V30 35277 N 3191.35 3.61103 4.30768 0
M  V30 35278 H 3183.5 1.97079 0.792067 0
M  V30 35279 H 3185.76 0.854387 0.410764 0
M  V30 35280 H 3185.47 2.86823 2.03532 0
M  V30 35281 H 3185.34 1.72055 3.35674 0
M  V30 35282 H 3187.73 0.890808 2.81334 0
M  V30 35283 H 3187.81 2.07273 1.49906 0
M  V30 35284 H 3187.46 3.94882 3.19422 0
M  V30 35285 H 3187.39 2.73742 4.49859 0
M  V30 35286 H 3189.88 2.29796 3.00003 0
M  V30 35287 H 3190.19 5.18029 5.73468 0
M  V30 35288 H 3188.54 4.65362 5.16201 0
M  V30 35289 H 3191.73 2.91289 3.66427 0
M  V30 35290 H 3191.9 4.22708 4.91144 0
M  V30 35291 N 3185.31 -1.32538 0.852723 0
M  V30 35292 C 3186.24 -2.27797 0.253221 0
M  V30 35293 C 3187.25 -1.52347 -0.57395 0
M  V30 35294 O 3188.44 -1.73989 -0.398756 0
M  V30 35295 C 3185.54 -3.32392 -0.660975 0
M  V30 35296 C 3184.71 -4.37207 0.129916 0
M  V30 35297 C 3183.77 -5.21391 -0.709745 0
M  V30 35298 O 3182.8 -5.69018 -0.143956 0
M  V30 35299 N 3184 -5.44042 -2.0248 0
M  V30 35300 H 3186.76 -2.79881 1.07175 0
M  V30 35301 H 3184.33 -1.45378 0.712517 0
M  V30 35302 H 3186.32 -3.85619 -1.22799 0
M  V30 35303 H 3184.89 -2.80481 -1.3802 0
M  V30 35304 H 3184.11 -3.8429 0.878357 0
M  V30 35305 H 3185.4 -5.04326 0.67323 0
M  V30 35306 H 3184.79 -5.07074 -2.50783 0
M  V30 35307 H 3183.35 -6.00273 -2.53999 0
M  V30 35308 N 3186.78 -0.610474 -1.45296 0
M  V30 35309 C 3188.01 -0.113247 -2.0659 0
M  V30 35310 C 3188.43 1.20358 -1.45462 0
M  V30 35311 O 3187.78 1.73375 -0.569854 0
M  V30 35312 C 3187.83 0.0297776 -3.61488 0
M  V30 35313 O 3187.56 -1.23496 -4.20334 0
M  V30 35314 C 3189.06 0.558125 -4.39773 0
M  V30 35315 H 3186.28 -0.0701672 -0.667321 0
M  V30 35316 H 3188.82 -0.839026 -1.86496 0
M  V30 35317 H 3186.98 0.705896 -3.80915 0
M  V30 35318 H 3187.39 -1.06649 -5.13543 0
M  V30 35319 H 3188.86 0.607278 -5.48649 0
M  V30 35320 H 3189.34 1.58099 -4.09757 0
M  V30 35321 H 3189.95 -0.0840452 -4.25217 0
M  V30 35322 N 3188.26 1.53669 -0.349801 0
M  V30 35323 C 3189.51 2.01313 0.245154 0
M  V30 35324 C 3189.84 1.23708 1.497 0
M  V30 35325 O 3189.12 0.326405 1.91742 0
M  V30 35326 C 3189.4 3.55828 0.553009 0
M  V30 35327 C 3189.25 4.44139 -0.711369 0
M  V30 35328 C 3190.57 4.18557 1.36007 0
M  V30 35329 H 3187.69 0.731772 0.0876286 0
M  V30 35330 H 3190.33 1.84055 -0.471575 0
M  V30 35331 H 3188.48 3.70665 1.1636 0
M  V30 35332 H 3190.15 4.41128 -1.34921 0
M  V30 35333 H 3188.4 4.12748 -1.33499 0
M  V30 35334 H 3189.07 5.50153 -0.451137 0
M  V30 35335 H 3191.54 4.07457 0.843706 0
M  V30 35336 H 3190.42 5.2673 1.54423 0
M  V30 35337 H 3190.68 3.73586 2.36401 0
M  V30 35338 N 3189.74 0.0785709 1.57404 0
M  V30 35339 C 3190.99 -0.589862 1.94032 0
M  V30 35340 C 3191.32 -1.68851 0.959327 0
M  V30 35341 O 3190.59 -1.94497 -0.0103636 0
M  V30 35342 C 3190.88 -1.16049 3.40888 0
M  V30 35343 C 3190.73 -0.0680282 4.49749 0
M  V30 35344 C 3192.05 -2.06394 3.88702 0
M  V30 35345 H 3189.17 -0.212952 0.705564 0
M  V30 35346 H 3191.81 0.145919 1.89439 0
M  V30 35347 H 3189.96 -1.78755 3.44933 0
M  V30 35348 H 3191.63 0.565399 4.57822 0
M  V30 35349 H 3189.87 0.600507 4.29624 0
M  V30 35350 H 3190.55 -0.507809 5.49659 0
M  V30 35351 H 3193.02 -1.53615 3.86706 0
M  V30 35352 H 3191.9 -2.43252 4.92056 0
M  V30 35353 H 3192.16 -2.9749 3.27035 0
M  V30 35354 N 3191.22 -1.56389 -0.19503 0
M  V30 35355 C 3192.63 -1.49975 -0.545868 0
M  V30 35356 C 3192.83 -0.778601 -1.8585 0
M  V30 35357 O 3191.89 -0.329149 -2.50345 0
M  V30 35358 C 3193.2 -2.94642 -0.600547 0
M  V30 35359 C 3194.75 -3.05314 -0.689375 0
M  V30 35360 C 3195.23 -4.51393 -0.775164 0
M  V30 35361 N 3196.72 -4.55544 -0.838689 0
M  V30 35362 C 3197.45 -5.65886 -0.925237 0
M  V30 35363 N 3196.95 -6.85918 -0.974083 0
M  V30 35364 N 3198.74 -5.53799 -0.962431 0
M  V30 35365 H 3190.89 -2.01689 0.665985 0
M  V30 35366 H 3193.15 -0.917837 0.237231 0
M  V30 35367 H 3192.86 -3.50462 0.294841 0
M  V30 35368 H 3192.73 -3.47999 -1.45522 0
M  V30 35369 H 3195.12 -2.49543 -1.57519 0
M  V30 35370 H 3195.2 -2.55082 0.191496 0
M  V30 35371 H 3194.85 -5.07789 0.106304 0
M  V30 35372 H 3194.78 -4.99357 -1.67184 0
M  V30 35373 H 3197.27 -3.69113 -0.810184 0
M  V30 35374 H 3197.58 -7.65761 -1.04064 0
M  V30 35375 H 3195.93 -6.88576 -0.94276 0
M  V30 35376 H 3199.12 -4.58948 -0.921108 0
M  V30 35377 H 3199.29 -6.39819 -1.02642 0
M  V30 35378 N 3192.7 0.462746 -1.50653 0
M  V30 35379 C 3193.92 1.23728 -1.65828 0
M  V30 35380 C 3194.34 1.8562 -0.345035 0
M  V30 35381 O 3193.7 1.69602 0.673905 0
M  V30 35382 C 3193.75 2.33992 -2.75554 0
M  V30 35383 O 3193.47 1.74636 -4.01789 0
M  V30 35384 C 3194.97 3.24725 -3.01776 0
M  V30 35385 H 3192.19 0.373882 -0.557183 0
M  V30 35386 H 3194.73 0.5514 -1.96926 0
M  V30 35387 H 3192.89 2.9834 -2.47127 0
M  V30 35388 H 3193.3 2.47311 -4.62534 0
M  V30 35389 H 3194.78 3.98286 -3.82195 0
M  V30 35390 H 3195.25 3.83997 -2.13174 0
M  V30 35391 H 3195.86 2.66105 -3.31766 0
M  V30 35392 N 3194.17 1.40371 0.716495 0
M  V30 35393 C 3195.1 1.43318 1.84343 0
M  V30 35394 C 3196.09 0.294216 1.67536 0
M  V30 35395 O 3197.27 0.502704 1.87581 0
M  V30 35396 C 3194.4 1.29414 3.22288 0
M  V30 35397 C 3193.35 2.40904 3.53765 0
M  V30 35398 C 3192.68 2.12077 4.90844 0
M  V30 35399 C 3193.98 3.83243 3.54855 0
M  V30 35400 H 3195.67 2.37629 1.82134 0
M  V30 35401 H 3193.22 1.14378 0.874853 0
M  V30 35402 H 3195.17 1.30092 4.00817 0
M  V30 35403 H 3193.9 0.315787 3.2507 0
M  V30 35404 H 3192.56 2.39474 2.77575 0
M  V30 35405 H 3192.2 1.12635 4.90227 0
M  V30 35406 H 3191.9 2.86771 5.1287 0
M  V30 35407 H 3193.43 2.14436 5.71708 0
M  V30 35408 H 3194.84 3.86502 4.23426 0
M  V30 35409 H 3193.24 4.57449 3.88408 0
M  V30 35410 H 3194.31 4.12893 2.54259 0
M  V30 35411 N 3195.65 -0.948621 1.25853 0
M  V30 35412 C 3196.6 -2.06754 1.06562 0
M  V30 35413 C 3197.59 -1.69399 -0.00525654 0
M  V30 35414 O 3198.8 -1.79367 0.150837 0
M  V30 35415 H 3195.18 -0.676843 0.327701 0
M  V30 35416 H 3197.15 -2.20178 2.01405 0
M  V30 35417 C 3195.9 -3.40427 0.707452 0
M  V30 35418 H 3195.22 -3.69642 1.52331 0
M  V30 35419 H 3196.66 -4.19557 0.612216 0
M  V30 35420 C 3195.12 -3.31748 -0.586912 0
M  V30 35421 O 3195.65 -3.67261 -1.62734 0
M  V30 35422 N 3193.85 -2.84859 -0.574778 0
M  V30 35423 H 3193.4 -2.56157 0.272281 0
M  V30 35424 H 3193.36 -2.79435 -1.44096 0
M  V30 35425 N 3197.13 -1.07536 -1.15212 0
M  V30 35426 C 3198.09 -0.701275 -2.18208 0
M  V30 35427 C 3199.09 0.259432 -1.58693 0
M  V30 35428 O 3200.28 0.0401438 -1.74154 0
M  V30 35429 C 3197.42 -0.0339302 -3.40883 0
M  V30 35430 H 3198.61 -1.61319 -2.52817 0
M  V30 35431 H 3196.16 -0.872127 -1.29706 0
M  V30 35432 H 3196.9 0.890132 -3.11845 0
M  V30 35433 H 3196.68 -0.724928 -3.8534 0
M  V30 35434 H 3198.17 0.213079 -4.17056 0
M  V30 35435 N 3198.61 1.32084 -0.85974 0
M  V30 35436 C 3199.84 2.01261 -0.479759 0
M  V30 35437 C 3200.25 1.6459 0.924956 0
M  V30 35438 O 3199.61 0.869832 1.60437 0
M  V30 35439 C 3199.66 3.56227 -0.615191 0
M  V30 35440 O 3199.38 3.91581 -1.96458 0
M  V30 35441 C 3200.88 4.42677 -0.234882 0
M  V30 35442 H 3198.1 0.644119 -0.188019 0
M  V30 35443 H 3200.65 1.68549 -1.15808 0
M  V30 35444 H 3198.8 3.87397 0.0154587 0
M  V30 35445 H 3199.21 4.86301 -1.96499 0
M  V30 35446 H 3200.69 5.50686 -0.380631 0
M  V30 35447 H 3201.17 4.3138 0.825113 0
M  V30 35448 H 3201.77 4.16906 -0.840812 0
M  V30 35449 N 3200.09 0.618171 1.4497 0
M  V30 35450 C 3201.33 0.117285 2.01759 0
M  V30 35451 C 3201.66 -1.2606 1.48775 0
M  V30 35452 O 3200.93 -1.83489 0.686184 0
M  V30 35453 H 3199.51 0.0403676 0.745908 0
M  V30 35454 H 3202.17 0.801954 1.77636 0
M  V30 35455 H 3201.26 0.0751026 3.1201 0
M  V30 35456 N 3201.56 -1.53481 0.357946 0
M  V30 35457 C 3202.47 -2.29205 -0.500233 0
M  V30 35458 C 3203.49 -1.34872 -1.09934 0
M  V30 35459 O 3204.67 -1.67923 -1.11192 0
M  V30 35460 C 3201.73 -3.06088 -1.62823 0
M  V30 35461 C 3200.79 -4.16073 -1.05744 0
M  V30 35462 C 3200.03 -4.8928 -2.13167 0
M  V30 35463 O 3200.25 -4.6228 -3.34145 0
M  V30 35464 O 3199.18 -5.75393 -1.76653 0
M  V30 35465 H 3203.01 -3.03479 0.115749 0
M  V30 35466 H 3200.59 -1.48897 0.122553 0
M  V30 35467 H 3202.48 -3.54121 -2.28421 0
M  V30 35468 H 3201.15 -2.34657 -2.22975 0
M  V30 35469 H 3200.06 -3.72309 -0.365576 0
M  V30 35470 H 3201.39 -4.89648 -0.500575 0
M  V30 35471 N 3203.04 -0.0869173 -1.5736 0
M  V30 35472 C 3203.95 0.889364 -2.17089 0
M  V30 35473 C 3204.97 1.31617 -1.13811 0
M  V30 35474 O 3206.14 1.38577 -1.46145 0
M  V30 35475 C 3203.21 2.1334 -2.73289 0
M  V30 35476 C 3202.27 1.76157 -3.91494 0
M  V30 35477 C 3201.5 2.94629 -4.45005 0
M  V30 35478 O 3201.73 4.09109 -3.97475 0
M  V30 35479 O 3200.66 2.73569 -5.36138 0
M  V30 35480 H 3204.49 0.411223 -3.00903 0
M  V30 35481 H 3202.07 0.136988 -1.48771 0
M  V30 35482 H 3203.95 2.86261 -3.09245 0
M  V30 35483 H 3202.63 2.60222 -1.92526 0
M  V30 35484 H 3201.54 1.00441 -3.60364 0
M  V30 35485 H 3202.87 1.34044 -4.73596 0
M  V30 35486 N 3204.52 1.5649 0.186734 0
M  V30 35487 C 3205.77 1.80305 0.904045 0
M  V30 35488 C 3206.08 0.66157 1.84072 0
M  V30 35489 O 3207.29 0.784243 2.59927 0
M  V30 35490 C 3205.74 3.19434 1.658 0
M  V30 35491 C 3205.35 4.41408 0.765729 0
M  V30 35492 C 3207.1 3.52554 2.36445 0
M  V30 35493 C 3205 5.71559 1.51903 0
M  V30 35494 H 3203.93 0.672323 0.341318 0
M  V30 35495 H 3206.58 1.82826 0.157186 0
M  V30 35496 H 3204.97 3.11187 2.44905 0
M  V30 35497 H 3206.14 4.60798 0.0127415 0
M  V30 35498 H 3204.46 4.16054 0.169699 0
M  V30 35499 H 3207.05 4.47032 2.9337 0
M  V30 35500 H 3207.4 2.76696 3.11039 0
M  V30 35501 H 3207.93 3.62286 1.64298 0
M  V30 35502 H 3204.67 6.50405 0.815715 0
M  V30 35503 H 3204.19 5.56171 2.24574 0
M  V30 35504 H 3205.87 6.12972 2.07062 0
M  V30 35505 N 3206 -0.45475 1.50897 0
M  V30 35506 C 3207.25 -1.20245 1.61938 0
M  V30 35507 C 3207.56 -1.92744 0.333017 0
M  V30 35508 O 3208.77 -2.69577 0.322559 0
M  V30 35509 C 3207.22 -2.18582 2.8592 0
M  V30 35510 C 3206.83 -1.51811 4.21494 0
M  V30 35511 C 3208.57 -2.93893 3.06312 0
M  V30 35512 C 3206.48 -2.48529 5.36644 0
M  V30 35513 H 3205.41 -0.452525 0.603106 0
M  V30 35514 H 3208.06 -0.471226 1.77346 0
M  V30 35515 H 3206.44 -2.95066 2.64106 0
M  V30 35516 H 3207.62 -0.810043 4.53624 0
M  V30 35517 H 3205.93 -0.887194 4.06839 0
M  V30 35518 H 3208.53 -3.6631 3.89513 0
M  V30 35519 H 3208.87 -3.54232 2.18689 0
M  V30 35520 H 3209.41 -2.24519 3.28384 0
M  V30 35521 H 3206.15 -1.92905 6.26473 0
M  V30 35522 H 3205.67 -3.1744 5.08912 0
M  V30 35523 H 3207.34 -3.10023 5.67886 0
M  V30 35524 N 3207.48 -1.40749 -0.709041 0
M  V30 35525 C 3208.41 -1.37454 -1.83409 0
M  V30 35526 C 3209.42 -0.278868 -1.60394 0
M  V30 35527 O 3210.61 -0.539672 -1.70146 0
M  V30 35528 C 3207.71 -1.11786 -3.19933 0
M  V30 35529 C 3206.88 -2.33135 -3.7009 0
M  V30 35530 C 3205.94 -2.03527 -4.85246 0
M  V30 35531 O 3204.97 -2.76451 -4.97558 0
M  V30 35532 N 3206.17 -1.01724 -5.71518 0
M  V30 35533 H 3208.94 -2.34417 -1.86732 0
M  V30 35534 H 3206.5 -1.35187 -0.89084 0
M  V30 35535 H 3208.49 -0.899534 -3.94576 0
M  V30 35536 H 3207.06 -0.234679 -3.11718 0
M  V30 35537 H 3206.28 -2.70756 -2.86505 0
M  V30 35538 H 3207.57 -3.14017 -4.00338 0
M  V30 35539 H 3206.96 -0.413406 -5.64187 0
M  V30 35540 H 3205.52 -0.858809 -6.46117 0
M  V30 35541 N 3208.96 0.941933 -1.26354 0
M  V30 35542 C 3209.89 2.0443 -1.03638 0
M  V30 35543 C 3210.9 1.628 0.00293003 0
M  V30 35544 O 3212.09 1.76919 -0.23706 0
M  V30 35545 C 3209.19 3.34452 -0.547289 0
M  V30 35546 C 3208.36 4.04854 -1.65566 0
M  V30 35547 C 3207.42 5.13147 -1.16475 0
M  V30 35548 O 3206.45 5.37894 -1.86168 0
M  V30 35549 N 3207.65 5.80499 -0.0127723 0
M  V30 35550 H 3210.41 2.24484 -1.98562 0
M  V30 35551 H 3207.98 1.11136 -1.1773 0
M  V30 35552 H 3209.97 4.0419 -0.203075 0
M  V30 35553 H 3208.54 3.11076 0.308346 0
M  V30 35554 H 3207.76 3.29041 -2.17085 0
M  V30 35555 H 3209.05 4.48643 -2.39993 0
M  V30 35556 H 3208.44 5.62829 0.569259 0
M  V30 35557 H 3207 6.51231 0.272372 0
M  V30 35558 N 3210.43 1.08146 1.1464 0
M  V30 35559 C 3211.66 0.831006 1.90024 0
M  V30 35560 C 3212.08 -0.610848 1.77905 0
M  V30 35561 O 3211.44 -1.42774 1.11738 0
M  V30 35562 C 3211.49 1.25428 3.38083 0
M  V30 35563 O 3210.59 0.404558 4.10411 0
M  V30 35564 H 3209.93 0.302052 0.591321 0
M  V30 35565 H 3212.46 1.44219 1.45128 0
M  V30 35566 H 3212.47 1.23397 3.88892 0
M  V30 35567 H 3211.15 2.30442 3.46222 0
M  V30 35568 H 3209.73 0.488051 3.69692 0
M  V30 35569 N 3211.91 -1.31626 0.866732 0
M  V30 35570 C 3213.14 -2.01538 0.489596 0
M  V30 35571 C 3213.56 -1.64649 -0.909527 0
M  V30 35572 O 3212.92 -0.853419 -1.59958 0
M  V30 35573 C 3212.97 -3.54689 0.650238 0
M  V30 35574 O 3212.07 -4.11219 -0.311836 0
M  V30 35575 H 3211.41 -0.634674 0.195155 0
M  V30 35576 H 3213.94 -1.67897 1.16926 0
M  V30 35577 H 3213.95 -4.0438 0.542307 0
M  V30 35578 H 3212.63 -3.80879 1.67044 0
M  V30 35579 H 3211.2 -3.7256 -0.159132 0
M  V30 35580 N 3213.39 -0.62585 -1.4464 0
M  V30 35581 C 3214.34 0.0822185 -2.30654 0
M  V30 35582 C 3215.31 0.842027 -1.43175 0
M  V30 35583 O 3216.49 0.824121 -1.72084 0
M  V30 35584 C 3213.63 1.0614 -3.28372 0
M  V30 35585 C 3212.74 0.300562 -4.30953 0
M  V30 35586 C 3211.88 1.27109 -5.15768 0
M  V30 35587 C 3210.92 0.499107 -6.10062 0
M  V30 35588 N 3210.06 1.41983 -6.87594 0
M  V30 35589 H 3214.9 -0.657213 -2.90663 0
M  V30 35590 H 3212.43 -0.335884 -1.43214 0
M  V30 35591 H 3214.39 1.64243 -3.8351 0
M  V30 35592 H 3213.02 1.76802 -2.70075 0
M  V30 35593 H 3212.07 -0.3963 -3.7833 0
M  V30 35594 H 3213.38 -0.300939 -4.97891 0
M  V30 35595 H 3212.54 1.92362 -5.75397 0
M  V30 35596 H 3211.28 1.90652 -4.48891 0
M  V30 35597 H 3210.28 -0.166944 -5.49546 0
M  V30 35598 H 3211.51 -0.131528 -6.78973 0
M  V30 35599 H 3209.45 2.04256 -6.2339 0
M  V30 35600 H 3209.37 0.872222 -7.50952 0
M  V30 35601 H 3210.64 2.06137 -7.5175 0
M  V30 35602 N 3214.87 1.53289 -0.36608 0
M  V30 35603 C 3216.1 2.05682 0.224199 0
M  V30 35604 C 3216.51 1.23955 1.4241 0
M  V30 35605 O 3215.87 0.280341 1.80334 0
M  V30 35606 C 3215.92 3.56192 0.617203 0
M  V30 35607 O 3215.64 4.34821 -0.535007 0
M  V30 35608 C 3217.14 4.24843 1.26582 0
M  V30 35609 H 3214.36 0.669849 0.039281 0
M  V30 35610 H 3216.9 1.97657 -0.524594 0
M  V30 35611 H 3215.06 3.64366 1.31591 0
M  V30 35612 H 3215.47 5.2405 -0.217215 0
M  V30 35613 H 3216.95 5.31472 1.49136 0
M  V30 35614 H 3217.42 3.78595 2.22627 0
M  V30 35615 H 3218.03 4.20924 0.608526 0
M  V30 35616 N 3216.35 0.0952613 1.57312 0
M  V30 35617 C 3217.62 -0.610682 1.85823 0
M  V30 35618 C 3218 -1.86332 0.992147 0
M  V30 35619 O 3217.35 -2.28409 0.0646071 0
M  V30 35620 C 3217.56 -0.925907 3.36494 0
M  V30 35621 C 3218.91 -1.28929 4.04552 0
M  V30 35622 O 3219.93 -1.01692 3.41376 0
M  V30 35623 O 3218.79 -1.7994 5.16027 0
M  V30 35624 H 3215.89 -0.305613 0.768459 0
M  V30 35625 H 3218.43 0.127971 1.69217 0
M  V30 35626 H 3217.2 -0.0372439 3.91282 0
M  V30 35627 H 3216.83 -1.72053 3.58446 0
M  V30 35628 N 3217.82 -1.56587 -0.178432 0
M  V30 35629 C 3218.79 -1.94983 -1.20476 0
M  V30 35630 C 3219.79 -0.832701 -1.3756 0
M  V30 35631 O 3220.98 -1.09987 -1.35087 0
M  V30 35632 C 3218.11 -2.23843 -2.57113 0
M  V30 35633 H 3219.3 -2.86817 -0.876122 0
M  V30 35634 H 3216.85 -1.50534 -0.420608 0
M  V30 35635 H 3217.59 -1.347 -2.95002 0
M  V30 35636 H 3217.37 -3.05265 -2.4608 0
M  V30 35637 H 3218.86 -2.54496 -3.31092 0
M  V30 35638 N 3219.3 0.446741 -1.51136 0
M  V30 35639 C 3220.53 1.22424 -1.67413 0
M  V30 35640 C 3220.95 1.84484 -0.367041 0
M  V30 35641 O 3220.31 1.68393 0.671821 0
M  V30 35642 C 3220.36 2.29092 -2.78477 0
M  V30 35643 O 3219.46 3.34347 -2.41425 0
M  V30 35644 H 3218.8 0.359101 -0.558518 0
M  V30 35645 H 3221.33 0.528765 -1.97649 0
M  V30 35646 H 3221.34 2.74025 -3.02282 0
M  V30 35647 H 3220.02 1.83297 -3.7333 0
M  V30 35648 H 3218.59 2.94956 -2.28157 0
M  V30 35649 N 3220.78 1.41123 0.701567 0
M  V30 35650 C 3222.03 1.39459 1.4572 0
M  V30 35651 C 3222.34 0.00478666 1.95599 0
M  V30 35652 O 3223.55 -0.134481 2.71167 0
M  V30 35653 C 3222 2.45176 2.6347 0
M  V30 35654 C 3221.61 3.90035 2.20402 0
M  V30 35655 C 3223.36 2.52639 3.41136 0
M  V30 35656 C 3221.26 4.87318 3.35075 0
M  V30 35657 H 3220.19 0.518597 0.547332 0
M  V30 35658 H 3222.84 1.66921 0.762203 0
M  V30 35659 H 3221.23 2.10835 3.35208 0
M  V30 35660 H 3222.4 4.33593 1.55992 0
M  V30 35661 H 3220.71 3.86177 1.55746 0
M  V30 35662 H 3223.31 3.22505 4.26491 0
M  V30 35663 H 3223.65 1.56132 3.85913 0
M  V30 35664 H 3224.19 2.86042 2.76451 0
M  V30 35665 H 3220.93 5.85208 2.95317 0
M  V30 35666 H 3220.45 4.48413 3.98354 0
M  V30 35667 H 3222.13 5.07795 4.0094 0
M  V30 35668 N 3222.26 -0.935219 1.26852 0
M  V30 35669 C 3223.19 -2.05194 1.11434 0
M  V30 35670 C 3224.17 -1.70091 0.0178661 0
M  V30 35671 O 3225.35 -1.93259 0.190985 0
M  V30 35672 C 3222.48 -3.39042 0.752839 0
M  V30 35673 C 3221.44 -3.8823 1.80171 0
M  V30 35674 C 3220.76 -5.18797 1.29437 0
M  V30 35675 C 3222.06 -4.12452 3.20439 0
M  V30 35676 H 3223.76 -2.18351 2.04849 0
M  V30 35677 H 3221.3 -1.0492 0.986295 0
M  V30 35678 H 3223.26 -4.16636 0.63183 0
M  V30 35679 H 3221.98 -3.25878 -0.217018 0
M  V30 35680 H 3220.64 -3.12822 1.91149 0
M  V30 35681 H 3220.29 -5.02018 0.314188 0
M  V30 35682 H 3219.99 -5.52677 1.99556 0
M  V30 35683 H 3221.51 -5.98968 1.18615 0
M  V30 35684 H 3222.93 -4.8064 3.12503 0
M  V30 35685 H 3221.32 -4.57625 3.88201 0
M  V30 35686 H 3222.39 -3.18016 3.66052 0
M  V30 35687 N 3223.74 -1.08752 -1.14065 0
M  V30 35688 C 3224.67 -0.678558 -2.18925 0
M  V30 35689 C 3225.68 0.276135 -1.60441 0
M  V30 35690 O 3226.87 0.0632475 -1.78388 0
M  V30 35691 C 3223.97 0.0218256 -3.38893 0
M  V30 35692 C 3223.14 -0.952657 -4.269 0
M  V30 35693 C 3222.2 -0.286951 -5.25417 0
M  V30 35694 O 3221.23 -0.932453 -5.6151 0
M  V30 35695 N 3222.43 0.96173 -5.72478 0
M  V30 35696 H 3225.2 -1.58067 -2.54627 0
M  V30 35697 H 3222.76 -0.974064 -1.2932 0
M  V30 35698 H 3224.75 0.478208 -4.01865 0
M  V30 35699 H 3223.32 0.826088 -3.01487 0
M  V30 35700 H 3222.54 -1.58779 -3.60809 0
M  V30 35701 H 3223.83 -1.61287 -4.8256 0
M  V30 35702 H 3223.22 1.50585 -5.4529 0
M  V30 35703 H 3221.78 1.36155 -6.37421 0
M  V30 35704 N 3225.21 1.31165 -0.873701 0
M  V30 35705 C 3226.12 2.32185 -0.335766 0
M  V30 35706 C 3227.14 1.6487 0.55623 0
M  V30 35707 O 3228.32 1.96261 0.452053 0
M  V30 35708 C 3225.38 3.43757 0.450761 0
M  V30 35709 C 3224.44 4.26723 -0.46964 0
M  V30 35710 C 3223.68 5.32968 0.279445 0
M  V30 35711 O 3223.9 5.50131 1.50705 0
M  V30 35712 O 3222.83 6.00795 -0.364625 0
M  V30 35713 H 3226.66 2.80125 -1.17319 0
M  V30 35714 H 3224.24 1.35131 -0.637186 0
M  V30 35715 H 3226.13 4.11753 0.896509 0
M  V30 35716 H 3224.8 2.97973 1.26467 0
M  V30 35717 H 3223.71 3.61467 -0.963966 0
M  V30 35718 H 3225.04 4.76083 -1.24925 0
M  V30 35719 N 3226.69 0.633512 1.44307 0
M  V30 35720 C 3227.64 -0.0699852 2.30694 0
M  V30 35721 C 3228.61 -0.834422 1.4362 0
M  V30 35722 O 3229.79 -0.814983 1.72519 0
M  V30 35723 C 3226.93 -1.04397 3.2893 0
M  V30 35724 C 3226.05 -0.277703 4.31106 0
M  V30 35725 C 3225.18 -1.24372 5.16435 0
M  V30 35726 C 3224.22 -0.466747 6.10318 0
M  V30 35727 N 3223.36 -1.38335 6.88337 0
M  V30 35728 H 3228.2 0.672618 2.9031 0
M  V30 35729 H 3225.74 0.343474 1.43034 0
M  V30 35730 H 3227.69 -1.62207 3.84376 0
M  V30 35731 H 3226.32 -1.75368 2.71009 0
M  V30 35732 H 3225.38 0.416358 3.78115 0
M  V30 35733 H 3226.69 0.327339 4.97725 0
M  V30 35734 H 3225.84 -1.89308 5.76409 0
M  V30 35735 H 3224.58 -1.88268 4.49896 0
M  V30 35736 H 3223.59 0.196086 5.4945 0
M  V30 35737 H 3224.81 0.167534 6.78893 0
M  V30 35738 H 3222.76 -2.00948 6.24465 0
M  V30 35739 H 3222.67 -0.832385 7.51404 0
M  V30 35740 H 3223.94 -2.02147 7.52833 0
M  V30 35741 N 3228.17 -1.53093 0.374204 0
M  V30 35742 C 3229.1 -2.28925 -0.459936 0
M  V30 35743 C 3230.08 -1.31699 -1.07653 0
M  V30 35744 O 3231.27 -1.60579 -1.09216 0
M  V30 35745 C 3228.4 -3.0849 -1.59535 0
M  V30 35746 C 3227.35 -4.13475 -1.10556 0
M  V30 35747 C 3226.68 -4.81173 -2.33188 0
M  V30 35748 C 3227.98 -5.21975 -0.184183 0
M  V30 35749 H 3229.67 -2.98901 0.172744 0
M  V30 35750 H 3227.22 -1.43752 0.0845209 0
M  V30 35751 H 3229.17 -3.60291 -2.18559 0
M  V30 35752 H 3227.89 -2.3622 -2.25539 0
M  V30 35753 H 3226.55 -3.62632 -0.537947 0
M  V30 35754 H 3226.2 -4.05466 -2.97668 0
M  V30 35755 H 3225.9 -5.52122 -2.01084 0
M  V30 35756 H 3227.42 -5.35773 -2.92883 0
M  V30 35757 H 3228.84 -5.69227 -0.682162 0
M  V30 35758 H 3227.24 -6.00082 0.0463801 0
M  V30 35759 H 3228.31 -4.78727 0.771236 0
M  V30 35760 N 3229.65 -0.103603 -1.57259 0
M  V30 35761 C 3230.9 0.55699 -1.94273 0
M  V30 35762 C 3231.22 1.6819 -0.986768 0
M  V30 35763 O 3230.49 1.95859 -0.0403162 0
M  V30 35764 H 3229.07 0.208745 -0.717241 0
M  V30 35765 H 3231.73 -0.168932 -1.94167 0
M  V30 35766 H 3230.83 0.961638 -2.96916 0
M  V30 35767 N 3231.13 1.56679 0.170126 0
M  V30 35768 C 3232.35 1.86558 0.906148 0
M  V30 35769 C 3232.78 0.690075 1.74985 0
M  V30 35770 O 3232.13 -0.360831 1.77673 0
M  V30 35771 C 3232.18 3.1486 1.75772 0
M  V30 35772 O 3231.29 2.97167 2.85947 0
M  V30 35773 H 3230.63 0.613593 0.25377 0
M  V30 35774 H 3233.16 2.0391 0.167907 0
M  V30 35775 H 3233.17 3.46295 2.15741 0
M  V30 35776 H 3231.84 4.00028 1.138 0
M  V30 35777 H 3230.42 2.77089 2.49552 0
M  V30 35778 N 3232.6 -0.43872 1.5137 0
M  V30 35779 C 3233.53 -1.53984 1.75531 0
M  V30 35780 C 3234.52 -1.58974 0.605095 0
M  V30 35781 O 3235.7 -1.74723 0.847664 0
M  V30 35782 C 3232.83 -2.92074 1.87909 0
M  V30 35783 C 3231.78 -3.01946 3.03336 0
M  V30 35784 C 3231.11 -4.42002 3.00896 0
M  V30 35785 C 3232.41 -2.76155 4.43323 0
M  V30 35786 H 3234.1 -1.34017 2.67731 0
M  V30 35787 H 3231.65 -0.643285 1.28833 0
M  V30 35788 H 3233.6 -3.69064 2.03395 0
M  V30 35789 H 3232.33 -3.13269 0.923569 0
M  V30 35790 H 3230.99 -2.27395 2.87553 0
M  V30 35791 H 3230.63 -4.60163 2.03124 0
M  V30 35792 H 3230.33 -4.49537 3.78405 0
M  V30 35793 H 3231.86 -5.20968 3.18473 0
M  V30 35794 H 3233.27 -3.42879 4.59464 0
M  V30 35795 H 3231.67 -2.95101 5.22528 0
M  V30 35796 H 3232.74 -1.71771 4.53456 0
M  V30 35797 N 3234.08 -1.41493 -0.694073 0
M  V30 35798 C 3235.03 -1.43665 -1.82929 0
M  V30 35799 C 3236.02 -0.31452 -1.66455 0
M  V30 35800 O 3237.23 -0.486619 -1.73297 0
M  V30 35801 H 3233.61 -0.449543 -0.602839 0
M  V30 35802 H 3235.58 -2.39337 -1.78214 0
M  V30 35803 C 3234.33 -1.33718 -3.20959 0
M  V30 35804 H 3233.65 -2.19351 -3.34253 0
M  V30 35805 H 3235.09 -1.39298 -4.00465 0
M  V30 35806 C 3233.55 -0.0496924 -3.36863 0
M  V30 35807 O 3234.08 0.905025 -3.91372 0
M  V30 35808 N 3232.28 0.0268788 -2.90588 0
M  V30 35809 H 3231.83 -0.750795 -2.46416 0
M  V30 35810 H 3231.79 0.887728 -3.01607 0
M  V30 35811 N 3235.56 0.928479 -1.27346 0
M  V30 35812 C 3236.49 2.04601 -1.12521 0
M  V30 35813 C 3237.47 1.70079 -0.0268862 0
M  V30 35814 O 3238.66 1.93155 -0.201231 0
M  V30 35815 C 3235.79 3.38638 -0.770808 0
M  V30 35816 C 3234.74 3.87269 -1.82227 0
M  V30 35817 C 3234.07 5.18103 -1.32187 0
M  V30 35818 C 3235.37 4.10746 -3.22621 0
M  V30 35819 H 3237.06 2.17262 -2.06004 0
M  V30 35820 H 3234.61 1.04396 -0.991845 0
M  V30 35821 H 3236.56 4.16295 -0.653916 0
M  V30 35822 H 3235.28 3.25989 0.199732 0
M  V30 35823 H 3233.94 3.11804 -1.92805 0
M  V30 35824 H 3233.59 5.01844 -0.340807 0
M  V30 35825 H 3233.29 5.5161 -2.02484 0
M  V30 35826 H 3234.81 5.98331 -1.2179 0
M  V30 35827 H 3236.23 4.78976 -3.15048 0
M  V30 35828 H 3234.63 4.55559 -3.90622 0
M  V30 35829 H 3235.7 3.1607 -3.67733 0
M  V30 35830 N 3237.04 1.09355 1.13486 0
M  V30 35831 C 3238.45 0.82311 1.36737 0
M  V30 35832 C 3238.65 -0.562929 1.93477 0
M  V30 35833 O 3237.71 -1.31793 2.15376 0
M  V30 35834 C 3239.02 1.91375 2.3194 0
M  V30 35835 C 3240.57 1.9409 2.45557 0
M  V30 35836 C 3241.05 3.02295 3.44066 0
M  V30 35837 N 3242.54 3.0153 3.51616 0
M  V30 35838 C 3243.27 3.81897 4.27717 0
M  V30 35839 N 3242.77 4.7217 5.06979 0
M  V30 35840 N 3244.56 3.70159 4.23011 0
M  V30 35841 H 3236.71 1.98715 0.750085 0
M  V30 35842 H 3238.98 0.862907 0.392549 0
M  V30 35843 H 3238.68 2.91076 1.97403 0
M  V30 35844 H 3238.56 1.79136 3.31949 0
M  V30 35845 H 3240.94 0.950283 2.79381 0
M  V30 35846 H 3241.02 2.10406 1.45475 0
M  V30 35847 H 3240.67 4.01569 3.10974 0
M  V30 35848 H 3240.6 2.83222 4.43951 0
M  V30 35849 H 3243.09 2.36108 2.95061 0
M  V30 35850 H 3243.4 5.30077 5.62351 0
M  V30 35851 H 3241.75 4.76206 5.06214 0
M  V30 35852 H 3244.94 2.98995 3.60166 0
M  V30 35853 H 3245.11 4.3303 4.82067 0
M  V30 35854 N 3238.52 -1.307 0.880644 0
M  V30 35855 C 3239.76 -1.9698 0.507001 0
M  V30 35856 C 3240.12 -1.68283 -0.932664 0
M  V30 35857 O 3239.41 -0.974738 -1.64953 0
M  V30 35858 C 3239.61 -3.5021 0.713264 0
M  V30 35859 C 3239.43 -3.93801 2.17143 0
M  V30 35860 C 3238.2 -4.19616 2.81515 0
M  V30 35861 C 3240.4 -4.06948 3.1448 0
M  V30 35862 N 3238.38 -4.49636 4.17972 0
M  V30 35863 C 3239.76 -4.40802 4.35998 0
M  V30 35864 C 3241.81 -3.8936 3.10327 0
M  V30 35865 C 3240.51 -4.58902 5.53897 0
M  V30 35866 C 3242.54 -4.0866 4.27494 0
M  V30 35867 C 3241.9 -4.42854 5.47777 0
M  V30 35868 H 3238 -0.745927 0.234769 0
M  V30 35869 H 3240.58 -1.58018 1.13748 0
M  V30 35870 H 3238.76 -3.88238 0.112307 0
M  V30 35871 H 3240.49 -4.03534 0.306951 0
M  V30 35872 H 3237.24 -4.12655 2.32406 0
M  V30 35873 H 3237.67 -4.68787 4.88434 0
M  V30 35874 H 3242.31 -3.62003 2.18434 0
M  V30 35875 H 3240.03 -4.85103 6.46298 0
M  V30 35876 H 3243.61 -3.96525 4.25745 0
M  V30 35877 H 3242.49 -4.57482 6.3693 0
M  V30 35878 N 3240 -0.641156 -1.43969 0
M  V30 35879 C 3240.93 0.0962912 -2.28998 0
M  V30 35880 C 3241.94 0.799046 -1.41842 0
M  V30 35881 O 3243.13 0.658817 -1.65897 0
M  V30 35882 C 3240.23 1.15897 -3.18467 0
M  V30 35883 C 3239.4 0.536752 -4.34094 0
M  V30 35884 C 3238.46 1.49472 -5.04524 0
M  V30 35885 O 3237.49 1.00797 -5.60204 0
M  V30 35886 N 3238.69 2.82892 -5.06904 0
M  V30 35887 H 3241.45 -0.633474 -2.92929 0
M  V30 35888 H 3239.02 -0.483048 -1.54526 0
M  V30 35889 H 3241.01 1.80037 -3.62448 0
M  V30 35890 H 3239.58 1.79085 -2.56218 0
M  V30 35891 H 3238.8 -0.283483 -3.93179 0
M  V30 35892 H 3240.09 0.101877 -5.08698 0
M  V30 35893 H 3239.48 3.25009 -4.63018 0
M  V30 35894 H 3238.04 3.42366 -5.54643 0
M  V30 35895 N 3241.47 1.52892 -0.382318 0
M  V30 35896 C 3242.38 2.29972 0.463705 0
M  V30 35897 C 3243.4 1.36604 1.07774 0
M  V30 35898 O 3244.58 1.69671 1.08507 0
M  V30 35899 C 3241.64 3.08639 1.57932 0
M  V30 35900 C 3240.7 4.17703 0.991109 0
M  V30 35901 C 3239.93 4.9261 2.05356 0
M  V30 35902 O 3240.16 4.67538 3.26749 0
M  V30 35903 O 3239.09 5.78131 1.67477 0
M  V30 35904 H 3242.92 3.03257 -0.164016 0
M  V30 35905 H 3240.5 1.48683 -0.146225 0
M  V30 35906 H 3242.38 3.5771 2.22758 0
M  V30 35907 H 3241.06 2.38174 2.19214 0
M  V30 35908 H 3239.97 3.72844 0.306299 0
M  V30 35909 H 3241.3 4.90382 0.422613 0
M  V30 35910 N 3242.95 0.111941 1.57202 0
M  V30 35911 C 3244.2 -0.548573 1.9524 0
M  V30 35912 C 3244.53 -1.66778 0.994927 0
M  V30 35913 O 3243.81 -1.94475 0.0308945 0
M  V30 35914 C 3244.09 -1.08792 3.43273 0
M  V30 35915 C 3243.94 0.0273854 4.49792 0
M  V30 35916 C 3245.26 -1.98102 3.92993 0
M  V30 35917 H 3242.38 -0.197939 0.709922 0
M  V30 35918 H 3245.02 0.186069 1.89087 0
M  V30 35919 H 3243.17 -1.71398 3.48647 0
M  V30 35920 H 3244.84 0.662382 4.5652 0
M  V30 35921 H 3243.09 0.691501 4.28253 0
M  V30 35922 H 3243.76 -0.391104 5.50613 0
M  V30 35923 H 3246.23 -1.45378 3.89878 0
M  V30 35924 H 3245.11 -2.32761 4.97105 0
M  V30 35925 H 3245.37 -2.90486 3.33272 0
M  V30 35926 N 3244.43 -1.56767 -0.161814 0
M  V30 35927 C 3245.67 -1.8433 -0.883277 0
M  V30 35928 C 3246.03 -0.694196 -1.79011 0
M  V30 35929 O 3247.23 -0.850506 -2.5499 0
M  V30 35930 C 3245.51 -3.17036 -1.64994 0
M  V30 35931 S 3247.06 -3.6611 -2.41886 0
M  V30 35932 H 3243.88 -0.646614 -0.295655 0
M  V30 35933 H 3246.48 -1.94967 -0.144256 0
M  V30 35934 H 3245.19 -3.98651 -0.974955 0
M  V30 35935 H 3244.72 -3.09365 -2.43016 0
M  V30 35936 H 3246.73 -3.34193 -3.66782 0
M  V30 35937 N 3245.91 0.430686 -1.51601 0
M  V30 35938 C 3246.85 1.52325 -1.73395 0
M  V30 35939 C 3247.82 1.55801 -0.575786 0
M  V30 35940 O 3249.01 1.72708 -0.810961 0
M  V30 35941 C 3246.15 2.89981 -1.87097 0
M  V30 35942 C 3245.26 2.95981 -3.14673 0
M  V30 35943 C 3244.4 4.24802 -3.18931 0
M  V30 35944 C 3243.44 4.24696 -4.40795 0
M  V30 35945 N 3242.57 5.45051 -4.42565 0
M  V30 35946 H 3247.41 1.33043 -2.66652 0
M  V30 35947 H 3244.95 0.646183 -1.32147 0
M  V30 35948 H 3246.91 3.69862 -1.93023 0
M  V30 35949 H 3245.54 3.07805 -0.972417 0
M  V30 35950 H 3244.59 2.08722 -3.18024 0
M  V30 35951 H 3245.9 2.91765 -4.04567 0
M  V30 35952 H 3245.06 5.13061 -3.2381 0
M  V30 35953 H 3243.8 4.31684 -2.26937 0
M  V30 35954 H 3242.8 3.34828 -4.36085 0
M  V30 35955 H 3244.03 4.19472 -5.3406 0
M  V30 35956 H 3241.97 5.52642 -3.53445 0
M  V30 35957 H 3241.89 5.42742 -5.26277 0
M  V30 35958 H 3243.16 6.35324 -4.51646 0
M  V30 35959 N 3247.39 1.4186 0.686559 0
M  V30 35960 C 3248.32 1.40355 1.81199 0
M  V30 35961 C 3249.33 0.30435 1.5993 0
M  V30 35962 O 3250.52 0.566673 1.69266 0
M  V30 35963 C 3247.62 1.16862 3.18114 0
M  V30 35964 C 3246.79 2.38993 3.66335 0
M  V30 35965 C 3245.85 2.11221 4.81946 0
M  V30 35966 O 3244.88 2.84331 4.93097 0
M  V30 35967 N 3246.08 1.10803 5.69827 0
M  V30 35968 H 3248.84 2.37358 1.82979 0
M  V30 35969 H 3246.41 1.36588 0.86922 0
M  V30 35970 H 3248.4 0.962194 3.93095 0
M  V30 35971 H 3246.97 0.284241 3.11305 0
M  V30 35972 H 3246.19 2.75279 2.82161 0
M  V30 35973 H 3247.48 3.20347 3.95292 0
M  V30 35974 H 3246.87 0.503111 5.63458 0
M  V30 35975 H 3245.43 0.961492 6.44669 0
M  V30 35976 N 3248.86 -0.921712 1.27837 0
M  V30 35977 C 3249.79 -2.04001 1.13604 0
M  V30 35978 C 3250.77 -1.70062 0.0359055 0
M  V30 35979 O 3251.96 -1.93045 0.211472 0
M  V30 35980 C 3249.09 -3.38225 0.788756 0
M  V30 35981 C 3248.04 -3.86297 1.84278 0
M  V30 35982 C 3247.37 -5.17395 1.34933 0
M  V30 35983 C 3248.67 -4.0903 3.24795 0
M  V30 35984 H 3250.36 -2.16166 2.07153 0
M  V30 35985 H 3247.91 -1.03868 0.997368 0
M  V30 35986 H 3249.86 -4.15943 0.675984 0
M  V30 35987 H 3248.59 -3.2609 -0.182442 0
M  V30 35988 H 3247.25 -3.10777 1.94456 0
M  V30 35989 H 3246.89 -5.01656 0.367416 0
M  V30 35990 H 3246.59 -5.50529 2.05406 0
M  V30 35991 H 3248.12 -5.97676 1.24962 0
M  V30 35992 H 3249.53 -4.77298 3.17584 0
M  V30 35993 H 3247.93 -4.53481 3.93033 0
M  V30 35994 H 3249 -3.14116 3.69404 0
M  V30 35995 N 3250.34 -1.09956 -1.12905 0
M  V30 35996 C 3251.57 -0.861132 -1.88678 0
M  V30 35997 C 3251.99 0.582467 -1.78854 0
M  V30 35998 O 3251.35 1.40978 -1.13995 0
M  V30 35999 C 3251.4 -1.30791 -3.36045 0
M  V30 36000 O 3250.5 -0.4698 -4.09715 0
M  V30 36001 H 3249.84 -0.311421 -0.586441 0
M  V30 36002 H 3252.37 -1.46509 -1.42815 0
M  V30 36003 H 3252.38 -1.29569 -3.8688 0
M  V30 36004 H 3251.06 -2.35921 -3.42512 0
M  V30 36005 H 3249.63 -0.546805 -3.68869 0
M  V30 36006 N 3251.82 1.30231 -0.887563 0
M  V30 36007 C 3253.1 1.90876 -0.427282 0
M  V30 36008 C 3253.48 1.80651 1.09217 0
M  V30 36009 O 3252.82 1.22539 1.92864 0
M  V30 36010 C 3253.03 3.36428 -0.928278 0
M  V30 36011 C 3254.38 4.13494 -0.964779 0
M  V30 36012 O 3255.41 3.45283 -0.875118 0
M  V30 36013 O 3254.27 5.35364 -1.09763 0
M  V30 36014 H 3251.36 0.816539 -0.131121 0
M  V30 36015 H 3253.91 1.3878 -0.976634 0
M  V30 36016 H 3252.68 3.37967 -1.97215 0
M  V30 36017 H 3252.3 3.95983 -0.358239 0
M  V30 36018 N 3253.3 0.648782 1.43627 0
M  V30 36019 C 3254.71 0.315948 1.56441 0
M  V30 36020 C 3254.91 -1.18015 1.63324 0
M  V30 36021 O 3253.97 -1.96484 1.58589 0
M  V30 36022 C 3255.28 1.0234 2.82749 0
M  V30 36023 C 3256.83 1.00323 2.96487 0
M  V30 36024 C 3257.31 1.69149 4.2562 0
M  V30 36025 N 3258.8 1.65892 4.32474 0
M  V30 36026 C 3259.53 2.16025 5.3115 0
M  V30 36027 N 3259.03 2.74427 6.3613 0
M  V30 36028 N 3260.82 2.06551 5.22775 0
M  V30 36029 H 3252.97 1.6197 1.37402 0
M  V30 36030 H 3255.24 0.680898 0.659608 0
M  V30 36031 H 3254.94 2.07849 2.8371 0
M  V30 36032 H 3254.82 0.572179 3.72835 0
M  V30 36033 H 3257.2 -0.0434401 2.95068 0
M  V30 36034 H 3257.28 1.49311 2.07702 0
M  V30 36035 H 3256.93 2.73771 4.27799 0
M  V30 36036 H 3256.86 1.17631 5.13294 0
M  V30 36037 H 3259.35 1.2327 3.57229 0
M  V30 36038 H 3259.66 3.10368 7.07737 0
M  V30 36039 H 3258.01 2.78485 6.36766 0
M  V30 36040 H 3261.2 1.60633 4.39676 0
M  V30 36041 H 3261.37 2.4593 5.99519 0
M  V30 36042 N 3254.78 -1.52688 0.390421 0
M  V30 36043 C 3255.72 -2.26485 -0.444189 0
M  V30 36044 C 3256.69 -1.28139 -1.05686 0
M  V30 36045 O 3257.88 -1.5697 -1.08467 0
M  V30 36046 C 3255.02 -3.07576 -1.56496 0
M  V30 36047 C 3254.13 -4.20853 -0.975037 0
M  V30 36048 C 3253.27 -4.89337 -2.06695 0
M  V30 36049 C 3252.31 -5.94605 -1.45298 0
M  V30 36050 N 3251.44 -6.56681 -2.48425 0
M  V30 36051 H 3256.28 -2.97383 0.191587 0
M  V30 36052 H 3253.82 -1.46715 0.106313 0
M  V30 36053 H 3255.78 -3.52883 -2.22552 0
M  V30 36054 H 3254.41 -2.38885 -2.17103 0
M  V30 36055 H 3253.46 -3.79852 -0.204042 0
M  V30 36056 H 3254.77 -4.96423 -0.486377 0
M  V30 36057 H 3253.93 -5.37953 -2.80519 0
M  V30 36058 H 3252.66 -4.13293 -2.58921 0
M  V30 36059 H 3251.67 -5.45326 -0.699995 0
M  V30 36060 H 3252.89 -6.72582 -0.938657 0
M  V30 36061 H 3250.84 -5.83477 -2.99818 0
M  V30 36062 H 3250.76 -7.27867 -2.04318 0
M  V30 36063 H 3252.03 -7.09941 -3.21876 0
M  V30 36064 N 3256.25 -0.120276 -1.5714 0
M  V30 36065 C 3257.2 0.82946 -2.1538 0
M  V30 36066 C 3258.17 1.26268 -1.07915 0
M  V30 36067 O 3259.36 1.33997 -1.35829 0
M  V30 36068 C 3256.5 2.07366 -2.75851 0
M  V30 36069 C 3255.61 1.68868 -3.97627 0
M  V30 36070 C 3254.74 2.88264 -4.46181 0
M  V30 36071 C 3253.78 2.46013 -5.60486 0
M  V30 36072 N 3252.92 3.58327 -6.03777 0
M  V30 36073 H 3257.76 0.325979 -2.96212 0
M  V30 36074 H 3255.3 0.149209 -1.46341 0
M  V30 36075 H 3257.26 2.80266 -3.09041 0
M  V30 36076 H 3255.89 2.5517 -1.97707 0
M  V30 36077 H 3254.94 0.858366 -3.70589 0
M  V30 36078 H 3256.25 1.33819 -4.80514 0
M  V30 36079 H 3255.4 3.69388 -4.81287 0
M  V30 36080 H 3254.14 3.26542 -3.62246 0
M  V30 36081 H 3253.15 1.63322 -5.24982 0
M  V30 36082 H 3254.37 2.08851 -6.46187 0
M  V30 36083 H 3252.32 3.96275 -5.22783 0
M  V30 36084 H 3252.24 3.27205 -6.81523 0
M  V30 36085 H 3253.5 4.39887 -6.43521 0
M  V30 36086 N 3257.73 1.56851 0.153498 0
M  V30 36087 C 3259.15 1.51369 0.505913 0
M  V30 36088 C 3259.35 0.827602 1.8372 0
M  V30 36089 O 3258.4 0.395408 2.49385 0
M  V30 36090 C 3259.72 2.96131 0.522217 0
M  V30 36091 C 3261.27 3.07034 0.608184 0
M  V30 36092 C 3261.74 4.53289 0.655212 0
M  V30 36093 N 3263.23 4.57607 0.717615 0
M  V30 36094 C 3263.97 5.6814 0.774877 0
M  V30 36095 N 3263.46 6.88259 0.791882 0
M  V30 36096 N 3265.26 5.56156 0.815262 0
M  V30 36097 H 3257.41 1.99852 -0.719225 0
M  V30 36098 H 3259.67 0.911225 -0.261482 0
M  V30 36099 H 3259.38 3.49557 -0.387656 0
M  V30 36100 H 3259.25 3.51735 1.36244 0
M  V30 36101 H 3261.64 2.53631 1.50848 0
M  V30 36102 H 3261.72 2.54485 -0.259059 0
M  V30 36103 H 3261.36 5.07328 -0.240898 0
M  V30 36104 H 3261.29 5.03614 1.53885 0
M  V30 36105 H 3263.78 3.71131 0.712035 0
M  V30 36106 H 3264.1 7.68251 0.837243 0
M  V30 36107 H 3262.44 6.90834 0.759864 0
M  V30 36108 H 3265.63 4.61229 0.799102 0
M  V30 36109 H 3265.8 6.42316 0.856424 0
M  V30 36110 N 3259.21 -0.42264 1.51827 0
M  V30 36111 C 3260.14 -1.52114 1.77154 0
M  V30 36112 C 3261.12 -1.58323 0.621922 0
M  V30 36113 O 3262.31 -1.73815 0.866148 0
M  V30 36114 C 3259.44 -2.90065 1.90997 0
M  V30 36115 C 3258.39 -2.98712 3.06521 0
M  V30 36116 C 3257.72 -4.38786 3.05567 0
M  V30 36117 C 3259.02 -2.71437 4.46227 0
M  V30 36118 H 3260.71 -1.3117 2.69137 0
M  V30 36119 H 3258.26 -0.629584 1.29508 0
M  V30 36120 H 3260.21 -3.66886 2.07298 0
M  V30 36121 H 3258.93 -3.12272 0.956743 0
M  V30 36122 H 3257.59 -2.24333 2.89949 0
M  V30 36123 H 3257.24 -4.57982 2.07993 0
M  V30 36124 H 3256.94 -4.45498 3.83151 0
M  V30 36125 H 3258.46 -5.17561 3.2398 0
M  V30 36126 H 3259.88 -3.37986 4.63075 0
M  V30 36127 H 3258.28 -2.89542 5.25628 0
M  V30 36128 H 3259.35 -1.66952 4.55253 0
M  V30 36129 N 3260.69 -1.42222 -0.679027 0
M  V30 36130 C 3261.6 -1.47762 -1.82218 0
M  V30 36131 C 3262.61 -0.36673 -1.70091 0
M  V30 36132 O 3263.79 -0.61699 -1.91716 0
M  V30 36133 C 3260.86 -1.37357 -3.1833 0
M  V30 36134 C 3259.92 -2.58902 -3.42444 0
M  V30 36135 C 3259.15 -2.48984 -4.72062 0
M  V30 36136 O 3259.37 -1.5234 -5.49681 0
M  V30 36137 O 3258.31 -3.39042 -4.97327 0
M  V30 36138 H 3262.13 -2.44241 -1.805 0
M  V30 36139 H 3259.72 -1.23939 -0.834229 0
M  V30 36140 H 3261.6 -1.339 -3.99561 0
M  V30 36141 H 3260.27 -0.440021 -3.20695 0
M  V30 36142 H 3259.18 -2.67934 -2.61079 0
M  V30 36143 H 3260.51 -3.51142 -3.44906 0
M  V30 36144 N 3262.17 0.91492 -1.28324 0
M  V30 36145 C 3263.08 2.05041 -1.13996 0
M  V30 36146 C 3264.09 1.73872 -0.0668227 0
M  V30 36147 O 3265.27 1.99502 -0.27588 0
M  V30 36148 C 3262.33 3.37298 -0.801916 0
M  V30 36149 C 3261.39 3.82084 -1.95729 0
M  V30 36150 C 3260.63 5.0803 -1.63528 0
M  V30 36151 O 3260.85 5.67751 -0.54909 0
M  V30 36152 O 3259.78 5.485 -2.47854 0
M  V30 36153 H 3263.61 2.20046 -2.09316 0
M  V30 36154 H 3261.2 1.03614 -1.07631 0
M  V30 36155 H 3263.08 4.16705 -0.627288 0
M  V30 36156 H 3261.75 3.23471 0.121639 0
M  V30 36157 H 3260.66 3.0351 -2.18707 0
M  V30 36158 H 3261.99 4.00473 -2.86151 0
M  V30 36159 N 3263.64 1.10553 1.1232 0
M  V30 36160 C 3264.58 0.713301 2.17818 0
M  V30 36161 C 3265.59 -0.250575 1.6086 0
M  V30 36162 O 3266.78 -0.0348595 1.78466 0
M  V30 36163 C 3263.88 0.0320921 3.38885 0
M  V30 36164 C 3263.05 1.02045 4.2533 0
M  V30 36165 C 3262.11 0.370504 5.24894 0
M  V30 36166 O 3261.14 1.02167 5.59956 0
M  V30 36167 N 3262.34 -0.870532 5.73936 0
M  V30 36168 H 3265.1 1.62098 2.5208 0
M  V30 36169 H 3262.66 0.994515 1.27754 0
M  V30 36170 H 3264.66 -0.414214 4.02575 0
M  V30 36171 H 3263.23 -0.778019 3.02763 0
M  V30 36172 H 3262.45 1.64499 3.58237 0
M  V30 36173 H 3263.73 1.68944 4.79933 0
M  V30 36174 H 3263.13 -1.41891 5.47616 0
M  V30 36175 H 3261.69 -1.25997 6.39506 0
M  V30 36176 N 3265.12 -1.29758 0.894457 0
M  V30 36177 C 3266.07 -2.27869 0.366626 0
M  V30 36178 C 3267.04 -1.56786 -0.548397 0
M  V30 36179 O 3268.22 -1.84799 -0.474771 0
M  V30 36180 C 3265.36 -3.42722 -0.404471 0
M  V30 36181 C 3264.48 -4.28601 0.540849 0
M  V30 36182 C 3263.61 -5.30626 -0.246781 0
M  V30 36183 C 3262.65 -6.0816 0.693401 0
M  V30 36184 N 3261.79 -7.02075 -0.0594956 0
M  V30 36185 H 3266.63 -2.724 1.20839 0
M  V30 36186 H 3264.17 -1.33982 0.607229 0
M  V30 36187 H 3266.12 -4.0808 -0.867549 0
M  V30 36188 H 3264.75 -2.99234 -1.21073 0
M  V30 36189 H 3263.81 -3.63463 1.12244 0
M  V30 36190 H 3265.12 -4.82604 1.26074 0
M  V30 36191 H 3264.27 -6.01777 -0.771292 0
M  V30 36192 H 3263.01 -4.77341 -0.999834 0
M  V30 36193 H 3262.02 -5.35877 1.22946 0
M  V30 36194 H 3263.24 -6.63533 1.4457 0
M  V30 36195 H 3261.19 -6.51166 -0.794911 0
M  V30 36196 H 3261.1 -7.53611 0.600583 0
M  V30 36197 H 3262.37 -7.77454 -0.564441 0
M  V30 36198 N 3266.6 -0.65639 -1.4328 0
M  V30 36199 C 3267.55 0.0451628 -2.32556 0
M  V30 36200 C 3268.54 0.809794 -1.48791 0
M  V30 36201 O 3269.75 0.719836 -1.6498 0
M  V30 36202 H 3266.12 0.0333911 -0.751258 0
M  V30 36203 H 3268.09 -0.725474 -2.89447 0
M  V30 36204 C 3266.84 0.995648 -3.3314 0
M  V30 36205 H 3266.17 0.416704 -3.97622 0
M  V30 36206 H 3267.61 1.45555 -3.98233 0
M  V30 36207 C 3266.07 2.0932 -2.63982 0
M  V30 36208 O 3266.6 3.17739 -2.45774 0
M  V30 36209 N 3264.8 1.85966 -2.23305 0
M  V30 36210 H 3264.35 0.977978 -2.38314 0
M  V30 36211 H 3264.31 2.59596 -1.77362 0
M  V30 36212 N 3268.08 1.52478 -0.398513 0
M  V30 36213 C 3269.33 2.00877 0.182011 0
M  V30 36214 C 3269.64 1.28893 1.47126 0
M  V30 36215 O 3270.85 1.68051 2.13239 0
M  V30 36216 C 3269.3 3.57942 0.374915 0
M  V30 36217 C 3268.91 4.38833 -0.901621 0
M  V30 36218 C 3270.66 4.14603 0.911305 0
M  V30 36219 C 3268.56 5.87518 -0.676489 0
M  V30 36220 H 3267.49 0.750574 0.0717936 0
M  V30 36221 H 3270.14 1.75909 -0.522328 0
M  V30 36222 H 3268.53 3.79196 1.14133 0
M  V30 36223 H 3269.7 4.29343 -1.67336 0
M  V30 36224 H 3268.01 3.93438 -1.36364 0
M  V30 36225 H 3270.61 5.23355 1.0956 0
M  V30 36226 H 3270.95 3.7128 1.88299 0
M  V30 36227 H 3271.49 3.97275 0.204226 0
M  V30 36228 H 3268.23 6.35181 -1.61944 0
M  V30 36229 H 3267.75 5.99774 0.0561488 0
M  V30 36230 H 3269.43 6.46235 -0.314568 0
M  V30 36231 N 3269.56 0.128608 1.57074 0
M  V30 36232 C 3270.49 -0.81448 2.18834 0
M  V30 36233 C 3271.47 -1.27038 1.13116 0
M  V30 36234 O 3272.65 -1.33126 1.4139 0
M  V30 36235 C 3269.78 -2.06096 2.79539 0
M  V30 36236 C 3268.74 -1.7425 3.90923 0
M  V30 36237 C 3268.06 -3.06008 4.38479 0
M  V30 36238 C 3269.36 -1.00336 5.12572 0
M  V30 36239 H 3271.06 -0.29981 2.97895 0
M  V30 36240 H 3268.6 -0.142764 1.43291 0
M  V30 36241 H 3270.56 -2.72537 3.21406 0
M  V30 36242 H 3269.28 -2.59904 1.97782 0
M  V30 36243 H 3267.94 -1.10194 3.49647 0
M  V30 36244 H 3267.59 -3.57769 3.53568 0
M  V30 36245 H 3267.29 -2.8547 5.13596 0
M  V30 36246 H 3268.81 -3.73551 4.83003 0
M  V30 36247 H 3270.23 -1.56949 5.51398 0
M  V30 36248 H 3268.62 -0.898588 5.93334 0
M  V30 36249 H 3269.69 0.00821874 4.84899 0
M  V30 36250 N 3271.04 -1.5693 -0.145178 0
M  V30 36251 C 3272.26 -1.87976 -0.876353 0
M  V30 36252 C 3272.69 -0.717826 -1.73865 0
M  V30 36253 O 3272.04 0.332519 -1.78225 0
M  V30 36254 C 3272.09 -3.17616 -1.7074 0
M  V30 36255 O 3271.2 -3.01679 -2.81183 0
M  V30 36256 H 3270.54 -0.617553 -0.243976 0
M  V30 36257 H 3273.07 -2.04151 -0.135446 0
M  V30 36258 H 3273.08 -3.49683 -2.10204 0
M  V30 36259 H 3271.75 -4.01788 -1.07422 0
M  V30 36260 H 3270.33 -2.81024 -2.45112 0
M  V30 36261 N 3272.51 0.414582 -1.52049 0
M  V30 36262 C 3273.42 1.52954 -1.77882 0
M  V30 36263 C 3274.44 1.60828 -0.664108 0
M  V30 36264 O 3275.62 1.77645 -0.948914 0
M  V30 36265 C 3272.68 2.88741 -1.91911 0
M  V30 36266 C 3271.74 2.90798 -3.15808 0
M  V30 36267 C 3270.97 4.20108 -3.29158 0
M  V30 36268 O 3271.2 5.13713 -2.47901 0
M  V30 36269 O 3270.13 4.28912 -4.22277 0
M  V30 36270 H 3273.96 1.34062 -2.72509 0
M  V30 36271 H 3271.54 0.599893 -1.36827 0
M  V30 36272 H 3273.42 3.69286 -2.02992 0
M  V30 36273 H 3272.1 3.07712 -1.00473 0
M  V30 36274 H 3271.01 2.09126 -3.10189 0
M  V30 36275 H 3272.34 2.76775 -4.07009 0
M  V30 36276 N 3273.99 1.4258 0.671475 0
M  V30 36277 C 3275.24 1.43227 1.43152 0
M  V30 36278 C 3275.57 0.0499037 1.94436 0
M  V30 36279 O 3274.82 -0.942252 1.71523 0
M  V30 36280 C 3275.12 2.40637 2.64251 0
M  V30 36281 C 3274.79 3.86941 2.3149 0
M  V30 36282 C 3273.45 4.26792 2.22266 0
M  V30 36283 C 3275.8 4.79213 2.04949 0
M  V30 36284 C 3273.13 5.56891 1.84632 0
M  V30 36285 C 3275.48 6.09659 1.68817 0
M  V30 36286 C 3274.14 6.48505 1.58106 0
M  V30 36287 H 3273.41 0.524103 0.523829 0
M  V30 36288 H 3276.06 1.75542 0.765332 0
M  V30 36289 H 3274.37 2.0166 3.35917 0
M  V30 36290 H 3276.06 2.384 3.22438 0
M  V30 36291 H 3272.65 3.55392 2.39572 0
M  V30 36292 H 3276.84 4.49211 2.11006 0
M  V30 36293 H 3272.09 5.85847 1.74911 0
M  V30 36294 H 3276.27 6.80642 1.47307 0
M  V30 36295 H 3273.89 7.49224 1.28714 0
M  V30 36296 N 3275.47 -0.908102 1.28807 0
M  V30 36297 C 3276.4 -2.01611 1.09022 0
M  V30 36298 C 3277.41 -1.6275 0.0402345 0
M  V30 36299 O 3278.6 -1.76228 0.283884 0
M  V30 36300 C 3275.7 -3.32883 0.635771 0
M  V30 36301 C 3274.88 -4.00322 1.76242 0
M  V30 36302 C 3273.94 -5.09879 1.30039 0
M  V30 36303 O 3272.96 -5.32769 2.00363 0
M  V30 36304 N 3274.16 -5.80261 0.166677 0
M  V30 36305 H 3276.93 -2.19141 2.04444 0
M  V30 36306 H 3274.49 -1.07976 1.20635 0
M  V30 36307 H 3276.48 -4.0351 0.310168 0
M  V30 36308 H 3275.05 -3.11784 -0.225761 0
M  V30 36309 H 3274.27 -3.23169 2.25733 0
M  V30 36310 H 3275.56 -4.42123 2.51804 0
M  V30 36311 H 3274.96 -5.6414 -0.419835 0
M  V30 36312 H 3273.51 -6.51724 -0.0996135 0
M  V30 36313 N 3276.95 -1.11147 -1.11732 0
M  V30 36314 C 3278.36 -0.84476 -1.3541 0
M  V30 36315 C 3278.56 0.532077 -1.94348 0
M  V30 36316 O 3277.62 1.2835 -2.17446 0
M  V30 36317 C 3278.93 -1.95041 -2.28866 0
M  V30 36318 C 3280.48 -1.97972 -2.42438 0
M  V30 36319 C 3280.96 -3.07731 -3.39213 0
M  V30 36320 N 3282.45 -3.07086 -3.46775 0
M  V30 36321 C 3283.18 -3.88653 -4.21588 0
M  V30 36322 N 3282.68 -4.80176 -4.99403 0
M  V30 36323 N 3284.47 -3.76842 -4.17069 0
M  V30 36324 H 3276.62 -1.99883 -0.718377 0
M  V30 36325 H 3278.88 -0.869043 -0.378771 0
M  V30 36326 H 3278.59 -2.94179 -1.92747 0
M  V30 36327 H 3278.46 -1.84395 -3.29057 0
M  V30 36328 H 3280.85 -0.99461 -2.77834 0
M  V30 36329 H 3280.93 -2.12694 -1.4211 0
M  V30 36330 H 3280.58 -4.06466 -3.04546 0
M  V30 36331 H 3280.51 -2.90249 -4.39389 0
M  V30 36332 H 3283 -2.40773 -2.91268 0
M  V30 36333 H 3283.31 -5.38956 -5.53847 0
M  V30 36334 H 3281.66 -4.84199 -4.98574 0
M  V30 36335 H 3284.85 -3.04688 -3.55363 0
M  V30 36336 H 3285.02 -4.40645 -4.75117 0
M  V30 36337 N 3278.43 1.29282 -0.901326 0
M  V30 36338 C 3279.7 1.90412 -0.447503 0
M  V30 36339 C 3280.08 1.81799 1.07295 0
M  V30 36340 O 3279.43 1.24578 1.91553 0
M  V30 36341 C 3279.64 3.35425 -0.963908 0
M  V30 36342 C 3280.99 4.12447 -1.00858 0
M  V30 36343 O 3282.01 3.44335 -0.91169 0
M  V30 36344 O 3280.87 5.34169 -1.15435 0
M  V30 36345 H 3277.97 0.815102 -0.139775 0
M  V30 36346 H 3280.51 1.37737 -0.991298 0
M  V30 36347 H 3279.28 3.35857 -2.00788 0
M  V30 36348 H 3278.91 3.95581 -0.400218 0
M  V30 36349 N 3279.9 0.663979 1.4293 0
M  V30 36350 C 3280.83 -0.00727223 2.33499 0
M  V30 36351 C 3281.81 -0.800706 1.50076 0
M  V30 36352 O 3283 -0.760031 1.7871 0
M  V30 36353 C 3280.13 -0.966839 3.33571 0
M  V30 36354 C 3279.08 -0.282764 4.27065 0
M  V30 36355 C 3278.41 -1.35452 5.17259 0
M  V30 36356 C 3279.71 0.831529 5.15638 0
M  V30 36357 H 3281.4 0.749095 2.89877 0
M  V30 36358 H 3278.95 0.36168 1.39384 0
M  V30 36359 H 3280.9 -1.44542 3.95835 0
M  V30 36360 H 3279.63 -1.7545 2.75472 0
M  V30 36361 H 3278.29 0.175481 3.6618 0
M  V30 36362 H 3277.93 -2.13389 4.55493 0
M  V30 36363 H 3277.63 -0.901996 5.80636 0
M  V30 36364 H 3279.16 -1.83426 5.82398 0
M  V30 36365 H 3280.57 0.434634 5.7165 0
M  V30 36366 H 3278.97 1.20918 5.87791 0
M  V30 36367 H 3280.04 1.68495 4.54684 0
M  V30 36368 N 3281.38 -1.52265 0.406593 0
M  V30 36369 C 3282.33 -2.28499 -0.434849 0
M  V30 36370 C 3283.32 -1.33088 -1.04804 0
M  V30 36371 O 3284.53 -1.50558 -0.986531 0
M  V30 36372 H 3280.9 -0.734996 -0.15901 0
M  V30 36373 H 3282.88 -2.97517 0.229368 0
M  V30 36374 C 3281.62 -3.11703 -1.54067 0
M  V30 36375 H 3280.95 -3.84988 -1.07817 0
M  V30 36376 H 3282.39 -3.68154 -2.10331 0
M  V30 36377 C 3280.85 -2.25104 -2.50658 0
M  V30 36378 O 3281.38 -1.88958 -3.54483 0
M  V30 36379 N 3279.58 -1.88924 -2.20808 0
M  V30 36380 H 3279.13 -2.18518 -1.36409 0
M  V30 36381 H 3279.09 -1.31275 -2.85682 0
M  V30 36382 N 3282.86 -0.136936 -1.57004 0
M  V30 36383 C 3283.77 0.819849 -2.19808 0
M  V30 36384 C 3284.79 1.2793 -1.17941 0
M  V30 36385 O 3285.96 1.33857 -1.5048 0
M  V30 36386 C 3283.03 2.04537 -2.79938 0
M  V30 36387 C 3282.09 1.63613 -3.969 0
M  V30 36388 C 3281.32 2.80323 -4.54153 0
M  V30 36389 O 3281.54 3.96256 -4.10289 0
M  V30 36390 O 3280.48 2.56374 -5.4457 0
M  V30 36391 H 3284.3 0.315284 -3.02059 0
M  V30 36392 H 3281.89 0.0895889 -1.49131 0
M  V30 36393 H 3283.77 2.76278 -3.18196 0
M  V30 36394 H 3282.45 2.53965 -2.00707 0
M  V30 36395 H 3281.35 0.889252 -3.63377 0
M  V30 36396 H 3282.69 1.1891 -4.77621 0
M  V30 36397 N 3284.34 1.57005 0.136853 0
M  V30 36398 C 3285.59 1.83901 0.847743 0
M  V30 36399 C 3285.91 0.719364 1.80708 0
M  V30 36400 O 3285.17 -0.290804 1.93527 0
M  V30 36401 C 3285.47 3.17186 1.64705 0
M  V30 36402 C 3285.13 4.43127 0.833605 0
M  V30 36403 C 3283.8 4.77328 0.609222 0
M  V30 36404 C 3286.15 5.20524 0.265413 0
M  V30 36405 C 3283.48 5.8638 -0.193896 0
M  V30 36406 C 3285.83 6.30419 -0.524799 0
M  V30 36407 C 3284.49 6.63163 -0.759664 0
M  V30 36408 H 3283.76 0.672941 0.310211 0
M  V30 36409 H 3286.41 1.91179 0.110903 0
M  V30 36410 H 3284.71 3.05404 2.45429 0
M  V30 36411 H 3286.41 3.35214 2.20075 0
M  V30 36412 H 3283 4.16321 1.01857 0
M  V30 36413 H 3287.18 4.94468 0.426022 0
M  V30 36414 H 3282.44 6.10185 -0.38526 0
M  V30 36415 H 3286.61 6.89581 -0.972154 0
M  V30 36416 H 3284.24 7.47499 -1.38382 0
M  V30 36417 N 3285.82 -0.406513 1.52267 0
M  V30 36418 C 3287.06 -1.15493 1.66701 0
M  V30 36419 C 3287.4 -1.90098 0.397052 0
M  V30 36420 O 3286.67 -1.84864 -0.604614 0
M  V30 36421 C 3286.95 -2.14729 2.89073 0
M  V30 36422 C 3286.81 -1.44004 4.26125 0
M  V30 36423 C 3288.13 -3.15368 3.06971 0
M  V30 36424 H 3285.24 -0.418504 0.606649 0
M  V30 36425 H 3287.89 -0.440349 1.84827 0
M  V30 36426 H 3286.04 -2.75668 2.7375 0
M  V30 36427 H 3287.71 -0.861642 4.53181 0
M  V30 36428 H 3285.95 -0.741989 4.27407 0
M  V30 36429 H 3286.62 -2.16427 5.07803 0
M  V30 36430 H 3289.1 -2.64506 3.21209 0
M  V30 36431 H 3287.97 -3.82065 3.94104 0
M  V30 36432 H 3288.24 -3.83243 2.20402 0
M  V30 36433 N 3287.29 -1.42934 -0.663904 0
M  V30 36434 C 3288.22 -1.50061 -1.78897 0
M  V30 36435 C 3289.21 -0.356193 -1.66329 0
M  V30 36436 O 3290.39 -0.571977 -1.85586 0
M  V30 36437 C 3287.52 -1.41286 -3.17262 0
M  V30 36438 C 3286.47 -2.53867 -3.4458 0
M  V30 36439 C 3285.8 -2.30148 -4.82634 0
M  V30 36440 C 3287.1 -3.96149 -3.40387 0
M  V30 36441 H 3288.79 -2.44225 -1.73189 0
M  V30 36442 H 3286.34 -1.17546 -0.8318 0
M  V30 36443 H 3288.29 -1.44878 -3.95712 0
M  V30 36444 H 3287.02 -0.436217 -3.23674 0
M  V30 36445 H 3285.68 -2.49611 -2.68496 0
M  V30 36446 H 3285.32 -1.30751 -4.85709 0
M  V30 36447 H 3285.02 -3.05608 -5.01874 0
M  V30 36448 H 3286.55 -2.35507 -5.63355 0
M  V30 36449 H 3287.96 -4.01951 -4.08789 0
M  V30 36450 H 3286.36 -4.71549 -3.71162 0
M  V30 36451 H 3287.43 -4.22045 -2.3876 0
M  V30 36452 N 3288.77 0.901258 -1.29287 0
M  V30 36453 C 3290.02 1.65422 -1.18351 0
M  V30 36454 C 3290.37 1.90598 0.262726 0
M  V30 36455 O 3289.67 1.5042 1.18677 0
M  V30 36456 C 3289.86 3.00892 -1.9287 0
M  V30 36457 C 3289.69 2.88939 -3.44593 0
M  V30 36458 C 3288.46 2.89791 -4.13943 0
M  V30 36459 C 3290.66 2.66084 -4.40118 0
M  V30 36460 N 3288.64 2.68559 -5.52041 0
M  V30 36461 C 3290.01 2.53817 -5.65665 0
M  V30 36462 C 3292.07 2.51179 -4.29899 0
M  V30 36463 C 3290.77 2.28163 -6.82154 0
M  V30 36464 C 3292.79 2.26908 -5.46138 0
M  V30 36465 C 3292.16 2.15404 -6.70657 0
M  V30 36466 H 3288.26 0.610992 -0.488071 0
M  V30 36467 H 3290.84 1.06338 -1.63096 0
M  V30 36468 H 3289.01 3.58039 -1.50541 0
M  V30 36469 H 3290.74 3.65283 -1.74214 0
M  V30 36470 H 3287.5 3.01017 -3.65631 0
M  V30 36471 H 3287.92 2.61 -6.24666 0
M  V30 36472 H 3292.56 2.58817 -3.34326 0
M  V30 36473 H 3290.28 2.19263 -7.77785 0
M  V30 36474 H 3293.87 2.16221 -5.40129 0
M  V30 36475 H 3292.75 1.96882 -7.59083 0
M  V30 36476 N 3290.25 1.11738 1.11141 0
M  V30 36477 C 3291.18 0.800833 2.19337 0
M  V30 36478 C 3292.16 -0.23218 1.68508 0
M  V30 36479 O 3293.35 -0.0949722 1.93968 0
M  V30 36480 C 3290.48 0.24664 3.46423 0
M  V30 36481 C 3289.43 1.21188 4.10484 0
M  V30 36482 C 3288.76 0.518251 5.32183 0
M  V30 36483 C 3290.06 2.56376 4.55048 0
M  V30 36484 H 3291.75 1.70552 2.46074 0
M  V30 36485 H 3289.3 0.821475 1.1827 0
M  V30 36486 H 3291.25 0.0129629 4.21398 0
M  V30 36487 H 3289.97 -0.693358 3.19155 0
M  V30 36488 H 3288.63 1.43124 3.37507 0
M  V30 36489 H 3288.28 -0.426654 5.01187 0
M  V30 36490 H 3287.98 1.16206 5.75995 0
M  V30 36491 H 3289.5 0.29344 6.09894 0
M  V30 36492 H 3290.92 2.38511 5.21331 0
M  V30 36493 H 3289.32 3.16767 5.09685 0
M  V30 36494 H 3290.39 3.15366 3.68337 0
M  V30 36495 N 3291.73 -1.28802 0.90817 0
M  V30 36496 C 3292.64 -2.31213 0.397208 0
M  V30 36497 C 3293.65 -1.66287 -0.512322 0
M  V30 36498 O 3294.83 -1.97391 -0.399859 0
M  V30 36499 C 3291.9 -3.44832 -0.359462 0
M  V30 36500 C 3290.96 -4.25328 0.582613 0
M  V30 36501 C 3290.19 -5.33521 -0.13804 0
M  V30 36502 O 3290.41 -5.53933 -1.36066 0
M  V30 36503 O 3289.35 -5.99617 0.523787 0
M  V30 36504 H 3293.17 -2.76916 1.24705 0
M  V30 36505 H 3290.76 -1.33394 0.67279 0
M  V30 36506 H 3292.64 -4.13985 -0.787025 0
M  V30 36507 H 3291.31 -3.01221 -1.18523 0
M  V30 36508 H 3290.22 -3.58784 1.05946 0
M  V30 36509 H 3291.55 -4.72603 1.37503 0
M  V30 36510 N 3293.21 -0.67155 -1.42576 0
M  V30 36511 C 3294.12 0.00894101 -2.34598 0
M  V30 36512 C 3295.13 0.79238 -1.54911 0
M  V30 36513 O 3296.31 0.735444 -1.87492 0
M  V30 36514 C 3293.37 0.95083 -3.33407 0
M  V30 36515 C 3292.43 0.162285 -4.28993 0
M  V30 36516 C 3291.67 1.05931 -5.23082 0
M  V30 36517 O 3291.89 2.29881 -5.22026 0
M  V30 36518 O 3290.82 0.52186 -5.99633 0
M  V30 36519 H 3294.65 -0.748979 -2.9432 0
M  V30 36520 H 3292.24 -0.431776 -1.43025 0
M  V30 36521 H 3294.12 1.49162 -3.94117 0
M  V30 36522 H 3292.79 1.68866 -2.76163 0
M  V30 36523 H 3291.7 -0.422536 -3.71706 0
M  V30 36524 H 3293.03 -0.53636 -4.89269 0
M  V30 36525 N 3294.68 1.52047 -0.414663 0
M  V30 36526 C 3295.65 2.25749 0.396245 0
M  V30 36527 C 3296.65 1.28325 0.968981 0
M  V30 36528 O 3297.84 1.52223 0.846989 0
M  V30 36529 C 3294.97 3.03198 1.55832 0
M  V30 36530 H 3296.16 2.98861 -0.249364 0
M  V30 36531 H 3293.72 1.55402 -0.167303 0
M  V30 36532 H 3294.45 2.34448 2.24064 0
M  V30 36533 H 3294.24 3.74731 1.15407 0
M  V30 36534 H 3295.73 3.59087 2.13181 0
M  V30 36535 N 3296.16 0.145261 1.56929 0
M  V30 36536 C 3297.44 -0.551255 1.87671 0
M  V30 36537 C 3297.82 -1.83081 1.05092 0
M  V30 36538 O 3297.17 -2.28087 0.137241 0
M  V30 36539 C 3297.38 -0.818386 3.39269 0
M  V30 36540 C 3298.73 -1.15993 4.08449 0
M  V30 36541 O 3299.75 -0.907796 3.44438 0
M  V30 36542 O 3298.61 -1.63432 5.21491 0
M  V30 36543 H 3295.7 -0.28101 0.777793 0
M  V30 36544 H 3298.25 0.181741 1.68724 0
M  V30 36545 H 3297.02 0.0872584 3.91203 0
M  V30 36546 H 3296.64 -1.60562 3.63738 0
M  V30 36547 N 3297.64 -1.57075 -0.128525 0
M  V30 36548 C 3298.59 -2.00613 -1.17716 0
M  V30 36549 C 3299.58 -0.901485 -1.43421 0
M  V30 36550 O 3300.79 -1.08669 -1.43496 0
M  V30 36551 H 3297.16 -0.638871 -0.396672 0
M  V30 36552 H 3299.14 -2.87933 -0.783387 0
M  V30 36553 C 3297.88 -2.41835 -2.49822 0
M  V30 36554 H 3297.21 -3.26398 -2.30878 0
M  V30 36555 H 3298.65 -2.76105 -3.21779 0
M  V30 36556 C 3297.11 -1.27822 -3.1171 0
M  V30 36557 O 3297.64 -0.588987 -3.97359 0
M  V30 36558 N 3295.84 -1.03771 -2.7144 0
M  V30 36559 H 3295.39 -1.59997 -2.01888 0
M  V30 36560 H 3295.35 -0.276798 -3.13179 0
M  V30 36561 N 3299.12 0.398432 -1.5248 0
M  V30 36562 C 3300.37 1.14152 -1.66289 0
M  V30 36563 C 3300.68 1.91376 -0.404323 0
M  V30 36564 O 3301.89 2.68194 -0.422389 0
M  V30 36565 C 3300.34 2.0782 -2.93835 0
M  V30 36566 C 3299.95 1.36063 -4.26838 0
M  V30 36567 C 3301.7 2.82322 -3.17009 0
M  V30 36568 C 3299.6 2.28441 -5.45499 0
M  V30 36569 H 3298.53 0.42983 -0.619486 0
M  V30 36570 H 3301.18 0.405081 -1.78973 0
M  V30 36571 H 3299.57 2.85061 -2.74875 0
M  V30 36572 H 3300.74 0.641125 -4.56318 0
M  V30 36573 H 3299.05 0.735587 -4.09851 0
M  V30 36574 H 3301.65 3.51602 -4.02841 0
M  V30 36575 H 3301.99 3.45872 -2.31686 0
M  V30 36576 H 3302.53 2.12177 -3.36491 0
M  V30 36577 H 3299.27 1.69521 -6.33201 0
M  V30 36578 H 3298.79 2.98334 -5.20343 0
M  V30 36579 H 3300.47 2.88733 -5.79001 0
M  V30 36580 N 3300.6 1.43284 0.656314 0
M  V30 36581 C 3301.56 1.47877 1.75115 0
M  V30 36582 C 3302.56 0.363874 1.56629 0
M  V30 36583 O 3303.75 0.625493 1.62583 0
M  V30 36584 C 3300.88 1.32836 3.13954 0
M  V30 36585 H 3302.08 2.45377 1.72424 0
M  V30 36586 H 3299.63 1.30004 0.867682 0
M  V30 36587 H 3300.36 0.363317 3.22258 0
M  V30 36588 H 3300.15 2.13654 3.28777 0
M  V30 36589 H 3301.64 1.38976 3.93796 0
M  V30 36590 N 3302.08 -0.894389 1.29763 0
M  V30 36591 C 3303.3 -1.68397 1.21067 0
M  V30 36592 C 3303.73 -1.86755 -0.224575 0
M  V30 36593 O 3303.08 -1.3917 -1.16196 0
M  V30 36594 C 3303.13 -3.04303 1.93474 0
M  V30 36595 O 3302.24 -3.92827 1.2554 0
M  V30 36596 H 3301.58 -0.514918 0.419232 0
M  V30 36597 H 3304.11 -1.11693 1.71423 0
M  V30 36598 H 3304.12 -3.5441 2.02133 0
M  V30 36599 H 3302.79 -2.9026 2.97862 0
M  V30 36600 H 3301.37 -3.51263 1.25174 0
M  V30 36601 N 3303.55 -1.12326 -1.10547 0
M  V30 36602 C 3304.8 -0.872563 -1.81849 0
M  V30 36603 C 3305.12 0.603435 -1.86059 0
M  V30 36604 O 3306.32 0.970691 -2.53554 0
M  V30 36605 C 3304.78 -1.51136 -3.26628 0
M  V30 36606 C 3304.39 -3.02206 -3.30719 0
M  V30 36607 C 3306.13 -1.34089 -4.02766 0
M  V30 36608 C 3304.04 -3.59026 -4.69951 0
M  V30 36609 H 3302.97 -0.322781 -0.681417 0
M  V30 36610 H 3305.62 -1.34961 -1.24329 0
M  V30 36611 H 3304 -0.961981 -3.84138 0
M  V30 36612 H 3305.17 -3.63628 -2.8304 0
M  V30 36613 H 3303.49 -3.18637 -2.68066 0
M  V30 36614 H 3306.09 -1.73963 -5.05609 0
M  V30 36615 H 3306.43 -0.284442 -4.15327 0
M  V30 36616 H 3306.96 -1.85943 -3.51668 0
M  V30 36617 H 3303.7 -4.64426 -4.62589 0
M  V30 36618 H 3303.22 -3.0238 -5.18002 0
M  V30 36619 H 3304.9 -3.58017 -5.38918 0
M  V30 36620 N 3305.03 1.28319 -0.914988 0
M  V30 36621 C 3306.44 1.7696 -0.595151 0
M  V30 36622 C 3306.79 1.74876 0.88955 0
M  V30 36623 O 3305.92 1.34421 1.69588 0
M  V30 36624 C 3306.51 3.2134 -1.07358 0
M  V30 36625 C 3305.07 3.67699 -0.804642 0
M  V30 36626 C 3304.22 2.48051 -1.2396 0
M  V30 36627 H 3307.17 1.14765 -1.09612 0
M  V30 36628 H 3307.19 3.78224 -0.415572 0
M  V30 36629 H 3306.7 3.22825 -2.15419 0
M  V30 36630 H 3304.8 3.71673 0.262704 0
M  V30 36631 H 3304.92 4.57782 -1.41325 0
M  V30 36632 H 3303.28 2.46045 -0.658317 0
M  V30 36633 H 3304.06 2.52254 -2.32858 0
M  V30 36634 N 3306.51 0.679102 1.42218 0
M  V30 36635 C 3307.44 0.0174939 2.33493 0
M  V30 36636 C 3308.42 -0.784744 1.50916 0
M  V30 36637 O 3309.61 -0.741034 1.79506 0
M  V30 36638 C 3306.74 -0.931404 3.34578 0
M  V30 36639 C 3305.69 -0.237452 4.27341 0
M  V30 36640 C 3305.02 -1.29958 5.18666 0
M  V30 36641 C 3306.32 0.886172 5.14727 0
M  V30 36642 H 3308.01 0.779798 2.89067 0
M  V30 36643 H 3305.56 0.376443 1.38992 0
M  V30 36644 H 3307.51 -1.40336 3.97346 0
M  V30 36645 H 3306.23 -1.72518 2.77318 0
M  V30 36646 H 3304.89 0.21431 3.65973 0
M  V30 36647 H 3304.54 -2.08546 4.57731 0
M  V30 36648 H 3304.24 -0.840361 5.8156 0
M  V30 36649 H 3305.76 -1.77238 5.84311 0
M  V30 36650 H 3307.18 0.495241 5.71157 0
M  V30 36651 H 3305.57 1.27146 5.86476 0
M  V30 36652 H 3306.64 1.73308 4.52871 0
M  V30 36653 N 3307.99 -1.51825 0.42272 0
M  V30 36654 C 3308.9 -2.3112 -0.402569 0
M  V30 36655 C 3309.91 -1.39414 -1.04114 0
M  V30 36656 O 3311.09 -1.72488 -1.0397 0
M  V30 36657 C 3308.15 -3.12718 -1.49694 0
M  V30 36658 C 3307.22 -4.20184 -0.880014 0
M  V30 36659 C 3306.45 -4.97881 -1.92223 0
M  V30 36660 O 3306.67 -4.76037 -3.14238 0
M  V30 36661 O 3305.61 -5.82368 -1.5209 0
M  V30 36662 H 3309.43 -3.02715 0.244361 0
M  V30 36663 H 3307.02 -1.48243 0.185595 0
M  V30 36664 H 3308.9 -3.63491 -2.13196 0
M  V30 36665 H 3307.57 -2.43903 -2.12822 0
M  V30 36666 H 3306.48 -3.73525 -0.207338 0
M  V30 36667 H 3307.81 -4.9133 -0.292448 0
M  V30 36668 N 3309.47 -0.153581 -1.5685 0
M  V30 36669 C 3310.88 0.366148 -1.83074 0
M  V30 36670 C 3311.23 1.64286 -1.0726 0
M  V30 36671 O 3310.35 2.14021 -0.319962 0
M  V30 36672 C 3310.95 0.671084 -3.32087 0
M  V30 36673 C 3309.51 1.13531 -3.5887 0
M  V30 36674 C 3308.65 0.161838 -2.76827 0
M  V30 36675 H 3311.6 -0.378166 -1.54128 0
M  V30 36676 H 3311.63 1.52506 -3.486 0
M  V30 36677 H 3311.14 -0.258302 -3.87239 0
M  V30 36678 H 3309.24 2.08041 -3.09111 0
M  V30 36679 H 3309.35 1.05673 -4.67301 0
M  V30 36680 H 3307.72 0.655757 -2.46114 0
M  V30 36681 H 3308.5 -0.761254 -3.34753 0
M  V30 36682 N 3310.94 1.57141 0.120193 0
M  V30 36683 C 3312.19 1.84425 0.826554 0
M  V30 36684 C 3312.51 0.738584 1.80471 0
M  V30 36685 O 3311.78 -0.237516 1.94455 0
M  V30 36686 H 3310.36 0.680442 0.308234 0
M  V30 36687 H 3313.02 1.94602 0.107801 0
M  V30 36688 H 3312.12 2.80301 1.37251 0
M  V30 36689 N 3312.42 -0.39034 1.5269 0
M  V30 36690 C 3313.37 -1.47674 1.77373 0
M  V30 36691 C 3314.34 -1.5422 0.616891 0
M  V30 36692 O 3315.52 -1.70497 0.856467 0
M  V30 36693 C 3312.66 -2.84918 1.9472 0
M  V30 36694 C 3311.78 -2.87534 3.2241 0
M  V30 36695 C 3310.91 -4.16197 3.30082 0
M  V30 36696 C 3309.95 -4.12859 4.519 0
M  V30 36697 N 3309.09 -5.33125 4.56861 0
M  V30 36698 H 3313.93 -1.25927 2.70086 0
M  V30 36699 H 3311.47 -0.61092 1.33814 0
M  V30 36700 H 3313.42 -3.64614 2.02762 0
M  V30 36701 H 3312.05 -3.05119 1.05368 0
M  V30 36702 H 3311.11 -2.00217 3.23446 0
M  V30 36703 H 3312.42 -2.80936 4.1216 0
M  V30 36704 H 3311.57 -5.04296 3.37299 0
M  V30 36705 H 3310.31 -4.25515 2.38303 0
M  V30 36706 H 3309.32 -3.23148 4.44809 0
M  V30 36707 H 3310.54 -4.05165 5.44994 0
M  V30 36708 H 3308.49 -5.43076 3.67973 0
M  V30 36709 H 3308.4 -5.28598 5.40482 0
M  V30 36710 H 3309.67 -6.23126 4.68331 0
M  V30 36711 N 3313.9 -1.4363 -0.648706 0
M  V30 36712 C 3314.81 -1.51594 -1.79043 0
M  V30 36713 C 3315.83 -0.402727 -1.69275 0
M  V30 36714 O 3317 -0.657517 -1.90365 0
M  V30 36715 C 3314.07 -1.44078 -3.15345 0
M  V30 36716 C 3313.13 -2.66108 -3.36876 0
M  V30 36717 C 3312.36 -2.58941 -4.66675 0
M  V30 36718 O 3312.58 -1.63965 -5.46326 0
M  V30 36719 O 3311.52 -3.49514 -4.90024 0
M  V30 36720 H 3315.34 -2.48014 -1.75278 0
M  V30 36721 H 3312.93 -1.25681 -0.807752 0
M  V30 36722 H 3314.81 -1.42346 -3.9663 0
M  V30 36723 H 3313.49 -0.507946 -3.1969 0
M  V30 36724 H 3312.39 -2.73412 -2.55337 0
M  V30 36725 H 3313.73 -3.58379 -3.3738 0
M  V30 36726 N 3315.38 0.887495 -1.30236 0
M  V30 36727 C 3316.31 1.99851 -1.12215 0
M  V30 36728 C 3317.32 1.62666 -0.0661215 0
M  V30 36729 O 3318.51 1.75754 -0.311884 0
M  V30 36730 C 3315.61 3.3183 -0.688649 0
M  V30 36731 C 3314.79 3.97467 -1.82588 0
M  V30 36732 C 3313.84 5.07745 -1.38135 0
M  V30 36733 O 3312.87 5.29514 -2.08814 0
M  V30 36734 N 3314.07 5.79922 -0.25897 0
M  V30 36735 H 3316.84 2.1586 -2.07905 0
M  V30 36736 H 3314.4 1.06043 -1.22338 0
M  V30 36737 H 3316.39 4.02965 -0.374323 0
M  V30 36738 H 3314.96 3.12103 0.176131 0
M  V30 36739 H 3314.18 3.19537 -2.30846 0
M  V30 36740 H 3315.47 4.38061 -2.58806 0
M  V30 36741 H 3314.87 5.64736 0.330032 0
M  V30 36742 H 3313.42 6.518 -0.0040827 0
M  V30 36743 N 3316.86 1.12911 1.0995 0
M  V30 36744 C 3317.79 0.759343 2.16256 0
M  V30 36745 C 3318.8 -0.216398 1.61355 0
M  V30 36746 O 3319.99 0.00300362 1.785 0
M  V30 36747 C 3317.09 0.103967 3.3874 0
M  V30 36748 C 3316.26 1.11044 4.2307 0
M  V30 36749 C 3315.32 0.481759 5.2399 0
M  V30 36750 O 3314.35 1.14021 5.57663 0
M  V30 36751 N 3315.55 -0.748596 5.75653 0
M  V30 36752 H 3318.32 1.67409 2.48585 0
M  V30 36753 H 3315.88 1.02139 1.25615 0
M  V30 36754 H 3317.87 -0.328729 4.03363 0
M  V30 36755 H 3316.44 -0.713623 3.04345 0
M  V30 36756 H 3315.66 1.7206 3.54667 0
M  V30 36757 H 3316.95 1.79086 4.76241 0
M  V30 36758 H 3316.34 -1.30243 5.50503 0
M  V30 36759 H 3314.9 -1.12403 6.42035 0
M  V30 36760 N 3318.33 -1.27832 0.92178 0
M  V30 36761 C 3319.26 -2.29441 0.433506 0
M  V30 36762 C 3320.25 -1.6249 -0.503104 0
M  V30 36763 O 3321.43 -1.89842 -0.409122 0
M  V30 36764 C 3318.56 -3.45823 -0.319968 0
M  V30 36765 C 3317.51 -4.24728 0.528253 0
M  V30 36766 C 3316.84 -5.33527 -0.354038 0
M  V30 36767 C 3318.14 -4.90681 1.78967 0
M  V30 36768 H 3319.83 -2.70532 1.28268 0
M  V30 36769 H 3317.38 -1.30054 0.61822 0
M  V30 36770 H 3319.33 -4.16 -0.672453 0
M  V30 36771 H 3318.06 -3.03633 -1.20311 0
M  V30 36772 H 3316.72 -3.56289 0.863364 0
M  V30 36773 H 3316.36 -4.87579 -1.23596 0
M  V30 36774 H 3316.06 -5.87225 0.209958 0
M  V30 36775 H 3317.59 -6.06549 -0.702226 0
M  V30 36776 H 3319 -5.53176 1.50561 0
M  V30 36777 H 3317.4 -5.54411 2.2967 0
M  V30 36778 H 3318.47 -4.14717 2.51273 0
M  V30 36779 N 3319.81 -0.686634 -1.41856 0
M  V30 36780 C 3320.76 -0.0156836 -2.30795 0
M  V30 36781 C 3321.73 0.780544 -1.46618 0
M  V30 36782 O 3322.91 0.750393 -1.75424 0
M  V30 36783 C 3320.05 0.921171 -3.32578 0
M  V30 36784 C 3319.17 0.11751 -4.3184 0
M  V30 36785 C 3318.3 1.05119 -5.20695 0
M  V30 36786 C 3317.34 0.23991 -6.1163 0
M  V30 36787 N 3316.48 1.12692 -6.92997 0
M  V30 36788 H 3321.32 -0.779901 -2.87614 0
M  V30 36789 H 3318.86 -0.396323 -1.4166 0
M  V30 36790 H 3320.81 1.47829 -3.90131 0
M  V30 36791 H 3319.44 1.65189 -2.77331 0
M  V30 36792 H 3318.5 -0.556406 -3.76309 0
M  V30 36793 H 3319.81 -0.511841 -4.96167 0
M  V30 36794 H 3318.96 1.67784 -5.83038 0
M  V30 36795 H 3317.7 1.71441 -4.56573 0
M  V30 36796 H 3316.71 -0.399875 -5.48344 0
M  V30 36797 H 3317.93 -0.419385 -6.77804 0
M  V30 36798 H 3315.88 1.77633 -6.31492 0
M  V30 36799 H 3315.79 0.552933 -7.53975 0
M  V30 36800 H 3317.06 1.74067 -7.59816 0
M  V30 36801 N 3321.29 1.51599 -0.430766 0
M  V30 36802 C 3322.2 2.3133 0.390307 0
M  V30 36803 C 3323.22 1.39964 1.03374 0
M  V30 36804 O 3324.39 1.73037 1.03054 0
M  V30 36805 C 3321.46 3.13508 1.48033 0
M  V30 36806 C 3320.52 4.20644 0.857718 0
M  V30 36807 C 3319.75 4.98894 1.8958 0
M  V30 36808 O 3319.97 4.77696 3.11709 0
M  V30 36809 O 3318.91 5.83166 1.48999 0
M  V30 36810 H 3322.73 3.02581 -0.260411 0
M  V30 36811 H 3320.32 1.48142 -0.193454 0
M  V30 36812 H 3322.2 3.64616 2.11265 0
M  V30 36813 H 3320.88 2.45028 2.11525 0
M  V30 36814 H 3319.78 3.7363 0.187526 0
M  V30 36815 H 3321.12 4.91479 0.266388 0
M  V30 36816 N 3322.77 0.161897 1.56766 0
M  V30 36817 C 3323.72 -0.772064 2.17504 0
M  V30 36818 C 3324.69 -1.23362 1.11225 0
M  V30 36819 O 3325.87 -1.30348 1.39334 0
M  V30 36820 C 3323.01 -1.99979 2.81252 0
M  V30 36821 C 3322.12 -1.58267 4.01965 0
M  V30 36822 C 3321.26 -2.76333 4.53667 0
M  V30 36823 C 3320.3 -2.31066 5.66811 0
M  V30 36824 N 3319.43 -3.42193 6.13065 0
M  V30 36825 H 3324.27 -0.247329 2.96972 0
M  V30 36826 H 3321.81 -0.110357 1.46685 0
M  V30 36827 H 3323.77 -2.71974 3.16364 0
M  V30 36828 H 3322.4 -2.49839 2.04403 0
M  V30 36829 H 3321.45 -0.759809 3.72735 0
M  V30 36830 H 3322.76 -1.21032 4.83893 0
M  V30 36831 H 3321.92 -3.56498 4.90911 0
M  V30 36832 H 3320.66 -3.16822 3.70776 0
M  V30 36833 H 3319.66 -1.49345 5.29128 0
M  V30 36834 H 3320.89 -1.91646 6.51497 0
M  V30 36835 H 3318.83 -3.82275 5.33106 0
M  V30 36836 H 3318.75 -3.09021 6.89958 0
M  V30 36837 H 3320.02 -4.2267 6.54958 0
M  V30 36838 N 3324.25 -1.57203 -0.111858 0
M  V30 36839 C 3325.18 -2.03896 -1.13793 0
M  V30 36840 C 3326.16 -0.924721 -1.42769 0
M  V30 36841 O 3327.34 -1.1949 -1.53087 0
M  V30 36842 C 3324.47 -2.4493 -2.46225 0
M  V30 36843 C 3323.43 -3.59863 -2.31696 0
M  V30 36844 C 3322.75 -3.86819 -3.69154 0
M  V30 36845 C 3324.05 -4.91341 -1.77149 0
M  V30 36846 H 3325.75 -2.89866 -0.74953 0
M  V30 36847 H 3323.29 -1.39451 -0.359101 0
M  V30 36848 H 3325.25 -2.76201 -3.18262 0
M  V30 36849 H 3323.97 -1.55938 -2.86968 0
M  V30 36850 H 3322.63 -3.28812 -1.62106 0
M  V30 36851 H 3322.28 -2.95022 -4.07396 0
M  V30 36852 H 3321.98 -4.64187 -3.60284 0
M  V30 36853 H 3323.5 -4.20549 -4.42686 0
M  V30 36854 H 3324.91 -5.21102 -2.39011 0
M  V30 36855 H 3323.31 -5.72756 -1.79081 0
M  V30 36856 H 3324.38 -4.7938 -0.729591 0
M  V30 36857 N 3325.72 0.382237 -1.52894 0
M  V30 36858 C 3326.63 1.49147 -1.81087 0
M  V30 36859 C 3327.65 1.59383 -0.698073 0
M  V30 36860 O 3328.83 1.75592 -0.986381 0
M  V30 36861 C 3325.89 2.84605 -1.97992 0
M  V30 36862 C 3324.95 2.84034 -3.21905 0
M  V30 36863 C 3324.19 4.13031 -3.37995 0
M  V30 36864 O 3324.41 5.08339 -2.58742 0
M  V30 36865 O 3323.34 4.19858 -4.3128 0
M  V30 36866 H 3327.17 1.28252 -2.75291 0
M  V30 36867 H 3324.75 0.570735 -1.38069 0
M  V30 36868 H 3326.64 3.64897 -2.1078 0
M  V30 36869 H 3325.31 3.05512 -1.06978 0
M  V30 36870 H 3324.22 2.02499 -3.14555 0
M  V30 36871 H 3325.55 2.6808 -4.12788 0
M  V30 36872 N 3327.2 1.43972 0.64108 0
M  V30 36873 C 3328.14 1.46049 1.76642 0
M  V30 36874 C 3329.15 0.355077 1.58881 0
M  V30 36875 O 3330.34 0.620237 1.67378 0
M  V30 36876 C 3327.44 1.26923 3.14235 0
M  V30 36877 C 3326.61 2.50527 3.58546 0
M  V30 36878 C 3325.67 2.26447 4.74982 0
M  V30 36879 O 3324.7 2.99875 4.83801 0
M  V30 36880 N 3325.9 1.28876 5.66014 0
M  V30 36881 H 3328.66 2.43059 1.75335 0
M  V30 36882 H 3326.22 1.39284 0.825325 0
M  V30 36883 H 3328.22 1.08677 3.89835 0
M  V30 36884 H 3326.79 0.383136 3.10243 0
M  V30 36885 H 3326.01 2.84117 2.7326 0
M  V30 36886 H 3327.29 3.3276 3.849 0
M  V30 36887 H 3326.69 0.682117 5.61572 0
M  V30 36888 H 3325.25 1.1661 6.41284 0
M  V30 36889 N 3328.68 -0.880575 1.30704 0
M  V30 36890 C 3329.93 -1.63517 1.19958 0
M  V30 36891 C 3330.26 -1.92659 -0.244181 0
M  V30 36892 O 3329.54 -1.55065 -1.1741 0
M  V30 36893 C 3329.82 -2.97218 2.03307 0
M  V30 36894 C 3329.67 -2.75021 3.55926 0
M  V30 36895 C 3330.99 -3.98194 1.87428 0
M  V30 36896 H 3328.11 -0.593369 0.43713 0
M  V30 36897 H 3330.75 -1.01868 1.60384 0
M  V30 36898 H 3328.9 -3.49836 1.68959 0
M  V30 36899 H 3330.57 -2.29157 4.00356 0
M  V30 36900 H 3328.82 -2.09445 3.79888 0
M  V30 36901 H 3329.49 -3.7011 4.0954 0
M  V30 36902 H 3331.96 -3.54751 2.17465 0
M  V30 36903 H 3330.84 -4.89648 2.48065 0
M  V30 36904 H 3331.1 -4.3415 0.83464 0
M  V30 36905 N 3330.16 -1.13492 -1.09349 0
M  V30 36906 C 3331.11 -0.813019 -2.16006 0
M  V30 36907 C 3332.08 0.225223 -1.64566 0
M  V30 36908 O 3333.26 0.0972926 -1.90552 0
M  V30 36909 C 3330.4 -0.286056 -3.43912 0
M  V30 36910 C 3329.51 -1.38345 -4.09249 0
M  V30 36911 C 3328.65 -0.814745 -5.24915 0
M  V30 36912 C 3327.69 -1.89048 -5.82174 0
M  V30 36913 N 3326.83 -1.33967 -6.892 0
M  V30 36914 H 3331.67 -1.7266 -2.42884 0
M  V30 36915 H 3329.2 -0.861854 -1.19208 0
M  V30 36916 H 3331.16 0.037606 -4.17183 0
M  V30 36917 H 3329.79 0.590651 -3.1735 0
M  V30 36918 H 3328.84 -1.82369 -3.33835 0
M  V30 36919 H 3330.15 -2.19645 -4.47836 0
M  V30 36920 H 3329.31 -0.442413 -6.05085 0
M  V30 36921 H 3328.05 0.0293303 -4.87691 0
M  V30 36922 H 3327.05 -2.27188 -5.00665 0
M  V30 36923 H 3328.28 -2.73798 -6.21459 0
M  V30 36924 H 3326.22 -0.517609 -6.53955 0
M  V30 36925 H 3326.14 -2.08915 -7.26561 0
M  V30 36926 H 3327.41 -0.994929 -7.73124 0
M  V30 36927 N 3331.64 1.27341 -0.928546 0
M  V30 36928 C 3332.57 2.29207 -0.445668 0
M  V30 36929 C 3333.55 1.62754 0.49448 0
M  V30 36930 O 3334.73 1.90056 0.399049 0
M  V30 36931 C 3331.86 3.45988 0.301624 0
M  V30 36932 C 3330.82 4.24441 -0.550769 0
M  V30 36933 C 3330.14 5.33707 0.325739 0
M  V30 36934 C 3331.44 4.89725 -1.81567 0
M  V30 36935 H 3333.14 2.69848 -1.29701 0
M  V30 36936 H 3330.68 1.29724 -0.625108 0
M  V30 36937 H 3332.64 4.16351 0.650382 0
M  V30 36938 H 3331.36 3.04266 1.18699 0
M  V30 36939 H 3330.02 3.55826 -0.882247 0
M  V30 36940 H 3329.67 4.88227 1.21009 0
M  V30 36941 H 3329.37 5.87105 -0.241097 0
M  V30 36942 H 3330.89 6.06912 0.67005 0
M  V30 36943 H 3332.31 5.5237 -1.53493 0
M  V30 36944 H 3330.7 5.53185 -2.32607 0
M  V30 36945 H 3331.77 4.13378 -2.53469 0
M  V30 36946 N 3333.12 0.694147 1.4149 0
M  V30 36947 C 3334.05 0.042258 2.33462 0
M  V30 36948 C 3335.03 -0.768693 1.5174 0
M  V30 36949 O 3336.21 -0.721953 1.80282 0
M  V30 36950 C 3333.34 -0.895866 3.35547 0
M  V30 36951 C 3332.3 -0.192113 4.27569 0
M  V30 36952 C 3331.62 -1.2445 5.20016 0
M  V30 36953 C 3332.92 0.940716 5.13759 0
M  V30 36954 H 3334.62 0.810414 2.88223 0
M  V30 36955 H 3332.16 0.391164 1.38585 0
M  V30 36956 H 3334.11 -1.36114 3.98812 0
M  V30 36957 H 3332.84 -1.69567 2.79132 0
M  V30 36958 H 3331.5 0.253114 3.65725 0
M  V30 36959 H 3331.15 -2.03679 4.59917 0
M  V30 36960 H 3330.85 -0.778632 5.82418 0
M  V30 36961 H 3332.37 -1.71031 5.86158 0
M  V30 36962 H 3333.78 0.555792 5.706 0
M  V30 36963 H 3332.18 1.33359 5.85094 0
M  V30 36964 H 3333.25 1.78101 4.51008 0
M  V30 36965 N 3334.59 -1.51368 0.438799 0
M  V30 36966 C 3335.84 -2.024 -0.127366 0
M  V30 36967 C 3336.17 -1.32225 -1.42233 0
M  V30 36968 O 3335.45 -0.437641 -1.89512 0
M  V30 36969 C 3335.73 -3.58447 -0.34461 0
M  V30 36970 C 3335.58 -4.39236 0.969104 0
M  V30 36971 C 3336.9 -4.25775 -1.11373 0
M  V30 36972 H 3334.02 -0.735636 -0.0448151 0
M  V30 36973 H 3336.66 -1.80992 0.578082 0
M  V30 36974 H 3334.81 -3.76819 -0.945516 0
M  V30 36975 H 3336.49 -4.32511 1.6041 0
M  V30 36976 H 3334.73 -4.04262 1.57336 0
M  V30 36977 H 3335.4 -5.46587 0.771125 0
M  V30 36978 H 3337.88 -4.11682 -0.604712 0
M  V30 36979 H 3336.75 -5.34838 -1.2345 0
M  V30 36980 H 3337.01 -3.86734 -2.14218 0
M  V30 36981 N 3336.07 -0.170208 -1.56678 0
M  V30 36982 C 3336.98 0.77304 -2.21498 0
M  V30 36983 C 3338 1.25399 -1.20628 0
M  V30 36984 O 3339.17 1.30635 -1.53286 0
M  V30 36985 C 3336.24 1.98553 -2.84214 0
M  V30 36986 C 3335.3 1.55157 -4.00281 0
M  V30 36987 C 3334.53 2.70626 -4.59997 0
M  V30 36988 O 3334.76 3.87465 -4.18602 0
M  V30 36989 O 3333.69 2.44765 -5.49885 0
M  V30 36990 H 3337.52 0.251142 -3.0266 0
M  V30 36991 H 3335.1 0.0579358 -1.49288 0
M  V30 36992 H 3336.98 2.69466 -3.23984 0
M  V30 36993 H 3335.66 2.49651 -2.06049 0
M  V30 36994 H 3334.56 0.811974 -3.65182 0
M  V30 36995 H 3335.9 1.08752 -4.80035 0
M  V30 36996 N 3337.55 1.5726 0.10352 0
M  V30 36997 C 3338.46 2.04777 1.14472 0
M  V30 36998 C 3339.48 0.97105 1.44384 0
M  V30 36999 O 3340.65 1.28364 1.55192 0
M  V30 37000 C 3337.72 2.45562 2.44745 0
M  V30 37001 C 3336.78 3.67388 2.22091 0
M  V30 37002 C 3336.01 4.06219 3.46153 0
M  V30 37003 O 3336.23 3.45227 4.54064 0
M  V30 37004 O 3335.17 4.99226 3.36239 0
M  V30 37005 H 3338.99 2.93746 0.771159 0
M  V30 37006 H 3336.58 1.46032 0.31543 0
M  V30 37007 H 3338.46 2.7246 3.21471 0
M  V30 37008 H 3337.14 1.59733 2.81544 0
M  V30 37009 H 3336.04 3.45619 1.43173 0
M  V30 37010 H 3337.38 4.5397 1.90189 0
M  V30 37011 N 3339.03 -0.374123 1.53095 0
M  V30 37012 C 3339.96 -1.46401 1.81904 0
M  V30 37013 C 3340.94 -1.56264 0.671977 0
M  V30 37014 O 3342.12 -1.70971 0.921008 0
M  V30 37015 C 3339.25 -2.83842 2.00128 0
M  V30 37016 C 3338.21 -2.88809 3.15869 0
M  V30 37017 C 3337.53 -4.28842 3.19372 0
M  V30 37018 C 3338.83 -2.57104 4.54637 0
M  V30 37019 H 3340.53 -1.22542 2.73174 0
M  V30 37020 H 3338.07 -0.588064 1.31445 0
M  V30 37021 H 3340.03 -3.60106 2.18865 0
M  V30 37022 H 3338.75 -3.0907 1.05561 0
M  V30 37023 H 3337.41 -2.14995 2.96939 0
M  V30 37024 H 3337.06 -4.51133 2.22458 0
M  V30 37025 H 3336.76 -4.33083 3.97131 0
M  V30 37026 H 3338.28 -5.06991 3.40282 0
M  V30 37027 H 3339.7 -3.23083 4.73593 0
M  V30 37028 H 3338.09 -2.72673 5.34574 0
M  V30 37029 H 3339.16 -1.52384 4.60334 0
M  V30 37030 N 3340.51 -1.4431 -0.633436 0
M  V30 37031 C 3341.92 -1.41754 -1.21502 0
M  V30 37032 C 3342.27 -0.131701 -1.95757 0
M  V30 37033 O 3341.39 0.768037 -2.02312 0
M  V30 37034 C 3341.99 -2.56796 -2.21 0
M  V30 37035 C 3340.55 -2.57442 -2.74591 0
M  V30 37036 C 3339.69 -2.33516 -1.49551 0
M  V30 37037 H 3342.64 -1.52924 -0.424251 0
M  V30 37038 H 3342.67 -2.29417 -3.03559 0
M  V30 37039 H 3342.18 -3.50367 -1.66927 0
M  V30 37040 H 3340.28 -1.67807 -3.32673 0
M  V30 37041 H 3340.39 -3.55854 -3.20787 0
M  V30 37042 H 3338.76 -1.82564 -1.77602 0
M  V30 37043 H 3339.54 -3.29198 -0.973841 0
M  V30 37044 N 3341.98 0.873632 -1.3117 0
M  V30 37045 C 3342.91 1.99644 -1.21097 0
M  V30 37046 C 3343.9 1.69812 -0.0989982 0
M  V30 37047 O 3345.08 1.92127 -0.282973 0
M  V30 37048 C 3342.21 3.35064 -0.913743 0
M  V30 37049 C 3341.16 3.79192 -1.98489 0
M  V30 37050 C 3340.49 5.1203 -1.54042 0
M  V30 37051 C 3341.79 3.96693 -3.39752 0
M  V30 37052 H 3343.48 2.08329 -2.15033 0
M  V30 37053 H 3341.03 1.00095 -1.03523 0
M  V30 37054 H 3342.98 4.13147 -0.829893 0
M  V30 37055 H 3341.71 3.26542 0.0612897 0
M  V30 37056 H 3340.37 3.03346 -2.05857 0
M  V30 37057 H 3340.01 4.99947 -0.553349 0
M  V30 37058 H 3339.71 5.42526 -2.25697 0
M  V30 37059 H 3341.24 5.92627 -1.47058 0
M  V30 37060 H 3342.65 4.65182 -3.3508 0
M  V30 37061 H 3341.05 4.38582 -4.09592 0
M  V30 37062 H 3342.12 3.00189 -3.80808 0
M  V30 37063 N 3343.46 1.1407 1.08746 0
M  V30 37064 C 3344.88 0.880364 1.33123 0
M  V30 37065 C 3345.08 -0.480362 1.95691 0
M  V30 37066 O 3344.13 -1.22539 2.20772 0
M  V30 37067 C 3345.45 2.0104 2.23614 0
M  V30 37068 C 3347 2.0433 2.37104 0
M  V30 37069 C 3347.47 3.16616 3.30935 0
M  V30 37070 N 3348.96 3.16172 3.38511 0
M  V30 37071 C 3349.7 3.99694 4.11135 0
M  V30 37072 N 3349.19 4.93248 4.86496 0
M  V30 37073 N 3350.99 3.87768 4.06931 0
M  V30 37074 H 3343.14 2.01717 0.665129 0
M  V30 37075 H 3345.4 0.87878 0.355597 0
M  V30 37076 H 3345.11 2.99186 1.8488 0
M  V30 37077 H 3344.98 1.93054 3.24052 0
M  V30 37078 H 3347.37 1.06792 2.75099 0
M  V30 37079 H 3347.45 2.16387 1.3642 0
M  V30 37080 H 3347.09 4.14397 2.93662 0
M  V30 37081 H 3347.02 3.01797 4.31539 0
M  V30 37082 H 3349.51 2.4841 2.84782 0
M  V30 37083 H 3349.83 5.53451 5.39363 0
M  V30 37084 H 3348.17 4.97248 4.85561 0
M  V30 37085 H 3351.36 3.14002 3.4716 0
M  V30 37086 H 3351.53 4.53087 4.63267 0
M  V30 37087 N 3344.94 -1.26847 0.935286 0
M  V30 37088 C 3345.87 -2.25725 0.397579 0
M  V30 37089 C 3346.89 -1.55689 -0.475901 0
M  V30 37090 O 3348.07 -1.76173 -0.287298 0
M  V30 37091 C 3345.17 -3.35923 -0.448249 0
M  V30 37092 C 3344.35 -4.35496 0.407701 0
M  V30 37093 C 3343.41 -5.2485 -0.376723 0
M  V30 37094 O 3342.43 -5.68782 0.218209 0
M  V30 37095 N 3343.63 -5.55818 -1.67471 0
M  V30 37096 H 3346.4 -2.72499 1.24758 0
M  V30 37097 H 3343.96 -1.40553 0.803529 0
M  V30 37098 H 3345.95 -3.92648 -0.980269 0
M  V30 37099 H 3344.52 -2.8869 -1.19903 0
M  V30 37100 H 3343.74 -3.77926 1.12097 0
M  V30 37101 H 3345.03 -4.99024 0.9926 0
M  V30 37102 H 3344.43 -5.21997 -2.18028 0
M  V30 37103 H 3342.99 -6.15211 -2.1531 0
M  V30 37104 N 3346.42 -0.701641 -1.4112 0
M  V30 37105 C 3347.67 -0.234717 -2.00732 0
M  V30 37106 C 3347.99 1.17171 -1.55872 0
M  V30 37107 O 3347.26 1.79177 -0.791997 0
M  V30 37108 H 3345.84 -0.0837875 -0.742286 0
M  V30 37109 H 3348.5 -0.904157 -1.72659 0
M  V30 37110 H 3347.6 -0.256885 -3.11041 0
M  V30 37111 N 3347.9 1.51133 -0.446821 0
M  V30 37112 C 3349.15 2.01354 0.118011 0
M  V30 37113 C 3349.46 1.33508 1.42951 0
M  V30 37114 O 3350.66 1.7475 2.07785 0
M  V30 37115 C 3349.12 3.58953 0.260849 0
M  V30 37116 C 3348.73 4.35743 -1.04078 0
M  V30 37117 C 3350.47 4.17292 0.778941 0
M  V30 37118 C 3348.38 5.85069 -0.863061 0
M  V30 37119 H 3347.31 0.752478 0.0478783 0
M  V30 37120 H 3349.96 1.74158 -0.578028 0
M  V30 37121 H 3348.34 3.82635 1.02011 0
M  V30 37122 H 3349.52 4.23802 -1.80911 0
M  V30 37123 H 3347.83 3.88901 -1.48812 0
M  V30 37124 H 3350.43 5.26576 0.928543 0
M  V30 37125 H 3350.77 3.77083 1.76392 0
M  V30 37126 H 3351.3 3.97724 0.0777323 0
M  V30 37127 H 3348.04 6.29707 -1.8207 0
M  V30 37128 H 3347.56 5.99649 -0.134693 0
M  V30 37129 H 3349.24 6.44907 -0.520003 0
M  V30 37130 N 3349.37 0.178515 1.56586 0
M  V30 37131 C 3350.3 -0.744447 2.21315 0
M  V30 37132 C 3351.29 -1.23375 1.17101 0
M  V30 37133 O 3352.47 -1.28561 1.45553 0
M  V30 37134 C 3349.6 -1.97098 2.85954 0
M  V30 37135 C 3348.55 -1.61725 3.96269 0
M  V30 37136 C 3347.88 -2.91903 4.47992 0
M  V30 37137 C 3349.18 -0.839778 5.15505 0
M  V30 37138 H 3350.87 -0.204885 2.98698 0
M  V30 37139 H 3348.42 -0.0971053 1.43672 0
M  V30 37140 H 3350.37 -2.62174 3.29913 0
M  V30 37141 H 3349.1 -2.5348 2.0595 0
M  V30 37142 H 3347.76 -0.990146 3.52975 0
M  V30 37143 H 3347.4 -3.4634 3.64771 0
M  V30 37144 H 3347.1 -2.68986 5.22418 0
M  V30 37145 H 3348.63 -3.57996 4.94643 0
M  V30 37146 H 3350.04 -1.39328 5.56112 0
M  V30 37147 H 3348.44 -0.709369 5.95893 0
M  V30 37148 H 3349.51 0.162482 4.84628 0
M  V30 37149 N 3350.85 -1.57312 -0.0951784 0
M  V30 37150 C 3351.8 -2.02054 -1.11547 0
M  V30 37151 C 3352.77 -0.896842 -1.39807 0
M  V30 37152 O 3353.95 -1.16283 -1.51271 0
M  V30 37153 C 3351.09 -2.44989 -2.43052 0
M  V30 37154 C 3350.21 -3.70879 -2.21524 0
M  V30 37155 C 3349.34 -4.02693 -3.46427 0
M  V30 37156 C 3348.38 -5.21693 -3.20161 0
M  V30 37157 N 3347.52 -5.4926 -4.3733 0
M  V30 37158 H 3352.36 -2.88997 -0.726949 0
M  V30 37159 H 3349.9 -1.42939 -0.347416 0
M  V30 37160 H 3351.85 -2.67927 -3.19799 0
M  V30 37161 H 3350.48 -1.61056 -2.79752 0
M  V30 37162 H 3349.54 -3.55418 -1.35581 0
M  V30 37163 H 3350.85 -4.57772 -1.98107 0
M  V30 37164 H 3350 -4.26407 -4.31581 0
M  V30 37165 H 3348.74 -3.14322 -3.72898 0
M  V30 37166 H 3347.75 -4.978 -2.334 0
M  V30 37167 H 3348.97 -6.11662 -2.95036 0
M  V30 37168 H 3346.92 -4.63848 -4.63876 0
M  V30 37169 H 3346.83 -6.30525 -4.17103 0
M  V30 37170 H 3348.1 -5.77509 -5.23549 0
M  V30 37171 N 3352.33 0.365999 -1.53291 0
M  V30 37172 C 3353.26 1.46842 -1.75983 0
M  V30 37173 C 3354.28 1.49667 -0.6406 0
M  V30 37174 O 3355.46 1.53154 -0.91685 0
M  V30 37175 C 3352.56 2.85608 -1.82431 0
M  V30 37176 C 3351.74 3.06485 -3.12067 0
M  V30 37177 C 3350.8 4.25363 -3.09763 0
M  V30 37178 O 3349.82 4.20557 -3.83562 0
M  V30 37179 N 3351.02 5.32753 -2.30553 0
M  V30 37180 H 3353.79 1.27755 -2.71106 0
M  V30 37181 H 3351.35 0.555718 -1.52064 0
M  V30 37182 H 3353.34 3.63273 -1.78368 0
M  V30 37183 H 3351.91 2.97944 -0.94594 0
M  V30 37184 H 3351.13 2.16483 -3.29437 0
M  V30 37185 H 3352.42 3.17301 -3.97741 0
M  V30 37186 H 3351.82 5.39519 -1.70104 0
M  V30 37187 H 3350.38 6.08996 -2.32309 0
M  V30 37188 N 3353.81 1.44644 0.625774 0
M  V30 37189 C 3354.74 1.54751 1.74855 0
M  V30 37190 C 3355.72 0.400167 1.65326 0
M  V30 37191 O 3356.9 0.620981 1.84004 0
M  V30 37192 C 3354.03 1.49648 3.13405 0
M  V30 37193 C 3352.99 2.62914 3.37728 0
M  V30 37194 C 3352.31 2.42864 4.76363 0
M  V30 37195 C 3353.61 4.05035 3.29764 0
M  V30 37196 H 3355.31 2.48731 1.66653 0
M  V30 37197 H 3352.85 1.1971 0.800342 0
M  V30 37198 H 3354.81 1.55319 3.91732 0
M  V30 37199 H 3353.53 0.52188 3.22403 0
M  V30 37200 H 3352.19 2.56642 2.61784 0
M  V30 37201 H 3351.84 1.43583 4.82071 0
M  V30 37202 H 3351.54 3.18807 4.93595 0
M  V30 37203 H 3353.06 2.5036 5.56913 0
M  V30 37204 H 3354.48 4.12648 3.97988 0
M  V30 37205 H 3352.87 4.81224 3.58529 0
M  V30 37206 H 3353.94 4.28227 2.27486 0
M  V30 37207 N 3355.29 -0.866663 1.31631 0
M  V30 37208 C 3356.23 -1.99558 1.19495 0
M  V30 37209 C 3357.23 -1.6909 0.102486 0
M  V30 37210 O 3358.43 -1.78045 0.264603 0
M  V30 37211 H 3354.81 -0.654632 0.370083 0
M  V30 37212 H 3356.78 -2.06924 2.15 0
M  V30 37213 C 3355.53 -3.35239 0.922519 0
M  V30 37214 H 3354.85 -3.59206 1.7553 0
M  V30 37215 H 3356.29 -4.14814 0.877799 0
M  V30 37216 C 3354.75 -3.34809 -0.374745 0
M  V30 37217 O 3355.28 -3.76867 -1.39048 0
M  V30 37218 N 3353.49 -2.87938 -0.392455 0
M  V30 37219 H 3353.03 -2.53907 0.434636 0
M  V30 37220 H 3352.99 -2.88033 -1.26033 0
M  V30 37221 N 3356.77 -1.14645 -1.0814 0
M  V30 37222 C 3357.68 -0.849646 -2.18674 0
M  V30 37223 C 3358.69 0.170953 -1.73158 0
M  V30 37224 O 3359.87 -0.0011933 -2.014 0
M  V30 37225 C 3356.93 -0.334366 -3.45084 0
M  V30 37226 C 3355.99 -1.41786 -4.0521 0
M  V30 37227 C 3355.23 -0.927073 -5.25586 0
M  V30 37228 O 3355.45 0.230422 -5.69934 0
M  V30 37229 O 3354.38 -1.70726 -5.7718 0
M  V30 37230 H 3358.21 -1.77347 -2.46539 0
M  V30 37231 H 3355.79 -0.924931 -1.17326 0
M  V30 37232 H 3357.68 -0.0530634 -4.21367 0
M  V30 37233 H 3356.35 0.561699 -3.18789 0
M  V30 37234 H 3355.26 -1.75266 -3.30504 0
M  V30 37235 H 3356.59 -2.28855 -4.3576 0
M  V30 37236 N 3358.24 1.26349 -0.942 0
M  V30 37237 C 3359.47 1.97802 -0.606782 0
M  V30 37238 C 3359.89 1.7014 0.818411 0
M  V30 37239 O 3359.24 0.970103 1.54581 0
M  V30 37240 C 3359.29 3.51593 -0.840493 0
M  V30 37241 O 3359.02 3.78295 -2.20963 0
M  V30 37242 C 3360.52 4.40287 -0.515932 0
M  V30 37243 H 3357.74 0.630858 -0.228602 0
M  V30 37244 H 3360.28 1.60843 -1.26293 0
M  V30 37245 H 3358.44 3.86711 -0.230943 0
M  V30 37246 H 3358.85 4.7282 -2.27028 0
M  V30 37247 H 3360.32 5.47151 -0.730076 0
M  V30 37248 H 3360.8 4.35754 0.549102 0
M  V30 37249 H 3361.41 4.10715 -1.10425 0
M  V30 37250 N 3359.72 0.709115 1.40746 0
M  V30 37251 C 3360.97 0.245359 2.00605 0
M  V30 37252 C 3361.29 -1.16343 1.56491 0
M  V30 37253 O 3360.56 -1.78754 0.801488 0
M  V30 37254 H 3359.14 0.0877229 0.741831 0
M  V30 37255 H 3361.8 0.913301 1.72177 0
M  V30 37256 H 3360.9 0.273377 3.109 0
M  V30 37257 N 3361.2 -1.50894 0.454829 0
M  V30 37258 C 3362.45 -2.01824 -0.105526 0
M  V30 37259 C 3362.77 -1.33994 -1.41671 0
M  V30 37260 O 3362.04 -0.480027 -1.89928 0
M  V30 37261 H 3360.62 -0.745819 -0.041988 0
M  V30 37262 H 3363.28 -1.85385 0.601537 0
M  V30 37263 H 3362.38 -3.1094 -0.268817 0
M  V30 37264 N 3362.68 -0.186817 -1.56489 0
M  V30 37265 C 3364.09 0.327233 -1.8381 0
M  V30 37266 C 3364.44 1.61974 -1.1072 0
M  V30 37267 O 3363.56 2.13295 -0.365288 0
M  V30 37268 C 3364.16 0.600492 -3.33436 0
M  V30 37269 C 3362.72 1.05893 -3.61197 0
M  V30 37270 C 3361.87 0.103082 -2.77108 0
M  V30 37271 H 3364.82 -0.410774 -1.53292 0
M  V30 37272 H 3364.84 1.45078 -3.51757 0
M  V30 37273 H 3364.35 -0.340383 -3.86604 0
M  V30 37274 H 3362.45 2.01438 -3.13454 0
M  V30 37275 H 3362.56 0.957375 -4.69437 0
M  V30 37276 H 3360.93 0.603405 -2.47449 0
M  V30 37277 H 3361.71 -0.832089 -3.33063 0
M  V30 37278 N 3364.16 1.57361 0.0868344 0
M  V30 37279 C 3365.4 1.86781 0.789975 0
M  V30 37280 C 3365.73 0.777073 1.77975 0
M  V30 37281 O 3365.01 -0.214156 1.93317 0
M  V30 37282 C 3365.29 3.26848 1.51138 0
M  V30 37283 C 3365.15 4.46559 0.539028 0
M  V30 37284 C 3366.46 3.6493 2.45996 0
M  V30 37285 H 3363.58 0.679359 0.285729 0
M  V30 37286 H 3366.23 1.89925 0.0534321 0
M  V30 37287 H 3364.38 3.24299 2.13922 0
M  V30 37288 H 3366.05 4.61226 -0.082449 0
M  V30 37289 H 3364.29 4.33551 -0.146918 0
M  V30 37290 H 3364.96 5.4131 1.0811 0
M  V30 37291 H 3367.44 3.68476 1.93299 0
M  V30 37292 H 3366.31 4.63851 2.93484 0
M  V30 37293 H 3366.57 2.94055 3.30128 0
M  V30 37294 N 3365.63 -0.357865 1.53483 0
M  V30 37295 C 3366.56 -1.44463 1.83446 0
M  V30 37296 C 3367.54 -1.55543 0.688513 0
M  V30 37297 O 3368.73 -1.69985 0.93909 0
M  V30 37298 C 3365.86 -2.81703 2.03127 0
M  V30 37299 C 3364.81 -2.85442 3.18915 0
M  V30 37300 C 3364.14 -4.25431 3.23902 0
M  V30 37301 C 3365.44 -2.52267 4.57339 0
M  V30 37302 H 3367.13 -1.19637 2.74458 0
M  V30 37303 H 3364.68 -0.574089 1.32061 0
M  V30 37304 H 3366.63 -3.57764 2.22672 0
M  V30 37305 H 3365.36 -3.07933 1.08833 0
M  V30 37306 H 3364.02 -2.11833 2.99203 0
M  V30 37307 H 3363.66 -4.48749 2.27231 0
M  V30 37308 H 3363.36 -4.28847 4.01702 0
M  V30 37309 H 3364.89 -5.03354 3.4564 0
M  V30 37310 H 3366.3 -3.18042 4.76993 0
M  V30 37311 H 3364.7 -2.66988 5.37436 0
M  V30 37312 H 3365.77 -1.47493 4.61924 0
M  V30 37313 N 3367.11 -1.44974 -0.618094 0
M  V30 37314 C 3368.36 -1.48661 -1.37941 0
M  V30 37315 C 3368.69 -0.123783 -1.93805 0
M  V30 37316 O 3367.97 0.86037 -1.74436 0
M  V30 37317 C 3368.25 -2.55743 -2.5351 0
M  V30 37318 C 3368.1 -4.01431 -2.02911 0
M  V30 37319 C 3369.42 -2.59205 -3.55669 0
M  V30 37320 H 3366.54 -0.541253 -0.500214 0
M  V30 37321 H 3369.18 -1.76726 -0.697709 0
M  V30 37322 H 3367.33 -2.31943 -3.11665 0
M  V30 37323 H 3369 -4.36407 -1.49487 0
M  V30 37324 H 3367.25 -4.12588 -1.33991 0
M  V30 37325 H 3367.92 -4.72026 -2.86173 0
M  V30 37326 H 3370.39 -2.80505 -3.07338 0
M  V30 37327 H 3369.27 -3.36012 -4.34036 0
M  V30 37328 H 3369.53 -1.63895 -4.10598 0
M  V30 37329 N 3368.59 0.85967 -1.32089 0
M  V30 37330 C 3369.81 1.65128 -1.25489 0
M  V30 37331 C 3370.24 1.87284 0.174982 0
M  V30 37332 O 3369.6 1.42201 1.12465 0
M  V30 37333 C 3369.65 2.99066 -2.01474 0
M  V30 37334 O 3368.75 3.89361 -1.35911 0
M  V30 37335 H 3368.09 0.503622 -0.432737 0
M  V30 37336 H 3370.62 1.07109 -1.74324 0
M  V30 37337 H 3370.63 3.48926 -2.11459 0
M  V30 37338 H 3369.31 2.82261 -3.05453 0
M  V30 37339 H 3367.88 3.47821 -1.34443 0
M  V30 37340 N 3370.07 1.15217 1.0753 0
M  V30 37341 C 3371.03 0.849928 2.12859 0
M  V30 37342 C 3372.03 -0.149495 1.60104 0
M  V30 37343 O 3373.22 0.0799224 1.74017 0
M  V30 37344 C 3370.35 0.268677 3.3984 0
M  V30 37345 H 3371.55 1.78351 2.41103 0
M  V30 37346 H 3369.1 0.959407 1.2339 0
M  V30 37347 H 3369.83 -0.673194 3.17236 0
M  V30 37348 H 3369.62 0.988659 3.79431 0
M  V30 37349 H 3371.11 0.0747288 4.17533 0
M  V30 37350 N 3371.55 -1.25848 0.948687 0
M  V30 37351 C 3372.96 -1.7532 0.64186 0
M  V30 37352 C 3373.31 -1.77173 -0.842872 0
M  V30 37353 O 3372.43 -1.3887 -1.65964 0
M  V30 37354 C 3373.03 -3.18381 1.1584 0
M  V30 37355 C 3371.59 -3.65436 0.901848 0
M  V30 37356 C 3370.73 -2.44677 1.30493 0
M  V30 37357 H 3373.69 -1.11818 1.12616 0
M  V30 37358 H 3373.71 -3.76989 0.515706 0
M  V30 37359 H 3373.22 -3.17001 2.23902 0
M  V30 37360 H 3371.32 -3.72239 -0.164069 0
M  V30 37361 H 3371.43 -4.53874 1.53413 0
M  V30 37362 H 3369.8 -2.44213 0.723321 0
M  V30 37363 H 3370.58 -2.45992 2.39464 0
M  V30 37364 N 3373.02 -0.716569 -1.40368 0
M  V30 37365 C 3374.27 -0.253487 -2.00101 0
M  V30 37366 C 3374.59 1.16024 -1.57473 0
M  V30 37367 O 3375.79 1.72189 -2.09912 0
M  V30 37368 C 3374.25 -0.402276 -3.57645 0
M  V30 37369 C 3373.86 -1.82271 -4.09245 0
M  V30 37370 C 3375.6 -3.57638e-05 -4.245 0
M  V30 37371 C 3373.51 -1.92203 -5.59296 0
M  V30 37372 H 3372.44 -0.0910178 -0.748486 0
M  V30 37373 H 3375.09 -0.8878 -1.60594 0
M  V30 37374 H 3373.47 0.300637 -3.94857 0
M  V30 37375 H 3374.64 -2.55608 -3.83407 0
M  V30 37376 H 3372.96 -2.1765 -3.54989 0
M  V30 37377 H 3375.56 -0.0535142 -5.34673 0
M  V30 37378 H 3375.9 1.042 -4.03048 0
M  V30 37379 H 3376.43 -0.653429 -3.92397 0
M  V30 37380 H 3373.17 -2.94532 -5.85603 0
M  V30 37381 H 3372.69 -1.23279 -5.86994 0
M  V30 37382 H 3374.37 -1.69461 -6.24413 0
M  V30 37383 N 3374.5 1.50651 -0.462825 0
M  V30 37384 C 3375.73 2.07181 0.0952362 0
M  V30 37385 C 3376.15 1.32535 1.33476 0
M  V30 37386 O 3375.51 0.370596 1.77472 0
M  V30 37387 C 3375.56 3.58691 0.370529 0
M  V30 37388 O 3374.66 3.85973 1.45253 0
M  V30 37389 H 3374 0.663934 -0.00933869 0
M  V30 37390 H 3376.53 1.9395 -0.651492 0
M  V30 37391 H 3376.54 4.03361 0.61348 0
M  V30 37392 H 3375.22 4.12441 -0.535291 0
M  V30 37393 H 3373.8 3.53148 1.19754 0
M  V30 37394 N 3375.98 0.195113 1.56388 0
M  V30 37395 C 3377.39 -0.317481 1.83981 0
M  V30 37396 C 3377.74 -1.61384 1.11578 0
M  V30 37397 O 3376.87 -2.13098 0.376594 0
M  V30 37398 C 3377.46 -0.582801 3.3375 0
M  V30 37399 C 3376.02 -1.03976 3.61754 0
M  V30 37400 C 3375.17 -0.0883853 2.77159 0
M  V30 37401 H 3378.12 0.418898 1.53072 0
M  V30 37402 H 3378.14 -1.4321 3.52521 0
M  V30 37403 H 3377.65 0.360881 3.86419 0
M  V30 37404 H 3375.75 -1.99772 3.14518 0
M  V30 37405 H 3375.87 -0.932466 4.69938 0
M  V30 37406 H 3374.23 -0.590274 2.47766 0
M  V30 37407 H 3375.01 0.849741 3.32617 0
M  V30 37408 N 3377.46 -1.57404 -0.0784879 0
M  V30 37409 C 3378.37 -2.06572 -1.11199 0
M  V30 37410 C 3379.38 -0.993897 -1.4282 0
M  V30 37411 O 3380.56 -1.30817 -1.53131 0
M  V30 37412 C 3377.63 -2.49425 -2.40808 0
M  V30 37413 C 3376.69 -3.70875 -2.16218 0
M  V30 37414 C 3375.92 -4.11674 -3.39647 0
M  V30 37415 O 3376.14 -3.52407 -4.48514 0
M  V30 37416 O 3375.08 -5.04512 -3.28254 0
M  V30 37417 H 3378.9 -2.94936 -0.724329 0
M  V30 37418 H 3376.49 -1.46516 -0.292158 0
M  V30 37419 H 3378.37 -2.77539 -3.17096 0
M  V30 37420 H 3377.04 -1.64192 -2.78967 0
M  V30 37421 H 3375.95 -3.47853 -1.37657 0
M  V30 37422 H 3377.28 -4.56938 -1.82943 0
M  V30 37423 N 3378.94 0.34972 -1.53671 0
M  V30 37424 C 3379.85 1.45272 -1.8421 0
M  V30 37425 C 3380.86 1.57866 -0.731723 0
M  V30 37426 O 3382.04 1.7346 -1.0234 0
M  V30 37427 C 3379.1 2.80341 -2.03985 0
M  V30 37428 C 3378.16 2.77142 -3.27858 0
M  V30 37429 C 3377.4 4.05769 -3.4668 0
M  V30 37430 O 3377.62 5.02737 -2.69466 0
M  V30 37431 O 3376.55 4.10616 -4.40089 0
M  V30 37432 H 3380.38 1.22384 -2.77949 0
M  V30 37433 H 3377.97 0.541321 -1.39248 0
M  V30 37434 H 3379.85 3.60344 -2.18472 0
M  V30 37435 H 3378.52 3.03174 -1.13434 0
M  V30 37436 H 3377.43 1.95782 -3.18779 0
M  V30 37437 H 3378.76 2.59264 -4.18382 0
M  V30 37438 N 3380.41 1.45299 0.610397 0
M  V30 37439 C 3381.35 1.49763 1.73504 0
M  V30 37440 C 3382.36 0.388698 1.58092 0
M  V30 37441 O 3383.55 0.655601 1.66024 0
M  V30 37442 C 3380.65 1.3356 3.11472 0
M  V30 37443 C 3379.82 2.58076 3.53151 0
M  V30 37444 C 3378.88 2.36471 4.70072 0
M  V30 37445 O 3377.91 3.1007 4.77332 0
M  V30 37446 N 3379.11 1.40853 5.63153 0
M  V30 37447 H 3381.87 2.46724 1.7014 0
M  V30 37448 H 3379.43 1.41003 0.795596 0
M  V30 37449 H 3381.43 1.16921 3.87442 0
M  V30 37450 H 3380 0.448857 3.09361 0
M  V30 37451 H 3379.22 2.89849 2.67172 0
M  V30 37452 H 3380.5 3.4085 3.77755 0
M  V30 37453 H 3379.9 0.801081 5.59999 0
M  V30 37454 H 3378.46 1.30187 6.38666 0
M  V30 37455 N 3381.89 -0.852653 1.32543 0
M  V30 37456 C 3383.17 -1.59065 1.13832 0
M  V30 37457 C 3383.55 -2.0895 -0.300547 0
M  V30 37458 O 3382.9 -1.8809 -1.29747 0
M  V30 37459 C 3383.11 -2.73523 2.16763 0
M  V30 37460 C 3384.46 -3.43053 2.502 0
M  V30 37461 O 3385.48 -2.8375 2.15324 0
M  V30 37462 O 3384.34 -4.50074 3.09993 0
M  V30 37463 H 3381.43 -0.700617 0.439391 0
M  V30 37464 H 3383.98 -0.896607 1.4408 0
M  V30 37465 H 3382.75 -2.34201 3.13473 0
M  V30 37466 H 3382.37 -3.50601 1.87522 0
M  V30 37467 N 3383.37 -1.15786 -1.06918 0
M  V30 37468 C 3384.32 -0.858654 -2.14233 0
M  V30 37469 C 3385.29 0.190266 -1.65007 0
M  V30 37470 O 3386.47 0.0568518 -1.90715 0
M  V30 37471 C 3383.61 -0.358941 -3.43228 0
M  V30 37472 C 3382.73 -1.46995 -4.06222 0
M  V30 37473 C 3381.86 -0.925904 -5.23068 0
M  V30 37474 C 3380.9 -2.01355 -5.78033 0
M  V30 37475 N 3380.04 -1.48556 -6.86204 0
M  V30 37476 H 3384.88 -1.77773 -2.39167 0
M  V30 37477 H 3382.41 -0.886946 -1.17353 0
M  V30 37478 H 3384.37 -0.0508931 -4.17169 0
M  V30 37479 H 3383 0.523203 -3.18532 0
M  V30 37480 H 3382.05 -1.89409 -3.29892 0
M  V30 37481 H 3383.37 -2.29095 -4.43076 0
M  V30 37482 H 3382.52 -0.570661 -6.0401 0
M  V30 37483 H 3381.26 -0.0741229 -4.87644 0
M  V30 37484 H 3380.26 -2.37756 -4.95734 0
M  V30 37485 H 3381.49 -2.86918 -6.15512 0
M  V30 37486 H 3379.43 -0.656206 -6.5271 0
M  V30 37487 H 3379.35 -2.24279 -7.21966 0
M  V30 37488 H 3380.62 -1.1587 -7.7084 0
M  V30 37489 N 3384.85 1.25343 -0.955348 0
M  V30 37490 C 3385.78 2.28211 -0.494186 0
M  V30 37491 C 3386.76 1.63766 0.459846 0
M  V30 37492 O 3387.94 1.9086 0.358645 0
M  V30 37493 C 3385.07 3.4655 0.228167 0
M  V30 37494 C 3384.03 4.23178 -0.640676 0
M  V30 37495 C 3383.35 5.34278 0.212459 0
M  V30 37496 C 3384.65 4.85764 -1.91914 0
M  V30 37497 H 3386.35 2.67036 -1.35395 0
M  V30 37498 H 3383.89 1.28369 -0.652484 0
M  V30 37499 H 3385.85 4.17637 0.561921 0
M  V30 37500 H 3384.57 3.06716 1.12219 0
M  V30 37501 H 3383.23 3.53874 -0.957525 0
M  V30 37502 H 3382.88 4.90684 1.10626 0
M  V30 37503 H 3382.58 5.86462 -0.365576 0
M  V30 37504 H 3384.1 6.08197 0.541164 0
M  V30 37505 H 3385.52 5.4899 -1.65175 0
M  V30 37506 H 3383.91 5.48127 -2.44289 0
M  V30 37507 H 3384.98 4.07909 -2.6218 0
M  V30 37508 N 3386.33 0.724003 1.39986 0
M  V30 37509 C 3387.24 0.0781348 2.3447 0
M  V30 37510 C 3388.25 -0.73434 1.57745 0
M  V30 37511 O 3389.43 -0.665351 1.90092 0
M  V30 37512 C 3386.49 -0.826433 3.36706 0
M  V30 37513 C 3385.56 -0.0029549 4.293 0
M  V30 37514 C 3384.79 -0.864442 5.26653 0
M  V30 37515 O 3385.01 -2.10348 5.30198 0
M  V30 37516 O 3383.95 -0.298951 6.01157 0
M  V30 37517 H 3387.77 0.857697 2.91337 0
M  V30 37518 H 3385.36 0.484561 1.41324 0
M  V30 37519 H 3387.24 -1.34432 3.99382 0
M  V30 37520 H 3385.91 -1.585 2.8224 0
M  V30 37521 H 3384.82 0.560201 3.69882 0
M  V30 37522 H 3386.15 0.71758 4.86941 0
M  V30 37523 N 3387.81 -1.50403 0.470808 0
M  V30 37524 C 3388.75 -2.30138 -0.337544 0
M  V30 37525 C 3389.75 -1.37414 -0.990649 0
M  V30 37526 O 3390.95 -1.54606 -0.921786 0
M  V30 37527 H 3387.33 -0.741079 -0.127693 0
M  V30 37528 H 3389.3 -2.96277 0.355349 0
M  V30 37529 C 3388.05 -3.17957 -1.40708 0
M  V30 37530 H 3387.37 -3.89214 -0.913914 0
M  V30 37531 H 3388.81 -3.76743 -1.94527 0
M  V30 37532 C 3387.27 -2.35533 -2.40885 0
M  V30 37533 O 3387.8 -2.03822 -3.46149 0
M  V30 37534 N 3386.01 -1.98119 -2.12596 0
M  V30 37535 H 3385.55 -2.24107 -1.27019 0
M  V30 37536 H 3385.51 -1.43274 -2.79857 0
M  V30 37537 N 3389.28 -0.203404 -1.56282 0
M  V30 37538 C 3390.23 0.714125 -2.19474 0
M  V30 37539 C 3391.2 1.2037 -1.14456 0
M  V30 37540 O 3392.39 1.26608 -1.42741 0
M  V30 37541 C 3389.53 1.92452 -2.86455 0
M  V30 37542 C 3388.64 1.47554 -4.0602 0
M  V30 37543 C 3387.77 2.64208 -4.60834 0
M  V30 37544 C 3386.81 2.15957 -5.72738 0
M  V30 37545 N 3385.95 3.25818 -6.21922 0
M  V30 37546 H 3390.79 0.168506 -2.97523 0
M  V30 37547 H 3388.33 0.0714267 -1.46926 0
M  V30 37548 H 3390.28 2.63491 -3.23463 0
M  V30 37549 H 3388.91 2.44331 -2.10955 0
M  V30 37550 H 3387.97 0.660718 -3.74618 0
M  V30 37551 H 3389.28 1.08159 -4.86932 0
M  V30 37552 H 3388.43 3.43357 -5.00191 0
M  V30 37553 H 3387.17 3.06881 -3.79046 0
M  V30 37554 H 3386.18 1.35264 -5.32901 0
M  V30 37555 H 3387.4 1.74305 -6.56349 0
M  V30 37556 H 3385.35 3.68006 -5.43054 0
M  V30 37557 H 3385.26 2.90619 -6.97909 0
M  V30 37558 H 3386.53 4.05157 -6.65934 0
M  V30 37559 N 3390.76 1.57444 0.0701393 0
M  V30 37560 C 3391.69 2.06841 1.08347 0
M  V30 37561 C 3392.67 0.962249 1.40267 0
M  V30 37562 O 3393.86 1.23507 1.49865 0
M  V30 37563 C 3390.99 2.51372 2.39645 0
M  V30 37564 C 3389.94 3.65879 2.22073 0
M  V30 37565 C 3389.27 3.96471 3.58769 0
M  V30 37566 C 3390.57 4.95865 1.6406 0
M  V30 37567 H 3392.26 2.91752 0.672414 0
M  V30 37568 H 3389.81 1.40354 0.322002 0
M  V30 37569 H 3391.76 2.84542 3.10828 0
M  V30 37570 H 3390.48 1.63492 2.82733 0
M  V30 37571 H 3389.14 3.32994 1.53331 0
M  V30 37572 H 3388.79 3.05719 3.9943 0
M  V30 37573 H 3388.49 4.73576 3.4785 0
M  V30 37574 H 3390.02 4.32139 4.3138 0
M  V30 37575 H 3391.43 5.27255 2.25111 0
M  V30 37576 H 3389.83 5.77303 1.63833 0
M  V30 37577 H 3390.9 4.81146 0.602235 0
M  V30 37578 N 3392.24 -0.341566 1.53854 0
M  V30 37579 C 3393.19 -1.41956 1.81981 0
M  V30 37580 C 3394.16 -1.52179 0.665643 0
M  V30 37581 O 3395.34 -1.67686 0.910276 0
M  V30 37582 C 3392.48 -2.78579 2.03685 0
M  V30 37583 C 3391.59 -2.77132 3.31394 0
M  V30 37584 C 3390.73 -4.05485 3.43155 0
M  V30 37585 C 3389.77 -3.98274 4.64806 0
M  V30 37586 N 3388.91 -5.18321 4.7359 0
M  V30 37587 H 3393.75 -1.1727 2.73956 0
M  V30 37588 H 3391.28 -0.568039 1.3569 0
M  V30 37589 H 3393.24 -3.57979 2.14259 0
M  V30 37590 H 3391.87 -3.01612 1.15022 0
M  V30 37591 H 3390.92 -1.89826 3.29652 0
M  V30 37592 H 3392.23 -2.67681 4.2089 0
M  V30 37593 H 3391.39 -4.9331 3.53172 0
M  V30 37594 H 3390.13 -4.17718 2.51719 0
M  V30 37595 H 3389.13 -3.08834 4.54865 0
M  V30 37596 H 3390.36 -3.87621 5.57608 0
M  V30 37597 H 3388.3 -5.31095 3.85064 0
M  V30 37598 H 3388.22 -5.11135 5.57025 0
M  V30 37599 H 3389.49 -6.07911 4.87918 0
M  V30 37600 N 3393.72 -1.45621 -0.602683 0
M  V30 37601 C 3394.65 -1.50681 -1.72708 0
M  V30 37602 C 3395.66 -0.397076 -1.57883 0
M  V30 37603 O 3396.85 -0.664396 -1.65674 0
M  V30 37604 C 3393.95 -1.3521 -3.1076 0
M  V30 37605 C 3393.12 -2.59945 -3.51777 0
M  V30 37606 C 3392.18 -2.3896 -4.68812 0
M  V30 37607 O 3391.21 -3.12597 -4.75681 0
M  V30 37608 N 3392.41 -1.43837 -5.62398 0
M  V30 37609 H 3395.18 -2.47622 -1.68829 0
M  V30 37610 H 3392.74 -1.41423 -0.788107 0
M  V30 37611 H 3394.73 -1.18974 -3.86817 0
M  V30 37612 H 3393.3 -0.465257 -3.09118 0
M  V30 37613 H 3392.52 -2.91262 -2.65632 0
M  V30 37614 H 3393.81 -3.42848 -3.75942 0
M  V30 37615 H 3393.21 -0.830768 -5.59567 0
M  V30 37616 H 3391.76 -1.33572 -6.37967 0
M  V30 37617 N 3395.2 0.845612 -1.32993 0
M  V30 37618 C 3396.42 1.63266 -1.2709 0
M  V30 37619 C 3396.84 1.88126 0.159448 0
M  V30 37620 O 3396.2 1.45665 1.09945 0
M  V30 37621 C 3396.25 2.98676 -2.03654 0
M  V30 37622 O 3395.97 2.74912 -3.41109 0
M  V30 37623 C 3397.47 3.93114 -2.04882 0
M  V30 37624 H 3394.69 0.508228 -0.438116 0
M  V30 37625 H 3397.23 1.05378 -1.75259 0
M  V30 37626 H 3395.39 3.53184 -1.59184 0
M  V30 37627 H 3395.8 3.61092 -3.80411 0
M  V30 37628 H 3397.28 4.85363 -2.6292 0
M  V30 37629 H 3397.75 4.26773 -1.03736 0
M  V30 37630 H 3398.36 3.44542 -2.4934 0
M  V30 37631 N 3396.67 1.16351 1.06302 0
M  V30 37632 C 3397.62 0.866005 2.15878 0
M  V30 37633 C 3398.62 -0.1649 1.68595 0
M  V30 37634 O 3399.82 -0.0188955 1.7999 0
M  V30 37635 H 3396.2 0.262447 0.704717 0
M  V30 37636 H 3398.17 1.79756 2.38182 0
M  V30 37637 C 3396.92 0.383435 3.45579 0
M  V30 37638 H 3396.24 1.16812 3.82354 0
M  V30 37639 H 3397.68 0.214039 4.23459 0
M  V30 37640 C 3396.14 -0.896987 3.2474 0
M  V30 37641 O 3396.67 -1.96626 3.50287 0
M  V30 37642 N 3394.87 -0.840712 2.78173 0
M  V30 37643 H 3394.42 0.0296293 2.57583 0
M  V30 37644 H 3394.38 -1.69792 2.64609 0
M  V30 37645 N 3398.15 -1.24835 0.961982 0
M  V30 37646 C 3399.08 -2.27945 0.506281 0
M  V30 37647 C 3400.06 -1.64008 -0.451154 0
M  V30 37648 O 3401.25 -1.91047 -0.348519 0
M  V30 37649 C 3398.38 -3.46666 -0.209785 0
M  V30 37650 C 3397.33 -4.22832 0.663109 0
M  V30 37651 C 3396.66 -5.34383 -0.184122 0
M  V30 37652 C 3397.96 -4.84739 1.94488 0
M  V30 37653 H 3399.65 -2.66315 1.3681 0
M  V30 37654 H 3397.2 -1.28021 0.659283 0
M  V30 37655 H 3399.15 -4.17929 -0.539765 0
M  V30 37656 H 3397.87 -3.07306 -1.10591 0
M  V30 37657 H 3396.53 -3.53362 0.976278 0
M  V30 37658 H 3396.18 -4.91264 -1.08022 0
M  V30 37659 H 3395.88 -5.8626 0.396673 0
M  V30 37660 H 3397.41 -6.08476 -0.508902 0
M  V30 37661 H 3398.82 -5.48106 1.68084 0
M  V30 37662 H 3397.22 -5.46823 2.47192 0
M  V30 37663 H 3398.29 -4.06513 2.64339 0
M  V30 37664 N 3399.63 -0.731417 -1.396 0
M  V30 37665 C 3400.56 -0.0495376 -2.29146 0
M  V30 37666 C 3401.57 0.707222 -1.46636 0
M  V30 37667 O 3402.76 0.551979 -1.69751 0
M  V30 37668 C 3399.86 0.954095 -3.25193 0
M  V30 37669 C 3399.04 0.259598 -4.36629 0
M  V30 37670 C 3398.1 1.17083 -5.13009 0
M  V30 37671 O 3397.12 0.649661 -5.6548 0
M  V30 37672 N 3398.32 2.50083 -5.23869 0
M  V30 37673 H 3401.09 -0.818483 -2.88307 0
M  V30 37674 H 3398.65 -0.580343 -1.51141 0
M  V30 37675 H 3400.64 1.56622 -3.73164 0
M  V30 37676 H 3399.21 1.62428 -2.67088 0
M  V30 37677 H 3398.43 -0.532957 -3.90581 0
M  V30 37678 H 3399.72 -0.221843 -5.08316 0
M  V30 37679 H 3399.12 2.94905 -4.8275 0
M  V30 37680 H 3397.67 3.064 -5.75293 0
M  V30 37681 N 3401.11 1.50152 -0.478778 0
M  V30 37682 C 3402.35 2.03294 0.0657451 0
M  V30 37683 C 3402.71 1.35375 1.36716 0
M  V30 37684 O 3402 0.473038 1.85669 0
M  V30 37685 C 3402.2 3.5616 0.297472 0
M  V30 37686 C 3402.03 4.38893 -0.979936 0
M  V30 37687 C 3400.8 4.81725 -1.52543 0
M  V30 37688 C 3402.99 4.7881 -1.87738 0
M  V30 37689 N 3400.98 5.48808 -2.75106 0
M  V30 37690 C 3402.35 5.45383 -2.94886 0
M  V30 37691 C 3404.4 4.60763 -1.88684 0
M  V30 37692 C 3403.1 5.9582 -4.02978 0
M  V30 37693 C 3405.13 5.12146 -2.95737 0
M  V30 37694 C 3404.49 5.787 -4.01604 0
M  V30 37695 H 3400.59 0.781833 -0.0161638 0
M  V30 37696 H 3403.18 1.83576 -0.648696 0
M  V30 37697 H 3401.35 3.75808 0.980957 0
M  V30 37698 H 3403.08 3.9595 0.837021 0
M  V30 37699 H 3399.83 4.61271 -1.07357 0
M  V30 37700 H 3400.26 5.86951 -3.37369 0
M  V30 37701 H 3404.9 4.08734 -1.08151 0
M  V30 37702 H 3402.62 6.46882 -4.84323 0
M  V30 37703 H 3406.2 5.00008 -2.97462 0
M  V30 37704 H 3405.08 6.17743 -4.83077 0
M  V30 37705 N 3402.59 0.211689 1.56172 0
M  V30 37706 C 3403.84 -0.422973 1.97215 0
M  V30 37707 C 3404.15 -1.61598 1.10206 0
M  V30 37708 O 3405.35 -2.31952 1.41104 0
M  V30 37709 C 3403.81 -0.803915 3.50807 0
M  V30 37710 C 3403.42 0.365732 4.46505 0
M  V30 37711 C 3405.16 -1.40473 4.00584 0
M  V30 37712 C 3403.07 -0.0370946 5.91388 0
M  V30 37713 H 3402 -0.161801 0.736435 0
M  V30 37714 H 3404.65 0.306339 1.80925 0
M  V30 37715 H 3403.03 -1.59037 3.62661 0
M  V30 37716 H 3404.21 1.14329 4.46392 0
M  V30 37717 H 3402.52 0.879132 4.07014 0
M  V30 37718 H 3405.12 -1.71885 5.0632 0
M  V30 37719 H 3405.46 -2.31707 3.45858 0
M  V30 37720 H 3405.99 -0.681915 3.91912 0
M  V30 37721 H 3402.73 0.841481 6.50076 0
M  V30 37722 H 3402.25 -0.779166 5.94718 0
M  V30 37723 H 3403.93 -0.467195 6.45311 0
M  V30 37724 N 3404.06 -1.57479 -0.0617887 0
M  V30 37725 C 3405.01 -2.04375 -1.07236 0
M  V30 37726 C 3405.98 -0.926296 -1.37873 0
M  V30 37727 O 3407.17 -1.19466 -1.4877 0
M  V30 37728 C 3404.31 -2.5009 -2.37801 0
M  V30 37729 C 3403.42 -3.75494 -2.13608 0
M  V30 37730 C 3402.55 -4.09951 -3.37807 0
M  V30 37731 C 3401.59 -5.28367 -3.09023 0
M  V30 37732 N 3400.73 -5.58413 -4.25581 0
M  V30 37733 H 3405.57 -2.90474 -0.665485 0
M  V30 37734 H 3403.11 -1.43643 -0.317018 0
M  V30 37735 H 3405.07 -2.7465 -3.14044 0
M  V30 37736 H 3403.7 -1.66953 -2.76272 0
M  V30 37737 H 3402.75 -3.58214 -1.28011 0
M  V30 37738 H 3404.06 -4.61871 -1.88353 0
M  V30 37739 H 3403.21 -4.35465 -4.22439 0
M  V30 37740 H 3401.95 -3.22161 -3.66147 0
M  V30 37741 H 3400.96 -5.02638 -2.22788 0
M  V30 37742 H 3402.18 -6.17783 -2.81995 0
M  V30 37743 H 3400.13 -4.73583 -4.53933 0
M  V30 37744 H 3400.05 -6.3923 -4.03635 0
M  V30 37745 H 3401.31 -5.88485 -5.11181 0
M  V30 37746 N 3405.54 0.333401 -1.54033 0
M  V30 37747 C 3406.79 1.07408 -1.72021 0
M  V30 37748 C 3407.12 1.87987 -0.487298 0
M  V30 37749 O 3406.4 1.87538 0.515724 0
M  V30 37750 C 3406.68 2.00692 -2.98989 0
M  V30 37751 C 3406.53 1.23509 -4.32511 0
M  V30 37752 C 3407.85 3.00362 -3.21668 0
M  V30 37753 H 3404.97 0.389083 -0.625926 0
M  V30 37754 H 3407.61 0.351664 -1.86717 0
M  V30 37755 H 3405.76 2.62293 -2.86591 0
M  V30 37756 H 3407.43 0.644442 -4.56776 0
M  V30 37757 H 3405.68 0.537222 -4.30461 0
M  V30 37758 H 3406.35 1.91953 -5.1755 0
M  V30 37759 H 3408.82 2.4888 -3.33464 0
M  V30 37760 H 3407.7 3.62827 -4.11884 0
M  V30 37761 H 3407.96 3.72291 -2.38436 0
M  V30 37762 N 3407.02 1.45939 0.594952 0
M  V30 37763 C 3408.25 1.54396 1.38479 0
M  V30 37764 C 3408.67 0.181596 1.87221 0
M  V30 37765 O 3408.03 -0.836091 1.6087 0
M  V30 37766 C 3408.08 2.54292 2.55672 0
M  V30 37767 O 3407.18 2.06947 3.56716 0
M  V30 37768 H 3406.52 0.520002 0.412909 0
M  V30 37769 H 3409.05 1.91405 0.722865 0
M  V30 37770 H 3409.06 2.73507 3.02751 0
M  V30 37771 H 3407.74 3.53232 2.19546 0
M  V30 37772 H 3406.31 1.97666 3.162 0
M  V30 37773 N 3408.5 -0.838547 1.3344 0
M  V30 37774 C 3409.91 -1.12927 1.12781 0
M  V30 37775 C 3410.11 -2.01337 -0.0810834 0
M  V30 37776 O 3409.17 -2.40751 -0.761252 0
M  V30 37777 C 3410.48 -1.79105 2.4154 0
M  V30 37778 C 3412.03 -1.9167 2.4745 0
M  V30 37779 C 3412.51 -2.61264 3.76172 0
M  V30 37780 N 3414 -2.68776 3.77245 0
M  V30 37781 C 3414.73 -3.23315 4.73556 0
M  V30 37782 N 3414.23 -3.78539 5.80242 0
M  V30 37783 N 3416.02 -3.2157 4.61031 0
M  V30 37784 H 3408.17 -0.25015 2.10922 0
M  V30 37785 H 3410.44 -0.173493 0.931989 0
M  V30 37786 H 3410.14 -1.21603 3.30008 0
M  V30 37787 H 3410.02 -2.79122 2.53714 0
M  V30 37788 H 3412.4 -2.48326 1.59432 0
M  V30 37789 H 3412.48 -0.906016 2.39217 0
M  V30 37790 H 3412.13 -2.05267 4.64573 0
M  V30 37791 H 3412.06 -3.62804 3.81682 0
M  V30 37792 H 3414.55 -2.29616 3.00142 0
M  V30 37793 H 3414.86 -4.18359 6.49766 0
M  V30 37794 H 3413.21 -3.76825 5.83976 0
M  V30 37795 H 3416.4 -2.77684 3.76841 0
M  V30 37796 H 3416.57 -3.63771 5.3626 0
M  V30 37797 N 3409.98 -1.16914 -1.05683 0
M  V30 37798 C 3410.94 -0.883684 -2.1148 0
M  V30 37799 C 3411.94 0.124005 -1.60321 0
M  V30 37800 O 3413.13 -0.107597 -1.73867 0
M  V30 37801 C 3410.26 -0.322708 -3.39369 0
M  V30 37802 H 3411.45 -1.82165 -2.38235 0
M  V30 37803 H 3409.01 -0.978916 -1.21848 0
M  V30 37804 H 3409.74 0.622639 -3.18267 0
M  V30 37805 H 3409.53 -1.0489 -3.7781 0
M  V30 37806 H 3411.02 -0.141145 -4.17361 0
M  V30 37807 N 3411.45 1.24323 -0.968589 0
M  V30 37808 C 3412.38 2.27674 -0.518363 0
M  V30 37809 C 3413.37 1.64245 0.44245 0
M  V30 37810 O 3414.55 1.91229 0.338382 0
M  V30 37811 C 3411.68 3.46772 0.191398 0
M  V30 37812 C 3410.63 4.22474 -0.685523 0
M  V30 37813 C 3409.96 5.34473 0.155779 0
M  V30 37814 C 3411.26 4.83701 -1.97055 0
M  V30 37815 H 3412.95 2.65585 -1.3822 0
M  V30 37816 H 3410.5 1.2767 -0.666063 0
M  V30 37817 H 3412.45 4.18209 0.517594 0
M  V30 37818 H 3411.18 3.07889 1.08959 0
M  V30 37819 H 3409.84 3.52839 -0.995004 0
M  V30 37820 H 3409.48 4.9183 1.05415 0
M  V30 37821 H 3409.18 5.86041 -0.427758 0
M  V30 37822 H 3410.71 6.08737 0.476626 0
M  V30 37823 H 3412.12 5.47207 -1.70988 0
M  V30 37824 H 3410.52 5.45505 -2.50089 0
M  V30 37825 H 3411.59 4.05105 -2.66492 0
M  V30 37826 N 3412.93 0.73881 1.3921 0
M  V30 37827 C 3414.34 0.357948 1.83237 0
M  V30 37828 C 3414.69 -1.1112 1.617 0
M  V30 37829 O 3413.82 -1.85751 1.1102 0
M  V30 37830 C 3414.41 0.642909 3.32644 0
M  V30 37831 C 3412.97 0.315498 3.75075 0
M  V30 37832 C 3412.12 0.903602 2.62165 0
M  V30 37833 H 3415.07 0.93615 1.28148 0
M  V30 37834 H 3415.09 -0.0840143 3.80407 0
M  V30 37835 H 3414.6 1.71224 3.48287 0
M  V30 37836 H 3412.71 -0.747842 3.65018 0
M  V30 37837 H 3412.82 0.800721 4.72361 0
M  V30 37838 H 3411.18 0.329972 2.52554 0
M  V30 37839 H 3411.97 1.97766 2.80612 0
M  V30 37840 N 3414.41 -1.49895 0.486734 0
M  V30 37841 C 3415.32 -2.3262 -0.304181 0
M  V30 37842 C 3416.34 -1.43704 -0.981078 0
M  V30 37843 O 3417.51 -1.76743 -0.965608 0
M  V30 37844 C 3414.58 -3.18786 -1.36296 0
M  V30 37845 C 3413.64 -4.23538 -0.701008 0
M  V30 37846 C 3412.87 -5.05586 -1.70934 0
M  V30 37847 O 3413.09 -4.88936 -2.93765 0
M  V30 37848 O 3412.03 -5.88295 -1.27252 0
M  V30 37849 H 3415.85 -3.01407 0.372533 0
M  V30 37850 H 3413.44 -1.47322 0.248302 0
M  V30 37851 H 3415.32 -3.72206 -1.97587 0
M  V30 37852 H 3414 -2.5271 -2.02286 0
M  V30 37853 H 3412.9 -3.74068 -0.0487268 0
M  V30 37854 H 3414.24 -4.92129 -0.0837952 0
M  V30 37855 N 3415.89 -0.219968 -1.56057 0
M  V30 37856 C 3416.84 0.690807 -2.20219 0
M  V30 37857 C 3417.81 1.19149 -1.15727 0
M  V30 37858 O 3418.99 1.25087 -1.44076 0
M  V30 37859 C 3416.13 1.89403 -2.8848 0
M  V30 37860 C 3415.24 1.43239 -4.07562 0
M  V30 37861 C 3414.38 2.59305 -4.6361 0
M  V30 37862 C 3413.42 2.0987 -5.74997 0
M  V30 37863 N 3412.56 3.19203 -6.25343 0
M  V30 37864 H 3417.4 0.13694 -2.97685 0
M  V30 37865 H 3414.93 0.0558392 -1.46994 0
M  V30 37866 H 3416.89 2.60045 -3.2624 0
M  V30 37867 H 3415.52 2.4208 -2.13535 0
M  V30 37868 H 3414.57 0.620947 -3.75298 0
M  V30 37869 H 3415.88 1.02989 -4.88052 0
M  V30 37870 H 3415.04 3.38033 -5.03804 0
M  V30 37871 H 3413.78 3.02843 -3.82279 0
M  V30 37872 H 3412.78 1.29604 -5.34306 0
M  V30 37873 H 3414.01 1.67334 -6.58161 0
M  V30 37874 H 3411.95 3.62226 -5.46926 0
M  V30 37875 H 3411.87 2.832 -7.00952 0
M  V30 37876 H 3413.14 3.98071 -6.70194 0
M  V30 37877 N 3417.37 1.57509 0.0534363 0
M  V30 37878 C 3418.3 2.01698 1.0886 0
M  V30 37879 C 3419.31 0.925789 1.33914 0
M  V30 37880 O 3420.5 1.20345 1.31831 0
M  V30 37881 C 3417.6 2.35648 2.43563 0
M  V30 37882 C 3416.77 3.66845 2.38208 0
M  V30 37883 C 3415.83 3.88258 3.55165 0
M  V30 37884 O 3414.86 4.59623 3.35761 0
M  V30 37885 N 3416.06 3.32018 4.76177 0
M  V30 37886 H 3418.83 2.91116 0.712141 0
M  V30 37887 H 3416.39 1.60084 0.241801 0
M  V30 37888 H 3418.38 2.47131 3.20482 0
M  V30 37889 H 3416.95 1.52026 2.73142 0
M  V30 37890 H 3416.17 3.65946 1.46551 0
M  V30 37891 H 3417.46 4.52957 2.31749 0
M  V30 37892 H 3416.86 2.74127 4.94844 0
M  V30 37893 H 3415.41 3.4892 5.50543 0
M  V30 37894 N 3418.85 -0.325228 1.54208 0
M  V30 37895 C 3420.09 -1.06127 1.71993 0
M  V30 37896 C 3420.41 -1.88599 0.495538 0
M  V30 37897 O 3419.68 -1.89661 -0.490471 0
M  V30 37898 H 3418.26 -0.394805 0.634144 0
M  V30 37899 H 3420.93 -0.362068 1.91507 0
M  V30 37900 H 3420.02 -1.72824 2.59881 0
M  V30 37901 N 3420.32 -1.46252 -0.587204 0
M  V30 37902 C 3421.23 -1.59052 -1.72452 0
M  V30 37903 C 3422.25 -0.47416 -1.67415 0
M  V30 37904 O 3423.43 -0.737666 -1.87405 0
M  V30 37905 C 3420.49 -1.57324 -3.0895 0
M  V30 37906 C 3419.55 -2.80156 -3.25286 0
M  V30 37907 C 3418.78 -2.78501 -4.55272 0
M  V30 37908 O 3419.01 -1.86989 -5.3888 0
M  V30 37909 O 3417.94 -3.69983 -4.74759 0
M  V30 37910 H 3421.77 -2.55225 -1.64602 0
M  V30 37911 H 3419.35 -1.28994 -0.75372 0
M  V30 37912 H 3421.23 -1.5904 -3.90236 0
M  V30 37913 H 3419.91 -0.643081 -3.17248 0
M  V30 37914 H 3418.82 -2.83996 -2.4351 0
M  V30 37915 H 3420.15 -3.72366 -3.21877 0
M  V30 37916 N 3421.8 0.831459 -1.33883 0
M  V30 37917 C 3423.05 1.58215 -1.25103 0
M  V30 37918 C 3423.36 1.94774 0.179596 0
M  V30 37919 O 3424.57 2.68692 0.389469 0
M  V30 37920 C 3423.03 2.85406 -2.19251 0
M  V30 37921 C 3422.63 2.56183 -3.67524 0
M  V30 37922 C 3424.38 3.63429 -2.19361 0
M  V30 37923 C 3422.28 3.79515 -4.53566 0
M  V30 37924 H 3421.21 0.593776 -0.4647 0
M  V30 37925 H 3423.87 0.916141 -1.58994 0
M  V30 37926 H 3422.25 3.53588 -1.78302 0
M  V30 37927 H 3423.42 1.96166 -4.1696 0
M  V30 37928 H 3421.74 1.91451 -3.69778 0
M  V30 37929 H 3424.33 4.5499 -2.80871 0
M  V30 37930 H 3424.68 3.98911 -1.19063 0
M  V30 37931 H 3425.21 3.02181 -2.58711 0
M  V30 37932 H 3421.95 3.4916 -5.54768 0
M  V30 37933 H 3421.47 4.38846 -4.0887 0
M  V30 37934 H 3423.15 4.47017 -4.67744 0
M  V30 37935 N 3423.28 1.17472 1.05062 0
M  V30 37936 C 3424.19 0.907324 2.16344 0
M  V30 37937 C 3425.21 -0.124983 1.73551 0
M  V30 37938 O 3426.38 0.0545905 2.01326 0
M  V30 37939 C 3423.45 0.425741 3.44076 0
M  V30 37940 C 3422.51 1.5248 4.01308 0
M  V30 37941 C 3421.74 1.0661 5.22944 0
M  V30 37942 O 3421.96 -0.0792326 5.70345 0
M  V30 37943 O 3420.9 1.85968 5.7245 0
M  V30 37944 H 3424.72 1.83821 2.41751 0
M  V30 37945 H 3422.31 0.955713 1.14832 0
M  V30 37946 H 3424.19 0.164763 4.21078 0
M  V30 37947 H 3422.87 -0.47698 3.20166 0
M  V30 37948 H 3421.77 1.83967 3.25741 0
M  V30 37949 H 3423.11 2.40328 4.29539 0
M  V30 37950 N 3424.76 -1.23807 0.975168 0
M  V30 37951 C 3425.72 -2.23312 0.516196 0
M  V30 37952 C 3426.72 -1.55965 -0.391333 0
M  V30 37953 O 3427.91 -1.73207 -0.185752 0
M  V30 37954 C 3425.04 -3.39971 -0.251474 0
M  V30 37955 H 3426.24 -2.65431 1.39594 0
M  V30 37956 H 3423.79 -1.3655 0.760517 0
M  V30 37957 H 3424.52 -3.03301 -1.14799 0
M  V30 37958 H 3424.31 -3.90055 0.399893 0
M  V30 37959 H 3425.8 -4.1381 -0.561366 0
M  V30 37960 N 3426.24 -0.746182 -1.38816 0
M  V30 37961 C 3427.17 -0.0738389 -2.29081 0
M  V30 37962 C 3428.18 0.69163 -1.47378 0
M  V30 37963 O 3429.37 0.533943 -1.70327 0
M  V30 37964 C 3426.47 0.91955 -3.26186 0
M  V30 37965 C 3425.64 0.213273 -4.3688 0
M  V30 37966 C 3424.7 1.11635 -5.14222 0
M  V30 37967 O 3423.73 0.589647 -5.66138 0
M  V30 37968 N 3424.93 2.44512 -5.26492 0
M  V30 37969 H 3427.69 -0.849016 -2.87423 0
M  V30 37970 H 3425.26 -0.59634 -1.50517 0
M  V30 37971 H 3427.25 1.52656 -3.74804 0
M  V30 37972 H 3425.82 1.59586 -2.68796 0
M  V30 37973 H 3425.04 -0.574353 -3.89993 0
M  V30 37974 H 3426.33 -0.275744 -5.08052 0
M  V30 37975 H 3425.72 2.89768 -4.85851 0
M  V30 37976 H 3424.28 3.00281 -5.78511 0
M  V30 37977 N 3427.71 1.49635 -0.494676 0
M  V30 37978 C 3428.96 2.01628 0.0538922 0
M  V30 37979 C 3429.28 1.37988 1.38631 0
M  V30 37980 O 3430.48 1.81272 2.0212 0
M  V30 37981 C 3428.94 3.59602 0.146519 0
M  V30 37982 C 3428.55 4.32211 -1.17888 0
M  V30 37983 C 3430.29 4.19559 0.645788 0
M  V30 37984 C 3428.2 5.82027 -1.04876 0
M  V30 37985 H 3427.13 0.753621 0.0239145 0
M  V30 37986 H 3429.78 1.72231 -0.633142 0
M  V30 37987 H 3428.16 3.85687 0.897863 0
M  V30 37988 H 3429.33 4.17832 -1.94302 0
M  V30 37989 H 3427.65 3.8397 -1.61109 0
M  V30 37990 H 3430.25 5.29263 0.760547 0
M  V30 37991 H 3430.59 3.82504 1.64306 0
M  V30 37992 H 3431.12 3.9777 -0.04884 0
M  V30 37993 H 3427.86 6.23596 -2.02011 0
M  V30 37994 H 3427.38 5.98917 -0.325399 0
M  V30 37995 H 3429.06 6.42926 -0.724912 0
M  V30 37996 N 3429.19 0.228241 1.55939 0
M  V30 37997 C 3430.14 -0.679118 2.20582 0
M  V30 37998 C 3431.11 -1.18534 1.16357 0
M  V30 37999 O 3432.29 -1.24322 1.44737 0
M  V30 38000 C 3429.43 -1.8787 2.8948 0
M  V30 38001 C 3428.55 -1.41076 4.08316 0
M  V30 38002 C 3427.68 -2.56843 4.64979 0
M  V30 38003 C 3426.72 -2.06818 5.76101 0
M  V30 38004 N 3425.86 -3.15883 6.27027 0
M  V30 38005 H 3430.7 -0.121151 2.97754 0
M  V30 38006 H 3428.23 -0.0480429 1.47022 0
M  V30 38007 H 3430.19 -2.58311 3.27614 0
M  V30 38008 H 3428.82 -2.40944 2.14815 0
M  V30 38009 H 3427.87 -0.601036 3.75622 0
M  V30 38010 H 3429.19 -1.00399 4.88591 0
M  V30 38011 H 3428.34 -3.35356 5.0559 0
M  V30 38012 H 3427.08 -3.00811 3.8388 0
M  V30 38013 H 3426.08 -1.26769 5.34986 0
M  V30 38014 H 3427.31 -1.63841 6.59039 0
M  V30 38015 H 3425.26 -3.5932 5.4884 0
M  V30 38016 H 3425.17 -2.79479 7.02444 0
M  V30 38017 H 3426.44 -3.94511 6.72296 0
M  V30 38018 N 3430.67 -1.57536 -0.0450825 0
M  V30 38019 C 3431.95 -1.79652 -0.773593 0
M  V30 38020 C 3432.33 -0.822425 -1.94421 0
M  V30 38021 O 3431.68 0.138873 -2.28078 0
M  V30 38022 C 3431.89 -3.26921 -1.22163 0
M  V30 38023 C 3433.23 -3.91477 -1.64412 0
M  V30 38024 O 3434.26 -3.30974 -1.31662 0
M  V30 38025 O 3433.12 -4.97971 -2.25139 0
M  V30 38026 H 3430.21 -0.73822 -0.372773 0
M  V30 38027 H 3432.76 -1.69684 -0.0230946 0
M  V30 38028 H 3431.53 -3.89399 -0.385234 0
M  V30 38029 H 3431.15 -3.41716 -2.03263 0
M  V30 38030 N 3432.15 0.317045 -1.54378 0
M  V30 38031 C 3433.08 1.39549 -1.87212 0
M  V30 38032 C 3434.06 1.53662 -0.72951 0
M  V30 38033 O 3435.24 1.67435 -0.983828 0
M  V30 38034 C 3432.37 2.76218 -2.10525 0
M  V30 38035 C 3431.33 2.76887 -3.26371 0
M  V30 38036 C 3430.65 4.16693 -3.35068 0
M  V30 38037 C 3431.95 2.40053 -4.63866 0
M  V30 38038 H 3433.65 1.12318 -2.77534 0
M  V30 38039 H 3431.19 0.538874 -1.33537 0
M  V30 38040 H 3433.15 3.51735 -2.32079 0
M  V30 38041 H 3431.87 3.0494 -1.16959 0
M  V30 38042 H 3430.53 2.03826 -3.04714 0
M  V30 38043 H 3430.18 4.42566 -2.39049 0
M  V30 38044 H 3429.88 4.18045 -4.12931 0
M  V30 38045 H 3431.4 4.94013 -3.58864 0
M  V30 38046 H 3432.82 3.05283 -4.85258 0
M  V30 38047 H 3431.21 2.52645 -5.44326 0
M  V30 38048 H 3432.28 1.35194 -4.65672 0
M  V30 38049 N 3433.63 1.46561 0.57944 0
M  V30 38050 C 3434.87 1.5174 1.33489 0
M  V30 38051 C 3435.2 0.17196 1.9424 0
M  V30 38052 O 3434.47 -0.801843 1.78738 0
M  V30 38053 H 3433.05 0.558883 0.49564 0
M  V30 38054 H 3435.71 1.82714 0.678362 0
M  V30 38055 H 3434.8 2.27187 2.13992 0
M  V30 38056 N 3435.1 -0.824347 1.34322 0
M  V30 38057 C 3436.04 -1.94269 1.21623 0
M  V30 38058 C 3437.05 -1.62165 0.143656 0
M  V30 38059 O 3438.24 -1.74066 0.395383 0
M  V30 38060 C 3435.34 -3.28166 0.846185 0
M  V30 38061 C 3434.51 -3.88303 2.01344 0
M  V30 38062 C 3433.57 -5.00576 1.62203 0
M  V30 38063 O 3432.6 -5.18948 2.3384 0
M  V30 38064 N 3433.8 -5.78026 0.535363 0
M  V30 38065 H 3436.56 -2.05695 2.17967 0
M  V30 38066 H 3434.12 -1.00085 1.27258 0
M  V30 38067 H 3436.12 -4.0072 0.566157 0
M  V30 38068 H 3434.69 -3.12588 -0.0270215 0
M  V30 38069 H 3433.91 -3.08159 2.45828 0
M  V30 38070 H 3435.19 -4.25214 2.79411 0
M  V30 38071 H 3434.59 -5.65668 -0.0602132 0
M  V30 38072 H 3433.15 -6.51038 0.31506 0
M  V30 38073 N 3436.58 -1.18028 -1.04437 0
M  V30 38074 C 3437.51 -0.927351 -2.14295 0
M  V30 38075 C 3438.49 0.13354 -1.69575 0
M  V30 38076 O 3439.68 -0.018278 -1.94191 0
M  V30 38077 C 3436.81 -0.448195 -3.44396 0
M  V30 38078 C 3435.76 -1.44914 -4.02721 0
M  V30 38079 C 3435.09 -0.827647 -5.28256 0
M  V30 38080 C 3436.39 -2.8247 -4.39326 0
M  V30 38081 H 3438.08 -1.84609 -2.35711 0
M  V30 38082 H 3435.63 -0.889032 -1.13279 0
M  V30 38083 H 3437.58 -0.258628 -4.20606 0
M  V30 38084 H 3436.31 0.506102 -3.22655 0
M  V30 38085 H 3434.96 -1.62558 -3.28588 0
M  V30 38086 H 3434.61 0.133721 -5.02822 0
M  V30 38087 H 3434.31 -1.4959 -5.6824 0
M  V30 38088 H 3435.84 -0.648527 -6.07146 0
M  V30 38089 H 3437.25 -2.685 -5.06538 0
M  V30 38090 H 3435.65 -3.45945 -4.90349 0
M  V30 38091 H 3436.72 -3.36305 -3.49324 0
M  V30 38092 N 3438.06 1.23288 -0.98172 0
M  V30 38093 C 3438.97 2.28504 -0.531336 0
M  V30 38094 C 3439.99 1.68991 0.414501 0
M  V30 38095 O 3441.16 1.99386 0.284094 0
M  V30 38096 C 3438.23 3.46341 0.157803 0
M  V30 38097 C 3437.29 4.21208 -0.829601 0
M  V30 38098 C 3436.52 5.33419 -0.173254 0
M  V30 38099 O 3436.74 5.60924 1.03539 0
M  V30 38100 O 3435.68 5.95543 -0.87249 0
M  V30 38101 H 3439.5 2.69174 -1.40638 0
M  V30 38102 H 3437.09 1.29244 -0.749418 0
M  V30 38103 H 3438.97 4.1787 0.544321 0
M  V30 38104 H 3437.65 3.07619 1.00759 0
M  V30 38105 H 3436.55 3.51997 -1.26684 0
M  V30 38106 H 3437.89 4.63782 -1.64824 0
M  V30 38107 N 3439.54 0.753533 1.38418 0
M  V30 38108 C 3440.49 0.125781 2.30457 0
M  V30 38109 C 3441.46 -0.709702 1.50175 0
M  V30 38110 O 3442.64 -0.665841 1.78805 0
M  V30 38111 C 3439.78 -0.761444 3.36595 0
M  V30 38112 C 3438.89 0.0886608 4.31909 0
M  V30 38113 C 3438.03 -0.801563 5.25118 0
M  V30 38114 C 3437.07 0.0521795 6.12078 0
M  V30 38115 N 3436.2 -0.795001 6.97585 0
M  V30 38116 H 3441.04 0.916237 2.83565 0
M  V30 38117 H 3438.58 0.46346 1.39608 0
M  V30 38118 H 3440.54 -1.29047 3.9674 0
M  V30 38119 H 3439.17 -1.51769 2.84897 0
M  V30 38120 H 3438.22 0.735314 3.73226 0
M  V30 38121 H 3439.53 0.747985 4.9316 0
M  V30 38122 H 3438.69 -1.39776 5.90379 0
M  V30 38123 H 3437.43 -1.49462 4.64233 0
M  V30 38124 H 3436.43 0.661042 5.45812 0
M  V30 38125 H 3437.66 0.742297 6.75031 0
M  V30 38126 H 3435.6 -1.47301 6.39248 0
M  V30 38127 H 3435.52 -0.192572 7.55755 0
M  V30 38128 H 3436.79 -1.37617 7.67256 0
M  V30 38129 N 3441.02 -1.49371 0.502605 0
M  V30 38130 C 3441.96 -2.29156 -0.274964 0
M  V30 38131 C 3442.93 -1.35626 -0.958896 0
M  V30 38132 O 3444.12 -1.64583 -0.965247 0
M  V30 38133 C 3441.26 -3.18337 -1.33249 0
M  V30 38134 C 3440.37 -4.26926 -0.660173 0
M  V30 38135 C 3439.51 -5.03321 -1.69828 0
M  V30 38136 C 3438.55 -6.03745 -1.00792 0
M  V30 38137 N 3437.68 -6.73299 -1.9903 0
M  V30 38138 H 3442.52 -2.95143 0.411651 0
M  V30 38139 H 3440.06 -1.45523 0.214849 0
M  V30 38140 H 3442.02 -3.68419 -1.95763 0
M  V30 38141 H 3440.65 -2.54331 -1.98785 0
M  V30 38142 H 3439.7 -3.80319 0.0782849 0
M  V30 38143 H 3441.01 -4.98663 -0.116803 0
M  V30 38144 H 3440.17 -5.5728 -2.39842 0
M  V30 38145 H 3438.9 -4.31361 -2.27551 0
M  V30 38146 H 3437.91 -5.49016 -0.293557 0
M  V30 38147 H 3439.13 -6.77691 -0.437166 0
M  V30 38148 H 3437.08 -6.04109 -2.55712 0
M  V30 38149 H 3437 -7.41017 -1.49763 0
M  V30 38150 H 3438.27 -7.31861 -2.68328 0
M  V30 38151 N 3442.49 -0.236508 -1.55815 0
M  V30 38152 C 3443.42 0.661795 -2.23925 0
M  V30 38153 C 3444.41 1.18944 -1.21599 0
M  V30 38154 O 3445.59 1.2307 -1.50225 0
M  V30 38155 C 3442.72 1.86349 -2.93072 0
M  V30 38156 C 3441.67 1.46906 -4.01998 0
M  V30 38157 C 3441 2.75075 -4.58517 0
M  V30 38158 C 3442.3 0.647873 -5.18266 0
M  V30 38159 H 3443.99 0.0938842 -2.99253 0
M  V30 38160 H 3441.54 0.0437154 -1.43934 0
M  V30 38161 H 3443.49 2.49749 -3.39416 0
M  V30 38162 H 3442.22 2.45662 -2.15216 0
M  V30 38163 H 3440.88 0.85846 -3.56407 0
M  V30 38164 H 3440.52 3.32563 -3.77374 0
M  V30 38165 H 3440.22 2.49411 -5.32041 0
M  V30 38166 H 3441.75 3.39391 -5.07589 0
M  V30 38167 H 3443.16 1.18592 -5.609 0
M  V30 38168 H 3441.56 0.487718 -5.98115 0
M  V30 38169 H 3442.63 -0.342236 -4.83691 0
M  V30 38170 N 3443.97 1.57557 0.0367273 0
M  V30 38171 C 3444.88 2.09447 1.05683 0
M  V30 38172 C 3445.9 1.03141 1.40135 0
M  V30 38173 O 3447.07 1.34831 1.49608 0
M  V30 38174 C 3444.14 2.55721 2.3411 0
M  V30 38175 C 3443.2 3.76477 2.06309 0
M  V30 38176 C 3442.43 4.20535 3.28613 0
M  V30 38177 O 3442.66 3.64175 4.39013 0
M  V30 38178 O 3441.59 5.13038 3.14763 0
M  V30 38179 H 3445.42 2.96753 0.645878 0
M  V30 38180 H 3443 1.47239 0.253209 0
M  V30 38181 H 3444.88 2.85849 3.09626 0
M  V30 38182 H 3443.56 1.71531 2.74516 0
M  V30 38183 H 3442.47 3.5138 1.28386 0
M  V30 38184 H 3443.8 4.61628 1.70764 0
M  V30 38185 N 3445.45 -0.308854 1.54544 0
M  V30 38186 C 3446.73 -1.06415 1.64119 0
M  V30 38187 C 3447.11 -2.05466 0.484438 0
M  V30 38188 O 3446.46 -2.22511 -0.519713 0
M  V30 38189 C 3446.67 -1.75301 3.01779 0
M  V30 38190 C 3448.01 -2.27786 3.58328 0
M  V30 38191 O 3449.04 -1.85345 3.0418 0
M  V30 38192 O 3447.9 -3.05526 4.53119 0
M  V30 38193 H 3444.99 -0.49139 0.665181 0
M  V30 38194 H 3447.54 -0.307569 1.66889 0
M  V30 38195 H 3446.31 -1.03335 3.77409 0
M  V30 38196 H 3445.93 -2.57734 3.02752 0
M  V30 38197 N 3446.93 -1.46867 -0.571659 0
M  V30 38198 C 3447.86 -1.61134 -1.68991 0
M  V30 38199 C 3448.84 -0.461251 -1.63727 0
M  V30 38200 O 3450.03 -0.688845 -1.81572 0
M  V30 38201 C 3447.16 -1.61177 -3.07635 0
M  V30 38202 C 3446.11 -2.75267 -3.27737 0
M  V30 38203 C 3445.44 -2.60376 -4.67021 0
M  V30 38204 C 3446.74 -4.16995 -3.14504 0
M  V30 38205 H 3448.43 -2.54745 -1.57307 0
M  V30 38206 H 3445.98 -1.22598 -0.755361 0
M  V30 38207 H 3447.93 -1.69751 -3.85697 0
M  V30 38208 H 3446.65 -0.641179 -3.20244 0
M  V30 38209 H 3445.31 -2.66181 -2.52078 0
M  V30 38210 H 3444.96 -1.61376 -4.7641 0
M  V30 38211 H 3444.66 -3.36907 -4.81422 0
M  V30 38212 H 3446.18 -2.70857 -5.47237 0
M  V30 38213 H 3447.6 -4.27134 -3.82399 0
M  V30 38214 H 3445.99 -4.94199 -3.40422 0
M  V30 38215 H 3447.06 -4.36375 -2.11436 0
M  V30 38216 N 3448.41 0.817212 -1.34757 0
M  V30 38217 C 3449.32 1.96021 -1.28892 0
M  V30 38218 C 3450.33 1.72897 -0.195612 0
M  V30 38219 O 3451.51 1.96906 -0.423106 0
M  V30 38220 C 3448.57 3.30421 -1.04991 0
M  V30 38221 C 3447.64 3.66513 -2.23532 0
M  V30 38222 C 3446.87 4.945 -2.00762 0
M  V30 38223 O 3447.09 5.62114 -0.968721 0
M  V30 38224 O 3446.03 5.28603 -2.87858 0
M  V30 38225 H 3449.85 2.03913 -2.25062 0
M  V30 38226 H 3447.44 0.953447 -1.15021 0
M  V30 38227 H 3449.32 4.10904 -0.934661 0
M  V30 38228 H 3447.99 3.23483 -0.118639 0
M  V30 38229 H 3446.9 2.8645 -2.40618 0
M  V30 38230 H 3448.23 3.78143 -3.15069 0
M  V30 38231 N 3449.89 1.1858 1.0381 0
M  V30 38232 C 3450.8 0.93022 2.1537 0
M  V30 38233 C 3451.81 -0.106569 1.73673 0
M  V30 38234 O 3452.99 0.0759408 2.01257 0
M  V30 38235 C 3450.05 0.462211 3.43605 0
M  V30 38236 C 3449.11 1.56728 3.99669 0
M  V30 38237 C 3448.35 1.1215 5.21783 0
M  V30 38238 O 3448.57 -0.0187354 5.70397 0
M  V30 38239 O 3447.5 1.9203 5.70446 0
M  V30 38240 H 3451.33 1.86375 2.39787 0
M  V30 38241 H 3448.91 0.967839 1.13812 0
M  V30 38242 H 3450.8 0.209414 4.20879 0
M  V30 38243 H 3449.47 -0.442996 3.20654 0
M  V30 38244 H 3448.38 1.87412 3.23771 0
M  V30 38245 H 3449.71 2.4487 4.26966 0
M  V30 38246 N 3451.36 -1.22766 0.988245 0
M  V30 38247 C 3452.3 -2.23836 0.492959 0
M  V30 38248 C 3453.31 -1.57567 -0.40944 0
M  V30 38249 O 3454.5 -1.77233 -0.212319 0
M  V30 38250 C 3451.6 -3.37521 -0.305369 0
M  V30 38251 C 3450.77 -4.33375 0.592043 0
M  V30 38252 C 3449.83 -5.25975 -0.153777 0
M  V30 38253 O 3448.86 -5.67344 0.459253 0
M  V30 38254 N 3450.06 -5.62421 -1.43746 0
M  V30 38255 H 3452.82 -2.66962 1.36203 0
M  V30 38256 H 3450.38 -1.37018 0.862419 0
M  V30 38257 H 3452.38 -3.96453 -0.812851 0
M  V30 38258 H 3450.95 -2.93516 -1.0755 0
M  V30 38259 H 3450.17 -3.72831 1.28026 0
M  V30 38260 H 3451.45 -4.94365 1.20336 0
M  V30 38261 H 3450.85 -5.30774 -1.95692 0
M  V30 38262 H 3449.41 -6.2379 -1.89023 0
M  V30 38263 N 3452.84 -0.760864 -1.38017 0
M  V30 38264 C 3453.77 -0.153597 -2.32994 0
M  V30 38265 C 3454.75 0.69542 -1.55235 0
M  V30 38266 O 3455.94 0.635116 -1.83521 0
M  V30 38267 C 3453.07 0.734752 -3.39439 0
M  V30 38268 C 3452.02 -0.012104 -4.27998 0
M  V30 38269 C 3451.35 0.994975 -5.25361 0
M  V30 38270 C 3452.65 -1.18477 -5.08685 0
M  V30 38271 H 3454.34 -0.947006 -2.84028 0
M  V30 38272 H 3451.89 -0.45684 -1.36561 0
M  V30 38273 H 3453.84 1.16931 -4.04852 0
M  V30 38274 H 3452.56 1.56056 -2.86904 0
M  V30 38275 H 3451.22 -0.427318 -3.64101 0
M  V30 38276 H 3450.87 1.81504 -4.69111 0
M  V30 38277 H 3450.57 0.499866 -5.8547 0
M  V30 38278 H 3452.1 1.4287 -5.9365 0
M  V30 38279 H 3453.51 -0.8274 -5.67298 0
M  V30 38280 H 3451.91 -1.61123 -5.78065 0
M  V30 38281 H 3452.98 -1.99416 -4.41997 0
M  V30 38282 N 3454.32 1.49102 -0.510519 0
M  V30 38283 C 3455.27 2.30952 0.276408 0
M  V30 38284 C 3456.26 1.39992 0.953868 0
M  V30 38285 O 3457.47 1.56996 0.880471 0
M  V30 38286 H 3453.84 0.744204 0.108 0
M  V30 38287 H 3455.81 2.9523 -0.433776 0
M  V30 38288 C 3454.56 3.21576 1.32229 0
M  V30 38289 H 3453.89 3.915 0.8104 0
M  V30 38290 H 3455.33 3.81768 1.8447 0
M  V30 38291 C 3453.78 2.41837 2.34556 0
M  V30 38292 O 3454.31 2.12928 3.40624 0
M  V30 38293 N 3452.52 2.03686 2.07269 0
M  V30 38294 H 3452.07 2.27396 1.21032 0
M  V30 38295 H 3452.03 1.50643 2.7596 0
M  V30 38296 N 3455.8 0.244768 1.55688 0
M  V30 38297 C 3456.75 -0.669558 2.17947 0
M  V30 38298 C 3457.73 -1.14076 1.1347 0
M  V30 38299 O 3458.92 -1.09088 1.39387 0
M  V30 38300 C 3456.05 -1.86716 2.88084 0
M  V30 38301 C 3455.14 -1.41456 3.99814 0
M  V30 38302 N 3455.53 -0.676043 5.01262 0
M  V30 38303 C 3453.83 -1.70001 4.1233 0
M  V30 38304 C 3454.53 -0.442011 5.80018 0
M  V30 38305 N 3453.5 -1.00559 5.34218 0
M  V30 38306 H 3457.31 -0.0971436 2.93739 0
M  V30 38307 H 3454.82 0.0469931 1.62332 0
M  V30 38308 H 3456.82 -2.53316 3.31114 0
M  V30 38309 H 3455.48 -2.44382 2.13794 0
M  V30 38310 H 3456.49 -0.326368 5.16871 0
M  V30 38311 H 3453.17 -2.28821 3.4921 0
M  V30 38312 H 3454.56 0.147408 6.71738 0
M  V30 38313 N 3457.28 -1.57574 -0.0283712 0
M  V30 38314 C 3458.21 -2.09641 -1.02825 0
M  V30 38315 C 3459.19 -0.9991 -1.37666 0
M  V30 38316 O 3460.37 -1.27437 -1.46538 0
M  V30 38317 C 3457.5 -2.57637 -2.32896 0
M  V30 38318 C 3456.46 -3.71638 -2.12294 0
M  V30 38319 C 3455.78 -4.05843 -3.48131 0
M  V30 38320 C 3457.08 -5.0004 -1.50855 0
M  V30 38321 H 3458.78 -2.93432 -0.594825 0
M  V30 38322 H 3456.32 -1.41158 -0.284677 0
M  V30 38323 H 3458.27 -2.92683 -3.03174 0
M  V30 38324 H 3457 -1.7093 -2.78299 0
M  V30 38325 H 3455.66 -3.36943 -1.44448 0
M  V30 38326 H 3455.31 -3.16202 -3.91184 0
M  V30 38327 H 3455.01 -4.82632 -3.35172 0
M  V30 38328 H 3456.53 -4.43424 -4.19771 0
M  V30 38329 H 3457.94 -5.33038 -2.11052 0
M  V30 38330 H 3456.34 -5.81444 -1.48469 0
M  V30 38331 H 3457.41 -4.82573 -0.474456 0
M  V30 38332 N 3458.75 0.300654 -1.54706 0
M  V30 38333 C 3459.68 1.37555 -1.88682 0
M  V30 38334 C 3460.66 1.5288 -0.745767 0
M  V30 38335 O 3461.85 1.66382 -1.00153 0
M  V30 38336 C 3458.98 2.7397 -2.13443 0
M  V30 38337 C 3457.93 2.73409 -3.29289 0
M  V30 38338 C 3457.26 4.13116 -3.39469 0
M  V30 38339 C 3458.56 2.3512 -4.66386 0
M  V30 38340 H 3460.25 1.09368 -2.78709 0
M  V30 38341 H 3457.8 0.52468 -1.34101 0
M  V30 38342 H 3459.75 3.49253 -2.35797 0
M  V30 38343 H 3458.48 3.03682 -1.20187 0
M  V30 38344 H 3457.14 2.00582 -3.06859 0
M  V30 38345 H 3456.78 4.40006 -2.43729 0
M  V30 38346 H 3456.48 4.13642 -4.17341 0
M  V30 38347 H 3458.01 4.90179 -3.64084 0
M  V30 38348 H 3459.42 3.00119 -4.88468 0
M  V30 38349 H 3457.82 2.46858 -5.46975 0
M  V30 38350 H 3458.89 1.30248 -4.6708 0
M  V30 38351 N 3460.23 1.47168 0.563863 0
M  V30 38352 C 3461.16 1.62028 1.68134 0
M  V30 38353 C 3462.14 0.469927 1.6348 0
M  V30 38354 O 3463.33 0.698464 1.81205 0
M  V30 38355 C 3460.46 1.62806 3.06776 0
M  V30 38356 C 3459.41 2.77002 3.26273 0
M  V30 38357 C 3458.74 2.62849 4.65633 0
M  V30 38358 C 3460.04 4.18657 3.12288 0
M  V30 38359 H 3461.73 2.55575 1.55954 0
M  V30 38360 H 3459.28 1.22997 0.748848 0
M  V30 38361 H 3461.23 1.71794 3.84792 0
M  V30 38362 H 3459.96 0.658153 3.199 0
M  V30 38363 H 3458.61 2.67514 2.50663 0
M  V30 38364 H 3458.26 1.639 4.75548 0
M  V30 38365 H 3457.96 3.39456 4.79629 0
M  V30 38366 H 3459.49 2.73756 5.45793 0
M  V30 38367 H 3460.9 4.29156 3.80128 0
M  V30 38368 H 3459.3 4.95998 3.37796 0
M  V30 38369 H 3460.37 4.3749 2.09119 0
M  V30 38370 N 3461.71 -0.810054 1.35188 0
M  V30 38371 C 3462.96 -1.56876 1.29466 0
M  V30 38372 C 3463.31 -1.91955 -0.130804 0
M  V30 38373 O 3462.6 -1.58238 -1.08033 0
M  V30 38374 C 3462.8 -2.8689 2.1314 0
M  V30 38375 C 3462.63 -2.64515 3.63679 0
M  V30 38376 C 3461.4 -2.60587 4.32923 0
M  V30 38377 C 3463.6 -2.35133 4.57402 0
M  V30 38378 N 3461.58 -2.29892 5.6923 0
M  V30 38379 C 3462.95 -2.14246 5.81806 0
M  V30 38380 C 3465 -2.20968 4.46181 0
M  V30 38381 C 3463.71 -1.80628 6.96251 0
M  V30 38382 C 3465.73 -1.88746 5.60472 0
M  V30 38383 C 3465.09 -1.68692 6.83902 0
M  V30 38384 H 3461.19 -0.575918 0.529002 0
M  V30 38385 H 3463.78 -0.948499 1.70034 0
M  V30 38386 H 3461.95 -3.46818 1.74848 0
M  V30 38387 H 3463.68 -3.52414 1.98963 0
M  V30 38388 H 3460.44 -2.75114 3.85499 0
M  V30 38389 H 3460.86 -2.17348 6.41162 0
M  V30 38390 H 3465.5 -2.35171 3.51361 0
M  V30 38391 H 3463.22 -1.65162 7.91042 0
M  V30 38392 H 3466.81 -1.78499 5.53741 0
M  V30 38393 H 3465.69 -1.44123 7.70843 0
M  V30 38394 N 3463.19 -1.19129 -1.0318 0
M  V30 38395 C 3464.12 -0.950028 -2.133 0
M  V30 38396 C 3465.1 0.115547 -1.69707 0
M  V30 38397 O 3466.28 -0.0388736 -1.94161 0
M  V30 38398 C 3463.41 -0.484697 -3.43901 0
M  V30 38399 C 3462.37 -1.49177 -4.01161 0
M  V30 38400 C 3461.69 -0.883629 -5.27348 0
M  V30 38401 C 3462.99 -2.87114 -4.36306 0
M  V30 38402 H 3464.69 -1.87099 -2.3374 0
M  V30 38403 H 3462.23 -0.900997 -1.1233 0
M  V30 38404 H 3464.19 -0.303224 -4.20308 0
M  V30 38405 H 3462.91 0.471852 -3.23174 0
M  V30 38406 H 3461.57 -1.66034 -3.26846 0
M  V30 38407 H 3461.22 0.0803828 -5.02936 0
M  V30 38408 H 3460.92 -1.55609 -5.66621 0
M  V30 38409 H 3462.44 -0.712886 -6.06424 0
M  V30 38410 H 3463.86 -2.73857 -5.03662 0
M  V30 38411 H 3462.25 -3.51126 -4.86652 0
M  V30 38412 H 3463.32 -3.39991 -3.45737 0
M  V30 38413 N 3464.67 1.2224 -0.994741 0
M  V30 38414 C 3465.89 1.95591 -0.689843 0
M  V30 38415 C 3466.32 1.72963 0.73929 0
M  V30 38416 O 3465.67 1.00999 1.50562 0
M  V30 38417 C 3465.72 3.46349 -1.00373 0
M  V30 38418 O 3464.83 4.1227 -0.103398 0
M  V30 38419 H 3464.17 0.611823 -0.258008 0
M  V30 38420 H 3466.7 1.55284 -1.33222 0
M  V30 38421 H 3466.71 3.96874 -0.946329 0
M  V30 38422 H 3465.38 3.62144 -2.0451 0
M  V30 38423 H 3463.96 3.72271 -0.21644 0
M  V30 38424 N 3466.14 0.768172 1.37611 0
M  V30 38425 C 3467.56 0.396735 1.82436 0
M  V30 38426 C 3467.91 -1.07665 1.64021 0
M  V30 38427 O 3467.03 -1.83354 1.14935 0
M  V30 38428 C 3467.63 0.713323 3.31206 0
M  V30 38429 C 3466.19 0.394986 3.74322 0
M  V30 38430 C 3465.33 0.959008 2.60189 0
M  V30 38431 H 3468.28 0.963121 1.26134 0
M  V30 38432 H 3468.3 -0.0033054 3.805 0
M  V30 38433 H 3467.82 1.78573 3.44577 0
M  V30 38434 H 3465.92 -0.670248 3.66522 0
M  V30 38435 H 3466.03 0.900736 4.70557 0
M  V30 38436 H 3464.39 0.383468 2.51797 0
M  V30 38437 H 3465.18 2.03674 2.76354 0
M  V30 38438 N 3467.62 -1.48829 0.518419 0
M  V30 38439 C 3468.87 -2.01688 -0.0218081 0
M  V30 38440 C 3469.18 -1.40176 -1.36418 0
M  V30 38441 O 3470.39 -1.84465 -1.99211 0
M  V30 38442 C 3468.85 -3.59789 -0.0892906 0
M  V30 38443 C 3468.45 -4.30281 1.24749 0
M  V30 38444 C 3470.2 -4.20533 -0.578958 0
M  V30 38445 C 3468.11 -5.80284 1.14122 0
M  V30 38446 H 3467.04 -0.753906 -0.011922 0
M  V30 38447 H 3469.69 -1.71202 0.660463 0
M  V30 38448 H 3468.07 -3.87067 -0.83639 0
M  V30 38449 H 3469.24 -4.14688 2.00925 0
M  V30 38450 H 3467.56 -3.81358 1.67197 0
M  V30 38451 H 3470.15 -5.30406 -0.67625 0
M  V30 38452 H 3470.5 -3.85069 -1.582 0
M  V30 38453 H 3471.03 -3.97642 0.112116 0
M  V30 38454 H 3467.77 -6.20303 2.11906 0
M  V30 38455 H 3467.29 -5.98323 0.42064 0
M  V30 38456 H 3468.97 -6.41692 0.827104 0
M  V30 38457 N 3469.1 -0.253021 -1.55556 0
M  V30 38458 C 3470.52 0.101686 -1.59276 0
M  V30 38459 C 3470.72 1.56422 -1.27021 0
M  V30 38460 O 3469.77 2.30961 -1.02046 0
M  V30 38461 C 3471.09 -0.253022 -2.99634 0
M  V30 38462 C 3472.63 -0.197822 -3.12374 0
M  V30 38463 C 3473.11 -0.52665 -4.54962 0
M  V30 38464 N 3474.6 -0.477377 -4.60733 0
M  V30 38465 C 3475.33 -0.704893 -5.69051 0
M  V30 38466 N 3474.83 -0.99586 -6.85605 0
M  V30 38467 N 3476.62 -0.635185 -5.585 0
M  V30 38468 H 3468.77 -1.20673 -1.74791 0
M  V30 38469 H 3471.04 -0.485972 -0.813962 0
M  V30 38470 H 3470.74 -1.26932 -3.27996 0
M  V30 38471 H 3470.62 0.416918 -3.74889 0
M  V30 38472 H 3473 0.809159 -2.8379 0
M  V30 38473 H 3473.09 -0.901701 -2.3938 0
M  V30 38474 H 3472.73 -1.53121 -4.84269 0
M  V30 38475 H 3472.66 0.198776 -5.26225 0
M  V30 38476 H 3475.15 -0.261464 -3.76994 0
M  V30 38477 H 3475.46 -1.15672 -7.64094 0
M  V30 38478 H 3473.81 -1.0334 -6.87274 0
M  V30 38479 H 3477 -0.407871 -4.6632 0
M  V30 38480 H 3477.17 -0.81589 -6.42843 0
M  V30 38481 N 3470.58 1.57587 0.0200142 0
M  V30 38482 C 3471.53 2.08246 1.03616 0
M  V30 38483 C 3472.52 0.998143 1.3687 0
M  V30 38484 O 3473.73 1.18296 1.35669 0
M  V30 38485 H 3470.1 0.664679 0.351719 0
M  V30 38486 H 3472.07 2.92646 0.583174 0
M  V30 38487 C 3470.82 2.5847 2.32569 0
M  V30 38488 H 3470.14 3.41527 2.07844 0
M  V30 38489 H 3471.58 2.97616 3.01994 0
M  V30 38490 C 3470.04 1.48991 3.02164 0
M  V30 38491 O 3470.57 0.86132 3.92357 0
M  V30 38492 N 3468.78 1.22224 2.63647 0
M  V30 38493 H 3468.33 1.73525 1.90386 0
M  V30 38494 H 3468.28 0.491883 3.10528 0
M  V30 38495 N 3472.06 -0.292445 1.54863 0
M  V30 38496 C 3472.99 -1.38278 1.82789 0
M  V30 38497 C 3474 -1.4644 0.711278 0
M  V30 38498 O 3475.19 -1.48605 0.988878 0
M  V30 38499 C 3472.29 -2.76579 1.9585 0
M  V30 38500 C 3471.46 -2.91246 3.26335 0
M  V30 38501 C 3470.52 -4.10099 3.29705 0
M  V30 38502 O 3469.55 -4.01778 4.03191 0
M  V30 38503 N 3470.75 -5.21146 2.55709 0
M  V30 38504 H 3473.52 -1.14675 2.76893 0
M  V30 38505 H 3471.08 -0.482534 1.54542 0
M  V30 38506 H 3473.07 -3.54349 1.95497 0
M  V30 38507 H 3471.64 -2.93092 1.08702 0
M  V30 38508 H 3470.86 -2.00519 3.3939 0
M  V30 38509 H 3472.15 -2.97963 4.12426 0
M  V30 38510 H 3471.54 -5.30789 1.95652 0
M  V30 38511 H 3470.1 -5.97219 2.611 0
M  V30 38512 N 3473.53 -1.47465 -0.55605 0
M  V30 38513 C 3474.46 -1.62918 -1.67273 0
M  V30 38514 C 3475.45 -0.47859 -1.63228 0
M  V30 38515 O 3476.63 -0.708064 -1.80832 0
M  V30 38516 C 3473.76 -1.64431 -3.05908 0
M  V30 38517 C 3472.71 -2.78728 -3.24799 0
M  V30 38518 C 3472.04 -2.65315 -4.64233 0
M  V30 38519 C 3473.34 -4.20307 -3.10063 0
M  V30 38520 H 3475.03 -2.56399 -1.54596 0
M  V30 38521 H 3472.58 -1.23392 -0.742315 0
M  V30 38522 H 3474.53 -1.73832 -3.83875 0
M  V30 38523 H 3473.26 -0.675109 -3.19546 0
M  V30 38524 H 3471.92 -2.68839 -2.49241 0
M  V30 38525 H 3471.56 -1.6642 -4.74672 0
M  V30 38526 H 3471.26 -3.41994 -4.77822 0
M  V30 38527 H 3472.79 -2.76646 -5.44334 0
M  V30 38528 H 3474.2 -4.31166 -3.77847 0
M  V30 38529 H 3472.6 -4.97782 -3.35161 0
M  V30 38530 H 3473.67 -4.38593 -2.06796 0
M  V30 38531 N 3475.01 0.802873 -1.35616 0
M  V30 38532 C 3475.92 1.94642 -1.30964 0
M  V30 38533 C 3476.94 1.7268 -0.213939 0
M  V30 38534 O 3478.12 1.96446 -0.443966 0
M  V30 38535 C 3475.18 3.29289 -1.08489 0
M  V30 38536 C 3474.24 3.64122 -2.27407 0
M  V30 38537 C 3473.47 4.92343 -2.05995 0
M  V30 38538 O 3473.7 5.61055 -1.02829 0
M  V30 38539 O 3472.63 5.25521 -2.93448 0
M  V30 38540 H 3476.46 2.01515 -2.27212 0
M  V30 38541 H 3474.04 0.941194 -1.16025 0
M  V30 38542 H 3475.92 4.09889 -0.97819 0
M  V30 38543 H 3474.6 3.23338 -0.152942 0
M  V30 38544 H 3473.51 2.83882 -2.43643 0
M  V30 38545 H 3474.84 3.7478 -3.19062 0
M  V30 38546 N 3476.49 1.19674 1.02547 0
M  V30 38547 C 3477.74 0.995762 1.75407 0
M  V30 38548 C 3478.05 -0.473829 1.89774 0
M  V30 38549 O 3479.26 -0.793717 2.59639 0
M  V30 38550 C 3477.72 1.73278 3.1544 0
M  V30 38551 C 3477.32 3.24271 3.09115 0
M  V30 38552 C 3479.07 1.61516 3.92572 0
M  V30 38553 C 3476.97 3.90548 4.44102 0
M  V30 38554 H 3475.9 0.368955 0.657562 0
M  V30 38555 H 3478.56 1.43205 1.14737 0
M  V30 38556 H 3476.94 1.22432 3.76598 0
M  V30 38557 H 3478.11 3.82262 2.57318 0
M  V30 38558 H 3476.43 3.36346 2.45479 0
M  V30 38559 H 3479.02 2.08381 4.92424 0
M  V30 38560 H 3479.37 0.569876 4.12381 0
M  V30 38561 H 3479.9 2.09727 3.38023 0
M  V30 38562 H 3476.64 4.95189 4.29497 0
M  V30 38563 H 3476.16 3.37346 4.95942 0
M  V30 38564 H 3477.84 3.94291 5.12975 0
M  V30 38565 N 3477.97 -1.21711 1.00121 0
M  V30 38566 C 3479.2 -1.944 0.69945 0
M  V30 38567 C 3479.61 -1.74071 -0.741346 0
M  V30 38568 O 3478.95 -1.04206 -1.51284 0
M  V30 38569 C 3479.01 -3.47103 0.935936 0
M  V30 38570 C 3478.68 -3.91177 2.36283 0
M  V30 38571 C 3479.67 -3.98184 3.34283 0
M  V30 38572 C 3477.36 -4.23596 2.69948 0
M  V30 38573 C 3479.35 -4.36997 4.64018 0
M  V30 38574 C 3477.04 -4.62087 3.99899 0
M  V30 38575 C 3478.04 -4.68757 4.96745 0
M  V30 38576 O 3477.73 -5.06373 6.24373 0
M  V30 38577 H 3477.46 -0.625141 0.257244 0
M  V30 38578 H 3480.01 -1.55583 1.34101 0
M  V30 38579 H 3478.24 -3.85972 0.237201 0
M  V30 38580 H 3479.93 -4.0101 0.628146 0
M  V30 38581 H 3480.7 -3.73319 3.09609 0
M  V30 38582 H 3476.58 -4.17604 1.95264 0
M  V30 38583 H 3480.12 -4.42118 5.39608 0
M  V30 38584 H 3476.02 -4.86405 4.24359 0
M  V30 38585 H 3476.78 -5.24418 6.28433 0
M  V30 38586 N 3479.45 -0.775459 -1.37202 0
M  V30 38587 C 3480.4 -0.152092 -2.32102 0
M  V30 38588 C 3481.39 0.680779 -1.55119 0
M  V30 38589 O 3482.6 0.577425 -1.70487 0
M  V30 38590 H 3478.97 -0.0303985 -0.751385 0
M  V30 38591 H 3480.94 -0.968171 -2.82257 0
M  V30 38592 C 3479.69 0.709728 -3.40379 0
M  V30 38593 H 3479.01 0.0782176 -3.99723 0
M  V30 38594 H 3480.45 1.11281 -4.09136 0
M  V30 38595 C 3478.91 1.86195 -2.80772 0
M  V30 38596 O 3479.44 2.95766 -2.71818 0
M  V30 38597 N 3477.65 1.66372 -2.38262 0
M  V30 38598 H 3477.2 0.772487 -2.45745 0
M  V30 38599 H 3477.15 2.4363 -1.98725 0
M  V30 38600 N 3480.93 1.48552 -0.526305 0
M  V30 38601 C 3481.86 2.27538 0.275539 0
M  V30 38602 C 3482.87 1.3514 0.907796 0
M  V30 38603 O 3484.06 1.60221 0.786859 0
M  V30 38604 C 3481.16 3.08399 1.4051 0
M  V30 38605 C 3480.33 4.28549 0.875448 0
M  V30 38606 C 3479.39 4.91252 1.88568 0
M  V30 38607 O 3478.42 5.50577 1.44409 0
M  V30 38608 N 3479.62 4.83164 3.21765 0
M  V30 38609 H 3482.38 2.96994 -0.401855 0
M  V30 38610 H 3479.95 1.57838 -0.360406 0
M  V30 38611 H 3481.94 3.47217 2.079 0
M  V30 38612 H 3480.51 2.41388 1.98622 0
M  V30 38613 H 3479.73 3.94192 0.0256587 0
M  V30 38614 H 3481.02 5.06333 0.500404 0
M  V30 38615 H 3480.41 4.3611 3.60311 0
M  V30 38616 H 3478.97 5.26092 3.84799 0
M  V30 38617 N 3482.4 0.261267 1.55419 0
M  V30 38618 C 3483.81 -0.239162 1.85162 0
M  V30 38619 C 3484.17 -1.56507 1.18322 0
M  V30 38620 O 3483.29 -2.11309 0.466637 0
M  V30 38621 C 3483.89 -0.440721 3.35921 0
M  V30 38622 C 3482.44 -0.885397 3.65838 0
M  V30 38623 C 3481.59 0.0292469 2.77285 0
M  V30 38624 H 3484.54 0.483444 1.51157 0
M  V30 38625 H 3484.56 -1.2813 3.58278 0
M  V30 38626 H 3484.08 0.524449 3.8454 0
M  V30 38627 H 3482.18 -1.86253 3.22708 0
M  V30 38628 H 3482.29 -0.73231 4.7347 0
M  V30 38629 H 3480.65 -0.484657 2.50046 0
M  V30 38630 H 3481.44 0.99005 3.28714 0
M  V30 38631 N 3483.88 -1.57596 -0.0116567 0
M  V30 38632 C 3484.83 -2.08793 -1.02511 0
M  V30 38633 C 3485.82 -1.00539 -1.36339 0
M  V30 38634 O 3487.03 -1.19014 -1.3504 0
M  V30 38635 H 3483.4 -0.666535 -0.348189 0
M  V30 38636 H 3485.38 -2.92951 -0.567646 0
M  V30 38637 C 3484.12 -2.597 -2.31195 0
M  V30 38638 H 3483.45 -3.42625 -2.0603 0
M  V30 38639 H 3484.89 -2.99214 -3.00412 0
M  V30 38640 C 3483.35 -1.50592 -3.0137 0
M  V30 38641 O 3483.88 -0.882115 -3.91895 0
M  V30 38642 N 3482.08 -1.2362 -2.62995 0
M  V30 38643 H 3481.63 -1.74532 -1.89463 0
M  V30 38644 H 3481.59 -0.508344 -3.10263 0
M  V30 38645 N 3485.36 0.284228 -1.55016 0
M  V30 38646 C 3486.29 1.37307 -1.8352 0
M  V30 38647 C 3487.3 1.46061 -0.719034 0
M  V30 38648 O 3488.49 1.48079 -0.996745 0
M  V30 38649 C 3485.59 2.75536 -1.97314 0
M  V30 38650 C 3484.77 2.89512 -3.27875 0
M  V30 38651 C 3483.83 4.08345 -3.31875 0
M  V30 38652 O 3482.85 3.99634 -4.05316 0
M  V30 38653 N 3484.05 5.19783 -2.58469 0
M  V30 38654 H 3486.82 1.13205 -2.77497 0
M  V30 38655 H 3484.38 0.474332 -1.54796 0
M  V30 38656 H 3486.37 3.53307 -1.97373 0
M  V30 38657 H 3484.94 2.92511 -1.10254 0
M  V30 38658 H 3484.16 1.98716 -3.40449 0
M  V30 38659 H 3485.45 2.95772 -4.14001 0
M  V30 38660 H 3484.85 5.29744 -1.98464 0
M  V30 38661 H 3483.4 5.95826 -2.64263 0
M  V30 38662 N 3486.84 1.47758 0.548222 0
M  V30 38663 C 3487.75 1.63568 1.68175 0
M  V30 38664 C 3488.76 0.51838 1.66099 0
M  V30 38665 O 3489.94 0.787093 1.85383 0
M  V30 38666 C 3487 1.65459 3.0467 0
M  V30 38667 C 3486.07 2.88682 3.17744 0
M  V30 38668 C 3485.3 2.90474 4.47728 0
M  V30 38669 O 3485.52 2.01211 5.33732 0
M  V30 38670 O 3484.46 3.82441 4.64782 0
M  V30 38671 H 3488.28 2.595 1.57777 0
M  V30 38672 H 3485.87 1.30947 0.719254 0
M  V30 38673 H 3487.75 1.6933 3.85882 0
M  V30 38674 H 3486.42 0.726967 3.15431 0
M  V30 38675 H 3485.33 2.90352 2.35895 0
M  V30 38676 H 3486.66 3.80769 3.11891 0
M  V30 38677 N 3488.32 -0.79567 1.3604 0
M  V30 38678 C 3489.56 -1.5502 1.29665 0
M  V30 38679 C 3489.88 -1.94595 -0.125554 0
M  V30 38680 O 3489.15 -1.64458 -1.06444 0
M  V30 38681 H 3487.73 -0.574897 0.476972 0
M  V30 38682 H 3490.4 -0.948441 1.70266 0
M  V30 38683 H 3489.49 -2.46064 1.91987 0
M  V30 38684 N 3489.79 -1.20217 -1.0191 0
M  V30 38685 C 3491.21 -1.01162 -1.56918 0
M  V30 38686 C 3491.56 0.432712 -1.91369 0
M  V30 38687 O 3490.68 1.31371 -1.71961 0
M  V30 38688 C 3491.28 -1.83006 -2.85122 0
M  V30 38689 C 3489.84 -1.68324 -3.36666 0
M  V30 38690 C 3488.98 -1.81095 -2.1 0
M  V30 38691 H 3491.93 -1.34445 -0.843223 0
M  V30 38692 H 3491.95 -1.33194 -3.56426 0
M  V30 38693 H 3491.47 -2.8812 -2.60016 0
M  V30 38694 H 3489.57 -0.658357 -3.66738 0
M  V30 38695 H 3489.68 -2.49449 -4.09038 0
M  V30 38696 H 3488.04 -1.24255 -2.22335 0
M  V30 38697 H 3488.83 -2.87689 -1.87324 0
M  V30 38698 N 3491.27 1.21178 -1.00765 0
M  V30 38699 C 3492.52 1.90314 -0.691859 0
M  V30 38700 C 3492.85 1.78278 0.777646 0
M  V30 38701 O 3492.1 1.15529 1.5796 0
M  V30 38702 C 3492.4 3.41259 -1.06193 0
M  V30 38703 C 3492.07 3.73493 -2.52614 0
M  V30 38704 C 3490.73 3.82001 -2.92624 0
M  V30 38705 C 3493.08 3.88496 -3.47449 0
M  V30 38706 C 3490.41 4.02962 -4.26426 0
M  V30 38707 C 3492.76 4.10964 -4.80927 0
M  V30 38708 C 3491.43 4.177 -5.20657 0
M  V30 38709 H 3490.7 0.69641 -0.253169 0
M  V30 38710 H 3493.34 1.43632 -1.26658 0
M  V30 38711 H 3491.65 3.89696 -0.405497 0
M  V30 38712 H 3493.34 3.93032 -0.795412 0
M  V30 38713 H 3489.93 3.67464 -2.20609 0
M  V30 38714 H 3494.12 3.81286 -3.17702 0
M  V30 38715 H 3489.37 4.06408 -4.56774 0
M  V30 38716 H 3493.55 4.21515 -5.54344 0
M  V30 38717 H 3491.18 4.33694 -6.2435 0
M  V30 38718 N 3492.75 0.782725 1.36789 0
M  V30 38719 C 3494.03 0.276312 1.93639 0
M  V30 38720 C 3494.41 -1.23045 1.71532 0
M  V30 38721 O 3493.76 -2.01878 1.07041 0
M  V30 38722 C 3493.97 0.661646 3.42671 0
M  V30 38723 C 3495.31 0.637612 4.19785 0
M  V30 38724 O 3496.34 0.601707 3.51081 0
M  V30 38725 O 3495.2 0.674503 5.42322 0
M  V30 38726 H 3492.29 0.0666977 0.824306 0
M  V30 38727 H 3494.84 0.864817 1.4601 0
M  V30 38728 H 3493.61 1.7011 3.5239 0
M  V30 38729 H 3493.23 0.0466686 3.97573 0
M  V30 38730 N 3494.23 -1.48271 0.534176 0
M  V30 38731 C 3495.47 -2.028 0.00161056 0
M  V30 38732 C 3495.81 -1.41003 -1.33536 0
M  V30 38733 O 3495.08 -0.557278 -1.86346 0
M  V30 38734 C 3495.37 -3.59913 -0.115953 0
M  V30 38735 C 3495.22 -4.32184 1.24648 0
M  V30 38736 C 3496.54 -4.31996 -0.840699 0
M  V30 38737 H 3493.66 -0.736997 0.0020593 0
M  V30 38738 H 3496.3 -1.7695 0.692016 0
M  V30 38739 H 3494.45 -3.82069 -0.703959 0
M  V30 38740 H 3496.12 -4.21434 1.87592 0
M  V30 38741 H 3494.36 -3.93438 1.82727 0
M  V30 38742 H 3495.03 -5.40577 1.11717 0
M  V30 38743 H 3497.51 -4.14695 -0.341673 0
M  V30 38744 H 3496.39 -5.41606 -0.891865 0
M  V30 38745 H 3496.65 -3.99574 -1.8919 0
M  V30 38746 N 3495.71 -0.269505 -1.55279 0
M  V30 38747 C 3496.65 0.620396 -2.22305 0
M  V30 38748 C 3497.62 1.15407 -1.19459 0
M  V30 38749 O 3498.81 1.2044 -1.47982 0
M  V30 38750 C 3495.95 1.80129 -2.9436 0
M  V30 38751 C 3495.06 1.302 -4.11912 0
M  V30 38752 C 3494.2 2.44425 -4.71625 0
M  V30 38753 C 3493.24 1.91471 -5.81382 0
M  V30 38754 N 3492.37 2.99147 -6.35181 0
M  V30 38755 H 3497.21 0.0421641 -2.9797 0
M  V30 38756 H 3494.75 0.00904587 -1.47097 0
M  V30 38757 H 3496.71 2.49534 -3.34348 0
M  V30 38758 H 3495.34 2.35164 -2.21128 0
M  V30 38759 H 3494.39 0.501235 -3.77083 0
M  V30 38760 H 3495.7 0.874097 -4.91081 0
M  V30 38761 H 3494.86 3.21833 -5.14304 0
M  V30 38762 H 3493.59 2.90528 -3.9172 0
M  V30 38763 H 3492.6 1.1254 -5.38159 0
M  V30 38764 H 3493.82 1.4631 -6.63152 0
M  V30 38765 H 3491.77 3.44643 -5.58173 0
M  V30 38766 H 3491.69 2.60757 -7.09607 0
M  V30 38767 H 3492.96 3.76548 -6.82519 0
M  V30 38768 N 3497.18 1.576 0.00329885 0
M  V30 38769 C 3498.09 2.11642 1.01217 0
M  V30 38770 C 3499.11 1.06091 1.37916 0
M  V30 38771 O 3500.29 1.37974 1.46715 0
M  V30 38772 C 3497.35 2.6063 2.28633 0
M  V30 38773 C 3496.41 3.80768 1.98277 0
M  V30 38774 C 3495.65 4.2741 3.19619 0
M  V30 38775 O 3495.87 3.73405 4.3119 0
M  V30 38776 O 3494.8 5.19599 3.03809 0
M  V30 38777 H 3498.63 2.98056 0.582787 0
M  V30 38778 H 3496.21 1.47743 0.221921 0
M  V30 38779 H 3498.1 2.92352 3.03493 0
M  V30 38780 H 3496.77 1.77315 2.70816 0
M  V30 38781 H 3495.68 3.54024 1.20904 0
M  V30 38782 H 3497.01 4.65146 1.60934 0
M  V30 38783 N 3498.66 -0.276003 1.55164 0
M  V30 38784 C 3499.89 -1.02632 1.79651 0
M  V30 38785 C 3500.31 -1.80043 0.568321 0
M  V30 38786 O 3499.66 -1.76541 -0.462538 0
M  V30 38787 C 3499.71 -1.98726 3.01977 0
M  V30 38788 O 3499.43 -1.24451 4.20052 0
M  V30 38789 C 3500.94 -2.85594 3.39044 0
M  V30 38790 H 3498.16 -0.30331 0.598535 0
M  V30 38791 H 3500.7 -0.307697 2.02172 0
M  V30 38792 H 3498.85 -2.66055 2.81591 0
M  V30 38793 H 3499.27 -1.89196 4.89188 0
M  V30 38794 H 3500.74 -3.48824 4.27815 0
M  V30 38795 H 3501.22 -3.55206 2.58312 0
M  V30 38796 H 3501.83 -2.23761 3.61678 0
M  V30 38797 N 3500.14 -1.48046 -0.540378 0
M  V30 38798 C 3501.05 -1.64457 -1.67305 0
M  V30 38799 C 3502.07 -0.527181 -1.65822 0
M  V30 38800 O 3503.24 -0.796914 -1.84963 0
M  V30 38801 C 3500.31 -1.67073 -3.03789 0
M  V30 38802 C 3499.37 -2.90363 -3.16208 0
M  V30 38803 C 3498.6 -2.92844 -4.46181 0
M  V30 38804 O 3498.82 -2.04038 -5.32658 0
M  V30 38805 O 3497.76 -3.849 -4.62748 0
M  V30 38806 H 3501.58 -2.60333 -1.56398 0
M  V30 38807 H 3499.17 -1.31327 -0.7123 0
M  V30 38808 H 3501.05 -1.71374 -3.84979 0
M  V30 38809 H 3499.73 -0.743685 -3.15041 0
M  V30 38810 H 3498.63 -2.91599 -2.34352 0
M  V30 38811 H 3499.97 -3.82418 -3.09867 0
M  V30 38812 N 3501.62 0.788444 -1.3646 0
M  V30 38813 C 3502.87 1.54155 -1.30073 0
M  V30 38814 C 3503.18 1.95247 0.117539 0
M  V30 38815 O 3504.39 2.69795 0.30379 0
M  V30 38816 C 3502.84 2.78287 -2.2822 0
M  V30 38817 C 3502.45 2.44361 -3.75489 0
M  V30 38818 C 3504.19 3.56267 -2.30812 0
M  V30 38819 C 3502.1 3.64893 -4.6541 0
M  V30 38820 H 3501.03 0.578691 -0.483355 0
M  V30 38821 H 3503.68 0.865094 -1.61828 0
M  V30 38822 H 3502.06 3.47737 -1.8946 0
M  V30 38823 H 3503.24 1.82802 -4.2299 0
M  V30 38824 H 3501.55 1.7959 -3.75681 0
M  V30 38825 H 3504.15 4.45824 -2.95204 0
M  V30 38826 H 3504.49 3.94921 -1.31694 0
M  V30 38827 H 3505.03 2.93797 -2.68194 0
M  V30 38828 H 3501.77 3.31334 -5.65595 0
M  V30 38829 H 3501.29 4.25615 -4.22625 0
M  V30 38830 H 3502.96 4.3191 -4.81729 0
M  V30 38831 N 3503.1 1.20755 1.01271 0
M  V30 38832 C 3504.06 0.961565 2.08054 0
M  V30 38833 C 3505.06 -0.0644178 1.60671 0
M  V30 38834 O 3506.25 0.172052 1.73348 0
M  V30 38835 C 3503.38 0.448441 3.37938 0
M  V30 38836 H 3504.57 1.90881 2.3131 0
M  V30 38837 H 3502.13 1.02346 1.18131 0
M  V30 38838 H 3502.86 -0.504088 3.20358 0
M  V30 38839 H 3502.65 1.1884 3.73657 0
M  V30 38840 H 3504.14 0.295949 4.1655 0
M  V30 38841 N 3504.58 -1.20642 1.01406 0
M  V30 38842 C 3505.82 -1.90226 0.702982 0
M  V30 38843 C 3506.15 -1.78489 -0.765212 0
M  V30 38844 O 3505.43 -1.16744 -1.55567 0
M  V30 38845 C 3505.71 -3.41708 1.13612 0
M  V30 38846 C 3505.57 -3.62392 2.66443 0
M  V30 38847 C 3506.88 -4.34409 0.705438 0
M  V30 38848 H 3504 -0.690793 0.256855 0
M  V30 38849 H 3506.65 -1.42091 1.26136 0
M  V30 38850 H 3504.8 -3.82835 0.661044 0
M  V30 38851 H 3506.47 -3.30534 3.21784 0
M  V30 38852 H 3504.71 -3.05948 3.07535 0
M  V30 38853 H 3505.38 -4.68567 2.91803 0
M  V30 38854 H 3507.86 -4.00916 1.11382 0
M  V30 38855 H 3506.73 -5.39024 1.03656 0
M  V30 38856 H 3506.99 -4.4035 -0.393017 0
M  V30 38857 N 3506.05 -0.789968 -1.36372 0
M  V30 38858 C 3506.99 -0.146682 -2.2873 0
M  V30 38859 C 3508 0.644392 -1.49504 0
M  V30 38860 O 3509.19 0.479485 -1.7194 0
M  V30 38861 C 3506.29 0.815311 -3.28947 0
M  V30 38862 C 3505.46 0.0741747 -4.37337 0
M  V30 38863 C 3504.52 0.952193 -5.17513 0
M  V30 38864 O 3503.55 0.409237 -5.67727 0
M  V30 38865 N 3504.75 2.27638 -5.34005 0
M  V30 38866 H 3507.51 -0.940028 -2.84576 0
M  V30 38867 H 3505.07 -0.643924 -1.48544 0
M  V30 38868 H 3507.07 1.40654 -3.79471 0
M  V30 38869 H 3505.64 1.50953 -2.73737 0
M  V30 38870 H 3504.86 -0.698136 -3.87969 0
M  V30 38871 H 3506.14 -0.437237 -5.06918 0
M  V30 38872 H 3505.54 2.74164 -4.94824 0
M  V30 38873 H 3504.1 2.81724 -5.87771 0
M  V30 38874 N 3507.53 1.47986 -0.542031 0
M  V30 38875 C 3508.49 2.28295 0.203496 0
M  V30 38876 C 3509.49 1.36076 0.856738 0
M  V30 38877 O 3510.68 1.58853 0.714933 0
M  V30 38878 C 3507.82 3.15314 1.29576 0
M  V30 38879 H 3509.01 2.95673 -0.501753 0
M  V30 38880 H 3506.56 1.53425 -0.298405 0
M  V30 38881 H 3507.3 2.52594 2.03388 0
M  V30 38882 H 3507.08 3.83164 0.832331 0
M  V30 38883 H 3508.57 3.75863 1.81981 0
M  V30 38884 N 3509.01 0.277736 1.55133 0
M  V30 38885 C 3509.96 -0.608598 2.22631 0
M  V30 38886 C 3510.93 -1.14772 1.20069 0
M  V30 38887 O 3512.11 -1.19654 1.48619 0
M  V30 38888 C 3509.25 -1.78565 2.95311 0
M  V30 38889 C 3508.36 -1.28014 4.12597 0
M  V30 38890 C 3507.5 -2.4192 4.72914 0
M  V30 38891 C 3506.54 -1.88385 5.8239 0
M  V30 38892 N 3505.68 -2.95774 6.36759 0
M  V30 38893 H 3510.52 -0.0263615 2.97988 0
M  V30 38894 H 3508.05 -0.00124482 1.471 0
M  V30 38895 H 3510.01 -2.47758 3.35666 0
M  V30 38896 H 3508.64 -2.33988 2.22372 0
M  V30 38897 H 3507.69 -0.48123 3.77344 0
M  V30 38898 H 3509 -0.848041 4.91538 0
M  V30 38899 H 3508.16 -3.19101 5.16003 0
M  V30 38900 H 3506.9 -2.88446 3.93256 0
M  V30 38901 H 3505.9 -1.09684 5.38748 0
M  V30 38902 H 3507.13 -1.42791 6.63918 0
M  V30 38903 H 3505.07 -3.41678 5.59993 0
M  V30 38904 H 3504.99 -2.5699 7.1098 0
M  V30 38905 H 3506.26 -3.72923 6.84506 0
M  V30 38906 N 3510.49 -1.57599 0.00505908 0
M  V30 38907 C 3511.42 -2.056 -1.01299 0
M  V30 38908 C 3512.43 -0.974852 -1.30386 0
M  V30 38909 O 3513.62 -1.25155 -1.27273 0
M  V30 38910 C 3510.72 -2.44526 -2.34649 0
M  V30 38911 C 3509.89 -3.75434 -2.24429 0
M  V30 38912 C 3508.95 -4.01172 -3.4051 0
M  V30 38913 O 3507.98 -4.71768 -3.18471 0
M  V30 38914 N 3509.18 -3.49462 -4.63526 0
M  V30 38915 H 3511.95 -2.93559 -0.603604 0
M  V30 38916 H 3509.51 -1.60871 -0.18222 0
M  V30 38917 H 3511.5 -2.58855 -3.11089 0
M  V30 38918 H 3510.07 -1.62059 -2.67312 0
M  V30 38919 H 3509.29 -3.71133 -1.32868 0
M  V30 38920 H 3510.58 -4.61246 -2.14778 0
M  V30 38921 H 3509.98 -2.92304 -4.84329 0
M  V30 38922 H 3508.53 -3.69113 -5.37214 0
M  V30 38923 N 3511.97 0.267771 -1.55309 0
M  V30 38924 C 3513.38 0.838429 -1.66815 0
M  V30 38925 C 3513.73 1.86844 -0.598642 0
M  V30 38926 O 3512.85 2.14845 0.258922 0
M  V30 38927 C 3513.45 1.52753 -3.0241 0
M  V30 38928 C 3512.01 2.04615 -3.15927 0
M  V30 38929 C 3511.15 0.889998 -2.6263 0
M  V30 38930 H 3514.1 0.0440076 -1.58639 0
M  V30 38931 H 3514.13 2.39473 -2.95691 0
M  V30 38932 H 3513.64 0.777628 -3.8023 0
M  V30 38933 H 3511.74 2.8255 -2.42891 0
M  V30 38934 H 3511.85 2.25787 -4.2256 0
M  V30 38935 H 3510.22 1.28481 -2.1992 0
M  V30 38936 H 3511 0.153519 -3.42957 0
M  V30 38937 N 3513.44 1.48331 0.532519 0
M  V30 38938 C 3514.72 1.46707 1.29369 0
M  V30 38939 C 3515.1 0.177366 2.10354 0
M  V30 38940 O 3514.45 -0.840931 2.12463 0
M  V30 38941 C 3514.66 2.72755 2.17729 0
M  V30 38942 C 3516.01 3.20981 2.77951 0
M  V30 38943 O 3517.03 2.73654 2.28017 0
M  V30 38944 O 3515.89 4.03323 3.68772 0
M  V30 38945 H 3512.98 0.585783 0.58377 0
M  V30 38946 H 3515.53 1.60561 0.549383 0
M  V30 38947 H 3514.3 3.58136 1.57653 0
M  V30 38948 H 3513.92 2.61609 2.99411 0
M  V30 38949 N 3514.92 -0.781196 1.36876 0
M  V30 38950 C 3516.17 -1.54169 1.31757 0
M  V30 38951 C 3516.5 -1.93939 -0.100598 0
M  V30 38952 O 3515.78 -1.63347 -1.05584 0
M  V30 38953 C 3516.06 -2.81318 2.24794 0
M  V30 38954 C 3515.91 -2.47862 3.75346 0
M  V30 38955 C 3517.23 -3.83194 2.16449 0
M  V30 38956 H 3514.35 -0.559309 0.47994 0
M  V30 38957 H 3516.99 -0.896905 1.67498 0
M  V30 38958 H 3515.14 -3.36339 1.94444 0
M  V30 38959 H 3516.81 -1.98829 4.16251 0
M  V30 38960 H 3515.06 -1.80689 3.94378 0
M  V30 38961 H 3515.73 -3.38711 4.35865 0
M  V30 38962 H 3518.2 -3.37642 2.43181 0
M  V30 38963 H 3517.08 -4.69898 2.83703 0
M  V30 38964 H 3517.34 -4.26763 1.15438 0
M  V30 38965 N 3516.4 -1.21291 -1.0063 0
M  V30 38966 C 3517.31 -0.986994 -2.12828 0
M  V30 38967 C 3518.33 0.0604846 -1.73895 0
M  V30 38968 O 3519.5 -0.129274 -2.00985 0
M  V30 38969 C 3516.57 -0.553149 -3.42259 0
M  V30 38970 C 3515.63 -1.67269 -3.95373 0
M  V30 38971 C 3514.86 -1.25945 -5.18627 0
M  V30 38972 O 3515.08 -0.132502 -5.70246 0
M  V30 38973 O 3514.02 -2.07086 -5.65154 0
M  V30 38974 H 3517.84 -1.92667 -2.34762 0
M  V30 38975 H 3515.43 -0.997674 -1.11206 0
M  V30 38976 H 3517.31 -0.320929 -4.20176 0
M  V30 38977 H 3515.99 0.357824 -3.21716 0
M  V30 38978 H 3514.89 -1.9593 -3.18688 0
M  V30 38979 H 3516.23 -2.56104 -4.20323 0
M  V30 38980 N 3517.88 1.20103 -1.02045 0
M  V30 38981 C 3518.79 2.26698 -0.603764 0
M  V30 38982 C 3519.8 1.70224 0.360528 0
M  V30 38983 O 3520.98 2.00189 0.220517 0
M  V30 38984 C 3518.04 3.46667 0.0475379 0
M  V30 38985 C 3517.11 4.18355 -0.963185 0
M  V30 38986 C 3516.34 5.32598 -0.342869 0
M  V30 38987 O 3516.56 5.63934 0.85641 0
M  V30 38988 O 3515.5 5.92466 -1.06152 0
M  V30 38989 H 3519.32 2.64564 -1.4913 0
M  V30 38990 H 3516.91 1.26795 -0.790156 0
M  V30 38991 H 3518.79 4.1939 0.411103 0
M  V30 38992 H 3517.46 3.10669 0.909212 0
M  V30 38993 H 3516.37 3.47788 -1.37819 0
M  V30 38994 H 3517.7 4.58304 -1.79495 0
M  V30 38995 N 3519.36 0.797189 1.35951 0
M  V30 38996 C 3520.61 0.36972 1.98283 0
M  V30 38997 C 3520.92 -1.06646 1.6397 0
M  V30 38998 O 3522.12 -1.59658 2.19594 0
M  V30 38999 C 3520.58 0.610109 3.54691 0
M  V30 39000 C 3520.19 2.05821 3.97922 0
M  V30 39001 C 3521.93 0.247531 4.23778 0
M  V30 39002 C 3519.84 2.24485 5.47139 0
M  V30 39003 H 3518.77 0.134502 0.741906 0
M  V30 39004 H 3521.42 0.979921 1.55144 0
M  V30 39005 H 3519.8 -0.0699127 3.95938 0
M  V30 39006 H 3520.98 2.77527 3.67852 0
M  V30 39007 H 3519.29 2.37977 3.41696 0
M  V30 39008 H 3521.89 0.365153 5.33452 0
M  V30 39009 H 3522.23 -0.805244 4.08438 0
M  V30 39010 H 3522.76 0.881096 3.8792 0
M  V30 39011 H 3519.5 3.28173 5.67435 0
M  V30 39012 H 3519.02 1.57293 5.78808 0
M  V30 39013 H 3520.7 2.05577 6.13471 0
M  V30 39014 N 3520.83 -1.47696 0.549872 0
M  V30 39015 C 3521.76 -2.32723 -0.190323 0
M  V30 39016 C 3522.75 -1.43336 -0.915907 0
M  V30 39017 O 3523.93 -1.72201 -0.897807 0
M  V30 39018 C 3521.06 -3.24964 -1.2254 0
M  V30 39019 C 3520.01 -4.23533 -0.616731 0
M  V30 39020 C 3519.34 -5.05047 -1.75591 0
M  V30 39021 C 3520.64 -5.20571 0.424686 0
M  V30 39022 H 3522.33 -2.94858 0.519513 0
M  V30 39023 H 3519.88 -1.41791 0.251284 0
M  V30 39024 H 3521.83 -3.83284 -1.75133 0
M  V30 39025 H 3520.56 -2.60868 -1.96508 0
M  V30 39026 H 3519.22 -3.66428 -0.11216 0
M  V30 39027 H 3518.86 -4.3736 -2.48445 0
M  V30 39028 H 3518.56 -5.71776 -1.35446 0
M  V30 39029 H 3520.09 -5.66224 -2.28524 0
M  V30 39030 H 3521.5 -5.73298 -0.0149018 0
M  V30 39031 H 3519.9 -5.95463 0.744605 0
M  V30 39032 H 3520.97 -4.66495 1.32327 0
M  V30 39033 N 3522.31 -0.285959 -1.54984 0
M  V30 39034 C 3523.54 0.333585 -2.047 0
M  V30 39035 C 3523.96 1.47873 -1.16254 0
M  V30 39036 O 3523.32 1.80562 -0.163407 0
M  V30 39037 C 3523.37 0.781808 -3.52023 0
M  V30 39038 O 3522.47 1.88805 -3.66642 0
M  V30 39039 H 3521.81 0.0673087 -0.66058 0
M  V30 39040 H 3524.34 -0.423421 -2.00171 0
M  V30 39041 H 3524.35 1.07466 -3.93592 0
M  V30 39042 H 3523.03 -0.0559661 -4.15862 0
M  V30 39043 H 3521.61 1.5969 -3.36977 0
M  V30 39044 N 3523.79 1.57594 -0.0134169 0
M  V30 39045 C 3524.74 2.09258 0.973634 0
M  V30 39046 C 3525.71 0.991022 1.33297 0
M  V30 39047 O 3526.89 1.26428 1.42901 0
M  V30 39048 C 3524.03 2.61151 2.25598 0
M  V30 39049 C 3523.15 3.85258 1.95449 0
M  V30 39050 C 3522.28 4.25601 3.17863 0
M  V30 39051 C 3521.32 5.42509 2.83462 0
M  V30 39052 N 3520.46 5.78082 3.98453 0
M  V30 39053 H 3525.3 2.93319 0.526138 0
M  V30 39054 H 3522.83 1.44992 0.248123 0
M  V30 39055 H 3524.79 2.8932 3.00582 0
M  V30 39056 H 3523.42 1.79944 2.67992 0
M  V30 39057 H 3522.47 3.63914 1.10775 0
M  V30 39058 H 3523.79 4.70331 1.66102 0
M  V30 39059 H 3522.94 4.55124 4.01182 0
M  V30 39060 H 3521.68 3.39263 3.50359 0
M  V30 39061 H 3520.68 5.12696 1.98553 0
M  V30 39062 H 3521.91 6.30533 2.52199 0
M  V30 39063 H 3519.85 4.94701 4.30821 0
M  V30 39064 H 3519.77 6.5776 3.72676 0
M  V30 39065 H 3521.04 6.12204 4.82521 0
M  V30 39066 N 3525.27 -0.259531 1.55448 0
M  V30 39067 C 3526.52 -0.987365 1.76339 0
M  V30 39068 C 3526.84 -1.86327 0.575083 0
M  V30 39069 O 3526.11 -1.9157 -0.409588 0
M  V30 39070 H 3524.69 -0.367553 0.650318 0
M  V30 39071 H 3527.35 -0.280517 1.92871 0
M  V30 39072 H 3526.45 -1.61646 2.66977 0
M  V30 39073 N 3526.75 -1.48611 -0.524645 0
M  V30 39074 C 3527.68 -1.59624 -1.64478 0
M  V30 39075 C 3528.69 -0.480208 -1.55557 0
M  V30 39076 O 3529.88 -0.751282 -1.6192 0
M  V30 39077 C 3526.98 -1.51492 -3.03156 0
M  V30 39078 C 3526.15 -2.78226 -3.37504 0
M  V30 39079 C 3525.21 -2.63475 -4.55486 0
M  V30 39080 O 3524.24 -3.37372 -4.58442 0
M  V30 39081 N 3525.44 -1.73446 -5.53982 0
M  V30 39082 H 3528.21 -2.56224 -1.55466 0
M  V30 39083 H 3525.77 -1.45402 -0.712033 0
M  V30 39084 H 3527.76 -1.39311 -3.79966 0
M  V30 39085 H 3526.33 -0.62846 -3.06217 0
M  V30 39086 H 3525.55 -3.04933 -2.49819 0
M  V30 39087 H 3526.84 -3.62294 -3.5724 0
M  V30 39088 H 3526.23 -1.12621 -5.54376 0
M  V30 39089 H 3524.79 -1.67201 -6.2999 0
M  V30 39090 N 3528.22 0.773926 -1.37289 0
M  V30 39091 C 3529.17 1.87728 -1.29392 0
M  V30 39092 C 3530.16 1.59865 -0.182196 0
M  V30 39093 O 3531.35 1.72032 -0.416397 0
M  V30 39094 C 3528.48 3.25166 -1.101 0
M  V30 39095 C 3527.57 3.58987 -2.25807 0
M  V30 39096 N 3527.96 3.64006 -3.51189 0
M  V30 39097 C 3526.25 3.8914 -2.17913 0
M  V30 39098 C 3526.96 3.94512 -4.27475 0
M  V30 39099 N 3525.93 4.10298 -3.5659 0
M  V30 39100 H 3529.73 1.89856 -2.24348 0
M  V30 39101 H 3527.25 0.970259 -1.3023 0
M  V30 39102 H 3529.24 4.04096 -1.02528 0
M  V30 39103 H 3527.9 3.24303 -0.160592 0
M  V30 39104 H 3528.92 3.46265 -3.85124 0
M  V30 39105 H 3525.59 3.96111 -1.31917 0
M  V30 39106 H 3526.98 4.05189 -5.35977 0
M  V30 39107 N 3529.7 1.21823 0.99985 0
M  V30 39108 C 3530.63 1.00625 2.10706 0
M  V30 39109 C 3531.61 -0.0705118 1.69954 0
M  V30 39110 O 3532.8 0.0903383 1.9399 0
M  V30 39111 C 3529.93 0.575706 3.42495 0
M  V30 39112 C 3528.88 1.59761 3.97065 0
M  V30 39113 C 3528.21 1.02314 5.2482 0
M  V30 39114 C 3529.51 2.98581 4.2854 0
M  V30 39115 H 3531.2 1.9323 2.28697 0
M  V30 39116 H 3528.75 0.930462 1.09902 0
M  V30 39117 H 3530.7 0.414555 4.19356 0
M  V30 39118 H 3529.43 -0.386002 3.24311 0
M  V30 39119 H 3528.08 1.74642 3.22329 0
M  V30 39120 H 3527.73 0.05299 5.02972 0
M  V30 39121 H 3527.43 1.70577 5.62296 0
M  V30 39122 H 3528.96 0.873418 6.04321 0
M  V30 39123 H 3530.37 2.87115 4.96224 0
M  V30 39124 H 3528.77 3.63905 4.77172 0
M  V30 39125 H 3529.84 3.49038 3.36601 0
M  V30 39126 N 3531.18 -1.1956 1.0268 0
M  V30 39127 C 3532.41 -1.92872 0.740527 0
M  V30 39128 C 3532.82 -1.75604 -0.704256 0
M  V30 39129 O 3532.16 -1.07391 -1.4904 0
M  V30 39130 C 3532.22 -3.4504 1.00935 0
M  V30 39131 C 3531.89 -3.86077 2.44527 0
M  V30 39132 C 3532.88 -3.91004 3.42654 0
M  V30 39133 C 3530.57 -4.17775 2.78872 0
M  V30 39134 C 3532.56 -4.27056 4.73183 0
M  V30 39135 C 3530.25 -4.535 4.09611 0
M  V30 39136 C 3531.25 -4.58115 5.06576 0
M  V30 39137 O 3530.94 -4.93015 6.34974 0
M  V30 39138 H 3530.67 -0.619544 0.270446 0
M  V30 39139 H 3533.22 -1.52703 1.37371 0
M  V30 39140 H 3531.45 -3.85382 0.319018 0
M  V30 39141 H 3533.14 -3.99588 0.713065 0
M  V30 39142 H 3533.91 -3.66668 3.17458 0
M  V30 39143 H 3529.79 -4.13368 2.04078 0
M  V30 39144 H 3533.33 -4.30573 5.48865 0
M  V30 39145 H 3529.23 -4.77294 4.34581 0
M  V30 39146 H 3530 -5.1097 6.39415 0
M  V30 39147 N 3532.66 -0.804387 -1.35526 0
M  V30 39148 C 3533.61 -0.211227 -2.29831 0
M  V30 39149 C 3534.58 0.653476 -1.52705 0
M  V30 39150 O 3535.76 0.59902 -1.81153 0
M  V30 39151 C 3532.9 0.635995 -3.39189 0
M  V30 39152 C 3532.01 -0.2489 -4.31282 0
M  V30 39153 C 3531.15 0.606117 -5.27731 0
M  V30 39154 C 3530.19 -0.279312 -6.11462 0
M  V30 39155 N 3529.32 0.535549 -7.00054 0
M  V30 39156 H 3534.16 -1.02085 -2.79969 0
M  V30 39157 H 3531.7 -0.514955 -1.37792 0
M  V30 39158 H 3533.66 1.14234 -4.01256 0
M  V30 39159 H 3532.29 1.4109 -2.90333 0
M  V30 39160 H 3531.34 -0.873328 -3.70239 0
M  V30 39161 H 3532.65 -0.930503 -4.90044 0
M  V30 39162 H 3531.81 1.17768 -5.9516 0
M  V30 39163 H 3530.55 1.32129 -4.6946 0
M  V30 39164 H 3529.55 -0.863161 -5.42982 0
M  V30 39165 H 3530.78 -0.992318 -6.71811 0
M  V30 39166 H 3528.72 1.23474 -6.44275 0
M  V30 39167 H 3528.64 -0.0880542 -7.55949 0
M  V30 39168 H 3529.91 1.09046 -7.71835 0
M  V30 39169 N 3534.14 1.47403 -0.557697 0
M  V30 39170 C 3535.05 2.33806 0.192849 0
M  V30 39171 C 3536.06 1.48221 0.911398 0
M  V30 39172 O 3537.24 1.81148 0.880182 0
M  V30 39173 C 3534.3 3.24926 1.20931 0
M  V30 39174 C 3533.37 4.264 0.498134 0
M  V30 39175 C 3532.6 5.13166 1.46617 0
M  V30 39176 O 3532.82 5.02395 2.70102 0
M  V30 39177 O 3531.76 5.93696 0.990392 0
M  V30 39178 H 3535.58 2.99286 -0.515914 0
M  V30 39179 H 3533.17 1.4597 -0.318309 0
M  V30 39180 H 3535.05 3.81209 1.79604 0
M  V30 39181 H 3533.72 2.62073 1.89998 0
M  V30 39182 H 3532.63 3.73875 -0.129801 0
M  V30 39183 H 3533.96 4.91968 -0.151101 0
M  V30 39184 N 3535.62 0.294175 1.5483 0
M  V30 39185 C 3536.56 -0.584951 2.23264 0
M  V30 39186 C 3537.53 -1.13492 1.2128 0
M  V30 39187 O 3538.72 -1.18071 1.4988 0
M  V30 39188 C 3535.86 -1.75423 2.97188 0
M  V30 39189 C 3534.97 -1.23631 4.13932 0
M  V30 39190 C 3534.11 -2.36891 4.75454 0
M  V30 39191 C 3533.14 -1.82197 5.84355 0
M  V30 39192 N 3532.28 -2.89004 6.3986 0
M  V30 39193 H 3537.12 0.00524567 2.98 0
M  V30 39194 H 3534.66 0.0143572 1.47093 0
M  V30 39195 H 3536.62 -2.44184 3.38275 0
M  V30 39196 H 3535.25 -2.31616 2.24841 0
M  V30 39197 H 3534.3 -0.441181 3.77833 0
M  V30 39198 H 3535.61 -0.79586 4.9241 0
M  V30 39199 H 3534.76 -3.13611 5.19359 0
M  V30 39200 H 3533.5 -2.84259 3.96293 0
M  V30 39201 H 3532.51 -1.03964 5.39881 0
M  V30 39202 H 3533.73 -1.35741 6.65395 0
M  V30 39203 H 3531.68 -3.35719 5.63586 0
M  V30 39204 H 3531.6 -2.49434 7.13666 0
M  V30 39205 H 3532.86 -3.65642 6.88423 0
M  V30 39206 N 3537.09 -1.57585 0.0217743 0
M  V30 39207 C 3538.5 -1.79368 -0.518079 0
M  V30 39208 C 3538.86 -0.931344 -1.72686 0
M  V30 39209 O 3537.98 -0.139725 -2.15948 0
M  V30 39210 C 3538.58 -3.25306 -0.946653 0
M  V30 39211 C 3537.13 -3.4811 -1.43167 0
M  V30 39212 C 3536.28 -2.74502 -0.392947 0
M  V30 39213 H 3539.23 -1.56753 0.247849 0
M  V30 39214 H 3539.25 -3.34614 -1.81146 0
M  V30 39215 H 3538.77 -3.88043 -0.0666854 0
M  V30 39216 H 3536.87 -2.90616 -2.33181 0
M  V30 39217 H 3536.98 -4.56818 -1.44411 0
M  V30 39218 H 3535.34 -2.39762 -0.859429 0
M  V30 39219 H 3536.13 -3.3995 0.478428 0
M  V30 39220 N 3538.57 0.251283 -1.55584 0
M  V30 39221 C 3539.53 1.2944 -1.8915 0
M  V30 39222 C 3540.53 1.41295 -0.767625 0
M  V30 39223 O 3541.72 1.40071 -1.03565 0
M  V30 39224 C 3538.86 2.67275 -2.11606 0
M  V30 39225 H 3540.05 1.00896 -2.82418 0
M  V30 39226 H 3537.6 0.490372 -1.48408 0
M  V30 39227 H 3538.34 3.00965 -1.20792 0
M  V30 39228 H 3538.12 2.60053 -2.93454 0
M  V30 39229 H 3539.61 3.42603 -2.38774 0
M  V30 39230 N 3540.05 1.48887 0.516757 0
M  V30 39231 C 3541.28 1.6126 1.29625 0
M  V30 39232 C 3541.69 0.277893 1.86744 0
M  V30 39233 O 3541.05 -0.73461 1.67062 0
M  V30 39234 C 3541.1 2.66939 2.43774 0
M  V30 39235 O 3540.82 3.95232 1.89007 0
M  V30 39236 C 3542.32 2.89873 3.35393 0
M  V30 39237 H 3539.54 0.543342 0.393726 0
M  V30 39238 H 3542.09 1.9481 0.622035 0
M  V30 39239 H 3540.24 2.36211 3.07055 0
M  V30 39240 H 3540.66 4.53317 2.63825 0
M  V30 39241 H 3542.13 3.67588 4.11805 0
M  V30 39242 H 3542.61 1.99192 3.91432 0
M  V30 39243 H 3543.21 3.21957 2.77892 0
M  V30 39244 N 3541.53 -0.766635 1.37697 0
M  V30 39245 C 3542.46 -1.88936 1.29753 0
M  V30 39246 C 3543.47 -1.6141 0.212307 0
M  V30 39247 O 3544.66 -1.72232 0.468855 0
M  V30 39248 C 3541.76 -3.24282 0.98461 0
M  V30 39249 C 3540.93 -3.79414 2.17632 0
M  V30 39250 C 3539.99 -4.93246 1.83288 0
M  V30 39251 O 3539.02 -5.08563 2.5564 0
M  V30 39252 N 3540.22 -5.75235 0.780042 0
M  V30 39253 H 3542.99 -1.96265 2.26495 0
M  V30 39254 H 3540.55 -0.945978 1.31388 0
M  V30 39255 H 3542.54 -3.97958 0.735606 0
M  V30 39256 H 3541.11 -3.12422 0.105582 0
M  V30 39257 H 3540.33 -2.97456 2.58677 0
M  V30 39258 H 3541.62 -4.1298 2.97195 0
M  V30 39259 H 3541.02 -5.65414 0.17976 0
M  V30 39260 H 3539.57 -6.49116 0.590904 0
M  V30 39261 N 3543.01 -1.22351 -0.993375 0
M  V30 39262 C 3544.42 -1.04467 -1.54737 0
M  V30 39263 C 3544.77 0.392023 -1.92244 0
M  V30 39264 O 3543.89 1.27694 -1.74709 0
M  V30 39265 C 3544.49 -1.89012 -2.81176 0
M  V30 39266 C 3543.05 -1.75427 -3.3302 0
M  V30 39267 C 3542.19 -1.85509 -2.06111 0
M  V30 39268 H 3545.14 -1.36203 -0.814515 0
M  V30 39269 H 3545.17 -1.40725 -3.53521 0
M  V30 39270 H 3544.68 -2.93571 -2.53846 0
M  V30 39271 H 3542.78 -0.735999 -3.65259 0
M  V30 39272 H 3542.89 -2.58069 -4.03655 0
M  V30 39273 H 3541.26 -1.28944 -2.19649 0
M  V30 39274 H 3542.04 -2.91597 -1.81179 0
M  V30 39275 N 3544.48 1.19014 -1.03313 0
M  V30 39276 C 3545.73 1.89084 -0.733157 0
M  V30 39277 C 3546.06 1.79683 0.736719 0
M  V30 39278 O 3545.34 1.19204 1.5369 0
M  V30 39279 C 3545.62 3.39857 -1.19034 0
M  V30 39280 C 3545.47 3.58107 -2.72175 0
M  V30 39281 C 3546.79 4.33232 -0.774459 0
M  V30 39282 H 3543.91 0.686619 -0.267812 0
M  V30 39283 H 3546.55 1.40066 -1.2838 0
M  V30 39284 H 3544.7 3.81735 -0.721866 0
M  V30 39285 H 3546.38 3.25373 -3.27002 0
M  V30 39286 H 3544.62 3.01017 -3.12364 0
M  V30 39287 H 3545.29 4.63865 -2.99221 0
M  V30 39288 H 3547.77 3.99093 -1.17746 0
M  V30 39289 H 3546.64 5.37306 -1.12219 0
M  V30 39290 H 3546.9 4.40919 0.322911 0
M  V30 39291 N 3545.96 0.811563 1.35098 0
M  V30 39292 C 3546.91 0.223412 2.29716 0
M  V30 39293 C 3547.88 -0.645369 1.5305 0
M  V30 39294 O 3549.06 -0.589404 1.81468 0
M  V30 39295 C 3546.2 -0.617998 3.39521 0
M  V30 39296 C 3545.32 0.271768 4.31144 0
M  V30 39297 C 3544.45 -0.578121 5.28045 0
M  V30 39298 C 3543.49 0.311736 6.11306 0
M  V30 39299 N 3542.63 -0.498416 7.00329 0
M  V30 39300 H 3547.47 1.03568 2.79424 0
M  V30 39301 H 3545 0.522256 1.37517 0
M  V30 39302 H 3546.96 -1.12104 4.01856 0
M  V30 39303 H 3545.59 -1.39549 2.91077 0
M  V30 39304 H 3544.64 0.89295 3.69771 0
M  V30 39305 H 3545.96 0.956478 4.89544 0
M  V30 39306 H 3545.11 -1.1461 5.95776 0
M  V30 39307 H 3543.85 -1.29638 4.70155 0
M  V30 39308 H 3542.85 0.891945 5.42517 0
M  V30 39309 H 3544.08 1.02793 6.71275 0
M  V30 39310 H 3542.03 -1.20056 6.44921 0
M  V30 39311 H 3541.94 0.128143 7.55891 0
M  V30 39312 H 3543.21 -1.04951 7.72402 0
M  V30 39313 N 3547.44 -1.47105 0.565506 0
M  V30 39314 C 3548.86 -1.57993 0.225883 0
M  V30 39315 C 3549.06 -1.56301 -1.2717 0
M  V30 39316 O 3548.11 -1.47082 -2.05239 0
M  V30 39317 C 3549.42 -2.88143 0.859879 0
M  V30 39318 C 3550.97 -3.01743 0.831874 0
M  V30 39319 C 3551.45 -4.34604 1.44509 0
M  V30 39320 N 3552.94 -4.41261 1.40865 0
M  V30 39321 C 3553.67 -5.42645 1.85268 0
M  V30 39322 N 3553.17 -6.50796 2.37564 0
M  V30 39323 N 3554.96 -5.33741 1.76288 0
M  V30 39324 H 3547.11 -1.46448 1.5384 0
M  V30 39325 H 3549.38 -0.697501 0.642025 0
M  V30 39326 H 3549.08 -2.95143 1.91269 0
M  V30 39327 H 3548.96 -3.75499 0.357828 0
M  V30 39328 H 3551.34 -2.94336 -0.212267 0
M  V30 39329 H 3551.42 -2.15908 1.37177 0
M  V30 39330 H 3551.07 -4.42768 2.48834 0
M  V30 39331 H 3551 -5.19185 0.88057 0
M  V30 39332 H 3553.49 -3.637 1.0262 0
M  V30 39333 H 3553.8 -7.24342 2.69348 0
M  V30 39334 H 3552.15 -6.51663 2.4158 0
M  V30 39335 H 3555.34 -4.48149 1.35203 0
M  V30 39336 H 3555.51 -6.12613 2.1121 0
M  V30 39337 N 3548.92 -0.302382 -1.54672 0
M  V30 39338 C 3549.87 0.573102 -2.23571 0
M  V30 39339 C 3550.84 1.12847 -1.2188 0
M  V30 39340 O 3552.02 1.17274 -1.50504 0
M  V30 39341 C 3549.16 1.73845 -2.98114 0
M  V30 39342 C 3548.27 1.21434 -4.14582 0
M  V30 39343 C 3547.41 2.34366 -4.76703 0
M  V30 39344 C 3546.45 1.79096 -5.85313 0
M  V30 39345 N 3545.58 2.85607 -6.41384 0
M  V30 39346 H 3550.42 -0.0210492 -2.97993 0
M  V30 39347 H 3547.96 -0.0221577 -1.47083 0
M  V30 39348 H 3549.92 2.42386 -3.39565 0
M  V30 39349 H 3548.55 2.30421 -2.26067 0
M  V30 39350 H 3547.6 0.421137 -3.78062 0
M  V30 39351 H 3548.91 0.769735 -4.92825 0
M  V30 39352 H 3548.07 3.10852 -5.21014 0
M  V30 39353 H 3546.81 2.82154 -3.97795 0
M  V30 39354 H 3545.81 1.01099 -5.40425 0
M  V30 39355 H 3547.04 1.32211 -6.66106 0
M  V30 39356 H 3544.98 3.32725 -5.65358 0
M  V30 39357 H 3544.9 2.45646 -7.14978 0
M  V30 39358 H 3546.17 3.61986 -6.90353 0
M  V30 39359 N 3550.4 1.57571 -0.0301311 0
M  V30 39360 C 3551.33 2.13313 0.949732 0
M  V30 39361 C 3552.31 1.04951 1.33863 0
M  V30 39362 O 3553.49 1.32788 1.41707 0
M  V30 39363 C 3550.62 2.66103 2.23173 0
M  V30 39364 C 3549.58 3.79262 1.98355 0
M  V30 39365 C 3548.9 4.18484 3.32829 0
M  V30 39366 C 3550.2 5.05294 1.32193 0
M  V30 39367 H 3551.9 2.95437 0.48551 0
M  V30 39368 H 3549.44 1.42117 0.232091 0
M  V30 39369 H 3551.4 3.03734 2.92103 0
M  V30 39370 H 3550.12 1.81142 2.71763 0
M  V30 39371 H 3548.78 3.42071 1.31843 0
M  V30 39372 H 3548.43 3.30503 3.79179 0
M  V30 39373 H 3548.13 4.94739 3.17028 0
M  V30 39374 H 3549.65 4.58698 4.03024 0
M  V30 39375 H 3551.06 5.40504 1.91123 0
M  V30 39376 H 3549.46 5.86554 1.26787 0
M  V30 39377 H 3550.53 4.84002 0.295025 0
M  V30 39378 N 3551.87 -0.243029 1.55715 0
M  V30 39379 C 3552.78 -1.32237 1.93779 0
M  V30 39380 C 3553.8 -1.52451 0.838736 0
M  V30 39381 O 3554.98 -1.65998 1.14047 0
M  V30 39382 C 3552.04 -2.65623 2.22812 0
M  V30 39383 C 3551.1 -2.53898 3.46171 0
M  V30 39384 C 3550.34 -3.80923 3.73809 0
M  V30 39385 O 3550.56 -4.82979 3.03458 0
M  V30 39386 O 3549.49 -3.79323 4.6733 0
M  V30 39387 H 3553.32 -1.02946 2.8572 0
M  V30 39388 H 3550.9 -0.444109 1.42647 0
M  V30 39389 H 3552.79 -3.44438 2.42777 0
M  V30 39390 H 3551.46 -2.94639 1.3405 0
M  V30 39391 H 3550.37 -1.73356 3.31509 0
M  V30 39392 H 3551.7 -2.29826 4.35248 0
M  V30 39393 N 3553.35 -1.49159 -0.508854 0
M  V30 39394 C 3554.63 -1.48747 -1.27019 0
M  V30 39395 C 3555.01 -0.210809 -2.10045 0
M  V30 39396 O 3554.36 0.807023 -2.13774 0
M  V30 39397 C 3554.57 -2.76184 -2.13362 0
M  V30 39398 C 3555.92 -3.25362 -2.72809 0
M  V30 39399 O 3556.94 -2.77247 -2.23635 0
M  V30 39400 O 3555.8 -4.09139 -3.62308 0
M  V30 39401 H 3552.89 -0.594996 -0.574377 0
M  V30 39402 H 3555.44 -1.61415 -0.523769 0
M  V30 39403 H 3554.21 -3.60599 -1.51935 0
M  V30 39404 H 3553.83 -2.66339 -2.95211 0
M  V30 39405 N 3554.83 0.759322 -1.38102 0
M  V30 39406 C 3555.76 1.88663 -1.37581 0
M  V30 39407 C 3556.74 1.68362 -0.242558 0
M  V30 39408 O 3557.93 1.89038 -0.444784 0
M  V30 39409 C 3555.06 3.26115 -1.19442 0
M  V30 39410 C 3554.01 3.61005 -2.29911 0
M  V30 39411 C 3553.34 4.97133 -1.96883 0
M  V30 39412 C 3554.64 3.66472 -3.7215 0
M  V30 39413 H 3556.33 1.89355 -2.31916 0
M  V30 39414 H 3553.88 0.909611 -1.11634 0
M  V30 39415 H 3555.83 4.04628 -1.17705 0
M  V30 39416 H 3554.55 3.25887 -0.215677 0
M  V30 39417 H 3553.21 2.84808 -2.30825 0
M  V30 39418 H 3552.86 4.93459 -0.975066 0
M  V30 39419 H 3552.56 5.21446 -2.70865 0
M  V30 39420 H 3554.08 5.78031 -1.96754 0
M  V30 39421 H 3555.5 4.35111 -3.73298 0
M  V30 39422 H 3553.9 4.02291 -4.45289 0
M  V30 39423 H 3554.97 2.66835 -4.04879 0
M  V30 39424 N 3556.31 1.22876 0.986873 0
M  V30 39425 C 3557.53 1.0843 1.76798 0
M  V30 39426 C 3557.96 -0.360522 1.84613 0
M  V30 39427 O 3557.32 -1.26061 1.30301 0
M  V30 39428 C 3557.36 1.70706 3.17635 0
M  V30 39429 O 3556.47 0.964822 4.00955 0
M  V30 39430 H 3555.81 0.380461 0.544192 0
M  V30 39431 H 3558.34 1.62798 1.23928 0
M  V30 39432 H 3558.35 1.75679 3.6824 0
M  V30 39433 H 3557.02 2.75842 3.11262 0
M  V30 39434 H 3555.6 0.991556 3.59475 0
M  V30 39435 N 3557.79 -1.18464 1.03942 0
M  V30 39436 C 3559.01 -1.92896 0.76196 0
M  V30 39437 C 3559.44 -1.75587 -0.674587 0
M  V30 39438 O 3558.79 -1.06518 -1.46709 0
M  V30 39439 C 3558.84 -3.42385 1.13158 0
M  V30 39440 O 3557.95 -4.11603 0.256339 0
M  V30 39441 H 3557.29 -0.601826 0.280538 0
M  V30 39442 H 3559.82 -1.50233 1.38893 0
M  V30 39443 H 3559.83 -3.93088 1.09297 0
M  V30 39444 H 3558.5 -3.54304 2.1781 0
M  V30 39445 H 3557.08 -3.71212 0.354457 0
M  V30 39446 N 3559.26 -0.818716 -1.34665 0
M  V30 39447 C 3560.17 -0.23947 -2.33375 0
M  V30 39448 C 3561.19 0.623928 -1.62429 0
M  V30 39449 O 3562.37 0.53282 -1.94224 0
M  V30 39450 C 3559.43 0.59252 -3.41599 0
M  V30 39451 C 3558.49 -0.292788 -4.283 0
M  V30 39452 C 3557.73 0.499589 -5.31357 0
M  V30 39453 O 3557.95 1.73324 -5.43429 0
M  V30 39454 O 3556.88 -0.115884 -6.01788 0
M  V30 39455 H 3560.71 -1.05636 -2.84736 0
M  V30 39456 H 3558.29 -0.580765 -1.3765 0
M  V30 39457 H 3560.18 1.066 -4.07694 0
M  V30 39458 H 3558.85 1.3868 -2.92488 0
M  V30 39459 H 3557.76 -0.813674 -3.65144 0
M  V30 39460 H 3559.09 -1.05132 -4.80841 0
M  V30 39461 N 3560.74 1.46803 -0.573299 0
M  V30 39462 C 3561.99 2.033 -0.0636752 0
M  V30 39463 C 3562.34 1.43796 1.2783 0
M  V30 39464 O 3561.64 0.590158 1.82285 0
M  V30 39465 C 3561.83 3.57331 0.0703657 0
M  V30 39466 C 3561.66 4.31773 -1.25707 0
M  V30 39467 C 3560.43 4.71048 -1.82871 0
M  V30 39468 C 3562.63 4.65901 -2.17808 0
M  V30 39469 N 3560.61 5.30201 -3.09452 0
M  V30 39470 C 3561.98 5.25525 -3.28973 0
M  V30 39471 C 3564.04 4.47831 -2.17605 0
M  V30 39472 C 3562.74 5.68986 -4.40054 0
M  V30 39473 C 3564.76 4.92301 -3.27709 0
M  V30 39474 C 3564.13 5.51988 -4.37594 0
M  V30 39475 H 3560.23 0.779222 -0.0658527 0
M  V30 39476 H 3562.81 1.79079 -0.76413 0
M  V30 39477 H 3560.98 3.81286 0.739971 0
M  V30 39478 H 3562.71 4.00471 0.583517 0
M  V30 39479 H 3559.47 4.5351 -1.36475 0
M  V30 39480 H 3559.89 5.64307 -3.74014 0
M  V30 39481 H 3564.53 4.01028 -1.33926 0
M  V30 39482 H 3562.25 6.14771 -5.24482 0
M  V30 39483 H 3565.84 4.80078 -3.28658 0
M  V30 39484 H 3564.72 5.8577 -5.21386 0
M  V30 39485 N 3562.22 0.31058 1.54509 0
M  V30 39486 C 3563.17 -0.561238 2.23872 0
M  V30 39487 C 3564.14 -1.12199 1.22477 0
M  V30 39488 O 3565.32 -1.16475 1.51124 0
M  V30 39489 C 3562.46 -1.72261 2.99032 0
M  V30 39490 C 3561.58 -1.19233 4.1522 0
M  V30 39491 C 3560.71 -2.31835 4.7794 0
M  V30 39492 C 3559.75 -1.75989 5.86254 0
M  V30 39493 N 3558.89 -2.82201 6.42889 0
M  V30 39494 H 3563.73 0.0368522 2.97977 0
M  V30 39495 H 3561.26 0.0299575 1.47069 0
M  V30 39496 H 3563.22 -2.40582 3.40846 0
M  V30 39497 H 3561.85 -2.29219 2.27285 0
M  V30 39498 H 3560.9 -0.401082 3.7828 0
M  V30 39499 H 3562.22 -0.743588 4.93226 0
M  V30 39500 H 3561.37 -3.08084 5.22656 0
M  V30 39501 H 3560.11 -2.8004 3.99286 0
M  V30 39502 H 3559.11 -0.98232 5.40953 0
M  V30 39503 H 3560.34 -1.28676 6.66798 0
M  V30 39504 H 3558.28 -3.29722 5.67115 0
M  V30 39505 H 3558.2 -2.41851 7.16271 0
M  V30 39506 H 3559.47 -3.58319 6.92263 0
M  V30 39507 N 3563.7 -1.57553 0.0384871 0
M  V30 39508 C 3564.66 -2.09691 -0.925321 0
M  V30 39509 C 3565.66 -1.01387 -1.24809 0
M  V30 39510 O 3566.85 -1.2751 -1.18688 0
M  V30 39511 C 3563.98 -2.57059 -2.23906 0
M  V30 39512 H 3565.18 -2.96137 -0.473581 0
M  V30 39513 H 3562.73 -1.54887 -0.209709 0
M  V30 39514 H 3563.47 -1.73969 -2.73688 0
M  V30 39515 H 3563.25 -3.36191 -2.01787 0
M  V30 39516 H 3564.74 -2.97588 -2.92969 0
M  V30 39517 N 3565.18 0.234767 -1.55842 0
M  V30 39518 C 3566.42 0.962508 -1.78504 0
M  V30 39519 C 3566.76 1.84507 -0.605864 0
M  V30 39520 O 3566.03 1.90438 0.395413 0
M  V30 39521 C 3566.31 1.81272 -3.11147 0
M  V30 39522 C 3566.17 0.95753 -4.3949 0
M  V30 39523 C 3567.49 2.79298 -3.40119 0
M  V30 39524 H 3564.61 0.348489 -0.649403 0
M  V30 39525 H 3567.25 0.232207 -1.88576 0
M  V30 39526 H 3565.4 2.43536 -3.02692 0
M  V30 39527 H 3567.07 0.352645 -4.5995 0
M  V30 39528 H 3565.31 0.262378 -4.33006 0
M  V30 39529 H 3565.98 1.5865 -5.2871 0
M  V30 39530 H 3568.46 2.27169 -3.48616 0
M  V30 39531 H 3567.34 3.35898 -4.34124 0
M  V30 39532 H 3567.6 3.56374 -2.6163 0
M  V30 39533 N 3566.66 1.49427 0.500936 0
M  V30 39534 C 3567.6 1.66587 1.62332 0
M  V30 39535 C 3568.6 0.531802 1.60836 0
M  V30 39536 O 3569.8 0.711437 1.65344 0
M  V30 39537 H 3566.18 0.52529 0.538121 0
M  V30 39538 H 3568.15 2.60796 1.45011 0
M  V30 39539 C 3566.9 1.74973 3.00466 0
M  V30 39540 H 3566.22 2.61612 3.02323 0
M  V30 39541 H 3567.66 1.91015 3.78536 0
M  V30 39542 C 3566.12 0.494568 3.3325 0
M  V30 39543 O 3566.65 -0.379713 3.99901 0
M  V30 39544 N 3564.86 0.357495 2.88393 0
M  V30 39545 H 3564.4 1.06995 2.34328 0
M  V30 39546 H 3564.36 -0.481233 3.10695 0
M  V30 39547 N 3568.13 -0.751987 1.38502 0
M  V30 39548 C 3569.55 -1.05526 1.19734 0
M  V30 39549 C 3569.75 -2.01445 0.0471235 0
M  V30 39550 O 3568.81 -2.45105 -0.606602 0
M  V30 39551 C 3570.12 -1.63382 2.52442 0
M  V30 39552 C 3571.67 -1.75545 2.59139 0
M  V30 39553 C 3572.14 -2.36812 3.92026 0
M  V30 39554 N 3573.63 -2.44241 3.93574 0
M  V30 39555 C 3574.37 -2.92544 4.93159 0
M  V30 39556 N 3573.86 -3.40871 6.03141 0
M  V30 39557 N 3575.66 -2.91599 4.80548 0
M  V30 39558 H 3567.81 -0.115505 2.12086 0
M  V30 39559 H 3570.07 -0.113871 0.941136 0
M  V30 39560 H 3569.78 -1.0037 3.37074 0
M  V30 39561 H 3569.65 -2.62422 2.70951 0
M  V30 39562 H 3572.04 -2.37684 1.74901 0
M  V30 39563 H 3572.12 -0.752049 2.44495 0
M  V30 39564 H 3571.76 -1.75306 4.76687 0
M  V30 39565 H 3571.69 -3.37796 4.03982 0
M  V30 39566 H 3574.18 -2.10063 3.14137 0
M  V30 39567 H 3574.5 -3.76189 6.75057 0
M  V30 39568 H 3572.84 -3.38924 6.06758 0
M  V30 39569 H 3576.03 -2.53156 3.93738 0
M  V30 39570 H 3576.21 -3.28931 5.58309 0
M  V30 39571 N 3569.61 -1.23398 -0.980343 0
M  V30 39572 C 3570.54 -1.03964 -2.09078 0
M  V30 39573 C 3571.52 0.0434647 -1.70044 0
M  V30 39574 O 3572.71 -0.121189 -1.93821 0
M  V30 39575 C 3569.84 -0.630121 -3.41536 0
M  V30 39576 C 3568.79 -1.66058 -3.94473 0
M  V30 39577 C 3568.12 -1.1065 -5.23126 0
M  V30 39578 C 3569.42 -3.05361 -4.23736 0
M  V30 39579 H 3571.11 -1.96844 -2.25594 0
M  V30 39580 H 3568.66 -0.947829 -1.08408 0
M  V30 39581 H 3570.61 -0.481218 -4.18643 0
M  V30 39582 H 3569.33 0.334358 -3.24884 0
M  V30 39583 H 3567.99 -1.79747 -3.1951 0
M  V30 39584 H 3567.64 -0.133002 -5.02824 0
M  V30 39585 H 3567.34 -1.79501 -5.59511 0
M  V30 39586 H 3568.87 -0.96945 -6.02855 0
M  V30 39587 H 3570.28 -2.94973 -4.91593 0
M  V30 39588 H 3568.68 -3.71451 -4.71322 0
M  V30 39589 H 3569.75 -3.54349 -3.31006 0
M  V30 39590 N 3571.09 1.17911 -1.04569 0
M  V30 39591 C 3572.02 2.23916 -0.662105 0
M  V30 39592 C 3573 1.66726 0.337101 0
M  V30 39593 O 3574.19 1.92994 0.216082 0
M  V30 39594 C 3571.32 3.47287 -0.029524 0
M  V30 39595 C 3570.27 4.17259 -0.952814 0
M  V30 39596 C 3569.6 5.34382 -0.184441 0
M  V30 39597 C 3570.9 4.7019 -2.27418 0
M  V30 39598 H 3572.59 2.56257 -1.5483 0
M  V30 39599 H 3570.14 1.23176 -0.745908 0
M  V30 39600 H 3572.09 4.20654 0.25058 0
M  V30 39601 H 3570.81 3.14195 0.891583 0
M  V30 39602 H 3569.47 3.45797 -1.21738 0
M  V30 39603 H 3569.12 4.97538 0.739232 0
M  V30 39604 H 3568.82 5.82134 -0.799592 0
M  V30 39605 H 3570.34 6.10536 0.0885271 0
M  V30 39606 H 3571.76 5.35225 -2.05443 0
M  V30 39607 H 3570.15 5.28496 -2.84275 0
M  V30 39608 H 3571.22 3.87337 -2.91715 0
M  V30 39609 N 3572.57 0.825847 1.34229 0
M  V30 39610 C 3573.5 0.207274 2.28261 0
M  V30 39611 C 3574.51 -0.604528 1.5116 0
M  V30 39612 O 3575.7 -0.433729 1.7315 0
M  V30 39613 C 3572.8 -0.72781 3.30993 0
M  V30 39614 C 3571.97 0.0418036 4.3738 0
M  V30 39615 C 3571.03 -0.814649 5.19856 0
M  V30 39616 O 3570.06 -0.25857 5.68612 0
M  V30 39617 N 3571.26 -2.134 5.39852 0
M  V30 39618 H 3574.03 1.01515 2.81984 0
M  V30 39619 H 3571.59 0.683082 1.46784 0
M  V30 39620 H 3573.58 -1.30544 3.83067 0
M  V30 39621 H 3572.15 -1.43643 2.77643 0
M  V30 39622 H 3571.37 0.800754 3.85981 0
M  V30 39623 H 3572.66 0.571484 5.0558 0
M  V30 39624 H 3572.06 -2.60949 5.01919 0
M  V30 39625 H 3570.61 -2.66042 5.95034 0
M  V30 39626 N 3574.05 -1.46497 0.581077 0
M  V30 39627 C 3574.96 -2.34083 -0.155628 0
M  V30 39628 C 3575.97 -1.49652 -0.887701 0
M  V30 39629 O 3577.15 -1.82526 -0.851252 0
M  V30 39630 C 3574.21 -3.26808 -1.15746 0
M  V30 39631 C 3573.27 -4.27139 -0.430235 0
M  V30 39632 C 3572.51 -5.15433 -1.38434 0
M  V30 39633 O 3572.73 -5.06629 -2.62076 0
M  V30 39634 O 3571.66 -5.95196 -0.895815 0
M  V30 39635 H 3575.49 -2.98427 0.563462 0
M  V30 39636 H 3573.07 -1.45445 0.341491 0
M  V30 39637 H 3574.96 -3.84018 -1.73516 0
M  V30 39638 H 3573.63 -2.65063 -1.85805 0
M  V30 39639 H 3572.54 -3.73621 0.189265 0
M  V30 39640 H 3573.87 -4.91665 0.22935 0
M  V30 39641 N 3575.52 -0.31877 -1.54343 0
M  V30 39642 C 3576.45 0.542167 -2.27118 0
M  V30 39643 C 3577.43 1.12331 -1.27733 0
M  V30 39644 O 3578.62 1.14934 -1.56537 0
M  V30 39645 C 3575.75 1.70552 -3.02538 0
M  V30 39646 C 3574.7 1.2539 -4.0922 0
M  V30 39647 C 3574.03 2.50383 -4.72454 0
M  V30 39648 C 3575.33 0.37224 -5.20972 0
M  V30 39649 H 3577.02 -0.0648752 -2.9933 0
M  V30 39650 H 3574.57 -0.0326421 -1.43963 0
M  V30 39651 H 3576.52 2.31406 -3.52178 0
M  V30 39652 H 3575.25 2.33908 -2.27935 0
M  V30 39653 H 3573.91 0.668329 -3.60457 0
M  V30 39654 H 3573.55 3.12092 -3.94472 0
M  V30 39655 H 3573.25 2.20858 -5.44514 0
M  V30 39656 H 3574.78 3.12007 -5.24866 0
M  V30 39657 H 3576.19 0.88693 -5.66398 0
M  V30 39658 H 3574.59 0.169985 -5.99859 0
M  V30 39659 H 3575.66 -0.598149 -4.81197 0
M  V30 39660 N 3577 1.5753 -0.0468419 0
M  V30 39661 C 3578.42 1.56567 0.30968 0
M  V30 39662 C 3578.62 1.05411 1.71729 0
M  V30 39663 O 3577.67 0.708766 2.42348 0
M  V30 39664 C 3578.99 3.00364 0.142099 0
M  V30 39665 C 3580.53 3.12271 0.21353 0
M  V30 39666 C 3581.01 4.57939 0.0745297 0
M  V30 39667 N 3582.5 4.63015 0.130946 0
M  V30 39668 C 3583.24 5.7338 0.0474401 0
M  V30 39669 N 3582.73 6.92744 -0.0881663 0
M  V30 39670 N 3584.52 5.62006 0.10271 0
M  V30 39671 H 3576.68 1.89106 -0.96709 0
M  V30 39672 H 3578.94 0.870663 -0.375033 0
M  V30 39673 H 3578.64 3.41809 -0.828231 0
M  V30 39674 H 3578.52 3.66184 0.904942 0
M  V30 39675 H 3580.91 2.70728 1.17433 0
M  V30 39676 H 3580.99 2.49138 -0.579994 0
M  V30 39677 H 3580.63 5.00167 -0.882927 0
M  V30 39678 H 3580.56 5.19074 0.887144 0
M  V30 39679 H 3583.05 3.77167 0.23518 0
M  V30 39680 H 3583.36 7.72665 -0.144709 0
M  V30 39681 H 3581.71 6.94891 -0.123192 0
M  V30 39682 H 3584.9 4.67641 0.207177 0
M  V30 39683 H 3585.07 6.47991 0.0341726 0
M  V30 39684 N 3578.48 -0.226499 1.55964 0
M  V30 39685 C 3579.44 -1.26414 1.91186 0
M  V30 39686 C 3580.44 -1.40055 0.790007 0
M  V30 39687 O 3581.63 -1.38405 1.05781 0
M  V30 39688 C 3578.77 -2.63875 2.15831 0
M  V30 39689 H 3579.96 -0.963906 2.83987 0
M  V30 39690 H 3577.51 -0.4667 1.4917 0
M  V30 39691 H 3578.25 -2.99005 1.25565 0
M  V30 39692 H 3578.03 -2.55351 2.97554 0
M  V30 39693 H 3579.52 -3.38761 2.44194 0
M  V30 39694 N 3579.96 -1.4969 -0.493005 0
M  V30 39695 C 3580.91 -1.66948 -1.59364 0
M  V30 39696 C 3581.88 -0.510869 -1.58049 0
M  V30 39697 O 3583.06 -0.738853 -1.75914 0
M  V30 39698 C 3580.2 -1.74946 -2.97469 0
M  V30 39699 C 3579.31 -3.02165 -3.0874 0
M  V30 39700 C 3578.45 -3.01092 -4.37626 0
M  V30 39701 C 3577.49 -4.22857 -4.42559 0
M  V30 39702 N 3576.62 -4.19649 -5.62885 0
M  V30 39703 H 3581.46 -2.60923 -1.43956 0
M  V30 39704 H 3579 -1.29362 -0.700274 0
M  V30 39705 H 3580.96 -1.77564 -3.77527 0
M  V30 39706 H 3579.59 -0.844307 -3.11563 0
M  V30 39707 H 3578.64 -3.09121 -2.21694 0
M  V30 39708 H 3579.95 -3.92157 -3.08245 0
M  V30 39709 H 3579.11 -3.02318 -5.26012 0
M  V30 39710 H 3577.85 -2.08893 -4.40698 0
M  V30 39711 H 3576.85 -4.21867 -3.52574 0
M  V30 39712 H 3578.08 -5.16258 -4.41196 0
M  V30 39713 H 3576.02 -3.30291 -5.66784 0
M  V30 39714 H 3575.94 -5.03384 -5.64039 0
M  V30 39715 H 3577.21 -4.24988 -6.53456 0
M  V30 39716 N 3581.44 0.744631 -1.38899 0
M  V30 39717 C 3582.37 1.86848 -1.32742 0
M  V30 39718 C 3583.38 1.61052 -0.237959 0
M  V30 39719 O 3584.57 1.71465 -0.496196 0
M  V30 39720 C 3581.67 3.22674 -1.03608 0
M  V30 39721 C 3580.84 3.75904 -2.23641 0
M  V30 39722 C 3579.9 4.90268 -1.91112 0
M  V30 39723 O 3578.93 5.04432 -2.63698 0
M  V30 39724 N 3580.13 5.73921 -0.871459 0
M  V30 39725 H 3582.9 1.92637 -2.29589 0
M  V30 39726 H 3580.46 0.924956 -1.32877 0
M  V30 39727 H 3582.45 3.96738 -0.798825 0
M  V30 39728 H 3581.02 3.12214 -0.155272 0
M  V30 39729 H 3580.24 2.93303 -2.63377 0
M  V30 39730 H 3581.53 4.082 -3.03727 0
M  V30 39731 H 3580.92 5.65057 -0.26969 0
M  V30 39732 H 3579.48 6.48094 -0.694098 0
M  V30 39733 N 3582.91 1.23916 0.973785 0
M  V30 39734 C 3584.33 1.06916 1.53055 0
M  V30 39735 C 3584.68 -0.361389 1.92843 0
M  V30 39736 O 3583.8 -1.24898 1.76718 0
M  V30 39737 C 3584.4 1.93462 2.78133 0
M  V30 39738 C 3582.96 1.80703 3.30187 0
M  V30 39739 C 3582.1 1.88764 2.03134 0
M  V30 39740 H 3585.05 1.37482 0.792743 0
M  V30 39741 H 3585.07 1.46331 3.51237 0
M  V30 39742 H 3584.59 2.97572 2.49144 0
M  V30 39743 H 3582.69 0.794015 3.64041 0
M  V30 39744 H 3582.8 2.64458 3.99498 0
M  V30 39745 H 3581.16 1.32422 2.1757 0
M  V30 39746 H 3581.95 2.94443 1.76517 0
M  V30 39747 N 3584.39 -1.17355 1.05193 0
M  V30 39748 C 3585.67 -1.83552 0.675858 0
M  V30 39749 C 3586.05 -1.93503 -0.843778 0
M  V30 39750 O 3585.4 -1.46959 -1.74972 0
M  V30 39751 C 3585.61 -3.21205 1.36487 0
M  V30 39752 C 3586.96 -3.97111 1.50292 0
M  V30 39753 O 3587.98 -3.30684 1.32388 0
M  V30 39754 O 3586.84 -5.16155 1.79571 0
M  V30 39755 H 3583.93 -0.79204 0.237912 0
M  V30 39756 H 3586.48 -1.24652 1.15152 0
M  V30 39757 H 3585.25 -3.08931 2.40161 0
M  V30 39758 H 3584.87 -3.87772 0.878559 0
M  V30 39759 N 3585.87 -0.832954 -1.3379 0
M  V30 39760 C 3586.8 -0.276887 -2.31853 0
M  V30 39761 C 3587.78 0.612156 -1.58703 0
M  V30 39762 O 3588.97 0.536943 -1.86629 0
M  V30 39763 C 3586.1 0.55379 -3.42856 0
M  V30 39764 C 3585.05 -0.23896 -4.27332 0
M  V30 39765 C 3584.38 0.715094 -5.29897 0
M  V30 39766 C 3585.68 -1.45274 -5.0169 0
M  V30 39767 H 3587.37 -1.09623 -2.78609 0
M  V30 39768 H 3584.92 -0.528586 -1.33948 0
M  V30 39769 H 3586.87 0.953061 -4.10481 0
M  V30 39770 H 3585.59 1.40629 -2.94773 0
M  V30 39771 H 3584.25 -0.619719 -3.61324 0
M  V30 39772 H 3583.9 1.56382 -4.78073 0
M  V30 39773 H 3583.6 0.188818 -5.87297 0
M  V30 39774 H 3585.12 1.11201 -6.00389 0
M  V30 39775 H 3586.54 -1.12695 -5.62115 0
M  V30 39776 H 3584.94 -1.91538 -5.68712 0
M  V30 39777 H 3586.01 -2.22565 -4.30805 0
M  V30 39778 N 3587.35 1.46186 -0.588837 0
M  V30 39779 C 3588.31 2.28827 0.130763 0
M  V30 39780 C 3589.31 1.38733 0.813013 0
M  V30 39781 O 3590.5 1.61047 0.664033 0
M  V30 39782 C 3587.63 3.19277 1.19478 0
M  V30 39783 H 3588.83 2.93927 -0.595565 0
M  V30 39784 H 3586.38 1.52398 -0.347065 0
M  V30 39785 H 3587.11 2.58937 1.95249 0
M  V30 39786 H 3586.9 3.85618 0.710009 0
M  V30 39787 H 3588.39 3.81462 1.69931 0
M  V30 39788 N 3588.83 0.32695 1.54171 0
M  V30 39789 C 3590.24 -0.160414 1.8601 0
M  V30 39790 C 3590.59 -1.51347 1.24854 0
M  V30 39791 O 3589.71 -2.0914 0.555841 0
M  V30 39792 C 3590.31 -0.297849 3.37488 0
M  V30 39793 C 3588.87 -0.729436 3.69264 0
M  V30 39794 C 3588.01 0.146826 2.76911 0
M  V30 39795 H 3590.97 0.54712 1.48971 0
M  V30 39796 H 3590.99 -1.12819 3.6339 0
M  V30 39797 H 3590.5 0.687074 3.8197 0
M  V30 39798 H 3588.6 -1.72398 3.30317 0
M  V30 39799 H 3588.71 -0.530836 4.7615 0
M  V30 39800 H 3587.08 -0.378167 2.51877 0
M  V30 39801 H 3587.86 1.12858 3.24219 0
M  V30 39802 N 3590.3 -1.57503 0.0551955 0
M  V30 39803 C 3591.55 -1.92468 -0.616466 0
M  V30 39804 C 3591.87 -0.934582 -1.71145 0
M  V30 39805 O 3591.14 0.0199305 -1.9589 0
M  V30 39806 H 3589.72 -0.710483 -0.230701 0
M  V30 39807 H 3592.39 -1.94594 0.109145 0
M  V30 39808 H 3591.48 -2.93818 -1.05249 0
M  V30 39809 N 3591.78 0.218225 -1.56082 0
M  V30 39810 C 3592.71 1.2736 -1.95708 0
M  V30 39811 C 3593.69 1.48712 -0.825757 0
M  V30 39812 O 3594.88 1.60839 -1.08832 0
M  V30 39813 C 3592.01 2.62271 -2.27665 0
M  V30 39814 C 3590.96 2.5557 -3.43319 0
M  V30 39815 C 3590.29 3.94541 -3.6089 0
M  V30 39816 C 3591.59 2.10067 -4.78194 0
M  V30 39817 H 3593.28 0.944409 -2.84115 0
M  V30 39818 H 3590.83 0.452858 -1.36694 0
M  V30 39819 H 3592.78 3.36263 -2.53978 0
M  V30 39820 H 3591.51 2.96884 -1.36115 0
M  V30 39821 H 3590.16 1.84035 -3.1706 0
M  V30 39822 H 3589.81 4.26468 -2.6671 0
M  V30 39823 H 3589.51 3.90938 -4.38681 0
M  V30 39824 H 3591.04 4.7019 -3.89555 0
M  V30 39825 H 3592.45 2.73805 -5.0369 0
M  V30 39826 H 3590.85 2.17517 -5.59291 0
M  V30 39827 H 3591.92 1.05306 -4.73327 0
M  V30 39828 N 3593.26 1.4995 0.485059 0
M  V30 39829 C 3594.49 1.63973 1.26176 0
M  V30 39830 C 3594.9 0.317441 1.86112 0
M  V30 39831 O 3594.26 -0.699008 1.68583 0
M  V30 39832 C 3594.31 2.7205 2.38057 0
M  V30 39833 O 3594.03 3.99152 1.80581 0
M  V30 39834 C 3595.53 2.96922 3.29169 0
M  V30 39835 H 3592.75 0.551571 0.382113 0
M  V30 39836 H 3595.3 1.96086 0.580573 0
M  V30 39837 H 3593.45 2.42671 3.01976 0
M  V30 39838 H 3593.87 4.58811 2.54151 0
M  V30 39839 H 3595.34 3.7624 4.03915 0
M  V30 39840 H 3595.82 2.0745 3.87119 0
M  V30 39841 H 3596.42 3.27779 2.71 0
M  V30 39842 N 3594.74 -0.737255 1.39292 0
M  V30 39843 C 3595.97 -1.5265 1.39662 0
M  V30 39844 C 3596.38 -1.88798 -0.0094494 0
M  V30 39845 O 3595.74 -1.53941 -0.980222 0
M  V30 39846 C 3595.79 -2.81548 2.26745 0
M  V30 39847 O 3595.51 -2.46936 3.61876 0
M  V30 39848 C 3597.01 -3.75589 2.35473 0
M  V30 39849 H 3594.23 -0.471806 0.477117 0
M  V30 39850 H 3596.78 -0.911173 1.83079 0
M  V30 39851 H 3594.93 -3.39418 1.86747 0
M  V30 39852 H 3595.35 -3.29721 4.07902 0
M  V30 39853 H 3596.82 -4.62935 3.00658 0
M  V30 39854 H 3597.3 -4.1718 1.37321 0
M  V30 39855 H 3597.9 -3.23639 2.75931 0
M  V30 39856 N 3596.22 -1.24431 -0.967199 0
M  V30 39857 C 3597.47 -1.07832 -1.70456 0
M  V30 39858 C 3597.78 0.382746 -1.91819 0
M  V30 39859 O 3598.99 0.668936 -2.6313 0
M  V30 39860 C 3597.44 -1.88131 -3.06814 0
M  V30 39861 C 3597.05 -3.3865 -2.93292 0
M  V30 39862 C 3598.79 -1.80063 -3.84419 0
M  V30 39863 C 3596.7 -4.11291 -4.24963 0
M  V30 39864 H 3595.63 -0.399908 -0.63921 0
M  V30 39865 H 3598.28 -1.48516 -1.07773 0
M  V30 39866 H 3596.66 -1.40261 -3.70328 0
M  V30 39867 H 3597.84 -3.94104 -2.38787 0
M  V30 39868 H 3596.15 -3.47675 -2.29152 0
M  V30 39869 H 3598.75 -2.31637 -4.81921 0
M  V30 39870 H 3599.09 -0.765979 -4.09192 0
M  V30 39871 H 3599.63 -2.25616 -3.27632 0
M  V30 39872 H 3596.36 -5.15117 -4.05382 0
M  V30 39873 H 3595.88 -3.60623 -4.79282 0
M  V30 39874 H 3597.56 -4.18317 -4.93579 0
M  V30 39875 N 3597.7 1.16795 -1.05814 0
M  V30 39876 C 3598.94 1.86839 -0.770431 0
M  V30 39877 C 3599.26 1.81811 0.704954 0
M  V30 39878 O 3598.53 1.24834 1.50974 0
M  V30 39879 H 3597.11 0.691726 -0.282001 0
M  V30 39880 H 3599.78 1.41658 -1.33862 0
M  V30 39881 H 3598.87 2.9241 -1.09099 0
M  V30 39882 N 3599.17 0.840037 1.33346 0
M  V30 39883 C 3600.14 0.279304 2.27492 0
M  V30 39884 C 3601.14 -0.552642 1.51005 0
M  V30 39885 O 3602.33 -0.366265 1.70306 0
M  V30 39886 C 3599.46 -0.606408 3.35463 0
M  V30 39887 H 3600.65 1.11006 2.78599 0
M  V30 39888 H 3598.2 0.613213 1.43769 0
M  V30 39889 H 3598.94 -1.45955 2.89599 0
M  V30 39890 H 3598.72 -0.01112 3.92098 0
M  V30 39891 H 3600.21 -0.991981 4.05647 0
M  V30 39892 N 3600.65 -1.45872 0.596582 0
M  V30 39893 C 3601.88 -2.07197 0.091683 0
M  V30 39894 C 3602.3 -1.44015 -1.21002 0
M  V30 39895 O 3601.66 -0.528875 -1.73415 0
M  V30 39896 C 3601.71 -3.60571 -0.0460823 0
M  V30 39897 O 3600.81 -3.97483 -1.09912 0
M  V30 39898 H 3600.15 -0.660397 0.0690771 0
M  V30 39899 H 3602.68 -1.87297 0.823467 0
M  V30 39900 H 3602.69 -4.07247 -0.247828 0
M  V30 39901 H 3601.37 -4.05946 0.904452 0
M  V30 39902 H 3599.94 -3.62495 -0.874724 0
M  V30 39903 N 3602.13 -0.335122 -1.53996 0
M  V30 39904 C 3603.54 0.150547 -1.86092 0
M  V30 39905 C 3603.89 1.50683 -1.25655 0
M  V30 39906 O 3603.02 2.08842 -0.566924 0
M  V30 39907 C 3603.61 0.279947 -3.37641 0
M  V30 39908 C 3602.17 0.709842 -3.69646 0
M  V30 39909 C 3601.32 -0.16151 -2.76829 0
M  V30 39910 H 3604.27 -0.555012 -1.48679 0
M  V30 39911 H 3604.29 1.1089 -3.63983 0
M  V30 39912 H 3603.8 -0.707321 -3.816 0
M  V30 39913 H 3601.9 1.70644 -3.31227 0
M  V30 39914 H 3602.02 0.505578 -4.76425 0
M  V30 39915 H 3600.38 0.364804 -2.52074 0
M  V30 39916 H 3601.16 -1.14576 -3.23616 0
M  V30 39917 N 3603.61 1.57472 -0.0635475 0
M  V30 39918 C 3604.84 1.97495 0.616701 0
M  V30 39919 C 3605.25 0.941596 1.63644 0
M  V30 39920 O 3604.61 -0.0727448 1.82355 0
M  V30 39921 C 3604.66 3.376 1.29262 0
M  V30 39922 O 3604.38 4.36975 0.313705 0
M  V30 39923 C 3605.88 3.92452 2.06147 0
M  V30 39924 H 3603.1 0.649695 0.167741 0
M  V30 39925 H 3605.64 2.04064 -0.133511 0
M  V30 39926 H 3603.8 3.32143 1.99398 0
M  V30 39927 H 3604.21 5.184 0.797632 0
M  V30 39928 H 3605.69 4.92728 2.48844 0
M  V30 39929 H 3606.16 3.28547 2.91468 0
M  V30 39930 H 3606.77 4.01283 1.40896 0
M  V30 39931 N 3605.09 -0.209945 1.56195 0
M  V30 39932 C 3606.02 -1.28395 1.89862 0
M  V30 39933 C 3607.03 -1.42464 0.787903 0
M  V30 39934 O 3608.22 -1.43154 1.06626 0
M  V30 39935 C 3605.32 -2.65808 2.10236 0
M  V30 39936 C 3604.49 -2.73539 3.41314 0
M  V30 39937 C 3603.55 -3.92046 3.5098 0
M  V30 39938 O 3602.58 -3.79841 4.23921 0
M  V30 39939 N 3603.78 -5.06859 2.82974 0
M  V30 39940 H 3606.54 -0.998361 2.82582 0
M  V30 39941 H 3604.11 -0.399936 1.56883 0
M  V30 39942 H 3606.1 -3.43488 2.14005 0
M  V30 39943 H 3604.67 -2.86918 1.24085 0
M  V30 39944 H 3603.89 -1.82247 3.49542 0
M  V30 39945 H 3605.18 -2.75682 4.27641 0
M  V30 39946 H 3604.57 -5.19672 2.23513 0
M  V30 39947 H 3603.13 -5.82539 2.9239 0
M  V30 39948 N 3606.56 -1.50205 -0.4771 0
M  V30 39949 C 3607.79 -1.6464 -1.25304 0
M  V30 39950 C 3608.21 -0.327307 -1.85941 0
M  V30 39951 O 3607.56 0.690058 -1.68951 0
M  V30 39952 C 3607.61 -2.73309 -2.36611 0
M  V30 39953 O 3607.34 -4.00104 -1.78462 0
M  V30 39954 C 3608.84 -2.98664 -3.2759 0
M  V30 39955 H 3606.06 -0.55359 -0.379182 0
M  V30 39956 H 3608.6 -1.96391 -0.570166 0
M  V30 39957 H 3606.76 -2.44269 -3.00685 0
M  V30 39958 H 3607.17 -4.60153 -2.51714 0
M  V30 39959 H 3608.64 -3.78377 -4.01914 0
M  V30 39960 H 3609.12 -2.095 -3.86014 0
M  V30 39961 H 3609.73 -3.29211 -2.69258 0
M  V30 39962 N 3608.04 0.729857 -1.39681 0
M  V30 39963 C 3609.29 1.49172 -1.37388 0
M  V30 39964 C 3609.62 1.94179 0.0285497 0
M  V30 39965 O 3608.9 1.67153 0.994487 0
M  V30 39966 C 3609.18 2.72781 -2.3508 0
M  V30 39967 C 3609.03 2.3376 -3.84286 0
M  V30 39968 C 3610.35 3.74897 -2.30522 0
M  V30 39969 H 3607.47 0.541111 -0.500368 0
M  V30 39970 H 3610.11 0.834122 -1.70711 0
M  V30 39971 H 3608.26 3.2889 -2.06793 0
M  V30 39972 H 3609.93 1.83243 -4.23344 0
M  V30 39973 H 3608.18 1.65928 -4.00812 0
M  V30 39974 H 3608.85 3.22301 -4.48136 0
M  V30 39975 H 3611.32 3.28384 -2.55544 0
M  V30 39976 H 3610.2 4.59045 -3.00947 0
M  V30 39977 H 3610.46 4.22184 -1.31198 0
M  V30 39978 N 3609.52 1.24942 0.960587 0
M  V30 39979 C 3610.75 1.1206 1.73926 0
M  V30 39980 C 3611.16 -0.326197 1.85961 0
M  V30 39981 O 3610.52 -1.2247 1.35305 0
M  V30 39982 C 3610.57 1.76272 3.15611 0
M  V30 39983 O 3610.29 3.15296 3.04171 0
M  V30 39984 C 3611.79 1.69093 4.09784 0
M  V30 39985 H 3609.01 0.391159 0.545193 0
M  V30 39986 H 3611.56 1.65188 1.20553 0
M  V30 39987 H 3609.71 1.27129 3.65947 0
M  V30 39988 H 3610.13 3.46775 3.93507 0
M  V30 39989 H 3611.6 2.18692 5.06831 0
M  V30 39990 H 3612.08 0.653529 4.34311 0
M  V30 39991 H 3612.68 2.17696 3.65361 0
M  V30 39992 N 3611 -1.16233 1.06432 0
M  V30 39993 C 3611.93 -2.22834 0.697644 0
M  V30 39994 C 3612.91 -1.67241 -0.310534 0
M  V30 39995 O 3614.09 -1.93313 -0.185351 0
M  V30 39996 C 3611.22 -3.47197 0.0847707 0
M  V30 39997 C 3610.18 -4.15691 1.01908 0
M  V30 39998 C 3609.5 -5.34021 0.269433 0
M  V30 39999 C 3610.8 -4.66512 2.3487 0
M  V30 40000 H 3612.5 -2.53762 1.58888 0
M  V30 40001 H 3610.04 -1.21973 0.765409 0
M  V30 40002 H 3612 -4.21 -0.183626 0
M  V30 40003 H 3610.72 -3.15573 -0.841484 0
M  V30 40004 H 3609.38 -3.43816 1.27224 0
M  V30 40005 H 3609.03 -4.98651 -0.659985 0
M  V30 40006 H 3608.73 -5.80788 0.892103 0
M  V30 40007 H 3610.25 -6.10599 0.00861508 0
M  V30 40008 H 3611.67 -5.31889 2.13932 0
M  V30 40009 H 3610.06 -5.23906 2.92647 0
M  V30 40010 H 3611.13 -3.82647 2.97841 0
M  V30 40011 N 3612.48 -0.847097 -1.32899 0
M  V30 40012 C 3613.72 -0.447451 -1.97802 0
M  V30 40013 C 3614.06 0.992671 -1.66912 0
M  V30 40014 O 3613.33 1.69533 -0.953345 0
M  V30 40015 C 3613.61 -0.678197 -3.53656 0
M  V30 40016 C 3613.47 -2.16619 -3.94203 0
M  V30 40017 C 3614.79 -0.129667 -4.39909 0
M  V30 40018 H 3611.9 -0.164047 -0.718511 0
M  V30 40019 H 3614.55 -1.06413 -1.57405 0
M  V30 40020 H 3612.7 -0.15329 -3.88197 0
M  V30 40021 H 3614.37 -2.75659 -3.69878 0
M  V30 40022 H 3612.61 -2.64758 -3.43636 0
M  V30 40023 H 3613.28 -2.27836 -5.02787 0
M  V30 40024 H 3615.76 -0.578444 -4.1206 0
M  V30 40025 H 3614.63 -0.320744 -5.47962 0
M  V30 40026 H 3614.9 0.967092 -4.31393 0
M  V30 40027 N 3613.95 1.45554 -0.604309 0
M  V30 40028 C 3615.18 2.06636 -0.104489 0
M  V30 40029 C 3615.6 1.44951 1.20974 0
M  V30 40030 O 3614.95 0.562499 1.73615 0
M  V30 40031 C 3615.01 3.61472 0.0451011 0
M  V30 40032 O 3614.73 4.20853 -1.21713 0
M  V30 40033 C 3616.23 4.39532 0.576762 0
M  V30 40034 H 3613.45 0.667613 -0.0673378 0
M  V30 40035 H 3615.99 1.8685 -0.831112 0
M  V30 40036 H 3614.15 3.80612 0.722037 0
M  V30 40037 H 3614.56 5.1399 -1.04471 0
M  V30 40038 H 3616.03 5.48387 0.630531 0
M  V30 40039 H 3616.51 4.09084 1.59835 0
M  V30 40040 H 3617.12 4.25249 -0.0660191 0
M  V30 40041 N 3615.43 0.343284 1.53816 0
M  V30 40042 C 3616.36 -0.547975 2.22553 0
M  V30 40043 C 3617.38 -1.06417 1.23204 0
M  V30 40044 O 3618.57 -0.974367 1.4956 0
M  V30 40045 C 3615.67 -1.76682 2.892 0
M  V30 40046 C 3614.84 -1.38596 4.14861 0
M  V30 40047 C 3613.9 -2.46445 4.64921 0
M  V30 40048 O 3612.92 -2.09764 5.29139 0
M  V30 40049 N 3614.13 -3.77694 4.40826 0
M  V30 40050 H 3616.89 0.0406977 2.99672 0
M  V30 40051 H 3614.45 0.167396 1.61032 0
M  V30 40052 H 3616.44 -2.48263 3.19606 0
M  V30 40053 H 3615.01 -2.26287 2.15668 0
M  V30 40054 H 3614.23 -0.500932 3.91004 0
M  V30 40055 H 3615.52 -1.10747 4.96601 0
M  V30 40056 H 3614.92 -4.10283 3.89467 0
M  V30 40057 H 3613.48 -4.45445 4.75838 0
M  V30 40058 N 3616.91 -1.57436 0.0718977 0
M  V30 40059 C 3618.32 -1.80925 -0.460752 0
M  V30 40060 C 3618.67 -0.985811 -1.69636 0
M  V30 40061 O 3617.8 -0.208357 -2.15395 0
M  V30 40062 C 3618.39 -3.28153 -0.842681 0
M  V30 40063 C 3616.95 -3.52488 -1.32019 0
M  V30 40064 C 3616.1 -2.75613 -0.305418 0
M  V30 40065 H 3619.05 -1.55885 0.297593 0
M  V30 40066 H 3619.07 -3.40208 -1.70408 0
M  V30 40067 H 3618.58 -3.88058 0.0568012 0
M  V30 40068 H 3616.68 -2.97887 -2.23817 0
M  V30 40069 H 3616.8 -4.61181 -1.29805 0
M  V30 40070 H 3615.16 -2.42375 -0.782716 0
M  V30 40071 H 3615.94 -3.38256 0.586338 0
M  V30 40072 N 3618.39 0.201658 -1.56305 0
M  V30 40073 C 3619.63 0.924429 -1.80505 0
M  V30 40074 C 3619.97 1.83181 -0.644865 0
M  V30 40075 O 3619.24 1.91234 0.354929 0
M  V30 40076 C 3619.53 1.74631 -3.14922 0
M  V30 40077 C 3619.38 0.864092 -4.41422 0
M  V30 40078 C 3620.7 2.7202 -3.45967 0
M  V30 40079 H 3617.82 0.334636 -0.656649 0
M  V30 40080 H 3620.46 0.192155 -1.89026 0
M  V30 40081 H 3618.61 2.37061 -3.07789 0
M  V30 40082 H 3620.28 0.255003 -4.60595 0
M  V30 40083 H 3618.52 0.170472 -4.33465 0
M  V30 40084 H 3619.19 1.47399 -5.31956 0
M  V30 40085 H 3621.67 2.19723 -3.53357 0
M  V30 40086 H 3620.55 3.26614 -4.41151 0
M  V30 40087 H 3620.81 3.50744 -2.6913 0
M  V30 40088 N 3619.87 1.50456 0.469128 0
M  V30 40089 C 3621.11 1.61783 1.22288 0
M  V30 40090 C 3621.45 0.318107 1.91577 0
M  V30 40091 O 3620.72 -0.680538 1.82206 0
M  V30 40092 C 3621 2.79947 2.26499 0
M  V30 40093 C 3620.86 4.19806 1.61501 0
M  V30 40094 C 3622.18 2.93668 3.27791 0
M  V30 40095 H 3619.29 0.588825 0.443231 0
M  V30 40096 H 3621.94 1.82848 0.516398 0
M  V30 40097 H 3620.09 2.62117 2.86752 0
M  V30 40098 H 3621.76 4.49231 1.0483 0
M  V30 40099 H 3620 4.23974 0.918088 0
M  V30 40100 H 3620.67 4.98419 2.3724 0
M  V30 40101 H 3623.15 3.09997 2.77562 0
M  V30 40102 H 3622.02 3.77968 3.98034 0
M  V30 40103 H 3622.29 2.04366 3.92029 0
M  V30 40104 N 3621.34 -0.722439 1.40066 0
M  V30 40105 C 3622.57 -1.5116 1.41273 0
M  V30 40106 C 3622.99 -1.88797 0.0105756 0
M  V30 40107 O 3622.34 -1.54972 -0.96384 0
M  V30 40108 C 3622.4 -2.79127 2.29718 0
M  V30 40109 O 3622.12 -2.43084 3.64475 0
M  V30 40110 C 3623.62 -3.73071 2.39443 0
M  V30 40111 H 3620.84 -0.466719 0.482094 0
M  V30 40112 H 3623.38 -0.891704 1.84035 0
M  V30 40113 H 3621.54 -3.37418 1.90336 0
M  V30 40114 H 3621.95 -3.25376 4.11377 0
M  V30 40115 H 3623.42 -4.5972 3.05551 0
M  V30 40116 H 3623.9 -4.157 1.41738 0
M  V30 40117 H 3624.51 -3.20694 2.79348 0
M  V30 40118 N 3622.82 -1.2545 -0.953947 0
M  V30 40119 C 3623.77 -1.05894 -2.05073 0
M  V30 40120 C 3624.74 0.0321253 -1.66069 0
M  V30 40121 O 3625.93 -0.125185 -1.90389 0
M  V30 40122 C 3623.07 -0.684451 -3.38244 0
M  V30 40123 C 3622.18 -1.85044 -3.90362 0
M  V30 40124 C 3621.31 -1.42025 -5.11862 0
M  V30 40125 C 3620.35 -2.55533 -5.5621 0
M  V30 40126 N 3619.49 -2.13284 -6.6892 0
M  V30 40127 H 3624.33 -1.99759 -2.21134 0
M  V30 40128 H 3621.87 -0.994761 -1.08365 0
M  V30 40129 H 3623.82 -0.448281 -4.14785 0
M  V30 40130 H 3622.45 0.217216 -3.22068 0
M  V30 40131 H 3621.51 -2.1999 -3.10336 0
M  V30 40132 H 3622.82 -2.70284 -4.19223 0
M  V30 40133 H 3621.97 -1.14377 -5.95821 0
M  V30 40134 H 3620.71 -0.538578 -4.84717 0
M  V30 40135 H 3619.72 -2.83924 -4.70815 0
M  V30 40136 H 3620.94 -3.44279 -5.85362 0
M  V30 40137 H 3618.89 -1.27534 -6.43484 0
M  V30 40138 H 3618.8 -2.92071 -6.97302 0
M  V30 40139 H 3620.07 -1.88814 -7.56287 0
M  V30 40140 N 3624.3 1.15667 -1.07047 0
M  V30 40141 C 3625.21 2.23933 -0.699371 0
M  V30 40142 C 3626.23 1.716 0.288006 0
M  V30 40143 O 3627.4 2.00944 0.135411 0
M  V30 40144 C 3624.47 3.46557 -0.0995384 0
M  V30 40145 C 3623.53 4.13894 -1.13976 0
M  V30 40146 C 3622.76 5.30664 -0.568453 0
M  V30 40147 O 3622.99 5.67059 0.616456 0
M  V30 40148 O 3621.92 5.8743 -1.31185 0
M  V30 40149 H 3625.75 2.58 -1.60217 0
M  V30 40150 H 3623.33 1.23329 -0.843223 0
M  V30 40151 H 3625.21 4.20756 0.232856 0
M  V30 40152 H 3623.89 3.14245 0.776628 0
M  V30 40153 H 3622.79 3.4163 -1.52446 0
M  V30 40154 H 3624.13 4.50278 -1.98772 0
M  V30 40155 N 3625.78 0.854133 1.32447 0
M  V30 40156 C 3627.01 0.471223 2.01462 0
M  V30 40157 C 3627.42 -0.931925 1.64197 0
M  V30 40158 O 3626.78 -1.60805 0.863023 0
M  V30 40159 C 3626.83 0.600085 3.56485 0
M  V30 40160 O 3626.55 1.94796 3.92411 0
M  V30 40161 C 3628.05 0.216114 4.42773 0
M  V30 40162 H 3625.27 0.185287 0.644911 0
M  V30 40163 H 3627.82 1.15093 1.69038 0
M  V30 40164 H 3625.97 -0.0318807 3.87387 0
M  V30 40165 H 3626.39 1.94436 4.87129 0
M  V30 40166 H 3627.86 0.357283 5.50843 0
M  V30 40167 H 3628.34 -0.843393 4.31026 0
M  V30 40168 H 3628.94 0.823132 4.17258 0
M  V30 40169 N 3627.26 -1.45231 0.61202 0
M  V30 40170 C 3628.22 -2.29006 -0.0943422 0
M  V30 40171 C 3629.22 -1.40009 -0.790839 0
M  V30 40172 O 3630.41 -1.62083 -0.638327 0
M  V30 40173 C 3627.54 -3.21137 -1.14384 0
M  V30 40174 H 3628.74 -2.92942 0.642251 0
M  V30 40175 H 3626.29 -1.51827 0.371266 0
M  V30 40176 H 3627.02 -2.6201 -1.91105 0
M  V30 40177 H 3626.81 -3.86699 -0.64857 0
M  V30 40178 H 3628.3 -3.84117 -1.63841 0
M  V30 40179 N 3628.74 -0.351436 -1.53632 0
M  V30 40180 C 3629.98 0.243696 -2.00222 0
M  V30 40181 C 3630.3 1.5102 -1.24307 0
M  V30 40182 O 3631.5 2.18306 -1.61415 0
M  V30 40183 C 3629.96 0.484807 -3.5662 0
M  V30 40184 C 3629.57 -0.766251 -4.41398 0
M  V30 40185 C 3631.31 1.03837 -4.11604 0
M  V30 40186 C 3629.22 -0.495503 -5.89321 0
M  V30 40187 H 3628.15 0.0948402 -0.748012 0
M  V30 40188 H 3630.8 -0.467988 -1.77432 0
M  V30 40189 H 3629.18 1.25739 -3.75507 0
M  V30 40190 H 3630.36 -1.54054 -4.34285 0
M  V30 40191 H 3628.67 -1.24201 -3.97446 0
M  V30 40192 H 3631.27 1.25602 -5.19739 0
M  V30 40193 H 3631.61 1.99628 -3.65314 0
M  V30 40194 H 3632.14 0.326294 -3.9646 0
M  V30 40195 H 3628.88 -1.42335 -6.3986 0
M  V30 40196 H 3628.4 0.240556 -5.99317 0
M  V30 40197 H 3630.08 -0.115698 -6.46897 0
M  V30 40198 N 3630.21 1.57396 -0.0802459 0
M  V30 40199 C 3631.44 1.98557 0.599145 0
M  V30 40200 C 3631.86 0.958583 1.61842 0
M  V30 40201 O 3631.22 -0.0747907 1.81146 0
M  V30 40202 C 3631.27 3.3873 1.23669 0
M  V30 40203 O 3630.37 3.38716 2.35256 0
M  V30 40204 H 3629.71 0.646048 0.153355 0
M  V30 40205 H 3632.24 2.03995 -0.157263 0
M  V30 40206 H 3632.25 3.761 1.58154 0
M  V30 40207 H 3630.93 4.13005 0.489874 0
M  V30 40208 H 3629.51 3.13125 2.02502 0
M  V30 40209 N 3631.69 -0.193366 1.56409 0
M  V30 40210 C 3632.64 -1.23964 1.94683 0
M  V30 40211 C 3633.61 -1.45142 0.80766 0
M  V30 40212 O 3634.79 -1.58246 1.06596 0
M  V30 40213 C 3631.93 -2.57897 2.29311 0
M  V30 40214 C 3631.05 -2.44283 3.563 0
M  V30 40215 C 3630.18 -3.70931 3.80242 0
M  V30 40216 C 3629.22 -3.52158 5.00651 0
M  V30 40217 N 3628.36 -4.70821 5.20837 0
M  V30 40218 H 3633.2 -0.906248 2.83886 0
M  V30 40219 H 3630.73 -0.436121 1.40486 0
M  V30 40220 H 3632.69 -3.35927 2.47404 0
M  V30 40221 H 3631.32 -2.89276 1.43246 0
M  V30 40222 H 3630.37 -1.57541 3.46244 0
M  V30 40223 H 3631.69 -2.26346 4.44487 0
M  V30 40224 H 3630.84 -4.57401 3.98583 0
M  V30 40225 H 3629.58 -3.91824 2.90388 0
M  V30 40226 H 3628.58 -2.64073 4.8223 0
M  V30 40227 H 3629.81 -3.32708 5.92015 0
M  V30 40228 H 3627.76 -4.91975 4.33932 0
M  V30 40229 H 3627.67 -4.55716 6.03207 0
M  V30 40230 H 3628.94 -5.58638 5.43639 0
M  V30 40231 N 3633.17 -1.50702 -0.461142 0
M  V30 40232 C 3634.1 -1.73226 -1.56573 0
M  V30 40233 C 3635.08 -0.581429 -1.59854 0
M  V30 40234 O 3636.27 -0.821633 -1.75963 0
M  V30 40235 C 3633.4 -1.83553 -2.94832 0
M  V30 40236 C 3632.35 -2.9882 -3.06416 0
M  V30 40237 C 3631.68 -2.94301 -4.4642 0
M  V30 40238 C 3632.98 -4.39175 -2.82706 0
M  V30 40239 H 3634.67 -2.65712 -1.37977 0
M  V30 40240 H 3632.22 -1.27863 -0.662339 0
M  V30 40241 H 3634.17 -1.97893 -3.72043 0
M  V30 40242 H 3632.89 -0.876962 -3.14606 0
M  V30 40243 H 3631.55 -2.84146 -2.31639 0
M  V30 40244 H 3631.2 -1.9627 -4.63127 0
M  V30 40245 H 3630.9 -3.7169 -4.55105 0
M  V30 40246 H 3632.42 -3.10704 -5.25638 0
M  V30 40247 H 3633.84 -4.54323 -3.49662 0
M  V30 40248 H 3632.23 -5.18089 -3.02826 0
M  V30 40249 H 3633.3 -4.50856 -1.78484 0
M  V30 40250 N 3634.65 0.715001 -1.40447 0
M  V30 40251 C 3635.56 1.8592 -1.43077 0
M  V30 40252 C 3636.57 1.7097 -0.323324 0
M  V30 40253 O 3637.75 1.93225 -0.568 0
M  V30 40254 C 3634.81 3.21722 -1.29211 0
M  V30 40255 C 3633.88 3.48922 -2.50103 0
M  V30 40256 C 3633.11 4.78246 -2.3689 0
M  V30 40257 O 3633.33 5.53379 -1.38301 0
M  V30 40258 O 3632.27 5.05795 -3.26275 0
M  V30 40259 H 3636.09 1.86657 -2.39568 0
M  V30 40260 H 3633.68 0.865501 -1.21776 0
M  V30 40261 H 3635.56 4.02839 -1.23688 0
M  V30 40262 H 3634.23 3.21711 -0.358263 0
M  V30 40263 H 3633.14 2.67813 -2.61203 0
M  V30 40264 H 3634.47 3.53731 -3.42251 0
M  V30 40265 N 3636.13 1.25954 0.947281 0
M  V30 40266 C 3637.06 1.01301 2.04483 0
M  V30 40267 C 3638.04 -0.0602114 1.62488 0
M  V30 40268 O 3639.22 0.0809568 1.88326 0
M  V30 40269 C 3636.35 0.532792 3.34483 0
M  V30 40270 C 3635.39 1.59765 3.95446 0
M  V30 40271 S 3636.23 3.18491 4.30492 0
M  V30 40272 C 3637.38 2.72223 5.636 0
M  V30 40273 H 3637.62 1.94232 2.25081 0
M  V30 40274 H 3635.15 1.09566 1.08788 0
M  V30 40275 H 3637.11 0.262381 4.09661 0
M  V30 40276 H 3635.77 -0.376137 3.1184 0
M  V30 40277 H 3634.96 1.21251 4.89197 0
M  V30 40278 H 3634.56 1.81912 3.26778 0
M  V30 40279 H 3636.85 2.16307 6.42042 0
M  V30 40280 H 3637.8 3.64643 6.06993 0
M  V30 40281 H 3638.21 2.11983 5.23186 0
M  V30 40282 N 3637.6 -1.15097 1.07659 0
M  V30 40283 C 3639.02 -1.67539 0.823858 0
M  V30 40284 C 3639.37 -1.851 -0.650569 0
M  V30 40285 O 3638.49 -1.55659 -1.5033 0
M  V30 40286 C 3639.09 -3.04328 1.48895 0
M  V30 40287 C 3637.65 -3.53835 1.28365 0
M  V30 40288 C 3636.79 -2.29487 1.55663 0
M  V30 40289 H 3639.74 -0.992677 1.23821 0
M  V30 40290 H 3639.76 -3.69411 0.911913 0
M  V30 40291 H 3639.28 -2.91515 2.56204 0
M  V30 40292 H 3637.38 -3.71884 0.230929 0
M  V30 40293 H 3637.49 -4.35082 2.00601 0
M  V30 40294 H 3635.85 -2.35183 0.977796 0
M  V30 40295 H 3636.64 -2.19258 2.6416 0
M  V30 40296 N 3639.08 -0.861145 -1.31993 0
M  V30 40297 C 3640.31 -0.481048 -2.01744 0
M  V30 40298 C 3640.73 0.916498 -1.64262 0
M  V30 40299 O 3640.09 1.60318 -0.846631 0
M  V30 40300 C 3640.14 -0.635196 -3.54961 0
M  V30 40301 O 3639.24 0.329265 -4.11083 0
M  V30 40302 H 3638.58 -0.192463 -0.635495 0
M  V30 40303 H 3641.11 -1.16213 -1.68392 0
M  V30 40304 H 3641.12 -0.52516 -4.04606 0
M  V30 40305 H 3639.8 -1.65428 -3.81584 0
M  V30 40306 H 3638.38 0.174924 -3.72489 0
M  V30 40307 N 3640.56 1.44905 -0.619713 0
M  V30 40308 C 3641.79 2.07025 -0.124635 0
M  V30 40309 C 3642.21 1.45921 1.18695 0
M  V30 40310 O 3641.57 0.556396 1.72551 0
M  V30 40311 C 3641.62 3.60598 -0.0112872 0
M  V30 40312 O 3640.72 3.99182 1.03575 0
M  V30 40313 H 3640.06 0.659215 -0.0795747 0
M  V30 40314 H 3642.59 1.85963 -0.85316 0
M  V30 40315 H 3642.6 4.07589 0.183008 0
M  V30 40316 H 3641.28 4.04456 -0.96892 0
M  V30 40317 H 3639.85 3.63841 0.816944 0
M  V30 40318 N 3642.04 0.359579 1.53443 0
M  V30 40319 C 3642.97 -0.48176 2.28476 0
M  V30 40320 C 3643.95 -1.08905 1.30666 0
M  V30 40321 O 3645.13 -1.10743 1.59529 0
M  V30 40322 C 3642.26 -1.62471 3.06953 0
M  V30 40323 C 3641.22 -1.14497 4.12401 0
M  V30 40324 C 3640.54 -2.37769 4.78926 0
M  V30 40325 C 3641.84 -0.233983 5.21776 0
M  V30 40326 H 3643.54 0.144214 2.99052 0
M  V30 40327 H 3641.08 0.0707999 1.43826 0
M  V30 40328 H 3643.04 -2.21987 3.58189 0
M  V30 40329 H 3641.76 -2.27783 2.34057 0
M  V30 40330 H 3640.42 -0.572525 3.62102 0
M  V30 40331 H 3640.07 -3.01523 4.02607 0
M  V30 40332 H 3639.77 -2.06344 5.50178 0
M  V30 40333 H 3641.29 -2.97982 5.32953 0
M  V30 40334 H 3642.71 -0.736448 5.6855 0
M  V30 40335 H 3641.1 -0.0108832 6.00099 0
M  V30 40336 H 3642.17 0.725519 4.79442 0
M  V30 40337 N 3643.52 -1.57351 0.0885919 0
M  V30 40338 C 3644.45 -2.09309 -0.909118 0
M  V30 40339 C 3645.43 -1.00211 -1.28049 0
M  V30 40340 O 3646.61 -1.27664 -1.38687 0
M  V30 40341 C 3643.74 -2.56469 -2.21227 0
M  V30 40342 C 3642.78 -3.77163 -1.99124 0
M  V30 40343 S 3643.62 -5.2106 -1.23519 0
M  V30 40344 C 3644.77 -5.71564 -2.55079 0
M  V30 40345 H 3645.01 -2.93608 -0.467069 0
M  V30 40346 H 3642.54 -1.53897 -0.124554 0
M  V30 40347 H 3644.5 -2.84298 -2.96116 0
M  V30 40348 H 3643.16 -1.72407 -2.62554 0
M  V30 40349 H 3642.35 -4.08207 -2.95607 0
M  V30 40350 H 3641.95 -3.49793 -1.32365 0
M  V30 40351 H 3644.25 -5.79434 -3.51088 0
M  V30 40352 H 3645.19 -6.70177 -2.28622 0
M  V30 40353 H 3645.6 -4.99463 -2.63053 0
M  V30 40354 N 3644.99 0.185069 -1.5651 0
M  V30 40355 C 3645.92 1.2318 -1.98365 0
M  V30 40356 C 3646.91 1.46927 -0.857115 0
M  V30 40357 O 3648.09 1.58495 -1.12219 0
M  V30 40358 C 3645.22 2.57383 -2.33177 0
M  V30 40359 C 3644.17 2.4823 -3.48663 0
M  V30 40360 C 3643.5 3.86797 -3.69178 0
M  V30 40361 C 3644.8 1.99876 -4.82542 0
M  V30 40362 H 3646.49 0.883932 -2.86054 0
M  V30 40363 H 3644.04 0.423762 -1.37624 0
M  V30 40364 H 3645.99 3.308 -2.61054 0
M  V30 40365 H 3644.72 2.9393 -1.42382 0
M  V30 40366 H 3643.38 1.77268 -3.20892 0
M  V30 40367 H 3643.02 4.20714 -2.75696 0
M  V30 40368 H 3642.72 3.81545 -4.46875 0
M  V30 40369 H 3644.25 4.61822 -3.99441 0
M  V30 40370 H 3645.66 2.63059 -5.09385 0
M  V30 40371 H 3644.06 2.05604 -5.63779 0
M  V30 40372 H 3645.13 0.952419 -4.75455 0
M  V30 40373 N 3646.47 1.50945 0.453144 0
M  V30 40374 C 3647.38 1.73932 1.57432 0
M  V30 40375 C 3648.4 0.622963 1.62466 0
M  V30 40376 O 3649.57 0.903397 1.80002 0
M  V30 40377 C 3646.64 1.845 2.93531 0
M  V30 40378 C 3645.7 3.08305 2.98741 0
M  V30 40379 C 3644.93 3.1836 4.28349 0
M  V30 40380 O 3645.16 2.34747 5.19856 0
M  V30 40381 O 3644.09 4.11225 4.3952 0
M  V30 40382 H 3647.92 2.69009 1.40954 0
M  V30 40383 H 3645.5 1.35256 0.634521 0
M  V30 40384 H 3647.38 1.93528 3.74332 0
M  V30 40385 H 3646.06 0.926098 3.10169 0
M  V30 40386 H 3644.97 3.04766 2.16952 0
M  V30 40387 H 3646.3 3.99833 2.87044 0
M  V30 40388 N 3647.95 -0.707543 1.40825 0
M  V30 40389 C 3649.2 -1.46968 1.39744 0
M  V30 40390 C 3649.53 -1.942 0.00234607 0
M  V30 40391 O 3648.8 -1.68714 -0.967768 0
M  V30 40392 C 3649.09 -2.69007 2.3939 0
M  V30 40393 C 3648.94 -2.27617 3.87957 0
M  V30 40394 C 3650.26 -3.71182 2.36457 0
M  V30 40395 H 3647.38 -0.533082 0.508913 0
M  V30 40396 H 3650.02 -0.806857 1.72017 0
M  V30 40397 H 3648.17 -3.25559 2.11999 0
M  V30 40398 H 3649.84 -1.76485 4.26205 0
M  V30 40399 H 3648.09 -1.5953 4.03401 0
M  V30 40400 H 3648.76 -3.15131 4.53207 0
M  V30 40401 H 3651.23 -3.24277 2.60736 0
M  V30 40402 H 3650.11 -4.54199 3.08212 0
M  V30 40403 H 3650.37 -4.20044 1.37898 0
M  V30 40404 N 3649.43 -1.26454 -0.940588 0
M  V30 40405 C 3650.84 -1.10936 -1.50167 0
M  V30 40406 C 3651.19 0.310133 -1.93733 0
M  V30 40407 O 3650.32 1.20169 -1.79968 0
M  V30 40408 C 3650.91 -2.00768 -2.72906 0
M  V30 40409 C 3649.47 -1.89394 -3.2528 0
M  V30 40410 C 3648.62 -1.94084 -1.98058 0
M  V30 40411 H 3651.57 -1.39535 -0.756014 0
M  V30 40412 H 3651.59 -1.55592 -3.47234 0
M  V30 40413 H 3651.1 -3.04073 -2.41166 0
M  V30 40414 H 3649.2 -0.890255 -3.61808 0
M  V30 40415 H 3649.31 -2.74957 -3.92346 0
M  V30 40416 H 3647.68 -1.38144 -2.13982 0
M  V30 40417 H 3648.46 -2.99019 -1.68648 0
M  V30 40418 N 3650.91 1.14525 -1.08268 0
M  V30 40419 C 3651.87 2.17757 -0.715155 0
M  V30 40420 C 3652.87 1.58855 0.249322 0
M  V30 40421 O 3654.06 1.74176 0.0290539 0
M  V30 40422 C 3651.19 3.40855 -0.0556349 0
M  V30 40423 H 3652.38 2.51785 -1.62925 0
M  V30 40424 H 3649.94 1.29148 -0.880369 0
M  V30 40425 H 3650.67 3.12405 0.870257 0
M  V30 40426 H 3650.46 3.84871 -0.74945 0
M  V30 40427 H 3651.95 4.17183 0.186519 0
M  V30 40428 N 3652.39 0.868133 1.31534 0
M  V30 40429 C 3653.32 0.338261 2.31037 0
M  V30 40430 C 3654.3 -0.569863 1.6027 0
M  V30 40431 O 3655.48 -0.487272 1.87987 0
M  V30 40432 C 3652.61 -0.462693 3.44204 0
M  V30 40433 C 3651.57 0.352175 4.26549 0
M  V30 40434 C 3650.89 -0.57435 5.31606 0
M  V30 40435 C 3652.19 1.58525 4.97662 0
M  V30 40436 H 3653.89 1.16971 2.75605 0
M  V30 40437 H 3651.43 0.563914 1.32499 0
M  V30 40438 H 3653.38 -0.843894 4.12864 0
M  V30 40439 H 3652.11 -1.32764 2.98398 0
M  V30 40440 H 3650.77 0.7153 3.59554 0
M  V30 40441 H 3650.42 -1.43652 4.82051 0
M  V30 40442 H 3650.12 -0.0330403 5.87591 0
M  V30 40443 H 3651.64 -0.952435 6.03126 0
M  V30 40444 H 3653.05 1.27559 5.58929 0
M  V30 40445 H 3651.45 2.06549 5.63434 0
M  V30 40446 H 3652.52 2.33909 4.24752 0
M  V30 40447 N 3653.86 -1.44574 0.627389 0
M  V30 40448 C 3654.83 -2.29093 -0.0700478 0
M  V30 40449 C 3655.83 -1.40839 -0.775944 0
M  V30 40450 O 3657.02 -1.62751 -0.6211 0
M  V30 40451 C 3654.15 -3.22332 -1.10971 0
M  V30 40452 H 3655.34 -2.92245 0.673286 0
M  V30 40453 H 3652.89 -1.51424 0.387349 0
M  V30 40454 H 3653.63 -2.64022 -1.88315 0
M  V30 40455 H 3653.41 -3.87365 -0.607519 0
M  V30 40456 H 3654.9 -3.85833 -1.59757 0
M  V30 40457 N 3655.34 -0.367711 -1.5325 0
M  V30 40458 C 3656.62 0.277808 -1.93617 0
M  V30 40459 C 3657 1.66211 -1.30143 0
M  V30 40460 O 3656.35 2.23795 -0.461316 0
M  V30 40461 C 3656.56 0.325876 -3.47475 0
M  V30 40462 C 3657.9 0.565202 -4.20821 0
M  V30 40463 O 3658.93 0.406995 -3.53867 0
M  V30 40464 O 3657.79 0.873427 -5.39475 0
M  V30 40465 H 3654.88 0.167144 -0.809933 0
M  V30 40466 H 3657.43 -0.42065 -1.64404 0
M  V30 40467 H 3656.2 -0.644609 -3.85954 0
M  V30 40468 H 3655.82 1.07014 -3.82928 0
M  V30 40469 N 3656.82 1.57302 -0.0969353 0
M  V30 40470 C 3658.07 1.94419 0.566339 0
M  V30 40471 C 3658.39 0.978799 1.68077 0
M  V30 40472 O 3657.65 -0.001287 1.957 0
M  V30 40473 C 3657.95 3.38063 1.15966 0
M  V30 40474 C 3657.61 4.50584 0.16884 0
M  V30 40475 C 3656.28 4.81088 -0.103671 0
M  V30 40476 C 3658.63 5.18722 -0.507604 0
M  V30 40477 C 3655.96 5.77058 -1.05929 0
M  V30 40478 C 3658.31 6.15718 -1.45171 0
M  V30 40479 C 3656.97 6.44626 -1.73243 0
M  V30 40480 H 3656.24 0.711431 0.207238 0
M  V30 40481 H 3658.89 1.90716 -0.173159 0
M  V30 40482 H 3657.19 3.38354 1.97545 0
M  V30 40483 H 3658.89 3.64084 1.68059 0
M  V30 40484 H 3655.48 4.26809 0.391426 0
M  V30 40485 H 3659.67 4.9533 -0.310214 0
M  V30 40486 H 3654.92 5.9777 -1.28377 0
M  V30 40487 H 3659.1 6.6761 -1.98167 0
M  V30 40488 H 3656.72 7.188 -2.47449 0
M  V30 40489 N 3658.3 -0.176766 1.56606 0
M  V30 40490 C 3659.25 -1.23829 1.96899 0
M  V30 40491 C 3660.24 -1.46125 0.856956 0
M  V30 40492 O 3661.45 -1.4677 1.04205 0
M  V30 40493 H 3657.82 -0.41613 0.626371 0
M  V30 40494 H 3659.79 -0.871557 2.85388 0
M  V30 40495 C 3658.54 -2.57141 2.34038 0
M  V30 40496 H 3657.86 -2.40805 3.19144 0
M  V30 40497 H 3659.3 -3.30117 2.6608 0
M  V30 40498 C 3657.76 -3.15493 1.18176 0
M  V30 40499 O 3658.29 -3.98982 0.466518 0
M  V30 40500 N 3656.5 -2.74503 0.953753 0
M  V30 40501 H 3656.05 -2.06712 1.53713 0
M  V30 40502 H 3656 -3.13882 0.180362 0
M  V30 40503 N 3659.78 -1.51183 -0.445132 0
M  V30 40504 C 3661.19 -1.39185 -0.780999 0
M  V30 40505 C 3661.39 -0.468111 -1.95987 0
M  V30 40506 O 3660.45 0.0796379 -2.52374 0
M  V30 40507 C 3661.76 -2.81069 -1.06869 0
M  V30 40508 C 3663.31 -2.90165 -1.17359 0
M  V30 40509 C 3663.78 -4.32939 -1.49426 0
M  V30 40510 N 3665.27 -4.36009 -1.56366 0
M  V30 40511 C 3666.01 -5.43503 -1.82734 0
M  V30 40512 N 3665.51 -6.61169 -2.06947 0
M  V30 40513 N 3667.3 -5.30975 -1.84451 0
M  V30 40514 H 3659.45 -2.09799 0.331384 0
M  V30 40515 H 3661.71 -0.944107 0.0858268 0
M  V30 40516 H 3661.42 -3.50621 -0.275245 0
M  V30 40517 H 3661.29 -3.19917 -1.99833 0
M  V30 40518 H 3663.68 -2.20815 -1.95767 0
M  V30 40519 H 3663.76 -2.54825 -0.223135 0
M  V30 40520 H 3663.4 -5.02835 -0.715485 0
M  V30 40521 H 3663.33 -4.65786 -2.45664 0
M  V30 40522 H 3665.83 -3.51174 -1.39589 0
M  V30 40523 H 3666.14 -7.38889 -2.26414 0
M  V30 40524 H 3664.48 -6.64299 -2.04285 0
M  V30 40525 H 3667.67 -4.38037 -1.65049 0
M  V30 40526 H 3667.85 -6.14831 -2.04664 0
M  V30 40527 N 3661.25 0.700065 -1.41198 0
M  V30 40528 C 3662.22 1.79579 -1.42422 0
M  V30 40529 C 3663.22 1.57674 -0.315537 0
M  V30 40530 O 3664.41 1.6443 -0.575202 0
M  V30 40531 C 3661.54 3.17891 -1.23119 0
M  V30 40532 H 3662.73 1.79888 -2.39959 0
M  V30 40533 H 3660.28 0.907248 -1.27274 0
M  V30 40534 H 3661.02 3.23223 -0.264049 0
M  V30 40535 H 3660.8 3.35191 -2.03443 0
M  V30 40536 H 3662.29 3.97884 -1.268 0
M  V30 40537 N 3662.73 1.26951 0.933869 0
M  V30 40538 C 3663.98 1.14103 1.68381 0
M  V30 40539 C 3664.33 -0.311147 1.89867 0
M  V30 40540 O 3663.63 -1.22467 1.47351 0
M  V30 40541 C 3663.82 1.8515 3.05703 0
M  V30 40542 C 3663.65 3.37128 2.97615 0
M  V30 40543 C 3662.42 4.06434 3.00232 0
M  V30 40544 C 3664.62 4.33204 2.77199 0
M  V30 40545 N 3662.6 5.45027 2.82521 0
M  V30 40546 C 3663.97 5.59022 2.6813 0
M  V30 40547 C 3666.02 4.23368 2.62039 0
M  V30 40548 C 3664.73 6.76127 2.45449 0
M  V30 40549 C 3666.75 5.40187 2.40733 0
M  V30 40550 C 3666.12 6.64958 2.32402 0
M  V30 40551 H 3662.21 0.472364 0.623215 0
M  V30 40552 H 3664.8 1.60337 1.10454 0
M  V30 40553 H 3662.97 1.41381 3.61754 0
M  V30 40554 H 3664.7 1.64861 3.69598 0
M  V30 40555 H 3661.46 3.57852 3.10224 0
M  V30 40556 H 3661.88 6.17822 2.76813 0
M  V30 40557 H 3666.52 3.27631 2.67242 0
M  V30 40558 H 3664.24 7.71953 2.38986 0
M  V30 40559 H 3667.83 5.34452 2.29897 0
M  V30 40560 H 3666.71 7.53827 2.16137 0
M  V30 40561 N 3664.21 -1.13949 1.08873 0
M  V30 40562 C 3665.44 -1.8895 0.842946 0
M  V30 40563 C 3665.85 -1.78833 -0.605316 0
M  V30 40564 O 3665.21 -1.15098 -1.41629 0
M  V30 40565 C 3665.26 -3.38755 1.26204 0
M  V30 40566 O 3664.98 -3.48599 2.6535 0
M  V30 40567 C 3666.48 -4.30739 1.04781 0
M  V30 40568 H 3663.7 -0.598357 0.303662 0
M  V30 40569 H 3666.25 -1.44281 1.44925 0
M  V30 40570 H 3664.4 -3.81028 0.699749 0
M  V30 40571 H 3664.82 -4.41683 2.82871 0
M  V30 40572 H 3666.29 -5.34202 1.39039 0
M  V30 40573 H 3666.77 -4.39197 -0.0148274 0
M  V30 40574 H 3667.37 -3.94227 1.59577 0
M  V30 40575 N 3665.69 -0.875096 -1.31072 0
M  V30 40576 C 3666.6 -0.338237 -2.32149 0
M  V30 40577 C 3667.61 0.554475 -1.64929 0
M  V30 40578 O 3668.79 0.449964 -1.96309 0
M  V30 40579 C 3665.85 0.447103 -3.43805 0
M  V30 40580 C 3664.92 -0.474181 -4.26673 0
M  V30 40581 C 3664.15 0.273773 -5.32997 0
M  V30 40582 O 3664.37 1.50119 -5.50291 0
M  V30 40583 O 3663.31 -0.371018 -6.00755 0
M  V30 40584 H 3667.13 -1.17617 -2.8 0
M  V30 40585 H 3664.72 -0.638624 -1.35063 0
M  V30 40586 H 3666.6 0.892127 -4.11848 0
M  V30 40587 H 3665.27 1.2615 -2.98107 0
M  V30 40588 H 3664.18 -0.967812 -3.61364 0
M  V30 40589 H 3665.51 -1.25431 -4.75949 0
M  V30 40590 N 3667.17 1.44239 -0.635047 0
M  V30 40591 C 3668.1 2.33437 0.054315 0
M  V30 40592 C 3669.08 1.48432 0.83078 0
M  V30 40593 O 3670.26 1.77142 0.795882 0
M  V30 40594 C 3667.39 3.31555 1.03385 0
M  V30 40595 C 3666.35 4.26409 0.368749 0
M  V30 40596 C 3665.67 5.14425 1.45846 0
M  V30 40597 C 3666.97 5.17209 -0.727472 0
M  V30 40598 H 3668.67 2.91328 -0.69054 0
M  V30 40599 H 3666.21 1.40084 -0.333524 0
M  V30 40600 H 3668.17 3.92843 1.52488 0
M  V30 40601 H 3666.89 2.71881 1.80964 0
M  V30 40602 H 3665.55 3.66459 -0.10167 0
M  V30 40603 H 3665.2 4.51102 2.22523 0
M  V30 40604 H 3664.9 5.78701 1.0188 0
M  V30 40605 H 3666.42 5.78584 1.95122 0
M  V30 40606 H 3667.83 5.7241 -0.319373 0
M  V30 40607 H 3666.23 5.90108 -1.09051 0
M  V30 40608 H 3667.3 4.57987 -1.593 0
M  V30 40609 N 3668.64 0.375833 1.53053 0
M  V30 40610 C 3669.87 -0.211098 2.0582 0
M  V30 40611 C 3670.29 -1.41618 1.24859 0
M  V30 40612 O 3669.64 -1.80152 0.291817 0
M  V30 40613 C 3669.7 -0.59451 3.56578 0
M  V30 40614 O 3669.42 0.562683 4.34471 0
M  V30 40615 C 3670.92 -1.23874 4.25641 0
M  V30 40616 H 3668.14 -0.035015 0.670086 0
M  V30 40617 H 3670.68 0.537169 1.97319 0
M  V30 40618 H 3668.84 -1.29269 3.65196 0
M  V30 40619 H 3669.25 0.250579 5.23901 0
M  V30 40620 H 3670.72 -1.45749 5.32411 0
M  V30 40621 H 3671.2 -2.20211 3.80005 0
M  V30 40622 H 3671.81 -0.581712 4.21303 0
M  V30 40623 N 3670.12 -1.57248 0.105276 0
M  V30 40624 C 3671.4 -1.86208 -0.598838 0
M  V30 40625 C 3671.78 -1.00399 -1.85697 0
M  V30 40626 O 3671.13 -0.0791494 -2.28363 0
M  V30 40627 C 3671.34 -3.37076 -0.904463 0
M  V30 40628 C 3672.69 -4.05365 -1.2635 0
M  V30 40629 O 3673.71 -3.42016 -0.99516 0
M  V30 40630 O 3672.57 -5.17162 -1.7665 0
M  V30 40631 H 3669.66 -0.77039 -0.300714 0
M  V30 40632 H 3672.21 -1.69132 0.138743 0
M  V30 40633 H 3670.98 -3.91298 -0.0123287 0
M  V30 40634 H 3670.6 -3.59534 -1.69767 0
M  V30 40635 N 3671.6 0.168458 -1.56697 0
M  V30 40636 C 3672.85 0.881228 -1.83319 0
M  V30 40637 C 3673.2 1.79746 -0.686235 0
M  V30 40638 O 3672.49 1.88957 0.31716 0
M  V30 40639 C 3672.69 1.71063 -3.13803 0
M  V30 40640 C 3672.52 0.876196 -4.41082 0
M  V30 40641 C 3671.29 0.550161 -5.02296 0
M  V30 40642 C 3673.49 0.216427 -5.13844 0
M  V30 40643 N 3671.47 -0.300112 -6.13166 0
M  V30 40644 C 3672.84 -0.494888 -6.18022 0
M  V30 40645 C 3674.89 0.134886 -4.97717 0
M  V30 40646 C 3673.6 -1.28001 -7.07819 0
M  V30 40647 C 3675.62 -0.636916 -5.8796 0
M  V30 40648 C 3674.98 -1.33659 -6.91603 0
M  V30 40649 H 3671.08 0.300988 -0.721755 0
M  V30 40650 H 3673.67 0.148013 -1.94137 0
M  V30 40651 H 3671.84 2.41524 -3.04172 0
M  V30 40652 H 3673.57 2.36492 -3.28411 0
M  V30 40653 H 3670.33 0.880919 -4.65335 0
M  V30 40654 H 3670.75 -0.715642 -6.73207 0
M  V30 40655 H 3675.39 0.661466 -4.17594 0
M  V30 40656 H 3673.11 -1.81793 -7.87386 0
M  V30 40657 H 3676.7 -0.701716 -5.77553 0
M  V30 40658 H 3675.58 -1.92422 -7.60226 0
M  V30 40659 N 3673.08 1.51417 0.437109 0
M  V30 40660 C 3674.01 1.75695 1.53797 0
M  V30 40661 C 3674.99 0.606787 1.58909 0
M  V30 40662 O 3676.17 0.849523 1.74633 0
M  V30 40663 C 3673.3 1.8822 2.91874 0
M  V30 40664 C 3672.26 3.03657 3.01623 0
M  V30 40665 C 3671.58 3.01366 4.41682 0
M  V30 40666 C 3672.88 4.43617 2.75683 0
M  V30 40667 H 3674.58 2.67873 1.33732 0
M  V30 40668 H 3672.12 1.28901 0.641914 0
M  V30 40669 H 3674.08 2.03787 3.68848 0
M  V30 40670 H 3672.8 0.926902 3.13171 0
M  V30 40671 H 3671.46 2.87795 2.27089 0
M  V30 40672 H 3671.11 2.03614 4.59946 0
M  V30 40673 H 3670.81 3.78883 4.49134 0
M  V30 40674 H 3672.33 3.19027 5.20629 0
M  V30 40675 H 3673.75 4.59828 3.4239 0
M  V30 40676 H 3672.14 5.22842 2.94545 0
M  V30 40677 H 3673.21 4.53639 1.71289 0
M  V30 40678 N 3674.56 -0.692567 1.41567 0
M  V30 40679 C 3675.78 -1.48632 1.44648 0
M  V30 40680 C 3676.21 -1.88022 0.0541928 0
M  V30 40681 O 3675.56 -1.54829 -0.943278 0
M  V30 40682 C 3675.61 -2.7233 2.36365 0
M  V30 40683 O 3674.72 -3.69931 1.82276 0
M  V30 40684 H 3674.06 -0.447228 0.490799 0
M  V30 40685 H 3676.59 -0.851023 1.86061 0
M  V30 40686 H 3676.6 -3.20605 2.52342 0
M  V30 40687 H 3675.27 -2.42998 3.37527 0
M  V30 40688 H 3673.85 -3.28879 1.75764 0
M  V30 40689 N 3676.03 -1.27445 -0.927123 0
M  V30 40690 C 3676.96 -1.12738 -2.04481 0
M  V30 40691 C 3677.95 -0.0286961 -1.70076 0
M  V30 40692 O 3679.13 -0.203286 -1.93133 0
M  V30 40693 C 3676.26 -0.774411 -3.38556 0
M  V30 40694 C 3675.21 -1.82639 -3.87075 0
M  V30 40695 C 3674.54 -1.32738 -5.17962 0
M  V30 40696 C 3675.84 -3.23058 -4.10403 0
M  V30 40697 H 3677.53 -2.06235 -2.17043 0
M  V30 40698 H 3675.08 -0.992956 -1.0429 0
M  V30 40699 H 3677.03 -0.658346 -4.16226 0
M  V30 40700 H 3675.76 0.196263 -3.2601 0
M  V30 40701 H 3674.42 -1.93137 -3.11598 0
M  V30 40702 H 3674.06 -0.346147 -5.01808 0
M  V30 40703 H 3673.76 -2.03071 -5.51395 0
M  V30 40704 H 3675.29 -1.22427 -5.98201 0
M  V30 40705 H 3676.7 -3.15558 -4.7864 0
M  V30 40706 H 3675.1 -3.91107 -4.55143 0
M  V30 40707 H 3676.17 -3.68069 -3.15679 0
M  V30 40708 N 3677.51 1.1337 -1.09476 0
M  V30 40709 C 3678.44 2.20906 -0.75648 0
M  V30 40710 C 3679.42 1.68006 0.266083 0
M  V30 40711 O 3680.61 1.93737 0.134033 0
M  V30 40712 C 3677.74 3.4685 -0.176794 0
M  V30 40713 C 3676.69 4.12843 -1.12893 0
M  V30 40714 C 3676.02 5.33119 -0.410924 0
M  V30 40715 C 3677.32 4.60121 -2.47156 0
M  V30 40716 H 3679.01 2.4946 -1.6556 0
M  V30 40717 H 3676.56 1.19901 -0.797479 0
M  V30 40718 H 3678.51 4.21339 0.071941 0
M  V30 40719 H 3677.24 3.17694 0.75752 0
M  V30 40720 H 3675.89 3.40322 -1.36295 0
M  V30 40721 H 3675.54 5.00226 0.527544 0
M  V30 40722 H 3675.24 5.78219 -1.04578 0
M  V30 40723 H 3676.77 6.10362 -0.170502 0
M  V30 40724 H 3678.18 5.2603 -2.27959 0
M  V30 40725 H 3676.58 5.15963 -3.06434 0
M  V30 40726 H 3677.65 3.74616 -3.07881 0
M  V30 40727 N 3678.99 0.882035 1.30606 0
M  V30 40728 C 3680.27 0.419187 1.91055 0
M  V30 40729 C 3680.65 -1.09982 1.80186 0
M  V30 40730 O 3680 -1.93381 1.2172 0
M  V30 40731 C 3680.21 0.914008 3.36819 0
M  V30 40732 C 3681.55 0.947242 4.13899 0
M  V30 40733 O 3682.58 0.860473 3.45651 0
M  V30 40734 O 3681.44 1.07493 5.35824 0
M  V30 40735 H 3678.53 0.127659 0.817088 0
M  V30 40736 H 3681.08 0.970742 1.39193 0
M  V30 40737 H 3679.85 1.9578 3.388 0
M  V30 40738 H 3679.47 0.34145 3.96131 0
M  V30 40739 N 3680.47 -1.439 0.642688 0
M  V30 40740 C 3681.4 -2.29008 -0.0938543 0
M  V30 40741 C 3682.41 -1.41927 -0.797536 0
M  V30 40742 O 3683.6 -1.65967 -0.657051 0
M  V30 40743 C 3680.7 -3.1859 -1.15558 0
M  V30 40744 C 3679.88 -4.34151 -0.532132 0
M  V30 40745 C 3678.93 -5.04683 -1.48935 0
M  V30 40746 O 3677.96 -5.60311 -1.00201 0
M  V30 40747 N 3679.16 -5.07205 -2.82353 0
M  V30 40748 H 3681.93 -2.92861 0.636591 0
M  V30 40749 H 3679.49 -1.54474 0.484692 0
M  V30 40750 H 3681.48 -3.6264 -1.79651 0
M  V30 40751 H 3680.05 -2.56408 -1.78812 0
M  V30 40752 H 3679.27 -3.93149 0.287667 0
M  V30 40753 H 3680.56 -5.08709 -0.0964631 0
M  V30 40754 H 3679.96 -4.63364 -3.24516 0
M  V30 40755 H 3678.51 -5.55007 -3.41776 0
M  V30 40756 N 3681.95 -0.383945 -1.52852 0
M  V30 40757 C 3683.19 0.20025 -2.01809 0
M  V30 40758 C 3683.53 1.46907 -1.27012 0
M  V30 40759 O 3682.8 1.90967 -0.369035 0
M  V30 40760 C 3683.08 0.473609 -3.56972 0
M  V30 40761 C 3682.94 -0.810126 -4.42444 0
M  V30 40762 C 3684.26 1.2665 -4.21483 0
M  V30 40763 H 3681.38 0.0713063 -0.733542 0
M  V30 40764 H 3684.02 -0.512457 -1.82959 0
M  V30 40765 H 3682.17 1.08075 -3.73165 0
M  V30 40766 H 3683.84 -1.44714 -4.38013 0
M  V30 40767 H 3682.08 -1.42659 -4.09671 0
M  V30 40768 H 3682.75 -0.573574 -5.49012 0
M  V30 40769 H 3685.23 0.752734 -4.09235 0
M  V30 40770 H 3684.11 1.42651 -5.30039 0
M  V30 40771 H 3684.37 2.28021 -3.7876 0
M  V30 40772 N 3683.43 1.5719 -0.113614 0
M  V30 40773 C 3684.67 1.94184 0.545472 0
M  V30 40774 C 3684.99 0.998845 1.68174 0
M  V30 40775 O 3686.19 1.26323 2.40322 0
M  V30 40776 C 3684.65 3.45093 1.02172 0
M  V30 40777 C 3684.26 4.47918 -0.0857983 0
M  V30 40778 C 3686 3.91016 1.65248 0
M  V30 40779 C 3683.91 5.89999 0.406842 0
M  V30 40780 H 3682.84 0.724875 0.207537 0
M  V30 40781 H 3685.49 1.82486 -0.1926 0
M  V30 40782 H 3683.87 3.52006 1.81404 0
M  V30 40783 H 3685.05 4.52668 -0.861901 0
M  V30 40784 H 3683.36 4.11715 -0.622889 0
M  V30 40785 H 3685.96 4.9458 2.03211 0
M  V30 40786 H 3686.3 3.30691 2.52882 0
M  V30 40787 H 3686.83 3.8688 0.925659 0
M  V30 40788 H 3683.57 6.54066 -0.433314 0
M  V30 40789 H 3683.09 5.88681 1.14954 0
M  V30 40790 H 3684.77 6.41126 0.869821 0
M  V30 40791 N 3684.9 -0.160146 1.56784 0
M  V30 40792 C 3685.85 -1.19807 1.97269 0
M  V30 40793 C 3686.82 -1.43396 0.838265 0
M  V30 40794 O 3688.01 -1.5595 1.09929 0
M  V30 40795 C 3685.15 -2.52975 2.34729 0
M  V30 40796 C 3684.26 -2.36671 3.61401 0
M  V30 40797 C 3683.39 -3.62782 3.88024 0
M  V30 40798 C 3682.43 -3.41459 5.08008 0
M  V30 40799 N 3681.57 -4.59668 5.30707 0
M  V30 40800 H 3686.41 -0.845828 2.85744 0
M  V30 40801 H 3683.95 -0.406224 1.4138 0
M  V30 40802 H 3685.9 -3.30604 2.54474 0
M  V30 40803 H 3684.53 -2.86172 1.4935 0
M  V30 40804 H 3683.59 -1.50161 3.49508 0
M  V30 40805 H 3684.9 -2.16867 4.49188 0
M  V30 40806 H 3684.05 -4.48844 4.08196 0
M  V30 40807 H 3682.79 -3.85576 2.98634 0
M  V30 40808 H 3681.8 -2.53784 4.87723 0
M  V30 40809 H 3683.02 -3.20076 5.98939 0
M  V30 40810 H 3680.97 -4.8266 4.4427 0
M  V30 40811 H 3680.88 -4.42818 6.12738 0
M  V30 40812 H 3682.15 -5.46981 5.55367 0
M  V30 40813 N 3686.38 -1.51647 -0.429072 0
M  V30 40814 C 3687.61 -1.6883 -1.20462 0
M  V30 40815 C 3688.03 -0.388546 -1.84043 0
M  V30 40816 O 3687.39 0.652123 -1.69166 0
M  V30 40817 C 3687.44 -2.81132 -2.25826 0
M  V30 40818 O 3686.54 -2.4531 -3.31507 0
M  V30 40819 H 3685.88 -0.562671 -0.352558 0
M  V30 40820 H 3688.41 -1.98253 -0.505663 0
M  V30 40821 H 3688.42 -3.0546 -2.70478 0
M  V30 40822 H 3687.1 -3.75443 -1.78928 0
M  V30 40823 H 3685.67 -2.31584 -2.92273 0
M  V30 40824 N 3687.86 0.685049 -1.41932 0
M  V30 40825 C 3688.79 1.8105 -1.40548 0
M  V30 40826 C 3689.8 1.59897 -0.306052 0
M  V30 40827 O 3690.99 1.69206 -0.568474 0
M  V30 40828 C 3688.09 3.1799 -1.172 0
M  V30 40829 C 3687.27 3.6608 -2.39383 0
M  V30 40830 C 3686.33 4.81721 -2.11734 0
M  V30 40831 O 3685.35 4.92794 -2.84856 0
M  V30 40832 N 3686.55 5.69709 -1.11409 0
M  V30 40833 H 3689.32 1.82726 -2.37553 0
M  V30 40834 H 3686.88 0.867766 -1.3668 0
M  V30 40835 H 3688.87 3.92993 -0.966376 0
M  V30 40836 H 3687.44 3.11275 -0.287553 0
M  V30 40837 H 3686.66 2.81868 -2.7558 0
M  V30 40838 H 3687.95 3.94951 -3.20767 0
M  V30 40839 H 3687.35 5.63404 -0.509107 0
M  V30 40840 H 3685.9 6.44567 -0.968352 0
M  V30 40841 N 3689.34 1.27935 0.920351 0
M  V30 40842 C 3690.75 1.05498 1.19759 0
M  V30 40843 C 3690.95 -0.206829 2.00436 0
M  V30 40844 O 3690.01 -0.910314 2.3552 0
M  V30 40845 C 3691.32 2.29867 1.93859 0
M  V30 40846 C 3692.87 2.3498 2.06769 0
M  V30 40847 C 3693.35 3.59098 2.84276 0
M  V30 40848 N 3694.84 3.59699 2.91841 0
M  V30 40849 C 3695.57 4.52411 3.52296 0
M  V30 40850 N 3695.07 5.55434 4.14083 0
M  V30 40851 N 3696.86 4.40019 3.4977 0
M  V30 40852 H 3689.01 2.08945 0.381559 0
M  V30 40853 H 3691.27 0.919316 0.231435 0
M  V30 40854 H 3690.98 3.21758 1.42002 0
M  V30 40855 H 3690.85 2.35763 2.94442 0
M  V30 40856 H 3693.24 1.43591 2.5781 0
M  V30 40857 H 3693.32 2.33084 1.05384 0
M  V30 40858 H 3692.97 4.50827 2.33917 0
M  V30 40859 H 3692.9 3.58247 3.85962 0
M  V30 40860 H 3695.39 2.85196 2.47935 0
M  V30 40861 H 3695.7 6.22333 4.58172 0
M  V30 40862 H 3694.05 5.59268 4.12606 0
M  V30 40863 H 3697.24 3.58739 3.00706 0
M  V30 40864 H 3697.41 5.12462 3.96594 0
M  V30 40865 N 3690.82 -1.12788 1.10076 0
M  V30 40866 C 3692.06 -1.84488 0.842151 0
M  V30 40867 C 3692.39 -1.83673 -0.630705 0
M  V30 40868 O 3691.67 -1.27962 -1.46479 0
M  V30 40869 C 3691.95 -3.32339 1.38646 0
M  V30 40870 C 3691.81 -3.41629 2.92591 0
M  V30 40871 C 3693.12 -4.2798 1.02573 0
M  V30 40872 H 3690.24 -0.669837 0.307388 0
M  V30 40873 H 3692.89 -1.32343 1.36328 0
M  V30 40874 H 3691.04 -3.76877 0.9432 0
M  V30 40875 H 3692.71 -3.05754 3.45416 0
M  V30 40876 H 3690.95 -2.82293 3.29383 0
M  V30 40877 H 3691.62 -4.45631 3.25757 0
M  V30 40878 H 3694.1 -3.91549 1.40814 0
M  V30 40879 H 3692.97 -5.2985 1.43354 0
M  V30 40880 H 3693.23 -4.42052 -0.0652935 0
M  V30 40881 N 3692.29 -0.888949 -1.30136 0
M  V30 40882 C 3693.23 -0.303261 -2.26176 0
M  V30 40883 C 3694.2 0.578444 -1.51963 0
M  V30 40884 O 3695.39 0.527653 -1.80964 0
M  V30 40885 C 3692.52 0.568724 -3.33891 0
M  V30 40886 C 3691.56 -0.244195 -4.258 0
M  V30 40887 S 3692.39 -1.63505 -5.09928 0
M  V30 40888 C 3693.55 -0.769699 -6.21149 0
M  V30 40889 H 3693.78 -1.11733 -2.75505 0
M  V30 40890 H 3691.32 -0.688618 -1.38193 0
M  V30 40891 H 3693.27 1.06607 -3.96415 0
M  V30 40892 H 3691.94 1.35692 -2.83278 0
M  V30 40893 H 3691.13 0.421422 -5.02235 0
M  V30 40894 H 3690.73 -0.674305 -3.67871 0
M  V30 40895 H 3693.02 0.0116065 -6.77499 0
M  V30 40896 H 3693.97 -1.50578 -6.91905 0
M  V30 40897 H 3694.37 -0.328843 -5.63541 0
M  V30 40898 N 3693.77 1.43557 -0.65031 0
M  V30 40899 C 3695.02 2.02146 -0.162761 0
M  V30 40900 C 3695.35 1.51169 1.21909 0
M  V30 40901 O 3694.63 0.703595 1.81328 0
M  V30 40902 C 3694.91 3.59697 -0.170419 0
M  V30 40903 C 3694.76 4.20912 -1.58597 0
M  V30 40904 C 3696.08 4.3731 0.494755 0
M  V30 40905 H 3693.2 0.734503 -0.0606184 0
M  V30 40906 H 3695.84 1.70891 -0.830441 0
M  V30 40907 H 3693.99 3.86455 0.398122 0
M  V30 40908 H 3695.66 4.05195 -2.20488 0
M  V30 40909 H 3693.91 3.77673 -2.13414 0
M  V30 40910 H 3694.58 5.2999 -1.54321 0
M  V30 40911 H 3697.05 4.16099 0.011055 0
M  V30 40912 H 3695.93 5.4698 0.458657 0
M  V30 40913 H 3696.19 4.13345 1.56839 0
M  V30 40914 N 3695.25 0.392045 1.52646 0
M  V30 40915 C 3696.5 -0.18889 2.01215 0
M  V30 40916 C 3696.82 -1.4709 1.28021 0
M  V30 40917 O 3696.09 -1.9175 0.401081 0
M  V30 40918 H 3694.67 -0.0727919 0.743445 0
M  V30 40919 H 3697.33 0.524365 1.87714 0
M  V30 40920 H 3696.43 -0.397161 3.09563 0
M  V30 40921 N 3696.73 -1.57127 0.121948 0
M  V30 40922 C 3698.01 -1.86832 -0.579054 0
M  V30 40923 C 3698.39 -1.02363 -1.84621 0
M  V30 40924 O 3697.73 -0.103366 -2.28266 0
M  V30 40925 C 3697.94 -3.38017 -0.86866 0
M  V30 40926 C 3699.29 -4.06682 -1.22043 0
M  V30 40927 O 3700.32 -3.43052 -0.958828 0
M  V30 40928 O 3699.17 -5.19007 -1.71155 0
M  V30 40929 H 3696.27 -0.773536 -0.292526 0
M  V30 40930 H 3698.81 -1.68975 0.156674 0
M  V30 40931 H 3697.59 -3.91289 0.0291744 0
M  V30 40932 H 3697.21 -3.61315 -1.65944 0
M  V30 40933 N 3698.21 0.151829 -1.56867 0
M  V30 40934 C 3699.14 1.18945 -2.00934 0
M  V30 40935 C 3700.12 1.45076 -0.888088 0
M  V30 40936 O 3701.3 1.56079 -1.15556 0
M  V30 40937 C 3698.43 2.52379 -2.38584 0
M  V30 40938 C 3697.39 2.40779 -3.5385 0
M  V30 40939 C 3696.71 3.78879 -3.77299 0
M  V30 40940 C 3698.01 1.89596 -4.86673 0
M  V30 40941 H 3699.71 0.823057 -2.87865 0
M  V30 40942 H 3697.25 0.394474 -1.38492 0
M  V30 40943 H 3699.21 3.25188 -2.68012 0
M  V30 40944 H 3697.93 2.90844 -1.48584 0
M  V30 40945 H 3696.59 1.70421 -3.2458 0
M  V30 40946 H 3696.24 4.14772 -2.84558 0
M  V30 40947 H 3695.94 3.71981 -4.54867 0
M  V30 40948 H 3697.46 4.53245 -4.09147 0
M  V30 40949 H 3698.87 2.52195 -5.1485 0
M  V30 40950 H 3697.27 1.936 -5.68013 0
M  V30 40951 H 3698.34 0.851354 -4.77368 0
M  V30 40952 N 3699.68 1.51872 0.421024 0
M  V30 40953 C 3700.59 1.77232 1.53707 0
M  V30 40954 C 3701.61 0.657285 1.61108 0
M  V30 40955 O 3702.79 0.941375 1.78045 0
M  V30 40956 C 3699.85 1.90685 2.89551 0
M  V30 40957 C 3698.91 3.14573 2.92134 0
M  V30 40958 C 3698.15 3.27374 4.21499 0
M  V30 40959 O 3698.37 2.45721 5.1476 0
M  V30 40960 O 3697.3 4.20455 4.30698 0
M  V30 40961 H 3701.13 2.71938 1.35216 0
M  V30 40962 H 3698.71 1.36572 0.605688 0
M  V30 40963 H 3700.6 2.01425 3.70143 0
M  V30 40964 H 3699.27 0.991681 3.08135 0
M  V30 40965 H 3698.18 3.093 2.10439 0
M  V30 40966 H 3699.51 4.05832 2.78498 0
M  V30 40967 N 3701.16 -0.677513 1.42294 0
M  V30 40968 C 3702.44 -1.43329 1.33102 0
M  V30 40969 C 3702.82 -2.11074 -0.0328856 0
M  V30 40970 O 3702.17 -2.03038 -1.04823 0
M  V30 40971 C 3702.38 -2.43795 2.49729 0
M  V30 40972 C 3703.73 -3.08519 2.91721 0
M  V30 40973 O 3704.75 -2.54122 2.496 0
M  V30 40974 O 3703.61 -4.07084 3.64616 0
M  V30 40975 H 3700.7 -0.639176 0.52477 0
M  V30 40976 H 3703.25 -0.706466 1.54296 0
M  V30 40977 H 3702.02 -1.92516 3.40666 0
M  V30 40978 H 3701.64 -3.23962 2.30508 0
M  V30 40979 N 3702.64 -1.28421 -0.913554 0
M  V30 40980 C 3703.89 -1.14964 -1.65729 0
M  V30 40981 C 3704.2 0.301045 -1.93269 0
M  V30 40982 O 3705.41 0.556731 -2.65731 0
M  V30 40983 C 3703.86 -2.00975 -2.98559 0
M  V30 40984 C 3703.47 -3.50785 -2.78665 0
M  V30 40985 C 3705.22 -1.96205 -3.76436 0
M  V30 40986 C 3703.12 -4.28945 -4.07136 0
M  V30 40987 H 3702.05 -0.426659 -0.621673 0
M  V30 40988 H 3704.7 -1.52954 -1.01377 0
M  V30 40989 H 3703.09 -1.55841 -3.64046 0
M  V30 40990 H 3704.26 -4.03877 -2.21856 0
M  V30 40991 H 3702.58 -3.57082 -2.142 0
M  V30 40992 H 3705.17 -2.51869 -4.71663 0
M  V30 40993 H 3705.52 -0.938843 -4.05575 0
M  V30 40994 H 3706.05 -2.39308 -3.17768 0
M  V30 40995 H 3702.79 -5.31847 -3.83169 0
M  V30 40996 H 3702.31 -3.80627 -4.63555 0
M  V30 40997 H 3703.99 -4.38875 -4.75392 0
M  V30 40998 N 3704.12 1.12202 -1.10672 0
M  V30 40999 C 3705.07 2.20085 -0.752698 0
M  V30 41000 C 3706.06 1.67511 0.252254 0
M  V30 41001 O 3707.27 1.79649 0.112366 0
M  V30 41002 H 3703.64 0.717398 -0.225486 0
M  V30 41003 H 3705.61 2.47197 -1.67141 0
M  V30 41004 C 3704.36 3.47105 -0.203406 0
M  V30 41005 H 3703.68 3.87906 -0.967932 0
M  V30 41006 H 3705.12 4.24 0.0062167 0
M  V30 41007 C 3703.58 3.19642 1.06446 0
M  V30 41008 O 3704.11 3.39601 2.14556 0
M  V30 41009 N 3702.32 2.73431 0.984074 0
M  V30 41010 H 3701.87 2.57389 0.104212 0
M  V30 41011 H 3701.82 2.55432 1.83308 0
M  V30 41012 N 3705.6 0.895838 1.29663 0
M  V30 41013 C 3706.51 0.375127 2.31581 0
M  V30 41014 C 3707.52 -0.528166 1.6579 0
M  V30 41015 O 3708.7 -0.418676 1.97 0
M  V30 41016 C 3705.76 -0.39235 3.44473 0
M  V30 41017 C 3704.82 0.542001 4.25865 0
M  V30 41018 C 3704.06 -0.188943 5.33365 0
M  V30 41019 O 3704.28 -1.41346 5.5261 0
M  V30 41020 O 3703.21 0.466547 6.00089 0
M  V30 41021 H 3707.04 1.22057 2.78093 0
M  V30 41022 H 3704.63 0.66003 1.3403 0
M  V30 41023 H 3706.51 -0.826493 4.13216 0
M  V30 41024 H 3705.18 -1.21391 3.00076 0
M  V30 41025 H 3704.09 1.02518 3.59779 0
M  V30 41026 H 3705.42 1.32987 4.73894 0
M  V30 41027 N 3707.07 -1.43211 0.657914 0
M  V30 41028 C 3708.01 -2.28057 -0.08066 0
M  V30 41029 C 3708.99 -1.40099 -0.825297 0
M  V30 41030 O 3710.17 -1.69541 -0.823903 0
M  V30 41031 C 3707.3 -3.19609 -1.12107 0
M  V30 41032 C 3706.34 -4.23859 -0.473942 0
M  V30 41033 S 3707.18 -5.30137 0.755983 0
M  V30 41034 C 3708.33 -6.25256 -0.283771 0
M  V30 41035 H 3708.56 -2.9035 0.639063 0
M  V30 41036 H 3706.1 -1.47791 0.446902 0
M  V30 41037 H 3708.06 -3.72898 -1.7163 0
M  V30 41038 H 3706.72 -2.56484 -1.81313 0
M  V30 41039 H 3705.91 -4.88037 -1.25841 0
M  V30 41040 H 3705.51 -3.7397 0.0472965 0
M  V30 41041 H 3707.8 -6.67693 -1.14857 0
M  V30 41042 H 3708.75 -7.07362 0.32311 0
M  V30 41043 H 3709.15 -5.61066 -0.621682 0
M  V30 41044 N 3708.55 -0.400135 -1.52436 0
M  V30 41045 C 3709.8 0.179873 -2.00896 0
M  V30 41046 C 3710.11 1.46989 -1.29049 0
M  V30 41047 O 3711.32 2.1306 -1.68278 0
M  V30 41048 C 3709.78 0.371106 -3.57982 0
M  V30 41049 C 3709.38 -0.90629 -4.38737 0
M  V30 41050 C 3711.13 0.906892 -4.147 0
M  V30 41051 C 3709.04 -0.682741 -5.87446 0
M  V30 41052 H 3707.97 0.0709948 -0.75065 0
M  V30 41053 H 3710.62 -0.5242 -1.75853 0
M  V30 41054 H 3709 1.13729 -3.79317 0
M  V30 41055 H 3710.17 -1.67793 -4.29165 0
M  V30 41056 H 3708.49 -1.36783 -3.93293 0
M  V30 41057 H 3711.08 1.09003 -5.23472 0
M  V30 41058 H 3711.43 1.87904 -3.7148 0
M  V30 41059 H 3711.96 0.199998 -3.97297 0
M  V30 41060 H 3708.7 -1.6262 -6.35008 0
M  V30 41061 H 3708.22 0.0497662 -5.99779 0
M  V30 41062 H 3709.9 -0.321445 -6.46201 0
M  V30 41063 N 3710.03 1.57061 -0.13028 0
M  V30 41064 C 3711.28 1.94752 0.524846 0
M  V30 41065 C 3711.59 1.01663 1.67105 0
M  V30 41066 O 3712.8 1.28865 2.38969 0
M  V30 41067 C 3711.25 3.46157 0.985057 0
M  V30 41068 C 3710.86 4.47802 -0.133301 0
M  V30 41069 C 3712.61 3.92746 1.61092 0
M  V30 41070 C 3710.51 5.90397 0.344242 0
M  V30 41071 H 3709.44 0.727036 0.199837 0
M  V30 41072 H 3712.09 1.82272 -0.211944 0
M  V30 41073 H 3710.48 3.53911 1.77661 0
M  V30 41074 H 3711.65 4.51728 -0.909864 0
M  V30 41075 H 3709.97 4.11031 -0.666521 0
M  V30 41076 H 3712.56 4.96707 1.97954 0
M  V30 41077 H 3712.91 3.33355 2.4936 0
M  V30 41078 H 3713.44 3.8784 0.884573 0
M  V30 41079 H 3710.18 6.5357 -0.502662 0
M  V30 41080 H 3709.7 5.89867 1.08704 0
M  V30 41081 H 3711.38 6.42013 0.801772 0
M  V30 41082 N 3711.51 -0.143508 1.56945 0
M  V30 41083 C 3712.46 -1.17708 1.98528 0
M  V30 41084 C 3713.43 -1.42499 0.853427 0
M  V30 41085 O 3714.61 -1.54775 1.11576 0
M  V30 41086 C 3711.75 -2.50471 2.37399 0
M  V30 41087 C 3710.86 -2.32824 3.63891 0
M  V30 41088 C 3710 -3.58646 3.9185 0
M  V30 41089 C 3709.04 -3.36052 5.11601 0
M  V30 41090 N 3708.18 -4.54013 5.35553 0
M  V30 41091 H 3713.02 -0.815473 2.86625 0
M  V30 41092 H 3710.55 -0.391206 1.41803 0
M  V30 41093 H 3712.51 -3.27886 2.57966 0
M  V30 41094 H 3711.14 -2.84572 1.52377 0
M  V30 41095 H 3710.19 -1.46446 3.51081 0
M  V30 41096 H 3711.5 -2.12091 4.51463 0
M  V30 41097 H 3710.66 -4.44489 4.12934 0
M  V30 41098 H 3709.4 -3.82387 3.02706 0
M  V30 41099 H 3708.4 -2.48597 4.90387 0
M  V30 41100 H 3709.63 -3.13705 6.023 0
M  V30 41101 H 3707.57 -4.77921 4.49364 0
M  V30 41102 H 3707.49 -4.36295 6.174 0
M  V30 41103 H 3708.76 -5.4106 5.61137 0
M  V30 41104 N 3712.99 -1.52093 -0.412964 0
M  V30 41105 C 3713.92 -1.71384 -1.52184 0
M  V30 41106 C 3714.93 -0.594273 -1.51566 0
M  V30 41107 O 3716.12 -0.869321 -1.55901 0
M  V30 41108 C 3713.22 -1.73562 -2.91083 0
M  V30 41109 C 3712.39 -3.02495 -3.15936 0
M  V30 41110 C 3711.45 -2.96536 -4.34687 0
M  V30 41111 O 3710.48 -3.70449 -4.32153 0
M  V30 41112 N 3711.68 -2.14062 -5.3959 0
M  V30 41113 H 3714.45 -2.6705 -1.36031 0
M  V30 41114 H 3712.01 -1.50283 -0.602216 0
M  V30 41115 H 3714 -1.67113 -3.68586 0
M  V30 41116 H 3712.57 -0.853873 -3.00712 0
M  V30 41117 H 3711.79 -3.22624 -2.26511 0
M  V30 41118 H 3713.08 -3.87795 -3.29382 0
M  V30 41119 H 3712.48 -1.53433 -5.44495 0
M  V30 41120 H 3711.03 -2.13472 -6.15852 0
M  V30 41121 N 3714.47 0.669957 -1.42651 0
M  V30 41122 C 3715.41 1.78337 -1.46507 0
M  V30 41123 C 3716.38 1.63057 -0.316507 0
M  V30 41124 O 3717.57 1.83541 -0.521277 0
M  V30 41125 C 3714.71 3.16399 -1.37789 0
M  V30 41126 C 3713.82 3.42932 -2.6272 0
M  V30 41127 C 3712.96 4.70748 -2.46109 0
M  V30 41128 C 3711.99 4.90332 -3.66389 0
M  V30 41129 N 3711.13 6.09392 -3.48692 0
M  V30 41130 H 3715.97 1.74376 -2.41654 0
M  V30 41131 H 3713.51 0.851194 -1.19971 0
M  V30 41132 H 3715.47 3.96188 -1.30732 0
M  V30 41133 H 3714.1 3.19472 -0.462347 0
M  V30 41134 H 3713.15 2.57361 -2.80124 0
M  V30 41135 H 3714.46 3.53295 -3.52114 0
M  V30 41136 H 3713.61 5.58636 -2.36665 0
M  V30 41137 H 3712.35 4.62677 -1.54212 0
M  V30 41138 H 3711.36 4.00884 -3.76261 0
M  V30 41139 H 3712.58 5.00245 -4.59273 0
M  V30 41140 H 3710.53 6.02485 -2.59516 0
M  V30 41141 H 3710.45 6.20638 -4.31677 0
M  V30 41142 H 3711.71 6.99946 -3.43068 0
M  V30 41143 N 3715.94 1.28904 0.90673 0
M  V30 41144 C 3716.91 1.13443 1.99156 0
M  V30 41145 C 3717.91 0.0719834 1.60639 0
M  V30 41146 O 3719.1 0.318347 1.71266 0
M  V30 41147 C 3716.23 0.733231 3.32921 0
M  V30 41148 H 3717.42 2.09798 2.14301 0
M  V30 41149 H 3714.97 1.1199 1.09032 0
M  V30 41150 H 3715.71 -0.230769 3.23478 0
M  V30 41151 H 3715.49 1.5008 3.62241 0
M  V30 41152 H 3716.98 0.647912 4.12543 0
M  V30 41153 N 3717.42 -1.11614 1.11266 0
M  V30 41154 C 3718.65 -1.87119 0.882835 0
M  V30 41155 C 3719.06 -1.80077 -0.567247 0
M  V30 41156 O 3718.42 -1.18076 -1.39156 0
M  V30 41157 C 3718.47 -3.36002 1.33361 0
M  V30 41158 O 3718.19 -3.42892 2.72684 0
M  V30 41159 C 3719.69 -4.28419 1.13894 0
M  V30 41160 H 3716.91 -0.591781 0.316285 0
M  V30 41161 H 3719.46 -1.41175 1.47953 0
M  V30 41162 H 3717.61 -3.79458 0.780414 0
M  V30 41163 H 3718.03 -4.35584 2.92176 0
M  V30 41164 H 3719.5 -5.31133 1.50339 0
M  V30 41165 H 3719.98 -4.3913 0.0783362 0
M  V30 41166 H 3720.58 -3.90754 1.67903 0
M  V30 41167 N 3718.9 -0.902701 -1.29186 0
M  V30 41168 C 3719.83 -0.327233 -2.25842 0
M  V30 41169 C 3720.81 0.562294 -1.52568 0
M  V30 41170 O 3721.99 0.50843 -1.81514 0
M  V30 41171 C 3719.12 0.533279 -3.34475 0
M  V30 41172 C 3718.17 -0.289343 -4.25517 0
M  V30 41173 S 3719 -1.68904 -5.08165 0
M  V30 41174 C 3720.16 -0.835537 -6.20298 0
M  V30 41175 H 3720.39 -1.14649 -2.74305 0
M  V30 41176 H 3717.92 -0.703236 -1.37455 0
M  V30 41177 H 3719.88 1.02397 -3.97524 0
M  V30 41178 H 3718.54 1.3268 -2.84701 0
M  V30 41179 H 3717.73 0.368129 -5.02654 0
M  V30 41180 H 3717.34 -0.713285 -3.67135 0
M  V30 41181 H 3719.63 -0.0602519 -6.77473 0
M  V30 41182 H 3720.57 -1.57908 -6.90269 0
M  V30 41183 H 3720.98 -0.388596 -5.63161 0
M  V30 41184 N 3720.38 1.4286 -0.6655 0
M  V30 41185 C 3721.31 2.29128 0.0574092 0
M  V30 41186 C 3722.32 1.43178 0.774856 0
M  V30 41187 O 3723.51 1.66991 0.630564 0
M  V30 41188 C 3720.61 3.20388 1.10475 0
M  V30 41189 C 3719.78 4.34943 0.462995 0
M  V30 41190 C 3718.84 5.06989 1.40887 0
M  V30 41191 O 3717.87 5.61834 0.912741 0
M  V30 41192 N 3719.07 5.11633 2.74248 0
M  V30 41193 H 3721.84 2.91811 -0.683102 0
M  V30 41194 H 3719.4 1.53684 -0.509206 0
M  V30 41195 H 3721.39 3.65452 1.73859 0
M  V30 41196 H 3719.96 2.5922 1.7471 0
M  V30 41197 H 3719.18 3.92642 -0.350178 0
M  V30 41198 H 3720.47 5.08798 0.0155198 0
M  V30 41199 H 3719.87 4.68468 3.17103 0
M  V30 41200 H 3718.42 5.60374 3.32903 0
M  V30 41201 N 3721.86 0.408213 1.52221 0
M  V30 41202 C 3723.13 -0.226376 1.94286 0
M  V30 41203 C 3723.51 -1.62702 1.34504 0
M  V30 41204 O 3722.86 -2.22493 0.520489 0
M  V30 41205 C 3723.07 -0.233634 3.48217 0
M  V30 41206 C 3724.42 -0.45343 4.22172 0
M  V30 41207 O 3725.44 -0.31303 3.54822 0
M  V30 41208 O 3724.3 -0.730088 5.41601 0
M  V30 41209 H 3721.4 -0.145611 0.81408 0
M  V30 41210 H 3723.94 0.464091 1.63231 0
M  V30 41211 H 3722.71 0.746712 3.84109 0
M  V30 41212 H 3722.34 -0.968237 3.85631 0
M  V30 41213 N 3723.33 -1.56989 0.138607 0
M  V30 41214 C 3724.26 -2.19349 -0.80053 0
M  V30 41215 C 3725.24 -1.13923 -1.26316 0
M  V30 41216 O 3726.43 -1.42235 -1.32223 0
M  V30 41217 C 3723.56 -2.80845 -2.04312 0
M  V30 41218 C 3722.51 -3.92025 -1.71757 0
M  V30 41219 C 3721.84 -4.40418 -3.03209 0
M  V30 41220 C 3723.14 -5.132 -0.970698 0
M  V30 41221 H 3724.83 -2.9808 -0.280836 0
M  V30 41222 H 3722.38 -1.43379 -0.133638 0
M  V30 41223 H 3724.33 -3.23134 -2.70485 0
M  V30 41224 H 3723.06 -1.99432 -2.58639 0
M  V30 41225 H 3721.72 -3.50341 -1.07966 0
M  V30 41226 H 3721.36 -3.55838 -3.55511 0
M  V30 41227 H 3721.06 -5.15403 -2.82194 0
M  V30 41228 H 3722.59 -4.85372 -3.70468 0
M  V30 41229 H 3724 -5.52386 -1.53435 0
M  V30 41230 H 3722.4 -5.93894 -0.86079 0
M  V30 41231 H 3723.47 -4.84884 0.039094 0
M  V30 41232 N 3724.81 0.135183 -1.57019 0
M  V30 41233 C 3725.72 1.18574 -2.02429 0
M  V30 41234 C 3726.74 1.46311 -0.941763 0
M  V30 41235 O 3727.91 1.57747 -1.25211 0
M  V30 41236 C 3724.98 2.49643 -2.40581 0
M  V30 41237 C 3724.04 2.29448 -3.62839 0
M  V30 41238 C 3723.27 3.54267 -3.99162 0
M  V30 41239 O 3723.5 4.60927 -3.36009 0
M  V30 41240 O 3722.43 3.46229 -4.92351 0
M  V30 41241 H 3726.26 0.830185 -2.92133 0
M  V30 41242 H 3723.84 0.344788 -1.45367 0
M  V30 41243 H 3725.72 3.26895 -2.65927 0
M  V30 41244 H 3724.4 2.84705 -1.54028 0
M  V30 41245 H 3723.3 1.50108 -3.42664 0
M  V30 41246 H 3724.64 1.99297 -4.50046 0
M  V30 41247 N 3726.29 1.5231 0.404892 0
M  V30 41248 C 3727.22 1.72189 1.51273 0
M  V30 41249 C 3728.24 0.602303 1.51249 0
M  V30 41250 O 3729.42 0.877576 1.55438 0
M  V30 41251 C 3726.52 1.75104 2.90158 0
M  V30 41252 C 3725.7 3.04166 3.14327 0
M  V30 41253 C 3724.76 2.98837 4.33108 0
M  V30 41254 O 3723.78 3.72735 4.30183 0
M  V30 41255 N 3724.98 2.1692 5.38448 0
M  V30 41256 H 3727.75 2.67767 1.34613 0
M  V30 41257 H 3725.31 1.506 0.594238 0
M  V30 41258 H 3727.3 1.69065 3.67694 0
M  V30 41259 H 3725.87 0.869809 3.00255 0
M  V30 41260 H 3725.09 3.23821 2.24797 0
M  V30 41261 H 3726.38 3.89537 3.2732 0
M  V30 41262 H 3725.78 1.56319 5.43674 0
M  V30 41263 H 3724.34 2.16735 6.14711 0
M  V30 41264 N 3727.77 -0.662382 1.43004 0
M  V30 41265 C 3729.18 -0.976981 1.26203 0
M  V30 41266 C 3729.38 -2.00737 0.175139 0
M  V30 41267 O 3728.44 -2.48467 -0.449496 0
M  V30 41268 C 3729.75 -1.46997 2.62321 0
M  V30 41269 C 3731.3 -1.58709 2.69778 0
M  V30 41270 C 3731.78 -2.11401 4.06293 0
M  V30 41271 N 3733.27 -2.18716 4.0831 0
M  V30 41272 C 3734 -2.60589 5.10765 0
M  V30 41273 N 3733.5 -3.01824 6.23598 0
M  V30 41274 N 3735.29 -2.60447 4.9812 0
M  V30 41275 H 3727.44 0.0196071 2.12391 0
M  V30 41276 H 3729.71 -0.0537878 0.946473 0
M  V30 41277 H 3729.41 -0.7873 3.42775 0
M  V30 41278 H 3729.29 -2.44659 2.87092 0
M  V30 41279 H 3731.67 -2.26079 1.89663 0
M  V30 41280 H 3731.75 -0.595037 2.48783 0
M  V30 41281 H 3731.4 -1.44636 4.86871 0
M  V30 41282 H 3731.33 -3.11421 4.24647 0
M  V30 41283 H 3733.82 -1.8966 3.2686 0
M  V30 41284 H 3734.13 -3.32496 6.97614 0
M  V30 41285 H 3732.48 -2.9965 6.27084 0
M  V30 41286 H 3735.67 -2.27604 4.09041 0
M  V30 41287 H 3735.84 -2.92759 5.78097 0
M  V30 41288 N 3729.25 -1.29383 -0.899882 0
M  V30 41289 C 3730.66 -1.0739 -1.18066 0
M  V30 41290 C 3730.86 0.174915 -2.00739 0
M  V30 41291 O 3729.92 0.87273 -2.36938 0
M  V30 41292 C 3731.23 -2.32923 -1.90178 0
M  V30 41293 C 3732.78 -2.3824 -2.03004 0
M  V30 41294 C 3733.25 -3.63575 -2.78527 0
M  V30 41295 N 3734.75 -3.64296 -2.86081 0
M  V30 41296 C 3735.48 -4.57958 -3.45053 0
M  V30 41297 N 3734.98 -5.61952 -4.05194 0
M  V30 41298 N 3736.77 -4.45528 -3.42726 0
M  V30 41299 H 3728.92 -2.09525 -0.348269 0
M  V30 41300 H 3731.18 -0.922882 -0.21678 0
M  V30 41301 H 3730.89 -3.23977 -1.36865 0
M  V30 41302 H 3730.76 -2.40417 -2.90654 0
M  V30 41303 H 3733.15 -1.47674 -2.55492 0
M  V30 41304 H 3733.23 -2.34731 -1.01662 0
M  V30 41305 H 3732.88 -4.54492 -2.26715 0
M  V30 41306 H 3732.81 -3.64342 -3.80214 0
M  V30 41307 H 3735.3 -2.89104 -2.43367 0
M  V30 41308 H 3735.61 -6.29543 -4.48214 0
M  V30 41309 H 3733.95 -5.65762 -4.03657 0
M  V30 41310 H 3737.15 -3.63477 -2.94961 0
M  V30 41311 H 3737.32 -5.18707 -3.88391 0
M  V30 41312 N 3730.72 1.11022 -1.11856 0
M  V30 41313 C 3732.14 1.64366 -0.885471 0
M  V30 41314 C 3732.49 1.87387 0.581422 0
M  V30 41315 O 3731.61 1.61132 1.44449 0
M  V30 41316 C 3732.21 2.98592 -1.60088 0
M  V30 41317 C 3730.77 3.48827 -1.41409 0
M  V30 41318 C 3729.91 2.23552 -1.64073 0
M  V30 41319 H 3732.86 0.946037 -1.2742 0
M  V30 41320 H 3732.88 3.65772 -1.04839 0
M  V30 41321 H 3732.4 2.81806 -2.66847 0
M  V30 41322 H 3730.5 3.7077 -0.368792 0
M  V30 41323 H 3730.61 4.27337 -2.16611 0
M  V30 41324 H 3728.97 2.31392 -1.06441 0
M  V30 41325 H 3729.76 2.09303 -2.72116 0
M  V30 41326 N 3732.2 0.90954 1.28706 0
M  V30 41327 C 3733.13 0.35202 2.26481 0
M  V30 41328 C 3734.15 -0.507172 1.54698 0
M  V30 41329 O 3735.34 -0.322734 1.75558 0
M  V30 41330 C 3732.44 -0.515838 3.34951 0
M  V30 41331 C 3731.61 0.319876 4.36229 0
M  V30 41332 C 3730.67 -0.482391 5.23984 0
M  V30 41333 O 3729.69 0.10357 5.69106 0
M  V30 41334 N 3730.9 -1.78636 5.52331 0
M  V30 41335 H 3733.66 1.19242 2.74957 0
M  V30 41336 H 3731.22 0.775048 1.42143 0
M  V30 41337 H 3733.21 -1.05918 3.90594 0
M  V30 41338 H 3731.78 -1.25695 2.86216 0
M  V30 41339 H 3731 1.0446 3.80107 0
M  V30 41340 H 3732.29 0.891857 5.00922 0
M  V30 41341 H 3731.69 -2.285 5.17498 0
M  V30 41342 H 3730.25 -2.27661 6.10748 0
M  V30 41343 N 3733.68 -1.42505 0.673067 0
M  V30 41344 C 3734.61 -2.33499 0.00759571 0
M  V30 41345 C 3735.59 -1.50582 -0.791134 0
M  V30 41346 O 3736.78 -1.7919 -0.748636 0
M  V30 41347 C 3733.91 -3.3418 -0.945579 0
M  V30 41348 C 3732.86 -4.27236 -0.255565 0
M  V30 41349 C 3732.19 -5.18111 -1.32156 0
M  V30 41350 C 3733.49 -5.15098 0.864345 0
M  V30 41351 H 3735.18 -2.89395 0.767538 0
M  V30 41352 H 3732.73 -1.39151 0.370548 0
M  V30 41353 H 3734.68 -3.96747 -1.42019 0
M  V30 41354 H 3733.4 -2.76584 -1.73692 0
M  V30 41355 H 3732.06 -3.66061 0.198794 0
M  V30 41356 H 3731.71 -4.56843 -2.10484 0
M  V30 41357 H 3731.41 -5.81198 -0.865006 0
M  V30 41358 H 3732.93 -5.83554 -1.79714 0
M  V30 41359 H 3734.35 -5.71362 0.471025 0
M  V30 41360 H 3732.75 -5.8701 1.24658 0
M  V30 41361 H 3733.82 -4.53602 1.71386 0
M  V30 41362 N 3735.16 -0.41628 -1.52003 0
M  V30 41363 C 3736.07 0.412363 -2.30947 0
M  V30 41364 C 3737.08 1.04705 -1.38971 0
M  V30 41365 O 3738.26 1.047 -1.72046 0
M  V30 41366 C 3735.33 1.51018 -3.12081 0
M  V30 41367 C 3734.39 0.897818 -4.19807 0
M  V30 41368 C 3733.62 1.94332 -4.97062 0
M  V30 41369 O 3733.84 3.16253 -4.747 0
M  V30 41370 O 3732.78 1.54557 -5.81718 0
M  V30 41371 H 3736.6 -0.231527 -3.02816 0
M  V30 41372 H 3734.19 -0.179309 -1.4832 0
M  V30 41373 H 3736.07 2.14735 -3.62584 0
M  V30 41374 H 3734.74 2.13854 -2.42998 0
M  V30 41375 H 3733.65 0.22317 -3.73434 0
M  V30 41376 H 3734.98 0.313274 -4.91202 0
M  V30 41377 N 3736.64 1.56914 -0.146931 0
M  V30 41378 C 3737.55 2.20326 0.805836 0
M  V30 41379 C 3738.56 1.18753 1.27176 0
M  V30 41380 O 3739.74 1.51329 1.32896 0
M  V30 41381 C 3736.8 2.81235 2.0275 0
M  V30 41382 C 3735.86 3.97933 1.61082 0
M  V30 41383 C 3735.1 4.55929 2.77425 0
M  V30 41384 O 3735.32 4.12804 3.93636 0
M  V30 41385 O 3734.25 5.46191 2.52901 0
M  V30 41386 H 3738.08 3.02254 0.296045 0
M  V30 41387 H 3735.67 1.49185 0.0800913 0
M  V30 41388 H 3737.55 3.19949 2.74246 0
M  V30 41389 H 3736.22 2.0232 2.52682 0
M  V30 41390 H 3735.13 3.63936 0.866096 0
M  V30 41391 H 3736.46 4.78368 1.15866 0
M  V30 41392 N 3738.11 -0.126854 1.57089 0
M  V30 41393 C 3739.04 -1.15733 2.02801 0
M  V30 41394 C 3740.03 -1.43645 0.911056 0
M  V30 41395 O 3741.21 -1.5422 1.18024 0
M  V30 41396 C 3738.34 -2.48551 2.42569 0
M  V30 41397 C 3737.29 -2.35119 3.57635 0
M  V30 41398 C 3736.62 -3.72829 3.83279 0
M  V30 41399 C 3737.92 -1.81829 4.89628 0
M  V30 41400 H 3739.61 -0.777156 2.89138 0
M  V30 41401 H 3737.16 -0.372392 1.39102 0
M  V30 41402 H 3739.11 -3.20883 2.73152 0
M  V30 41403 H 3737.84 -2.88443 1.53193 0
M  V30 41404 H 3736.5 -1.65236 3.2725 0
M  V30 41405 H 3736.14 -4.10192 2.91121 0
M  V30 41406 H 3735.84 -3.64697 4.60728 0
M  V30 41407 H 3737.37 -4.46678 4.16306 0
M  V30 41408 H 3738.78 -2.43972 5.18797 0
M  V30 41409 H 3737.18 -1.84538 5.71022 0
M  V30 41410 H 3738.25 -0.775301 4.78662 0
M  V30 41411 N 3739.59 -1.52523 -0.396809 0
M  V30 41412 C 3740.84 -1.66411 -1.13975 0
M  V30 41413 C 3741.15 -0.40636 -1.91332 0
M  V30 41414 O 3742.36 -0.425242 -2.68149 0
M  V30 41415 C 3740.82 -2.94056 -2.07507 0
M  V30 41416 C 3740.42 -4.26983 -1.35608 0
M  V30 41417 C 3742.17 -3.17309 -2.81984 0
M  V30 41418 C 3740.08 -5.45741 -2.2786 0
M  V30 41419 H 3739.01 -0.619943 -0.42917 0
M  V30 41420 H 3741.66 -1.79016 -0.403176 0
M  V30 41421 H 3740.04 -2.75179 -2.84768 0
M  V30 41422 H 3741.21 -4.56386 -0.636269 0
M  V30 41423 H 3739.53 -4.09929 -0.731225 0
M  V30 41424 H 3742.12 -4.03214 -3.51173 0
M  V30 41425 H 3742.47 -2.32054 -3.45625 0
M  V30 41426 H 3743 -3.36716 -2.11818 0
M  V30 41427 H 3739.74 -6.33381 -1.68847 0
M  V30 41428 H 3739.26 -5.2066 -2.9778 0
M  V30 41429 H 3740.94 -5.79308 -2.88116 0
M  V30 41430 N 3741.07 0.654789 -1.43354 0
M  V30 41431 C 3742.3 1.44248 -1.48324 0
M  V30 41432 C 3742.71 1.88532 -0.100641 0
M  V30 41433 O 3742.07 1.59394 0.888803 0
M  V30 41434 C 3742.12 2.67849 -2.42774 0
M  V30 41435 O 3741.84 2.25418 -3.75657 0
M  V30 41436 C 3743.34 3.61222 -2.5697 0
M  V30 41437 H 3740.56 0.443186 -0.503813 0
M  V30 41438 H 3743.11 0.802883 -1.8808 0
M  V30 41439 H 3741.26 3.27952 -2.06218 0
M  V30 41440 H 3741.68 3.05378 -4.26432 0
M  V30 41441 H 3743.15 4.44619 -3.27137 0
M  V30 41442 H 3743.63 4.08464 -1.61411 0
M  V30 41443 H 3744.23 3.07001 -2.94331 0
M  V30 41444 N 3742.55 1.29858 0.893007 0
M  V30 41445 C 3743.51 1.15549 1.97942 0
M  V30 41446 C 3744.51 0.0890172 1.60553 0
M  V30 41447 O 3745.7 0.336494 1.70919 0
M  V30 41448 C 3742.83 0.7685 3.32125 0
M  V30 41449 H 3744.03 2.12059 2.12064 0
M  V30 41450 H 3741.58 1.1314 1.07838 0
M  V30 41451 H 3742.32 -0.196447 3.23704 0
M  V30 41452 H 3742.1 1.53913 3.60629 0
M  V30 41453 H 3743.59 0.691632 4.11833 0
M  V30 41454 N 3744.03 -1.10427 1.12443 0
M  V30 41455 C 3744.99 -2.14953 0.795481 0
M  V30 41456 C 3745.99 -1.59671 -0.190192 0
M  V30 41457 O 3747.18 -1.74164 0.0356103 0
M  V30 41458 C 3744.31 -3.40413 0.182103 0
M  V30 41459 H 3745.51 -2.45564 1.72158 0
M  V30 41460 H 3743.06 -1.25792 0.927695 0
M  V30 41461 H 3743.79 -3.1542 -0.753711 0
M  V30 41462 H 3743.58 -3.81824 0.891776 0
M  V30 41463 H 3745.07 -4.17588 -0.0315552 0
M  V30 41464 N 3745.51 -0.916353 -1.28221 0
M  V30 41465 C 3746.44 -0.364026 -2.26291 0
M  V30 41466 C 3747.45 0.498961 -1.54965 0
M  V30 41467 O 3748.64 0.313419 -1.75727 0
M  V30 41468 C 3745.74 0.498067 -3.3522 0
M  V30 41469 C 3744.91 -0.343006 -4.36053 0
M  V30 41470 C 3743.97 0.454596 -5.24233 0
M  V30 41471 O 3743 -0.133749 -5.69043 0
M  V30 41472 N 3744.2 1.75704 -5.53271 0
M  V30 41473 H 3746.96 -1.20699 -2.74321 0
M  V30 41474 H 3744.53 -0.782576 -1.4173 0
M  V30 41475 H 3746.52 1.03845 -3.9115 0
M  V30 41476 H 3745.09 1.24175 -2.86879 0
M  V30 41477 H 3744.31 -1.06475 -3.79548 0
M  V30 41478 H 3745.6 -0.91841 -5.00442 0
M  V30 41479 H 3744.99 2.25753 -5.18702 0
M  V30 41480 H 3743.55 2.24419 -6.11947 0
M  V30 41481 N 3746.98 1.42146 -0.680615 0
M  V30 41482 C 3747.93 2.32599 0.00568415 0
M  V30 41483 C 3748.93 1.50144 0.784422 0
M  V30 41484 O 3750.13 1.66178 0.69173 0
M  V30 41485 H 3746.51 0.751717 0.0206351 0
M  V30 41486 H 3748.48 2.88174 -0.774497 0
M  V30 41487 C 3747.23 3.34782 0.93896 0
M  V30 41488 H 3746.55 3.98272 0.349155 0
M  V30 41489 H 3747.99 4.00646 1.38775 0
M  V30 41490 C 3746.45 2.67497 2.0481 0
M  V30 41491 O 3746.98 2.51132 3.13521 0
M  V30 41492 N 3745.18 2.26429 1.82149 0
M  V30 41493 H 3744.73 2.39939 0.937388 0
M  V30 41494 H 3744.69 1.81743 2.56548 0
M  V30 41495 N 3748.46 0.424336 1.5178 0
M  V30 41496 C 3749.39 -0.384422 2.30314 0
M  V30 41497 C 3750.37 -1.03265 1.35168 0
M  V30 41498 O 3751.56 -1.03877 1.64083 0
M  V30 41499 C 3748.69 -1.49306 3.13568 0
M  V30 41500 C 3747.64 -0.969022 4.16886 0
M  V30 41501 C 3746.97 -2.17242 4.8858 0
M  V30 41502 C 3748.27 -0.0124695 5.22299 0
M  V30 41503 H 3749.96 0.270923 2.98172 0
M  V30 41504 H 3747.51 0.131738 1.43396 0
M  V30 41505 H 3749.46 -2.06595 3.67282 0
M  V30 41506 H 3748.18 -2.1765 2.43507 0
M  V30 41507 H 3746.84 -0.41843 3.64204 0
M  V30 41508 H 3746.49 -2.84176 4.15034 0
M  V30 41509 H 3746.19 -1.82823 5.58435 0
M  V30 41510 H 3747.72 -2.75109 5.45112 0
M  V30 41511 H 3749.13 -0.494643 5.71162 0
M  V30 41512 H 3747.53 0.243649 5.99605 0
M  V30 41513 H 3748.6 0.928214 4.75933 0
M  V30 41514 N 3749.94 -1.56833 0.15525 0
M  V30 41515 C 3750.89 -2.17174 -0.781277 0
M  V30 41516 C 3751.86 -1.10701 -1.23833 0
M  V30 41517 O 3753.04 -1.3878 -1.30938 0
M  V30 41518 C 3750.18 -2.80401 -2.01169 0
M  V30 41519 C 3749.29 -4.0129 -1.59969 0
M  V30 41520 C 3748.43 -4.52491 -2.78254 0
M  V30 41521 C 3747.47 -5.65827 -2.33467 0
M  V30 41522 N 3746.61 -6.11609 -3.44788 0
M  V30 41523 H 3751.45 -2.96864 -0.259916 0
M  V30 41524 H 3748.98 -1.46637 -0.116574 0
M  V30 41525 H 3750.94 -3.15208 -2.73313 0
M  V30 41526 H 3749.57 -2.03342 -2.50703 0
M  V30 41527 H 3748.62 -3.72409 -0.775603 0
M  V30 41528 H 3749.93 -4.83376 -1.23082 0
M  V30 41529 H 3749.09 -4.89396 -3.58576 0
M  V30 41530 H 3747.83 -3.6943 -3.18391 0
M  V30 41531 H 3746.83 -5.2849 -1.51587 0
M  V30 41532 H 3748.06 -6.50679 -1.94406 0
M  V30 41533 H 3746 -5.3148 -3.84532 0
M  V30 41534 H 3745.92 -6.88642 -3.11943 0
M  V30 41535 H 3747.19 -6.5316 -4.25443 0
M  V30 41536 N 3751.42 0.118521 -1.57154 0
M  V30 41537 C 3752.37 1.16436 -2.01359 0
M  V30 41538 C 3753.36 1.42844 -0.910599 0
M  V30 41539 O 3754.57 1.42801 -1.0958 0
M  V30 41540 H 3750.94 0.392596 -0.641383 0
M  V30 41541 H 3752.91 0.765037 -2.88426 0
M  V30 41542 C 3751.66 2.48277 -2.43421 0
M  V30 41543 H 3750.98 2.28795 -3.27861 0
M  V30 41544 H 3752.42 3.20015 -2.78149 0
M  V30 41545 C 3750.88 3.1089 -1.29804 0
M  V30 41546 O 3751.41 3.96975 -0.614276 0
M  V30 41547 N 3749.62 2.70774 -1.05498 0
M  V30 41548 H 3749.17 2.00865 -1.61279 0
M  V30 41549 H 3749.12 3.12997 -0.296733 0
M  V30 41550 N 3752.9 1.52731 0.388715 0
M  V30 41551 C 3753.84 1.7753 1.47485 0
M  V30 41552 C 3754.81 0.618532 1.54154 0
M  V30 41553 O 3756 0.858281 1.70406 0
M  V30 41554 C 3753.14 1.95023 2.84711 0
M  V30 41555 C 3752.25 3.22715 2.87191 0
M  V30 41556 C 3751.39 3.30524 4.15845 0
M  V30 41557 C 3750.42 4.52339 4.12378 0
M  V30 41558 N 3749.56 4.57428 5.32639 0
M  V30 41559 H 3754.4 2.7022 1.25639 0
M  V30 41560 H 3751.94 1.33879 0.609495 0
M  V30 41561 H 3753.9 2.0315 3.64398 0
M  V30 41562 H 3752.53 1.05693 3.05006 0
M  V30 41563 H 3751.58 3.23659 1.99873 0
M  V30 41564 H 3752.89 4.12459 2.80497 0
M  V30 41565 H 3752.04 3.37836 5.03937 0
M  V30 41566 H 3750.78 2.38755 4.25261 0
M  V30 41567 H 3749.79 4.45153 3.22675 0
M  V30 41568 H 3751.01 5.45425 4.04584 0
M  V30 41569 H 3748.96 3.6855 5.42685 0
M  V30 41570 H 3748.88 5.41044 5.28022 0
M  V30 41571 H 3750.14 4.68994 6.22627 0
M  V30 41572 N 3754.37 -0.647178 1.43699 0
M  V30 41573 C 3755.6 -1.43459 1.49087 0
M  V30 41574 C 3756.02 -1.88476 0.110638 0
M  V30 41575 O 3755.37 -1.59863 -0.880337 0
M  V30 41576 C 3755.42 -2.66558 2.44191 0
M  V30 41577 O 3755.15 -2.23422 3.76847 0
M  V30 41578 C 3756.65 -3.59854 2.58882 0
M  V30 41579 H 3753.87 -0.440508 0.506156 0
M  V30 41580 H 3756.41 -0.792897 1.88503 0
M  V30 41581 H 3754.57 -3.26854 2.07955 0
M  V30 41582 H 3754.98 -3.03112 4.28046 0
M  V30 41583 H 3756.45 -4.42877 3.2949 0
M  V30 41584 H 3756.93 -4.07603 1.63575 0
M  V30 41585 H 3757.54 -3.05436 2.95955 0
M  V30 41586 N 3755.85 -1.3033 -0.886108 0
M  V30 41587 C 3757.08 -1.22137 -1.67623 0
M  V30 41588 C 3757.5 0.212679 -1.86894 0
M  V30 41589 O 3756.86 1.15308 -1.39907 0
M  V30 41590 C 3756.91 -1.95407 -3.03065 0
M  V30 41591 O 3756.01 -1.28039 -3.9202 0
M  V30 41592 H 3755.35 -0.422502 -0.512238 0
M  V30 41593 H 3757.88 -1.72131 -1.10599 0
M  V30 41594 H 3757.89 -2.04386 -3.53115 0
M  V30 41595 H 3756.57 -2.99704 -2.88358 0
M  V30 41596 H 3755.15 -1.27408 -3.50459 0
M  V30 41597 N 3757.33 1.0983 -1.13028 0
M  V30 41598 C 3758.28 2.18438 -0.799212 0
M  V30 41599 C 3759.27 1.68009 0.216666 0
M  V30 41600 O 3760.48 1.79847 0.0742346 0
M  V30 41601 H 3756.85 0.712454 -0.240652 0
M  V30 41602 H 3758.82 2.43597 -1.72346 0
M  V30 41603 C 3757.57 3.46595 -0.276986 0
M  V30 41604 H 3756.9 3.85766 -1.04999 0
M  V30 41605 H 3758.34 4.23917 -0.0837213 0
M  V30 41606 C 3756.8 3.21828 0.996422 0
M  V30 41607 O 3757.33 3.44075 2.07304 0
M  V30 41608 N 3755.53 2.75457 0.925854 0
M  V30 41609 H 3755.08 2.57552 0.049593 0
M  V30 41610 H 3755.04 2.59263 1.77849 0
M  V30 41611 N 3758.81 0.92314 1.27734 0
M  V30 41612 C 3759.74 0.376021 2.26094 0
M  V30 41613 C 3760.75 -0.490735 1.55228 0
M  V30 41614 O 3761.94 -0.304096 1.75891 0
M  V30 41615 C 3759.04 -0.480283 3.3548 0
M  V30 41616 C 3758.22 0.366126 4.35865 0
M  V30 41617 C 3757.27 -0.426788 5.24466 0
M  V30 41618 O 3756.3 0.163925 5.68964 0
M  V30 41619 N 3757.5 -1.72767 5.54195 0
M  V30 41620 H 3760.27 1.22152 2.73677 0
M  V30 41621 H 3757.83 0.790081 1.41313 0
M  V30 41622 H 3759.82 -1.01769 3.91695 0
M  V30 41623 H 3758.39 -1.22652 2.87533 0
M  V30 41624 H 3757.61 1.08486 3.78978 0
M  V30 41625 H 3758.9 0.944937 4.99948 0
M  V30 41626 H 3758.3 -2.22999 5.19892 0
M  V30 41627 H 3756.85 -2.21171 6.13129 0
M  V30 41628 N 3760.29 -1.41783 0.688143 0
M  V30 41629 C 3761.2 -2.34593 0.0184382 0
M  V30 41630 C 3762.21 -1.55825 -0.774247 0
M  V30 41631 O 3763.39 -1.88337 -0.713513 0
M  V30 41632 C 3760.45 -3.34494 -0.911855 0
M  V30 41633 C 3759.51 -4.29153 -0.112208 0
M  V30 41634 C 3758.75 -5.24282 -0.998193 0
M  V30 41635 O 3758.97 -5.24673 -2.23773 0
M  V30 41636 O 3757.9 -6.00202 -0.451845 0
M  V30 41637 H 3761.73 -2.93425 0.783276 0
M  V30 41638 H 3759.32 -1.42511 0.448438 0
M  V30 41639 H 3761.2 -3.95831 -1.44553 0
M  V30 41640 H 3759.87 -2.78115 -1.65631 0
M  V30 41641 H 3758.78 -3.71188 0.465887 0
M  V30 41642 H 3760.11 -4.8861 0.593423 0
M  V30 41643 N 3761.76 -0.432379 -1.51553 0
M  V30 41644 C 3762.73 0.369872 -2.26196 0
M  V30 41645 C 3763.73 0.953938 -1.29448 0
M  V30 41646 O 3764.92 0.829167 -1.53201 0
M  V30 41647 C 3762.05 1.52283 -3.04996 0
M  V30 41648 H 3763.24 -0.284225 -2.9855 0
M  V30 41649 H 3760.8 -0.185428 -1.55196 0
M  V30 41650 H 3761.53 2.21313 -2.37047 0
M  V30 41651 H 3761.32 1.11026 -3.76053 0
M  V30 41652 H 3762.81 2.08976 -3.61551 0
M  V30 41653 N 3763.24 1.56749 -0.163565 0
M  V30 41654 C 3764.66 1.58433 0.192689 0
M  V30 41655 C 3764.86 1.17859 1.63436 0
M  V30 41656 O 3763.91 0.886582 2.36423 0
M  V30 41657 C 3765.23 3.00591 -0.0810955 0
M  V30 41658 C 3766.78 3.12994 -0.0186928 0
M  V30 41659 C 3767.25 4.57231 -0.265364 0
M  V30 41660 N 3768.74 4.62711 -0.212868 0
M  V30 41661 C 3769.48 5.72153 -0.37801 0
M  V30 41662 N 3768.97 6.90181 -0.601784 0
M  V30 41663 N 3770.77 5.6122 -0.314455 0
M  V30 41664 H 3762.92 1.81412 -1.1047 0
M  V30 41665 H 3765.18 0.840445 -0.438584 0
M  V30 41666 H 3764.89 3.34723 -1.07949 0
M  V30 41667 H 3764.76 3.71888 0.630823 0
M  V30 41668 H 3767.15 2.78693 0.970275 0
M  V30 41669 H 3767.23 2.44149 -0.763201 0
M  V30 41670 H 3766.87 4.9224 -1.25151 0
M  V30 41671 H 3766.8 5.24224 0.499664 0
M  V30 41672 H 3769.29 3.77873 -0.0452418 0
M  V30 41673 H 3769.61 7.69462 -0.717454 0
M  V30 41674 H 3767.95 6.92063 -0.638306 0
M  V30 41675 H 3771.14 4.6789 -0.140279 0
M  V30 41676 H 3771.31 6.46459 -0.446585 0
M  V30 41677 N 3764.72 -0.110185 1.57214 0
M  V30 41678 C 3765.95 -0.830358 1.89506 0
M  V30 41679 C 3766.36 -1.73015 0.755733 0
M  V30 41680 O 3765.72 -1.80446 -0.273041 0
M  V30 41681 C 3765.77 -1.6564 3.21319 0
M  V30 41682 O 3765.49 -0.792825 4.30866 0
M  V30 41683 C 3766.99 -2.48096 3.67374 0
M  V30 41684 H 3764.21 -0.238241 0.627282 0
M  V30 41685 H 3766.76 -0.0919357 2.04293 0
M  V30 41686 H 3764.91 -2.34749 3.08175 0
M  V30 41687 H 3765.33 -1.36344 5.06469 0
M  V30 41688 H 3766.8 -3.01572 4.6234 0
M  V30 41689 H 3767.28 -3.25864 2.94465 0
M  V30 41690 H 3767.88 -1.84214 3.83335 0
M  V30 41691 N 3766.2 -1.52935 -0.38061 0
M  V30 41692 C 3767.45 -1.6761 -1.12204 0
M  V30 41693 C 3767.76 -0.42663 -1.90891 0
M  V30 41694 O 3768.97 -0.453659 -2.67683 0
M  V30 41695 C 3767.42 -2.9624 -2.04376 0
M  V30 41696 C 3767.03 -4.28397 -1.31072 0
M  V30 41697 C 3768.77 -3.20282 -2.78603 0
M  V30 41698 C 3766.68 -5.48127 -2.22059 0
M  V30 41699 H 3765.61 -0.62446 -0.422571 0
M  V30 41700 H 3768.26 -1.79434 -0.384166 0
M  V30 41701 H 3766.64 -2.78183 -2.81833 0
M  V30 41702 H 3767.82 -4.57035 -0.587827 0
M  V30 41703 H 3766.13 -4.10682 -0.687705 0
M  V30 41704 H 3768.73 -4.06916 -3.46876 0
M  V30 41705 H 3769.07 -2.35707 -3.43144 0
M  V30 41706 H 3769.61 -3.38944 -2.08235 0
M  V30 41707 H 3766.35 -6.35136 -1.62119 0
M  V30 41708 H 3765.87 -5.23789 -2.92241 0
M  V30 41709 H 3767.54 -5.82331 -2.81956 0
M  V30 41710 N 3767.68 0.639548 -1.4404 0
M  V30 41711 C 3768.93 1.39519 -1.45662 0
M  V30 41712 C 3769.24 1.95394 -0.0898221 0
M  V30 41713 O 3770.44 2.71495 0.0164596 0
M  V30 41714 C 3768.9 2.52562 -2.56399 0
M  V30 41715 C 3768.51 2.03236 -3.99248 0
M  V30 41716 C 3770.25 3.29829 -2.67232 0
M  V30 41717 C 3768.16 3.13572 -5.01425 0
M  V30 41718 H 3767.09 0.524268 -0.541903 0
M  V30 41719 H 3769.74 0.688911 -1.70077 0
M  V30 41720 H 3768.12 3.25725 -2.25209 0
M  V30 41721 H 3769.3 1.36994 -4.39965 0
M  V30 41722 H 3767.61 1.38809 -3.92583 0
M  V30 41723 H 3770.21 4.12066 -3.40743 0
M  V30 41724 H 3770.55 3.7876 -1.72762 0
M  V30 41725 H 3771.08 2.63753 -2.9779 0
M  V30 41726 H 3767.82 2.69595 -5.97494 0
M  V30 41727 H 3767.34 3.78482 -4.65308 0
M  V30 41728 H 3769.02 3.78484 -5.24747 0
M  V30 41729 N 3769.15 1.30798 0.879184 0
M  V30 41730 C 3770.38 1.22894 1.66447 0
M  V30 41731 C 3770.8 -0.207273 1.87659 0
M  V30 41732 O 3770.15 -1.13617 1.4282 0
M  V30 41733 C 3770.21 1.95987 3.03762 0
M  V30 41734 O 3769.93 3.34002 2.83504 0
M  V30 41735 C 3771.43 1.94811 3.982 0
M  V30 41736 H 3768.65 0.42504 0.519213 0
M  V30 41737 H 3771.19 1.72521 1.09804 0
M  V30 41738 H 3769.35 1.50145 3.57121 0
M  V30 41739 H 3769.76 3.71098 3.70657 0
M  V30 41740 H 3771.23 2.50482 4.91897 0
M  V30 41741 H 3771.71 0.928412 4.29275 0
M  V30 41742 H 3772.32 2.40491 3.50776 0
M  V30 41743 N 3770.63 -1.09229 1.13608 0
M  V30 41744 C 3771.91 -1.78033 0.810151 0
M  V30 41745 C 3772.29 -1.99229 -0.697918 0
M  V30 41746 O 3771.64 -1.59533 -1.63589 0
M  V30 41747 C 3771.85 -3.10195 1.59937 0
M  V30 41748 C 3773.2 -3.84869 1.79335 0
M  V30 41749 O 3774.22 -3.19953 1.56553 0
M  V30 41750 O 3773.08 -5.01413 2.17364 0
M  V30 41751 H 3770.17 -0.77221 0.296008 0
M  V30 41752 H 3772.72 -1.15767 1.24081 0
M  V30 41753 H 3771.49 -2.90265 2.62415 0
M  V30 41754 H 3771.11 -3.80187 1.16378 0
M  V30 41755 N 3772.11 -0.929901 -1.27242 0
M  V30 41756 C 3773.53 -0.630477 -1.46619 0
M  V30 41757 C 3773.73 0.819601 -1.84078 0
M  V30 41758 O 3772.78 1.59729 -1.95558 0
M  V30 41759 C 3774.1 -1.58223 -2.55707 0
M  V30 41760 C 3775.64 -1.5907 -2.69566 0
M  V30 41761 C 3776.12 -2.52948 -3.81813 0
M  V30 41762 N 3777.61 -2.51168 -3.8919 0
M  V30 41763 C 3778.35 -3.20496 -4.75468 0
M  V30 41764 N 3777.84 -3.99211 -5.66218 0
M  V30 41765 N 3779.63 -3.09503 -4.69216 0
M  V30 41766 H 3771.79 -1.86735 -1.01212 0
M  V30 41767 H 3774.05 -0.80184 -0.505723 0
M  V30 41768 H 3773.75 -2.61681 -2.34981 0
M  V30 41769 H 3773.63 -1.32562 -3.53139 0
M  V30 41770 H 3776.02 -0.563426 -2.89671 0
M  V30 41771 H 3776.1 -1.88781 -1.72613 0
M  V30 41772 H 3775.74 -3.55787 -3.62461 0
M  V30 41773 H 3775.67 -2.20532 -4.78198 0
M  V30 41774 H 3778.16 -1.94002 -3.24302 0
M  V30 41775 H 3778.47 -4.49091 -6.28917 0
M  V30 41776 H 3776.82 -4.03314 -5.66006 0
M  V30 41777 H 3780.01 -2.475 -3.97318 0
M  V30 41778 H 3780.18 -3.63803 -5.36238 0
M  V30 41779 N 3773.59 1.41416 -0.695653 0
M  V30 41780 C 3774.84 2.00455 -0.223754 0
M  V30 41781 C 3775.15 1.55733 1.18349 0
M  V30 41782 O 3776.36 2.07333 1.75286 0
M  V30 41783 C 3774.81 3.58202 -0.349139 0
M  V30 41784 C 3774.42 4.11906 -1.76176 0
M  V30 41785 C 3776.17 4.24453 0.0629816 0
M  V30 41786 C 3774.07 5.62088 -1.83879 0
M  V30 41787 H 3773 0.749755 -0.0798965 0
M  V30 41788 H 3775.65 1.61894 -0.863862 0
M  V30 41789 H 3774.04 3.94367 0.359221 0
M  V30 41790 H 3775.21 3.8716 -2.49888 0
M  V30 41791 H 3773.52 3.58181 -2.12356 0
M  V30 41792 H 3776.12 5.34694 0.0258645 0
M  V30 41793 H 3776.46 4.01457 1.10172 0
M  V30 41794 H 3777 3.93323 -0.595105 0
M  V30 41795 H 3773.74 5.89911 -2.85806 0
M  V30 41796 H 3773.26 5.8876 -1.14551 0
M  V30 41797 H 3774.94 6.2686 -1.60172 0
M  V30 41798 N 3775.07 0.44041 1.51321 0
M  V30 41799 C 3775.98 -0.375569 2.31574 0
M  V30 41800 C 3776.99 -1.0248 1.40619 0
M  V30 41801 O 3778.17 -1.0195 1.7369 0
M  V30 41802 C 3775.23 -1.46034 3.14444 0
M  V30 41803 C 3774.3 -0.830917 4.21182 0
M  V30 41804 C 3773.53 -1.864 5.00091 0
M  V30 41805 O 3773.75 -3.08661 4.79671 0
M  V30 41806 O 3772.69 -1.45283 5.84103 0
M  V30 41807 H 3776.51 0.279673 3.0241 0
M  V30 41808 H 3774.1 0.202883 1.48016 0
M  V30 41809 H 3775.98 -2.08939 3.65954 0
M  V30 41810 H 3774.65 -2.09961 2.4637 0
M  V30 41811 H 3773.56 -0.163732 3.73742 0
M  V30 41812 H 3774.89 -0.235088 4.91638 0
M  V30 41813 N 3776.55 -1.5666 0.171876 0
M  V30 41814 C 3777.96 -1.58532 -0.184284 0
M  V30 41815 C 3778.16 -1.18724 -1.62809 0
M  V30 41816 O 3777.22 -0.899107 -2.3595 0
M  V30 41817 C 3778.53 -3.00543 0.0970354 0
M  V30 41818 C 3780.08 -3.1298 0.0352914 0
M  V30 41819 C 3780.55 -4.57083 0.289608 0
M  V30 41820 N 3782.04 -4.62591 0.237404 0
M  V30 41821 C 3782.78 -5.71944 0.408347 0
M  V30 41822 N 3782.28 -6.89853 0.638377 0
M  V30 41823 N 3784.07 -5.61045 0.344214 0
M  V30 41824 H 3776.22 -1.80823 1.11431 0
M  V30 41825 H 3778.48 -0.838107 0.443035 0
M  V30 41826 H 3778.19 -3.34146 1.09723 0
M  V30 41827 H 3778.06 -3.72217 -0.611092 0
M  V30 41828 H 3780.45 -2.79203 -0.955482 0
M  V30 41829 H 3780.53 -2.43741 0.776138 0
M  V30 41830 H 3780.17 -4.91569 1.27759 0
M  V30 41831 H 3780.1 -5.24482 -0.471856 0
M  V30 41832 H 3782.6 -3.77844 0.0652807 0
M  V30 41833 H 3782.91 -7.69071 0.758251 0
M  V30 41834 H 3781.25 -6.91714 0.674999 0
M  V30 41835 H 3784.44 -4.67809 0.16509 0
M  V30 41836 H 3784.62 -6.46213 0.480862 0
M  V30 41837 N 3778.02 0.101846 -1.57271 0
M  V30 41838 C 3779.27 0.805231 -1.8493 0
M  V30 41839 C 3779.59 1.80226 -0.760131 0
M  V30 41840 O 3780.79 2.55306 -0.923639 0
M  V30 41841 C 3779.25 1.48285 -3.27932 0
M  V30 41842 C 3778.86 0.525938 -4.44902 0
M  V30 41843 C 3780.6 2.17036 -3.64822 0
M  V30 41844 C 3778.51 1.20777 -5.78936 0
M  V30 41845 H 3777.44 0.304466 -0.689794 0
M  V30 41846 H 3780.09 0.0581015 -1.83408 0
M  V30 41847 H 3778.47 2.27721 -3.23974 0
M  V30 41848 H 3779.64 -0.236433 -4.60193 0
M  V30 41849 H 3777.96 -0.0555118 -4.16363 0
M  V30 41850 H 3780.56 2.6877 -4.62241 0
M  V30 41851 H 3780.9 2.95623 -2.93109 0
M  V30 41852 H 3781.43 1.44469 -3.70639 0
M  V30 41853 H 3778.17 0.462845 -6.53864 0
M  V30 41854 H 3777.69 1.94173 -5.67501 0
M  V30 41855 H 3779.37 1.73615 -6.23271 0
M  V30 41856 N 3779.5 1.53135 0.372494 0
M  V30 41857 C 3780.43 1.75359 1.47587 0
M  V30 41858 C 3781.45 0.63425 1.49937 0
M  V30 41859 O 3782.64 0.910349 1.53541 0
M  V30 41860 C 3779.74 1.81219 2.86379 0
M  V30 41861 C 3778.91 3.10765 3.07805 0
M  V30 41862 C 3777.97 3.07957 4.26672 0
M  V30 41863 O 3776.99 3.81776 4.2218 0
M  V30 41864 N 3778.2 2.28293 5.33725 0
M  V30 41865 H 3780.96 2.70562 1.28903 0
M  V30 41866 H 3778.52 1.51827 0.56216 0
M  V30 41867 H 3780.51 1.76826 3.64026 0
M  V30 41868 H 3779.08 0.933301 2.98342 0
M  V30 41869 H 3778.3 3.28516 2.17878 0
M  V30 41870 H 3779.59 3.96392 3.18984 0
M  V30 41871 H 3778.99 1.67816 5.40235 0
M  V30 41872 H 3777.55 2.29725 6.09975 0
M  V30 41873 N 3780.98 -0.6319 1.44377 0
M  V30 41874 C 3781.93 -1.7651 1.51483 0
M  V30 41875 C 3782.92 -1.6493 0.386591 0
M  V30 41876 O 3784.13 -1.71018 0.561503 0
M  V30 41877 H 3780.5 -0.582724 0.475328 0
M  V30 41878 H 3782.47 -1.6764 2.46859 0
M  V30 41879 C 3781.22 -3.14842 1.47545 0
M  V30 41880 H 3780.55 -3.24401 2.33676 0
M  V30 41881 H 3781.99 -3.9403 1.56577 0
M  V30 41882 C 3780.44 -3.36329 0.196102 0
M  V30 41883 O 3780.97 -3.94937 -0.734014 0
M  V30 41884 N 3779.18 -2.9043 0.0994842 0
M  V30 41885 H 3778.73 -2.42919 0.857219 0
M  V30 41886 H 3778.69 -3.05181 -0.755761 0
M  V30 41887 N 3782.46 -1.31262 -0.872235 0
M  V30 41888 C 3783.39 -1.1454 -1.98528 0
M  V30 41889 C 3784.4 -0.0851008 -1.62577 0
M  V30 41890 O 3785.59 -0.332374 -1.75378 0
M  V30 41891 C 3782.69 -0.727328 -3.31003 0
M  V30 41892 C 3781.86 -1.87214 -3.95309 0
M  V30 41893 C 3780.92 -1.44051 -5.06099 0
M  V30 41894 O 3779.95 -2.14979 -5.27041 0
M  V30 41895 N 3781.15 -0.326632 -5.7958 0
M  V30 41896 H 3783.92 -2.1041 -2.13419 0
M  V30 41897 H 3781.48 -1.23567 -1.04608 0
M  V30 41898 H 3783.47 -0.421325 -4.02501 0
M  V30 41899 H 3782.04 0.139695 -3.12288 0
M  V30 41900 H 3781.26 -2.34559 -3.16821 0
M  V30 41901 H 3782.55 -2.639 -4.3501 0
M  V30 41902 H 3781.95 0.264102 -5.65083 0
M  V30 41903 H 3780.5 -0.0801503 -6.51751 0
M  V30 41904 N 3783.94 1.08625 -1.14186 0
M  V30 41905 C 3785.18 1.81405 -0.919998 0
M  V30 41906 C 3785.54 1.8444 0.547676 0
M  V30 41907 O 3784.83 1.30763 1.40041 0
M  V30 41908 C 3785.02 3.26578 -1.45196 0
M  V30 41909 C 3784.85 3.37685 -2.96983 0
M  V30 41910 C 3783.62 3.49006 -3.65408 0
M  V30 41911 C 3785.82 3.29525 -3.94864 0
M  V30 41912 N 3783.8 3.48882 -5.05128 0
M  V30 41913 C 3785.17 3.36367 -5.20824 0
M  V30 41914 C 3787.23 3.13247 -3.87015 0
M  V30 41915 C 3785.93 3.28607 -6.39851 0
M  V30 41916 C 3787.96 3.06816 -5.05586 0
M  V30 41917 C 3787.32 3.14258 -6.30414 0
M  V30 41918 H 3783.42 0.677718 -0.390156 0
M  V30 41919 H 3786 1.29759 -1.45158 0
M  V30 41920 H 3784.17 3.76673 -0.947188 0
M  V30 41921 H 3785.91 3.87411 -1.17025 0
M  V30 41922 H 3782.66 3.52803 -3.15954 0
M  V30 41923 H 3783.08 3.52382 -5.78062 0
M  V30 41924 H 3787.73 3.06358 -2.91384 0
M  V30 41925 H 3785.44 3.34258 -7.35729 0
M  V30 41926 H 3789.03 2.95345 -5.01261 0
M  V30 41927 H 3787.91 3.09309 -7.20623 0
M  V30 41928 N 3785.41 0.936635 1.26747 0
M  V30 41929 C 3786.69 0.499843 1.89106 0
M  V30 41930 C 3787.07 -1.02241 1.84689 0
M  V30 41931 O 3786.42 -1.88045 1.29813 0
M  V30 41932 C 3786.63 1.05604 3.32639 0
M  V30 41933 C 3787.98 1.12194 4.09509 0
M  V30 41934 O 3789 1.0063 3.4169 0
M  V30 41935 O 3787.86 1.30122 5.30783 0
M  V30 41936 H 3784.95 0.1622 0.810938 0
M  V30 41937 H 3787.5 1.0289 1.34951 0
M  V30 41938 H 3786.27 2.09974 3.30192 0
M  V30 41939 H 3785.9 0.509155 3.94326 0
M  V30 41940 N 3786.89 -1.41045 0.703143 0
M  V30 41941 C 3787.8 -2.3456 0.0433189 0
M  V30 41942 C 3788.82 -1.56637 -0.757676 0
M  V30 41943 O 3789.99 -1.89084 -0.693497 0
M  V30 41944 C 3787.06 -3.35442 -0.876326 0
M  V30 41945 C 3786.12 -4.29248 -0.0666845 0
M  V30 41946 C 3785.35 -5.25311 -0.942529 0
M  V30 41947 O 3785.58 -5.27017 -2.18196 0
M  V30 41948 O 3784.51 -6.00647 -0.38816 0
M  V30 41949 H 3788.34 -2.92578 0.814354 0
M  V30 41950 H 3785.92 -1.42027 0.463528 0
M  V30 41951 H 3787.8 -3.97342 -1.40346 0
M  V30 41952 H 3786.48 -2.79856 -1.62672 0
M  V30 41953 H 3785.39 -3.70673 0.50523 0
M  V30 41954 H 3786.72 -4.87953 0.645214 0
M  V30 41955 N 3788.37 -0.448429 -1.51086 0
M  V30 41956 C 3789.62 0.114476 -2.02477 0
M  V30 41957 C 3789.95 1.41388 -1.33128 0
M  V30 41958 O 3789.22 1.8923 -0.449699 0
M  V30 41959 C 3789.51 0.321779 -3.58659 0
M  V30 41960 C 3789.36 -0.997053 -4.3861 0
M  V30 41961 C 3790.68 1.0866 -4.26475 0
M  V30 41962 H 3787.8 0.0401301 -0.735907 0
M  V30 41963 H 3790.44 -0.589595 -1.80621 0
M  V30 41964 H 3788.59 0.921503 -3.77413 0
M  V30 41965 H 3790.26 -1.63161 -4.31481 0
M  V30 41966 H 3788.51 -1.59907 -4.03252 0
M  V30 41967 H 3789.18 -0.805913 -5.46085 0
M  V30 41968 H 3791.65 0.578486 -4.12059 0
M  V30 41969 H 3790.53 1.20042 -5.35613 0
M  V30 41970 H 3790.79 2.11751 -3.8809 0
M  V30 41971 N 3789.85 1.56567 -0.180181 0
M  V30 41972 C 3790.78 2.15584 0.778212 0
M  V30 41973 C 3791.79 1.11372 1.18744 0
M  V30 41974 O 3792.98 1.38525 1.12575 0
M  V30 41975 C 3790.08 2.6909 2.0602 0
M  V30 41976 C 3789.26 3.9805 1.81313 0
M  V30 41977 C 3788.31 4.36531 2.93815 0
M  V30 41978 O 3787.34 5.0424 2.64066 0
M  V30 41979 N 3788.54 3.98813 4.21816 0
M  V30 41980 H 3791.31 2.98448 0.273608 0
M  V30 41981 H 3788.87 1.619 0.00230106 0
M  V30 41982 H 3790.86 2.91825 2.80393 0
M  V30 41983 H 3789.43 1.90764 2.47645 0
M  V30 41984 H 3788.65 3.83601 0.907978 0
M  V30 41985 H 3789.94 4.82259 1.62185 0
M  V30 41986 H 3789.34 3.44321 4.48842 0
M  V30 41987 H 3787.89 4.26531 4.92864 0
M  V30 41988 N 3791.33 -0.0935042 1.57322 0
M  V30 41989 C 3792.24 -1.13165 2.05501 0
M  V30 41990 C 3793.25 -1.43762 0.980224 0
M  V30 41991 O 3794.43 -1.54372 1.29349 0
M  V30 41992 C 3791.49 -2.43177 2.47115 0
M  V30 41993 C 3790.55 -2.19748 3.68795 0
M  V30 41994 C 3789.79 -3.4356 4.08415 0
M  V30 41995 O 3790.01 -4.51857 3.48112 0
M  V30 41996 O 3788.94 -3.33053 5.01357 0
M  V30 41997 H 3792.77 -0.75244 2.94231 0
M  V30 41998 H 3790.36 -0.306126 1.4623 0
M  V30 41999 H 3792.24 -3.1973 2.74501 0
M  V30 42000 H 3790.91 -2.80521 1.61523 0
M  V30 42001 H 3789.82 -1.4097 3.46523 0
M  V30 42002 H 3791.15 -1.87295 4.55172 0
M  V30 42003 N 3792.8 -1.5333 -0.364368 0
M  V30 42004 C 3793.75 -1.76234 -1.44657 0
M  V30 42005 C 3794.74 -0.61691 -1.48604 0
M  V30 42006 O 3795.93 -0.875616 -1.53824 0
M  V30 42007 C 3793.06 -1.95676 -2.82074 0
M  V30 42008 C 3792.15 -3.16224 -2.82601 0
M  V30 42009 N 3792.54 -4.38109 -2.52773 0
M  V30 42010 C 3790.83 -3.16971 -3.1376 0
M  V30 42011 C 3791.54 -5.19855 -2.61008 0
M  V30 42012 N 3790.51 -4.56094 -2.95769 0
M  V30 42013 H 3794.31 -2.68079 -1.2046 0
M  V30 42014 H 3791.83 -1.51972 -0.572562 0
M  V30 42015 H 3793.82 -2.10213 -3.60023 0
M  V30 42016 H 3792.48 -1.05059 -3.07234 0
M  V30 42017 H 3793.5 -4.6582 -2.26345 0
M  V30 42018 H 3790.17 -2.36251 -3.44227 0
M  V30 42019 H 3791.56 -6.27082 -2.41283 0
M  V30 42020 N 3794.28 0.624234 -1.4471 0
M  V30 42021 C 3795.21 1.7469 -1.54937 0
M  V30 42022 C 3796.19 1.65283 -0.401926 0
M  V30 42023 O 3797.38 1.83938 -0.622938 0
M  V30 42024 C 3794.51 3.13245 -1.49982 0
M  V30 42025 C 3793.46 3.37448 -2.63273 0
M  V30 42026 C 3792.79 4.76104 -2.4337 0
M  V30 42027 C 3794.09 3.29332 -4.05386 0
M  V30 42028 H 3795.78 1.66388 -2.48908 0
M  V30 42029 H 3793.33 0.799067 -1.19795 0
M  V30 42030 H 3795.28 3.91566 -1.55736 0
M  V30 42031 H 3794.01 3.22348 -0.525311 0
M  V30 42032 H 3792.66 2.6151 -2.5692 0
M  V30 42033 H 3792.31 4.81918 -1.44096 0
M  V30 42034 H 3792.01 4.93255 -3.19332 0
M  V30 42035 H 3793.54 5.56646 -2.50953 0
M  V30 42036 H 3794.95 3.97549 -4.13071 0
M  V30 42037 H 3793.35 3.58017 -4.81605 0
M  V30 42038 H 3794.42 2.2703 -4.28469 0
M  V30 42039 N 3795.76 1.31723 0.865262 0
M  V30 42040 C 3796.69 1.15591 1.97917 0
M  V30 42041 C 3797.71 0.0937215 1.6253 0
M  V30 42042 O 3798.89 0.34167 1.752 0
M  V30 42043 C 3795.99 0.744872 3.30613 0
M  V30 42044 C 3795.17 1.89308 3.94311 0
M  V30 42045 C 3794.23 1.46733 5.05328 0
M  V30 42046 O 3793.25 2.17771 5.25894 0
M  V30 42047 N 3794.45 0.357364 5.79399 0
M  V30 42048 H 3797.22 2.11539 2.12301 0
M  V30 42049 H 3794.78 1.2412 1.03951 0
M  V30 42050 H 3796.77 0.442665 4.02272 0
M  V30 42051 H 3795.34 -0.123131 3.12357 0
M  V30 42052 H 3794.56 2.36236 3.15573 0
M  V30 42053 H 3795.85 2.66204 4.33605 0
M  V30 42054 H 3795.25 -0.234131 5.65215 0
M  V30 42055 H 3793.81 0.114713 6.51699 0
M  V30 42056 N 3797.24 -1.08018 1.14761 0
M  V30 42057 C 3798.19 -2.17139 0.833862 0
M  V30 42058 C 3799.18 -1.68332 -0.18991 0
M  V30 42059 O 3800.39 -1.79942 -0.0456131 0
M  V30 42060 H 3796.76 -0.708535 0.251956 0
M  V30 42061 H 3798.73 -2.40824 1.762 0
M  V30 42062 C 3797.48 -3.4611 0.332091 0
M  V30 42063 H 3796.8 -3.84046 1.11123 0
M  V30 42064 H 3798.24 -4.2373 0.151152 0
M  V30 42065 C 3796.7 -3.23372 -0.945096 0
M  V30 42066 O 3797.23 -3.4733 -2.01804 0
M  V30 42067 N 3795.44 -2.76895 -0.881914 0
M  V30 42068 H 3794.99 -2.57599 -0.0086124 0
M  V30 42069 H 3794.94 -2.62059 -1.73701 0
M  V30 42070 N 3798.72 -0.943344 -1.26249 0
M  V30 42071 C 3800.13 -0.645992 -1.45942 0
M  V30 42072 C 3800.33 0.800031 -1.84937 0
M  V30 42073 O 3799.39 1.57646 -1.97241 0
M  V30 42074 C 3800.7 -1.60927 -2.54014 0
M  V30 42075 C 3802.25 -1.6192 -2.67863 0
M  V30 42076 C 3802.72 -2.56983 -3.79109 0
M  V30 42077 N 3804.22 -2.55282 -3.86504 0
M  V30 42078 C 3804.95 -3.25521 -4.72042 0
M  V30 42079 N 3804.45 -4.05194 -5.61952 0
M  V30 42080 N 3806.24 -3.14463 -4.65907 0
M  V30 42081 H 3798.39 -1.87798 -0.992262 0
M  V30 42082 H 3800.65 -0.807159 -0.49719 0
M  V30 42083 H 3800.36 -2.64159 -2.32192 0
M  V30 42084 H 3800.23 -1.363 -3.51713 0
M  V30 42085 H 3802.62 -0.594118 -2.89058 0
M  V30 42086 H 3802.7 -1.90601 -1.70601 0
M  V30 42087 H 3802.35 -3.59611 -3.58667 0
M  V30 42088 H 3802.28 -2.25591 -4.75832 0
M  V30 42089 H 3804.77 -1.97431 -3.22226 0
M  V30 42090 H 3805.08 -4.55736 -6.24119 0
M  V30 42091 H 3803.42 -4.09294 -5.61697 0
M  V30 42092 H 3806.62 -2.517 -3.94671 0
M  V30 42093 H 3806.79 -3.6947 -5.32349 0
M  V30 42094 N 3800.2 1.4067 -0.710613 0
M  V30 42095 C 3801.61 1.5492 -0.383665 0
M  V30 42096 C 3801.81 1.683 1.10803 0
M  V30 42097 O 3800.87 1.66981 1.89403 0
M  V30 42098 C 3802.18 2.78032 -1.14537 0
M  V30 42099 C 3803.73 2.91845 -1.13118 0
M  V30 42100 C 3804.2 4.17864 -1.87494 0
M  V30 42101 N 3805.69 4.24853 -1.84538 0
M  V30 42102 C 3806.43 5.21256 -2.38913 0
M  V30 42103 N 3805.93 6.23598 -3.01824 0
M  V30 42104 N 3807.72 5.133 -2.29084 0
M  V30 42105 H 3799.87 1.30231 -1.67791 0
M  V30 42106 H 3802.13 0.629381 -0.708931 0
M  V30 42107 H 3801.84 2.74405 -2.19988 0
M  V30 42108 H 3801.71 3.69995 -0.733734 0
M  V30 42109 H 3804.1 2.94978 -0.0848866 0
M  V30 42110 H 3804.18 2.01014 -1.582 0
M  V30 42111 H 3803.82 4.15492 -2.92111 0
M  V30 42112 H 3803.75 5.07694 -1.39836 0
M  V30 42113 H 3806.25 3.51532 -1.38685 0
M  V30 42114 H 3806.56 6.93574 -3.40844 0
M  V30 42115 H 3804.9 6.24056 -3.05907 0
M  V30 42116 H 3808.09 4.32276 -1.79597 0
M  V30 42117 H 3808.27 5.88259 -2.71762 0
M  V30 42118 N 3801.67 0.456435 1.50846 0
M  V30 42119 C 3802.61 -0.381381 2.26005 0
M  V30 42120 C 3803.62 -0.969849 1.30758 0
M  V30 42121 O 3804.81 -0.860743 1.56376 0
M  V30 42122 C 3801.91 -1.54743 3.01509 0
M  V30 42123 C 3801.08 -1.07441 4.23999 0
M  V30 42124 C 3800.14 -2.11279 4.81921 0
M  V30 42125 O 3799.17 -1.69935 5.43241 0
M  V30 42126 N 3800.37 -3.43954 4.67628 0
M  V30 42127 H 3803.13 0.262875 2.98545 0
M  V30 42128 H 3800.69 0.286385 1.59347 0
M  V30 42129 H 3802.69 -2.23871 3.37141 0
M  V30 42130 H 3801.26 -2.09666 2.3186 0
M  V30 42131 H 3800.48 -0.209515 3.93643 0
M  V30 42132 H 3801.76 -0.736055 5.03448 0
M  V30 42133 H 3801.16 -3.80263 4.18828 0
M  V30 42134 H 3799.72 -4.08921 5.07569 0
M  V30 42135 N 3803.15 -1.56469 0.188482 0
M  V30 42136 C 3804.08 -2.15994 -0.766768 0
M  V30 42137 C 3805.1 -1.12 -1.18151 0
M  V30 42138 O 3806.29 -1.3912 -1.11839 0
M  V30 42139 C 3803.39 -2.70178 -2.0459 0
M  V30 42140 C 3802.56 -3.99006 -1.792 0
M  V30 42141 C 3801.62 -4.38083 -2.91496 0
M  V30 42142 O 3800.64 -5.05633 -2.61389 0
M  V30 42143 N 3801.85 -4.01044 -4.19695 0
M  V30 42144 H 3804.61 -2.98589 -0.257777 0
M  V30 42145 H 3802.17 -1.61899 0.00628491 0
M  V30 42146 H 3804.16 -2.93308 -2.78841 0
M  V30 42147 H 3802.73 -1.92075 -2.4663 0
M  V30 42148 H 3801.95 -3.84077 -0.887622 0
M  V30 42149 H 3803.24 -4.83112 -1.59625 0
M  V30 42150 H 3802.64 -3.46696 -4.4701 0
M  V30 42151 H 3801.2 -4.29139 -4.90595 0
M  V30 42152 N 3804.63 0.0851597 -1.5737 0
M  V30 42153 C 3805.56 1.10316 -2.05798 0
M  V30 42154 C 3806.54 1.41179 -0.94882 0
M  V30 42155 O 3807.73 1.51037 -1.22072 0
M  V30 42156 C 3804.86 2.42032 -2.49074 0
M  V30 42157 C 3803.81 2.25554 -3.63743 0
M  V30 42158 C 3803.14 3.62536 -3.93029 0
M  V30 42159 C 3804.44 1.68784 -4.94277 0
M  V30 42160 H 3806.13 0.700223 -2.91097 0
M  V30 42161 H 3803.68 0.33538 -1.4004 0
M  V30 42162 H 3805.63 3.13529 -2.81563 0
M  V30 42163 H 3804.35 2.8428 -1.60786 0
M  V30 42164 H 3803.01 1.56501 -3.31516 0
M  V30 42165 H 3802.66 4.0233 -3.01894 0
M  V30 42166 H 3802.36 3.52353 -4.70235 0
M  V30 42167 H 3803.88 4.35484 -4.28003 0
M  V30 42168 H 3805.3 2.30131 -5.25083 0
M  V30 42169 H 3803.69 1.69334 -5.75714 0
M  V30 42170 H 3804.76 0.64812 -4.80549 0
M  V30 42171 N 3806.11 1.53521 0.356231 0
M  V30 42172 C 3807.06 1.81301 1.45715 0
M  V30 42173 C 3808.05 0.68268 1.55035 0
M  V30 42174 O 3809.26 0.865794 1.5781 0
M  V30 42175 H 3805.63 0.574189 0.485604 0
M  V30 42176 H 3807.6 2.7343 1.19494 0
M  V30 42177 C 3806.35 2.02815 2.82421 0
M  V30 42178 H 3805.67 2.89237 2.76011 0
M  V30 42179 H 3807.11 2.26225 3.58606 0
M  V30 42180 C 3805.57 0.80995 3.27019 0
M  V30 42181 O 3806.1 0.00317729 4.017 0
M  V30 42182 N 3804.31 0.630746 2.83672 0
M  V30 42183 H 3803.86 1.28843 2.23063 0
M  V30 42184 H 3803.81 -0.182906 3.13868 0
M  V30 42185 N 3807.59 -0.616551 1.45039 0
M  V30 42186 C 3808.5 -1.75622 1.55545 0
M  V30 42187 C 3809.51 -1.68336 0.440333 0
M  V30 42188 O 3810.69 -1.88853 0.699759 0
M  V30 42189 C 3807.75 -3.12057 1.51067 0
M  V30 42190 C 3806.81 -3.30864 2.73546 0
M  V30 42191 C 3806.05 -4.60791 2.69272 0
M  V30 42192 O 3806.27 -5.42538 1.76094 0
M  V30 42193 O 3805.2 -4.82117 3.60343 0
M  V30 42194 H 3809.03 -1.6971 2.51857 0
M  V30 42195 H 3806.61 -0.779556 1.27449 0
M  V30 42196 H 3808.5 -3.93361 1.51145 0
M  V30 42197 H 3807.17 -3.18479 0.579032 0
M  V30 42198 H 3806.08 -2.49183 2.79032 0
M  V30 42199 H 3807.41 -3.29313 3.65805 0
M  V30 42200 N 3809.06 -1.3218 -0.858264 0
M  V30 42201 C 3810 -1.15147 -1.97019 0
M  V30 42202 C 3810.97 -0.0518665 -1.62517 0
M  V30 42203 O 3812.16 -0.210498 -1.87321 0
M  V30 42204 C 3809.29 -0.761945 -3.30018 0
M  V30 42205 C 3808.33 -1.86627 -3.835 0
M  V30 42206 S 3809.16 -3.47391 -4.07529 0
M  V30 42207 C 3810.32 -3.10402 -5.43509 0
M  V30 42208 H 3810.55 -2.09276 -2.11166 0
M  V30 42209 H 3808.09 -1.16799 -1.00981 0
M  V30 42210 H 3810.04 -0.543965 -4.0688 0
M  V30 42211 H 3808.71 0.160424 -3.1369 0
M  V30 42212 H 3807.9 -1.54663 -4.79683 0
M  V30 42213 H 3807.5 -2.03991 -3.1347 0
M  V30 42214 H 3809.79 -2.60022 -6.25616 0
M  V30 42215 H 3810.74 -4.05592 -5.80432 0
M  V30 42216 H 3811.14 -2.4752 -5.0734 0
M  V30 42217 N 3810.54 1.07407 -1.15332 0
M  V30 42218 C 3811.47 2.16586 -0.872514 0
M  V30 42219 C 3812.45 1.6918 0.176653 0
M  V30 42220 O 3813.64 1.94175 0.0311485 0
M  V30 42221 C 3810.77 3.45425 -0.360403 0
M  V30 42222 C 3809.72 4.06278 -1.34618 0
M  V30 42223 C 3809.05 5.30191 -0.692941 0
M  V30 42224 C 3810.35 4.46373 -2.71198 0
M  V30 42225 H 3812.04 2.40333 -1.7855 0
M  V30 42226 H 3809.59 1.15505 -0.859915 0
M  V30 42227 H 3811.54 4.21128 -0.151503 0
M  V30 42228 H 3810.26 3.21262 0.588052 0
M  V30 42229 H 3808.92 3.32619 -1.54143 0
M  V30 42230 H 3808.57 5.02319 0.261643 0
M  V30 42231 H 3808.27 5.71863 -1.35081 0
M  V30 42232 H 3809.8 6.086 -0.493802 0
M  V30 42233 H 3811.21 5.13207 -2.55522 0
M  V30 42234 H 3809.61 4.98994 -3.33353 0
M  V30 42235 H 3810.68 3.57769 -3.27306 0
M  V30 42236 N 3812.02 0.950026 1.25747 0
M  V30 42237 C 3812.97 0.465349 2.2606 0
M  V30 42238 C 3813.94 -0.479714 1.59022 0
M  V30 42239 O 3815.12 -0.393978 1.86688 0
M  V30 42240 C 3812.26 -0.255085 3.44156 0
M  V30 42241 C 3811.37 0.726679 4.25844 0
M  V30 42242 C 3810.51 -0.0158496 5.31198 0
M  V30 42243 C 3809.55 0.957152 6.0457 0
M  V30 42244 N 3808.69 0.245799 7.0167 0
M  V30 42245 H 3813.53 1.32568 2.66889 0
M  V30 42246 H 3811.06 0.664905 1.31215 0
M  V30 42247 H 3813.02 -0.689309 4.11466 0
M  V30 42248 H 3811.65 -1.07949 3.04215 0
M  V30 42249 H 3810.7 1.2794 3.5824 0
M  V30 42250 H 3812.01 1.46937 4.76667 0
M  V30 42251 H 3811.17 -0.508931 6.04562 0
M  V30 42252 H 3809.91 -0.791357 4.81237 0
M  V30 42253 H 3808.91 1.46128 5.30025 0
M  V30 42254 H 3810.14 1.73281 6.5662 0
M  V30 42255 H 3808.08 -0.511055 6.54006 0
M  V30 42256 H 3808 0.927659 7.50287 0
M  V30 42257 H 3809.27 -0.225897 7.79173 0
M  V30 42258 N 3813.5 -1.40291 0.718063 0
M  V30 42259 C 3814.77 -1.94717 0.185682 0
M  V30 42260 C 3815.15 -1.65605 -1.30913 0
M  V30 42261 O 3814.5 -0.975068 -2.06651 0
M  V30 42262 C 3814.71 -3.45384 0.501076 0
M  V30 42263 C 3816.06 -4.22303 0.441095 0
M  V30 42264 O 3817.08 -3.53506 0.437279 0
M  V30 42265 O 3815.94 -5.44878 0.420785 0
M  V30 42266 H 3813.04 -0.82652 0.0281726 0
M  V30 42267 H 3815.58 -1.49886 0.795765 0
M  V30 42268 H 3814.36 -3.59941 1.53486 0
M  V30 42269 H 3813.98 -3.97358 -0.138843 0
M  V30 42270 N 3814.98 -0.464428 -1.50602 0
M  V30 42271 C 3816.2 0.0930314 -2.07191 0
M  V30 42272 C 3816.63 1.33335 -1.32677 0
M  V30 42273 O 3815.98 1.77432 -0.372484 0
M  V30 42274 C 3816.03 0.366712 -3.58731 0
M  V30 42275 O 3815.14 1.44842 -3.86128 0
M  V30 42276 H 3814.48 -0.0100452 -0.663924 0
M  V30 42277 H 3817.01 -0.653556 -1.93881 0
M  V30 42278 H 3817.02 0.609187 -4.03426 0
M  V30 42279 H 3815.69 -0.53968 -4.12384 0
M  V30 42280 H 3814.27 1.19378 -3.53275 0
M  V30 42281 N 3816.45 1.56367 -0.196777 0
M  V30 42282 C 3817.68 2.02011 0.447104 0
M  V30 42283 C 3818.1 1.0769 1.55075 0
M  V30 42284 O 3817.45 0.0820637 1.82315 0
M  V30 42285 C 3817.51 3.4734 1.00186 0
M  V30 42286 O 3817.23 4.38062 -0.0577629 0
M  V30 42287 C 3818.73 4.08511 1.72145 0
M  V30 42288 H 3815.95 0.661574 0.112076 0
M  V30 42289 H 3818.49 2.02198 -0.305976 0
M  V30 42290 H 3816.65 3.47847 1.70531 0
M  V30 42291 H 3817.06 5.23294 0.355416 0
M  V30 42292 H 3818.53 5.12045 2.0619 0
M  V30 42293 H 3819.01 3.52067 2.62575 0
M  V30 42294 H 3819.62 4.11781 1.0638 0
M  V30 42295 N 3817.93 -0.0768128 1.57413 0
M  V30 42296 C 3818.86 -1.11842 2.0006 0
M  V30 42297 C 3819.88 -1.35274 0.905807 0
M  V30 42298 O 3821.07 -1.33603 1.18375 0
M  V30 42299 C 3818.17 -2.47035 2.32007 0
M  V30 42300 C 3817.34 -2.43628 3.63269 0
M  V30 42301 C 3816.4 -3.60889 3.82943 0
M  V30 42302 O 3815.42 -3.42547 4.54588 0
M  V30 42303 N 3816.63 -4.81053 3.24913 0
M  V30 42304 H 3819.39 -0.755279 2.90027 0
M  V30 42305 H 3816.95 -0.265539 1.59708 0
M  V30 42306 H 3818.94 -3.24115 2.42346 0
M  V30 42307 H 3817.51 -2.75369 1.47955 0
M  V30 42308 H 3816.73 -1.51967 3.6373 0
M  V30 42309 H 3818.02 -2.38448 4.49467 0
M  V30 42310 H 3817.42 -4.98859 2.66751 0
M  V30 42311 H 3815.98 -5.55663 3.40709 0
M  V30 42312 N 3819.41 -1.53708 -0.348084 0
M  V30 42313 C 3820.66 -1.71931 -1.08681 0
M  V30 42314 C 3821.01 -0.474316 -1.86462 0
M  V30 42315 O 3820.3 0.533006 -1.84037 0
M  V30 42316 C 3820.5 -2.91976 -2.06118 0
M  V30 42317 C 3820.33 -4.2803 -1.37914 0
M  V30 42318 C 3819.1 -4.92597 -1.12589 0
M  V30 42319 C 3821.3 -5.07918 -0.807704 0
M  V30 42320 N 3819.28 -6.12535 -0.409181 0
M  V30 42321 C 3820.65 -6.19605 -0.221306 0
M  V30 42322 C 3822.7 -4.92839 -0.708105 0
M  V30 42323 C 3821.41 -7.17859 0.454998 0
M  V30 42324 C 3823.43 -5.91382 -0.0455498 0
M  V30 42325 C 3822.79 -7.02404 0.529897 0
M  V30 42326 H 3818.89 -0.682218 -0.382234 0
M  V30 42327 H 3821.48 -1.91133 -0.370962 0
M  V30 42328 H 3819.65 -2.74282 -2.74998 0
M  V30 42329 H 3821.38 -2.9894 -2.72795 0
M  V30 42330 H 3818.14 -4.52068 -1.4118 0
M  V30 42331 H 3818.56 -6.76968 -0.0656822 0
M  V30 42332 H 3823.2 -4.07176 -1.13875 0
M  V30 42333 H 3820.92 -8.031 0.897543 0
M  V30 42334 H 3824.51 -5.81792 0.030823 0
M  V30 42335 H 3823.39 -7.77347 1.03446 0
M  V30 42336 N 3820.89 0.608851 -1.45364 0
M  V30 42337 C 3821.82 1.73037 -1.56781 0
M  V30 42338 C 3822.8 1.64848 -0.419434 0
M  V30 42339 O 3823.98 1.83267 -0.642412 0
M  V30 42340 C 3821.11 3.11637 -1.53296 0
M  V30 42341 C 3820.07 3.34637 -2.66838 0
M  V30 42342 C 3819.39 4.73496 -2.48406 0
M  V30 42343 C 3820.69 3.25014 -4.08856 0
M  V30 42344 H 3822.39 1.63739 -2.50659 0
M  V30 42345 H 3819.93 0.786317 -1.20636 0
M  V30 42346 H 3821.89 3.89893 -1.5988 0
M  V30 42347 H 3820.61 3.21772 -0.559471 0
M  V30 42348 H 3819.27 2.58771 -2.59679 0
M  V30 42349 H 3818.92 4.80363 -1.49199 0
M  V30 42350 H 3818.62 4.8984 -3.24546 0
M  V30 42351 H 3820.14 5.53953 -2.56843 0
M  V30 42352 H 3821.56 3.93146 -4.17264 0
M  V30 42353 H 3819.95 3.52889 -4.85376 0
M  V30 42354 H 3821.02 2.22473 -4.30852 0
M  V30 42355 N 3822.37 1.32633 0.851242 0
M  V30 42356 C 3823.28 1.23861 1.99237 0
M  V30 42357 C 3824.29 0.151548 1.73339 0
M  V30 42358 O 3825.47 0.372857 1.97919 0
M  V30 42359 C 3822.53 0.965476 3.32986 0
M  V30 42360 C 3821.59 2.14132 3.72083 0
M  V30 42361 C 3820.83 1.88112 4.99449 0
M  V30 42362 O 3821.05 0.825352 5.64397 0
M  V30 42363 O 3819.98 2.74312 5.35758 0
M  V30 42364 H 3823.81 2.198 2.09575 0
M  V30 42365 H 3821.4 1.12557 0.98241 0
M  V30 42366 H 3823.28 0.829786 4.1315 0
M  V30 42367 H 3821.95 0.0362759 3.2368 0
M  V30 42368 H 3820.86 2.3325 2.92481 0
M  V30 42369 H 3822.19 3.05343 3.86039 0
M  V30 42370 N 3823.84 -1.06794 1.159 0
M  V30 42371 C 3824.81 -2.12313 0.863464 0
M  V30 42372 C 3825.81 -1.60196 -0.139298 0
M  V30 42373 O 3827 -1.73962 0.0910011 0
M  V30 42374 C 3824.13 -3.39662 0.29031 0
M  V30 42375 H 3825.32 -2.39963 1.79883 0
M  V30 42376 H 3822.88 -1.22777 0.967245 0
M  V30 42377 H 3823.61 -3.17658 -0.652981 0
M  V30 42378 H 3823.4 -3.78794 1.0128 0
M  V30 42379 H 3824.89 -4.17477 0.101313 0
M  V30 42380 N 3825.32 -0.956681 -1.25241 0
M  V30 42381 C 3826.27 -0.477331 -2.2581 0
M  V30 42382 C 3827.24 0.471273 -1.59274 0
M  V30 42383 O 3828.42 0.384072 -1.86894 0
M  V30 42384 C 3825.56 0.23683 -3.44286 0
M  V30 42385 C 3824.68 -0.749252 -4.25453 0
M  V30 42386 C 3823.81 -0.0123214 -5.31199 0
M  V30 42387 C 3822.85 -0.989201 -6.04054 0
M  V30 42388 N 3821.99 -0.283007 -7.01529 0
M  V30 42389 H 3826.83 -1.33981 -2.66182 0
M  V30 42390 H 3824.37 -0.671855 -1.30861 0
M  V30 42391 H 3826.32 0.667478 -4.11826 0
M  V30 42392 H 3824.95 1.06334 -3.04783 0
M  V30 42393 H 3824.01 -1.29838 -3.57556 0
M  V30 42394 H 3825.32 -1.49462 -4.75881 0
M  V30 42395 H 3824.47 0.476862 -6.04823 0
M  V30 42396 H 3823.21 0.765825 -4.8165 0
M  V30 42397 H 3822.22 -1.48936 -5.29243 0
M  V30 42398 H 3823.44 -1.76761 -6.55692 0
M  V30 42399 H 3821.39 0.476364 -6.54268 0
M  V30 42400 H 3821.3 -0.967436 -7.49784 0
M  V30 42401 H 3822.57 0.184572 -7.79281 0
M  V30 42402 N 3826.8 1.39908 -0.725493 0
M  V30 42403 C 3827.71 2.34461 -0.0806299 0
M  V30 42404 C 3828.73 1.57823 0.732661 0
M  V30 42405 O 3829.9 1.90163 0.663328 0
M  V30 42406 C 3826.97 3.36794 0.822849 0
M  V30 42407 C 3826.03 4.293 -0.00161358 0
M  V30 42408 C 3825.26 5.26744 0.858837 0
M  V30 42409 O 3825.48 5.30422 2.09784 0
M  V30 42410 O 3824.42 6.01189 0.292553 0
M  V30 42411 H 3828.24 2.91246 -0.860797 0
M  V30 42412 H 3825.83 1.41272 -0.486064 0
M  V30 42413 H 3827.71 3.99525 1.34007 0
M  V30 42414 H 3826.39 2.82409 1.58199 0
M  V30 42415 H 3825.29 3.69822 -0.564137 0
M  V30 42416 H 3826.63 4.86864 -0.722761 0
M  V30 42417 N 3828.28 0.472408 1.50353 0
M  V30 42418 C 3829.19 -0.326364 2.32319 0
M  V30 42419 C 3830.2 -0.994746 1.42761 0
M  V30 42420 O 3831.38 -0.982429 1.75813 0
M  V30 42421 C 3828.45 -1.39331 3.17471 0
M  V30 42422 C 3827.51 -0.741391 4.2285 0
M  V30 42423 C 3826.74 -1.7575 5.03932 0
M  V30 42424 O 3826.96 -2.98417 4.86111 0
M  V30 42425 O 3825.9 -1.3286 5.87053 0
M  V30 42426 H 3829.72 0.343755 3.01748 0
M  V30 42427 H 3827.31 0.234233 1.47552 0
M  V30 42428 H 3829.19 -2.0113 3.70304 0
M  V30 42429 H 3827.86 -2.04688 2.50768 0
M  V30 42430 H 3826.77 -0.084419 3.74005 0
M  V30 42431 H 3828.1 -0.130751 4.92026 0
M  V30 42432 N 3829.76 -1.5626 0.205067 0
M  V30 42433 C 3830.72 -2.18309 -0.698128 0
M  V30 42434 C 3831.72 -1.14031 -1.13374 0
M  V30 42435 O 3832.91 -1.39359 -1.04521 0
M  V30 42436 C 3830.04 -2.79318 -1.95433 0
M  V30 42437 H 3831.24 -2.99487 -0.15741 0
M  V30 42438 H 3828.79 -1.56236 -0.0445574 0
M  V30 42439 H 3829.52 -2.01966 -2.53733 0
M  V30 42440 H 3829.31 -3.55664 -1.65061 0
M  V30 42441 H 3830.8 -3.26932 -2.59818 0
M  V30 42442 N 3831.24 0.0684638 -1.57451 0
M  V30 42443 C 3832.15 1.09882 -2.07276 0
M  V30 42444 C 3833.16 1.42185 -1.00297 0
M  V30 42445 O 3834.34 1.52295 -1.31789 0
M  V30 42446 C 3831.4 2.39214 -2.50953 0
M  V30 42447 C 3830.46 2.13853 -3.72244 0
M  V30 42448 C 3829.7 3.37019 -4.13829 0
M  V30 42449 O 3829.92 4.46261 -3.55256 0
M  V30 42450 O 3828.85 3.25035 -5.06592 0
M  V30 42451 H 3832.68 0.705535 -2.95391 0
M  V30 42452 H 3830.26 0.282823 -1.46699 0
M  V30 42453 H 3832.15 3.15322 -2.79553 0
M  V30 42454 H 3830.82 2.77916 -1.65965 0
M  V30 42455 H 3829.73 1.35439 -3.48722 0
M  V30 42456 H 3831.06 1.8003 -4.58094 0
M  V30 42457 N 3832.71 1.5389 0.339928 0
M  V30 42458 C 3833.65 1.7845 1.43834 0
M  V30 42459 C 3834.66 0.665911 1.48558 0
M  V30 42460 O 3835.85 0.942713 1.51576 0
M  V30 42461 C 3832.95 1.87253 2.82471 0
M  V30 42462 C 3832.12 3.17224 3.01144 0
M  V30 42463 C 3831.18 3.16938 4.20044 0
M  V30 42464 O 3830.21 3.90645 4.13987 0
M  V30 42465 N 3831.41 2.39562 5.28763 0
M  V30 42466 H 3834.17 2.73236 1.23135 0
M  V30 42467 H 3831.73 1.52985 0.529828 0
M  V30 42468 H 3833.73 1.84508 3.60193 0
M  V30 42469 H 3832.3 0.996374 2.96296 0
M  V30 42470 H 3831.52 3.33064 2.10861 0
M  V30 42471 H 3832.8 4.03069 3.10504 0
M  V30 42472 H 3832.2 1.79237 5.36554 0
M  V30 42473 H 3830.76 2.42612 6.04965 0
M  V30 42474 N 3834.19 -0.601133 1.45685 0
M  V30 42475 C 3835.44 -1.36197 1.50261 0
M  V30 42476 C 3835.77 -1.93647 0.146392 0
M  V30 42477 O 3835.05 -1.75428 -0.839954 0
M  V30 42478 C 3835.33 -2.50508 2.58684 0
M  V30 42479 C 3835.18 -1.98212 4.03772 0
M  V30 42480 C 3836.5 -3.5262 2.63339 0
M  V30 42481 H 3833.62 -0.493863 0.547054 0
M  V30 42482 H 3836.26 -0.677037 1.77528 0
M  V30 42483 H 3834.41 -3.08936 2.35564 0
M  V30 42484 H 3836.08 -1.44384 4.38122 0
M  V30 42485 H 3834.33 -1.29167 4.14124 0
M  V30 42486 H 3835 -2.80645 4.75334 0
M  V30 42487 H 3837.47 -3.04043 2.84072 0
M  V30 42488 H 3836.35 -4.30085 3.41054 0
M  V30 42489 H 3836.61 -4.08658 1.68676 0
M  V30 42490 N 3835.67 -1.33083 -0.844196 0
M  V30 42491 C 3836.6 -1.25514 -1.96897 0
M  V30 42492 C 3837.58 -0.1368 -1.69549 0
M  V30 42493 O 3838.77 -0.3257 -1.91449 0
M  V30 42494 C 3835.9 -0.988153 -3.32946 0
M  V30 42495 C 3834.85 -2.06886 -3.74676 0
M  V30 42496 C 3834.18 -1.6541 -5.08472 0
M  V30 42497 C 3835.48 -3.48505 -3.89027 0
M  V30 42498 H 3837.17 -2.19621 -2.03487 0
M  V30 42499 H 3834.72 -1.05727 -0.97764 0
M  V30 42500 H 3836.67 -0.921717 -4.11196 0
M  V30 42501 H 3835.39 -0.0114641 -3.26598 0
M  V30 42502 H 3834.05 -2.12563 -2.98685 0
M  V30 42503 H 3833.7 -0.664577 -4.9859 0
M  V30 42504 H 3833.4 -2.37726 -5.37364 0
M  V30 42505 H 3834.92 -1.60222 -5.89204 0
M  V30 42506 H 3836.34 -3.45359 -4.57603 0
M  V30 42507 H 3834.73 -4.1926 -4.29349 0
M  V30 42508 H 3835.8 -3.874 -2.91632 0
M  V30 42509 N 3837.15 1.06178 -1.16464 0
M  V30 42510 C 3838.4 1.78645 -0.945007 0
M  V30 42511 C 3838.72 1.87703 0.528453 0
M  V30 42512 O 3837.99 1.38656 1.38389 0
M  V30 42513 H 3836.57 0.661698 -0.346648 0
M  V30 42514 H 3839.23 1.28254 -1.46754 0
M  V30 42515 H 3838.32 2.8068 -1.36474 0
M  V30 42516 N 3838.63 0.96331 1.24732 0
M  V30 42517 C 3839.56 0.447761 2.24784 0
M  V30 42518 C 3840.57 -0.441103 1.5671 0
M  V30 42519 O 3841.76 -0.247984 1.76769 0
M  V30 42520 C 3838.86 -0.373309 3.36838 0
M  V30 42521 C 3838.03 0.504608 4.3448 0
M  V30 42522 C 3837.09 -0.259717 5.25559 0
M  V30 42523 O 3836.12 0.344854 5.68154 0
M  V30 42524 N 3837.32 -1.55049 5.59411 0
M  V30 42525 H 3840.08 1.30797 2.69652 0
M  V30 42526 H 3837.65 0.834639 1.38728 0
M  V30 42527 H 3839.64 -0.892561 3.94735 0
M  V30 42528 H 3838.21 -1.13442 2.9129 0
M  V30 42529 H 3837.43 1.20488 3.75335 0
M  V30 42530 H 3838.72 1.10351 4.96689 0
M  V30 42531 H 3838.11 -2.06346 5.26724 0
M  V30 42532 H 3836.67 -2.01552 6.19855 0
M  V30 42533 N 3840.1 -1.39522 0.732902 0
M  V30 42534 C 3841.07 -2.28981 0.100081 0
M  V30 42535 C 3842.07 -1.46207 -0.669335 0
M  V30 42536 O 3843.26 -1.6691 -0.498664 0
M  V30 42537 C 3840.39 -3.29676 -0.867558 0
M  V30 42538 H 3841.58 -2.86445 0.888211 0
M  V30 42539 H 3839.13 -1.48134 0.498604 0
M  V30 42540 H 3839.87 -2.77264 -1.68212 0
M  V30 42541 H 3839.65 -3.90804 -0.318508 0
M  V30 42542 H 3841.14 -3.96621 -1.30697 0
M  V30 42543 N 3841.58 -0.480375 -1.501 0
M  V30 42544 C 3843 -0.135076 -1.59027 0
M  V30 42545 C 3843.2 1.35908 -1.48765 0
M  V30 42546 O 3842.25 2.13322 -1.35093 0
M  V30 42547 C 3843.57 -0.693535 -2.92593 0
M  V30 42548 C 3845.11 -0.657791 -3.0601 0
M  V30 42549 C 3845.59 -1.19395 -4.42164 0
M  V30 42550 N 3847.08 -1.15376 -4.48601 0
M  V30 42551 C 3847.82 -1.53903 -5.5236 0
M  V30 42552 N 3847.31 -1.99923 -6.63327 0
M  V30 42553 N 3849.1 -1.45447 -5.42956 0
M  V30 42554 H 3841.26 -1.45205 -1.55014 0
M  V30 42555 H 3843.52 -0.601047 -0.733107 0
M  V30 42556 H 3843.22 -1.74061 -3.05607 0
M  V30 42557 H 3843.1 -0.142304 -3.76931 0
M  V30 42558 H 3845.49 0.380398 -2.92638 0
M  V30 42559 H 3845.57 -1.24593 -2.23406 0
M  V30 42560 H 3845.21 -2.23082 -4.56286 0
M  V30 42561 H 3845.14 -0.581942 -5.23375 0
M  V30 42562 H 3847.63 -0.816336 -3.68977 0
M  V30 42563 H 3847.94 -2.27444 -7.38572 0
M  V30 42564 H 3846.29 -2.03882 -6.64422 0
M  V30 42565 H 3849.48 -1.09329 -4.55154 0
M  V30 42566 H 3849.65 -1.75797 -6.23698 0
M  V30 42567 N 3843.06 1.56149 -0.213351 0
M  V30 42568 C 3844.02 2.18676 0.686541 0
M  V30 42569 C 3845.02 1.1463 1.12768 0
M  V30 42570 O 3846.21 1.39911 1.03781 0
M  V30 42571 C 3843.34 2.80351 1.93949 0
M  V30 42572 H 3844.54 2.99566 0.141525 0
M  V30 42573 H 3842.09 1.56258 0.0362712 0
M  V30 42574 H 3842.83 2.03309 2.52658 0
M  V30 42575 H 3842.61 3.56535 1.63173 0
M  V30 42576 H 3844.1 3.28305 2.58081 0
M  V30 42577 N 3844.54 -0.0601128 1.57485 0
M  V30 42578 C 3845.49 -1.07019 2.04489 0
M  V30 42579 C 3846.46 -1.37774 0.927762 0
M  V30 42580 O 3847.64 -1.48643 1.19624 0
M  V30 42581 C 3844.78 -2.37535 2.50342 0
M  V30 42582 C 3843.89 -2.13208 3.75721 0
M  V30 42583 C 3843.03 -3.37371 4.1031 0
M  V30 42584 C 3842.07 -3.0846 5.28695 0
M  V30 42585 N 3841.2 -4.24986 5.58866 0
M  V30 42586 H 3846.04 -0.662393 2.90545 0
M  V30 42587 H 3843.58 -0.315489 1.43677 0
M  V30 42588 H 3845.54 -3.13751 2.74984 0
M  V30 42589 H 3844.17 -2.76095 1.67247 0
M  V30 42590 H 3843.22 -1.2763 3.5835 0
M  V30 42591 H 3844.53 -1.87861 4.62071 0
M  V30 42592 H 3843.69 -4.21976 4.35914 0
M  V30 42593 H 3842.43 -3.65804 3.2255 0
M  V30 42594 H 3841.43 -2.22253 5.02875 0
M  V30 42595 H 3842.66 -2.81338 6.18082 0
M  V30 42596 H 3840.6 -4.53429 4.74066 0
M  V30 42597 H 3840.52 -4.02954 6.39659 0
M  V30 42598 H 3841.79 -5.10554 5.89028 0
M  V30 42599 N 3846.02 -1.54068 -0.331762 0
M  V30 42600 C 3846.95 -1.85872 -1.41329 0
M  V30 42601 C 3847.93 -0.714814 -1.54352 0
M  V30 42602 O 3849.11 -0.967806 -1.68366 0
M  V30 42603 C 3846.24 -2.07879 -2.78215 0
M  V30 42604 C 3845.2 -3.23714 -2.79988 0
M  V30 42605 C 3844.52 -3.31077 -4.19872 0
M  V30 42606 C 3845.82 -4.61554 -2.44468 0
M  V30 42607 H 3847.52 -2.76449 -1.14962 0
M  V30 42608 H 3845.06 -1.33017 -0.551592 0
M  V30 42609 H 3847.02 -2.28712 -3.53933 0
M  V30 42610 H 3845.74 -1.14044 -3.06042 0
M  V30 42611 H 3844.4 -3.02755 -2.06724 0
M  V30 42612 H 3844.05 -2.34815 -4.44827 0
M  V30 42613 H 3843.75 -4.08923 -4.21967 0
M  V30 42614 H 3845.27 -3.54134 -4.97415 0
M  V30 42615 H 3846.68 -4.82323 -3.099 0
M  V30 42616 H 3845.08 -5.4189 -2.57828 0
M  V30 42617 H 3846.15 -4.64361 -1.39632 0
M  V30 42618 N 3847.49 0.593399 -1.46002 0
M  V30 42619 C 3848.4 1.73125 -1.58319 0
M  V30 42620 C 3849.42 1.67614 -0.467059 0
M  V30 42621 O 3850.6 1.87716 -0.729715 0
M  V30 42622 C 3847.66 3.09614 -1.56012 0
M  V30 42623 C 3846.72 3.26471 -2.78775 0
M  V30 42624 C 3845.96 4.56449 -2.76569 0
M  V30 42625 O 3846.18 5.39667 -1.84703 0
M  V30 42626 O 3845.11 4.76323 -3.67968 0
M  V30 42627 H 3848.94 1.65682 -2.54525 0
M  V30 42628 H 3846.52 0.759181 -1.28673 0
M  V30 42629 H 3848.41 3.90907 -1.57384 0
M  V30 42630 H 3847.08 3.17518 -0.629626 0
M  V30 42631 H 3845.99 2.44712 -2.82961 0
M  V30 42632 H 3847.32 3.23452 -3.70998 0
M  V30 42633 N 3848.97 1.33529 0.837127 0
M  V30 42634 C 3850.2 1.28274 1.62974 0
M  V30 42635 C 3850.62 -0.143168 1.87554 0
M  V30 42636 O 3849.98 -1.10036 1.4409 0
M  V30 42637 C 3850.03 2.06521 2.95604 0
M  V30 42638 O 3849.13 1.425 3.86998 0
M  V30 42639 H 3848.47 0.441222 0.496204 0
M  V30 42640 H 3851 1.76117 1.04134 0
M  V30 42641 H 3851.01 2.1735 3.45287 0
M  V30 42642 H 3849.69 3.102 2.77036 0
M  V30 42643 H 3848.27 1.40327 3.45489 0
M  V30 42644 N 3850.45 -1.05559 1.17026 0
M  V30 42645 C 3851.7 -1.78902 0.967771 0
M  V30 42646 C 3852.05 -1.85828 -0.498583 0
M  V30 42647 O 3851.34 -1.3443 -1.36525 0
M  V30 42648 C 3851.54 -3.22613 1.53804 0
M  V30 42649 C 3851.37 -3.29693 3.05831 0
M  V30 42650 C 3850.14 -3.39195 3.74533 0
M  V30 42651 C 3852.34 -3.1894 4.03462 0
M  V30 42652 N 3850.32 -3.35366 5.14201 0
M  V30 42653 C 3851.69 -3.2244 5.29559 0
M  V30 42654 C 3853.74 -3.02876 3.95184 0
M  V30 42655 C 3852.45 -3.11527 6.48339 0
M  V30 42656 C 3854.47 -2.93304 5.13543 0
M  V30 42657 C 3853.83 -2.97433 6.38524 0
M  V30 42658 H 3849.93 -0.667136 0.407988 0
M  V30 42659 H 3852.52 -1.25864 1.48547 0
M  V30 42660 H 3850.69 -3.7403 1.04672 0
M  V30 42661 H 3852.42 -3.84172 1.27255 0
M  V30 42662 H 3849.18 -3.44302 3.25197 0
M  V30 42663 H 3849.6 -3.36932 5.87202 0
M  V30 42664 H 3854.24 -2.98524 2.99404 0
M  V30 42665 H 3851.96 -3.14634 7.44332 0
M  V30 42666 H 3855.55 -2.81951 5.08915 0
M  V30 42667 H 3854.43 -2.90094 7.28571 0
M  V30 42668 N 3851.93 -0.969911 -1.2422 0
M  V30 42669 C 3852.88 -0.501255 -2.25291 0
M  V30 42670 C 3853.85 0.454354 -1.59765 0
M  V30 42671 O 3855.03 0.364228 -1.87291 0
M  V30 42672 C 3852.17 0.2003 -3.44518 0
M  V30 42673 C 3851.28 -0.794335 -4.24634 0
M  V30 42674 C 3850.42 -0.0686614 -5.31156 0
M  V30 42675 C 3849.46 -1.05321 -6.02971 0
M  V30 42676 N 3848.59 -0.357397 -7.0119 0
M  V30 42677 H 3853.43 -1.36797 -2.64746 0
M  V30 42678 H 3850.97 -0.685696 -1.30141 0
M  V30 42679 H 3852.93 0.623761 -4.12511 0
M  V30 42680 H 3851.56 1.03095 -3.05894 0
M  V30 42681 H 3850.61 -1.33623 -3.56159 0
M  V30 42682 H 3851.92 -1.54501 -4.74269 0
M  V30 42683 H 3851.08 0.412686 -6.05295 0
M  V30 42684 H 3849.82 0.714696 -4.82435 0
M  V30 42685 H 3848.82 -1.54541 -5.27633 0
M  V30 42686 H 3850.05 -1.83706 -6.53781 0
M  V30 42687 H 3847.99 0.406944 -6.54737 0
M  V30 42688 H 3847.91 -1.04691 -7.48716 0
M  V30 42689 H 3849.18 0.101908 -7.79433 0
M  V30 42690 N 3853.41 1.39131 -0.740291 0
M  V30 42691 C 3854.32 2.34363 -0.105493 0
M  V30 42692 C 3855.33 1.58591 0.715881 0
M  V30 42693 O 3856.51 1.90856 0.643121 0
M  V30 42694 C 3853.57 3.37648 0.787081 0
M  V30 42695 C 3852.63 4.29274 -0.0471465 0
M  V30 42696 C 3851.87 5.27626 0.802921 0
M  V30 42697 O 3852.09 5.32617 2.04146 0
M  V30 42698 O 3851.02 6.01465 0.228773 0
M  V30 42699 H 3854.85 2.90316 -0.891639 0
M  V30 42700 H 3852.44 1.40749 -0.501021 0
M  V30 42701 H 3854.32 4.00924 1.29762 0
M  V30 42702 H 3852.99 2.84071 1.55195 0
M  V30 42703 H 3851.9 3.69203 -0.60333 0
M  V30 42704 H 3853.23 4.8607 -0.774359 0
M  V30 42705 N 3854.88 0.488329 1.49844 0
M  V30 42706 C 3856.13 -0.0605427 2.02009 0
M  V30 42707 C 3856.45 -1.38651 1.37117 0
M  V30 42708 O 3855.72 -1.88811 0.522215 0
M  V30 42709 H 3854.3 -0.0253642 0.746569 0
M  V30 42710 H 3856.97 0.642683 1.83999 0
M  V30 42711 H 3856.06 -0.199487 3.11462 0
M  V30 42712 N 3856.36 -1.56034 0.221629 0
M  V30 42713 C 3857.77 -1.84493 -0.286208 0
M  V30 42714 C 3858.12 -1.14301 -1.59467 0
M  V30 42715 O 3857.25 -0.412709 -2.12428 0
M  V30 42716 C 3857.84 -3.34691 -0.526069 0
M  V30 42717 C 3856.4 -3.63467 -0.978214 0
M  V30 42718 C 3855.55 -2.77269 -0.0413299 0
M  V30 42719 H 3858.5 -1.52339 0.444818 0
M  V30 42720 H 3858.52 -3.54901 -1.37206 0
M  V30 42721 H 3858.03 -3.8575 0.426416 0
M  V30 42722 H 3856.14 -3.17864 -1.94405 0
M  V30 42723 H 3856.25 -4.71453 -0.852569 0
M  V30 42724 H 3854.61 -2.48732 -0.548135 0
M  V30 42725 H 3855.4 -3.31127 0.906074 0
M  V30 42726 N 3857.84 0.0517601 -1.57515 0
M  V30 42727 C 3859.07 0.75835 -1.92179 0
M  V30 42728 C 3859.48 1.70615 -0.817751 0
M  V30 42729 O 3858.82 1.82421 0.216359 0
M  V30 42730 C 3858.88 1.58906 -3.22473 0
M  V30 42731 C 3858.55 0.80849 -4.49792 0
M  V30 42732 C 3859.54 0.11878 -5.19764 0
M  V30 42733 C 3857.23 0.769737 -4.96367 0
M  V30 42734 C 3859.22 -0.599235 -6.34577 0
M  V30 42735 C 3856.91 0.0479624 -6.11081 0
M  V30 42736 C 3857.91 -0.635304 -6.80039 0
M  V30 42737 O 3857.6 -1.34541 -7.92562 0
M  V30 42738 H 3857.33 0.219596 -0.639339 0
M  V30 42739 H 3859.88 0.0202287 -2.0539 0
M  V30 42740 H 3858.11 2.37046 -3.05526 0
M  V30 42741 H 3859.8 2.17616 -3.42634 0
M  V30 42742 H 3860.57 0.139896 -4.84798 0
M  V30 42743 H 3856.45 1.29104 -4.42553 0
M  V30 42744 H 3859.99 -1.1331 -6.88336 0
M  V30 42745 H 3855.89 0.0248428 -6.45495 0
M  V30 42746 H 3856.66 -1.25674 -8.08794 0
M  V30 42747 N 3859.32 1.54242 0.323587 0
M  V30 42748 C 3860.55 1.7641 1.08107 0
M  V30 42749 C 3860.96 0.512688 1.81706 0
M  V30 42750 O 3860.32 -0.516607 1.75035 0
M  V30 42751 C 3860.37 2.95723 2.07918 0
M  V30 42752 O 3860.09 4.16026 1.37309 0
M  V30 42753 C 3861.59 3.30101 2.95885 0
M  V30 42754 H 3858.81 0.588925 0.321572 0
M  V30 42755 H 3861.36 2.0113 0.369721 0
M  V30 42756 H 3859.51 2.73277 2.74588 0
M  V30 42757 H 3859.93 4.83139 2.0415 0
M  V30 42758 H 3861.4 4.16887 3.61814 0
M  V30 42759 H 3861.88 2.47267 3.62982 0
M  V30 42760 H 3862.48 3.54627 2.34777 0
M  V30 42761 N 3860.8 -0.585648 1.46314 0
M  V30 42762 C 3862.04 -1.34596 1.51697 0
M  V30 42763 C 3862.38 -1.93481 0.166923 0
M  V30 42764 O 3861.65 -1.76309 -0.8213 0
M  V30 42765 C 3861.93 -2.4775 2.61327 0
M  V30 42766 C 3861.79 -1.93919 4.05852 0
M  V30 42767 C 3863.11 -3.49807 2.67064 0
M  V30 42768 H 3860.23 -0.488033 0.552261 0
M  V30 42769 H 3862.87 -0.658169 1.78236 0
M  V30 42770 H 3861.02 -3.06421 2.38828 0
M  V30 42771 H 3862.69 -1.39729 4.39629 0
M  V30 42772 H 3860.93 -1.24768 4.1547 0
M  V30 42773 H 3861.6 -2.75587 4.78284 0
M  V30 42774 H 3864.08 -3.01013 2.87281 0
M  V30 42775 H 3862.96 -4.26443 3.45597 0
M  V30 42776 H 3863.22 -4.06845 1.73 0
M  V30 42777 N 3862.28 -1.33971 -0.830033 0
M  V30 42778 C 3863.55 -1.16516 -1.5711 0
M  V30 42779 C 3863.93 0.265038 -2.0943 0
M  V30 42780 O 3863.28 1.26536 -1.90265 0
M  V30 42781 C 3863.49 -2.21374 -2.69804 0
M  V30 42782 C 3864.84 -2.55986 -3.38757 0
M  V30 42783 O 3865.86 -2.20109 -2.80054 0
M  V30 42784 O 3864.72 -3.17588 -4.44748 0
M  V30 42785 H 3861.82 -0.451219 -0.693058 0
M  V30 42786 H 3864.36 -1.45581 -0.872022 0
M  V30 42787 H 3863.13 -3.17403 -2.28847 0
M  V30 42788 H 3862.76 -1.93445 -3.47368 0
M  V30 42789 N 3863.75 1.04937 -1.17584 0
M  V30 42790 C 3864.72 2.10913 -0.897132 0
M  V30 42791 C 3865.72 1.60397 0.113795 0
M  V30 42792 O 3866.91 1.73795 -0.118665 0
M  V30 42793 C 3864.04 3.39157 -0.344311 0
M  V30 42794 H 3865.23 2.37071 -1.83678 0
M  V30 42795 H 3862.78 1.21222 -0.986655 0
M  V30 42796 H 3863.52 3.18657 0.602361 0
M  V30 42797 H 3863.3 3.77135 -1.07293 0
M  V30 42798 H 3864.79 4.17263 -0.167717 0
M  V30 42799 N 3865.23 0.976485 1.23703 0
M  V30 42800 C 3866.48 0.638747 1.91319 0
M  V30 42801 C 3866.79 -0.830961 1.77072 0
M  V30 42802 O 3868 -1.2796 2.39455 0
M  V30 42803 C 3866.46 1.09184 3.42939 0
M  V30 42804 C 3866.06 2.58561 3.65855 0
M  V30 42805 C 3867.81 0.827658 4.16353 0
M  V30 42806 C 3865.71 2.97558 5.1109 0
M  V30 42807 H 3864.64 0.235199 0.716378 0
M  V30 42808 H 3867.3 1.18386 1.40203 0
M  V30 42809 H 3865.68 0.474962 3.93141 0
M  V30 42810 H 3866.85 3.25454 3.26215 0
M  V30 42811 H 3865.17 2.82684 3.05743 0
M  V30 42812 H 3867.76 1.09491 5.2337 0
M  V30 42813 H 3868.11 -0.236209 4.15629 0
M  V30 42814 H 3868.64 1.40592 3.72127 0
M  V30 42815 H 3865.38 4.03052 5.16943 0
M  V30 42816 H 3864.9 2.35356 5.51695 0
M  V30 42817 H 3866.58 2.87947 5.79392 0
M  V30 42818 N 3866.71 -1.38737 0.747659 0
M  V30 42819 C 3867.64 -2.29073 0.0762767 0
M  V30 42820 C 3868.65 -1.47452 -0.690061 0
M  V30 42821 O 3869.84 -1.70384 -0.53213 0
M  V30 42822 C 3866.94 -3.26284 -0.916078 0
M  V30 42823 C 3866.12 -4.36902 -0.208623 0
M  V30 42824 C 3865.18 -5.1434 -1.11088 0
M  V30 42825 O 3864.2 -5.662 -0.583623 0
M  V30 42826 N 3865.4 -5.26752 -2.43952 0
M  V30 42827 H 3868.17 -2.87332 0.852074 0
M  V30 42828 H 3865.73 -1.50454 0.597942 0
M  V30 42829 H 3867.72 -3.74967 -1.52257 0
M  V30 42830 H 3866.29 -2.68965 -1.59299 0
M  V30 42831 H 3865.51 -3.89932 0.578503 0
M  V30 42832 H 3866.8 -5.08023 0.28115 0
M  V30 42833 H 3866.2 -4.86159 -2.89251 0
M  V30 42834 H 3864.75 -5.7883 -2.99665 0
M  V30 42835 N 3868.19 -0.496268 -1.49583 0
M  V30 42836 C 3869.13 0.284676 -2.29038 0
M  V30 42837 C 3870.1 0.964637 -1.35218 0
M  V30 42838 O 3871.29 0.972215 -1.64173 0
M  V30 42839 C 3868.43 1.34597 -3.1777 0
M  V30 42840 C 3867.54 0.678265 -4.26642 0
M  V30 42841 C 3866.68 1.7196 -5.02597 0
M  V30 42842 C 3865.72 1.0335 -6.03312 0
M  V30 42843 N 3864.85 2.01882 -6.72449 0
M  V30 42844 H 3869.69 -0.399136 -2.95315 0
M  V30 42845 H 3867.23 -0.208679 -1.45612 0
M  V30 42846 H 3869.19 1.97323 -3.67586 0
M  V30 42847 H 3867.82 1.99861 -2.53486 0
M  V30 42848 H 3866.87 -0.0621622 -3.80349 0
M  V30 42849 H 3868.18 0.137941 -4.98609 0
M  V30 42850 H 3867.34 2.42202 -5.56258 0
M  V30 42851 H 3866.08 2.29377 -4.30392 0
M  V30 42852 H 3865.08 0.316828 -5.48886 0
M  V30 42853 H 3866.31 0.46589 -6.775 0
M  V30 42854 H 3864.25 2.5827 -6.0302 0
M  V30 42855 H 3864.17 1.52903 -7.40376 0
M  V30 42856 H 3865.44 2.71428 -7.30717 0
M  V30 42857 N 3869.67 1.55914 -0.2299 0
M  V30 42858 C 3870.61 2.20655 0.676771 0
M  V30 42859 C 3871.58 1.16483 1.1841 0
M  V30 42860 O 3872.77 1.44869 1.24167 0
M  V30 42861 C 3869.91 2.8968 1.87562 0
M  V30 42862 C 3869.02 4.08466 1.40641 0
M  V30 42863 C 3868.16 4.65252 2.56348 0
M  V30 42864 C 3867.19 5.76321 2.06205 0
M  V30 42865 N 3866.33 6.27363 3.15215 0
M  V30 42866 H 3871.17 2.97766 0.117982 0
M  V30 42867 H 3868.71 1.47027 0.0464783 0
M  V30 42868 H 3870.67 3.27889 2.57963 0
M  V30 42869 H 3869.3 2.15072 2.40716 0
M  V30 42870 H 3868.35 3.75686 0.597038 0
M  V30 42871 H 3869.66 4.88698 0.998791 0
M  V30 42872 H 3868.81 5.05947 3.34818 0
M  V30 42873 H 3867.55 3.842 3.00403 0
M  V30 42874 H 3866.56 5.3512 1.26199 0
M  V30 42875 H 3867.78 6.59213 1.63139 0
M  V30 42876 H 3865.73 5.49222 3.58736 0
M  V30 42877 H 3865.65 7.02741 2.78731 0
M  V30 42878 H 3866.91 6.72715 3.93795 0
M  V30 42879 N 3871.14 -0.043406 1.5754 0
M  V30 42880 C 3872.39 -0.736041 1.87791 0
M  V30 42881 C 3872.71 -1.77281 0.826497 0
M  V30 42882 O 3873.91 -2.51702 1.01776 0
M  V30 42883 C 3872.37 -1.36012 3.3321 0
M  V30 42884 C 3871.98 -0.360453 4.46548 0
M  V30 42885 C 3873.72 -2.03347 3.72626 0
M  V30 42886 C 3871.63 -0.992065 5.8302 0
M  V30 42887 H 3870.56 -0.278655 0.700619 0
M  V30 42888 H 3873.21 0.0100092 1.83497 0
M  V30 42889 H 3871.59 -2.1554 3.32203 0
M  V30 42890 H 3872.76 0.407068 4.58998 0
M  V30 42891 H 3871.08 0.210004 4.1587 0
M  V30 42892 H 3873.68 -2.51429 4.71898 0
M  V30 42893 H 3874.02 -2.84541 3.03879 0
M  V30 42894 H 3874.55 -1.30614 3.75746 0
M  V30 42895 H 3871.29 -0.219849 6.55131 0
M  V30 42896 H 3870.81 -1.72977 5.74316 0
M  V30 42897 H 3872.49 -1.50363 6.29285 0
M  V30 42898 N 3872.62 -1.54412 -0.315402 0
M  V30 42899 C 3873.85 -1.76981 -1.0717 0
M  V30 42900 C 3874.26 -0.522317 -1.81431 0
M  V30 42901 O 3873.62 0.507317 -1.75307 0
M  V30 42902 C 3873.67 -2.96822 -2.06347 0
M  V30 42903 O 3873.39 -4.16749 -1.35101 0
M  V30 42904 C 3874.89 -3.31666 -2.9413 0
M  V30 42905 H 3872.11 -0.590622 -0.318444 0
M  V30 42906 H 3874.66 -2.01323 -0.359049 0
M  V30 42907 H 3872.81 -2.74729 -2.73135 0
M  V30 42908 H 3873.23 -4.84215 -2.01585 0
M  V30 42909 H 3874.7 -4.188 -3.59598 0
M  V30 42910 H 3875.18 -2.49188 -3.61665 0
M  V30 42911 H 3875.78 -3.55867 -2.32893 0
M  V30 42912 N 3874.1 0.57788 -1.46623 0
M  V30 42913 C 3875.01 1.71436 -1.60146 0
M  V30 42914 C 3876.03 1.6711 -0.48481 0
M  V30 42915 O 3877.2 1.86931 -0.749584 0
M  V30 42916 C 3874.27 3.07942 -1.59288 0
M  V30 42917 C 3873.33 3.23495 -2.82222 0
M  V30 42918 C 3872.56 4.5349 -2.81395 0
M  V30 42919 O 3872.78 5.37678 -1.90417 0
M  V30 42920 O 3871.72 4.72393 -3.72999 0
M  V30 42921 H 3875.54 1.62973 -2.56268 0
M  V30 42922 H 3873.13 0.745491 -1.29471 0
M  V30 42923 H 3875.01 3.89216 -1.61521 0
M  V30 42924 H 3873.69 3.16832 -0.663268 0
M  V30 42925 H 3872.59 2.41697 -2.8554 0
M  V30 42926 H 3873.93 3.19499 -3.74408 0
M  V30 42927 N 3875.58 1.34409 0.822917 0
M  V30 42928 C 3876.81 1.29843 1.61085 0
M  V30 42929 C 3877.22 -0.127494 1.88369 0
M  V30 42930 O 3876.58 -1.07457 1.4751 0
M  V30 42931 C 3876.63 2.08694 2.95176 0
M  V30 42932 O 3876.35 3.45726 2.69083 0
M  V30 42933 C 3877.85 2.11525 3.89579 0
M  V30 42934 H 3875.07 0.446679 0.500718 0
M  V30 42935 H 3877.62 1.77023 1.02388 0
M  V30 42936 H 3875.77 1.65156 3.50431 0
M  V30 42937 H 3876.18 3.86485 3.54583 0
M  V30 42938 H 3877.66 2.7112 4.80831 0
M  V30 42939 H 3878.14 1.10965 4.24951 0
M  V30 42940 H 3878.74 2.55152 3.40261 0
M  V30 42941 N 3877.06 -1.04312 1.18139 0
M  V30 42942 C 3878 -2.12267 0.906162 0
M  V30 42943 C 3878.97 -1.6539 -0.153463 0
M  V30 42944 O 3880.16 -1.90795 -0.0143551 0
M  V30 42945 C 3877.3 -3.42344 0.435307 0
M  V30 42946 C 3876.41 -4.02847 1.56007 0
M  V30 42947 C 3875.55 -5.20876 1.04219 0
M  V30 42948 C 3874.59 -5.73405 2.14181 0
M  V30 42949 N 3873.72 -6.82724 1.63804 0
M  V30 42950 H 3878.56 -2.35148 1.83056 0
M  V30 42951 H 3876.1 -1.15348 0.912866 0
M  V30 42952 H 3878.06 -4.16952 0.143807 0
M  V30 42953 H 3876.69 -3.19618 -0.452119 0
M  V30 42954 H 3875.74 -3.25591 1.9671 0
M  V30 42955 H 3877.05 -4.37863 2.38908 0
M  V30 42956 H 3876.21 -6.02589 0.705065 0
M  V30 42957 H 3874.94 -4.87358 0.182729 0
M  V30 42958 H 3873.95 -4.90315 2.4874 0
M  V30 42959 H 3875.17 -6.08968 3.00558 0
M  V30 42960 H 3873.12 -6.51086 0.801437 0
M  V30 42961 H 3873.04 -7.16791 2.40306 0
M  V30 42962 H 3874.31 -7.68068 1.33012 0
M  V30 42963 N 3878.53 -0.983032 -1.23184 0
M  V30 42964 C 3879.47 -0.483466 -2.24043 0
M  V30 42965 C 3880.48 0.416115 -1.57392 0
M  V30 42966 O 3881.67 0.21983 -1.77141 0
M  V30 42967 C 3878.77 0.319674 -3.37389 0
M  V30 42968 C 3877.94 -0.573666 -4.33622 0
M  V30 42969 C 3877 0.176073 -5.25905 0
M  V30 42970 O 3876.03 -0.435198 -5.67534 0
M  V30 42971 N 3877.23 1.46129 -5.61806 0
M  V30 42972 H 3879.99 -1.3507 -2.67537 0
M  V30 42973 H 3877.55 -0.856603 -1.37382 0
M  V30 42974 H 3879.55 0.82965 -3.96105 0
M  V30 42975 H 3878.12 1.08794 -2.93057 0
M  V30 42976 H 3877.34 -1.26444 -3.73371 0
M  V30 42977 H 3878.62 -1.18239 -4.94871 0
M  V30 42978 H 3878.02 1.9794 -5.2994 0
M  V30 42979 H 3876.58 1.91666 -6.22983 0
M  V30 42980 N 3880.01 1.38338 -0.755006 0
M  V30 42981 C 3880.94 2.33057 -0.143719 0
M  V30 42982 C 3881.92 1.54939 0.701995 0
M  V30 42983 O 3883.11 1.8325 0.64289 0
M  V30 42984 C 3880.24 3.39124 0.749134 0
M  V30 42985 C 3879.19 4.28 0.00603936 0
M  V30 42986 C 3878.52 5.24935 1.01724 0
M  V30 42987 C 3879.82 5.09183 -1.16319 0
M  V30 42988 H 3881.51 2.84427 -0.934957 0
M  V30 42989 H 3879.06 1.36754 -0.451047 0
M  V30 42990 H 3881.01 4.04353 1.18646 0
M  V30 42991 H 3879.74 2.8624 1.57271 0
M  V30 42992 H 3878.39 3.64279 -0.41188 0
M  V30 42993 H 3878.04 4.68337 1.83491 0
M  V30 42994 H 3877.74 5.85253 0.52468 0
M  V30 42995 H 3879.27 5.93039 1.45385 0
M  V30 42996 H 3880.68 5.67644 -0.803344 0
M  V30 42997 H 3879.08 5.78743 -1.58671 0
M  V30 42998 H 3880.15 4.42838 -1.97541 0
M  V30 42999 N 3881.49 0.504194 1.49317 0
M  V30 43000 C 3882.45 -0.26153 2.27703 0
M  V30 43001 C 3883.45 -0.891091 1.33851 0
M  V30 43002 O 3884.64 -0.755128 1.56982 0
M  V30 43003 C 3881.78 -1.37558 3.11914 0
M  V30 43004 H 3882.97 0.426344 2.96854 0
M  V30 43005 H 3880.52 0.259263 1.54135 0
M  V30 43006 H 3881.26 -2.09751 2.47336 0
M  V30 43007 H 3881.04 -0.929574 3.80922 0
M  V30 43008 H 3882.53 -1.91487 3.7111 0
M  V30 43009 N 3882.97 -1.5579 0.238166 0
M  V30 43010 C 3883.92 -2.2101 -0.665059 0
M  V30 43011 C 3884.89 -1.17109 -1.17791 0
M  V30 43012 O 3886.07 -1.45526 -1.23397 0
M  V30 43013 C 3883.21 -2.90671 -1.86023 0
M  V30 43014 C 3882.32 -4.09206 -1.38473 0
M  V30 43015 C 3881.46 -4.66605 -2.53877 0
M  V30 43016 C 3880.5 -5.77407 -2.03145 0
M  V30 43017 N 3879.63 -6.29025 -3.11884 0
M  V30 43018 H 3884.47 -2.97825 -0.102189 0
M  V30 43019 H 3882.01 -1.47049 -0.0386805 0
M  V30 43020 H 3883.97 -3.29252 -2.5622 0
M  V30 43021 H 3882.6 -2.16345 -2.39572 0
M  V30 43022 H 3881.65 -3.75997 -0.577106 0
M  V30 43023 H 3882.96 -4.89221 -0.97286 0
M  V30 43024 H 3882.12 -5.07715 -3.3213 0
M  V30 43025 H 3880.86 -3.85787 -2.98361 0
M  V30 43026 H 3879.86 -5.35782 -1.2336 0
M  V30 43027 H 3881.09 -6.60069 -1.59641 0
M  V30 43028 H 3879.03 -5.51116 -3.55818 0
M  V30 43029 H 3878.95 -7.04209 -2.75001 0
M  V30 43030 H 3880.22 -6.74794 -3.90222 0
M  V30 43031 N 3884.45 0.0350506 -1.57561 0
M  V30 43032 C 3885.72 0.762138 -1.80141 0
M  V30 43033 C 3886.1 1.93893 -0.834788 0
M  V30 43034 O 3885.45 2.28161 0.124347 0
M  V30 43035 C 3885.66 1.20078 -3.27692 0
M  V30 43036 C 3887.01 1.61916 -3.92516 0
M  V30 43037 O 3888.03 1.29552 -3.31805 0
M  V30 43038 O 3886.89 2.21964 -4.99394 0
M  V30 43039 H 3883.99 0.368065 -0.740579 0
M  V30 43040 H 3886.53 0.0122897 -1.69696 0
M  V30 43041 H 3885.3 0.360432 -3.89636 0
M  V30 43042 H 3884.93 2.01083 -3.43003 0
M  V30 43043 N 3885.92 1.54577 0.307209 0
M  V30 43044 C 3886.85 1.88097 1.38354 0
M  V30 43045 C 3887.84 0.73928 1.53195 0
M  V30 43046 O 3889.02 0.994469 1.66805 0
M  V30 43047 C 3886.15 2.12279 2.74872 0
M  V30 43048 C 3885.1 3.28127 2.74803 0
M  V30 43049 C 3884.43 3.37715 4.14551 0
M  V30 43050 C 3885.73 4.65385 2.37095 0
M  V30 43051 H 3887.42 2.78243 1.10549 0
M  V30 43052 H 3884.97 1.33877 0.53036 0
M  V30 43053 H 3886.92 2.34314 3.5025 0
M  V30 43054 H 3885.65 1.18898 3.04189 0
M  V30 43055 H 3884.31 3.06006 2.01881 0
M  V30 43056 H 3883.95 2.41862 4.41035 0
M  V30 43057 H 3883.65 4.15584 4.15408 0
M  V30 43058 H 3885.18 3.62003 4.91718 0
M  V30 43059 H 3886.59 4.87192 3.02187 0
M  V30 43060 H 3884.99 5.45923 2.49174 0
M  V30 43061 H 3886.06 4.66524 1.32226 0
M  V30 43062 N 3887.4 -0.570096 1.46927 0
M  V30 43063 C 3888.82 -0.894743 1.32161 0
M  V30 43064 C 3889.02 -1.99217 0.302446 0
M  V30 43065 O 3888.07 -2.50823 -0.290571 0
M  V30 43066 C 3889.39 -1.30016 2.71139 0
M  V30 43067 C 3890.94 -1.41231 2.79326 0
M  V30 43068 C 3891.41 -1.85134 4.18914 0
M  V30 43069 N 3892.9 -1.92307 4.21393 0
M  V30 43070 C 3893.64 -2.27579 5.26304 0
M  V30 43071 N 3893.13 -2.61554 6.4153 0
M  V30 43072 N 3894.93 -2.28242 5.13675 0
M  V30 43073 H 3887.08 0.15464 2.11836 0
M  V30 43074 H 3889.34 0.00651325 0.947978 0
M  V30 43075 H 3889.05 -0.567714 3.47088 0
M  V30 43076 H 3888.92 -2.25906 3.0207 0
M  V30 43077 H 3891.31 -2.1356 2.03657 0
M  V30 43078 H 3891.39 -0.435616 2.52064 0
M  V30 43079 H 3891.03 -1.1338 4.95083 0
M  V30 43080 H 3890.96 -2.83784 4.43592 0
M  V30 43081 H 3893.45 -1.68489 3.3826 0
M  V30 43082 H 3893.77 -2.87458 7.17348 0
M  V30 43083 H 3892.11 -2.59164 6.44872 0
M  V30 43084 H 3895.3 -2.01129 4.22687 0
M  V30 43085 H 3895.47 -2.55401 5.95545 0
M  V30 43086 N 3888.88 -1.34844 -0.815777 0
M  V30 43087 C 3889.81 -1.22857 -1.93491 0
M  V30 43088 C 3890.83 -0.153979 -1.6207 0
M  V30 43089 O 3892.02 -0.406459 -1.73811 0
M  V30 43090 C 3889.12 -0.867064 -3.27621 0
M  V30 43091 C 3888.29 -2.03812 -3.87013 0
M  V30 43092 C 3887.35 -1.65387 -4.99533 0
M  V30 43093 O 3886.37 -2.3714 -5.17449 0
M  V30 43094 N 3887.58 -0.572158 -5.77673 0
M  V30 43095 H 3890.34 -2.19272 -2.04303 0
M  V30 43096 H 3887.9 -1.27892 -0.99273 0
M  V30 43097 H 3889.89 -0.591661 -4.00352 0
M  V30 43098 H 3888.46 0.0071172 -3.12599 0
M  V30 43099 H 3887.68 -2.47785 -3.06588 0
M  V30 43100 H 3888.97 -2.82113 -4.23426 0
M  V30 43101 H 3888.37 0.0241937 -5.65695 0
M  V30 43102 H 3886.93 -0.356508 -6.50824 0
M  V30 43103 N 3890.36 1.03684 -1.1869 0
M  V30 43104 C 3891.61 1.77339 -0.99611 0
M  V30 43105 C 3891.96 1.86597 0.468956 0
M  V30 43106 O 3891.25 1.36585 1.34369 0
M  V30 43107 C 3891.45 3.20125 -1.58917 0
M  V30 43108 C 3891.28 3.24785 -3.11038 0
M  V30 43109 C 3890.05 3.33193 -3.79882 0
M  V30 43110 C 3892.24 3.12481 -4.08485 0
M  V30 43111 N 3890.23 3.27144 -5.19471 0
M  V30 43112 C 3891.6 3.13974 -5.34621 0
M  V30 43113 C 3893.65 2.96551 -3.99952 0
M  V30 43114 C 3892.36 3.01173 -6.53213 0
M  V30 43115 C 3894.38 2.85097 -5.18145 0
M  V30 43116 C 3893.74 2.87237 -6.43175 0
M  V30 43117 H 3889.84 0.660561 -0.41855 0
M  V30 43118 H 3892.43 1.23485 -1.50531 0
M  V30 43119 H 3890.6 3.72317 -1.1061 0
M  V30 43120 H 3892.33 3.82099 -1.33351 0
M  V30 43121 H 3889.08 3.39085 -3.30633 0
M  V30 43122 H 3889.51 3.27548 -5.92488 0
M  V30 43123 H 3894.15 2.93723 -3.04116 0
M  V30 43124 H 3891.87 3.02753 -7.49244 0
M  V30 43125 H 3895.45 2.73819 -5.13337 0
M  V30 43126 H 3894.33 2.78466 -7.33094 0
M  V30 43127 N 3891.84 0.989551 1.22661 0
M  V30 43128 C 3892.77 0.495341 2.23783 0
M  V30 43129 C 3893.78 -0.407763 1.57611 0
M  V30 43130 O 3894.97 -0.210432 1.77255 0
M  V30 43131 C 3892.07 -0.301777 3.37554 0
M  V30 43132 C 3891.24 0.596654 4.33311 0
M  V30 43133 C 3890.3 -0.14818 5.25991 0
M  V30 43134 O 3889.33 0.46529 5.67295 0
M  V30 43135 N 3890.53 -1.43148 5.62574 0
M  V30 43136 H 3893.3 1.36487 2.66817 0
M  V30 43137 H 3890.86 0.863877 1.36926 0
M  V30 43138 H 3892.85 -0.808632 3.96539 0
M  V30 43139 H 3891.42 -1.07238 2.9363 0
M  V30 43140 H 3890.64 1.28422 3.72695 0
M  V30 43141 H 3891.93 1.20862 4.94237 0
M  V30 43142 H 3891.33 -1.95127 5.30982 0
M  V30 43143 H 3889.88 -1.88359 6.2399 0
M  V30 43144 N 3893.32 -1.37936 0.762332 0
M  V30 43145 C 3894.54 -2.04195 0.333494 0
M  V30 43146 C 3894.96 -1.57498 -1.04115 0
M  V30 43147 O 3894.32 -0.751968 -1.66288 0
M  V30 43148 C 3894.37 -3.59734 0.356913 0
M  V30 43149 O 3894.09 -4.04719 1.67732 0
M  V30 43150 C 3895.59 -4.43219 -0.0846997 0
M  V30 43151 H 3892.81 -0.655993 0.141118 0
M  V30 43152 H 3895.35 -1.76455 1.03363 0
M  V30 43153 H 3893.51 -3.86279 -0.294557 0
M  V30 43154 H 3893.92 -4.99195 1.60948 0
M  V30 43155 H 3895.4 -5.51997 -0.017155 0
M  V30 43156 H 3895.87 -4.24313 -1.1338 0
M  V30 43157 H 3896.48 -4.21881 0.538225 0
M  V30 43158 N 3894.79 -0.512106 -1.49048 0
M  V30 43159 C 3895.74 0.27395 -2.30981 0
M  V30 43160 C 3896.74 0.952378 -1.40093 0
M  V30 43161 O 3897.94 0.8788 -1.57089 0
M  V30 43162 H 3894.32 0.107208 -0.744319 0
M  V30 43163 H 3896.29 -0.436918 -2.95184 0
M  V30 43164 C 3895.04 1.31886 -3.21716 0
M  V30 43165 H 3894.36 0.806233 -3.91586 0
M  V30 43166 H 3895.8 1.84063 -3.81964 0
M  V30 43167 C 3894.26 2.34298 -2.42086 0
M  V30 43168 O 3894.79 3.40397 -2.13291 0
M  V30 43169 N 3892.99 2.07052 -2.03907 0
M  V30 43170 H 3892.54 1.2079 -2.27525 0
M  V30 43171 H 3892.5 2.758 -1.50937 0
M  V30 43172 N 3896.27 1.55662 -0.246424 0
M  V30 43173 C 3897.52 1.99227 0.379012 0
M  V30 43174 C 3897.85 1.13437 1.57625 0
M  V30 43175 O 3897.13 0.197661 1.93493 0
M  V30 43176 C 3897.41 3.51342 0.789342 0
M  V30 43177 C 3897.26 4.47898 -0.413254 0
M  V30 43178 C 3898.58 4.08543 1.63649 0
M  V30 43179 H 3895.7 0.724289 0.136289 0
M  V30 43180 H 3898.34 1.86793 -0.34764 0
M  V30 43181 H 3896.49 3.62069 1.40848 0
M  V30 43182 H 3898.16 4.49152 -1.05168 0
M  V30 43183 H 3896.41 4.2074 -1.05644 0
M  V30 43184 H 3897.08 5.51938 -0.0828237 0
M  V30 43185 H 3899.55 4.00914 1.11386 0
M  V30 43186 H 3898.43 5.15245 1.89245 0
M  V30 43187 H 3898.69 3.5697 2.60816 0
M  V30 43188 N 3897.75 -0.0266943 1.57577 0
M  V30 43189 C 3899.03 -0.752574 1.80543 0
M  V30 43190 C 3899.41 -1.93448 0.845059 0
M  V30 43191 O 3898.75 -2.28224 -0.112245 0
M  V30 43192 C 3898.96 -1.18339 3.28324 0
M  V30 43193 C 3900.31 -1.59832 3.93369 0
M  V30 43194 O 3901.34 -1.2779 3.32488 0
M  V30 43195 O 3900.2 -2.19312 5.00564 0
M  V30 43196 H 3897.29 -0.364133 0.74252 0
M  V30 43197 H 3899.84 -0.00329017 1.697 0
M  V30 43198 H 3898.61 -0.339763 3.89822 0
M  V30 43199 H 3898.23 -1.99261 3.44065 0
M  V30 43200 N 3899.23 -1.54738 -0.299007 0
M  V30 43201 C 3900.47 -1.74371 -1.0355 0
M  V30 43202 C 3900.81 -0.529052 -1.86855 0
M  V30 43203 O 3900.08 0.473821 -1.8864 0
M  V30 43204 C 3900.36 -3.03386 -1.93983 0
M  V30 43205 C 3900.22 -4.35155 -1.13844 0
M  V30 43206 C 3901.54 -3.28279 -2.93123 0
M  V30 43207 H 3898.66 -0.634437 -0.375044 0
M  V30 43208 H 3901.3 -1.87454 -0.309985 0
M  V30 43209 H 3899.45 -2.92363 -2.55844 0
M  V30 43210 H 3901.12 -4.58099 -0.542533 0
M  V30 43211 H 3899.36 -4.31551 -0.441202 0
M  V30 43212 H 3900.03 -5.21698 -1.80376 0
M  V30 43213 H 3902.51 -3.38925 -2.4139 0
M  V30 43214 H 3901.39 -4.19863 -3.53562 0
M  V30 43215 H 3901.65 -2.4667 -3.66887 0
M  V30 43216 N 3900.71 0.562296 -1.47228 0
M  V30 43217 C 3901.67 1.65187 -1.5889 0
M  V30 43218 C 3902.67 1.53948 -0.464386 0
M  V30 43219 O 3903.86 1.58198 -0.729307 0
M  V30 43220 C 3900.99 3.04708 -1.52858 0
M  V30 43221 H 3902.18 1.56198 -2.56012 0
M  V30 43222 H 3899.74 0.781808 -1.35342 0
M  V30 43223 H 3900.47 3.19235 -0.570923 0
M  V30 43224 H 3900.26 3.14274 -2.34465 0
M  V30 43225 H 3901.75 3.83986 -1.64147 0
M  V30 43226 N 3902.18 1.35274 0.808615 0
M  V30 43227 C 3903.13 1.28059 1.94175 0
M  V30 43228 C 3904.13 0.175903 1.68484 0
M  V30 43229 O 3905.33 0.34176 1.76726 0
M  V30 43230 H 3901.71 0.398194 0.637923 0
M  V30 43231 H 3903.68 2.23793 1.97381 0
M  V30 43232 C 3902.43 1.0674 3.30911 0
M  V30 43233 H 3901.75 1.90982 3.51235 0
M  V30 43234 H 3903.19 1.05732 4.10605 0
M  V30 43235 C 3901.65 -0.228826 3.36122 0
M  V30 43236 O 3902.18 -1.22532 3.82556 0
M  V30 43237 N 3900.38 -0.266898 2.89372 0
M  V30 43238 H 3899.93 0.544615 2.51777 0
M  V30 43239 H 3899.89 -1.13391 2.9324 0
M  V30 43240 N 3903.66 -1.03053 1.19239 0
M  V30 43241 C 3904.94 -1.73489 0.903384 0
M  V30 43242 C 3905.32 -2.02649 -0.591329 0
M  V30 43243 O 3904.67 -1.6798 -1.54903 0
M  V30 43244 C 3904.88 -3.01281 1.76155 0
M  V30 43245 C 3906.23 -3.74822 1.99484 0
M  V30 43246 O 3907.25 -3.11204 1.73292 0
M  V30 43247 O 3906.11 -4.89186 2.43637 0
M  V30 43248 H 3903.2 -0.755434 0.336525 0
M  V30 43249 H 3905.75 -1.09027 1.30043 0
M  V30 43250 H 3904.52 -2.75947 2.77433 0
M  V30 43251 H 3904.14 -3.73483 1.36367 0
M  V30 43252 N 3905.14 -0.996042 -1.22134 0
M  V30 43253 C 3906.07 -0.568949 -2.26462 0
M  V30 43254 C 3907.05 0.405754 -1.6519 0
M  V30 43255 O 3908.24 0.295701 -1.91936 0
M  V30 43256 C 3905.37 0.114105 -3.47113 0
M  V30 43257 C 3904.32 -0.779461 -4.20842 0
M  V30 43258 C 3903.65 0.0366847 -5.34687 0
M  V30 43259 C 3904.95 -2.07781 -4.79191 0
M  V30 43260 H 3906.64 -1.44102 -2.62441 0
M  V30 43261 H 3904.19 -0.694336 -1.26155 0
M  V30 43262 H 3906.14 0.424307 -4.19258 0
M  V30 43263 H 3904.86 1.02074 -3.10239 0
M  V30 43264 H 3903.52 -1.07335 -3.50535 0
M  V30 43265 H 3903.17 0.944333 -4.94056 0
M  V30 43266 H 3902.87 -0.558195 -5.84943 0
M  V30 43267 H 3904.39 0.340909 -6.09648 0
M  V30 43268 H 3905.81 -1.83135 -5.43263 0
M  V30 43269 H 3904.21 -2.62178 -5.39799 0
M  V30 43270 H 3905.28 -2.75449 -3.99069 0
M  V30 43271 N 3906.62 1.37529 -0.769636 0
M  V30 43272 C 3907.58 2.28636 -0.160756 0
M  V30 43273 C 3908.58 1.4793 0.630336 0
M  V30 43274 O 3909.77 1.68174 0.454236 0
M  V30 43275 C 3906.9 3.3186 0.779846 0
M  V30 43276 H 3908.1 2.8399 -0.963844 0
M  V30 43277 H 3905.65 1.4676 -0.537704 0
M  V30 43278 H 3906.38 2.81626 1.60802 0
M  V30 43279 H 3906.17 3.91511 0.214781 0
M  V30 43280 H 3907.66 3.99947 1.20136 0
M  V30 43281 N 3908.1 0.520003 1.48774 0
M  V30 43282 C 3909.03 -0.237172 2.32292 0
M  V30 43283 C 3910.01 -0.9446 1.41461 0
M  V30 43284 O 3911.19 -0.932319 1.70357 0
M  V30 43285 C 3908.32 -1.29062 3.22429 0
M  V30 43286 C 3907.28 -0.701937 4.22205 0
M  V30 43287 C 3906.6 -1.8573 5.01406 0
M  V30 43288 C 3907.9 0.319718 5.21321 0
M  V30 43289 H 3909.6 0.460001 2.95845 0
M  V30 43290 H 3907.14 0.222666 1.42268 0
M  V30 43291 H 3909.1 -1.82819 3.79678 0
M  V30 43292 H 3907.82 -2.01724 2.56856 0
M  V30 43293 H 3906.48 -0.185963 3.66128 0
M  V30 43294 H 3906.13 -2.57206 4.32266 0
M  V30 43295 H 3905.83 -1.46939 5.68931 0
M  V30 43296 H 3907.35 -2.39885 5.61505 0
M  V30 43297 H 3908.76 -0.130404 5.73152 0
M  V30 43298 H 3907.16 0.624482 5.96842 0
M  V30 43299 H 3908.23 1.22901 4.69066 0
M  V30 43300 N 3909.57 -1.55529 0.254676 0
M  V30 43301 C 3910.52 -2.21703 -0.641581 0
M  V30 43302 C 3911.49 -1.18352 -1.16542 0
M  V30 43303 O 3912.68 -1.46826 -1.21847 0
M  V30 43304 C 3909.82 -2.92627 -1.8293 0
M  V30 43305 C 3908.93 -4.10651 -1.34125 0
M  V30 43306 C 3908.06 -4.69271 -2.48914 0
M  V30 43307 C 3907.1 -5.79529 -1.9701 0
M  V30 43308 N 3906.24 -6.32298 -3.05194 0
M  V30 43309 H 3911.08 -2.97916 -0.0705952 0
M  V30 43310 H 3908.62 -1.47082 -0.0230818 0
M  V30 43311 H 3910.58 -3.31951 -2.52713 0
M  V30 43312 H 3909.21 -2.18874 -2.37264 0
M  V30 43313 H 3908.26 -3.76588 -0.537194 0
M  V30 43314 H 3909.57 -4.90225 -0.920917 0
M  V30 43315 H 3908.72 -5.11209 -3.26726 0
M  V30 43316 H 3907.46 -3.8893 -2.94252 0
M  V30 43317 H 3906.47 -5.3706 -1.1767 0
M  V30 43318 H 3907.69 -6.61725 -1.52631 0
M  V30 43319 H 3905.64 -5.54859 -3.49953 0
M  V30 43320 H 3905.56 -7.07086 -2.67516 0
M  V30 43321 H 3906.82 -6.78895 -3.83043 0
M  V30 43322 N 3911.05 0.0183372 -1.57589 0
M  V30 43323 C 3911.98 1.01488 -2.10291 0
M  V30 43324 C 3912.96 1.37027 -1.00785 0
M  V30 43325 O 3914.15 1.45724 -1.28368 0
M  V30 43326 C 3911.28 2.3125 -2.59115 0
M  V30 43327 C 3910.23 2.09924 -3.72983 0
M  V30 43328 C 3909.56 3.4554 -4.08052 0
M  V30 43329 C 3910.86 1.47668 -5.0099 0
M  V30 43330 H 3912.55 0.576129 -2.93805 0
M  V30 43331 H 3910.1 0.275683 -1.41336 0
M  V30 43332 H 3912.05 3.01304 -2.94608 0
M  V30 43333 H 3910.78 2.77205 -1.72699 0
M  V30 43334 H 3909.43 1.423 -3.37855 0
M  V30 43335 H 3909.08 3.89163 -3.18686 0
M  V30 43336 H 3908.78 3.32092 -4.84756 0
M  V30 43337 H 3910.31 4.16939 -4.46088 0
M  V30 43338 H 3911.72 2.07654 -5.34371 0
M  V30 43339 H 3910.12 1.44764 -5.82377 0
M  V30 43340 H 3911.19 0.443719 -4.82866 0
M  V30 43341 N 3912.53 1.54894 0.290797 0
M  V30 43342 C 3913.46 1.89554 1.36351 0
M  V30 43343 C 3914.44 0.755487 1.52402 0
M  V30 43344 O 3915.63 1.01211 1.65741 0
M  V30 43345 C 3912.76 2.15183 2.72605 0
M  V30 43346 C 3911.71 3.31023 2.71307 0
M  V30 43347 C 3911.04 3.42092 4.10946 0
M  V30 43348 C 3912.34 4.67874 2.32145 0
M  V30 43349 H 3914.03 2.794 1.07592 0
M  V30 43350 H 3911.58 1.34432 0.516131 0
M  V30 43351 H 3913.53 2.38016 3.47745 0
M  V30 43352 H 3912.25 1.22118 3.02911 0
M  V30 43353 H 3910.91 3.0813 1.98625 0
M  V30 43354 H 3910.56 2.46526 4.38445 0
M  V30 43355 H 3910.26 4.19967 4.10976 0
M  V30 43356 H 3911.78 3.67198 4.87851 0
M  V30 43357 H 3913.2 4.90369 2.97003 0
M  V30 43358 H 3911.6 5.48535 2.4337 0
M  V30 43359 H 3912.67 4.679 1.27271 0
M  V30 43360 N 3914.01 -0.55448 1.47524 0
M  V30 43361 C 3915.42 -0.880675 1.33102 0
M  V30 43362 C 3915.62 -1.98885 0.323559 0
M  V30 43363 O 3914.68 -2.51117 -0.263951 0
M  V30 43364 C 3915.99 -1.27133 2.72503 0
M  V30 43365 C 3917.54 -1.38261 2.80808 0
M  V30 43366 C 3918.02 -1.80681 4.20854 0
M  V30 43367 N 3919.51 -1.87826 4.23409 0
M  V30 43368 C 3920.24 -2.21984 5.28688 0
M  V30 43369 N 3919.74 -2.54735 6.44268 0
M  V30 43370 N 3921.53 -2.22781 5.16067 0
M  V30 43371 H 3913.68 0.1771 2.1166 0
M  V30 43372 H 3915.95 0.0165675 0.947855 0
M  V30 43373 H 3915.65 -0.530869 3.4767 0
M  V30 43374 H 3915.53 -2.22689 3.04449 0
M  V30 43375 H 3917.91 -2.11388 2.05911 0
M  V30 43376 H 3917.99 -0.408856 2.52511 0
M  V30 43377 H 3917.64 -1.08122 4.96258 0
M  V30 43378 H 3917.57 -2.79063 4.46577 0
M  V30 43379 H 3920.06 -1.64891 3.40028 0
M  V30 43380 H 3920.37 -2.79833 7.20356 0
M  V30 43381 H 3918.72 -2.52309 6.47584 0
M  V30 43382 H 3921.91 -1.96635 4.24797 0
M  V30 43383 H 3922.08 -2.4907 5.98221 0
M  V30 43384 N 3915.49 -1.35701 -0.80143 0
M  V30 43385 C 3916.76 -1.19822 -1.54603 0
M  V30 43386 C 3917.14 0.220556 -2.09945 0
M  V30 43387 O 3916.49 1.22472 -1.92906 0
M  V30 43388 C 3916.7 -2.27048 -2.65048 0
M  V30 43389 C 3918.05 -2.63114 -3.33251 0
M  V30 43390 O 3919.07 -2.26 -2.75322 0
M  V30 43391 O 3917.93 -3.2695 -4.37911 0
M  V30 43392 H 3915.03 -0.465819 -0.683332 0
M  V30 43393 H 3917.57 -1.47398 -0.840946 0
M  V30 43394 H 3916.34 -3.22186 -2.22063 0
M  V30 43395 H 3915.97 -2.0077 -3.43187 0
M  V30 43396 N 3916.96 1.02419 -1.19783 0
M  V30 43397 C 3918.19 1.79252 -1.02725 0
M  V30 43398 C 3918.6 1.8432 0.426937 0
M  V30 43399 O 3917.95 1.28955 1.30829 0
M  V30 43400 C 3918.01 3.25505 -1.526 0
M  V30 43401 C 3917.67 3.44061 -3.00784 0
M  V30 43402 C 3918.67 3.33898 -3.98508 0
M  V30 43403 C 3916.35 3.70124 -3.39579 0
M  V30 43404 C 3918.35 3.49529 -5.33018 0
M  V30 43405 C 3916.03 3.854 -4.74247 0
M  V30 43406 C 3917.03 3.75106 -5.70776 0
M  V30 43407 O 3916.72 3.89925 -7.03004 0
M  V30 43408 H 3916.45 0.570802 -0.362161 0
M  V30 43409 H 3919.01 1.29857 -1.59142 0
M  V30 43410 H 3917.24 3.75946 -0.905616 0
M  V30 43411 H 3918.93 3.83948 -1.31677 0
M  V30 43412 H 3919.69 3.13709 -3.69881 0
M  V30 43413 H 3915.57 3.77227 -2.64993 0
M  V30 43414 H 3919.11 3.41411 -6.08346 0
M  V30 43415 H 3915.01 4.05087 -5.02568 0
M  V30 43416 H 3915.78 4.06988 -7.10143 0
M  V30 43417 N 3918.44 1.0025 1.21604 0
M  V30 43418 C 3919.67 0.702283 1.95148 0
M  V30 43419 C 3920.09 -0.728262 1.7343 0
M  V30 43420 O 3919.45 -1.49915 1.01956 0
M  V30 43421 C 3919.5 1.02576 3.45703 0
M  V30 43422 O 3918.6 0.129647 4.12196 0
M  V30 43423 H 3917.94 0.261898 0.610168 0
M  V30 43424 H 3920.47 1.34208 1.54433 0
M  V30 43425 H 3920.48 0.97158 3.96263 0
M  V30 43426 H 3919.16 2.06812 3.60835 0
M  V30 43427 H 3917.74 0.240139 3.72126 0
M  V30 43428 N 3919.92 -1.37119 0.776919 0
M  V30 43429 C 3920.88 -2.28547 0.172879 0
M  V30 43430 C 3921.88 -1.48263 -0.622482 0
M  V30 43431 O 3923.07 -1.68412 -0.445311 0
M  V30 43432 C 3920.21 -3.32269 -0.762235 0
M  V30 43433 H 3921.4 -2.83474 0.978891 0
M  V30 43434 H 3918.95 -1.46473 0.54548 0
M  V30 43435 H 3919.69 -2.82475 -1.59306 0
M  V30 43436 H 3919.47 -3.9162 -0.194015 0
M  V30 43437 H 3920.96 -4.00578 -1.18013 0
M  V30 43438 N 3921.4 -0.527886 -1.48496 0
M  V30 43439 C 3922.68 0.0712705 -1.9547 0
M  V30 43440 C 3923.06 1.51499 -1.47007 0
M  V30 43441 O 3922.4 2.17653 -0.695647 0
M  V30 43442 C 3922.61 -0.043816 -3.48972 0
M  V30 43443 C 3923.96 0.116517 -4.2444 0
M  V30 43444 O 3924.99 0.0300805 -3.56187 0
M  V30 43445 O 3923.85 0.297395 -5.4569 0
M  V30 43446 H 3920.94 0.0804595 -0.823077 0
M  V30 43447 H 3923.49 -0.592335 -1.59027 0
M  V30 43448 H 3922.26 -1.04958 -3.76961 0
M  V30 43449 H 3921.88 0.658734 -3.92105 0
M  V30 43450 N 3922.88 1.55391 -0.26292 0
M  V30 43451 C 3924.15 1.91287 0.408491 0
M  V30 43452 C 3924.53 1.18569 1.74655 0
M  V30 43453 O 3923.88 0.308462 2.26408 0
M  V30 43454 C 3924.09 3.44465 0.560804 0
M  V30 43455 C 3925.44 4.16019 0.849328 0
M  V30 43456 O 3926.46 3.50292 0.646072 0
M  V30 43457 O 3925.32 5.32309 1.23732 0
M  V30 43458 H 3922.42 0.796731 0.221693 0
M  V30 43459 H 3924.96 1.66878 -0.308172 0
M  V30 43460 H 3923.74 3.89437 -0.381347 0
M  V30 43461 H 3923.36 3.74788 1.3274 0
M  V30 43462 N 3924.36 -0.00997961 1.57597 0
M  V30 43463 C 3925.58 -0.708158 1.94404 0
M  V30 43464 C 3926 -1.67858 0.864234 0
M  V30 43465 O 3925.36 -1.81817 -0.157731 0
M  V30 43466 C 3925.41 -1.4487 3.31202 0
M  V30 43467 O 3925.13 -0.517205 4.35036 0
M  V30 43468 C 3926.63 -2.2423 3.82408 0
M  V30 43469 H 3923.85 -0.197866 0.641163 0
M  V30 43470 H 3926.39 0.0381733 2.04464 0
M  V30 43471 H 3924.55 -2.14675 3.2248 0
M  V30 43472 H 3924.96 -1.03859 5.14114 0
M  V30 43473 H 3926.44 -2.71558 4.80583 0
M  V30 43474 H 3926.91 -3.06477 3.14592 0
M  V30 43475 H 3927.52 -1.59462 3.94274 0
M  V30 43476 N 3925.83 -1.55046 -0.282578 0
M  V30 43477 C 3927.25 -1.46671 -0.629259 0
M  V30 43478 C 3927.45 -0.672965 -1.8993 0
M  V30 43479 O 3926.51 -0.18799 -2.51799 0
M  V30 43480 C 3927.82 -2.90803 -0.765122 0
M  V30 43481 C 3929.37 -3.00959 -0.859806 0
M  V30 43482 C 3929.84 -4.46325 -1.02752 0
M  V30 43483 N 3931.33 -4.50113 -1.09328 0
M  V30 43484 C 3932.07 -5.59795 -1.24168 0
M  V30 43485 N 3931.56 -6.79363 -1.35788 0
M  V30 43486 N 3933.36 -5.47518 -1.27202 0
M  V30 43487 H 3925.51 -2.05112 0.551628 0
M  V30 43488 H 3927.77 -0.929715 0.185294 0
M  V30 43489 H 3927.48 -3.51565 0.097493 0
M  V30 43490 H 3927.35 -3.39274 -1.64842 0
M  V30 43491 H 3929.74 -2.403 -1.7129 0
M  V30 43492 H 3929.82 -2.55755 0.0478933 0
M  V30 43493 H 3929.46 -5.07584 -0.179129 0
M  V30 43494 H 3929.39 -4.89176 -1.94973 0
M  V30 43495 H 3931.88 -3.63979 -1.01626 0
M  V30 43496 H 3932.2 -7.58706 -1.46918 0
M  V30 43497 H 3930.54 -6.82192 -1.3281 0
M  V30 43498 H 3933.73 -4.53049 -1.17748 0
M  V30 43499 H 3933.91 -6.33043 -1.38424 0
M  V30 43500 N 3927.31 0.546649 -1.47816 0
M  V30 43501 C 3928.26 1.65279 -1.61094 0
M  V30 43502 C 3929.23 1.59788 -0.453559 0
M  V30 43503 O 3930.41 1.78463 -0.674954 0
M  V30 43504 C 3927.55 3.03583 -1.64109 0
M  V30 43505 C 3926.67 3.19433 -2.90838 0
M  V30 43506 C 3925.8 4.48196 -2.8512 0
M  V30 43507 C 3924.84 4.57516 -4.06627 0
M  V30 43508 N 3923.98 5.77648 -3.99083 0
M  V30 43509 H 3928.82 1.53269 -2.55564 0
M  V30 43510 H 3926.35 0.746455 -1.26754 0
M  V30 43511 H 3928.31 3.83683 -1.63839 0
M  V30 43512 H 3926.94 3.14404 -0.731437 0
M  V30 43513 H 3925.99 2.32694 -3.00928 0
M  V30 43514 H 3927.31 3.22182 -3.80789 0
M  V30 43515 H 3926.46 5.36569 -2.83158 0
M  V30 43516 H 3925.2 4.47943 -1.92869 0
M  V30 43517 H 3924.2 3.67553 -4.08882 0
M  V30 43518 H 3925.43 4.59521 -5.00017 0
M  V30 43519 H 3923.38 5.78323 -3.09643 0
M  V30 43520 H 3923.29 5.8182 -4.82723 0
M  V30 43521 H 3924.56 6.68353 -4.01155 0
M  V30 43522 N 3928.79 1.36124 0.794222 0
M  V30 43523 C 3930.04 1.3028 1.55419 0
M  V30 43524 C 3930.37 -0.1191 1.93834 0
M  V30 43525 O 3929.64 -1.07138 1.62332 0
M  V30 43526 C 3929.93 2.22099 2.8345 0
M  V30 43527 C 3929.78 3.72964 2.51432 0
M  V30 43528 C 3931.1 2.12782 3.85242 0
M  V30 43529 H 3928.22 0.474582 0.563863 0
M  V30 43530 H 3930.86 1.66635 0.912848 0
M  V30 43531 H 3929.01 1.91226 3.38179 0
M  V30 43532 H 3930.68 4.14335 2.02792 0
M  V30 43533 H 3928.92 3.92636 1.84444 0
M  V30 43534 H 3929.6 4.32614 3.42855 0
M  V30 43535 H 3932.07 2.39948 3.39948 0
M  V30 43536 H 3930.95 2.79206 4.72584 0
M  V30 43537 H 3931.21 1.11361 4.27845 0
M  V30 43538 N 3930.27 -1.01782 1.20325 0
M  V30 43539 C 3931.22 -2.08675 0.918625 0
M  V30 43540 C 3932.2 -1.60444 -0.12106 0
M  V30 43541 O 3933.39 -1.7679 0.0861461 0
M  V30 43542 C 3930.52 -3.40051 0.471195 0
M  V30 43543 C 3929.61 -3.94986 1.54424 0
M  V30 43544 N 3930 -4.23446 2.76636 0
M  V30 43545 C 3928.3 -4.23121 1.41012 0
M  V30 43546 C 3929 -4.67727 3.45842 0
M  V30 43547 N 3927.97 -4.69929 2.73254 0
M  V30 43548 H 3931.78 -2.28586 1.84731 0
M  V30 43549 H 3929.29 -1.19742 1.09707 0
M  V30 43550 H 3931.29 -4.16158 0.248697 0
M  V30 43551 H 3929.95 -3.21554 -0.45088 0
M  V30 43552 H 3930.96 -4.12389 3.13298 0
M  V30 43553 H 3927.64 -4.1383 0.552354 0
M  V30 43554 H 3929.03 -4.98576 4.50413 0
M  V30 43555 N 3931.75 -1.00894 -1.21071 0
M  V30 43556 C 3932.68 -0.517457 -2.22256 0
M  V30 43557 C 3933.66 0.430969 -1.56785 0
M  V30 43558 O 3934.84 0.352767 -1.8517 0
M  V30 43559 C 3931.97 0.247891 -3.37792 0
M  V30 43560 C 3931.01 -0.64893 -4.21534 0
M  V30 43561 S 3931.85 -2.11364 -4.92022 0
M  V30 43562 C 3933 -1.35824 -6.10985 0
M  V30 43563 H 3933.24 -1.37484 -2.63601 0
M  V30 43564 H 3930.77 -0.8172 -1.31001 0
M  V30 43565 H 3932.73 0.683382 -4.04772 0
M  V30 43566 H 3931.39 1.08074 -2.94922 0
M  V30 43567 H 3930.58 -0.0591969 -5.03965 0
M  V30 43568 H 3930.18 -1.02187 -3.59769 0
M  V30 43569 H 3932.47 -0.634197 -6.74525 0
M  V30 43570 H 3933.42 -2.15841 -6.74402 0
M  V30 43571 H 3933.83 -0.864479 -5.57841 0
M  V30 43572 N 3933.22 1.36705 -0.78418 0
M  V30 43573 C 3934.47 1.98626 -0.350783 0
M  V30 43574 C 3934.79 1.62945 1.08205 0
M  V30 43575 O 3935.99 2.18061 1.61746 0
M  V30 43576 C 3934.45 3.55257 -0.576236 0
M  V30 43577 C 3934.06 3.99868 -2.02015 0
M  V30 43578 C 3935.8 4.23995 -0.207082 0
M  V30 43579 C 3933.71 5.49256 -2.19254 0
M  V30 43580 H 3932.64 0.743156 -0.127416 0
M  V30 43581 H 3935.29 1.56072 -0.965072 0
M  V30 43582 H 3933.67 3.95854 0.107691 0
M  V30 43583 H 3934.84 3.70484 -2.74004 0
M  V30 43584 H 3933.16 3.43951 -2.34705 0
M  V30 43585 H 3935.76 5.33776 -0.314233 0
M  V30 43586 H 3936.1 4.07651 0.844181 0
M  V30 43587 H 3936.63 3.88743 -0.84404 0
M  V30 43588 H 3933.37 5.70541 -3.22744 0
M  V30 43589 H 3932.89 5.80283 -1.51762 0
M  V30 43590 H 3934.57 6.15405 -1.99714 0
M  V30 43591 N 3934.7 0.535753 1.48214 0
M  V30 43592 C 3935.93 0.00798287 2.06898 0
M  V30 43593 C 3936.35 -1.27604 1.3915 0
M  V30 43594 O 3935.7 -1.7605 0.480898 0
M  V30 43595 C 3935.75 -0.213673 3.60868 0
M  V30 43596 O 3935.47 1.01948 4.26073 0
M  V30 43597 C 3936.98 -0.781169 4.36363 0
M  V30 43598 H 3934.2 0.0361215 0.670027 0
M  V30 43599 H 3936.74 0.743045 1.90523 0
M  V30 43600 H 3934.89 -0.8988 3.76829 0
M  V30 43601 H 3935.31 0.803807 5.18304 0
M  V30 43602 H 3936.78 -0.885657 5.44849 0
M  V30 43603 H 3937.26 -1.78744 4.01182 0
M  V30 43604 H 3937.87 -0.132424 4.25094 0
M  V30 43605 N 3936.18 -1.5525 0.271158 0
M  V30 43606 C 3937.09 -2.26033 -0.628206 0
M  V30 43607 C 3938.11 -1.28484 -1.17337 0
M  V30 43608 O 3939.28 -1.61411 -1.2045 0
M  V30 43609 C 3936.35 -2.96457 -1.79761 0
M  V30 43610 C 3935.41 -4.09475 -1.28951 0
M  V30 43611 C 3934.64 -4.76532 -2.40318 0
M  V30 43612 O 3934.86 -4.42779 -3.59588 0
M  V30 43613 O 3933.8 -5.64561 -2.08698 0
M  V30 43614 H 3937.62 -3.0365 -0.0549222 0
M  V30 43615 H 3935.21 -1.4935 0.0387122 0
M  V30 43616 H 3937.09 -3.4073 -2.47954 0
M  V30 43617 H 3935.77 -2.2176 -2.35806 0
M  V30 43618 H 3934.67 -3.69668 -0.574155 0
M  V30 43619 H 3936.01 -4.86063 -0.774859 0
M  V30 43620 N 3937.66 0.00162173 -1.576 0
M  V30 43621 C 3938.61 1.01179 -2.09441 0
M  V30 43622 C 3939.6 1.35696 -1.01405 0
M  V30 43623 O 3940.81 1.34279 -1.19871 0
M  V30 43624 H 3937.18 0.343938 -0.668738 0
M  V30 43625 H 3939.15 0.548982 -2.93307 0
M  V30 43626 C 3937.9 2.29537 -2.61167 0
M  V30 43627 H 3937.22 2.03844 -3.43929 0
M  V30 43628 H 3938.66 2.985 -3.0112 0
M  V30 43629 C 3937.12 3.00405 -1.52507 0
M  V30 43630 O 3937.65 3.91325 -0.907051 0
M  V30 43631 N 3935.86 2.62203 -1.25292 0
M  V30 43632 H 3935.41 1.88348 -1.75735 0
M  V30 43633 H 3935.36 3.09933 -0.528089 0
M  V30 43634 N 3939.14 1.55194 0.274352 0
M  V30 43635 C 3940.39 1.74942 1.00391 0
M  V30 43636 C 3940.7 0.557117 1.87498 0
M  V30 43637 O 3941.9 0.636983 2.63922 0
M  V30 43638 C 3940.36 3.09616 1.83483 0
M  V30 43639 C 3939.97 4.36409 1.01249 0
M  V30 43640 C 3941.71 3.38714 2.55877 0
M  V30 43641 C 3939.62 5.62122 1.83772 0
M  V30 43642 H 3938.55 0.652086 0.378549 0
M  V30 43643 H 3941.2 1.81654 0.259646 0
M  V30 43644 H 3939.58 2.96938 2.62 0
M  V30 43645 H 3940.76 4.59999 0.271589 0
M  V30 43646 H 3939.07 4.14444 0.403162 0
M  V30 43647 H 3941.67 4.29845 3.18021 0
M  V30 43648 H 3942.01 2.58785 3.26092 0
M  V30 43649 H 3942.54 3.52484 1.84391 0
M  V30 43650 H 3939.28 6.44795 1.17981 0
M  V30 43651 H 3938.8 5.42677 2.55464 0
M  V30 43652 H 3940.48 6.00371 2.4117 0
M  V30 43653 N 3940.61 -0.538802 1.48104 0
M  V30 43654 C 3941.56 -1.66519 1.62401 0
M  V30 43655 C 3942.56 -1.62137 0.490698 0
M  V30 43656 O 3943.76 -1.67101 0.669128 0
M  V30 43657 H 3940.14 -0.551316 0.511425 0
M  V30 43658 H 3942.11 -1.51601 2.57021 0
M  V30 43659 C 3940.86 -3.04822 1.6727 0
M  V30 43660 H 3940.18 -3.08883 2.53833 0
M  V30 43661 H 3941.62 -3.83275 1.81319 0
M  V30 43662 C 3940.08 -3.34401 0.409598 0
M  V30 43663 O 3940.61 -3.98805 -0.481363 0
M  V30 43664 N 3938.82 -2.89209 0.283985 0
M  V30 43665 H 3938.36 -2.36975 1.00997 0
M  V30 43666 H 3938.32 -3.0937 -0.560147 0
M  V30 43667 N 3942.09 -1.36544 -0.786992 0
M  V30 43668 C 3943.06 -1.30913 -1.88134 0
M  V30 43669 C 3944.06 -0.21632 -1.59338 0
M  V30 43670 O 3945.25 -0.471251 -1.67705 0
M  V30 43671 C 3942.38 -1.02999 -3.24968 0
M  V30 43672 H 3943.57 -2.2824 -1.94542 0
M  V30 43673 H 3941.12 -1.21352 -0.985062 0
M  V30 43674 H 3941.86 -0.0614067 -3.24242 0
M  V30 43675 H 3941.64 -1.82084 -3.47258 0
M  V30 43676 H 3943.13 -1.01671 -4.05034 0
M  V30 43677 N 3943.57 1.01143 -1.20863 0
M  V30 43678 C 3944.8 1.78947 -1.04846 0
M  V30 43679 C 3945.22 1.83849 0.397644 0
M  V30 43680 O 3944.58 1.27735 1.2866 0
M  V30 43681 C 3944.63 3.21009 -1.64272 0
M  V30 43682 O 3943.73 4.02818 -0.883844 0
M  V30 43683 H 3943.07 0.551747 -0.36942 0
M  V30 43684 H 3945.6 1.27183 -1.60268 0
M  V30 43685 H 3945.61 3.71705 -1.68224 0
M  V30 43686 H 3944.29 3.16756 -2.69515 0
M  V30 43687 H 3942.86 3.614 -0.918929 0
M  V30 43688 N 3945.05 1.01535 1.20534 0
M  V30 43689 C 3946.29 0.714715 1.90429 0
M  V30 43690 C 3946.65 -0.747382 1.77291 0
M  V30 43691 O 3945.94 -1.53585 1.14553 0
M  V30 43692 C 3946.14 1.08364 3.40576 0
M  V30 43693 C 3945.97 2.58005 3.68325 0
M  V30 43694 C 3944.74 3.24769 3.87109 0
M  V30 43695 C 3946.93 3.5619 3.7099 0
M  V30 43696 N 3944.92 4.63653 4.02366 0
M  V30 43697 C 3946.29 4.80631 3.91656 0
M  V30 43698 C 3948.34 3.5018 3.53947 0
M  V30 43699 C 3947.04 5.99789 3.97046 0
M  V30 43700 C 3949.07 4.68739 3.60607 0
M  V30 43701 C 3948.43 5.91988 3.81745 0
M  V30 43702 H 3944.53 0.313181 0.716548 0
M  V30 43703 H 3947.12 1.29992 1.44949 0
M  V30 43704 H 3945.29 0.526786 3.84811 0
M  V30 43705 H 3947.02 0.736669 3.97939 0
M  V30 43706 H 3943.77 2.75197 3.85439 0
M  V30 43707 H 3944.2 5.35758 4.13874 0
M  V30 43708 H 3948.84 2.55889 3.36572 0
M  V30 43709 H 3946.56 6.94462 4.13217 0
M  V30 43710 H 3950.14 4.65703 3.48729 0
M  V30 43711 H 3949.02 6.82195 3.86756 0
M  V30 43712 N 3946.53 -1.36288 0.791419 0
M  V30 43713 C 3947.94 -1.52419 0.473335 0
M  V30 43714 C 3948.14 -1.74474 -1.00802 0
M  V30 43715 O 3947.2 -1.7774 -1.79345 0
M  V30 43716 C 3948.51 -2.70881 1.30552 0
M  V30 43717 C 3950.06 -2.84753 1.29941 0
M  V30 43718 C 3950.53 -4.06221 2.11538 0
M  V30 43719 N 3952.03 -4.13371 2.08994 0
M  V30 43720 C 3952.76 -5.0644 2.68898 0
M  V30 43721 N 3952.26 -6.0494 3.37668 0
M  V30 43722 N 3954.05 -4.99071 2.58621 0
M  V30 43723 H 3946.2 -1.20226 1.75098 0
M  V30 43724 H 3948.46 -0.586977 0.74442 0
M  V30 43725 H 3948.17 -2.61113 2.35612 0
M  V30 43726 H 3948.04 -3.65088 0.948204 0
M  V30 43727 H 3950.43 -2.93981 0.256723 0
M  V30 43728 H 3950.51 -1.91448 1.6965 0
M  V30 43729 H 3950.16 -3.97754 3.15839 0
M  V30 43730 H 3950.09 -4.98678 1.69198 0
M  V30 43731 H 3952.58 -3.42849 1.58944 0
M  V30 43732 H 3952.89 -6.72522 3.80702 0
M  V30 43733 H 3951.23 -6.05159 3.4177 0
M  V30 43734 H 3954.43 -4.2107 2.04494 0
M  V30 43735 H 3954.6 -5.71414 3.05597 0
M  V30 43736 N 3948.01 -0.543606 -1.47928 0
M  V30 43737 C 3949.23 -0.016927 -2.07393 0
M  V30 43738 C 3949.66 1.26115 -1.39559 0
M  V30 43739 O 3949.01 1.75208 -0.466013 0
M  V30 43740 C 3949.06 0.176041 -3.6017 0
M  V30 43741 O 3948.17 1.24171 -3.93263 0
M  V30 43742 H 3947.51 -0.0452243 -0.662458 0
M  V30 43743 H 3950.04 -0.755409 -1.90144 0
M  V30 43744 H 3950.05 0.394483 -4.06088 0
M  V30 43745 H 3948.72 -0.757517 -4.08943 0
M  V30 43746 H 3947.3 1.00484 -3.59106 0
M  V30 43747 N 3949.48 1.55104 -0.279387 0
M  V30 43748 C 3950.73 1.98868 0.336831 0
M  V30 43749 C 3951.05 1.17127 1.56654 0
M  V30 43750 O 3952.25 1.51055 2.25598 0
M  V30 43751 C 3950.71 3.5397 0.650636 0
M  V30 43752 C 3950.32 4.44492 -0.559511 0
M  V30 43753 C 3952.06 4.06313 1.22924 0
M  V30 43754 C 3949.97 5.9099 -0.220056 0
M  V30 43755 H 3948.9 0.742773 0.12963 0
M  V30 43756 H 3951.55 1.79422 -0.384709 0
M  V30 43757 H 3949.93 3.69233 1.43119 0
M  V30 43758 H 3951.1 4.40999 -1.33628 0
M  V30 43759 H 3949.42 4.02807 -1.05526 0
M  V30 43760 H 3952.02 5.13314 1.4971 0
M  V30 43761 H 3952.36 3.55604 2.16452 0
M  V30 43762 H 3952.89 3.94506 0.51088 0
M  V30 43763 H 3949.63 6.45803 -1.12332 0
M  V30 43764 H 3949.15 5.97543 0.519866 0
M  V30 43765 H 3950.83 6.46732 0.186194 0
M  V30 43766 N 3950.96 0.0067362 1.57599 0
M  V30 43767 C 3951.91 -0.991158 2.05329 0
M  V30 43768 C 3952.9 -1.2991 0.949325 0
M  V30 43769 O 3954.09 -1.28896 1.21305 0
M  V30 43770 C 3951.22 -2.28098 2.56567 0
M  V30 43771 C 3950.3 -2.00238 3.73852 0
M  V30 43772 N 3950.69 -1.42562 4.85294 0
M  V30 43773 C 3948.99 -2.30347 3.81912 0
M  V30 43774 C 3949.69 -1.31326 5.66682 0
M  V30 43775 N 3948.67 -1.80118 5.12892 0
M  V30 43776 H 3952.47 -0.539827 2.889 0
M  V30 43777 H 3949.98 -0.198807 1.61179 0
M  V30 43778 H 3951.98 -3.00435 2.8904 0
M  V30 43779 H 3950.64 -2.73877 1.74417 0
M  V30 43780 H 3951.65 -1.10354 5.06006 0
M  V30 43781 H 3948.33 -2.78955 3.10629 0
M  V30 43782 H 3949.72 -0.869185 6.66254 0
M  V30 43783 N 3952.44 -1.55337 -0.266118 0
M  V30 43784 C 3953.39 -1.88688 -1.32911 0
M  V30 43785 C 3954.36 -0.739075 -1.48751 0
M  V30 43786 O 3955.54 -0.99098 -1.63047 0
M  V30 43787 C 3952.68 -2.17031 -2.68313 0
M  V30 43788 C 3951.79 -3.44517 -2.60638 0
M  V30 43789 C 3950.93 -3.62524 -3.88265 0
M  V30 43790 C 3949.97 -4.83678 -3.75129 0
M  V30 43791 N 3949.11 -4.98307 -4.94605 0
M  V30 43792 H 3953.95 -2.79349 -1.03769 0
M  V30 43793 H 3951.48 -1.38299 -0.501181 0
M  V30 43794 H 3953.44 -2.31464 -3.47103 0
M  V30 43795 H 3952.07 -1.29596 -2.95643 0
M  V30 43796 H 3951.12 -3.38518 -1.73521 0
M  V30 43797 H 3952.43 -4.33445 -2.46834 0
M  V30 43798 H 3951.59 -3.76813 -4.75497 0
M  V30 43799 H 3950.33 -2.71794 -4.04944 0
M  V30 43800 H 3949.33 -4.69386 -2.8628 0
M  V30 43801 H 3950.56 -5.7585 -3.59963 0
M  V30 43802 H 3948.5 -4.1051 -5.11681 0
M  V30 43803 H 3948.42 -5.81292 -4.83358 0
M  V30 43804 H 3949.69 -5.16988 -5.8339 0
M  V30 43805 N 3953.92 0.53094 -1.48387 0
M  V30 43806 C 3955.33 0.859388 -1.34487 0
M  V30 43807 C 3955.53 1.98345 -0.355159 0
M  V30 43808 O 3954.59 2.51505 0.223968 0
M  V30 43809 C 3955.9 1.22782 -2.74491 0
M  V30 43810 C 3957.45 1.33776 -2.82972 0
M  V30 43811 C 3957.93 1.73962 -4.23676 0
M  V30 43812 N 3959.42 1.81067 -4.26344 0
M  V30 43813 C 3960.15 2.13544 -5.32153 0
M  V30 43814 N 3959.65 2.44453 -6.4824 0
M  V30 43815 N 3961.44 2.14542 -5.19546 0
M  V30 43816 H 3953.59 -0.21075 -2.11352 0
M  V30 43817 H 3955.85 -0.0316449 -0.947472 0
M  V30 43818 H 3955.56 0.475491 -3.48471 0
M  V30 43819 H 3955.43 2.17818 -3.07953 0
M  V30 43820 H 3957.82 2.08085 -2.09248 0
M  V30 43821 H 3957.9 0.368632 -2.5313 0
M  V30 43822 H 3957.55 1.00214 -4.97915 0
M  V30 43823 H 3957.48 2.71923 -4.5096 0
M  V30 43824 H 3959.97 1.59461 -3.42608 0
M  V30 43825 H 3960.28 2.68337 -7.24717 0
M  V30 43826 H 3958.63 2.41975 -6.51516 0
M  V30 43827 H 3961.82 1.89852 -4.27871 0
M  V30 43828 H 3961.99 2.39522 -6.02107 0
M  V30 43829 N 3955.4 1.36959 0.779739 0
M  V30 43830 C 3956.64 1.31921 1.54028 0
M  V30 43831 C 3956.97 -0.0985344 1.9395 0
M  V30 43832 O 3956.25 -1.0541 1.63459 0
M  V30 43833 C 3956.53 2.25093 2.81079 0
M  V30 43834 C 3956.39 3.75609 2.47462 0
M  V30 43835 C 3957.7 2.16856 3.82964 0
M  V30 43836 H 3954.82 0.480535 0.558798 0
M  V30 43837 H 3957.47 1.67593 0.895122 0
M  V30 43838 H 3955.62 1.94802 3.36132 0
M  V30 43839 H 3957.29 4.16462 1.98386 0
M  V30 43840 H 3955.53 3.9457 1.80269 0
M  V30 43841 H 3956.2 4.36226 3.38247 0
M  V30 43842 H 3958.68 2.4354 3.37383 0
M  V30 43843 H 3957.55 2.84203 4.69596 0
M  V30 43844 H 3957.81 1.15892 4.2664 0
M  V30 43845 N 3956.87 -1.00501 1.21398 0
M  V30 43846 C 3958.1 -1.78388 1.05794 0
M  V30 43847 C 3958.52 -1.84057 -0.387888 0
M  V30 43848 O 3957.88 -1.28415 -1.27981 0
M  V30 43849 C 3957.93 -3.20134 1.65972 0
M  V30 43850 O 3957.03 -4.02343 0.905194 0
M  V30 43851 H 3956.37 -0.54978 0.372341 0
M  V30 43852 H 3958.9 -1.26331 1.6094 0
M  V30 43853 H 3958.91 -3.70808 1.70193 0
M  V30 43854 H 3957.59 -3.15322 2.71191 0
M  V30 43855 H 3956.17 -3.60908 0.938082 0
M  V30 43856 N 3958.35 -1.02172 -1.19994 0
M  V30 43857 C 3959.26 -0.606176 -2.26633 0
M  V30 43858 C 3960.28 0.358716 -1.70262 0
M  V30 43859 O 3961.45 0.218386 -2.00212 0
M  V30 43860 C 3958.52 0.0438487 -3.46672 0
M  V30 43861 C 3957.58 -0.967636 -4.18253 0
M  V30 43862 C 3956.81 -0.348537 -5.32561 0
M  V30 43863 O 3957.04 0.850409 -5.64025 0
M  V30 43864 O 3955.97 -1.06782 -5.92352 0
M  V30 43865 H 3959.8 -1.49412 -2.64405 0
M  V30 43866 H 3957.38 -0.791505 -1.26711 0
M  V30 43867 H 3959.26 0.40664 -4.19433 0
M  V30 43868 H 3957.94 0.905905 -3.10765 0
M  V30 43869 H 3956.84 -1.38189 -3.47642 0
M  V30 43870 H 3958.18 -1.79983 -4.58113 0
M  V30 43871 N 3959.83 1.35866 -0.798635 0
M  V30 43872 C 3961.25 1.52166 -0.481412 0
M  V30 43873 C 3961.45 1.75006 0.998749 0
M  V30 43874 O 3960.5 1.78688 1.784 0
M  V30 43875 C 3961.81 2.70185 -1.31987 0
M  V30 43876 C 3963.36 2.8406 -1.3145 0
M  V30 43877 C 3963.84 4.05094 -2.13689 0
M  V30 43878 N 3965.33 4.12257 -2.11183 0
M  V30 43879 C 3966.06 5.05007 -2.7158 0
M  V30 43880 N 3965.56 6.03141 -3.40871 0
M  V30 43881 N 3967.35 4.97692 -2.61264 0
M  V30 43882 H 3959.5 1.19296 -1.75733 0
M  V30 43883 H 3961.77 0.583021 -0.747523 0
M  V30 43884 H 3961.47 2.5986 -2.36993 0
M  V30 43885 H 3961.35 3.6458 -0.967552 0
M  V30 43886 H 3963.73 2.93841 -0.27231 0
M  V30 43887 H 3963.81 1.90546 -1.70663 0
M  V30 43888 H 3963.46 3.96074 -3.17944 0
M  V30 43889 H 3963.39 4.97773 -1.7184 0
M  V30 43890 H 3965.88 3.42001 -1.6076 0
M  V30 43891 H 3966.19 6.70494 -3.84263 0
M  V30 43892 H 3964.54 6.03338 -3.44975 0
M  V30 43893 H 3967.73 4.19979 -2.06724 0
M  V30 43894 H 3967.9 5.69786 -3.08623 0
M  V30 43895 N 3961.31 0.551443 1.47638 0
M  V30 43896 C 3962.22 -0.202758 2.33722 0
M  V30 43897 C 3963.23 -0.917673 1.47834 0
M  V30 43898 O 3964.41 -0.887853 1.80774 0
M  V30 43899 C 3961.47 -1.22307 3.2441 0
M  V30 43900 C 3960.54 -0.516205 4.26185 0
M  V30 43901 C 3959.77 -1.48791 5.1254 0
M  V30 43902 O 3959.99 -2.7223 5.01246 0
M  V30 43903 O 3958.93 -1.01555 5.93271 0
M  V30 43904 H 3962.75 0.503222 2.99502 0
M  V30 43905 H 3960.34 0.312118 1.46103 0
M  V30 43906 H 3962.22 -1.81218 3.80444 0
M  V30 43907 H 3960.89 -1.91107 2.61265 0
M  V30 43908 H 3959.8 0.113951 3.73926 0
M  V30 43909 H 3961.13 0.130245 4.92028 0
M  V30 43910 N 3962.79 -1.54953 0.287609 0
M  V30 43911 C 3963.75 -2.21703 -0.581426 0
M  V30 43912 C 3964.75 -1.1988 -1.0717 0
M  V30 43913 O 3965.94 -1.44703 -0.969874 0
M  V30 43914 C 3963.07 -2.89285 -1.80353 0
M  V30 43915 H 3964.26 -2.999 0.00156306 0
M  V30 43916 H 3961.82 -1.56253 0.0383228 0
M  V30 43917 H 3962.55 -2.15132 -2.4267 0
M  V30 43918 H 3962.34 -3.63914 -1.45976 0
M  V30 43919 H 3963.83 -3.40244 -2.42123 0
M  V30 43920 N 3964.26 -0.0150939 -1.57593 0
M  V30 43921 C 3965.23 0.956348 -2.08295 0
M  V30 43922 C 3966.23 1.263 -0.995232 0
M  V30 43923 O 3967.42 1.20567 -1.25734 0
M  V30 43924 C 3964.55 2.27697 -2.53706 0
M  V30 43925 H 3965.74 0.517491 -2.95401 0
M  V30 43926 H 3963.3 0.232679 -1.54558 0
M  V30 43927 H 3964.03 2.76241 -1.69887 0
M  V30 43928 H 3963.82 2.06755 -3.33159 0
M  V30 43929 H 3965.31 2.97355 -2.93206 0
M  V30 43930 N 3965.74 1.55476 0.257876 0
M  V30 43931 C 3966.67 1.92403 1.323 0
M  V30 43932 C 3967.65 0.787643 1.50765 0
M  V30 43933 O 3968.84 1.04703 1.63557 0
M  V30 43934 C 3965.97 2.20917 2.6798 0
M  V30 43935 C 3964.92 3.36704 2.64225 0
M  V30 43936 C 3964.25 3.50732 4.03598 0
M  V30 43937 C 3965.55 4.72693 2.22169 0
M  V30 43938 H 3967.24 2.81619 1.01641 0
M  V30 43939 H 3964.79 1.35497 0.487499 0
M  V30 43940 H 3966.74 2.45338 3.42618 0
M  V30 43941 H 3965.47 1.28515 3.00252 0
M  V30 43942 H 3964.12 3.12273 1.92044 0
M  V30 43943 H 3963.77 2.5577 4.33117 0
M  V30 43944 H 3963.47 4.2859 4.01976 0
M  V30 43945 H 3965 3.77463 4.79952 0
M  V30 43946 H 3966.41 4.96559 2.86534 0
M  V30 43947 H 3964.81 5.53574 2.3168 0
M  V30 43948 H 3965.88 4.70494 1.17317 0
M  V30 43949 N 3967.22 -0.523064 1.48667 0
M  V30 43950 C 3968.13 -1.65374 1.66399 0
M  V30 43951 C 3969.15 -1.65195 0.546498 0
M  V30 43952 O 3970.32 -1.8402 0.818445 0
M  V30 43953 C 3967.39 -3.01818 1.70607 0
M  V30 43954 C 3966.45 -3.12798 2.94034 0
M  V30 43955 C 3965.68 -4.42733 2.98032 0
M  V30 43956 O 3965.9 -5.3024 2.10241 0
M  V30 43957 O 3964.84 -4.58224 3.90275 0
M  V30 43958 H 3968.66 -1.5335 2.6214 0
M  V30 43959 H 3966.25 -0.696925 1.32149 0
M  V30 43960 H 3968.13 -3.82953 1.75856 0
M  V30 43961 H 3966.81 -3.14152 0.780401 0
M  V30 43962 H 3965.71 -2.30933 2.94314 0
M  V30 43963 H 3967.05 -3.05383 3.86008 0
M  V30 43964 N 3968.7 -1.37371 -0.772465 0
M  V30 43965 C 3969.61 -1.35267 -1.91677 0
M  V30 43966 C 3970.62 -0.252351 -1.7216 0
M  V30 43967 O 3971.8 -0.487615 -1.95408 0
M  V30 43968 C 3968.87 -1.15797 -3.2679 0
M  V30 43969 C 3967.93 -2.35462 -3.58966 0
M  V30 43970 C 3967.16 -2.16911 -4.87632 0
M  V30 43971 O 3967.38 -1.15301 -5.58625 0
M  V30 43972 O 3966.32 -3.05081 -5.18854 0
M  V30 43973 H 3970.14 -2.31645 -1.96404 0
M  V30 43974 H 3967.73 -1.18093 -0.915115 0
M  V30 43975 H 3969.61 -1.06925 -4.07609 0
M  V30 43976 H 3968.28 -0.224929 -3.22918 0
M  V30 43977 H 3967.19 -2.49906 -2.78385 0
M  V30 43978 H 3968.52 -3.27331 -3.6758 0
M  V30 43979 N 3970.18 0.998553 -1.21929 0
M  V30 43980 C 3971.4 1.7729 -1.06658 0
M  V30 43981 C 3971.82 1.8487 0.383227 0
M  V30 43982 O 3971.18 1.31475 1.26572 0
M  V30 43983 C 3971.23 3.20882 -1.66484 0
M  V30 43984 O 3970.95 3.13723 -3.05793 0
M  V30 43985 C 3972.45 4.14789 -1.56412 0
M  V30 43986 H 3969.67 0.556963 -0.374209 0
M  V30 43987 H 3972.21 1.25576 -1.61403 0
M  V30 43988 H 3970.37 3.69683 -1.15816 0
M  V30 43989 H 3970.78 4.03984 -3.3451 0
M  V30 43990 H 3972.26 5.13316 -2.03004 0
M  V30 43991 H 3972.73 4.36115 -0.519667 0
M  V30 43992 H 3973.34 3.71882 -2.06358 0
M  V30 43993 N 3971.65 1.02807 1.1945 0
M  V30 43994 C 3972.6 0.578771 2.20532 0
M  V30 43995 C 3973.59 -0.372053 1.56539 0
M  V30 43996 O 3974.78 -0.193154 1.75943 0
M  V30 43997 C 3971.91 -0.0698379 3.43229 0
M  V30 43998 C 3971 0.903379 4.14367 0
M  V30 43999 N 3971.39 2.06548 4.61705 0
M  V30 44000 C 3969.68 0.72665 4.40041 0
M  V30 44001 C 3970.39 2.67923 5.16326 0
M  V30 44002 N 3969.36 1.95893 5.07077 0
M  V30 44003 H 3973.16 1.46455 2.5481 0
M  V30 44004 H 3970.68 0.894951 1.35515 0
M  V30 44005 H 3972.67 -0.409338 4.14886 0
M  V30 44006 H 3971.33 -0.951313 3.10451 0
M  V30 44007 H 3972.35 2.44493 4.56556 0
M  V30 44008 H 3969.02 -0.105802 4.17366 0
M  V30 44009 H 3970.41 3.66336 5.63248 0
M  V30 44010 N 3973.13 -1.35441 0.805829 0
M  V30 44011 C 3974.55 -1.51909 0.489475 0
M  V30 44012 C 3974.75 -1.75534 -0.989454 0
M  V30 44013 O 3973.8 -1.79632 -1.7745 0
M  V30 44014 C 3975.12 -2.69481 1.33418 0
M  V30 44015 C 3976.67 -2.83359 1.32954 0
M  V30 44016 C 3977.14 -4.03955 2.15834 0
M  V30 44017 N 3978.63 -4.11131 2.13367 0
M  V30 44018 C 3979.37 -5.0356 2.74254 0
M  V30 44019 N 3978.86 -6.01324 3.44065 0
M  V30 44020 N 3980.66 -4.963 2.639 0
M  V30 44021 H 3972.81 -1.18362 1.76364 0
M  V30 44022 H 3975.07 -0.579049 0.750604 0
M  V30 44023 H 3974.78 -2.58599 2.38368 0
M  V30 44024 H 3974.65 -3.64061 0.986873 0
M  V30 44025 H 3977.04 -2.93692 0.287889 0
M  V30 44026 H 3977.12 -1.89638 1.71671 0
M  V30 44027 H 3976.76 -3.94382 3.2004 0
M  V30 44028 H 3976.69 -4.96855 1.74478 0
M  V30 44029 H 3979.18 -3.41143 1.62572 0
M  V30 44030 H 3979.5 -6.68446 3.87813 0
M  V30 44031 H 3977.84 -6.01501 3.4817 0
M  V30 44032 H 3981.03 -4.18877 2.08949 0
M  V30 44033 H 3981.2 -5.68141 3.11641 0
M  V30 44034 N 3974.61 -0.559265 -1.47343 0
M  V30 44035 C 3975.54 0.175501 -2.3284 0
M  V30 44036 C 3976.52 0.906762 -1.43916 0
M  V30 44037 O 3977.71 0.886824 -1.72769 0
M  V30 44038 C 3974.84 1.20468 -3.25737 0
M  V30 44039 C 3973.79 0.58975 -4.23917 0
M  V30 44040 C 3973.12 1.72371 -5.06154 0
M  V30 44041 C 3974.42 -0.457825 -5.2029 0
M  V30 44042 H 3976.11 -0.538277 -2.94522 0
M  V30 44043 H 3973.66 -0.260307 -1.41628 0
M  V30 44044 H 3975.61 1.72689 -3.84391 0
M  V30 44045 H 3974.33 1.94843 -2.62114 0
M  V30 44046 H 3972.99 0.0888253 -3.66492 0
M  V30 44047 H 3972.64 2.45655 -4.38934 0
M  V30 44048 H 3972.34 1.31803 -5.72627 0
M  V30 44049 H 3973.86 2.24914 -5.67667 0
M  V30 44050 H 3975.28 -0.0216027 -5.73296 0
M  V30 44051 H 3973.68 -0.782505 -5.94976 0
M  V30 44052 H 3974.75 -1.35294 -4.65643 0
M  V30 44053 N 3976.09 1.54799 -0.295822 0
M  V30 44054 C 3977.02 2.26289 0.575823 0
M  V30 44055 C 3978 1.26051 1.14215 0
M  V30 44056 O 3979.18 1.54814 1.17245 0
M  V30 44057 C 3976.31 2.99973 1.75025 0
M  V30 44058 C 3975.27 4.07314 1.31452 0
M  V30 44059 C 3974.59 4.68685 2.57369 0
M  V30 44060 C 3975.89 5.20362 0.449538 0
M  V30 44061 H 3977.59 2.99393 -0.0204323 0
M  V30 44062 H 3975.13 1.43996 -0.0112671 0
M  V30 44063 H 3977.09 3.48704 2.36608 0
M  V30 44064 H 3975.81 2.24438 2.37266 0
M  V30 44065 H 3974.47 3.59425 0.721765 0
M  V30 44066 H 3974.12 3.89795 3.17913 0
M  V30 44067 H 3973.82 5.41175 2.28917 0
M  V30 44068 H 3975.34 5.20176 3.19765 0
M  V30 44069 H 3976.76 5.65019 0.970914 0
M  V30 44070 H 3975.15 5.99541 0.259016 0
M  V30 44071 H 3976.22 4.82032 -0.526649 0
M  V30 44072 N 3977.57 0.0234513 1.57583 0
M  V30 44073 C 3978.5 -0.988924 2.06768 0
M  V30 44074 C 3979.51 -1.29239 0.990002 0
M  V30 44075 O 3980.7 -1.25804 1.26632 0
M  V30 44076 C 3977.8 -2.3178 2.47248 0
M  V30 44077 C 3976.97 -2.20032 3.78027 0
M  V30 44078 C 3976.03 -3.35805 4.05119 0
M  V30 44079 O 3975.06 -3.12944 4.75452 0
M  V30 44080 N 3976.26 -4.59416 3.54848 0
M  V30 44081 H 3979.03 -0.569304 2.94243 0
M  V30 44082 H 3976.59 -0.163433 1.61073 0
M  V30 44083 H 3978.58 -3.08047 2.62468 0
M  V30 44084 H 3977.15 -2.65402 1.65168 0
M  V30 44085 H 3976.37 -1.28528 3.72658 0
M  V30 44086 H 3977.66 -2.0938 4.63721 0
M  V30 44087 H 3977.06 -4.80885 2.97937 0
M  V30 44088 H 3975.61 -5.3287 3.75357 0
M  V30 44089 N 3979.05 -1.5561 -0.249627 0
M  V30 44090 C 3979.98 -1.86533 -1.33185 0
M  V30 44091 C 3980.99 -0.751392 -1.44423 0
M  V30 44092 O 3982.18 -1.02948 -1.45822 0
M  V30 44093 C 3979.28 -2.03403 -2.71073 0
M  V30 44094 C 3978.45 -3.34242 -2.82136 0
M  V30 44095 C 3977.51 -3.40889 -4.00851 0
M  V30 44096 O 3976.54 -4.14117 -3.90507 0
M  V30 44097 N 3977.74 -2.69983 -5.13896 0
M  V30 44098 H 3980.5 -2.7995 -1.06995 0
M  V30 44099 H 3978.07 -1.55814 -0.439732 0
M  V30 44100 H 3980.06 -2.05194 -3.48823 0
M  V30 44101 H 3978.63 -1.16743 -2.89983 0
M  V30 44102 H 3977.85 -3.44791 -1.91083 0
M  V30 44103 H 3979.14 -4.20486 -2.86476 0
M  V30 44104 H 3978.53 -2.10215 -5.25192 0
M  V30 44105 H 3977.09 -2.7747 -5.89791 0
M  V30 44106 N 3980.52 0.515172 -1.48942 0
M  V30 44107 C 3981.77 1.27016 -1.57712 0
M  V30 44108 C 3982.1 1.92788 -0.257518 0
M  V30 44109 O 3981.35 1.80615 0.753449 0
M  V30 44110 C 3981.65 2.37006 -2.67512 0
M  V30 44111 C 3981.32 1.88789 -4.09475 0
M  V30 44112 C 3979.98 1.75357 -4.48111 0
M  V30 44113 C 3982.33 1.52534 -4.9838 0
M  V30 44114 C 3979.66 1.24028 -5.7344 0
M  V30 44115 C 3982.01 1.02662 -6.24214 0
M  V30 44116 C 3980.68 0.878587 -6.61693 0
M  V30 44117 H 3979.95 0.464786 -0.577109 0
M  V30 44118 H 3982.59 0.573247 -1.82719 0
M  V30 44119 H 3980.9 3.12429 -2.36422 0
M  V30 44120 H 3982.6 2.95099 -2.7151 0
M  V30 44121 H 3979.19 2.00198 -3.7897 0
M  V30 44122 H 3983.37 1.61764 -4.69197 0
M  V30 44123 H 3978.63 1.11267 -6.0119 0
M  V30 44124 H 3982.8 0.736848 -6.92491 0
M  V30 44125 H 3980.43 0.478659 -7.58692 0
M  V30 44126 N 3982 1.37779 0.765169 0
M  V30 44127 C 3983.41 1.29814 1.34184 0
M  V30 44128 C 3983.76 -0.0513081 1.96133 0
M  V30 44129 O 3982.89 -0.953239 1.94274 0
M  V30 44130 C 3983.48 2.35082 2.43971 0
M  V30 44131 C 3982.04 2.30731 2.97389 0
M  V30 44132 C 3981.19 2.18562 1.70663 0
M  V30 44133 H 3984.14 1.48305 0.564922 0
M  V30 44134 H 3984.16 2.00129 3.23618 0
M  V30 44135 H 3983.67 3.33285 1.98853 0
M  V30 44136 H 3981.77 1.36073 3.46864 0
M  V30 44137 H 3981.89 3.2441 3.52555 0
M  V30 44138 H 3980.25 1.65218 1.93843 0
M  V30 44139 H 3981.03 3.18689 1.2764 0
M  V30 44140 N 3983.48 -0.992073 1.22457 0
M  V30 44141 C 3984.41 -2.10061 1.01964 0
M  V30 44142 C 3985.39 -1.69995 -0.0596887 0
M  V30 44143 O 3986.58 -1.93928 0.102689 0
M  V30 44144 C 3983.71 -3.42122 0.597503 0
M  V30 44145 C 3982.66 -3.96039 1.62286 0
M  V30 44146 C 3981.99 -5.24158 1.05653 0
M  V30 44147 C 3983.29 -4.2663 3.01304 0
M  V30 44148 H 3984.98 -2.27462 1.94682 0
M  V30 44149 H 3982.53 -1.09307 0.937441 0
M  V30 44150 H 3984.48 -4.19083 0.441248 0
M  V30 44151 H 3983.2 -3.2455 -0.365344 0
M  V30 44152 H 3981.86 -3.2121 1.7669 0
M  V30 44153 H 3981.51 -5.02928 0.0850151 0
M  V30 44154 H 3981.21 -5.61199 1.74154 0
M  V30 44155 H 3982.73 -6.03753 0.91188 0
M  V30 44156 H 3984.15 -4.94386 2.90269 0
M  V30 44157 H 3982.54 -4.74845 3.66936 0
M  V30 44158 H 3983.61 -3.34372 3.51174 0
M  V30 44159 N 3984.96 -1.03439 -1.18904 0
M  V30 44160 C 3986.23 -0.648535 -1.84536 0
M  V30 44161 C 3986.61 0.872411 -1.9223 0
M  V30 44162 O 3985.96 1.77135 -1.44345 0
M  V30 44163 C 3986.17 -1.31703 -3.23195 0
M  V30 44164 C 3987.52 -1.44381 -3.99299 0
M  V30 44165 O 3988.54 -1.27464 -3.32613 0
M  V30 44166 O 3987.4 -1.71889 -5.18764 0
M  V30 44167 H 3984.5 -0.226128 -0.795484 0
M  V30 44168 H 3987.04 -1.13289 -1.26348 0
M  V30 44169 H 3985.82 -2.35549 -3.12462 0
M  V30 44170 H 3985.44 -0.820897 -3.89033 0
M  V30 44171 N 3986.44 1.35011 -0.813001 0
M  V30 44172 C 3987.37 2.32238 -0.242437 0
M  V30 44173 C 3988.35 1.57777 0.635648 0
M  V30 44174 O 3989.53 1.85812 0.564589 0
M  V30 44175 C 3986.66 3.41996 0.604626 0
M  V30 44176 C 3985.62 4.2764 -0.175495 0
M  V30 44177 C 3984.94 5.28777 0.793679 0
M  V30 44178 C 3986.24 5.03791 -1.37811 0
M  V30 44179 H 3987.94 2.80206 -1.05475 0
M  V30 44180 H 3985.48 1.34718 -0.508643 0
M  V30 44181 H 3987.43 4.09021 1.01389 0
M  V30 44182 H 3986.16 2.92653 1.44989 0
M  V30 44183 H 3984.82 3.62204 -0.566012 0
M  V30 44184 H 3984.47 4.75699 1.63462 0
M  V30 44185 H 3984.17 5.86952 0.275982 0
M  V30 44186 H 3985.69 5.98672 1.20101 0
M  V30 44187 H 3987.1 5.63726 -1.04338 0
M  V30 44188 H 3985.5 5.71493 -1.83074 0
M  V30 44189 H 3986.57 4.34061 -2.16146 0
M  V30 44190 N 3987.91 0.567071 1.47044 0
M  V30 44191 C 3988.82 -0.177957 2.33924 0
M  V30 44192 C 3989.84 -0.901941 1.48799 0
M  V30 44193 O 3991.02 -0.86863 1.81705 0
M  V30 44194 C 3988.08 -1.18859 3.25689 0
M  V30 44195 C 3987.14 -0.470974 4.26709 0
M  V30 44196 C 3986.37 -1.43346 5.14089 0
M  V30 44197 O 3986.6 -2.66898 5.04105 0
M  V30 44198 O 3985.53 -0.952569 5.94315 0
M  V30 44199 H 3989.36 0.53496 2.98951 0
M  V30 44200 H 3986.94 0.327597 1.45764 0
M  V30 44201 H 3988.82 -1.77173 3.82345 0
M  V30 44202 H 3987.5 -1.88326 2.63278 0
M  V30 44203 H 3986.41 0.153605 3.73785 0
M  V30 44204 H 3987.74 0.182424 4.91862 0
M  V30 44205 N 3989.39 -1.5464 0.304027 0
M  V30 44206 C 3990.34 -2.23632 -0.570723 0
M  V30 44207 C 3991.31 -1.22 -1.12718 0
M  V30 44208 O 3992.49 -1.50628 -1.17114 0
M  V30 44209 C 3989.63 -2.98299 -1.73527 0
M  V30 44210 C 3988.75 -4.14711 -1.20992 0
M  V30 44211 C 3987.88 -4.76952 -2.33859 0
M  V30 44212 C 3986.92 -5.85503 -1.78473 0
M  V30 44213 N 3986.06 -6.41687 -2.84924 0
M  V30 44214 H 3990.9 -2.9799 0.0242204 0
M  V30 44215 H 3988.43 -1.47081 0.0237229 0
M  V30 44216 H 3990.39 -3.39823 -2.42025 0
M  V30 44217 H 3989.02 -2.26312 -2.3018 0
M  V30 44218 H 3988.07 -3.78106 -0.417114 0
M  V30 44219 H 3989.39 -4.92907 -0.76449 0
M  V30 44220 H 3988.54 -5.21345 -3.10297 0
M  V30 44221 H 3987.28 -3.98095 -2.8173 0
M  V30 44222 H 3986.28 -5.40532 -1.00524 0
M  V30 44223 H 3987.51 -6.66246 -1.31502 0
M  V30 44224 H 3985.46 -5.65712 -3.32123 0
M  V30 44225 H 3985.37 -7.15239 -2.44885 0
M  V30 44226 H 3986.64 -6.90737 -3.61251 0
M  V30 44227 N 3990.87 -0.0318079 -1.57568 0
M  V30 44228 C 3992.12 0.646247 -1.91911 0
M  V30 44229 C 3992.44 1.7198 -0.908462 0
M  V30 44230 O 3991.7 1.95527 0.0822082 0
M  V30 44231 C 3992 1.29846 -3.32979 0
M  V30 44232 C 3991.66 0.355013 -4.495 0
M  V30 44233 C 3990.33 0.0953481 -4.81106 0
M  V30 44234 C 3992.68 -0.292677 -5.20378 0
M  V30 44235 C 3990.01 -0.819769 -5.80945 0
M  V30 44236 C 3992.36 -1.19586 -6.21194 0
M  V30 44237 C 3991.02 -1.46439 -6.51239 0
M  V30 44238 H 3990.29 0.236479 -0.702253 0
M  V30 44239 H 3992.94 -0.0941495 -1.91268 0
M  V30 44240 H 3991.24 2.11367 -3.29896 0
M  V30 44241 H 3992.94 1.8297 -3.56823 0
M  V30 44242 H 3989.53 0.567577 -4.24825 0
M  V30 44243 H 3993.72 -0.105129 -4.96189 0
M  V30 44244 H 3988.97 -1.03549 -6.02567 0
M  V30 44245 H 3993.15 -1.70391 -6.75233 0
M  V30 44246 H 3990.77 -2.17515 -7.28417 0
M  V30 44247 N 3992.35 1.55741 0.241371 0
M  V30 44248 C 3993.28 1.93796 1.30252 0
M  V30 44249 C 3994.26 0.80359 1.49921 0
M  V30 44250 O 3995.44 1.06432 1.62437 0
M  V30 44251 C 3992.57 2.23747 2.65621 0
M  V30 44252 C 3991.53 3.39487 2.60639 0
M  V30 44253 C 3990.85 3.54993 3.99855 0
M  V30 44254 C 3992.15 4.75023 2.17143 0
M  V30 44255 H 3993.85 2.82682 0.986482 0
M  V30 44256 H 3991.39 1.36006 0.473101 0
M  V30 44257 H 3993.35 2.48959 3.39996 0
M  V30 44258 H 3992.07 1.31693 2.98872 0
M  V30 44259 H 3990.73 3.14293 1.88721 0
M  V30 44260 H 3990.38 2.6035 4.3038 0
M  V30 44261 H 3990.08 4.32829 3.97408 0
M  V30 44262 H 3991.6 3.82532 4.75922 0
M  V30 44263 H 3993.02 4.9957 2.81252 0
M  V30 44264 H 3991.41 5.56 2.25795 0
M  V30 44265 H 3992.48 4.71712 1.12321 0
M  V30 44266 N 3993.83 -0.507266 1.49213 0
M  V30 44267 C 3994.79 -1.59176 1.64911 0
M  V30 44268 C 3995.79 -1.52119 0.521203 0
M  V30 44269 O 3996.98 -1.55383 0.787519 0
M  V30 44270 C 3994.11 -2.98825 1.64062 0
M  V30 44271 H 3995.3 -1.46588 2.61633 0
M  V30 44272 H 3992.86 -0.731038 1.3815 0
M  V30 44273 H 3993.59 -3.16896 0.689012 0
M  V30 44274 H 3993.38 -3.05356 2.45968 0
M  V30 44275 H 3994.87 -3.7763 1.78285 0
M  V30 44276 N 3995.3 -1.38182 -0.757851 0
M  V30 44277 C 3996.55 -1.35361 -1.51819 0
M  V30 44278 C 3996.91 0.0574241 -1.92314 0
M  V30 44279 O 3996.2 1.01913 -1.62247 0
M  V30 44280 C 3996.39 -2.23938 -2.78544 0
M  V30 44281 C 3996.22 -3.73512 -2.50437 0
M  V30 44282 C 3994.99 -4.42556 -2.43869 0
M  V30 44283 C 3997.19 -4.66046 -2.17499 0
M  V30 44284 N 3995.17 -5.77592 -2.07993 0
M  V30 44285 C 3996.54 -5.89562 -1.91878 0
M  V30 44286 C 3998.6 -4.54292 -2.03772 0
M  V30 44287 C 3997.3 -7.0264 -1.53915 0
M  V30 44288 C 3999.33 -5.67269 -1.67211 0
M  V30 44289 C 3998.69 -6.89844 -1.42459 0
M  V30 44290 H 3994.79 -0.550603 -0.555302 0
M  V30 44291 H 3997.37 -1.73531 -0.882892 0
M  V30 44292 H 3995.54 -1.87962 -3.3989 0
M  V30 44293 H 3997.27 -2.12273 -3.44561 0
M  V30 44294 H 3994.03 -3.95721 -2.60196 0
M  V30 44295 H 3994.45 -6.48992 -1.92712 0
M  V30 44296 H 3999.1 -3.60083 -2.21586 0
M  V30 44297 H 3996.81 -7.96771 -1.34842 0
M  V30 44298 H 4000.4 -5.60152 -1.57228 0
M  V30 44299 H 3999.28 -7.75783 -1.14589 0
M  V30 44300 N 3996.78 0.985565 -1.22981 0
M  V30 44301 C 3997.71 2.09517 -1.03077 0
M  V30 44302 C 3998.69 1.70025 0.0506726 0
M  V30 44303 O 3999.88 1.93871 -0.112972 0
M  V30 44304 C 3997.01 3.418 -0.615638 0
M  V30 44305 C 3995.96 3.95173 -1.64384 0
M  V30 44306 C 3995.29 5.2359 -1.08432 0
M  V30 44307 C 3996.59 4.25026 -3.03562 0
M  V30 44308 H 3998.28 2.26427 -1.95886 0
M  V30 44309 H 3995.83 1.08808 -0.943225 0
M  V30 44310 H 3997.78 4.18844 -0.463467 0
M  V30 44311 H 3996.51 3.24739 0.348128 0
M  V30 44312 H 3995.16 3.20269 -1.78391 0
M  V30 44313 H 3994.81 5.02876 -0.111685 0
M  V30 44314 H 3994.51 5.60267 -1.77128 0
M  V30 44315 H 3996.04 6.0326 -0.943886 0
M  V30 44316 H 3997.45 4.92839 -2.92886 0
M  V30 44317 H 3995.85 4.72892 -3.69449 0
M  V30 44318 H 3996.92 3.32505 -3.52943 0
M  V30 44319 N 3998.26 1.04068 1.18353 0
M  V30 44320 C 3999.49 0.764094 1.92274 0
M  V30 44321 C 3999.9 -0.678747 1.76177 0
M  V30 44322 O 3999.26 -1.46267 1.09143 0
M  V30 44323 C 3999.31 1.12089 3.43684 0
M  V30 44324 O 3999.03 2.50708 3.59273 0
M  V30 44325 C 4000.53 0.868802 4.34703 0
M  V30 44326 H 3997.75 0.27866 0.610401 0
M  V30 44327 H 4000.3 1.38835 1.5015 0
M  V30 44328 H 3998.45 0.541595 3.83595 0
M  V30 44329 H 3998.87 2.64365 4.53002 0
M  V30 44330 H 4000.34 1.1683 5.39495 0
M  V30 44331 H 4000.82 -0.196424 4.38761 0
M  V30 44332 H 4001.42 1.43139 4.00489 0
M  V30 44333 N 3999.74 -1.34578 0.820149 0
M  V30 44334 C 4000.65 -2.33349 0.241954 0
M  V30 44335 C 4001.66 -1.62495 -0.6222 0
M  V30 44336 O 4002.84 -1.94281 -0.530753 0
M  V30 44337 C 3999.91 -3.41662 -0.588884 0
M  V30 44338 C 3998.97 -4.28269 0.297345 0
M  V30 44339 C 3998.2 -5.31409 -0.493934 0
M  V30 44340 O 3998.42 -5.43613 -1.72746 0
M  V30 44341 O 3997.36 -6.01776 0.122288 0
M  V30 44342 H 4001.18 -2.84624 1.05939 0
M  V30 44343 H 3998.77 -1.37588 0.582229 0
M  V30 44344 H 4000.65 -4.07807 -1.06166 0
M  V30 44345 H 3999.32 -2.92636 -1.38369 0
M  V30 44346 H 3998.23 -3.65057 0.817559 0
M  V30 44347 H 3999.56 -4.80729 1.05643 0
M  V30 44348 N 4001.22 -0.574861 -1.46742 0
M  V30 44349 C 4002.18 0.152592 -2.28691 0
M  V30 44350 C 4003.18 0.826214 -1.37951 0
M  V30 44351 O 4004.37 0.67937 -1.60406 0
M  V30 44352 C 4001.5 1.2252 -3.18122 0
M  V30 44353 H 4002.69 -0.567491 -2.94482 0
M  V30 44354 H 4000.25 -0.332507 -1.52722 0
M  V30 44355 H 4000.98 1.97711 -2.57062 0
M  V30 44356 H 4000.77 0.746773 -3.84923 0
M  V30 44357 H 4002.26 1.73563 -3.79823 0
M  V30 44358 N 4002.69 1.54476 -0.312224 0
M  V30 44359 C 4003.6 2.27619 0.568056 0
M  V30 44360 C 4004.62 1.31549 1.13889 0
M  V30 44361 O 4005.8 1.64548 1.16129 0
M  V30 44362 C 4002.86 3.01119 1.71838 0
M  V30 44363 C 4001.92 4.1275 1.18049 0
M  V30 44364 C 4001.16 4.82737 2.27599 0
M  V30 44365 O 4001.38 4.52157 3.47722 0
M  V30 44366 O 4000.31 5.69895 1.93657 0
M  V30 44367 H 4004.14 3.03689 -0.0256046 0
M  V30 44368 H 4001.72 1.49195 -0.078296 0
M  V30 44369 H 4003.61 3.47184 2.38833 0
M  V30 44370 H 4002.28 2.27934 2.29843 0
M  V30 44371 H 4001.19 3.7106 0.475942 0
M  V30 44372 H 4002.52 4.87946 0.645716 0
M  V30 44373 N 4004.17 0.0401637 1.57549 0
M  V30 44374 C 4005.4 -0.645951 1.96558 0
M  V30 44375 C 4005.82 -1.65024 0.917199 0
M  V30 44376 O 4005.17 -1.82227 -0.0998075 0
M  V30 44377 C 4005.22 -1.3426 3.35643 0
M  V30 44378 O 4004.94 -0.378539 4.36462 0
M  V30 44379 C 4006.45 -2.1195 3.89348 0
M  V30 44380 H 4003.67 -0.177368 0.647133 0
M  V30 44381 H 4006.21 0.103203 2.04239 0
M  V30 44382 H 4004.36 -2.04307 3.29147 0
M  V30 44383 H 4004.78 -0.874501 5.17158 0
M  V30 44384 H 4006.25 -2.56132 4.88979 0
M  V30 44385 H 4006.73 -2.96313 3.24184 0
M  V30 44386 H 4007.34 -1.46838 3.99148 0
M  V30 44387 N 4005.65 -1.55866 -0.233109 0
M  V30 44388 C 4006.88 -1.82413 -0.976383 0
M  V30 44389 C 4007.29 -0.617755 -1.78407 0
M  V30 44390 O 4006.65 0.413678 -1.7775 0
M  V30 44391 C 4006.7 -3.07343 -1.90323 0
M  V30 44392 O 4006.42 -4.23324 -1.1282 0
M  V30 44393 C 4007.92 -3.46791 -2.76136 0
M  V30 44394 H 4005.14 -0.606671 -0.286689 0
M  V30 44395 H 4007.69 -2.02944 -0.251827 0
M  V30 44396 H 4005.84 -2.88821 -2.58188 0
M  V30 44397 H 4006.26 -4.9422 -1.75634 0
M  V30 44398 H 4007.73 -4.37272 -3.36893 0
M  V30 44399 H 4008.21 -2.68009 -3.47948 0
M  V30 44400 H 4008.81 -3.67711 -2.13702 0
M  V30 44401 N 4007.13 0.499346 -1.4948 0
M  V30 44402 C 4008.09 1.58299 -1.65753 0
M  V30 44403 C 4009.09 1.5184 -0.529263 0
M  V30 44404 O 4010.28 1.54963 -0.795748 0
M  V30 44405 C 4007.41 2.97951 -1.65644 0
M  V30 44406 H 4008.61 1.45199 -2.62407 0
M  V30 44407 H 4006.16 0.723701 -1.38536 0
M  V30 44408 H 4006.9 3.16526 -0.705808 0
M  V30 44409 H 4006.68 3.04047 -2.47584 0
M  V30 44410 H 4008.17 3.76679 -1.80285 0
M  V30 44411 N 4008.61 1.38582 0.750513 0
M  V30 44412 C 4009.56 1.36179 1.88568 0
M  V30 44413 C 4010.55 0.247205 1.67587 0
M  V30 44414 O 4011.76 0.416408 1.75117 0
M  V30 44415 H 4008.13 0.424892 0.62046 0
M  V30 44416 H 4010.1 2.31963 1.87712 0
M  V30 44417 C 4008.85 1.20679 3.26086 0
M  V30 44418 H 4008.17 2.05707 3.42819 0
M  V30 44419 H 4009.61 1.23052 4.05752 0
M  V30 44420 C 4008.07 -0.0860597 3.3679 0
M  V30 44421 O 4008.6 -1.06196 3.87408 0
M  V30 44422 N 4006.81 -0.143926 2.90243 0
M  V30 44423 H 4006.36 0.650912 2.49241 0
M  V30 44424 H 4006.31 -1.00852 2.97786 0
M  V30 44425 N 4010.09 -0.979029 1.23502 0
M  V30 44426 C 4011.33 -1.72305 1.06952 0
M  V30 44427 C 4011.66 -1.90193 -0.392458 0
M  V30 44428 O 4010.94 -1.4552 -1.29051 0
M  V30 44429 C 4011.22 -3.12052 1.7971 0
M  V30 44430 C 4011.08 -3.01726 3.33589 0
M  V30 44431 C 4012.39 -4.11498 1.56069 0
M  V30 44432 H 4009.51 -0.6254 0.389928 0
M  V30 44433 H 4012.16 -1.13968 1.52024 0
M  V30 44434 H 4010.31 -3.61856 1.41396 0
M  V30 44435 H 4011.98 -2.59436 3.81432 0
M  V30 44436 H 4010.22 -2.382 3.62551 0
M  V30 44437 H 4010.89 -4.00676 3.79688 0
M  V30 44438 H 4013.37 -3.70508 1.89376 0
M  V30 44439 H 4012.24 -5.07367 2.09451 0
M  V30 44440 H 4012.5 -4.39305 0.496353 0
M  V30 44441 N 4011.56 -1.04695 -1.178 0
M  V30 44442 C 4012.49 -0.664488 -2.23846 0
M  V30 44443 C 4013.47 0.335327 -1.66762 0
M  V30 44444 O 4014.66 0.214029 -1.93017 0
M  V30 44445 C 4011.79 -0.0332197 -3.47284 0
M  V30 44446 C 4010.74 -0.957254 -4.17158 0
M  V30 44447 C 4010.07 -0.190127 -5.34362 0
M  V30 44448 C 4011.37 -2.27918 -4.69947 0
M  V30 44449 H 4013.06 -1.55103 -2.56093 0
M  V30 44450 H 4010.61 -0.747218 -1.23096 0
M  V30 44451 H 4012.56 0.246104 -4.20681 0
M  V30 44452 H 4011.29 0.888239 -3.14289 0
M  V30 44453 H 4009.95 -1.22106 -3.45667 0
M  V30 44454 H 4009.59 0.733937 -4.97617 0
M  V30 44455 H 4009.29 -0.805787 -5.82049 0
M  V30 44456 H 4010.82 0.0820299 -6.10545 0
M  V30 44457 H 4012.23 -2.06012 -5.35006 0
M  V30 44458 H 4010.63 -2.84837 -5.28193 0
M  V30 44459 H 4011.7 -2.92127 -3.87027 0
M  V30 44460 N 4013.04 1.34141 -0.827275 0
M  V30 44461 C 4013.97 2.28239 -0.209703 0
M  V30 44462 C 4014.99 1.51224 0.602919 0
M  V30 44463 O 4016.18 1.73196 0.431887 0
M  V30 44464 C 4013.28 3.3107 0.724287 0
M  V30 44465 C 4012.45 4.37375 -0.0464581 0
M  V30 44466 C 4011.51 5.19942 0.809116 0
M  V30 44467 O 4010.53 5.6864 0.252519 0
M  V30 44468 N 4011.74 5.40079 2.12826 0
M  V30 44469 H 4014.5 2.81876 -1.01815 0
M  V30 44470 H 4012.06 1.46711 -0.684643 0
M  V30 44471 H 4014.05 3.83206 1.30136 0
M  V30 44472 H 4012.62 2.77796 1.43347 0
M  V30 44473 H 4011.84 3.85896 -0.804861 0
M  V30 44474 H 4013.13 5.05519 -0.576864 0
M  V30 44475 H 4012.53 5.02196 2.60414 0
M  V30 44476 H 4011.09 5.95316 2.65408 0
M  V30 44477 N 4014.52 0.582635 1.46435 0
M  V30 44478 C 4015.8 0.00132605 1.956 0
M  V30 44479 C 4016.18 -1.45939 1.52529 0
M  V30 44480 O 4015.52 -2.14922 0.775949 0
M  V30 44481 C 4015.73 0.173305 3.48569 0
M  V30 44482 C 4017.08 0.0410919 4.2458 0
M  V30 44483 O 4018.11 0.102137 3.56054 0
M  V30 44484 O 4016.97 -0.0946603 5.46418 0
M  V30 44485 H 4014.06 -0.0498561 0.825496 0
M  V30 44486 H 4016.61 0.650948 1.56719 0
M  V30 44487 H 4015.38 1.18877 3.72806 0
M  V30 44488 H 4015 -0.512752 3.9428 0
M  V30 44489 N 4016 -1.54309 0.320412 0
M  V30 44490 C 4016.96 -2.22886 -0.534268 0
M  V30 44491 C 4017.96 -1.22126 -1.04603 0
M  V30 44492 O 4019.15 -1.46728 -0.938962 0
M  V30 44493 C 4016.28 -2.93045 -1.74176 0
M  V30 44494 H 4017.48 -2.99829 0.0651759 0
M  V30 44495 H 4015.03 -1.56137 0.0714577 0
M  V30 44496 H 4015.76 -2.20231 -2.38052 0
M  V30 44497 H 4015.55 -3.66928 -1.38224 0
M  V30 44498 H 4017.04 -3.45304 -2.34851 0
M  V30 44499 N 4017.48 -0.0485183 -1.57525 0
M  V30 44500 C 4018.7 0.635518 -1.96898 0
M  V30 44501 C 4019.12 1.64535 -0.925938 0
M  V30 44502 O 4018.48 1.82277 0.0901422 0
M  V30 44503 C 4018.53 1.32478 -3.36351 0
M  V30 44504 O 4018.25 0.355387 -4.36656 0
M  V30 44505 C 4019.75 2.09883 -3.90467 0
M  V30 44506 H 4016.97 0.173933 -0.648065 0
M  V30 44507 H 4019.51 -0.114033 -2.04182 0
M  V30 44508 H 4017.67 2.02558 -3.30226 0
M  V30 44509 H 4018.08 0.847062 -5.17615 0
M  V30 44510 H 4019.56 2.53535 -4.90331 0
M  V30 44511 H 4020.03 2.9459 -3.2575 0
M  V30 44512 H 4020.64 1.44719 -3.99921 0
M  V30 44513 N 4018.95 1.55988 0.224839 0
M  V30 44514 C 4020.37 1.48906 0.574389 0
M  V30 44515 C 4020.57 0.742993 1.87302 0
M  V30 44516 O 4019.63 0.281314 2.50928 0
M  V30 44517 C 4020.94 2.93442 0.656666 0
M  V30 44518 C 4022.49 3.03943 0.747514 0
M  V30 44519 C 4022.96 4.49831 0.861164 0
M  V30 44520 N 4024.45 4.5386 0.92547 0
M  V30 44521 C 4025.19 5.64017 1.03306 0
M  V30 44522 N 4024.68 6.83934 1.1048 0
M  V30 44523 N 4026.48 5.51862 1.06794 0
M  V30 44524 H 4018.63 2.02923 -0.627374 0
M  V30 44525 H 4020.89 0.922198 -0.219672 0
M  V30 44526 H 4020.6 3.50961 -0.227907 0
M  V30 44527 H 4020.47 3.45159 1.52136 0
M  V30 44528 H 4022.86 2.46491 1.62253 0
M  V30 44529 H 4022.94 2.55401 -0.142782 0
M  V30 44530 H 4022.58 5.07899 -0.0093805 0
M  V30 44531 H 4022.51 4.96075 1.76683 0
M  V30 44532 H 4025 3.675 0.880476 0
M  V30 44533 H 4025.32 7.63636 1.18658 0
M  V30 44534 H 4023.66 6.86652 1.07399 0
M  V30 44535 H 4026.85 4.57107 1.00852 0
M  V30 44536 H 4027.03 6.37744 1.14833 0
M  V30 44537 N 4020.43 -0.491412 1.49743 0
M  V30 44538 C 4021.38 -1.59186 1.67118 0
M  V30 44539 C 4022.35 -1.57994 0.512551 0
M  V30 44540 O 4023.53 -1.75835 0.740724 0
M  V30 44541 C 4020.67 -2.97283 1.75263 0
M  V30 44542 C 4019.79 -3.08418 3.02493 0
M  V30 44543 C 4018.92 -4.37306 3.01558 0
M  V30 44544 C 4017.96 -4.42109 4.23327 0
M  V30 44545 N 4017.1 -5.62438 4.20247 0
M  V30 44546 H 4021.94 -1.43678 2.61076 0
M  V30 44547 H 4019.47 -0.698897 1.29437 0
M  V30 44548 H 4021.43 -3.77338 1.77966 0
M  V30 44549 H 4020.06 -3.11473 0.847622 0
M  V30 44550 H 4019.11 -2.21365 3.09357 0
M  V30 44551 H 4020.43 -3.07827 3.92484 0
M  V30 44552 H 4019.58 -5.2569 3.02877 0
M  V30 44553 H 4018.32 -4.40476 2.09362 0
M  V30 44554 H 4017.32 -3.52125 4.22242 0
M  V30 44555 H 4018.55 -4.40647 5.16727 0
M  V30 44556 H 4016.5 -5.66432 3.30894 0
M  V30 44557 H 4016.41 -5.63503 5.03984 0
M  V30 44558 H 4017.68 -6.53004 4.25684 0
M  V30 44559 N 4021.91 -1.38978 -0.743153 0
M  V30 44560 C 4022.82 -1.39302 -1.88765 0
M  V30 44561 C 4023.84 -0.288812 -1.71586 0
M  V30 44562 O 4025.01 -0.528954 -1.9433 0
M  V30 44563 C 4022.08 -1.22703 -3.2426 0
M  V30 44564 C 4021.14 -2.43023 -3.5389 0
M  V30 44565 C 4020.37 -2.27206 -4.82921 0
M  V30 44566 O 4020.59 -1.27124 -5.56054 0
M  V30 44567 O 4019.53 -3.16018 -5.12266 0
M  V30 44568 H 4023.35 -2.35759 -1.91446 0
M  V30 44569 H 4020.94 -1.20008 -0.88986 0
M  V30 44570 H 4022.82 -1.15547 -4.05249 0
M  V30 44571 H 4021.5 -0.293374 -3.22368 0
M  V30 44572 H 4020.4 -2.55754 -2.73021 0
M  V30 44573 H 4021.74 -3.35054 -3.60554 0
M  V30 44574 N 4023.39 0.972465 -1.2402 0
M  V30 44575 C 4024.8 1.24019 -1.00456 0
M  V30 44576 C 4025 1.99409 0.289533 0
M  V30 44577 O 4024.06 2.31554 1.00692 0
M  V30 44578 C 4025.37 2.03199 -2.21655 0
M  V30 44579 C 4026.92 2.16308 -2.26229 0
M  V30 44580 C 4027.4 2.98882 -3.47036 0
M  V30 44581 N 4028.89 3.06465 -3.47323 0
M  V30 44582 C 4029.62 3.70701 -4.37456 0
M  V30 44583 N 4029.12 4.36696 -5.37837 0
M  V30 44584 N 4030.91 3.67666 -4.2518 0
M  V30 44585 H 4023.06 0.467631 -2.07188 0
M  V30 44586 H 4025.33 0.269251 -0.90896 0
M  V30 44587 H 4025.03 1.55185 -3.15611 0
M  V30 44588 H 4024.91 3.03939 -2.23386 0
M  V30 44589 H 4027.29 2.63526 -1.32807 0
M  V30 44590 H 4027.37 1.14932 -2.28527 0
M  V30 44591 H 4027.02 2.52358 -4.40769 0
M  V30 44592 H 4026.95 4.00446 -3.41981 0
M  V30 44593 H 4029.44 2.59516 -2.74699 0
M  V30 44594 H 4029.75 4.83514 -6.02855 0
M  V30 44595 H 4028.1 4.35379 -5.41729 0
M  V30 44596 H 4031.29 3.15283 -3.45998 0
M  V30 44597 H 4031.46 4.17445 -4.95624 0
M  V30 44598 N 4024.87 1.05318 1.17243 0
M  V30 44599 C 4025.8 0.676349 2.2349 0
M  V30 44600 C 4026.78 -0.326478 1.66938 0
M  V30 44601 O 4027.96 -0.203789 1.93128 0
M  V30 44602 C 4025.09 0.0516366 3.47262 0
M  V30 44603 C 4024.05 0.979363 4.16644 0
M  V30 44604 C 4023.37 0.218463 5.34254 0
M  V30 44605 C 4024.67 2.30407 4.68732 0
M  V30 44606 H 4026.37 1.56459 2.55266 0
M  V30 44607 H 4023.91 0.753736 1.22698 0
M  V30 44608 H 4025.87 -0.223791 4.20805 0
M  V30 44609 H 4024.59 -0.871559 3.14756 0
M  V30 44610 H 4023.25 1.23938 3.45015 0
M  V30 44611 H 4022.9 -0.707537 4.97999 0
M  V30 44612 H 4022.6 0.836643 5.81613 0
M  V30 44613 H 4024.12 -0.0496501 6.1058 0
M  V30 44614 H 4025.53 2.08847 5.33906 0
M  V30 44615 H 4023.93 2.87634 5.26675 0
M  V30 44616 H 4025 2.94176 3.85472 0
M  V30 44617 N 4026.34 -1.33701 0.834377 0
M  V30 44618 C 4027.27 -2.31823 0.279354 0
M  V30 44619 C 4028.26 -1.58768 -0.610467 0
M  V30 44620 O 4029.44 -1.86687 -0.534956 0
M  V30 44621 C 4026.57 -3.42915 -0.550141 0
M  V30 44622 C 4025.52 -4.27307 0.243507 0
M  V30 44623 C 4024.85 -5.29972 -0.709454 0
M  V30 44624 C 4026.15 -5.01535 1.45808 0
M  V30 44625 H 4027.84 -2.78492 1.0992 0
M  V30 44626 H 4025.39 -1.33891 0.530011 0
M  V30 44627 H 4027.34 -4.10582 -0.948692 0
M  V30 44628 H 4026.07 -2.94923 -1.40315 0
M  V30 44629 H 4024.73 -3.61258 0.623564 0
M  V30 44630 H 4024.37 -4.78239 -1.55874 0
M  V30 44631 H 4024.07 -5.87316 -0.182568 0
M  V30 44632 H 4025.6 -6.00507 -1.10562 0
M  V30 44633 H 4027.01 -5.61994 1.13293 0
M  V30 44634 H 4025.41 -5.68508 1.92143 0
M  V30 44635 H 4026.48 -4.30568 2.23024 0
M  V30 44636 N 4027.82 -0.590393 -1.46124 0
M  V30 44637 C 4028.73 0.14072 -2.34178 0
M  V30 44638 C 4029.75 0.878155 -1.50215 0
M  V30 44639 O 4030.92 0.839612 -1.83064 0
M  V30 44640 C 4027.99 1.13663 -3.27539 0
M  V30 44641 C 4027.05 0.403028 -4.27404 0
M  V30 44642 C 4026.28 1.35149 -5.16304 0
M  V30 44643 O 4026.51 2.58844 -5.08287 0
M  V30 44644 O 4025.44 0.857898 -5.95755 0
M  V30 44645 H 4029.27 -0.582453 -2.98062 0
M  V30 44646 H 4026.85 -0.350745 -1.45224 0
M  V30 44647 H 4028.73 1.71068 -3.85115 0
M  V30 44648 H 4027.41 1.84113 -2.6624 0
M  V30 44649 H 4026.32 -0.213051 -3.73493 0
M  V30 44650 H 4027.65 -0.260652 -4.91509 0
M  V30 44651 N 4029.3 1.54136 -0.328591 0
M  V30 44652 C 4030.58 1.92847 0.326992 0
M  V30 44653 C 4030.96 1.2587 1.69469 0
M  V30 44654 O 4030.31 0.404212 2.24896 0
M  V30 44655 C 4030.52 3.46533 0.4142 0
M  V30 44656 C 4031.86 4.19247 0.672116 0
M  V30 44657 O 4032.89 3.52717 0.49692 0
M  V30 44658 O 4031.75 5.37078 1.01044 0
M  V30 44659 H 4028.84 0.805417 0.187702 0
M  V30 44660 H 4031.39 1.65421 -0.378674 0
M  V30 44661 H 4030.16 3.87469 -0.546178 0
M  V30 44662 H 4029.78 3.8008 1.16725 0
M  V30 44663 N 4030.78 0.0568716 1.57497 0
M  V30 44664 C 4032 -0.628555 1.97646 0
M  V30 44665 C 4032.43 -1.63247 0.934452 0
M  V30 44666 O 4031.79 -1.81015 -0.101674 0
M  V30 44667 C 4031.83 -1.28684 3.36857 0
M  V30 44668 O 4030.94 -2.40258 3.35186 0
M  V30 44669 H 4030.28 -0.162929 0.6437 0
M  V30 44670 H 4032.81 0.126962 2.04206 0
M  V30 44671 H 4032.82 -1.63719 3.73711 0
M  V30 44672 H 4031.49 -0.551131 4.12232 0
M  V30 44673 H 4030.07 -2.07128 3.10085 0
M  V30 44674 N 4032.26 -1.56105 -0.216564 0
M  V30 44675 C 4033.2 -1.92821 -1.26841 0
M  V30 44676 C 4034.17 -0.786024 -1.46325 0
M  V30 44677 O 4035.36 -1.04235 -1.59811 0
M  V30 44678 C 4032.5 -2.25457 -2.61272 0
M  V30 44679 C 4031.61 -3.52634 -2.49546 0
M  V30 44680 C 4030.75 -3.74693 -3.76535 0
M  V30 44681 C 4029.79 -4.95368 -3.59551 0
M  V30 44682 N 4028.92 -5.13791 -4.78501 0
M  V30 44683 H 4033.76 -2.82509 -0.948291 0
M  V30 44684 H 4031.3 -1.39823 -0.456928 0
M  V30 44685 H 4033.26 -2.4239 -3.39563 0
M  V30 44686 H 4031.89 -1.38936 -2.9137 0
M  V30 44687 H 4030.94 -3.43867 -1.62664 0
M  V30 44688 H 4032.25 -4.41078 -2.3292 0
M  V30 44689 H 4031.41 -3.91749 -4.63268 0
M  V30 44690 H 4030.14 -2.84539 -3.96092 0
M  V30 44691 H 4029.15 -4.78257 -2.71202 0
M  V30 44692 H 4030.37 -5.87011 -3.4146 0
M  V30 44693 H 4028.32 -4.2658 -4.98362 0
M  V30 44694 H 4028.24 -5.96376 -4.6462 0
M  V30 44695 H 4029.51 -5.35287 -5.66647 0
M  V30 44696 N 4033.73 0.483463 -1.50001 0
M  V30 44697 C 4034.98 1.23398 -1.60054 0
M  V30 44698 C 4035.3 1.92722 -0.297193 0
M  V30 44699 O 4034.57 1.83549 0.684597 0
M  V30 44700 H 4033.15 0.458466 -0.589761 0
M  V30 44701 H 4035.82 0.558803 -1.86717 0
M  V30 44702 H 4034.91 1.98854 -2.40548 0
M  V30 44703 N 4035.21 1.39371 0.735772 0
M  V30 44704 C 4036.46 1.36754 1.49753 0
M  V30 44705 C 4036.79 -0.0367809 1.94165 0
M  V30 44706 O 4036.07 -1.00156 1.6673 0
M  V30 44707 C 4036.35 2.33921 2.73775 0
M  V30 44708 C 4036.2 3.83292 2.35387 0
M  V30 44709 C 4037.52 2.2893 3.75871 0
M  V30 44710 H 4034.64 0.49807 0.543227 0
M  V30 44711 H 4037.28 1.70356 0.841351 0
M  V30 44712 H 4035.43 2.05397 3.29764 0
M  V30 44713 H 4037.1 4.22563 1.85036 0
M  V30 44714 H 4035.35 4.00105 1.67625 0
M  V30 44715 H 4036.02 4.46766 3.24198 0
M  V30 44716 H 4038.49 2.5415 3.29465 0
M  V30 44717 H 4037.37 2.98999 4.60316 0
M  V30 44718 H 4037.63 1.29407 4.22737 0
M  V30 44719 N 4036.69 -0.965875 1.24534 0
M  V30 44720 C 4037.64 -2.06075 1.03932 0
M  V30 44721 C 4038.61 -1.66031 -0.0479705 0
M  V30 44722 O 4039.79 -1.905 0.107012 0
M  V30 44723 C 4036.93 -3.38882 0.652143 0
M  V30 44724 C 4036.05 -3.9211 1.81311 0
M  V30 44725 C 4035.18 -5.13194 1.37134 0
M  V30 44726 C 4034.22 -5.58623 2.50213 0
M  V30 44727 N 4033.36 -6.70925 2.06891 0
M  V30 44728 H 4038.2 -2.2303 1.9764 0
M  V30 44729 H 4035.73 -1.09309 0.984376 0
M  V30 44730 H 4037.69 -4.15193 0.408681 0
M  V30 44731 H 4036.32 -3.21846 -0.247939 0
M  V30 44732 H 4035.37 -3.12421 2.17019 0
M  V30 44733 H 4036.69 -4.21783 2.66271 0
M  V30 44734 H 4035.84 -5.96885 1.08686 0
M  V30 44735 H 4034.58 -4.85209 0.4923 0
M  V30 44736 H 4033.58 -4.73503 2.79419 0
M  V30 44737 H 4034.81 -5.88621 3.38677 0
M  V30 44738 H 4032.76 -6.44671 1.21388 0
M  V30 44739 H 4032.67 -7.00057 2.85404 0
M  V30 44740 H 4033.94 -7.58054 1.81589 0
M  V30 44741 N 4038.17 -1.05938 -1.16683 0
M  V30 44742 C 4039.08 -0.677971 -2.2459 0
M  V30 44743 C 4040.1 0.304367 -1.71317 0
M  V30 44744 O 4041.27 0.15458 -2.00806 0
M  V30 44745 C 4038.34 -0.0664646 -3.46636 0
M  V30 44746 C 4037.4 -1.10021 -4.14962 0
M  V30 44747 C 4036.63 -0.51779 -5.31182 0
M  V30 44748 O 4036.85 0.670538 -5.66445 0
M  V30 44749 O 4035.79 -1.25573 -5.88655 0
M  V30 44750 H 4039.61 -1.57748 -2.59517 0
M  V30 44751 H 4037.2 -0.831417 -1.24128 0
M  V30 44752 H 4039.08 0.272995 -4.20515 0
M  V30 44753 H 4037.76 0.806579 -3.1349 0
M  V30 44754 H 4036.66 -1.49179 -3.43069 0
M  V30 44755 H 4038 -1.94466 -4.52155 0
M  V30 44756 N 4039.65 1.33256 -0.841456 0
M  V30 44757 C 4040.58 2.31672 -0.291644 0
M  V30 44758 C 4041.56 1.5909 0.602038 0
M  V30 44759 O 4042.74 1.86968 0.525048 0
M  V30 44760 C 4039.87 3.43202 0.531947 0
M  V30 44761 C 4038.83 4.27172 -0.266165 0
M  V30 44762 C 4038.15 5.30341 0.681339 0
M  V30 44763 C 4039.45 5.00755 -1.48466 0
M  V30 44764 H 4041.15 2.77906 -1.11395 0
M  V30 44765 H 4038.69 1.33608 -0.537104 0
M  V30 44766 H 4040.65 4.1108 0.926905 0
M  V30 44767 H 4039.37 2.95663 1.38749 0
M  V30 44768 H 4038.03 3.60922 -0.642714 0
M  V30 44769 H 4037.68 4.79059 1.53335 0
M  V30 44770 H 4037.38 5.87405 0.151419 0
M  V30 44771 H 4038.9 6.01085 1.07376 0
M  V30 44772 H 4040.32 5.61386 -1.16272 0
M  V30 44773 H 4038.71 5.67481 -1.95155 0
M  V30 44774 H 4039.78 4.29379 -2.25304 0
M  V30 44775 N 4041.13 0.598134 1.45809 0
M  V30 44776 C 4042.06 -0.174893 2.27529 0
M  V30 44777 C 4043.04 -0.882522 1.36566 0
M  V30 44778 O 4044.22 -0.893303 1.65989 0
M  V30 44779 C 4041.35 -1.25227 3.147 0
M  V30 44780 C 4040.39 -0.648803 4.21536 0
M  V30 44781 S 4041.23 0.536124 5.3281 0
M  V30 44782 C 4042.38 -0.542073 6.23548 0
M  V30 44783 H 4042.62 0.518456 2.92744 0
M  V30 44784 H 4040.15 0.385408 1.49512 0
M  V30 44785 H 4042.11 -1.86903 3.65483 0
M  V30 44786 H 4040.77 -1.91764 2.48768 0
M  V30 44787 H 4039.96 -1.45913 4.82416 0
M  V30 44788 H 4039.56 -0.107381 3.73846 0
M  V30 44789 H 4041.85 -1.42368 6.62373 0
M  V30 44790 H 4042.8 0.0303383 7.08094 0
M  V30 44791 H 4043.21 -0.853152 5.58016 0
M  V30 44792 N 4042.6 -1.5396 0.33676 0
M  V30 44793 C 4043.55 -2.24793 -0.523159 0
M  V30 44794 C 4044.52 -1.24363 -1.10104 0
M  V30 44795 O 4045.71 -1.53079 -1.13893 0
M  V30 44796 C 4042.85 -3.01913 -1.67161 0
M  V30 44797 C 4041.96 -4.17184 -1.12169 0
M  V30 44798 C 4041.09 -4.81806 -2.23689 0
M  V30 44799 C 4040.13 -5.89157 -1.66013 0
M  V30 44800 N 4039.27 -6.47587 -2.71249 0
M  V30 44801 H 4044.11 -2.97872 0.087423 0
M  V30 44802 H 4041.65 -1.46997 0.0549156 0
M  V30 44803 H 4043.6 -3.4488 -2.34762 0
M  V30 44804 H 4042.23 -2.31143 -2.25328 0
M  V30 44805 H 4041.29 -3.78906 -0.336818 0
M  V30 44806 H 4042.6 -4.94417 -0.659765 0
M  V30 44807 H 4041.75 -5.27809 -2.99169 0
M  V30 44808 H 4040.49 -4.03981 -2.73222 0
M  V30 44809 H 4039.5 -5.42543 -0.890362 0
M  V30 44810 H 4040.72 -6.68886 -1.1734 0
M  V30 44811 H 4038.67 -5.7263 -3.20049 0
M  V30 44812 H 4038.58 -7.20273 -2.29659 0
M  V30 44813 H 4039.85 -6.98245 -3.46518 0
M  V30 44814 N 4044.08 -0.0652232 -1.57465 0
M  V30 44815 C 4045.01 0.933756 -2.09317 0
M  V30 44816 C 4046.03 1.26569 -1.02392 0
M  V30 44817 O 4047.22 1.22402 -1.29923 0
M  V30 44818 C 4044.32 2.25143 -2.53306 0
M  V30 44819 C 4043.49 2.09932 -3.83728 0
M  V30 44820 C 4042.55 3.24946 -4.1388 0
M  V30 44821 O 4041.57 3.00228 -4.83582 0
M  V30 44822 N 4042.78 4.49846 -3.66904 0
M  V30 44823 H 4045.54 0.49109 -2.95649 0
M  V30 44824 H 4043.1 0.12067 -1.6145 0
M  V30 44825 H 4045.09 3.00979 -2.70543 0
M  V30 44826 H 4043.66 2.6093 -1.72146 0
M  V30 44827 H 4042.88 1.18602 -3.75935 0
M  V30 44828 H 4044.17 1.97012 -4.69109 0
M  V30 44829 H 4043.57 4.72817 -3.10582 0
M  V30 44830 H 4042.13 5.22731 -3.89353 0
M  V30 44831 N 4045.56 1.56218 0.208282 0
M  V30 44832 C 4046.81 1.81017 0.927596 0
M  V30 44833 C 4047.16 0.640268 1.81434 0
M  V30 44834 O 4046.45 -0.365146 1.88088 0
M  V30 44835 C 4046.65 3.09348 1.78993 0
M  V30 44836 C 4046.48 4.38709 0.988165 0
M  V30 44837 C 4045.25 5.00733 0.677814 0
M  V30 44838 C 4047.44 5.13127 0.347128 0
M  V30 44839 N 4045.43 6.13731 -0.143968 0
M  V30 44840 C 4046.8 6.19081 -0.337445 0
M  V30 44841 C 4048.85 4.97213 0.261509 0
M  V30 44842 C 4047.56 7.10848 -1.09946 0
M  V30 44843 C 4049.58 5.89391 -0.487077 0
M  V30 44844 C 4048.94 6.94781 -1.16014 0
M  V30 44845 H 4045.04 0.713861 0.319259 0
M  V30 44846 H 4047.63 1.93697 0.197372 0
M  V30 44847 H 4045.8 2.97927 2.49187 0
M  V30 44848 H 4047.53 3.22286 2.44773 0
M  V30 44849 H 4044.28 4.62943 0.999058 0
M  V30 44850 H 4044.71 6.7481 -0.544083 0
M  V30 44851 H 4049.35 4.15775 0.767527 0
M  V30 44852 H 4047.07 7.91758 -1.61696 0
M  V30 44853 H 4050.65 5.79152 -0.554505 0
M  V30 44854 H 4049.53 7.64877 -1.73013 0
M  V30 44855 N 4047.04 -0.475502 1.50256 0
M  V30 44856 C 4047.97 -1.59141 1.64945 0
M  V30 44857 C 4048.98 -1.53894 0.531092 0
M  V30 44858 O 4050.17 -1.59362 0.804112 0
M  V30 44859 C 4047.27 -2.98011 1.61378 0
M  V30 44860 C 4046.44 -3.28174 2.89172 0
M  V30 44861 C 4045.5 -4.46577 2.78308 0
M  V30 44862 O 4044.53 -4.47102 3.52262 0
M  V30 44863 N 4045.73 -5.4798 1.91566 0
M  V30 44864 H 4048.5 -1.46958 2.61196 0
M  V30 44865 H 4046.06 -0.663843 1.47664 0
M  V30 44866 H 4048.05 -3.75181 1.51728 0
M  V30 44867 H 4046.62 -3.03986 0.728798 0
M  V30 44868 H 4045.84 -2.39658 3.12982 0
M  V30 44869 H 4047.13 -3.45135 3.73844 0
M  V30 44870 H 4046.53 -5.50374 1.30787 0
M  V30 44871 H 4045.08 -6.24152 1.87824 0
M  V30 44872 N 4048.52 -1.39759 -0.72837 0
M  V30 44873 C 4049.79 -1.27849 -1.48034 0
M  V30 44874 C 4050.17 0.108958 -2.10819 0
M  V30 44875 O 4049.52 1.12074 -1.99127 0
M  V30 44876 C 4049.73 -2.40778 -2.5264 0
M  V30 44877 C 4051.08 -2.80409 -3.18835 0
M  V30 44878 O 4052.1 -2.40277 -2.62955 0
M  V30 44879 O 4050.96 -3.49703 -4.19964 0
M  V30 44880 H 4048.06 -0.501386 -0.657679 0
M  V30 44881 H 4050.6 -1.51648 -0.761632 0
M  V30 44882 H 4049.37 -3.33504 -2.04672 0
M  V30 44883 H 4049 -2.18679 -3.32062 0
M  V30 44884 N 4049.99 0.959257 -1.25044 0
M  V30 44885 C 4050.92 2.07284 -1.07498 0
M  V30 44886 C 4051.9 1.70094 0.0145965 0
M  V30 44887 O 4053.09 1.93588 -0.154069 0
M  V30 44888 C 4050.22 3.40417 -0.688 0
M  V30 44889 C 4049.17 3.91597 -1.72729 0
M  V30 44890 C 4048.5 5.21172 -1.19513 0
M  V30 44891 C 4049.8 4.18492 -3.12509 0
M  V30 44892 H 4051.49 2.22221 -2.00645 0
M  V30 44893 H 4049.04 1.06783 -0.966093 0
M  V30 44894 H 4050.99 4.17766 -0.552206 0
M  V30 44895 H 4049.72 3.25405 0.279167 0
M  V30 44896 H 4048.38 3.16413 -1.85145 0
M  V30 44897 H 4048.02 5.02526 -0.218328 0
M  V30 44898 H 4047.72 5.56384 -1.88972 0
M  V30 44899 H 4049.25 6.01123 -1.07163 0
M  V30 44900 H 4050.66 4.86516 -3.03274 0
M  V30 44901 H 4049.06 4.64949 -3.79397 0
M  V30 44902 H 4050.13 3.24944 -3.59916 0
M  V30 44903 N 4051.47 1.06556 1.16119 0
M  V30 44904 C 4052.4 0.636656 2.2018 0
M  V30 44905 C 4053.42 -0.306703 1.59885 0
M  V30 44906 O 4054.61 -0.0972787 1.78235 0
M  V30 44907 C 4051.71 -0.0864945 3.3879 0
M  V30 44908 C 4050.88 0.871016 4.2864 0
M  V30 44909 C 4049.94 0.186631 5.25869 0
M  V30 44910 O 4048.96 0.825127 5.63188 0
M  V30 44911 N 4050.17 -1.0708 5.70538 0
M  V30 44912 H 4052.93 1.5318 2.57597 0
M  V30 44913 H 4050.49 0.949208 1.31155 0
M  V30 44914 H 4052.48 -0.554811 4.00879 0
M  V30 44915 H 4051.05 -0.883472 2.99856 0
M  V30 44916 H 4050.27 1.51864 3.63773 0
M  V30 44917 H 4051.56 1.52049 4.8555 0
M  V30 44918 H 4050.96 -1.60963 5.42317 0
M  V30 44919 H 4049.52 -1.48294 6.34706 0
M  V30 44920 N 4052.95 -1.32808 0.848511 0
M  V30 44921 C 4054.2 -1.97072 0.448004 0
M  V30 44922 C 4054.52 -1.67506 -0.998328 0
M  V30 44923 O 4053.79 -0.97904 -1.69681 0
M  V30 44924 H 4052.37 -0.729072 0.162676 0
M  V30 44925 H 4055.03 -1.62001 1.08359 0
M  V30 44926 H 4054.13 -3.06511 0.587992 0
M  V30 44927 N 4054.43 -0.605858 -1.45489 0
M  V30 44928 C 4055.34 0.115874 -2.34314 0
M  V30 44929 C 4056.35 0.862173 -1.51138 0
M  V30 44930 O 4057.53 0.820149 -1.83944 0
M  V30 44931 C 4054.6 1.10183 -3.28726 0
M  V30 44932 C 4053.66 0.357674 -4.27807 0
M  V30 44933 C 4052.89 1.29666 -5.17709 0
M  V30 44934 O 4053.11 2.53439 -5.11004 0
M  V30 44935 O 4052.05 0.794662 -5.96631 0
M  V30 44936 H 4055.87 -0.614034 -2.97428 0
M  V30 44937 H 4053.46 -0.366129 -1.44844 0
M  V30 44938 H 4055.34 1.66973 -3.86908 0
M  V30 44939 H 4054.01 1.81279 -2.68178 0
M  V30 44940 H 4052.92 -0.252653 -3.73246 0
M  V30 44941 H 4054.25 -0.312768 -4.91205 0
M  V30 44942 N 4055.91 1.53779 -0.34492 0
M  V30 44943 C 4057.16 2.00117 0.252181 0
M  V30 44944 C 4057.47 1.23666 1.51546 0
M  V30 44945 O 4058.67 1.60488 2.18988 0
M  V30 44946 C 4057.13 3.56411 0.49992 0
M  V30 44947 C 4056.74 4.41719 -0.747532 0
M  V30 44948 C 4058.48 4.11161 1.05581 0
M  V30 44949 C 4056.39 5.89525 -0.470517 0
M  V30 44950 H 4055.32 0.747603 0.0980102 0
M  V30 44951 H 4057.97 1.77629 -0.460462 0
M  V30 44952 H 4056.35 3.74971 1.2733 0
M  V30 44953 H 4057.53 4.34935 -1.52212 0
M  V30 44954 H 4055.84 3.97969 -1.22515 0
M  V30 44955 H 4058.44 5.19202 1.27804 0
M  V30 44956 H 4058.78 3.64465 2.01174 0
M  V30 44957 H 4059.31 3.96318 0.343097 0
M  V30 44958 H 4056.05 6.40458 -1.39621 0
M  V30 44959 H 4055.57 5.9921 0.26596 0
M  V30 44960 H 4057.25 6.4694 -0.0882744 0
M  V30 44961 N 4057.38 0.0735731 1.57428 0
M  V30 44962 C 4058.29 -0.907737 2.16327 0
M  V30 44963 C 4059.31 -1.32577 1.12691 0
M  V30 44964 O 4060.49 -1.39811 1.44965 0
M  V30 44965 C 4057.55 -2.15649 2.71471 0
M  V30 44966 C 4056.61 -1.7947 3.89986 0
M  V30 44967 C 4055.85 -2.98392 4.42491 0
M  V30 44968 O 4056.07 -4.12464 3.93992 0
M  V30 44969 O 4055 -2.78105 5.33799 0
M  V30 44970 H 4058.83 -0.436719 3.00544 0
M  V30 44971 H 4056.41 -0.149596 1.48649 0
M  V30 44972 H 4058.3 -2.88873 3.06807 0
M  V30 44973 H 4056.97 -2.61845 1.90313 0
M  V30 44974 H 4055.88 -1.03492 3.595 0
M  V30 44975 H 4057.21 -1.38055 4.72442 0
M  V30 44976 N 4058.86 -1.56326 -0.199995 0
M  V30 44977 C 4059.83 -1.93304 -1.23151 0
M  V30 44978 C 4060.83 -0.813665 -1.38694 0
M  V30 44979 O 4062.02 -1.08115 -1.3659 0
M  V30 44980 C 4059.15 -2.20279 -2.60173 0
M  V30 44981 H 4060.34 -2.85583 -0.915566 0
M  V30 44982 H 4057.89 -1.4994 -0.441314 0
M  V30 44983 H 4058.63 -1.30622 -2.96831 0
M  V30 44984 H 4058.41 -3.01845 -2.50264 0
M  V30 44985 H 4059.9 -2.49909 -3.34567 0
M  V30 44986 N 4060.34 0.467527 -1.50506 0
M  V30 44987 C 4061.29 1.56277 -1.66017 0
M  V30 44988 C 4062.27 1.52446 -0.514697 0
M  V30 44989 O 4063.47 1.59409 -0.769266 0
M  V30 44990 C 4060.6 2.94697 -1.76093 0
M  V30 44991 C 4059.68 3.03398 -2.96328 0
M  V30 44992 N 4060.07 2.81906 -4.19955 0
M  V30 44993 C 4058.37 3.34537 -2.94959 0
M  V30 44994 C 4059.07 2.95667 -5.00955 0
M  V30 44995 N 4058.05 3.26023 -4.34982 0
M  V30 44996 H 4061.85 1.38365 -2.59292 0
M  V30 44997 H 4059.36 0.674321 -1.47739 0
M  V30 44998 H 4061.36 3.73451 -1.8531 0
M  V30 44999 H 4060.02 3.13652 -0.839789 0
M  V30 45000 H 4061.03 2.57418 -4.49395 0
M  V30 45001 H 4057.71 3.59458 -2.12359 0
M  V30 45002 H 4059.1 2.8326 -6.09273 0
M  V30 45003 N 4061.82 1.40143 0.720948 0
M  V30 45004 C 4063.05 1.41434 1.5101 0
M  V30 45005 C 4063.46 0.0125848 1.88796 0
M  V30 45006 O 4062.82 -0.96219 1.55075 0
M  V30 45007 C 4062.87 2.30015 2.78882 0
M  V30 45008 O 4062.59 3.64733 2.42696 0
M  V30 45009 C 4064.09 2.3984 3.72816 0
M  V30 45010 H 4061.31 0.48259 0.466205 0
M  V30 45011 H 4063.86 1.8413 0.889745 0
M  V30 45012 H 4062.01 1.90695 3.37215 0
M  V30 45013 H 4062.42 4.11723 3.24938 0
M  V30 45014 H 4063.9 3.0604 4.59395 0
M  V30 45015 H 4064.38 1.42181 4.15549 0
M  V30 45016 H 4064.98 2.79689 3.20397 0
M  V30 45017 N 4063.3 -0.952612 1.25551 0
M  V30 45018 C 4064.57 -1.67392 1.01189 0
M  V30 45019 C 4064.95 -2.05999 -0.461255 0
M  V30 45020 O 4064.3 -1.77492 -1.43906 0
M  V30 45021 C 4064.51 -2.89469 1.94959 0
M  V30 45022 C 4065.86 -3.61376 2.22918 0
M  V30 45023 O 4066.88 -2.99554 1.92733 0
M  V30 45024 O 4065.74 -4.72702 2.74254 0
M  V30 45025 H 4062.84 -0.732503 0.383887 0
M  V30 45026 H 4065.38 -1.00536 1.36714 0
M  V30 45027 H 4064.15 -2.57745 2.9442 0
M  V30 45028 H 4063.78 -3.64055 1.59843 0
M  V30 45029 N 4064.77 -1.0717 -1.15553 0
M  V30 45030 C 4066.02 -0.794927 -1.86571 0
M  V30 45031 C 4066.35 0.677244 -1.82008 0
M  V30 45032 O 4065.63 1.49688 -1.24192 0
M  V30 45033 C 4065.91 -1.30143 -3.3576 0
M  V30 45034 C 4065.76 -2.83802 -3.48965 0
M  V30 45035 C 4067.08 -0.916478 -4.30452 0
M  V30 45036 H 4064.2 -0.290242 -0.677443 0
M  V30 45037 H 4066.84 -1.32916 -1.35769 0
M  V30 45038 H 4064.99 -0.846982 -3.79155 0
M  V30 45039 H 4066.67 -3.37522 -3.14446 0
M  V30 45040 H 4064.91 -3.22092 -2.90585 0
M  V30 45041 H 4065.58 -3.1431 -4.53777 0
M  V30 45042 H 4068.06 -1.30804 -3.95006 0
M  V30 45043 H 4066.93 -1.29824 -5.33326 0
M  V30 45044 H 4067.19 0.177772 -4.41742 0
M  V30 45045 N 4066.25 1.32356 -0.855542 0
M  V30 45046 C 4067.48 2.0112 -0.47268 0
M  V30 45047 C 4067.89 1.64457 0.935439 0
M  V30 45048 O 4067.23 0.86232 1.62203 0
M  V30 45049 C 4067.3 3.55526 -0.533087 0
M  V30 45050 C 4066.96 4.15619 -1.90026 0
M  V30 45051 C 4067.96 4.33781 -2.86583 0
M  V30 45052 C 4065.64 4.51673 -2.19764 0
M  V30 45053 C 4067.64 4.87167 -4.11031 0
M  V30 45054 C 4065.32 5.04764 -3.44465 0
M  V30 45055 C 4066.32 5.2246 -4.39914 0
M  V30 45056 O 4066.01 5.74416 -5.62407 0
M  V30 45057 H 4065.74 0.650446 -0.184109 0
M  V30 45058 H 4068.3 1.6989 -1.1544 0
M  V30 45059 H 4066.53 3.86154 0.205493 0
M  V30 45060 H 4068.21 4.05562 -0.165702 0
M  V30 45061 H 4068.98 4.06259 -2.64913 0
M  V30 45062 H 4064.86 4.37185 -1.46255 0
M  V30 45063 H 4068.4 5.00895 -4.85541 0
M  V30 45064 H 4064.3 5.31719 -3.65985 0
M  V30 45065 H 4065.07 5.92807 -5.64377 0
M  V30 45066 N 4067.73 0.613565 1.45166 0
M  V30 45067 C 4068.68 -0.123308 2.27666 0
M  V30 45068 C 4069.67 -0.832908 1.37664 0
M  V30 45069 O 4070.86 -0.721912 1.61609 0
M  V30 45070 C 4067.99 -1.11604 3.24653 0
M  V30 45071 C 4067.07 -0.406971 4.22143 0
M  V30 45072 N 4067.46 0.554711 5.02749 0
M  V30 45073 C 4065.76 -0.653742 4.41183 0
M  V30 45074 C 4066.46 0.97204 5.73521 0
M  V30 45075 N 4065.44 0.31452 5.42689 0
M  V30 45076 H 4069.24 0.615225 2.87389 0
M  V30 45077 H 4066.75 0.437695 1.56391 0
M  V30 45078 H 4068.75 -1.65839 3.82496 0
M  V30 45079 H 4067.41 -1.85506 2.66491 0
M  V30 45080 H 4068.42 0.931734 5.0945 0
M  V30 45081 H 4065.1 -1.37698 3.94139 0
M  V30 45082 H 4066.49 1.76555 6.48289 0
M  V30 45083 N 4069.21 -1.53594 0.353071 0
M  V30 45084 C 4070.16 -2.26838 -0.514529 0
M  V30 45085 C 4071.15 -1.2934 -1.09396 0
M  V30 45086 O 4072.36 -1.47014 -1.0386 0
M  V30 45087 H 4068.73 -0.728983 -0.184629 0
M  V30 45088 H 4070.7 -2.98138 0.125134 0
M  V30 45089 C 4069.45 -3.06121 -1.64879 0
M  V30 45090 H 4068.78 -3.8098 -1.21221 0
M  V30 45091 H 4070.22 -3.60569 -2.23082 0
M  V30 45092 C 4068.67 -2.16197 -2.58381 0
M  V30 45093 O 4069.2 -1.7644 -3.60877 0
M  V30 45094 N 4067.41 -1.81083 -2.27283 0
M  V30 45095 H 4066.96 -2.13612 -1.43971 0
M  V30 45096 H 4066.92 -1.21199 -2.901 0
M  V30 45097 N 4070.69 -0.0819208 -1.57387 0
M  V30 45098 C 4071.62 0.879086 -2.1632 0
M  V30 45099 C 4072.6 1.3034 -1.09295 0
M  V30 45100 O 4073.78 1.37265 -1.37375 0
M  V30 45101 C 4070.91 2.14304 -2.73297 0
M  V30 45102 C 4069.87 1.85778 -3.85578 0
M  V30 45103 C 4069.19 3.1889 -4.29201 0
M  V30 45104 C 4070.49 1.15508 -5.09367 0
M  V30 45105 H 4072.19 0.388114 -2.96874 0
M  V30 45106 H 4069.73 0.18524 -1.42804 0
M  V30 45107 H 4071.69 2.81958 -3.13173 0
M  V30 45108 H 4070.41 2.65661 -1.89979 0
M  V30 45109 H 4069.07 1.20526 -3.46221 0
M  V30 45110 H 4068.72 3.68108 -3.42791 0
M  V30 45111 H 4068.42 3.00591 -5.04895 0
M  V30 45112 H 4069.94 3.87725 -4.71701 0
M  V30 45113 H 4071.36 1.73249 -5.46496 0
M  V30 45114 H 4069.75 1.07433 -5.90405 0
M  V30 45115 H 4070.82 0.135736 -4.8471 0
M  V30 45116 N 4072.17 1.5643 0.191702 0
M  V30 45117 C 4073.44 1.71661 0.937653 0
M  V30 45118 C 4073.82 0.637656 2.01239 0
M  V30 45119 O 4073.17 -0.350825 2.25791 0
M  V30 45120 C 4073.38 3.14113 1.52098 0
M  V30 45121 C 4074.73 3.74451 2.0018 0
M  V30 45122 O 4075.75 3.17263 1.61934 0
M  V30 45123 O 4074.61 4.74822 2.70567 0
M  V30 45124 H 4071.71 0.700267 0.439949 0
M  V30 45125 H 4074.25 1.68731 0.181131 0
M  V30 45126 H 4073.02 3.84114 0.746458 0
M  V30 45127 H 4072.65 3.21286 2.34225 0
M  V30 45128 N 4073.64 -0.459538 1.50751 0
M  V30 45129 C 4074.55 -1.58168 1.73263 0
M  V30 45130 C 4075.57 -1.62729 0.616071 0
M  V30 45131 O 4076.75 -1.80383 0.895758 0
M  V30 45132 C 4073.81 -2.94311 1.83254 0
M  V30 45133 C 4072.87 -3.00046 3.07036 0
M  V30 45134 C 4072.1 -4.29694 3.16541 0
M  V30 45135 O 4072.33 -5.20846 2.32541 0
M  V30 45136 O 4071.26 -4.41259 4.09358 0
M  V30 45137 H 4075.09 -1.42093 2.68409 0
M  V30 45138 H 4072.67 -0.640249 1.34986 0
M  V30 45139 H 4074.55 -3.75149 1.9194 0
M  V30 45140 H 4073.23 -3.10559 0.912941 0
M  V30 45141 H 4072.14 -2.18242 3.03844 0
M  V30 45142 H 4073.47 -2.88736 3.98613 0
M  V30 45143 N 4075.12 -1.40523 -0.713506 0
M  V30 45144 C 4076.07 -1.41131 -1.84892 0
M  V30 45145 C 4077.06 -0.291551 -1.66872 0
M  V30 45146 O 4078.27 -0.462691 -1.73952 0
M  V30 45147 H 4074.64 -0.441193 -0.608977 0
M  V30 45148 H 4076.62 -2.36858 -1.81495 0
M  V30 45149 C 4075.36 -1.29282 -3.22772 0
M  V30 45150 H 4074.69 -2.14724 -3.37244 0
M  V30 45151 H 4076.13 -1.33766 -4.02346 0
M  V30 45152 C 4074.59 -0.00326447 -3.369 0
M  V30 45153 O 4075.12 0.958874 -3.90088 0
M  V30 45154 N 4073.32 0.0669222 -2.90523 0
M  V30 45155 H 4072.87 -0.716765 -2.47427 0
M  V30 45156 H 4072.83 0.929209 -3.00355 0
M  V30 45157 N 4076.6 0.94594 -1.26054 0
M  V30 45158 C 4077.82 1.73138 -1.14184 0
M  V30 45159 C 4078.25 1.85698 0.299631 0
M  V30 45160 O 4077.61 1.34375 1.21708 0
M  V30 45161 C 4077.66 3.1185 -1.81057 0
M  V30 45162 O 4076.76 3.97566 -1.09613 0
M  V30 45163 H 4076.1 0.53139 -0.398147 0
M  V30 45164 H 4078.63 1.18508 -1.66784 0
M  V30 45165 H 4078.64 3.62265 -1.87691 0
M  V30 45166 H 4077.32 3.02025 -2.85927 0
M  V30 45167 H 4075.89 3.56021 -1.10921 0
M  V30 45168 N 4078.08 1.07781 1.14983 0
M  V30 45169 C 4079.01 0.659973 2.19493 0
M  V30 45170 C 4080.02 -0.289728 1.60201 0
M  V30 45171 O 4081.21 -0.0783691 1.78328 0
M  V30 45172 C 4078.31 -0.0505565 3.38862 0
M  V30 45173 C 4077.48 0.91643 4.27692 0
M  V30 45174 C 4076.54 0.242396 5.25641 0
M  V30 45175 O 4075.57 0.884814 5.62281 0
M  V30 45176 N 4076.77 -1.01023 5.71642 0
M  V30 45177 H 4079.54 1.55903 2.55958 0
M  V30 45178 H 4077.1 0.963066 1.30141 0
M  V30 45179 H 4079.09 -0.512261 4.01445 0
M  V30 45180 H 4077.66 -0.851618 3.00776 0
M  V30 45181 H 4076.88 1.55714 3.62142 0
M  V30 45182 H 4078.17 1.5719 4.8391 0
M  V30 45183 H 4077.57 -1.55202 5.43993 0
M  V30 45184 H 4076.12 -1.41554 6.36243 0
M  V30 45185 N 4079.56 -1.31901 0.862549 0
M  V30 45186 C 4080.5 -2.28696 0.31095 0
M  V30 45187 C 4081.47 -1.55402 -0.586467 0
M  V30 45188 O 4082.66 -1.83586 -0.519694 0
M  V30 45189 C 4079.8 -3.41633 -0.487926 0
M  V30 45190 C 4078.91 -4.29792 0.436171 0
M  V30 45191 C 4078.05 -5.29867 -0.376104 0
M  V30 45192 C 4077.08 -6.0967 0.544891 0
M  V30 45193 N 4076.22 -7.01721 -0.230683 0
M  V30 45194 H 4081.06 -2.75266 1.1416 0
M  V30 45195 H 4078.6 -1.35423 0.574376 0
M  V30 45196 H 4080.56 -4.05843 -0.966803 0
M  V30 45197 H 4079.19 -2.96193 -1.28334 0
M  V30 45198 H 4078.24 -3.66092 1.03347 0
M  V30 45199 H 4079.55 -4.85535 1.14268 0
M  V30 45200 H 4078.7 -5.99718 -0.91781 0
M  V30 45201 H 4077.44 -4.74761 -1.11594 0
M  V30 45202 H 4076.45 -5.38716 1.09842 0
M  V30 45203 H 4077.67 -6.66861 1.28346 0
M  V30 45204 H 4075.62 -6.49034 -0.953466 0
M  V30 45205 H 4075.54 -7.54851 0.416632 0
M  V30 45206 H 4076.8 -7.75846 -0.75386 0
M  V30 45207 N 4081.03 -0.621255 -1.44838 0
M  V30 45208 C 4082.28 -0.119325 -2.01347 0
M  V30 45209 C 4082.6 1.26279 -1.49375 0
M  V30 45210 O 4083.8 1.8582 -1.97948 0
M  V30 45211 C 4082.26 -0.162599 -3.59533 0
M  V30 45212 C 4081.87 -1.54541 -4.20501 0
M  V30 45213 C 4083.61 0.283379 -4.23553 0
M  V30 45214 C 4081.52 -1.54433 -5.7088 0
M  V30 45215 H 4080.45 -0.0408425 -0.752893 0
M  V30 45216 H 4083.1 -0.7786 -1.66163 0
M  V30 45217 H 4081.48 0.56359 -3.91969 0
M  V30 45218 H 4082.65 -2.2944 -3.99617 0
M  V30 45219 H 4080.97 -1.93464 -3.68729 0
M  V30 45220 H 4083.57 0.303577 -5.33838 0
M  V30 45221 H 4083.91 1.30877 -3.95192 0
M  V30 45222 H 4084.44 -0.389989 -3.95884 0
M  V30 45223 H 4081.18 -2.54777 -6.03961 0
M  V30 45224 H 4080.7 -0.838133 -5.93915 0
M  V30 45225 H 4082.38 -1.27394 -6.34334 0
M  V30 45226 N 4082.51 1.53405 -0.361211 0
M  V30 45227 C 4083.44 2.28527 0.479328 0
M  V30 45228 C 4084.42 1.30782 1.08766 0
M  V30 45229 O 4085.61 1.59647 1.10573 0
M  V30 45230 C 4082.74 3.07126 1.62144 0
M  V30 45231 C 4081.69 4.12523 1.14058 0
M  V30 45232 C 4081.02 4.79179 2.37259 0
M  V30 45233 C 4082.32 5.218 0.22843 0
M  V30 45234 H 4084.01 2.99037 -0.147397 0
M  V30 45235 H 4081.56 1.43818 -0.0723304 0
M  V30 45236 H 4083.51 3.58425 2.21606 0
M  V30 45237 H 4082.24 2.34299 2.27533 0
M  V30 45238 H 4080.89 3.62163 0.568672 0
M  V30 45239 H 4080.54 4.02928 3.01095 0
M  V30 45240 H 4080.24 5.50397 2.05758 0
M  V30 45241 H 4081.77 5.3327 2.97414 0
M  V30 45242 H 4083.18 5.68628 0.730397 0
M  V30 45243 H 4081.58 6.001 0.00449711 0
M  V30 45244 H 4082.65 4.79364 -0.730621 0
M  V30 45245 N 4083.99 0.0902663 1.57341 0
M  V30 45246 C 4085.41 -0.266386 1.57361 0
M  V30 45247 C 4085.61 -1.68756 1.10107 0
M  V30 45248 O 4084.66 -2.40302 0.775329 0
M  V30 45249 C 4085.98 -0.0592132 3.00642 0
M  V30 45250 C 4087.52 -0.127334 3.12741 0
M  V30 45251 C 4088 0.0517847 4.57971 0
M  V30 45252 N 4089.49 -0.00321028 4.632 0
M  V30 45253 C 4090.22 0.110699 5.73293 0
M  V30 45254 N 4089.72 0.279171 6.92237 0
M  V30 45255 N 4091.51 0.0523135 5.62076 0
M  V30 45256 H 4083.66 1.01887 1.86367 0
M  V30 45257 H 4085.93 0.398901 0.859989 0
M  V30 45258 H 4085.63 0.922177 3.39395 0
M  V30 45259 H 4085.51 -0.803615 3.6854 0
M  V30 45260 H 4087.89 -1.09922 2.73863 0
M  V30 45261 H 4087.98 0.648478 2.47444 0
M  V30 45262 H 4087.62 1.02052 4.97542 0
M  V30 45263 H 4087.55 -0.743661 5.21323 0
M  V30 45264 H 4090.04 -0.131079 3.77673 0
M  V30 45265 H 4090.35 0.357732 7.71972 0
M  V30 45266 H 4088.7 0.314775 6.94287 0
M  V30 45267 H 4091.89 -0.0781366 4.68035 0
M  V30 45268 H 4092.06 0.144537 6.47839 0
M  V30 45269 N 4085.47 -1.56529 -0.183403 0
M  V30 45270 C 4086.69 -1.85783 -0.921932 0
M  V30 45271 C 4087.12 -0.675215 -1.75563 0
M  V30 45272 O 4086.48 0.375881 -1.77361 0
M  V30 45273 C 4086.52 -3.13358 -1.78435 0
M  V30 45274 O 4085.63 -2.94732 -2.88456 0
M  V30 45275 H 4084.97 -0.61142 -0.258963 0
M  V30 45276 H 4087.5 -2.0376 -0.185189 0
M  V30 45277 H 4087.51 -3.44453 -2.18669 0
M  V30 45278 H 4086.18 -3.99049 -1.17187 0
M  V30 45279 H 4084.76 -2.74963 -2.51892 0
M  V30 45280 N 4086.95 0.451537 -1.50993 0
M  V30 45281 C 4087.88 1.55467 -1.74219 0
M  V30 45282 C 4088.86 1.59481 -0.591596 0
M  V30 45283 O 4090.04 1.75436 -0.832821 0
M  V30 45284 C 4087.17 2.93657 -1.85426 0
M  V30 45285 C 4086.13 3.04507 -3.00765 0
M  V30 45286 C 4085.45 4.44537 -2.97138 0
M  V30 45287 C 4086.75 2.79904 -4.40966 0
M  V30 45288 H 4088.45 1.36283 -2.66585 0
M  V30 45289 H 4085.99 0.654184 -1.28283 0
M  V30 45290 H 4087.95 3.70776 -2.00258 0
M  V30 45291 H 4086.67 3.14041 -0.896976 0
M  V30 45292 H 4085.33 2.29825 -2.85615 0
M  V30 45293 H 4084.98 4.61868 -1.99215 0
M  V30 45294 H 4084.68 4.52729 -3.7458 0
M  V30 45295 H 4086.2 5.23649 -3.14045 0
M  V30 45296 H 4087.61 3.46762 -4.5654 0
M  V30 45297 H 4086.01 2.99521 -5.20007 0
M  V30 45298 H 4087.08 1.7561 -4.51984 0
M  V30 45299 N 4088.42 1.409 0.706044 0
M  V30 45300 C 4089.33 1.44258 1.85005 0
M  V30 45301 C 4090.35 0.334204 1.7076 0
M  V30 45302 O 4091.53 0.580291 1.92859 0
M  V30 45303 C 4088.59 1.31257 3.20893 0
M  V30 45304 C 4087.65 2.5232 3.47323 0
M  V30 45305 C 4086.89 2.3993 4.76728 0
M  V30 45306 O 4087.11 1.41822 5.52488 0
M  V30 45307 O 4086.04 3.29489 5.03707 0
M  V30 45308 H 4089.87 2.40752 1.85128 0
M  V30 45309 H 4087.45 1.22325 0.857729 0
M  V30 45310 H 4089.34 1.26251 4.02043 0
M  V30 45311 H 4088.01 0.378741 3.21477 0
M  V30 45312 H 4086.92 2.62903 2.66144 0
M  V30 45313 H 4088.25 3.44496 3.51544 0
M  V30 45314 N 4089.9 -0.939242 1.26554 0
M  V30 45315 C 4091.15 -1.68233 1.11992 0
M  V30 45316 C 4091.47 -1.92067 -0.336959 0
M  V30 45317 O 4090.74 -1.51873 -1.23739 0
M  V30 45318 H 4089.32 -0.623472 0.411451 0
M  V30 45319 H 4091.98 -1.12842 1.58911 0
M  V30 45320 H 4091.08 -2.65528 1.64015 0
M  V30 45321 N 4091.38 -1.08389 -1.14409 0
M  V30 45322 C 4092.61 -0.835048 -1.89847 0
M  V30 45323 C 4093.03 0.60706 -1.78035 0
M  V30 45324 O 4092.39 1.42536 -1.12041 0
M  V30 45325 C 4092.44 -1.26147 -3.37815 0
M  V30 45326 O 4091.54 -0.413292 -4.10324 0
M  V30 45327 H 4090.88 -0.303309 -0.590677 0
M  V30 45328 H 4093.41 -1.44527 -1.44821 0
M  V30 45329 H 4093.42 -1.24225 -3.88629 0
M  V30 45330 H 4092.1 -2.31178 -3.4573 0
M  V30 45331 H 4090.67 -0.495919 -3.69588 0
M  V30 45332 N 4092.86 1.31442 -0.869532 0
M  V30 45333 C 4094.14 1.91447 -0.400937 0
M  V30 45334 C 4094.52 1.79129 1.11696 0
M  V30 45335 O 4093.86 1.1987 1.94534 0
M  V30 45336 C 4094.07 3.37676 -0.881826 0
M  V30 45337 C 4095.42 4.14784 -0.907703 0
M  V30 45338 O 4096.45 3.46456 -0.827451 0
M  V30 45339 O 4095.3 5.36826 -1.02375 0
M  V30 45340 H 4092.4 0.818269 -0.119856 0
M  V30 45341 H 4094.94 1.40113 -0.957416 0
M  V30 45342 H 4093.72 3.40653 -1.92539 0
M  V30 45343 H 4093.34 3.96439 -0.303634 0
M  V30 45344 N 4094.34 0.628927 1.44507 0
M  V30 45345 C 4095.61 0.063554 1.95497 0
M  V30 45346 C 4095.99 -1.41012 1.57095 0
M  V30 45347 O 4095.34 -2.12344 0.843932 0
M  V30 45348 C 4095.55 0.284112 3.47842 0
M  V30 45349 C 4096.9 0.176148 4.24234 0
M  V30 45350 O 4097.92 0.215361 3.55548 0
M  V30 45351 O 4096.78 0.0792263 5.46443 0
M  V30 45352 H 4093.88 -0.0235683 0.826664 0
M  V30 45353 H 4096.42 0.700478 1.54568 0
M  V30 45354 H 4095.19 1.30677 3.68835 0
M  V30 45355 H 4094.82 -0.387056 3.95712 0
M  V30 45356 N 4095.82 -1.53211 0.369342 0
M  V30 45357 C 4096.78 -2.24473 -0.463088 0
M  V30 45358 C 4097.78 -1.25392 -1.00665 0
M  V30 45359 O 4098.97 -1.49641 -0.891806 0
M  V30 45360 C 4096.1 -2.98438 -1.64765 0
M  V30 45361 H 4097.29 -2.9947 0.160531 0
M  V30 45362 H 4094.85 -1.5583 0.121095 0
M  V30 45363 H 4095.58 -2.27693 -2.30925 0
M  V30 45364 H 4095.37 -3.7114 -1.26481 0
M  V30 45365 H 4096.86 -3.526 -2.23747 0
M  V30 45366 N 4097.29 -0.0986092 -1.57291 0
M  V30 45367 C 4098.54 0.565105 -1.94768 0
M  V30 45368 C 4098.87 1.67615 -0.980751 0
M  V30 45369 O 4098.15 1.94495 -0.0144056 0
M  V30 45370 C 4098.43 1.11698 -3.42338 0
M  V30 45371 C 4098.28 0.0107493 -4.49799 0
M  V30 45372 C 4099.6 2.01427 -3.91299 0
M  V30 45373 H 4096.72 0.20395 -0.708218 0
M  V30 45374 H 4099.36 -0.170032 -1.89238 0
M  V30 45375 H 4097.51 1.74348 -3.47182 0
M  V30 45376 H 4099.19 -0.623654 -4.57065 0
M  V30 45377 H 4097.43 -0.655168 -4.28824 0
M  V30 45378 H 4098.1 0.437771 -5.50261 0
M  V30 45379 H 4100.58 1.48678 -3.88631 0
M  V30 45380 H 4099.45 2.36967 -4.95114 0
M  V30 45381 H 4099.71 2.93301 -3.30797 0
M  V30 45382 N 4098.77 1.56624 0.175099 0
M  V30 45383 C 4099.7 1.99146 1.21915 0
M  V30 45384 C 4100.68 0.866453 1.46378 0
M  V30 45385 O 4101.87 1.13226 1.57777 0
M  V30 45386 C 4099 2.34811 2.55893 0
M  V30 45387 C 4097.95 3.50236 2.46005 0
M  V30 45388 C 4097.28 3.71633 3.84439 0
M  V30 45389 C 4098.58 4.83805 1.968 0
M  V30 45390 H 4100.27 2.86611 0.8657 0
M  V30 45391 H 4097.82 1.37891 0.41499 0
M  V30 45392 H 4099.77 2.63155 3.29131 0
M  V30 45393 H 4098.49 1.4425 2.93018 0
M  V30 45394 H 4097.15 3.22014 1.75221 0
M  V30 45395 H 4096.8 2.78369 4.1895 0
M  V30 45396 H 4096.5 4.49295 3.78692 0
M  V30 45397 H 4098.03 4.02374 4.59269 0
M  V30 45398 H 4099.44 5.11049 2.5981 0
M  V30 45399 H 4097.84 5.65077 2.0201 0
M  V30 45400 H 4098.91 4.76051 0.922126 0
M  V30 45401 N 4100.25 -0.443523 1.5123 0
M  V30 45402 C 4101.18 -1.54541 1.75041 0
M  V30 45403 C 4102.16 -1.59165 0.600045 0
M  V30 45404 O 4103.35 -1.74992 0.842113 0
M  V30 45405 C 4100.48 -2.92669 1.86981 0
M  V30 45406 C 4099.43 -3.02908 3.02376 0
M  V30 45407 C 4098.76 -4.42955 2.99491 0
M  V30 45408 C 4100.06 -2.77561 4.42444 0
M  V30 45409 H 4101.75 -1.34867 2.67304 0
M  V30 45410 H 4099.3 -0.647372 1.28628 0
M  V30 45411 H 4101.25 -3.69708 2.02222 0
M  V30 45412 H 4099.97 -3.13561 0.913618 0
M  V30 45413 H 4098.63 -2.28307 2.8683 0
M  V30 45414 H 4098.28 -4.60805 2.01662 0
M  V30 45415 H 4097.98 -4.50736 3.76976 0
M  V30 45416 H 4099.5 -5.21976 3.16817 0
M  V30 45417 H 4100.92 -3.44336 4.58373 0
M  V30 45418 H 4099.31 -2.96759 5.21588 0
M  V30 45419 H 4100.38 -1.7321 4.52909 0
M  V30 45420 N 4101.73 -1.41272 -0.698562 0
M  V30 45421 C 4102.66 -1.38814 -1.82383 0
M  V30 45422 C 4103.67 -0.29078 -1.60182 0
M  V30 45423 O 4104.86 -0.552302 -1.69741 0
M  V30 45424 C 4101.96 -1.1416 -3.19093 0
M  V30 45425 C 4101.13 -2.35879 -3.68348 0
M  V30 45426 C 4100.19 -2.07127 -4.8372 0
M  V30 45427 O 4099.22 -2.80141 -4.9549 0
M  V30 45428 N 4100.42 -1.05968 -5.70746 0
M  V30 45429 H 4103.19 -2.35798 -1.84985 0
M  V30 45430 H 4100.75 -1.35846 -0.880769 0
M  V30 45431 H 4102.74 -0.928832 -3.93897 0
M  V30 45432 H 4101.31 -0.257838 -3.11535 0
M  V30 45433 H 4100.53 -2.72877 -2.84485 0
M  V30 45434 H 4101.82 -3.16984 -3.97993 0
M  V30 45435 H 4101.22 -0.455323 -5.63865 0
M  V30 45436 H 4099.77 -0.906802 -6.45461 0
M  V30 45437 N 4103.21 0.932517 -1.27051 0
M  V30 45438 C 4104.62 1.2076 -1.04351 0
M  V30 45439 C 4104.82 2.00229 0.225946 0
M  V30 45440 O 4103.88 2.3464 0.932746 0
M  V30 45441 C 4105.19 1.96044 -2.28007 0
M  V30 45442 C 4106.74 2.09002 -2.32996 0
M  V30 45443 C 4107.21 2.8769 -3.56369 0
M  V30 45444 N 4108.7 2.9526 -3.56898 0
M  V30 45445 C 4109.44 3.56596 -4.49028 0
M  V30 45446 N 4108.94 4.19364 -5.51458 0
M  V30 45447 N 4110.73 3.53953 -4.36662 0
M  V30 45448 H 4102.88 0.401479 -2.08571 0
M  V30 45449 H 4105.14 0.240197 -0.917066 0
M  V30 45450 H 4104.85 1.45066 -3.20388 0
M  V30 45451 H 4104.72 2.96678 -2.32942 0
M  V30 45452 H 4107.11 2.59168 -1.41124 0
M  V30 45453 H 4107.19 1.07603 -2.32067 0
M  V30 45454 H 4106.83 2.38208 -4.48575 0
M  V30 45455 H 4106.76 3.89363 -3.54548 0
M  V30 45456 H 4109.26 2.50645 -2.82817 0
M  V30 45457 H 4109.57 4.6409 -6.17932 0
M  V30 45458 H 4107.91 4.17924 -5.55306 0
M  V30 45459 H 4111.1 3.04116 -3.55853 0
M  V30 45460 H 4111.28 4.01466 -5.08654 0
M  V30 45461 N 4104.68 1.08995 1.13833 0
M  V30 45462 C 4106.1 0.818765 1.36998 0
M  V30 45463 C 4106.3 -0.569069 1.93297 0
M  V30 45464 O 4105.36 -1.32476 2.14957 0
M  V30 45465 C 4106.67 1.90638 2.32546 0
M  V30 45466 C 4108.22 1.93309 2.46172 0
M  V30 45467 C 4108.69 3.01201 3.45024 0
M  V30 45468 N 4110.18 3.00412 3.52572 0
M  V30 45469 C 4110.92 3.80537 4.28928 0
M  V30 45470 N 4110.41 4.70558 5.08475 0
M  V30 45471 N 4112.21 3.68815 4.24184 0
M  V30 45472 H 4104.36 1.98475 0.756391 0
M  V30 45473 H 4106.62 0.861657 0.395287 0
M  V30 45474 H 4106.33 2.90448 1.98326 0
M  V30 45475 H 4106.2 1.78082 3.32516 0
M  V30 45476 H 4108.59 0.941408 2.79681 0
M  V30 45477 H 4108.67 2.09943 1.46143 0
M  V30 45478 H 4108.31 4.0058 3.12247 0
M  V30 45479 H 4108.24 2.81811 4.44848 0
M  V30 45480 H 4110.73 2.3517 2.9581 0
M  V30 45481 H 4111.05 5.28289 5.64031 0
M  V30 45482 H 4109.39 4.74597 5.07723 0
M  V30 45483 H 4112.58 2.9785 3.61113 0
M  V30 45484 H 4112.76 4.31498 4.83439 0
M  V30 45485 N 4106.16 -1.30979 0.87649 0
M  V30 45486 C 4107.09 -2.30817 0.352965 0
M  V30 45487 C 4108.07 -1.6063 -0.559647 0
M  V30 45488 O 4109.26 -1.88294 -0.475293 0
M  V30 45489 C 4106.39 -3.44492 -0.440767 0
M  V30 45490 C 4105.34 -4.26316 0.379328 0
M  V30 45491 C 4104.67 -5.31961 -0.540489 0
M  V30 45492 C 4105.97 -4.96642 1.6169 0
M  V30 45493 H 4107.66 -2.74854 1.18724 0
M  V30 45494 H 4105.21 -1.32137 0.572339 0
M  V30 45495 H 4107.16 -4.13393 -0.817588 0
M  V30 45496 H 4105.88 -2.99237 -1.30861 0
M  V30 45497 H 4104.54 -3.59091 0.73818 0
M  V30 45498 H 4104.19 -4.82956 -1.4058 0
M  V30 45499 H 4103.89 -5.876 0.00437462 0
M  V30 45500 H 4105.42 -6.0372 -0.914012 0
M  V30 45501 H 4106.83 -5.58105 1.31115 0
M  V30 45502 H 4105.23 -5.62107 2.10132 0
M  V30 45503 H 4106.3 -4.23254 2.36609 0
M  V30 45504 N 4107.64 -0.636582 -1.44171 0
M  V30 45505 C 4108.92 -0.0739208 -1.9546 0
M  V30 45506 C 4109.3 1.40177 -1.5784 0
M  V30 45507 O 4108.64 2.11894 -0.855181 0
M  V30 45508 C 4108.85 -0.302555 -3.47686 0
M  V30 45509 C 4110.2 -0.198644 -4.24135 0
M  V30 45510 O 4111.23 -0.234213 -3.55429 0
M  V30 45511 O 4110.09 -0.108204 -5.46393 0
M  V30 45512 H 4107.18 0.019184 -0.826777 0
M  V30 45513 H 4109.73 -0.708665 -1.54195 0
M  V30 45514 H 4108.5 -1.32631 -3.68137 0
M  V30 45515 H 4108.12 0.366065 -3.95911 0
M  V30 45516 N 4109.12 1.53013 -0.377462 0
M  V30 45517 C 4110.07 2.27628 0.478376 0
M  V30 45518 C 4111.06 1.31064 1.07325 0
M  V30 45519 O 4112.27 1.48647 1.01508 0
M  V30 45520 H 4108.64 0.731828 0.173008 0
M  V30 45521 H 4110.61 2.97901 -0.172549 0
M  V30 45522 C 4109.36 3.08706 1.59988 0
M  V30 45523 H 4108.68 3.8286 1.15144 0
M  V30 45524 H 4110.12 3.64073 2.17318 0
M  V30 45525 C 4108.58 2.2028 2.54909 0
M  V30 45526 O 4109.11 1.82158 3.58024 0
M  V30 45527 N 4107.32 1.84676 2.24373 0
M  V30 45528 H 4106.87 2.15875 1.40555 0
M  V30 45529 H 4106.82 1.25799 2.88135 0
M  V30 45530 N 4110.6 0.106949 1.57237 0
M  V30 45531 C 4111.53 -0.884629 2.10356 0
M  V30 45532 C 4112.51 -1.26871 1.01698 0
M  V30 45533 O 4113.69 -1.37187 1.29274 0
M  V30 45534 C 4110.82 -2.18219 2.59033 0
M  V30 45535 C 4109.86 -1.94708 3.79461 0
M  V30 45536 S 4110.7 -1.1743 5.22466 0
M  V30 45537 C 4111.85 -2.48391 5.74502 0
M  V30 45538 H 4112.09 -0.432772 2.94133 0
M  V30 45539 H 4109.62 -0.106585 1.54032 0
M  V30 45540 H 4111.58 -2.92778 2.87734 0
M  V30 45541 H 4110.24 -2.60524 1.7546 0
M  V30 45542 H 4109.43 -2.90823 4.11629 0
M  V30 45543 H 4109.03 -1.28274 3.51314 0
M  V30 45544 H 4111.33 -3.44301 5.83492 0
M  V30 45545 H 4112.27 -2.20785 6.728 0
M  V30 45546 H 4112.68 -2.57207 5.02499 0
M  V30 45547 N 4112.07 -1.56715 -0.166791 0
M  V30 45548 C 4113.02 -1.97683 -1.22573 0
M  V30 45549 C 4114.02 -0.866243 -1.45577 0
M  V30 45550 O 4115.22 -1.05137 -1.46103 0
M  V30 45551 H 4111.6 -0.629007 -0.412133 0
M  V30 45552 H 4113.57 -2.85937 -0.853368 0
M  V30 45553 C 4112.32 -2.35671 -2.55645 0
M  V30 45554 H 4111.64 -3.20671 -2.38768 0
M  V30 45555 H 4113.08 -2.68177 -3.28416 0
M  V30 45556 C 4111.54 -1.20183 -3.14734 0
M  V30 45557 O 4112.07 -0.491914 -3.98677 0
M  V30 45558 N 4110.28 -0.971212 -2.7389 0
M  V30 45559 H 4109.82 -1.55026 -2.05729 0
M  V30 45560 H 4109.78 -0.200345 -3.13761 0
M  V30 45561 N 4113.55 0.435497 -1.51463 0
M  V30 45562 C 4114.8 1.18478 -1.64223 0
M  V30 45563 C 4115.13 1.91152 -0.359348 0
M  V30 45564 O 4114.38 1.84355 0.65665 0
M  V30 45565 C 4114.68 2.22493 -2.79699 0
M  V30 45566 C 4114.35 1.66818 -4.18906 0
M  V30 45567 C 4113.01 1.51357 -4.56776 0
M  V30 45568 C 4115.36 1.25901 -5.05765 0
M  V30 45569 C 4112.69 0.934569 -5.79209 0
M  V30 45570 C 4115.04 0.694293 -6.28778 0
M  V30 45571 C 4113.71 0.526603 -6.6542 0
M  V30 45572 H 4112.98 0.433541 -0.600935 0
M  V30 45573 H 4115.62 0.475585 -1.85501 0
M  V30 45574 H 4113.93 2.99457 -2.52651 0
M  V30 45575 H 4115.62 2.80292 -2.86771 0
M  V30 45576 H 4112.21 1.79829 -3.8905 0
M  V30 45577 H 4116.4 1.36666 -4.77112 0
M  V30 45578 H 4111.65 0.792425 -6.06243 0
M  V30 45579 H 4115.83 0.368738 -6.95423 0
M  V30 45580 H 4113.46 0.0758202 -7.60162 0
M  V30 45581 N 4115.03 1.41641 0.69106 0
M  V30 45582 C 4115.98 1.43844 1.80493 0
M  V30 45583 C 4116.95 0.292266 1.63508 0
M  V30 45584 O 4118.13 0.493973 1.84295 0
M  V30 45585 C 4115.27 1.33077 3.18409 0
M  V30 45586 C 4114.39 2.576 3.46794 0
M  V30 45587 C 4113.52 2.39094 4.7435 0
M  V30 45588 C 4112.56 3.5907 4.95717 0
M  V30 45589 N 4111.7 3.39607 6.14501 0
M  V30 45590 H 4116.54 2.39039 1.77945 0
M  V30 45591 H 4114.07 1.18694 0.86891 0
M  V30 45592 H 4116.03 1.24836 3.98085 0
M  V30 45593 H 4114.66 0.41487 3.20123 0
M  V30 45594 H 4113.71 2.76273 2.61491 0
M  V30 45595 H 4115.03 3.46831 3.58483 0
M  V30 45596 H 4114.18 2.28346 5.62088 0
M  V30 45597 H 4112.92 1.47327 4.64915 0
M  V30 45598 H 4111.92 3.70268 4.06425 0
M  V30 45599 H 4113.15 4.51797 5.07007 0
M  V30 45600 H 4111.09 2.50543 6.06271 0
M  V30 45601 H 4111.01 4.22416 6.26978 0
M  V30 45602 H 4112.28 3.32639 7.04962 0
M  V30 45603 N 4116.51 -0.925766 1.27543 0
M  V30 45604 C 4117.75 -1.67651 1.15173 0
M  V30 45605 C 4118.11 -1.90062 -0.299051 0
M  V30 45606 O 4117.4 -1.48128 -1.21526 0
M  V30 45607 C 4117.6 -3.04517 1.87093 0
M  V30 45608 C 4117.43 -2.95463 3.39016 0
M  V30 45609 C 4116.2 -2.97638 4.08338 0
M  V30 45610 C 4118.39 -2.74435 4.3496 0
M  V30 45611 N 4116.38 -2.79045 5.46815 0
M  V30 45612 C 4117.75 -2.64565 5.60718 0
M  V30 45613 C 4119.8 -2.59338 4.25028 0
M  V30 45614 C 4118.5 -2.41139 6.77676 0
M  V30 45615 C 4120.53 -2.37288 5.41709 0
M  V30 45616 C 4119.89 -2.28163 6.66424 0
M  V30 45617 H 4115.99 -0.620194 0.476322 0
M  V30 45618 H 4118.58 -1.09431 1.61037 0
M  V30 45619 H 4116.75 -3.60847 1.43681 0
M  V30 45620 H 4118.48 -3.68541 1.67211 0
M  V30 45621 H 4115.23 -3.0794 3.5982 0
M  V30 45622 H 4115.66 -2.72874 6.19572 0
M  V30 45623 H 4120.3 -2.6515 3.29326 0
M  V30 45624 H 4118.02 -2.34066 7.73459 0
M  V30 45625 H 4121.6 -2.26489 5.35905 0
M  V30 45626 H 4120.48 -2.11332 7.55188 0
M  V30 45627 N 4117.99 -1.09597 -1.13253 0
M  V30 45628 C 4119.21 -0.855137 -1.8895 0
M  V30 45629 C 4119.64 0.588143 -1.78669 0
M  V30 45630 O 4118.99 1.41339 -1.13547 0
M  V30 45631 C 4119.04 -1.29723 -3.36458 0
M  V30 45632 O 4118.15 -0.456789 -4.09862 0
M  V30 45633 H 4117.49 -0.309557 -0.587427 0
M  V30 45634 H 4120.02 -1.46055 -1.4328 0
M  V30 45635 H 4120.03 -1.2834 -3.87289 0
M  V30 45636 H 4118.7 -2.34832 -3.43259 0
M  V30 45637 H 4117.28 -0.535091 -3.69041 0
M  V30 45638 N 4119.46 1.30512 -0.883424 0
M  V30 45639 C 4120.37 2.31929 -0.353012 0
M  V30 45640 C 4121.39 1.65279 0.543962 0
M  V30 45641 O 4122.57 1.96592 0.437455 0
M  V30 45642 C 4119.63 3.44083 0.425202 0
M  V30 45643 C 4118.69 4.26363 -0.501339 0
M  V30 45644 C 4117.93 5.33161 0.239829 0
M  V30 45645 O 4118.15 5.51236 1.46612 0
M  V30 45646 O 4117.08 6.00507 -0.409263 0
M  V30 45647 H 4120.91 2.79245 -1.19398 0
M  V30 45648 H 4118.49 1.34653 -0.647211 0
M  V30 45649 H 4120.38 4.12408 0.865885 0
M  V30 45650 H 4119.05 2.98904 1.24249 0
M  V30 45651 H 4117.96 3.60741 -0.990802 0
M  V30 45652 H 4119.29 4.75141 -1.28459 0
M  V30 45653 N 4120.94 0.644219 1.43832 0
M  V30 45654 C 4121.87 -0.0394501 2.33467 0
M  V30 45655 C 4122.85 -0.821312 1.48958 0
M  V30 45656 O 4124.04 -0.784587 1.77645 0
M  V30 45657 C 4121.17 -1.01272 3.32207 0
M  V30 45658 C 4120.12 -0.341591 4.26635 0
M  V30 45659 C 4119.45 -1.42568 5.15343 0
M  V30 45660 C 4120.75 0.76039 5.16735 0
M  V30 45661 H 4122.44 0.709076 2.90882 0
M  V30 45662 H 4119.99 0.342437 1.39869 0
M  V30 45663 H 4121.94 -1.49984 3.93806 0
M  V30 45664 H 4120.67 -1.79229 2.73028 0
M  V30 45665 H 4119.32 0.125001 3.66387 0
M  V30 45666 H 4118.97 -2.19646 4.52509 0
M  V30 45667 H 4118.67 -0.981928 5.79337 0
M  V30 45668 H 4120.2 -1.91434 5.79815 0
M  V30 45669 H 4121.61 0.355814 5.72195 0
M  V30 45670 H 4120.01 1.12806 5.89402 0
M  V30 45671 H 4121.08 1.62213 4.56963 0
M  V30 45672 N 4122.42 -1.52811 0.385571 0
M  V30 45673 C 4123.84 -1.59561 0.0353651 0
M  V30 45674 C 4124.04 -1.39975 -1.44945 0
M  V30 45675 O 4123.09 -1.21488 -2.21352 0
M  V30 45676 C 4124.41 -2.96357 0.509207 0
M  V30 45677 C 4125.95 -3.09525 0.465143 0
M  V30 45678 C 4126.43 -4.48765 0.915114 0
M  V30 45679 N 4127.92 -4.54938 0.870975 0
M  V30 45680 C 4128.65 -5.60903 1.1906 0
M  V30 45681 N 4128.15 -6.74531 1.58051 0
M  V30 45682 N 4129.94 -5.50989 1.11209 0
M  V30 45683 H 4122.09 -1.63791 1.35227 0
M  V30 45684 H 4124.36 -0.769258 0.554027 0
M  V30 45685 H 4124.06 -3.15894 1.5461 0
M  V30 45686 H 4123.94 -3.77084 -0.0936853 0
M  V30 45687 H 4126.32 -2.89686 -0.562653 0
M  V30 45688 H 4126.41 -2.3076 1.10379 0
M  V30 45689 H 4126.05 -4.69343 1.94112 0
M  V30 45690 H 4125.98 -5.25989 0.253515 0
M  V30 45691 H 4128.47 -3.7336 0.584001 0
M  V30 45692 H 4128.78 -7.5135 1.80813 0
M  V30 45693 H 4127.13 -6.75871 1.61934 0
M  V30 45694 H 4130.32 -4.611 0.806519 0
M  V30 45695 H 4130.49 -6.33471 1.36451 0
M  V30 45696 N 4123.9 -0.115287 -1.57178 0
M  V30 45697 C 4124.85 0.836294 -2.15116 0
M  V30 45698 C 4125.82 1.2661 -1.07514 0
M  V30 45699 O 4127 1.34427 -1.35403 0
M  V30 45700 C 4124.14 2.0824 -2.75191 0
M  V30 45701 C 4123.25 1.7013 -3.97089 0
M  V30 45702 C 4122.39 2.8968 -4.45263 0
M  V30 45703 C 4121.43 2.47791 -5.59702 0
M  V30 45704 N 4120.56 3.60242 -6.02636 0
M  V30 45705 H 4125.4 0.335382 -2.96107 0
M  V30 45706 H 4122.94 0.153854 -1.46293 0
M  V30 45707 H 4124.9 2.81246 -3.0815 0
M  V30 45708 H 4123.53 2.55797 -1.96896 0
M  V30 45709 H 4122.58 0.870127 -3.70315 0
M  V30 45710 H 4123.89 1.35344 -4.80087 0
M  V30 45711 H 4123.05 3.70915 -4.80112 0
M  V30 45712 H 4121.79 3.2769 -3.61207 0
M  V30 45713 H 4120.79 1.64988 -5.24461 0
M  V30 45714 H 4122.02 2.10902 -6.45521 0
M  V30 45715 H 4119.96 3.97933 -5.21522 0
M  V30 45716 H 4119.88 3.29367 -6.8048 0
M  V30 45717 H 4121.15 4.41928 -6.42122 0
M  V30 45718 N 4125.38 1.56801 0.158477 0
M  V30 45719 C 4126.32 1.97396 1.19597 0
M  V30 45720 C 4127.29 0.83979 1.43306 0
M  V30 45721 O 4128.48 1.10094 1.55833 0
M  V30 45722 C 4125.62 2.34998 2.52725 0
M  V30 45723 C 4124.73 3.61653 2.36286 0
M  V30 45724 C 4123.87 3.8841 3.62369 0
M  V30 45725 C 4122.91 5.08371 3.40918 0
M  V30 45726 N 4122.04 5.31196 4.59103 0
M  V30 45727 H 4126.88 2.85834 0.842787 0
M  V30 45728 H 4124.42 1.41423 0.404719 0
M  V30 45729 H 4126.38 2.54825 3.30333 0
M  V30 45730 H 4125.01 1.49655 2.86013 0
M  V30 45731 H 4124.06 3.49667 1.49789 0
M  V30 45732 H 4125.37 4.49419 2.16389 0
M  V30 45733 H 4124.53 4.08673 4.48409 0
M  V30 45734 H 4123.27 2.99044 3.85258 0
M  V30 45735 H 4122.27 4.87993 2.53265 0
M  V30 45736 H 4123.5 5.99279 3.19438 0
M  V30 45737 H 4121.44 4.44783 4.82187 0
M  V30 45738 H 4121.36 6.13209 4.42166 0
M  V30 45739 H 4122.63 5.55948 5.4639 0
M  V30 45740 N 4126.86 -0.427458 1.51692 0
M  V30 45741 C 4128.08 -1.20282 1.68958 0
M  V30 45742 C 4128.51 -1.84002 0.390505 0
M  V30 45743 O 4127.86 -1.69235 -0.650322 0
M  V30 45744 C 4127.91 -2.25527 2.81372 0
M  V30 45745 O 4127.02 -3.31245 2.45663 0
M  V30 45746 H 4126.36 -0.351959 0.563046 0
M  V30 45747 H 4128.89 -0.503553 1.98307 0
M  V30 45748 H 4128.9 -2.70153 3.05747 0
M  V30 45749 H 4127.57 -1.78528 3.75633 0
M  V30 45750 H 4126.15 -2.92026 2.31895 0
M  V30 45751 N 4128.33 -1.42005 -0.683539 0
M  V30 45752 C 4129.26 -1.47581 -1.80948 0
M  V30 45753 C 4130.24 -0.333237 -1.66804 0
M  V30 45754 O 4131.43 -0.546347 -1.86356 0
M  V30 45755 C 4128.56 -1.36901 -3.19179 0
M  V30 45756 C 4127.51 -2.49095 -3.48046 0
M  V30 45757 C 4126.84 -2.23475 -4.8576 0
M  V30 45758 C 4128.14 -3.91421 -3.45814 0
M  V30 45759 H 4129.83 -2.41815 -1.76539 0
M  V30 45760 H 4127.38 -1.16389 -0.84792 0
M  V30 45761 H 4129.33 -1.39411 -3.97671 0
M  V30 45762 H 4128.06 -0.39157 -3.24244 0
M  V30 45763 H 4126.72 -2.45887 -2.7191 0
M  V30 45764 H 4126.36 -1.24046 -4.87465 0
M  V30 45765 H 4126.06 -2.98663 -5.06038 0
M  V30 45766 H 4127.59 -2.27721 -5.66547 0
M  V30 45767 H 4129 -3.96279 -4.1429 0
M  V30 45768 H 4127.4 -4.6639 -3.77625 0
M  V30 45769 H 4128.47 -4.18714 -2.44553 0
M  V30 45770 N 4129.81 0.918989 -1.28033 0
M  V30 45771 C 4130.76 2.04211 -1.11359 0
M  V30 45772 C 4131.75 1.69365 -0.0342815 0
M  V30 45773 O 4132.96 1.78966 -0.192659 0
M  V30 45774 H 4129.33 0.66901 -0.343409 0
M  V30 45775 H 4131.31 2.15418 -2.06489 0
M  V30 45776 C 4130.05 3.38683 -0.786713 0
M  V30 45777 H 4129.38 3.65986 -1.60917 0
M  V30 45778 H 4130.82 4.18014 -0.70997 0
M  V30 45779 C 4129.28 3.33028 0.509325 0
M  V30 45780 O 4129.81 3.70959 1.54118 0
M  V30 45781 N 4128.01 2.86123 0.508138 0
M  V30 45782 H 4127.56 2.55452 -0.331992 0
M  V30 45783 H 4127.52 2.82722 1.37534 0
M  V30 45784 N 4131.29 1.10196 1.12671 0
M  V30 45785 C 4132.54 0.837701 1.83482 0
M  V30 45786 C 4132.85 -0.638832 1.84874 0
M  V30 45787 O 4134.06 -1.0189 2.51656 0
M  V30 45788 C 4132.51 1.44876 3.29453 0
M  V30 45789 C 4132.12 2.9584 3.36426 0
M  V30 45790 C 4133.87 1.26379 4.05251 0
M  V30 45791 C 4131.77 3.49993 4.76717 0
M  V30 45792 H 4130.7 0.309718 0.687452 0
M  V30 45793 H 4133.35 1.32564 1.26882 0
M  V30 45794 H 4131.74 0.888498 3.85904 0
M  V30 45795 H 4132.91 3.5816 2.89928 0
M  V30 45796 H 4131.22 3.13463 2.74098 0
M  V30 45797 H 4133.82 1.64283 5.08837 0
M  V30 45798 H 4134.16 0.205131 4.15794 0
M  V30 45799 H 4134.7 1.79198 3.55152 0
M  V30 45800 H 4131.44 4.55513 4.71368 0
M  V30 45801 H 4130.96 2.92439 5.23679 0
M  V30 45802 H 4132.64 3.47667 5.45652 0
M  V30 45803 N 4132.77 -1.30042 0.890333 0
M  V30 45804 C 4134.18 -1.48488 0.585092 0
M  V30 45805 C 4134.38 -1.81471 -0.875819 0
M  V30 45806 O 4133.44 -1.90554 -1.65667 0
M  V30 45807 C 4134.75 -2.60451 1.50285 0
M  V30 45808 C 4136.3 -2.7433 1.50706 0
M  V30 45809 C 4136.78 -3.89411 2.41087 0
M  V30 45810 N 4138.27 -3.9673 2.39081 0
M  V30 45811 C 4139 -4.85099 3.05723 0
M  V30 45812 N 4138.5 -5.78226 3.81611 0
M  V30 45813 N 4140.29 -4.78512 2.94928 0
M  V30 45814 H 4132.44 -1.06907 1.83534 0
M  V30 45815 H 4134.7 -0.530141 0.78591 0
M  V30 45816 H 4134.41 -2.42916 2.54332 0
M  V30 45817 H 4134.28 -3.57048 1.2164 0
M  V30 45818 H 4136.67 -2.91267 0.474084 0
M  V30 45819 H 4136.75 -1.78337 1.83384 0
M  V30 45820 H 4136.4 -3.7323 3.44473 0
M  V30 45821 H 4136.33 -4.84753 2.05723 0
M  V30 45822 H 4138.82 -3.30114 1.83938 0
M  V30 45823 H 4139.13 -6.4243 4.29539 0
M  V30 45824 H 4137.48 -5.78141 3.85718 0
M  V30 45825 H 4140.67 -4.04741 2.35165 0
M  V30 45826 H 4140.84 -5.47172 3.47142 0
M  V30 45827 N 4134.25 -0.651838 -1.43488 0
M  V30 45828 C 4135.47 -0.170719 -2.06696 0
M  V30 45829 C 4135.9 1.15415 -1.48529 0
M  V30 45830 O 4135.25 1.71269 -0.594695 0
M  V30 45831 C 4135.3 -0.0916091 -3.60484 0
M  V30 45832 O 4134.41 0.946573 -4.0139 0
M  V30 45833 H 4133.75 -0.0942392 -0.657278 0
M  V30 45834 H 4136.28 -0.894372 -1.84017 0
M  V30 45835 H 4136.29 0.0921702 -4.07896 0
M  V30 45836 H 4134.96 -1.05877 -4.02197 0
M  V30 45837 H 4133.54 0.735694 -3.65571 0
M  V30 45838 N 4135.72 1.52604 -0.39367 0
M  V30 45839 C 4136.67 2.23385 0.456399 0
M  V30 45840 C 4137.66 1.23936 1.02609 0
M  V30 45841 O 4138.85 1.49251 0.951475 0
M  V30 45842 C 4135.98 3.04737 1.58083 0
M  V30 45843 C 4135.06 4.11585 1.02266 0
M  V30 45844 N 4135.46 5.05444 0.189814 0
M  V30 45845 C 4133.75 4.26794 1.29472 0
M  V30 45846 C 4134.45 5.81578 -0.119029 0
M  V30 45847 N 4133.43 5.41423 0.486069 0
M  V30 45848 H 4137.23 2.93308 -0.186395 0
M  V30 45849 H 4134.75 1.61123 -0.203219 0
M  V30 45850 H 4136.74 3.53986 2.20227 0
M  V30 45851 H 4135.4 2.3635 2.2264 0
M  V30 45852 H 4136.41 5.1761 -0.173276 0
M  V30 45853 H 4133.09 3.69636 1.94101 0
M  V30 45854 H 4134.48 6.67191 -0.794097 0
M  V30 45855 N 4137.2 0.12362 1.57114 0
M  V30 45856 C 4138.13 -0.821424 2.18575 0
M  V30 45857 C 4139.11 -1.27397 1.12712 0
M  V30 45858 O 4140.3 -1.33574 1.40966 0
M  V30 45859 C 4137.43 -2.06982 2.78883 0
M  V30 45860 C 4136.38 -1.7549 3.90368 0
M  V30 45861 C 4135.71 -3.07398 4.37505 0
M  V30 45862 C 4137.01 -1.01963 5.12251 0
M  V30 45863 H 4138.7 -0.309266 2.97798 0
M  V30 45864 H 4136.25 -0.147313 1.43245 0
M  V30 45865 H 4138.2 -2.73556 3.20539 0
M  V30 45866 H 4136.92 -2.6053 1.96955 0
M  V30 45867 H 4135.58 -1.11304 3.49295 0
M  V30 45868 H 4135.23 -3.5889 3.5243 0
M  V30 45869 H 4134.93 -2.87099 5.12687 0
M  V30 45870 H 4136.46 -3.75083 4.81815 0
M  V30 45871 H 4137.87 -1.58699 5.50897 0
M  V30 45872 H 4136.27 -0.917422 5.93046 0
M  V30 45873 H 4137.34 -0.00717649 4.84899 0
M  V30 45874 N 4138.68 -1.56883 -0.15016 0
M  V30 45875 C 4139.59 -2.01288 -1.205 0
M  V30 45876 C 4140.61 -0.927759 -1.47203 0
M  V30 45877 O 4141.78 -1.237 -1.58935 0
M  V30 45878 C 4138.85 -2.38188 -2.51927 0
M  V30 45879 C 4137.91 -3.60633 -2.329 0
M  V30 45880 C 4137.14 -3.95763 -3.5806 0
M  V30 45881 O 4137.36 -3.31595 -4.64113 0
M  V30 45882 O 4136.3 -4.89024 -3.50911 0
M  V30 45883 H 4140.12 -2.91327 -0.858024 0
M  V30 45884 H 4137.71 -1.45031 -0.358644 0
M  V30 45885 H 4139.59 -2.62796 -3.29418 0
M  V30 45886 H 4138.27 -1.51305 -2.86162 0
M  V30 45887 H 4137.17 -3.41216 -1.53371 0
M  V30 45888 H 4138.51 -4.48124 -2.03582 0
M  V30 45889 N 4140.16 0.419408 -1.51917 0
M  V30 45890 C 4141.12 1.4929 -1.73911 0
M  V30 45891 C 4142.12 1.48821 -0.609006 0
M  V30 45892 O 4143.31 1.50527 -0.876772 0
M  V30 45893 C 4140.44 2.88752 -1.81205 0
M  V30 45894 H 4141.64 1.31085 -2.69735 0
M  V30 45895 H 4139.19 0.649249 -1.42178 0
M  V30 45896 H 4139.92 3.1234 -0.872599 0
M  V30 45897 H 4139.71 2.90496 -2.63353 0
M  V30 45898 H 4141.2 3.66593 -1.99999 0
M  V30 45899 N 4141.64 1.42366 0.675998 0
M  V30 45900 C 4142.86 1.46373 1.46934 0
M  V30 45901 C 4143.29 0.0761321 1.87946 0
M  V30 45902 O 4142.64 -0.925144 1.55919 0
M  V30 45903 C 4142.69 2.39527 2.69553 0
M  V30 45904 O 4141.8 1.86581 3.67779 0
M  V30 45905 H 4141.14 0.495985 0.441469 0
M  V30 45906 H 4143.67 1.87042 0.829251 0
M  V30 45907 H 4143.68 2.56067 3.17638 0
M  V30 45908 H 4142.35 3.4034 2.39043 0
M  V30 45909 H 4140.93 1.79591 3.26805 0
M  V30 45910 N 4143.11 -0.912187 1.28518 0
M  V30 45911 C 4144.34 -1.70049 1.18735 0
M  V30 45912 C 4144.76 -1.86427 -0.250291 0
M  V30 45913 O 4144.12 -1.37555 -1.18103 0
M  V30 45914 C 4144.17 -3.0694 1.89262 0
M  V30 45915 O 4143.27 -3.9452 1.20115 0
M  V30 45916 H 4142.62 -0.520647 0.412096 0
M  V30 45917 H 4145.15 -1.14045 1.69868 0
M  V30 45918 H 4145.16 -3.57162 1.9723 0
M  V30 45919 H 4143.83 -2.94337 2.93834 0
M  V30 45920 H 4142.41 -3.52955 1.20321 0
M  V30 45921 N 4144.59 -1.10792 -1.12085 0
M  V30 45922 C 4145.87 -0.76458 -1.80038 0
M  V30 45923 C 4146.25 0.748394 -1.97389 0
M  V30 45924 O 4145.6 1.67596 -1.55318 0
M  V30 45925 C 4145.81 -1.51991 -3.14165 0
M  V30 45926 C 4147.16 -1.69482 -3.89308 0
M  V30 45927 O 4148.18 -1.48359 -3.23833 0
M  V30 45928 O 4147.04 -2.04533 -5.06783 0
M  V30 45929 H 4144.13 -0.27626 -0.779493 0
M  V30 45930 H 4146.68 -1.21095 -1.18887 0
M  V30 45931 H 4145.45 -2.54943 -2.9685 0
M  V30 45932 H 4145.07 -1.06665 -3.83025 0
M  V30 45933 N 4146.07 1.29568 -0.897217 0
M  V30 45934 C 4147 2.26806 -0.330393 0
M  V30 45935 C 4148.02 1.54207 0.52191 0
M  V30 45936 O 4149.2 1.75242 0.339472 0
M  V30 45937 C 4146.3 3.34444 0.547776 0
M  V30 45938 C 4145.48 4.36514 -0.278236 0
M  V30 45939 C 4144.54 5.235 0.532369 0
M  V30 45940 O 4143.56 5.69179 -0.0492596 0
M  V30 45941 N 4144.76 5.50601 1.83898 0
M  V30 45942 H 4147.53 2.76082 -1.16613 0
M  V30 45943 H 4145.09 1.42876 -0.761449 0
M  V30 45944 H 4147.08 3.89565 1.0964 0
M  V30 45945 H 4145.65 2.85004 1.2842 0
M  V30 45946 H 4144.87 3.81087 -1.00828 0
M  V30 45947 H 4146.16 5.01751 -0.844017 0
M  V30 45948 H 4145.56 5.15294 2.33428 0
M  V30 45949 H 4144.12 6.08548 2.33479 0
M  V30 45950 N 4147.55 0.659438 1.4314 0
M  V30 45951 C 4148.79 0.184252 2.02564 0
M  V30 45952 C 4149.15 -1.19068 1.51131 0
M  V30 45953 O 4148.44 -1.7846 0.697331 0
M  V30 45954 C 4148.64 0.141888 3.57118 0
M  V30 45955 C 4148.47 1.51118 4.23549 0
M  V30 45956 C 4147.24 2.10512 4.59361 0
M  V30 45957 C 4149.43 2.45083 4.52149 0
M  V30 45958 N 4147.42 3.40381 5.10895 0
M  V30 45959 C 4148.79 3.59591 5.05069 0
M  V30 45960 C 4150.84 2.43806 4.34123 0
M  V30 45961 C 4149.54 4.73056 5.41858 0
M  V30 45962 C 4151.57 3.56357 4.71979 0
M  V30 45963 C 4150.93 4.69591 5.25037 0
M  V30 45964 H 4147.03 0.111995 0.773939 0
M  V30 45965 H 4149.62 0.869093 1.74226 0
M  V30 45966 H 4147.79 -0.512315 3.85006 0
M  V30 45967 H 4149.52 -0.344748 4.03229 0
M  V30 45968 H 4146.27 1.63157 4.44608 0
M  V30 45969 H 4146.7 4.06855 5.41108 0
M  V30 45970 H 4151.34 1.57497 3.92371 0
M  V30 45971 H 4149.06 5.60053 5.82551 0
M  V30 45972 H 4152.64 3.56578 4.59721 0
M  V30 45973 H 4151.52 5.5524 5.53785 0
M  V30 45974 N 4149.03 -1.52393 0.401757 0
M  V30 45975 C 4149.97 -2.26809 -0.427346 0
M  V30 45976 C 4150.94 -1.28921 -1.04731 0
M  V30 45977 O 4152.13 -1.57772 -1.07298 0
M  V30 45978 C 4149.27 -3.08731 -1.54205 0
M  V30 45979 C 4148.38 -4.21566 -0.943734 0
M  V30 45980 C 4147.52 -4.90859 -2.03053 0
M  V30 45981 C 4146.56 -5.95668 -1.40876 0
M  V30 45982 N 4145.69 -6.58509 -2.43538 0
M  V30 45983 H 4150.53 -2.97233 0.213682 0
M  V30 45984 H 4148.07 -1.46632 0.117213 0
M  V30 45985 H 4150.03 -3.54527 -2.19923 0
M  V30 45986 H 4148.66 -2.40492 -2.15322 0
M  V30 45987 H 4147.71 -3.79994 -0.175808 0
M  V30 45988 H 4149.02 -4.96771 -0.449472 0
M  V30 45989 H 4148.18 -5.40023 -2.76513 0
M  V30 45990 H 4146.91 -4.15206 -2.55842 0
M  V30 45991 H 4145.92 -5.45831 -0.65945 0
M  V30 45992 H 4147.14 -6.73261 -0.888648 0
M  V30 45993 H 4145.09 -5.85689 -2.95474 0
M  V30 45994 H 4145.01 -7.29365 -1.98903 0
M  V30 45995 H 4146.28 -7.12313 -3.16591 0
M  V30 45996 N 4150.5 -0.131951 -1.57047 0
M  V30 45997 C 4151.92 0.22457 -1.58012 0
M  V30 45998 C 4152.12 1.65778 -1.14543 0
M  V30 45999 O 4151.18 2.38162 -0.838768 0
M  V30 46000 C 4152.49 -0.0205174 -3.00693 0
M  V30 46001 C 4154.04 0.0443717 -3.12969 0
M  V30 46002 C 4154.51 -0.173189 -4.57672 0
M  V30 46003 N 4156 -0.1196 -4.63046 0
M  V30 46004 C 4156.74 -0.262659 -5.72798 0
M  V30 46005 N 4156.23 -0.462607 -6.91254 0
M  V30 46006 N 4158.03 -0.20132 -5.61739 0
M  V30 46007 H 4150.18 -1.06793 -1.836 0
M  V30 46008 H 4152.44 -0.421562 -0.849111 0
M  V30 46009 H 4152.15 -1.01184 -3.3683 0
M  V30 46010 H 4152.02 0.705621 -3.70541 0
M  V30 46011 H 4154.41 1.02623 -2.76681 0
M  V30 46012 H 4154.49 -0.713856 -2.45637 0
M  V30 46013 H 4154.13 -1.15208 -4.94661 0
M  V30 46014 H 4154.06 0.605181 -5.23111 0
M  V30 46015 H 4156.55 0.0308995 -3.77887 0
M  V30 46016 H 4156.87 -0.562281 -7.70752 0
M  V30 46017 H 4155.21 -0.498743 -6.93208 0
M  V30 46018 H 4158.4 -0.045982 -4.68077 0
M  V30 46019 H 4158.58 -0.316249 -6.47228 0
M  V30 46020 N 4151.98 1.5696 0.141838 0
M  V30 46021 C 4152.91 2.01687 1.17663 0
M  V30 46022 C 4153.89 0.897308 1.44507 0
M  V30 46023 O 4155.08 1.16547 1.5534 0
M  V30 46024 C 4152.21 2.40186 2.50854 0
M  V30 46025 C 4151.16 3.55376 2.38521 0
M  V30 46026 C 4150.49 3.79704 3.76469 0
M  V30 46027 C 4151.79 4.8787 1.86493 0
M  V30 46028 H 4153.48 2.88383 0.804711 0
M  V30 46029 H 4151.03 1.3874 0.385648 0
M  V30 46030 H 4152.98 2.70077 3.23475 0
M  V30 46031 H 4151.71 1.50433 2.89892 0
M  V30 46032 H 4150.36 3.25658 1.68351 0
M  V30 46033 H 4150.01 2.87193 4.12952 0
M  V30 46034 H 4149.71 4.57227 3.69077 0
M  V30 46035 H 4151.24 4.12025 4.50631 0
M  V30 46036 H 4152.65 5.16445 2.48912 0
M  V30 46037 H 4151.05 5.69235 1.89979 0
M  V30 46038 H 4152.12 4.779 0.820941 0
M  V30 46039 N 4153.46 -0.411345 1.52137 0
M  V30 46040 C 4154.41 -1.50008 1.71702 0
M  V30 46041 C 4155.39 -1.5043 0.570922 0
M  V30 46042 O 4156.59 -1.56444 0.8279 0
M  V30 46043 C 4153.72 -2.87958 1.86909 0
M  V30 46044 C 4152.8 -2.92191 3.07384 0
M  V30 46045 N 4153.19 -2.66125 4.30129 0
M  V30 46046 C 4151.49 -3.23359 3.07172 0
M  V30 46047 C 4152.19 -2.7687 5.11583 0
M  V30 46048 N 4151.17 -3.09655 4.46783 0
M  V30 46049 H 4154.97 -1.28647 2.64248 0
M  V30 46050 H 4152.48 -0.619024 1.50139 0
M  V30 46051 H 4154.48 -3.66316 1.99042 0
M  V30 46052 H 4153.14 -3.10319 0.955621 0
M  V30 46053 H 4154.15 -2.40562 4.5864 0
M  V30 46054 H 4150.83 -3.51329 2.25554 0
M  V30 46055 H 4152.22 -2.60452 6.19366 0
M  V30 46056 N 4154.94 -1.42722 -0.668439 0
M  V30 46057 C 4155.87 -1.49492 -1.79372 0
M  V30 46058 C 4156.85 -0.35091 -1.66441 0
M  V30 46059 O 4158.04 -0.566082 -1.85766 0
M  V30 46060 C 4155.17 -1.40278 -3.17709 0
M  V30 46061 C 4154.12 -2.52772 -3.45384 0
M  V30 46062 C 4153.45 -2.28615 -4.83363 0
M  V30 46063 C 4154.75 -3.95067 -3.41643 0
M  V30 46064 H 4156.44 -2.43674 -1.73964 0
M  V30 46065 H 4153.99 -1.17281 -0.835527 0
M  V30 46066 H 4155.94 -1.43621 -3.9617 0
M  V30 46067 H 4154.66 -0.425939 -3.23811 0
M  V30 46068 H 4153.32 -2.48757 -2.69287 0
M  V30 46069 H 4152.97 -1.29209 -4.86121 0
M  V30 46070 H 4152.67 -3.04014 -5.02841 0
M  V30 46071 H 4154.19 -2.33717 -5.641 0
M  V30 46072 H 4155.61 -4.00651 -4.10063 0
M  V30 46073 H 4154 -4.70368 -3.72657 0
M  V30 46074 H 4155.07 -4.21285 -2.40098 0
M  V30 46075 N 4156.42 0.905358 -1.29 0
M  V30 46076 C 4157.64 1.69417 -1.19635 0
M  V30 46077 C 4158.07 1.86557 0.2404 0
M  V30 46078 O 4157.43 1.38179 1.17372 0
M  V30 46079 C 4157.47 3.05932 -1.90887 0
M  V30 46080 O 4156.58 3.93878 -1.22205 0
M  V30 46081 H 4155.92 0.518454 -0.414851 0
M  V30 46082 H 4158.45 1.13142 -1.7047 0
M  V30 46083 H 4158.46 3.56111 -1.99121 0
M  V30 46084 H 4157.13 2.92775 -2.95391 0
M  V30 46085 H 4155.71 3.52312 -1.22191 0
M  V30 46086 N 4157.9 1.11385 1.11495 0
M  V30 46087 C 4158.83 0.793866 2.19591 0
M  V30 46088 C 4159.81 -0.237529 1.68433 0
M  V30 46089 O 4160.99 -0.10113 1.93937 0
M  V30 46090 C 4158.12 0.23564 3.465 0
M  V30 46091 C 4157.08 1.19884 4.10867 0
M  V30 46092 C 4156.4 0.501352 5.32344 0
M  V30 46093 C 4157.7 2.5493 4.5586 0
M  V30 46094 H 4159.4 1.6977 2.46614 0
M  V30 46095 H 4156.94 0.817716 1.1853 0
M  V30 46096 H 4158.89 -0.000416201 4.214 0
M  V30 46097 H 4157.62 -0.703488 3.18934 0
M  V30 46098 H 4156.28 1.42052 3.3796 0
M  V30 46099 H 4155.93 -0.442564 5.01049 0
M  V30 46100 H 4155.63 1.14377 5.76361 0
M  V30 46101 H 4157.15 0.274075 6.09985 0
M  V30 46102 H 4158.56 2.36854 5.22085 0
M  V30 46103 H 4156.96 3.15148 5.10688 0
M  V30 46104 H 4158.03 3.14195 3.69336 0
M  V30 46105 N 4159.37 -1.2909 0.904076 0
M  V30 46106 C 4160.31 -2.26628 0.342416 0
M  V30 46107 C 4161.32 -1.54482 -0.513725 0
M  V30 46108 O 4162.51 -1.7542 -0.330173 0
M  V30 46109 C 4159.61 -3.3473 -0.530032 0
M  V30 46110 C 4158.78 -4.3636 0.301381 0
M  V30 46111 C 4157.84 -5.23775 -0.504599 0
M  V30 46112 O 4156.87 -5.69145 0.0794439 0
M  V30 46113 N 4158.07 -5.51569 -1.80975 0
M  V30 46114 H 4160.83 -2.7546 1.18076 0
M  V30 46115 H 4158.39 -1.4247 0.769016 0
M  V30 46116 H 4160.39 -3.90141 -1.07573 0
M  V30 46117 H 4158.96 -2.85681 -1.26907 0
M  V30 46118 H 4158.18 -3.80547 1.02848 0
M  V30 46119 H 4159.46 -5.01296 0.870615 0
M  V30 46120 H 4158.86 -5.16525 -2.30692 0
M  V30 46121 H 4157.42 -6.09778 -2.30248 0
M  V30 46122 N 4160.85 -0.66702 -1.42789 0
M  V30 46123 C 4161.76 0.0163893 -2.34594 0
M  V30 46124 C 4162.78 0.797294 -1.54658 0
M  V30 46125 O 4163.95 0.741393 -1.87257 0
M  V30 46126 C 4161.02 0.96141 -3.33103 0
M  V30 46127 C 4160.08 0.175904 -4.28939 0
M  V30 46128 C 4159.31 1.07591 -5.22743 0
M  V30 46129 O 4159.54 2.31537 -5.21293 0
M  V30 46130 O 4158.47 0.540896 -5.99465 0
M  V30 46131 H 4162.3 -0.73963 -2.94556 0
M  V30 46132 H 4159.88 -0.427233 -1.43161 0
M  V30 46133 H 4161.76 1.50413 -3.93642 0
M  V30 46134 H 4160.44 1.69742 -2.75626 0
M  V30 46135 H 4159.34 -0.410732 -3.71838 0
M  V30 46136 H 4160.68 -0.520823 -4.89437 0
M  V30 46137 N 4162.33 1.52178 -0.409833 0
M  V30 46138 C 4163.26 2.29937 0.406381 0
M  V30 46139 C 4164.24 1.34176 1.0455 0
M  V30 46140 O 4165.43 1.63084 1.05438 0
M  V30 46141 C 4162.56 3.12129 1.52291 0
M  V30 46142 C 4161.51 4.15942 1.00876 0
M  V30 46143 C 4160.84 4.86484 2.21894 0
M  V30 46144 C 4162.14 5.22263 0.0623078 0
M  V30 46145 H 4163.83 2.98417 -0.242458 0
M  V30 46146 H 4161.38 1.43515 -0.118048 0
M  V30 46147 H 4163.33 3.65294 2.10091 0
M  V30 46148 H 4162.05 2.41419 2.19964 0
M  V30 46149 H 4160.71 3.63788 0.453165 0
M  V30 46150 H 4160.36 4.12303 2.88123 0
M  V30 46151 H 4160.06 5.56665 1.88144 0
M  V30 46152 H 4161.58 5.42462 2.80298 0
M  V30 46153 H 4163 5.70664 0.549122 0
M  V30 46154 H 4161.39 5.9981 -0.186422 0
M  V30 46155 H 4162.46 4.76797 -0.882757 0
M  V30 46156 N 4163.81 0.140278 1.56974 0
M  V30 46157 C 4164.74 -0.798195 2.19434 0
M  V30 46158 C 4165.72 -1.26194 1.14057 0
M  V30 46159 O 4166.9 -1.32072 1.42375 0
M  V30 46160 C 4164.03 -2.04013 2.81062 0
M  V30 46161 C 4162.99 -1.7134 3.92207 0
M  V30 46162 C 4162.31 -3.02741 4.40741 0
M  V30 46163 C 4163.61 -0.965237 5.13303 0
M  V30 46164 H 4165.31 -0.277664 2.9811 0
M  V30 46165 H 4162.85 -0.132112 1.43393 0
M  V30 46166 H 4164.81 -2.70141 3.23422 0
M  V30 46167 H 4163.53 -2.58427 1.99708 0
M  V30 46168 H 4162.19 -1.07593 3.50456 0
M  V30 46169 H 4161.84 -3.55132 3.56217 0
M  V30 46170 H 4161.54 -2.81645 5.15703 0
M  V30 46171 H 4163.06 -3.69951 4.85766 0
M  V30 46172 H 4164.48 -1.52847 5.52549 0
M  V30 46173 H 4162.87 -0.85447 5.93986 0
M  V30 46174 H 4163.94 0.044254 4.8488 0
M  V30 46175 N 4165.29 -1.57033 -0.133512 0
M  V30 46176 C 4166.53 -1.84354 -0.845077 0
M  V30 46177 C 4166.86 -0.723896 -1.80204 0
M  V30 46178 O 4166.14 0.271451 -1.92596 0
M  V30 46179 C 4166.42 -3.22217 -1.60774 0
M  V30 46180 C 4166.28 -4.44762 -0.671359 0
M  V30 46181 C 4167.59 -3.57466 -2.56722 0
M  V30 46182 H 4164.71 -0.670577 -0.305771 0
M  V30 46183 H 4167.36 -1.89683 -0.109791 0
M  V30 46184 H 4165.51 -3.17805 -2.23455 0
M  V30 46185 H 4167.18 -4.61268 -0.0545112 0
M  V30 46186 H 4165.42 -4.33796 0.0181452 0
M  V30 46187 H 4166.09 -5.37862 -1.24132 0
M  V30 46188 H 4168.57 -3.62575 -2.04153 0
M  V30 46189 H 4167.44 -4.54934 -3.07125 0
M  V30 46190 H 4167.7 -2.84125 -3.38712 0
M  V30 46191 N 4166.76 0.403271 -1.52353 0
M  V30 46192 C 4168.01 1.14808 -1.67901 0
M  V30 46193 C 4168.36 1.88051 -0.406787 0
M  V30 46194 O 4167.66 1.81996 0.599006 0
M  V30 46195 C 4167.85 2.1651 -2.84356 0
M  V30 46196 C 4167.68 1.53255 -4.2278 0
M  V30 46197 C 4166.45 1.30274 -4.88218 0
M  V30 46198 C 4168.65 0.990288 -5.04676 0
M  V30 46199 N 4166.63 0.629739 -6.10662 0
M  V30 46200 C 4168 0.444535 -6.18404 0
M  V30 46201 C 4170.06 0.885317 -4.89966 0
M  V30 46202 C 4168.76 -0.195907 -7.19033 0
M  V30 46203 C 4170.79 0.258719 -5.90834 0
M  V30 46204 C 4170.15 -0.27633 -7.03858 0
M  V30 46205 H 4166.25 0.40658 -0.667995 0
M  V30 46206 H 4168.83 0.439626 -1.89672 0
M  V30 46207 H 4167 2.84708 -2.6419 0
M  V30 46208 H 4168.73 2.83395 -2.88911 0
M  V30 46209 H 4165.49 1.57386 -4.46684 0
M  V30 46210 H 4165.91 0.309693 -6.76291 0
M  V30 46211 H 4170.55 1.2848 -4.02806 0
M  V30 46212 H 4168.27 -0.607434 -8.05814 0
M  V30 46213 H 4171.86 0.178938 -5.81525 0
M  V30 46214 H 4170.74 -0.753543 -7.80571 0
M  V30 46215 N 4168.24 1.43075 0.66086 0
M  V30 46216 C 4169.17 1.50441 1.78577 0
M  V30 46217 C 4170.15 0.359732 1.66253 0
M  V30 46218 O 4171.34 0.575926 1.85464 0
M  V30 46219 C 4168.47 1.41961 3.16961 0
M  V30 46220 C 4167.42 2.546 3.44039 0
M  V30 46221 C 4166.75 2.31175 4.82143 0
M  V30 46222 C 4168.05 3.96873 3.39543 0
M  V30 46223 H 4169.74 2.44593 1.72669 0
M  V30 46224 H 4167.29 1.17723 0.829296 0
M  V30 46225 H 4169.24 1.4572 3.95403 0
M  V30 46226 H 4167.96 0.443105 3.2358 0
M  V30 46227 H 4166.62 2.50181 2.67964 0
M  V30 46228 H 4166.27 1.31785 4.85429 0
M  V30 46229 H 4165.97 3.06676 5.01222 0
M  V30 46230 H 4167.5 2.36705 5.62853 0
M  V30 46231 H 4168.91 4.0282 4.07933 0
M  V30 46232 H 4167.31 4.72338 3.70158 0
M  V30 46233 H 4168.38 4.22552 2.37861 0
M  V30 46234 N 4169.72 -0.898504 1.29478 0
M  V30 46235 C 4170.65 -2.00795 1.10517 0
M  V30 46236 C 4171.67 -1.62716 0.0523282 0
M  V30 46237 O 4172.85 -1.76012 0.296972 0
M  V30 46238 C 4169.95 -3.32401 0.660492 0
M  V30 46239 C 4169.13 -3.99001 1.79212 0
M  V30 46240 C 4168.19 -5.08898 1.33825 0
M  V30 46241 O 4167.21 -5.31266 2.04317 0
M  V30 46242 N 4168.41 -5.80121 0.209794 0
M  V30 46243 H 4171.18 -2.17615 2.06067 0
M  V30 46244 H 4168.74 -1.07076 1.21434 0
M  V30 46245 H 4170.73 -4.03268 0.340146 0
M  V30 46246 H 4169.3 -3.11943 -0.202585 0
M  V30 46247 H 4168.52 -3.21483 2.28128 0
M  V30 46248 H 4169.81 -4.40239 2.55082 0
M  V30 46249 H 4169.21 -5.64436 -0.377899 0
M  V30 46250 H 4167.77 -6.5178 -0.0511777 0
M  V30 46251 N 4171.2 -1.11974 -1.10903 0
M  V30 46252 C 4172.13 -0.8055 -2.19166 0
M  V30 46253 C 4173.11 0.228593 -1.68557 0
M  V30 46254 O 4174.29 0.0908437 -1.93987 0
M  V30 46255 C 4171.42 -0.254012 -3.4637 0
M  V30 46256 C 4170.38 -1.22061 -4.10226 0
M  V30 46257 C 4169.7 -0.529577 -5.32071 0
M  V30 46258 C 4171 -2.57344 -4.54501 0
M  V30 46259 H 4172.7 -1.71076 -2.4571 0
M  V30 46260 H 4170.24 -0.82399 -1.18095 0
M  V30 46261 H 4172.2 -0.0219317 -4.21394 0
M  V30 46262 H 4170.92 0.686564 -3.19302 0
M  V30 46263 H 4169.58 -1.43842 -3.37202 0
M  V30 46264 H 4169.23 0.415986 -5.01277 0
M  V30 46265 H 4168.93 -1.17432 -5.75746 0
M  V30 46266 H 4170.45 -0.30642 -6.09831 0
M  V30 46267 H 4171.87 -2.3962 -5.20822 0
M  V30 46268 H 4170.26 -3.17851 -5.09009 0
M  V30 46269 H 4171.33 -3.16149 -3.67665 0
M  V30 46270 N 4172.68 1.28609 -0.910909 0
M  V30 46271 C 4173.62 2.27384 -0.395615 0
M  V30 46272 C 4174.59 1.57472 0.528387 0
M  V30 46273 O 4175.78 1.85388 0.4512 0
M  V30 46274 C 4172.92 3.43209 0.360794 0
M  V30 46275 C 4172.03 4.27878 -0.595386 0
M  V30 46276 C 4171.17 5.30898 0.179188 0
M  V30 46277 C 4170.21 6.07227 -0.770791 0
M  V30 46278 N 4169.34 7.02094 -0.0299152 0
M  V30 46279 H 4174.18 2.70839 -1.24298 0
M  V30 46280 H 4171.72 1.33198 -0.624241 0
M  V30 46281 H 4173.68 4.09152 0.815511 0
M  V30 46282 H 4172.31 3.00752 1.17253 0
M  V30 46283 H 4171.36 3.62004 -1.16863 0
M  V30 46284 H 4172.67 4.8096 -1.32209 0
M  V30 46285 H 4171.83 6.02711 0.694596 0
M  V30 46286 H 4170.56 4.78576 0.938966 0
M  V30 46287 H 4169.57 5.34268 -1.2976 0
M  V30 46288 H 4170.79 6.61638 -1.53008 0
M  V30 46289 H 4168.74 6.52125 0.711924 0
M  V30 46290 H 4168.66 7.52785 -0.696503 0
M  V30 46291 H 4169.93 7.78109 0.46539 0
M  V30 46292 N 4174.15 0.674583 1.42433 0
M  V30 46293 C 4175.43 0.125718 1.95196 0
M  V30 46294 C 4175.81 -1.35943 1.61501 0
M  V30 46295 O 4175.16 -2.09552 0.91106 0
M  V30 46296 C 4175.37 0.394631 3.46762 0
M  V30 46297 C 4176.72 0.311026 4.23459 0
M  V30 46298 O 4177.74 0.328367 3.54683 0
M  V30 46299 O 4176.6 0.253033 5.45914 0
M  V30 46300 H 4173.69 0.00274328 0.826995 0
M  V30 46301 H 4176.24 0.749298 1.52262 0
M  V30 46302 H 4175.01 1.42345 3.64491 0
M  V30 46303 H 4174.64 -0.260967 3.96743 0
M  V30 46304 N 4175.63 -1.51958 0.417898 0
M  V30 46305 C 4176.91 -1.94426 -0.214 0
M  V30 46306 C 4177.29 -1.35537 -1.61842 0
M  V30 46307 O 4176.64 -0.534645 -2.22157 0
M  V30 46308 C 4176.85 -3.48359 -0.211457 0
M  V30 46309 C 4178.2 -4.22452 -0.42654 0
M  V30 46310 O 4179.22 -3.55014 -0.290431 0
M  V30 46311 O 4178.08 -5.42055 -0.695587 0
M  V30 46312 H 4175.17 -0.814991 -0.140424 0
M  V30 46313 H 4177.72 -1.62932 0.474475 0
M  V30 46314 H 4176.49 -3.83626 0.771154 0
M  V30 46315 H 4176.11 -3.86239 -0.943663 0
M  V30 46316 N 4177.11 -0.1486 -1.56898 0
M  V30 46317 C 4178.02 0.803491 -2.20411 0
M  V30 46318 C 4179.04 1.2705 -1.18888 0
M  V30 46319 O 4180.21 1.32735 -1.51471 0
M  V30 46320 C 4177.28 2.02451 -2.81451 0
M  V30 46321 C 4176.34 1.60658 -3.98105 0
M  V30 46322 C 4175.57 2.7694 -4.56224 0
M  V30 46323 O 4175.79 3.93196 -4.13222 0
M  V30 46324 O 4174.73 2.5232 -5.4646 0
M  V30 46325 H 4178.55 0.292828 -3.02285 0
M  V30 46326 H 4176.14 0.0785037 -1.49194 0
M  V30 46327 H 4178.02 2.73905 -3.2024 0
M  V30 46328 H 4176.7 2.52467 -2.02589 0
M  V30 46329 H 4175.6 0.862223 -3.64028 0
M  V30 46330 H 4176.94 1.15357 -4.78491 0
M  V30 46331 N 4178.59 1.57102 0.125182 0
M  V30 46332 C 4179.52 2.02924 1.15517 0
M  V30 46333 C 4180.5 0.912584 1.43548 0
M  V30 46334 O 4181.68 1.18188 1.54095 0
M  V30 46335 C 4178.81 2.42833 2.48293 0
M  V30 46336 C 4177.77 3.57885 2.34738 0
M  V30 46337 C 4177.09 3.83676 3.72421 0
M  V30 46338 C 4178.39 4.89821 1.81308 0
M  V30 46339 H 4180.09 2.8922 0.774078 0
M  V30 46340 H 4177.63 1.39141 0.370911 0
M  V30 46341 H 4179.59 2.73493 3.20593 0
M  V30 46342 H 4178.31 1.535 2.8828 0
M  V30 46343 H 4176.97 3.27426 1.64888 0
M  V30 46344 H 4176.62 2.91557 4.09882 0
M  V30 46345 H 4176.32 4.61115 3.64206 0
M  V30 46346 H 4177.84 4.16781 4.46235 0
M  V30 46347 H 4179.26 5.19056 2.4342 0
M  V30 46348 H 4177.65 5.71218 1.83931 0
M  V30 46349 H 4178.72 4.78744 0.770207 0
M  V30 46350 N 4180.07 -0.395186 1.52565 0
M  V30 46351 C 4181.29 -1.16671 1.71472 0
M  V30 46352 C 4181.72 -1.83132 0.429446 0
M  V30 46353 O 4181.07 -1.70576 -0.614279 0
M  V30 46354 C 4181.12 -2.19508 2.86092 0
M  V30 46355 O 4180.23 -3.2596 2.52634 0
M  V30 46356 H 4179.57 -0.339937 0.570385 0
M  V30 46357 H 4182.1 -0.461376 1.9933 0
M  V30 46358 H 4182.11 -2.63607 3.11409 0
M  V30 46359 H 4180.78 -1.7052 3.79336 0
M  V30 46360 H 4179.36 -2.87042 2.38037 0
M  V30 46361 N 4181.54 -1.43423 -0.653263 0
M  V30 46362 C 4182.96 -1.26823 -0.968926 0
M  V30 46363 C 4183.16 -0.187918 -2.00622 0
M  V30 46364 O 4182.22 0.433666 -2.48748 0
M  V30 46365 C 4183.53 -2.63252 -1.45323 0
M  V30 46366 C 4185.08 -2.70783 -1.56988 0
M  V30 46367 C 4185.55 -4.0763 -2.0881 0
M  V30 46368 N 4187.04 -4.09695 -2.16112 0
M  V30 46369 C 4187.78 -5.12414 -2.57331 0
M  V30 46370 N 4187.27 -6.25507 -2.97847 0
M  V30 46371 N 4189.07 -4.99768 -2.5727 0
M  V30 46372 H 4181.22 -2.12374 0.0331305 0
M  V30 46373 H 4183.48 -0.946796 -0.0477601 0
M  V30 46374 H 4183.19 -3.43269 -0.765458 0
M  V30 46375 H 4183.06 -2.88644 -2.42826 0
M  V30 46376 H 4185.45 -1.91099 -2.24867 0
M  V30 46377 H 4185.53 -2.49157 -0.579184 0
M  V30 46378 H 4185.17 -4.87782 -1.41533 0
M  V30 46379 H 4185.1 -4.26621 -3.0871 0
M  V30 46380 H 4187.59 -3.28061 -1.87575 0
M  V30 46381 H 4187.91 -6.99717 -3.28048 0
M  V30 46382 H 4186.25 -6.2898 -2.95651 0
M  V30 46383 H 4189.44 -4.10482 -2.24994 0
M  V30 46384 H 4189.62 -5.7995 -2.89072 0
M  V30 46385 N 4183.02 0.891625 -1.29953 0
M  V30 46386 C 4183.95 2.00206 -1.1158 0
M  V30 46387 C 4184.97 1.62686 -0.0609567 0
M  V30 46388 O 4186.16 1.75852 -0.306302 0
M  V30 46389 C 4183.26 3.32046 -0.678111 0
M  V30 46390 C 4182.43 3.98045 -1.81325 0
M  V30 46391 C 4181.49 5.08181 -1.36522 0
M  V30 46392 O 4180.51 5.30175 -2.07132 0
M  V30 46393 N 4181.72 5.80001 -0.240557 0
M  V30 46394 H 4184.48 2.16519 -2.07218 0
M  V30 46395 H 4182.04 1.06431 -1.22 0
M  V30 46396 H 4184.03 4.03082 -0.361527 0
M  V30 46397 H 4182.6 3.12046 0.186039 0
M  V30 46398 H 4181.82 3.20268 -2.2983 0
M  V30 46399 H 4183.11 4.3888 -2.57414 0
M  V30 46400 H 4182.51 5.64629 0.34796 0
M  V30 46401 H 4181.07 6.51798 0.0166115 0
M  V30 46402 N 4184.5 1.12561 1.10308 0
M  V30 46403 C 4185.46 0.797768 2.14868 0
M  V30 46404 C 4186.46 -0.188493 1.59691 0
M  V30 46405 O 4187.65 0.0374636 1.7416 0
M  V30 46406 C 4184.79 0.185725 3.40394 0
M  V30 46407 H 4185.98 1.72419 2.45381 0
M  V30 46408 H 4183.53 0.929033 1.25693 0
M  V30 46409 H 4184.27 -0.750354 3.155 0
M  V30 46410 H 4184.05 0.895838 3.81729 0
M  V30 46411 H 4185.54 -0.0271114 4.17591 0
M  V30 46412 N 4185.98 -1.28124 0.917717 0
M  V30 46413 C 4187.39 -1.76833 0.598916 0
M  V30 46414 C 4187.74 -1.75064 -0.885826 0
M  V30 46415 O 4186.87 -1.34781 -1.69301 0
M  V30 46416 C 4187.46 -3.21111 1.08042 0
M  V30 46417 C 4186.02 -3.67527 0.812466 0
M  V30 46418 C 4185.17 -2.47787 1.24487 0
M  V30 46419 H 4188.12 -1.14531 1.09856 0
M  V30 46420 H 4188.14 -3.78134 0.423621 0
M  V30 46421 H 4187.65 -3.22366 2.16106 0
M  V30 46422 H 4185.75 -3.71728 -0.254793 0
M  V30 46423 H 4185.87 -4.5748 1.42299 0
M  V30 46424 H 4184.23 -2.45905 0.663553 0
M  V30 46425 H 4185.01 -2.51758 2.33394 0
M  V30 46426 N 4187.46 -0.682127 -1.42073 0
M  V30 46427 C 4188.71 -0.204616 -2.00659 0
M  V30 46428 C 4189.02 1.1983 -1.54597 0
M  V30 46429 O 4190.23 1.77257 -2.05651 0
M  V30 46430 C 4188.68 -0.314943 -3.58519 0
M  V30 46431 C 4188.29 -1.72237 -4.13568 0
M  V30 46432 C 4190.03 0.103481 -4.24374 0
M  V30 46433 C 4187.94 -1.78507 -5.63817 0
M  V30 46434 H 4186.87 -0.0727385 -0.750483 0
M  V30 46435 H 4189.52 -0.848374 -1.62711 0
M  V30 46436 H 4187.9 0.396836 -3.94007 0
M  V30 46437 H 4189.08 -2.46182 -3.89526 0
M  V30 46438 H 4187.39 -2.08929 -3.60191 0
M  V30 46439 H 4189.99 0.0768849 -5.34645 0
M  V30 46440 H 4190.33 1.13998 -4.00387 0
M  V30 46441 H 4190.87 -0.557546 -3.93873 0
M  V30 46442 H 4187.6 -2.80164 -5.92612 0
M  V30 46443 H 4187.12 -1.08928 -5.89826 0
M  V30 46444 H 4188.8 -1.54183 -6.2836 0
M  V30 46445 N 4188.94 1.51735 -0.425951 0
M  V30 46446 C 4190.18 2.01586 0.144022 0
M  V30 46447 C 4190.5 1.31266 1.44202 0
M  V30 46448 O 4189.77 0.443695 1.90809 0
M  V30 46449 H 4188.35 0.744882 0.0562133 0
M  V30 46450 H 4191.02 1.86499 -0.566049 0
M  V30 46451 H 4190.11 3.10371 0.328106 0
M  V30 46452 N 4190.41 0.156919 1.56817 0
M  V30 46453 C 4191.66 -0.49073 1.96052 0
M  V30 46454 C 4191.98 -1.64744 1.04329 0
M  V30 46455 O 4191.25 -1.95609 0.10677 0
M  V30 46456 H 4189.83 -0.18428 0.723913 0
M  V30 46457 H 4192.49 0.234738 1.93481 0
M  V30 46458 H 4191.59 -0.860307 3.00009 0
M  V30 46459 N 4191.89 -1.57166 -0.116849 0
M  V30 46460 C 4193.17 -1.75939 -0.854684 0
M  V30 46461 C 4193.55 -0.732943 -1.97968 0
M  V30 46462 O 4192.9 0.242698 -2.27207 0
M  V30 46463 C 4193.11 -3.21012 -1.36938 0
M  V30 46464 C 4194.45 -3.83575 -1.82086 0
M  V30 46465 O 4195.48 -3.24628 -1.46612 0
M  V30 46466 O 4194.34 -4.8719 -2.47605 0
M  V30 46467 H 4191.43 -0.72046 -0.406038 0
M  V30 46468 H 4193.98 -1.69403 -0.100422 0
M  V30 46469 H 4192.75 -3.87238 -0.562342 0
M  V30 46470 H 4192.37 -3.32095 -2.18629 0
M  V30 46471 N 4193.37 0.38709 -1.52772 0
M  V30 46472 C 4194.62 1.13193 -1.67909 0
M  V30 46473 C 4194.94 1.89912 -0.41998 0
M  V30 46474 O 4194.2 1.8635 0.597667 0
M  V30 46475 C 4194.5 2.13482 -2.86636 0
M  V30 46476 C 4194.16 1.53407 -4.24001 0
M  V30 46477 C 4192.83 1.36749 -4.6136 0
M  V30 46478 C 4195.18 1.09747 -5.09514 0
M  V30 46479 C 4192.51 0.749825 -5.81889 0
M  V30 46480 C 4194.86 0.493901 -6.30669 0
M  V30 46481 C 4193.52 0.314638 -6.66758 0
M  V30 46482 H 4192.79 0.414204 -0.614424 0
M  V30 46483 H 4195.44 0.416329 -1.8692 0
M  V30 46484 H 4193.74 2.91268 -2.6205 0
M  V30 46485 H 4195.44 2.71027 -2.95543 0
M  V30 46486 H 4192.03 1.6736 -3.94574 0
M  V30 46487 H 4196.22 1.21418 -4.81219 0
M  V30 46488 H 4191.47 0.599152 -6.08457 0
M  V30 46489 H 4195.65 0.147307 -6.96244 0
M  V30 46490 H 4193.27 -0.166058 -7.60019 0
M  V30 46491 N 4194.85 1.43768 0.645648 0
M  V30 46492 C 4196.26 1.40719 1.22699 0
M  V30 46493 C 4196.61 0.1151 1.95862 0
M  V30 46494 O 4195.73 -0.785161 2.01654 0
M  V30 46495 C 4196.33 2.54913 2.2317 0
M  V30 46496 C 4194.89 2.55105 2.76764 0
M  V30 46497 C 4194.04 2.3224 1.51526 0
M  V30 46498 H 4196.99 1.52559 0.4372 0
M  V30 46499 H 4197.01 2.26835 3.05493 0
M  V30 46500 H 4196.52 3.48939 1.69892 0
M  V30 46501 H 4194.62 1.6498 3.34084 0
M  V30 46502 H 4194.73 3.53122 3.23793 0
M  V30 46503 H 4193.1 1.81052 1.79143 0
M  V30 46504 H 4193.88 3.2836 1.00172 0
M  V30 46505 N 4196.33 -0.884721 1.30424 0
M  V30 46506 C 4197.29 -1.97202 1.16807 0
M  V30 46507 C 4198.29 -1.60493 0.0992385 0
M  V30 46508 O 4199.48 -1.70701 0.34737 0
M  V30 46509 C 4196.61 -3.31629 0.789633 0
M  V30 46510 H 4197.8 -2.10709 2.13405 0
M  V30 46511 H 4195.36 -1.07115 1.13824 0
M  V30 46512 H 4196.09 -3.23823 -0.175831 0
M  V30 46513 H 4195.88 -3.59641 1.56207 0
M  V30 46514 H 4197.37 -4.11384 0.717841 0
M  V30 46515 N 4197.8 -1.13144 -1.09709 0
M  V30 46516 C 4199.05 -0.892707 -1.82095 0
M  V30 46517 C 4199.38 0.579814 -1.85342 0
M  V30 46518 O 4198.66 1.42894 -1.31952 0
M  V30 46519 C 4198.94 -1.47758 -3.28389 0
M  V30 46520 C 4198.79 -3.01901 -3.33431 0
M  V30 46521 C 4200.11 -1.14336 -4.24989 0
M  V30 46522 H 4197.23 -0.325743 -0.661105 0
M  V30 46523 H 4199.87 -1.39926 -1.28533 0
M  V30 46524 H 4198.02 -1.04677 -3.74132 0
M  V30 46525 H 4199.7 -3.53716 -2.96113 0
M  V30 46526 H 4197.94 -3.37042 -2.73103 0
M  V30 46527 H 4198.61 -3.37922 -4.36478 0
M  V30 46528 H 4201.09 -1.51558 -3.87517 0
M  V30 46529 H 4199.96 -1.57911 -5.25695 0
M  V30 46530 H 4200.22 -0.056636 -4.42064 0
M  V30 46531 N 4199.28 1.27635 -0.924498 0
M  V30 46532 C 4200.21 2.26054 -0.378427 0
M  V30 46533 C 4201.23 1.5528 0.489083 0
M  V30 46534 O 4202.42 1.75923 0.302224 0
M  V30 46535 C 4199.52 3.3553 0.476712 0
M  V30 46536 C 4198.69 4.35826 -0.370764 0
M  V30 46537 C 4197.75 5.24511 0.421207 0
M  V30 46538 O 4196.77 5.68946 -0.16998 0
M  V30 46539 N 4197.98 5.54378 1.72177 0
M  V30 46540 H 4200.74 2.73547 -1.22443 0
M  V30 46541 H 4198.3 1.41229 -0.791584 0
M  V30 46542 H 4200.29 3.91803 1.01352 0
M  V30 46543 H 4198.86 2.87663 1.22346 0
M  V30 46544 H 4198.08 3.78862 -1.08889 0
M  V30 46545 H 4199.37 4.99848 -0.950256 0
M  V30 46546 H 4198.77 5.20129 2.22445 0
M  V30 46547 H 4197.33 6.13364 2.20518 0
M  V30 46548 N 4200.76 0.689652 1.41709 0
M  V30 46549 C 4201.71 0.0205956 2.30791 0
M  V30 46550 C 4202.68 -0.777421 1.46783 0
M  V30 46551 O 4203.86 -0.746657 1.75584 0
M  V30 46552 C 4201 -0.91409 3.32774 0
M  V30 46553 C 4200.12 -0.108318 4.31864 0
M  V30 46554 C 4199.25 -1.04011 5.20918 0
M  V30 46555 C 4198.29 -0.226892 6.11679 0
M  V30 46556 N 4197.43 -1.11217 6.93235 0
M  V30 46557 H 4202.27 0.786021 2.87447 0
M  V30 46558 H 4199.8 0.399338 1.41576 0
M  V30 46559 H 4201.76 -1.46999 3.90445 0
M  V30 46560 H 4200.39 -1.64598 2.77682 0
M  V30 46561 H 4199.44 0.564414 3.76189 0
M  V30 46562 H 4200.76 0.5224 4.96057 0
M  V30 46563 H 4199.91 -1.66543 5.83394 0
M  V30 46564 H 4198.65 -1.70469 4.56937 0
M  V30 46565 H 4197.65 0.411545 5.48258 0
M  V30 46566 H 4198.88 0.43381 6.77713 0
M  V30 46567 H 4196.82 -1.76288 6.31869 0
M  V30 46568 H 4196.74 -0.536885 7.54091 0
M  V30 46569 H 4198.01 -1.72449 7.60185 0
M  V30 46570 N 4202.24 -1.51507 0.433991 0
M  V30 46571 C 4203.17 -2.25414 -0.41489 0
M  V30 46572 C 4204.18 -1.29304 -0.989153 0
M  V30 46573 O 4205.37 -1.55081 -0.883862 0
M  V30 46574 C 4202.47 -2.99179 -1.59202 0
M  V30 46575 C 4201.65 -4.22357 -1.13723 0
M  V30 46576 C 4200.7 -4.78731 -2.1841 0
M  V30 46577 O 4199.73 -5.40658 -1.77981 0
M  V30 46578 N 4200.93 -4.62471 -3.50858 0
M  V30 46579 H 4203.7 -2.98902 0.218527 0
M  V30 46580 H 4201.26 -1.59755 0.262698 0
M  V30 46581 H 4203.25 -3.3378 -2.28851 0
M  V30 46582 H 4201.82 -2.28722 -2.13085 0
M  V30 46583 H 4201.04 -3.93288 -0.267928 0
M  V30 46584 H 4202.33 -5.023 -0.810711 0
M  V30 46585 H 4201.73 -4.13137 -3.86438 0
M  V30 46586 H 4200.28 -5.01443 -4.16411 0
M  V30 46587 N 4203.72 -0.165233 -1.56731 0
M  V30 46588 C 4204.66 0.784377 -2.18976 0
M  V30 46589 C 4205.66 1.24198 -1.15201 0
M  V30 46590 O 4206.86 1.20834 -1.33413 0
M  V30 46591 H 4203.24 0.271208 -0.701392 0
M  V30 46592 H 4205.21 0.235383 -2.9747 0
M  V30 46593 C 4203.96 2.00598 -2.83999 0
M  V30 46594 H 4203.28 1.66288 -3.63577 0
M  V30 46595 H 4204.72 2.64944 -3.31029 0
M  V30 46596 C 4203.18 2.82571 -1.83453 0
M  V30 46597 O 4203.71 3.79524 -1.31624 0
M  V30 46598 N 4201.92 2.47465 -1.52347 0
M  V30 46599 H 4201.46 1.68685 -1.94687 0
M  V30 46600 H 4201.42 3.02601 -0.853237 0
M  V30 46601 N 4205.19 1.57226 0.108512 0
M  V30 46602 C 4206.47 1.7639 0.845341 0
M  V30 46603 C 4206.85 0.743432 1.97576 0
M  V30 46604 O 4206.2 -0.230645 2.27333 0
M  V30 46605 C 4206.41 3.21734 1.35234 0
M  V30 46606 C 4207.76 3.84535 1.8005 0
M  V30 46607 O 4208.78 3.25401 1.44889 0
M  V30 46608 O 4207.64 4.88496 2.45018 0
M  V30 46609 H 4204.73 0.722603 0.402211 0
M  V30 46610 H 4207.28 1.69453 0.0914364 0
M  V30 46611 H 4206.05 3.87531 0.541798 0
M  V30 46612 H 4205.68 3.3325 2.16865 0
M  V30 46613 N 4206.67 -0.378982 1.52975 0
M  V30 46614 C 4207.92 -1.12468 1.68757 0
M  V30 46615 C 4208.25 -1.89351 0.431276 0
M  V30 46616 O 4207.53 -1.85924 -0.571171 0
M  V30 46617 C 4207.81 -2.0948 2.92899 0
M  V30 46618 C 4207.66 -1.36295 4.28654 0
M  V30 46619 C 4208.98 -3.09779 3.1261 0
M  V30 46620 H 4206.1 -0.407494 0.614099 0
M  V30 46621 H 4208.74 -0.40694 1.85591 0
M  V30 46622 H 4206.89 -2.70686 2.78678 0
M  V30 46623 H 4208.56 -0.779761 4.54662 0
M  V30 46624 H 4206.81 -0.664776 4.28676 0
M  V30 46625 H 4207.48 -2.07232 5.11624 0
M  V30 46626 H 4209.95 -2.5867 3.25928 0
M  V30 46627 H 4208.83 -3.74894 4.00931 0
M  V30 46628 H 4209.09 -3.79205 2.27279 0
M  V30 46629 N 4208.15 -1.44108 -0.638015 0
M  V30 46630 C 4209.1 -1.46882 -1.74384 0
M  V30 46631 C 4210.08 -0.335415 -1.57365 0
M  V30 46632 O 4211.28 -0.580252 -1.67219 0
M  V30 46633 C 4208.41 -1.40924 -3.13042 0
M  V30 46634 C 4207.49 -2.59353 -3.35555 0
M  V30 46635 N 4207.88 -3.84634 -3.28466 0
M  V30 46636 C 4206.18 -2.54402 -3.66327 0
M  V30 46637 C 4206.88 -4.63506 -3.51479 0
M  V30 46638 N 4205.86 -3.94472 -3.74023 0
M  V30 46639 H 4209.66 -2.416 -1.67351 0
M  V30 46640 H 4207.17 -1.38974 -0.840237 0
M  V30 46641 H 4209.17 -1.40995 -3.92334 0
M  V30 46642 H 4207.83 -0.472385 -3.21245 0
M  V30 46643 H 4208.84 -4.16702 -3.07538 0
M  V30 46644 H 4205.52 -1.69478 -3.81554 0
M  V30 46645 H 4206.91 -5.72532 -3.51649 0
M  V30 46646 N 4209.63 0.877792 -1.30891 0
M  V30 46647 C 4211.04 1.16226 -1.09379 0
M  V30 46648 C 4211.24 2.01007 0.140818 0
M  V30 46649 O 4210.3 2.38385 0.832388 0
M  V30 46650 C 4211.61 1.86197 -2.36117 0
M  V30 46651 C 4213.16 1.98931 -2.41651 0
M  V30 46652 C 4213.64 2.72316 -3.6825 0
M  V30 46653 N 4215.13 2.79857 -3.69099 0
M  V30 46654 C 4215.86 3.37231 -4.63749 0
M  V30 46655 N 4215.36 3.95597 -5.68748 0
M  V30 46656 N 4217.15 3.35114 -4.51281 0
M  V30 46657 H 4209.3 0.312656 -2.10086 0
M  V30 46658 H 4211.57 0.201085 -0.926428 0
M  V30 46659 H 4211.27 1.31347 -3.26253 0
M  V30 46660 H 4211.15 2.86531 -2.45316 0
M  V30 46661 H 4213.53 2.52949 -1.51989 0
M  V30 46662 H 4213.61 0.976633 -2.36422 0
M  V30 46663 H 4213.26 2.18968 -4.58274 0
M  V30 46664 H 4213.19 3.73975 -3.70743 0
M  V30 46665 H 4215.68 2.38425 -2.93193 0
M  V30 46666 H 4215.99 4.37464 -6.3706 0
M  V30 46667 H 4214.34 3.93996 -5.72532 0
M  V30 46668 H 4217.53 2.88749 -3.68431 0
M  V30 46669 H 4217.7 3.79531 -5.25224 0
M  V30 46670 N 4211.11 1.13725 1.09108 0
M  V30 46671 C 4212.07 0.820513 2.1401 0
M  V30 46672 C 4213.07 -0.171545 1.59882 0
M  V30 46673 O 4214.26 0.0559335 1.7411 0
M  V30 46674 C 4211.39 0.221818 3.40178 0
M  V30 46675 H 4212.58 1.75012 2.43538 0
M  V30 46676 H 4210.14 0.942312 1.247 0
M  V30 46677 H 4210.87 -0.716848 3.16278 0
M  V30 46678 H 4210.66 0.936275 3.80758 0
M  V30 46679 H 4212.15 0.0171813 4.17596 0
M  V30 46680 N 4212.58 -1.27143 0.931254 0
M  V30 46681 C 4213.83 -1.94207 0.573561 0
M  V30 46682 C 4214.16 -1.7316 -0.885767 0
M  V30 46683 O 4213.41 -1.05601 -1.64764 0
M  V30 46684 C 4213.71 -3.47142 0.850142 0
M  V30 46685 C 4213.38 -3.88315 2.29177 0
M  V30 46686 C 4212.04 -3.99267 2.68588 0
M  V30 46687 C 4214.39 -4.09119 3.2291 0
M  V30 46688 C 4211.72 -4.28413 4.00848 0
M  V30 46689 C 4214.07 -4.39751 4.54755 0
M  V30 46690 C 4212.74 -4.48916 4.93995 0
M  V30 46691 H 4212.01 -0.710655 0.209881 0
M  V30 46692 H 4214.65 -1.51146 1.17589 0
M  V30 46693 H 4212.96 -3.91452 0.165176 0
M  V30 46694 H 4214.66 -3.97178 0.552303 0
M  V30 46695 H 4211.25 -3.8033 1.97603 0
M  V30 46696 H 4215.43 -4.00095 2.93663 0
M  V30 46697 H 4210.69 -4.33718 4.30927 0
M  V30 46698 H 4214.86 -4.54795 5.27385 0
M  V30 46699 H 4212.49 -4.71254 5.96509 0
M  V30 46700 N 4214.06 -0.697157 -1.41342 0
M  V30 46701 C 4215.01 -0.0328347 -2.30777 0
M  V30 46702 C 4215.98 0.769626 -1.47194 0
M  V30 46703 O 4217.17 0.737335 -1.75977 0
M  V30 46704 C 4214.31 0.89643 -3.33254 0
M  V30 46705 C 4213.42 0.085414 -4.31916 0
M  V30 46706 C 4212.55 1.01247 -5.21462 0
M  V30 46707 C 4211.59 0.19445 -6.11791 0
M  V30 46708 N 4210.73 1.07539 -6.93815 0
M  V30 46709 H 4215.57 -0.801254 -2.87026 0
M  V30 46710 H 4213.11 -0.40684 -1.41362 0
M  V30 46711 H 4215.06 1.44926 -3.91219 0
M  V30 46712 H 4213.69 1.63123 -2.78551 0
M  V30 46713 H 4212.75 -0.584356 -3.75885 0
M  V30 46714 H 4214.06 -0.548699 -4.95773 0
M  V30 46715 H 4213.21 1.63447 -5.84269 0
M  V30 46716 H 4211.95 1.68043 -4.57835 0
M  V30 46717 H 4210.96 -0.440615 -5.48032 0
M  V30 46718 H 4212.18 -0.469745 -6.77473 0
M  V30 46719 H 4210.13 1.72935 -6.32795 0
M  V30 46720 H 4210.04 0.496886 -7.54365 0
M  V30 46721 H 4211.31 1.68415 -7.61089 0
M  V30 46722 N 4215.54 1.51274 -0.44202 0
M  V30 46723 C 4216.96 1.5932 -0.0945607 0
M  V30 46724 C 4217.16 1.45258 1.3965 0
M  V30 46725 O 4216.21 1.2962 2.16691 0
M  V30 46726 C 4217.53 2.94263 -0.618847 0
M  V30 46727 C 4219.07 3.07585 -0.5797 0
M  V30 46728 C 4219.55 4.45059 -1.08104 0
M  V30 46729 N 4221.04 4.51392 -1.03922 0
M  V30 46730 C 4221.78 5.56098 -1.39796 0
M  V30 46731 N 4221.27 6.682 -1.82977 0
M  V30 46732 N 4223.06 5.46482 -1.31582 0
M  V30 46733 H 4215.22 1.58659 -1.41213 0
M  V30 46734 H 4217.48 0.748166 -0.582195 0
M  V30 46735 H 4217.18 3.09938 -1.66227 0
M  V30 46736 H 4217.06 3.77172 -0.0463314 0
M  V30 46737 H 4219.45 2.91575 0.45475 0
M  V30 46738 H 4219.53 2.26504 -1.18867 0
M  V30 46739 H 4219.17 4.61815 -2.11398 0
M  V30 46740 H 4219.1 5.24686 -0.448558 0
M  V30 46741 H 4221.59 3.70935 -0.722169 0
M  V30 46742 H 4221.9 7.44121 -2.08574 0
M  V30 46743 H 4220.25 6.69396 -1.86907 0
M  V30 46744 H 4223.44 4.57789 -0.977098 0
M  V30 46745 H 4223.61 6.2797 -1.59868 0
M  V30 46746 N 4217.02 0.173543 1.56642 0
M  V30 46747 C 4217.93 -0.768324 2.21662 0
M  V30 46748 C 4218.95 -1.25142 1.20894 0
M  V30 46749 O 4220.12 -1.30308 1.53563 0
M  V30 46750 C 4217.19 -1.97948 2.84636 0
M  V30 46751 C 4216.25 -1.54305 4.0061 0
M  V30 46752 C 4215.48 -2.69647 4.60572 0
M  V30 46753 O 4215.7 -3.86573 4.19425 0
M  V30 46754 O 4214.64 -2.43594 5.50405 0
M  V30 46755 H 4218.46 -0.2447 3.02713 0
M  V30 46756 H 4216.05 -0.0547584 1.493 0
M  V30 46757 H 4217.93 -2.68776 3.24557 0
M  V30 46758 H 4216.61 -2.49212 2.0658 0
M  V30 46759 H 4215.51 -0.8042 3.65354 0
M  V30 46760 H 4216.85 -1.0773 4.80266 0
M  V30 46761 N 4218.5 -1.57281 -0.100172 0
M  V30 46762 C 4219.43 -2.04736 -1.12274 0
M  V30 46763 C 4220.41 -0.935306 -1.42078 0
M  V30 46764 O 4221.59 -1.20625 -1.52195 0
M  V30 46765 C 4218.72 -2.46753 -2.44398 0
M  V30 46766 C 4217.68 -3.61575 -2.29015 0
M  V30 46767 C 4217 -3.89552 -3.6627 0
M  V30 46768 C 4218.3 -4.92643 -1.73493 0
M  V30 46769 H 4220 -2.90415 -0.727968 0
M  V30 46770 H 4217.54 -1.39714 -0.348728 0
M  V30 46771 H 4219.5 -2.78559 -3.16201 0
M  V30 46772 H 4218.22 -1.58066 -2.85802 0
M  V30 46773 H 4216.88 -3.30008 -1.59658 0
M  V30 46774 H 4216.53 -2.98041 -4.05192 0
M  V30 46775 H 4216.23 -4.66851 -3.56824 0
M  V30 46776 H 4217.75 -4.23828 -4.39548 0
M  V30 46777 H 4219.17 -5.22863 -2.35131 0
M  V30 46778 H 4217.56 -5.74071 -1.7482 0
M  V30 46779 H 4218.63 -4.79909 -0.693945 0
M  V30 46780 N 4219.98 0.370864 -1.53174 0
M  V30 46781 C 4220.92 1.45403 -1.79239 0
M  V30 46782 C 4221.89 1.53421 -0.63648 0
M  V30 46783 O 4223.08 1.69393 -0.878109 0
M  V30 46784 C 4220.22 2.82415 -1.98332 0
M  V30 46785 C 4219.33 2.83405 -3.26045 0
M  V30 46786 C 4218.47 4.11959 -3.35355 0
M  V30 46787 C 4217.5 4.07071 -4.57121 0
M  V30 46788 N 4216.64 5.27264 -4.63613 0
M  V30 46789 H 4221.48 1.22477 -2.71668 0
M  V30 46790 H 4219.02 0.59383 -1.34581 0
M  V30 46791 H 4220.98 3.62003 -2.07388 0
M  V30 46792 H 4219.61 3.03752 -1.09245 0
M  V30 46793 H 4218.66 1.96082 -3.25969 0
M  V30 46794 H 4219.97 2.75665 -4.15705 0
M  V30 46795 H 4219.12 4.9996 -3.43694 0
M  V30 46796 H 4217.86 4.22446 -2.43702 0
M  V30 46797 H 4216.87 3.17458 -4.48888 0
M  V30 46798 H 4218.09 3.98191 -5.50109 0
M  V30 46799 H 4216.04 5.38346 -3.74859 0
M  V30 46800 H 4215.96 5.21672 -5.47169 0
M  V30 46801 H 4217.22 6.17112 -4.76228 0
M  V30 46802 N 4221.45 1.44444 0.630363 0
M  V30 46803 C 4222.68 1.50751 1.4171 0
M  V30 46804 C 4223.1 0.132626 1.88334 0
M  V30 46805 O 4222.45 -0.861621 1.6088 0
M  V30 46806 C 4222.5 2.47285 2.6369 0
M  V30 46807 O 4222.23 3.79429 2.19009 0
M  V30 46808 C 4223.73 2.63064 3.56808 0
M  V30 46809 H 4220.95 0.511262 0.434571 0
M  V30 46810 H 4223.49 1.89416 0.770844 0
M  V30 46811 H 4221.65 2.11755 3.24405 0
M  V30 46812 H 4222.06 4.31554 2.98096 0
M  V30 46813 H 4223.53 3.34636 4.39002 0
M  V30 46814 H 4224.01 1.6832 4.05666 0
M  V30 46815 H 4224.62 2.99499 3.01961 0
M  V30 46816 N 4222.93 -0.870838 1.31355 0
M  V30 46817 C 4223.88 -1.97797 1.18932 0
M  V30 46818 C 4224.85 -1.65929 0.0753192 0
M  V30 46819 O 4226.03 -1.89181 0.248025 0
M  V30 46820 C 4223.17 -3.33111 0.901721 0
M  V30 46821 C 4222.29 -3.77581 2.09897 0
M  V30 46822 C 4221.42 -5.01608 1.74823 0
M  V30 46823 C 4220.46 -5.38524 2.90961 0
M  V30 46824 N 4219.6 -6.5373 2.56089 0
M  V30 46825 H 4224.44 -2.07755 2.13639 0
M  V30 46826 H 4221.97 -1.01706 1.06275 0
M  V30 46827 H 4223.93 -4.11018 0.715536 0
M  V30 46828 H 4222.56 -3.22799 -0.00851789 0
M  V30 46829 H 4221.61 -2.95463 2.39595 0
M  V30 46830 H 4222.93 -4.0087 2.96824 0
M  V30 46831 H 4222.08 -5.87179 1.52662 0
M  V30 46832 H 4220.82 -4.8022 0.85086 0
M  V30 46833 H 4219.82 -4.51472 3.13772 0
M  V30 46834 H 4221.05 -5.61877 3.81407 0
M  V30 46835 H 4219 -6.33891 1.68874 0
M  V30 46836 H 4218.91 -6.76958 3.36547 0
M  V30 46837 H 4220.18 -7.42496 2.37319 0
M  V30 46838 N 4224.41 -1.14302 -1.08503 0
M  V30 46839 C 4225.32 -0.842699 -2.18942 0
M  V30 46840 C 4226.34 0.17645 -1.73103 0
M  V30 46841 O 4227.51 0.005201 -2.01399 0
M  V30 46842 C 4224.58 -0.323408 -3.45188 0
M  V30 46843 C 4223.64 -1.40499 -4.05658 0
M  V30 46844 C 4222.87 -0.910382 -5.25878 0
M  V30 46845 O 4223.09 0.248515 -5.69858 0
M  V30 46846 O 4222.03 -1.68892 -5.77719 0
M  V30 46847 H 4225.85 -1.76564 -2.47101 0
M  V30 46848 H 4223.44 -0.921201 -1.17619 0
M  V30 46849 H 4225.32 -0.0396851 -4.21381 0
M  V30 46850 H 4224 0.571818 -3.18609 0
M  V30 46851 H 4222.9 -1.74216 -3.31058 0
M  V30 46852 H 4224.24 -2.2747 -4.36484 0
M  V30 46853 N 4225.89 1.26648 -0.937984 0
M  V30 46854 C 4227.3 1.75858 -0.626973 0
M  V30 46855 C 4227.65 1.76452 0.857862 0
M  V30 46856 O 4226.77 1.37458 1.67136 0
M  V30 46857 C 4227.37 3.19352 -1.13137 0
M  V30 46858 C 4225.93 3.66188 -0.870834 0
M  V30 46859 C 4225.08 2.45775 -1.28414 0
M  V30 46860 H 4228.03 1.12769 -1.11664 0
M  V30 46861 H 4228.05 3.77413 -0.483726 0
M  V30 46862 H 4227.56 3.18887 -2.21207 0
M  V30 46863 H 4225.66 3.72086 0.195622 0
M  V30 46864 H 4225.77 4.55158 -1.4956 0
M  V30 46865 H 4224.14 2.44818 -0.70259 0
M  V30 46866 H 4224.92 2.48013 -2.3737 0
M  V30 46867 N 4227.37 0.704643 1.4097 0
M  V30 46868 C 4228.61 0.239817 2.01377 0
M  V30 46869 C 4228.94 -1.16049 1.55712 0
M  V30 46870 O 4228.22 -1.78509 0.772309 0
M  V30 46871 C 4228.5 0.307619 3.58784 0
M  V30 46872 C 4228.36 1.74551 4.1455 0
M  V30 46873 C 4229.67 -0.327439 4.3888 0
M  V30 46874 H 4226.79 0.0886159 0.731653 0
M  V30 46875 H 4229.44 0.895078 1.67596 0
M  V30 46876 H 4227.59 -0.250292 3.87693 0
M  V30 46877 H 4229.26 2.35797 3.96482 0
M  V30 46878 H 4227.5 2.27677 3.6925 0
M  V30 46879 H 4228.17 1.74442 5.23712 0
M  V30 46880 H 4230.65 0.14781 4.15837 0
M  V30 46881 H 4229.52 -0.249498 5.48333 0
M  V30 46882 H 4229.78 -1.40944 4.19031 0
M  V30 46883 N 4228.84 -1.51038 0.450036 0
M  V30 46884 C 4230.09 -2.01379 -0.113726 0
M  V30 46885 C 4230.41 -1.33812 -1.42666 0
M  V30 46886 O 4231.61 -1.75192 -2.07413 0
M  V30 46887 C 4230.07 -3.59008 -0.253209 0
M  V30 46888 C 4229.68 -4.3552 1.05005 0
M  V30 46889 C 4231.42 -4.17457 -0.770058 0
M  V30 46890 C 4229.33 -5.84884 0.875511 0
M  V30 46891 H 4228.26 -0.752579 -0.0462766 0
M  V30 46892 H 4230.91 -1.74035 0.581733 0
M  V30 46893 H 4229.29 -3.82851 -1.01197 0
M  V30 46894 H 4230.46 -4.23416 1.81812 0
M  V30 46895 H 4228.78 -3.88583 1.49639 0
M  V30 46896 H 4231.38 -5.26772 -0.917334 0
M  V30 46897 H 4231.72 -3.77457 -1.75589 0
M  V30 46898 H 4232.25 -3.9774 -0.0692672 0
M  V30 46899 H 4228.99 -6.29318 1.83409 0
M  V30 46900 H 4228.51 -5.99619 0.147455 0
M  V30 46901 H 4230.19 -6.44795 0.533728 0
M  V30 46902 N 4230.32 -0.181847 -1.56547 0
M  V30 46903 C 4231.26 0.783258 -2.14337 0
M  V30 46904 C 4232.23 1.21874 -1.07636 0
M  V30 46905 O 4233.42 1.30863 -1.35672 0
M  V30 46906 C 4230.54 2.05612 -2.6915 0
M  V30 46907 C 4229.59 1.76382 -3.88319 0
M  V30 46908 S 4230.42 0.923685 -5.27474 0
M  V30 46909 C 4231.58 2.20698 -5.85699 0
M  V30 46910 H 4231.81 0.291944 -2.95863 0
M  V30 46911 H 4229.35 0.0329729 -1.54365 0
M  V30 46912 H 4231.3 2.78717 -3.01376 0
M  V30 46913 H 4229.96 2.51856 -1.8769 0
M  V30 46914 H 4229.16 2.70852 -4.25035 0
M  V30 46915 H 4228.76 1.11366 -3.57034 0
M  V30 46916 H 4231.05 3.1607 -5.99254 0
M  V30 46917 H 4231.99 1.88434 -6.82567 0
M  V30 46918 H 4232.4 2.32939 -5.14198 0
M  V30 46919 N 4231.8 1.57332 0.09183 0
M  V30 46920 C 4233.03 1.90842 0.812047 0
M  V30 46921 C 4233.45 0.776424 1.71328 0
M  V30 46922 O 4232.81 -0.271836 1.79251 0
M  V30 46923 C 4232.86 3.23228 1.59862 0
M  V30 46924 O 4231.96 3.11048 2.70781 0
M  V30 46925 H 4231.3 0.625478 0.222875 0
M  V30 46926 H 4233.83 2.04493 0.0660759 0
M  V30 46927 H 4233.84 3.56616 1.98214 0
M  V30 46928 H 4232.52 4.05202 0.937225 0
M  V30 46929 H 4231.09 2.89181 2.35433 0
M  V30 46930 N 4233.28 -0.362736 1.53369 0
M  V30 46931 C 4234.51 -1.12562 1.73601 0
M  V30 46932 C 4234.92 -1.82952 0.466279 0
M  V30 46933 O 4234.28 -1.73664 -0.560985 0
M  V30 46934 C 4234.33 -2.15377 2.90336 0
M  V30 46935 O 4234.05 -1.47852 4.12397 0
M  V30 46936 C 4235.55 -3.0419 3.22464 0
M  V30 46937 H 4232.77 -0.336456 0.58055 0
M  V30 46938 H 4235.32 -0.420788 2.00124 0
M  V30 46939 H 4233.47 -2.81454 2.662 0
M  V30 46940 H 4233.88 -2.16379 4.77787 0
M  V30 46941 H 4235.36 -3.72307 4.07544 0
M  V30 46942 H 4235.84 -3.69157 2.37949 0
M  V30 46943 H 4236.44 -2.43726 3.48537 0
M  V30 46944 N 4234.76 -1.44777 -0.622694 0
M  V30 46945 C 4235.69 -1.55123 -1.74525 0
M  V30 46946 C 4236.67 -0.403685 -1.6524 0
M  V30 46947 O 4237.85 -0.624895 -1.83871 0
M  V30 46948 C 4234.98 -1.50315 -3.13086 0
M  V30 46949 C 4233.94 -2.63632 -3.37168 0
M  V30 46950 C 4233.26 -2.43877 -4.75845 0
M  V30 46951 C 4234.56 -4.05736 -3.28901 0
M  V30 46952 H 4236.26 -2.49085 -1.66123 0
M  V30 46953 H 4233.8 -1.1988 -0.797792 0
M  V30 46954 H 4235.76 -1.56153 -3.914 0
M  V30 46955 H 4234.48 -0.528741 -3.22292 0
M  V30 46956 H 4233.14 -2.57198 -2.61237 0
M  V30 46957 H 4232.79 -1.44609 -4.81765 0
M  V30 46958 H 4232.49 -3.19857 -4.92915 0
M  V30 46959 H 4234.01 -2.51545 -5.56379 0
M  V30 46960 H 4235.42 -4.13494 -3.97109 0
M  V30 46961 H 4233.82 -4.81986 -3.57504 0
M  V30 46962 H 4234.89 -4.2871 -2.26574 0
M  V30 46963 N 4236.23 0.863859 -1.31815 0
M  V30 46964 C 4237.14 2.0041 -1.21955 0
M  V30 46965 C 4238.16 1.73475 -0.135 0
M  V30 46966 O 4239.34 1.98265 -0.353954 0
M  V30 46967 C 4236.4 3.33892 -0.933658 0
M  V30 46968 C 4235.46 3.74109 -2.10572 0
M  V30 46969 C 4234.7 5.01221 -1.83338 0
M  V30 46970 O 4234.92 5.65159 -0.771459 0
M  V30 46971 O 4233.85 5.38351 -2.69187 0
M  V30 46972 H 4237.68 2.11663 -2.1779 0
M  V30 46973 H 4235.26 0.993106 -1.11614 0
M  V30 46974 H 4237.15 4.13923 -0.790324 0
M  V30 46975 H 4235.82 3.237 -0.00538803 0
M  V30 46976 H 4234.73 2.94694 -2.30448 0
M  V30 46977 H 4236.06 3.88935 -3.01646 0
M  V30 46978 N 4237.71 1.14875 1.07895 0
M  V30 46979 C 4238.94 0.943879 1.84116 0
M  V30 46980 C 4239.36 -0.507735 1.81845 0
M  V30 46981 O 4238.71 -1.35198 1.22587 0
M  V30 46982 C 4238.76 1.44336 3.31435 0
M  V30 46983 O 4238.48 2.8381 3.33741 0
M  V30 46984 C 4239.99 1.27918 4.24443 0
M  V30 46985 H 4237.21 0.335571 0.581062 0
M  V30 46986 H 4239.75 1.52514 1.36234 0
M  V30 46987 H 4237.9 0.904749 3.76687 0
M  V30 46988 H 4238.32 3.06339 4.25742 0
M  V30 46989 H 4239.79 1.6772 5.25903 0
M  V30 46990 H 4240.27 0.22267 4.38635 0
M  V30 46991 H 4240.88 1.8066 3.85022 0
M  V30 46992 N 4239.19 -1.26148 0.944687 0
M  V30 46993 C 4240.44 -1.93875 0.595007 0
M  V30 46994 C 4240.77 -1.73908 -0.864274 0
M  V30 46995 O 4240.04 -1.0782 -1.6188 0
M  V30 46996 C 4240.33 -3.47551 0.942361 0
M  V30 46997 C 4240.18 -3.76788 2.45664 0
M  V30 46998 C 4241.5 -4.37686 0.460281 0
M  V30 46999 H 4238.62 -0.704132 0.217641 0
M  V30 47000 H 4241.26 -1.48952 1.17954 0
M  V30 47001 H 4239.41 -3.85944 0.444931 0
M  V30 47002 H 4241.08 -3.48089 3.02707 0
M  V30 47003 H 4239.33 -3.22742 2.89862 0
M  V30 47004 H 4240 -4.8422 2.65019 0
M  V30 47005 H 4242.47 -4.0654 0.886833 0
M  V30 47006 H 4241.35 -5.43996 0.732115 0
M  V30 47007 H 4241.61 -4.37446 -0.639776 0
M  V30 47008 N 4240.67 -0.712109 -1.40594 0
M  V30 47009 C 4242.08 -0.385313 -1.54879 0
M  V30 47010 C 4242.28 1.10623 -1.68418 0
M  V30 47011 O 4241.34 1.89225 -1.67183 0
M  V30 47012 C 4242.65 -1.14832 -2.7791 0
M  V30 47013 C 4244.2 -1.13429 -2.91724 0
M  V30 47014 C 4244.68 -1.87938 -4.17664 0
M  V30 47015 N 4246.17 -1.8499 -4.24656 0
M  V30 47016 C 4246.9 -2.39468 -5.21002 0
M  V30 47017 N 4246.4 -3.02487 -6.23276 0
M  V30 47018 N 4248.19 -2.2963 -5.13056 0
M  V30 47019 H 4240.34 -1.67929 -1.30052 0
M  V30 47020 H 4242.61 -0.709601 -0.628626 0
M  V30 47021 H 4242.31 -2.20279 -2.74171 0
M  V30 47022 H 4242.19 -0.737671 -3.69917 0
M  V30 47023 H 4244.57 -0.0880256 -2.94969 0
M  V30 47024 H 4244.65 -1.58413 -2.00845 0
M  V30 47025 H 4244.3 -2.92553 -4.15181 0
M  V30 47026 H 4244.23 -1.40376 -5.07545 0
M  V30 47027 H 4246.72 -1.39059 -3.51384 0
M  V30 47028 H 4247.03 -3.41582 -6.93211 0
M  V30 47029 H 4245.38 -3.0657 -6.2373 0
M  V30 47030 H 4248.57 -1.80057 -4.32085 0
M  V30 47031 H 4248.74 -2.72388 -5.8797 0
M  V30 47032 N 4242.15 1.50797 -0.45804 0
M  V30 47033 C 4243.4 2.01437 0.103044 0
M  V30 47034 C 4243.71 1.34567 1.41955 0
M  V30 47035 O 4244.91 1.7629 2.06481 0
M  V30 47036 C 4243.37 3.59137 0.234166 0
M  V30 47037 C 4242.98 4.34957 -1.07313 0
M  V30 47038 C 4244.72 4.1786 0.747908 0
M  V30 47039 C 4242.63 5.84411 -0.906516 0
M  V30 47040 H 4241.56 0.752813 0.0422849 0
M  V30 47041 H 4244.21 1.73724 -0.590954 0
M  V30 47042 H 4242.59 3.83383 0.991648 0
M  V30 47043 H 4243.77 4.22446 -1.84055 0
M  V30 47044 H 4242.08 3.87784 -1.51698 0
M  V30 47045 H 4244.68 5.27251 0.889385 0
M  V30 47046 H 4245.02 3.78383 1.73585 0
M  V30 47047 H 4245.55 3.97771 0.0481731 0
M  V30 47048 H 4242.29 6.28337 -1.86744 0
M  V30 47049 H 4241.81 5.99532 -0.179252 0
M  V30 47050 H 4243.49 6.44503 -0.567915 0
M  V30 47051 N 4243.63 0.190147 1.56449 0
M  V30 47052 C 4244.87 -0.449923 1.97438 0
M  V30 47053 C 4245.2 -1.6197 1.07685 0
M  V30 47054 O 4244.46 -1.95362 0.114893 0
M  V30 47055 C 4244.75 -0.956928 3.44351 0
M  V30 47056 C 4244.42 0.0989472 4.50791 0
M  V30 47057 C 4243.08 0.389088 4.79624 0
M  V30 47058 C 4245.43 0.814649 5.14794 0
M  V30 47059 C 4242.76 1.39999 5.69752 0
M  V30 47060 C 4245.11 1.81467 6.06014 0
M  V30 47061 C 4243.78 2.11206 6.33205 0
M  V30 47062 H 4243.05 -0.164638 0.722479 0
M  V30 47063 H 4245.7 0.286072 1.89351 0
M  V30 47064 H 4244 -1.7711 3.49484 0
M  V30 47065 H 4245.7 -1.46149 3.73419 0
M  V30 47066 H 4242.29 -0.137359 4.2838 0
M  V30 47067 H 4246.47 0.60372 4.92614 0
M  V30 47068 H 4241.73 1.63637 5.89095 0
M  V30 47069 H 4245.9 2.3745 6.54668 0
M  V30 47070 H 4243.53 2.89684 7.02842 0
M  V30 47071 N 4245.1 -1.57379 -0.083485 0
M  V30 47072 C 4246.03 -2.05915 -1.10097 0
M  V30 47073 C 4247.01 -0.950322 -1.41078 0
M  V30 47074 O 4248.2 -1.22232 -1.50907 0
M  V30 47075 C 4245.33 -2.49331 -2.41767 0
M  V30 47076 C 4244.28 -3.63983 -2.25167 0
M  V30 47077 C 4243.61 -3.93415 -3.62117 0
M  V30 47078 C 4244.91 -4.94456 -1.68258 0
M  V30 47079 H 4246.6 -2.91171 -0.697125 0
M  V30 47080 H 4244.15 -1.40076 -0.33389 0
M  V30 47081 H 4246.1 -2.81897 -3.13229 0
M  V30 47082 H 4244.83 -1.61089 -2.84109 0
M  V30 47083 H 4243.49 -3.31682 -1.56149 0
M  V30 47084 H 4243.13 -3.02322 -4.02008 0
M  V30 47085 H 4242.83 -4.7061 -3.51853 0
M  V30 47086 H 4244.36 -4.28466 -4.35028 0
M  V30 47087 H 4245.77 -5.25328 -2.29573 0
M  V30 47088 H 4244.17 -5.75893 -1.68721 0
M  V30 47089 H 4245.24 -4.80618 -0.643005 0
M  V30 47090 N 4246.58 0.354597 -1.53559 0
M  V30 47091 C 4247.81 1.1164 -1.74196 0
M  V30 47092 C 4248.22 1.82702 -0.475975 0
M  V30 47093 O 4247.58 1.73959 0.551768 0
M  V30 47094 C 4247.63 2.13834 -2.91474 0
M  V30 47095 O 4247.35 1.45663 -4.13175 0
M  V30 47096 C 4248.85 3.02476 -3.24073 0
M  V30 47097 H 4246.07 0.333372 -0.582326 0
M  V30 47098 H 4248.62 0.410169 -2.00344 0
M  V30 47099 H 4246.77 2.80038 -2.67689 0
M  V30 47100 H 4247.19 2.13842 -4.78928 0
M  V30 47101 H 4248.66 3.7014 -4.09512 0
M  V30 47102 H 4249.14 3.6789 -2.39904 0
M  V30 47103 H 4249.74 2.41874 -3.49824 0
M  V30 47104 N 4248.06 1.45105 0.615008 0
M  V30 47105 C 4248.97 1.55732 1.75456 0
M  V30 47106 C 4249.99 0.442125 1.68289 0
M  V30 47107 O 4251.16 0.701768 1.88778 0
M  V30 47108 C 4248.23 1.51399 3.11896 0
M  V30 47109 C 4247.29 2.73898 3.30573 0
M  V30 47110 C 4246.52 2.69762 4.60504 0
M  V30 47111 O 4246.74 1.76671 5.4235 0
M  V30 47112 O 4245.68 3.60856 4.81733 0
M  V30 47113 H 4249.5 2.52038 1.69442 0
M  V30 47114 H 4247.09 1.27532 0.778199 0
M  V30 47115 H 4248.97 1.51564 3.932 0
M  V30 47116 H 4247.65 0.582421 3.18417 0
M  V30 47117 H 4246.55 2.79297 2.48886 0
M  V30 47118 H 4247.89 3.66156 3.28924 0
M  V30 47119 N 4249.54 -0.856857 1.32271 0
M  V30 47120 C 4250.47 -1.97177 1.16849 0
M  V30 47121 C 4251.48 -1.62467 0.104069 0
M  V30 47122 O 4252.67 -1.74978 0.352819 0
M  V30 47123 C 4249.77 -3.30132 0.765908 0
M  V30 47124 C 4248.94 -3.93098 1.91815 0
M  V30 47125 C 4248 -5.04383 1.49948 0
M  V30 47126 O 4247.03 -5.24496 2.21116 0
M  V30 47127 N 4248.23 -5.7916 0.394249 0
M  V30 47128 H 4251 -2.10949 2.12886 0
M  V30 47129 H 4248.56 -1.03159 1.24779 0
M  V30 47130 H 4250.55 -4.01982 0.46827 0
M  V30 47131 H 4249.12 -3.12429 -0.10324 0
M  V30 47132 H 4248.34 -3.14062 2.3824 0
M  V30 47133 H 4249.63 -4.31901 2.68959 0
M  V30 47134 H 4249.03 -5.65353 -0.198137 0
M  V30 47135 H 4247.58 -6.51613 0.156207 0
M  V30 47136 N 4251.02 -1.15446 -1.07285 0
M  V30 47137 C 4252.43 -0.939033 -1.61366 0
M  V30 47138 C 4252.78 0.519499 -1.89197 0
M  V30 47139 O 4251.9 1.39073 -1.65794 0
M  V30 47140 C 4252.5 -1.69818 -2.93168 0
M  V30 47141 C 4251.06 -1.52802 -3.43989 0
M  V30 47142 C 4250.2 -1.71334 -2.18037 0
M  V30 47143 H 4253.15 -1.30461 -0.903633 0
M  V30 47144 H 4253.18 -1.16808 -3.62127 0
M  V30 47145 H 4252.69 -2.75968 -2.7288 0
M  V30 47146 H 4250.79 -0.490494 -3.69357 0
M  V30 47147 H 4250.9 -2.30543 -4.19984 0
M  V30 47148 H 4249.27 -1.13991 -2.27768 0
M  V30 47149 H 4250.05 -2.7885 -2.00243 0
M  V30 47150 N 4252.49 1.25646 -0.951364 0
M  V30 47151 C 4253.42 2.28366 -0.486938 0
M  V30 47152 C 4254.4 1.6362 0.465043 0
M  V30 47153 O 4255.59 1.90745 0.364703 0
M  V30 47154 C 4252.72 3.46476 0.239168 0
M  V30 47155 C 4251.67 4.23379 -0.627237 0
M  V30 47156 C 4251 5.34208 0.22942 0
M  V30 47157 C 4252.3 4.8637 -1.90371 0
M  V30 47158 H 4253.99 2.67465 -1.34547 0
M  V30 47159 H 4251.54 1.28576 -0.648405 0
M  V30 47160 H 4253.49 4.17456 0.575178 0
M  V30 47161 H 4252.22 3.06358 1.13192 0
M  V30 47162 H 4250.88 3.54177 -0.946285 0
M  V30 47163 H 4250.52 4.9033 1.12183 0
M  V30 47164 H 4250.22 5.86575 -0.346955 0
M  V30 47165 H 4251.75 6.08022 0.560471 0
M  V30 47166 H 4253.16 5.49512 -1.63431 0
M  V30 47167 H 4251.56 5.489 -2.42547 0
M  V30 47168 H 4252.63 4.08739 -2.60883 0
M  V30 47169 N 4253.97 0.719555 1.40215 0
M  V30 47170 C 4254.88 0.0706901 2.34493 0
M  V30 47171 C 4255.9 -0.739345 1.57511 0
M  V30 47172 O 4257.07 -0.671383 1.8988 0
M  V30 47173 C 4254.14 -0.837119 3.36442 0
M  V30 47174 C 4253.2 -0.0165848 4.29297 0
M  V30 47175 C 4252.43 -0.881159 5.26376 0
M  V30 47176 O 4252.66 -2.1203 5.29527 0
M  V30 47177 O 4251.59 -0.318036 6.01059 0
M  V30 47178 H 4255.42 0.848443 2.91608 0
M  V30 47179 H 4253 0.480071 1.41477 0
M  V30 47180 H 4254.88 -1.357 3.98953 0
M  V30 47181 H 4253.56 -1.59395 2.81736 0
M  V30 47182 H 4252.46 0.548455 3.70058 0
M  V30 47183 H 4253.8 0.702116 4.87166 0
M  V30 47184 N 4255.45 -1.50552 0.466031 0
M  V30 47185 C 4256.7 -2.01897 -0.0905245 0
M  V30 47186 C 4257.02 -1.35043 -1.40671 0
M  V30 47187 O 4256.29 -0.494129 -1.89566 0
M  V30 47188 H 4254.87 -0.74611 -0.0364443 0
M  V30 47189 H 4257.53 -1.84933 0.615297 0
M  V30 47190 H 4256.63 -3.11131 -0.245702 0
M  V30 47191 N 4256.93 -0.198441 -1.56346 0
M  V30 47192 C 4257.86 0.716204 -2.22245 0
M  V30 47193 C 4258.84 1.21874 -1.18662 0
M  V30 47194 O 4260.02 1.26697 -1.47179 0
M  V30 47195 C 4257.15 1.93441 -2.88441 0
M  V30 47196 C 4256.11 1.56665 -3.98296 0
M  V30 47197 C 4255.43 2.86174 -4.51673 0
M  V30 47198 C 4256.73 0.774062 -5.16532 0
M  V30 47199 H 4258.43 0.166831 -2.98935 0
M  V30 47200 H 4255.97 0.0788015 -1.43784 0
M  V30 47201 H 4257.93 2.57951 -3.33225 0
M  V30 47202 H 4256.65 2.50837 -2.09161 0
M  V30 47203 H 4255.31 0.945116 -3.54208 0
M  V30 47204 H 4254.96 3.41667 -3.69152 0
M  V30 47205 H 4254.66 2.62311 -5.25801 0
M  V30 47206 H 4256.18 3.51667 -4.99162 0
M  V30 47207 H 4257.6 1.32234 -5.57841 0
M  V30 47208 H 4255.99 0.633427 -5.96748 0
M  V30 47209 H 4257.06 -0.224183 -4.84381 0
M  V30 47210 N 4258.41 1.57421 0.0751377 0
M  V30 47211 C 4259.32 2.06808 1.10759 0
M  V30 47212 C 4260.33 0.996935 1.42609 0
M  V30 47213 O 4261.51 1.31142 1.52852 0
M  V30 47214 C 4258.57 2.49937 2.40276 0
M  V30 47215 C 4257.63 3.71334 2.15429 0
M  V30 47216 C 4256.87 4.12396 3.3877 0
M  V30 47217 O 4257.09 3.53361 4.47763 0
M  V30 47218 O 4256.02 5.0521 3.2718 0
M  V30 47219 H 4259.85 2.95089 0.71805 0
M  V30 47220 H 4257.44 1.46577 0.289039 0
M  V30 47221 H 4259.32 2.78214 3.16505 0
M  V30 47222 H 4257.99 1.64785 2.78617 0
M  V30 47223 H 4256.9 3.48145 1.36916 0
M  V30 47224 H 4258.23 4.57327 1.8197 0
M  V30 47225 N 4259.88 -0.346449 1.53745 0
M  V30 47226 C 4260.83 -1.42533 1.8153 0
M  V30 47227 C 4261.8 -1.52389 0.660808 0
M  V30 47228 O 4262.99 -1.67974 0.904947 0
M  V30 47229 C 4260.13 -2.79224 2.028 0
M  V30 47230 C 4259.24 -2.78182 3.30513 0
M  V30 47231 C 4258.37 -4.06572 3.41866 0
M  V30 47232 C 4257.41 -3.99747 4.63539 0
M  V30 47233 N 4256.55 -5.19822 4.71942 0
M  V30 47234 H 4261.39 -1.1814 2.73582 0
M  V30 47235 H 4258.93 -0.572344 1.35509 0
M  V30 47236 H 4260.89 -3.58657 2.13121 0
M  V30 47237 H 4259.52 -3.01976 1.14064 0
M  V30 47238 H 4258.57 -1.90871 3.29048 0
M  V30 47239 H 4259.88 -2.69016 4.20038 0
M  V30 47240 H 4259.03 -4.94428 3.51604 0
M  V30 47241 H 4257.77 -4.18515 2.50392 0
M  V30 47242 H 4256.78 -3.10276 4.53882 0
M  V30 47243 H 4258 -3.89389 5.56375 0
M  V30 47244 H 4255.95 -5.32315 3.83376 0
M  V30 47245 H 4255.87 -5.12901 5.55399 0
M  V30 47246 H 4257.13 -6.09457 4.85986 0
M  V30 47247 N 4261.36 -1.45429 -0.607304 0
M  V30 47248 C 4262.29 -1.56965 -1.7287 0
M  V30 47249 C 4263.27 -0.421188 -1.64803 0
M  V30 47250 O 4264.46 -0.644362 -1.83198 0
M  V30 47251 C 4261.59 -1.53627 -3.11474 0
M  V30 47252 C 4260.54 -2.67194 -3.34352 0
M  V30 47253 C 4259.87 -2.4891 -4.73231 0
M  V30 47254 C 4261.17 -4.09201 -3.24579 0
M  V30 47255 H 4262.86 -2.50833 -1.63472 0
M  V30 47256 H 4260.41 -1.2072 -0.785032 0
M  V30 47257 H 4262.36 -1.60295 -3.89722 0
M  V30 47258 H 4261.09 -0.562895 -3.21713 0
M  V30 47259 H 4259.74 -2.59954 -2.58494 0
M  V30 47260 H 4259.39 -1.49711 -4.80204 0
M  V30 47261 H 4259.09 -3.25067 -4.89495 0
M  V30 47262 H 4260.62 -2.57432 -5.5368 0
M  V30 47263 H 4262.03 -4.17682 -3.92701 0
M  V30 47264 H 4260.43 -4.85751 -3.52372 0
M  V30 47265 H 4261.5 -4.31089 -2.22014 0
M  V30 47266 N 4262.84 0.84983 -1.32724 0
M  V30 47267 C 4264.07 1.63431 -1.26388 0
M  V30 47268 C 4264.48 1.88439 0.169539 0
M  V30 47269 O 4263.82 1.45713 1.11863 0
M  V30 47270 C 4263.88 3.01441 -1.95892 0
M  V30 47271 C 4263.55 2.99453 -3.4522 0
M  V30 47272 C 4264.54 2.75955 -4.40619 0
M  V30 47273 C 4262.23 3.19936 -3.87229 0
M  V30 47274 C 4264.22 2.72949 -5.76001 0
M  V30 47275 C 4261.91 3.16557 -5.22719 0
M  V30 47276 C 4262.91 2.93093 -6.16916 0
M  V30 47277 O 4262.6 2.89597 -7.49926 0
M  V30 47278 H 4262.33 0.515606 -0.43718 0
M  V30 47279 H 4264.88 1.06751 -1.75481 0
M  V30 47280 H 4263.11 3.5993 -1.41375 0
M  V30 47281 H 4264.8 3.62205 -1.83201 0
M  V30 47282 H 4265.57 2.59892 -4.09489 0
M  V30 47283 H 4261.45 3.37223 -3.14327 0
M  V30 47284 H 4264.99 2.54554 -6.49498 0
M  V30 47285 H 4260.89 3.32166 -5.53477 0
M  V30 47286 H 4261.66 3.05517 -7.59343 0
M  V30 47287 N 4264.32 1.16013 1.06671 0
M  V30 47288 C 4265.25 0.820969 2.13992 0
M  V30 47289 C 4266.26 -0.170096 1.61909 0
M  V30 47290 O 4267.45 0.0541261 1.78418 0
M  V30 47291 C 4264.55 0.200943 3.38304 0
M  V30 47292 C 4263.73 1.23116 4.19716 0
M  V30 47293 C 4262.78 0.631636 5.22395 0
M  V30 47294 O 4261.81 1.29946 5.54168 0
M  V30 47295 N 4263.01 -0.583418 5.77561 0
M  V30 47296 H 4265.78 1.7446 2.43688 0
M  V30 47297 H 4263.34 1.05695 1.22639 0
M  V30 47298 H 4265.33 -0.213068 4.04139 0
M  V30 47299 H 4263.9 -0.626164 3.06265 0
M  V30 47300 H 4263.12 1.82148 3.49594 0
M  V30 47301 H 4264.41 1.92652 4.70917 0
M  V30 47302 H 4263.81 -1.14423 5.54007 0
M  V30 47303 H 4262.36 -0.93969 6.44991 0
M  V30 47304 N 4265.8 -1.25139 0.958014 0
M  V30 47305 C 4266.71 -2.29476 0.487633 0
M  V30 47306 C 4267.72 -1.68169 -0.446675 0
M  V30 47307 O 4268.9 -1.98808 -0.322092 0
M  V30 47308 C 4265.96 -3.45976 -0.223869 0
M  V30 47309 C 4265.02 -4.22714 0.749068 0
M  V30 47310 C 4264.26 -5.33652 0.0714267 0
M  V30 47311 O 4264.48 -5.58846 -1.14224 0
M  V30 47312 O 4263.41 -5.97099 0.75868 0
M  V30 47313 H 4267.24 -2.71809 1.35475 0
M  V30 47314 H 4264.83 -1.30651 0.724617 0
M  V30 47315 H 4266.71 -4.16755 -0.623966 0
M  V30 47316 H 4265.38 -3.0564 -1.06611 0
M  V30 47317 H 4264.29 -3.54351 1.19944 0
M  V30 47318 H 4265.62 -4.66843 1.55943 0
M  V30 47319 N 4267.27 -0.726981 -1.39831 0
M  V30 47320 C 4268.69 -0.342401 -1.83533 0
M  V30 47321 C 4269.04 1.12487 -1.60752 0
M  V30 47322 O 4268.16 1.86686 -1.09442 0
M  V30 47323 C 4268.76 -0.614684 -3.33177 0
M  V30 47324 C 4267.32 -0.283687 -3.75329 0
M  V30 47325 C 4266.46 -0.881343 -2.62921 0
M  V30 47326 H 4269.41 -0.925252 -1.28937 0
M  V30 47327 H 4269.43 0.116263 -3.80322 0
M  V30 47328 H 4268.95 -1.68265 -3.49726 0
M  V30 47329 H 4267.05 0.778762 -3.64371 0
M  V30 47330 H 4267.16 -0.760645 -4.73023 0
M  V30 47331 H 4265.52 -0.308548 -2.52824 0
M  V30 47332 H 4266.31 -1.9538 -2.82279 0
M  V30 47333 N 4268.75 1.50303 -0.474008 0
M  V30 47334 C 4270.17 1.59083 -0.128333 0
M  V30 47335 C 4270.37 1.48188 1.36538 0
M  V30 47336 O 4269.42 1.34187 2.13893 0
M  V30 47337 C 4270.74 2.92884 -0.681125 0
M  V30 47338 C 4272.29 3.06286 -0.644813 0
M  V30 47339 C 4272.76 4.42666 -1.1752 0
M  V30 47340 N 4274.25 4.49086 -1.13474 0
M  V30 47341 C 4274.99 5.53007 -1.5156 0
M  V30 47342 N 4274.48 6.64168 -1.97109 0
M  V30 47343 N 4276.28 5.43568 -1.43145 0
M  V30 47344 H 4268.43 1.55628 -1.44546 0
M  V30 47345 H 4270.69 0.735649 -0.597934 0
M  V30 47346 H 4270.4 3.06342 -1.72764 0
M  V30 47347 H 4270.27 3.76988 -0.126325 0
M  V30 47348 H 4272.66 2.92474 0.3928 0
M  V30 47349 H 4272.74 2.23932 -1.23645 0
M  V30 47350 H 4272.38 4.57227 -2.21146 0
M  V30 47351 H 4272.31 5.23617 -0.55975 0
M  V30 47352 H 4274.8 3.6932 -0.800688 0
M  V30 47353 H 4275.12 7.3953 -2.24311 0
M  V30 47354 H 4273.46 6.65281 -2.01064 0
M  V30 47355 H 4276.65 4.55613 -1.07398 0
M  V30 47356 H 4276.82 6.24438 -1.73152 0
M  V30 47357 N 4270.23 0.20673 1.56238 0
M  V30 47358 C 4271.14 -0.721133 2.23242 0
M  V30 47359 C 4272.16 -1.2255 1.23522 0
M  V30 47360 O 4273.33 -1.27022 1.56293 0
M  V30 47361 C 4270.4 -1.91866 2.88771 0
M  V30 47362 C 4269.46 -1.45772 4.03793 0
M  V30 47363 C 4268.69 -2.59817 4.66188 0
M  V30 47364 O 4268.91 -3.77589 4.27531 0
M  V30 47365 O 4267.85 -2.31865 5.55448 0
M  V30 47366 H 4271.67 -0.180435 3.03164 0
M  V30 47367 H 4269.26 -0.0230774 1.49382 0
M  V30 47368 H 4271.14 -2.61831 3.30185 0
M  V30 47369 H 4269.82 -2.44774 2.1182 0
M  V30 47370 H 4268.72 -0.726522 3.66977 0
M  V30 47371 H 4270.06 -0.975184 4.82443 0
M  V30 47372 N 4271.71 -1.57458 -0.0667882 0
M  V30 47373 C 4272.64 -2.07071 -1.07906 0
M  V30 47374 C 4273.62 -0.965232 -1.40062 0
M  V30 47375 O 4274.8 -1.23826 -1.49602 0
M  V30 47376 C 4271.93 -2.51881 -2.39109 0
M  V30 47377 C 4270.89 -3.66351 -2.21294 0
M  V30 47378 C 4270.21 -3.97233 -3.57924 0
M  V30 47379 C 4271.51 -4.96213 -1.63004 0
M  V30 47380 H 4273.21 -2.91894 -0.666203 0
M  V30 47381 H 4270.75 -1.40422 -0.319014 0
M  V30 47382 H 4272.71 -2.85203 -3.10221 0
M  V30 47383 H 4271.43 -1.64093 -2.82384 0
M  V30 47384 H 4270.09 -3.3332 -1.52622 0
M  V30 47385 H 4269.74 -3.06569 -3.98779 0
M  V30 47386 H 4269.44 -4.74315 -3.46842 0
M  V30 47387 H 4270.96 -4.33056 -4.30459 0
M  V30 47388 H 4272.38 -5.27733 -2.23988 0
M  V30 47389 H 4270.77 -5.7765 -1.62604 0
M  V30 47390 H 4271.84 -4.81273 -0.591993 0
M  V30 47391 N 4273.19 0.33829 -1.53926 0
M  V30 47392 C 4274.6 0.913601 -1.6282 0
M  V30 47393 C 4274.95 1.89379 -0.512847 0
M  V30 47394 O 4274.07 2.13442 0.356591 0
M  V30 47395 C 4274.67 1.6638 -2.95133 0
M  V30 47396 C 4273.23 2.18804 -3.06271 0
M  V30 47397 C 4272.38 1.00879 -2.583 0
M  V30 47398 H 4275.33 0.116278 -1.58273 0
M  V30 47399 H 4275.35 2.52703 -2.84467 0
M  V30 47400 H 4274.86 0.950149 -3.76289 0
M  V30 47401 H 4272.96 2.93329 -2.29758 0
M  V30 47402 H 4273.07 2.44815 -4.11828 0
M  V30 47403 H 4271.44 1.38372 -2.13834 0
M  V30 47404 H 4272.22 0.309697 -3.419 0
M  V30 47405 N 4274.67 1.45749 0.599583 0
M  V30 47406 C 4276.08 1.44551 1.1816 0
M  V30 47407 C 4276.43 0.177354 1.95397 0
M  V30 47408 O 4275.55 -0.720609 2.04049 0
M  V30 47409 C 4276.15 2.61884 2.14947 0
M  V30 47410 C 4274.71 2.63781 2.68508 0
M  V30 47411 C 4273.85 2.36943 1.4406 0
M  V30 47412 H 4276.8 1.53873 0.388444 0
M  V30 47413 H 4276.83 2.3644 2.98122 0
M  V30 47414 H 4276.34 3.54167 1.58705 0
M  V30 47415 H 4274.44 1.75525 3.28666 0
M  V30 47416 H 4274.55 3.63244 3.12395 0
M  V30 47417 H 4272.92 1.8666 1.73292 0
M  V30 47418 H 4273.7 3.31381 0.896743 0
M  V30 47419 N 4276.14 -0.84278 1.33173 0
M  V30 47420 C 4277.05 -1.98445 1.25128 0
M  V30 47421 C 4278.07 -1.73239 0.162582 0
M  V30 47422 O 4279.25 -1.97677 0.385452 0
M  V30 47423 C 4276.31 -3.32364 0.986659 0
M  V30 47424 C 4275.37 -3.70712 2.16497 0
M  V30 47425 C 4274.6 -4.98241 1.91288 0
M  V30 47426 O 4274.83 -5.6386 0.861273 0
M  V30 47427 O 4273.76 -5.34001 2.77718 0
M  V30 47428 H 4277.59 -2.08171 2.2113 0
M  V30 47429 H 4275.17 -0.975223 1.1318 0
M  V30 47430 H 4277.05 -4.12613 0.856076 0
M  V30 47431 H 4275.73 -3.2365 0.0568851 0
M  V30 47432 H 4274.64 -2.9099 2.35108 0
M  V30 47433 H 4275.97 -3.84087 3.07795 0
M  V30 47434 N 4277.62 -1.16577 -1.06054 0
M  V30 47435 C 4278.53 -0.88895 -2.17106 0
M  V30 47436 C 4279.55 0.139692 -1.73438 0
M  V30 47437 O 4280.72 -0.0375199 -2.01365 0
M  V30 47438 C 4277.79 -0.396555 -3.44425 0
M  V30 47439 C 4276.85 -1.49072 -4.02587 0
M  V30 47440 C 4276.08 -1.02172 -5.23829 0
M  V30 47441 O 4276.31 0.127584 -5.70257 0
M  V30 47442 O 4275.24 -1.81108 -5.74006 0
M  V30 47443 H 4279.07 -1.81765 -2.433 0
M  V30 47444 H 4276.65 -0.945943 -1.15639 0
M  V30 47445 H 4278.53 -0.129057 -4.21202 0
M  V30 47446 H 4277.21 0.504107 -3.19751 0
M  V30 47447 H 4276.11 -1.81199 -3.27289 0
M  V30 47448 H 4277.45 -2.36677 -4.31561 0
M  V30 47449 N 4279.1 1.2463 -0.964637 0
M  V30 47450 C 4280.52 1.44825 -0.67067 0
M  V30 47451 C 4280.72 1.86268 0.768526 0
M  V30 47452 O 4279.77 1.99888 1.54275 0
M  V30 47453 C 4281.08 2.51246 -1.65215 0
M  V30 47454 C 4282.63 2.65077 -1.66443 0
M  V30 47455 C 4283.11 3.74692 -2.63381 0
M  V30 47456 N 4284.6 3.82116 -2.61805 0
M  V30 47457 C 4285.33 4.66449 -3.33486 0
M  V30 47458 N 4284.83 5.54993 -4.14674 0
M  V30 47459 N 4286.62 4.60503 -3.22325 0
M  V30 47460 H 4278.77 0.960243 -1.89455 0
M  V30 47461 H 4281.04 0.483418 -0.815482 0
M  V30 47462 H 4280.74 2.27675 -2.68062 0
M  V30 47463 H 4280.62 3.49349 -1.4225 0
M  V30 47464 H 4283 2.88007 -0.643094 0
M  V30 47465 H 4283.08 1.67341 -1.9347 0
M  V30 47466 H 4282.73 3.52512 -3.65647 0
M  V30 47467 H 4282.66 4.71934 -2.33635 0
M  V30 47468 H 4285.15 3.18828 -2.02872 0
M  V30 47469 H 4285.46 6.16294 -4.66264 0
M  V30 47470 H 4283.81 5.54669 -4.18769 0
M  V30 47471 H 4287 3.90342 -2.58362 0
M  V30 47472 H 4287.17 5.26001 -3.78453 0
M  V30 47473 N 4280.58 0.734386 1.39444 0
M  V30 47474 C 4281.54 0.102517 2.28971 0
M  V30 47475 C 4282.54 -0.667779 1.46278 0
M  V30 47476 O 4283.73 -0.496888 1.66963 0
M  V30 47477 C 4280.86 -0.864049 3.29768 0
M  V30 47478 H 4282.06 0.891258 2.8635 0
M  V30 47479 H 4279.61 0.50018 1.48081 0
M  V30 47480 H 4280.34 -1.67917 2.77443 0
M  V30 47481 H 4280.13 -0.314349 3.90838 0
M  V30 47482 H 4281.62 -1.30275 3.9676 0
M  V30 47483 N 4282.06 -1.50049 0.481972 0
M  V30 47484 C 4282.99 -2.26619 -0.342966 0
M  V30 47485 C 4284 -1.32386 -0.947515 0
M  V30 47486 O 4285.19 -1.57814 -0.834077 0
M  V30 47487 C 4282.29 -3.04092 -1.49603 0
M  V30 47488 C 4281.46 -4.25762 -1.00229 0
M  V30 47489 C 4280.52 -4.85437 -2.03069 0
M  V30 47490 O 4279.55 -5.46047 -1.6069 0
M  V30 47491 N 4280.75 -4.73399 -3.35967 0
M  V30 47492 H 4283.51 -2.98056 0.31351 0
M  V30 47493 H 4281.08 -1.58838 0.31339 0
M  V30 47494 H 4283.07 -3.40892 -2.18117 0
M  V30 47495 H 4281.64 -2.35385 -2.057 0
M  V30 47496 H 4280.86 -3.93942 -0.142671 0
M  V30 47497 H 4282.15 -5.04625 -0.650498 0
M  V30 47498 H 4281.54 -4.25222 -3.73099 0
M  V30 47499 H 4280.1 -5.14437 -4.00247 0
M  V30 47500 N 4283.53 -0.215012 -1.56126 0
M  V30 47501 C 4284.48 0.714314 -2.2136 0
M  V30 47502 C 4285.48 1.2047 -1.19094 0
M  V30 47503 O 4286.68 1.16529 -1.3719 0
M  V30 47504 H 4283.06 0.248757 -0.709665 0
M  V30 47505 H 4285.03 0.140626 -2.98068 0
M  V30 47506 C 4283.78 1.91461 -2.90238 0
M  V30 47507 H 4283.1 1.54637 -3.68683 0
M  V30 47508 H 4284.54 2.54279 -3.39291 0
M  V30 47509 C 4283 2.76592 -1.9235 0
M  V30 47510 O 4283.53 3.75144 -1.43631 0
M  V30 47511 N 4281.73 2.42493 -1.60142 0
M  V30 47512 H 4281.28 1.62406 -1.99955 0
M  V30 47513 H 4281.24 2.99733 -0.949075 0
M  V30 47514 N 4285.01 1.57492 0.0584368 0
M  V30 47515 C 4286.26 1.88176 0.756157 0
M  V30 47516 C 4286.59 0.809049 1.76545 0
M  V30 47517 O 4285.87 -0.179252 1.93672 0
M  V30 47518 C 4286.15 3.29521 1.45218 0
M  V30 47519 C 4286 4.47458 0.458393 0
M  V30 47520 C 4287.32 3.69308 2.39374 0
M  V30 47521 H 4284.44 0.684402 0.273428 0
M  V30 47522 H 4287.08 1.8999 0.0191663 0
M  V30 47523 H 4285.23 3.28104 2.08038 0
M  V30 47524 H 4286.9 4.61003 -0.165628 0
M  V30 47525 H 4285.15 4.33216 -0.225094 0
M  V30 47526 H 4285.82 5.43172 0.983288 0
M  V30 47527 H 4288.29 3.71903 1.86621 0
M  V30 47528 H 4287.17 4.6907 2.8507 0
M  V30 47529 H 4287.43 2.99962 3.2477 0
M  V30 47530 N 4286.49 -0.330122 1.54104 0
M  V30 47531 C 4287.72 -1.08854 1.7595 0
M  V30 47532 C 4288.13 -1.81921 0.504981 0
M  V30 47533 O 4287.49 -1.74815 -0.524022 0
M  V30 47534 C 4287.54 -2.0917 2.94839 0
M  V30 47535 O 4287.26 -1.39072 4.1544 0
M  V30 47536 C 4288.76 -2.97282 3.28844 0
M  V30 47537 H 4285.98 -0.324066 0.587556 0
M  V30 47538 H 4288.53 -0.378244 2.00972 0
M  V30 47539 H 4286.68 -2.75744 2.7211 0
M  V30 47540 H 4287.1 -2.06196 4.82269 0
M  V30 47541 H 4288.57 -3.63578 4.15349 0
M  V30 47542 H 4289.05 -3.64027 2.45726 0
M  V30 47543 H 4289.65 -2.36278 3.53628 0
M  V30 47544 N 4287.97 -1.46065 -0.591845 0
M  V30 47545 C 4289.38 -1.30818 -0.914264 0
M  V30 47546 C 4289.58 -0.272839 -1.99644 0
M  V30 47547 O 4288.64 0.327774 -2.50364 0
M  V30 47548 C 4289.95 -2.69179 -1.34027 0
M  V30 47549 C 4291.5 -2.77198 -1.45362 0
M  V30 47550 C 4291.98 -4.1612 -1.91333 0
M  V30 47551 N 4293.47 -4.18492 -1.98541 0
M  V30 47552 C 4294.2 -5.22867 -2.35366 0
M  V30 47553 N 4293.7 -6.37577 -2.71049 0
M  V30 47554 N 4295.49 -5.1023 -2.35842 0
M  V30 47555 H 4287.64 -2.12043 0.123176 0
M  V30 47556 H 4289.91 -0.94797 -0.00756028 0
M  V30 47557 H 4289.61 -3.46207 -0.619177 0
M  V30 47558 H 4289.49 -2.98683 -2.30365 0
M  V30 47559 H 4291.87 -2.00464 -2.1656 0
M  V30 47560 H 4291.95 -2.51389 -0.472987 0
M  V30 47561 H 4291.6 -4.93346 -1.20717 0
M  V30 47562 H 4291.53 -4.39331 -2.90338 0
M  V30 47563 H 4294.02 -3.35722 -1.73492 0
M  V30 47564 H 4294.33 -7.13001 -2.98075 0
M  V30 47565 H 4292.68 -6.40953 -2.68708 0
M  V30 47566 H 4295.87 -4.19655 -2.07382 0
M  V30 47567 H 4296.04 -5.91688 -2.64214 0
M  V30 47568 N 4289.45 0.835705 -1.33618 0
M  V30 47569 C 4290.38 1.96094 -1.26765 0
M  V30 47570 C 4291.36 1.69458 -0.147593 0
M  V30 47571 O 4292.54 1.91238 -0.337884 0
M  V30 47572 C 4289.67 3.3231 -1.00933 0
M  V30 47573 C 4288.63 3.73351 -2.09268 0
M  V30 47574 C 4287.95 5.07408 -1.68644 0
M  V30 47575 C 4289.25 3.868 -3.50975 0
M  V30 47576 H 4290.95 2.02085 -2.20912 0
M  V30 47577 H 4288.49 0.970888 -1.06347 0
M  V30 47578 H 4290.45 4.10601 -0.947881 0
M  V30 47579 H 4289.17 3.26584 -0.0322597 0
M  V30 47580 H 4287.83 2.97325 -2.1446 0
M  V30 47581 H 4287.48 4.98157 -0.696311 0
M  V30 47582 H 4287.18 5.35839 -2.41143 0
M  V30 47583 H 4288.7 5.88172 -1.63971 0
M  V30 47584 H 4290.11 4.55395 -3.48265 0
M  V30 47585 H 4288.51 4.26671 -4.21986 0
M  V30 47586 H 4289.58 2.89159 -3.89249 0
M  V30 47587 N 4290.92 1.17138 1.05434 0
M  V30 47588 C 4291.85 0.90915 2.15074 0
M  V30 47589 C 4292.84 -0.147912 1.69456 0
M  V30 47590 O 4294.02 0.00181366 1.942 0
M  V30 47591 C 4291.15 0.41898 3.44763 0
M  V30 47592 C 4290.1 1.41495 4.03935 0
M  V30 47593 C 4289.43 0.782832 5.28938 0
M  V30 47594 C 4290.73 2.78736 4.41705 0
M  V30 47595 H 4292.42 1.82604 2.37268 0
M  V30 47596 H 4289.97 0.879396 1.14029 0
M  V30 47597 H 4291.92 0.222959 4.2081 0
M  V30 47598 H 4290.65 -0.533439 3.22214 0
M  V30 47599 H 4289.31 1.59767 3.29955 0
M  V30 47600 H 4288.95 -0.176346 5.02691 0
M  V30 47601 H 4288.65 1.44768 5.69488 0
M  V30 47602 H 4290.18 0.597029 6.07674 0
M  V30 47603 H 4291.59 2.64196 5.08796 0
M  V30 47604 H 4289.99 3.41775 4.93265 0
M  V30 47605 H 4291.06 3.33331 3.52162 0
M  V30 47606 N 4292.4 -1.24116 0.971232 0
M  V30 47607 C 4293.82 -1.44467 0.678341 0
M  V30 47608 C 4294.02 -1.86673 -0.758637 0
M  V30 47609 O 4293.07 -2.00704 -1.53213 0
M  V30 47610 C 4294.39 -2.50366 1.66545 0
M  V30 47611 C 4295.94 -2.6419 1.67847 0
M  V30 47612 C 4296.41 -3.7329 2.65364 0
M  V30 47613 N 4297.9 -3.80722 2.63828 0
M  V30 47614 C 4298.64 -4.64674 3.35955 0
M  V30 47615 N 4298.13 -5.52786 4.17611 0
M  V30 47616 N 4299.93 -4.58787 3.24763 0
M  V30 47617 H 4292.08 -0.950183 1.89961 0
M  V30 47618 H 4294.34 -0.479087 0.818034 0
M  V30 47619 H 4294.05 -2.2625 2.69265 0
M  V30 47620 H 4293.92 -3.4859 1.44101 0
M  V30 47621 H 4296.31 -2.87662 0.658359 0
M  V30 47622 H 4296.39 -1.66313 1.94354 0
M  V30 47623 H 4296.03 -3.50568 3.67512 0
M  V30 47624 H 4295.96 -4.70689 2.36135 0
M  V30 47625 H 4298.45 -3.17748 2.0456 0
M  V30 47626 H 4298.77 -6.13812 4.69526 0
M  V30 47627 H 4297.11 -5.5244 4.21705 0
M  V30 47628 H 4300.3 -3.88966 2.60429 0
M  V30 47629 H 4300.47 -5.23987 3.81237 0
M  V30 47630 N 4293.88 -0.741771 -1.39052 0
M  V30 47631 C 4294.83 -0.106238 -2.30555 0
M  V30 47632 C 4295.8 0.722408 -1.49568 0
M  V30 47633 O 4296.98 0.680976 -1.78234 0
M  V30 47634 C 4294.12 0.789954 -3.35937 0
M  V30 47635 C 4293.24 -0.0520399 -4.31969 0
M  V30 47636 C 4292.37 0.846054 -5.24419 0
M  V30 47637 C 4291.41 -0.000285036 -6.121 0
M  V30 47638 N 4290.55 0.854114 -6.96885 0
M  V30 47639 H 4295.39 -0.892163 -2.84332 0
M  V30 47640 H 4292.92 -0.451607 -1.39996 0
M  V30 47641 H 4294.88 1.32406 -3.95632 0
M  V30 47642 H 4293.51 1.54178 -2.836 0
M  V30 47643 H 4292.56 -0.703645 -3.73836 0
M  V30 47644 H 4293.88 -0.706148 -4.93776 0
M  V30 47645 H 4293.03 1.44776 -5.89173 0
M  V30 47646 H 4291.77 1.53393 -4.62949 0
M  V30 47647 H 4290.77 -0.614744 -5.46352 0
M  V30 47648 H 4292 -0.68504 -6.75636 0
M  V30 47649 H 4289.94 1.52715 -6.37977 0
M  V30 47650 H 4289.86 0.256639 -7.55564 0
M  V30 47651 H 4291.13 1.44117 -7.66062 0
M  V30 47652 N 4295.36 1.49792 -0.489923 0
M  V30 47653 C 4296.29 2.26798 0.330943 0
M  V30 47654 C 4297.3 1.32886 0.940481 0
M  V30 47655 O 4298.49 1.58255 0.825696 0
M  V30 47656 C 4295.59 3.04881 1.47988 0
M  V30 47657 C 4294.77 4.26287 0.979692 0
M  V30 47658 C 4293.82 4.86507 2.00492 0
M  V30 47659 O 4292.85 5.46891 1.57792 0
M  V30 47660 N 4294.05 4.75174 3.33452 0
M  V30 47661 H 4296.82 2.97885 -0.329312 0
M  V30 47662 H 4294.38 1.58669 -0.321809 0
M  V30 47663 H 4296.37 3.42044 2.16306 0
M  V30 47664 H 4294.94 2.36473 2.04449 0
M  V30 47665 H 4294.16 3.94012 0.121777 0
M  V30 47666 H 4295.45 5.04962 0.623728 0
M  V30 47667 H 4294.85 4.27194 3.70839 0
M  V30 47668 H 4293.4 5.16552 3.97514 0
M  V30 47669 N 4296.84 0.223289 1.5601 0
M  V30 47670 C 4297.8 -0.672603 2.19109 0
M  V30 47671 C 4298.8 -1.12036 1.15346 0
M  V30 47672 O 4299.99 -1.02888 1.40569 0
M  V30 47673 C 4297.12 -1.9216 2.8158 0
M  V30 47674 H 4298.31 -0.122447 2.9965 0
M  V30 47675 H 4295.87 -0.0263209 1.56278 0
M  V30 47676 H 4296.6 -2.51358 2.04913 0
M  V30 47677 H 4296.39 -1.60899 3.57567 0
M  V30 47678 H 4297.88 -2.55985 3.29942 0
M  V30 47679 N 4298.31 -1.5752 -0.0500839 0
M  V30 47680 C 4299.22 -2.08544 -1.07455 0
M  V30 47681 C 4300.24 -1.0195 -1.41004 0
M  V30 47682 O 4301.42 -1.33557 -1.50746 0
M  V30 47683 C 4298.48 -2.53727 -2.36269 0
M  V30 47684 C 4297.54 -3.74714 -2.09494 0
M  V30 47685 C 4296.78 -4.17734 -3.32166 0
M  V30 47686 O 4297 -3.6044 -4.42085 0
M  V30 47687 O 4295.93 -5.10351 -3.19101 0
M  V30 47688 H 4299.76 -2.96194 -0.671013 0
M  V30 47689 H 4297.34 -1.47019 -0.265683 0
M  V30 47690 H 4299.23 -2.83214 -3.12038 0
M  V30 47691 H 4297.9 -1.69197 -2.7596 0
M  V30 47692 H 4296.81 -3.50279 -1.3136 0
M  V30 47693 H 4298.14 -4.60164 -1.74671 0
M  V30 47694 N 4299.79 0.321945 -1.54277 0
M  V30 47695 C 4300.7 1.41926 -1.868 0
M  V30 47696 C 4301.72 1.56521 -0.760079 0
M  V30 47697 O 4302.89 1.71586 -1.05453 0
M  V30 47698 C 4299.96 2.76616 -2.09008 0
M  V30 47699 C 4299.02 2.71183 -3.32803 0
M  V30 47700 C 4298.25 3.9945 -3.53943 0
M  V30 47701 O 4298.48 4.97794 -2.7849 0
M  V30 47702 O 4297.41 4.02611 -4.47424 0
M  V30 47703 H 4301.24 1.1735 -2.80112 0
M  V30 47704 H 4298.82 0.516116 -1.40202 0
M  V30 47705 H 4300.7 3.56345 -2.24936 0
M  V30 47706 H 4299.38 3.01078 -1.18884 0
M  V30 47707 H 4298.29 1.9 -3.22259 0
M  V30 47708 H 4299.62 2.51675 -4.2299 0
M  V30 47709 N 4301.27 1.46377 0.58409 0
M  V30 47710 C 4302.52 1.5184 1.34434 0
M  V30 47711 C 4302.85 0.168982 1.93463 0
M  V30 47712 O 4302.12 -0.819424 1.76396 0
M  V30 47713 C 4302.41 2.6159 2.47472 0
M  V30 47714 C 4302.26 4.06058 1.93487 0
M  V30 47715 C 4303.58 2.67436 3.49523 0
M  V30 47716 H 4300.7 0.55278 0.487445 0
M  V30 47717 H 4303.34 1.78306 0.656272 0
M  V30 47718 H 4301.49 2.39154 3.06166 0
M  V30 47719 H 4303.16 4.39777 1.39261 0
M  V30 47720 H 4301.41 4.15603 1.24325 0
M  V30 47721 H 4302.08 4.78577 2.75078 0
M  V30 47722 H 4304.55 2.87601 3.00707 0
M  V30 47723 H 4303.43 3.4605 4.26075 0
M  V30 47724 H 4303.69 1.73433 4.06661 0
M  V30 47725 N 4302.75 -0.828607 1.34059 0
M  V30 47726 C 4303.7 -1.96054 1.25162 0
M  V30 47727 C 4304.69 -1.68727 0.150872 0
M  V30 47728 O 4305.9 -1.77214 0.315488 0
M  V30 47729 H 4302.27 -0.643764 0.38868 0
M  V30 47730 H 4304.24 -2.00681 2.20838 0
M  V30 47731 C 4302.99 -3.32459 1.01816 0
M  V30 47732 H 4302.32 -3.54032 1.85746 0
M  V30 47733 H 4303.76 -4.1213 0.996245 0
M  V30 47734 C 4302.21 -3.35745 -0.278699 0
M  V30 47735 O 4302.74 -3.80694 -1.28197 0
M  V30 47736 N 4300.95 -2.88944 -0.309826 0
M  V30 47737 H 4300.5 -2.52558 0.507179 0
M  V30 47738 H 4300.46 -2.91525 -1.17732 0
M  V30 47739 N 4304.23 -1.17696 -1.04812 0
M  V30 47740 C 4305.46 -0.992362 -1.81548 0
M  V30 47741 C 4305.87 0.459343 -1.83127 0
M  V30 47742 O 4305.23 1.31901 -1.26129 0
M  V30 47743 C 4305.28 -1.53073 -3.27492 0
M  V30 47744 O 4305 -2.92559 -3.26099 0
M  V30 47745 C 4306.5 -1.39126 -4.20902 0
M  V30 47746 H 4303.72 -0.350859 -0.571961 0
M  V30 47747 H 4306.26 -1.56073 -1.32142 0
M  V30 47748 H 4304.42 -1.0043 -3.74156 0
M  V30 47749 H 4304.83 -3.17519 -4.17471 0
M  V30 47750 H 4306.31 -1.81604 -5.21271 0
M  V30 47751 H 4306.78 -0.338889 -4.37891 0
M  V30 47752 H 4307.39 -1.90804 -3.80097 0
M  V30 47753 N 4305.71 1.23599 -0.977801 0
M  V30 47754 C 4306.62 2.28671 -0.524079 0
M  V30 47755 C 4307.63 1.68858 0.419864 0
M  V30 47756 O 4308.81 1.99295 0.290423 0
M  V30 47757 C 4305.87 3.46289 0.168799 0
M  V30 47758 C 4304.93 4.21469 -0.816224 0
M  V30 47759 C 4304.17 5.33471 -0.156317 0
M  V30 47760 O 4304.39 5.60593 1.05319 0
M  V30 47761 O 4303.32 5.95817 -0.853577 0
M  V30 47762 H 4307.15 2.69619 -1.39782 0
M  V30 47763 H 4304.73 1.29482 -0.745311 0
M  V30 47764 H 4306.62 4.17695 0.557585 0
M  V30 47765 H 4305.29 3.07297 1.01735 0
M  V30 47766 H 4304.2 3.52397 -1.25566 0
M  V30 47767 H 4305.53 4.64303 -1.6335 0
M  V30 47768 N 4307.18 0.749135 1.38657 0
M  V30 47769 C 4308.43 0.312702 2.00982 0
M  V30 47770 C 4308.78 -1.09216 1.58397 0
M  V30 47771 O 4308.08 -1.73664 0.809413 0
M  V30 47772 C 4308.27 0.368715 3.55493 0
M  V30 47773 C 4308.1 1.77748 4.13081 0
M  V30 47774 C 4306.87 2.39299 4.45044 0
M  V30 47775 C 4309.07 2.73341 4.35648 0
M  V30 47776 N 4307.05 3.72183 4.88214 0
M  V30 47777 C 4308.42 3.90983 4.81178 0
M  V30 47778 C 4310.48 2.70921 4.17739 0
M  V30 47779 C 4309.18 5.06559 5.10677 0
M  V30 47780 C 4311.21 3.85651 4.4836 0
M  V30 47781 C 4310.57 5.02031 4.9411 0
M  V30 47782 H 4306.67 0.160988 0.76525 0
M  V30 47783 H 4309.25 0.978135 1.68347 0
M  V30 47784 H 4307.42 -0.266428 3.87485 0
M  V30 47785 H 4309.15 -0.0876114 4.04605 0
M  V30 47786 H 4305.91 1.91102 4.33332 0
M  V30 47787 H 4306.33 4.40444 5.14138 0
M  V30 47788 H 4310.97 1.82131 3.8156 0
M  V30 47789 H 4308.69 5.95968 5.45755 0
M  V30 47790 H 4312.28 3.85093 4.36113 0
M  V30 47791 H 4311.16 5.89335 5.17353 0
M  V30 47792 N 4308.66 -1.4953 0.49786 0
M  V30 47793 C 4309.57 -2.32839 -0.286885 0
M  V30 47794 C 4310.59 -1.44429 -0.970371 0
M  V30 47795 O 4311.76 -1.77455 -0.952447 0
M  V30 47796 C 4308.83 -3.1979 -1.33923 0
M  V30 47797 C 4307.89 -4.24047 -0.669513 0
M  V30 47798 C 4307.12 -5.06843 -1.67172 0
M  V30 47799 O 4307.35 -4.91106 -2.90123 0
M  V30 47800 O 4306.28 -5.89224 -1.22877 0
M  V30 47801 H 4310.11 -3.01121 0.394922 0
M  V30 47802 H 4307.69 -1.47134 0.259244 0
M  V30 47803 H 4309.57 -3.73664 -1.94816 0
M  V30 47804 H 4308.25 -2.54206 -2.00402 0
M  V30 47805 H 4307.15 -3.74094 -0.0209264 0
M  V30 47806 H 4308.49 -4.92177 -0.0472201 0
M  V30 47807 N 4310.14 -0.23156 -1.5589 0
M  V30 47808 C 4311.09 0.674422 -2.20727 0
M  V30 47809 C 4312.06 1.18286 -1.16609 0
M  V30 47810 O 4313.24 1.24013 -1.45001 0
M  V30 47811 C 4310.38 1.87254 -2.89879 0
M  V30 47812 C 4309.49 1.40206 -4.08615 0
M  V30 47813 C 4308.63 2.55853 -4.65524 0
M  V30 47814 C 4307.67 2.05591 -5.7654 0
M  V30 47815 N 4306.81 3.14547 -6.27698 0
M  V30 47816 H 4311.65 0.114813 -2.97779 0
M  V30 47817 H 4309.18 0.0449137 -1.47031 0
M  V30 47818 H 4311.14 2.57613 -3.28163 0
M  V30 47819 H 4309.77 2.40487 -2.15328 0
M  V30 47820 H 4308.82 0.59304 -3.75749 0
M  V30 47821 H 4310.13 0.99359 -4.88804 0
M  V30 47822 H 4309.29 3.34279 -5.06303 0
M  V30 47823 H 4308.03 2.99994 -3.84519 0
M  V30 47824 H 4307.03 1.2563 -5.35254 0
M  V30 47825 H 4308.26 1.62438 -6.59387 0
M  V30 47826 H 4306.2 3.58151 -5.49603 0
M  V30 47827 H 4306.12 2.77983 -7.03037 0
M  V30 47828 H 4307.39 3.93079 -6.73134 0
M  V30 47829 N 4311.62 1.57545 0.0417295 0
M  V30 47830 C 4312.55 2.08762 1.04598 0
M  V30 47831 C 4313.53 0.987392 1.38508 0
M  V30 47832 O 4314.71 1.2619 1.47613 0
M  V30 47833 C 4311.84 2.55653 2.35072 0
M  V30 47834 C 4310.8 3.69825 2.15437 0
M  V30 47835 C 4310.12 4.02877 3.51559 0
M  V30 47836 C 4311.42 4.98743 1.55089 0
M  V30 47837 H 4313.12 2.92917 0.619681 0
M  V30 47838 H 4310.66 1.40912 0.296634 0
M  V30 47839 H 4312.62 2.90102 3.05645 0
M  V30 47840 H 4311.34 1.68565 2.79738 0
M  V30 47841 H 4310 3.35706 1.473 0
M  V30 47842 H 4309.65 3.12874 3.93851 0
M  V30 47843 H 4309.35 4.79773 3.39252 0
M  V30 47844 H 4310.87 4.39849 4.23515 0
M  V30 47845 H 4312.29 5.3123 2.15564 0
M  V30 47846 H 4310.68 5.80164 1.53393 0
M  V30 47847 H 4311.75 4.82154 0.515352 0
M  V30 47848 N 4313.1 -0.313759 1.54445 0
M  V30 47849 C 4314.04 -1.4066 1.8525 0
M  V30 47850 C 4315.04 -1.53093 0.725174 0
M  V30 47851 O 4316.24 -1.55362 0.908984 0
M  V30 47852 H 4312.62 -0.469585 0.587362 0
M  V30 47853 H 4314.59 -1.11908 2.76621 0
M  V30 47854 C 4313.34 -2.7672 2.10526 0
M  V30 47855 H 4312.66 -2.6793 2.96738 0
M  V30 47856 H 4314.1 -3.52231 2.36028 0
M  V30 47857 C 4312.56 -3.24661 0.899824 0
M  V30 47858 O 4313.09 -4.01538 0.113953 0
M  V30 47859 N 4311.3 -2.81825 0.708734 0
M  V30 47860 H 4310.84 -2.19425 1.34945 0
M  V30 47861 H 4310.8 -3.14253 -0.096281 0
M  V30 47862 N 4314.57 -1.46684 -0.576319 0
M  V30 47863 C 4315.5 -1.60597 -1.69502 0
M  V30 47864 C 4316.48 -0.45605 -1.63872 0
M  V30 47865 O 4317.67 -0.683076 -1.8179 0
M  V30 47866 C 4314.8 -1.602 -3.08145 0
M  V30 47867 C 4313.75 -2.74226 -3.2861 0
M  V30 47868 C 4313.08 -2.58892 -4.67845 0
M  V30 47869 C 4314.38 -4.15994 -3.15826 0
M  V30 47870 H 4316.07 -2.54244 -1.58115 0
M  V30 47871 H 4313.62 -1.22358 -0.759249 0
M  V30 47872 H 4315.57 -1.68526 -3.86234 0
M  V30 47873 H 4314.3 -0.631008 -3.20446 0
M  V30 47874 H 4312.96 -2.65379 -2.52922 0
M  V30 47875 H 4312.6 -1.59863 -4.7692 0
M  V30 47876 H 4312.3 -3.35377 -4.82489 0
M  V30 47877 H 4313.83 -2.69119 -5.48094 0
M  V30 47878 H 4315.24 -4.25918 -3.83753 0
M  V30 47879 H 4313.64 -4.93116 -3.41989 0
M  V30 47880 H 4314.71 -4.35701 -2.1282 0
M  V30 47881 N 4316.05 0.821486 -1.34497 0
M  V30 47882 C 4317 1.9214 -1.22745 0
M  V30 47883 C 4317.99 1.60405 -0.126151 0
M  V30 47884 O 4319.18 1.73384 -0.355953 0
M  V30 47885 C 4316.31 3.28819 -0.986555 0
M  V30 47886 C 4315.39 3.66668 -2.13109 0
M  V30 47887 N 4315.78 3.7607 -3.38238 0
M  V30 47888 C 4314.08 3.96526 -2.04165 0
M  V30 47889 C 4314.78 4.09227 -4.13411 0
M  V30 47890 N 4313.76 4.22523 -3.42016 0
M  V30 47891 H 4317.56 1.97589 -2.17568 0
M  V30 47892 H 4315.07 1.01523 -1.26755 0
M  V30 47893 H 4317.07 4.07436 -0.88327 0
M  V30 47894 H 4315.73 3.24666 -0.0470283 0
M  V30 47895 H 4316.74 3.59528 -3.72774 0
M  V30 47896 H 4313.42 4.00484 -1.17978 0
M  V30 47897 H 4314.81 4.23693 -5.21473 0
M  V30 47898 N 4317.53 1.1825 1.04186 0
M  V30 47899 C 4318.76 1.00258 1.81557 0
M  V30 47900 C 4319.18 -0.444304 1.82777 0
M  V30 47901 O 4318.54 -1.31869 1.24419 0
M  V30 47902 C 4318.59 1.56049 3.25086 0
M  V30 47903 O 4317.69 0.781043 4.04936 0
M  V30 47904 H 4317.03 0.355258 0.56097 0
M  V30 47905 H 4319.56 1.56979 1.3122 0
M  V30 47906 H 4319.57 1.5871 3.75866 0
M  V30 47907 H 4318.25 2.61366 3.23513 0
M  V30 47908 H 4316.82 0.826657 3.63622 0
M  V30 47909 N 4319.01 -1.23079 0.984342 0
M  V30 47910 C 4319.97 -2.22922 0.532777 0
M  V30 47911 C 4320.97 -1.56252 -0.379731 0
M  V30 47912 O 4322.16 -1.7334 -0.172875 0
M  V30 47913 C 4319.29 -3.40149 -0.226202 0
M  V30 47914 H 4320.49 -2.64386 1.41563 0
M  V30 47915 H 4318.04 -1.35981 0.770644 0
M  V30 47916 H 4318.77 -3.04146 -1.12542 0
M  V30 47917 H 4318.56 -3.89748 0.428869 0
M  V30 47918 H 4320.05 -4.14215 -0.530598 0
M  V30 47919 N 4320.49 -0.756478 -1.38258 0
M  V30 47920 C 4321.76 -0.239308 -1.94131 0
M  V30 47921 C 4322.14 1.26296 -1.69152 0
M  V30 47922 O 4321.49 2.03884 -1.03169 0
M  V30 47923 C 4321.7 -0.596132 -3.43871 0
M  V30 47924 C 4323.05 -0.557386 -4.20926 0
M  V30 47925 O 4324.07 -0.534599 -3.52165 0
M  V30 47926 O 4322.93 -0.570886 -5.4351 0
M  V30 47927 H 4320.03 -0.0509548 -0.825429 0
M  V30 47928 H 4322.57 -0.836796 -1.47634 0
M  V30 47929 H 4321.34 -1.63354 -3.55572 0
M  V30 47930 H 4320.97 0.029211 -3.97589 0
M  V30 47931 N 4321.96 1.49264 -0.505783 0
M  V30 47932 C 4323.21 2.03379 0.029066 0
M  V30 47933 C 4323.57 1.37819 1.34252 0
M  V30 47934 O 4322.86 0.50645 1.84785 0
M  V30 47935 C 4323.05 3.56638 0.233183 0
M  V30 47936 C 4322.88 4.37054 -1.05894 0
M  V30 47937 C 4321.65 4.78895 -1.61208 0
M  V30 47938 C 4323.85 4.75346 -1.96344 0
M  V30 47939 N 4321.83 5.43756 -2.84961 0
M  V30 47940 C 4323.2 5.39975 -3.04675 0
M  V30 47941 C 4325.26 4.57285 -1.96964 0
M  V30 47942 C 4323.96 5.88454 -4.13659 0
M  V30 47943 C 4325.99 5.06728 -3.04927 0
M  V30 47944 C 4325.35 5.71362 -4.11977 0
M  V30 47945 H 4321.45 0.781414 -0.0302632 0
M  V30 47946 H 4324.03 1.82376 -0.681702 0
M  V30 47947 H 4322.2 3.77516 0.913012 0
M  V30 47948 H 4323.93 3.97395 0.765467 0
M  V30 47949 H 4320.69 4.5926 -1.1566 0
M  V30 47950 H 4321.11 5.8077 -3.47901 0
M  V30 47951 H 4325.76 4.06717 -1.15505 0
M  V30 47952 H 4323.47 6.38041 -4.95912 0
M  V30 47953 H 4327.06 4.94561 -3.06432 0
M  V30 47954 H 4325.94 6.08929 -4.94141 0
M  V30 47955 N 4323.44 0.239823 1.55765 0
M  V30 47956 C 4324.37 -0.695339 2.18398 0
M  V30 47957 C 4325.39 -1.14405 1.15824 0
M  V30 47958 O 4326.58 -1.07205 1.42721 0
M  V30 47959 C 4323.68 -1.95596 2.76759 0
M  V30 47960 C 4322.85 -1.65985 4.04682 0
M  V30 47961 C 4321.91 -2.76935 4.4743 0
M  V30 47962 O 4320.93 -2.44623 5.13953 0
M  V30 47963 N 4322.14 -4.06282 4.14626 0
M  V30 47964 H 4324.9 -0.159468 2.99275 0
M  V30 47965 H 4322.46 0.0595104 1.61791 0
M  V30 47966 H 4324.45 -2.69047 3.02317 0
M  V30 47967 H 4323.02 -2.40181 2.00079 0
M  V30 47968 H 4322.24 -0.760866 3.86787 0
M  V30 47969 H 4323.53 -1.43655 4.88099 0
M  V30 47970 H 4322.93 -4.3537 3.61206 0
M  V30 47971 H 4321.49 -4.7622 4.45037 0
M  V30 47972 N 4324.92 -1.57565 -0.0333739 0
M  V30 47973 C 4326.34 -1.54788 -0.388943 0
M  V30 47974 C 4326.54 -0.965368 -1.7687 0
M  V30 47975 O 4325.59 -0.584535 -2.45641 0
M  V30 47976 C 4326.91 -2.99252 -0.294747 0
M  V30 47977 C 4328.45 -3.1078 -0.372144 0
M  V30 47978 C 4328.93 -4.56967 -0.307443 0
M  V30 47979 N 4330.42 -4.61749 -0.366369 0
M  V30 47980 C 4331.15 -5.72396 -0.339128 0
M  V30 47981 N 4330.65 -6.92295 -0.264432 0
M  V30 47982 N 4332.44 -5.60756 -0.388539 0
M  V30 47983 H 4324.59 -1.93782 0.869616 0
M  V30 47984 H 4326.86 -0.888618 0.330246 0
M  V30 47985 H 4326.56 -3.4558 0.653238 0
M  V30 47986 H 4326.44 -3.61105 -1.09009 0
M  V30 47987 H 4328.82 -2.64402 -1.31056 0
M  V30 47988 H 4328.91 -2.51766 0.452475 0
M  V30 47989 H 4328.55 -5.04011 0.627287 0
M  V30 47990 H 4328.48 -5.13887 -1.15011 0
M  V30 47991 H 4330.97 -3.75482 -0.426787 0
M  V30 47992 H 4331.28 -7.724 -0.248628 0
M  V30 47993 H 4329.63 -6.94618 -0.230544 0
M  V30 47994 H 4332.82 -4.65981 -0.444855 0
M  V30 47995 H 4332.99 -6.46978 -0.363841 0
M  V30 47996 N 4326.4 0.305564 -1.54609 0
M  V30 47997 C 4327.35 1.3767 -1.85245 0
M  V30 47998 C 4328.32 1.50584 -0.700979 0
M  V30 47999 O 4329.5 1.65516 -0.949164 0
M  V30 48000 C 4326.64 2.73749 -2.10132 0
M  V30 48001 C 4325.75 2.69322 -3.37772 0
M  V30 48002 C 4324.89 3.97365 -3.52526 0
M  V30 48003 C 4323.93 3.87317 -4.73975 0
M  V30 48004 N 4323.06 5.07126 -4.85559 0
M  V30 48005 H 4327.9 1.10845 -2.76618 0
M  V30 48006 H 4325.44 0.536215 -1.36979 0
M  V30 48007 H 4327.4 3.52881 -2.22556 0
M  V30 48008 H 4326.03 2.98845 -1.2203 0
M  V30 48009 H 4325.08 1.8208 -3.33992 0
M  V30 48010 H 4326.39 2.57785 -4.27022 0
M  V30 48011 H 4325.55 4.84932 -3.64589 0
M  V30 48012 H 4324.29 4.1173 -2.614 0
M  V30 48013 H 4323.29 2.98133 -4.61949 0
M  V30 48014 H 4324.52 3.74501 -5.66503 0
M  V30 48015 H 4322.46 5.21963 -3.97355 0
M  V30 48016 H 4322.38 4.97995 -5.68803 0
M  V30 48017 H 4323.65 5.96358 -5.01974 0
M  V30 48018 N 4327.88 1.46988 0.568532 0
M  V30 48019 C 4329.13 1.52294 1.32248 0
M  V30 48020 C 4329.44 0.185017 1.94723 0
M  V30 48021 O 4330.64 0.11598 2.71252 0
M  V30 48022 C 4329.1 2.68412 2.39756 0
M  V30 48023 C 4328.71 4.08686 1.83521 0
M  V30 48024 C 4330.45 2.83001 3.16403 0
M  V30 48025 C 4328.36 5.16122 2.88742 0
M  V30 48026 H 4327.29 0.566829 0.497213 0
M  V30 48027 H 4329.94 1.73235 0.605137 0
M  V30 48028 H 4328.32 2.40828 3.14353 0
M  V30 48029 H 4329.5 4.46123 1.15372 0
M  V30 48030 H 4327.81 3.98886 1.19495 0
M  V30 48031 H 4330.41 3.60436 3.94956 0
M  V30 48032 H 4330.75 1.91031 3.69882 0
M  V30 48033 H 4331.28 3.103 2.48915 0
M  V30 48034 H 4328.02 6.09932 2.40131 0
M  V30 48035 H 4327.54 4.83214 3.55336 0
M  V30 48036 H 4329.22 5.42582 3.52439 0
M  V30 48037 N 4329.35 -0.814342 1.3493 0
M  V30 48038 C 4330.63 -1.55739 1.18341 0
M  V30 48039 C 4331.01 -2.09725 -0.240579 0
M  V30 48040 O 4330.36 -1.91729 -1.24307 0
M  V30 48041 C 4330.57 -2.67202 2.24508 0
M  V30 48042 C 4331.92 -3.35746 2.59922 0
M  V30 48043 O 4332.94 -2.77466 2.23363 0
M  V30 48044 O 4331.8 -4.41011 3.22756 0
M  V30 48045 H 4328.89 -0.687745 0.459277 0
M  V30 48046 H 4331.44 -0.854973 1.46589 0
M  V30 48047 H 4330.21 -2.25127 3.20052 0
M  V30 48048 H 4329.84 -3.45087 1.97486 0
M  V30 48049 N 4330.83 -1.18801 -1.03557 0
M  V30 48050 C 4331.74 -0.934801 -2.15171 0
M  V30 48051 C 4332.76 0.102872 -1.73696 0
M  V30 48052 O 4333.93 -0.080224 -2.0124 0
M  V30 48053 C 4331 -0.469523 -3.43506 0
M  V30 48054 C 4330.06 -1.57578 -3.99334 0
M  V30 48055 C 4329.29 -1.13261 -5.21544 0
M  V30 48056 O 4329.52 0.00659544 -5.704 0
M  V30 48057 O 4328.45 -1.93243 -5.70036 0
M  V30 48058 H 4332.28 -1.86885 -2.3939 0
M  V30 48059 H 4329.86 -0.970259 -1.13606 0
M  V30 48060 H 4331.74 -0.218372 -4.20834 0
M  V30 48061 H 4330.42 0.43617 -3.20748 0
M  V30 48062 H 4329.33 -1.881 -3.23371 0
M  V30 48063 H 4330.66 -2.45778 -4.26443 0
M  V30 48064 N 4332.31 1.22555 -0.990855 0
M  V30 48065 C 4333.54 1.95269 -0.683935 0
M  V30 48066 C 4333.95 1.7322 0.751016 0
M  V30 48067 O 4333.31 1.03002 1.50655 0
M  V30 48068 C 4333.36 3.48024 -0.977815 0
M  V30 48069 O 4333.08 3.69332 -2.35638 0
M  V30 48070 C 4334.58 4.37924 -0.688309 0
M  V30 48071 H 4331.8 0.621402 -0.253181 0
M  V30 48072 H 4334.35 1.55763 -1.32507 0
M  V30 48073 H 4332.5 3.85507 -0.382514 0
M  V30 48074 H 4332.92 4.63547 -2.45407 0
M  V30 48075 H 4334.39 5.43864 -0.944222 0
M  V30 48076 H 4334.87 4.37573 0.377684 0
M  V30 48077 H 4335.47 4.06065 -1.26457 0
M  V30 48078 N 4333.79 0.763799 1.37855 0
M  V30 48079 C 4334.72 0.158556 2.32961 0
M  V30 48080 C 4335.7 -0.692115 1.55383 0
M  V30 48081 O 4336.89 -0.631209 1.83656 0
M  V30 48082 C 4334.02 -0.727526 3.39594 0
M  V30 48083 C 4332.97 0.0212132 4.27995 0
M  V30 48084 C 4332.3 -0.983791 5.25572 0
M  V30 48085 C 4333.6 1.19559 5.08432 0
M  V30 48086 H 4335.29 0.953049 2.83826 0
M  V30 48087 H 4332.84 0.459745 1.36464 0
M  V30 48088 H 4334.79 -1.16069 4.051 0
M  V30 48089 H 4333.51 -1.55445 2.87236 0
M  V30 48090 H 4332.17 0.435066 3.64009 0
M  V30 48091 H 4331.82 -1.80505 4.69496 0
M  V30 48092 H 4331.52 -0.487404 5.85575 0
M  V30 48093 H 4333.04 -1.41606 5.93953 0
M  V30 48094 H 4334.46 0.839472 5.67121 0
M  V30 48095 H 4332.85 1.62352 5.77721 0
M  V30 48096 H 4333.92 2.00357 4.41571 0
M  V30 48097 N 4335.27 -1.48993 0.513692 0
M  V30 48098 C 4336.18 -2.3313 -0.262173 0
M  V30 48099 C 4337.19 -1.4545 -0.954998 0
M  V30 48100 O 4338.37 -1.78456 -0.933572 0
M  V30 48101 C 4335.43 -3.21192 -1.30524 0
M  V30 48102 C 4334.5 -4.24733 -0.6245 0
M  V30 48103 C 4333.73 -5.08587 -1.61786 0
M  V30 48104 O 4333.95 -4.94155 -2.84898 0
M  V30 48105 O 4332.89 -5.90494 -1.16621 0
M  V30 48106 H 4336.71 -3.00686 0.426838 0
M  V30 48107 H 4334.3 -1.4685 0.274835 0
M  V30 48108 H 4336.18 -3.75709 -1.90842 0
M  V30 48109 H 4334.85 -2.56317 -1.97695 0
M  V30 48110 H 4333.76 -3.74095 0.0187524 0
M  V30 48111 H 4335.09 -4.922 0.0049845 0
M  V30 48112 N 4336.75 -0.248081 -1.55635 0
M  V30 48113 C 4338.16 0.106742 -1.59243 0
M  V30 48114 C 4338.36 1.56825 -1.26524 0
M  V30 48115 O 4337.42 2.31284 -1.01312 0
M  V30 48116 C 4338.73 -0.243508 -2.99712 0
M  V30 48117 C 4340.28 -0.187903 -3.12435 0
M  V30 48118 C 4340.75 -0.512202 -4.55127 0
M  V30 48119 N 4342.24 -0.462747 -4.60883 0
M  V30 48120 C 4342.98 -0.686823 -5.69272 0
M  V30 48121 N 4342.48 -0.974088 -6.85918 0
M  V30 48122 N 4344.27 -0.617449 -5.58698 0
M  V30 48123 H 4336.42 -1.20117 -1.75173 0
M  V30 48124 H 4338.68 -0.483386 -0.815501 0
M  V30 48125 H 4338.39 -1.2589 -3.28397 0
M  V30 48126 H 4338.26 0.428819 -3.74755 0
M  V30 48127 H 4340.65 0.818165 -2.83531 0
M  V30 48128 H 4340.73 -0.894097 -2.39665 0
M  V30 48129 H 4340.37 -1.51583 -4.84752 0
M  V30 48130 H 4340.3 0.215482 -5.26159 0
M  V30 48131 H 4342.8 -0.249493 -3.77076 0
M  V30 48132 H 4343.11 -1.13246 -7.64457 0
M  V30 48133 H 4341.45 -1.01157 -6.87599 0
M  V30 48134 H 4344.64 -0.393064 -4.66447 0
M  V30 48135 H 4344.82 -0.795476 -6.43099 0
M  V30 48136 N 4338.22 1.5758 0.0250174 0
M  V30 48137 C 4339.15 2.09859 1.02378 0
M  V30 48138 C 4340.13 1.00203 1.37453 0
M  V30 48139 O 4341.32 1.27749 1.46266 0
M  V30 48140 C 4338.45 2.58132 2.32347 0
M  V30 48141 C 4337.4 3.72089 2.11503 0
M  V30 48142 C 4336.73 4.06583 3.47266 0
M  V30 48143 C 4338.03 5.0036 1.49791 0
M  V30 48144 H 4339.72 2.93558 0.588578 0
M  V30 48145 H 4337.27 1.41218 0.281672 0
M  V30 48146 H 4339.22 2.93328 3.02551 0
M  V30 48147 H 4337.95 1.71522 2.77935 0
M  V30 48148 H 4336.61 3.37249 1.43731 0
M  V30 48149 H 4336.25 3.17034 3.90511 0
M  V30 48150 H 4335.95 4.83344 3.34144 0
M  V30 48151 H 4337.48 4.44316 4.18826 0
M  V30 48152 H 4338.89 5.33486 2.09917 0
M  V30 48153 H 4337.29 5.81759 1.47231 0
M  V30 48154 H 4338.36 4.82673 0.464184 0
M  V30 48155 N 4339.7 -0.29736 1.54769 0
M  V30 48156 C 4340.63 -1.38858 1.82349 0
M  V30 48157 C 4341.65 -1.46665 0.706625 0
M  V30 48158 O 4342.84 -1.48918 0.984154 0
M  V30 48159 C 4339.94 -2.77199 1.94971 0
M  V30 48160 C 4339.11 -2.92281 3.25408 0
M  V30 48161 C 4338.17 -4.11144 3.28401 0
M  V30 48162 O 4337.19 -4.03056 4.01913 0
M  V30 48163 N 4338.4 -5.21955 2.54053 0
M  V30 48164 H 4341.16 -1.15553 2.76528 0
M  V30 48165 H 4338.72 -0.487438 1.54388 0
M  V30 48166 H 4340.71 -3.54968 1.94371 0
M  V30 48167 H 4339.28 -2.93435 1.0777 0
M  V30 48168 H 4338.5 -2.01596 3.38752 0
M  V30 48169 H 4339.79 -2.99271 4.11478 0
M  V30 48170 H 4339.19 -5.31407 1.93966 0
M  V30 48171 H 4337.75 -5.98045 2.59202 0
M  V30 48172 N 4341.18 -1.47287 -0.560729 0
M  V30 48173 C 4342.09 -1.62136 -1.69555 0
M  V30 48174 C 4343.11 -0.504279 -1.66532 0
M  V30 48175 O 4344.28 -0.771348 -1.86043 0
M  V30 48176 C 4341.35 -1.62871 -3.06062 0
M  V30 48177 C 4340.41 -2.85978 -3.2018 0
M  V30 48178 C 4339.64 -2.86668 -4.50175 0
M  V30 48179 O 4339.86 -1.96679 -5.35419 0
M  V30 48180 O 4338.8 -3.78487 -4.68008 0
M  V30 48181 H 4342.62 -2.58153 -1.59971 0
M  V30 48182 H 4340.21 -1.30332 -0.73033 0
M  V30 48183 H 4342.09 -1.66053 -3.87304 0
M  V30 48184 H 4340.77 -0.700198 -3.16036 0
M  V30 48185 H 4339.67 -2.88342 -2.38348 0
M  V30 48186 H 4341.01 -3.78111 -3.15108 0
M  V30 48187 N 4342.66 0.807175 -1.3536 0
M  V30 48188 C 4343.59 1.93361 -1.30896 0
M  V30 48189 C 4344.57 1.69107 -0.183504 0
M  V30 48190 O 4345.75 1.90478 -0.378372 0
M  V30 48191 C 4342.88 3.30094 -1.07959 0
M  V30 48192 C 4341.84 3.68828 -2.1714 0
M  V30 48193 C 4341.16 5.03717 -1.79369 0
M  V30 48194 C 4342.46 3.79268 -3.591 0
M  V30 48195 H 4344.16 1.97354 -2.25149 0
M  V30 48196 H 4341.7 0.948112 -1.08383 0
M  V30 48197 H 4343.66 4.08498 -1.03476 0
M  V30 48198 H 4342.38 3.26442 -0.101526 0
M  V30 48199 H 4341.04 2.92709 -2.20719 0
M  V30 48200 H 4340.69 4.96568 -0.801821 0
M  V30 48201 H 4340.39 5.30604 -2.52455 0
M  V30 48202 H 4341.91 5.84561 -1.7641 0
M  V30 48203 H 4343.33 4.47905 -3.57846 0
M  V30 48204 H 4341.72 4.17624 -4.30941 0
M  V30 48205 H 4342.79 2.80838 -3.95295 0
M  V30 48206 N 4344.14 1.19348 1.02926 0
M  V30 48207 C 4345.07 0.888633 2.11272 0
M  V30 48208 C 4346.08 -0.1185 1.62368 0
M  V30 48209 O 4347.27 0.110861 1.78155 0
M  V30 48210 C 4344.37 0.30847 3.37493 0
M  V30 48211 C 4343.54 1.36406 4.15586 0
M  V30 48212 C 4342.6 0.797512 5.20121 0
M  V30 48213 O 4341.63 1.47511 5.49754 0
M  V30 48214 N 4342.83 -0.399376 5.79125 0
M  V30 48215 H 4345.59 1.82124 2.38014 0
M  V30 48216 H 4343.16 1.09543 1.19214 0
M  V30 48217 H 4345.15 -0.084386 4.04612 0
M  V30 48218 H 4343.72 -0.528411 3.08102 0
M  V30 48219 H 4342.94 1.93178 3.43622 0
M  V30 48220 H 4344.23 2.07537 4.64549 0
M  V30 48221 H 4343.62 -0.967394 5.57367 0
M  V30 48222 H 4342.18 -0.734016 6.47654 0
M  V30 48223 N 4345.61 -1.22028 0.997341 0
M  V30 48224 C 4346.52 -2.27809 0.560392 0
M  V30 48225 C 4347.54 -1.69505 -0.392947 0
M  V30 48226 O 4348.72 -1.99732 -0.25868 0
M  V30 48227 C 4345.78 -3.46514 -0.113686 0
M  V30 48228 C 4344.84 -4.20117 0.883172 0
M  V30 48229 C 4344.07 -5.33155 0.241168 0
M  V30 48230 O 4344.3 -5.62197 -0.963873 0
M  V30 48231 O 4343.23 -5.94383 0.948259 0
M  V30 48232 H 4347.06 -2.67361 1.44054 0
M  V30 48233 H 4344.64 -1.28279 0.765816 0
M  V30 48234 H 4346.52 -4.18529 -0.491063 0
M  V30 48235 H 4345.2 -3.08877 -0.968333 0
M  V30 48236 H 4344.11 -3.50355 1.31157 0
M  V30 48237 H 4345.44 -4.61646 1.70716 0
M  V30 48238 N 4347.09 -0.771099 -1.37448 0
M  V30 48239 C 4348.06 -0.163189 -2.28618 0
M  V30 48240 C 4349.06 0.628761 -1.47997 0
M  V30 48241 O 4350.25 0.452446 -1.68222 0
M  V30 48242 C 4347.38 0.776314 -3.31943 0
M  V30 48243 H 4348.57 -0.966866 -2.83887 0
M  V30 48244 H 4346.12 -0.539266 -1.46702 0
M  V30 48245 H 4346.86 1.60502 -2.81797 0
M  V30 48246 H 4346.64 0.210615 -3.91534 0
M  V30 48247 H 4348.13 1.1971 -4.00074 0
M  V30 48248 N 4348.57 1.48719 -0.521586 0
M  V30 48249 C 4349.8 2.06897 0.0117602 0
M  V30 48250 C 4350.21 1.37926 1.28926 0
M  V30 48251 O 4349.57 0.464077 1.76501 0
M  V30 48252 C 4349.62 3.60648 0.248098 0
M  V30 48253 O 4349.34 4.27026 -0.978778 0
M  V30 48254 C 4350.84 4.35598 0.822772 0
M  V30 48255 H 4348.06 0.670341 -0.0297263 0
M  V30 48256 H 4350.61 1.91224 -0.724831 0
M  V30 48257 H 4348.76 3.75955 0.934717 0
M  V30 48258 H 4349.18 5.19048 -0.754313 0
M  V30 48259 H 4350.65 5.43979 0.937608 0
M  V30 48260 H 4351.13 3.99458 1.82564 0
M  V30 48261 H 4351.73 4.24948 0.172981 0
M  V30 48262 N 4350.05 0.256331 1.55501 0
M  V30 48263 C 4351.33 -0.416596 1.91112 0
M  V30 48264 C 4351.71 -1.75156 1.17828 0
M  V30 48265 O 4351.05 -2.26537 0.298862 0
M  V30 48266 C 4351.26 -0.575401 3.44224 0
M  V30 48267 C 4352.61 -0.866955 4.15655 0
M  V30 48268 O 4353.64 -0.660916 3.50015 0
M  V30 48269 O 4352.49 -1.25988 5.31779 0
M  V30 48270 H 4349.59 -0.225069 0.795785 0
M  V30 48271 H 4352.13 0.301095 1.67008 0
M  V30 48272 H 4350.91 0.364835 3.89595 0
M  V30 48273 H 4350.53 -1.34328 3.74222 0
M  V30 48274 N 4351.53 -1.57591 -0.0166602 0
M  V30 48275 C 4352.44 -2.10776 -1.03008 0
M  V30 48276 C 4353.45 -1.04918 -1.3881 0
M  V30 48277 O 4354.63 -1.36725 -1.47879 0
M  V30 48278 C 4351.69 -2.58682 -2.30834 0
M  V30 48279 C 4350.75 -3.79074 -2.01498 0
M  V30 48280 C 4349.99 -4.24685 -3.23231 0
M  V30 48281 O 4350.21 -3.69736 -4.3434 0
M  V30 48282 O 4349.14 -5.17005 -3.08204 0
M  V30 48283 H 4352.97 -2.97551 -0.608035 0
M  V30 48284 H 4350.56 -1.47549 -0.234439 0
M  V30 48285 H 4352.44 -2.89769 -3.05961 0
M  V30 48286 H 4351.11 -1.75013 -2.72309 0
M  V30 48287 H 4350.02 -3.52986 -1.23901 0
M  V30 48288 H 4351.35 -4.63765 -1.64871 0
M  V30 48289 N 4353 0.289148 -1.54925 0
M  V30 48290 C 4353.93 1.36149 -1.89699 0
M  V30 48291 C 4354.92 1.52322 -0.757108 0
M  V30 48292 O 4356.1 1.65633 -1.01387 0
M  V30 48293 C 4353.23 2.72376 -2.15473 0
M  V30 48294 C 4352.18 2.70955 -3.31312 0
M  V30 48295 C 4351.51 4.10582 -3.4253 0
M  V30 48296 C 4352.81 2.31647 -4.68121 0
M  V30 48297 H 4354.5 1.07294 -2.79514 0
M  V30 48298 H 4352.05 0.5147 -1.34487 0
M  V30 48299 H 4354 3.47491 -2.38386 0
M  V30 48300 H 4352.73 3.0278 -1.2244 0
M  V30 48301 H 4351.39 1.98296 -3.08341 0
M  V30 48302 H 4351.03 4.38182 -2.46992 0
M  V30 48303 H 4350.73 4.10529 -4.20404 0
M  V30 48304 H 4352.26 4.8746 -3.67717 0
M  V30 48305 H 4353.67 2.96481 -4.90685 0
M  V30 48306 H 4352.07 2.42786 -5.48794 0
M  V30 48307 H 4353.14 1.26773 -4.68035 0
M  V30 48308 N 4354.48 1.47583 0.55291 0
M  V30 48309 C 4355.76 1.44911 1.31378 0
M  V30 48310 C 4356.14 0.14836 2.10578 0
M  V30 48311 O 4355.49 -0.87013 2.11284 0
M  V30 48312 C 4355.7 2.69729 2.21467 0
M  V30 48313 C 4357.05 3.1712 2.82348 0
M  V30 48314 O 4358.07 2.70486 2.31767 0
M  V30 48315 O 4356.93 3.98203 3.74295 0
M  V30 48316 H 4354.02 0.577682 0.591787 0
M  V30 48317 H 4356.57 1.59789 0.571458 0
M  V30 48318 H 4355.34 3.55929 1.62573 0
M  V30 48319 H 4354.96 2.57458 3.02987 0
M  V30 48320 N 4355.96 -0.799985 1.35787 0
M  V30 48321 C 4356.89 -1.92664 1.3192 0
M  V30 48322 C 4357.87 -1.69008 0.19247 0
M  V30 48323 O 4359.06 -1.90275 0.388469 0
M  V30 48324 C 4356.19 -3.29517 1.09708 0
M  V30 48325 C 4355.14 -3.67672 2.19093 0
M  V30 48326 C 4354.47 -5.02759 1.82038 0
M  V30 48327 C 4355.77 -3.77358 3.61106 0
M  V30 48328 H 4357.46 -1.96157 2.26192 0
M  V30 48329 H 4355.01 -0.942351 1.08884 0
M  V30 48330 H 4356.96 -4.07944 1.05641 0
M  V30 48331 H 4355.68 -3.26384 0.118836 0
M  V30 48332 H 4354.34 -2.91535 2.22268 0
M  V30 48333 H 4353.99 -4.96136 0.828144 0
M  V30 48334 H 4353.69 -5.29258 2.55265 0
M  V30 48335 H 4355.21 -5.83618 1.79508 0
M  V30 48336 H 4356.63 -4.46001 3.60217 0
M  V30 48337 H 4355.03 -4.15333 4.3315 0
M  V30 48338 H 4356.1 -2.78737 3.96779 0
M  V30 48339 N 4357.44 -1.19892 -1.02292 0
M  V30 48340 C 4358.39 -0.94206 -2.10699 0
M  V30 48341 C 4359.36 0.125369 -1.65626 0
M  V30 48342 O 4360.54 -0.0180308 -1.90791 0
M  V30 48343 C 4357.68 -0.493351 -3.41555 0
M  V30 48344 C 4356.79 -1.62822 -4.00141 0
M  V30 48345 C 4355.93 -1.13045 -5.19032 0
M  V30 48346 C 4354.97 -2.23882 -5.69687 0
M  V30 48347 N 4354.1 -1.75369 -6.79846 0
M  V30 48348 H 4358.94 -1.87021 -2.32007 0
M  V30 48349 H 4356.48 -0.932313 -1.13782 0
M  V30 48350 H 4358.44 -0.214556 -4.16648 0
M  V30 48351 H 4357.07 0.397805 -3.20339 0
M  V30 48352 H 4356.12 -2.02208 -3.22205 0
M  V30 48353 H 4357.43 -2.46306 -4.33745 0
M  V30 48354 H 4356.59 -0.807242 -6.01306 0
M  V30 48355 H 4355.33 -0.265423 -4.86977 0
M  V30 48356 H 4354.33 -2.57026 -4.86022 0
M  V30 48357 H 4355.56 -3.1085 -6.03779 0
M  V30 48358 H 4353.5 -0.911832 -6.49632 0
M  V30 48359 H 4353.42 -2.52437 -7.12609 0
M  V30 48360 H 4354.69 -1.46029 -7.657 0
M  V30 48361 N 4358.92 1.21498 -1.0038 0
M  V30 48362 C 4359.85 2.26096 -0.583357 0
M  V30 48363 C 4360.83 1.65445 0.395228 0
M  V30 48364 O 4362.01 1.9212 0.283474 0
M  V30 48365 C 4359.14 3.47178 0.0920009 0
M  V30 48366 C 4358.1 4.20338 -0.806242 0
M  V30 48367 C 4357.42 5.347 0.00263832 0
M  V30 48368 C 4358.72 4.77859 -2.10828 0
M  V30 48369 H 4360.42 2.61518 -1.4577 0
M  V30 48370 H 4357.96 1.2571 -0.702355 0
M  V30 48371 H 4359.92 4.1952 0.397603 0
M  V30 48372 H 4358.64 3.10883 1.00097 0
M  V30 48373 H 4357.3 3.49844 -1.09565 0
M  V30 48374 H 4356.95 4.94647 0.912855 0
M  V30 48375 H 4356.65 5.84575 -0.595429 0
M  V30 48376 H 4358.17 6.09852 0.302083 0
M  V30 48377 H 4359.58 5.42086 -1.86591 0
M  V30 48378 H 4357.98 5.38118 -2.6561 0
M  V30 48379 H 4359.05 3.97307 -2.77985 0
M  V30 48380 N 4360.39 0.778378 1.37037 0
M  V30 48381 C 4361.81 0.458769 1.52864 0
M  V30 48382 C 4362.01 -1.02462 1.73504 0
M  V30 48383 O 4361.07 -1.81033 1.7602 0
M  V30 48384 C 4362.38 1.27961 2.72115 0
M  V30 48385 C 4363.93 1.27218 2.8598 0
M  V30 48386 C 4364.4 2.07652 4.08221 0
M  V30 48387 N 4365.89 2.0504 4.15347 0
M  V30 48388 C 4366.63 2.64053 5.08983 0
M  V30 48389 N 4366.12 3.3188 6.08134 0
M  V30 48390 N 4367.92 2.53847 5.01516 0
M  V30 48391 H 4360.07 1.73943 1.21892 0
M  V30 48392 H 4362.33 0.738785 0.594054 0
M  V30 48393 H 4362.04 2.3311 2.63349 0
M  V30 48394 H 4361.91 0.913323 3.65976 0
M  V30 48395 H 4364.3 0.228659 2.94213 0
M  V30 48396 H 4364.38 1.67816 1.93058 0
M  V30 48397 H 4364.02 3.12029 4.0075 0
M  V30 48398 H 4363.95 1.64432 5.0027 0
M  V30 48399 H 4366.44 1.55666 3.4435 0
M  V30 48400 H 4366.76 3.74267 6.76124 0
M  V30 48401 H 4365.1 3.3598 6.08393 0
M  V30 48402 H 4368.29 2.00467 4.23002 0
M  V30 48403 H 4368.47 3.00131 5.74304 0
M  V30 48404 N 4361.87 -1.4844 0.529465 0
M  V30 48405 C 4362.81 -2.27596 -0.270695 0
M  V30 48406 C 4363.82 -1.35333 -0.904918 0
M  V30 48407 O 4365.01 -1.60388 -0.783447 0
M  V30 48408 C 4362.11 -3.08698 -1.39853 0
M  V30 48409 C 4361.28 -4.28735 -0.866325 0
M  V30 48410 C 4360.34 -4.91652 -1.87522 0
M  V30 48411 O 4359.37 -5.50883 -1.43237 0
M  V30 48412 N 4360.57 -4.83848 -3.20736 0
M  V30 48413 H 4363.33 -2.96907 0.408175 0
M  V30 48414 H 4360.89 -1.5776 0.363764 0
M  V30 48415 H 4362.89 -3.47658 -2.07161 0
M  V30 48416 H 4361.46 -2.4181 -1.98108 0
M  V30 48417 H 4360.68 -3.94196 -0.0172689 0
M  V30 48418 H 4361.96 -5.06439 -0.489626 0
M  V30 48419 H 4361.36 -4.36876 -3.59382 0
M  V30 48420 H 4359.92 -5.2691 -3.83678 0
M  V30 48421 N 4363.35 -0.264574 -1.55363 0
M  V30 48422 C 4364.31 0.614274 -2.20815 0
M  V30 48423 C 4365.31 1.08938 -1.18276 0
M  V30 48424 O 4366.5 0.991248 -1.43248 0
M  V30 48425 C 4363.64 1.84627 -2.86576 0
M  V30 48426 H 4364.83 0.0429575 -2.99869 0
M  V30 48427 H 4362.38 -0.0151227 -1.56293 0
M  V30 48428 H 4363.12 2.45837 -2.11506 0
M  V30 48429 H 4362.9 1.51362 -3.61707 0
M  V30 48430 H 4364.39 2.47147 -3.36613 0
M  V30 48431 N 4364.83 1.57598 0.00830251 0
M  V30 48432 C 4365.74 2.1132 1.01888 0
M  V30 48433 C 4366.76 1.05652 1.38252 0
M  V30 48434 O 4367.93 1.37507 1.47152 0
M  V30 48435 C 4365 2.59903 2.29459 0
M  V30 48436 C 4364.06 3.80137 1.99485 0
M  V30 48437 C 4363.29 4.26394 3.20974 0
M  V30 48438 O 4363.51 3.72034 4.32373 0
M  V30 48439 O 4362.45 5.18632 3.05458 0
M  V30 48440 H 4366.27 2.97869 0.592247 0
M  V30 48441 H 4363.86 1.47671 0.226611 0
M  V30 48442 H 4365.74 2.91387 3.0442 0
M  V30 48443 H 4364.42 1.76454 2.71377 0
M  V30 48444 H 4363.32 3.53639 1.22027 0
M  V30 48445 H 4364.66 4.64633 1.6241 0
M  V30 48446 N 4366.31 -0.280928 1.55076 0
M  V30 48447 C 4367.55 -1.01508 1.75568 0
M  V30 48448 C 4367.89 -1.86225 0.550823 0
M  V30 48449 O 4367.16 -1.8918 -0.451774 0
M  V30 48450 C 4367.44 -1.90429 3.05629 0
M  V30 48451 C 4367.3 -1.08758 4.36454 0
M  V30 48452 C 4368.62 -2.89272 3.31678 0
M  V30 48453 H 4365.74 -0.367614 0.638771 0
M  V30 48454 H 4368.38 -0.288087 1.87803 0
M  V30 48455 H 4366.53 -2.52415 2.95329 0
M  V30 48456 H 4368.2 -0.489034 4.587 0
M  V30 48457 H 4366.44 -0.390808 4.32036 0
M  V30 48458 H 4367.11 -1.74276 5.23767 0
M  V30 48459 H 4369.59 -2.37418 3.41719 0
M  V30 48460 H 4368.47 -3.48638 4.23961 0
M  V30 48461 H 4368.73 -3.63984 2.50935 0
M  V30 48462 N 4367.79 -1.47874 -0.545076 0
M  V30 48463 C 4369.03 -1.54378 -1.29808 0
M  V30 48464 C 4369.35 -0.215972 -1.94404 0
M  V30 48465 O 4370.55 -0.159119 -2.71033 0
M  V30 48466 C 4369.01 -2.72193 -2.35455 0
M  V30 48467 C 4368.62 -4.11554 -1.76996 0
M  V30 48468 C 4370.36 -2.87999 -3.1186 0
M  V30 48469 C 4368.27 -5.20651 -2.80494 0
M  V30 48470 H 4367.2 -0.574668 -0.488132 0
M  V30 48471 H 4369.85 -1.74176 -0.5775 0
M  V30 48472 H 4368.23 -2.45799 -3.10482 0
M  V30 48473 H 4369.41 -4.47902 -1.0826 0
M  V30 48474 H 4367.72 -4.00736 -1.13134 0
M  V30 48475 H 4370.32 -3.66673 -3.89172 0
M  V30 48476 H 4370.66 -1.96891 -3.66796 0
M  V30 48477 H 4371.19 -3.14221 -2.43947 0
M  V30 48478 H 4367.93 -6.13675 -2.30398 0
M  V30 48479 H 4367.45 -4.88806 -3.47604 0
M  V30 48480 H 4369.13 -5.48121 -3.43763 0
M  V30 48481 N 4369.26 0.792773 -1.36209 0
M  V30 48482 C 4370.21 1.90527 -1.30262 0
M  V30 48483 C 4371.18 1.65208 -0.171933 0
M  V30 48484 O 4372.37 1.87413 -0.357901 0
M  V30 48485 C 4369.51 3.27287 -1.0944 0
M  V30 48486 C 4368.62 3.64701 -2.31554 0
M  V30 48487 C 4367.75 4.90562 -2.03771 0
M  V30 48488 C 4366.79 5.20644 -3.21864 0
M  V30 48489 N 4365.93 6.37687 -2.93768 0
M  V30 48490 H 4370.77 1.94946 -2.25389 0
M  V30 48491 H 4368.31 0.953369 -1.12024 0
M  V30 48492 H 4370.26 4.06147 -0.953954 0
M  V30 48493 H 4368.89 3.22299 -0.179698 0
M  V30 48494 H 4367.95 2.80991 -2.56414 0
M  V30 48495 H 4369.26 3.82882 -3.19691 0
M  V30 48496 H 4368.41 5.77279 -1.86637 0
M  V30 48497 H 4367.15 4.74443 -1.1294 0
M  V30 48498 H 4366.16 4.3241 -3.39561 0
M  V30 48499 H 4367.38 5.38684 -4.13517 0
M  V30 48500 H 4365.33 6.22967 -2.05544 0
M  V30 48501 H 4365.24 6.56185 -3.75443 0
M  V30 48502 H 4366.51 7.27396 -2.80205 0
M  V30 48503 N 4370.74 1.20433 1.01654 0
M  V30 48504 C 4371.99 1.01252 1.74907 0
M  V30 48505 C 4372.31 -0.456407 1.89584 0
M  V30 48506 O 4371.58 -1.32994 1.43838 0
M  V30 48507 H 4370.16 0.371658 0.647981 0
M  V30 48508 H 4372.82 1.51544 1.22558 0
M  V30 48509 H 4371.92 1.4709 2.75265 0
M  V30 48510 N 4372.22 -1.20963 1.01023 0
M  V30 48511 C 4373.44 -1.94697 0.714695 0
M  V30 48512 C 4373.87 -1.7389 -0.717204 0
M  V30 48513 O 4373.23 -1.02909 -1.49263 0
M  V30 48514 C 4373.28 -3.45043 1.04775 0
M  V30 48515 O 4372.38 -4.12105 0.155891 0
M  V30 48516 H 4371.72 -0.608488 0.265778 0
M  V30 48517 H 4374.25 -1.53575 1.35188 0
M  V30 48518 H 4374.26 -3.95636 0.996792 0
M  V30 48519 H 4372.94 -3.5951 2.09105 0
M  V30 48520 H 4371.51 -3.71966 0.263829 0
M  V30 48521 N 4373.7 -0.785634 -1.36622 0
M  V30 48522 C 4374.94 -0.365879 -2.00082 0
M  V30 48523 C 4375.3 1.04978 -1.61237 0
M  V30 48524 O 4374.59 1.71457 -0.855173 0
M  V30 48525 C 4374.79 -0.462838 -3.5439 0
M  V30 48526 C 4374.61 -1.88638 -4.08223 0
M  V30 48527 C 4373.38 -2.51015 -4.38543 0
M  V30 48528 C 4375.58 -2.84796 -4.28247 0
M  V30 48529 N 4373.56 -3.84997 -4.78174 0
M  V30 48530 C 4374.94 -4.03604 -4.70642 0
M  V30 48531 C 4376.99 -2.81902 -4.10409 0
M  V30 48532 C 4375.69 -5.1992 -4.97067 0
M  V30 48533 C 4377.72 -3.97403 -4.37978 0
M  V30 48534 C 4377.08 -5.14955 -4.80626 0
M  V30 48535 H 4373.18 -0.181221 -0.760712 0
M  V30 48536 H 4375.76 -1.02243 -1.65694 0
M  V30 48537 H 4373.94 0.163599 -3.88055 0
M  V30 48538 H 4375.67 -0.0196933 -4.04695 0
M  V30 48539 H 4372.42 -2.02524 -4.28113 0
M  V30 48540 H 4372.85 -4.5392 -5.0228 0
M  V30 48541 H 4377.49 -1.92183 -3.76597 0
M  V30 48542 H 4375.21 -6.10228 -5.29762 0
M  V30 48543 H 4378.79 -3.9652 -4.2575 0
M  V30 48544 H 4377.67 -6.02845 -5.01546 0
M  V30 48545 N 4375.18 1.48157 -0.53733 0
M  V30 48546 C 4376.11 2.27736 0.258622 0
M  V30 48547 C 4377.12 1.35811 0.897728 0
M  V30 48548 O 4378.31 1.60801 0.77493 0
M  V30 48549 C 4375.41 3.09435 1.38214 0
M  V30 48550 C 4374.58 4.29188 0.843576 0
M  V30 48551 C 4373.64 4.9264 1.84912 0
M  V30 48552 O 4372.67 5.51635 1.40314 0
M  V30 48553 N 4373.87 4.85542 3.18166 0
M  V30 48554 H 4376.63 2.96687 -0.423915 0
M  V30 48555 H 4374.2 1.57565 -0.372125 0
M  V30 48556 H 4376.19 3.48752 2.05314 0
M  V30 48557 H 4374.76 2.42857 1.96822 0
M  V30 48558 H 4373.98 3.942 -0.0036365 0
M  V30 48559 H 4375.27 5.06691 0.462762 0
M  V30 48560 H 4374.66 4.38776 3.5706 0
M  V30 48561 H 4373.22 5.28937 3.80879 0
M  V30 48562 N 4376.65 0.272809 1.55221 0
M  V30 48563 C 4378.07 -0.225395 1.85334 0
M  V30 48564 C 4378.42 -1.55623 1.19482 0
M  V30 48565 O 4377.54 -2.10956 0.482328 0
M  V30 48566 C 4378.14 -0.415745 3.36239 0
M  V30 48567 C 4376.7 -0.858185 3.66486 0
M  V30 48568 C 4375.84 0.0498526 2.77255 0
M  V30 48569 H 4378.79 0.494664 1.50794 0
M  V30 48570 H 4378.81 -1.25464 3.5922 0
M  V30 48571 H 4378.33 0.553012 3.8414 0
M  V30 48572 H 4376.43 -1.8385 3.24083 0
M  V30 48573 H 4376.54 -0.697104 4.74001 0
M  V30 48574 H 4374.9 -0.466061 2.504 0
M  V30 48575 H 4375.69 1.01445 3.27969 0
M  V30 48576 N 4378.13 -1.576 5.54043e-05 0
M  V30 48577 C 4379.38 -1.90853 -0.685796 0
M  V30 48578 C 4379.71 -0.874015 -1.7342 0
M  V30 48579 O 4378.99 0.107248 -1.94204 0
M  V30 48580 C 4379.27 -3.34683 -1.32888 0
M  V30 48581 C 4379.12 -4.48851 -0.292006 0
M  V30 48582 C 4380.44 -3.77937 -2.25503 0
M  V30 48583 H 4377.56 -0.694078 -0.247839 0
M  V30 48584 H 4380.2 -1.89931 0.0513605 0
M  V30 48585 H 4378.35 -3.356 -1.95717 0
M  V30 48586 H 4380.02 -4.6007 0.336612 0
M  V30 48587 H 4378.27 -4.32082 0.385724 0
M  V30 48588 H 4378.94 -5.46447 -0.781016 0
M  V30 48589 H 4381.41 -3.78573 -1.7269 0
M  V30 48590 H 4380.29 -4.79327 -2.67464 0
M  V30 48591 H 4380.55 -3.11809 -3.13413 0
M  V30 48592 N 4379.61 0.2727 -1.55223 0
M  V30 48593 C 4380.86 1.00228 -1.75496 0
M  V30 48594 C 4381.18 1.86808 -0.559266 0
M  V30 48595 O 4380.45 1.91216 0.425814 0
M  V30 48596 H 4379.03 0.373053 -0.647179 0
M  V30 48597 H 4381.69 0.296859 -1.92626 0
M  V30 48598 H 4380.79 1.63904 -2.65597 0
M  V30 48599 N 4381.09 1.48161 0.537226 0
M  V30 48600 C 4382.37 1.46296 1.29834 0
M  V30 48601 C 4382.75 0.170687 2.10409 0
M  V30 48602 O 4382.09 -0.847672 2.12195 0
M  V30 48603 C 4382.3 2.72062 2.18593 0
M  V30 48604 C 4383.65 3.20096 2.78969 0
M  V30 48605 O 4384.68 2.72929 2.28885 0
M  V30 48606 O 4383.53 4.02151 3.7005 0
M  V30 48607 H 4380.63 0.583926 0.585627 0
M  V30 48608 H 4383.17 1.60386 0.554478 0
M  V30 48609 H 4381.95 3.57634 1.58789 0
M  V30 48610 H 4381.57 2.60657 3.0024 0
M  V30 48611 N 4382.57 -0.785538 1.36627 0
M  V30 48612 C 4383.5 -1.91254 1.33956 0
M  V30 48613 C 4384.48 -1.68794 0.210385 0
M  V30 48614 O 4385.66 -1.89852 0.408628 0
M  V30 48615 C 4382.79 -3.28335 1.13197 0
M  V30 48616 C 4381.75 -3.65327 2.2298 0
M  V30 48617 C 4381.07 -5.008 1.8736 0
M  V30 48618 C 4382.37 -3.73507 3.65089 0
M  V30 48619 H 4384.07 -1.93747 2.2826 0
M  V30 48620 H 4381.61 -0.930749 1.09877 0
M  V30 48621 H 4383.57 -4.068 1.09962 0
M  V30 48622 H 4382.29 -3.26239 0.153447 0
M  V30 48623 H 4380.95 -2.89161 2.25348 0
M  V30 48624 H 4380.6 -4.9523 0.880719 0
M  V30 48625 H 4380.3 -5.2652 2.60864 0
M  V30 48626 H 4381.82 -5.81681 1.85687 0
M  V30 48627 H 4383.23 -4.42155 3.64927 0
M  V30 48628 H 4381.63 -4.10715 4.37531 0
M  V30 48629 H 4382.7 -2.74513 3.99713 0
M  V30 48630 N 4384.04 -1.20971 -1.01014 0
M  V30 48631 C 4384.97 -0.988347 -2.11551 0
M  V30 48632 C 4385.96 0.0849181 -1.69888 0
M  V30 48633 O 4387.14 -0.0738884 -1.94059 0
M  V30 48634 C 4384.27 -0.546649 -3.42971 0
M  V30 48635 C 4383.22 -1.56389 -3.98405 0
M  V30 48636 C 4382.55 -0.978604 -5.25669 0
M  V30 48637 C 4383.85 -2.94937 -4.31056 0
M  V30 48638 H 4385.54 -1.91284 -2.30327 0
M  V30 48639 H 4383.09 -0.921111 -1.10687 0
M  V30 48640 H 4385.04 -0.378987 -4.19692 0
M  V30 48641 H 4383.77 0.413484 -3.23972 0
M  V30 48642 H 4382.43 -1.71903 -3.23798 0
M  V30 48643 H 4382.07 -0.0103456 -5.02999 0
M  V30 48644 H 4381.77 -1.65804 -5.63722 0
M  V30 48645 H 4383.3 -0.822152 -6.0504 0
M  V30 48646 H 4384.71 -2.82897 -4.9864 0
M  V30 48647 H 4383.11 -3.59847 -4.8024 0
M  V30 48648 H 4384.18 -3.46172 -3.39548 0
M  V30 48649 N 4385.52 1.20426 -1.01663 0
M  V30 48650 C 4386.77 1.89115 -0.701304 0
M  V30 48651 C 4387.08 1.79708 0.772295 0
M  V30 48652 O 4388.29 2.43532 1.20018 0
M  V30 48653 C 4386.75 3.39164 -1.204 0
M  V30 48654 C 4386.35 3.57156 -2.7045 0
M  V30 48655 C 4388.1 4.13407 -0.964099 0
M  V30 48656 C 4386.01 5.01031 -3.142 0
M  V30 48657 H 4384.94 0.708258 -0.258625 0
M  V30 48658 H 4387.59 1.36235 -1.22932 0
M  V30 48659 H 4385.97 3.91367 -0.603962 0
M  V30 48660 H 4387.14 3.15339 -3.36003 0
M  V30 48661 H 4385.46 2.96284 -2.92583 0
M  V30 48662 H 4388.05 5.19487 -1.26639 0
M  V30 48663 H 4388.4 4.16181 0.0994316 0
M  V30 48664 H 4388.93 3.67304 -1.52751 0
M  V30 48665 H 4385.67 5.03412 -4.1983 0
M  V30 48666 H 4385.19 5.43659 -2.53367 0
M  V30 48667 H 4386.87 5.69612 -3.0684 0
M  V30 48668 N 4387 0.792868 1.36203 0
M  V30 48669 C 4388.28 0.290695 1.93428 0
M  V30 48670 C 4388.66 -1.21767 1.72442 0
M  V30 48671 O 4388.01 -2.01077 1.08538 0
M  V30 48672 C 4388.22 0.687094 3.4217 0
M  V30 48673 C 4389.56 0.668791 4.193 0
M  V30 48674 O 4390.59 0.627781 3.50624 0
M  V30 48675 O 4389.45 0.714787 5.41805 0
M  V30 48676 H 4386.54 0.0728217 0.823788 0
M  V30 48677 H 4389.09 0.875644 1.45364 0
M  V30 48678 H 4387.86 1.72724 3.51116 0
M  V30 48679 H 4387.48 0.076213 3.97527 0
M  V30 48680 N 4388.48 -1.4787 0.54518 0
M  V30 48681 C 4389.7 -2.07391 0.019134 0
M  V30 48682 C 4390.13 -1.39693 -1.25966 0
M  V30 48683 O 4389.49 -0.467878 -1.75159 0
M  V30 48684 C 4389.53 -3.60189 -0.172208 0
M  V30 48685 O 4388.64 -3.93394 -1.23752 0
M  V30 48686 H 4387.98 -0.66241 0.0459292 0
M  V30 48687 H 4390.51 -1.90063 0.757432 0
M  V30 48688 H 4390.52 -4.0613 -0.390162 0
M  V30 48689 H 4389.19 -4.08862 0.761868 0
M  V30 48690 H 4387.77 -3.59213 -1.00102 0
M  V30 48691 N 4389.96 -0.281037 -1.55074 0
M  V30 48692 C 4390.89 0.59739 -2.25729 0
M  V30 48693 C 4391.87 1.15413 -1.24956 0
M  V30 48694 O 4393.05 1.18717 -1.53688 0
M  V30 48695 C 4390.18 1.77879 -2.98289 0
M  V30 48696 C 4389.14 1.35332 -4.06041 0
M  V30 48697 C 4388.46 2.6183 -4.66207 0
M  V30 48698 C 4389.76 0.499172 -5.19909 0
M  V30 48699 H 4391.46 0.00813739 -2.99399 0
M  V30 48700 H 4389 0.00247378 -1.44 0
M  V30 48701 H 4390.96 2.39925 -3.4643 0
M  V30 48702 H 4389.68 2.39397 -2.22164 0
M  V30 48703 H 4388.34 0.75603 -3.5872 0
M  V30 48704 H 4387.99 3.21618 -3.86744 0
M  V30 48705 H 4387.69 2.34071 -5.38966 0
M  V30 48706 H 4389.21 3.24714 -5.17101 0
M  V30 48707 H 4390.62 1.02479 -5.64067 0
M  V30 48708 H 4389.02 0.316214 -5.99266 0
M  V30 48709 H 4390.09 -0.480628 -4.82512 0
M  V30 48710 N 4391.44 1.57598 -0.00841331 0
M  V30 48711 C 4392.37 2.05815 1.00861 0
M  V30 48712 C 4393.38 0.977625 1.30178 0
M  V30 48713 O 4394.57 1.25426 1.27007 0
M  V30 48714 C 4391.67 2.45025 2.34128 0
M  V30 48715 C 4390.84 3.7591 2.23629 0
M  V30 48716 C 4389.9 4.01896 3.39656 0
M  V30 48717 O 4388.93 4.72445 3.17466 0
M  V30 48718 N 4390.13 3.50448 4.62781 0
M  V30 48719 H 4392.89 2.93686 0.597355 0
M  V30 48720 H 4390.46 1.6091 0.178796 0
M  V30 48721 H 4392.45 2.59517 3.10537 0
M  V30 48722 H 4391.02 1.62628 2.66966 0
M  V30 48723 H 4390.24 3.71415 1.32078 0
M  V30 48724 H 4391.53 4.61702 2.13796 0
M  V30 48725 H 4390.92 2.93334 4.83706 0
M  V30 48726 H 4389.48 3.70255 5.36427 0
M  V30 48727 N 4392.91 -0.264465 1.55365 0
M  V30 48728 C 4394.19 -1.01671 1.671 0
M  V30 48729 C 4394.57 -2.03995 0.543087 0
M  V30 48730 O 4393.92 -2.23908 -0.455771 0
M  V30 48731 C 4394.13 -1.66586 3.06676 0
M  V30 48732 C 4395.48 -2.17429 3.64705 0
M  V30 48733 O 4396.5 -1.76557 3.09364 0
M  V30 48734 O 4395.36 -2.92423 4.61683 0
M  V30 48735 H 4392.45 -0.472137 0.678982 0
M  V30 48736 H 4395 -0.259644 1.67702 0
M  V30 48737 H 4393.77 -0.924828 3.80214 0
M  V30 48738 H 4393.39 -2.48957 3.1001 0
M  V30 48739 N 4394.39 -1.48444 -0.529361 0
M  V30 48740 C 4395.34 -1.59413 -1.63008 0
M  V30 48741 C 4396.33 -0.45122 -1.54444 0
M  V30 48742 O 4397.52 -0.702692 -1.62454 0
M  V30 48743 C 4394.65 -1.63757 -3.01726 0
M  V30 48744 C 4393.73 -2.83529 -3.15392 0
M  V30 48745 N 4394.12 -4.07939 -2.9903 0
M  V30 48746 C 4392.42 -2.80874 -3.46447 0
M  V30 48747 C 4393.12 -4.88301 -3.16128 0
M  V30 48748 N 4392.1 -4.21129 -3.43731 0
M  V30 48749 H 4395.9 -2.53349 -1.48969 0
M  V30 48750 H 4393.41 -1.44824 -0.734834 0
M  V30 48751 H 4395.41 -1.69709 -3.80795 0
M  V30 48752 H 4394.07 -0.709376 -3.16856 0
M  V30 48753 H 4395.08 -4.38367 -2.75781 0
M  V30 48754 H 4391.76 -1.97314 -3.67931 0
M  V30 48755 H 4393.15 -5.97039 -3.08211 0
M  V30 48756 N 4395.87 0.778281 -1.37042 0
M  V30 48757 C 4396.8 1.90541 -1.34968 0
M  V30 48758 C 4397.78 1.6868 -0.219333 0
M  V30 48759 O 4398.97 1.89633 -0.41869 0
M  V30 48760 C 4396.1 3.2773 -1.14937 0
M  V30 48761 C 4395.05 3.64139 -2.24914 0
M  V30 48762 C 4394.38 4.99799 -1.90013 0
M  V30 48763 C 4395.68 3.71566 -3.67064 0
M  V30 48764 H 4397.37 1.92533 -2.29284 0
M  V30 48765 H 4394.92 0.924909 -1.1037 0
M  V30 48766 H 4396.87 4.06211 -1.12118 0
M  V30 48767 H 4395.59 3.26153 -0.170746 0
M  V30 48768 H 4394.25 2.87962 -2.26878 0
M  V30 48769 H 4393.9 4.94756 -0.90697 0
M  V30 48770 H 4393.6 5.25129 -2.63653 0
M  V30 48771 H 4395.12 5.80688 -1.8877 0
M  V30 48772 H 4396.54 4.40214 -3.67267 0
M  V30 48773 H 4394.93 4.08389 -4.39703 0
M  V30 48774 H 4396 2.7239 -4.01163 0
M  V30 48775 N 4397.35 1.21505 1.00371 0
M  V30 48776 C 4398.26 0.991521 2.12617 0
M  V30 48777 C 4399.27 -0.0567834 1.73907 0
M  V30 48778 O 4400.45 0.133551 2.00957 0
M  V30 48779 C 4397.51 0.560432 3.4214 0
M  V30 48780 C 4396.58 1.6811 3.95016 0
M  V30 48781 C 4395.81 1.27049 5.18357 0
M  V30 48782 O 4396.03 0.144638 5.70217 0
M  V30 48783 O 4394.97 2.08289 5.64712 0
M  V30 48784 H 4398.79 1.93166 2.34351 0
M  V30 48785 H 4396.38 1.00004 1.10994 0
M  V30 48786 H 4398.26 0.329871 4.20107 0
M  V30 48787 H 4396.93 -0.350976 3.21792 0
M  V30 48788 H 4395.84 1.96608 3.18271 0
M  V30 48789 H 4397.17 2.56998 4.19777 0
M  V30 48790 N 4398.83 -1.19885 1.023 0
M  V30 48791 C 4399.77 -2.22899 0.59873 0
M  V30 48792 C 4400.74 -1.61589 -0.384464 0
M  V30 48793 O 4401.93 -1.88698 -0.282456 0
M  V30 48794 C 4399.07 -3.45063 -0.0503263 0
M  V30 48795 C 4398.18 -4.20779 0.978201 0
M  V30 48796 C 4397.32 -5.30355 0.299525 0
M  V30 48797 C 4396.35 -5.97822 1.31437 0
M  V30 48798 N 4395.49 -6.98973 0.661913 0
M  V30 48799 H 4400.33 -2.58548 1.48178 0
M  V30 48800 H 4397.87 -1.27037 0.741629 0
M  V30 48801 H 4399.83 -4.14833 -0.443825 0
M  V30 48802 H 4398.46 -3.10087 -0.896988 0
M  V30 48803 H 4397.51 -3.50013 1.48981 0
M  V30 48804 H 4398.82 -4.67103 1.74975 0
M  V30 48805 H 4397.97 -6.06517 -0.149134 0
M  V30 48806 H 4396.71 -4.85086 -0.504274 0
M  V30 48807 H 4395.72 -5.20416 1.77335 0
M  V30 48808 H 4396.94 -6.45176 2.11956 0
M  V30 48809 H 4394.89 -6.55887 -0.121902 0
M  V30 48810 H 4394.81 -7.43457 1.37143 0
M  V30 48811 H 4396.07 -7.79139 0.237059 0
M  V30 48812 N 4400.3 -0.80008 -1.35781 0
M  V30 48813 C 4401.55 -0.377972 -1.99247 0
M  V30 48814 C 4401.88 1.05046 -1.63337 0
M  V30 48815 O 4401.16 1.72765 -0.893446 0
M  V30 48816 C 4401.44 -0.554047 -3.55812 0
M  V30 48817 C 4401.29 -2.02694 -4.01541 0
M  V30 48818 C 4402.61 0.0243255 -4.40093 0
M  V30 48819 H 4399.73 -0.138807 -0.72381 0
M  V30 48820 H 4402.37 -1.0084 -1.61032 0
M  V30 48821 H 4400.52 -0.0173764 -3.88496 0
M  V30 48822 H 4402.2 -2.62549 -3.79296 0
M  V30 48823 H 4400.44 -2.52573 -3.52689 0
M  V30 48824 H 4401.11 -2.10105 -5.10451 0
M  V30 48825 H 4403.59 -0.433921 -4.13831 0
M  V30 48826 H 4402.46 -0.12883 -5.48749 0
M  V30 48827 H 4402.72 1.11743 -4.27745 0
M  V30 48828 N 4401.78 1.47579 -0.553014 0
M  V30 48829 C 4402.73 2.29957 0.197027 0
M  V30 48830 C 4403.7 1.38802 0.91231 0
M  V30 48831 O 4404.88 1.67765 0.908829 0
M  V30 48832 C 4402.02 3.22677 1.22368 0
M  V30 48833 C 4401.14 4.28921 0.514888 0
M  V30 48834 C 4400.27 5.08795 1.52646 0
M  V30 48835 C 4399.31 6.06818 0.802418 0
M  V30 48836 N 4398.45 6.79666 1.76062 0
M  V30 48837 H 4403.29 2.93576 -0.51159 0
M  V30 48838 H 4400.82 1.44709 -0.264118 0
M  V30 48839 H 4402.78 3.74851 1.83145 0
M  V30 48840 H 4401.41 2.60932 1.90038 0
M  V30 48841 H 4400.46 3.79835 -0.207326 0
M  V30 48842 H 4401.78 4.98772 -0.0525179 0
M  V30 48843 H 4400.93 5.65099 2.20789 0
M  V30 48844 H 4399.67 4.38836 2.12778 0
M  V30 48845 H 4398.67 5.49696 0.107045 0
M  V30 48846 H 4399.9 6.78785 0.206896 0
M  V30 48847 H 4397.85 6.1244 2.3506 0
M  V30 48848 H 4397.76 7.45674 1.24526 0
M  V30 48849 H 4399.03 7.40547 2.43333 0
M  V30 48850 N 4403.26 0.289257 1.54923 0
M  V30 48851 C 4404.22 -0.579066 2.21764 0
M  V30 48852 C 4405.22 -1.07043 1.19994 0
M  V30 48853 O 4406.41 -0.968333 1.44807 0
M  V30 48854 C 4403.54 -1.80045 2.89477 0
M  V30 48855 H 4404.74 0.0047545 2.999 0
M  V30 48856 H 4402.29 0.0399856 1.56249 0
M  V30 48857 H 4403.03 -2.42441 2.1539 0
M  V30 48858 H 4402.81 -1.45589 3.64069 0
M  V30 48859 H 4404.3 -2.41761 3.40502 0
M  V30 48860 N 4404.74 -1.57591 0.016771 0
M  V30 48861 C 4405.67 -2.125 -0.967783 0
M  V30 48862 C 4406.65 -1.03812 -1.34748 0
M  V30 48863 O 4407.83 -1.31582 -1.42828 0
M  V30 48864 C 4404.96 -2.64202 -2.25421 0
M  V30 48865 C 4403.92 -3.77566 -2.01563 0
M  V30 48866 C 4403.24 -4.15648 -3.36365 0
M  V30 48867 C 4404.54 -5.04155 -1.36472 0
M  V30 48868 H 4406.24 -2.95015 -0.51054 0
M  V30 48869 H 4403.78 -1.41915 -0.244131 0
M  V30 48870 H 4405.74 -3.01246 -2.94667 0
M  V30 48871 H 4404.46 -1.78831 -2.73289 0
M  V30 48872 H 4403.12 -3.40941 -1.34739 0
M  V30 48873 H 4402.77 -3.27276 -3.81968 0
M  V30 48874 H 4402.47 -4.92033 -3.21212 0
M  V30 48875 H 4403.99 -4.55265 -4.06899 0
M  V30 48876 H 4405.41 -5.38864 -1.95699 0
M  V30 48877 H 4403.8 -5.85458 -1.31755 0
M  V30 48878 H 4404.87 -4.83734 -0.336049 0
M  V30 48879 N 4406.22 0.256222 -1.55503 0
M  V30 48880 C 4407.63 0.604273 -1.47718 0
M  V30 48881 C 4407.83 1.8876 -0.705105 0
M  V30 48882 O 4406.89 2.51444 -0.230701 0
M  V30 48883 C 4408.2 0.715654 -2.9206 0
M  V30 48884 C 4409.75 0.8086 -3.02375 0
M  V30 48885 C 4410.22 0.951619 -4.48005 0
M  V30 48886 N 4411.72 1.01672 -4.51904 0
M  V30 48887 C 4412.45 1.14649 -5.61821 0
M  V30 48888 N 4411.95 1.24238 -6.81569 0
M  V30 48889 N 4413.74 1.17891 -5.49598 0
M  V30 48890 H 4405.89 -0.586363 -2.04146 0
M  V30 48891 H 4408.15 -0.201047 -0.926436 0
M  V30 48892 H 4407.86 -0.157151 -3.51349 0
M  V30 48893 H 4407.73 1.59059 -3.42023 0
M  V30 48894 H 4410.12 1.67186 -2.43172 0
M  V30 48895 H 4410.2 -0.0912961 -2.55637 0
M  V30 48896 H 4409.85 0.0929506 -5.07815 0
M  V30 48897 H 4409.78 1.86642 -4.92415 0
M  V30 48898 H 4412.27 0.95434 -3.65651 0
M  V30 48899 H 4412.58 1.3402 -7.6109 0
M  V30 48900 H 4410.92 1.21212 -6.84348 0
M  V30 48901 H 4414.12 1.10041 -4.54982 0
M  V30 48902 H 4414.29 1.27659 -6.35301 0
M  V30 48903 N 4407.69 1.48722 0.521481 0
M  V30 48904 C 4408.94 1.56862 1.27432 0
M  V30 48905 C 4409.26 0.24805 1.93416 0
M  V30 48906 O 4408.53 -0.731087 1.81747 0
M  V30 48907 H 4407.11 0.577902 0.473327 0
M  V30 48908 H 4409.78 1.85235 0.60614 0
M  V30 48909 H 4408.87 2.3541 2.04912 0
M  V30 48910 N 4409.17 -0.771003 1.37453 0
M  V30 48911 C 4410.08 -1.91533 1.35471 0
M  V30 48912 C 4411.1 -1.72133 0.254183 0
M  V30 48913 O 4412.27 -1.95356 0.489694 0
M  V30 48914 C 4409.34 -3.26667 1.16145 0
M  V30 48915 C 4408.4 -3.58715 2.35843 0
M  V30 48916 C 4407.63 -4.87401 2.1743 0
M  V30 48917 O 4407.86 -5.58502 1.15895 0
M  V30 48918 O 4406.79 -5.18529 3.05633 0
M  V30 48919 H 4410.62 -1.96157 2.31854 0
M  V30 48920 H 4408.2 -0.913858 1.18191 0
M  V30 48921 H 4410.08 -4.07495 1.07359 0
M  V30 48922 H 4408.76 -3.22893 0.228365 0
M  V30 48923 H 4407.67 -2.78118 2.50202 0
M  V30 48924 H 4409 -3.67232 3.27722 0
M  V30 48925 N 4410.65 -1.22035 -0.997255 0
M  V30 48926 C 4411.9 -1.03643 -1.73035 0
M  V30 48927 C 4412.21 0.429408 -1.90828 0
M  V30 48928 O 4413.42 0.732903 -2.61421 0
M  V30 48929 C 4411.87 -1.80593 -3.1131 0
M  V30 48930 C 4411.48 -3.31397 -3.01463 0
M  V30 48931 C 4413.23 -1.70635 -3.88695 0
M  V30 48932 C 4411.13 -4.00806 -4.34866 0
M  V30 48933 H 4410.06 -0.384202 -0.648772 0
M  V30 48934 H 4412.71 -1.45844 -1.11363 0
M  V30 48935 H 4411.1 -1.31188 -3.73638 0
M  V30 48936 H 4412.27 -3.88163 -2.48326 0
M  V30 48937 H 4410.59 -3.41984 -2.37563 0
M  V30 48938 H 4413.18 -2.19817 -4.87427 0
M  V30 48939 H 4413.53 -0.665968 -4.10939 0
M  V30 48940 H 4414.06 -2.17559 -3.33036 0
M  V30 48941 H 4410.8 -5.05079 -4.17823 0
M  V30 48942 H 4410.32 -3.48829 -4.87933 0
M  V30 48943 H 4412 -4.06156 -5.03633 0
M  V30 48944 N 4412.13 1.19341 -1.02934 0
M  V30 48945 C 4413.09 2.20791 -0.615146 0
M  V30 48946 C 4414.09 1.57554 0.321478 0
M  V30 48947 O 4415.28 1.73862 0.108422 0
M  V30 48948 C 4412.41 3.40754 0.0998024 0
M  V30 48949 H 4413.61 2.5895 -1.51278 0
M  V30 48950 H 4411.16 1.33027 -0.820581 0
M  V30 48951 H 4411.89 3.08113 1.01176 0
M  V30 48952 H 4411.68 3.87887 -0.573226 0
M  V30 48953 H 4413.17 4.15899 0.376499 0
M  V30 48954 N 4413.61 0.80727 1.35355 0
M  V30 48955 C 4415.02 0.448823 1.81225 0
M  V30 48956 C 4415.37 -1.02923 1.67037 0
M  V30 48957 O 4414.49 -1.79987 1.2014 0
M  V30 48958 C 4415.09 0.80789 3.29027 0
M  V30 48959 C 4413.65 0.502032 3.73037 0
M  V30 48960 C 4412.79 1.03313 2.57336 0
M  V30 48961 H 4415.75 0.998852 1.23323 0
M  V30 48962 H 4415.77 0.105674 3.80353 0
M  V30 48963 H 4415.28 1.88369 3.39321 0
M  V30 48964 H 4413.38 -0.564999 3.68291 0
M  V30 48965 H 4413.49 1.03514 4.67784 0
M  V30 48966 H 4411.86 0.455427 2.50595 0
M  V30 48967 H 4412.64 2.11506 2.70408 0
M  V30 48968 N 4415.08 -1.47283 0.560833 0
M  V30 48969 C 4416.01 -2.32858 -0.173023 0
M  V30 48970 C 4417 -1.44012 -0.90523 0
M  V30 48971 O 4418.18 -1.72863 -0.884985 0
M  V30 48972 C 4415.31 -3.25865 -1.20121 0
M  V30 48973 C 4414.26 -4.2398 -0.585238 0
M  V30 48974 C 4413.59 -5.06338 -1.71832 0
M  V30 48975 C 4414.89 -5.20241 0.463361 0
M  V30 48976 H 4416.58 -2.94464 0.541411 0
M  V30 48977 H 4414.13 -1.416 0.261814 0
M  V30 48978 H 4416.08 -3.84575 -1.72279 0
M  V30 48979 H 4414.81 -2.62321 -1.94564 0
M  V30 48980 H 4413.47 -3.66502 -0.0849252 0
M  V30 48981 H 4413.11 -4.39195 -2.45188 0
M  V30 48982 H 4412.81 -5.72767 -1.31193 0
M  V30 48983 H 4414.34 -5.67906 -2.24309 0
M  V30 48984 H 4415.75 -5.73293 0.0277035 0
M  V30 48985 H 4414.15 -5.94893 0.788836 0
M  V30 48986 H 4415.22 -4.65499 1.3579 0
M  V30 48987 N 4416.56 -0.297469 -1.54767 0
M  V30 48988 C 4417.51 0.580198 -2.23388 0
M  V30 48989 C 4418.48 1.13234 -1.21521 0
M  V30 48990 O 4419.66 1.17752 -1.50131 0
M  V30 48991 C 4416.8 1.7479 -2.97561 0
M  V30 48992 C 4415.92 1.22749 -4.14194 0
M  V30 48993 C 4415.05 2.35878 -4.75957 0
M  V30 48994 C 4414.09 1.80953 -5.84741 0
M  V30 48995 N 4413.23 2.87642 -6.40474 0
M  V30 48996 H 4418.07 -0.0115881 -2.97998 0
M  V30 48997 H 4415.61 -0.0174878 -1.4709 0
M  V30 48998 H 4417.56 2.43463 -3.38794 0
M  V30 48999 H 4416.19 2.31137 -2.25334 0
M  V30 49000 H 4415.25 0.433138 -3.77926 0
M  V30 49001 H 4416.56 0.785378 -4.92578 0
M  V30 49002 H 4415.71 3.12504 -5.20025 0
M  V30 49003 H 4414.45 2.83415 -3.96897 0
M  V30 49004 H 4413.46 1.02815 -5.40101 0
M  V30 49005 H 4414.68 1.34325 -6.65683 0
M  V30 49006 H 4412.63 3.34519 -5.64299 0
M  V30 49007 H 4412.54 2.47915 -7.14195 0
M  V30 49008 H 4413.81 3.64176 -6.892 0
M  V30 49009 N 4418.04 1.5758 -0.0251282 0
M  V30 49010 C 4418.95 2.13433 0.97383 0
M  V30 49011 C 4419.97 1.08561 1.3598 0
M  V30 49012 O 4421.14 1.40597 1.44202 0
M  V30 49013 C 4418.21 2.64711 2.23895 0
M  V30 49014 C 4417.27 3.84283 1.91377 0
M  V30 49015 C 4416.5 4.33106 3.11857 0
M  V30 49016 O 4416.72 3.81122 4.24384 0
M  V30 49017 O 4415.66 5.24995 2.94388 0
M  V30 49018 H 4419.48 2.99059 0.528931 0
M  V30 49019 H 4417.07 1.48119 0.195236 0
M  V30 49020 H 4418.95 2.97779 2.9817 0
M  V30 49021 H 4417.63 1.82171 2.67573 0
M  V30 49022 H 4416.53 3.56147 1.14498 0
M  V30 49023 H 4417.87 4.67974 1.52517 0
M  V30 49024 N 4419.52 -0.247971 1.55637 0
M  V30 49025 C 4420.47 -1.32676 1.91049 0
M  V30 49026 C 4421.46 -1.4988 0.789454 0
M  V30 49027 O 4422.67 -1.51367 0.97406 0
M  V30 49028 H 4419.04 -0.44425 0.60675 0
M  V30 49029 H 4421.01 -1.00075 2.81119 0
M  V30 49030 C 4419.76 -2.67542 2.22073 0
M  V30 49031 H 4419.08 -2.55103 3.07835 0
M  V30 49032 H 4420.52 -3.41903 2.50755 0
M  V30 49033 C 4418.98 -3.20552 1.03671 0
M  V30 49034 O 4419.51 -4.00694 0.284156 0
M  V30 49035 N 4417.72 -2.78565 0.827628 0
M  V30 49036 H 4417.27 -2.13505 1.4413 0
M  V30 49037 H 4417.22 -3.14378 0.0370908 0
M  V30 49038 N 4421 -1.48997 -0.513587 0
M  V30 49039 C 4422.24 -1.58081 -1.27036 0
M  V30 49040 C 4422.58 -0.261093 -1.92437 0
M  V30 49041 O 4421.85 0.734329 -1.80105 0
M  V30 49042 C 4422.13 -2.731 -2.3471 0
M  V30 49043 C 4421.99 -4.14827 -1.73893 0
M  V30 49044 C 4423.31 -2.83808 -3.36365 0
M  V30 49045 H 4420.43 -0.575408 -0.460516 0
M  V30 49046 H 4423.07 -1.81234 -0.570453 0
M  V30 49047 H 4421.22 -2.53489 -2.94407 0
M  V30 49048 H 4422.89 -4.45921 -1.1812 0
M  V30 49049 H 4421.13 -4.21061 -1.04355 0
M  V30 49050 H 4421.8 -4.91156 -2.51932 0
M  V30 49051 H 4424.28 -3.01621 -2.86643 0
M  V30 49052 H 4423.16 -3.65985 -4.0908 0
M  V30 49053 H 4423.42 -1.92638 -3.97923 0
M  V30 49054 N 4422.48 0.763702 -1.3786 0
M  V30 49055 C 4423.7 1.558 -1.36898 0
M  V30 49056 C 4424.13 1.88054 0.0415474 0
M  V30 49057 O 4423.48 1.49829 1.02084 0
M  V30 49058 C 4423.53 2.84005 -2.22202 0
M  V30 49059 O 4422.64 3.78727 -1.63217 0
M  V30 49060 H 4421.98 0.471621 -0.467407 0
M  V30 49061 H 4424.51 0.944593 -1.8149 0
M  V30 49062 H 4424.52 3.33029 -2.35702 0
M  V30 49063 H 4423.19 2.59858 -3.24726 0
M  V30 49064 H 4421.77 3.37396 -1.58803 0
M  V30 49065 N 4423.95 1.22562 0.990769 0
M  V30 49066 C 4424.9 0.96488 2.06577 0
M  V30 49067 C 4425.89 -0.0852908 1.60674 0
M  V30 49068 O 4427.08 0.125505 1.76554 0
M  V30 49069 C 4424.21 0.546826 3.38917 0
M  V30 49070 C 4423.29 1.63184 3.91448 0
M  V30 49071 N 4423.69 2.86 4.17179 0
M  V30 49072 C 4421.98 1.50402 4.19875 0
M  V30 49073 C 4422.68 3.56175 4.59907 0
M  V30 49074 N 4421.66 2.83654 4.63726 0
M  V30 49075 H 4425.46 1.89777 2.24414 0
M  V30 49076 H 4422.98 1.12347 1.17269 0
M  V30 49077 H 4424.97 0.341336 4.155 0
M  V30 49078 H 4423.63 -0.379141 3.22479 0
M  V30 49079 H 4424.64 3.22406 4.05308 0
M  V30 49080 H 4421.32 0.644399 4.12497 0
M  V30 49081 H 4422.71 4.61407 4.88419 0
M  V30 49082 N 4425.43 -1.18793 1.03566 0
M  V30 49083 C 4426.68 -1.88927 0.737179 0
M  V30 49084 C 4427.01 -1.7984 -0.732893 0
M  V30 49085 O 4426.29 -1.19531 -1.53436 0
M  V30 49086 C 4426.57 -3.39603 1.19757 0
M  V30 49087 C 4426.42 -3.57527 2.72937 0
M  V30 49088 C 4427.74 -4.33066 0.783678 0
M  V30 49089 H 4424.86 -0.686048 0.269273 0
M  V30 49090 H 4427.5 -1.39792 1.28678 0
M  V30 49091 H 4425.65 -3.8158 0.729989 0
M  V30 49092 H 4427.32 -3.24676 3.27693 0
M  V30 49093 H 4425.57 -3.00352 3.13004 0
M  V30 49094 H 4426.24 -4.63227 3.00207 0
M  V30 49095 H 4428.71 -3.98841 1.18595 0
M  V30 49096 H 4427.59 -5.37066 1.13362 0
M  V30 49097 H 4427.85 -4.40987 -0.313526 0
M  V30 49098 N 4426.91 -0.814437 -1.34925 0
M  V30 49099 C 4427.86 -0.218506 -2.31571 0
M  V30 49100 C 4428.85 0.636073 -1.57005 0
M  V30 49101 O 4430.06 0.52836 -1.72071 0
M  V30 49102 H 4426.43 -0.0519063 -0.750206 0
M  V30 49103 H 4428.4 -1.04861 -2.79368 0
M  V30 49104 C 4427.15 0.611949 -3.42273 0
M  V30 49105 H 4426.48 -0.0362983 -3.99784 0
M  V30 49106 H 4427.92 0.995173 -4.12156 0
M  V30 49107 C 4426.37 1.78077 -2.8599 0
M  V30 49108 O 4426.9 2.8786 -2.80178 0
M  V30 49109 N 4425.11 1.5948 -2.42929 0
M  V30 49110 H 4424.66 0.701787 -2.47856 0
M  V30 49111 H 4424.62 2.37839 -2.05621 0
M  V30 49112 N 4428.39 1.46984 -0.568636 0
M  V30 49113 C 4429.66 1.95592 0.0173386 0
M  V30 49114 C 4430.04 1.51129 1.47388 0
M  V30 49115 O 4429.39 0.755405 2.15652 0
M  V30 49116 C 4429.6 3.48719 -0.140036 0
M  V30 49117 C 4430.95 4.246 -0.000575644 0
M  V30 49118 O 4431.97 3.56135 -0.0681568 0
M  V30 49119 O 4430.83 5.46303 0.146796 0
M  V30 49120 H 4427.93 0.824983 0.0577309 0
M  V30 49121 H 4430.47 1.57333 -0.635964 0
M  V30 49122 H 4429.25 3.73923 -1.15314 0
M  V30 49123 H 4428.87 3.93773 0.550352 0
M  V30 49124 N 4429.87 0.305673 1.54607 0
M  V30 49125 C 4430.8 -0.561402 2.26651 0
M  V30 49126 C 4431.78 -1.1341 1.26776 0
M  V30 49127 O 4432.96 -1.16257 1.55557 0
M  V30 49128 C 4430.09 -1.73111 3.01081 0
M  V30 49129 C 4429.05 -1.28855 4.08143 0
M  V30 49130 C 4428.37 -2.5438 4.70314 0
M  V30 49131 C 4429.67 -0.416395 5.20638 0
M  V30 49132 H 4431.37 0.0394954 2.99374 0
M  V30 49133 H 4428.91 0.0204356 1.43985 0
M  V30 49134 H 4430.86 -2.34383 3.50203 0
M  V30 49135 H 4429.59 -2.35832 2.25944 0
M  V30 49136 H 4428.25 -0.698865 3.59877 0
M  V30 49137 H 4427.9 -3.15425 3.91811 0
M  V30 49138 H 4427.6 -2.25467 5.42622 0
M  V30 49139 H 4429.12 -3.16446 5.22201 0
M  V30 49140 H 4430.53 -0.934918 5.65625 0
M  V30 49141 H 4428.93 -0.220836 5.99694 0
M  V30 49142 H 4430 0.557331 4.81686 0
M  V30 49143 N 4431.34 -1.57564 0.0334847 0
M  V30 49144 C 4432.31 -2.09396 -0.931974 0
M  V30 49145 C 4433.31 -1.0099 -1.2513 0
M  V30 49146 O 4434.5 -1.27133 -1.19092 0
M  V30 49147 C 4431.63 -2.56346 -2.24721 0
M  V30 49148 H 4432.82 -2.95985 -0.482981 0
M  V30 49149 H 4430.37 -1.54819 -0.214626 0
M  V30 49150 H 4431.11 -1.73099 -2.74239 0
M  V30 49151 H 4430.89 -3.35549 -2.02853 0
M  V30 49152 H 4432.38 -2.96657 -2.93913 0
M  V30 49153 N 4432.82 0.239714 -1.55766 0
M  V30 49154 C 4434.24 0.588572 -1.48351 0
M  V30 49155 C 4434.44 1.88002 -0.725086 0
M  V30 49156 O 4433.49 2.51185 -0.257357 0
M  V30 49157 C 4434.81 0.684637 -2.92802 0
M  V30 49158 C 4436.35 0.776483 -3.03216 0
M  V30 49159 C 4436.83 0.904049 -4.48989 0
M  V30 49160 N 4438.32 0.968737 -4.52957 0
M  V30 49161 C 4439.06 1.08683 -5.63006 0
M  V30 49162 N 4438.55 1.17002 -6.82849 0
M  V30 49163 N 4440.34 1.12055 -5.50818 0
M  V30 49164 H 4432.5 -0.607982 -2.03512 0
M  V30 49165 H 4434.76 -0.210862 -0.924252 0
M  V30 49166 H 4434.46 -0.194407 -3.51162 0
M  V30 49167 H 4434.34 1.55423 -3.43691 0
M  V30 49168 H 4436.73 1.64598 -2.44932 0
M  V30 49169 H 4436.81 -0.118405 -2.55526 0
M  V30 49170 H 4436.45 0.0390848 -5.07885 0
M  V30 49171 H 4436.38 1.81408 -4.94367 0
M  V30 49172 H 4438.87 0.915504 -3.66643 0
M  V30 49173 H 4439.18 1.2594 -7.62469 0
M  V30 49174 H 4437.53 1.13947 -6.85595 0
M  V30 49175 H 4440.72 1.0521 -4.56123 0
M  V30 49176 H 4440.89 1.20914 -6.36619 0
M  V30 49177 N 4434.3 1.49267 0.505678 0
M  V30 49178 C 4435.23 1.61705 1.62432 0
M  V30 49179 C 4436.24 0.499979 1.54932 0
M  V30 49180 O 4437.43 0.771841 1.6095 0
M  V30 49181 C 4434.53 1.55341 3.01202 0
M  V30 49182 C 4433.71 2.82502 3.33933 0
M  V30 49183 C 4432.77 2.69254 4.52094 0
M  V30 49184 O 4431.79 3.43183 4.54108 0
M  V30 49185 N 4432.99 1.80487 5.51729 0
M  V30 49186 H 4435.76 2.58183 1.5219 0
M  V30 49187 H 4433.32 1.46297 0.693459 0
M  V30 49188 H 4435.31 1.44139 3.78161 0
M  V30 49189 H 4433.88 0.667404 3.05392 0
M  V30 49190 H 4433.1 3.0809 2.45915 0
M  V30 49191 H 4434.39 3.66814 3.52597 0
M  V30 49192 H 4433.79 1.19672 5.52897 0
M  V30 49193 H 4432.34 1.7521 6.27809 0
M  V30 49194 N 4435.78 -0.756381 1.38263 0
M  V30 49195 C 4436.71 -1.88369 1.37983 0
M  V30 49196 C 4437.69 -1.6831 0.246141 0
M  V30 49197 O 4438.87 -1.88943 0.448806 0
M  V30 49198 C 4436 -3.2586 1.20136 0
M  V30 49199 C 4434.96 -3.60515 2.30679 0
M  V30 49200 C 4434.28 -4.96713 1.97941 0
M  V30 49201 C 4435.58 -3.65679 3.72929 0
M  V30 49202 H 4437.28 -1.88861 2.32318 0
M  V30 49203 H 4434.82 -0.907233 1.11827 0
M  V30 49204 H 4436.78 -4.04376 1.18566 0
M  V30 49205 H 4435.5 -3.2584 0.222613 0
M  V30 49206 H 4434.16 -2.84316 2.3143 0
M  V30 49207 H 4433.81 -4.9325 0.985566 0
M  V30 49208 H 4433.51 -5.20869 2.71974 0
M  V30 49209 H 4435.03 -5.77611 1.97984 0
M  V30 49210 H 4436.45 -4.34315 3.74224 0
M  V30 49211 H 4434.84 -4.01342 4.46144 0
M  V30 49212 H 4435.91 -2.65973 4.05446 0
M  V30 49213 N 4437.26 -1.23086 -0.984255 0
M  V30 49214 C 4438.48 -1.0872 -1.76033 0
M  V30 49215 C 4438.9 0.361626 -1.85304 0
M  V30 49216 O 4438.26 1.25029 -1.32943 0
M  V30 49217 C 4438.31 -1.70217 -3.18917 0
M  V30 49218 O 4438.03 -3.09434 -3.10133 0
M  V30 49219 C 4439.53 -1.61242 -4.12936 0
M  V30 49220 H 4436.75 -0.380684 -0.552558 0
M  V30 49221 H 4439.29 -1.62858 -1.23684 0
M  V30 49222 H 4437.45 -1.20122 -3.68306 0
M  V30 49223 H 4437.86 -3.39202 -4.00053 0
M  V30 49224 H 4439.34 -2.0898 -5.10912 0
M  V30 49225 H 4439.81 -0.570528 -4.35479 0
M  V30 49226 H 4440.42 -2.10684 -3.69449 0
M  V30 49227 N 4438.73 1.18243 -1.04194 0
M  V30 49228 C 4439.96 1.92192 -0.76614 0
M  V30 49229 C 4440.38 1.7625 0.676871 0
M  V30 49230 O 4439.73 1.09299 1.46151 0
M  V30 49231 C 4439.79 3.43564 -1.12454 0
M  V30 49232 O 4439.51 3.59006 -2.5109 0
M  V30 49233 C 4441.01 4.3461 -0.873428 0
M  V30 49234 H 4438.23 0.610104 -0.279309 0
M  V30 49235 H 4440.77 1.50003 -1.38995 0
M  V30 49236 H 4438.93 3.83538 -0.545677 0
M  V30 49237 H 4439.34 4.52721 -2.64847 0
M  V30 49238 H 4440.81 5.3937 -1.17404 0
M  V30 49239 H 4441.29 4.38781 0.191754 0
M  V30 49240 H 4441.9 4.00336 -1.43565 0
M  V30 49241 N 4440.21 0.821581 1.34491 0
M  V30 49242 C 4441.14 0.25722 2.32079 0
M  V30 49243 C 4442.12 -0.625589 1.58178 0
M  V30 49244 O 4443.31 -0.552746 1.86168 0
M  V30 49245 C 4440.44 -0.582837 3.42374 0
M  V30 49246 C 4439.39 0.202721 4.2752 0
M  V30 49247 C 4438.72 -0.759993 5.29271 0
M  V30 49248 C 4440.02 1.41016 5.02903 0
M  V30 49249 H 4441.71 1.07257 2.79529 0
M  V30 49250 H 4439.26 0.51721 1.34391 0
M  V30 49251 H 4441.21 -0.987828 4.09658 0
M  V30 49252 H 4439.94 -1.43123 2.9357 0
M  V30 49253 H 4438.59 0.589064 3.61836 0
M  V30 49254 H 4438.24 -1.6043 4.7673 0
M  V30 49255 H 4437.94 -0.238603 5.87115 0
M  V30 49256 H 4439.47 -1.16287 5.99424 0
M  V30 49257 H 4440.88 1.07925 5.6305 0
M  V30 49258 H 4439.28 1.8671 5.70315 0
M  V30 49259 H 4440.35 2.18905 4.32676 0
M  V30 49260 N 4441.69 -1.4668 0.576422 0
M  V30 49261 C 4442.94 -2.02012 0.0594873 0
M  V30 49262 C 4443.26 -1.45106 -1.30266 0
M  V30 49263 O 4442.53 -0.633383 -1.85378 0
M  V30 49264 H 4441.11 -0.746758 0.0190008 0
M  V30 49265 H 4443.77 -1.79859 0.750781 0
M  V30 49266 H 4442.87 -3.12097 -0.0142353 0
M  V30 49267 N 4443.17 -0.313868 -1.54443 0
M  V30 49268 C 4444.42 0.292449 -1.99569 0
M  V30 49269 C 4444.73 1.54006 -1.20588 0
M  V30 49270 O 4445.94 2.22177 -1.56043 0
M  V30 49271 C 4444.39 0.571627 -3.55331 0
M  V30 49272 C 4444 -0.658385 -4.43136 0
M  V30 49273 C 4445.74 1.13843 -4.0895 0
M  V30 49274 C 4443.65 -0.351647 -5.90354 0
M  V30 49275 H 4442.58 0.113053 -0.745476 0
M  V30 49276 H 4445.23 -0.424581 -1.7852 0
M  V30 49277 H 4443.61 1.34859 -3.72329 0
M  V30 49278 H 4444.79 -1.43418 -4.37913 0
M  V30 49279 H 4443.1 -1.14472 -4.00356 0
M  V30 49280 H 4445.7 1.38238 -5.16521 0
M  V30 49281 H 4446.04 2.08477 -3.60338 0
M  V30 49282 H 4446.58 0.422876 -3.95546 0
M  V30 49283 H 4443.32 -1.26689 -6.43141 0
M  V30 49284 H 4442.84 0.386632 -5.98553 0
M  V30 49285 H 4444.51 0.042086 -6.46986 0
M  V30 49286 N 4444.65 1.57544 -0.0418402 0
M  V30 49287 C 4445.58 2.07908 0.964726 0
M  V30 49288 C 4446.59 1.00502 1.28075 0
M  V30 49289 O 4447.78 1.28091 1.24318 0
M  V30 49290 C 4444.88 2.49936 2.28878 0
M  V30 49291 C 4444.05 3.80569 2.15605 0
M  V30 49292 C 4443.11 4.0901 3.31054 0
M  V30 49293 O 4442.14 4.79072 3.07373 0
M  V30 49294 N 4443.34 3.60186 4.55243 0
M  V30 49295 H 4446.11 2.94888 0.534925 0
M  V30 49296 H 4443.67 1.61253 0.144624 0
M  V30 49297 H 4445.66 2.66045 3.04962 0
M  V30 49298 H 4444.23 1.68254 2.63457 0
M  V30 49299 H 4443.45 3.74133 1.2417 0
M  V30 49300 H 4444.74 4.66133 2.03954 0
M  V30 49301 H 4444.13 3.03528 4.77375 0
M  V30 49302 H 4442.69 3.8155 5.28453 0
M  V30 49303 N 4446.12 -0.23145 1.55891 0
M  V30 49304 C 4447.05 -1.29015 1.94621 0
M  V30 49305 C 4448.04 -1.49407 0.81312 0
M  V30 49306 O 4449.22 -1.61756 1.07464 0
M  V30 49307 C 4446.35 -2.64191 2.25433 0
M  V30 49308 C 4445.3 -2.58472 3.4114 0
M  V30 49309 C 4444.63 -3.97586 3.57532 0
M  V30 49310 C 4445.93 -2.14114 4.76396 0
M  V30 49311 H 4447.62 -0.968463 2.83304 0
M  V30 49312 H 4445.17 -0.464431 1.36305 0
M  V30 49313 H 4447.12 -3.38404 2.51118 0
M  V30 49314 H 4445.85 -2.98028 1.33593 0
M  V30 49315 H 4444.51 -1.86716 3.15488 0
M  V30 49316 H 4444.15 -4.28714 2.63085 0
M  V30 49317 H 4443.85 -3.94643 4.35351 0
M  V30 49318 H 4445.38 -4.73476 3.85555 0
M  V30 49319 H 4446.79 -2.78065 5.01351 0
M  V30 49320 H 4445.19 -2.22251 5.57427 0
M  V30 49321 H 4446.26 -1.09315 4.72418 0
M  V30 49322 N 4447.6 -1.49533 -0.497755 0
M  V30 49323 C 4448.83 -1.63164 -1.28033 0
M  V30 49324 C 4449.25 -0.304246 -1.85623 0
M  V30 49325 O 4448.61 0.728559 -1.66017 0
M  V30 49326 C 4448.66 -2.70545 -2.38407 0
M  V30 49327 O 4447.76 -2.29944 -3.42344 0
M  V30 49328 H 4447.1 -0.546015 -0.377841 0
M  V30 49329 H 4449.63 -1.95742 -0.595511 0
M  V30 49330 H 4449.64 -2.92812 -2.84122 0
M  V30 49331 H 4448.32 -3.66896 -1.95857 0
M  V30 49332 H 4446.9 -2.1802 -3.02526 0
M  V30 49333 N 4449.08 0.749038 -1.38662 0
M  V30 49334 C 4450.49 1.3266 -1.31371 0
M  V30 49335 C 4450.84 1.96179 0.028415 0
M  V30 49336 O 4449.97 1.95373 0.930501 0
M  V30 49337 C 4450.56 2.41211 -2.37914 0
M  V30 49338 C 4449.12 2.94676 -2.34186 0
M  V30 49339 C 4448.27 1.68101 -2.20539 0
M  V30 49340 H 4451.22 0.547576 -1.48954 0
M  V30 49341 H 4451.24 3.21261 -2.03892 0
M  V30 49342 H 4450.75 1.9495 -3.35583 0
M  V30 49343 H 4448.85 3.45253 -1.40112 0
M  V30 49344 H 4448.97 3.48745 -3.28502 0
M  V30 49345 H 4447.33 1.91901 -1.67469 0
M  V30 49346 H 4448.11 1.23912 -3.20157 0
M  V30 49347 N 4450.56 1.23606 0.977714 0
M  V30 49348 C 4451.79 1.09493 1.75199 0
M  V30 49349 C 4452.2 -0.356256 1.85816 0
M  V30 49350 O 4451.54 -1.25811 1.33856 0
M  V30 49351 C 4451.6 1.64916 3.19442 0
M  V30 49352 C 4451.27 3.137 3.32327 0
M  V30 49353 C 4452.26 4.10964 3.1844 0
M  V30 49354 C 4449.95 3.53462 3.56889 0
M  V30 49355 C 4451.94 5.45974 3.28925 0
M  V30 49356 C 4449.63 4.88615 3.67013 0
M  V30 49357 C 4450.63 5.8468 3.53041 0
M  V30 49358 O 4450.32 7.17378 3.62801 0
M  V30 49359 H 4450.05 0.383689 0.556559 0
M  V30 49360 H 4452.6 1.63984 1.23687 0
M  V30 49361 H 4450.83 1.04848 3.72215 0
M  V30 49362 H 4452.52 1.4624 3.78641 0
M  V30 49363 H 4453.29 3.81588 2.99359 0
M  V30 49364 H 4449.17 2.79201 3.66835 0
M  V30 49365 H 4452.71 6.20936 3.17937 0
M  V30 49366 H 4448.61 5.17667 3.85605 0
M  V30 49367 H 4449.37 7.25163 3.79579 0
M  V30 49368 N 4452.04 -1.17688 1.0482 0
M  V30 49369 C 4452.99 -2.23629 0.639739 0
M  V30 49370 C 4453.98 -1.66011 -0.337161 0
M  V30 49371 O 4455.19 -1.78844 -0.20363 0
M  V30 49372 H 4451.56 -0.727942 0.188691 0
M  V30 49373 H 4453.53 -2.55382 1.54346 0
M  V30 49374 C 4452.28 -3.4769 0.0265274 0
M  V30 49375 H 4451.6 -3.92329 0.769302 0
M  V30 49376 H 4453.04 -4.23419 -0.22195 0
M  V30 49377 C 4451.5 -3.13811 -1.22572 0
M  V30 49378 O 4452.03 -3.28244 -2.31558 0
M  V30 49379 N 4450.24 -2.68069 -1.12193 0
M  V30 49380 H 4449.79 -2.56525 -0.235043 0
M  V30 49381 H 4449.74 -2.45774 -1.96067 0
M  V30 49382 N 4453.52 -0.828702 -1.34053 0
M  V30 49383 C 4454.45 -0.269524 -2.31939 0
M  V30 49384 C 4455.43 0.617192 -1.58508 0
M  V30 49385 O 4456.61 0.542865 -1.86458 0
M  V30 49386 C 4453.74 0.564672 -3.42679 0
M  V30 49387 C 4452.7 -0.225391 -4.27406 0
M  V30 49388 C 4452.02 0.731914 -5.29667 0
M  V30 49389 C 4453.32 -1.43681 -5.02149 0
M  V30 49390 H 4455.02 -1.08738 -2.78956 0
M  V30 49391 H 4452.56 -0.52433 -1.34115 0
M  V30 49392 H 4454.51 0.966089 -4.10176 0
M  V30 49393 H 4453.24 1.41564 -2.94325 0
M  V30 49394 H 4451.9 -0.608244 -3.61519 0
M  V30 49395 H 4451.55 1.579 -4.77574 0
M  V30 49396 H 4451.25 0.207463 -5.87234 0
M  V30 49397 H 4452.77 1.13106 -6.00033 0
M  V30 49398 H 4454.18 -1.1091 -5.6247 0
M  V30 49399 H 4452.58 -1.89731 -5.69317 0
M  V30 49400 H 4453.65 -2.21197 -4.31509 0
M  V30 49401 N 4454.99 1.46373 -0.584193 0
M  V30 49402 C 4456.22 2.07268 -0.0741134 0
M  V30 49403 C 4456.64 1.42984 1.22218 0
M  V30 49404 O 4456 0.514153 1.73857 0
M  V30 49405 C 4456.05 3.60519 0.0766502 0
M  V30 49406 O 4455.15 3.96537 1.13278 0
M  V30 49407 H 4454.49 0.660959 -0.0634757 0
M  V30 49408 H 4457.02 1.87988 -0.807558 0
M  V30 49409 H 4457.03 4.07022 0.282346 0
M  V30 49410 H 4455.71 4.06699 -0.870003 0
M  V30 49411 H 4454.29 3.61741 0.905425 0
M  V30 49412 N 4456.47 0.322054 1.54274 0
M  V30 49413 C 4457.7 -0.28298 2.04956 0
M  V30 49414 C 4458.11 -1.459 1.19828 0
M  V30 49415 O 4457.47 -1.81063 0.228608 0
M  V30 49416 C 4457.52 -0.718904 3.5428 0
M  V30 49417 O 4457.24 0.410329 4.36174 0
M  V30 49418 C 4458.74 -1.3869 4.21046 0
M  V30 49419 H 4455.96 -0.0584381 0.66845 0
M  V30 49420 H 4458.51 0.467804 1.99077 0
M  V30 49421 H 4456.66 -1.41967 3.6045 0
M  V30 49422 H 4457.08 0.067126 5.24457 0
M  V30 49423 H 4458.55 -1.64288 5.26985 0
M  V30 49424 H 4459.03 -2.33372 3.72067 0
M  V30 49425 H 4459.63 -0.728759 4.1901 0
M  V30 49426 N 4457.95 -1.5752 0.0501946 0
M  V30 49427 C 4458.88 -2.14505 -0.922491 0
M  V30 49428 C 4459.86 -1.06647 -1.32516 0
M  V30 49429 O 4461.05 -1.34582 -1.40005 0
M  V30 49430 C 4458.18 -2.68924 -2.19766 0
M  V30 49431 C 4457.13 -3.81757 -1.93509 0
M  V30 49432 C 4456.46 -4.22689 -3.27472 0
M  V30 49433 C 4457.76 -5.06937 -1.25747 0
M  V30 49434 H 4459.45 -2.96032 -0.447848 0
M  V30 49435 H 4457 -1.42401 -0.213974 0
M  V30 49436 H 4458.95 -3.07429 -2.88211 0
M  V30 49437 H 4457.67 -1.84588 -2.69434 0
M  V30 49438 H 4456.33 -3.43723 -1.27477 0
M  V30 49439 H 4455.98 -3.35305 -3.7494 0
M  V30 49440 H 4455.68 -4.98736 -3.10703 0
M  V30 49441 H 4457.2 -4.63793 -3.9715 0
M  V30 49442 H 4458.62 -5.42894 -1.84225 0
M  V30 49443 H 4457.01 -5.88121 -1.19307 0
M  V30 49444 H 4458.08 -4.84338 -0.233366 0
M  V30 49445 N 4459.43 0.223179 -1.56012 0
M  V30 49446 C 4460.34 1.29759 -1.95448 0
M  V30 49447 C 4461.35 1.5137 -0.858082 0
M  V30 49448 O 4462.53 1.64532 -1.16151 0
M  V30 49449 C 4459.59 2.62764 -2.26177 0
M  V30 49450 C 4458.66 2.49469 -3.49376 0
M  V30 49451 C 4457.89 3.76132 -3.7863 0
M  V30 49452 O 4458.11 4.79076 -3.09584 0
M  V30 49453 O 4457.05 3.73341 -4.72123 0
M  V30 49454 H 4460.87 0.992989 -2.87008 0
M  V30 49455 H 4458.46 0.425908 -1.432 0
M  V30 49456 H 4460.34 3.41318 -2.47143 0
M  V30 49457 H 4459.01 2.92908 -1.37791 0
M  V30 49458 H 4457.92 1.69121 -3.3369 0
M  V30 49459 H 4459.25 2.24265 -4.38139 0
M  V30 49460 N 4460.91 1.49795 0.489818 0
M  V30 49461 C 4462.18 1.50352 1.25114 0
M  V30 49462 C 4462.56 0.23754 2.09759 0
M  V30 49463 O 4461.91 -0.779734 2.14785 0
M  V30 49464 C 4462.12 2.78879 2.09827 0
M  V30 49465 C 4463.47 3.2881 2.68644 0
M  V30 49466 O 4464.49 2.80073 2.20086 0
M  V30 49467 O 4463.35 4.1372 3.57069 0
M  V30 49468 H 4460.45 0.602262 0.566753 0
M  V30 49469 H 4462.99 1.62069 0.503172 0
M  V30 49470 H 4461.76 3.62504 1.47331 0
M  V30 49471 H 4461.39 2.70077 2.91795 0
M  V30 49472 N 4462.38 -0.741673 1.39057 0
M  V30 49473 C 4463.31 -1.86895 1.39973 0
M  V30 49474 C 4464.29 -1.68039 0.263979 0
M  V30 49475 O 4465.48 -1.88456 0.468821 0
M  V30 49476 C 4462.61 -3.24567 1.23586 0
M  V30 49477 C 4461.56 -3.58048 2.3449 0
M  V30 49478 C 4460.89 -4.94585 2.03198 0
M  V30 49479 C 4462.19 -3.61703 3.76787 0
M  V30 49480 H 4463.88 -1.86387 2.34308 0
M  V30 49481 H 4461.43 -0.895321 1.12783 0
M  V30 49482 H 4463.38 -4.03096 1.22848 0
M  V30 49483 H 4462.11 -3.25586 0.25716 0
M  V30 49484 H 4460.77 -2.81845 2.34433 0
M  V30 49485 H 4460.41 -4.92177 1.03783 0
M  V30 49486 H 4460.11 -5.17955 2.77483 0
M  V30 49487 H 4461.64 -5.75479 2.04099 0
M  V30 49488 H 4463.05 -4.30321 3.78809 0
M  V30 49489 H 4461.45 -3.96588 4.50376 0
M  V30 49490 H 4462.52 -2.61658 4.08244 0
M  V30 49491 N 4463.86 -1.24123 -0.971145 0
M  V30 49492 C 4464.81 -1.02819 -2.08641 0
M  V30 49493 C 4465.8 0.0357807 -1.69362 0
M  V30 49494 O 4467.01 -0.118492 -1.7961 0
M  V30 49495 H 4463.38 -0.315452 -0.682638 0
M  V30 49496 H 4465.36 -1.97405 -2.23772 0
M  V30 49497 C 4464.1 -0.645994 -3.41646 0
M  V30 49498 H 4463.43 -1.45645 -3.72327 0
M  V30 49499 H 4464.87 -0.536514 -4.20592 0
M  V30 49500 C 4463.33 0.646597 -3.30637 0
M  V30 49501 O 4463.86 1.69326 -3.64269 0
M  V30 49502 N 4462.06 0.626015 -2.83777 0
M  V30 49503 H 4461.61 -0.226078 -2.56606 0
M  V30 49504 H 4461.57 1.49107 -2.76793 0
M  V30 49505 N 4465.34 1.17131 -1.05443 0
M  V30 49506 C 4466.57 1.91369 -0.786481 0
M  V30 49507 C 4466.98 1.76958 0.65814 0
M  V30 49508 O 4466.34 1.10843 1.44983 0
M  V30 49509 C 4466.39 3.42352 -1.16092 0
M  V30 49510 O 4466.11 3.56323 -2.54884 0
M  V30 49511 C 4467.61 4.33659 -0.919475 0
M  V30 49512 H 4464.83 0.607108 -0.285765 0
M  V30 49513 H 4467.38 1.4852 -1.40578 0
M  V30 49514 H 4465.53 3.82937 -0.586326 0
M  V30 49515 H 4465.95 4.49886 -2.69634 0
M  V30 49516 H 4467.42 5.38095 -1.23119 0
M  V30 49517 H 4467.9 4.3896 0.145205 0
M  V30 49518 H 4468.5 3.98791 -1.47803 0
M  V30 49519 N 4466.82 0.835799 1.33612 0
M  V30 49520 C 4468.23 0.523192 1.50781 0
M  V30 49521 C 4468.43 -0.950108 1.77694 0
M  V30 49522 O 4467.49 -1.73405 1.8354 0
M  V30 49523 C 4468.8 1.39387 2.66443 0
M  V30 49524 C 4470.35 1.39233 2.80327 0
M  V30 49525 C 4470.83 2.24779 3.99047 0
M  V30 49526 N 4472.32 2.22472 4.06276 0
M  V30 49527 C 4473.05 2.85403 4.97325 0
M  V30 49528 N 4472.55 3.57375 5.93511 0
M  V30 49529 N 4474.34 2.74889 4.90298 0
M  V30 49530 H 4466.49 1.78956 1.14404 0
M  V30 49531 H 4468.76 0.763316 0.562185 0
M  V30 49532 H 4468.46 2.44069 2.53225 0
M  V30 49533 H 4468.34 1.06772 3.61773 0
M  V30 49534 H 4470.72 0.353239 2.92978 0
M  V30 49535 H 4470.8 1.75853 1.85767 0
M  V30 49536 H 4470.45 3.28745 3.87155 0
M  V30 49537 H 4470.38 1.85502 4.92845 0
M  V30 49538 H 4472.87 1.7013 3.37437 0
M  V30 49539 H 4473.18 4.02607 6.59642 0
M  V30 49540 H 4471.53 3.61482 5.93596 0
M  V30 49541 H 4474.72 2.18228 4.14119 0
M  V30 49542 H 4474.89 3.24219 5.61058 0
M  V30 49543 N 4468.3 -1.46061 0.591947 0
M  V30 49544 C 4469.54 -2.03203 0.0895593 0
M  V30 49545 C 4469.9 -1.45412 -1.25989 0
M  V30 49546 O 4469.19 -0.613324 -1.81518 0
M  V30 49547 C 4469.38 -3.57391 -0.0248556 0
M  V30 49548 C 4469.21 -4.30137 1.31195 0
M  V30 49549 C 4467.98 -4.68681 1.88854 0
M  V30 49550 C 4470.18 -4.6309 2.23724 0
M  V30 49551 N 4468.16 -5.26217 3.16178 0
M  V30 49552 C 4469.53 -5.21293 3.35639 0
M  V30 49553 C 4471.59 -4.45024 2.2329 0
M  V30 49554 C 4470.29 -5.63336 4.47264 0
M  V30 49555 C 4472.32 -4.88088 3.33952 0
M  V30 49556 C 4471.68 -5.46371 4.44588 0
M  V30 49557 H 4467.78 -0.778321 0.0757704 0
M  V30 49558 H 4470.36 -1.78091 0.786873 0
M  V30 49559 H 4468.53 -3.82197 -0.691356 0
M  V30 49560 H 4470.27 -4.01182 -0.532472 0
M  V30 49561 H 4467.02 -4.51735 1.42239 0
M  V30 49562 H 4467.45 -5.59498 3.8117 0
M  V30 49563 H 4472.09 -3.9929 1.39022 0
M  V30 49564 H 4469.81 -6.08043 5.32269 0
M  V30 49565 H 4473.39 -4.75854 3.34745 0
M  V30 49566 H 4472.27 -5.79083 5.28803 0
M  V30 49567 N 4469.77 -0.330231 -1.54101 0
M  V30 49568 C 4470.72 0.532683 -2.24569 0
M  V30 49569 C 4471.69 1.10631 -1.23895 0
M  V30 49570 O 4472.88 1.14541 -1.52595 0
M  V30 49571 C 4470.02 1.68439 -3.01201 0
M  V30 49572 C 4469.13 1.13936 -4.16704 0
M  V30 49573 C 4468.26 2.25729 -4.80853 0
M  V30 49574 C 4467.3 1.68509 -5.88448 0
M  V30 49575 N 4466.44 2.73991 -6.46431 0
M  V30 49576 H 4471.28 -0.0747952 -2.97906 0
M  V30 49577 H 4468.82 -0.0486837 -1.47019 0
M  V30 49578 H 4470.78 2.36222 -3.43882 0
M  V30 49579 H 4469.41 2.26306 -2.30186 0
M  V30 49580 H 4468.46 0.352877 -3.7876 0
M  V30 49581 H 4469.77 0.680718 -4.94133 0
M  V30 49582 H 4468.92 3.01404 -5.26537 0
M  V30 49583 H 4467.66 2.74933 -4.02819 0
M  V30 49584 H 4466.67 0.913353 -5.4216 0
M  V30 49585 H 4467.89 1.20175 -6.68382 0
M  V30 49586 H 4465.84 3.22474 -5.71268 0
M  V30 49587 H 4465.76 2.3271 -7.19293 0
M  V30 49588 H 4467.02 3.49475 -6.96769 0
M  V30 49589 N 4471.25 1.57491 -0.0585476 0
M  V30 49590 C 4472.18 2.14991 0.911102 0
M  V30 49591 C 4473.16 1.07348 1.31949 0
M  V30 49592 O 4474.35 1.35322 1.39289 0
M  V30 49593 C 4471.48 2.70086 2.18337 0
M  V30 49594 C 4470.43 3.82778 1.91482 0
M  V30 49595 C 4469.76 4.2442 3.25226 0
M  V30 49596 C 4471.06 5.07597 1.23057 0
M  V30 49597 H 4472.75 2.96265 0.432142 0
M  V30 49598 H 4470.3 1.42513 0.206419 0
M  V30 49599 H 4472.25 3.08953 2.86577 0
M  V30 49600 H 4470.98 1.86014 2.68452 0
M  V30 49601 H 4469.63 3.44394 1.25652 0
M  V30 49602 H 4469.28 3.37288 3.73156 0
M  V30 49603 H 4468.98 5.00377 3.08053 0
M  V30 49604 H 4470.51 4.65893 3.94685 0
M  V30 49605 H 4471.92 5.43864 1.81343 0
M  V30 49606 H 4470.32 5.88745 1.16186 0
M  V30 49607 H 4471.39 4.84455 0.207677 0
M  V30 49608 N 4472.73 -0.214903 1.56128 0
M  V30 49609 C 4473.66 -1.26943 1.95979 0
M  V30 49610 C 4474.64 -1.48536 0.82892 0
M  V30 49611 O 4475.83 -1.60607 1.09174 0
M  V30 49612 C 4472.96 -2.61786 2.28223 0
M  V30 49613 C 4471.91 -2.54839 3.43862 0
M  V30 49614 C 4471.24 -3.93772 3.61729 0
M  V30 49615 C 4472.54 -2.09049 4.7864 0
M  V30 49616 H 4474.23 -0.93836 2.84315 0
M  V30 49617 H 4471.78 -0.449948 1.3679 0
M  V30 49618 H 4473.73 -3.35722 2.54694 0
M  V30 49619 H 4472.45 -2.96594 1.36747 0
M  V30 49620 H 4471.11 -1.83359 3.17451 0
M  V30 49621 H 4470.76 -4.25899 2.67617 0
M  V30 49622 H 4470.46 -3.90004 4.39512 0
M  V30 49623 H 4471.98 -4.6936 3.90555 0
M  V30 49624 H 4473.4 -2.72732 5.04272 0
M  V30 49625 H 4471.8 -2.16326 5.59753 0
M  V30 49626 H 4472.87 -1.04298 4.7355 0
M  V30 49627 N 4474.21 -1.50053 -0.481867 0
M  V30 49628 C 4475.14 -1.64269 -1.59839 0
M  V30 49629 C 4476.15 -0.524564 -1.54117 0
M  V30 49630 O 4477.34 -0.797349 -1.59702 0
M  V30 49631 C 4474.44 -1.60113 -2.98692 0
M  V30 49632 C 4473.62 -2.87779 -3.29397 0
M  V30 49633 C 4472.67 -2.76413 -4.47753 0
M  V30 49634 O 4471.7 -3.50364 -4.48591 0
M  V30 49635 N 4472.9 -1.89242 -5.48788 0
M  V30 49636 H 4475.67 -2.60571 -1.48064 0
M  V30 49637 H 4473.23 -1.47382 -0.670097 0
M  V30 49638 H 4475.22 -1.50137 -3.75821 0
M  V30 49639 H 4473.79 -0.715905 -3.04292 0
M  V30 49640 H 4473.01 -3.11963 -2.40983 0
M  V30 49641 H 4474.3 -3.72377 -3.46717 0
M  V30 49642 H 4473.7 -1.28453 -5.50923 0
M  V30 49643 H 4472.25 -1.85176 -6.24942 0
M  V30 49644 N 4475.69 0.734288 -1.39449 0
M  V30 49645 C 4476.93 1.49608 -1.36914 0
M  V30 49646 C 4477.27 1.94169 0.0347146 0
M  V30 49647 O 4476.54 1.66837 0.999789 0
M  V30 49648 C 4476.82 2.73526 -2.34212 0
M  V30 49649 C 4476.68 2.34979 -3.83542 0
M  V30 49650 C 4478 3.75627 -2.2933 0
M  V30 49651 H 4475.11 0.542697 -0.498648 0
M  V30 49652 H 4477.76 0.839537 -1.70446 0
M  V30 49653 H 4475.91 3.29545 -2.05748 0
M  V30 49654 H 4477.58 1.84586 -4.2276 0
M  V30 49655 H 4475.82 1.67199 -4.00283 0
M  V30 49656 H 4476.49 3.23722 -4.47111 0
M  V30 49657 H 4478.97 3.29194 -2.54501 0
M  V30 49658 H 4477.84 4.59998 -2.99488 0
M  V30 49659 H 4478.11 4.22599 -1.29857 0
M  V30 49660 N 4477.16 1.24636 0.964549 0
M  V30 49661 C 4478.13 1.04247 2.04121 0
M  V30 49662 C 4479.13 -0.0013191 1.608 0
M  V30 49663 O 4480.32 0.239944 1.7254 0
M  V30 49664 C 4477.45 0.580706 3.35918 0
M  V30 49665 H 4478.64 1.99811 2.23642 0
M  V30 49666 H 4476.2 1.06903 1.14024 0
M  V30 49667 H 4476.93 -0.377987 3.2209 0
M  V30 49668 H 4476.72 1.33411 3.68706 0
M  V30 49669 H 4478.21 0.45918 4.15068 0
M  V30 49670 N 4478.64 -1.1657 1.06062 0
M  V30 49671 C 4479.89 -1.87321 0.777088 0
M  V30 49672 C 4480.22 -1.81354 -0.694581 0
M  V30 49673 O 4479.5 -1.22758 -1.50866 0
M  V30 49674 C 4479.78 -3.36987 1.26933 0
M  V30 49675 C 4479.63 -3.51657 2.80459 0
M  V30 49676 C 4480.95 -4.31307 0.875362 0
M  V30 49677 H 4478.07 -0.680182 0.283764 0
M  V30 49678 H 4480.71 -1.37032 1.31614 0
M  V30 49679 H 4478.86 -3.79946 0.810763 0
M  V30 49680 H 4480.53 -3.17652 3.34507 0
M  V30 49681 H 4478.78 -2.93645 3.19304 0
M  V30 49682 H 4479.45 -4.56755 3.09966 0
M  V30 49683 H 4481.92 -3.96236 1.27028 0
M  V30 49684 H 4480.8 -5.34541 1.24729 0
M  V30 49685 H 4481.06 -4.41553 -0.219916 0
M  V30 49686 N 4480.12 -0.842873 -1.33167 0
M  V30 49687 C 4481.03 -0.281526 -2.32905 0
M  V30 49688 C 4482.05 0.594529 -1.63528 0
M  V30 49689 O 4483.22 0.497701 -1.95154 0
M  V30 49690 C 4480.29 0.530809 -3.42612 0
M  V30 49691 C 4479.35 -0.369993 -4.27703 0
M  V30 49692 C 4478.58 0.403666 -5.32171 0
M  V30 49693 O 4478.81 1.63494 -5.46467 0
M  V30 49694 O 4477.74 -0.22441 -6.01482 0
M  V30 49695 H 4481.57 -1.10754 -2.82785 0
M  V30 49696 H 4479.15 -0.605498 -1.3658 0
M  V30 49697 H 4481.03 0.992293 -4.0955 0
M  V30 49698 H 4479.71 1.33382 -2.94942 0
M  V30 49699 H 4478.61 -0.879403 -3.63617 0
M  V30 49700 H 4479.95 -1.13788 -4.78867 0
M  V30 49701 N 4481.6 1.45745 -0.599685 0
M  V30 49702 C 4482.88 1.95585 -0.0241533 0
M  V30 49703 C 4483.26 1.54222 1.44149 0
M  V30 49704 O 4482.6 0.800978 2.14001 0
M  V30 49705 C 4482.81 3.48343 -0.213972 0
M  V30 49706 C 4484.16 4.24503 -0.0906395 0
M  V30 49707 O 4485.19 3.5591 -0.143683 0
M  V30 49708 O 4484.05 5.46491 0.0308845 0
M  V30 49709 H 4481.14 0.826021 0.0402188 0
M  V30 49710 H 4483.69 1.55948 -0.669194 0
M  V30 49711 H 4482.46 3.71393 -1.23219 0
M  V30 49712 H 4482.08 3.94851 0.466703 0
M  V30 49713 N 4483.08 0.338398 1.53924 0
M  V30 49714 C 4484.49 -0.0137175 1.59594 0
M  V30 49715 C 4484.69 -1.49181 1.35452 0
M  V30 49716 O 4483.75 -2.24983 1.14624 0
M  V30 49717 C 4485.06 0.417834 2.97783 0
M  V30 49718 C 4486.61 0.369742 3.10808 0
M  V30 49719 C 4487.09 0.776683 4.51366 0
M  V30 49720 N 4488.58 0.730667 4.57401 0
M  V30 49721 C 4489.31 1.01756 5.64299 0
M  V30 49722 N 4488.81 1.37234 6.79072 0
M  V30 49723 N 4490.6 0.942136 5.54148 0
M  V30 49724 H 4482.75 1.30126 1.67872 0
M  V30 49725 H 4485.01 0.530109 0.785931 0
M  V30 49726 H 4484.72 1.44823 3.20499 0
M  V30 49727 H 4484.59 -0.209596 3.76617 0
M  V30 49728 H 4486.98 -0.651467 2.87819 0
M  V30 49729 H 4487.06 1.03231 2.34045 0
M  V30 49730 H 4486.71 1.79588 4.7509 0
M  V30 49731 H 4486.64 0.09165 5.2652 0
M  V30 49732 H 4489.13 0.468915 3.74979 0
M  V30 49733 H 4489.44 1.57623 7.56555 0
M  V30 49734 H 4487.79 1.41074 6.80531 0
M  V30 49735 H 4490.98 0.664347 4.63362 0
M  V30 49736 H 4491.15 1.16907 6.37367 0
M  V30 49737 N 4484.56 -1.57458 0.0668989 0
M  V30 49738 C 4485.8 -1.93589 -0.604232 0
M  V30 49739 C 4486.13 -0.946782 -1.69557 0
M  V30 49740 O 4485.41 0.0247832 -1.94484 0
M  V30 49741 C 4485.69 -3.40018 -1.18573 0
M  V30 49742 C 4485.55 -4.49686 -0.10137 0
M  V30 49743 C 4486.86 -3.87162 -2.0927 0
M  V30 49744 H 4483.98 -0.703966 -0.218178 0
M  V30 49745 H 4486.63 -1.89542 0.13187 0
M  V30 49746 H 4484.78 -3.43599 -1.81307 0
M  V30 49747 H 4486.45 -4.58229 0.53144 0
M  V30 49748 H 4484.69 -4.30057 0.568638 0
M  V30 49749 H 4485.36 -5.49268 -0.548547 0
M  V30 49750 H 4487.84 -3.85557 -1.56478 0
M  V30 49751 H 4486.71 -4.90239 -2.46894 0
M  V30 49752 H 4486.97 -3.24821 -2.99906 0
M  V30 49753 N 4486.03 0.20662 -1.5624 0
M  V30 49754 C 4487.45 0.556972 -1.49566 0
M  V30 49755 C 4487.65 1.86422 -0.764801 0
M  V30 49756 O 4486.71 2.50583 -0.310579 0
M  V30 49757 C 4488.02 0.622375 -2.94189 0
M  V30 49758 C 4489.57 0.711992 -3.04794 0
M  V30 49759 C 4490.04 0.808608 -4.50805 0
M  V30 49760 N 4491.53 0.87244 -4.5491 0
M  V30 49761 C 4492.27 0.967166 -5.65184 0
M  V30 49762 N 4491.76 1.02491 -6.85177 0
M  V30 49763 N 4493.56 1.00346 -5.53071 0
M  V30 49764 H 4485.71 -0.651014 -2.02177 0
M  V30 49765 H 4487.97 -0.230419 -0.919571 0
M  V30 49766 H 4487.68 -0.26885 -3.50671 0
M  V30 49767 H 4487.55 1.48098 -3.46911 0
M  V30 49768 H 4489.94 1.59365 -2.48368 0
M  V30 49769 H 4490.02 -0.172579 -2.55217 0
M  V30 49770 H 4489.66 -0.0686539 -5.07854 0
M  V30 49771 H 4489.59 1.70881 -4.98104 0
M  V30 49772 H 4492.08 0.837527 -3.68502 0
M  V30 49773 H 4492.4 1.09738 -7.64969 0
M  V30 49774 H 4490.74 0.993784 -6.87858 0
M  V30 49775 H 4493.93 0.955108 -4.58252 0
M  V30 49776 H 4494.11 1.07383 -6.39041 0
M  V30 49777 N 4487.51 1.50306 0.473902 0
M  V30 49778 C 4488.44 1.65114 1.58965 0
M  V30 49779 C 4489.46 0.53273 1.53837 0
M  V30 49780 O 4490.65 0.805807 1.59276 0
M  V30 49781 C 4487.75 1.61695 2.97839 0
M  V30 49782 C 4486.92 2.89521 3.27866 0
M  V30 49783 C 4485.98 2.78783 4.46281 0
M  V30 49784 O 4485 3.52738 4.46727 0
M  V30 49785 N 4486.21 1.92149 5.47776 0
M  V30 49786 H 4488.97 2.61353 1.4668 0
M  V30 49787 H 4486.53 1.47735 0.662272 0
M  V30 49788 H 4488.52 1.52128 3.75019 0
M  V30 49789 H 4487.09 0.732032 3.03908 0
M  V30 49790 H 4486.31 3.13237 2.39325 0
M  V30 49791 H 4487.6 3.74211 3.44737 0
M  V30 49792 H 4487 1.31373 5.50234 0
M  V30 49793 H 4485.56 1.88488 6.23952 0
M  V30 49794 N 4488.99 -0.726883 1.39836 0
M  V30 49795 C 4489.92 -1.854 1.41947 0
M  V30 49796 C 4490.9 -1.6775 0.281787 0
M  V30 49797 O 4492.09 -1.87948 0.488783 0
M  V30 49798 C 4489.22 -3.23238 1.27021 0
M  V30 49799 C 4488.17 -3.55541 2.38274 0
M  V30 49800 C 4487.5 -4.92402 2.08432 0
M  V30 49801 C 4488.8 -3.57686 3.80602 0
M  V30 49802 H 4490.49 -1.83891 2.36272 0
M  V30 49803 H 4488.04 -0.883309 1.13726 0
M  V30 49804 H 4489.99 -4.0177 1.27117 0
M  V30 49805 H 4488.71 -3.25295 0.291678 0
M  V30 49806 H 4487.37 -2.79343 2.37409 0
M  V30 49807 H 4487.02 -4.91049 1.08997 0
M  V30 49808 H 4486.72 -5.14982 2.82961 0
M  V30 49809 H 4488.24 -5.73282 2.10191 0
M  V30 49810 H 4489.66 -4.26279 3.83352 0
M  V30 49811 H 4488.05 -3.91788 4.54557 0
M  V30 49812 H 4489.12 -2.57313 4.10996 0
M  V30 49813 N 4490.47 -1.25146 -0.957926 0
M  V30 49814 C 4491.42 -1.01931 -2.03946 0
M  V30 49815 C 4492.4 0.042661 -1.60843 0
M  V30 49816 O 4493.59 -0.172272 -1.7616 0
M  V30 49817 C 4490.72 -0.636492 -3.37348 0
M  V30 49818 C 4489.81 -1.73505 -3.86984 0
M  V30 49819 N 4490.2 -2.9696 -4.09449 0
M  V30 49820 C 4488.5 -1.61481 -4.1574 0
M  V30 49821 C 4489.2 -3.68243 -4.50302 0
M  V30 49822 N 4488.17 -2.95849 -4.56042 0
M  V30 49823 H 4491.98 -1.95661 -2.19304 0
M  V30 49824 H 4489.49 -1.15417 -1.14249 0
M  V30 49825 H 4491.49 -0.451379 -4.14449 0
M  V30 49826 H 4490.15 0.293508 -3.23371 0
M  V30 49827 H 4491.16 -3.33039 -3.96617 0
M  V30 49828 H 4487.84 -0.753539 -4.10643 0
M  V30 49829 H 4489.23 -4.74194 -4.76014 0
M  V30 49830 N 4491.95 1.16006 -1.06679 0
M  V30 49831 C 4492.86 2.24154 -0.692258 0
M  V30 49832 C 4493.87 1.71508 0.293452 0
M  V30 49833 O 4495.05 2.009 0.141791 0
M  V30 49834 C 4492.11 3.46587 -0.088535 0
M  V30 49835 C 4491.17 4.14254 -1.12661 0
M  V30 49836 C 4490.41 5.30842 -0.551602 0
M  V30 49837 O 4490.63 5.6686 0.634456 0
M  V30 49838 O 4489.56 5.87844 -1.29319 0
M  V30 49839 H 4493.39 2.58508 -1.59397 0
M  V30 49840 H 4490.97 1.23596 -0.839304 0
M  V30 49841 H 4492.86 4.2068 0.246213 0
M  V30 49842 H 4491.53 3.13997 0.786602 0
M  V30 49843 H 4490.44 3.42112 -1.5136 0
M  V30 49844 H 4491.77 4.50907 -1.97341 0
M  V30 49845 N 4493.42 0.849923 1.32718 0
M  V30 49846 C 4494.39 0.296202 2.27278 0
M  V30 49847 C 4495.39 -0.541405 1.51412 0
M  V30 49848 O 4496.58 -0.353598 1.70574 0
M  V30 49849 C 4493.71 -0.581461 3.35905 0
M  V30 49850 H 4494.9 1.13074 2.77767 0
M  V30 49851 H 4492.45 0.62388 1.43309 0
M  V30 49852 H 4493.19 -1.43799 2.90676 0
M  V30 49853 H 4492.97 0.0180192 3.92096 0
M  V30 49854 H 4494.46 -0.961808 4.06373 0
M  V30 49855 N 4494.9 -1.45425 0.607406 0
M  V30 49856 C 4495.85 -2.27612 -0.132958 0
M  V30 49857 C 4496.84 -1.3731 -0.838737 0
M  V30 49858 O 4498.03 -1.61301 -0.728756 0
M  V30 49859 C 4495.16 -3.24177 -1.12979 0
M  V30 49860 C 4494.24 -4.21967 -0.424862 0
M  V30 49861 N 4494.63 -5.0298 0.533394 0
M  V30 49862 C 4492.93 -4.40902 -0.672438 0
M  V30 49863 C 4493.63 -5.73928 0.94772 0
M  V30 49864 N 4492.61 -5.42818 0.291512 0
M  V30 49865 H 4496.41 -2.87647 0.603036 0
M  V30 49866 H 4493.93 -1.56575 0.431061 0
M  V30 49867 H 4495.92 -3.81789 -1.67459 0
M  V30 49868 H 4494.58 -2.65702 -1.86634 0
M  V30 49869 H 4495.59 -5.0984 0.910129 0
M  V30 49870 H 4492.27 -3.93552 -1.39368 0
M  V30 49871 H 4493.66 -6.49031 1.73805 0
M  V30 49872 N 4496.38 -0.346557 -1.53742 0
M  V30 49873 C 4497.8 0.00525364 -1.59599 0
M  V30 49874 C 4498 1.48461 -1.36241 0
M  V30 49875 O 4497.05 2.24372 -1.15816 0
M  V30 49876 C 4498.37 -0.433621 -2.97557 0
M  V30 49877 C 4499.91 -0.38622 -3.10608 0
M  V30 49878 C 4500.39 -0.800609 -4.50948 0
M  V30 49879 N 4501.88 -0.754914 -4.57007 0
M  V30 49880 C 4502.61 -1.04747 -5.63751 0
M  V30 49881 N 4502.11 -1.40833 -6.78335 0
M  V30 49882 N 4503.9 -0.971511 -5.53641 0
M  V30 49883 H 4496.05 -1.31015 -1.67179 0
M  V30 49884 H 4498.32 -0.53427 -0.783109 0
M  V30 49885 H 4498.02 -1.4652 -3.19726 0
M  V30 49886 H 4497.9 0.189621 -3.76723 0
M  V30 49887 H 4500.28 0.636194 -2.88161 0
M  V30 49888 H 4500.37 -1.04471 -2.33494 0
M  V30 49889 H 4500.01 -1.82105 -4.74131 0
M  V30 49890 H 4499.94 -0.119571 -5.26464 0
M  V30 49891 H 4502.43 -0.488794 -3.74726 0
M  V30 49892 H 4502.74 -1.61633 -7.55708 0
M  V30 49893 H 4501.09 -1.44681 -6.79774 0
M  V30 49894 H 4504.28 -0.688911 -4.63003 0
M  V30 49895 H 4504.45 -1.20285 -6.36738 0
M  V30 49896 N 4497.86 1.5742 -0.0752483 0
M  V30 49897 C 4499.14 1.85031 0.634264 0
M  V30 49898 C 4499.52 0.968371 1.87579 0
M  V30 49899 O 4498.86 0.0355552 2.28472 0
M  V30 49900 C 4499.07 3.35289 0.968624 0
M  V30 49901 C 4500.42 4.0288 1.34063 0
M  V30 49902 O 4501.45 3.40055 1.06025 0
M  V30 49903 O 4500.3 5.13697 1.86487 0
M  V30 49904 H 4497.4 0.764511 0.315361 0
M  V30 49905 H 4499.94 1.69366 -0.106442 0
M  V30 49906 H 4498.72 3.91203 0.0870001 0
M  V30 49907 H 4498.34 3.56229 1.76598 0
M  V30 49908 N 4499.34 -0.198331 1.56347 0
M  V30 49909 C 4500.58 -0.919223 1.80434 0
M  V30 49910 C 4500.91 -1.83391 0.64793 0
M  V30 49911 O 4500.17 -1.92238 -0.366488 0
M  V30 49912 C 4500.47 -1.7702 3.10481 0
M  V30 49913 C 4500.13 -1.00677 4.39517 0
M  V30 49914 C 4498.79 -0.795978 4.74571 0
M  V30 49915 C 4501.15 -0.469377 5.19082 0
M  V30 49916 C 4498.47 -0.0362526 5.86689 0
M  V30 49917 C 4500.83 0.277122 6.31993 0
M  V30 49918 C 4499.49 0.498964 6.65632 0
M  V30 49919 H 4498.76 -0.336367 0.660256 0
M  V30 49920 H 4501.41 -0.185805 1.90596 0
M  V30 49921 H 4499.71 -2.5722 2.95542 0
M  V30 49922 H 4501.41 -2.33054 3.26324 0
M  V30 49923 H 4498 -1.18108 4.12005 0
M  V30 49924 H 4502.18 -0.619643 4.92417 0
M  V30 49925 H 4497.44 0.145627 6.11227 0
M  V30 49926 H 4501.61 0.700928 6.92864 0
M  V30 49927 H 4499.24 1.08956 7.52351 0
M  V30 49928 N 4500.81 -1.50555 -0.465925 0
M  V30 49929 C 4502.06 -1.61483 -1.21522 0
M  V30 49930 C 4502.38 -0.319664 -1.92362 0
M  V30 49931 O 4501.65 0.663129 -1.84335 0
M  V30 49932 H 4500.23 -0.595071 -0.451552 0
M  V30 49933 H 4502.9 -1.87357 -0.536974 0
M  V30 49934 H 4501.99 -2.42853 -1.96033 0
M  V30 49935 N 4502.29 0.719457 -1.4022 0
M  V30 49936 C 4503.7 1.29843 -1.34155 0
M  V30 49937 C 4504.05 1.96196 -0.0132039 0
M  V30 49938 O 4503.18 1.97303 0.88885 0
M  V30 49939 C 4503.77 2.3611 -2.42976 0
M  V30 49940 C 4502.33 2.89642 -2.40384 0
M  V30 49941 C 4501.48 1.63385 -2.24055 0
M  V30 49942 H 4504.43 0.515857 -1.50082 0
M  V30 49943 H 4504.45 3.16864 -2.1066 0
M  V30 49944 H 4503.96 1.87788 -3.39643 0
M  V30 49945 H 4502.07 3.42203 -1.47404 0
M  V30 49946 H 4502.18 3.41699 -3.35826 0
M  V30 49947 H 4500.54 1.88306 -1.71502 0
M  V30 49948 H 4501.33 1.17093 -3.22714 0
M  V30 49949 N 4503.77 1.25652 0.951275 0
M  V30 49950 C 4504.73 1.06406 2.03004 0
M  V30 49951 C 4505.73 0.015736 1.60792 0
M  V30 49952 O 4506.92 0.25823 1.72275 0
M  V30 49953 C 4504.06 0.616302 3.35283 0
M  V30 49954 H 4505.25 2.02172 2.2151 0
M  V30 49955 H 4502.8 1.08107 1.12883 0
M  V30 49956 H 4503.54 -0.343804 3.22472 0
M  V30 49957 H 4503.32 1.37314 3.6727 0
M  V30 49958 H 4504.81 0.503178 4.14557 0
M  V30 49959 N 4505.25 -1.15438 1.07293 0
M  V30 49960 C 4506.47 -1.90635 0.816895 0
M  V30 49961 C 4506.9 -1.77447 -0.624021 0
M  V30 49962 O 4506.26 -1.10676 -1.43598 0
M  V30 49963 C 4506.3 -3.39004 1.22918 0
M  V30 49964 O 4505.41 -4.107 0.37412 0
M  V30 49965 H 4504.75 -0.593544 0.297659 0
M  V30 49966 H 4507.28 -1.46193 1.43139 0
M  V30 49967 H 4507.29 -3.89796 1.20511 0
M  V30 49968 H 4505.96 -3.47921 2.27868 0
M  V30 49969 H 4504.54 -3.70044 0.460629 0
M  V30 49970 N 4506.73 -0.85695 -1.32265 0
M  V30 49971 C 4507.66 -0.260492 -2.27715 0
M  V30 49972 C 4508.67 0.569083 -1.5253 0
M  V30 49973 O 4509.86 0.393199 -1.74115 0
M  V30 49974 C 4506.96 0.65036 -3.32601 0
M  V30 49975 C 4506.13 -0.143874 -4.37163 0
M  V30 49976 C 4505.19 0.693096 -5.21615 0
M  V30 49977 O 4504.22 0.125789 -5.69061 0
M  V30 49978 N 4505.42 2.00742 -5.44686 0
M  V30 49979 H 4508.19 -1.08068 -2.79538 0
M  V30 49980 H 4505.75 -0.717154 -1.4515 0
M  V30 49981 H 4507.74 1.21568 -3.8601 0
M  V30 49982 H 4506.31 1.37123 -2.8092 0
M  V30 49983 H 4505.53 -0.890621 -3.84007 0
M  V30 49984 H 4506.82 -0.689327 -5.04109 0
M  V30 49985 H 4506.21 2.49163 -5.07872 0
M  V30 49986 H 4504.77 2.52081 -6.01081 0
M  V30 49987 N 4508.2 1.45101 -0.61511 0
M  V30 49988 C 4509.15 2.27679 0.120885 0
M  V30 49989 C 4510.14 1.37753 0.831443 0
M  V30 49990 O 4511.33 1.61686 0.720192 0
M  V30 49991 C 4508.46 3.24771 1.11259 0
M  V30 49992 C 4507.55 4.22186 0.402478 0
M  V30 49993 N 4507.94 5.0269 -0.56006 0
M  V30 49994 C 4506.23 4.41252 0.649047 0
M  V30 49995 C 4506.94 5.73417 -0.978143 0
M  V30 49996 N 4505.91 5.42656 -0.320295 0
M  V30 49997 H 4509.71 2.87323 -0.618283 0
M  V30 49998 H 4507.23 1.56344 -0.439359 0
M  V30 49999 H 4509.22 3.82672 1.65432 0
M  V30 50000 H 4507.88 2.66688 1.85223 0
M  V30 50001 H 4508.9 5.0935 -0.937155 0
M  V30 50002 H 4505.57 3.94285 1.37279 0
M  V30 50003 H 4506.96 6.481 -1.77244 0
M  V30 50004 N 4509.68 0.354705 1.53557 0
M  V30 50005 C 4510.93 -0.238373 2.01092 0
M  V30 50006 C 4511.26 -1.49659 1.24227 0
M  V30 50007 O 4510.51 -1.93048 0.321071 0
M  V30 50008 C 4510.81 -0.586997 3.52547 0
M  V30 50009 C 4510.48 0.575629 4.47211 0
M  V30 50010 C 4509.14 0.894663 4.7281 0
M  V30 50011 C 4511.49 1.35507 5.03277 0
M  V30 50012 C 4508.82 1.9953 5.51729 0
M  V30 50013 C 4511.17 2.44604 5.83397 0
M  V30 50014 C 4509.84 2.77054 6.07287 0
M  V30 50015 H 4509.11 -0.0872268 0.735848 0
M  V30 50016 H 4511.75 0.484924 1.85259 0
M  V30 50017 H 4510.06 -1.39116 3.6627 0
M  V30 50018 H 4511.76 -1.05795 3.86792 0
M  V30 50019 H 4508.35 0.316924 4.27427 0
M  V30 50020 H 4512.53 1.12184 4.83455 0
M  V30 50021 H 4507.79 2.25083 5.68461 0
M  V30 50022 H 4511.96 3.05423 6.25851 0
M  V30 50023 H 4509.59 3.62464 6.68224 0
M  V30 50024 N 4511.16 -1.57378 0.0835957 0
M  V30 50025 C 4512.09 -2.16413 -0.876784 0
M  V30 50026 C 4513.07 -1.09434 -1.30224 0
M  V30 50027 O 4514.26 -1.37521 -1.37119 0
M  V30 50028 C 4511.39 -2.73525 -2.14013 0
M  V30 50029 C 4510.34 -3.85775 -1.85368 0
M  V30 50030 C 4509.67 -4.2954 -3.18433 0
M  V30 50031 C 4510.97 -5.0949 -1.14966 0
M  V30 50032 H 4512.66 -2.96915 -0.384954 0
M  V30 50033 H 4510.21 -1.42823 -0.18372 0
M  V30 50034 H 4512.16 -3.13473 -2.81625 0
M  V30 50035 H 4510.88 -1.90261 -2.65458 0
M  V30 50036 H 4509.54 -3.46349 -1.20157 0
M  V30 50037 H 4509.19 -3.43182 -3.67743 0
M  V30 50038 H 4508.89 -5.05214 -3.00054 0
M  V30 50039 H 4510.42 -4.72113 -3.87223 0
M  V30 50040 H 4511.83 -5.4668 -1.72668 0
M  V30 50041 H 4510.23 -5.90519 -1.06805 0
M  V30 50042 H 4511.3 -4.84724 -0.130578 0
M  V30 50043 N 4512.64 0.190037 -1.5645 0
M  V30 50044 C 4513.86 0.929799 -1.8539 0
M  V30 50045 C 4514.29 1.75848 -0.667766 0
M  V30 50046 O 4513.65 1.772 0.383396 0
M  V30 50047 C 4513.7 1.79762 -3.12599 0
M  V30 50048 O 4512.8 2.89703 -2.93507 0
M  V30 50049 H 4512.14 0.261553 -0.610316 0
M  V30 50050 H 4514.67 0.193825 -2.0368 0
M  V30 50051 H 4514.68 2.20127 -3.43523 0
M  V30 50052 H 4513.36 1.18878 -3.98548 0
M  V30 50053 H 4511.93 2.53056 -2.73893 0
M  V30 50054 N 4514.12 1.508 0.457934 0
M  V30 50055 C 4515.35 1.66223 1.23198 0
M  V30 50056 C 4515.76 0.350959 1.85509 0
M  V30 50057 O 4515.12 -0.668487 1.69816 0
M  V30 50058 C 4515.17 2.763 2.33111 0
M  V30 50059 O 4514.89 4.02344 1.73352 0
M  V30 50060 C 4516.39 3.02811 3.2376 0
M  V30 50061 H 4513.61 0.558374 0.372102 0
M  V30 50062 H 4516.15 1.97101 0.54511 0
M  V30 50063 H 4514.31 2.48078 2.9755 0
M  V30 50064 H 4514.72 4.63321 2.45834 0
M  V30 50065 H 4516.2 3.83464 3.97063 0
M  V30 50066 H 4516.67 2.14399 3.83314 0
M  V30 50067 H 4517.28 3.32613 2.65044 0
M  V30 50068 N 4515.6 -0.71201 1.40599 0
M  V30 50069 C 4516.82 -1.50612 1.42586 0
M  V30 50070 C 4517.25 -1.88079 0.0282763 0
M  V30 50071 O 4516.6 -1.53514 -0.964525 0
M  V30 50072 C 4516.65 -2.75562 2.3259 0
M  V30 50073 O 4515.76 -3.72408 1.77161 0
M  V30 50074 H 4515.1 -0.453949 0.484589 0
M  V30 50075 H 4517.63 -0.876584 1.84871 0
M  V30 50076 H 4517.64 -3.24052 2.479 0
M  V30 50077 H 4516.31 -2.47627 3.34146 0
M  V30 50078 H 4514.89 -3.3127 1.71215 0
M  V30 50079 N 4517.07 -1.26155 -0.944598 0
M  V30 50080 C 4518.32 -1.11663 -1.6929 0
M  V30 50081 C 4518.65 0.339859 -1.91203 0
M  V30 50082 O 4517.93 1.24989 -1.49023 0
M  V30 50083 C 4518.21 -1.88247 -3.06977 0
M  V30 50084 C 4518.06 -3.41783 -2.92412 0
M  V30 50085 C 4519.38 -1.67357 -4.07038 0
M  V30 50086 H 4516.5 -0.407026 -0.614409 0
M  V30 50087 H 4519.14 -1.55109 -1.09732 0
M  V30 50088 H 4517.29 -1.51321 -3.57819 0
M  V30 50089 H 4518.97 -3.88442 -2.48818 0
M  V30 50090 H 4517.21 -3.68982 -2.28111 0
M  V30 50091 H 4517.88 -3.90593 -3.90053 0
M  V30 50092 H 4520.36 -1.99522 -3.65144 0
M  V30 50093 H 4519.23 -2.23363 -5.01398 0
M  V30 50094 H 4519.49 -0.617312 -4.37769 0
M  V30 50095 N 4518.55 1.14868 -1.07903 0
M  V30 50096 C 4519.48 2.19422 -0.662308 0
M  V30 50097 C 4520.5 1.60232 0.288023 0
M  V30 50098 O 4521.69 1.78336 0.0764713 0
M  V30 50099 C 4518.79 3.38867 0.0469504 0
M  V30 50100 C 4517.96 4.27594 -0.920981 0
M  V30 50101 C 4517.02 5.25615 -0.247989 0
M  V30 50102 O 4516.04 5.62186 -0.890797 0
M  V30 50103 N 4517.25 5.71749 1.00415 0
M  V30 50104 H 4520.01 2.55792 -1.56175 0
M  V30 50105 H 4517.57 1.30038 -0.96445 0
M  V30 50106 H 4519.56 4.01499 0.507988 0
M  V30 50107 H 4518.13 3.00866 0.848417 0
M  V30 50108 H 4517.35 3.61976 -1.56099 0
M  V30 50109 H 4518.64 4.83742 -1.57705 0
M  V30 50110 H 4518.04 5.44158 1.54623 0
M  V30 50111 H 4516.6 6.36394 1.40877 0
M  V30 50112 N 4520.03 0.863952 1.31809 0
M  V30 50113 C 4521.28 0.470973 1.96536 0
M  V30 50114 C 4521.6 -0.978711 1.6866 0
M  V30 50115 O 4520.87 -1.68527 0.998776 0
M  V30 50116 H 4519.45 0.171173 0.727124 0
M  V30 50117 H 4522.11 1.10242 1.60726 0
M  V30 50118 H 4521.21 0.623724 3.05804 0
M  V30 50119 N 4521.51 -1.44772 0.622796 0
M  V30 50120 C 4522.92 -1.85546 0.207291 0
M  V30 50121 C 4523.27 -1.52097 -1.23939 0
M  V30 50122 O 4522.39 -0.954989 -1.94188 0
M  V30 50123 C 4522.99 -3.3678 0.369432 0
M  V30 50124 C 4521.55 -3.76399 0.00850079 0
M  V30 50125 C 4520.7 -2.68662 0.686746 0
M  V30 50126 H 4523.65 -1.35357 0.828501 0
M  V30 50127 H 4523.67 -3.78454 -0.394029 0
M  V30 50128 H 4523.18 -3.61093 1.42244 0
M  V30 50129 H 4521.28 -3.57701 -1.04309 0
M  V30 50130 H 4521.39 -4.77319 0.412752 0
M  V30 50131 H 4519.76 -2.54403 0.122867 0
M  V30 50132 H 4520.54 -2.95809 1.74218 0
M  V30 50133 N 4522.99 -0.362844 -1.53366 0
M  V30 50134 C 4524.23 0.220631 -2.022 0
M  V30 50135 C 4524.59 1.46645 -1.24551 0
M  V30 50136 O 4523.88 1.88736 -0.330027 0
M  V30 50137 C 4524.07 0.568293 -3.52853 0
M  V30 50138 C 4523.9 -0.642283 -4.4509 0
M  V30 50139 C 4522.67 -1.15352 -4.91957 0
M  V30 50140 C 4524.87 -1.50666 -4.91736 0
M  V30 50141 N 4522.85 -2.3244 -5.68194 0
M  V30 50142 C 4524.22 -2.52424 -5.66288 0
M  V30 50143 C 4526.28 -1.52986 -4.73814 0
M  V30 50144 C 4524.98 -3.56353 -6.24824 0
M  V30 50145 C 4527.01 -2.55808 -5.33213 0
M  V30 50146 C 4526.37 -3.56289 -6.07649 0
M  V30 50147 H 4522.47 0.0435233 -0.780788 0
M  V30 50148 H 4525.05 -0.50677 -1.87989 0
M  V30 50149 H 4523.22 1.26477 -3.6723 0
M  V30 50150 H 4524.96 1.13662 -3.88411 0
M  V30 50151 H 4521.71 -0.718577 -4.68117 0
M  V30 50152 H 4522.13 -2.91612 -6.10976 0
M  V30 50153 H 4526.78 -0.766564 -4.15793 0
M  V30 50154 H 4524.49 -4.33566 -6.81943 0
M  V30 50155 H 4528.08 -2.58453 -5.21242 0
M  V30 50156 H 4526.96 -4.34547 -6.52793 0
M  V30 50157 N 4524.46 1.57332 -0.0919406 0
M  V30 50158 C 4525.37 2.17371 0.882429 0
M  V30 50159 C 4526.39 1.14231 1.31253 0
M  V30 50160 O 4527.57 1.46587 1.38109 0
M  V30 50161 C 4524.63 2.73969 2.12466 0
M  V30 50162 C 4523.69 3.92054 1.74906 0
M  V30 50163 C 4522.93 4.45943 2.93207 0
M  V30 50164 O 4523.15 3.98779 4.07838 0
M  V30 50165 O 4522.08 5.37008 2.71856 0
M  V30 50166 H 4525.91 3.01033 0.401614 0
M  V30 50167 H 4523.49 1.48814 0.132238 0
M  V30 50168 H 4525.38 3.10157 2.85272 0
M  V30 50169 H 4524.05 1.93356 2.59606 0
M  V30 50170 H 4522.96 3.60683 0.992898 0
M  V30 50171 H 4524.29 4.74021 1.32532 0
M  V30 50172 N 4525.94 -0.181737 1.56549 0
M  V30 50173 C 4527.36 -0.533107 1.50433 0
M  V30 50174 C 4527.56 -1.85181 0.794362 0
M  V30 50175 O 4526.61 -2.50057 0.350405 0
M  V30 50176 C 4527.93 -0.575493 2.95142 0
M  V30 50177 C 4529.48 -0.663412 3.05889 0
M  V30 50178 C 4529.95 -0.736787 4.52035 0
M  V30 50179 N 4531.44 -0.799957 4.5624 0
M  V30 50180 C 4532.18 -0.877128 5.66652 0
M  V30 50181 N 4531.67 -0.915775 6.86721 0
M  V30 50182 N 4533.47 -0.915347 5.54597 0
M  V30 50183 H 4525.62 0.683096 2.01116 0
M  V30 50184 H 4527.88 0.24502 0.915789 0
M  V30 50185 H 4527.59 0.324605 3.50199 0
M  V30 50186 H 4527.46 -1.4256 3.49223 0
M  V30 50187 H 4529.85 -1.55394 2.50872 0
M  V30 50188 H 4529.93 0.21316 2.5491 0
M  V30 50189 H 4529.57 0.14944 5.0768 0
M  V30 50190 H 4529.5 -1.62935 5.00759 0
M  V30 50191 H 4531.99 -0.778796 3.69788 0
M  V30 50192 H 4532.31 -0.975543 7.66618 0
M  V30 50193 H 4530.65 -0.884226 6.89352 0
M  V30 50194 H 4533.84 -0.882084 4.59714 0
M  V30 50195 H 4534.01 -0.972028 6.40668 0
M  V30 50196 N 4527.42 -1.51041 -0.44993 0
M  V30 50197 C 4528.38 -1.70868 -1.52764 0
M  V30 50198 C 4529.38 -0.578898 -1.50018 0
M  V30 50199 O 4530.57 -0.846266 -1.52263 0
M  V30 50200 C 4527.71 -1.75351 -2.92344 0
M  V30 50201 H 4528.9 -2.67039 -1.36493 0
M  V30 50202 H 4526.45 -1.40841 -0.677762 0
M  V30 50203 H 4527.19 -0.809493 -3.14035 0
M  V30 50204 H 4526.97 -2.57446 -2.95743 0
M  V30 50205 H 4528.46 -1.92572 -3.70548 0
M  V30 50206 N 4528.9 0.704544 -1.40975 0
M  V30 50207 C 4530.15 1.46014 -1.39151 0
M  V30 50208 C 4530.46 1.956 -0.000658017 0
M  V30 50209 O 4531.67 2.71138 0.140204 0
M  V30 50210 C 4530.12 2.63987 -2.4462 0
M  V30 50211 C 4529.73 2.21225 -3.89569 0
M  V30 50212 C 4531.47 3.41668 -2.51919 0
M  V30 50213 C 4529.38 3.36103 -4.86609 0
M  V30 50214 H 4528.31 0.548426 -0.517441 0
M  V30 50215 H 4530.96 0.765725 -1.6676 0
M  V30 50216 H 4529.34 3.35653 -2.10127 0
M  V30 50217 H 4530.52 1.56907 -4.33263 0
M  V30 50218 H 4528.83 1.5656 -3.85847 0
M  V30 50219 H 4531.43 4.2717 -3.21605 0
M  V30 50220 H 4531.77 3.86241 -1.55317 0
M  V30 50221 H 4532.31 2.77054 -2.85457 0
M  V30 50222 H 4529.05 2.96551 -5.84583 0
M  V30 50223 H 4528.57 3.993 -4.47571 0
M  V30 50224 H 4530.24 4.02011 -5.06948 0
M  V30 50225 N 4530.38 1.26654 0.937895 0
M  V30 50226 C 4531.6 1.15285 1.72407 0
M  V30 50227 C 4532.03 -0.2878 1.85885 0
M  V30 50228 O 4531.38 -1.2085 1.35148 0
M  V30 50229 C 4531.43 1.83039 3.10691 0
M  V30 50230 O 4530.54 1.12142 3.9686 0
M  V30 50231 H 4529.88 0.401523 0.528844 0
M  V30 50232 H 4532.41 1.67535 1.17444 0
M  V30 50233 H 4532.42 1.89994 3.61063 0
M  V30 50234 H 4531.09 2.87844 3.00198 0
M  V30 50235 H 4529.67 1.13185 3.55308 0
M  V30 50236 N 4531.85 -1.14294 1.08511 0
M  V30 50237 C 4533.27 -1.66923 0.836286 0
M  V30 50238 C 4533.62 -1.85578 -0.636795 0
M  V30 50239 O 4532.74 -1.56772 -1.49169 0
M  V30 50240 C 4533.34 -3.03213 1.51153 0
M  V30 50241 C 4531.9 -3.52871 1.30991 0
M  V30 50242 C 4531.04 -2.28324 1.57364 0
M  V30 50243 H 4533.99 -0.983448 1.24555 0
M  V30 50244 H 4534.01 -3.68723 0.939341 0
M  V30 50245 H 4533.53 -2.89603 2.58363 0
M  V30 50246 H 4531.63 -3.71702 0.258559 0
M  V30 50247 H 4531.74 -4.33579 2.03829 0
M  V30 50248 H 4530.1 -2.3445 0.995247 0
M  V30 50249 H 4530.89 -2.17289 2.65783 0
M  V30 50250 N 4533.33 -0.87093 -1.31349 0
M  V30 50251 C 4534.28 -0.316526 -2.30436 0
M  V30 50252 C 4535.27 0.568909 -1.59561 0
M  V30 50253 O 4536.48 0.454903 -1.74157 0
M  V30 50254 H 4532.86 -0.0836784 -0.74733 0
M  V30 50255 H 4534.83 -1.16616 -2.74669 0
M  V30 50256 C 4533.58 0.466229 -3.4456 0
M  V30 50257 H 4532.9 -0.205828 -3.9927 0
M  V30 50258 H 4534.34 0.819468 -4.16006 0
M  V30 50259 C 4532.8 1.65787 -2.93285 0
M  V30 50260 O 4533.33 2.75717 -2.92135 0
M  V30 50261 N 4531.53 1.49033 -2.49475 0
M  V30 50262 H 4531.08 0.596032 -2.5061 0
M  V30 50263 H 4531.04 2.28904 -2.15524 0
M  V30 50264 N 4534.81 1.4444 -0.630465 0
M  V30 50265 C 4535.76 2.30679 0.0748544 0
M  V30 50266 C 4536.73 1.43443 0.837452 0
M  V30 50267 O 4537.91 1.72346 0.818623 0
M  V30 50268 C 4535.05 3.28709 1.05091 0
M  V30 50269 C 4534.17 4.31047 0.286802 0
M  V30 50270 C 4533.3 5.16171 1.25462 0
M  V30 50271 C 4532.34 6.10218 0.479629 0
M  V30 50272 N 4531.48 6.88044 1.39787 0
M  V30 50273 H 4536.32 2.90451 -0.666489 0
M  V30 50274 H 4533.85 1.43106 -0.340454 0
M  V30 50275 H 4535.81 3.84033 1.63018 0
M  V30 50276 H 4534.44 2.70639 1.75939 0
M  V30 50277 H 4533.49 3.78202 -0.408376 0
M  V30 50278 H 4534.81 4.97793 -0.316832 0
M  V30 50279 H 4533.96 5.76008 1.90524 0
M  V30 50280 H 4532.7 4.49497 1.89218 0
M  V30 50281 H 4531.7 5.4949 -0.184488 0
M  V30 50282 H 4532.93 6.78927 -0.153204 0
M  V30 50283 H 4530.87 6.24039 2.02265 0
M  V30 50284 H 4530.79 7.51226 0.848243 0
M  V30 50285 H 4532.06 7.52404 2.03736 0
M  V30 50286 N 4536.29 0.370972 1.53172 0
M  V30 50287 C 4537.53 -0.217352 2.01632 0
M  V30 50288 C 4537.87 -1.47979 1.25762 0
M  V30 50289 O 4537.14 -1.91273 0.352832 0
M  V30 50290 C 4537.43 -0.503857 3.56558 0
M  V30 50291 C 4537.28 0.772586 4.43115 0
M  V30 50292 C 4538.6 -1.30219 4.20394 0
M  V30 50293 H 4535.72 -0.0775228 0.732911 0
M  V30 50294 H 4538.36 0.496927 1.83387 0
M  V30 50295 H 4536.51 -1.11235 3.72235 0
M  V30 50296 H 4538.18 1.40995 4.39224 0
M  V30 50297 H 4536.42 1.39181 4.10866 0
M  V30 50298 H 4537.09 0.527008 5.49479 0
M  V30 50299 H 4539.57 -0.787403 4.08582 0
M  V30 50300 H 4538.45 -1.4714 5.28811 0
M  V30 50301 H 4538.71 -2.31224 3.76813 0
M  V30 50302 N 4537.77 -1.57281 0.100283 0
M  V30 50303 C 4539.18 -1.81727 -0.428043 0
M  V30 50304 C 4539.53 -1.01625 -1.6783 0
M  V30 50305 O 4538.65 -0.247174 -2.14984 0
M  V30 50306 C 4539.25 -3.29619 -0.783354 0
M  V30 50307 C 4537.81 -3.54812 -1.2564 0
M  V30 50308 C 4536.95 -2.76119 -0.255655 0
M  V30 50309 H 4539.91 -1.55323 0.325662 0
M  V30 50310 H 4539.93 -3.43226 -1.64244 0
M  V30 50311 H 4539.44 -3.87893 0.126787 0
M  V30 50312 H 4537.54 -3.01876 -2.18408 0
M  V30 50313 H 4537.65 -4.63447 -1.21465 0
M  V30 50314 H 4536.02 -2.43747 -0.738871 0
M  V30 50315 H 4536.8 -3.37143 0.647255 0
M  V30 50316 N 4539.25 0.173432 -1.56643 0
M  V30 50317 C 4540.48 0.904716 -1.85738 0
M  V30 50318 C 4540.88 1.76429 -0.683342 0
M  V30 50319 O 4540.23 1.80202 0.356801 0
M  V30 50320 C 4540.29 1.83371 -3.09217 0
M  V30 50321 C 4539.95 1.15395 -4.42191 0
M  V30 50322 C 4540.95 0.520427 -5.17289 0
M  V30 50323 C 4538.63 1.15134 -4.88927 0
M  V30 50324 C 4540.63 -0.106636 -6.37311 0
M  V30 50325 C 4538.32 0.520449 -6.0888 0
M  V30 50326 C 4539.31 -0.107436 -6.82915 0
M  V30 50327 O 4539 -0.728384 -8.00593 0
M  V30 50328 H 4538.73 0.268387 -0.620439 0
M  V30 50329 H 4541.29 0.179024 -2.04618 0
M  V30 50330 H 4539.52 2.59966 -2.86277 0
M  V30 50331 H 4541.21 2.43465 -3.24776 0
M  V30 50332 H 4541.97 0.514437 -4.82264 0
M  V30 50333 H 4537.85 1.62946 -4.31242 0
M  V30 50334 H 4541.4 -0.597325 -6.95038 0
M  V30 50335 H 4537.29 0.524016 -6.4337 0
M  V30 50336 H 4538.06 -0.627425 -8.16092 0
M  V30 50337 N 4540.72 1.51278 0.441914 0
M  V30 50338 C 4541.95 1.67277 1.21252 0
M  V30 50339 C 4542.36 0.367689 1.85593 0
M  V30 50340 O 4541.7 -0.663288 1.71307 0
M  V30 50341 C 4541.77 2.72815 2.3412 0
M  V30 50342 C 4541.43 4.15547 1.90183 0
M  V30 50343 C 4542.43 5.00476 1.40783 0
M  V30 50344 C 4540.11 4.61623 1.98014 0
M  V30 50345 C 4542.11 6.29539 0.997953 0
M  V30 50346 C 4539.79 5.90684 1.56637 0
M  V30 50347 C 4540.79 6.7447 1.07609 0
M  V30 50348 O 4540.48 8.01118 0.668177 0
M  V30 50349 H 4540.21 0.564628 0.371715 0
M  V30 50350 H 4542.77 1.98432 0.530451 0
M  V30 50351 H 4541 2.36965 3.05589 0
M  V30 50352 H 4542.68 2.7774 2.95999 0
M  V30 50353 H 4543.45 4.66083 1.34132 0
M  V30 50354 H 4539.33 3.96534 2.35121 0
M  V30 50355 H 4542.87 6.94888 0.614576 0
M  V30 50356 H 4538.77 6.24592 1.62957 0
M  V30 50357 H 4539.54 8.14635 0.794436 0
M  V30 50358 N 4542.2 -0.697058 1.41347 0
M  V30 50359 C 4543.45 -1.45274 1.39923 0
M  V30 50360 C 4543.76 -1.95597 0.0110312 0
M  V30 50361 O 4544.97 -2.71208 -0.125823 0
M  V30 50362 C 4543.43 -2.62686 2.46016 0
M  V30 50363 C 4543.03 -2.19155 3.90736 0
M  V30 50364 C 4544.78 -3.40327 2.53727 0
M  V30 50365 C 4542.68 -3.33518 4.88385 0
M  V30 50366 H 4541.61 -0.545674 0.520342 0
M  V30 50367 H 4544.27 -0.756871 1.67164 0
M  V30 50368 H 4542.65 -3.34533 2.11904 0
M  V30 50369 H 4543.82 -1.54607 4.34089 0
M  V30 50370 H 4542.14 -1.54512 3.86672 0
M  V30 50371 H 4544.73 -4.25459 3.23865 0
M  V30 50372 H 4545.08 -3.85412 1.57363 0
M  V30 50373 H 4545.61 -2.75536 2.86923 0
M  V30 50374 H 4542.35 -2.93447 5.86148 0
M  V30 50375 H 4541.87 -3.9692 4.49682 0
M  V30 50376 H 4543.55 -3.99317 5.09073 0
M  V30 50377 N 4543.68 -1.2715 -0.931165 0
M  V30 50378 C 4544.63 -1.09405 -2.05264 0
M  V30 50379 C 4545.62 -0.0181187 -1.6939 0
M  V30 50380 O 4546.83 -0.175573 -1.79142 0
M  V30 50381 H 4543.2 -0.33701 -0.672256 0
M  V30 50382 H 4545.17 -2.04424 -2.17378 0
M  V30 50383 C 4543.92 -0.754359 -3.39418 0
M  V30 50384 H 4543.25 -1.57417 -3.67505 0
M  V30 50385 H 4544.69 -0.67005 -4.18672 0
M  V30 50386 C 4543.14 0.54108 -3.32527 0
M  V30 50387 O 4543.67 1.57651 -3.69471 0
M  V30 50388 N 4541.88 0.535417 -2.85625 0
M  V30 50389 H 4541.43 -0.307601 -2.55757 0
M  V30 50390 H 4541.39 1.40226 -2.81397 0
M  V30 50391 N 4545.16 1.13717 -1.09116 0
M  V30 50392 C 4546.11 2.1708 -0.697167 0
M  V30 50393 C 4547.09 1.58322 0.286868 0
M  V30 50394 O 4548.28 1.7673 0.0977386 0
M  V30 50395 C 4545.41 3.43104 -0.11585 0
M  V30 50396 C 4544.5 4.08876 -1.12611 0
M  V30 50397 N 4544.89 4.49862 -2.3121 0
M  V30 50398 C 4543.19 4.35468 -0.963519 0
M  V30 50399 C 4543.89 5.01084 -2.95449 0
M  V30 50400 N 4542.86 4.95743 -2.23024 0
M  V30 50401 H 4546.67 2.46518 -1.60019 0
M  V30 50402 H 4544.18 1.30478 -0.966915 0
M  V30 50403 H 4546.18 4.16492 0.184408 0
M  V30 50404 H 4544.84 3.15141 0.782059 0
M  V30 50405 H 4545.85 4.42668 -2.68822 0
M  V30 50406 H 4542.53 4.17327 -0.120024 0
M  V30 50407 H 4543.92 5.42616 -3.96255 0
M  V30 50408 N 4546.64 0.877884 1.30885 0
M  V30 50409 C 4547.55 0.343177 2.32076 0
M  V30 50410 C 4548.56 -0.550964 1.65047 0
M  V30 50411 O 4549.74 -0.445785 1.96404 0
M  V30 50412 C 4546.8 -0.439784 3.43899 0
M  V30 50413 C 4545.86 0.483261 4.26571 0
M  V30 50414 C 4545.1 -0.262428 5.33054 0
M  V30 50415 O 4545.32 -1.48948 5.50609 0
M  V30 50416 O 4544.25 0.383804 6.00675 0
M  V30 50417 H 4548.08 1.18213 2.79749 0
M  V30 50418 H 4545.66 0.641497 1.34927 0
M  V30 50419 H 4547.55 -0.883359 4.12037 0
M  V30 50420 H 4546.22 -1.25515 2.98375 0
M  V30 50421 H 4545.13 0.975501 3.61158 0
M  V30 50422 H 4546.46 1.26444 4.75681 0
M  V30 50423 N 4548.11 -1.44104 0.638116 0
M  V30 50424 C 4549.34 -2.06336 0.152688 0
M  V30 50425 C 4549.76 -1.47735 -1.17558 0
M  V30 50426 O 4549.11 -0.602866 -1.72255 0
M  V30 50427 C 4549.16 -3.61479 0.0392761 0
M  V30 50428 O 4548.89 -4.17898 1.31502 0
M  V30 50429 C 4550.39 -4.40758 -0.474022 0
M  V30 50430 H 4547.61 -0.665859 0.082901 0
M  V30 50431 H 4550.15 -1.84859 0.874495 0
M  V30 50432 H 4548.31 -3.82193 -0.633008 0
M  V30 50433 H 4548.72 -5.11412 1.16439 0
M  V30 50434 H 4550.19 -5.49709 -0.502369 0
M  V30 50435 H 4550.67 -4.12703 -1.50244 0
M  V30 50436 H 4551.28 -4.24979 0.165251 0
M  V30 50437 N 4549.59 -0.37909 -1.52973 0
M  V30 50438 C 4550.52 0.495884 -2.23771 0
M  V30 50439 C 4551.54 1.03513 -1.25654 0
M  V30 50440 O 4552.73 0.939196 -1.51794 0
M  V30 50441 C 4549.83 1.69884 -2.93245 0
M  V30 50442 C 4549 1.28876 -4.17983 0
M  V30 50443 C 4548.06 2.35527 -4.70546 0
M  V30 50444 O 4547.08 1.97357 -5.3389 0
M  V30 50445 N 4548.29 3.67302 -4.49521 0
M  V30 50446 H 4551.05 -0.110628 -2.99496 0
M  V30 50447 H 4548.61 -0.204934 -1.60598 0
M  V30 50448 H 4550.6 2.40736 -3.25313 0
M  V30 50449 H 4549.17 2.21192 -2.20891 0
M  V30 50450 H 4548.39 0.409538 -3.92067 0
M  V30 50451 H 4549.68 0.991268 -4.9905 0
M  V30 50452 H 4549.08 4.01081 -3.98937 0
M  V30 50453 H 4547.64 4.34218 -4.86105 0
M  V30 50454 N 4551.07 1.57225 -0.108623 0
M  V30 50455 C 4552.3 1.99181 0.559884 0
M  V30 50456 C 4552.71 0.988079 1.6088 0
M  V30 50457 O 4552.07 -0.0204871 1.82489 0
M  V30 50458 C 4552.12 3.41163 1.1954 0
M  V30 50459 O 4551.84 4.37695 0.188423 0
M  V30 50460 C 4553.34 3.98195 1.94823 0
M  V30 50461 H 4550.56 0.654233 0.149065 0
M  V30 50462 H 4553.11 2.03598 -0.191902 0
M  V30 50463 H 4551.26 3.37718 1.89803 0
M  V30 50464 H 4551.68 5.20471 0.648831 0
M  V30 50465 H 4553.15 4.99653 2.3463 0
M  V30 50466 H 4553.63 3.3676 2.81939 0
M  V30 50467 H 4554.23 4.05154 1.29345 0
M  V30 50468 N 4552.55 -0.165123 1.56733 0
M  V30 50469 C 4553.78 -0.896153 1.86485 0
M  V30 50470 C 4554.19 -1.75553 0.694737 0
M  V30 50471 O 4553.55 -1.7938 -0.336007 0
M  V30 50472 C 4553.6 -1.76781 3.15327 0
M  V30 50473 O 4553.32 -0.943088 4.27829 0
M  V30 50474 C 4554.82 -2.60797 3.58468 0
M  V30 50475 H 4552.04 -0.260042 0.618562 0
M  V30 50476 H 4554.58 -0.163356 2.03847 0
M  V30 50477 H 4552.74 -2.45387 2.99773 0
M  V30 50478 H 4553.15 -1.53981 5.01388 0
M  V30 50479 H 4554.63 -3.17563 4.51506 0
M  V30 50480 H 4555.1 -3.35967 2.82883 0
M  V30 50481 H 4555.71 -1.97513 3.76655 0
M  V30 50482 N 4554.03 -1.5151 -0.433885 0
M  V30 50483 C 4555.27 -1.6601 -1.19247 0
M  V30 50484 C 4555.63 -0.369934 -1.88402 0
M  V30 50485 O 4556.83 -0.390754 -2.65945 0
M  V30 50486 C 4555.1 -2.83237 -2.17971 0
M  V30 50487 S 4556.66 -3.18085 -3.0227 0
M  V30 50488 H 4553.48 -0.584836 -0.404337 0
M  V30 50489 H 4556.08 -1.89427 -0.483504 0
M  V30 50490 H 4554.79 -3.75413 -1.65811 0
M  V30 50491 H 4554.32 -2.6202 -2.93444 0
M  V30 50492 H 4556.33 -2.64787 -4.19645 0
M  V30 50493 N 4555.5 0.689552 -1.41714 0
M  V30 50494 C 4556.75 1.45036 -1.42604 0
M  V30 50495 C 4557.11 1.92365 -0.036444 0
M  V30 50496 O 4556.4 1.67025 0.938785 0
M  V30 50497 C 4556.59 2.6729 -2.37257 0
M  V30 50498 C 4556.42 2.31921 -3.85282 0
M  V30 50499 C 4555.19 2.21994 -4.53924 0
M  V30 50500 C 4557.39 1.94509 -4.76099 0
M  V30 50501 N 4555.37 1.79574 -5.87049 0
M  V30 50502 C 4556.74 1.62894 -5.98219 0
M  V30 50503 C 4558.8 1.81372 -4.6369 0
M  V30 50504 C 4557.5 1.19462 -7.09311 0
M  V30 50505 C 4559.53 1.39344 -5.7475 0
M  V30 50506 C 4558.89 1.08643 -6.95971 0
M  V30 50507 H 4554.99 0.527786 -0.577032 0
M  V30 50508 H 4557.57 0.797203 -1.77631 0
M  V30 50509 H 4555.74 3.30317 -2.04316 0
M  V30 50510 H 4557.47 3.33798 -2.28826 0
M  V30 50511 H 4554.23 2.40586 -4.07941 0
M  V30 50512 H 4554.65 1.60828 -6.57619 0
M  V30 50513 H 4559.3 2.03759 -3.70462 0
M  V30 50514 H 4557.01 0.958195 -8.02399 0
M  V30 50515 H 4560.6 1.2972 -5.67154 0
M  V30 50516 H 4559.48 0.766142 -7.80449 0
M  V30 50517 N 4556.98 1.27642 0.924409 0
M  V30 50518 C 4558.26 1.04892 1.65097 0
M  V30 50519 C 4558.64 -0.415254 2.06975 0
M  V30 50520 O 4557.99 -1.39917 1.80653 0
M  V30 50521 C 4558.2 2.01358 2.85054 0
M  V30 50522 C 4559.55 2.30912 3.56321 0
M  V30 50523 O 4560.57 1.99358 2.95186 0
M  V30 50524 O 4559.43 2.84716 4.66475 0
M  V30 50525 H 4556.52 0.400108 0.72377 0
M  V30 50526 H 4559.07 1.38919 0.974654 0
M  V30 50527 H 4557.84 3.00089 2.51123 0
M  V30 50528 H 4557.46 1.67913 3.60404 0
M  V30 50529 N 4558.46 -1.13137 1.09717 0
M  V30 50530 C 4559.41 -2.16707 0.70867 0
M  V30 50531 C 4560.39 -1.58472 -0.278467 0
M  V30 50532 O 4561.59 -1.76779 -0.0883648 0
M  V30 50533 C 4558.72 -3.43038 0.134044 0
M  V30 50534 C 4557.8 -4.08273 1.14778 0
M  V30 50535 N 4558.19 -4.48629 2.33593 0
M  V30 50536 C 4556.49 -4.34951 0.986599 0
M  V30 50537 C 4557.19 -4.9951 2.98102 0
M  V30 50538 N 4556.17 -4.94553 2.2565 0
M  V30 50539 H 4559.97 -2.45666 1.61324 0
M  V30 50540 H 4557.48 -1.29963 0.973821 0
M  V30 50541 H 4559.48 -4.16584 -0.162318 0
M  V30 50542 H 4558.14 -3.15551 -0.765336 0
M  V30 50543 H 4559.15 -4.41236 2.71166 0
M  V30 50544 H 4555.83 -4.17258 0.142155 0
M  V30 50545 H 4557.22 -5.40507 3.99127 0
M  V30 50546 N 4559.94 -0.884812 -1.30418 0
M  V30 50547 C 4561.35 -0.553719 -1.783 0
M  V30 50548 C 4561.7 0.930092 -1.72753 0
M  V30 50549 O 4560.83 1.72677 -1.30429 0
M  V30 50550 C 4561.42 -0.998348 -3.23757 0
M  V30 50551 C 4559.98 -0.71867 -3.69475 0
M  V30 50552 C 4559.13 -1.18141 -2.50874 0
M  V30 50553 H 4562.08 -1.06905 -1.1729 0
M  V30 50554 H 4562.1 -0.327251 -3.7909 0
M  V30 50555 H 4561.61 -2.07832 -3.27762 0
M  V30 50556 H 4559.71 0.349313 -3.70959 0
M  V30 50557 H 4559.82 -1.30611 -4.60953 0
M  V30 50558 H 4558.19 -0.600756 -2.47514 0
M  V30 50559 H 4558.97 -2.26911 -2.57616 0
M  V30 50560 N 4561.42 1.43763 -0.645749 0
M  V30 50561 C 4562.36 2.30745 0.0503837 0
M  V30 50562 C 4563.33 1.44323 0.822191 0
M  V30 50563 O 4564.52 1.73205 0.800297 0
M  V30 50564 C 4561.66 3.29806 1.01599 0
M  V30 50565 C 4560.77 4.31327 0.241068 0
M  V30 50566 C 4559.91 5.17473 1.1998 0
M  V30 50567 C 4558.95 6.10692 0.41488 0
M  V30 50568 N 4558.08 6.89487 1.32482 0
M  V30 50569 H 4562.92 2.89728 -0.697257 0
M  V30 50570 H 4560.46 1.42737 -0.355613 0
M  V30 50571 H 4562.42 3.8574 1.58935 0
M  V30 50572 H 4561.05 2.72489 1.73059 0
M  V30 50573 H 4560.1 3.77747 -0.448467 0
M  V30 50574 H 4561.41 4.97429 -0.369612 0
M  V30 50575 H 4560.57 5.77997 1.84404 0
M  V30 50576 H 4559.3 4.51479 1.84439 0
M  V30 50577 H 4558.31 5.49264 -0.242758 0
M  V30 50578 H 4559.53 6.78726 -0.225204 0
M  V30 50579 H 4557.48 6.26149 1.95635 0
M  V30 50580 H 4557.4 7.52084 0.768518 0
M  V30 50581 H 4558.67 7.54523 1.95744 0
M  V30 50582 N 4562.89 0.387197 1.5277 0
M  V30 50583 C 4563.83 -0.493045 2.2281 0
M  V30 50584 C 4564.81 -1.06576 1.22802 0
M  V30 50585 O 4565.99 -1.1178 1.51781 0
M  V30 50586 C 4563.12 -1.68227 2.93968 0
M  V30 50587 C 4562.16 -1.23501 4.08228 0
M  V30 50588 S 4563 -0.218292 5.35055 0
M  V30 50589 C 4564.15 -1.41335 6.09734 0
M  V30 50590 H 4564.38 0.10173 2.97126 0
M  V30 50591 H 4561.92 0.171377 1.53446 0
M  V30 50592 H 4563.88 -2.36431 3.35575 0
M  V30 50593 H 4562.54 -2.24834 2.19336 0
M  V30 50594 H 4561.73 -2.12288 4.5711 0
M  V30 50595 H 4561.33 -0.631914 3.68623 0
M  V30 50596 H 4563.62 -2.34079 6.35778 0
M  V30 50597 H 4564.57 -0.96549 7.01487 0
M  V30 50598 H 4564.97 -1.62921 5.40479 0
M  V30 50599 N 4564.37 -1.57165 0.116959 0
M  V30 50600 C 4565.6 -1.99475 -0.549313 0
M  V30 50601 C 4566.02 -0.996597 -1.60354 0
M  V30 50602 O 4565.37 0.010809 -1.82497 0
M  V30 50603 C 4565.42 -3.41792 -1.17729 0
M  V30 50604 O 4565.14 -4.37788 -0.165208 0
M  V30 50605 C 4566.65 -3.99222 -1.92708 0
M  V30 50606 H 4563.87 -0.655014 -0.145593 0
M  V30 50607 H 4566.41 -2.03493 0.202696 0
M  V30 50608 H 4564.56 -3.3872 -1.8801 0
M  V30 50609 H 4564.98 -5.20808 -0.62122 0
M  V30 50610 H 4566.45 -5.0089 -2.31977 0
M  V30 50611 H 4566.93 -3.3825 -2.80149 0
M  V30 50612 H 4567.54 -4.05834 -1.27195 0
M  V30 50613 N 4565.85 0.156809 -1.56818 0
M  V30 50614 C 4566.76 1.21353 -2.00775 0
M  V30 50615 C 4567.78 1.47595 -0.921511 0
M  V30 50616 O 4568.95 1.59458 -1.23025 0
M  V30 50617 C 4566.02 2.52935 -2.37118 0
M  V30 50618 C 4565.08 2.34427 -3.59642 0
M  V30 50619 C 4564.31 3.59735 -3.94242 0
M  V30 50620 O 4564.53 4.65514 -3.29625 0
M  V30 50621 O 4563.47 3.52981 -4.87532 0
M  V30 50622 H 4567.29 0.870365 -2.90961 0
M  V30 50623 H 4564.88 0.364789 -1.44878 0
M  V30 50624 H 4566.76 3.30529 -2.61397 0
M  V30 50625 H 4565.44 2.86801 -1.5009 0
M  V30 50626 H 4564.34 1.54816 -3.40563 0
M  V30 50627 H 4565.68 2.0548 -4.47257 0
M  V30 50628 N 4567.33 1.51738 0.425844 0
M  V30 50629 C 4568.26 1.76833 1.52487 0
M  V30 50630 C 4569.24 0.618579 1.58454 0
M  V30 50631 O 4570.42 0.862478 1.73997 0
M  V30 50632 C 4567.55 1.90384 2.90467 0
M  V30 50633 C 4566.51 3.0589 2.99358 0
M  V30 50634 C 4565.83 3.0464 4.3943 0
M  V30 50635 C 4567.13 4.45654 2.72379 0
M  V30 50636 H 4568.83 2.6886 1.31738 0
M  V30 50637 H 4566.37 1.29374 0.632317 0
M  V30 50638 H 4568.33 2.06523 3.67323 0
M  V30 50639 H 4567.05 0.95015 3.12474 0
M  V30 50640 H 4565.71 2.89475 2.24944 0
M  V30 50641 H 4565.36 2.07026 4.5842 0
M  V30 50642 H 4565.06 3.8221 4.46306 0
M  V30 50643 H 4566.58 3.22887 5.18243 0
M  V30 50644 H 4568 4.6236 3.38963 0
M  V30 50645 H 4566.39 5.25016 2.90651 0
M  V30 50646 H 4567.46 4.54899 1.67913 0
M  V30 50647 N 4568.81 -0.682027 1.42078 0
M  V30 50648 C 4570.04 -1.46839 1.45334 0
M  V30 50649 C 4570.45 -1.89102 0.0609993 0
M  V30 50650 O 4569.79 -1.58241 -0.933026 0
M  V30 50651 C 4569.85 -2.75367 2.31114 0
M  V30 50652 C 4569.51 -2.55225 3.7909 0
M  V30 50653 C 4570.51 -2.20293 4.70921 0
M  V30 50654 C 4568.2 -2.70444 4.23279 0
M  V30 50655 C 4570.19 -2.00838 6.04932 0
M  V30 50656 C 4567.88 -2.50605 5.57351 0
M  V30 50657 C 4568.88 -2.15854 6.47994 0
M  V30 50658 O 4568.56 -1.962 7.7959 0
M  V30 50659 H 4568.3 -0.458582 0.496667 0
M  V30 50660 H 4570.85 -0.846065 1.87165 0
M  V30 50661 H 4569.08 -3.40055 1.84119 0
M  V30 50662 H 4570.77 -3.37223 2.2591 0
M  V30 50663 H 4571.53 -2.08137 4.38068 0
M  V30 50664 H 4567.41 -2.96473 3.53022 0
M  V30 50665 H 4570.96 -1.73637 6.75645 0
M  V30 50666 H 4566.85 -2.62355 5.8978 0
M  V30 50667 H 4567.62 -2.10856 7.90874 0
M  V30 50668 N 4570.29 -1.2813 -0.917626 0
M  V30 50669 C 4571.22 -1.07524 -2.02414 0
M  V30 50670 C 4572.23 -0.0281671 -1.62776 0
M  V30 50671 O 4573.42 -0.27081 -1.76434 0
M  V30 50672 C 4570.52 -0.611074 -3.33345 0
M  V30 50673 C 4569.69 -1.73269 -4.01617 0
M  V30 50674 C 4568.75 -1.26256 -5.10829 0
M  V30 50675 O 4567.78 -1.96408 -5.3424 0
M  V30 50676 N 4568.98 -0.123652 -5.80368 0
M  V30 50677 H 4571.74 -2.02814 -2.2065 0
M  V30 50678 H 4569.31 -1.19831 -1.08867 0
M  V30 50679 H 4571.3 -0.280243 -4.03729 0
M  V30 50680 H 4569.87 0.248871 -3.11608 0
M  V30 50681 H 4569.09 -2.23331 -3.24834 0
M  V30 50682 H 4570.38 -2.48519 -4.43977 0
M  V30 50683 H 4569.77 0.461649 -5.63813 0
M  V30 50684 H 4568.33 0.147929 -6.51632 0
M  V30 50685 N 4571.76 1.12553 -1.10316 0
M  V30 50686 C 4572.99 1.88402 -0.867151 0
M  V30 50687 C 4573.41 1.7904 0.576754 0
M  V30 50688 O 4572.77 1.14444 1.40614 0
M  V30 50689 C 4572.82 3.35626 -1.31863 0
M  V30 50690 O 4571.92 4.09563 -0.482878 0
M  V30 50691 H 4571.26 0.585444 -0.313291 0
M  V30 50692 H 4573.79 1.42347 -1.46965 0
M  V30 50693 H 4573.8 3.86464 -1.30803 0
M  V30 50694 H 4572.48 3.41757 -2.37013 0
M  V30 50695 H 4571.06 3.68693 -0.558578 0
M  V30 50696 N 4573.24 0.891716 1.29947 0
M  V30 50697 C 4574.17 0.379878 2.30389 0
M  V30 50698 C 4575.15 -0.540862 1.61272 0
M  V30 50699 O 4576.34 -0.453285 1.88836 0
M  V30 50700 C 4573.47 -0.400533 3.44983 0
M  V30 50701 C 4572.42 0.429055 4.25844 0
M  V30 50702 C 4571.75 -0.47837 5.32556 0
M  V30 50703 C 4573.05 1.67475 4.94721 0
M  V30 50704 H 4574.74 1.21924 2.7345 0
M  V30 50705 H 4572.29 0.587721 1.3146 0
M  V30 50706 H 4574.24 -0.769288 4.14319 0
M  V30 50707 H 4572.96 -1.2736 3.00744 0
M  V30 50708 H 4571.62 0.780037 3.58205 0
M  V30 50709 H 4571.27 -1.34934 4.84564 0
M  V30 50710 H 4570.97 0.0729498 5.87555 0
M  V30 50711 H 4572.5 -0.843493 6.04746 0
M  V30 50712 H 4573.91 1.37619 5.56537 0
M  V30 50713 H 4572.31 2.16678 5.59616 0
M  V30 50714 H 4573.38 2.41532 4.20464 0
M  V30 50715 N 4574.72 -1.43419 0.653364 0
M  V30 50716 C 4575.68 -2.29182 -0.0287145 0
M  V30 50717 C 4576.68 -1.42216 -0.750415 0
M  V30 50718 O 4577.87 -1.63845 -0.591644 0
M  V30 50719 C 4575 -3.24282 -1.05139 0
M  V30 50720 H 4576.2 -2.90983 0.725889 0
M  V30 50721 H 4573.75 -1.50701 0.414598 0
M  V30 50722 H 4574.49 -2.67376 -1.83522 0
M  V30 50723 H 4574.27 -3.88398 -0.537551 0
M  V30 50724 H 4575.76 -3.88652 -1.52772 0
M  V30 50725 N 4576.2 -0.395293 -1.52562 0
M  V30 50726 C 4577.47 0.242839 -1.94087 0
M  V30 50727 C 4577.85 1.63837 -1.33119 0
M  V30 50728 O 4577.2 2.22926 -0.501607 0
M  V30 50729 C 4577.41 0.263148 -3.48007 0
M  V30 50730 C 4578.76 0.489206 -4.21772 0
M  V30 50731 O 4579.78 0.343101 -3.54544 0
M  V30 50732 O 4578.64 0.775979 -5.40963 0
M  V30 50733 H 4575.74 0.152508 -0.812816 0
M  V30 50734 H 4578.28 -0.450235 -1.63618 0
M  V30 50735 H 4577.06 -0.71412 -3.84729 0
M  V30 50736 H 4576.68 1.0009 -3.84796 0
M  V30 50737 N 4577.68 1.57101 -0.125292 0
M  V30 50738 C 4578.61 2.18662 0.819097 0
M  V30 50739 C 4579.59 1.12848 1.27277 0
M  V30 50740 O 4580.77 1.41108 1.33424 0
M  V30 50741 C 4577.9 2.79103 2.06685 0
M  V30 50742 C 4576.86 3.90555 1.75075 0
M  V30 50743 C 4576.18 4.37832 3.06932 0
M  V30 50744 C 4577.48 5.12359 1.01417 0
M  V30 50745 H 4579.18 2.97831 0.306097 0
M  V30 50746 H 4576.72 1.4326 0.145789 0
M  V30 50747 H 4578.67 3.2083 2.73215 0
M  V30 50748 H 4577.4 1.97233 2.60321 0
M  V30 50749 H 4576.06 3.49413 1.10932 0
M  V30 50750 H 4575.71 3.52812 3.58515 0
M  V30 50751 H 4575.41 5.12992 2.86553 0
M  V30 50752 H 4576.93 4.82214 3.7457 0
M  V30 50753 H 4578.34 5.51066 1.58113 0
M  V30 50754 H 4576.74 5.93143 0.91111 0
M  V30 50755 H 4577.81 4.849 0.00201634 0
M  V30 50756 N 4579.15 -0.14849 1.56899 0
M  V30 50757 C 4580.1 -1.20258 1.991 0
M  V30 50758 C 4581.1 -1.44556 0.883174 0
M  V30 50759 O 4582.3 -1.44866 1.06835 0
M  V30 50760 H 4578.68 -0.404764 0.633774 0
M  V30 50761 H 4580.65 -0.81994 2.86914 0
M  V30 50762 C 4579.4 -2.52877 2.38638 0
M  V30 50763 H 4578.72 -2.3501 3.23435 0
M  V30 50764 H 4580.16 -3.25264 2.71991 0
M  V30 50765 C 4578.62 -3.1331 1.23848 0
M  V30 50766 O 4579.15 -3.98075 0.538408 0
M  V30 50767 N 4577.35 -2.72738 1.00311 0
M  V30 50768 H 4576.9 -2.03906 1.57417 0
M  V30 50769 H 4576.86 -3.13506 0.236949 0
M  V30 50770 N 4580.63 -1.51961 -0.417791 0
M  V30 50771 C 4581.58 -1.75283 -1.52901 0
M  V30 50772 C 4582.57 -0.619667 -1.57659 0
M  V30 50773 O 4583.78 -0.801514 -1.6117 0
M  V30 50774 H 4580.15 -0.554159 -0.508342 0
M  V30 50775 H 4582.13 -2.68394 -1.30412 0
M  V30 50776 C 4580.87 -1.91272 -2.90362 0
M  V30 50777 H 4580.2 -2.77882 -2.8744 0
M  V30 50778 H 4581.64 -2.11594 -3.67429 0
M  V30 50779 C 4580.1 -0.677547 -3.30017 0
M  V30 50780 O 4580.63 0.158658 -4.01387 0
M  V30 50781 N 4578.83 -0.515951 -2.85983 0
M  V30 50782 H 4578.38 -1.19752 -2.28073 0
M  V30 50783 H 4578.34 0.309205 -3.12876 0
M  V30 50784 N 4582.11 0.674483 -1.42438 0
M  V30 50785 C 4583.36 1.43666 -1.43136 0
M  V30 50786 C 4583.69 1.94141 -0.0476703 0
M  V30 50787 O 4582.96 1.70927 0.928128 0
M  V30 50788 C 4583.25 2.63346 -2.45603 0
M  V30 50789 C 4583.1 2.18501 -3.93164 0
M  V30 50790 C 4584.42 3.65562 -2.45055 0
M  V30 50791 H 4581.54 0.521059 -0.521217 0
M  V30 50792 H 4584.18 0.76649 -1.73853 0
M  V30 50793 H 4582.33 3.20522 -2.1954 0
M  V30 50794 H 4584 1.66489 -4.30208 0
M  V30 50795 H 4582.24 1.50071 -4.07015 0
M  V30 50796 H 4582.92 3.04467 -4.60439 0
M  V30 50797 H 4585.39 3.18103 -2.68234 0
M  V30 50798 H 4584.27 4.46882 -3.18729 0
M  V30 50799 H 4584.53 4.16711 -1.47664 0
M  V30 50800 N 4583.59 1.28615 0.910818 0
M  V30 50801 C 4585 1.06386 1.18972 0
M  V30 50802 C 4585.2 -0.191928 2.00584 0
M  V30 50803 O 4584.26 -0.892786 2.3619 0
M  V30 50804 C 4585.57 2.31302 1.92146 0
M  V30 50805 C 4587.12 2.3651 2.05017 0
M  V30 50806 C 4587.6 3.612 2.81599 0
M  V30 50807 N 4589.09 3.61858 2.8916 0
M  V30 50808 C 4589.82 4.55016 3.48924 0
M  V30 50809 N 4589.32 5.58496 4.09943 0
M  V30 50810 N 4591.11 4.42607 3.46491 0
M  V30 50811 H 4583.26 2.09222 0.36602 0
M  V30 50812 H 4585.53 0.921011 0.224597 0
M  V30 50813 H 4585.23 3.22805 1.39607 0
M  V30 50814 H 4585.11 2.37944 2.92681 0
M  V30 50815 H 4587.49 1.45503 2.56735 0
M  V30 50816 H 4587.57 2.3386 1.03649 0
M  V30 50817 H 4587.22 4.52553 2.3056 0
M  V30 50818 H 4587.15 3.61105 3.83289 0
M  V30 50819 H 4589.64 2.8703 2.45809 0
M  V30 50820 H 4589.95 6.2572 4.53535 0
M  V30 50821 H 4588.3 5.62319 4.08439 0
M  V30 50822 H 4591.49 3.60963 2.98032 0
M  V30 50823 H 4591.66 5.15395 3.92775 0
M  V30 50824 N 4585.07 -1.11967 1.10911 0
M  V30 50825 C 4586.31 -1.83585 0.854572 0
M  V30 50826 C 4586.64 -1.84359 -0.619835 0
M  V30 50827 O 4585.9 -1.28815 -1.47327 0
M  V30 50828 C 4586.2 -3.30744 1.35437 0
M  V30 50829 C 4585.86 -3.50136 2.84105 0
M  V30 50830 C 4584.52 -3.55136 3.24703 0
M  V30 50831 C 4586.88 -3.56844 3.79884 0
M  V30 50832 C 4584.2 -3.64394 4.59819 0
M  V30 50833 C 4586.56 -3.67632 5.1481 0
M  V30 50834 C 4585.22 -3.70891 5.54974 0
M  V30 50835 H 4584.49 -0.671784 0.31271 0
M  V30 50836 H 4587.14 -1.32086 1.38656 0
M  V30 50837 H 4585.44 -3.847 0.742497 0
M  V30 50838 H 4587.14 -3.84636 1.13384 0
M  V30 50839 H 4583.73 -3.4691 2.51697 0
M  V30 50840 H 4587.91 -3.52246 3.49624 0
M  V30 50841 H 4583.17 -3.65191 4.90352 0
M  V30 50842 H 4587.34 -3.71766 5.88866 0
M  V30 50843 H 4584.97 -3.77817 6.59665 0
M  V30 50844 N 4586.54 -0.898595 -1.29472 0
M  V30 50845 C 4587.77 -0.538632 -2.00284 0
M  V30 50846 C 4588.19 0.869076 -1.66819 0
M  V30 50847 O 4587.55 1.57827 -0.8922 0
M  V30 50848 C 4587.6 -0.7366 -3.52997 0
M  V30 50849 O 4586.7 0.211392 -4.11858 0
M  V30 50850 H 4586.05 -0.210585 -0.629722 0
M  V30 50851 H 4588.58 -1.20988 -1.64994 0
M  V30 50852 H 4588.59 -0.640827 -4.02936 0
M  V30 50853 H 4587.26 -1.76289 -3.76689 0
M  V30 50854 H 4585.84 0.0681681 -3.72838 0
M  V30 50855 N 4588.02 1.4307 -0.660961 0
M  V30 50856 C 4588.99 2.29194 0.01656 0
M  V30 50857 C 4589.99 1.42612 0.742862 0
M  V30 50858 O 4591.18 1.64157 0.582946 0
M  V30 50859 C 4588.31 3.24835 1.03418 0
M  V30 50860 H 4589.5 2.90594 -0.74131 0
M  V30 50861 H 4587.05 1.50479 -0.422584 0
M  V30 50862 H 4587.79 2.68346 1.82102 0
M  V30 50863 H 4587.57 3.88677 0.516946 0
M  V30 50864 H 4589.06 3.89457 1.50709 0
M  V30 50865 N 4589.5 0.403378 1.5235 0
M  V30 50866 C 4590.73 -0.173688 2.05869 0
M  V30 50867 C 4591.14 -1.39893 1.27383 0
M  V30 50868 O 4590.48 -1.80938 0.317353 0
M  V30 50869 C 4590.54 -0.594632 3.54548 0
M  V30 50870 C 4590.21 0.519085 4.54042 0
M  V30 50871 C 4591.2 1.38088 5.01226 0
M  V30 50872 C 4588.89 0.690136 4.97536 0
M  V30 50873 C 4590.88 2.39872 5.90542 0
M  V30 50874 C 4588.57 1.7113 5.8665 0
M  V30 50875 C 4589.57 2.564 6.33047 0
M  V30 50876 O 4589.26 3.56768 7.20397 0
M  V30 50877 H 4588.99 -0.0264714 0.675482 0
M  V30 50878 H 4591.54 0.571248 1.97297 0
M  V30 50879 H 4589.77 -1.39176 3.60786 0
M  V30 50880 H 4591.46 -1.09896 3.9074 0
M  V30 50881 H 4592.23 1.26011 4.68344 0
M  V30 50882 H 4588.11 0.0361011 4.60986 0
M  V30 50883 H 4591.65 3.06463 6.26679 0
M  V30 50884 H 4587.55 1.8324 6.18945 0
M  V30 50885 H 4588.32 3.52944 7.38494 0
M  V30 50886 N 4590.98 -1.57033 0.133622 0
M  V30 50887 C 4592.39 -1.58036 -0.222889 0
M  V30 50888 C 4592.59 -1.14719 -1.65656 0
M  V30 50889 O 4591.65 -0.841302 -2.38072 0
M  V30 50890 C 4592.96 -3.00691 0.0237173 0
M  V30 50891 C 4594.51 -3.12973 -0.0410411 0
M  V30 50892 C 4594.99 -4.57654 0.17806 0
M  V30 50893 N 4596.48 -4.63033 0.124528 0
M  V30 50894 C 4597.21 -5.7277 0.268754 0
M  V30 50895 N 4596.71 -6.91204 0.469963 0
M  V30 50896 N 4598.5 -5.61718 0.207297 0
M  V30 50897 H 4590.65 -1.83487 1.06988 0
M  V30 50898 H 4592.92 -0.848662 0.422465 0
M  V30 50899 H 4592.62 -3.36723 1.01542 0
M  V30 50900 H 4592.5 -3.70616 -0.701677 0
M  V30 50901 H 4594.88 -2.7679 -1.02328 0
M  V30 50902 H 4594.96 -2.45561 0.716469 0
M  V30 50903 H 4594.61 -4.94538 1.15734 0
M  V30 50904 H 4594.54 -5.23175 -0.599613 0
M  V30 50905 H 4597.03 -3.7789 -0.0268781 0
M  V30 50906 H 4597.34 -7.70691 0.570483 0
M  V30 50907 H 4595.69 -6.93155 0.506119 0
M  V30 50908 H 4598.88 -4.68072 0.0509631 0
M  V30 50909 H 4599.05 -6.47194 0.323137 0
M  V30 50910 N 4592.46 0.140167 -1.56975 0
M  V30 50911 C 4593.68 0.866371 -1.87887 0
M  V30 50912 C 4594.1 1.74425 -0.722578 0
M  V30 50913 O 4593.46 1.79892 0.307426 0
M  V30 50914 C 4593.51 1.71742 -3.18099 0
M  V30 50915 O 4593.23 0.874905 -4.29275 0
M  V30 50916 C 4594.73 2.55061 -3.62572 0
M  V30 50917 H 4591.95 0.250168 -0.622621 0
M  V30 50918 H 4594.49 0.130905 -2.04081 0
M  V30 50919 H 4592.65 2.40587 -3.03639 0
M  V30 50920 H 4593.06 1.45985 -5.03774 0
M  V30 50921 H 4594.54 3.1034 -4.56501 0
M  V30 50922 H 4595.01 3.31424 -2.88193 0
M  V30 50923 H 4595.62 1.91495 -3.79749 0
M  V30 50924 N 4593.93 1.52181 0.409726 0
M  V30 50925 C 4594.9 1.74858 1.4818 0
M  V30 50926 C 4595.9 0.618469 1.4843 0
M  V30 50927 O 4597.09 0.886339 1.49966 0
M  V30 50928 C 4594.22 1.8304 2.87592 0
M  V30 50929 H 4595.41 2.70564 1.29365 0
M  V30 50930 H 4592.97 1.42588 0.640182 0
M  V30 50931 H 4593.7 0.89247 3.11778 0
M  V30 50932 H 4593.49 2.65197 2.88813 0
M  V30 50933 H 4594.98 2.02329 3.65312 0
M  V30 50934 N 4595.41 -0.666919 1.42793 0
M  V30 50935 C 4596.35 -1.79172 1.41325 0
M  V30 50936 C 4597.32 -1.60233 0.276457 0
M  V30 50937 O 4598.51 -1.826 0.467914 0
M  V30 50938 C 4595.63 -3.16285 1.21168 0
M  V30 50939 C 4594.68 -3.53956 2.37944 0
M  V30 50940 S 4595.51 -3.55487 4.00486 0
M  V30 50941 C 4596.67 -4.95279 3.82687 0
M  V30 50942 H 4596.9 -1.80145 2.36506 0
M  V30 50943 H 4594.44 -0.838312 1.2966 0
M  V30 50944 H 4596.39 -3.95424 1.10226 0
M  V30 50945 H 4595.05 -3.12889 0.275591 0
M  V30 50946 H 4594.25 -4.53638 2.1961 0
M  V30 50947 H 4593.85 -2.82196 2.45442 0
M  V30 50948 H 4596.14 -5.83572 3.44165 0
M  V30 50949 H 4597.08 -5.18662 4.82074 0
M  V30 50950 H 4597.49 -4.68168 3.15403 0
M  V30 50951 N 4596.89 -1.29096 -0.903985 0
M  V30 50952 C 4597.84 -1.1386 -2.0076 0
M  V30 50953 C 4598.81 -0.0330668 -1.66067 0
M  V30 50954 O 4599.99 -0.1998 -1.89751 0
M  V30 50955 C 4597.13 -0.816654 -3.35298 0
M  V30 50956 C 4596.25 -2.0022 -3.828 0
M  V30 50957 C 4595.38 -1.62001 -5.05894 0
M  V30 50958 C 4594.42 -2.77162 -5.45754 0
M  V30 50959 N 4593.56 -2.39369 -6.60036 0
M  V30 50960 H 4598.4 -2.08283 -2.13125 0
M  V30 50961 H 4595.93 -1.03652 -1.04378 0
M  V30 50962 H 4597.89 -0.610702 -4.12706 0
M  V30 50963 H 4596.52 0.0906656 -3.22673 0
M  V30 50964 H 4595.57 -2.31998 -3.01465 0
M  V30 50965 H 4596.89 -2.86526 -4.08294 0
M  V30 50966 H 4596.04 -1.37669 -5.90874 0
M  V30 50967 H 4594.78 -0.728371 -4.8223 0
M  V30 50968 H 4593.78 -3.02181 -4.59311 0
M  V30 50969 H 4595.01 -3.66984 -5.71402 0
M  V30 50970 H 4592.95 -1.52687 -6.37983 0
M  V30 50971 H 4592.87 -3.19209 -6.85304 0
M  V30 50972 H 4594.14 -2.18346 -7.48295 0
M  V30 50973 N 4598.37 1.11377 -1.11503 0
M  V30 50974 C 4599.3 2.19506 -0.796202 0
M  V30 50975 C 4600.28 1.68459 0.235737 0
M  V30 50976 O 4601.47 1.93947 0.0990662 0
M  V30 50977 C 4598.6 3.46474 -0.239327 0
M  V30 50978 C 4597.55 4.10739 -1.20321 0
M  V30 50979 C 4596.88 5.32291 -0.507017 0
M  V30 50980 C 4598.18 4.55588 -2.55415 0
M  V30 50981 H 4599.87 2.46433 -1.70032 0
M  V30 50982 H 4597.42 1.18443 -0.818976 0
M  V30 50983 H 4599.37 4.214 -0.00406821 0
M  V30 50984 H 4598.09 3.19008 0.700094 0
M  V30 50985 H 4596.75 3.37808 -1.42411 0
M  V30 50986 H 4596.4 5.01096 0.437232 0
M  V30 50987 H 4596.1 5.76239 -1.1499 0
M  V30 50988 H 4597.62 6.09955 -0.280566 0
M  V30 50989 H 4599.04 5.21833 -2.3741 0
M  V30 50990 H 4597.43 5.10352 -3.15691 0
M  V30 50991 H 4598.5 3.69002 -3.14588 0
M  V30 50992 N 4599.85 0.905449 1.28994 0
M  V30 50993 C 4601.26 0.602382 1.47796 0
M  V30 50994 C 4601.46 -0.854581 1.82481 0
M  V30 50995 O 4600.52 -1.63432 1.92474 0
M  V30 50996 C 4601.83 1.53315 2.58679 0
M  V30 50997 C 4603.38 1.53897 2.72552 0
M  V30 50998 C 4603.86 2.45616 3.86571 0
M  V30 50999 N 4605.35 2.43695 3.93912 0
M  V30 51000 C 4606.08 3.11364 4.81498 0
M  V30 51001 N 4605.58 3.88333 5.73733 0
M  V30 51002 N 4607.37 3.00493 4.75037 0
M  V30 51003 H 4599.52 1.84769 1.04758 0
M  V30 51004 H 4601.78 0.792043 0.520933 0
M  V30 51005 H 4601.49 2.57149 2.39932 0
M  V30 51006 H 4601.36 1.25799 3.55604 0
M  V30 51007 H 4603.75 0.508043 2.90694 0
M  V30 51008 H 4603.83 1.85453 1.76184 0
M  V30 51009 H 4603.48 3.48805 3.69185 0
M  V30 51010 H 4603.41 2.11366 4.82319 0
M  V30 51011 H 4605.9 1.87778 3.27945 0
M  V30 51012 H 4606.21 4.37007 6.37373 0
M  V30 51013 H 4604.56 3.92439 5.736 0
M  V30 51014 H 4607.75 2.39872 4.01969 0
M  V30 51015 H 4607.92 3.53504 5.43083 0
M  V30 51016 N 4601.33 -1.42718 0.668539 0
M  V30 51017 C 4602.74 -1.55991 0.337505 0
M  V30 51018 C 4602.94 -1.64937 -1.1575 0
M  V30 51019 O 4602 -1.61285 -1.94277 0
M  V30 51020 C 4603.31 -2.8131 1.06232 0
M  V30 51021 C 4604.86 -2.95074 1.04404 0
M  V30 51022 C 4605.33 -4.23246 1.75006 0
M  V30 51023 N 4606.82 -4.30144 1.71844 0
M  V30 51024 C 4607.56 -5.28119 2.23334 0
M  V30 51025 N 4607.06 -6.32283 2.83178 0
M  V30 51026 N 4608.85 -5.19875 2.13744 0
M  V30 51027 H 4601 -1.35154 1.63851 0
M  V30 51028 H 4603.26 -0.650149 0.689935 0
M  V30 51029 H 4602.97 -2.80815 2.11744 0
M  V30 51030 H 4602.84 -3.7201 0.623571 0
M  V30 51031 H 4605.23 -2.951 -0.00272065 0
M  V30 51032 H 4605.31 -2.05622 1.52162 0
M  V30 51033 H 4604.95 -4.23981 2.79648 0
M  V30 51034 H 4604.88 -5.11622 1.24703 0
M  V30 51035 H 4607.38 -3.55494 1.28188 0
M  V30 51036 H 4607.69 -7.03387 3.20104 0
M  V30 51037 H 4606.03 -6.32863 2.87245 0
M  V30 51038 H 4609.22 -4.37417 1.66685 0
M  V30 51039 H 4609.4 -5.96068 2.54179 0
M  V30 51040 N 4602.8 -0.411452 -1.52134 0
M  V30 51041 C 4603.73 0.403934 -2.2998 0
M  V30 51042 C 4604.71 1.04407 -1.34287 0
M  V30 51043 O 4605.9 1.05265 -1.63196 0
M  V30 51044 C 4603.03 1.51959 -3.12291 0
M  V30 51045 C 4601.98 1.00433 -4.16049 0
M  V30 51046 C 4601.31 2.21376 -4.8672 0
M  V30 51047 C 4602.61 0.05675 -5.22269 0
M  V30 51048 H 4604.3 -0.245634 -2.98391 0
M  V30 51049 H 4601.85 -0.119576 -1.43503 0
M  V30 51050 H 4603.8 2.09702 -3.65518 0
M  V30 51051 H 4602.53 2.19707 -2.41653 0
M  V30 51052 H 4601.19 0.449293 -3.63836 0
M  V30 51053 H 4600.83 2.87684 -4.1261 0
M  V30 51054 H 4600.53 1.87551 -5.56865 0
M  V30 51055 H 4602.06 2.79721 -5.4276 0
M  V30 51056 H 4603.47 0.543049 -5.70722 0
M  V30 51057 H 4601.87 -0.192805 -5.9979 0
M  V30 51058 H 4602.94 -0.887831 -4.76703 0
M  V30 51059 N 4604.28 1.56959 -0.141948 0
M  V30 51060 C 4605.21 2.13622 0.830552 0
M  V30 51061 C 4606.23 1.08443 1.21424 0
M  V30 51062 O 4607.42 1.35738 1.1592 0
M  V30 51063 C 4604.52 2.63986 2.1252 0
M  V30 51064 C 4603.69 3.93511 1.90966 0
M  V30 51065 C 4602.75 4.29236 3.04373 0
M  V30 51066 O 4601.77 4.9765 2.76284 0
M  V30 51067 N 4602.98 3.88408 4.31415 0
M  V30 51068 H 4605.74 2.97692 0.346305 0
M  V30 51069 H 4603.3 1.61846 0.0417806 0
M  V30 51070 H 4605.29 2.84901 2.87426 0
M  V30 51071 H 4603.86 1.84668 2.52223 0
M  V30 51072 H 4603.08 3.81272 1.00125 0
M  V30 51073 H 4604.37 4.7816 1.73897 0
M  V30 51074 H 4603.77 3.33273 4.57105 0
M  V30 51075 H 4602.33 4.14386 5.03118 0
M  V30 51076 N 4605.76 -0.13184 1.57048 0
M  V30 51077 C 4606.71 -1.16229 1.99398 0
M  V30 51078 C 4607.68 -1.4186 0.863993 0
M  V30 51079 O 4608.86 -1.53942 1.12724 0
M  V30 51080 C 4606 -2.487 2.39254 0
M  V30 51081 C 4605.11 -2.30114 3.65611 0
M  V30 51082 C 4604.25 -3.55724 3.94504 0
M  V30 51083 C 4603.29 -3.3224 5.14084 0
M  V30 51084 N 4602.43 -4.50021 5.38912 0
M  V30 51085 H 4607.27 -0.79415 2.87223 0
M  V30 51086 H 4604.8 -0.380657 1.42089 0
M  V30 51087 H 4606.76 -3.2596 2.60395 0
M  V30 51088 H 4605.39 -2.83432 1.54487 0
M  V30 51089 H 4604.44 -1.43833 3.52159 0
M  V30 51090 H 4605.75 -2.0873 4.53027 0
M  V30 51091 H 4604.91 -4.41408 4.16225 0
M  V30 51092 H 4603.65 -3.80127 3.0554 0
M  V30 51093 H 4602.65 -2.44946 4.92221 0
M  V30 51094 H 4603.88 -3.09221 6.04615 0
M  V30 51095 H 4601.82 -4.74568 4.52903 0
M  V30 51096 H 4601.74 -4.31694 6.20626 0
M  V30 51097 H 4603.01 -5.36875 5.65142 0
M  V30 51098 N 4607.24 -1.52396 -0.40165 0
M  V30 51099 C 4608.2 -1.75641 -1.47251 0
M  V30 51100 C 4609.2 -0.626332 -1.481 0
M  V30 51101 O 4610.39 -0.894279 -1.49493 0
M  V30 51102 C 4607.52 -1.84563 -2.86617 0
M  V30 51103 H 4608.72 -2.71246 -1.27928 0
M  V30 51104 H 4606.27 -1.42926 -0.632612 0
M  V30 51105 H 4607 -0.908991 -3.113 0
M  V30 51106 H 4606.79 -2.66725 -2.87403 0
M  V30 51107 H 4608.28 -2.04263 -3.64234 0
M  V30 51108 N 4608.72 0.659337 -1.43145 0
M  V30 51109 C 4609.65 1.78417 -1.50631 0
M  V30 51110 C 4610.63 1.66214 -0.361501 0
M  V30 51111 O 4611.81 1.85402 -0.577899 0
M  V30 51112 C 4608.94 3.1681 -1.42299 0
M  V30 51113 C 4607.9 3.43768 -2.54966 0
M  V30 51114 C 4607.22 4.81897 -2.31688 0
M  V30 51115 C 4608.52 3.3912 -3.97234 0
M  V30 51116 H 4610.22 1.72409 -2.44777 0
M  V30 51117 H 4607.76 0.828043 -1.17811 0
M  V30 51118 H 4609.71 3.95248 -1.46141 0
M  V30 51119 H 4608.44 3.23533 -0.446548 0
M  V30 51120 H 4607.1 2.67698 -2.50467 0
M  V30 51121 H 4606.75 4.85289 -1.32301 0
M  V30 51122 H 4606.45 5.00895 -3.07209 0
M  V30 51123 H 4607.97 5.626 -2.37304 0
M  V30 51124 H 4609.38 4.07504 -4.03254 0
M  V30 51125 H 4607.78 3.69655 -4.72732 0
M  V30 51126 H 4608.85 2.37411 -4.22805 0
M  V30 51127 N 4610.19 1.29574 0.897126 0
M  V30 51128 C 4611.43 1.18965 1.66213 0
M  V30 51129 C 4611.8 -0.254204 1.9031 0
M  V30 51130 O 4613 -0.483314 2.64419 0
M  V30 51131 C 4611.27 1.98312 2.97333 0
M  V30 51132 S 4612.83 2.04266 3.88356 0
M  V30 51133 H 4609.65 0.424157 0.570624 0
M  V30 51134 H 4612.25 1.63893 1.06579 0
M  V30 51135 H 4610.95 3.02351 2.7751 0
M  V30 51136 H 4610.48 1.53998 3.62006 0
M  V30 51137 H 4612.5 1.16122 4.82421 0
M  V30 51138 N 4611.67 -1.10784 1.12092 0
M  V30 51139 C 4612.6 -2.19081 0.807832 0
M  V30 51140 C 4613.58 -1.68581 -0.2268 0
M  V30 51141 O 4614.77 -1.93997 -0.0887793 0
M  V30 51142 C 4611.9 -3.46343 0.257698 0
M  V30 51143 C 4610.85 -4.10095 1.22498 0
M  V30 51144 C 4610.18 -5.32014 0.535239 0
M  V30 51145 C 4611.48 -4.54227 2.57827 0
M  V30 51146 H 4613.17 -2.45528 1.71337 0
M  V30 51147 H 4610.72 -1.18007 0.825246 0
M  V30 51148 H 4612.67 -4.21392 0.026416 0
M  V30 51149 H 4611.39 -3.19375 -0.683166 0
M  V30 51150 H 4610.05 -3.37048 1.44201 0
M  V30 51151 H 4609.7 -5.01321 -0.410651 0
M  V30 51152 H 4609.4 -5.75621 1.18044 0
M  V30 51153 H 4610.93 -6.09798 0.312909 0
M  V30 51154 H 4612.34 -5.20567 2.40174 0
M  V30 51155 H 4610.74 -5.08671 3.18393 0
M  V30 51156 H 4611.81 -3.67328 3.1654 0
M  V30 51157 N 4613.15 -0.912277 -1.28512 0
M  V30 51158 C 4614.43 -0.463664 -1.90025 0
M  V30 51159 C 4614.81 1.05747 -1.82704 0
M  V30 51160 O 4614.16 1.90488 -1.26201 0
M  V30 51161 C 4614.37 -0.99237 -3.34594 0
M  V30 51162 C 4615.71 -1.04358 -4.11576 0
M  V30 51163 O 4616.74 -0.940911 -3.43548 0
M  V30 51164 O 4615.6 -1.19969 -5.33169 0
M  V30 51165 H 4612.69 -0.146694 -0.813886 0
M  V30 51166 H 4615.24 -1.00296 -1.36889 0
M  V30 51167 H 4614.01 -2.03634 -3.34139 0
M  V30 51168 H 4613.63 -0.433811 -3.95226 0
M  V30 51169 N 4614.63 1.42361 -0.676098 0
M  V30 51170 C 4615.56 2.33497 -0.0125653 0
M  V30 51171 C 4616.54 1.5075 0.787928 0
M  V30 51172 O 4617.72 1.79349 0.744821 0
M  V30 51173 C 4614.85 3.3438 0.938465 0
M  V30 51174 C 4613.81 4.2729 0.246472 0
M  V30 51175 C 4613.13 5.18391 1.31053 0
M  V30 51176 C 4614.43 5.14913 -0.875306 0
M  V30 51177 H 4616.13 2.89231 -0.773695 0
M  V30 51178 H 4613.67 1.39072 -0.373509 0
M  V30 51179 H 4615.63 3.97049 1.41174 0
M  V30 51180 H 4614.35 2.76953 1.73103 0
M  V30 51181 H 4613.01 3.66017 -0.206584 0
M  V30 51182 H 4612.66 4.5729 2.09512 0
M  V30 51183 H 4612.36 5.81381 0.852635 0
M  V30 51184 H 4613.88 5.83935 1.78471 0
M  V30 51185 H 4615.3 5.7126 -0.483184 0
M  V30 51186 H 4613.69 5.86743 -1.25907 0
M  V30 51187 H 4614.76 4.53236 -1.72351 0
M  V30 51188 N 4616.11 0.419515 1.51914 0
M  V30 51189 C 4617.04 -0.391732 2.30191 0
M  V30 51190 C 4618.02 -1.03694 1.34839 0
M  V30 51191 O 4619.2 -1.04398 1.63752 0
M  V30 51192 C 4616.33 -1.50301 3.13093 0
M  V30 51193 C 4615.29 -0.982253 4.16576 0
M  V30 51194 C 4614.61 -2.18792 4.87887 0
M  V30 51195 C 4615.91 -0.029052 5.22292 0
M  V30 51196 H 4617.61 0.261455 2.98256 0
M  V30 51197 H 4615.15 0.127184 1.43437 0
M  V30 51198 H 4617.11 -2.0776 3.66625 0
M  V30 51199 H 4615.83 -2.18423 2.42815 0
M  V30 51200 H 4614.49 -0.429991 3.6407 0
M  V30 51201 H 4614.14 -2.85492 4.14129 0
M  V30 51202 H 4613.84 -1.84595 5.57852 0
M  V30 51203 H 4615.36 -2.76838 5.44236 0
M  V30 51204 H 4616.77 -0.512775 5.71002 0
M  V30 51205 H 4615.17 0.224611 5.9968 0
M  V30 51206 H 4616.24 0.913099 4.76225 0
M  V30 51207 N 4617.58 -1.56882 0.15027 0
M  V30 51208 C 4618.81 -2.01029 -0.510113 0
M  V30 51209 C 4619.23 -1.02972 -1.57412 0
M  V30 51210 O 4618.59 -0.00596531 -1.81299 0
M  V30 51211 C 4618.64 -3.43902 -1.0846 0
M  V30 51212 O 4617.74 -3.48858 -2.19936 0
M  V30 51213 H 4617.09 -0.652237 -0.124428 0
M  V30 51214 H 4619.62 -2.03092 0.247966 0
M  V30 51215 H 4619.63 -3.82771 -1.41245 0
M  V30 51216 H 4618.3 -4.14777 -0.305436 0
M  V30 51217 H 4616.88 -3.21834 -1.88354 0
M  V30 51218 N 4619.06 0.12351 -1.57115 0
M  V30 51219 C 4619.99 1.15301 -2.03046 0
M  V30 51220 C 4620.97 1.4345 -0.914111 0
M  V30 51221 O 4622.16 1.53969 -1.18352 0
M  V30 51222 C 4619.29 2.48034 -2.43097 0
M  V30 51223 C 4618.24 2.34357 -3.58135 0
M  V30 51224 C 4617.57 3.72012 -3.84072 0
M  V30 51225 C 4618.87 1.80787 -4.90014 0
M  V30 51226 H 4620.56 0.771 -2.89303 0
M  V30 51227 H 4618.11 0.36943 -1.39181 0
M  V30 51228 H 4620.06 3.20301 -2.73834 0
M  V30 51229 H 4618.79 2.88117 -1.53806 0
M  V30 51230 H 4617.44 1.64539 -3.27601 0
M  V30 51231 H 4617.09 4.09572 -2.91993 0
M  V30 51232 H 4616.79 3.63716 -4.61503 0
M  V30 51233 H 4618.32 4.45791 -4.17256 0
M  V30 51234 H 4619.73 2.42867 -5.19315 0
M  V30 51235 H 4618.13 1.83323 -5.71413 0
M  V30 51236 H 4619.2 0.765112 -4.78826 0
M  V30 51237 N 4620.54 1.52607 0.393562 0
M  V30 51238 C 4621.77 1.71596 1.16489 0
M  V30 51239 C 4622.19 0.431395 1.83086 0
M  V30 51240 O 4621.55 -0.612463 1.70642 0
M  V30 51241 C 4621.6 2.86326 2.19203 0
M  V30 51242 O 4620.7 2.52981 3.25691 0
M  V30 51243 H 4620.04 0.570746 0.33933 0
M  V30 51244 H 4622.57 1.99379 0.459254 0
M  V30 51245 H 4622.58 3.11689 2.63275 0
M  V30 51246 H 4621.26 3.79517 1.70117 0
M  V30 51247 H 4619.83 2.38342 2.86788 0
M  V30 51248 N 4622.02 -0.651737 1.43493 0
M  V30 51249 C 4622.98 -1.74642 1.48435 0
M  V30 51250 C 4623.98 -1.56512 0.368872 0
M  V30 51251 O 4625.17 -1.62382 0.63068 0
M  V30 51252 C 4622.3 -3.13529 1.33838 0
M  V30 51253 H 4623.5 -1.7164 2.45926 0
M  V30 51254 H 4621.05 -0.863527 1.3028 0
M  V30 51255 H 4621.78 -3.22141 0.373603 0
M  V30 51256 H 4621.57 -3.28093 2.14703 0
M  V30 51257 H 4623.06 -3.93351 1.40232 0
M  V30 51258 N 4623.5 -1.30048 -0.890242 0
M  V30 51259 C 4624.46 -1.1597 -1.97696 0
M  V30 51260 C 4625.46 -0.0924341 -1.60534 0
M  V30 51261 O 4626.65 -0.340131 -1.70847 0
M  V30 51262 C 4623.78 -0.775567 -3.3196 0
M  V30 51263 H 4624.97 -2.1251 -2.11612 0
M  V30 51264 H 4622.53 -1.13369 -1.07597 0
M  V30 51265 H 4623.26 0.189557 -3.23746 0
M  V30 51266 H 4623.05 -1.54681 -3.603 0
M  V30 51267 H 4624.54 -0.700395 -4.11685 0
M  V30 51268 N 4624.97 1.10188 -1.12678 0
M  V30 51269 C 4626.21 1.83822 -0.8938 0
M  V30 51270 C 4626.58 1.83343 0.570018 0
M  V30 51271 O 4627.78 2.52556 0.920265 0
M  V30 51272 C 4626.05 3.264 -1.45594 0
M  V30 51273 S 4627.61 4.17132 -1.36186 0
M  V30 51274 H 4624.43 0.633721 -0.322365 0
M  V30 51275 H 4627.03 1.32576 -1.4368 0
M  V30 51276 H 4625.73 3.2432 -2.51484 0
M  V30 51277 H 4625.26 3.82718 -0.91054 0
M  V30 51278 H 4627.28 4.95068 -0.335037 0
M  V30 51279 N 4626.45 0.919079 1.28026 0
M  V30 51280 C 4627.73 0.473735 1.89776 0
M  V30 51281 C 4628.11 -1.04776 1.83262 0
M  V30 51282 O 4627.46 -1.89816 1.27209 0
M  V30 51283 C 4627.67 1.0101 3.34063 0
M  V30 51284 C 4629.02 1.0654 4.11016 0
M  V30 51285 O 4630.04 0.959117 3.43044 0
M  V30 51286 O 4628.9 1.22795 5.32526 0
M  V30 51287 H 4625.99 0.151009 0.813096 0
M  V30 51288 H 4628.54 1.01021 1.36356 0
M  V30 51289 H 4627.31 2.05404 3.33054 0
M  V30 51290 H 4626.93 0.454765 3.94991 0
M  V30 51291 N 4627.93 -1.42001 0.683638 0
M  V30 51292 C 4628.89 -2.29191 0.0199048 0
M  V30 51293 C 4629.89 -1.43776 -0.72008 0
M  V30 51294 O 4631.08 -1.65063 -0.556757 0
M  V30 51295 C 4628.22 -3.26439 -0.982372 0
M  V30 51296 H 4629.41 -2.89377 0.787447 0
M  V30 51297 H 4626.96 -1.49788 0.446471 0
M  V30 51298 H 4627.7 -2.71209 -1.7781 0
M  V30 51299 H 4627.48 -3.89451 -0.455045 0
M  V30 51300 H 4628.97 -3.91805 -1.44494 0
M  V30 51301 N 4629.41 -0.427565 -1.51689 0
M  V30 51302 C 4630.34 0.379519 -2.30395 0
M  V30 51303 C 4631.32 1.02977 -1.35387 0
M  V30 51304 O 4632.51 1.03528 -1.64303 0
M  V30 51305 C 4629.64 1.48638 -3.13885 0
M  V30 51306 C 4628.59 0.960148 -4.17091 0
M  V30 51307 C 4627.92 2.16202 -4.89041 0
M  V30 51308 C 4629.22 0.00135318 -5.223 0
M  V30 51309 H 4630.91 -0.277268 -2.98113 0
M  V30 51310 H 4628.46 -0.134789 -1.43368 0
M  V30 51311 H 4630.41 2.05813 -3.67721 0
M  V30 51312 H 4629.13 2.17132 -2.4397 0
M  V30 51313 H 4627.79 0.410678 -3.64292 0
M  V30 51314 H 4627.44 2.83292 -4.15638 0
M  V30 51315 H 4627.14 1.81634 -5.58823 0
M  V30 51316 H 4628.66 2.73948 -5.45696 0
M  V30 51317 H 4630.08 0.482486 -5.71266 0
M  V30 51318 H 4628.47 -0.25641 -5.99552 0
M  V30 51319 H 4629.54 -0.938341 -4.75734 0
M  V30 51320 N 4630.89 1.568 -0.158588 0
M  V30 51321 C 4632.16 1.88133 0.535291 0
M  V30 51322 C 4632.54 1.06644 1.82182 0
M  V30 51323 O 4631.89 0.156613 2.27963 0
M  V30 51324 C 4632.1 3.39952 0.789533 0
M  V30 51325 C 4633.45 4.0942 1.12519 0
M  V30 51326 O 4634.47 3.45197 0.878501 0
M  V30 51327 O 4633.33 5.2286 1.58995 0
M  V30 51328 H 4630.43 0.780153 0.274392 0
M  V30 51329 H 4632.97 1.68564 -0.196069 0
M  V30 51330 H 4631.75 3.91114 -0.120491 0
M  V30 51331 H 4631.37 3.65089 1.57466 0
M  V30 51332 N 4632.37 -0.115176 1.57179 0
M  V30 51333 C 4633.3 -1.16687 1.97273 0
M  V30 51334 C 4634.31 -1.37442 0.87255 0
M  V30 51335 O 4635.5 -1.3645 1.15082 0
M  V30 51336 C 4632.6 -2.52619 2.25914 0
M  V30 51337 C 4631.77 -2.52414 3.5722 0
M  V30 51338 C 4630.83 -3.7012 3.74029 0
M  V30 51339 O 4629.86 -3.53531 4.461 0
M  V30 51340 N 4631.06 -4.88833 3.13085 0
M  V30 51341 H 4633.82 -0.825779 2.88099 0
M  V30 51342 H 4631.39 -0.304405 1.59013 0
M  V30 51343 H 4633.38 -3.29928 2.3437 0
M  V30 51344 H 4631.95 -2.78895 1.41196 0
M  V30 51345 H 4631.17 -1.60792 3.59916 0
M  V30 51346 H 4632.46 -2.49337 4.43518 0
M  V30 51347 H 4631.85 -5.05216 2.54507 0
M  V30 51348 H 4630.41 -5.63806 3.27057 0
M  V30 51349 N 4633.84 -1.52813 -0.385464 0
M  V30 51350 C 4634.79 -1.74224 -1.47072 0
M  V30 51351 C 4635.78 -0.596372 -1.4944 0
M  V30 51352 O 4636.97 -0.854334 -1.55017 0
M  V30 51353 C 4634.1 -1.9177 -2.84744 0
M  V30 51354 C 4633.18 -3.12299 -2.86932 0
M  V30 51355 N 4633.58 -4.34584 -2.58786 0
M  V30 51356 C 4631.87 -3.12617 -3.18099 0
M  V30 51357 C 4632.57 -5.16209 -2.68147 0
M  V30 51358 N 4631.55 -4.51974 -3.02027 0
M  V30 51359 H 4635.35 -2.66394 -1.24143 0
M  V30 51360 H 4632.87 -1.51168 -0.593451 0
M  V30 51361 H 4634.86 -2.05231 -3.62885 0
M  V30 51362 H 4633.52 -1.00815 -3.08652 0
M  V30 51363 H 4634.53 -4.62657 -2.32743 0
M  V30 51364 H 4631.21 -2.31484 -3.4745 0
M  V30 51365 H 4632.6 -6.23698 -2.49902 0
M  V30 51366 N 4635.32 0.644118 -1.43836 0
M  V30 51367 C 4636.27 1.77788 -1.49981 0
M  V30 51368 C 4637.26 1.65252 -0.372594 0
M  V30 51369 O 4638.47 1.71488 -0.546984 0
M  V30 51370 H 4634.84 0.586733 -0.47037 0
M  V30 51371 H 4636.82 1.69727 -2.45429 0
M  V30 51372 C 4635.56 3.16082 -1.44871 0
M  V30 51373 H 4634.89 3.2637 -2.30917 0
M  V30 51374 H 4636.33 3.95343 -1.53231 0
M  V30 51375 C 4634.79 3.36483 -0.167581 0
M  V30 51376 O 4635.32 3.943 0.76747 0
M  V30 51377 N 4633.52 2.90504 -0.0748577 0
M  V30 51378 H 4633.07 2.43637 -0.836593 0
M  V30 51379 H 4633.03 3.0453 0.781607 0
M  V30 51380 N 4636.8 1.30518 0.883332 0
M  V30 51381 C 4637.73 1.19614 2.00536 0
M  V30 51382 C 4638.71 0.0864057 1.6988 0
M  V30 51383 O 4639.9 0.268721 1.92332 0
M  V30 51384 C 4637.03 0.888876 3.35732 0
M  V30 51385 C 4635.98 1.95672 3.80653 0
M  V30 51386 C 4635.31 1.50242 5.13158 0
M  V30 51387 C 4636.61 3.36802 3.99201 0
M  V30 51388 H 4638.3 2.13483 2.09918 0
M  V30 51389 H 4635.85 1.02778 1.0086 0
M  V30 51390 H 4637.8 0.79924 4.13751 0
M  V30 51391 H 4636.52 -0.0854978 3.26488 0
M  V30 51392 H 4635.18 2.03602 3.04864 0
M  V30 51393 H 4634.83 0.516268 5.00344 0
M  V30 51394 H 4634.53 2.21669 5.44184 0
M  V30 51395 H 4636.05 1.4266 5.93701 0
M  V30 51396 H 4637.47 3.31621 4.67654 0
M  V30 51397 H 4635.86 4.0633 4.41606 0
M  V30 51398 H 4636.93 3.78572 3.03004 0
M  V30 51399 N 4638.28 -1.09589 1.13261 0
M  V30 51400 C 4639.22 -2.16177 0.808457 0
M  V30 51401 C 4640.19 -1.64518 -0.228696 0
M  V30 51402 O 4641.38 -1.90531 -0.101314 0
M  V30 51403 C 4638.52 -3.43972 0.278796 0
M  V30 51404 C 4637.63 -4.0954 1.37481 0
M  V30 51405 C 4636.77 -5.25085 0.803663 0
M  V30 51406 C 4635.81 -5.82572 1.87819 0
M  V30 51407 N 4634.94 -6.89482 1.32512 0
M  V30 51408 H 4639.78 -2.43248 1.72147 0
M  V30 51409 H 4637.32 -1.19389 0.859336 0
M  V30 51410 H 4639.28 -4.17174 -0.0464117 0
M  V30 51411 H 4637.91 -3.17225 -0.597348 0
M  V30 51412 H 4636.96 -3.34219 1.81664 0
M  V30 51413 H 4638.27 -4.48299 2.187 0
M  V30 51414 H 4637.43 -6.05177 0.42964 0
M  V30 51415 H 4636.17 -4.87684 -0.0396242 0
M  V30 51416 H 4635.17 -5.01144 2.2613 0
M  V30 51417 H 4636.4 -6.22036 2.72485 0
M  V30 51418 H 4634.34 -6.54063 0.503805 0
M  V30 51419 H 4634.26 -7.27 2.07381 0
M  V30 51420 H 4635.53 -7.73333 0.978608 0
M  V30 51421 N 4639.76 -0.925856 -1.27537 0
M  V30 51422 C 4640.69 -0.380833 -2.26014 0
M  V30 51423 C 4641.7 0.487431 -1.55332 0
M  V30 51424 O 4642.89 0.300352 -1.75955 0
M  V30 51425 C 4639.99 0.473141 -3.35581 0
M  V30 51426 C 4639.16 -0.375402 -4.35786 0
M  V30 51427 C 4638.22 0.415625 -5.24556 0
M  V30 51428 O 4637.25 -0.176034 -5.68928 0
M  V30 51429 N 4638.45 1.71587 -5.54561 0
M  V30 51430 H 4641.21 -1.22734 -2.73416 0
M  V30 51431 H 4638.78 -0.793087 -1.41144 0
M  V30 51432 H 4640.77 1.00935 -3.91911 0
M  V30 51433 H 4639.34 1.2204 -2.87793 0
M  V30 51434 H 4638.56 -1.09292 -3.78746 0
M  V30 51435 H 4639.85 -0.955575 -4.99746 0
M  V30 51436 H 4639.24 2.21892 -5.20366 0
M  V30 51437 H 4637.8 2.19865 -6.13598 0
M  V30 51438 N 4641.23 1.41636 -0.691159 0
M  V30 51439 C 4642.18 2.32597 -0.0116017 0
M  V30 51440 C 4643.18 1.50723 0.773243 0
M  V30 51441 O 4644.38 1.66687 0.679362 0
M  V30 51442 H 4640.76 0.751849 0.0150481 0
M  V30 51443 H 4642.73 2.8759 -0.795892 0
M  V30 51444 C 4641.48 3.3547 0.914054 0
M  V30 51445 H 4640.8 3.98521 0.319547 0
M  V30 51446 H 4642.24 4.01667 1.35794 0
M  V30 51447 C 4640.7 2.69012 2.02816 0
M  V30 51448 O 4641.23 2.53455 3.11647 0
M  V30 51449 N 4639.43 2.27776 1.80461 0
M  V30 51450 H 4638.98 2.40629 0.919531 0
M  V30 51451 H 4638.94 1.83644 2.5519 0
M  V30 51452 N 4642.71 0.435603 1.5146 0
M  V30 51453 C 4643.99 -0.191295 1.94662 0
M  V30 51454 C 4644.37 -1.6025 1.37416 0
M  V30 51455 O 4643.72 -2.21518 0.560536 0
M  V30 51456 C 4643.93 -0.170788 3.48582 0
M  V30 51457 C 4645.28 -0.377208 4.22921 0
M  V30 51458 O 4646.3 -0.248979 3.55329 0
M  V30 51459 O 4645.16 -0.632279 5.4283 0
M  V30 51460 H 4642.25 -0.130904 0.816574 0
M  V30 51461 H 4644.8 0.493457 1.62367 0
M  V30 51462 H 4643.57 0.815873 3.827 0
M  V30 51463 H 4643.19 -0.898523 3.87314 0
M  V30 51464 N 4644.19 -1.56714 0.166901 0
M  V30 51465 C 4645.12 -2.14917 -0.796461 0
M  V30 51466 C 4646.14 -1.10361 -1.19684 0
M  V30 51467 O 4647.32 -1.37565 -1.13746 0
M  V30 51468 C 4644.42 -2.67333 -2.08293 0
M  V30 51469 C 4643.6 -3.96499 -1.84682 0
M  V30 51470 C 4642.66 -4.34024 -2.97505 0
M  V30 51471 O 4641.68 -5.01983 -2.68332 0
M  V30 51472 N 4642.88 -3.95222 -4.25182 0
M  V30 51473 H 4645.65 -2.98206 -0.298901 0
M  V30 51474 H 4643.21 -1.61892 -0.016027 0
M  V30 51475 H 4645.2 -2.89438 -2.82857 0
M  V30 51476 H 4643.77 -1.88657 -2.49253 0
M  V30 51477 H 4642.99 -3.82817 -0.940468 0
M  V30 51478 H 4644.28 -4.80866 -1.66268 0
M  V30 51479 H 4643.68 -3.40503 -4.51746 0
M  V30 51480 H 4642.24 -4.22337 -4.96462 0
M  V30 51481 N 4645.67 0.106839 -1.57237 0
M  V30 51482 C 4647.08 0.662661 -1.74544 0
M  V30 51483 C 4647.43 1.79707 -0.787382 0
M  V30 51484 O 4646.56 2.16369 0.0368876 0
M  V30 51485 C 4647.15 1.20885 -3.165 0
M  V30 51486 C 4645.71 1.71085 -3.35272 0
M  V30 51487 C 4644.86 0.615546 -2.70382 0
M  V30 51488 H 4647.81 -0.119162 -1.58252 0
M  V30 51489 H 4647.83 2.07836 -3.18723 0
M  V30 51490 H 4647.34 0.382986 -3.86206 0
M  V30 51491 H 4645.44 2.56109 -2.70627 0
M  V30 51492 H 4645.55 1.81192 -4.43516 0
M  V30 51493 H 4643.92 1.05214 -2.31953 0
M  V30 51494 H 4644.7 -0.19954 -3.4272 0
M  V30 51495 N 4647.15 1.53016 0.377354 0
M  V30 51496 C 4648.08 1.73387 1.48365 0
M  V30 51497 C 4649.06 0.581933 1.5183 0
M  V30 51498 O 4650.24 0.81313 1.7006 0
M  V30 51499 C 4647.37 1.80202 2.86784 0
M  V30 51500 C 4646.41 3.02067 3.01095 0
M  V30 51501 S 4647.25 4.6182 2.71077 0
M  V30 51502 C 4648.4 4.71467 4.11666 0
M  V30 51503 H 4648.64 2.6695 1.30862 0
M  V30 51504 H 4646.17 1.43455 0.570961 0
M  V30 51505 H 4648.13 1.84814 3.66543 0
M  V30 51506 H 4646.79 0.877114 3.01605 0
M  V30 51507 H 4645.98 3.0341 4.0244 0
M  V30 51508 H 4645.58 2.95506 2.29243 0
M  V30 51509 H 4647.88 4.50798 5.05754 0
M  V30 51510 H 4648.82 5.73502 4.15333 0
M  V30 51511 H 4649.23 4.00203 3.98118 0
M  V30 51512 N 4648.62 -0.636481 1.44176 0
M  V30 51513 C 4649.9 -1.39458 1.37153 0
M  V30 51514 C 4650.28 -2.11082 0.0275812 0
M  V30 51515 O 4649.63 -2.05957 -0.989644 0
M  V30 51516 C 4649.84 -2.36543 2.56609 0
M  V30 51517 C 4651.19 -3.00037 3.00438 0
M  V30 51518 O 4652.21 -2.46869 2.56776 0
M  V30 51519 O 4651.07 -3.96474 3.76125 0
M  V30 51520 H 4648.16 -0.623884 0.542861 0
M  V30 51521 H 4650.71 -0.661985 1.56256 0
M  V30 51522 H 4649.48 -1.8268 3.4604 0
M  V30 51523 H 4649.11 -3.17228 2.39692 0
M  V30 51524 N 4650.1 -1.30985 -0.876398 0
M  V30 51525 C 4651.35 -1.19664 -1.62368 0
M  V30 51526 C 4651.66 0.245567 -1.94052 0
M  V30 51527 O 4652.87 0.480396 -2.67216 0
M  V30 51528 C 4651.33 -2.09443 -2.9268 0
M  V30 51529 C 4650.93 -3.58622 -2.68504 0
M  V30 51530 C 4652.68 -2.06906 -3.70662 0
M  V30 51531 C 4650.59 -4.4043 -3.94684 0
M  V30 51532 H 4649.52 -0.44429 -0.609198 0
M  V30 51533 H 4652.17 -1.55795 -0.969551 0
M  V30 51534 H 4650.55 -1.66204 -3.59433 0
M  V30 51535 H 4651.72 -4.10065 -2.10198 0
M  V30 51536 H 4650.04 -3.6307 -2.03885 0
M  V30 51537 H 4652.63 -2.65274 -4.64256 0
M  V30 51538 H 4652.98 -1.05462 -4.0272 0
M  V30 51539 H 4653.51 -2.48311 -3.10783 0
M  V30 51540 H 4650.25 -5.42604 -3.67779 0
M  V30 51541 H 4649.77 -3.93747 -4.52463 0
M  V30 51542 H 4651.45 -4.5231 -4.62628 0
M  V30 51543 N 4651.58 1.08987 -1.13841 0
M  V30 51544 C 4652.51 2.17768 -0.842583 0
M  V30 51545 C 4653.49 1.68921 0.199951 0
M  V30 51546 O 4654.68 1.94114 0.0579048 0
M  V30 51547 C 4651.81 3.45889 -0.312766 0
M  V30 51548 C 4650.76 4.08095 -1.29006 0
M  V30 51549 C 4650.09 5.31096 -0.61981 0
M  V30 51550 C 4651.39 4.50068 -2.65021 0
M  V30 51551 H 4653.08 2.42771 -1.75221 0
M  V30 51552 H 4650.63 1.16679 -0.843916 0
M  V30 51553 H 4652.58 4.21296 -0.0934524 0
M  V30 51554 H 4651.3 3.20421 0.63227 0
M  V30 51555 H 4649.96 3.34712 -1.49545 0
M  V30 51556 H 4649.61 5.01911 0.330843 0
M  V30 51557 H 4649.31 5.7367 -1.27187 0
M  V30 51558 H 4650.83 6.09223 -0.409883 0
M  V30 51559 H 4652.25 5.1668 -2.48425 0
M  V30 51560 H 4650.65 5.03541 -3.26445 0
M  V30 51561 H 4651.72 3.62246 -3.22344 0
M  V30 51562 N 4653.06 0.932607 1.27044 0
M  V30 51563 C 4653.99 0.392813 2.25809 0
M  V30 51564 C 4655 -0.479186 1.55588 0
M  V30 51565 O 4656.19 -0.291016 1.76112 0
M  V30 51566 C 4653.29 -0.455338 3.35827 0
M  V30 51567 C 4652.47 0.398508 4.35581 0
M  V30 51568 C 4651.52 -0.387801 5.24769 0
M  V30 51569 O 4650.55 0.206203 5.68826 0
M  V30 51570 N 4651.75 -1.68644 5.55463 0
M  V30 51571 H 4654.52 1.24182 2.72761 0
M  V30 51572 H 4652.08 0.800561 1.40722 0
M  V30 51573 H 4654.07 -0.988554 3.92441 0
M  V30 51574 H 4652.64 -1.20512 2.88437 0
M  V30 51575 H 4651.86 1.11299 3.78161 0
M  V30 51576 H 4653.15 0.982064 4.99232 0
M  V30 51577 H 4652.55 -2.19129 5.21535 0
M  V30 51578 H 4651.1 -2.16608 6.14755 0
M  V30 51579 N 4654.54 -1.41267 0.698661 0
M  V30 51580 C 4655.79 -2.00407 0.22802 0
M  V30 51581 C 4656.1 -1.55985 -1.18017 0
M  V30 51582 O 4657.3 -2.07706 -1.74845 0
M  V30 51583 C 4655.76 -3.58127 0.356762 0
M  V30 51584 C 4655.37 -4.1153 1.77052 0
M  V30 51585 C 4657.11 -4.24466 -0.0539477 0
M  V30 51586 C 4655.02 -5.61695 1.85075 0
M  V30 51587 H 4653.95 -0.749583 0.081492 0
M  V30 51588 H 4656.6 -1.6171 0.867306 0
M  V30 51589 H 4654.98 -3.94443 -0.350827 0
M  V30 51590 H 4656.16 -3.86627 2.50712 0
M  V30 51591 H 4654.47 -3.57729 2.13118 0
M  V30 51592 H 4657.07 -5.34698 -0.0144843 0
M  V30 51593 H 4657.41 -4.01691 -1.09318 0
M  V30 51594 H 4657.94 -3.93196 0.603475 0
M  V30 51595 H 4654.68 -5.89302 2.87061 0
M  V30 51596 H 4654.2 -5.88515 1.15804 0
M  V30 51597 H 4655.88 -6.26518 1.61506 0
M  V30 51598 N 4656.01 -0.44363 -1.51227 0
M  V30 51599 C 4657.26 0.122261 -2.01329 0
M  V30 51600 C 4657.58 1.43232 -1.33206 0
M  V30 51601 O 4658.78 2.08153 -1.74311 0
M  V30 51602 C 4657.24 0.268425 -3.58898 0
M  V30 51603 C 4656.85 -1.03158 -4.35962 0
M  V30 51604 C 4658.59 0.787747 -4.17127 0
M  V30 51605 C 4656.5 -0.850709 -5.85249 0
M  V30 51606 H 4655.43 0.0494665 -0.752376 0
M  V30 51607 H 4658.08 -0.57435 -1.7428 0
M  V30 51608 H 4656.46 1.02819 -3.82419 0
M  V30 51609 H 4657.63 -1.80016 -4.24183 0
M  V30 51610 H 4655.95 -1.47991 -3.89214 0
M  V30 51611 H 4658.55 0.939656 -5.26379 0
M  V30 51612 H 4658.89 1.77188 -3.7671 0
M  V30 51613 H 4659.42 0.0861271 -3.97707 0
M  V30 51614 H 4656.16 -1.8074 -6.3009 0
M  V30 51615 H 4655.68 -0.122036 -5.99676 0
M  V30 51616 H 4657.36 -0.50639 -6.45015 0
M  V30 51617 N 4657.49 1.56623 -0.175209 0
M  V30 51618 C 4658.44 2.19471 0.770418 0
M  V30 51619 C 4659.44 1.15989 1.23462 0
M  V30 51620 O 4660.64 1.3418 1.19982 0
M  V30 51621 H 4657.02 0.703104 0.266737 0
M  V30 51622 H 4658.99 2.97614 0.216437 0
M  V30 51623 C 4657.74 2.85271 1.98786 0
M  V30 51624 H 4657.06 3.64628 1.6397 0
M  V30 51625 H 4658.5 3.3271 2.62831 0
M  V30 51626 C 4656.96 1.85249 2.81397 0
M  V30 51627 O 4657.49 1.34038 3.78678 0
M  V30 51628 N 4655.69 1.53919 2.4649 0
M  V30 51629 H 4655.24 1.95757 1.67442 0
M  V30 51630 H 4655.2 0.872488 3.02051 0
M  V30 51631 N 4658.97 -0.0984986 1.57292 0
M  V30 51632 C 4660.21 -0.808266 1.8774 0
M  V30 51633 C 4660.58 -1.76068 0.765781 0
M  V30 51634 O 4661.78 -2.51355 0.952587 0
M  V30 51635 C 4660.05 -1.52082 3.23428 0
M  V30 51636 S 4661.61 -2.26934 3.75562 0
M  V30 51637 H 4658.42 -0.269353 0.658004 0
M  V30 51638 H 4661.03 -0.0655582 1.9539 0
M  V30 51639 H 4659.73 -0.813488 4.02257 0
M  V30 51640 H 4659.26 -2.30349 3.18909 0
M  V30 51641 H 4661.28 -3.53015 3.48705 0
M  V30 51642 N 4660.45 -1.53214 -0.369234 0
M  V30 51643 C 4661.38 -1.8237 -1.45819 0
M  V30 51644 C 4662.36 -0.676962 -1.56049 0
M  V30 51645 O 4663.55 -0.926461 -1.70676 0
M  V30 51646 C 4660.68 -2.01033 -2.83201 0
M  V30 51647 C 4659.63 -3.1679 -2.87799 0
M  V30 51648 C 4658.96 -3.20739 -4.2782 0
M  V30 51649 C 4660.26 -4.55456 -2.55651 0
M  V30 51650 H 4661.95 -2.73564 -1.21669 0
M  V30 51651 H 4659.5 -1.31632 -0.583864 0
M  V30 51652 H 4661.45 -2.20013 -3.59405 0
M  V30 51653 H 4660.17 -1.06547 -3.08732 0
M  V30 51654 H 4658.83 -2.97624 -2.14046 0
M  V30 51655 H 4658.48 -2.23897 -4.50421 0
M  V30 51656 H 4658.18 -3.98511 -4.31813 0
M  V30 51657 H 4659.7 -3.41899 -5.05903 0
M  V30 51658 H 4661.12 -4.74622 -3.21569 0
M  V30 51659 H 4659.51 -5.35442 -2.70965 0
M  V30 51660 H 4660.58 -4.60818 -1.50914 0
M  V30 51661 N 4661.93 0.628826 -1.44511 0
M  V30 51662 C 4663.16 1.41549 -1.50902 0
M  V30 51663 C 4663.57 1.88319 -0.13463 0
M  V30 51664 O 4662.93 1.60972 0.859908 0
M  V30 51665 C 4662.98 2.63426 -2.47566 0
M  V30 51666 O 4662.7 2.18605 -3.79662 0
M  V30 51667 C 4664.2 3.56528 -2.63444 0
M  V30 51668 H 4661.42 0.434026 -0.511725 0
M  V30 51669 H 4663.96 0.768828 -1.89497 0
M  V30 51670 H 4662.12 3.2418 -2.121 0
M  V30 51671 H 4662.53 2.97637 -4.31871 0
M  V30 51672 H 4664.01 4.38646 -3.35103 0
M  V30 51673 H 4664.48 4.05487 -1.68752 0
M  V30 51674 H 4665.09 3.01642 -2.9982 0
M  V30 51675 N 4663.41 1.31448 0.869439 0
M  V30 51676 C 4664.63 1.24127 1.65529 0
M  V30 51677 C 4665.05 -0.193321 1.87808 0
M  V30 51678 O 4664.41 -1.12552 1.4366 0
M  V30 51679 C 4664.46 1.98239 3.02297 0
M  V30 51680 O 4664.18 3.36099 2.81014 0
M  V30 51681 C 4665.68 1.97765 3.96742 0
M  V30 51682 H 4662.9 0.428887 0.51604 0
M  V30 51683 H 4665.44 1.73332 1.08519 0
M  V30 51684 H 4663.6 1.52794 3.55995 0
M  V30 51685 H 4664.01 3.73843 3.67888 0
M  V30 51686 H 4665.49 2.54131 4.90022 0
M  V30 51687 H 4665.96 0.960288 4.28573 0
M  V30 51688 H 4666.57 2.43091 3.4898 0
M  V30 51689 N 4664.88 -1.08381 1.14417 0
M  V30 51690 C 4666.13 -1.8015 0.907139 0
M  V30 51691 C 4666.45 -1.87178 -0.567785 0
M  V30 51692 O 4667.65 -2.55362 -0.922082 0
M  V30 51693 C 4666.11 -3.23681 1.57348 0
M  V30 51694 C 4665.72 -3.24886 3.08468 0
M  V30 51695 C 4667.46 -4.00131 1.41758 0
M  V30 51696 C 4665.37 -4.63007 3.67938 0
M  V30 51697 H 4664.3 -0.675127 0.335738 0
M  V30 51698 H 4666.95 -1.21729 1.37311 0
M  V30 51699 H 4665.33 -3.8223 1.03518 0
M  V30 51700 H 4666.5 -2.76042 3.68968 0
M  V30 51701 H 4664.82 -2.61931 3.23699 0
M  V30 51702 H 4667.42 -5.02194 1.83589 0
M  V30 51703 H 4667.76 -4.14708 0.363722 0
M  V30 51704 H 4668.29 -3.48052 1.92626 0
M  V30 51705 H 4665.03 -4.53634 4.73177 0
M  V30 51706 H 4664.55 -5.12132 3.12219 0
M  V30 51707 H 4666.23 -5.31982 3.68245 0
M  V30 51708 N 4666.36 -0.939331 -1.26548 0
M  V30 51709 C 4667.59 -0.601732 -1.97643 0
M  V30 51710 C 4668 0.827147 -1.70161 0
M  V30 51711 O 4667.34 1.56288 -0.965393 0
M  V30 51712 C 4667.4 -0.761849 -3.51335 0
M  V30 51713 C 4667.07 -2.16501 -4.02463 0
M  V30 51714 C 4668.07 -3.14031 -4.14344 0
M  V30 51715 C 4665.75 -2.48509 -4.36519 0
M  V30 51716 C 4667.74 -4.4167 -4.59572 0
M  V30 51717 C 4665.43 -3.76381 -4.81436 0
M  V30 51718 C 4666.43 -4.72775 -4.92923 0
M  V30 51719 O 4666.12 -5.98371 -5.3685 0
M  V30 51720 H 4665.85 -0.22578 -0.637181 0
M  V30 51721 H 4668.4 -1.26184 -1.62071 0
M  V30 51722 H 4666.63 -0.0446167 -3.86674 0
M  V30 51723 H 4668.32 -0.427584 -4.03642 0
M  V30 51724 H 4669.09 -2.90626 -3.8828 0
M  V30 51725 H 4664.97 -1.74217 -4.26813 0
M  V30 51726 H 4668.51 -5.16912 -4.68452 0
M  V30 51727 H 4664.41 -3.996 -5.06942 0
M  V30 51728 H 4665.18 -6.01526 -5.55075 0
M  V30 51729 N 4667.84 1.40895 -0.706143 0
M  V30 51730 C 4669.12 1.94867 -0.169167 0
M  V30 51731 C 4669.5 1.64489 1.32312 0
M  V30 51732 O 4668.84 0.957513 2.0747 0
M  V30 51733 C 4669.05 3.45797 -0.471776 0
M  V30 51734 C 4670.4 4.22661 -0.405276 0
M  V30 51735 O 4671.43 3.53864 -0.407292 0
M  V30 51736 O 4670.29 5.45215 -0.374574 0
M  V30 51737 H 4667.38 0.826729 -0.0211643 0
M  V30 51738 H 4669.93 1.50555 -0.783029 0
M  V30 51739 H 4668.7 3.6123 -1.50429 0
M  V30 51740 H 4668.32 3.97226 0.172526 0
M  V30 51741 N 4669.32 0.451643 1.5099 0
M  V30 51742 C 4670.73 0.104703 1.59256 0
M  V30 51743 C 4670.93 -1.38723 1.46145 0
M  V30 51744 O 4669.99 -2.15861 1.30997 0
M  V30 51745 C 4671.3 0.637571 2.93863 0
M  V30 51746 C 4672.85 0.599274 3.0721 0
M  V30 51747 C 4673.33 1.10936 4.44362 0
M  V30 51748 N 4674.82 1.06794 4.50721 0
M  V30 51749 C 4675.55 1.43334 5.55196 0
M  V30 51750 N 4675.05 1.87228 6.67021 0
M  V30 51751 N 4676.84 1.35059 5.45633 0
M  V30 51752 H 4668.99 1.4222 1.57757 0
M  V30 51753 H 4671.25 0.586947 0.744444 0
M  V30 51754 H 4670.96 1.68197 3.08873 0
M  V30 51755 H 4670.83 0.0703464 3.77134 0
M  V30 51756 H 4673.22 -0.436175 2.91859 0
M  V30 51757 H 4673.3 1.20307 2.25743 0
M  V30 51758 H 4672.95 2.14334 4.6046 0
M  V30 51759 H 4672.88 0.481957 5.2439 0
M  V30 51760 H 4675.37 0.745773 3.70468 0
M  V30 51761 H 4675.68 2.13308 7.42778 0
M  V30 51762 H 4674.03 1.91166 6.68192 0
M  V30 51763 H 4677.22 1.00623 4.57157 0
M  V30 51764 H 4677.39 1.63863 6.26939 0
M  V30 51765 N 4670.8 -1.56528 0.183513 0
M  V30 51766 C 4671.73 -2.21551 -0.737378 0
M  V30 51767 C 4672.71 -1.17494 -1.23001 0
M  V30 51768 O 4673.89 -1.45963 -1.28095 0
M  V30 51769 C 4671.02 -2.86582 -1.96184 0
M  V30 51770 C 4669.98 -3.96783 -1.60459 0
M  V30 51771 C 4669.3 -4.48922 -2.90471 0
M  V30 51772 C 4670.6 -5.1577 -0.823316 0
M  V30 51773 H 4672.3 -2.98762 -0.195348 0
M  V30 51774 H 4669.84 -1.43702 -0.0925181 0
M  V30 51775 H 4671.79 -3.30749 -2.61119 0
M  V30 51776 H 4670.52 -2.06758 -2.52821 0
M  V30 51777 H 4669.18 -3.5329 -0.978872 0
M  V30 51778 H 4668.83 -3.65875 -3.45174 0
M  V30 51779 H 4668.53 -5.23274 -2.67317 0
M  V30 51780 H 4670.05 -4.95783 -3.56415 0
M  V30 51781 H 4671.46 -5.56554 -1.37551 0
M  V30 51782 H 4669.86 -5.96116 -0.690341 0
M  V30 51783 H 4670.93 -4.84573 0.177953 0
M  V30 51784 N 4672.27 0.0901557 -1.57342 0
M  V30 51785 C 4673.18 1.12728 -2.05742 0
M  V30 51786 C 4674.2 1.43553 -0.983282 0
M  V30 51787 O 4675.38 1.54096 -1.29678 0
M  V30 51788 C 4672.44 2.4265 -2.47632 0
M  V30 51789 C 4671.5 2.18962 -3.69262 0
M  V30 51790 C 4670.74 3.4269 -4.09145 0
M  V30 51791 O 4670.96 4.51115 -3.49072 0
M  V30 51792 O 4669.89 3.31986 -5.02065 0
M  V30 51793 H 4673.72 0.746176 -2.94391 0
M  V30 51794 H 4671.3 0.303013 -1.46295 0
M  V30 51795 H 4673.19 3.19145 -2.75181 0
M  V30 51796 H 4671.86 2.80177 -1.62119 0
M  V30 51797 H 4670.77 1.40232 -3.46822 0
M  V30 51798 H 4672.1 1.86326 -4.5557 0
M  V30 51799 N 4673.75 1.53407 0.361103 0
M  V30 51800 C 4674.68 1.76451 1.46279 0
M  V30 51801 C 4675.7 0.645375 1.49462 0
M  V30 51802 O 4676.89 0.921735 1.5286 0
M  V30 51803 C 4673.99 1.83342 2.85024 0
M  V30 51804 C 4673.16 3.13044 3.05487 0
M  V30 51805 C 4672.22 3.11119 4.24372 0
M  V30 51806 O 4671.24 3.84903 4.19331 0
M  V30 51807 N 4672.45 2.32253 5.32014 0
M  V30 51808 H 4675.21 2.71513 1.26889 0
M  V30 51809 H 4672.77 1.5224 0.550861 0
M  V30 51810 H 4674.76 1.79527 3.62701 0
M  V30 51811 H 4673.33 0.955447 2.97641 0
M  V30 51812 H 4672.55 3.30126 2.15431 0
M  V30 51813 H 4673.84 3.98751 3.1603 0
M  V30 51814 H 4673.24 1.71826 5.38973 0
M  V30 51815 H 4671.8 2.34252 6.08251 0
M  V30 51816 N 4675.23 -0.621153 1.44843 0
M  V30 51817 C 4676.14 -1.76115 1.54986 0
M  V30 51818 C 4677.16 -1.68475 0.434987 0
M  V30 51819 O 4678.33 -1.89074 0.693759 0
M  V30 51820 C 4675.4 -3.12535 1.50075 0
M  V30 51821 C 4674.46 -3.31731 2.72494 0
M  V30 51822 C 4673.69 -4.61643 2.67808 0
M  V30 51823 O 4673.91 -5.43094 1.74371 0
M  V30 51824 O 4672.85 -4.83258 3.58811 0
M  V30 51825 H 4676.67 -1.70509 2.51317 0
M  V30 51826 H 4674.26 -0.783598 1.27201 0
M  V30 51827 H 4676.14 -3.93839 1.49896 0
M  V30 51828 H 4674.82 -3.18661 0.568918 0
M  V30 51829 H 4673.72 -2.50067 2.78239 0
M  V30 51830 H 4675.06 -3.30473 3.64758 0
M  V30 51831 N 4676.71 -1.31907 -0.862456 0
M  V30 51832 C 4677.66 -1.16779 -1.95823 0
M  V30 51833 C 4678.64 -0.0767663 -1.60717 0
M  V30 51834 O 4679.83 -0.302468 -1.74396 0
M  V30 51835 C 4676.96 -0.884975 -3.31697 0
M  V30 51836 C 4676.05 -2.01733 -3.73048 0
M  V30 51837 N 4676.44 -3.26514 -3.86293 0
M  V30 51838 C 4674.74 -1.91875 -4.02616 0
M  V30 51839 C 4675.44 -4.00631 -4.21746 0
M  V30 51840 N 4674.42 -3.28862 -4.3284 0
M  V30 51841 H 4678.22 -2.11389 -2.04186 0
M  V30 51842 H 4675.73 -1.23573 -1.05373 0
M  V30 51843 H 4677.73 -0.757564 -4.09959 0
M  V30 51844 H 4676.39 0.0528306 -3.24657 0
M  V30 51845 H 4677.4 -3.61542 -3.70821 0
M  V30 51846 H 4674.08 -1.05607 -4.03923 0
M  V30 51847 H 4675.47 -5.08197 -4.39528 0
M  V30 51848 N 4678.19 1.07773 -1.1499 0
M  V30 51849 C 4679.13 2.16961 -0.838482 0
M  V30 51850 C 4680.13 1.68372 0.186326 0
M  V30 51851 O 4681.33 1.79951 0.0417832 0
M  V30 51852 H 4677.71 0.707997 -0.253464 0
M  V30 51853 H 4679.68 2.40448 -1.76712 0
M  V30 51854 C 4678.43 3.46039 -0.339457 0
M  V30 51855 H 4677.75 3.83809 -1.11941 0
M  V30 51856 H 4679.19 4.23697 -0.16017 0
M  V30 51857 C 4677.65 3.23573 0.938212 0
M  V30 51858 O 4678.18 3.47759 2.01064 0
M  V30 51859 N 4676.39 2.77082 0.876019 0
M  V30 51860 H 4675.93 2.576 0.00312981 0
M  V30 51861 H 4675.89 2.62429 1.73143 0
M  V30 51862 N 4679.66 0.946029 1.26048 0
M  V30 51863 C 4680.61 0.450339 2.28199 0
M  V30 51864 C 4681.61 -0.474913 1.62607 0
M  V30 51865 O 4682.81 -0.352591 1.76513 0
M  V30 51866 H 4679.19 0.127108 0.74118 0
M  V30 51867 H 4681.16 1.32432 2.67403 0
M  V30 51868 C 4679.91 -0.264548 3.46692 0
M  V30 51869 H 4679.23 0.438263 3.97391 0
M  V30 51870 H 4680.67 -0.575531 4.20076 0
M  V30 51871 C 4679.13 -1.48405 3.02452 0
M  V30 51872 O 4679.66 -2.58216 3.07713 0
M  V30 51873 N 4677.87 -1.34234 2.57739 0
M  V30 51874 H 4677.41 -0.448905 2.53658 0
M  V30 51875 H 4677.37 -2.15949 2.28503 0
M  V30 51876 N 4681.14 -1.40518 0.713605 0
M  V30 51877 C 4682.07 -2.33381 0.0744684 0
M  V30 51878 C 4683.05 -1.52787 -0.747682 0
M  V30 51879 O 4684.24 -1.81261 -0.697008 0
M  V30 51880 C 4681.37 -3.36751 -0.84948 0
M  V30 51881 C 4680.32 -4.27793 -0.133097 0
M  V30 51882 C 4679.65 -5.21683 -1.17263 0
M  V30 51883 C 4680.95 -5.12412 1.01152 0
M  V30 51884 H 4682.64 -2.87078 0.850108 0
M  V30 51885 H 4680.19 -1.38032 0.41025 0
M  V30 51886 H 4682.14 -4.00652 -1.30598 0
M  V30 51887 H 4680.87 -2.81445 -1.65699 0
M  V30 51888 H 4679.52 -3.65341 0.303555 0
M  V30 51889 H 4679.17 -4.62684 -1.97314 0
M  V30 51890 H 4678.87 -5.83437 -0.698192 0
M  V30 51891 H 4680.4 -5.88462 -1.62926 0
M  V30 51892 H 4681.81 -5.69778 0.634474 0
M  V30 51893 H 4680.21 -5.83199 1.4142 0
M  V30 51894 H 4681.28 -4.48507 1.84307 0
M  V30 51895 N 4682.62 -0.459644 -1.50748 0
M  V30 51896 C 4683.87 0.0994254 -2.02556 0
M  V30 51897 C 4684.2 1.40395 -1.34175 0
M  V30 51898 O 4683.47 1.8889 -0.463749 0
M  V30 51899 C 4683.76 0.295116 -3.58889 0
M  V30 51900 C 4683.61 -1.02962 -4.37857 0
M  V30 51901 C 4684.93 1.05487 -4.27271 0
M  V30 51902 H 4682.05 0.0346601 -0.736185 0
M  V30 51903 H 4684.69 -0.603002 -1.80177 0
M  V30 51904 H 4682.84 0.89343 -3.78087 0
M  V30 51905 H 4684.51 -1.66363 -4.30257 0
M  V30 51906 H 4682.76 -1.62899 -4.02053 0
M  V30 51907 H 4683.43 -0.846473 -5.45471 0
M  V30 51908 H 4685.9 0.547848 -4.12478 0
M  V30 51909 H 4684.78 1.16058 -5.3649 0
M  V30 51910 H 4685.04 2.08861 -3.89653 0
M  V30 51911 N 4684.1 1.56428 -0.191812 0
M  V30 51912 C 4685.05 2.20275 0.747096 0
M  V30 51913 C 4686.04 1.17292 1.22225 0
M  V30 51914 O 4687.25 1.35445 1.18552 0
M  V30 51915 H 4683.62 0.705894 0.259264 0
M  V30 51916 H 4685.59 2.97827 0.184859 0
M  V30 51917 C 4684.34 2.87363 1.95749 0
M  V30 51918 H 4683.66 3.66347 1.60093 0
M  V30 51919 H 4685.1 3.35479 2.59288 0
M  V30 51920 C 4683.56 1.88223 2.79417 0
M  V30 51921 O 4684.09 1.38046 3.77235 0
M  V30 51922 N 4682.3 1.56525 2.44843 0
M  V30 51923 H 4681.85 1.97522 1.65357 0
M  V30 51924 H 4681.8 0.904475 3.01109 0
M  V30 51925 N 4685.58 -0.0818102 1.57388 0
M  V30 51926 C 4686.82 -0.784008 1.87032 0
M  V30 51927 C 4687.16 -1.77726 0.782751 0
M  V30 51928 O 4686.43 -1.93385 -0.207983 0
M  V30 51929 C 4686.71 -1.50093 3.27329 0
M  V30 51930 C 4686.57 -0.524768 4.46728 0
M  V30 51931 C 4687.89 -2.4483 3.65713 0
M  V30 51932 H 4685 -0.283558 0.680267 0
M  V30 51933 H 4687.65 -0.0473685 1.89941 0
M  V30 51934 H 4685.8 -2.12886 3.2498 0
M  V30 51935 H 4687.47 0.0971732 4.61198 0
M  V30 51936 H 4685.71 0.160758 4.33502 0
M  V30 51937 H 4686.38 -1.06381 5.41652 0
M  V30 51938 H 4688.86 -1.92122 3.69091 0
M  V30 51939 H 4687.73 -2.92002 4.64786 0
M  V30 51940 H 4688 -3.29187 2.95107 0
M  V30 51941 N 4687.06 -1.53597 -0.352963 0
M  V30 51942 C 4688.47 -1.6194 -0.929096 0
M  V30 51943 C 4688.82 -0.494752 -1.8986 0
M  V30 51944 O 4687.94 0.376942 -2.13092 0
M  V30 51945 C 4688.54 -2.93532 -1.69188 0
M  V30 51946 C 4687.1 -3.04169 -2.21717 0
M  V30 51947 C 4686.24 -2.57325 -1.03339 0
M  V30 51948 H 4689.19 -1.58155 -0.131375 0
M  V30 51949 H 4689.22 -2.82043 -2.55406 0
M  V30 51950 H 4688.73 -3.75366 -0.986012 0
M  V30 51951 H 4686.83 -2.26949 -2.95508 0
M  V30 51952 H 4686.94 -4.09473 -2.48733 0
M  V30 51953 H 4685.31 -2.12504 -1.40407 0
M  V30 51954 H 4686.09 -3.41589 -0.342308 0
M  V30 51955 N 4688.53 0.613463 -1.4517 0
M  V30 51956 C 4689.46 1.73534 -1.56231 0
M  V30 51957 C 4690.44 1.6498 -0.414198 0
M  V30 51958 O 4691.63 1.8347 -0.636591 0
M  V30 51959 C 4688.76 3.12122 -1.52306 0
M  V30 51960 C 4687.71 3.35482 -2.65774 0
M  V30 51961 C 4687.04 4.74282 -2.46902 0
M  V30 51962 C 4688.34 3.26311 -4.07822 0
M  V30 51963 H 4690.03 1.64534 -2.50138 0
M  V30 51964 H 4687.58 0.790143 -1.20386 0
M  V30 51965 H 4689.53 3.90398 -1.58642 0
M  V30 51966 H 4688.26 3.21948 -0.549252 0
M  V30 51967 H 4686.92 2.59594 -2.58856 0
M  V30 51968 H 4686.56 4.80834 -1.47674 0
M  V30 51969 H 4686.26 4.90868 -3.22989 0
M  V30 51970 H 4687.79 5.54766 -2.55083 0
M  V30 51971 H 4689.2 3.94468 -4.16014 0
M  V30 51972 H 4687.6 3.54428 -4.84253 0
M  V30 51973 H 4688.67 2.2384 -4.30144 0
M  V30 51974 N 4690.01 1.32363 0.855449 0
M  V30 51975 C 4691.25 1.24193 1.62344 0
M  V30 51976 C 4691.62 -0.193529 1.91022 0
M  V30 51977 O 4692.82 -0.398947 2.65823 0
M  V30 51978 C 4691.09 2.07671 2.90874 0
M  V30 51979 S 4692.65 2.16518 3.81661 0
M  V30 51980 H 4689.46 0.442096 0.556841 0
M  V30 51981 H 4692.07 1.67201 1.01311 0
M  V30 51982 H 4690.77 3.11027 2.6775 0
M  V30 51983 H 4690.3 1.65437 3.56923 0
M  V30 51984 H 4692.32 1.31411 4.78483 0
M  V30 51985 N 4691.49 -1.07162 1.1556 0
M  V30 51986 C 4692.74 -1.80061 0.933048 0
M  V30 51987 C 4693.07 -1.86588 -0.538384 0
M  V30 51988 O 4692.34 -1.35103 -1.3992 0
M  V30 51989 C 4692.63 -3.25016 1.55037 0
M  V30 51990 C 4692.48 -3.26623 3.09253 0
M  V30 51991 C 4693.8 -4.22336 1.23775 0
M  V30 51992 H 4690.92 -0.653685 0.340389 0
M  V30 51993 H 4693.56 -1.25384 1.42754 0
M  V30 51994 H 4691.71 -3.71708 1.12985 0
M  V30 51995 H 4693.38 -2.8816 3.60224 0
M  V30 51996 H 4691.62 -2.65527 3.43042 0
M  V30 51997 H 4692.3 -4.28842 3.47561 0
M  V30 51998 H 4694.77 -3.84045 1.60153 0
M  V30 51999 H 4693.65 -5.22047 1.69582 0
M  V30 52000 H 4693.91 -4.41828 0.155093 0
M  V30 52001 N 4692.97 -0.9527 -1.25544 0
M  V30 52002 C 4694.24 -0.523884 -1.88454 0
M  V30 52003 C 4694.62 0.998806 -1.85976 0
M  V30 52004 O 4693.97 1.86376 -1.32197 0
M  V30 52005 C 4694.18 -1.09832 -3.31267 0
M  V30 52006 C 4695.53 -1.174 -4.08047 0
M  V30 52007 O 4696.55 -1.04973 -3.40381 0
M  V30 52008 O 4695.41 -1.36871 -5.29083 0
M  V30 52009 H 4692.51 -0.172513 -0.808807 0
M  V30 52010 H 4695.05 -1.04601 -1.33629 0
M  V30 52011 H 4693.83 -2.14162 -3.27491 0
M  V30 52012 H 4693.45 -0.559329 -3.93646 0
M  V30 52013 N 4694.45 1.40138 -0.721047 0
M  V30 52014 C 4695.38 2.2819 -0.0209962 0
M  V30 52015 C 4696.36 1.43635 0.762078 0
M  V30 52016 O 4697.54 1.73042 0.747572 0
M  V30 52017 C 4694.67 3.24285 0.977601 0
M  V30 52018 C 4693.71 4.25549 0.284686 0
M  V30 52019 S 4694.55 5.26244 -0.991354 0
M  V30 52020 C 4695.7 6.259 0.00500137 0
M  V30 52021 H 4695.94 2.87216 -0.76775 0
M  V30 52022 H 4693.47 1.45654 -0.512284 0
M  V30 52023 H 4695.43 3.80173 1.54851 0
M  V30 52024 H 4694.09 2.64306 1.6971 0
M  V30 52025 H 4693.28 4.93158 1.03979 0
M  V30 52026 H 4692.88 3.73388 -0.213815 0
M  V30 52027 H 4695.17 6.72146 0.850042 0
M  V30 52028 H 4696.12 7.05221 -0.637847 0
M  V30 52029 H 4696.53 5.63278 0.371168 0
M  V30 52030 N 4695.92 0.467632 1.50502 0
M  V30 52031 C 4697.16 -0.0873396 2.04213 0
M  V30 52032 C 4697.53 -1.37296 1.34216 0
M  V30 52033 O 4698.73 -2.01009 1.78463 0
M  V30 52034 C 4697 -0.270446 3.56375 0
M  V30 52035 S 4698.56 -0.784471 4.31731 0
M  V30 52036 H 4695.38 -0.0175903 0.710782 0
M  V30 52037 H 4697.98 0.63398 1.84935 0
M  V30 52038 H 4696.68 0.671085 4.04876 0
M  V30 52039 H 4696.21 -1.01798 3.80001 0
M  V30 52040 H 4698.23 -2.05833 4.51495 0
M  V30 52041 N 4697.4 -1.56324 0.200105 0
M  V30 52042 C 4698.33 -2.22321 -0.713838 0
M  V30 52043 C 4699.31 -1.18792 -1.21748 0
M  V30 52044 O 4700.5 -1.47314 -1.2654 0
M  V30 52045 C 4697.63 -2.88646 -1.93134 0
M  V30 52046 C 4696.58 -3.98463 -1.56241 0
M  V30 52047 C 4695.91 -4.51977 -2.85693 0
M  V30 52048 C 4697.21 -5.16614 -0.768565 0
M  V30 52049 H 4698.9 -2.98952 -0.16365 0
M  V30 52050 H 4696.45 -1.43793 -0.0772713 0
M  V30 52051 H 4698.4 -3.335 -2.57597 0
M  V30 52052 H 4697.12 -2.09428 -2.50614 0
M  V30 52053 H 4695.78 -3.54308 -0.941346 0
M  V30 52054 H 4695.43 -3.69515 -3.41274 0
M  V30 52055 H 4695.13 -5.2608 -2.61751 0
M  V30 52056 H 4696.66 -4.99536 -3.51136 0
M  V30 52057 H 4698.07 -5.57982 -1.31641 0
M  V30 52058 H 4696.47 -5.96815 -0.627076 0
M  V30 52059 H 4697.54 -4.84357 0.229338 0
M  V30 52060 N 4698.88 0.0734624 -1.57429 0
M  V30 52061 C 4699.83 1.10621 -2.04611 0
M  V30 52062 C 4700.82 1.40178 -0.951137 0
M  V30 52063 O 4702.03 1.39604 -1.13625 0
M  V30 52064 H 4698.4 0.374065 -0.652364 0
M  V30 52065 H 4700.37 0.682115 -2.90499 0
M  V30 52066 C 4699.12 2.41204 -2.50432 0
M  V30 52067 H 4698.45 2.19311 -3.3428 0
M  V30 52068 H 4699.89 3.11917 -2.872 0
M  V30 52069 C 4698.34 3.07045 -1.38655 0
M  V30 52070 O 4698.87 3.95053 -0.727721 0
M  V30 52071 N 4697.08 2.67642 -1.13209 0
M  V30 52072 H 4696.63 1.96163 -1.66966 0
M  V30 52073 H 4696.59 3.12018 -0.386256 0
M  V30 52074 N 4700.36 1.53782 0.344812 0
M  V30 52075 C 4701.6 1.72161 1.08314 0
M  V30 52076 C 4701.96 0.478284 1.8636 0
M  V30 52077 O 4701.25 -0.529088 1.8415 0
M  V30 52078 C 4701.45 2.92414 2.05496 0
M  V30 52079 C 4701.27 4.28323 1.37002 0
M  V30 52080 C 4700.04 4.92836 1.1154 0
M  V30 52081 C 4702.24 5.08089 0.796892 0
M  V30 52082 N 4700.22 6.12621 0.396143 0
M  V30 52083 C 4701.6 6.19651 0.208118 0
M  V30 52084 C 4703.65 4.92989 0.697614 0
M  V30 52085 C 4702.35 7.17761 -0.470275 0
M  V30 52086 C 4704.38 5.91391 0.032963 0
M  V30 52087 C 4703.74 7.0229 -0.544846 0
M  V30 52088 H 4699.84 0.68303 0.380781 0
M  V30 52089 H 4702.42 1.91212 0.366893 0
M  V30 52090 H 4700.6 2.74867 2.74414 0
M  V30 52091 H 4702.33 2.99519 2.72158 0
M  V30 52092 H 4699.08 4.52367 1.40218 0
M  V30 52093 H 4699.51 6.76981 0.0512739 0
M  V30 52094 H 4704.15 4.07418 1.13008 0
M  V30 52095 H 4701.87 8.02907 -0.914633 0
M  V30 52096 H 4705.45 5.81784 -0.0432055 0
M  V30 52097 H 4704.33 7.77125 -1.051 0
M  V30 52098 N 4701.84 -0.605756 1.45494 0
M  V30 52099 C 4702.77 -1.72703 1.57149 0
M  V30 52100 C 4703.75 -1.64758 0.422942 0
M  V30 52101 O 4704.93 -1.8313 0.646312 0
M  V30 52102 C 4702.06 -3.1131 1.53959 0
M  V30 52103 C 4701.02 -3.34068 2.67549 0
M  V30 52104 C 4700.34 -4.72966 2.49414 0
M  V30 52105 C 4701.64 -3.24143 4.09547 0
M  V30 52106 H 4703.34 -1.63205 2.51007 0
M  V30 52107 H 4700.88 -0.783747 1.20803 0
M  V30 52108 H 4702.84 -3.89551 1.6071 0
M  V30 52109 H 4701.56 -3.21653 0.566318 0
M  V30 52110 H 4700.22 -2.58217 2.60229 0
M  V30 52111 H 4699.87 -4.80044 1.50221 0
M  V30 52112 H 4699.57 -4.89149 3.25588 0
M  V30 52113 H 4701.09 -5.53405 2.58021 0
M  V30 52114 H 4702.5 -3.92257 4.181 0
M  V30 52115 H 4700.9 -3.51855 4.86126 0
M  V30 52116 H 4701.97 -2.21555 4.31325 0
M  V30 52117 N 4703.31 -1.32814 -0.848417 0
M  V30 52118 C 4704.24 -1.24888 -1.97295 0
M  V30 52119 C 4705.23 -0.131416 -1.69592 0
M  V30 52120 O 4706.41 -0.31962 -1.91552 0
M  V30 52121 C 4703.54 -0.977577 -3.33258 0
M  V30 52122 C 4702.49 -2.05695 -3.75331 0
M  V30 52123 C 4701.82 -1.63795 -5.08995 0
M  V30 52124 C 4703.12 -3.47268 -3.90131 0
M  V30 52125 H 4704.81 -2.18974 -2.04184 0
M  V30 52126 H 4702.36 -1.05416 -0.980992 0
M  V30 52127 H 4704.31 -0.908658 -4.11487 0
M  V30 52128 H 4703.04 -0.00109483 -3.266 0
M  V30 52129 H 4701.7 -2.11613 -2.99358 0
M  V30 52130 H 4701.34 -0.648744 -4.98799 0
M  V30 52131 H 4701.04 -2.36019 -5.38116 0
M  V30 52132 H 4702.57 -1.58351 -5.8971 0
M  V30 52133 H 4703.98 -3.43904 -4.58697 0
M  V30 52134 H 4702.38 -4.17895 -4.30678 0
M  V30 52135 H 4703.45 -3.86472 -2.9286 0
M  V30 52136 N 4704.79 1.06547 -1.16127 0
M  V30 52137 C 4705.74 2.1606 -0.861447 0
M  V30 52138 C 4706.73 1.6856 0.168458 0
M  V30 52139 O 4707.94 1.79986 0.0226946 0
M  V30 52140 H 4704.32 0.705269 -0.260959 0
M  V30 52141 H 4706.29 2.3856 -1.79252 0
M  V30 52142 C 4705.04 3.45659 -0.37614 0
M  V30 52143 H 4704.36 3.826 -1.16005 0
M  V30 52144 H 4705.8 4.23504 -0.2051 0
M  V30 52145 C 4704.26 3.24549 0.90384 0
M  V30 52146 O 4704.79 3.49872 1.97365 0
M  V30 52147 N 4702.99 2.77995 0.846582 0
M  V30 52148 H 4702.54 2.57589 -0.0241923 0
M  V30 52149 H 4702.5 2.6425 1.7035 0
M  V30 52150 N 4706.27 0.959345 1.25037 0
M  V30 52151 C 4707.52 0.617592 1.93167 0
M  V30 52152 C 4707.85 -0.84392 1.74905 0
M  V30 52153 O 4707.12 -1.60611 1.09702 0
M  V30 52154 C 4707.41 0.982857 3.46427 0
M  V30 52155 C 4707.26 2.50045 3.73895 0
M  V30 52156 C 4708.58 0.51133 4.37119 0
M  V30 52157 H 4705.7 0.225844 0.701544 0
M  V30 52158 H 4708.34 1.19684 1.47566 0
M  V30 52159 H 4706.49 0.489942 3.85398 0
M  V30 52160 H 4708.16 3.06749 3.44533 0
M  V30 52161 H 4706.41 2.93609 3.19337 0
M  V30 52162 H 4707.08 2.70652 4.81094 0
M  V30 52163 H 4709.55 0.934217 4.05477 0
M  V30 52164 H 4708.43 0.795551 5.43104 0
M  V30 52165 H 4708.69 -0.58868 4.38163 0
M  V30 52166 N 4707.75 -1.39754 0.728469 0
M  V30 52167 C 4708.98 -2.0465 0.283189 0
M  V30 52168 C 4709.39 -1.55024 -1.08463 0
M  V30 52169 O 4708.73 -0.707402 -1.69533 0
M  V30 52170 C 4708.79 -3.58946 0.199435 0
M  V30 52171 C 4708.46 -4.3152 1.50465 0
M  V30 52172 C 4709.45 -4.58601 2.4491 0
M  V30 52173 C 4707.14 -4.70189 1.76714 0
M  V30 52174 C 4709.13 -5.23353 3.63841 0
M  V30 52175 C 4706.82 -5.3467 2.95924 0
M  V30 52176 C 4707.82 -5.61184 3.89309 0
M  V30 52177 O 4707.5 -6.2433 5.06426 0
M  V30 52178 H 4707.24 -0.664773 0.122689 0
M  V30 52179 H 4709.79 -1.79909 0.991051 0
M  V30 52180 H 4708.02 -3.82558 -0.564475 0
M  V30 52181 H 4709.71 -4.05341 -0.212983 0
M  V30 52182 H 4710.48 -4.29179 2.25898 0
M  V30 52183 H 4706.35 -4.48912 1.04875 0
M  V30 52184 H 4709.9 -5.43965 4.36747 0
M  V30 52185 H 4705.8 -5.63513 3.14839 0
M  V30 52186 H 4706.56 -6.42825 5.06674 0
M  V30 52187 N 4709.23 -0.475607 -1.50252 0
M  V30 52188 C 4710.5 0.139617 -1.95101 0
M  V30 52189 C 4710.88 1.5655 -1.41617 0
M  V30 52190 O 4710.23 2.19954 -0.61907 0
M  V30 52191 C 4710.44 0.0783072 -3.48912 0
M  V30 52192 C 4711.79 0.264946 -4.23773 0
M  V30 52193 O 4712.81 0.154683 -3.55864 0
M  V30 52194 O 4711.67 0.488135 -5.44316 0
M  V30 52195 H 4708.77 0.109208 -0.819758 0
M  V30 52196 H 4711.31 -0.536333 -1.61002 0
M  V30 52197 H 4710.08 -0.917052 -3.80402 0
M  V30 52198 H 4709.71 0.795518 -3.8956 0
M  V30 52199 N 4710.7 1.56216 -0.208392 0
M  V30 52200 C 4711.93 2.02338 0.432079 0
M  V30 52201 C 4712.35 1.08839 1.54271 0
M  V30 52202 O 4711.7 0.0956103 1.82249 0
M  V30 52203 C 4711.76 3.48075 0.976016 0
M  V30 52204 O 4711.48 4.38007 -0.090316 0
M  V30 52205 C 4712.98 4.09779 1.69104 0
M  V30 52206 H 4710.2 0.662388 0.107156 0
M  V30 52207 H 4712.74 2.01965 -0.320994 0
M  V30 52208 H 4710.9 3.49105 1.67941 0
M  V30 52209 H 4711.31 5.23544 0.316517 0
M  V30 52210 H 4712.78 5.13563 2.02379 0
M  V30 52211 H 4713.26 3.54008 2.59952 0
M  V30 52212 H 4713.87 4.1256 1.03317 0
M  V30 52213 N 4712.18 -0.0651125 1.57465 0
M  V30 52214 C 4713.43 -0.76149 1.87205 0
M  V30 52215 C 4713.75 -1.77775 0.801306 0
M  V30 52216 O 4713.02 -1.95167 -0.169302 0
M  V30 52217 H 4711.6 -0.284227 0.690814 0
M  V30 52218 H 4714.26 -0.0396142 1.9486 0
M  V30 52219 H 4713.36 -1.27355 2.84933 0
M  V30 52220 N 4713.66 -1.53962 -0.336652 0
M  V30 52221 C 4715.08 -1.4438 -0.68019 0
M  V30 52222 C 4715.28 -0.606101 -1.92168 0
M  V30 52223 O 4714.33 -0.0997767 -2.52303 0
M  V30 52224 C 4715.65 -2.87948 -0.866398 0
M  V30 52225 C 4717.19 -2.97767 -0.964577 0
M  V30 52226 C 4717.67 -4.42457 -1.18305 0
M  V30 52227 N 4719.16 -4.46012 -1.25009 0
M  V30 52228 C 4719.89 -5.55107 -1.43678 0
M  V30 52229 N 4719.39 -6.74196 -1.59474 0
M  V30 52230 N 4721.18 -5.42732 -1.46281 0
M  V30 52231 H 4713.33 -2.06916 0.479527 0
M  V30 52232 H 4715.6 -0.935629 0.152652 0
M  V30 52233 H 4715.3 -3.51691 -0.0255701 0
M  V30 52234 H 4715.18 -3.33299 -1.76611 0
M  V30 52235 H 4717.56 -2.3416 -1.79592 0
M  V30 52236 H 4717.65 -2.55766 -0.0416181 0
M  V30 52237 H 4717.29 -5.06647 -0.35661 0
M  V30 52238 H 4717.22 -4.82055 -2.11968 0
M  V30 52239 H 4719.71 -3.602 -1.14299 0
M  V30 52240 H 4720.02 -7.53101 -1.73374 0
M  V30 52241 H 4718.37 -6.77128 -1.56597 0
M  V30 52242 H 4721.56 -4.48651 -1.33527 0
M  V30 52243 H 4721.73 -6.27812 -1.60488 0
M  V30 52244 N 4715.14 0.598031 -1.45813 0
M  V30 52245 C 4716.37 1.38316 -1.53871 0
M  V30 52246 C 4716.78 1.87991 -0.174546 0
M  V30 52247 O 4716.14 1.62759 0.82557 0
M  V30 52248 C 4716.19 2.58116 -2.53098 0
M  V30 52249 O 4715.91 2.10503 -3.84214 0
M  V30 52250 C 4717.41 3.5086 -2.70947 0
M  V30 52251 H 4714.63 0.423074 -0.520816 0
M  V30 52252 H 4717.18 0.72846 -1.91086 0
M  V30 52253 H 4715.33 3.19608 -2.18929 0
M  V30 52254 H 4715.74 2.88409 -4.38087 0
M  V30 52255 H 4717.22 4.31439 -3.44332 0
M  V30 52256 H 4717.7 4.01816 -1.77315 0
M  V30 52257 H 4718.3 2.95215 -3.06151 0
M  V30 52258 N 4716.62 1.33262 0.841362 0
M  V30 52259 C 4717.87 1.24332 1.5933 0
M  V30 52260 C 4718.19 -0.191496 1.94057 0
M  V30 52261 O 4717.46 -1.11961 1.60753 0
M  V30 52262 H 4716.04 0.457194 0.590747 0
M  V30 52263 H 4718.7 1.66951 1.00566 0
M  V30 52264 H 4717.79 1.83529 2.52435 0
M  V30 52265 N 4718.1 -1.0593 1.1669 0
M  V30 52266 C 4719.51 -1.30935 0.912588 0
M  V30 52267 C 4719.71 -1.96804 -0.432464 0
M  V30 52268 O 4718.77 -2.23697 -1.17115 0
M  V30 52269 C 4720.08 -2.18642 2.06437 0
M  V30 52270 C 4721.63 -2.32047 2.10055 0
M  V30 52271 C 4722.1 -3.2311 3.24598 0
M  V30 52272 N 4723.59 -3.30695 3.24338 0
M  V30 52273 C 4724.33 -4.01259 4.09608 0
M  V30 52274 N 4723.83 -4.74314 5.04973 0
M  V30 52275 N 4725.62 -3.97347 3.97583 0
M  V30 52276 H 4717.77 -0.615705 2.0328 0
M  V30 52277 H 4720.03 -0.334046 0.887196 0
M  V30 52278 H 4719.74 -1.77523 3.03609 0
M  V30 52279 H 4719.61 -3.19245 2.00905 0
M  V30 52280 H 4722 -2.72411 1.13474 0
M  V30 52281 H 4722.08 -1.31099 2.19651 0
M  V30 52282 H 4721.72 -2.83462 4.2144 0
M  V30 52283 H 4721.65 -4.24046 3.12238 0
M  V30 52284 H 4724.15 -2.78635 2.55286 0
M  V30 52285 H 4724.46 -5.25696 5.66448 0
M  V30 52286 H 4722.8 -4.73282 5.08949 0
M  V30 52287 H 4725.99 -3.39394 3.22381 0
M  V30 52288 H 4726.17 -4.52072 4.64257 0
M  V30 52289 N 4719.57 -0.965962 -1.24527 0
M  V30 52290 C 4720.82 -0.622504 -1.91854 0
M  V30 52291 C 4721.14 0.845944 -1.76361 0
M  V30 52292 O 4722.34 1.29985 -2.38361 0
M  V30 52293 C 4720.8 -1.06272 -3.43852 0
M  V30 52294 C 4720.41 -2.5545 -3.68034 0
M  V30 52295 C 4722.15 -0.792329 -4.1704 0
M  V30 52296 C 4720.06 -2.93214 -5.13595 0
M  V30 52297 H 4718.99 -0.229117 -0.718346 0
M  V30 52298 H 4721.64 -1.17193 -1.41202 0
M  V30 52299 H 4720.02 -0.441614 -3.9353 0
M  V30 52300 H 4721.19 -3.22676 -3.28963 0
M  V30 52301 H 4719.51 -2.80081 -3.08129 0
M  V30 52302 H 4722.11 -1.0505 -5.24279 0
M  V30 52303 H 4722.45 0.271438 -4.15414 0
M  V30 52304 H 4722.98 -1.37432 -3.73306 0
M  V30 52305 H 4719.72 -3.98654 -5.20341 0
M  V30 52306 H 4719.24 -2.3067 -5.53671 0
M  V30 52307 H 4720.92 -2.83024 -5.81813 0
M  V30 52308 N 4721.05 1.39365 -0.73587 0
M  V30 52309 C 4722.47 1.54203 -0.411546 0
M  V30 52310 C 4722.67 1.70272 1.07749 0
M  V30 52311 O 4721.72 1.7037 1.8636 0
M  V30 52312 C 4723.04 2.75921 -1.19533 0
M  V30 52313 C 4724.58 2.89757 -1.18364 0
M  V30 52314 C 4725.06 4.14414 -1.95 0
M  V30 52315 N 4726.55 4.21455 -1.92171 0
M  V30 52316 C 4727.29 5.16862 -2.48277 0
M  V30 52317 N 4726.78 6.18052 -3.13023 0
M  V30 52318 N 4728.57 5.09085 -2.38305 0
M  V30 52319 H 4720.73 1.27183 -1.70113 0
M  V30 52320 H 4722.99 0.616491 -0.720168 0
M  V30 52321 H 4722.69 2.70393 -2.24901 0
M  V30 52322 H 4722.57 3.68611 -0.800351 0
M  V30 52323 H 4724.96 2.94777 -0.138078 0
M  V30 52324 H 4725.04 1.98128 -1.618 0
M  V30 52325 H 4724.68 4.10155 -2.99558 0
M  V30 52326 H 4724.61 5.05089 -1.48971 0
M  V30 52327 H 4727.1 3.48974 -1.45003 0
M  V30 52328 H 4727.41 6.87313 -3.53299 0
M  V30 52329 H 4725.76 6.18437 -3.17113 0
M  V30 52330 H 4728.95 4.28966 -1.87365 0
M  V30 52331 H 4729.12 5.83262 -2.82329 0
M  V30 52332 N 4722.53 0.483569 1.49998 0
M  V30 52333 C 4723.78 -0.0671879 2.02689 0
M  V30 52334 C 4724.11 -1.38242 1.36392 0
M  V30 52335 O 4723.38 -1.88129 0.493741 0
M  V30 52336 C 4723.67 -0.237983 3.59313 0
M  V30 52337 C 4723.52 1.09915 4.36164 0
M  V30 52338 C 4724.84 -0.986765 4.28895 0
M  V30 52339 H 4721.96 -0.0229437 0.736643 0
M  V30 52340 H 4724.6 0.63159 1.79195 0
M  V30 52341 H 4722.75 -0.833167 3.79461 0
M  V30 52342 H 4724.42 1.73187 4.27556 0
M  V30 52343 H 4722.66 1.69275 3.9941 0
M  V30 52344 H 4723.34 0.933146 5.44056 0
M  V30 52345 H 4725.81 -0.482157 4.13297 0
M  V30 52346 H 4724.69 -1.07509 5.38269 0
M  V30 52347 H 4724.95 -2.02636 3.92926 0
M  V30 52348 N 4724.01 -1.56103 0.216674 0
M  V30 52349 C 4724.94 -2.23066 -0.690218 0
M  V30 52350 C 4725.92 -1.20076 -1.20481 0
M  V30 52351 O 4727.1 -1.48647 -1.2497 0
M  V30 52352 C 4724.23 -2.90678 -1.90061 0
M  V30 52353 C 4723.19 -4.00098 -1.52006 0
M  V30 52354 C 4722.51 -4.54982 -2.80883 0
M  V30 52355 C 4723.81 -5.174 -0.713728 0
M  V30 52356 H 4725.51 -2.99109 -0.131932 0
M  V30 52357 H 4723.05 -1.43866 -0.0620158 0
M  V30 52358 H 4725.01 -3.36213 -2.54045 0
M  V30 52359 H 4723.73 -2.12074 -2.48379 0
M  V30 52360 H 4722.39 -3.55287 -0.903714 0
M  V30 52361 H 4722.04 -3.73114 -3.37335 0
M  V30 52362 H 4721.74 -5.28826 -2.56157 0
M  V30 52363 H 4723.26 -5.03232 -3.45818 0
M  V30 52364 H 4724.68 -5.59347 -1.25715 0
M  V30 52365 H 4723.07 -5.97446 -0.563741 0
M  V30 52366 H 4724.14 -4.84087 0.280698 0
M  V30 52367 N 4725.49 0.0567608 -1.57498 0
M  V30 52368 C 4726.71 0.769334 -1.92603 0
M  V30 52369 C 4727.14 1.69556 -0.814396 0
M  V30 52370 O 4726.49 1.79812 0.231839 0
M  V30 52371 C 4726.54 1.52622 -3.26709 0
M  V30 52372 O 4725.65 2.63786 -3.17003 0
M  V30 52373 H 4724.99 0.208887 -0.630287 0
M  V30 52374 H 4727.52 0.0205078 -2.0459 0
M  V30 52375 H 4727.53 1.90222 -3.60943 0
M  V30 52376 H 4726.2 0.846732 -4.07189 0
M  V30 52377 H 4724.78 2.28933 -2.94354 0
M  V30 52378 N 4726.96 1.54139 0.328482 0
M  V30 52379 C 4728.21 1.72108 1.067 0
M  V30 52380 C 4728.54 0.492178 1.8817 0
M  V30 52381 O 4727.79 -0.526087 1.88496 0
M  V30 52382 C 4728.09 2.94577 2.02383 0
M  V30 52383 C 4727.76 4.29549 1.37107 0
M  V30 52384 C 4726.42 4.66245 1.19036 0
M  V30 52385 C 4728.77 5.13333 0.902151 0
M  V30 52386 C 4726.1 5.84327 0.527126 0
M  V30 52387 C 4728.45 6.32095 0.252765 0
M  V30 52388 C 4727.12 6.67473 0.0598554 0
M  V30 52389 H 4726.39 0.629789 0.390444 0
M  V30 52390 H 4729.03 1.88373 0.344664 0
M  V30 52391 H 4727.34 2.72979 2.81051 0
M  V30 52392 H 4729.04 3.05674 2.59546 0
M  V30 52393 H 4725.63 4.00676 1.52174 0
M  V30 52394 H 4729.81 4.85503 1.02957 0
M  V30 52395 H 4725.07 6.10301 0.36642 0
M  V30 52396 H 4729.24 6.96299 -0.118611 0
M  V30 52397 H 4726.87 7.58831 -0.456095 0
M  V30 52398 N 4728.44 -0.59029 1.46128 0
M  V30 52399 C 4729.39 -1.69989 1.56117 0
M  V30 52400 C 4730.36 -1.61064 0.405924 0
M  V30 52401 O 4731.54 -1.80388 0.621676 0
M  V30 52402 C 4728.68 -3.08321 1.55024 0
M  V30 52403 C 4727.8 -3.27926 2.81227 0
M  V30 52404 C 4726.93 -4.56463 2.71689 0
M  V30 52405 C 4725.97 -4.69386 3.92866 0
M  V30 52406 N 4725.11 -5.89241 3.81759 0
M  V30 52407 H 4729.95 -1.60788 2.50901 0
M  V30 52408 H 4727.48 -0.783755 1.24482 0
M  V30 52409 H 4729.44 -3.88378 1.52376 0
M  V30 52410 H 4728.07 -3.16437 0.637778 0
M  V30 52411 H 4727.12 -2.41525 2.93887 0
M  V30 52412 H 4728.44 -3.33344 3.71057 0
M  V30 52413 H 4727.59 -5.44739 2.67104 0
M  V30 52414 H 4726.33 -4.53471 1.79486 0
M  V30 52415 H 4725.33 -3.7953 3.9779 0
M  V30 52416 H 4726.56 -4.74163 4.86155 0
M  V30 52417 H 4724.51 -5.8726 2.92338 0
M  V30 52418 H 4724.42 -5.95894 4.65238 0
M  V30 52419 H 4725.69 -6.79967 3.81136 0
M  V30 52420 N 4729.92 -1.33707 -0.834283 0
M  V30 52421 C 4731.15 -1.28473 -1.6218 0
M  V30 52422 C 4731.56 0.14346 -1.88254 0
M  V30 52423 O 4730.92 1.08704 -1.46594 0
M  V30 52424 C 4730.97 -2.06184 -2.96935 0
M  V30 52425 O 4730.69 -3.43432 -2.72004 0
M  V30 52426 C 4732.19 -2.08214 -3.91359 0
M  V30 52427 H 4729.41 -0.442418 -0.504487 0
M  V30 52428 H 4731.96 -1.76148 -1.03885 0
M  V30 52429 H 4730.11 -1.62179 -3.51819 0
M  V30 52430 H 4730.53 -3.83465 -3.57847 0
M  V30 52431 H 4732 -2.67034 -4.83112 0
M  V30 52432 H 4732.48 -1.07358 -4.25877 0
M  V30 52433 H 4733.08 -2.52258 -3.42412 0
M  V30 52434 N 4731.4 1.0531 -1.1725 0
M  V30 52435 C 4732.65 1.77938 -0.958257 0
M  V30 52436 C 4732.97 1.8809 0.51449 0
M  V30 52437 O 4732.24 1.3968 1.37354 0
M  V30 52438 H 4730.82 0.659103 -0.351556 0
M  V30 52439 H 4733.48 1.2716 -1.47703 0
M  V30 52440 H 4732.58 2.79658 -1.38556 0
M  V30 52441 N 4732.88 0.972553 1.24013 0
M  V30 52442 C 4734.13 0.63267 1.91521 0
M  V30 52443 C 4734.44 -0.836579 1.76807 0
M  V30 52444 O 4735.64 -1.28719 2.39047 0
M  V30 52445 C 4734.1 1.08094 3.43284 0
M  V30 52446 C 4733.71 2.57398 3.66674 0
M  V30 52447 C 4735.45 0.814435 4.16614 0
M  V30 52448 C 4733.36 2.95933 5.12033 0
M  V30 52449 H 4732.29 0.232924 0.717121 0
M  V30 52450 H 4734.94 1.17941 1.40578 0
M  V30 52451 H 4733.32 0.462478 3.9329 0
M  V30 52452 H 4734.5 3.24416 3.27247 0
M  V30 52453 H 4732.81 2.81711 3.06639 0
M  V30 52454 H 4735.41 1.07829 5.23715 0
M  V30 52455 H 4735.75 -0.249404 4.15552 0
M  V30 52456 H 4736.28 1.3941 3.72572 0
M  V30 52457 H 4733.02 4.01408 5.1822 0
M  V30 52458 H 4732.54 2.33603 5.5244 0
M  V30 52459 H 4734.22 2.86106 5.80304 0
M  V30 52460 N 4734.35 -1.38973 0.74325 0
M  V30 52461 C 4735.6 -1.9958 0.291662 0
M  V30 52462 C 4735.92 -1.5966 -1.12995 0
M  V30 52463 O 4737.12 -2.13163 -1.68148 0
M  V30 52464 C 4735.58 -3.56811 0.470517 0
M  V30 52465 C 4735.19 -4.05689 1.90055 0
M  V30 52466 C 4736.93 -4.24422 0.0811201 0
M  V30 52467 C 4734.84 -5.55523 2.02851 0
M  V30 52468 H 4733.77 -0.746611 0.105298 0
M  V30 52469 H 4736.42 -1.58869 0.918313 0
M  V30 52470 H 4734.8 -3.95359 -0.22516 0
M  V30 52471 H 4735.97 -3.78455 2.62885 0
M  V30 52472 H 4734.29 -3.50767 2.24391 0
M  V30 52473 H 4736.89 -5.34473 0.155633 0
M  V30 52474 H 4737.23 -4.04965 -0.964828 0
M  V30 52475 H 4737.76 -3.91077 0.728262 0
M  V30 52476 H 4734.5 -5.79871 3.05664 0
M  V30 52477 H 4734.02 -5.84533 1.34469 0
M  V30 52478 H 4735.7 -6.21063 1.81357 0
M  V30 52479 N 4735.83 -0.491517 -1.49739 0
M  V30 52480 C 4737.06 0.0556448 -2.07325 0
M  V30 52481 C 4737.48 1.3092 -1.35061 0
M  V30 52482 O 4736.84 1.76732 -0.404427 0
M  V30 52483 C 4736.89 0.301948 -3.59334 0
M  V30 52484 O 4735.99 1.37854 -3.88677 0
M  V30 52485 H 4735.33 -0.0220189 -0.663635 0
M  V30 52486 H 4737.86 -0.68842 -1.92671 0
M  V30 52487 H 4737.87 0.536322 -4.0446 0
M  V30 52488 H 4736.55 -0.613975 -4.11343 0
M  V30 52489 H 4735.13 1.12987 -3.55371 0
M  V30 52490 N 4737.31 1.55986 -0.224949 0
M  V30 52491 C 4738.24 2.23428 0.678378 0
M  V30 52492 C 4739.22 1.20714 1.19842 0
M  V30 52493 O 4740.41 1.49308 1.2418 0
M  V30 52494 C 4737.54 2.91682 1.88517 0
M  V30 52495 C 4736.49 4.00898 1.49882 0
M  V30 52496 C 4735.82 4.56465 2.78467 0
M  V30 52497 C 4737.12 5.17772 0.686279 0
M  V30 52498 H 4738.81 2.99175 0.116068 0
M  V30 52499 H 4736.36 1.43897 0.0543854 0
M  V30 52500 H 4738.31 3.37556 2.52258 0
M  V30 52501 H 4737.03 2.13389 2.47251 0
M  V30 52502 H 4735.69 3.55761 0.88486 0
M  V30 52503 H 4735.34 3.74898 3.35352 0
M  V30 52504 H 4735.04 5.30177 2.53349 0
M  V30 52505 H 4736.56 5.05059 3.43144 0
M  V30 52506 H 4737.98 5.60005 1.22747 0
M  V30 52507 H 4736.38 5.97737 0.532049 0
M  V30 52508 H 4737.45 4.83931 -0.306366 0
M  V30 52509 N 4738.79 -0.0484076 1.57526 0
M  V30 52510 C 4740.03 -0.748129 1.90217 0
M  V30 52511 C 4740.39 -1.73542 0.821408 0
M  V30 52512 O 4741.59 -2.48197 1.03207 0
M  V30 52513 C 4739.86 -1.41715 3.28103 0
M  V30 52514 S 4741.42 -2.14871 3.82591 0
M  V30 52515 H 4738.24 -0.248283 0.666241 0
M  V30 52516 H 4740.84 -0.00336315 1.955 0
M  V30 52517 H 4739.55 -0.685101 4.04641 0
M  V30 52518 H 4739.08 -2.20087 3.26076 0
M  V30 52519 H 4741.09 -3.41742 3.59759 0
M  V30 52520 N 4740.27 -1.54311 -0.320303 0
M  V30 52521 C 4741.21 -1.83923 -1.39431 0
M  V30 52522 C 4742.18 -0.686578 -1.51246 0
M  V30 52523 O 4743.37 -0.933327 -1.66414 0
M  V30 52524 C 4740.51 -2.0751 -2.75742 0
M  V30 52525 C 4739.62 -3.35187 -2.72532 0
M  V30 52526 C 4738.76 -3.48718 -4.00711 0
M  V30 52527 C 4737.8 -4.70257 -3.91822 0
M  V30 52528 N 4736.93 -4.80697 -5.11737 0
M  V30 52529 H 4741.77 -2.75548 -1.13479 0
M  V30 52530 H 4739.31 -1.36461 -0.549261 0
M  V30 52531 H 4741.27 -2.19178 -3.54988 0
M  V30 52532 H 4739.9 -1.19173 -2.99996 0
M  V30 52533 H 4738.95 -3.3224 -1.85259 0
M  V30 52534 H 4740.26 -4.24543 -2.61848 0
M  V30 52535 H 4739.42 -3.59945 -4.88389 0
M  V30 52536 H 4738.15 -2.57459 -4.14205 0
M  V30 52537 H 4737.16 -4.59083 -3.02528 0
M  V30 52538 H 4738.38 -5.62904 -3.7989 0
M  V30 52539 H 4736.33 -3.92356 -5.25731 0
M  V30 52540 H 4736.25 -5.64025 -5.034 0
M  V30 52541 H 4737.52 -4.9626 -6.01121 0
M  V30 52542 N 4741.74 0.582532 -1.46439 0
M  V30 52543 C 4742.71 1.67361 -1.56598 0
M  V30 52544 C 4743.71 1.54574 -0.443126 0
M  V30 52545 O 4744.9 1.59188 -0.707436 0
M  V30 52546 C 4742.03 3.06786 -1.48645 0
M  V30 52547 H 4743.22 1.59711 -2.53835 0
M  V30 52548 H 4740.78 0.800385 -1.34252 0
M  V30 52549 H 4741.51 3.19991 -0.526875 0
M  V30 52550 H 4741.3 3.17476 -2.30112 0
M  V30 52551 H 4742.79 3.86212 -1.5884 0
M  V30 52552 N 4743.22 1.34147 0.82718 0
M  V30 52553 C 4744.17 1.21929 1.92658 0
M  V30 52554 C 4745.16 0.119351 1.60457 0
M  V30 52555 O 4746.35 0.3486 1.73533 0
M  V30 52556 C 4743.48 0.972607 3.29234 0
M  V30 52557 C 4742.56 2.11553 3.67568 0
M  V30 52558 N 4742.95 3.36641 3.77501 0
M  V30 52559 C 4741.25 2.02482 3.97388 0
M  V30 52560 C 4741.95 4.11672 4.10976 0
M  V30 52561 N 4740.93 3.40222 4.23969 0
M  V30 52562 H 4744.73 2.16728 1.9851 0
M  V30 52563 H 4742.25 1.26324 1.02059 0
M  V30 52564 H 4744.24 0.865991 4.07807 0
M  V30 52565 H 4742.9 0.033265 3.24683 0
M  V30 52566 H 4743.91 3.71246 3.61105 0
M  V30 52567 H 4740.59 1.16279 4.00981 0
M  V30 52568 H 4741.98 5.19672 4.259 0
M  V30 52569 N 4744.7 -1.04686 1.17807 0
M  V30 52570 C 4745.63 -2.1449 0.922826 0
M  V30 52571 C 4746.61 -1.69546 -0.137119 0
M  V30 52572 O 4747.8 -1.94195 0.0141791 0
M  V30 52573 C 4744.93 -3.4449 0.440924 0
M  V30 52574 C 4743.88 -4.03026 1.44064 0
M  V30 52575 C 4743.21 -5.28429 0.816495 0
M  V30 52576 C 4744.51 -4.39922 2.81543 0
M  V30 52577 H 4746.2 -2.36101 1.84111 0
M  V30 52578 H 4743.75 -1.13467 0.886639 0
M  V30 52579 H 4745.7 -4.20659 0.249749 0
M  V30 52580 H 4744.42 -3.22547 -0.512912 0
M  V30 52581 H 4743.08 -3.28931 1.61864 0
M  V30 52582 H 4742.73 -5.02793 -0.144334 0
M  V30 52583 H 4742.43 -5.68554 1.48391 0
M  V30 52584 H 4743.95 -6.07282 0.63571 0
M  V30 52585 H 4745.37 -5.07104 2.6743 0
M  V30 52586 H 4743.77 -4.91078 3.44909 0
M  V30 52587 H 4744.84 -3.50033 3.35567 0
M  V30 52588 N 4746.18 -0.979116 -1.23495 0
M  V30 52589 C 4747.09 -0.526512 -2.28615 0
M  V30 52590 C 4748.11 0.418067 -1.68903 0
M  V30 52591 O 4749.28 0.288302 -1.99326 0
M  V30 52592 C 4746.35 0.165113 -3.46307 0
M  V30 52593 C 4745.41 -0.820708 -4.21382 0
M  V30 52594 C 4744.64 -0.161994 -5.33454 0
M  V30 52595 O 4744.86 1.04723 -5.60704 0
M  V30 52596 O 4743.8 -0.859917 -5.95726 0
M  V30 52597 H 4747.62 -1.40069 -2.6947 0
M  V30 52598 H 4745.21 -0.746688 -1.29402 0
M  V30 52599 H 4747.09 0.55314 -4.17754 0
M  V30 52600 H 4745.77 1.01408 -3.07405 0
M  V30 52601 H 4744.67 -1.25941 -3.52264 0
M  V30 52602 H 4746.01 -1.63844 -4.64129 0
M  V30 52603 N 4747.66 1.38577 -0.75061 0
M  V30 52604 C 4748.93 1.9423 -0.231077 0
M  V30 52605 C 4749.31 1.68616 1.27012 0
M  V30 52606 O 4748.66 1.02303 2.04319 0
M  V30 52607 C 4748.87 3.44121 -0.581549 0
M  V30 52608 C 4750.22 4.21158 -0.539537 0
M  V30 52609 O 4751.24 3.52389 -0.519665 0
M  V30 52610 O 4750.1 5.43747 -0.547841 0
M  V30 52611 H 4747.2 0.825637 -0.0474553 0
M  V30 52612 H 4749.74 1.47987 -0.83053 0
M  V30 52613 H 4748.52 3.56261 -1.61845 0
M  V30 52614 H 4748.14 3.97573 0.0460649 0
M  V30 52615 N 4749.14 0.499451 1.49477 0
M  V30 52616 C 4750.08 -0.279801 2.29098 0
M  V30 52617 C 4751.05 -0.961757 1.35423 0
M  V30 52618 O 4752.24 -0.968719 1.64379 0
M  V30 52619 C 4749.38 -1.33921 3.18055 0
M  V30 52620 C 4748.49 -0.669183 4.26786 0
M  V30 52621 C 4747.63 -1.7089 5.02961 0
M  V30 52622 C 4746.66 -1.02066 6.0353 0
M  V30 52623 N 4745.8 -2.00451 6.72877 0
M  V30 52624 H 4750.64 0.40542 2.95229 0
M  V30 52625 H 4748.18 0.211777 1.45568 0
M  V30 52626 H 4750.14 -1.9654 3.68005 0
M  V30 52627 H 4748.77 -1.99321 2.53911 0
M  V30 52628 H 4747.82 0.0702571 3.80335 0
M  V30 52629 H 4749.13 -0.127328 4.98637 0
M  V30 52630 H 4748.28 -2.41018 5.56772 0
M  V30 52631 H 4747.02 -2.28461 4.30879 0
M  V30 52632 H 4746.03 -0.305145 5.48953 0
M  V30 52633 H 4747.25 -0.45147 6.77598 0
M  V30 52634 H 4745.2 -2.56986 6.03568 0
M  V30 52635 H 4745.12 -1.51327 7.407 0
M  V30 52636 H 4746.38 -2.69872 7.31293 0
M  V30 52637 N 4750.61 -1.55865 0.233218 0
M  V30 52638 C 4751.84 -2.02706 -0.399254 0
M  V30 52639 C 4752.25 -1.1121 -1.53066 0
M  V30 52640 O 4751.59 -0.116247 -1.83332 0
M  V30 52641 C 4751.66 -3.45848 -0.981308 0
M  V30 52642 C 4751.32 -4.56997 0.0161168 0
M  V30 52643 C 4752.32 -5.13381 0.820732 0
M  V30 52644 C 4750 -5.0211 0.138249 0
M  V30 52645 C 4752 -6.13359 1.73407 0
M  V30 52646 C 4749.68 -6.01922 1.05511 0
M  V30 52647 C 4750.68 -6.57424 1.85155 0
M  V30 52648 O 4750.37 -7.55292 2.75298 0
M  V30 52649 H 4750.1 -0.668462 -0.100668 0
M  V30 52650 H 4752.66 -2.02386 0.350591 0
M  V30 52651 H 4750.89 -3.43273 -1.78046 0
M  V30 52652 H 4752.57 -3.76268 -1.52241 0
M  V30 52653 H 4753.34 -4.79369 0.736889 0
M  V30 52654 H 4749.22 -4.58582 -0.471576 0
M  V30 52655 H 4752.76 -6.56606 2.35615 0
M  V30 52656 H 4748.66 -6.35355 1.13992 0
M  V30 52657 H 4749.43 -7.72858 2.69505 0
M  V30 52658 N 4752.09 0.0400529 -1.57549 0
M  V30 52659 C 4753.51 0.395502 -1.54622 0
M  V30 52660 C 4753.71 1.77277 -0.957861 0
M  V30 52661 O 4752.76 2.45886 -0.574117 0
M  V30 52662 C 4754.08 0.30743 -2.99124 0
M  V30 52663 C 4755.62 0.385315 -3.10619 0
M  V30 52664 C 4756.1 0.326812 -4.56833 0
M  V30 52665 N 4757.59 0.38594 -4.61589 0
M  V30 52666 C 4758.33 0.363389 -5.72247 0
M  V30 52667 N 4757.82 0.293777 -6.92177 0
M  V30 52668 N 4759.61 0.412306 -5.60586 0
M  V30 52669 H 4751.77 -0.861393 -1.94149 0
M  V30 52670 H 4754.03 -0.326476 -0.89001 0
M  V30 52671 H 4753.73 -0.638582 -3.45854 0
M  V30 52672 H 4753.61 1.10539 -3.6064 0
M  V30 52673 H 4756 1.32176 -2.63844 0
M  V30 52674 H 4756.08 -0.441799 -2.51956 0
M  V30 52675 H 4755.72 -0.605915 -5.04273 0
M  V30 52676 H 4755.65 1.17189 -5.13395 0
M  V30 52677 H 4758.14 0.4427 -3.75298 0
M  V30 52678 H 4758.45 0.281368 -7.72288 0
M  V30 52679 H 4756.8 0.259988 -6.94514 0
M  V30 52680 H 4759.99 0.464605 -4.65789 0
M  V30 52681 H 4760.16 0.391264 -6.46818 0
M  V30 52682 N 4753.57 1.54478 0.312115 0
M  V30 52683 C 4754.8 1.76951 1.06639 0
M  V30 52684 C 4755.21 0.523657 1.81809 0
M  V30 52685 O 4754.55 -0.515718 1.76312 0
M  V30 52686 C 4754.61 2.91676 2.10156 0
M  V30 52687 C 4754.28 4.3017 1.54281 0
M  V30 52688 C 4755.27 5.10607 0.978613 0
M  V30 52689 C 4752.96 4.76744 1.58179 0
M  V30 52690 C 4754.95 6.35732 0.460825 0
M  V30 52691 C 4752.64 6.01834 1.06013 0
M  V30 52692 C 4753.64 6.81163 0.500604 0
M  V30 52693 O 4753.33 8.03899 -0.0131784 0
M  V30 52694 H 4753.06 0.594099 0.322525 0
M  V30 52695 H 4755.61 2.02214 0.36037 0
M  V30 52696 H 4753.84 2.62011 2.84406 0
M  V30 52697 H 4755.53 3.01826 2.71396 0
M  V30 52698 H 4756.3 4.75774 0.941484 0
M  V30 52699 H 4752.18 4.15034 2.00669 0
M  V30 52700 H 4755.72 6.97596 0.0234441 0
M  V30 52701 H 4751.62 6.36156 1.09437 0
M  V30 52702 H 4752.38 8.18437 0.10117 0
M  V30 52703 N 4755.05 -0.574758 1.46746 0
M  V30 52704 C 4755.98 -1.69331 1.60777 0
M  V30 52705 C 4756.96 -1.63824 0.457794 0
M  V30 52706 O 4758.14 -1.81717 0.685011 0
M  V30 52707 C 4755.27 -3.07974 1.60527 0
M  V30 52708 C 4754.23 -3.28318 2.74575 0
M  V30 52709 C 4753.55 -4.67569 2.5939 0
M  V30 52710 C 4754.85 -3.15383 4.1633 0
M  V30 52711 H 4756.55 -1.57844 2.54412 0
M  V30 52712 H 4754.09 -0.757947 1.22438 0
M  V30 52713 H 4756.05 -3.86055 1.68937 0
M  V30 52714 H 4754.77 -3.20379 0.634418 0
M  V30 52715 H 4753.43 -2.52639 2.65648 0
M  V30 52716 H 4753.08 -4.7675 1.6037 0
M  V30 52717 H 4752.78 -4.82132 3.3589 0
M  V30 52718 H 4754.3 -5.47808 2.69702 0
M  V30 52719 H 4755.72 -3.833 4.26326 0
M  V30 52720 H 4754.11 -3.41464 4.9348 0
M  V30 52721 H 4755.18 -2.12356 4.35927 0
M  V30 52722 N 4756.53 -1.34584 -0.820054 0
M  V30 52723 C 4757.77 -1.27102 -1.57643 0
M  V30 52724 C 4758.1 0.158248 -1.93855 0
M  V30 52725 O 4757.36 1.12022 -1.60467 0
M  V30 52726 C 4757.65 -2.11007 -2.88463 0
M  V30 52727 C 4757.32 -3.59975 -2.7153 0
M  V30 52728 C 4755.98 -4.00584 -2.6662 0
M  V30 52729 C 4758.33 -4.54557 -2.55005 0
M  V30 52730 C 4755.66 -5.33961 -2.4311 0
M  V30 52731 C 4758.01 -5.88117 -2.33027 0
M  V30 52732 C 4756.68 -6.27886 -2.2653 0
M  V30 52733 H 4755.95 -0.465099 -0.576857 0
M  V30 52734 H 4758.6 -1.66354 -0.948612 0
M  V30 52735 H 4756.9 -1.64593 -3.55551 0
M  V30 52736 H 4758.6 -2.02563 -3.46077 0
M  V30 52737 H 4755.19 -3.27743 -2.76193 0
M  V30 52738 H 4759.37 -4.24078 -2.5782 0
M  V30 52739 H 4754.63 -5.6379 -2.3654 0
M  V30 52740 H 4758.8 -6.60993 -2.19228 0
M  V30 52741 H 4756.43 -7.3117 -2.08074 0
M  V30 52742 N 4758 1.0406 -1.18361 0
M  V30 52743 C 4758.95 2.12074 -0.910678 0
M  V30 52744 C 4759.92 1.65422 0.149942 0
M  V30 52745 O 4761.11 1.90797 0.0102943 0
M  V30 52746 C 4758.25 3.4225 -0.442592 0
M  V30 52747 C 4757.36 4.02514 -1.56864 0
M  V30 52748 C 4756.49 5.20653 -1.05327 0
M  V30 52749 C 4755.53 5.72948 -2.15401 0
M  V30 52750 N 4754.67 6.82374 -1.65257 0
M  V30 52751 H 4759.51 2.34758 -1.83556 0
M  V30 52752 H 4757.05 1.15153 -0.915319 0
M  V30 52753 H 4759 4.16921 -0.15268 0
M  V30 52754 H 4757.63 3.19714 0.445316 0
M  V30 52755 H 4756.69 3.25171 -1.97403 0
M  V30 52756 H 4758 4.37354 -2.3984 0
M  V30 52757 H 4757.15 6.02438 -0.717888 0
M  V30 52758 H 4755.89 4.87318 -0.193101 0
M  V30 52759 H 4754.9 4.89784 -2.49783 0
M  V30 52760 H 4756.12 6.08327 -3.01853 0
M  V30 52761 H 4754.07 6.50914 -0.815293 0
M  V30 52762 H 4753.98 7.16278 -2.41831 0
M  V30 52763 H 4755.25 7.67783 -1.34646 0
M  V30 52764 N 4759.48 0.985651 1.22974 0
M  V30 52765 C 4760.41 0.488233 2.2394 0
M  V30 52766 C 4761.43 -0.412765 1.5748 0
M  V30 52767 O 4762.62 -0.216059 1.77188 0
M  V30 52768 C 4759.72 -0.312493 3.37456 0
M  V30 52769 C 4758.89 0.582894 4.33499 0
M  V30 52770 C 4757.95 -0.164879 5.25942 0
M  V30 52771 O 4756.97 0.447277 5.6744 0
M  V30 52772 N 4758.18 -1.44933 5.62116 0
M  V30 52773 H 4760.94 1.35639 2.67249 0
M  V30 52774 H 4758.5 0.859525 1.372 0
M  V30 52775 H 4760.49 -0.821217 3.9628 0
M  V30 52776 H 4759.06 -1.0817 2.93288 0
M  V30 52777 H 4758.28 1.27238 3.73101 0
M  V30 52778 H 4759.57 1.19292 4.94618 0
M  V30 52779 H 4758.97 -1.96812 5.3036 0
M  V30 52780 H 4757.53 -1.90339 6.23389 0
M  V30 52781 N 4760.96 -1.38177 0.757949 0
M  V30 52782 C 4762.21 -2.00315 0.316523 0
M  V30 52783 C 4762.54 -1.60029 -1.10019 0
M  V30 52784 O 4761.81 -0.839897 -1.75431 0
M  V30 52785 C 4762.1 -3.57348 0.44437 0
M  V30 52786 C 4761.95 -4.07584 1.90251 0
M  V30 52787 C 4763.27 -4.3981 -0.159645 0
M  V30 52788 H 4760.39 -0.727737 0.116484 0
M  V30 52789 H 4763.03 -1.64056 0.95841 0
M  V30 52790 H 4761.18 -3.88366 -0.102097 0
M  V30 52791 H 4762.85 -3.8719 2.50762 0
M  V30 52792 H 4761.1 -3.60289 2.41608 0
M  V30 52793 H 4761.77 -5.1667 1.94309 0
M  V30 52794 H 4764.24 -4.1497 0.30646 0
M  V30 52795 H 4763.12 -5.48885 -0.0399745 0
M  V30 52796 H 4763.38 -4.24107 -1.24844 0
M  V30 52797 N 4762.44 -0.507371 -1.4921 0
M  V30 52798 C 4763.4 0.256683 -2.27758 0
M  V30 52799 C 4764.4 0.88824 -1.34041 0
M  V30 52800 O 4765.59 0.751785 -1.57143 0
M  V30 52801 C 4762.72 1.36894 -3.12206 0
M  V30 52802 H 4763.92 -0.432661 -2.96763 0
M  V30 52803 H 4761.47 -0.262543 -1.54079 0
M  V30 52804 H 4762.2 2.09224 -2.47782 0
M  V30 52805 H 4761.99 0.921465 -3.81119 0
M  V30 52806 H 4763.48 1.90697 -3.71516 0
M  V30 52807 N 4763.92 1.55739 -0.241481 0
M  V30 52808 C 4765.14 2.03661 0.39204 0
M  V30 52809 C 4765.57 1.11974 1.5114 0
M  V30 52810 O 4764.92 0.111658 1.80956 0
M  V30 52811 C 4764.97 3.49641 0.882248 0
M  V30 52812 O 4764.08 3.61087 1.99223 0
M  V30 52813 H 4763.42 0.658382 0.086189 0
M  V30 52814 H 4765.95 2.01301 -0.365952 0
M  V30 52815 H 4765.96 3.90355 1.18688 0
M  V30 52816 H 4764.63 4.15852 0.0630899 0
M  V30 52817 H 4763.21 3.32268 1.6927 0
M  V30 52818 N 4765.39 -0.0316971 1.57568 0
M  V30 52819 C 4766.62 -0.738596 1.93803 0
M  V30 52820 C 4767.04 -1.68239 0.841268 0
M  V30 52821 O 4766.4 -1.80158 -0.203204 0
M  V30 52822 C 4766.45 -1.47405 3.29096 0
M  V30 52823 O 4765.55 -2.58709 3.2116 0
M  V30 52824 H 4764.9 -0.198833 0.633531 0
M  V30 52825 H 4767.43 0.0120432 2.04596 0
M  V30 52826 H 4767.44 -1.84455 3.63923 0
M  V30 52827 H 4766.11 -0.781844 4.08485 0
M  V30 52828 H 4764.69 -2.24221 2.97959 0
M  V30 52829 N 4766.87 -1.54642 -0.303919 0
M  V30 52830 C 4768.1 -1.77772 -1.05852 0
M  V30 52831 C 4768.52 -0.535786 -1.81038 0
M  V30 52832 O 4767.87 0.494275 -1.75679 0
M  V30 52833 C 4767.92 -2.98347 -2.04135 0
M  V30 52834 O 4767.64 -4.17741 -1.32 0
M  V30 52835 C 4769.15 -3.33843 -2.91657 0
M  V30 52836 H 4766.37 -0.592972 -0.314046 0
M  V30 52837 H 4768.91 -2.01585 -0.344078 0
M  V30 52838 H 4767.06 -2.76751 -2.71086 0
M  V30 52839 H 4767.48 -4.85699 -1.9798 0
M  V30 52840 H 4768.95 -4.2146 -3.56476 0
M  V30 52841 H 4769.43 -2.51869 -3.59803 0
M  V30 52842 H 4770.04 -3.57588 -2.30242 0
M  V30 52843 N 4768.35 0.566968 -1.47048 0
M  V30 52844 C 4769.6 1.32195 -1.52869 0
M  V30 52845 C 4769.92 1.94087 -0.188456 0
M  V30 52846 O 4769.19 1.79413 0.786629 0
M  V30 52847 H 4767.77 0.490874 -0.563073 0
M  V30 52848 H 4770.43 0.662814 -1.83283 0
M  V30 52849 H 4769.53 2.12054 -2.28997 0
M  V30 52850 N 4769.83 1.35017 0.812906 0
M  V30 52851 C 4771.08 1.27936 1.56967 0
M  V30 52852 C 4771.4 -0.147966 1.93936 0
M  V30 52853 O 4770.66 -1.1117 1.61058 0
M  V30 52854 C 4770.96 2.12534 2.8734 0
M  V30 52855 C 4770.62 3.6141 2.69617 0
M  V30 52856 C 4769.29 4.01992 2.64491 0
M  V30 52857 C 4771.64 4.55902 2.52591 0
M  V30 52858 C 4768.97 5.35243 2.40274 0
M  V30 52859 C 4771.32 5.89344 2.29904 0
M  V30 52860 C 4769.98 6.29078 2.23197 0
M  V30 52861 H 4769.25 0.468151 0.574383 0
M  V30 52862 H 4771.9 1.66855 0.939777 0
M  V30 52863 H 4770.2 1.66476 3.54673 0
M  V30 52864 H 4771.9 2.04395 3.44998 0
M  V30 52865 H 4768.49 3.29203 2.74451 0
M  V30 52866 H 4772.67 4.2544 2.55568 0
M  V30 52867 H 4767.93 5.65036 2.33547 0
M  V30 52868 H 4772.1 6.62147 2.1572 0
M  V30 52869 H 4769.73 7.32263 2.04194 0
M  V30 52870 N 4771.31 -1.03431 1.18911 0
M  V30 52871 C 4772.55 -1.78298 0.999453 0
M  V30 52872 C 4772.91 -1.86355 -0.462154 0
M  V30 52873 O 4774.11 -2.57492 -0.771452 0
M  V30 52874 C 4772.38 -3.17357 1.64376 0
M  V30 52875 S 4773.94 -4.08482 1.60274 0
M  V30 52876 H 4770.76 -0.613848 0.358764 0
M  V30 52877 H 4773.36 -1.23973 1.51165 0
M  V30 52878 H 4772.07 -3.09107 2.69965 0
M  V30 52879 H 4771.6 -3.76758 1.13213 0
M  V30 52880 H 4773.61 -4.92272 0.623106 0
M  V30 52881 N 4772.78 -0.992159 -1.2245 0
M  V30 52882 C 4774.06 -0.583574 -1.86692 0
M  V30 52883 C 4774.44 0.939133 -1.8906 0
M  V30 52884 O 4773.79 1.82076 -1.3806 0
M  V30 52885 C 4774 -1.20315 -3.27605 0
M  V30 52886 C 4775.35 -1.30322 -4.04106 0
M  V30 52887 O 4776.37 -1.15749 -3.36869 0
M  V30 52888 O 4775.23 -1.53634 -5.24461 0
M  V30 52889 H 4772.32 -0.198158 -0.802909 0
M  V30 52890 H 4774.87 -1.08799 -1.30234 0
M  V30 52891 H 4773.64 -2.24472 -3.20512 0
M  V30 52892 H 4773.27 -0.684282 -3.91667 0
M  V30 52893 N 4774.26 1.37773 -0.765266 0
M  V30 52894 C 4775.19 2.28957 -0.105442 0
M  V30 52895 C 4776.21 1.48318 0.671228 0
M  V30 52896 O 4777.4 1.71048 0.51039 0
M  V30 52897 C 4774.5 3.27424 0.874453 0
M  V30 52898 C 4773.67 4.37132 0.152969 0
M  V30 52899 C 4772.73 5.15713 1.04529 0
M  V30 52900 O 4771.75 5.66897 0.511472 0
M  V30 52901 N 4772.96 5.29816 2.37224 0
M  V30 52902 H 4775.72 2.86224 -0.888596 0
M  V30 52903 H 4773.28 1.4968 -0.617053 0
M  V30 52904 H 4775.27 3.76875 1.47469 0
M  V30 52905 H 4773.84 2.70972 1.55861 0
M  V30 52906 H 4773.06 3.89164 -0.628112 0
M  V30 52907 H 4774.35 5.07623 -0.345822 0
M  V30 52908 H 4773.75 4.89803 2.83036 0
M  V30 52909 H 4772.31 5.82599 2.9227 0
M  V30 52910 N 4775.74 0.515277 1.48938 0
M  V30 52911 C 4777.16 0.172155 1.58669 0
M  V30 52912 C 4777.36 -1.32399 1.51897 0
M  V30 52913 O 4776.41 -2.10111 1.40035 0
M  V30 52914 C 4777.73 0.761635 2.90895 0
M  V30 52915 C 4779.27 0.729033 3.04391 0
M  V30 52916 C 4779.75 1.29683 4.39257 0
M  V30 52917 N 4781.24 1.25815 4.45786 0
M  V30 52918 C 4781.98 1.66752 5.48618 0
M  V30 52919 N 4781.47 2.1535 6.5848 0
M  V30 52920 N 4783.26 1.5808 5.39414 0
M  V30 52921 H 4775.42 1.48783 1.51583 0
M  V30 52922 H 4777.68 0.617994 0.71888 0
M  V30 52923 H 4777.38 1.81146 3.01461 0
M  V30 52924 H 4777.26 0.230239 3.76497 0
M  V30 52925 H 4779.65 -0.311995 2.93446 0
M  V30 52926 H 4779.73 1.29774 2.20437 0
M  V30 52927 H 4779.37 2.33671 4.50955 0
M  V30 52928 H 4779.3 0.703935 5.21874 0
M  V30 52929 H 4781.79 0.902231 3.66972 0
M  V30 52930 H 4782.1 2.4462 7.33063 0
M  V30 52931 H 4780.45 2.19334 6.59483 0
M  V30 52932 H 4783.64 1.19922 4.52478 0
M  V30 52933 H 4783.81 1.90306 6.19425 0
M  V30 52934 N 4777.22 -1.55609 0.249737 0
M  V30 52935 C 4778.64 -1.59254 -0.105047 0
M  V30 52936 C 4778.84 -1.26691 -1.5669 0
M  V30 52937 O 4777.89 -1.01558 -2.31176 0
M  V30 52938 C 4779.2 -2.99686 0.246697 0
M  V30 52939 C 4780.75 -3.12415 0.191228 0
M  V30 52940 C 4781.23 -4.55072 0.517045 0
M  V30 52941 N 4782.72 -4.60833 0.467651 0
M  V30 52942 C 4783.45 -5.69198 0.69288 0
M  V30 52943 N 4782.95 -6.85814 0.981387 0
M  V30 52944 N 4784.74 -5.58632 0.623395 0
M  V30 52945 H 4776.89 -1.75045 1.20304 0
M  V30 52946 H 4779.16 -0.814986 0.484253 0
M  V30 52947 H 4778.86 -3.28263 1.2624 0
M  V30 52948 H 4778.74 -3.748 -0.42483 0
M  V30 52949 H 4781.12 -2.83618 -0.815148 0
M  V30 52950 H 4781.2 -2.3957 0.896647 0
M  V30 52951 H 4780.85 -4.84591 1.52099 0
M  V30 52952 H 4780.78 -5.26182 -0.209883 0
M  V30 52953 H 4783.27 -3.77049 0.253506 0
M  V30 52954 H 4783.58 -7.64337 1.14059 0
M  V30 52955 H 4781.93 -6.87491 1.01889 0
M  V30 52956 H 4785.12 -4.66405 0.398027 0
M  V30 52957 H 4785.29 -6.43014 0.802319 0
M  V30 52958 N 4778.7 0.0233405 -1.57583 0
M  V30 52959 C 4779.63 1.02155 -2.09968 0
M  V30 52960 C 4780.61 1.37347 -1.00349 0
M  V30 52961 O 4781.79 1.4613 -1.27904 0
M  V30 52962 C 4778.92 2.32072 -2.58379 0
M  V30 52963 C 4777.88 2.11107 -3.72314 0
M  V30 52964 C 4777.2 3.46834 -4.06953 0
M  V30 52965 C 4778.5 1.49258 -5.00519 0
M  V30 52966 H 4780.2 0.585454 -2.9362 0
M  V30 52967 H 4777.74 0.280169 -1.41248 0
M  V30 52968 H 4779.7 3.02238 -2.93649 0
M  V30 52969 H 4778.42 2.77752 -1.71818 0
M  V30 52970 H 4777.08 1.43372 -3.37402 0
M  V30 52971 H 4776.73 3.90173 -3.17449 0
M  V30 52972 H 4776.43 3.33629 -4.83699 0
M  V30 52973 H 4777.95 4.18353 -4.44762 0
M  V30 52974 H 4779.37 2.09349 -5.33709 0
M  V30 52975 H 4777.76 1.46612 -5.81915 0
M  V30 52976 H 4778.83 0.459048 -4.82722 0
M  V30 52977 N 4780.18 1.54801 0.295713 0
M  V30 52978 C 4781.42 1.73989 1.02822 0
M  V30 52979 C 4781.74 0.531472 1.87618 0
M  V30 52980 O 4781.01 -0.454154 1.90563 0
M  V30 52981 H 4779.59 0.641569 0.38262 0
M  V30 52982 H 4782.26 1.92164 0.325422 0
M  V30 52983 H 4781.35 2.63135 1.67829 0
M  V30 52984 N 4781.65 -0.559161 1.47347 0
M  V30 52985 C 4782.58 -1.67616 1.62564 0
M  V30 52986 C 4783.56 -1.63329 0.475144 0
M  V30 52987 O 4784.75 -1.80981 0.704246 0
M  V30 52988 C 4781.88 -3.06254 1.63785 0
M  V30 52989 C 4780.83 -3.25387 2.78042 0
M  V30 52990 C 4780.16 -4.64792 2.64334 0
M  V30 52991 C 4781.46 -3.1095 4.19652 0
M  V30 52992 H 4783.15 -1.55137 2.56072 0
M  V30 52993 H 4780.7 -0.744918 1.23235 0
M  V30 52994 H 4782.65 -3.84241 1.73022 0
M  V30 52995 H 4781.38 -3.19688 0.668363 0
M  V30 52996 H 4780.04 -2.49808 2.68313 0
M  V30 52997 H 4779.68 -4.75022 1.65418 0
M  V30 52998 H 4779.38 -4.78543 3.40985 0
M  V30 52999 H 4780.91 -5.44916 2.75497 0
M  V30 53000 H 4782.32 -3.78756 4.30368 0
M  V30 53001 H 4780.72 -3.36211 4.97074 0
M  V30 53002 H 4781.79 -2.07721 4.38155 0
M  V30 53003 N 4783.13 -1.35446 -0.805734 0
M  V30 53004 C 4784.06 -1.31102 -1.93221 0
M  V30 53005 C 4785.04 -0.185304 -1.69088 0
M  V30 53006 O 4786.23 -0.380399 -1.90438 0
M  V30 53007 C 4783.36 -1.08311 -3.29979 0
M  V30 53008 C 4782.31 -2.17532 -3.68597 0
M  V30 53009 C 4781.64 -1.79905 -5.03526 0
M  V30 53010 C 4782.94 -3.59504 -3.78886 0
M  V30 53011 H 4784.63 -2.25359 -1.97114 0
M  V30 53012 H 4782.18 -1.08484 -0.946958 0
M  V30 53013 H 4784.13 -1.03911 -4.08388 0
M  V30 53014 H 4782.85 -0.105 -3.26431 0
M  V30 53015 H 4781.51 -2.2103 -2.92474 0
M  V30 53016 H 4781.16 -0.807105 -4.96482 0
M  V30 53017 H 4780.86 -2.53019 -5.30335 0
M  V30 53018 H 4782.39 -1.77032 -5.84373 0
M  V30 53019 H 4783.8 -3.58323 -4.47524 0
M  V30 53020 H 4782.2 -4.31385 -4.17165 0
M  V30 53021 H 4783.27 -3.95594 -2.80417 0
M  V30 53022 N 4784.61 1.02799 -1.19458 0
M  V30 53023 C 4785.54 2.12995 -0.956833 0
M  V30 53024 C 4786.52 1.69743 0.110129 0
M  V30 53025 O 4787.71 1.94148 -0.045072 0
M  V30 53026 C 4784.84 3.43745 -0.495674 0
M  V30 53027 C 4783.79 4.00683 -1.50457 0
M  V30 53028 C 4783.12 5.27063 -0.900461 0
M  V30 53029 C 4784.42 4.35387 -2.88506 0
M  V30 53030 H 4786.11 2.33142 -1.87844 0
M  V30 53031 H 4783.66 1.12042 -0.904578 0
M  V30 53032 H 4785.61 4.20209 -0.316641 0
M  V30 53033 H 4784.33 3.23323 0.461532 0
M  V30 53034 H 4782.99 3.26314 -1.67077 0
M  V30 53035 H 4782.64 5.02959 0.0643261 0
M  V30 53036 H 4782.34 5.66122 -1.57417 0
M  V30 53037 H 4783.86 6.06194 -0.732243 0
M  V30 53038 H 4785.28 5.02785 -2.75464 0
M  V30 53039 H 4783.67 4.85529 -3.52678 0
M  V30 53040 H 4784.74 3.4465 -3.41093 0
M  V30 53041 N 4786.09 0.998639 1.21922 0
M  V30 53042 C 4787.04 0.524821 2.21878 0
M  V30 53043 C 4788.02 -0.410116 1.55586 0
M  V30 53044 O 4789.21 -0.236002 1.7542 0
M  V30 53045 C 4786.34 -0.153516 3.42957 0
M  V30 53046 C 4785.43 0.802065 4.16447 0
M  V30 53047 N 4785.82 1.95228 4.66605 0
M  V30 53048 C 4784.12 0.619127 4.41682 0
M  V30 53049 C 4784.82 2.55252 5.22706 0
M  V30 53050 N 4783.79 1.83469 5.11703 0
M  V30 53051 H 4787.6 1.40198 2.58306 0
M  V30 53052 H 4785.11 0.861638 1.37657 0
M  V30 53053 H 4787.11 -0.510388 4.13764 0
M  V30 53054 H 4785.77 -1.02674 3.08039 0
M  V30 53055 H 4786.78 2.33287 4.62382 0
M  V30 53056 H 4783.46 -0.207548 4.16984 0
M  V30 53057 H 4784.85 3.52491 5.72013 0
M  V30 53058 N 4787.57 -1.37365 0.772562 0
M  V30 53059 C 4788.84 -1.93838 0.261948 0
M  V30 53060 C 4789.22 -1.70615 -1.24313 0
M  V30 53061 O 4788.57 -1.05541 -2.02666 0
M  V30 53062 C 4788.78 -3.43152 0.636222 0
M  V30 53063 C 4790.13 -4.20246 0.606472 0
M  V30 53064 O 4791.15 -3.51518 0.575662 0
M  V30 53065 O 4790.01 -5.42807 0.634277 0
M  V30 53066 H 4787.11 -0.824778 0.0605845 0
M  V30 53067 H 4789.65 -1.46647 0.853969 0
M  V30 53068 H 4788.42 -3.53641 1.67492 0
M  V30 53069 H 4788.05 -3.97596 0.0171914 0
M  V30 53070 N 4789.04 -0.523168 -1.48663 0
M  V30 53071 C 4790.27 0.0116555 -2.07397 0
M  V30 53072 C 4790.69 1.28026 -1.37808 0
M  V30 53073 O 4790.05 1.75834 -0.441824 0
M  V30 53074 C 4790.1 0.22566 -3.59893 0
M  V30 53075 O 4789.2 1.29578 -3.91514 0
M  V30 53076 H 4788.54 -0.0360906 -0.663018 0
M  V30 53077 H 4791.07 -0.729133 -1.91167 0
M  V30 53078 H 4791.08 0.450409 -4.05506 0
M  V30 53079 H 4789.76 -0.701088 -4.09948 0
M  V30 53080 H 4788.34 1.05423 -3.57688 0
M  V30 53081 N 4790.52 1.55474 -0.257986 0
M  V30 53082 C 4791.77 1.98385 0.364205 0
M  V30 53083 C 4792.08 1.14957 1.58254 0
M  V30 53084 O 4793.29 1.47932 2.27659 0
M  V30 53085 C 4791.75 3.5304 0.699355 0
M  V30 53086 C 4791.35 4.45221 -0.498203 0
M  V30 53087 C 4793.1 4.0458 1.28512 0
M  V30 53088 C 4791.01 5.91238 -0.138591 0
M  V30 53089 H 4789.94 0.740916 0.139854 0
M  V30 53090 H 4792.59 1.79935 -0.359947 0
M  V30 53091 H 4790.97 3.67225 1.48194 0
M  V30 53092 H 4792.14 4.42799 -1.27538 0
M  V30 53093 H 4790.46 4.04223 -0.999645 0
M  V30 53094 H 4793.05 5.11202 1.5677 0
M  V30 53095 H 4793.4 3.52588 2.21332 0
M  V30 53096 H 4793.93 3.93764 0.565199 0
M  V30 53097 H 4790.67 6.4729 -1.03421 0
M  V30 53098 H 4790.19 5.9677 0.602164 0
M  V30 53099 H 4791.87 6.46414 0.275303 0
M  V30 53100 N 4792 -0.0149831 1.57593 0
M  V30 53101 C 4792.93 -1.03905 2.04295 0
M  V30 53102 C 4793.95 -1.31615 0.958192 0
M  V30 53103 O 4795.13 -1.28855 1.23526 0
M  V30 53104 C 4792.23 -2.3774 2.41522 0
M  V30 53105 C 4791.41 -2.29185 3.72549 0
M  V30 53106 C 4790.47 -3.45584 3.9681 0
M  V30 53107 O 4789.49 -3.24445 4.6768 0
M  V30 53108 N 4790.69 -4.67933 3.43539 0
M  V30 53109 H 4793.46 -0.640887 2.92767 0
M  V30 53110 H 4791.02 -0.202663 1.60627 0
M  V30 53111 H 4793.01 -3.14355 2.54878 0
M  V30 53112 H 4791.58 -2.69351 1.58647 0
M  V30 53113 H 4790.8 -1.37577 3.69413 0
M  V30 53114 H 4792.09 -2.20626 4.58477 0
M  V30 53115 H 4791.49 -4.88007 2.86121 0
M  V30 53116 H 4790.05 -5.41865 3.62251 0
M  V30 53117 N 4793.48 -1.54955 -0.2875 0
M  V30 53118 C 4794.73 -1.74084 -1.0187 0
M  V30 53119 C 4795.04 -0.541201 -1.87964 0
M  V30 53120 O 4796.25 -0.614584 -2.64452 0
M  V30 53121 C 4794.7 -3.08049 -1.86102 0
M  V30 53122 C 4794.31 -4.35535 -1.04946 0
M  V30 53123 C 4796.05 -3.36532 -2.5874 0
M  V30 53124 C 4793.96 -5.60544 -1.88531 0
M  V30 53125 H 4792.89 -0.648854 -0.384064 0
M  V30 53126 H 4795.54 -1.81427 -0.275037 0
M  V30 53127 H 4793.92 -2.94706 -2.64508 0
M  V30 53128 H 4795.1 -4.59752 -0.310578 0
M  V30 53129 H 4793.41 -4.14087 -0.438284 0
M  V30 53130 H 4796.01 -4.27134 -3.21653 0
M  V30 53131 H 4796.35 -2.56011 -3.28274 0
M  V30 53132 H 4796.89 -3.50908 -1.87373 0
M  V30 53133 H 4793.63 -6.43772 -1.23444 0
M  V30 53134 H 4793.15 -5.40492 -2.60055 0
M  V30 53135 H 4794.82 -5.98305 -2.46252 0
M  V30 53136 N 4794.96 0.551339 -1.47641 0
M  V30 53137 C 4796.37 1.13344 -1.48358 0
M  V30 53138 C 4796.72 1.94708 -0.2415 0
M  V30 53139 O 4795.84 2.06308 0.653133 0
M  V30 53140 C 4796.44 2.0622 -2.6881 0
M  V30 53141 C 4795 2.5969 -2.72466 0
M  V30 53142 C 4794.14 1.36192 -2.41551 0
M  V30 53143 H 4797.1 0.337644 -1.55067 0
M  V30 53144 H 4797.12 2.90187 -2.46113 0
M  V30 53145 H 4796.63 1.46975 -3.59194 0
M  V30 53146 H 4794.73 3.22718 -1.86236 0
M  V30 53147 H 4794.84 3.00283 -3.73319 0
M  V30 53148 H 4793.21 1.67062 -1.92256 0
M  V30 53149 H 4793.99 0.787308 -3.3415 0
M  V30 53150 N 4796.43 1.35872 0.79854 0
M  V30 53151 C 4797.85 1.16086 1.09528 0
M  V30 53152 C 4798.05 -0.0212415 2.01489 0
M  V30 53153 O 4797.11 -0.689402 2.42906 0
M  V30 53154 C 4798.42 2.46754 1.71851 0
M  V30 53155 C 4799.97 2.53035 1.84235 0
M  V30 53156 C 4800.44 3.83767 2.49974 0
M  V30 53157 N 4801.93 3.85062 2.57452 0
M  V30 53158 C 4802.67 4.82951 3.09105 0
M  V30 53159 N 4802.16 5.9123 3.61136 0
M  V30 53160 N 4803.96 4.70379 3.07733 0
M  V30 53161 H 4796.11 2.11572 0.187386 0
M  V30 53162 H 4798.37 0.936732 0.145732 0
M  V30 53163 H 4798.08 3.33475 1.11747 0
M  V30 53164 H 4797.95 2.61893 2.71462 0
M  V30 53165 H 4800.34 1.66738 2.4348 0
M  V30 53166 H 4800.42 2.41803 0.834558 0
M  V30 53167 H 4800.06 4.70465 1.91376 0
M  V30 53168 H 4799.99 3.9229 3.51306 0
M  V30 53169 H 4802.48 3.0683 2.20599 0
M  V30 53170 H 4802.8 6.61906 3.98873 0
M  V30 53171 H 4801.14 5.94911 3.59312 0
M  V30 53172 H 4804.33 3.84923 2.66368 0
M  V30 53173 H 4804.51 5.46829 3.47682 0
M  V30 53174 N 4797.91 -1.02164 1.20001 0
M  V30 53175 C 4798.84 -2.10702 0.902068 0
M  V30 53176 C 4799.86 -1.6244 -0.108159 0
M  V30 53177 O 4801.05 -1.78081 0.122203 0
M  V30 53178 C 4798.15 -3.3729 0.329953 0
M  V30 53179 C 4797.32 -4.14709 1.3905 0
M  V30 53180 C 4796.38 -5.19603 0.830614 0
M  V30 53181 O 4795.4 -5.48803 1.51008 0
M  V30 53182 N 4796.61 -5.79367 -0.362493 0
M  V30 53183 H 4799.37 -2.3685 1.83636 0
M  V30 53184 H 4796.93 -1.18514 1.103 0
M  V30 53185 H 4798.92 -4.04658 -0.0586211 0
M  V30 53186 H 4797.49 -3.08432 -0.508782 0
M  V30 53187 H 4796.71 -3.42385 1.95362 0
M  V30 53188 H 4798 -4.63218 2.10491 0
M  V30 53189 H 4797.4 -5.57972 -0.931885 0
M  V30 53190 H 4795.96 -6.48108 -0.692762 0
M  V30 53191 N 4799.39 -1.00509 -1.21391 0
M  V30 53192 C 4800.32 -0.585763 -2.26033 0
M  V30 53193 C 4801.3 0.393467 -1.65487 0
M  V30 53194 O 4802.49 0.281429 -1.9215 0
M  V30 53195 C 4799.62 0.0883063 -3.47188 0
M  V30 53196 C 4798.57 -0.810715 -4.20252 0
M  V30 53197 C 4797.9 -0.00305179 -5.347 0
M  V30 53198 C 4799.2 -2.11337 -4.77634 0
M  V30 53199 H 4800.89 -1.46048 -2.61362 0
M  V30 53200 H 4798.44 -0.703692 -1.25635 0
M  V30 53201 H 4800.39 0.393138 -4.19562 0
M  V30 53202 H 4799.11 0.997657 -3.10989 0
M  V30 53203 H 4797.77 -1.09937 -3.49728 0
M  V30 53204 H 4797.42 0.907591 -4.94744 0
M  V30 53205 H 4797.12 -0.601649 -5.84512 0
M  V30 53206 H 4798.64 0.295593 -6.09884 0
M  V30 53207 H 4800.06 -1.87168 -5.41887 0
M  V30 53208 H 4798.46 -2.66182 -5.37835 0
M  V30 53209 H 4799.53 -2.78407 -3.97011 0
M  V30 53210 N 4800.87 1.36954 -0.779835 0
M  V30 53211 C 4802.12 1.99096 -0.347149 0
M  V30 53212 C 4802.44 1.6221 1.08227 0
M  V30 53213 O 4801.71 0.891434 1.74443 0
M  V30 53214 H 4800.29 0.736405 -0.125368 0
M  V30 53215 H 4802.95 1.67305 -0.999755 0
M  V30 53216 H 4802.05 3.09106 -0.431271 0
M  V30 53217 N 4802.35 0.531045 1.48384 0
M  V30 53218 C 4803.26 -0.234948 2.33421 0
M  V30 53219 C 4804.27 -0.937958 1.46555 0
M  V30 53220 O 4805.45 -0.912681 1.79533 0
M  V30 53221 C 4802.51 -1.26766 3.22694 0
M  V30 53222 C 4801.57 -0.574889 4.25433 0
M  V30 53223 C 4800.81 -1.5584 5.10441 0
M  V30 53224 O 4801.03 -2.79111 4.97446 0
M  V30 53225 O 4799.96 -1.09721 5.91815 0
M  V30 53226 H 4803.79 0.4619 3.00167 0
M  V30 53227 H 4801.38 0.291954 1.4652 0
M  V30 53228 H 4803.26 -1.86444 3.77911 0
M  V30 53229 H 4801.93 -1.9469 2.58607 0
M  V30 53230 H 4800.84 0.0624097 3.74048 0
M  V30 53231 H 4802.17 0.062426 4.9216 0
M  V30 53232 N 4803.82 -1.55335 0.266227 0
M  V30 53233 C 4805.07 -1.99693 -0.353611 0
M  V30 53234 C 4805.4 -1.15435 -1.56168 0
M  V30 53235 O 4804.68 -0.222286 -1.93226 0
M  V30 53236 C 4804.96 -3.52319 -0.744536 0
M  V30 53237 C 4804.81 -4.47335 0.470258 0
M  V30 53238 C 4806.13 -4.10594 -1.58433 0
M  V30 53239 H 4803.25 -0.725966 -0.127055 0
M  V30 53240 H 4805.89 -1.86335 0.371399 0
M  V30 53241 H 4804.04 -3.63833 -1.36226 0
M  V30 53242 H 4805.72 -4.47776 1.10879 0
M  V30 53243 H 4803.96 -4.1936 1.10993 0
M  V30 53244 H 4804.63 -5.51788 0.153104 0
M  V30 53245 H 4807.11 -4.023 -1.06271 0
M  V30 53246 H 4805.98 -5.17613 -1.82668 0
M  V30 53247 H 4806.24 -3.60262 -2.56249 0
M  V30 53248 N 4805.3 0.0066254 -1.57599 0
M  V30 53249 C 4806.27 0.984962 -2.06957 0
M  V30 53250 C 4807.27 1.2766 -0.977732 0
M  V30 53251 O 4808.46 1.22289 -1.24061 0
M  V30 53252 C 4805.59 2.31172 -2.50544 0
M  V30 53253 H 4806.78 0.558151 -2.9466 0
M  V30 53254 H 4804.33 0.253957 -1.54223 0
M  V30 53255 H 4805.07 2.78556 -1.66064 0
M  V30 53256 H 4804.85 2.11327 -3.30278 0
M  V30 53257 H 4806.34 3.01367 -2.89081 0
M  V30 53258 N 4806.78 1.55106 0.279278 0
M  V30 53259 C 4808.01 1.79764 1.03439 0
M  V30 53260 C 4808.43 0.566015 1.79382 0
M  V30 53261 O 4807.79 -0.484198 1.74715 0
M  V30 53262 C 4807.84 3.01797 1.9736 0
M  V30 53263 O 4806.94 2.76443 3.06028 0
M  V30 53264 H 4806.28 0.594344 0.296059 0
M  V30 53265 H 4808.81 2.02236 0.310094 0
M  V30 53266 H 4808.82 3.3036 2.3943 0
M  V30 53267 H 4807.5 3.9109 1.41496 0
M  V30 53268 H 4806.07 2.58959 2.68319 0
M  V30 53269 N 4808.26 -0.543502 1.47932 0
M  V30 53270 C 4809.51 -1.30003 1.55259 0
M  V30 53271 C 4809.83 -1.93244 0.22068 0
M  V30 53272 O 4809.09 -1.79144 -0.78778 0
M  V30 53273 C 4809.39 -2.42068 2.6294 0
M  V30 53274 C 4809.05 -1.96569 4.05797 0
M  V30 53275 C 4807.72 -1.83877 4.44683 0
M  V30 53276 C 4810.07 -1.62017 4.95379 0
M  V30 53277 C 4807.4 -1.34949 5.70969 0
M  V30 53278 C 4809.75 -1.14555 6.22141 0
M  V30 53279 C 4808.41 -1.0047 6.59895 0
M  V30 53280 H 4807.68 -0.475715 0.568134 0
M  V30 53281 H 4810.33 -0.608011 1.81591 0
M  V30 53282 H 4808.63 -3.16884 2.30417 0
M  V30 53283 H 4810.33 -3.00227 2.65829 0
M  V30 53284 H 4806.92 -2.07394 3.75081 0
M  V30 53285 H 4811.11 -1.70689 4.66025 0
M  V30 53286 H 4806.36 -1.22719 5.98957 0
M  V30 53287 H 4810.54 -0.868866 6.90959 0
M  V30 53288 H 4808.16 -0.623357 7.5764 0
M  V30 53289 N 4809.74 -1.36293 -0.791323 0
M  V30 53290 C 4810.99 -1.3016 -1.54606 0
M  V30 53291 C 4811.31 0.119341 -1.94634 0
M  V30 53292 O 4810.58 1.05918 -1.64797 0
M  V30 53293 H 4809.16 -0.478805 -0.573372 0
M  V30 53294 H 4811.82 -1.70568 -0.943 0
M  V30 53295 H 4810.91 -1.92771 -2.4545 0
M  V30 53296 N 4811.22 1.01526 -1.20541 0
M  V30 53297 C 4812.46 1.74799 -1.01438 0
M  V30 53298 C 4812.78 1.89632 0.45439 0
M  V30 53299 O 4812.05 1.4398 1.32841 0
M  V30 53300 H 4810.63 0.647585 -0.372347 0
M  V30 53301 H 4813.3 1.22397 -1.51674 0
M  V30 53302 H 4812.39 2.75109 -1.47383 0
M  V30 53303 N 4812.69 1.01151 1.20856 0
M  V30 53304 C 4813.92 0.716766 1.94621 0
M  V30 53305 C 4814.34 -0.715354 1.73966 0
M  V30 53306 O 4813.7 -1.49154 1.03067 0
M  V30 53307 C 4813.75 1.05142 3.44931 0
M  V30 53308 O 4812.85 0.160276 4.12088 0
M  V30 53309 H 4812.19 0.266426 0.608205 0
M  V30 53310 H 4814.72 1.35352 1.53431 0
M  V30 53311 H 4814.73 1.001 3.9553 0
M  V30 53312 H 4813.41 2.09488 3.59288 0
M  V30 53313 H 4811.99 0.267788 3.71937 0
M  V30 53314 N 4814.17 -1.36538 0.787088 0
M  V30 53315 C 4815.12 -2.31965 0.171805 0
M  V30 53316 C 4816.11 -1.55691 -0.667576 0
M  V30 53317 O 4817.32 -1.70971 -0.562921 0
M  V30 53318 H 4813.69 -0.7511 0.0367809 0
M  V30 53319 H 4815.67 -2.81424 0.992116 0
M  V30 53320 C 4814.41 -3.4097 -0.680785 0
M  V30 53321 H 4813.74 -3.99776 -0.0442556 0
M  V30 53322 H 4815.18 -4.10067 -1.07801 0
M  V30 53323 C 4813.64 -2.82344 -1.83803 0
M  V30 53324 O 4814.17 -2.74321 -2.93446 0
M  V30 53325 N 4812.37 -2.39667 -1.64342 0
M  V30 53326 H 4811.92 -2.46392 -0.751582 0
M  V30 53327 H 4811.88 -2.00788 -2.41933 0
M  V30 53328 N 4815.65 -0.538906 -1.481 0
M  V30 53329 C 4816.9 -0.00602411 -2.01699 0
M  V30 53330 C 4817.21 1.34471 -1.42045 0
M  V30 53331 O 4818.42 1.96646 -1.87196 0
M  V30 53332 C 4816.87 0.0396362 -3.59878 0
M  V30 53333 C 4816.48 -1.30674 -4.28519 0
M  V30 53334 C 4818.23 0.520876 -4.21292 0
M  V30 53335 C 4816.13 -1.22118 -5.78655 0
M  V30 53336 H 4815.06 0.00151805 -0.753998 0
M  V30 53337 H 4817.71 -0.684023 -1.70274 0
M  V30 53338 H 4816.1 0.782901 -3.88184 0
M  V30 53339 H 4817.27 -2.06628 -4.11876 0
M  V30 53340 H 4815.58 -1.72444 -3.79015 0
M  V30 53341 H 4818.18 0.602997 -5.31289 0
M  V30 53342 H 4818.52 1.52872 -3.87216 0
M  V30 53343 H 4819.06 -0.166974 -3.97449 0
M  V30 53344 H 4815.8 -2.20446 -6.1732 0
M  V30 53345 H 4815.32 -0.50316 -5.97686 0
M  V30 53346 H 4817 -0.91557 -6.40489 0
M  V30 53347 N 4817.13 1.55192 -0.274461 0
M  V30 53348 C 4818.04 2.26166 0.623393 0
M  V30 53349 C 4819.05 1.28733 1.17063 0
M  V30 53350 O 4820.23 1.61667 1.20107 0
M  V30 53351 C 4817.29 2.96839 1.79129 0
M  V30 53352 C 4816.36 4.09749 1.28079 0
M  V30 53353 C 4815.59 4.77043 2.39303 0
M  V30 53354 O 4815.81 4.43543 3.58644 0
M  V30 53355 O 4814.75 5.65003 2.07496 0
M  V30 53356 H 4818.57 3.03661 0.0484594 0
M  V30 53357 H 4816.16 1.49341 -0.0418907 0
M  V30 53358 H 4818.04 3.41257 2.47228 0
M  V30 53359 H 4816.71 2.22261 2.35333 0
M  V30 53360 H 4815.62 3.69789 0.566286 0
M  V30 53361 H 4816.95 4.86226 0.764512 0
M  V30 53362 N 4818.61 0.00173253 1.576 0
M  V30 53363 C 4820.02 -0.540847 1.78695 0
M  V30 53364 C 4820.37 -1.73856 0.909308 0
M  V30 53365 O 4819.49 -2.16109 0.112252 0
M  V30 53366 C 4820.09 -0.987946 3.24076 0
M  V30 53367 C 4818.65 -1.47582 3.46261 0
M  V30 53368 C 4817.79 -0.427824 2.7398 0
M  V30 53369 H 4820.74 0.227895 1.57055 0
M  V30 53370 H 4820.77 -1.85386 3.32283 0
M  V30 53371 H 4820.28 -0.116027 3.87927 0
M  V30 53372 H 4818.38 -2.36858 2.87627 0
M  V30 53373 H 4818.49 -1.50209 4.54944 0
M  V30 53374 H 4816.86 -0.88985 2.3865 0
M  V30 53375 H 4817.64 0.435158 3.40531 0
M  V30 53376 N 4820.08 -1.55252 -0.271048 0
M  V30 53377 C 4821.31 -1.8031 -1.02484 0
M  V30 53378 C 4821.73 -0.57552 -1.79079 0
M  V30 53379 O 4821.09 0.474926 -1.74969 0
M  V30 53380 C 4821.14 -3.02839 -1.95757 0
M  V30 53381 O 4820.24 -2.78062 -3.04558 0
M  V30 53382 H 4819.59 -0.595906 -0.292903 0
M  V30 53383 H 4822.12 -2.02398 -0.299365 0
M  V30 53384 H 4822.13 -3.31625 -2.37674 0
M  V30 53385 H 4820.8 -3.91835 -1.3942 0
M  V30 53386 H 4819.38 -2.60378 -2.66941 0
M  V30 53387 N 4821.56 0.535649 -1.48218 0
M  V30 53388 C 4822.81 1.29369 -1.56178 0
M  V30 53389 C 4823.14 1.92803 -0.232497 0
M  V30 53390 O 4822.42 1.78995 0.760985 0
M  V30 53391 C 4822.7 2.38738 -2.69585 0
M  V30 53392 C 4822.55 1.80032 -4.122 0
M  V30 53393 C 4823.87 3.40541 -2.78783 0
M  V30 53394 H 4820.99 0.469007 -0.568508 0
M  V30 53395 H 4823.63 0.597294 -1.80367 0
M  V30 53396 H 4821.78 2.98138 -2.4909 0
M  V30 53397 H 4823.45 1.24726 -4.44118 0
M  V30 53398 H 4821.7 1.10594 -4.19466 0
M  V30 53399 H 4822.37 2.59195 -4.87362 0
M  V30 53400 H 4824.84 2.91089 -2.97332 0
M  V30 53401 H 4823.72 4.14468 -3.59872 0
M  V30 53402 H 4823.98 4.00739 -1.8671 0
M  V30 53403 N 4823.04 1.36711 0.784084 0
M  V30 53404 C 4824.46 1.17241 1.0829 0
M  V30 53405 C 4824.66 0.000130232 2.015 0
M  V30 53406 O 4823.71 -0.6636 2.43624 0
M  V30 53407 C 4825.03 2.48563 1.69225 0
M  V30 53408 C 4826.57 2.54974 1.81541 0
M  V30 53409 C 4827.05 3.86396 2.4589 0
M  V30 53410 N 4828.54 3.87771 2.53353 0
M  V30 53411 C 4829.27 4.86202 3.03966 0
M  V30 53412 N 4828.77 5.95027 3.54845 0
M  V30 53413 N 4830.56 4.73617 3.02727 0
M  V30 53414 H 4822.71 2.11759 0.164936 0
M  V30 53415 H 4824.98 0.938225 0.135789 0
M  V30 53416 H 4824.68 3.34641 1.08204 0
M  V30 53417 H 4824.56 2.64758 2.68669 0
M  V30 53418 H 4826.94 1.69311 2.41698 0
M  V30 53419 H 4827.03 2.42675 0.808865 0
M  V30 53420 H 4826.67 4.72469 1.86376 0
M  V30 53421 H 4826.6 3.95994 3.47126 0
M  V30 53422 H 4829.09 3.09152 2.17332 0
M  V30 53423 H 4829.4 6.661 3.9183 0
M  V30 53424 H 4827.75 5.98689 3.52982 0
M  V30 53425 H 4830.94 3.87727 2.6227 0
M  V30 53426 H 4831.11 5.50485 3.41862 0
M  V30 53427 N 4824.52 -1.00885 1.21078 0
M  V30 53428 C 4825.74 -1.78723 1.05227 0
M  V30 53429 C 4826.17 -1.83933 -0.39373 0
M  V30 53430 O 4825.53 -1.28008 -1.28388 0
M  V30 53431 C 4825.57 -3.20659 1.64955 0
M  V30 53432 O 4824.68 -4.02629 0.892415 0
M  V30 53433 H 4824.02 -0.55096 0.370593 0
M  V30 53434 H 4826.55 -1.26841 1.60538 0
M  V30 53435 H 4826.56 -3.71346 1.69015 0
M  V30 53436 H 4825.23 -3.16182 2.70188 0
M  V30 53437 H 4823.81 -3.61204 0.926619 0
M  V30 53438 N 4826 -1.01791 -1.20318 0
M  V30 53439 C 4827.24 -0.716561 -1.91428 0
M  V30 53440 C 4827.6 0.740289 -1.77154 0
M  V30 53441 O 4828.8 1.15421 -2.42758 0
M  V30 53442 C 4827.07 -1.14181 -3.3867 0
M  V30 53443 S 4828.63 -0.962632 -4.28111 0
M  V30 53444 H 4825.45 -0.261198 -0.661284 0
M  V30 53445 H 4828.05 -1.30544 -1.45528 0
M  V30 53446 H 4826.76 -2.19796 -3.4658 0
M  V30 53447 H 4826.29 -0.545758 -3.89596 0
M  V30 53448 H 4828.3 0.133078 -4.96022 0
M  V30 53449 N 4827.47 1.36119 -0.794317 0
M  V30 53450 C 4828.72 1.9911 -0.368975 0
M  V30 53451 C 4829.05 1.63036 1.06064 0
M  V30 53452 O 4828.3 0.879365 1.7483 0
M  V30 53453 C 4828.6 3.54089 -0.485394 0
M  V30 53454 C 4828.27 4.09997 -1.87653 0
M  V30 53455 C 4826.93 4.24978 -2.25715 0
M  V30 53456 C 4829.28 4.40413 -2.78721 0
M  V30 53457 C 4826.61 4.67689 -3.54237 0
M  V30 53458 C 4828.96 4.84558 -4.06677 0
M  V30 53459 C 4827.63 4.97745 -4.44754 0
M  V30 53460 H 4826.9 0.728595 -0.135018 0
M  V30 53461 H 4829.54 1.6253 -1.01273 0
M  V30 53462 H 4827.85 3.91053 0.241847 0
M  V30 53463 H 4829.55 4.00765 -0.13725 0
M  V30 53464 H 4826.14 3.98779 -1.57078 0
M  V30 53465 H 4830.32 4.28403 -2.50568 0
M  V30 53466 H 4825.58 4.76086 -3.83604 0
M  V30 53467 H 4829.75 5.07057 -4.77353 0
M  V30 53468 H 4827.38 5.30599 -5.44398 0
M  V30 53469 N 4828.95 0.546753 1.47812 0
M  V30 53470 C 4829.88 -0.244116 2.27896 0
M  V30 53471 C 4830.9 -0.889062 1.3638 0
M  V30 53472 O 4832.09 -0.764676 1.61292 0
M  V30 53473 C 4829.19 -1.36241 3.10309 0
M  V30 53474 C 4828.36 -0.816231 4.29717 0
M  V30 53475 C 4827.42 -1.81772 4.93807 0
M  V30 53476 O 4826.44 -1.36798 5.52517 0
M  V30 53477 N 4827.65 -3.15067 4.87558 0
M  V30 53478 H 4830.41 0.442798 2.96411 0
M  V30 53479 H 4827.97 0.382151 1.57325 0
M  V30 53480 H 4829.96 -2.0309 3.50052 0
M  V30 53481 H 4828.53 -1.95272 2.44106 0
M  V30 53482 H 4827.75 0.0287367 3.9419 0
M  V30 53483 H 4829.04 -0.43049 5.06976 0
M  V30 53484 H 4828.44 -3.54259 4.41041 0
M  V30 53485 H 4827 -3.77503 5.31352 0
M  V30 53486 N 4830.43 -1.55044 0.282687 0
M  V30 53487 C 4831.68 -1.99761 -0.331919 0
M  V30 53488 C 4832.01 -1.17111 -1.55291 0
M  V30 53489 O 4831.26 -0.230668 -1.94336 0
M  V30 53490 C 4831.56 -3.49425 -0.750815 0
M  V30 53491 C 4831.23 -4.49409 0.366386 0
M  V30 53492 C 4829.89 -4.76469 0.673131 0
M  V30 53493 C 4832.24 -5.0905 1.11882 0
M  V30 53494 C 4829.57 -5.60436 1.73576 0
M  V30 53495 C 4831.92 -5.94172 2.17123 0
M  V30 53496 C 4830.58 -6.1955 2.48424 0
M  V30 53497 H 4829.85 -0.730978 -0.121458 0
M  V30 53498 H 4832.5 -1.87319 0.397976 0
M  V30 53499 H 4830.81 -3.59382 -1.56051 0
M  V30 53500 H 4832.5 -3.81436 -1.23723 0
M  V30 53501 H 4829.09 -4.2844 0.117191 0
M  V30 53502 H 4833.28 -4.88162 0.895097 0
M  V30 53503 H 4828.53 -5.78342 1.9832 0
M  V30 53504 H 4832.71 -6.39417 2.75896 0
M  V30 53505 H 4830.33 -6.84405 3.30898 0
M  V30 53506 N 4831.91 -0.0100904 -1.57597 0
M  V30 53507 C 4832.87 0.962956 -2.0799 0
M  V30 53508 C 4833.87 1.26616 -0.991217 0
M  V30 53509 O 4835.06 1.20966 -1.25351 0
M  V30 53510 C 4832.19 2.28501 -2.52982 0
M  V30 53511 H 4833.39 0.526867 -2.95236 0
M  V30 53512 H 4830.94 0.237585 -1.54484 0
M  V30 53513 H 4831.67 2.76779 -1.69009 0
M  V30 53514 H 4831.46 2.07812 -3.32501 0
M  V30 53515 H 4832.95 2.98284 -2.92261 0
M  V30 53516 N 4833.39 1.55393 0.262811 0
M  V30 53517 C 4834.33 1.89774 1.34493 0
M  V30 53518 C 4835.33 0.775116 1.50626 0
M  V30 53519 O 4836.53 0.959572 1.5229 0
M  V30 53520 H 4832.91 0.602483 0.45002 0
M  V30 53521 H 4834.88 2.80151 1.02753 0
M  V30 53522 C 4833.63 2.1951 2.69649 0
M  V30 53523 H 4832.95 3.05387 2.58029 0
M  V30 53524 H 4834.39 2.47481 3.44281 0
M  V30 53525 C 4832.85 1.00608 3.21527 0
M  V30 53526 O 4833.38 0.245908 4.00947 0
M  V30 53527 N 4831.59 0.801009 2.79342 0
M  V30 53528 H 4831.13 1.42087 2.1487 0
M  V30 53529 H 4831.09 0.00709049 3.14399 0
M  V30 53530 N 4834.87 -0.527781 1.485 0
M  V30 53531 C 4835.81 -1.65308 1.63634 0
M  V30 53532 C 4836.81 -1.61768 0.502733 0
M  V30 53533 O 4838.01 -1.66599 0.681527 0
M  V30 53534 H 4834.39 -0.5475 0.515508 0
M  V30 53535 H 4836.36 -1.49687 2.5814 0
M  V30 53536 C 4835.11 -3.0357 1.6953 0
M  V30 53537 H 4834.43 -3.06988 2.56122 0
M  V30 53538 H 4835.87 -3.81916 1.84163 0
M  V30 53539 C 4834.33 -3.34087 0.434438 0
M  V30 53540 O 4834.86 -3.99152 -0.451712 0
M  V30 53541 N 4833.07 -2.8899 0.30547 0
M  V30 53542 H 4832.61 -2.36218 1.02755 0
M  V30 53543 H 4832.57 -3.09778 -0.53714 0
M  V30 53544 N 4836.34 -1.37125 -0.776822 0
M  V30 53545 C 4837.29 -1.32476 -1.88994 0
M  V30 53546 C 4838.26 -0.191201 -1.64996 0
M  V30 53547 O 4839.45 -0.379749 -1.86983 0
M  V30 53548 C 4836.59 -1.13252 -3.25988 0
M  V30 53549 C 4835.7 -2.35794 -3.61974 0
M  V30 53550 C 4834.83 -2.09482 -4.8815 0
M  V30 53551 C 4833.87 -3.27918 -5.16852 0
M  V30 53552 N 4833.01 -3.0119 -6.34215 0
M  V30 53553 H 4837.85 -2.27649 -1.92302 0
M  V30 53554 H 4835.39 -1.13129 -0.94023 0
M  V30 53555 H 4837.34 -1.00129 -4.05006 0
M  V30 53556 H 4835.97 -0.217299 -3.22068 0
M  V30 53557 H 4835.03 -2.59676 -2.77979 0
M  V30 53558 H 4836.34 -3.24138 -3.79125 0
M  V30 53559 H 4835.49 -1.93361 -5.75062 0
M  V30 53560 H 4834.23 -1.18469 -4.73092 0
M  V30 53561 H 4833.24 -3.44584 -4.28418 0
M  V30 53562 H 4834.46 -4.19775 -5.33821 0
M  V30 53563 H 4832.41 -2.12801 -6.20526 0
M  V30 53564 H 4832.32 -3.83075 -6.51759 0
M  V30 53565 H 4833.59 -2.88675 -7.24077 0
M  V30 53566 N 4837.82 1.00242 -1.21611 0
M  V30 53567 C 4839.23 1.55507 -1.03317 0
M  V30 53568 C 4839.58 1.91948 0.406265 0
M  V30 53569 O 4838.71 1.73757 1.28986 0
M  V30 53570 C 4839.3 2.82569 -1.86922 0
M  V30 53571 C 4837.86 3.34311 -1.72953 0
M  V30 53572 C 4837.01 2.07481 -1.83975 0
M  V30 53573 H 4839.96 0.824591 -1.35596 0
M  V30 53574 H 4839.98 3.54554 -1.381 0
M  V30 53575 H 4839.49 2.56016 -2.91681 0
M  V30 53576 H 4837.59 3.65794 -0.708899 0
M  V30 53577 H 4837.71 4.05557 -2.55069 0
M  V30 53578 H 4836.07 2.20599 -1.27311 0
M  V30 53579 H 4836.85 1.83336 -2.90246 0
M  V30 53580 N 4839.3 1.02428 1.19776 0
M  V30 53581 C 4840.21 0.610998 2.26504 0
M  V30 53582 C 4841.23 -0.355092 1.70338 0
M  V30 53583 O 4842.4 -0.214125 2.00258 0
M  V30 53584 C 4839.47 -0.0364703 3.46681 0
M  V30 53585 C 4838.53 0.976536 4.18046 0
M  V30 53586 C 4837.76 0.35987 5.32485 0
M  V30 53587 O 4837.98 -0.838402 5.64205 0
M  V30 53588 O 4836.92 1.08042 5.92124 0
M  V30 53589 H 4840.74 1.49974 2.64086 0
M  V30 53590 H 4838.33 0.7942 1.26542 0
M  V30 53591 H 4840.21 -0.397712 4.19519 0
M  V30 53592 H 4838.89 -0.899289 3.10957 0
M  V30 53593 H 4837.79 1.38928 3.47347 0
M  V30 53594 H 4839.13 1.80957 4.57728 0
M  V30 53595 N 4840.78 -1.35696 0.801525 0
M  V30 53596 C 4842.03 -1.98163 0.376049 0
M  V30 53597 C 4842.34 -1.64309 -1.06122 0
M  V30 53598 O 4843.55 -2.20103 -1.58956 0
M  V30 53599 C 4842 -3.54494 0.621429 0
M  V30 53600 C 4841.61 -3.97263 2.0709 0
M  V30 53601 C 4843.35 -4.23697 0.261059 0
M  V30 53602 C 4841.26 -5.46419 2.2623 0
M  V30 53603 H 4840.19 -0.741473 0.13687 0
M  V30 53604 H 4842.84 -1.54831 0.984869 0
M  V30 53605 H 4841.22 -3.95959 -0.057272 0
M  V30 53606 H 4842.4 -3.66965 2.787 0
M  V30 53607 H 4840.71 -3.40934 2.39066 0
M  V30 53608 H 4843.31 -5.33332 0.382182 0
M  V30 53609 H 4843.65 -4.08693 -0.7922 0
M  V30 53610 H 4844.19 -3.87636 0.893476 0
M  V30 53611 H 4840.92 -5.66385 3.29983 0
M  V30 53612 H 4840.44 -5.78303 1.5914 0
M  V30 53613 H 4842.12 -6.12812 2.07535 0
M  V30 53614 N 4842.26 -0.554584 -1.4752 0
M  V30 53615 C 4843.17 0.197783 -2.33765 0
M  V30 53616 C 4844.18 0.914524 -1.48029 0
M  V30 53617 O 4845.36 0.884004 -1.80962 0
M  V30 53618 C 4842.42 1.21616 -3.2467 0
M  V30 53619 C 4841.48 0.507133 -4.26294 0
M  V30 53620 C 4840.72 1.477 -5.12855 0
M  V30 53621 O 4840.94 2.71162 -5.01824 0
M  V30 53622 O 4839.87 1.00292 -5.93486 0
M  V30 53623 H 4843.7 -0.509595 -2.99394 0
M  V30 53624 H 4841.28 -0.315227 -1.46037 0
M  V30 53625 H 4843.17 1.80408 -3.80829 0
M  V30 53626 H 4841.84 1.90551 -2.61672 0
M  V30 53627 H 4840.75 -0.12191 -3.73901 0
M  V30 53628 H 4842.08 -0.140717 -4.91999 0
M  V30 53629 N 4843.73 1.54892 -0.290906 0
M  V30 53630 C 4844.7 2.21826 0.576706 0
M  V30 53631 C 4845.7 1.20108 1.06915 0
M  V30 53632 O 4846.89 1.4491 0.966792 0
M  V30 53633 C 4844.02 2.89668 1.79737 0
M  V30 53634 H 4845.21 2.99899 -0.00794594 0
M  V30 53635 H 4842.76 1.56245 -0.0416483 0
M  V30 53636 H 4843.5 2.15648 2.42212 0
M  V30 53637 H 4843.28 3.64224 1.45201 0
M  V30 53638 H 4844.77 3.40759 2.41398 0
M  V30 53639 N 4845.21 0.018448 1.57589 0
M  V30 53640 C 4846.17 -0.951913 2.08498 0
M  V30 53641 C 4847.17 -1.26088 0.997918 0
M  V30 53642 O 4848.36 -1.20299 1.25991 0
M  V30 53643 C 4845.5 -2.27156 2.5419 0
M  V30 53644 H 4846.69 -0.511203 2.95511 0
M  V30 53645 H 4844.24 -0.229389 1.54608 0
M  V30 53646 H 4844.98 -2.75878 1.70475 0
M  V30 53647 H 4844.76 -2.06046 3.33598 0
M  V30 53648 H 4846.25 -2.9673 2.93839 0
M  V30 53649 N 4846.69 -1.5553 -0.254567 0
M  V30 53650 C 4847.62 -1.92685 -1.3189 0
M  V30 53651 C 4848.6 -0.79085 -1.50597 0
M  V30 53652 O 4849.79 -1.05051 -1.63334 0
M  V30 53653 C 4846.92 -2.21487 -2.67509 0
M  V30 53654 C 4845.87 -3.37265 -2.63507 0
M  V30 53655 C 4845.2 -3.5159 -4.0285 0
M  V30 53656 C 4846.5 -4.73164 -2.21162 0
M  V30 53657 H 4848.19 -2.81835 -1.01041 0
M  V30 53658 H 4845.74 -1.356 -0.484614 0
M  V30 53659 H 4847.69 -2.46067 -3.42095 0
M  V30 53660 H 4846.41 -1.29154 -2.99978 0
M  V30 53661 H 4845.07 -3.12681 -1.91379 0
M  V30 53662 H 4844.72 -2.56692 -4.32572 0
M  V30 53663 H 4844.42 -4.29444 -4.01063 0
M  V30 53664 H 4845.94 -3.78484 -4.79148 0
M  V30 53665 H 4847.36 -4.97168 -2.85477 0
M  V30 53666 H 4845.75 -5.54066 -2.30501 0
M  V30 53667 H 4846.82 -4.70743 -1.16316 0
M  V30 53668 N 4848.17 0.519898 -1.48778 0
M  V30 53669 C 4849.41 1.27517 -1.57308 0
M  V30 53670 C 4849.74 1.92868 -0.251396 0
M  V30 53671 O 4849 1.80374 0.75918 0
M  V30 53672 C 4849.3 2.37854 -2.66758 0
M  V30 53673 C 4848.96 1.90088 -4.08873 0
M  V30 53674 C 4847.62 1.76779 -4.47552 0
M  V30 53675 C 4849.98 1.54115 -4.97893 0
M  V30 53676 C 4847.3 1.25848 -5.73044 0
M  V30 53677 C 4849.66 1.04643 -6.23885 0
M  V30 53678 C 4848.32 0.899591 -6.6141 0
M  V30 53679 H 4847.59 0.466616 -0.57563 0
M  V30 53680 H 4850.24 0.579045 -1.82536 0
M  V30 53681 H 4848.54 3.13178 -2.35429 0
M  V30 53682 H 4850.24 2.9596 -2.70571 0
M  V30 53683 H 4846.83 2.01401 -3.78333 0
M  V30 53684 H 4851.01 1.63253 -4.68681 0
M  V30 53685 H 4846.27 1.13175 -6.00834 0
M  V30 53686 H 4850.44 0.75883 -6.92253 0
M  V30 53687 H 4848.07 0.502744 -7.58536 0
M  V30 53688 N 4849.65 1.37535 0.769539 0
M  V30 53689 C 4850.58 1.36179 1.89678 0
M  V30 53690 C 4851.56 0.230069 1.68537 0
M  V30 53691 O 4852.74 0.430757 1.89362 0
M  V30 53692 C 4849.87 1.17021 3.26991 0
M  V30 53693 C 4848.83 2.27228 3.627 0
M  V30 53694 C 4848.15 1.93192 4.98579 0
M  V30 53695 C 4849.45 3.69423 3.69221 0
M  V30 53696 H 4851.15 2.30506 1.9107 0
M  V30 53697 H 4848.69 1.10956 0.917863 0
M  V30 53698 H 4850.65 1.14702 4.05489 0
M  V30 53699 H 4849.37 0.19151 3.26038 0
M  V30 53700 H 4848.03 2.28707 2.86511 0
M  V30 53701 H 4847.68 0.938454 4.94168 0
M  V30 53702 H 4847.38 2.66991 5.2344 0
M  V30 53703 H 4848.9 1.92463 5.79474 0
M  V30 53704 H 4850.31 3.70062 4.37866 0
M  V30 53705 H 4848.71 4.42294 4.05581 0
M  V30 53706 H 4849.78 4.02889 2.6983 0
M  V30 53707 N 4851.12 -0.995956 1.22141 0
M  V30 53708 C 4852.4 -1.7083 0.952702 0
M  V30 53709 C 4852.78 -2.04259 -0.533047 0
M  V30 53710 O 4852.13 -1.72348 -1.50028 0
M  V30 53711 C 4852.34 -2.96113 1.84712 0
M  V30 53712 C 4853.69 -3.68955 2.10137 0
M  V30 53713 O 4854.71 -3.06114 1.82134 0
M  V30 53714 O 4853.57 -4.82008 2.57548 0
M  V30 53715 H 4850.66 -0.745485 0.358023 0
M  V30 53716 H 4853.21 -1.05257 1.33113 0
M  V30 53717 H 4851.98 -2.67888 2.85222 0
M  V30 53718 H 4851.61 -3.69424 1.47008 0
M  V30 53719 N 4852.6 -1.03061 -1.19231 0
M  V30 53720 C 4853.85 -0.738907 -1.89504 0
M  V30 53721 C 4854.2 0.724744 -1.78228 0
M  V30 53722 O 4853.5 1.52114 -1.16499 0
M  V30 53723 C 4853.69 -1.12692 -3.39169 0
M  V30 53724 C 4853.52 -2.62675 -3.6501 0
M  V30 53725 C 4852.29 -3.29672 -3.82942 0
M  V30 53726 C 4854.49 -3.60885 -3.66424 0
M  V30 53727 N 4852.47 -4.6874 -3.96429 0
M  V30 53728 C 4853.84 -4.85579 -3.85503 0
M  V30 53729 C 4855.9 -3.54659 -3.49459 0
M  V30 53730 C 4854.6 -6.04797 -3.89375 0
M  V30 53731 C 4856.62 -4.73293 -3.54609 0
M  V30 53732 C 4855.99 -5.96802 -3.74175 0
M  V30 53733 H 4852.09 -0.322281 -0.712502 0
M  V30 53734 H 4854.67 -1.31827 -1.43282 0
M  V30 53735 H 4852.84 -0.575747 -3.84109 0
M  V30 53736 H 4854.57 -0.787285 -3.96968 0
M  V30 53737 H 4851.33 -2.80083 -3.81904 0
M  V30 53738 H 4851.75 -5.40985 -4.07018 0
M  V30 53739 H 4856.39 -2.60155 -3.33286 0
M  V30 53740 H 4854.11 -6.99668 -4.0434 0
M  V30 53741 H 4857.7 -4.70106 -3.4277 0
M  V30 53742 H 4856.58 -6.87065 -3.78037 0
M  V30 53743 N 4854.08 1.35269 -0.80871 0
M  V30 53744 C 4855.01 2.27595 -0.166074 0
M  V30 53745 C 4855.99 1.48191 0.669189 0
M  V30 53746 O 4857.18 1.77446 0.63601 0
M  V30 53747 C 4854.3 3.29846 0.769389 0
M  V30 53748 C 4853.35 4.26498 0.0134767 0
M  V30 53749 S 4854.18 5.18874 -1.32402 0
M  V30 53750 C 4855.34 6.24665 -0.393058 0
M  V30 53751 H 4855.57 2.81752 -0.948855 0
M  V30 53752 H 4853.1 1.42101 -0.603878 0
M  V30 53753 H 4855.06 3.89251 1.3036 0
M  V30 53754 H 4853.72 2.74563 1.52557 0
M  V30 53755 H 4852.92 4.98772 0.724052 0
M  V30 53756 H 4852.52 3.71273 -0.450843 0
M  V30 53757 H 4854.81 6.76192 0.420862 0
M  V30 53758 H 4855.75 6.99737 -1.08505 0
M  V30 53759 H 4856.16 5.64499 0.0121924 0
M  V30 53760 N 4855.56 0.5624 1.47224 0
M  V30 53761 C 4856.97 0.222547 1.58041 0
M  V30 53762 C 4857.17 -1.275 1.56032 0
M  V30 53763 O 4856.23 -2.05549 1.46648 0
M  V30 53764 C 4857.54 0.853795 2.88324 0
M  V30 53765 C 4859.09 0.825503 3.01918 0
M  V30 53766 C 4859.57 1.43592 4.34909 0
M  V30 53767 N 4861.06 1.39933 4.41557 0
M  V30 53768 C 4861.79 1.84122 5.43035 0
M  V30 53769 N 4861.29 2.3619 6.51296 0
M  V30 53770 N 4863.08 1.75161 5.34111 0
M  V30 53771 H 4855.23 1.5353 1.46773 0
M  V30 53772 H 4857.5 0.640551 0.698855 0
M  V30 53773 H 4857.2 1.90645 2.95546 0
M  V30 53774 H 4857.08 0.349902 3.75574 0
M  V30 53775 H 4859.46 -0.218479 2.9429 0
M  V30 53776 H 4859.54 1.36721 2.16197 0
M  V30 53777 H 4859.19 2.47899 4.43293 0
M  V30 53778 H 4859.12 0.869609 5.1937 0
M  V30 53779 H 4861.61 1.01852 3.63916 0
M  V30 53780 H 4861.92 2.67818 7.24909 0
M  V30 53781 H 4860.27 2.40204 6.52171 0
M  V30 53782 H 4863.46 1.34256 4.48434 0
M  V30 53783 H 4863.63 2.09916 6.13057 0
M  V30 53784 N 4857.04 -1.54735 0.299116 0
M  V30 53785 C 4857.97 -2.26411 -0.571005 0
M  V30 53786 C 4858.95 -1.26294 -1.13947 0
M  V30 53787 O 4860.13 -1.55063 -1.16915 0
M  V30 53788 C 4857.26 -3.00345 -1.74386 0
M  V30 53789 C 4856.22 -4.07593 -1.30584 0
M  V30 53790 C 4855.54 -4.69231 -2.56371 0
M  V30 53791 C 4856.84 -5.20456 -0.438462 0
M  V30 53792 H 4858.54 -2.99388 0.0268043 0
M  V30 53793 H 4856.08 -1.43993 0.0143318 0
M  V30 53794 H 4858.04 -3.49207 -2.35866 0
M  V30 53795 H 4856.76 -2.24942 -2.36788 0
M  V30 53796 H 4855.42 -3.59577 -0.714114 0
M  V30 53797 H 4855.07 -3.90471 -3.17083 0
M  V30 53798 H 4854.77 -5.41661 -2.27765 0
M  V30 53799 H 4856.29 -5.20855 -3.18657 0
M  V30 53800 H 4857.7 -5.65224 -0.958887 0
M  V30 53801 H 4856.1 -5.99595 -0.246255 0
M  V30 53802 H 4857.17 -4.81918 0.536907 0
M  V30 53803 N 4858.51 -0.0268051 -1.57577 0
M  V30 53804 C 4859.42 0.971558 -2.13537 0
M  V30 53805 C 4860.44 1.35864 -1.08706 0
M  V30 53806 O 4861.62 1.44053 -1.40751 0
M  V30 53807 C 4858.68 2.23613 -2.64949 0
M  V30 53808 C 4857.74 1.90968 -3.84486 0
M  V30 53809 C 4856.98 3.11396 -4.33438 0
M  V30 53810 O 4857.2 4.23979 -3.81573 0
M  V30 53811 O 4856.13 2.93829 -5.25308 0
M  V30 53812 H 4859.96 0.525748 -2.99115 0
M  V30 53813 H 4857.54 0.19366 -1.4814 0
M  V30 53814 H 4859.43 2.97853 -2.98096 0
M  V30 53815 H 4858.1 2.67379 -1.82456 0
M  V30 53816 H 4857.01 1.14119 -3.56269 0
M  V30 53817 H 4858.34 1.52019 -4.68136 0
M  V30 53818 N 4859.99 1.55663 0.246315 0
M  V30 53819 C 4861.4 1.67956 0.815331 0
M  V30 53820 C 4861.75 0.624367 1.86 0
M  V30 53821 O 4860.88 -0.229252 2.15182 0
M  V30 53822 C 4861.47 3.04489 1.48565 0
M  V30 53823 C 4860.03 3.1872 2.00236 0
M  V30 53824 C 4859.18 2.63833 0.853674 0
M  V30 53825 H 4862.13 1.58685 0.0221134 0
M  V30 53826 H 4862.15 2.98967 2.3537 0
M  V30 53827 H 4861.66 3.81266 0.725088 0
M  V30 53828 H 4859.77 2.46767 2.79172 0
M  V30 53829 H 4859.88 4.25635 2.19935 0
M  V30 53830 H 4858.24 2.21672 1.25434 0
M  V30 53831 H 4859.03 3.43136 0.106181 0
M  V30 53832 N 4861.47 -0.512001 1.49051 0
M  V30 53833 C 4862.4 -1.63116 1.61015 0
M  V30 53834 C 4863.42 -1.55143 0.493407 0
M  V30 53835 O 4864.6 -1.61276 0.765011 0
M  V30 53836 C 4861.7 -3.01858 1.54062 0
M  V30 53837 C 4860.88 -3.35128 2.81084 0
M  V30 53838 C 4859.94 -4.53231 2.67335 0
M  V30 53839 O 4858.96 -4.55559 3.41254 0
M  V30 53840 N 4860.16 -5.52489 1.78147 0
M  V30 53841 H 4862.93 -1.53283 2.57535 0
M  V30 53842 H 4860.49 -0.699655 1.46002 0
M  V30 53843 H 4862.48 -3.78769 1.42534 0
M  V30 53844 H 4861.05 -3.05673 0.654452 0
M  V30 53845 H 4860.27 -2.47219 3.07044 0
M  V30 53846 H 4861.56 -3.54149 3.65316 0
M  V30 53847 H 4860.96 -5.53399 1.17327 0
M  V30 53848 H 4859.52 -6.28546 1.72547 0
M  V30 53849 N 4862.95 -1.37941 -0.762235 0
M  V30 53850 C 4864.17 -1.37064 -1.55654 0
M  V30 53851 C 4864.6 0.0395462 -1.88058 0
M  V30 53852 O 4863.96 1.01924 -1.49937 0
M  V30 53853 C 4864 -2.22504 -2.83768 0
M  V30 53854 O 4863.11 -1.6362 -3.78553 0
M  V30 53855 H 4862.45 -0.467909 -0.471124 0
M  V30 53856 H 4864.98 -1.8159 -0.942662 0
M  V30 53857 H 4864.99 -2.36057 -3.32778 0
M  V30 53858 H 4863.66 -3.25002 -2.59512 0
M  V30 53859 H 4862.24 -1.59162 -3.37227 0
M  V30 53860 N 4864.43 0.989464 -1.22668 0
M  V30 53861 C 4865.36 2.07802 -0.943058 0
M  V30 53862 C 4866.34 1.62191 0.115299 0
M  V30 53863 O 4867.52 1.88492 -0.0170228 0
M  V30 53864 C 4864.65 3.36098 -0.419016 0
M  V30 53865 C 4863.7 4.00638 -1.46258 0
M  V30 53866 S 4864.53 4.41049 -3.03704 0
M  V30 53867 C 4865.68 5.72511 -2.52947 0
M  V30 53868 H 4865.92 2.3154 -1.86485 0
M  V30 53869 H 4863.45 1.12442 -1.05812 0
M  V30 53870 H 4865.41 4.10315 -0.123258 0
M  V30 53871 H 4864.07 3.10384 0.481709 0
M  V30 53872 H 4863.26 4.93029 -1.04586 0
M  V30 53873 H 4862.86 3.32761 -1.70722 0
M  V30 53874 H 4865.16 6.4901 -1.94402 0
M  V30 53875 H 4866.1 6.19014 -3.43842 0
M  V30 53876 H 4866.51 5.30076 -1.94112 0
M  V30 53877 N 4865.91 1.03692 1.18683 0
M  V30 53878 C 4867.15 0.73919 1.88849 0
M  V30 53879 C 4867.48 -0.730979 1.79918 0
M  V30 53880 O 4866.76 -1.53309 1.19694 0
M  V30 53881 C 4867.04 1.20118 3.39475 0
M  V30 53882 C 4866.9 2.73317 3.57236 0
M  V30 53883 C 4868.21 0.788286 4.32983 0
M  V30 53884 H 4865.33 0.270003 0.685761 0
M  V30 53885 H 4867.98 1.28827 1.39655 0
M  V30 53886 H 4866.13 0.734049 3.81502 0
M  V30 53887 H 4867.8 3.28039 3.24327 0
M  V30 53888 H 4866.04 3.13323 3.00018 0
M  V30 53889 H 4866.71 3.007 4.62908 0
M  V30 53890 H 4869.19 1.19019 3.98715 0
M  V30 53891 H 4868.06 1.13934 5.36945 0
M  V30 53892 H 4868.32 -0.308833 4.4102 0
M  V30 53893 N 4867.38 -1.34838 0.815872 0
M  V30 53894 C 4868.63 -1.99218 0.410358 0
M  V30 53895 C 4868.98 -1.63535 -1.0136 0
M  V30 53896 O 4868.28 -0.893153 -1.69509 0
M  V30 53897 C 4868.47 -3.53271 0.541665 0
M  V30 53898 C 4868.3 -4.0392 1.97684 0
M  V30 53899 C 4867.07 -4.32842 2.60721 0
M  V30 53900 C 4869.27 -4.21797 2.94265 0
M  V30 53901 N 4867.25 -4.6948 3.95553 0
M  V30 53902 C 4868.62 -4.61535 4.13987 0
M  V30 53903 C 4870.68 -4.04028 2.90974 0
M  V30 53904 C 4869.38 -4.85362 5.30864 0
M  V30 53905 C 4871.41 -4.29017 4.07061 0
M  V30 53906 C 4870.77 -4.69035 5.25533 0
M  V30 53907 H 4866.87 -0.756487 0.198121 0
M  V30 53908 H 4869.45 -1.63376 1.05908 0
M  V30 53909 H 4867.62 -3.88323 -0.0771179 0
M  V30 53910 H 4869.35 -4.04551 0.109836 0
M  V30 53911 H 4866.11 -4.23496 2.1201 0
M  V30 53912 H 4866.53 -4.92044 4.64996 0
M  V30 53913 H 4871.17 -3.72223 2.00525 0
M  V30 53914 H 4868.89 -5.16037 6.21877 0
M  V30 53915 H 4872.48 -4.16811 4.05906 0
M  V30 53916 H 4871.36 -4.87993 6.13867 0
M  V30 53917 N 4868.86 -0.570199 -1.46923 0
M  V30 53918 C 4869.79 0.158192 -2.32964 0
M  V30 53919 C 4870.77 0.896042 -1.44586 0
M  V30 53920 O 4871.96 0.873961 -1.73423 0
M  V30 53921 C 4869.09 1.18044 -3.26624 0
M  V30 53922 C 4868.04 0.55823 -4.24344 0
M  V30 53923 C 4867.37 1.68605 -5.07421 0
M  V30 53924 C 4868.67 -0.496478 -5.19935 0
M  V30 53925 H 4870.36 -0.56015 -2.94113 0
M  V30 53926 H 4867.91 -0.270825 -1.4143 0
M  V30 53927 H 4869.86 1.69827 -3.85664 0
M  V30 53928 H 4868.58 1.92889 -2.63555 0
M  V30 53929 H 4867.24 0.0615868 -3.66548 0
M  V30 53930 H 4866.89 2.42386 -4.40747 0
M  V30 53931 H 4866.59 1.27544 -5.73591 0
M  V30 53932 H 4868.12 2.20689 -5.69323 0
M  V30 53933 H 4869.53 -0.0642068 -5.73264 0
M  V30 53934 H 4867.93 -0.826699 -5.94378 0
M  V30 53935 H 4869 -1.38751 -4.64625 0
M  V30 53936 N 4870.34 1.54575 -0.307318 0
M  V30 53937 C 4871.75 1.85791 0.184055 0
M  V30 53938 C 4872.1 1.22919 1.52923 0
M  V30 53939 O 4871.23 0.5292 2.0983 0
M  V30 53940 C 4871.82 3.37082 0.340743 0
M  V30 53941 C 4870.38 3.68307 0.776336 0
M  V30 53942 C 4869.53 2.77075 -0.1116 0
M  V30 53943 H 4872.48 1.49654 -0.528131 0
M  V30 53944 H 4872.5 3.61926 1.17431 0
M  V30 53945 H 4872.01 3.82813 -0.638444 0
M  V30 53946 H 4870.11 3.28098 1.76585 0
M  V30 53947 H 4870.23 4.75437 0.591345 0
M  V30 53948 H 4868.59 2.51376 0.410168 0
M  V30 53949 H 4869.37 3.25628 -1.08726 0
M  V30 53950 N 4871.82 0.0351614 1.57561 0
M  V30 53951 C 4873.06 -0.643112 1.92333 0
M  V30 53952 C 4873.4 -1.7143 0.912428 0
M  V30 53953 O 4872.67 -1.94395 -0.063962 0
M  V30 53954 C 4872.95 -1.25399 3.3756 0
M  V30 53955 C 4872.81 -0.191951 4.4939 0
M  V30 53956 C 4874.13 -2.17028 3.82867 0
M  V30 53957 H 4871.25 -0.232317 0.699427 0
M  V30 53958 H 4873.89 0.0936556 1.89769 0
M  V30 53959 H 4872.04 -1.88193 3.39876 0
M  V30 53960 H 4873.71 0.439011 4.59206 0
M  V30 53961 H 4871.95 0.481877 4.31115 0
M  V30 53962 H 4872.62 -0.659099 5.48051 0
M  V30 53963 H 4875.1 -1.64214 3.82326 0
M  V30 53964 H 4873.98 -2.56721 4.85166 0
M  V30 53965 H 4874.24 -3.0639 3.18713 0
M  V30 53966 N 4873.3 -1.55792 -0.238056 0
M  V30 53967 C 4874.23 -1.94073 -1.29839 0
M  V30 53968 C 4875.21 -0.806779 -1.4975 0
M  V30 53969 O 4876.39 -1.06778 -1.6221 0
M  V30 53970 C 4873.52 -2.24311 -2.65145 0
M  V30 53971 C 4872.48 -3.40041 -2.59915 0
M  V30 53972 C 4871.8 -3.55843 -3.99098 0
M  V30 53973 C 4873.1 -4.75484 -2.16131 0
M  V30 53974 H 4874.8 -2.82891 -0.980464 0
M  V30 53975 H 4872.34 -1.36107 -0.470205 0
M  V30 53976 H 4874.29 -2.49682 -3.39466 0
M  V30 53977 H 4873.02 -1.32329 -2.98591 0
M  V30 53978 H 4871.68 -3.14694 -1.88052 0
M  V30 53979 H 4871.33 -2.61265 -4.29825 0
M  V30 53980 H 4871.03 -4.33674 -3.96485 0
M  V30 53981 H 4872.55 -3.83544 -4.75106 0
M  V30 53982 H 4873.96 -5.00168 -2.80188 0
M  V30 53983 H 4872.36 -5.5648 -2.24612 0
M  V30 53984 H 4873.43 -4.7195 -1.11316 0
M  V30 53985 N 4874.77 0.504089 -1.49321 0
M  V30 53986 C 4875.72 1.60279 -1.62156 0
M  V30 53987 C 4876.71 1.53655 -0.477369 0
M  V30 53988 O 4877.9 1.61238 -0.730165 0
M  V30 53989 C 4875.03 2.98903 -1.68855 0
M  V30 53990 C 4874.11 3.10534 -2.88841 0
M  V30 53991 N 4874.51 2.92063 -4.12956 0
M  V30 53992 C 4872.8 3.4163 -2.86714 0
M  V30 53993 C 4873.5 3.07795 -4.93596 0
M  V30 53994 N 4872.48 3.36534 -4.26903 0
M  V30 53995 H 4876.28 1.44647 -2.55841 0
M  V30 53996 H 4873.8 0.710147 -1.4605 0
M  V30 53997 H 4875.79 3.77859 -1.76148 0
M  V30 53998 H 4874.45 3.15607 -0.763054 0
M  V30 53999 H 4875.46 2.683 -4.42985 0
M  V30 54000 H 4872.14 3.64529 -2.0353 0
M  V30 54001 H 4873.53 2.98033 -6.02184 0
M  V30 54002 N 4876.25 1.38343 0.754909 0
M  V30 54003 C 4877.67 1.19511 1.05779 0
M  V30 54004 C 4877.87 0.0428713 2.01454 0
M  V30 54005 O 4876.92 -0.611774 2.44977 0
M  V30 54006 C 4878.24 2.52096 1.63914 0
M  V30 54007 C 4879.78 2.58768 1.76092 0
M  V30 54008 C 4880.26 3.91525 2.37639 0
M  V30 54009 N 4881.75 3.93058 2.45071 0
M  V30 54010 C 4882.49 4.9254 2.93584 0
M  V30 54011 N 4881.98 6.0242 3.42143 0
M  V30 54012 N 4883.77 4.79932 2.92613 0
M  V30 54013 H 4875.93 2.12061 0.119982 0
M  V30 54014 H 4878.19 0.940894 0.115857 0
M  V30 54015 H 4877.89 3.36861 1.01081 0
M  V30 54016 H 4877.77 2.70397 2.62993 0
M  V30 54017 H 4880.16 1.74399 2.38052 0
M  V30 54018 H 4880.24 2.44336 0.757208 0
M  V30 54019 H 4879.88 4.76316 1.76312 0
M  V30 54020 H 4879.81 4.03268 3.38648 0
M  V30 54021 H 4882.3 3.13693 2.10725 0
M  V30 54022 H 4882.61 6.74261 3.77613 0
M  V30 54023 H 4880.96 6.06041 3.40204 0
M  V30 54024 H 4884.15 3.93203 2.53987 0
M  V30 54025 H 4884.32 5.57613 3.30109 0
M  V30 54026 N 4877.73 -0.982945 1.23191 0
M  V30 54027 C 4878.98 -1.72644 1.06404 0
M  V30 54028 C 4879.31 -1.90068 -0.398494 0
M  V30 54029 O 4878.58 -1.45109 -1.29513 0
M  V30 54030 C 4878.87 -3.12621 1.78718 0
M  V30 54031 C 4878.72 -3.02784 3.32629 0
M  V30 54032 C 4880.04 -4.11991 1.54762 0
M  V30 54033 H 4877.16 -0.626635 0.38794 0
M  V30 54034 H 4879.8 -1.1445 1.51662 0
M  V30 54035 H 4877.95 -3.62303 1.40246 0
M  V30 54036 H 4879.62 -2.60646 3.80607 0
M  V30 54037 H 4877.86 -2.3935 3.61793 0
M  V30 54038 H 4878.54 -4.0188 3.78414 0
M  V30 54039 H 4881.01 -3.71107 1.88199 0
M  V30 54040 H 4879.89 -5.0803 2.07839 0
M  V30 54041 H 4880.15 -4.3946 0.482403 0
M  V30 54042 N 4879.21 -1.0432 -1.18132 0
M  V30 54043 C 4880.17 -0.640872 -2.20058 0
M  V30 54044 C 4881.17 0.303069 -1.57918 0
M  V30 54045 O 4882.36 0.0881244 -1.73977 0
M  V30 54046 C 4879.49 0.0600282 -3.40847 0
M  V30 54047 H 4880.69 -1.5429 -2.57167 0
M  V30 54048 H 4878.24 -0.83605 -1.3206 0
M  V30 54049 H 4878.97 0.975736 -3.09273 0
M  V30 54050 H 4878.76 -0.618455 -3.87192 0
M  V30 54051 H 4880.25 0.327936 -4.1631 0
M  V30 54052 N 4880.69 1.34403 -0.823012 0
M  V30 54053 C 4881.65 2.27829 -0.250351 0
M  V30 54054 C 4882.65 1.5029 0.571801 0
M  V30 54055 O 4883.84 1.69826 0.387893 0
M  V30 54056 C 4880.97 3.34665 0.649019 0
M  V30 54057 H 4882.16 2.79989 -1.07454 0
M  V30 54058 H 4879.72 1.44537 -0.59488 0
M  V30 54059 H 4880.45 2.87719 1.49626 0
M  V30 54060 H 4880.24 3.92053 0.0609821 0
M  V30 54061 H 4881.73 4.04353 1.04349 0
M  V30 54062 N 4882.16 0.577983 1.46619 0
M  V30 54063 C 4883.13 -0.147725 2.28723 0
M  V30 54064 C 4884.13 -0.823276 1.38126 0
M  V30 54065 O 4885.32 -0.675954 1.60551 0
M  V30 54066 C 4882.45 -1.21842 3.18382 0
M  V30 54067 H 4883.64 0.573757 2.9436 0
M  V30 54068 H 4881.2 0.335757 1.52651 0
M  V30 54069 H 4881.93 -1.97164 2.57482 0
M  V30 54070 H 4881.72 -0.738579 3.85081 0
M  V30 54071 H 4883.21 -1.72754 3.80192 0
M  V30 54072 N 4883.64 -1.54409 0.315511 0
M  V30 54073 C 4884.55 -2.27739 -0.56321 0
M  V30 54074 C 4885.57 -1.31791 -1.13609 0
M  V30 54075 O 4886.74 -1.64795 -1.15778 0
M  V30 54076 C 4883.81 -3.01484 -1.71196 0
M  V30 54077 C 4882.87 -4.13001 -1.1717 0
M  V30 54078 C 4882.1 -4.8322 -2.26571 0
M  V30 54079 O 4882.33 -4.52896 -3.46759 0
M  V30 54080 O 4881.26 -5.70306 -1.92443 0
M  V30 54081 H 4885.09 -3.03683 0.0320681 0
M  V30 54082 H 4882.67 -1.49178 0.0814712 0
M  V30 54083 H 4884.55 -3.47692 -2.38094 0
M  V30 54084 H 4883.23 -2.28422 -2.29357 0
M  V30 54085 H 4882.14 -3.71161 -0.468044 0
M  V30 54086 H 4883.47 -4.88082 -0.635329 0
M  V30 54087 N 4885.12 -0.0435168 -1.5754 0
M  V30 54088 C 4886.35 0.641766 -1.96695 0
M  V30 54089 C 4886.76 1.64828 -0.92071 0
M  V30 54090 O 4886.12 1.82248 0.0959289 0
M  V30 54091 C 4886.17 1.33545 -3.35928 0
M  V30 54092 O 4885.89 0.369249 -4.36541 0
M  V30 54093 C 4887.39 2.11121 -3.89798 0
M  V30 54094 H 4884.61 0.17599 -0.647509 0
M  V30 54095 H 4887.16 -0.107549 -2.04217 0
M  V30 54096 H 4885.31 2.03606 -3.29581 0
M  V30 54097 H 4885.73 0.863492 -5.17343 0
M  V30 54098 H 4887.2 2.5509 -4.89523 0
M  V30 54099 H 4887.68 2.95623 -3.24813 0
M  V30 54100 H 4888.28 1.45988 -3.99459 0
M  V30 54101 N 4886.6 1.55916 0.229791 0
M  V30 54102 C 4887.56 1.90919 1.26818 0
M  V30 54103 C 4888.56 0.787049 1.40222 0
M  V30 54104 O 4889.75 1.05488 1.38628 0
M  V30 54105 C 4886.88 2.15274 2.64329 0
M  V30 54106 H 4888.08 2.83783 0.969898 0
M  V30 54107 H 4885.63 1.49071 0.469847 0
M  V30 54108 H 4886.36 1.24933 2.99269 0
M  V30 54109 H 4886.15 2.97014 2.55979 0
M  V30 54110 H 4887.64 2.43478 3.39276 0
M  V30 54111 N 4888.08 -0.496163 1.49586 0
M  V30 54112 C 4889.02 -1.59716 1.66611 0
M  V30 54113 C 4889.99 -1.58156 0.507532 0
M  V30 54114 O 4891.18 -1.76069 0.735138 0
M  V30 54115 C 4888.32 -2.97838 1.74318 0
M  V30 54116 C 4887.43 -3.09377 3.01512 0
M  V30 54117 C 4886.57 -4.38261 3.00168 0
M  V30 54118 C 4885.61 -4.43451 4.21922 0
M  V30 54119 N 4884.74 -5.63769 4.1846 0
M  V30 54120 H 4889.58 -1.44506 2.60618 0
M  V30 54121 H 4887.12 -0.703003 1.29214 0
M  V30 54122 H 4889.08 -3.77901 1.76767 0
M  V30 54123 H 4887.71 -3.1174 0.837729 0
M  V30 54124 H 4886.76 -2.22346 3.08652 0
M  V30 54125 H 4888.07 -3.09072 3.91505 0
M  V30 54126 H 4887.23 -5.26649 3.01207 0
M  V30 54127 H 4885.96 -4.41138 2.07962 0
M  V30 54128 H 4884.97 -3.53464 4.21122 0
M  V30 54129 H 4886.19 -4.42285 5.15326 0
M  V30 54130 H 4884.14 -5.6748 3.29094 0
M  V30 54131 H 4884.06 -5.65101 5.02193 0
M  V30 54132 H 4885.33 -6.54352 4.23608 0
M  V30 54133 N 4889.55 -1.38742 -0.747561 0
M  V30 54134 C 4890.5 -1.32955 -1.85222 0
M  V30 54135 C 4891.49 -0.212698 -1.59488 0
M  V30 54136 O 4892.68 -0.449182 -1.71206 0
M  V30 54137 C 4889.81 -1.16291 -3.23004 0
M  V30 54138 C 4888.9 -2.32623 -3.54609 0
M  V30 54139 N 4889.29 -3.58077 -3.57231 0
M  V30 54140 C 4887.58 -2.25307 -3.84906 0
M  V30 54141 C 4888.29 -4.34933 -3.86275 0
M  V30 54142 N 4887.26 -3.64362 -4.03412 0
M  V30 54143 H 4891.06 -2.27933 -1.85536 0
M  V30 54144 H 4888.58 -1.32059 -0.945207 0
M  V30 54145 H 4890.57 -1.10228 -4.02064 0
M  V30 54146 H 4889.23 -0.222508 -3.23937 0
M  V30 54147 H 4890.25 -3.91668 -3.38846 0
M  V30 54148 H 4886.92 -1.3946 -3.93519 0
M  V30 54149 H 4888.31 -5.43619 -3.94877 0
M  V30 54150 N 4891.03 0.976398 -1.2371 0
M  V30 54151 C 4891.96 2.07209 -0.979647 0
M  V30 54152 C 4892.98 1.6273 0.0477956 0
M  V30 54153 O 4894.17 1.77505 -0.188212 0
M  V30 54154 C 4891.27 3.35833 -0.454909 0
M  V30 54155 C 4890.44 4.09263 -1.54346 0
M  V30 54156 C 4889.5 5.16162 -1.02289 0
M  V30 54157 O 4888.52 5.42821 -1.71273 0
M  V30 54158 N 4889.73 5.80313 0.147215 0
M  V30 54159 H 4892.49 2.29871 -1.923 0
M  V30 54160 H 4890.05 1.14339 -1.14622 0
M  V30 54161 H 4892.04 4.04596 -0.0916053 0
M  V30 54162 H 4890.61 3.10108 0.393959 0
M  V30 54163 H 4889.83 3.34898 -2.07935 0
M  V30 54164 H 4891.12 4.55087 -2.27538 0
M  V30 54165 H 4890.52 5.61046 0.724155 0
M  V30 54166 H 4889.08 6.50233 0.451744 0
M  V30 54167 N 4892.51 1.04945 1.17577 0
M  V30 54168 C 4893.47 0.652533 2.19715 0
M  V30 54169 C 4894.47 -0.29469 1.58077 0
M  V30 54170 O 4895.66 -0.0788967 1.74021 0
M  V30 54171 C 4892.8 -0.0419514 3.40874 0
M  V30 54172 H 4893.99 1.55651 2.56345 0
M  V30 54173 H 4891.54 0.843042 1.31615 0
M  V30 54174 H 4892.28 -0.959321 3.09786 0
M  V30 54175 H 4892.06 0.63898 3.86858 0
M  V30 54176 H 4893.55 -0.305853 4.16478 0
M  V30 54177 N 4893.99 -1.33965 0.830128 0
M  V30 54178 C 4894.94 -2.29386 0.255089 0
M  V30 54179 C 4895.91 -1.53926 -0.624189 0
M  V30 54180 O 4897.09 -1.82264 -0.564308 0
M  V30 54181 C 4894.23 -3.40342 -0.57109 0
M  V30 54182 C 4893.34 -4.30728 0.331234 0
M  V30 54183 C 4892.48 -5.28792 -0.505204 0
M  V30 54184 C 4891.52 -6.10817 0.396058 0
M  V30 54185 N 4890.66 -7.0095 -0.401733 0
M  V30 54186 H 4895.5 -2.77968 1.07414 0
M  V30 54187 H 4893.03 -1.36783 0.541181 0
M  V30 54188 H 4894.99 -4.03365 -1.06548 0
M  V30 54189 H 4893.62 -2.92975 -1.35519 0
M  V30 54190 H 4892.67 -3.68504 0.943889 0
M  V30 54191 H 4893.98 -4.88177 1.02394 0
M  V30 54192 H 4893.14 -5.97301 -1.06378 0
M  V30 54193 H 4891.88 -4.71899 -1.23138 0
M  V30 54194 H 4890.88 -5.41234 0.966719 0
M  V30 54195 H 4892.11 -6.69793 1.12046 0
M  V30 54196 H 4890.05 -6.46516 -1.11145 0
M  V30 54197 H 4889.97 -7.55643 0.232433 0
M  V30 54198 H 4891.24 -7.73777 -0.94283 0
M  V30 54199 N 4895.47 -0.585751 -1.4631 0
M  V30 54200 C 4896.71 -0.075215 -2.04262 0
M  V30 54201 C 4897.07 1.26196 -1.44701 0
M  V30 54202 O 4898.27 1.86192 -1.93872 0
M  V30 54203 C 4896.54 -0.0136036 -3.57397 0
M  V30 54204 S 4898.1 0.438915 -4.36599 0
M  V30 54205 H 4894.92 -0.0389478 -0.709932 0
M  V30 54206 H 4897.52 -0.778934 -1.79312 0
M  V30 54207 H 4896.23 -0.990698 -3.98263 0
M  V30 54208 H 4895.76 0.712791 -3.86889 0
M  V30 54209 H 4897.77 1.69304 -4.66423 0
M  V30 54210 N 4896.95 1.5424 -0.323695 0
M  V30 54211 C 4897.89 2.25815 0.557724 0
M  V30 54212 C 4898.89 1.27229 1.11845 0
M  V30 54213 O 4900.09 1.45005 1.06647 0
M  V30 54214 H 4896.47 0.725327 0.198507 0
M  V30 54215 H 4898.44 2.98322 -0.0682161 0
M  V30 54216 C 4897.19 3.02919 1.7069 0
M  V30 54217 H 4896.51 3.78597 1.28469 0
M  V30 54218 H 4897.95 3.56246 2.29923 0
M  V30 54219 C 4896.41 2.11227 2.62459 0
M  V30 54220 O 4896.94 1.69521 3.64178 0
M  V30 54221 N 4895.15 1.76712 2.30697 0
M  V30 54222 H 4894.69 2.10825 1.48022 0
M  V30 54223 H 4894.65 1.15641 2.9236 0
M  V30 54224 N 4898.42 0.0518709 1.57515 0
M  V30 54225 C 4899.67 -0.621219 1.91895 0
M  V30 54226 C 4899.99 -1.71962 0.932113 0
M  V30 54227 O 4901.19 -2.45092 1.168 0
M  V30 54228 C 4899.65 -1.15629 3.4082 0
M  V30 54229 C 4899.26 -0.0899571 4.4791 0
M  V30 54230 C 4901 -1.80458 3.84233 0
M  V30 54231 C 4898.91 -0.637948 5.87949 0
M  V30 54232 H 4897.84 -0.235809 0.716177 0
M  V30 54233 H 4900.49 0.120874 1.83101 0
M  V30 54234 H 4898.87 -1.95072 3.4462 0
M  V30 54235 H 4900.04 0.683685 4.557 0
M  V30 54236 H 4898.36 0.46092 4.13841 0
M  V30 54237 H 4900.96 -2.22454 4.86229 0
M  V30 54238 H 4901.3 -2.65658 3.20518 0
M  V30 54239 H 4901.83 -1.0767 3.82952 0
M  V30 54240 H 4898.57 0.176432 6.55263 0
M  V30 54241 H 4898.09 -1.37956 5.83719 0
M  V30 54242 H 4899.77 -1.12062 6.37221 0
M  V30 54243 N 4899.9 -1.56035 -0.221519 0
M  V30 54244 C 4901.14 -1.80825 -0.952975 0
M  V30 54245 C 4901.51 -0.62538 -1.8153 0
M  V30 54246 O 4902.71 -0.752582 -2.5805 0
M  V30 54247 C 4900.98 -3.10509 -1.76972 0
M  V30 54248 S 4902.54 -3.56613 -2.55681 0
M  V30 54249 H 4899.35 -0.63486 -0.320115 0
M  V30 54250 H 4901.96 -1.94275 -0.218551 0
M  V30 54251 H 4900.66 -3.9464 -1.12637 0
M  V30 54252 H 4900.19 -2.99866 -2.54644 0
M  V30 54253 H 4902.21 -3.19954 -3.79268 0
M  V30 54254 N 4901.38 0.488223 -1.49847 0
M  V30 54255 C 4902.33 1.5883 -1.67456 0
M  V30 54256 C 4903.3 1.57885 -0.515912 0
M  V30 54257 O 4904.48 1.75677 -0.744465 0
M  V30 54258 C 4901.62 2.96909 -1.75895 0
M  V30 54259 C 4900.73 3.07774 -3.03149 0
M  V30 54260 C 4899.87 4.36663 -3.02488 0
M  V30 54261 C 4898.91 4.41207 -4.24267 0
M  V30 54262 N 4898.05 5.61542 -4.21444 0
M  V30 54263 H 4902.89 1.43122 -2.61381 0
M  V30 54264 H 4900.42 0.69614 -1.29585 0
M  V30 54265 H 4902.38 3.76958 -1.78769 0
M  V30 54266 H 4901.01 3.11292 -0.85425 0
M  V30 54267 H 4900.06 2.20706 -3.09827 0
M  V30 54268 H 4901.37 3.06991 -3.93139 0
M  V30 54269 H 4900.53 5.25044 -3.03996 0
M  V30 54270 H 4899.27 4.40029 -2.10299 0
M  V30 54271 H 4898.27 3.51225 -4.2299 0
M  V30 54272 H 4899.5 4.39546 -5.17664 0
M  V30 54273 H 4897.44 5.65727 -3.32098 0
M  V30 54274 H 4897.36 5.62429 -5.05182 0
M  V30 54275 H 4898.63 6.52096 -4.27072 0
M  V30 54276 N 4902.86 1.39136 0.740193 0
M  V30 54277 C 4903.77 1.39704 1.88468 0
M  V30 54278 C 4904.78 0.292464 1.71524 0
M  V30 54279 O 4905.96 0.533089 1.94217 0
M  V30 54280 C 4903.02 1.23393 3.23999 0
M  V30 54281 C 4902.09 2.43775 3.53372 0
M  V30 54282 C 4901.32 2.28233 4.82437 0
M  V30 54283 O 4901.54 1.28307 5.55782 0
M  V30 54284 O 4900.48 3.17108 5.11592 0
M  V30 54285 H 4904.3 2.36166 1.90944 0
M  V30 54286 H 4901.89 1.20197 0.887304 0
M  V30 54287 H 4903.77 1.16409 4.05002 0
M  V30 54288 H 4902.44 0.300234 3.22305 0
M  V30 54289 H 4901.35 2.56335 2.72476 0
M  V30 54290 H 4902.68 3.35821 3.5984 0
M  V30 54291 N 4904.34 -0.969824 1.24226 0
M  V30 54292 C 4905.58 -1.7275 1.09256 0
M  V30 54293 C 4905.94 -1.88543 -0.362721 0
M  V30 54294 O 4907.14 -2.61219 -0.633877 0
M  V30 54295 C 4905.41 -3.08197 1.80968 0
M  V30 54296 S 4906.97 -3.99412 1.81702 0
M  V30 54297 H 4903.79 -0.593968 0.390798 0
M  V30 54298 H 4906.39 -1.15786 1.57524 0
M  V30 54299 H 4905.09 -2.94362 2.85971 0
M  V30 54300 H 4904.63 -3.70227 1.33025 0
M  V30 54301 H 4906.64 -4.88277 0.883172 0
M  V30 54302 N 4905.81 -1.05567 -1.17018 0
M  V30 54303 C 4907.22 -0.793534 -1.68997 0
M  V30 54304 C 4907.58 0.683817 -1.83898 0
M  V30 54305 O 4906.7 1.5311 -1.52925 0
M  V30 54306 C 4907.3 -1.43387 -3.06962 0
M  V30 54307 C 4905.85 -1.21969 -3.56091 0
M  V30 54308 C 4905 -1.51502 -2.32255 0
M  V30 54309 H 4907.95 -1.22012 -1.01483 0
M  V30 54310 H 4907.97 -0.845199 -3.70994 0
M  V30 54311 H 4907.49 -2.50909 -2.96085 0
M  V30 54312 H 4905.59 -0.16388 -3.72239 0
M  V30 54313 H 4905.7 -1.92728 -4.38626 0
M  V30 54314 H 4904.06 -0.935258 -2.36907 0
M  V30 54315 H 4904.85 -2.60167 -2.23983 0
M  V30 54316 N 4907.29 1.33523 -0.837221 0
M  V30 54317 C 4908.54 1.97097 -0.428456 0
M  V30 54318 C 4908.85 1.67065 1.01728 0
M  V30 54319 O 4910.06 2.2424 1.53064 0
M  V30 54320 C 4908.52 3.52722 -0.715199 0
M  V30 54321 C 4908.12 3.91632 -2.1755 0
M  V30 54322 C 4909.87 4.22855 -0.373303 0
M  V30 54323 C 4907.77 5.40229 -2.40638 0
M  V30 54324 H 4906.7 0.737584 -0.156481 0
M  V30 54325 H 4909.36 1.52165 -1.02557 0
M  V30 54326 H 4907.74 3.95971 -0.0477296 0
M  V30 54327 H 4908.91 3.59446 -2.88331 0
M  V30 54328 H 4907.23 3.34476 -2.48022 0
M  V30 54329 H 4909.82 5.32132 -0.523451 0
M  V30 54330 H 4910.17 4.1065 0.683564 0
M  V30 54331 H 4910.7 3.85131 -0.995936 0
M  V30 54332 H 4907.44 5.57437 -3.44884 0
M  V30 54333 H 4906.96 5.73881 -1.74416 0
M  V30 54334 H 4908.64 6.07094 -2.2371 0
M  V30 54335 N 4908.77 0.593501 1.45998 0
M  V30 54336 C 4910.02 0.0808793 2.01538 0
M  V30 54337 C 4910.33 -1.29107 1.46938 0
M  V30 54338 O 4911.54 -1.89563 1.94366 0
M  V30 54339 C 4909.99 0.0939576 3.59777 0
M  V30 54340 C 4909.6 1.46488 4.23374 0
M  V30 54341 C 4911.35 -0.364157 4.22935 0
M  V30 54342 C 4909.25 1.43511 5.73723 0
M  V30 54343 H 4908.18 0.0264672 0.753535 0
M  V30 54344 H 4910.83 0.746748 1.67618 0
M  V30 54345 H 4909.22 -0.63829 3.90822 0
M  V30 54346 H 4910.39 2.21772 4.03923 0
M  V30 54347 H 4908.71 1.86392 3.72353 0
M  V30 54348 H 4911.3 -0.405397 5.33161 0
M  V30 54349 H 4911.65 -1.38395 3.92623 0
M  V30 54350 H 4912.18 0.31437 3.96556 0
M  V30 54351 H 4908.92 2.43205 6.08713 0
M  V30 54352 H 4908.44 0.724641 5.95407 0
M  V30 54353 H 4910.12 1.15265 6.3665 0
M  V30 54354 N 4910.25 -1.54066 0.33187 0
M  V30 54355 C 4911.5 -2.0032 -0.267669 0
M  V30 54356 C 4911.82 -1.22153 -1.51998 0
M  V30 54357 O 4911.09 -0.325561 -1.93176 0
M  V30 54358 H 4909.67 -0.740018 -0.101896 0
M  V30 54359 H 4912.33 -1.89626 0.450334 0
M  V30 54360 H 4911.43 -3.07767 -0.518277 0
M  V30 54361 N 4911.73 -0.0602235 -1.57485 0
M  V30 54362 C 4912.97 0.611527 -1.93046 0
M  V30 54363 C 4913.3 1.70314 -0.939334 0
M  V30 54364 O 4912.56 1.95644 0.0469272 0
M  V30 54365 C 4912.86 1.23819 -3.35266 0
M  V30 54366 C 4912.52 0.273878 -4.50067 0
M  V30 54367 C 4911.18 0.00855477 -4.81199 0
M  V30 54368 C 4913.54 -0.386491 -5.19765 0
M  V30 54369 C 4910.86 -0.924421 -5.79372 0
M  V30 54370 C 4913.22 -1.30772 -6.18936 0
M  V30 54371 C 4911.88 -1.58162 -6.48491 0
M  V30 54372 H 4911.15 0.223773 -0.706404 0
M  V30 54373 H 4913.8 -0.128634 -1.91067 0
M  V30 54374 H 4912.1 2.05382 -3.33655 0
M  V30 54375 H 4913.8 1.76505 -3.60065 0
M  V30 54376 H 4910.39 0.490858 -4.2578 0
M  V30 54377 H 4914.57 -0.19461 -4.95918 0
M  V30 54378 H 4909.83 -1.14401 -6.00602 0
M  V30 54379 H 4914 -1.82543 -6.7205 0
M  V30 54380 H 4911.63 -2.30618 -7.24375 0
M  V30 54381 N 4913.2 1.56151 0.213241 0
M  V30 54382 C 4914.62 1.49329 0.563307 0
M  V30 54383 C 4914.82 0.756891 1.86744 0
M  V30 54384 O 4913.88 0.299954 2.50712 0
M  V30 54385 C 4915.19 2.93922 0.63484 0
M  V30 54386 C 4916.74 3.0449 0.724906 0
M  V30 54387 C 4917.21 4.50459 0.827711 0
M  V30 54388 N 4918.7 4.54536 0.891716 0
M  V30 54389 C 4919.44 5.64769 0.991116 0
M  V30 54390 N 4918.93 6.84736 1.05395 0
M  V30 54391 N 4920.73 5.5264 1.0269 0
M  V30 54392 H 4912.88 2.02451 -0.642437 0
M  V30 54393 H 4915.14 0.92054 -0.226519 0
M  V30 54394 H 4914.85 3.50782 -0.253982 0
M  V30 54395 H 4914.72 3.4628 1.49567 0
M  V30 54396 H 4917.11 2.4769 1.60417 0
M  V30 54397 H 4917.19 2.55288 -0.161758 0
M  V30 54398 H 4916.83 5.07878 -0.047125 0
M  V30 54399 H 4916.76 4.97375 1.72991 0
M  V30 54400 H 4919.25 3.68144 0.853141 0
M  V30 54401 H 4919.57 7.64497 1.1298 0
M  V30 54402 H 4917.91 6.87431 1.02293 0
M  V30 54403 H 4921.1 4.57843 0.974526 0
M  V30 54404 H 4921.28 6.3858 1.10091 0
M  V30 54405 N 4914.68 -0.48027 1.50104 0
M  V30 54406 C 4915.91 -1.25469 1.64137 0
M  V30 54407 C 4916.32 -1.86468 0.320338 0
M  V30 54408 O 4915.66 -1.69564 -0.70667 0
M  V30 54409 C 4915.73 -2.40987 2.66769 0
M  V30 54410 C 4915.39 -2.00697 4.10573 0
M  V30 54411 C 4916.39 -1.53475 4.96731 0
M  V30 54412 C 4914.07 -2.09698 4.56434 0
M  V30 54413 C 4916.07 -1.15784 6.26796 0
M  V30 54414 C 4913.75 -1.71619 5.86507 0
M  V30 54415 C 4914.75 -1.24739 6.71513 0
M  V30 54416 O 4914.44 -0.871841 7.99158 0
M  V30 54417 H 4914.17 -0.385964 0.554985 0
M  V30 54418 H 4916.72 -0.580779 1.97018 0
M  V30 54419 H 4914.95 -3.1152 2.29111 0
M  V30 54420 H 4916.64 -3.02972 2.70117 0
M  V30 54421 H 4917.41 -1.4595 4.62519 0
M  V30 54422 H 4913.29 -2.45137 3.90422 0
M  V30 54423 H 4916.83 -0.791222 6.93098 0
M  V30 54424 H 4912.73 -1.788 6.20242 0
M  V30 54425 H 4913.5 -1.0015 8.1235 0
M  V30 54426 N 4916.16 -1.39527 -0.732804 0
M  V30 54427 C 4917.58 -1.21179 -1.03864 0
M  V30 54428 C 4917.78 -0.0749156 -2.01361 0
M  V30 54429 O 4916.83 0.572723 -2.45919 0
M  V30 54430 C 4918.15 -2.54672 -1.59883 0
M  V30 54431 C 4919.69 -2.61537 -1.71952 0
M  V30 54432 C 4920.17 -3.95256 -2.3138 0
M  V30 54433 N 4921.66 -3.96907 -2.38787 0
M  V30 54434 C 4922.39 -4.97149 -2.85711 0
M  V30 54435 N 4921.89 -6.07787 -3.32516 0
M  V30 54436 N 4923.68 -4.84526 -2.8494 0
M  V30 54437 H 4915.83 -2.12225 -0.0862294 0
M  V30 54438 H 4918.1 -0.942618 -0.100874 0
M  V30 54439 H 4917.8 -3.38427 -0.957091 0
M  V30 54440 H 4917.68 -2.74547 -2.58658 0
M  V30 54441 H 4920.06 -1.78164 -2.35248 0
M  V30 54442 H 4920.15 -2.4551 -0.71824 0
M  V30 54443 H 4919.79 -4.7906 -1.68712 0
M  V30 54444 H 4919.72 -4.08605 -3.3219 0
M  V30 54445 H 4922.21 -3.17006 -2.05708 0
M  V30 54446 H 4922.52 -6.80183 -3.66838 0
M  V30 54447 H 4920.87 -6.11377 -3.30519 0
M  V30 54448 H 4924.06 -3.97194 -2.47699 0
M  V30 54449 H 4924.23 -5.62794 -3.21196 0
M  V30 54450 N 4917.64 0.963222 -1.24739 0
M  V30 54451 C 4918.86 1.74695 -1.11788 0
M  V30 54452 C 4919.29 1.85268 0.325193 0
M  V30 54453 O 4918.65 1.32685 1.23549 0
M  V30 54454 C 4918.69 3.14316 -1.76742 0
M  V30 54455 O 4917.8 3.99039 -1.04123 0
M  V30 54456 H 4917.14 0.536826 -0.390786 0
M  V30 54457 H 4919.67 1.20796 -1.65135 0
M  V30 54458 H 4919.68 3.64817 -1.82681 0
M  V30 54459 H 4918.35 3.05936 -2.81737 0
M  V30 54460 H 4916.93 3.57516 -1.06004 0
M  V30 54461 N 4919.12 1.06186 1.16457 0
M  V30 54462 C 4920.05 0.692939 2.22981 0
M  V30 54463 C 4921.03 -0.314063 1.67176 0
M  V30 54464 O 4922.21 -0.189431 1.93274 0
M  V30 54465 C 4919.34 0.077442 3.47214 0
M  V30 54466 C 4918.3 1.0103 4.15905 0
M  V30 54467 C 4917.62 0.258161 5.34076 0
M  V30 54468 C 4918.92 2.33884 4.67007 0
M  V30 54469 H 4920.62 1.58352 2.54097 0
M  V30 54470 H 4918.16 0.762833 1.22135 0
M  V30 54471 H 4920.12 -0.192512 4.2096 0
M  V30 54472 H 4918.84 -0.848143 3.15395 0
M  V30 54473 H 4917.5 1.26498 3.44084 0
M  V30 54474 H 4917.15 -0.670508 4.98511 0
M  V30 54475 H 4916.85 0.879842 5.80976 0
M  V30 54476 H 4918.37 -0.00427322 6.106 0
M  V30 54477 H 4919.78 2.12809 5.3234 0
M  V30 54478 H 4918.18 2.9154 5.24523 0
M  V30 54479 H 4919.25 2.97032 3.83275 0
M  V30 54480 N 4920.59 -1.33077 0.84429 0
M  V30 54481 C 4921.54 -2.29103 0.279404 0
M  V30 54482 C 4922.51 -1.54579 -0.607828 0
M  V30 54483 O 4923.7 -1.82852 -0.544945 0
M  V30 54484 C 4920.84 -3.40928 -0.53496 0
M  V30 54485 C 4919.95 -4.30353 0.3769 0
M  V30 54486 C 4919.08 -5.29298 -0.44909 0
M  V30 54487 C 4918.12 -6.10363 0.460821 0
M  V30 54488 N 4917.26 -7.01336 -0.327365 0
M  V30 54489 H 4922.1 -2.76813 1.10356 0
M  V30 54490 H 4919.64 -1.36201 0.555659 0
M  V30 54491 H 4921.6 -4.04472 -1.02264 0
M  V30 54492 H 4920.23 -2.94396 -1.32404 0
M  V30 54493 H 4919.28 -3.67482 0.98292 0
M  V30 54494 H 4920.59 -4.87064 1.07566 0
M  V30 54495 H 4919.74 -5.98396 -1.00037 0
M  V30 54496 H 4918.48 -4.73178 -1.18126 0
M  V30 54497 H 4917.49 -5.40179 1.02407 0
M  V30 54498 H 4918.71 -6.68567 1.19144 0
M  V30 54499 H 4916.66 -6.47658 -1.04282 0
M  V30 54500 H 4916.58 -7.55354 0.312566 0
M  V30 54501 H 4917.84 -7.74734 -0.860708 0
M  V30 54502 N 4922.07 -0.601236 -1.45681 0
M  V30 54503 C 4923.02 0.142606 -2.27554 0
M  V30 54504 C 4924.01 0.84455 -1.36953 0
M  V30 54505 O 4925.2 0.735588 -1.60991 0
M  V30 54506 C 4922.33 1.14353 -3.23695 0
M  V30 54507 C 4921.41 0.442746 -4.21783 0
M  V30 54508 N 4921.8 -0.512067 -5.03201 0
M  V30 54509 C 4920.1 0.691123 -4.40613 0
M  V30 54510 C 4920.8 -0.923382 -5.74324 0
M  V30 54511 N 4919.78 -0.268499 -5.42937 0
M  V30 54512 H 4923.58 -0.590837 -2.879 0
M  V30 54513 H 4921.1 -0.42442 -1.56756 0
M  V30 54514 H 4923.09 1.69076 -3.81076 0
M  V30 54515 H 4921.75 1.87759 -2.64909 0
M  V30 54516 H 4922.76 -0.888509 -5.10221 0
M  V30 54517 H 4919.44 1.41035 -3.92957 0
M  V30 54518 H 4920.83 -1.71052 -6.49762 0
M  V30 54519 N 4923.55 1.53888 -0.340036 0
M  V30 54520 C 4924.8 2.00855 0.257551 0
M  V30 54521 C 4925.13 1.22793 1.50838 0
M  V30 54522 O 4924.38 0.302635 1.93346 0
M  V30 54523 C 4924.68 3.5197 0.620611 0
M  V30 54524 C 4924.35 4.4774 -0.532929 0
M  V30 54525 C 4923.01 4.73642 -0.849506 0
M  V30 54526 C 4925.36 5.04547 -1.30698 0
M  V30 54527 C 4922.69 5.53608 -1.94256 0
M  V30 54528 C 4925.04 5.85704 -2.39026 0
M  V30 54529 C 4923.7 6.09903 -2.71247 0
M  V30 54530 H 4922.97 0.734982 0.0942444 0
M  V30 54531 H 4925.62 1.85713 -0.467224 0
M  V30 54532 H 4923.93 3.64926 1.42605 0
M  V30 54533 H 4925.62 3.85765 1.09481 0
M  V30 54534 H 4922.21 4.2771 -0.276123 0
M  V30 54535 H 4926.4 4.84503 -1.07566 0
M  V30 54536 H 4921.65 5.70583 -2.19648 0
M  V30 54537 H 4925.83 6.28737 -2.99437 0
M  V30 54538 H 4923.45 6.71653 -3.56071 0
M  V30 54539 N 4925.03 0.0685745 1.57451 0
M  V30 54540 C 4925.98 -0.917502 2.1374 0
M  V30 54541 C 4926.97 -1.31045 1.07348 0
M  V30 54542 O 4928.18 -1.28807 1.25733 0
M  V30 54543 H 4924.55 -0.313811 0.683393 0
M  V30 54544 H 4926.52 -0.417799 2.95461 0
M  V30 54545 C 4925.27 -2.17677 2.71131 0
M  V30 54546 H 4924.6 -1.88324 3.52667 0
M  V30 54547 H 4926.04 -2.84792 3.14117 0
M  V30 54548 C 4924.49 -2.93314 1.65736 0
M  V30 54549 O 4925.02 -3.86897 1.08045 0
M  V30 54550 N 4923.23 -2.56362 1.36846 0
M  V30 54551 H 4922.78 -1.80334 1.83949 0
M  V30 54552 H 4922.74 -3.07274 0.665609 0
M  V30 54553 N 4926.51 -1.56262 -0.204957 0
M  V30 54554 C 4927.74 -1.83877 -0.941954 0
M  V30 54555 C 4928.15 -0.647657 -1.7777 0
M  V30 54556 O 4927.49 0.393035 -1.79446 0
M  V30 54557 C 4927.55 -3.0546 -1.89564 0
M  V30 54558 C 4927.21 -4.39776 -1.24281 0
M  V30 54559 C 4928.21 -5.16135 -0.624542 0
M  V30 54560 C 4925.9 -4.86508 -1.24961 0
M  V30 54561 C 4927.89 -6.37396 -0.0217876 0
M  V30 54562 C 4925.58 -6.07708 -0.643018 0
M  V30 54563 C 4926.58 -6.82993 -0.0301762 0
M  V30 54564 O 4926.26 -8.01898 0.566936 0
M  V30 54565 H 4926 -0.614906 -0.280832 0
M  V30 54566 H 4928.55 -2.04216 -0.220213 0
M  V30 54567 H 4926.78 -2.80981 -2.65681 0
M  V30 54568 H 4928.47 -3.19805 -2.49959 0
M  V30 54569 H 4929.23 -4.8113 -0.611496 0
M  V30 54570 H 4925.11 -4.27871 -1.71601 0
M  V30 54571 H 4928.66 -6.961 0.457171 0
M  V30 54572 H 4924.55 -6.42183 -0.653533 0
M  V30 54573 H 4925.32 -8.1719 0.462875 0
M  V30 54574 N 4927.99 0.472303 -1.50356 0
M  V30 54575 C 4929.26 1.23351 -1.51802 0
M  V30 54576 C 4929.64 2.09468 -0.262004 0
M  V30 54577 O 4928.99 2.1568 0.754615 0
M  V30 54578 C 4929.2 2.06558 -2.81309 0
M  V30 54579 C 4930.55 2.64788 -3.31922 0
M  V30 54580 O 4931.57 2.16802 -2.82622 0
M  V30 54581 O 4930.43 3.52216 -4.17859 0
M  V30 54582 H 4927.53 0.559686 -0.608835 0
M  V30 54583 H 4930.07 0.484223 -1.62645 0
M  V30 54584 H 4928.84 1.4309 -3.64199 0
M  V30 54585 H 4928.47 2.88623 -2.73464 0
M  V30 54586 N 4929.46 1.39914 0.725394 0
M  V30 54587 C 4930.71 1.36968 1.48063 0
M  V30 54588 C 4931.03 -0.028379 1.95579 0
M  V30 54589 O 4932.23 -0.180439 2.709 0
M  V30 54590 C 4930.69 2.40674 2.6759 0
M  V30 54591 C 4930.3 3.86242 2.26983 0
M  V30 54592 C 4932.04 2.46819 3.4537 0
M  V30 54593 C 4929.95 4.81566 3.4329 0
M  V30 54594 H 4928.88 0.509243 0.556047 0
M  V30 54595 H 4931.53 1.65605 0.790396 0
M  V30 54596 H 4929.91 2.05121 3.38735 0
M  V30 54597 H 4931.08 4.30886 1.63322 0
M  V30 54598 H 4929.4 3.8348 1.62271 0
M  V30 54599 H 4932 3.15228 4.31898 0
M  V30 54600 H 4932.34 1.49566 3.88504 0
M  V30 54601 H 4932.87 2.81313 2.81261 0
M  V30 54602 H 4929.61 5.80117 3.05197 0
M  V30 54603 H 4929.13 4.41594 4.059 0
M  V30 54604 H 4930.81 5.00924 4.09493 0
M  V30 54605 N 4930.94 -0.956593 1.25248 0
M  V30 54606 C 4932.18 -1.71581 1.11082 0
M  V30 54607 C 4932.55 -1.88917 -0.342703 0
M  V30 54608 O 4933.75 -2.61877 -0.606135 0
M  V30 54609 C 4932.02 -3.0626 1.84226 0
M  V30 54610 S 4933.58 -3.97462 1.85928 0
M  V30 54611 H 4930.39 -0.589789 0.397076 0
M  V30 54612 H 4933 -1.14109 1.58743 0
M  V30 54613 H 4931.7 -2.91312 2.89077 0
M  V30 54614 H 4931.23 -3.68795 1.36944 0
M  V30 54615 H 4933.25 -4.87313 0.934911 0
M  V30 54616 N 4932.42 -1.06802 -1.15892 0
M  V30 54617 C 4933.35 -0.64134 -2.20044 0
M  V30 54618 C 4934.36 0.303299 -1.5995 0
M  V30 54619 O 4935.55 0.0934851 -1.78255 0
M  V30 54620 C 4932.65 0.0792837 -3.38807 0
M  V30 54621 C 4931.83 -0.880137 -4.28453 0
M  V30 54622 C 4930.89 -0.197823 -5.25828 0
M  V30 54623 O 4929.91 -0.837111 -5.63011 0
M  V30 54624 N 4931.11 1.05866 -5.70765 0
M  V30 54625 H 4933.88 -1.53727 -2.5727 0
M  V30 54626 H 4931.44 -0.951997 -1.30953 0
M  V30 54627 H 4933.43 0.546277 -4.00996 0
M  V30 54628 H 4932 0.877088 -3.00043 0
M  V30 54629 H 4931.22 -1.52638 -3.63449 0
M  V30 54630 H 4932.51 -1.53082 -4.85225 0
M  V30 54631 H 4931.91 1.59809 -5.42658 0
M  V30 54632 H 4930.46 1.46943 -6.3502 0
M  V30 54633 N 4933.9 1.32627 -0.851335 0
M  V30 54634 C 4935.12 2.02095 -0.466078 0
M  V30 54635 C 4935.55 1.63578 0.928651 0
M  V30 54636 O 4934.91 0.834722 1.60941 0
M  V30 54637 C 4934.95 3.55423 -0.608862 0
M  V30 54638 O 4934.06 4.10828 0.359733 0
M  V30 54639 H 4933.4 0.636905 -0.187746 0
M  V30 54640 H 4935.93 1.69249 -1.14961 0
M  V30 54641 H 4935.94 4.04984 -0.495148 0
M  V30 54642 H 4934.61 3.828 -1.62595 0
M  V30 54643 H 4933.19 3.7235 0.202535 0
M  V30 54644 N 4935.38 0.608953 1.4536 0
M  V30 54645 C 4936.62 0.107702 2.04116 0
M  V30 54646 C 4936.98 -1.23878 1.46691 0
M  V30 54647 O 4938.18 -1.83084 1.96809 0
M  V30 54648 C 4936.45 0.0704607 3.57331 0
M  V30 54649 S 4938.01 -0.3694 4.37242 0
M  V30 54650 H 4934.83 0.0502372 0.709223 0
M  V30 54651 H 4937.43 0.807362 1.7805 0
M  V30 54652 H 4936.13 1.05393 3.96636 0
M  V30 54653 H 4935.67 -0.65115 3.87974 0
M  V30 54654 H 4937.68 -1.61862 4.69058 0
M  V30 54655 N 4936.85 -1.53705 0.348193 0
M  V30 54656 C 4938.1 -2.00989 -0.246895 0
M  V30 54657 C 4938.43 -1.23592 -1.50184 0
M  V30 54658 O 4937.68 -0.312884 -1.93183 0
M  V30 54659 C 4937.98 -3.52295 -0.601937 0
M  V30 54660 C 4937.65 -4.47451 0.556666 0
M  V30 54661 C 4936.31 -4.73185 0.874612 0
M  V30 54662 C 4938.66 -5.03847 1.33372 0
M  V30 54663 C 4935.99 -5.5257 1.9719 0
M  V30 54664 C 4938.34 -5.84428 2.42128 0
M  V30 54665 C 4937.01 -6.08456 2.74477 0
M  V30 54666 H 4936.28 -0.735472 -0.0903453 0
M  V30 54667 H 4938.92 -1.85462 0.477066 0
M  V30 54668 H 4937.23 -3.65677 -1.40668 0
M  V30 54669 H 4938.93 -3.86341 -1.07434 0
M  V30 54670 H 4935.52 -4.27557 0.298802 0
M  V30 54671 H 4939.7 -4.83926 1.10134 0
M  V30 54672 H 4934.96 -5.6941 2.22671 0
M  V30 54673 H 4939.13 -6.2714 3.02767 0
M  V30 54674 H 4936.76 -6.69755 3.59628 0
M  V30 54675 N 4938.33 -0.0769235 -1.57412 0
M  V30 54676 C 4939.58 0.591017 -1.93683 0
M  V30 54677 C 4939.91 1.69308 -0.957346 0
M  V30 54678 O 4939.16 1.95682 0.026174 0
M  V30 54679 C 4939.46 1.20256 -3.36561 0
M  V30 54680 C 4939.13 0.226127 -4.50333 0
M  V30 54681 C 4937.79 -0.0424833 -4.81181 0
M  V30 54682 C 4940.14 -0.441597 -5.19326 0
M  V30 54683 C 4937.47 -0.985819 -5.78358 0
M  V30 54684 C 4939.82 -1.37329 -6.17514 0
M  V30 54685 C 4938.49 -1.65031 -6.46777 0
M  V30 54686 H 4937.76 0.216268 -0.708738 0
M  V30 54687 H 4940.4 -0.148892 -1.9092 0
M  V30 54688 H 4938.71 2.01832 -3.35814 0
M  V30 54689 H 4940.4 1.72676 -3.61917 0
M  V30 54690 H 4936.99 0.445671 -4.26277 0
M  V30 54691 H 4941.18 -0.247198 -4.95684 0
M  V30 54692 H 4936.43 -1.20765 -5.99355 0
M  V30 54693 H 4940.61 -1.89661 -6.70076 0
M  V30 54694 H 4938.24 -2.38288 -7.21888 0
M  V30 54695 N 4939.81 1.56368 0.196667 0
M  V30 54696 C 4941.04 1.84994 0.937649 0
M  V30 54697 C 4941.46 0.660306 1.76129 0
M  V30 54698 O 4940.82 -0.390905 1.77036 0
M  V30 54699 C 4940.87 3.11834 1.81085 0
M  V30 54700 O 4939.97 2.92276 2.90944 0
M  V30 54701 H 4939.31 0.609202 0.264138 0
M  V30 54702 H 4941.84 2.03596 0.202457 0
M  V30 54703 H 4941.85 3.42587 2.21581 0
M  V30 54704 H 4940.53 3.98041 1.20566 0
M  V30 54705 H 4939.1 2.72818 2.54214 0
M  V30 54706 N 4941.29 -0.464322 1.50605 0
M  V30 54707 C 4942.54 -1.2135 1.61612 0
M  V30 54708 C 4942.86 -1.92328 0.321711 0
M  V30 54709 O 4942.13 -1.84406 -0.661167 0
M  V30 54710 H 4940.71 -0.450919 0.595551 0
M  V30 54711 H 4943.37 -0.53498 1.87414 0
M  V30 54712 H 4942.47 -1.95775 2.43061 0
M  V30 54713 N 4942.77 -1.40296 -0.717964 0
M  V30 54714 C 4944.18 -1.22274 -1.02573 0
M  V30 54715 C 4944.38 -0.0962683 -2.0127 0
M  V30 54716 O 4943.44 0.546608 -2.46513 0
M  V30 54717 C 4944.75 -2.56354 -1.57173 0
M  V30 54718 C 4946.3 -2.63346 -1.69169 0
M  V30 54719 C 4946.77 -3.97688 -2.27174 0
M  V30 54720 N 4948.27 -3.99417 -2.34563 0
M  V30 54721 C 4949 -5.00151 -2.80422 0
M  V30 54722 N 4948.5 -6.11279 -3.26051 0
M  V30 54723 N 4950.29 -4.87521 -2.79785 0
M  V30 54724 H 4942.44 -2.12304 -0.0637153 0
M  V30 54725 H 4944.7 -0.943635 -0.0908704 0
M  V30 54726 H 4944.41 -3.39423 -0.921143 0
M  V30 54727 H 4944.28 -2.77275 -2.55732 0
M  V30 54728 H 4946.67 -1.8065 -2.33345 0
M  V30 54729 H 4946.75 -2.46258 -0.69216 0
M  V30 54730 H 4946.4 -4.80823 -1.63621 0
M  V30 54731 H 4946.33 -4.12105 -3.27837 0
M  V30 54732 H 4948.82 -3.1917 -2.02334 0
M  V30 54733 H 4949.13 -6.84036 -3.59604 0
M  V30 54734 H 4947.47 -6.14848 -3.24016 0
M  V30 54735 H 4950.67 -3.99798 -2.43473 0
M  V30 54736 H 4950.84 -5.66169 -3.15208 0
M  V30 54737 N 4944.24 0.949938 -1.25754 0
M  V30 54738 C 4945.49 1.69762 -1.10944 0
M  V30 54739 C 4945.82 1.91057 0.347961 0
M  V30 54740 O 4945.1 1.48492 1.2562 0
M  V30 54741 C 4945.38 3.07772 -1.86944 0
M  V30 54742 C 4945.23 2.93858 -3.4054 0
M  V30 54743 C 4946.55 4.07743 -1.6563 0
M  V30 54744 H 4943.67 0.616129 -0.404418 0
M  V30 54745 H 4946.31 1.10388 -1.54643 0
M  V30 54746 H 4944.46 3.58457 -1.49803 0
M  V30 54747 H 4946.14 2.50463 -3.87384 0
M  V30 54748 H 4944.38 2.29673 -3.68012 0
M  V30 54749 H 4945.05 3.91705 -3.88936 0
M  V30 54750 H 4947.53 3.65987 -1.97972 0
M  V30 54751 H 4946.4 5.0234 -2.21236 0
M  V30 54752 H 4946.66 4.38027 -0.598749 0
M  V30 54753 N 4945.72 1.07416 1.15324 0
M  V30 54754 C 4946.69 0.698991 2.18281 0
M  V30 54755 C 4947.69 -0.261093 1.58666 0
M  V30 54756 O 4948.88 -0.0419665 1.74149 0
M  V30 54757 C 4946.01 0.0303625 3.40886 0
M  V30 54758 H 4947.2 1.61054 2.52986 0
M  V30 54759 H 4944.75 0.87077 1.29797 0
M  V30 54760 H 4945.49 -0.893395 3.11751 0
M  V30 54761 H 4945.27 0.720895 3.85416 0
M  V30 54762 H 4946.76 -0.217443 4.17034 0
M  V30 54763 N 4947.2 -1.32174 0.858357 0
M  V30 54764 C 4948.15 -2.28793 0.303687 0
M  V30 54765 C 4949.12 -1.55215 -0.591398 0
M  V30 54766 O 4950.3 -1.8342 -0.52552 0
M  V30 54767 C 4947.44 -3.41477 -0.49877 0
M  V30 54768 C 4946.56 -4.29929 0.422524 0
M  V30 54769 C 4945.69 -5.29745 -0.392925 0
M  V30 54770 C 4944.73 -6.0984 0.525532 0
M  V30 54771 N 4943.87 -7.01644 -0.252961 0
M  V30 54772 H 4948.71 -2.75627 1.13286 0
M  V30 54773 H 4946.24 -1.35604 0.570073 0
M  V30 54774 H 4948.2 -4.05534 -0.979684 0
M  V30 54775 H 4946.83 -2.95784 -1.29274 0
M  V30 54776 H 4945.88 -3.66419 1.02184 0
M  V30 54777 H 4947.2 -4.85895 1.12726 0
M  V30 54778 H 4946.35 -5.99423 -0.936846 0
M  V30 54779 H 4945.09 -4.74404 -1.13101 0
M  V30 54780 H 4944.09 -5.39062 1.08131 0
M  V30 54781 H 4945.32 -6.67266 1.26228 0
M  V30 54782 H 4943.26 -6.48728 -0.974067 0
M  V30 54783 H 4943.18 -7.5498 0.392664 0
M  V30 54784 H 4944.45 -7.75603 -0.778488 0
M  V30 54785 N 4948.68 -0.616653 -1.45035 0
M  V30 54786 C 4949.93 -0.115174 -2.01772 0
M  V30 54787 C 4950.25 1.26215 -1.48643 0
M  V30 54788 O 4949.52 1.83561 -0.684264 0
M  V30 54789 H 4948.1 -0.0395869 -0.74595 0
M  V30 54790 H 4950.76 -0.800095 -1.7772 0
M  V30 54791 H 4949.86 -0.071837 -3.12017 0
M  V30 54792 N 4950.16 1.53519 -0.356339 0
M  V30 54793 C 4951.11 2.22206 0.510737 0
M  V30 54794 C 4952.09 1.21397 1.05601 0
M  V30 54795 O 4953.28 1.46887 0.987587 0
M  V30 54796 C 4950.41 3.00792 1.65467 0
M  V30 54797 C 4949.5 4.08969 1.12272 0
M  V30 54798 N 4949.89 5.04831 0.313013 0
M  V30 54799 C 4948.19 4.2351 1.39841 0
M  V30 54800 C 4948.89 5.81696 0.0228277 0
M  V30 54801 N 4947.86 5.40076 0.617954 0
M  V30 54802 H 4951.67 2.93676 -0.114814 0
M  V30 54803 H 4949.18 1.61571 -0.163868 0
M  V30 54804 H 4951.18 3.4851 2.28793 0
M  V30 54805 H 4949.84 2.30851 2.28337 0
M  V30 54806 H 4950.85 5.17879 -0.0470023 0
M  V30 54807 H 4947.52 3.64793 2.03057 0
M  V30 54808 H 4948.91 6.68929 -0.631163 0
M  V30 54809 N 4951.63 0.0852704 1.57369 0
M  V30 54810 C 4952.58 -0.877193 2.13481 0
M  V30 54811 C 4953.55 -1.28639 1.05078 0
M  V30 54812 O 4954.74 -1.36987 1.32813 0
M  V30 54813 C 4951.88 -2.13454 2.71167 0
M  V30 54814 C 4950.99 -1.77677 3.9377 0
M  V30 54815 C 4950.12 -2.98124 4.39654 0
M  V30 54816 C 4949.16 -2.58427 5.54871 0
M  V30 54817 N 4948.3 -3.71677 5.95652 0
M  V30 54818 H 4953.14 -0.391829 2.95413 0
M  V30 54819 H 4950.68 -0.181744 1.45973 0
M  V30 54820 H 4952.64 -2.87076 3.02727 0
M  V30 54821 H 4951.27 -2.59507 1.91978 0
M  V30 54822 H 4950.32 -0.940638 3.68587 0
M  V30 54823 H 4951.63 -1.44481 4.77417 0
M  V30 54824 H 4950.78 -3.80009 4.72946 0
M  V30 54825 H 4949.52 -3.34523 3.54888 0
M  V30 54826 H 4948.53 -1.74966 5.21217 0
M  V30 54827 H 4949.75 -2.23182 6.41379 0
M  V30 54828 H 4947.7 -4.07813 5.13833 0
M  V30 54829 H 4947.62 -3.42293 6.74071 0
M  V30 54830 H 4948.88 -4.54101 6.33571 0
M  V30 54831 N 4953.11 -1.5647 -0.188372 0
M  V30 54832 C 4954.05 -1.90151 -1.26166 0
M  V30 54833 C 4955.02 -0.762345 -1.43621 0
M  V30 54834 O 4956.21 -1.01401 -1.58903 0
M  V30 54835 C 4953.34 -2.13757 -2.62727 0
M  V30 54836 C 4952.38 -3.36457 -2.62104 0
M  V30 54837 S 4953.21 -4.91372 -2.12872 0
M  V30 54838 C 4954.37 -5.18053 -3.51243 0
M  V30 54839 H 4954.6 -2.80889 -0.974094 0
M  V30 54840 H 4952.14 -1.49336 -0.392173 0
M  V30 54841 H 4954.09 -2.2804 -3.41333 0
M  V30 54842 H 4952.76 -1.23757 -2.88692 0
M  V30 54843 H 4951.95 -3.50122 -3.62533 0
M  V30 54844 H 4951.55 -3.21203 -1.91584 0
M  V30 54845 H 4953.84 -5.08986 -4.47146 0
M  V30 54846 H 4954.79 -6.19776 -3.42467 0
M  V30 54847 H 4955.19 -4.4567 -3.46466 0
M  V30 54848 N 4954.59 0.456329 -1.50849 0
M  V30 54849 C 4955.54 1.55039 -1.67173 0
M  V30 54850 C 4956.53 1.52059 -0.526012 0
M  V30 54851 O 4957.72 1.58833 -0.781092 0
M  V30 54852 C 4954.85 2.9338 -1.78278 0
M  V30 54853 C 4953.93 3.01188 -2.98574 0
M  V30 54854 N 4954.32 2.78777 -4.22039 0
M  V30 54855 C 4952.62 3.32336 -2.97437 0
M  V30 54856 C 4953.32 2.91936 -5.03139 0
M  V30 54857 N 4952.3 3.22782 -4.37393 0
M  V30 54858 H 4956.1 1.36435 -2.60313 0
M  V30 54859 H 4953.61 0.663323 -1.48236 0
M  V30 54860 H 4955.61 3.72064 -1.8808 0
M  V30 54861 H 4954.27 3.13019 -0.863075 0
M  V30 54862 H 4955.28 2.54071 -4.51296 0
M  V30 54863 H 4951.96 3.5787 -2.15024 0
M  V30 54864 H 4953.35 2.78724 -6.11361 0
M  V30 54865 N 4956.07 1.40675 0.710514 0
M  V30 54866 C 4957.3 1.42346 1.49737 0
M  V30 54867 C 4957.71 0.0228876 1.89186 0
M  V30 54868 O 4957.05 -0.964718 1.56329 0
M  V30 54869 C 4957.11 2.25519 2.79967 0
M  V30 54870 C 4956.78 3.73871 2.6281 0
M  V30 54871 C 4957.77 4.66388 2.29736 0
M  V30 54872 C 4955.46 4.17745 2.78917 0
M  V30 54873 C 4957.45 6.00763 2.12985 0
M  V30 54874 C 4955.14 5.52189 2.61783 0
M  V30 54875 C 4956.14 6.43514 2.28865 0
M  V30 54876 O 4955.83 7.75479 2.11867 0
M  V30 54877 H 4955.56 0.487327 0.468496 0
M  V30 54878 H 4958.11 1.85423 0.883602 0
M  V30 54879 H 4956.34 1.7723 3.43695 0
M  V30 54880 H 4958.03 2.1907 3.41706 0
M  V30 54881 H 4958.8 4.33786 2.16921 0
M  V30 54882 H 4954.68 3.46978 3.03525 0
M  V30 54883 H 4958.22 6.72009 1.87214 0
M  V30 54884 H 4954.12 5.84374 2.74184 0
M  V30 54885 H 4954.88 7.86466 2.26747 0
M  V30 54886 N 4957.55 -0.943255 1.26256 0
M  V30 54887 C 4958.96 -1.50401 1.10619 0
M  V30 54888 C 4959.31 -1.93667 -0.314222 0
M  V30 54889 O 4958.43 -1.79714 -1.20549 0
M  V30 54890 C 4959.03 -2.73329 2.00191 0
M  V30 54891 C 4957.59 -3.25679 1.88707 0
M  V30 54892 C 4956.74 -1.98467 1.93665 0
M  V30 54893 H 4959.69 -0.758957 1.39375 0
M  V30 54894 H 4959.71 -3.47562 1.54859 0
M  V30 54895 H 4959.22 -2.41808 3.03563 0
M  V30 54896 H 4957.32 -3.61995 0.882617 0
M  V30 54897 H 4957.43 -3.92926 2.74128 0
M  V30 54898 H 4955.8 -2.14273 1.37692 0
M  V30 54899 H 4956.58 -1.69279 2.98663 0
M  V30 54900 N 4959.03 -1.08026 -1.14753 0
M  V30 54901 C 4959.96 -0.650815 -2.18723 0
M  V30 54902 C 4960.94 0.335441 -1.59102 0
M  V30 54903 O 4962.12 0.240229 -1.86963 0
M  V30 54904 C 4959.25 0.0433187 -3.38672 0
M  V30 54905 C 4958.29 -0.902467 -4.16843 0
M  V30 54906 S 4959.13 -2.40709 -4.78351 0
M  V30 54907 C 4960.28 -1.72496 -6.01661 0
M  V30 54908 H 4960.52 -1.53161 -2.54812 0
M  V30 54909 H 4958.05 -0.894867 -1.25823 0
M  V30 54910 H 4960.01 0.43754 -4.08162 0
M  V30 54911 H 4958.67 0.900554 -3.00913 0
M  V30 54912 H 4957.86 -0.363622 -5.02687 0
M  V30 54913 H 4957.46 -1.2374 -3.52937 0
M  V30 54914 H 4959.75 -1.04064 -6.6946 0
M  V30 54915 H 4960.7 -2.56198 -6.60127 0
M  V30 54916 H 4961.11 -1.19999 -5.51598 0
M  V30 54917 N 4960.5 1.31717 -0.865354 0
M  V30 54918 C 4961.75 1.97166 -0.474703 0
M  V30 54919 C 4962.08 1.68266 0.969545 0
M  V30 54920 O 4961.36 0.976647 1.68202 0
M  V30 54921 C 4961.64 3.52686 -0.726932 0
M  V30 54922 C 4961.49 3.91177 -2.22038 0
M  V30 54923 C 4962.81 4.39688 -0.190356 0
M  V30 54924 H 4959.93 0.716179 -0.173945 0
M  V30 54925 H 4962.57 1.55922 -1.08575 0
M  V30 54926 H 4960.72 3.87949 -0.206842 0
M  V30 54927 H 4962.4 3.66039 -2.80737 0
M  V30 54928 H 4960.64 3.3995 -2.69474 0
M  V30 54929 H 4961.31 4.99595 -2.34752 0
M  V30 54930 H 4963.79 4.11222 -0.635247 0
M  V30 54931 H 4962.66 5.47467 -0.396324 0
M  V30 54932 H 4962.92 4.32686 0.907473 0
M  V30 54933 N 4961.98 0.624336 1.44706 0
M  V30 54934 C 4962.89 -0.0860258 2.34442 0
M  V30 54935 C 4963.91 -0.842856 1.52223 0
M  V30 54936 O 4965.08 -0.796658 1.84974 0
M  V30 54937 C 4962.15 -1.05987 3.30102 0
M  V30 54938 C 4961.21 -0.303165 4.28228 0
M  V30 54939 C 4960.44 -1.23062 5.19318 0
M  V30 54940 O 4960.67 -2.46911 5.1419 0
M  V30 54941 O 4959.6 -0.71862 5.97595 0
M  V30 54942 H 4963.43 0.65186 2.96622 0
M  V30 54943 H 4961.01 0.384544 1.44366 0
M  V30 54944 H 4962.89 -1.62033 3.89003 0
M  V30 54945 H 4961.57 -1.77849 2.70465 0
M  V30 54946 H 4960.47 0.300164 3.72894 0
M  V30 54947 H 4961.81 0.375295 4.90767 0
M  V30 54948 N 4963.46 -1.53328 0.364476 0
M  V30 54949 C 4964.69 -2.0536 -0.226024 0
M  V30 54950 C 4965.1 -1.23782 -1.4309 0
M  V30 54951 O 4964.44 -0.271203 -1.81687 0
M  V30 54952 C 4964.5 -3.5292 -0.68467 0
M  V30 54953 C 4964.17 -4.55216 0.403366 0
M  V30 54954 C 4965.16 -5.04578 1.25287 0
M  V30 54955 C 4962.85 -4.99132 0.563292 0
M  V30 54956 C 4964.84 -5.96456 2.24766 0
M  V30 54957 C 4962.53 -5.90815 1.56144 0
M  V30 54958 C 4963.53 -6.39367 2.40206 0
M  V30 54959 O 4963.22 -7.29243 3.38319 0
M  V30 54960 H 4962.95 -0.674589 -0.0436534 0
M  V30 54961 H 4965.5 -1.98686 0.520852 0
M  V30 54962 H 4963.73 -3.57128 -1.48313 0
M  V30 54963 H 4965.42 -3.87817 -1.19805 0
M  V30 54964 H 4966.19 -4.71399 1.14051 0
M  V30 54965 H 4962.07 -4.60928 -0.0812289 0
M  V30 54966 H 4965.61 -6.34275 2.90415 0
M  V30 54967 H 4961.51 -6.23408 1.67429 0
M  V30 54968 H 4962.27 -7.47237 3.34035 0
M  V30 54969 N 4964.94 -0.0936148 -1.57322 0
M  V30 54970 C 4966.18 0.573832 -1.9618 0
M  V30 54971 C 4966.54 1.65442 -0.974318 0
M  V30 54972 O 4967.74 2.37897 -1.25134 0
M  V30 54973 C 4966.01 1.116 -3.3953 0
M  V30 54974 S 4967.57 1.79552 -4.00383 0
M  V30 54975 H 4964.39 0.187291 -0.685889 0
M  V30 54976 H 4966.99 -0.172666 -1.94736 0
M  V30 54977 H 4965.7 0.318007 -4.09166 0
M  V30 54978 H 4965.23 1.89835 -3.44566 0
M  V30 54979 H 4967.24 3.07964 -3.89066 0
M  V30 54980 N 4966.42 1.56568 0.180071 0
M  V30 54981 C 4967.64 1.85622 0.913907 0
M  V30 54982 C 4968.06 0.677954 1.76208 0
M  V30 54983 O 4967.42 -0.353108 1.79051 0
M  V30 54984 C 4967.47 3.13625 1.79782 0
M  V30 54985 O 4967.19 4.26909 0.98387 0
M  V30 54986 C 4968.69 3.55964 2.64206 0
M  V30 54987 H 4965.91 0.616053 0.265933 0
M  V30 54988 H 4968.45 2.03681 0.1828 0
M  V30 54989 H 4966.61 2.97418 2.48237 0
M  V30 54990 H 4967.02 4.99896 1.58758 0
M  V30 54991 H 4968.5 4.48455 3.21857 0
M  V30 54992 H 4968.97 2.79665 3.38651 0
M  V30 54993 H 4969.58 3.74753 2.01098 0
M  V30 54994 N 4967.89 -0.448323 1.51089 0
M  V30 54995 C 4969.31 -1.02855 1.55813 0
M  V30 54996 C 4969.66 -1.92582 0.375057 0
M  V30 54997 O 4968.78 -2.10318 -0.50946 0
M  V30 54998 C 4969.38 -1.87213 2.82377 0
M  V30 54999 C 4967.94 -2.40304 2.89709 0
M  V30 55000 C 4967.08 -1.19229 2.50359 0
M  V30 55001 H 4970.03 -0.230019 1.57024 0
M  V30 55002 H 4970.05 -2.72543 2.65519 0
M  V30 55003 H 4969.57 -1.21881 3.68465 0
M  V30 55004 H 4967.67 -3.09122 2.08025 0
M  V30 55005 H 4967.78 -2.73853 3.93118 0
M  V30 55006 H 4966.14 -1.53421 2.03308 0
M  V30 55007 H 4966.93 -0.555248 3.3878 0
M  V30 55008 N 4969.37 -1.4105 -0.703043 0
M  V30 55009 C 4970.6 -1.43346 -1.49197 0
M  V30 55010 C 4971.02 -0.036626 -1.88764 0
M  V30 55011 O 4970.37 0.942364 -1.56287 0
M  V30 55012 C 4970.42 -2.33548 -2.75931 0
M  V30 55013 O 4970.14 -3.67794 -2.38032 0
M  V30 55014 C 4971.65 -2.44568 -3.69731 0
M  V30 55015 H 4968.87 -0.488488 -0.460022 0
M  V30 55016 H 4971.41 -1.85248 -0.866225 0
M  V30 55017 H 4969.56 -1.94974 -3.34759 0
M  V30 55018 H 4969.98 -4.15827 -3.19669 0
M  V30 55019 H 4971.45 -3.11865 -4.5546 0
M  V30 55020 H 4971.93 -1.47461 -4.13705 0
M  V30 55021 H 4972.54 -2.83747 -3.16809 0
M  V30 55022 N 4970.85 0.936546 -1.26754 0
M  V30 55023 C 4972.08 1.71754 -1.15361 0
M  V30 55024 C 4972.49 1.8655 0.290617 0
M  V30 55025 O 4971.85 1.3762 1.19863 0
M  V30 55026 C 4971.9 3.12186 -1.82269 0
M  V30 55027 O 4971.62 2.98093 -3.21048 0
M  V30 55028 C 4973.12 4.06479 -1.76889 0
M  V30 55029 H 4970.34 0.537622 -0.401502 0
M  V30 55030 H 4972.89 1.17376 -1.67461 0
M  V30 55031 H 4971.04 3.63452 -1.34096 0
M  V30 55032 H 4971.46 3.86811 -3.54228 0
M  V30 55033 H 4972.93 5.02561 -2.28333 0
M  V30 55034 H 4973.41 4.32983 -0.736368 0
M  V30 55035 H 4974.01 3.61136 -2.24635 0
M  V30 55036 N 4972.33 1.08633 1.14178 0
M  V30 55037 C 4973.55 0.839087 1.89668 0
M  V30 55038 C 4973.98 -0.603269 1.78164 0
M  V30 55039 O 4973.34 -1.42297 1.12344 0
M  V30 55040 C 4973.38 1.26866 3.37546 0
M  V30 55041 O 4972.49 0.422024 4.10235 0
M  V30 55042 H 4971.83 0.304566 0.59003 0
M  V30 55043 H 4974.36 1.44835 1.44513 0
M  V30 55044 H 4974.37 1.25052 3.88363 0
M  V30 55045 H 4973.04 2.31913 3.45238 0
M  V30 55046 H 4971.62 0.503784 3.69481 0
M  V30 55047 N 4973.81 -1.31256 0.872327 0
M  V30 55048 C 4975.05 -1.96232 0.483478 0
M  V30 55049 C 4975.38 -1.6928 -0.967952 0
M  V30 55050 O 4974.65 -1.00949 -1.67887 0
M  V30 55051 H 4973.23 -0.726019 0.1758 0
M  V30 55052 H 4975.89 -1.6002 1.11263 0
M  V30 55053 H 4974.98 -3.05401 0.643183 0
M  V30 55054 N 4975.28 -0.632002 -1.44373 0
M  V30 55055 C 4976.19 0.0735916 -2.34485 0
M  V30 55056 C 4977.21 0.834772 -1.52668 0
M  V30 55057 O 4978.39 0.786837 -1.85394 0
M  V30 55058 C 4975.45 1.04235 -3.3066 0
M  V30 55059 C 4974.51 0.280451 -4.28383 0
M  V30 55060 C 4973.75 1.20307 -5.19963 0
M  V30 55061 O 4973.97 2.4418 -5.15492 0
M  V30 55062 O 4972.9 0.686918 -5.97967 0
M  V30 55063 H 4976.73 -0.667581 -2.96272 0
M  V30 55064 H 4974.31 -0.392195 -1.4416 0
M  V30 55065 H 4976.2 1.59967 -3.89857 0
M  V30 55066 H 4974.87 1.76412 -2.71404 0
M  V30 55067 H 4973.78 -0.319935 -3.72729 0
M  V30 55068 H 4975.11 -0.401317 -4.90561 0
M  V30 55069 N 4976.76 1.53132 -0.372602 0
M  V30 55070 C 4978.04 1.93705 0.271625 0
M  V30 55071 C 4978.42 1.30673 1.65795 0
M  V30 55072 O 4977.77 0.468458 2.23646 0
M  V30 55073 C 4977.98 3.47578 0.314781 0
M  V30 55074 C 4979.33 4.21 0.551764 0
M  V30 55075 O 4980.35 3.53995 0.395696 0
M  V30 55076 O 4979.21 5.39751 0.8562 0
M  V30 55077 H 4976.3 0.810463 0.164557 0
M  V30 55078 H 4978.85 1.64269 -0.425896 0
M  V30 55079 H 4977.62 3.85746 -0.656928 0
M  V30 55080 H 4977.24 3.83268 1.05791 0
M  V30 55081 N 4978.24 0.101957 1.5727 0
M  V30 55082 C 4979.49 -0.560959 1.94887 0
M  V30 55083 C 4979.82 -1.67406 0.984316 0
M  V30 55084 O 4979.09 -1.94491 0.018545 0
M  V30 55085 C 4979.38 -1.10969 3.42575 0
M  V30 55086 C 4979.23 -0.00117605 4.498 0
M  V30 55087 C 4980.55 -2.00594 3.91727 0
M  V30 55088 H 4977.67 -0.202442 0.708651 0
M  V30 55089 H 4980.31 0.174059 1.89201 0
M  V30 55090 H 4978.46 -1.73608 3.47552 0
M  V30 55091 H 4980.13 0.633381 4.56931 0
M  V30 55092 H 4978.38 0.664294 4.28684 0
M  V30 55093 H 4979.05 -0.426059 5.50353 0
M  V30 55094 H 4981.52 -1.47851 3.88947 0
M  V30 55095 H 4980.4 -2.35912 4.95617 0
M  V30 55096 H 4980.66 -2.92596 3.31421 0
M  V30 55097 N 4979.72 -1.56661 -0.171765 0
M  V30 55098 C 4981.13 -1.5077 -0.523517 0
M  V30 55099 C 4981.33 -0.806137 -1.84672 0
M  V30 55100 O 4980.39 -0.36632 -2.49829 0
M  V30 55101 C 4981.7 -2.95502 -0.556689 0
M  V30 55102 C 4983.25 -3.06305 -0.643921 0
M  V30 55103 C 4983.73 -4.52495 -0.707989 0
M  V30 55104 N 4985.22 -4.5674 -0.77089 0
M  V30 55105 C 4985.95 -5.67199 -0.841029 0
M  V30 55106 N 4985.45 -6.8729 -0.87203 0
M  V30 55107 N 4987.24 -5.55169 -0.880015 0
M  V30 55108 H 4979.39 -2.00677 0.695888 0
M  V30 55109 H 4981.66 -0.91421 0.250846 0
M  V30 55110 H 4981.36 -3.49985 0.346897 0
M  V30 55111 H 4981.24 -3.50123 -1.40333 0
M  V30 55112 H 4983.62 -2.51856 -1.53793 0
M  V30 55113 H 4983.7 -2.54769 0.229387 0
M  V30 55114 H 4983.35 -5.07575 0.181763 0
M  V30 55115 H 4983.28 -5.01786 -1.59743 0
M  V30 55116 H 4985.77 -3.70276 -0.755234 0
M  V30 55117 H 4986.08 -7.67224 -0.92671 0
M  V30 55118 H 4984.43 -6.89901 -0.840315 0
M  V30 55119 H 4987.62 -4.60266 -0.852794 0
M  V30 55120 H 4987.79 -6.41274 -0.931214 0
M  V30 55121 N 4981.2 0.440304 -1.51324 0
M  V30 55122 C 4982.47 1.20103 -1.54385 0
M  V30 55123 C 4982.85 2.08865 -0.306376 0
M  V30 55124 O 4982.2 2.17232 0.708696 0
M  V30 55125 C 4982.41 2.00545 -2.85627 0
M  V30 55126 C 4983.76 2.57688 -3.37464 0
M  V30 55127 O 4984.78 2.10759 -2.87157 0
M  V30 55128 O 4983.64 3.43274 -4.25236 0
M  V30 55129 H 4980.74 0.546646 -0.62057 0
M  V30 55130 H 4983.28 0.449615 -1.63635 0
M  V30 55131 H 4982.05 1.35333 -3.67152 0
M  V30 55132 H 4981.68 2.82758 -2.79524 0
M  V30 55133 N 4982.68 1.41421 0.695553 0
M  V30 55134 C 4983.92 1.40779 1.4556 0
M  V30 55135 C 4984.25 0.0169288 1.94493 0
M  V30 55136 O 4983.51 -0.971199 1.69901 0
M  V30 55137 C 4983.8 2.36122 2.68293 0
M  V30 55138 C 4983.47 3.8296 2.38017 0
M  V30 55139 C 4982.13 4.22962 2.29471 0
M  V30 55140 C 4984.48 4.75669 2.13045 0
M  V30 55141 C 4981.81 5.53681 1.94048 0
M  V30 55142 C 4984.16 6.06708 1.7913 0
M  V30 55143 C 4982.83 6.45731 1.69079 0
M  V30 55144 H 4982.1 0.515146 0.53264 0
M  V30 55145 H 4984.75 1.74219 0.794986 0
M  V30 55146 H 4983.05 1.95936 3.39288 0
M  V30 55147 H 4984.75 2.32898 3.26434 0
M  V30 55148 H 4981.34 3.51278 2.45563 0
M  V30 55149 H 4985.52 4.45568 2.18592 0
M  V30 55150 H 4980.78 5.82797 1.84819 0
M  V30 55151 H 4984.95 6.78047 1.58826 0
M  V30 55152 H 4982.58 7.46934 1.41399 0
M  V30 55153 N 4984.15 -0.929811 1.27249 0
M  V30 55154 C 4985.12 -2.01168 1.09836 0
M  V30 55155 C 4986.12 -1.60742 0.0430252 0
M  V30 55156 O 4987.31 -1.71812 0.287434 0
M  V30 55157 C 4984.44 -3.34188 0.673121 0
M  V30 55158 H 4985.63 -2.18047 2.05902 0
M  V30 55159 H 4983.18 -1.11032 1.10007 0
M  V30 55160 H 4983.92 -3.2301 -0.289021 0
M  V30 55161 H 4983.7 -3.64886 1.43528 0
M  V30 55162 H 4985.19 -4.13644 0.573469 0
M  V30 55163 N 4985.63 -1.09237 -1.13601 0
M  V30 55164 C 4986.58 -0.729998 -2.18951 0
M  V30 55165 C 4987.55 0.287858 -1.63587 0
M  V30 55166 O 4988.73 0.169937 -1.90042 0
M  V30 55167 C 4985.87 -0.15461 -3.44753 0
M  V30 55168 C 4984.99 -1.22627 -4.1423 0
M  V30 55169 C 4984.12 -0.613843 -5.27641 0
M  V30 55170 C 4983.16 -1.66695 -5.88965 0
M  V30 55171 N 4982.3 -1.07569 -6.93811 0
M  V30 55172 H 4987.14 -1.63265 -2.49296 0
M  V30 55173 H 4984.67 -0.815736 -1.2241 0
M  V30 55174 H 4986.63 0.196777 -4.16736 0
M  V30 55175 H 4985.26 0.711322 -3.14865 0
M  V30 55176 H 4984.31 -1.69497 -3.40551 0
M  V30 55177 H 4985.63 -2.02396 -4.55892 0
M  V30 55178 H 4984.78 -0.211189 -6.06332 0
M  V30 55179 H 4983.52 0.215413 -4.87224 0
M  V30 55180 H 4982.52 -2.07917 -5.0897 0
M  V30 55181 H 4983.75 -2.49883 -6.31455 0
M  V30 55182 H 4981.7 -0.267682 -6.55454 0
M  V30 55183 H 4981.61 -1.81037 -7.34004 0
M  V30 55184 H 4982.88 -0.699179 -7.76358 0
M  V30 55185 N 4987.11 1.30792 -0.879276 0
M  V30 55186 C 4988.36 1.96651 -0.495588 0
M  V30 55187 C 4988.69 1.69285 0.951643 0
M  V30 55188 O 4987.96 0.994432 1.67156 0
M  V30 55189 C 4988.25 3.51896 -0.764298 0
M  V30 55190 C 4988.1 3.888 -2.26174 0
M  V30 55191 C 4989.42 4.39462 -0.23698 0
M  V30 55192 H 4986.54 0.714294 -0.181532 0
M  V30 55193 H 4989.18 1.54761 -1.10222 0
M  V30 55194 H 4987.33 3.87708 -0.247977 0
M  V30 55195 H 4989 3.63041 -2.84603 0
M  V30 55196 H 4987.24 3.37073 -2.73065 0
M  V30 55197 H 4987.92 4.97077 -2.40038 0
M  V30 55198 H 4990.39 4.10525 -0.678827 0
M  V30 55199 H 4989.27 5.47016 -0.454368 0
M  V30 55200 H 4989.53 4.33624 0.86153 0
M  V30 55201 N 4988.59 0.639649 1.44036 0
M  V30 55202 C 4989.52 -0.0468623 2.33453 0
M  V30 55203 C 4990.5 -0.826037 1.48696 0
M  V30 55204 O 4991.68 -0.790223 1.77395 0
M  V30 55205 C 4988.81 -1.02326 3.31884 0
M  V30 55206 C 4987.77 -0.355134 4.26524 0
M  V30 55207 C 4987.09 -1.44203 5.14888 0
M  V30 55208 C 4988.39 0.74398 5.16974 0
M  V30 55209 H 4990.09 0.699837 2.91106 0
M  V30 55210 H 4987.63 0.337995 1.39977 0
M  V30 55211 H 4989.59 -1.51233 3.93327 0
M  V30 55212 H 4988.31 -1.80095 2.72458 0
M  V30 55213 H 4986.97 0.113368 3.66425 0
M  V30 55214 H 4986.62 -2.21082 4.5181 0
M  V30 55215 H 4986.32 -1.00032 5.79023 0
M  V30 55216 H 4987.84 -1.93274 5.79204 0
M  V30 55217 H 4989.26 0.337645 5.72305 0
M  V30 55218 H 4987.65 1.10934 5.89757 0
M  V30 55219 H 4988.72 1.60761 4.57476 0
M  V30 55220 N 4990.07 -1.52932 0.380717 0
M  V30 55221 C 4991.01 -2.26199 -0.458562 0
M  V30 55222 C 4991.98 -1.27466 -1.06497 0
M  V30 55223 O 4993.17 -1.56278 -1.09462 0
M  V30 55224 C 4990.31 -3.06576 -1.58445 0
M  V30 55225 C 4989.42 -4.20225 -1.00174 0
M  V30 55226 C 4988.56 -4.88015 -2.09798 0
M  V30 55227 C 4987.59 -5.9367 -1.49071 0
M  V30 55228 N 4986.73 -6.5509 -2.5259 0
M  V30 55229 H 4991.57 -2.97499 0.1727 0
M  V30 55230 H 4989.11 -1.4678 0.0969942 0
M  V30 55231 H 4991.07 -3.51463 -2.24788 0
M  V30 55232 H 4989.7 -2.37502 -2.18615 0
M  V30 55233 H 4988.75 -3.79715 -0.228158 0
M  V30 55234 H 4990.06 -4.96104 -0.517889 0
M  V30 55235 H 4989.21 -5.36161 -2.83929 0
M  V30 55236 H 4987.95 -4.11641 -2.6154 0
M  V30 55237 H 4986.96 -5.4487 -0.734608 0
M  V30 55238 H 4988.18 -6.71972 -0.981346 0
M  V30 55239 H 4986.13 -5.81561 -3.03517 0
M  V30 55240 H 4986.05 -7.26555 -2.08935 0
M  V30 55241 H 4987.31 -7.07883 -3.26377 0
M  V30 55242 N 4991.54 -0.110296 -1.57214 0
M  V30 55243 C 4992.49 0.86051 -2.16097 0
M  V30 55244 C 4993.49 1.28153 -1.10785 0
M  V30 55245 O 4994.69 1.25428 -1.29104 0
M  V30 55246 H 4991.07 0.295582 -0.691473 0
M  V30 55247 H 4993.04 0.339316 -2.96465 0
M  V30 55248 C 4991.79 2.10412 -2.76807 0
M  V30 55249 H 4991.11 1.78907 -3.57536 0
M  V30 55250 H 4992.55 2.76364 -3.21557 0
M  V30 55251 C 4991.01 2.88817 -1.73455 0
M  V30 55252 O 4991.54 3.83896 -1.18265 0
M  V30 55253 N 4989.74 2.52644 -1.43595 0
M  V30 55254 H 4989.29 1.75394 -1.88666 0
M  V30 55255 H 4989.25 3.05401 -0.746843 0
M  V30 55256 N 4993.02 1.5675 0.163455 0
M  V30 55257 C 4993.97 1.97015 1.20223 0
M  V30 55258 C 4994.94 0.835236 1.43572 0
M  V30 55259 O 4996.12 1.09599 1.56181 0
M  V30 55260 C 4993.26 2.34195 2.53469 0
M  V30 55261 C 4992.38 3.60901 2.37433 0
M  V30 55262 C 4991.51 3.87257 3.636 0
M  V30 55263 C 4990.55 5.07286 3.42531 0
M  V30 55264 N 4989.69 5.29736 4.60787 0
M  V30 55265 H 4994.53 2.85565 0.851857 0
M  V30 55266 H 4992.06 1.41294 0.409207 0
M  V30 55267 H 4994.02 2.53775 3.3114 0
M  V30 55268 H 4992.65 1.48746 2.86487 0
M  V30 55269 H 4991.7 3.4919 1.50899 0
M  V30 55270 H 4993.02 4.4873 2.17815 0
M  V30 55271 H 4992.17 4.07248 4.49705 0
M  V30 55272 H 4990.91 2.97819 3.86206 0
M  V30 55273 H 4989.91 4.87186 2.54813 0
M  V30 55274 H 4991.14 5.98262 3.21339 0
M  V30 55275 H 4989.09 4.4325 4.83597 0
M  V30 55276 H 4989 6.11802 4.44111 0
M  V30 55277 H 4990.27 5.54211 5.48152 0
M  V30 55278 N 4994.5 -0.432272 1.51556 0
M  V30 55279 C 4995.75 -1.18128 1.64475 0
M  V30 55280 C 4996.07 -1.91075 0.363416 0
M  V30 55281 O 4995.33 -1.84494 -0.652725 0
M  V30 55282 C 4995.63 -2.21897 2.80172 0
M  V30 55283 C 4995.29 -1.65926 4.1926 0
M  V30 55284 C 4993.96 -1.50385 4.57097 0
M  V30 55285 C 4996.31 -1.24825 5.06032 0
M  V30 55286 C 4993.64 -0.922239 5.79406 0
M  V30 55287 C 4995.99 -0.680909 6.28925 0
M  V30 55288 C 4994.65 -0.512439 6.6553 0
M  V30 55289 H 4993.92 -0.432261 0.601856 0
M  V30 55290 H 4996.57 -0.471636 1.85601 0
M  V30 55291 H 4994.87 -2.98919 2.53288 0
M  V30 55292 H 4996.57 -2.79681 2.87367 0
M  V30 55293 H 4993.16 -1.79 3.89432 0
M  V30 55294 H 4997.35 -1.3565 4.77402 0
M  V30 55295 H 4992.6 -0.77952 6.0641 0
M  V30 55296 H 4996.78 -0.353936 6.955 0
M  V30 55297 H 4994.4 -0.0596412 7.60177 0
M  V30 55298 N 4995.98 -1.41788 -0.688044 0
M  V30 55299 C 4997.39 -1.24422 -0.999564 0
M  V30 55300 C 4997.59 -0.138939 -2.0102 0
M  V30 55301 O 4996.65 0.494196 -2.47617 0
M  V30 55302 C 4997.96 -2.5963 -1.517 0
M  V30 55303 C 4999.51 -2.66875 -1.63545 0
M  V30 55304 C 4999.99 -4.02417 -2.18688 0
M  V30 55305 N 5001.48 -4.04303 -2.26038 0
M  V30 55306 C 5002.21 -5.05987 -2.6975 0
M  V30 55307 N 5001.71 -6.18058 -3.13012 0
M  V30 55308 N 5003.5 -4.93346 -2.69381 0
M  V30 55309 H 4995.65 -2.12392 -0.018668 0
M  V30 55310 H 4997.91 -0.94535 -0.0708341 0
M  V30 55311 H 4997.62 -3.413 -0.848939 0
M  V30 55312 H 4997.49 -2.82637 -2.49793 0
M  V30 55313 H 4999.88 -1.85558 -2.2946 0
M  V30 55314 H 4999.96 -2.4767 -0.63977 0
M  V30 55315 H 4999.61 -4.84185 -1.53385 0
M  V30 55316 H 4999.54 -4.18966 -3.19022 0
M  V30 55317 H 5002.03 -3.2339 -1.95519 0
M  V30 55318 H 5002.34 -6.9151 -3.45013 0
M  V30 55319 H 5000.69 -6.21583 -3.10901 0
M  V30 55320 H 5003.88 -4.04873 -2.34937 0
M  V30 55321 H 5004.05 -5.72728 -3.03128 0
M  V30 55322 N 4997.46 0.92305 -1.2774 0
M  V30 55323 C 4998.68 1.70521 -1.17177 0
M  V30 55324 C 4999.1 1.86848 0.270815 0
M  V30 55325 O 4998.46 1.38883 1.18396 0
M  V30 55326 C 4998.51 3.10236 -1.8557 0
M  V30 55327 O 4998.23 2.94671 -3.24192 0
M  V30 55328 C 4999.73 4.0458 -1.81191 0
M  V30 55329 H 4996.95 0.533333 -0.407181 0
M  V30 55330 H 4999.49 1.15593 -1.68696 0
M  V30 55331 H 4997.65 3.62009 -1.37943 0
M  V30 55332 H 4998.06 3.83032 -3.58311 0
M  V30 55333 H 4999.54 5.00111 -2.33651 0
M  V30 55334 H 5000.01 4.32178 -0.782251 0
M  V30 55335 H 5000.62 3.58733 -2.28453 0
M  V30 55336 N 4998.93 1.09838 1.1302 0
M  V30 55337 C 4999.88 0.741599 2.18561 0
M  V30 55338 C 5000.85 -0.279179 1.63737 0
M  V30 55339 O 5002.04 -0.159856 1.90129 0
M  V30 55340 C 4999.18 0.172891 3.44667 0
M  V30 55341 C 4998.29 1.24822 4.13574 0
M  V30 55342 C 4997.42 0.641816 5.27308 0
M  V30 55343 C 4996.46 1.69816 5.88072 0
M  V30 55344 N 4995.6 1.11247 6.9323 0
M  V30 55345 H 5000.44 1.64585 2.48426 0
M  V30 55346 H 4997.98 0.822216 1.21975 0
M  V30 55347 H 4999.94 -0.174673 4.16834 0
M  V30 55348 H 4998.57 -0.694614 3.15238 0
M  V30 55349 H 4997.62 1.713 3.39647 0
M  V30 55350 H 4998.93 2.04811 4.54812 0
M  V30 55351 H 4998.08 0.243341 6.06212 0
M  V30 55352 H 4996.82 -0.189571 4.87331 0
M  V30 55353 H 4995.83 2.10613 5.0786 0
M  V30 55354 H 4997.05 2.53228 6.30121 0
M  V30 55355 H 4995 0.302438 6.55302 0
M  V30 55356 H 4994.92 1.84927 7.33033 0
M  V30 55357 H 4996.18 0.740341 7.75976 0
M  V30 55358 N 5000.41 -1.30324 0.8862 0
M  V30 55359 C 5001.83 -1.48674 0.580375 0
M  V30 55360 C 5002.03 -1.81192 -0.881576 0
M  V30 55361 O 5001.08 -1.90027 -1.66271 0
M  V30 55362 C 5002.4 -2.60927 1.49458 0
M  V30 55363 C 5003.95 -2.74807 1.49834 0
M  V30 55364 C 5004.42 -3.90174 2.3985 0
M  V30 55365 N 5005.91 -3.97487 2.3782 0
M  V30 55366 C 5006.65 -4.86067 3.04182 0
M  V30 55367 N 5006.14 -5.79434 3.79773 0
M  V30 55368 N 5007.94 -4.79446 2.93408 0
M  V30 55369 H 5000.09 -1.07489 1.83194 0
M  V30 55370 H 5002.35 -0.532634 0.784223 0
M  V30 55371 H 5002.06 -2.43723 2.53559 0
M  V30 55372 H 5001.93 -3.57433 1.20506 0
M  V30 55373 H 5004.32 -2.91416 0.464834 0
M  V30 55374 H 5004.4 -1.78918 1.82817 0
M  V30 55375 H 5004.04 -3.74322 3.43286 0
M  V30 55376 H 5003.97 -4.85404 2.04183 0
M  V30 55377 H 5006.46 -3.30696 1.82889 0
M  V30 55378 H 5006.78 -6.4379 4.27497 0
M  V30 55379 H 5005.12 -5.79362 3.83881 0
M  V30 55380 H 5008.31 -4.05485 2.33879 0
M  V30 55381 H 5008.48 -5.48271 3.45403 0
M  V30 55382 N 5001.89 -0.647279 -1.43694 0
M  V30 55383 C 5003.12 -0.165582 -2.05935 0
M  V30 55384 C 5003.53 1.17159 -1.48561 0
M  V30 55385 O 5002.87 1.73304 -0.609201 0
M  V30 55386 C 5002.93 0.00635444 -3.59499 0
M  V30 55387 C 5002.6 -1.25518 -4.39425 0
M  V30 55388 C 5003.59 -2.18258 -4.71868 0
M  V30 55389 C 5001.28 -1.49511 -4.79533 0
M  V30 55390 C 5003.27 -3.33287 -5.43322 0
M  V30 55391 C 5000.96 -2.64834 -5.50732 0
M  V30 55392 C 5001.96 -3.56548 -5.82548 0
M  V30 55393 O 5001.65 -4.69859 -6.52294 0
M  V30 55394 H 5001.38 -0.084436 -0.670706 0
M  V30 55395 H 5003.93 -0.886445 -1.85287 0
M  V30 55396 H 5002.16 0.782528 -3.787 0
M  V30 55397 H 5003.85 0.444652 -4.03457 0
M  V30 55398 H 5004.62 -2.00961 -4.41406 0
M  V30 55399 H 5000.5 -0.790072 -4.54179 0
M  V30 55400 H 5004.04 -4.04894 -5.68073 0
M  V30 55401 H 4999.94 -2.82067 -5.8061 0
M  V30 55402 H 5000.71 -4.69048 -6.70773 0
M  V30 55403 N 5003.37 1.52728 -0.388822 0
M  V30 55404 C 5004.62 2.01573 0.19352 0
M  V30 55405 C 5004.94 1.2753 1.46855 0
M  V30 55406 O 5004.2 0.363993 1.92285 0
M  V30 55407 C 5004.5 3.53767 0.50832 0
M  V30 55408 C 5004.16 4.45817 -0.675104 0
M  V30 55409 C 5002.83 4.707 -0.999761 0
M  V30 55410 C 5005.18 5.00133 -1.46684 0
M  V30 55411 C 5002.51 5.47147 -2.11771 0
M  V30 55412 C 5004.86 5.77803 -2.57538 0
M  V30 55413 C 5003.52 6.00965 -2.90513 0
M  V30 55414 H 5002.79 0.737609 0.0708138 0
M  V30 55415 H 5005.44 1.84132 -0.526071 0
M  V30 55416 H 5003.74 3.69278 1.30923 0
M  V30 55417 H 5005.44 3.89053 0.971528 0
M  V30 55418 H 5002.03 4.26615 -0.412056 0
M  V30 55419 H 5006.21 4.80836 -1.22925 0
M  V30 55420 H 5001.47 5.63306 -2.3769 0
M  V30 55421 H 5005.64 6.18892 -3.19288 0
M  V30 55422 H 5003.27 6.59985 -3.77259 0
M  V30 55423 N 5004.85 0.118632 1.57153 0
M  V30 55424 C 5005.81 -0.817389 2.14129 0
M  V30 55425 C 5006.81 -1.19487 1.07609 0
M  V30 55426 O 5008 -1.12043 1.33386 0
M  V30 55427 C 5005.13 -2.10531 2.68122 0
M  V30 55428 H 5006.32 -0.322234 2.98164 0
M  V30 55429 H 5003.88 -0.1306 1.55753 0
M  V30 55430 H 5004.61 -2.64478 1.87674 0
M  V30 55431 H 5004.4 -1.84413 3.46026 0
M  V30 55432 H 5005.89 -2.77442 3.12115 0
M  V30 55433 N 5006.32 -1.56835 -0.15514 0
M  V30 55434 C 5007.27 -1.9765 -1.19177 0
M  V30 55435 C 5008.24 -0.842838 -1.43127 0
M  V30 55436 O 5009.43 -1.10426 -1.55598 0
M  V30 55437 C 5006.57 -2.35536 -2.52224 0
M  V30 55438 C 5005.68 -3.62155 -2.35516 0
M  V30 55439 C 5004.81 -3.8918 -3.61541 0
M  V30 55440 C 5003.85 -5.09096 -3.39835 0
M  V30 55441 N 5002.99 -5.32172 -4.57971 0
M  V30 55442 H 5007.83 -2.86013 -0.836701 0
M  V30 55443 H 5005.37 -1.41509 -0.401708 0
M  V30 55444 H 5007.33 -2.55528 -3.2979 0
M  V30 55445 H 5005.96 -1.50263 -2.85694 0
M  V30 55446 H 5005.01 -3.49985 -1.49045 0
M  V30 55447 H 5006.32 -4.49878 -2.15432 0
M  V30 55448 H 5005.47 -4.09627 -4.47539 0
M  V30 55449 H 5004.21 -2.99863 -3.84621 0
M  V30 55450 H 5003.22 -4.88531 -2.52226 0
M  V30 55451 H 5004.44 -5.99958 -3.18162 0
M  V30 55452 H 5002.39 -4.45808 -4.81239 0
M  V30 55453 H 5002.31 -6.14149 -4.4086 0
M  V30 55454 H 5003.57 -5.5711 -5.45205 0
M  V30 55455 N 5007.8 0.424229 -1.51783 0
M  V30 55456 C 5008.75 1.51458 -1.70424 0
M  V30 55457 C 5009.74 1.50909 -0.558147 0
M  V30 55458 O 5010.93 1.57141 -0.814607 0
M  V30 55459 C 5008.06 2.89532 -1.84461 0
M  V30 55460 C 5007.14 2.94787 -3.04896 0
M  V30 55461 N 5007.53 2.69763 -4.27857 0
M  V30 55462 C 5005.83 3.25952 -3.0442 0
M  V30 55463 C 5006.53 2.81198 -5.09218 0
M  V30 55464 N 5005.51 3.13431 -4.44142 0
M  V30 55465 H 5009.31 1.30882 -2.63148 0
M  V30 55466 H 5006.83 0.631731 -1.49609 0
M  V30 55467 H 5008.82 3.67991 -1.95929 0
M  V30 55468 H 5007.48 3.11118 -0.929277 0
M  V30 55469 H 5008.49 2.44442 -4.56584 0
M  V30 55470 H 5005.17 3.53228 -2.22567 0
M  V30 55471 H 5006.56 2.65693 -6.17136 0
M  V30 55472 N 5009.28 1.4215 0.680515 0
M  V30 55473 C 5010.69 1.37685 1.26094 0
M  V30 55474 C 5011.04 0.0673038 1.96085 0
M  V30 55475 O 5010.17 -0.834102 1.99679 0
M  V30 55476 C 5010.76 2.49395 2.2932 0
M  V30 55477 C 5009.32 2.4828 2.82903 0
M  V30 55478 C 5008.47 2.28476 1.57144 0
M  V30 55479 H 5011.42 1.51447 0.474273 0
M  V30 55480 H 5011.44 2.19318 3.10934 0
M  V30 55481 H 5010.95 3.44692 1.7835 0
M  V30 55482 H 5009.05 1.56784 3.38008 0
M  V30 55483 H 5009.17 3.45121 3.32308 0
M  V30 55484 H 5007.53 1.7663 1.83505 0
M  V30 55485 H 5008.31 3.2582 1.08149 0
M  V30 55486 N 5010.76 -0.916262 1.28228 0
M  V30 55487 C 5012.17 -1.19422 1.0588 0
M  V30 55488 C 5012.37 -2.00501 -0.200429 0
M  V30 55489 O 5011.43 -2.35809 -0.902791 0
M  V30 55490 C 5012.74 -1.93124 2.30485 0
M  V30 55491 C 5014.29 -2.06018 2.35639 0
M  V30 55492 C 5014.77 -2.83128 3.60003 0
M  V30 55493 N 5016.26 -2.90691 3.60629 0
M  V30 55494 C 5016.99 -3.50849 4.53533 0
M  V30 55495 N 5016.49 -4.12307 5.56754 0
M  V30 55496 N 5018.28 -3.48364 4.41134 0
M  V30 55497 H 5010.43 -0.374886 2.09065 0
M  V30 55498 H 5012.7 -0.228499 0.92005 0
M  V30 55499 H 5012.4 -1.40974 3.2221 0
M  V30 55500 H 5012.28 -2.93687 2.36701 0
M  V30 55501 H 5014.66 -2.5735 1.44413 0
M  V30 55502 H 5014.74 -1.04639 2.33419 0
M  V30 55503 H 5014.39 -2.32476 4.51572 0
M  V30 55504 H 5014.32 -3.84816 3.59477 0
M  V30 55505 H 5016.81 -2.47024 2.85986 0
M  V30 55506 H 5017.12 -4.56183 6.23792 0
M  V30 55507 H 5015.47 -4.10819 5.60583 0
M  V30 55508 H 5018.66 -2.99559 3.59697 0
M  V30 55509 H 5018.83 -3.94956 5.13725 0
M  V30 55510 N 5012.24 -1.10435 -1.12436 0
M  V30 55511 C 5013.17 -0.697063 -2.17293 0
M  V30 55512 C 5014.15 0.301617 -1.59778 0
M  V30 55513 O 5015.33 0.200517 -1.8743 0
M  V30 55514 C 5012.46 -0.0285285 -3.38688 0
M  V30 55515 C 5011.51 -0.990682 -4.14835 0
M  V30 55516 S 5012.34 -2.50802 -4.73137 0
M  V30 55517 C 5013.49 -1.85219 -5.97867 0
M  V30 55518 H 5013.73 -1.58532 -2.51506 0
M  V30 55519 H 5011.26 -0.921355 -1.23897 0
M  V30 55520 H 5013.22 0.350865 -4.08998 0
M  V30 55521 H 5011.88 0.836523 -3.02756 0
M  V30 55522 H 5011.07 -0.470167 -5.01802 0
M  V30 55523 H 5010.67 -1.31198 -3.50233 0
M  V30 55524 H 5012.97 -1.1824 -6.67102 0
M  V30 55525 H 5013.91 -2.70143 -6.54544 0
M  V30 55526 H 5014.32 -1.31672 -5.48929 0
M  V30 55527 N 5013.72 1.29852 -0.893099 0
M  V30 55528 C 5014.96 1.95438 -0.514635 0
M  V30 55529 C 5015.28 1.70798 0.940899 0
M  V30 55530 O 5014.55 1.03607 1.6626 0
M  V30 55531 H 5013.13 0.72313 -0.187328 0
M  V30 55532 H 5015.8 1.5823 -1.13795 0
M  V30 55533 H 5014.89 3.04339 -0.691688 0
M  V30 55534 N 5015.19 0.65489 1.43349 0
M  V30 55535 C 5016.42 0.176501 2.05845 0
M  V30 55536 C 5016.83 -1.1637 1.4918 0
M  V30 55537 O 5016.17 -1.72979 0.618383 0
M  V30 55538 C 5016.24 0.0127108 3.59498 0
M  V30 55539 C 5015.9 1.27847 4.38753 0
M  V30 55540 C 5016.9 2.20757 4.70704 0
M  V30 55541 C 5014.58 1.52052 4.78733 0
M  V30 55542 C 5016.58 3.36164 5.41547 0
M  V30 55543 C 5014.26 2.67751 5.4932 0
M  V30 55544 C 5015.26 3.59633 5.80649 0
M  V30 55545 O 5014.95 4.73312 6.49793 0
M  V30 55546 H 5014.68 0.0879917 0.670249 0
M  V30 55547 H 5017.24 0.896258 1.84814 0
M  V30 55548 H 5015.47 -0.762433 3.79109 0
M  V30 55549 H 5017.15 -0.42325 4.03687 0
M  V30 55550 H 5017.92 2.033 4.40334 0
M  V30 55551 H 5013.8 0.814147 4.53754 0
M  V30 55552 H 5017.34 4.07901 5.65917 0
M  V30 55553 H 5013.24 2.85142 5.79106 0
M  V30 55554 H 5014.01 4.72599 6.68276 0
M  V30 55555 N 5016.67 -1.5252 0.396917 0
M  V30 55556 C 5017.6 -2.29584 -0.425861 0
M  V30 55557 C 5018.58 -1.33285 -1.05684 0
M  V30 55558 O 5019.77 -1.62184 -1.06817 0
M  V30 55559 C 5016.9 -3.10827 -1.54932 0
M  V30 55560 C 5015.85 -4.15072 -1.04399 0
M  V30 55561 C 5015.18 -4.84586 -2.26011 0
M  V30 55562 C 5016.48 -5.22191 -0.106583 0
M  V30 55563 H 5018.17 -2.98611 0.21715 0
M  V30 55564 H 5015.72 -1.4361 0.105877 0
M  V30 55565 H 5017.67 -3.635 -2.1318 0
M  V30 55566 H 5016.39 -2.39546 -2.22003 0
M  V30 55567 H 5015.05 -3.63391 -0.483991 0
M  V30 55568 H 5014.7 -4.09846 -2.91609 0
M  V30 55569 H 5014.4 -5.5505 -1.92856 0
M  V30 55570 H 5015.93 -5.40066 -2.84887 0
M  V30 55571 H 5017.34 -5.70178 -0.597484 0
M  V30 55572 H 5015.74 -5.99947 0.135563 0
M  V30 55573 H 5016.81 -4.77528 0.842302 0
M  V30 55574 N 5018.15 -0.126964 -1.57088 0
M  V30 55575 C 5019.56 0.397137 -1.82427 0
M  V30 55576 C 5019.91 1.66081 -1.04459 0
M  V30 55577 O 5019.04 2.14533 -0.283628 0
M  V30 55578 C 5019.63 0.727294 -3.30902 0
M  V30 55579 C 5018.19 1.196 -3.56893 0
M  V30 55580 C 5017.34 0.208752 -2.76513 0
M  V30 55581 H 5020.29 -0.351978 -1.54748 0
M  V30 55582 H 5020.31 1.58395 -3.45964 0
M  V30 55583 H 5019.82 -0.192606 -3.87622 0
M  V30 55584 H 5017.92 2.13252 -3.05539 0
M  V30 55585 H 5018.04 1.13582 -4.65442 0
M  V30 55586 H 5016.4 0.697393 -2.44966 0
M  V30 55587 H 5017.18 -0.704385 -3.35996 0
M  V30 55588 N 5019.63 1.56915 0.14682 0
M  V30 55589 C 5020.87 1.83631 0.860676 0
M  V30 55590 C 5021.21 0.708592 1.80811 0
M  V30 55591 O 5020.48 -0.28777 1.92359 0
M  V30 55592 C 5020.76 3.20842 1.635 0
M  V30 55593 C 5020.62 4.44176 0.709043 0
M  V30 55594 C 5021.94 3.55277 2.59743 0
M  V30 55595 H 5019.06 0.66796 0.311445 0
M  V30 55596 H 5021.7 1.89583 0.125869 0
M  V30 55597 H 5019.85 3.15899 2.26142 0
M  V30 55598 H 5021.52 4.61205 0.0936159 0
M  V30 55599 H 5019.76 4.33796 0.0186331 0
M  V30 55600 H 5020.43 5.3679 1.28688 0
M  V30 55601 H 5022.91 3.60831 2.07219 0
M  V30 55602 H 5021.79 4.52314 3.10971 0
M  V30 55603 H 5022.05 2.81243 3.41108 0
M  V30 55604 N 5021.11 -0.416173 1.52006 0
M  V30 55605 C 5022.04 -1.52546 1.71063 0
M  V30 55606 C 5023.05 -1.51691 0.591073 0
M  V30 55607 O 5024.24 -1.56084 0.866028 0
M  V30 55608 C 5021.34 -2.91449 1.72948 0
M  V30 55609 C 5020.51 -3.16574 3.01828 0
M  V30 55610 C 5019.57 -4.35312 2.95618 0
M  V30 55611 O 5018.6 -4.32934 3.69536 0
M  V30 55612 N 5019.8 -5.40041 2.12922 0
M  V30 55613 H 5022.56 -1.36595 2.66762 0
M  V30 55614 H 5020.13 -0.605387 1.50156 0
M  V30 55615 H 5022.12 -3.68938 1.66334 0
M  V30 55616 H 5020.69 -3.00892 0.847524 0
M  V30 55617 H 5019.91 -2.27192 3.22145 0
M  V30 55618 H 5021.2 -3.30199 3.87099 0
M  V30 55619 H 5020.59 -5.44818 1.52284 0
M  V30 55620 H 5019.15 -6.16301 2.12171 0
M  V30 55621 N 5022.58 -1.42509 -0.672966 0
M  V30 55622 C 5023.81 -1.46478 -1.46122 0
M  V30 55623 C 5024.23 -0.0766575 -1.88644 0
M  V30 55624 O 5023.58 0.909001 -1.58251 0
M  V30 55625 C 5023.63 -2.39348 -2.70915 0
M  V30 55626 O 5023.36 -3.7276 -2.30177 0
M  V30 55627 C 5024.86 -2.52356 -3.6446 0
M  V30 55628 H 5022.08 -0.498136 -0.449557 0
M  V30 55629 H 5024.62 -1.87044 -0.826736 0
M  V30 55630 H 5022.78 -2.02031 -3.30548 0
M  V30 55631 H 5023.19 -4.22514 -3.10776 0
M  V30 55632 H 5024.66 -3.21456 -4.48743 0
M  V30 55633 H 5025.14 -1.56203 -4.10484 0
M  V30 55634 H 5025.75 -2.90403 -3.10719 0
M  V30 55635 N 5024.06 0.909449 -1.28712 0
M  V30 55636 C 5025.31 1.66147 -1.16289 0
M  V30 55637 C 5025.64 1.92068 0.287002 0
M  V30 55638 O 5024.92 1.52413 1.20832 0
M  V30 55639 C 5025.2 3.01669 -1.96641 0
M  V30 55640 C 5025.05 2.82875 -3.49716 0
M  V30 55641 C 5026.37 4.02267 -1.78519 0
M  V30 55642 H 5023.49 0.602951 -0.423815 0
M  V30 55643 H 5026.13 1.05413 -1.58077 0
M  V30 55644 H 5024.28 3.5351 -1.61131 0
M  V30 55645 H 5025.95 2.38012 -3.95156 0
M  V30 55646 H 5024.2 2.17849 -3.75132 0
M  V30 55647 H 5024.87 3.79133 -4.01201 0
M  V30 55648 H 5027.34 3.59503 -2.09515 0
M  V30 55649 H 5026.22 4.95048 -2.37105 0
M  V30 55650 H 5026.48 4.359 -0.737801 0
M  V30 55651 N 5025.54 1.1103 1.11848 0
M  V30 55652 C 5026.47 0.78689 2.19842 0
M  V30 55653 C 5027.45 -0.242876 1.68357 0
M  V30 55654 O 5028.64 -0.107287 1.93903 0
M  V30 55655 C 5025.77 0.224638 3.46573 0
M  V30 55656 C 5024.72 1.18579 4.11246 0
M  V30 55657 C 5024.05 0.484448 5.32501 0
M  V30 55658 C 5025.35 2.53481 4.56667 0
M  V30 55659 H 5027.04 1.68986 2.47152 0
M  V30 55660 H 5024.59 0.813948 1.18789 0
M  V30 55661 H 5026.54 -0.0137953 4.21398 0
M  V30 55662 H 5025.26 -0.71361 3.18709 0
M  V30 55663 H 5023.92 1.40978 3.38409 0
M  V30 55664 H 5023.57 -0.458469 5.00906 0
M  V30 55665 H 5023.27 1.12546 5.76721 0
M  V30 55666 H 5024.79 0.254707 6.10069 0
M  V30 55667 H 5026.21 2.35195 5.22835 0
M  V30 55668 H 5024.6 3.13525 5.11686 0
M  V30 55669 H 5025.67 3.13021 3.70332 0
M  V30 55670 N 5027.02 -1.29376 0.899973 0
M  V30 55671 C 5027.93 -2.3146 0.382519 0
M  V30 55672 C 5028.94 -1.65958 -0.522871 0
M  V30 55673 O 5030.12 -1.97133 -0.412384 0
M  V30 55674 C 5027.19 -3.44596 -0.38135 0
M  V30 55675 C 5026.25 -4.2569 0.555594 0
M  V30 55676 C 5025.48 -5.33423 -0.171914 0
M  V30 55677 O 5025.7 -5.53058 -1.39581 0
M  V30 55678 O 5024.64 -5.99937 0.485702 0
M  V30 55679 H 5028.46 -2.77702 1.22944 0
M  V30 55680 H 5026.05 -1.33818 0.664306 0
M  V30 55681 H 5027.93 -4.13477 -0.813296 0
M  V30 55682 H 5026.6 -3.00462 -1.20433 0
M  V30 55683 H 5025.51 -3.5945 1.03666 0
M  V30 55684 H 5026.84 -4.73467 1.345 0
M  V30 55685 N 5028.5 -0.662483 -1.43 0
M  V30 55686 C 5029.74 -0.179307 -2.01303 0
M  V30 55687 C 5030.07 1.21422 -1.52583 0
M  V30 55688 O 5029.34 1.81291 -0.742316 0
M  V30 55689 H 5027.92 -0.0632987 -0.744313 0
M  V30 55690 H 5030.58 -0.85623 -1.75085 0
M  V30 55691 H 5029.67 -0.171067 -3.11631 0
M  V30 55692 N 5029.97 1.52307 -0.404999 0
M  V30 55693 C 5031.25 1.94237 0.230476 0
M  V30 55694 C 5031.63 1.3416 1.62986 0
M  V30 55695 O 5030.98 0.515791 2.22602 0
M  V30 55696 C 5031.19 3.48167 0.240984 0
M  V30 55697 C 5032.54 4.22075 0.46234 0
M  V30 55698 O 5033.56 3.54755 0.320519 0
M  V30 55699 O 5032.42 5.41446 0.741518 0
M  V30 55700 H 5029.51 0.813771 0.147329 0
M  V30 55701 H 5032.06 1.63328 -0.460644 0
M  V30 55702 H 5030.83 3.84266 -0.738602 0
M  V30 55703 H 5030.46 3.85425 0.976375 0
M  V30 55704 N 5031.45 0.135293 1.57018 0
M  V30 55705 C 5032.4 -0.826022 2.17439 0
M  V30 55706 C 5033.39 -1.26374 1.1281 0
M  V30 55707 O 5034.6 -1.23358 1.31083 0
M  V30 55708 H 5030.98 -0.284544 0.696088 0
M  V30 55709 H 5032.95 -0.292108 2.96967 0
M  V30 55710 C 5031.7 -2.05981 2.8012 0
M  V30 55711 H 5031.02 -1.73196 3.60337 0
M  V30 55712 H 5032.46 -2.71213 3.25913 0
M  V30 55713 C 5030.92 -2.86021 1.78027 0
M  V30 55714 O 5031.45 -3.81966 1.24357 0
M  V30 55715 N 5029.65 -2.50327 1.47596 0
M  V30 55716 H 5029.2 -1.7237 1.91432 0
M  V30 55717 H 5029.16 -3.04174 0.795335 0
M  V30 55718 N 5032.93 -1.5699 -0.138497 0
M  V30 55719 C 5033.86 -1.94068 -1.20053 0
M  V30 55720 C 5034.84 -0.807651 -1.41123 0
M  V30 55721 O 5036.03 -1.06405 -1.55597 0
M  V30 55722 C 5033.15 -2.22008 -2.55794 0
M  V30 55723 C 5032.2 -3.44626 -2.51268 0
M  V30 55724 S 5033.03 -4.97895 -1.97131 0
M  V30 55725 C 5034.19 -5.28966 -3.34584 0
M  V30 55726 H 5034.42 -2.83846 -0.884238 0
M  V30 55727 H 5031.95 -1.50508 -0.344464 0
M  V30 55728 H 5033.91 -2.38784 -3.33905 0
M  V30 55729 H 5032.57 -1.32879 -2.84609 0
M  V30 55730 H 5031.77 -3.61479 -3.51211 0
M  V30 55731 H 5031.37 -3.27136 -1.81269 0
M  V30 55732 H 5033.66 -5.22954 -4.30727 0
M  V30 55733 H 5034.6 -6.30357 -3.22576 0
M  V30 55734 H 5035.01 -4.56467 -3.32112 0
M  V30 55735 N 5034.41 0.408106 -1.52224 0
M  V30 55736 C 5035.32 1.52196 -1.78532 0
M  V30 55737 C 5036.33 1.60544 -0.670948 0
M  V30 55738 O 5037.51 1.77239 -0.956467 0
M  V30 55739 C 5034.58 2.87921 -1.93138 0
M  V30 55740 C 5033.64 2.89451 -3.17043 0
M  V30 55741 C 5032.87 4.18703 -3.30943 0
M  V30 55742 O 5033.09 5.12653 -2.50085 0
M  V30 55743 O 5032.03 4.27111 -4.24099 0
M  V30 55744 H 5035.85 1.32901 -2.73077 0
M  V30 55745 H 5033.44 0.594064 -1.37081 0
M  V30 55746 H 5035.32 3.68419 -2.04562 0
M  V30 55747 H 5033.99 3.07282 -1.01782 0
M  V30 55748 H 5032.9 2.07804 -3.11076 0
M  V30 55749 H 5034.23 2.7504 -4.08183 0
M  V30 55750 N 5035.89 1.42864 0.665399 0
M  V30 55751 C 5037.11 1.47251 1.45344 0
M  V30 55752 C 5037.53 0.0866607 1.88601 0
M  V30 55753 O 5036.89 -0.900596 1.58731 0
M  V30 55754 C 5036.94 2.40781 2.69641 0
M  V30 55755 O 5036.66 3.73976 2.28197 0
M  V30 55756 C 5038.16 2.54285 3.63117 0
M  V30 55757 H 5035.38 0.500513 0.446909 0
M  V30 55758 H 5037.92 1.87479 0.816805 0
M  V30 55759 H 5036.08 2.03781 3.29472 0
M  V30 55760 H 5036.49 4.24156 3.08531 0
M  V30 55761 H 5037.97 3.23831 4.47032 0
M  V30 55762 H 5038.44 1.58378 4.0965 0
M  V30 55763 H 5039.05 2.92046 3.09175 0
M  V30 55764 N 5037.36 -0.902611 1.29192 0
M  V30 55765 C 5038.78 -1.46805 1.15348 0
M  V30 55766 C 5039.13 -1.94569 -0.252449 0
M  V30 55767 O 5038.25 -1.83458 -1.1477 0
M  V30 55768 C 5038.85 -2.66822 2.08786 0
M  V30 55769 C 5037.41 -3.19511 1.98972 0
M  V30 55770 C 5036.55 -1.92205 1.99881 0
M  V30 55771 H 5039.5 -0.714232 1.4172 0
M  V30 55772 H 5039.52 -3.42459 1.65838 0
M  V30 55773 H 5039.04 -2.32028 3.11102 0
M  V30 55774 H 5037.14 -3.59004 0.997336 0
M  V30 55775 H 5037.25 -3.84005 2.8649 0
M  V30 55776 H 5035.61 -2.09784 1.44439 0
M  V30 55777 H 5036.4 -1.59692 3.03897 0
M  V30 55778 N 5038.84 -1.11622 -1.11258 0
M  V30 55779 C 5040.09 -0.867527 -1.83308 0
M  V30 55780 C 5040.42 0.605301 -1.84526 0
M  V30 55781 O 5039.7 1.44699 -1.29971 0
M  V30 55782 C 5039.98 -1.43219 -3.30394 0
M  V30 55783 C 5039.83 -2.97277 -3.3756 0
M  V30 55784 C 5041.15 -1.08469 -4.26524 0
M  V30 55785 H 5038.27 -0.316602 -0.665532 0
M  V30 55786 H 5040.91 -1.38141 -1.30449 0
M  V30 55787 H 5039.06 -0.995114 -3.75539 0
M  V30 55788 H 5040.73 -3.49602 -3.00959 0
M  V30 55789 H 5038.98 -3.33246 -2.77721 0
M  V30 55790 H 5039.65 -3.31875 -4.41093 0
M  V30 55791 H 5042.12 -1.46203 -3.89569 0
M  V30 55792 H 5041 -1.50652 -5.27821 0
M  V30 55793 H 5041.26 0.00429026 -4.421 0
M  V30 55794 N 5040.32 1.28897 -0.906821 0
M  V30 55795 C 5041.55 1.99399 -0.552039 0
M  V30 55796 C 5041.96 1.67819 0.864989 0
M  V30 55797 O 5041.32 0.927133 1.57196 0
M  V30 55798 C 5041.37 3.53776 -0.743276 0
M  V30 55799 O 5041.09 3.84241 -2.10454 0
M  V30 55800 C 5042.59 4.41542 -0.394396 0
M  V30 55801 H 5039.81 0.636919 -0.211129 0
M  V30 55802 H 5042.36 1.64262 -1.21812 0
M  V30 55803 H 5040.51 3.87201 -0.124279 0
M  V30 55804 H 5040.93 4.78897 -2.13911 0
M  V30 55805 H 5042.4 5.48955 -0.579007 0
M  V30 55806 H 5042.88 4.34075 0.668984 0
M  V30 55807 H 5043.48 4.13602 -0.990637 0
M  V30 55808 N 5041.8 0.670057 1.42646 0
M  V30 55809 C 5042.73 0.0026671 2.335 0
M  V30 55810 C 5043.71 -0.794311 1.50415 0
M  V30 55811 O 5044.9 -0.752417 1.79032 0
M  V30 55812 C 5042.03 -0.952631 3.33979 0
M  V30 55813 C 5040.98 -0.264582 4.27181 0
M  V30 55814 C 5040.31 -1.33249 5.17831 0
M  V30 55815 C 5041.61 0.85347 5.1528 0
M  V30 55816 H 5043.3 0.761427 2.89556 0
M  V30 55817 H 5040.85 0.36761 1.39229 0
M  V30 55818 H 5042.8 -1.42856 3.96447 0
M  V30 55819 H 5041.52 -1.74275 2.76217 0
M  V30 55820 H 5040.18 0.191067 3.66102 0
M  V30 55821 H 5039.83 -2.11448 4.56397 0
M  V30 55822 H 5039.53 -0.877272 5.81014 0
M  V30 55823 H 5041.05 -1.80945 5.83173 0
M  V30 55824 H 5042.47 0.458964 5.7146 0
M  V30 55825 H 5040.86 1.23419 5.87271 0
M  V30 55826 H 5041.93 1.70428 4.53963 0
M  V30 55827 N 5043.28 -1.5209 0.413071 0
M  V30 55828 C 5044.53 -2.01042 -0.162799 0
M  V30 55829 C 5044.84 -1.30293 -1.45887 0
M  V30 55830 O 5046.05 -1.70082 -2.11623 0
M  V30 55831 C 5044.5 -3.58284 -0.34068 0
M  V30 55832 C 5044.11 -4.37951 0.943531 0
M  V30 55833 C 5045.85 -4.15455 -0.871628 0
M  V30 55834 C 5043.76 -5.86845 0.732623 0
M  V30 55835 H 5042.69 -0.751226 -0.0646149 0
M  V30 55836 H 5045.34 -1.75402 0.539121 0
M  V30 55837 H 5043.72 -3.8027 -1.10503 0
M  V30 55838 H 5044.9 -4.27723 1.71433 0
M  V30 55839 H 5043.21 -3.92117 1.40119 0
M  V30 55840 H 5045.81 -5.24379 -1.04552 0
M  V30 55841 H 5046.15 -3.73063 -1.84742 0
M  V30 55842 H 5046.69 -3.97453 -0.166238 0
M  V30 55843 H 5043.42 -6.33603 1.68009 0
M  V30 55844 H 5042.94 -5.998 0.00119092 0
M  V30 55845 H 5044.62 -6.45905 0.376332 0
M  V30 55846 N 5044.76 -0.143618 -1.56944 0
M  V30 55847 C 5045.7 0.814479 -2.17874 0
M  V30 55848 C 5046.7 1.25774 -1.13478 0
M  V30 55849 O 5047.9 1.22661 -1.31735 0
M  V30 55850 H 5044.28 0.280848 -0.697587 0
M  V30 55851 H 5046.25 0.276355 -2.97118 0
M  V30 55852 C 5045 2.04493 -2.81208 0
M  V30 55853 H 5044.32 1.71283 -3.61251 0
M  V30 55854 H 5045.76 2.69481 -3.27347 0
M  V30 55855 C 5044.22 2.85073 -1.79542 0
M  V30 55856 O 5044.75 3.81301 -1.26381 0
M  V30 55857 N 5042.96 2.49541 -1.48922 0
M  V30 55858 H 5042.5 1.71352 -1.92344 0
M  V30 55859 H 5042.46 3.03748 -0.811455 0
M  V30 55860 N 5046.23 1.57062 0.130169 0
M  V30 55861 C 5047.48 1.8426 0.839907 0
M  V30 55862 C 5047.81 0.72705 1.804 0
M  V30 55863 O 5047.06 -0.282563 1.93649 0
M  V30 55864 C 5047.36 3.17884 1.63354 0
M  V30 55865 C 5047.03 4.43478 0.814735 0
M  V30 55866 C 5045.69 4.77583 0.588898 0
M  V30 55867 C 5048.04 5.20632 0.243254 0
M  V30 55868 C 5045.37 5.86292 -0.218854 0
M  V30 55869 C 5047.72 6.3019 -0.551629 0
M  V30 55870 C 5046.39 6.62834 -0.787886 0
M  V30 55871 H 5045.66 0.674256 0.307344 0
M  V30 55872 H 5048.3 1.91224 0.102765 0
M  V30 55873 H 5046.61 3.06446 2.44127 0
M  V30 55874 H 5048.31 3.36147 2.18646 0
M  V30 55875 H 5044.9 4.16751 1.00084 0
M  V30 55876 H 5049.08 4.94645 0.404971 0
M  V30 55877 H 5044.34 6.10015 -0.41123 0
M  V30 55878 H 5048.51 6.89161 -1.0015 0
M  V30 55879 H 5046.14 7.46903 -1.41563 0
M  V30 55880 N 5047.71 -0.400028 1.52439 0
M  V30 55881 C 5048.96 -1.14451 1.68145 0
M  V30 55882 C 5049.31 -1.87964 0.410788 0
M  V30 55883 O 5048.61 -1.82123 -0.595131 0
M  V30 55884 C 5048.8 -2.15904 2.84816 0
M  V30 55885 C 5048.63 -1.52355 4.23105 0
M  V30 55886 C 5047.4 -1.29235 4.88494 0
M  V30 55887 C 5049.6 -0.979545 5.04886 0
M  V30 55888 N 5047.58 -0.616741 6.10794 0
M  V30 55889 C 5048.95 -0.431373 6.18498 0
M  V30 55890 C 5051 -0.874887 4.90153 0
M  V30 55891 C 5049.71 0.21121 7.1899 0
M  V30 55892 C 5051.73 -0.246143 5.90888 0
M  V30 55893 C 5051.1 0.29131 7.03797 0
M  V30 55894 H 5047.19 -0.405157 0.668858 0
M  V30 55895 H 5049.78 -0.435588 1.89765 0
M  V30 55896 H 5047.95 -2.84145 2.64795 0
M  V30 55897 H 5049.68 -2.82779 2.89513 0
M  V30 55898 H 5046.44 -1.56435 4.47018 0
M  V30 55899 H 5046.86 -0.295298 6.76356 0
M  V30 55900 H 5051.5 -1.27622 4.03079 0
M  V30 55901 H 5049.22 0.624583 8.05683 0
M  V30 55902 H 5052.81 -0.166561 5.81562 0
M  V30 55903 H 5051.69 0.770155 7.80409 0
M  V30 55904 N 5049.19 -1.43215 -0.657814 0
M  V30 55905 C 5050.6 -1.39673 -1.23888 0
M  V30 55906 C 5050.95 -0.0984906 -1.95953 0
M  V30 55907 O 5050.08 0.802229 -2.00981 0
M  V30 55908 C 5050.67 -2.53012 -2.25323 0
M  V30 55909 C 5049.23 -2.5275 -2.78917 0
M  V30 55910 C 5048.38 -2.30947 -1.53489 0
M  V30 55911 H 5051.33 -1.52183 -0.450119 0
M  V30 55912 H 5051.35 -2.24237 -3.07405 0
M  V30 55913 H 5050.86 -3.47486 -1.72844 0
M  V30 55914 H 5048.96 -1.62142 -3.35471 0
M  V30 55915 H 5049.08 -3.50364 -3.26775 0
M  V30 55916 H 5047.44 -1.79527 -1.80672 0
M  V30 55917 H 5048.22 -3.27499 -1.02952 0
M  V30 55918 N 5050.67 0.895746 -1.29669 0
M  V30 55919 C 5051.91 1.64904 -1.18045 0
M  V30 55920 C 5052.25 1.92361 0.266614 0
M  V30 55921 O 5051.52 1.53686 1.19209 0
M  V30 55922 C 5051.8 2.99567 -1.9983 0
M  V30 55923 C 5051.66 2.7915 -3.52697 0
M  V30 55924 C 5052.98 4.00351 -1.82775 0
M  V30 55925 H 5050.1 0.598422 -0.430186 0
M  V30 55926 H 5052.74 1.0373 -1.59186 0
M  V30 55927 H 5050.89 3.51781 -1.64871 0
M  V30 55928 H 5052.56 2.33807 -3.97658 0
M  V30 55929 H 5050.8 2.13858 -3.77422 0
M  V30 55930 H 5051.47 3.74857 -4.05199 0
M  V30 55931 H 5053.95 3.57261 -2.13317 0
M  V30 55932 H 5052.83 4.92505 -2.42343 0
M  V30 55933 H 5053.09 4.35093 -0.783992 0
M  V30 55934 N 5052.15 1.1221 1.10665 0
M  V30 55935 C 5053.42 0.787445 1.79049 0
M  V30 55936 C 5053.8 -0.723197 1.98326 0
M  V30 55937 O 5053.15 -1.65605 1.5744 0
M  V30 55938 C 5053.36 1.55979 3.12204 0
M  V30 55939 C 5054.71 1.74426 3.87118 0
M  V30 55940 O 5055.73 1.52471 3.21918 0
M  V30 55941 O 5054.59 2.1097 5.04137 0
M  V30 55942 H 5051.69 0.286164 0.775912 0
M  V30 55943 H 5054.23 1.22599 1.17335 0
M  V30 55944 H 5053 2.58703 2.93579 0
M  V30 55945 H 5052.63 1.11534 3.81636 0
M  V30 55946 N 5053.62 -1.28415 0.913644 0
M  V30 55947 C 5054.85 -1.99641 0.561969 0
M  V30 55948 C 5055.27 -1.67822 -0.849549 0
M  V30 55949 O 5054.63 -0.910558 -1.56775 0
M  V30 55950 C 5054.68 -3.52113 0.777746 0
M  V30 55951 O 5053.78 -4.12077 -0.163312 0
M  V30 55952 H 5053.12 -0.627222 0.21792 0
M  V30 55953 H 5055.65 -1.63571 1.22905 0
M  V30 55954 H 5055.66 -4.02161 0.687808 0
M  V30 55955 H 5054.34 -3.74606 1.80673 0
M  V30 55956 H 5052.92 -3.72892 -0.0246516 0
M  V30 55957 N 5055.1 -0.677613 -1.42289 0
M  V30 55958 C 5056.06 -0.010189 -2.29198 0
M  V30 55959 C 5057.06 0.726168 -1.43469 0
M  V30 55960 O 5058.25 0.563749 -1.64826 0
M  V30 55961 C 5055.39 0.996201 -3.26019 0
M  V30 55962 H 5056.58 -0.775173 -2.89709 0
M  V30 55963 H 5054.13 -0.440117 -1.49976 0
M  V30 55964 H 5054.87 1.78958 -2.70453 0
M  V30 55965 H 5054.65 0.47155 -3.89254 0
M  V30 55966 H 5056.14 1.46154 -3.91189 0
M  V30 55967 N 5056.58 1.51869 -0.421131 0
M  V30 55968 C 5057.99 1.86644 0.0457335 0
M  V30 55969 C 5058.34 1.33924 1.43384 0
M  V30 55970 O 5057.47 0.683388 2.05326 0
M  V30 55971 C 5058.06 3.38681 0.0897653 0
M  V30 55972 C 5056.62 3.73051 0.500996 0
M  V30 55973 C 5055.77 2.75484 -0.31682 0
M  V30 55974 H 5058.72 1.45325 -0.637686 0
M  V30 55975 H 5058.74 3.69639 0.902604 0
M  V30 55976 H 5058.25 3.77022 -0.920646 0
M  V30 55977 H 5056.35 3.40293 1.51761 0
M  V30 55978 H 5056.47 4.78513 0.237049 0
M  V30 55979 H 5054.83 2.53726 0.222574 0
M  V30 55980 H 5055.61 3.16666 -1.3258 0
M  V30 55981 N 5058.06 0.151939 1.56866 0
M  V30 55982 C 5059.02 -0.771785 2.15815 0
M  V30 55983 C 5060.02 -1.17177 1.10119 0
M  V30 55984 O 5061.21 -1.09189 1.35733 0
M  V30 55985 C 5058.34 -2.04796 2.72527 0
M  V30 55986 H 5059.54 -0.258916 2.9878 0
M  V30 55987 H 5057.09 -0.0975332 1.55995 0
M  V30 55988 H 5057.82 -2.60438 1.93242 0
M  V30 55989 H 5057.61 -1.77032 3.4986 0
M  V30 55990 H 5059.1 -2.70759 3.17929 0
M  V30 55991 N 5059.54 -1.57128 -0.121838 0
M  V30 55992 C 5060.76 -1.89257 -0.848318 0
M  V30 55993 C 5061.19 -0.743588 -1.72778 0
M  V30 55994 O 5060.54 0.305994 -1.78699 0
M  V30 55995 C 5060.59 -3.20119 -1.66001 0
M  V30 55996 O 5059.7 -3.05824 -2.76668 0
M  V30 55997 H 5059.04 -0.621111 -0.234771 0
M  V30 55998 H 5061.57 -2.0433 -0.105089 0
M  V30 55999 H 5061.58 -3.52768 -2.04984 0
M  V30 56000 H 5060.25 -4.0334 -1.01438 0
M  V30 56001 H 5058.83 -2.84636 -2.40908 0
M  V30 56002 N 5061.01 0.391938 -1.52649 0
M  V30 56003 C 5062.24 1.16306 -1.7172 0
M  V30 56004 C 5062.66 1.8304 -0.433343 0
M  V30 56005 O 5062.02 1.70707 0.610647 0
M  V30 56006 C 5062.07 2.18898 -2.86559 0
M  V30 56007 O 5061.17 3.25421 -2.53327 0
M  V30 56008 H 5060.52 0.338722 -0.571107 0
M  V30 56009 H 5063.05 0.457132 -1.99428 0
M  V30 56010 H 5063.06 2.62944 -3.11969 0
M  V30 56011 H 5061.73 1.69713 -3.79698 0
M  V30 56012 H 5060.31 2.86534 -2.38647 0
M  V30 56013 N 5062.49 1.43562 0.650209 0
M  V30 56014 C 5063.9 1.40329 1.23145 0
M  V30 56015 C 5064.25 0.108881 1.95898 0
M  V30 56016 O 5063.38 -0.79156 2.01403 0
M  V30 56017 C 5063.97 2.54203 2.23978 0
M  V30 56018 C 5062.53 2.54225 2.77573 0
M  V30 56019 C 5061.68 2.31757 1.52262 0
M  V30 56020 H 5064.63 1.52419 0.442042 0
M  V30 56021 H 5064.65 2.25864 3.06212 0
M  V30 56022 H 5064.16 3.48398 1.70999 0
M  V30 56023 H 5062.27 1.63919 3.34606 0
M  V30 56024 H 5062.38 3.52092 3.24912 0
M  V30 56025 H 5060.74 1.80482 1.79717 0
M  V30 56026 H 5061.53 3.28041 1.01214 0
M  V30 56027 N 5063.97 -0.888857 1.30143 0
M  V30 56028 C 5064.9 -1.99968 1.12006 0
M  V30 56029 C 5065.92 -1.62672 0.0644191 0
M  V30 56030 O 5067.1 -1.75787 0.310044 0
M  V30 56031 C 5064.2 -3.31901 0.685176 0
M  V30 56032 C 5063.38 -3.97658 1.82172 0
M  V30 56033 C 5062.44 -5.0789 1.37603 0
M  V30 56034 O 5061.46 -5.29732 2.0826 0
M  V30 56035 N 5062.66 -5.79949 0.252901 0
M  V30 56036 H 5065.43 -2.16078 2.07679 0
M  V30 56037 H 5062.99 -1.06171 1.22227 0
M  V30 56038 H 5064.98 -4.03004 0.370106 0
M  V30 56039 H 5063.55 -3.12085 -0.179397 0
M  V30 56040 H 5062.77 -3.19779 2.30511 0
M  V30 56041 H 5064.06 -4.38331 2.58347 0
M  V30 56042 H 5063.46 -5.64702 -0.335942 0
M  V30 56043 H 5062.02 -6.518 -0.00273899 0
M  V30 56044 N 5065.45 -1.12795 -1.10068 0
M  V30 56045 C 5066.38 -0.821765 -2.18562 0
M  V30 56046 C 5067.36 0.216061 -1.68722 0
M  V30 56047 O 5068.54 0.0764249 -1.9405 0
M  V30 56048 C 5065.67 -0.279746 -3.46172 0
M  V30 56049 C 5064.63 -1.25106 -4.09307 0
M  V30 56050 C 5063.95 -0.569103 -5.31663 0
M  V30 56051 C 5065.25 -2.60714 -4.52576 0
M  V30 56052 H 5066.95 -1.72897 -2.44432 0
M  V30 56053 H 5064.49 -0.832743 -1.17479 0
M  V30 56054 H 5066.45 -0.0532471 -4.21366 0
M  V30 56055 H 5065.17 0.662816 -3.19804 0
M  V30 56056 H 5063.83 -1.46344 -3.36123 0
M  V30 56057 H 5063.48 0.378722 -5.01572 0
M  V30 56058 H 5063.18 -1.21707 -5.74857 0
M  V30 56059 H 5064.7 -0.351731 -6.09586 0
M  V30 56060 H 5066.12 -2.43483 -5.19027 0
M  V30 56061 H 5064.51 -3.21625 -5.06633 0
M  V30 56062 H 5065.58 -3.18873 -3.65305 0
M  V30 56063 N 5066.93 1.27928 -0.920441 0
M  V30 56064 C 5068.15 1.99341 -0.572549 0
M  V30 56065 C 5068.58 1.6827 0.840637 0
M  V30 56066 O 5067.93 0.91886 1.5629 0
M  V30 56067 C 5067.98 3.51695 -0.796408 0
M  V30 56068 O 5067.09 4.12157 0.141457 0
M  V30 56069 H 5066.43 0.626057 -0.221243 0
M  V30 56070 H 5068.96 1.62917 -1.23771 0
M  V30 56071 H 5068.97 4.0179 -0.709125 0
M  V30 56072 H 5067.64 3.73643 -1.82657 0
M  V30 56073 H 5066.22 3.729 0.00487591 0
M  V30 56074 N 5068.4 0.685149 1.41928 0
M  V30 56075 C 5069.35 -0.00969279 2.27998 0
M  V30 56076 C 5070.34 -0.763266 1.41644 0
M  V30 56077 O 5071.53 -0.640474 1.65006 0
M  V30 56078 C 5068.66 -0.952856 3.29811 0
M  V30 56079 C 5067.75 -0.196082 4.23646 0
M  V30 56080 N 5068.14 0.804577 4.9936 0
M  V30 56081 C 5066.43 -0.433057 4.43893 0
M  V30 56082 C 5067.14 1.25666 5.67964 0
M  V30 56083 N 5066.11 0.58459 5.40448 0
M  V30 56084 H 5069.91 0.757686 2.83965 0
M  V30 56085 H 5067.43 0.515092 1.54015 0
M  V30 56086 H 5069.42 -1.46571 3.90285 0
M  V30 56087 H 5068.08 -1.71995 2.75405 0
M  V30 56088 H 5069.1 1.18447 5.04173 0
M  V30 56089 H 5065.77 -1.17884 4.00512 0
M  V30 56090 H 5067.16 2.08644 6.38684 0
M  V30 56091 N 5069.88 -1.51644 0.429179 0
M  V30 56092 C 5071.16 -1.94579 -0.199545 0
M  V30 56093 C 5071.54 -1.36736 -1.60831 0
M  V30 56094 O 5070.89 -0.55114 -2.21754 0
M  V30 56095 C 5071.1 -3.48506 -0.185563 0
M  V30 56096 C 5072.45 -4.22757 -0.395133 0
M  V30 56097 O 5073.47 -3.5522 -0.26404 0
M  V30 56098 O 5072.33 -5.42557 -0.655285 0
M  V30 56099 H 5069.42 -0.816012 -0.134364 0
M  V30 56100 H 5071.97 -1.62575 0.48657 0
M  V30 56101 H 5070.74 -3.83042 0.799642 0
M  V30 56102 H 5070.36 -3.8693 -0.914934 0
M  V30 56103 N 5071.36 -0.160256 -1.56783 0
M  V30 56104 C 5072.64 0.533289 -1.8819 0
M  V30 56105 C 5073.02 1.82068 -1.06838 0
M  V30 56106 O 5072.37 2.27946 -0.159039 0
M  V30 56107 C 5072.58 0.785915 -3.40036 0
M  V30 56108 C 5073.92 1.12083 -4.0954 0
M  V30 56109 O 5074.95 0.874827 -3.4529 0
M  V30 56110 O 5073.81 1.58439 -5.23029 0
M  V30 56111 H 5070.9 0.273562 -0.780444 0
M  V30 56112 H 5073.45 -0.197863 -1.68543 0
M  V30 56113 H 5072.22 -0.124653 -3.91101 0
M  V30 56114 H 5071.84 1.57078 -3.65257 0
M  V30 56115 N 5072.84 1.57191 0.113503 0
M  V30 56116 C 5074.07 1.89331 0.834356 0
M  V30 56117 C 5074.48 0.752079 1.73174 0
M  V30 56118 O 5073.84 -0.276849 1.80388 0
M  V30 56119 C 5073.89 3.20968 1.66318 0
M  V30 56120 O 5073.61 4.30698 0.801917 0
M  V30 56121 C 5075.11 3.66849 2.48871 0
M  V30 56122 H 5072.33 0.626777 0.239565 0
M  V30 56123 H 5074.88 2.04273 0.0962476 0
M  V30 56124 H 5073.03 3.07679 2.35399 0
M  V30 56125 H 5073.45 5.0618 1.37413 0
M  V30 56126 H 5074.92 4.61702 3.02547 0
M  V30 56127 H 5075.4 2.93776 3.26484 0
M  V30 56128 H 5076 3.82945 1.85022 0
M  V30 56129 N 5074.32 -0.383837 1.52854 0
M  V30 56130 C 5075.27 -1.46886 1.7438 0
M  V30 56131 C 5076.25 -1.49376 0.597962 0
M  V30 56132 O 5077.44 -1.54926 0.855983 0
M  V30 56133 C 5074.57 -2.8454 1.92073 0
M  V30 56134 C 5073.66 -2.86599 3.12605 0
M  V30 56135 N 5074.05 -2.58324 4.34859 0
M  V30 56136 C 5072.35 -3.17766 3.12955 0
M  V30 56137 C 5073.05 -2.67598 5.16494 0
M  V30 56138 N 5072.02 -3.01546 4.52296 0
M  V30 56139 H 5075.83 -1.23859 2.66526 0
M  V30 56140 H 5073.34 -0.591842 1.51232 0
M  V30 56141 H 5075.34 -3.62667 2.05617 0
M  V30 56142 H 5074 -3.08545 1.01144 0
M  V30 56143 H 5075.01 -2.3225 4.62904 0
M  V30 56144 H 5071.69 -3.47203 2.31854 0
M  V30 56145 H 5073.08 -2.49238 6.23963 0
M  V30 56146 N 5075.8 -1.43905 -0.642587 0
M  V30 56147 C 5077.02 -1.49763 -1.43478 0
M  V30 56148 C 5077.45 -0.119977 -1.87717 0
M  V30 56149 O 5076.8 0.888502 -1.58036 0
M  V30 56150 C 5076.85 -2.45753 -2.6389 0
M  V30 56151 O 5075.96 -1.95114 -3.63324 0
M  V30 56152 H 5075.3 -0.506153 -0.429773 0
M  V30 56153 H 5077.83 -1.88926 -0.785371 0
M  V30 56154 H 5077.84 -2.6341 -3.11575 0
M  V30 56155 H 5076.51 -3.45826 -2.31034 0
M  V30 56156 H 5075.09 -1.87169 -3.22525 0
M  V30 56157 N 5077.27 0.881943 -1.30612 0
M  V30 56158 C 5078.69 1.16572 -1.09009 0
M  V30 56159 C 5078.89 2.00962 0.147199 0
M  V30 56160 O 5077.95 2.3812 0.839953 0
M  V30 56161 C 5079.26 1.86946 -2.35525 0
M  V30 56162 C 5080.81 1.99698 -2.41018 0
M  V30 56163 C 5081.28 2.73484 -3.67384 0
M  V30 56164 N 5082.77 2.81027 -3.68209 0
M  V30 56165 C 5083.51 3.38701 -4.62676 0
M  V30 56166 N 5083 3.97401 -5.67489 0
M  V30 56167 N 5084.8 3.36546 -4.50215 0
M  V30 56168 H 5076.95 0.319324 -2.09986 0
M  V30 56169 H 5079.21 0.204025 -0.925785 0
M  V30 56170 H 5078.92 1.32382 -3.25834 0
M  V30 56171 H 5078.79 2.87308 -2.44405 0
M  V30 56172 H 5081.18 2.5343 -1.51185 0
M  V30 56173 H 5081.26 0.984135 -2.36111 0
M  V30 56174 H 5080.9 2.20422 -4.57577 0
M  V30 56175 H 5080.83 3.7515 -3.69554 0
M  V30 56176 H 5083.32 2.39354 -2.92434 0
M  V30 56177 H 5083.64 4.39484 -6.35668 0
M  V30 56178 H 5081.98 3.95812 -5.71278 0
M  V30 56179 H 5085.17 2.89917 -3.67513 0
M  V30 56180 H 5085.35 3.81197 -5.24016 0
M  V30 56181 N 5078.75 1.13378 1.09468 0
M  V30 56182 C 5080 0.889908 1.81007 0
M  V30 56183 C 5080.31 -0.585621 1.86628 0
M  V30 56184 O 5081.52 -0.946407 2.54471 0
M  V30 56185 C 5079.98 1.54252 3.25168 0
M  V30 56186 C 5079.58 3.05354 3.27815 0
M  V30 56187 C 5081.33 1.37933 4.01466 0
M  V30 56188 C 5079.23 3.63503 4.66497 0
M  V30 56189 H 5078.16 0.32928 0.6783 0
M  V30 56190 H 5080.82 1.36144 1.23033 0
M  V30 56191 H 5079.2 0.99866 3.83201 0
M  V30 56192 H 5080.37 3.66317 2.79551 0
M  V30 56193 H 5078.69 3.21185 2.65008 0
M  V30 56194 H 5081.28 1.78789 5.03923 0
M  V30 56195 H 5081.63 0.324133 4.15036 0
M  V30 56196 H 5082.16 1.89296 3.49874 0
M  V30 56197 H 5078.9 4.68827 4.58128 0
M  V30 56198 H 5078.42 3.07318 5.15088 0
M  V30 56199 H 5080.1 3.63152 5.35471 0
M  V30 56200 N 5080.23 -1.27438 0.927213 0
M  V30 56201 C 5081.14 -2.30597 0.431529 0
M  V30 56202 C 5082.16 -1.6703 -0.487551 0
M  V30 56203 O 5083.33 -1.97963 -0.370477 0
M  V30 56204 C 5080.4 -3.45328 -0.308171 0
M  V30 56205 C 5079.46 -4.24415 0.645764 0
M  V30 56206 C 5078.69 -5.33668 -0.0587287 0
M  V30 56207 O 5078.91 -5.55894 -1.27818 0
M  V30 56208 O 5077.85 -5.98772 0.612848 0
M  V30 56209 H 5081.67 -2.75032 1.28807 0
M  V30 56210 H 5079.26 -1.32379 0.692541 0
M  V30 56211 H 5081.14 -4.15109 -0.725409 0
M  V30 56212 H 5079.82 -3.02949 -1.14032 0
M  V30 56213 H 5078.72 -3.5717 1.11267 0
M  V30 56214 H 5080.06 -4.70507 1.44512 0
M  V30 56215 N 5081.71 -0.692666 -1.41562 0
M  V30 56216 C 5082.66 -0.00239863 -2.28 0
M  V30 56217 C 5083.64 0.755743 -1.42047 0
M  V30 56218 O 5084.83 0.631714 -1.65343 0
M  V30 56219 C 5081.96 0.935352 -3.30312 0
M  V30 56220 C 5081.05 0.173612 -4.23744 0
M  V30 56221 N 5081.44 -0.831048 -4.98926 0
M  V30 56222 C 5079.74 0.40951 -4.44116 0
M  V30 56223 C 5080.44 -1.28676 -5.67289 0
M  V30 56224 N 5079.41 -0.613243 -5.4013 0
M  V30 56225 H 5083.22 -0.772735 -2.8356 0
M  V30 56226 H 5080.73 -0.523252 -1.53739 0
M  V30 56227 H 5082.73 1.44499 -3.91057 0
M  V30 56228 H 5081.39 1.70532 -2.76313 0
M  V30 56229 H 5082.4 -1.21119 -5.03538 0
M  V30 56230 H 5079.08 1.15759 -4.01131 0
M  V30 56231 H 5080.47 -2.12028 -6.37569 0
M  V30 56232 N 5083.19 1.51414 -0.437215 0
M  V30 56233 C 5084.42 2.06204 0.127787 0
M  V30 56234 C 5084.82 1.30468 1.37021 0
M  V30 56235 O 5084.17 0.357579 1.80186 0
M  V30 56236 C 5084.23 3.55785 0.515507 0
M  V30 56237 C 5083.89 4.52773 -0.620096 0
M  V30 56238 C 5084.89 4.98026 -1.49219 0
M  V30 56239 C 5082.57 4.95876 -0.800793 0
M  V30 56240 C 5084.57 5.85052 -2.52967 0
M  V30 56241 C 5082.26 5.82692 -1.84155 0
M  V30 56242 C 5083.25 6.27178 -2.70438 0
M  V30 56243 O 5082.94 7.12271 -3.72727 0
M  V30 56244 H 5082.67 0.675904 0.0114182 0
M  V30 56245 H 5085.23 1.95975 -0.615055 0
M  V30 56246 H 5083.46 3.63797 1.31105 0
M  V30 56247 H 5085.15 3.93091 1.01165 0
M  V30 56248 H 5085.91 4.65421 -1.36412 0
M  V30 56249 H 5081.79 4.60791 -0.138779 0
M  V30 56250 H 5085.34 6.19697 -3.20347 0
M  V30 56251 H 5081.23 6.1471 -1.96982 0
M  V30 56252 H 5082 7.30449 -3.69306 0
M  V30 56253 N 5084.66 0.168568 1.56696 0
M  V30 56254 C 5085.63 -0.748852 2.16621 0
M  V30 56255 C 5086.63 -1.16003 1.11355 0
M  V30 56256 O 5087.82 -1.07743 1.36883 0
M  V30 56257 C 5084.95 -2.01894 2.74684 0
M  V30 56258 H 5086.14 -0.227212 2.99038 0
M  V30 56259 H 5083.69 -0.0809823 1.5609 0
M  V30 56260 H 5084.43 -2.58374 1.95994 0
M  V30 56261 H 5084.21 -1.73311 3.51718 0
M  V30 56262 H 5085.7 -2.67372 3.20783 0
M  V30 56263 N 5086.14 -1.57249 -0.105165 0
M  V30 56264 C 5087.37 -1.90146 -0.828197 0
M  V30 56265 C 5087.79 -0.761871 -1.7198 0
M  V30 56266 O 5087.15 0.287023 -1.79014 0
M  V30 56267 C 5087.2 -3.21861 -1.62596 0
M  V30 56268 O 5086.3 -3.08742 -2.73409 0
M  V30 56269 H 5085.64 -0.623566 -0.22817 0
M  V30 56270 H 5088.17 -2.0443 -0.0834107 0
M  V30 56271 H 5088.18 -3.54923 -2.01231 0
M  V30 56272 H 5086.86 -4.04393 -0.971544 0
M  V30 56273 H 5085.44 -2.87175 -2.37876 0
M  V30 56274 N 5087.62 0.375726 -1.53056 0
M  V30 56275 C 5089.04 0.716714 -1.42602 0
M  V30 56276 C 5089.24 1.93649 -0.556999 0
M  V30 56277 O 5088.29 2.52475 -0.0355348 0
M  V30 56278 C 5089.61 0.939399 -2.8565 0
M  V30 56279 C 5091.15 1.04004 -2.95215 0
M  V30 56280 C 5091.63 1.29527 -4.39303 0
M  V30 56281 N 5093.12 1.3632 -4.42686 0
M  V30 56282 C 5093.85 1.57758 -5.51271 0
M  V30 56283 N 5093.35 1.7658 -6.69919 0
M  V30 56284 N 5095.14 1.60046 -5.38834 0
M  V30 56285 H 5087.29 -0.426713 -2.0807 0
M  V30 56286 H 5089.56 -0.128791 -0.939211 0
M  V30 56287 H 5089.26 0.115065 -3.51512 0
M  V30 56288 H 5089.14 1.85036 -3.28697 0
M  V30 56289 H 5091.52 1.85493 -2.29513 0
M  V30 56290 H 5091.61 0.106696 -2.55577 0
M  V30 56291 H 5091.25 0.485433 -5.05575 0
M  V30 56292 H 5091.18 2.24168 -4.76504 0
M  V30 56293 H 5093.67 1.23429 -3.57175 0
M  V30 56294 H 5093.98 1.92483 -7.48445 0
M  V30 56295 H 5092.33 1.73779 -6.72923 0
M  V30 56296 H 5095.52 1.44902 -4.45108 0
M  V30 56297 H 5095.69 1.76413 -6.23524 0
M  V30 56298 N 5089.1 1.44244 0.634946 0
M  V30 56299 C 5090.03 1.53638 1.75834 0
M  V30 56300 C 5091.01 0.389661 1.65577 0
M  V30 56301 O 5092.19 0.609284 1.84395 0
M  V30 56302 C 5089.32 1.47655 3.14349 0
M  V30 56303 C 5088.28 2.60764 3.39391 0
M  V30 56304 C 5087.6 2.39834 4.77895 0
M  V30 56305 C 5088.9 4.02933 3.32329 0
M  V30 56306 H 5090.6 2.47668 1.68229 0
M  V30 56307 H 5088.14 1.192 0.807927 0
M  V30 56308 H 5090.1 1.52829 3.9271 0
M  V30 56309 H 5088.82 0.501398 3.22728 0
M  V30 56310 H 5087.48 2.54974 2.63408 0
M  V30 56311 H 5087.13 1.40519 4.82973 0
M  V30 56312 H 5086.83 3.15667 4.95609 0
M  V30 56313 H 5088.35 2.46819 5.58491 0
M  V30 56314 H 5089.77 4.10112 4.00601 0
M  V30 56315 H 5088.16 4.78938 3.61578 0
M  V30 56316 H 5089.23 4.26774 2.302 0
M  V30 56317 N 5090.58 -0.875004 1.31078 0
M  V30 56318 C 5091.54 -1.96329 1.18269 0
M  V30 56319 C 5092.54 -1.60415 0.111163 0
M  V30 56320 O 5093.73 -1.70439 0.360047 0
M  V30 56321 C 5090.86 -3.31033 0.814256 0
M  V30 56322 H 5092.05 -2.09117 2.14965 0
M  V30 56323 H 5089.61 -1.06267 1.14617 0
M  V30 56324 H 5090.34 -3.23945 -0.151761 0
M  V30 56325 H 5090.13 -3.58471 1.58875 0
M  V30 56326 H 5091.62 -4.10839 0.748393 0
M  V30 56327 N 5092.05 -1.13957 -1.08865 0
M  V30 56328 C 5092.96 -0.835743 -2.19209 0
M  V30 56329 C 5093.98 0.181945 -1.73046 0
M  V30 56330 O 5095.16 0.0115953 -2.01397 0
M  V30 56331 C 5092.22 -0.312447 -3.45289 0
M  V30 56332 C 5091.28 -1.3921 -4.06102 0
M  V30 56333 C 5090.52 -0.893681 -5.26164 0
M  V30 56334 O 5090.74 0.266607 -5.69777 0
M  V30 56335 O 5089.67 -1.67057 -5.78252 0
M  V30 56336 H 5093.5 -1.75778 -2.47661 0
M  V30 56337 H 5091.08 -0.917462 -1.17911 0
M  V30 56338 H 5092.97 -0.0263063 -4.21392 0
M  V30 56339 H 5091.64 0.581931 -3.18426 0
M  V30 56340 H 5090.55 -1.73164 -3.3161 0
M  V30 56341 H 5091.88 -2.26083 -4.37204 0
M  V30 56342 N 5093.53 1.26945 -0.933958 0
M  V30 56343 C 5094.47 2.24976 -0.382248 0
M  V30 56344 C 5095.44 1.53895 0.524895 0
M  V30 56345 O 5096.63 1.827 0.463984 0
M  V30 56346 C 5093.75 3.35677 0.451497 0
M  V30 56347 C 5092.8 4.24685 -0.393096 0
M  V30 56348 S 5093.63 5.03892 -1.81255 0
M  V30 56349 C 5094.79 6.18074 -0.98666 0
M  V30 56350 H 5095.02 2.71425 -1.21308 0
M  V30 56351 H 5092.56 1.35698 -0.73657 0
M  V30 56352 H 5094.51 3.99904 0.926657 0
M  V30 56353 H 5093.17 2.87854 1.25693 0
M  V30 56354 H 5092.37 5.03402 0.245356 0
M  V30 56355 H 5091.97 3.65285 -0.802665 0
M  V30 56356 H 5094.26 6.77124 -0.225559 0
M  V30 56357 H 5095.2 6.8621 -1.74706 0
M  V30 56358 H 5095.61 5.62045 -0.525909 0
M  V30 56359 N 5095.01 0.700164 1.41193 0
M  V30 56360 C 5095.92 0.0383678 2.34569 0
M  V30 56361 C 5096.94 -0.760981 1.56477 0
M  V30 56362 O 5098.11 -0.697487 1.88937 0
M  V30 56363 C 5095.18 -0.883404 3.35256 0
M  V30 56364 C 5094.24 -0.0757448 4.29233 0
M  V30 56365 C 5093.47 -0.953615 5.25111 0
M  V30 56366 O 5093.69 -2.19308 5.26555 0
M  V30 56367 O 5092.63 -0.400838 6.00564 0
M  V30 56368 H 5096.45 0.808176 2.92749 0
M  V30 56369 H 5094.04 0.460529 1.42125 0
M  V30 56370 H 5095.92 -1.41185 3.97045 0
M  V30 56371 H 5094.6 -1.63262 2.79512 0
M  V30 56372 H 5093.5 0.497405 3.70778 0
M  V30 56373 H 5094.84 0.634913 4.88088 0
M  V30 56374 N 5096.49 -1.5118 0.445239 0
M  V30 56375 C 5097.44 -2.29532 -0.376517 0
M  V30 56376 C 5098.43 -1.35714 -1.01381 0
M  V30 56377 O 5099.64 -1.53021 -0.947868 0
M  V30 56378 H 5096.01 -0.738808 -0.140241 0
M  V30 56379 H 5097.98 -2.96837 0.305062 0
M  V30 56380 C 5096.73 -3.15525 -1.46079 0
M  V30 56381 H 5096.05 -3.87609 -0.979776 0
M  V30 56382 H 5097.49 -3.73391 -2.00887 0
M  V30 56383 C 5095.95 -2.31415 -2.44844 0
M  V30 56384 O 5096.48 -1.97924 -3.49555 0
M  V30 56385 N 5094.69 -1.94486 -2.15925 0
M  V30 56386 H 5094.24 -2.21921 -1.308 0
M  V30 56387 H 5094.19 -1.38508 -2.82246 0
M  V30 56388 N 5097.97 -0.176876 -1.56604 0
M  V30 56389 C 5099.19 0.475919 -2.01866 0
M  V30 56390 C 5099.62 1.55641 -1.05629 0
M  V30 56391 O 5098.97 1.81263 -0.0367366 0
M  V30 56392 C 5099.02 1.02607 -3.45694 0
M  V30 56393 O 5098.13 2.13983 -3.52541 0
M  V30 56394 H 5097.47 0.11334 -0.654255 0
M  V30 56395 H 5100 -0.282401 -2.02642 0
M  V30 56396 H 5100.01 1.34728 -3.85113 0
M  V30 56397 H 5098.68 0.234992 -4.15236 0
M  V30 56398 H 5097.26 1.82865 -3.24984 0
M  V30 56399 N 5099.44 1.57302 0.0968247 0
M  V30 56400 C 5100.39 2.02946 1.13647 0
M  V30 56401 C 5101.39 0.930223 1.41574 0
M  V30 56402 O 5102.59 1.1154 1.41275 0
M  V30 56403 H 5098.97 0.64674 0.383708 0
M  V30 56404 H 5100.94 2.89455 0.725165 0
M  V30 56405 C 5099.69 2.46824 2.44895 0
M  V30 56406 H 5099.01 3.30987 2.24249 0
M  V30 56407 H 5100.45 2.82538 3.16146 0
M  V30 56408 C 5098.91 1.34082 3.09069 0
M  V30 56409 O 5099.44 0.668995 3.9609 0
M  V30 56410 N 5097.65 1.09224 2.69293 0
M  V30 56411 H 5097.19 1.64036 1.9862 0
M  V30 56412 H 5097.15 0.339894 3.12557 0
M  V30 56413 N 5100.92 -0.367603 1.53253 0
M  V30 56414 C 5102.17 -1.10827 1.69003 0
M  V30 56415 C 5102.49 -1.89893 0.443373 0
M  V30 56416 O 5101.76 -1.88237 -0.542554 0
M  V30 56417 H 5100.34 -0.412131 0.623022 0
M  V30 56418 H 5103 -0.414709 1.90437 0
M  V30 56419 H 5102.1 -1.79921 2.55019 0
M  V30 56420 N 5102.4 -1.44578 -0.627288 0
M  V30 56421 C 5103.63 -1.51276 -1.41881 0
M  V30 56422 C 5104.05 -0.13988 -1.87579 0
M  V30 56423 O 5103.41 0.87169 -1.58969 0
M  V30 56424 C 5103.46 -2.48538 -2.61268 0
M  V30 56425 O 5102.56 -1.98956 -3.61234 0
M  V30 56426 H 5101.9 -0.510683 -0.424381 0
M  V30 56427 H 5104.43 -1.89748 -0.765289 0
M  V30 56428 H 5104.44 -2.667 -3.08764 0
M  V30 56429 H 5103.12 -3.48257 -2.27353 0
M  V30 56430 H 5101.69 -1.90579 -3.20521 0
M  V30 56431 N 5103.88 0.86804 -1.3154 0
M  V30 56432 C 5105.11 1.65157 -1.24123 0
M  V30 56433 C 5105.52 1.88187 0.195492 0
M  V30 56434 O 5104.86 1.44158 1.13861 0
M  V30 56435 C 5104.92 3.04112 -1.91719 0
M  V30 56436 C 5104.59 3.04182 -3.4106 0
M  V30 56437 C 5105.58 2.82001 -4.36774 0
M  V30 56438 C 5103.27 3.25242 -3.82783 0
M  V30 56439 C 5105.26 2.80861 -5.72185 0
M  V30 56440 C 5102.95 3.23731 -5.18307 0
M  V30 56441 C 5103.95 3.01567 -6.12818 0
M  V30 56442 O 5103.64 2.99904 -7.45864 0
M  V30 56443 H 5103.37 0.521582 -0.430033 0
M  V30 56444 H 5105.92 1.09159 -1.73993 0
M  V30 56445 H 5104.15 3.61845 -1.36402 0
M  V30 56446 H 5105.84 3.64695 -1.78192 0
M  V30 56447 H 5106.61 2.6551 -4.05869 0
M  V30 56448 H 5102.49 3.41523 -3.0965 0
M  V30 56449 H 5106.03 2.63481 -6.45929 0
M  V30 56450 H 5101.93 3.39761 -5.48846 0
M  V30 56451 H 5102.69 3.15952 -7.5506 0
M  V30 56452 N 5105.36 1.14532 1.0826 0
M  V30 56453 C 5106.29 0.856432 2.17227 0
M  V30 56454 C 5107.27 -0.189191 1.69045 0
M  V30 56455 O 5108.45 -0.0455437 1.94147 0
M  V30 56456 C 5105.58 0.334783 3.45683 0
M  V30 56457 C 5104.54 1.31602 4.07265 0
M  V30 56458 C 5103.86 0.653614 5.3069 0
M  V30 56459 C 5105.16 2.67882 4.48371 0
M  V30 56460 H 5106.86 1.76764 2.4165 0
M  V30 56461 H 5104.4 0.851328 1.1614 0
M  V30 56462 H 5106.36 0.120276 4.21228 0
M  V30 56463 H 5105.08 -0.611854 3.20818 0
M  V30 56464 H 5103.74 1.51673 3.33753 0
M  V30 56465 H 5103.39 -0.298878 5.02111 0
M  V30 56466 H 5103.09 1.30837 5.72848 0
M  V30 56467 H 5104.61 0.448667 6.08949 0
M  V30 56468 H 5106.03 2.5171 5.15087 0
M  V30 56469 H 5104.42 3.29645 5.01452 0
M  V30 56470 H 5105.49 3.24644 3.60186 0
M  V30 56471 N 5106.84 -1.26448 0.940677 0
M  V30 56472 C 5107.78 -2.28388 0.440661 0
M  V30 56473 C 5108.78 -1.62404 -0.481802 0
M  V30 56474 O 5109.98 -1.76362 -0.36007 0
M  V30 56475 H 5106.36 -0.741712 0.123964 0
M  V30 56476 H 5108.33 -2.67962 1.31297 0
M  V30 56477 C 5107.08 -3.46577 -0.279242 0
M  V30 56478 H 5106.4 -3.97573 0.421413 0
M  V30 56479 H 5107.84 -4.19828 -0.593333 0
M  V30 56480 C 5106.3 -3.01821 -1.49686 0
M  V30 56481 O 5106.83 -3.06616 -2.59518 0
M  V30 56482 N 5105.04 -2.57168 -1.35325 0
M  V30 56483 H 5104.58 -2.53466 -0.459654 0
M  V30 56484 H 5104.54 -2.27585 -2.16915 0
M  V30 56485 N 5108.31 -0.707642 -1.4082 0
M  V30 56486 C 5109.59 -0.171241 -1.94849 0
M  V30 56487 C 5109.97 1.32137 -1.6463 0
M  V30 56488 O 5109.32 2.07368 -0.95972 0
M  V30 56489 C 5109.53 -0.475455 -3.45746 0
M  V30 56490 C 5110.88 -0.409773 -4.22618 0
M  V30 56491 O 5111.9 -0.411058 -3.5382 0
M  V30 56492 O 5110.76 -0.380376 -5.45175 0
M  V30 56493 H 5107.85 -0.022044 -0.826706 0
M  V30 56494 H 5110.4 -0.78463 -1.50471 0
M  V30 56495 H 5109.17 -1.50813 -3.61069 0
M  V30 56496 H 5108.79 0.168299 -3.97244 0
M  V30 56497 N 5109.79 1.50942 -0.45325 0
M  V30 56498 C 5111.02 2.07117 0.10839 0
M  V30 56499 C 5111.44 1.31685 1.34315 0
M  V30 56500 O 5110.8 0.359319 1.77704 0
M  V30 56501 C 5110.85 3.58449 0.393298 0
M  V30 56502 O 5109.95 3.85043 1.47701 0
M  V30 56503 H 5109.29 0.66398 -0.00512264 0
M  V30 56504 H 5111.82 1.9436 -0.639164 0
M  V30 56505 H 5111.83 4.02964 0.639081 0
M  V30 56506 H 5110.51 4.12772 -0.509091 0
M  V30 56507 H 5109.08 3.5238 1.21994 0
M  V30 56508 N 5111.27 0.185179 1.56508 0
M  V30 56509 C 5112.52 -0.456351 1.9647 0
M  V30 56510 C 5112.83 -1.63444 1.0745 0
M  V30 56511 O 5114.04 -2.34311 1.37151 0
M  V30 56512 C 5112.49 -0.863281 3.49393 0
M  V30 56513 C 5112.1 0.289972 4.47061 0
M  V30 56514 C 5113.85 -1.47245 3.98145 0
M  V30 56515 C 5111.75 -0.137363 5.9124 0
M  V30 56516 H 5110.68 -0.174265 0.733586 0
M  V30 56517 H 5113.33 0.275618 1.81418 0
M  V30 56518 H 5111.72 -1.65163 3.59913 0
M  V30 56519 H 5112.89 1.06743 4.48266 0
M  V30 56520 H 5111.2 0.809994 4.08446 0
M  V30 56521 H 5113.8 -1.80446 5.03332 0
M  V30 56522 H 5114.14 -2.37538 3.41879 0
M  V30 56523 H 5114.68 -0.748268 3.90699 0
M  V30 56524 H 5111.42 0.731136 6.5141 0
M  V30 56525 H 5110.94 -0.879891 5.93311 0
M  V30 56526 H 5112.62 -0.576544 6.44426 0
M  V30 56527 N 5112.75 -1.57351 -0.0884812 0
M  V30 56528 C 5113.97 -1.91014 -0.807983 0
M  V30 56529 C 5114.4 -0.780069 -1.71162 0
M  V30 56530 O 5113.76 0.26802 -1.79308 0
M  V30 56531 C 5113.8 -3.23568 -1.59173 0
M  V30 56532 O 5112.91 -3.11624 -2.70119 0
M  V30 56533 H 5112.25 -0.625951 -0.221543 0
M  V30 56534 H 5114.78 -2.04507 -0.0617235 0
M  V30 56535 H 5114.79 -3.57037 -1.97455 0
M  V30 56536 H 5113.46 -4.05401 -0.928599 0
M  V30 56537 H 5112.04 -2.89682 -2.34817 0
M  V30 56538 N 5114.23 0.359471 -1.53446 0
M  V30 56539 C 5115.64 0.935952 -1.61545 0
M  V30 56540 C 5115.99 1.90068 -0.4867 0
M  V30 56541 O 5115.11 2.1293 0.385972 0
M  V30 56542 C 5115.71 1.70431 -2.92812 0
M  V30 56543 C 5114.27 2.23004 -3.03226 0
M  V30 56544 C 5113.41 1.04429 -2.56885 0
M  V30 56545 H 5116.36 0.138078 -1.58098 0
M  V30 56546 H 5116.39 2.56599 -2.80957 0
M  V30 56547 H 5115.9 1.00192 -3.74944 0
M  V30 56548 H 5114 2.96467 -2.25694 0
M  V30 56549 H 5114.11 2.50467 -4.08415 0
M  V30 56550 H 5112.48 1.41306 -2.11907 0
M  V30 56551 H 5113.26 0.356785 -3.41441 0
M  V30 56552 N 5115.7 1.44909 0.619611 0
M  V30 56553 C 5116.65 1.52977 1.75217 0
M  V30 56554 C 5117.65 0.400589 1.64595 0
M  V30 56555 O 5118.85 0.576012 1.70535 0
M  V30 56556 H 5115.23 0.480261 0.578665 0
M  V30 56557 H 5117.2 2.48274 1.65537 0
M  V30 56558 C 5115.95 1.50215 3.13577 0
M  V30 56559 H 5115.27 2.36423 3.22404 0
M  V30 56560 H 5116.71 1.59919 3.92685 0
M  V30 56561 C 5115.17 0.224668 3.3615 0
M  V30 56562 O 5115.7 -0.700435 3.95546 0
M  V30 56563 N 5113.91 0.124155 2.90335 0
M  V30 56564 H 5113.45 0.877825 2.42182 0
M  V30 56565 H 5113.41 -0.729806 3.05812 0
M  V30 56566 N 5117.18 -0.861052 1.31999 0
M  V30 56567 C 5118.09 -2.0015 1.22381 0
M  V30 56568 C 5119.11 -1.73446 0.138692 0
M  V30 56569 O 5120.28 -1.9819 0.358173 0
M  V30 56570 C 5117.35 -3.33692 0.940762 0
M  V30 56571 C 5116.41 -3.7366 2.11368 0
M  V30 56572 C 5115.64 -5.0083 1.84404 0
M  V30 56573 O 5115.87 -5.64994 0.783486 0
M  V30 56574 O 5114.8 -5.37777 2.70332 0
M  V30 56575 H 5118.63 -2.11199 2.1824 0
M  V30 56576 H 5116.21 -0.990728 1.11825 0
M  V30 56577 H 5118.09 -4.13753 0.799132 0
M  V30 56578 H 5116.77 -3.23698 0.0122774 0
M  V30 56579 H 5115.68 -2.94202 2.31075 0
M  V30 56580 H 5117.01 -3.88293 3.02473 0
M  V30 56581 N 5118.66 -1.15105 -1.07651 0
M  V30 56582 C 5119.89 -0.948242 -1.84454 0
M  V30 56583 C 5120.31 0.498369 -1.81378 0
M  V30 56584 O 5119.67 1.35505 -1.2045 0
M  V30 56585 C 5119.72 -1.4633 -3.29575 0
M  V30 56586 O 5118.82 -0.660485 -4.07077 0
M  V30 56587 H 5118.16 -0.338448 -0.571269 0
M  V30 56588 H 5120.69 -1.53014 -1.35822 0
M  V30 56589 H 5120.7 -1.47482 -3.80412 0
M  V30 56590 H 5119.38 -2.51647 -3.31129 0
M  V30 56591 H 5117.95 -0.718345 -3.65916 0
M  V30 56592 N 5120.14 1.25947 -0.94737 0
M  V30 56593 C 5121.39 1.92756 -0.593955 0
M  V30 56594 C 5121.7 1.75086 0.872032 0
M  V30 56595 O 5122.91 2.36405 1.33509 0
M  V30 56596 C 5121.36 3.45392 -1.01156 0
M  V30 56597 C 5120.97 3.71786 -2.49959 0
M  V30 56598 C 5122.71 4.1817 -0.730332 0
M  V30 56599 C 5120.62 5.17891 -2.85557 0
M  V30 56600 H 5119.55 0.721668 -0.218428 0
M  V30 56601 H 5122.2 1.42926 -1.15084 0
M  V30 56602 H 5120.58 3.94142 -0.383145 0
M  V30 56603 H 5121.76 3.33717 -3.17757 0
M  V30 56604 H 5120.07 3.12253 -2.75476 0
M  V30 56605 H 5122.67 5.25781 -0.972552 0
M  V30 56606 H 5123.01 4.14965 0.333077 0
M  V30 56607 H 5123.55 3.75305 -1.31875 0
M  V30 56608 H 5120.29 5.26202 -3.90886 0
M  V30 56609 H 5119.81 5.57034 -2.22425 0
M  V30 56610 H 5121.48 5.8595 -2.74356 0
M  V30 56611 N 5121.62 0.7151 1.40442 0
M  V30 56612 C 5122.89 0.181572 1.94755 0
M  V30 56613 C 5123.27 -1.31262 1.65329 0
M  V30 56614 O 5122.62 -2.06856 0.970704 0
M  V30 56615 C 5122.83 0.493784 3.45489 0
M  V30 56616 C 5124.18 0.43218 4.22395 0
M  V30 56617 O 5125.2 0.429816 3.53597 0
M  V30 56618 O 5124.06 0.409283 5.44965 0
M  V30 56619 H 5121.16 0.0264279 0.826578 0
M  V30 56620 H 5123.7 0.792599 1.50053 0
M  V30 56621 H 5122.47 1.52726 3.60264 0
M  V30 56622 H 5122.1 -0.14723 3.97327 0
M  V30 56623 N 5123.09 -1.50699 0.461248 0
M  V30 56624 C 5124.37 -1.94959 -0.158227 0
M  V30 56625 C 5124.75 -1.40117 -1.57894 0
M  V30 56626 O 5124.1 -0.598054 -2.20535 0
M  V30 56627 C 5124.31 -3.48822 -0.111598 0
M  V30 56628 C 5125.66 -4.235 -0.305371 0
M  V30 56629 O 5126.68 -3.557 -0.188633 0
M  V30 56630 O 5125.54 -5.43825 -0.540053 0
M  V30 56631 H 5122.63 -0.818678 -0.117025 0
M  V30 56632 H 5125.18 -1.61506 0.520945 0
M  V30 56633 H 5123.95 -3.8126 0.880711 0
M  V30 56634 H 5123.58 -3.88784 -0.832654 0
M  V30 56635 N 5124.57 -0.193476 -1.56408 0
M  V30 56636 C 5125.48 0.740034 -2.22622 0
M  V30 56637 C 5126.5 1.23592 -1.22478 0
M  V30 56638 O 5127.67 1.28342 -1.5521 0
M  V30 56639 C 5124.74 1.94307 -2.87134 0
M  V30 56640 C 5123.8 1.49191 -4.02543 0
M  V30 56641 C 5123.03 2.6376 -4.63968 0
M  V30 56642 O 5123.26 3.812 -4.24314 0
M  V30 56643 O 5122.19 2.36565 -5.53462 0
M  V30 56644 H 5126.02 0.206131 -3.03 0
M  V30 56645 H 5123.6 0.0357413 -1.49357 0
M  V30 56646 H 5125.48 2.64621 -3.27954 0
M  V30 56647 H 5124.16 2.46561 -2.09737 0
M  V30 56648 H 5123.07 0.757609 -3.66348 0
M  V30 56649 H 5124.4 1.01605 -4.81599 0
M  V30 56650 N 5126.05 1.57396 0.0801353 0
M  V30 56651 C 5127 1.99554 1.10282 0
M  V30 56652 C 5127.98 0.876282 1.34945 0
M  V30 56653 O 5129.18 1.14017 1.35385 0
M  V30 56654 C 5126.31 2.43605 2.41892 0
M  V30 56655 C 5125.39 3.62248 2.20539 0
M  V30 56656 N 5125.78 4.76699 1.69092 0
M  V30 56657 C 5124.08 3.68635 2.51046 0
M  V30 56658 C 5124.78 5.58582 1.62359 0
M  V30 56659 N 5123.76 5.02186 2.08112 0
M  V30 56660 H 5127.56 2.85485 0.698235 0
M  V30 56661 H 5125.07 1.59838 0.287339 0
M  V30 56662 H 5127.07 2.72043 3.15909 0
M  V30 56663 H 5125.73 1.59057 2.83074 0
M  V30 56664 H 5126.74 4.99155 1.38075 0
M  V30 56665 H 5123.42 2.94782 2.95651 0
M  V30 56666 H 5124.81 6.60451 1.23507 0
M  V30 56667 N 5127.53 -0.351328 1.53634 0
M  V30 56668 C 5128.46 -1.43681 1.8406 0
M  V30 56669 C 5129.44 -1.55248 0.695128 0
M  V30 56670 O 5130.62 -1.69583 0.946317 0
M  V30 56671 C 5127.75 -2.80836 2.04325 0
M  V30 56672 C 5126.71 -2.84082 3.20127 0
M  V30 56673 C 5126.03 -4.24048 3.2571 0
M  V30 56674 C 5127.33 -2.50318 4.58408 0
M  V30 56675 H 5129.03 -1.18468 2.74965 0
M  V30 56676 H 5126.57 -0.568463 1.32305 0
M  V30 56677 H 5128.53 -3.56813 2.24193 0
M  V30 56678 H 5127.25 -3.07467 1.10143 0
M  V30 56679 H 5125.91 -2.10558 3.00102 0
M  V30 56680 H 5125.56 -4.47777 2.29139 0
M  V30 56681 H 5125.26 -4.27133 4.03524 0
M  V30 56682 H 5126.78 -5.01878 3.4778 0
M  V30 56683 H 5128.2 -3.16008 4.78343 0
M  V30 56684 H 5126.59 -2.64698 5.38567 0
M  V30 56685 H 5127.66 -1.45526 4.62548 0
M  V30 56686 N 5129.01 -1.45235 -0.611918 0
M  V30 56687 C 5129.94 -1.56416 -1.73368 0
M  V30 56688 C 5130.92 -0.415954 -1.64936 0
M  V30 56689 O 5132.1 -0.638543 -1.83402 0
M  V30 56690 C 5129.23 -1.52638 -3.1196 0
M  V30 56691 C 5128.19 -2.66131 -3.35199 0
M  V30 56692 C 5127.51 -2.47406 -4.74019 0
M  V30 56693 C 5128.81 -4.08169 -3.25877 0
M  V30 56694 H 5130.51 -2.50313 -1.64268 0
M  V30 56695 H 5128.05 -1.2047 -0.788861 0
M  V30 56696 H 5130.01 -1.59057 -3.90229 0
M  V30 56697 H 5128.73 -0.552678 -3.2189 0
M  V30 56698 H 5127.39 -2.59132 -2.59318 0
M  V30 56699 H 5127.04 -1.48185 -4.80677 0
M  V30 56700 H 5126.74 -3.23511 -4.90524 0
M  V30 56701 H 5128.26 -2.55673 -5.54494 0
M  V30 56702 H 5129.67 -4.16434 -3.94025 0
M  V30 56703 H 5128.07 -4.8463 -3.53913 0
M  V30 56704 H 5129.14 -4.30382 -2.23382 0
M  V30 56705 N 5130.49 0.85404 -1.32453 0
M  V30 56706 C 5131.73 1.60314 -1.22402 0
M  V30 56707 C 5132.05 1.94441 0.212595 0
M  V30 56708 O 5133.25 2.67993 0.434971 0
M  V30 56709 C 5131.71 2.89083 -2.14381 0
M  V30 56710 C 5131.32 2.62378 -3.63128 0
M  V30 56711 C 5133.06 3.67097 -2.13167 0
M  V30 56712 C 5130.97 3.87151 -4.47066 0
M  V30 56713 H 5129.9 0.60157 -0.454566 0
M  V30 56714 H 5132.55 0.942968 -1.57418 0
M  V30 56715 H 5130.93 3.5656 -1.72281 0
M  V30 56716 H 5132.11 2.03208 -4.13574 0
M  V30 56717 H 5130.42 1.97693 -3.66478 0
M  V30 56718 H 5133.02 4.59687 -2.73116 0
M  V30 56719 H 5133.36 4.00872 -1.12282 0
M  V30 56720 H 5133.89 3.06524 -2.53551 0
M  V30 56721 H 5130.63 3.58517 -5.48768 0
M  V30 56722 H 5130.15 4.45715 -4.0137 0
M  V30 56723 H 5131.83 4.54884 -4.60097 0
M  V30 56724 N 5131.96 1.15674 1.07039 0
M  V30 56725 C 5132.9 0.814171 2.14252 0
M  V30 56726 C 5133.91 -0.175236 1.61854 0
M  V30 56727 O 5135.1 0.0484612 1.78434 0
M  V30 56728 C 5132.2 0.190201 3.38366 0
M  V30 56729 C 5131.37 1.21782 4.20104 0
M  V30 56730 C 5130.43 0.615047 5.22593 0
M  V30 56731 O 5129.46 1.28186 5.54578 0
M  V30 56732 N 5130.66 -0.601752 5.77373 0
M  V30 56733 H 5133.42 1.73685 2.44241 0
M  V30 56734 H 5130.98 1.05305 1.22974 0
M  V30 56735 H 5132.98 -0.225898 4.04069 0
M  V30 56736 H 5131.55 -0.635884 3.06064 0
M  V30 56737 H 5130.77 1.81037 3.5017 0
M  V30 56738 H 5132.05 1.91156 4.71526 0
M  V30 56739 H 5131.45 -1.16181 5.53641 0
M  V30 56740 H 5130.01 -0.960163 6.44689 0
M  V30 56741 N 5133.44 -1.25443 0.954036 0
M  V30 56742 C 5134.39 -2.23625 0.444491 0
M  V30 56743 C 5135.38 -1.54006 -0.465939 0
M  V30 56744 O 5136.57 -1.74455 -0.299089 0
M  V30 56745 C 5133.7 -3.4218 -0.277055 0
M  V30 56746 C 5132.78 -4.19067 0.65141 0
M  V30 56747 N 5133.17 -4.73339 1.78279 0
M  V30 56748 C 5131.47 -4.43627 0.459494 0
M  V30 56749 C 5132.17 -5.31568 2.36242 0
M  V30 56750 N 5131.15 -5.17985 1.64902 0
M  V30 56751 H 5134.95 -2.63192 1.30795 0
M  V30 56752 H 5132.46 -1.40674 0.811451 0
M  V30 56753 H 5134.46 -4.11655 -0.659222 0
M  V30 56754 H 5133.12 -3.04138 -1.13712 0
M  V30 56755 H 5134.13 -4.70492 2.16466 0
M  V30 56756 H 5130.81 -4.15965 -0.357739 0
M  V30 56757 H 5132.2 -5.84349 3.31641 0
M  V30 56758 N 5134.92 -0.722538 -1.40061 0
M  V30 56759 C 5136.15 -0.274511 -2.04768 0
M  V30 56760 C 5136.56 1.0912 -1.54562 0
M  V30 56761 O 5135.9 1.69832 -0.700209 0
M  V30 56762 C 5135.96 -0.184217 -3.59028 0
M  V30 56763 C 5135.63 -1.48635 -4.32154 0
M  V30 56764 C 5136.62 -2.42963 -4.59636 0
M  V30 56765 C 5134.31 -1.74719 -4.70934 0
M  V30 56766 C 5136.3 -3.61619 -5.24891 0
M  V30 56767 C 5133.99 -2.93655 -5.3592 0
M  V30 56768 C 5134.99 -3.86927 -5.62829 0
M  V30 56769 O 5134.68 -5.03775 -6.26471 0
M  V30 56770 H 5134.41 -0.11987 -0.665287 0
M  V30 56771 H 5136.96 -0.983415 -1.80328 0
M  V30 56772 H 5135.19 0.580687 -3.82315 0
M  V30 56773 H 5136.88 0.230163 -4.05247 0
M  V30 56774 H 5137.65 -2.24077 -4.30133 0
M  V30 56775 H 5133.53 -1.02971 -4.49353 0
M  V30 56776 H 5137.07 -4.34437 -5.45811 0
M  V30 56777 H 5132.97 -3.12447 -5.64842 0
M  V30 56778 H 5133.73 -5.03945 -6.44967 0
M  V30 56779 N 5136.4 1.50453 -0.469234 0
M  V30 56780 C 5137.64 2.04222 0.0851663 0
M  V30 56781 C 5138 1.34362 1.37153 0
M  V30 56782 O 5139.2 1.78676 2.00819 0
M  V30 56783 C 5137.47 3.56404 0.266653 0
M  V30 56784 S 5139.03 4.31814 0.779876 0
M  V30 56785 H 5135.85 0.710801 0.0168339 0
M  V30 56786 H 5138.45 1.84867 -0.635948 0
M  V30 56787 H 5137.16 4.04804 -0.675393 0
M  V30 56788 H 5136.69 3.80109 1.01393 0
M  V30 56789 H 5138.7 4.51713 2.05352 0
M  V30 56790 N 5137.88 0.201768 1.56303 0
M  V30 56791 C 5138.81 -0.74839 2.16637 0
M  V30 56792 C 5139.82 -1.17196 1.13 0
M  V30 56793 O 5141.01 -1.10653 1.40065 0
M  V30 56794 C 5138.11 -2.02287 2.71907 0
M  V30 56795 C 5137.28 -1.75804 4.00514 0
M  V30 56796 C 5136.34 -2.87764 4.40544 0
M  V30 56797 O 5135.37 -2.57083 5.07835 0
M  V30 56798 N 5136.57 -4.16272 4.04596 0
M  V30 56799 H 5139.33 -0.2324 2.98798 0
M  V30 56800 H 5136.9 0.0200391 1.61888 0
M  V30 56801 H 5138.89 -2.76339 2.95667 0
M  V30 56802 H 5137.46 -2.44989 1.94163 0
M  V30 56803 H 5136.68 -0.85496 3.84817 0
M  V30 56804 H 5137.97 -1.55515 4.84451 0
M  V30 56805 H 5137.36 -4.44049 3.50482 0
M  V30 56806 H 5135.92 -4.86931 4.33291 0
M  V30 56807 N 5139.35 -1.57436 -0.071787 0
M  V30 56808 C 5140.58 -1.9186 -0.787678 0
M  V30 56809 C 5141 -0.798179 -1.70325 0
M  V30 56810 O 5140.36 0.248987 -1.79582 0
M  V30 56811 C 5140.41 -3.25238 -1.55733 0
M  V30 56812 O 5139.51 -3.14472 -2.66798 0
M  V30 56813 H 5138.85 -0.628265 -0.214892 0
M  V30 56814 H 5141.38 -2.04561 -0.0400293 0
M  V30 56815 H 5141.39 -3.59111 -1.93657 0
M  V30 56816 H 5140.07 -4.06363 -0.885548 0
M  V30 56817 H 5138.65 -2.92156 -2.31731 0
M  V30 56818 N 5140.83 0.343176 -1.53818 0
M  V30 56819 C 5141.76 1.42703 -1.84819 0
M  V30 56820 C 5142.74 1.54877 -0.703351 0
M  V30 56821 O 5143.93 1.69079 -0.955297 0
M  V30 56822 C 5141.06 2.79748 -2.05811 0
M  V30 56823 C 5140.01 2.82381 -3.21629 0
M  V30 56824 C 5139.34 4.22315 -3.27955 0
M  V30 56825 C 5140.64 2.47884 -4.59729 0
M  V30 56826 H 5142.33 1.17008 -2.75589 0
M  V30 56827 H 5139.88 0.561438 -1.32604 0
M  V30 56828 H 5141.83 3.55619 -2.26082 0
M  V30 56829 H 5140.55 3.06879 -1.11772 0
M  V30 56830 H 5139.21 2.08963 -3.01214 0
M  V30 56831 H 5138.86 4.46556 -2.3151 0
M  V30 56832 H 5138.56 4.24987 -4.05783 0
M  V30 56833 H 5140.09 5.00027 -3.50437 0
M  V30 56834 H 5141.5 3.13467 -4.80012 0
M  V30 56835 H 5139.9 2.61838 -5.39964 0
M  V30 56836 H 5140.97 1.43071 -4.63313 0
M  V30 56837 N 5142.31 1.45558 0.604207 0
M  V30 56838 C 5143.26 1.54826 1.73584 0
M  V30 56839 C 5144.25 0.418024 1.64161 0
M  V30 56840 O 5145.46 0.594067 1.69914 0
M  V30 56841 H 5141.83 0.486372 0.573539 0
M  V30 56842 H 5143.8 2.50016 1.62894 0
M  V30 56843 C 5142.55 1.53532 3.11966 0
M  V30 56844 H 5141.88 2.39829 3.19878 0
M  V30 56845 H 5143.32 1.64075 3.90967 0
M  V30 56846 C 5141.77 0.260309 3.35893 0
M  V30 56847 O 5142.3 -0.658442 3.96267 0
M  V30 56848 N 5140.51 0.154941 2.90187 0
M  V30 56849 H 5140.06 0.903463 2.41237 0
M  V30 56850 H 5140.02 -0.69733 3.06569 0
M  V30 56851 N 5143.79 -0.847003 1.32905 0
M  V30 56852 C 5144.72 -1.96304 1.18311 0
M  V30 56853 C 5145.73 -1.62385 0.116139 0
M  V30 56854 O 5146.92 -1.74711 0.365813 0
M  V30 56855 C 5144.02 -3.29554 0.790421 0
M  V30 56856 C 5143.19 -3.91661 1.94731 0
M  V30 56857 C 5142.25 -5.03255 1.53692 0
M  V30 56858 O 5141.28 -5.22839 2.25007 0
M  V30 56859 N 5142.48 -5.78851 0.437279 0
M  V30 56860 H 5145.25 -2.09361 2.14448 0
M  V30 56861 H 5142.81 -1.02229 1.25542 0
M  V30 56862 H 5144.8 -4.01623 0.498131 0
M  V30 56863 H 5143.37 -3.12498 -0.0800188 0
M  V30 56864 H 5142.59 -3.12283 2.40568 0
M  V30 56865 H 5143.88 -4.2989 2.72161 0
M  V30 56866 H 5143.28 -5.65485 -0.156117 0
M  V30 56867 H 5141.83 -6.51479 0.204628 0
M  V30 56868 N 5145.27 -1.1624 -1.06424 0
M  V30 56869 C 5146.54 -0.853356 -1.76003 0
M  V30 56870 C 5146.92 0.649092 -2.00873 0
M  V30 56871 O 5146.27 1.59647 -1.63478 0
M  V30 56872 C 5146.48 -1.67459 -3.062 0
M  V30 56873 C 5147.83 -1.88674 -3.80378 0
M  V30 56874 O 5148.85 -1.64314 -3.16037 0
M  V30 56875 O 5147.71 -2.29535 -4.9596 0
M  V30 56876 H 5144.81 -0.314764 -0.764756 0
M  V30 56877 H 5147.35 -1.26869 -1.12704 0
M  V30 56878 H 5146.12 -2.69421 -2.83775 0
M  V30 56879 H 5145.75 -1.25621 -3.77234 0
M  V30 56880 N 5146.74 1.24935 -0.960675 0
M  V30 56881 C 5147.97 1.97418 -0.635677 0
M  V30 56882 C 5148.39 1.7086 0.786677 0
M  V30 56883 O 5147.75 0.968117 1.53288 0
M  V30 56884 C 5147.8 3.48984 -0.907894 0
M  V30 56885 O 5146.9 4.12399 0.0102603 0
M  V30 56886 H 5146.25 0.618702 -0.241048 0
M  V30 56887 H 5148.78 1.58897 -1.28891 0
M  V30 56888 H 5148.79 3.99331 -0.836593 0
M  V30 56889 H 5147.46 3.67643 -1.94452 0
M  V30 56890 H 5146.04 3.72726 -0.113762 0
M  V30 56891 N 5148.22 0.729956 1.39676 0
M  V30 56892 C 5149.63 0.346306 1.8346 0
M  V30 56893 C 5149.98 -1.12144 1.60991 0
M  V30 56894 O 5149.11 -1.86452 1.09839 0
M  V30 56895 C 5149.7 0.621773 3.33046 0
M  V30 56896 C 5148.26 0.291675 3.75268 0
M  V30 56897 C 5147.41 0.886937 2.62733 0
M  V30 56898 H 5150.36 0.927994 1.2874 0
M  V30 56899 H 5150.38 -0.108168 3.80346 0
M  V30 56900 H 5149.89 1.69009 3.49368 0
M  V30 56901 H 5148 -0.771005 3.64536 0
M  V30 56902 H 5148.11 0.770711 4.7286 0
M  V30 56903 H 5146.47 0.313928 2.52758 0
M  V30 56904 H 5147.26 1.95981 2.81863 0
M  V30 56905 N 5149.7 -1.50202 0.477206 0
M  V30 56906 C 5150.63 -2.31518 -0.303565 0
M  V30 56907 C 5151.61 -1.387 -0.984704 0
M  V30 56908 O 5152.8 -1.67618 -0.980699 0
M  V30 56909 C 5149.93 -3.18602 -1.38238 0
M  V30 56910 C 5148.88 -4.20023 -0.822498 0
M  V30 56911 C 5148.21 -4.95885 -2.00006 0
M  V30 56912 C 5149.51 -5.22022 0.170369 0
M  V30 56913 H 5151.2 -2.97041 0.375132 0
M  V30 56914 H 5148.75 -1.42847 0.181853 0
M  V30 56915 H 5150.7 -3.74289 -1.93612 0
M  V30 56916 H 5149.42 -2.50977 -2.08993 0
M  V30 56917 H 5148.08 -3.65446 -0.290684 0
M  V30 56918 H 5147.73 -4.24727 -2.69474 0
M  V30 56919 H 5147.43 -5.64492 -1.63163 0
M  V30 56920 H 5148.95 -5.54408 -2.55859 0
M  V30 56921 H 5150.37 -5.72544 -0.294405 0
M  V30 56922 H 5148.77 -5.98385 0.453391 0
M  V30 56923 H 5149.84 -4.72392 1.09425 0
M  V30 56924 N 5151.18 -0.210054 -1.56194 0
M  V30 56925 C 5152.4 0.432993 -2.0283 0
M  V30 56926 C 5152.83 1.53366 -1.08906 0
M  V30 56927 O 5152.19 1.81144 -0.0751769 0
M  V30 56928 C 5152.23 0.952513 -3.47792 0
M  V30 56929 O 5151.34 2.06457 -3.57 0
M  V30 56930 H 5150.68 0.0994363 -0.656512 0
M  V30 56931 H 5153.21 -0.325321 -2.01997 0
M  V30 56932 H 5153.22 1.26529 -3.87885 0
M  V30 56933 H 5151.89 0.146861 -4.15641 0
M  V30 56934 H 5150.47 1.7593 -3.2879 0
M  V30 56935 N 5152.66 1.57472 0.0634368 0
M  V30 56936 C 5153.59 2.01003 1.10138 0
M  V30 56937 C 5154.6 0.917267 1.34499 0
M  V30 56938 O 5155.79 1.19506 1.32592 0
M  V30 56939 C 5152.89 2.34097 2.45055 0
M  V30 56940 C 5152.06 3.65325 2.40533 0
M  V30 56941 C 5151.12 3.85995 3.57623 0
M  V30 56942 O 5150.15 4.57482 3.38673 0
M  V30 56943 N 5151.35 3.28988 4.78275 0
M  V30 56944 H 5154.12 2.90658 0.730612 0
M  V30 56945 H 5151.68 1.59927 0.251961 0
M  V30 56946 H 5153.67 2.45091 3.22044 0
M  V30 56947 H 5152.24 1.50289 2.74102 0
M  V30 56948 H 5151.46 3.65008 1.48872 0
M  V30 56949 H 5152.75 4.51476 2.3462 0
M  V30 56950 H 5152.14 2.70979 4.96575 0
M  V30 56951 H 5150.7 3.45417 5.52748 0
M  V30 56952 N 5154.13 -0.335013 1.53998 0
M  V30 56953 C 5155.55 -0.910133 1.63014 0
M  V30 56954 C 5155.9 -1.89269 0.516876 0
M  V30 56955 O 5155.02 -2.13517 -0.352048 0
M  V30 56956 C 5155.62 -1.65751 2.95486 0
M  V30 56957 C 5154.18 -2.18152 3.06736 0
M  V30 56958 C 5153.32 -1.00329 2.58514 0
M  V30 56959 H 5156.27 -0.112909 1.58298 0
M  V30 56960 H 5156.29 -2.52097 2.85004 0
M  V30 56961 H 5155.81 -0.942138 3.76491 0
M  V30 56962 H 5153.91 -2.92839 2.30382 0
M  V30 56963 H 5154.02 -2.43938 4.12348 0
M  V30 56964 H 5152.38 -1.37917 2.14128 0
M  V30 56965 H 5153.17 -0.30242 3.41965 0
M  V30 56966 N 5155.61 -1.45876 -0.596479 0
M  V30 56967 C 5157.03 -1.30527 -0.918413 0
M  V30 56968 C 5157.23 -0.266499 -1.9973 0
M  V30 56969 O 5156.28 0.335721 -2.50258 0
M  V30 56970 C 5157.6 -2.68752 -1.34881 0
M  V30 56971 C 5159.15 -2.76735 -1.46242 0
M  V30 56972 C 5159.62 -4.1551 -1.92653 0
M  V30 56973 N 5161.11 -4.1786 -1.99869 0
M  V30 56974 C 5161.85 -5.22117 -2.37025 0
M  V30 56975 N 5161.34 -6.36713 -2.73072 0
M  V30 56976 N 5163.14 -5.09479 -2.37461 0
M  V30 56977 H 5155.29 -2.12081 0.116443 0
M  V30 56978 H 5157.55 -0.947941 -0.01057 0
M  V30 56979 H 5157.26 -3.46008 -0.630166 0
M  V30 56980 H 5157.13 -2.9795 -2.31312 0
M  V30 56981 H 5159.52 -1.99776 -2.17195 0
M  V30 56982 H 5159.6 -2.51238 -0.480966 0
M  V30 56983 H 5159.24 -4.9296 -1.22283 0
M  V30 56984 H 5159.17 -4.38407 -2.91731 0
M  V30 56985 H 5161.66 -3.35169 -1.74557 0
M  V30 56986 H 5161.98 -7.12051 -3.00337 0
M  V30 56987 H 5160.32 -6.40097 -2.70742 0
M  V30 56988 H 5163.51 -4.18994 -2.08713 0
M  V30 56989 H 5163.68 -5.90846 -2.66091 0
M  V30 56990 N 5157.09 0.839943 -1.33352 0
M  V30 56991 C 5158.32 1.63245 -1.2793 0
M  V30 56992 C 5158.74 1.87524 0.147127 0
M  V30 56993 O 5158.1 1.43857 1.1034 0
M  V30 56994 C 5158.15 2.96039 -2.05896 0
M  V30 56995 O 5157.25 3.87298 -1.41683 0
M  V30 56996 H 5156.59 0.497135 -0.440174 0
M  V30 56997 H 5159.12 1.04506 -1.75897 0
M  V30 56998 H 5159.13 3.45745 -2.16621 0
M  V30 56999 H 5157.81 2.7769 -3.09615 0
M  V30 57000 H 5156.38 3.45785 -1.39598 0
M  V30 57001 N 5158.57 1.16803 1.05806 0
M  V30 57002 C 5159.98 0.959506 1.60157 0
M  V30 57003 C 5160.33 -0.495363 1.89844 0
M  V30 57004 O 5159.46 -1.36951 1.67551 0
M  V30 57005 C 5160.05 1.73538 2.90981 0
M  V30 57006 C 5158.61 1.5717 3.42016 0
M  V30 57007 C 5157.76 1.74097 2.15837 0
M  V30 57008 H 5160.71 1.31601 0.886946 0
M  V30 57009 H 5160.73 1.2141 3.6061 0
M  V30 57010 H 5160.24 2.7942 2.69343 0
M  V30 57011 H 5158.34 0.53749 3.68703 0
M  V30 57012 H 5158.45 2.35873 4.17014 0
M  V30 57013 H 5156.82 1.16882 2.26298 0
M  V30 57014 H 5157.6 2.81378 1.96676 0
M  V30 57015 N 5160.05 -1.24424 0.967287 0
M  V30 57016 C 5161.01 -2.23635 0.502006 0
M  V30 57017 C 5162.01 -1.55714 -0.401228 0
M  V30 57018 O 5163.2 -1.73085 -0.196747 0
M  V30 57019 C 5160.33 -3.39805 -0.273057 0
M  V30 57020 H 5161.53 -2.66312 1.37906 0
M  V30 57021 H 5159.08 -1.3703 0.751831 0
M  V30 57022 H 5159.81 -3.02566 -1.16723 0
M  V30 57023 H 5159.6 -3.90302 0.375117 0
M  V30 57024 H 5161.09 -4.13445 -0.58763 0
M  V30 57025 N 5161.53 -0.737353 -1.39287 0
M  V30 57026 C 5162.46 -0.0592912 -2.29123 0
M  V30 57027 C 5163.47 0.700974 -1.46936 0
M  V30 57028 O 5164.66 0.544748 -1.69985 0
M  V30 57029 C 5161.76 0.940244 -3.25596 0
M  V30 57030 C 5160.93 0.241009 -4.36736 0
M  V30 57031 C 5159.99 1.14898 -5.13502 0
M  V30 57032 O 5159.02 0.625584 -5.65752 0
M  V30 57033 N 5160.22 2.4785 -5.24929 0
M  V30 57034 H 5162.98 -0.830748 -2.87956 0
M  V30 57035 H 5160.55 -0.586771 -1.50893 0
M  V30 57036 H 5162.54 1.55032 -3.73828 0
M  V30 57037 H 5161.11 1.61289 -2.67777 0
M  V30 57038 H 5160.33 -0.549578 -3.9035 0
M  V30 57039 H 5161.62 -0.243478 -5.08217 0
M  V30 57040 H 5161.01 2.92847 -4.84001 0
M  V30 57041 H 5159.57 3.03949 -5.76592 0
M  V30 57042 N 5163 1.49946 -0.485165 0
M  V30 57043 C 5164.25 2.0159 0.0666941 0
M  V30 57044 C 5164.57 1.37105 1.39505 0
M  V30 57045 O 5165.77 1.79985 2.03267 0
M  V30 57046 C 5164.23 3.59501 0.16935 0
M  V30 57047 C 5163.84 4.32951 -1.15141 0
M  V30 57048 C 5165.58 4.19141 0.672417 0
M  V30 57049 C 5163.49 5.82681 -1.01178 0
M  V30 57050 H 5162.42 0.753454 0.0286994 0
M  V30 57051 H 5165.07 1.7263 -0.622193 0
M  V30 57052 H 5163.45 3.85109 0.922336 0
M  V30 57053 H 5164.62 4.19057 -1.91645 0
M  V30 57054 H 5162.94 3.84985 -1.58668 0
M  V30 57055 H 5165.54 5.2877 0.794139 0
M  V30 57056 H 5165.88 3.81453 1.66732 0
M  V30 57057 H 5166.41 3.97793 -0.0235813 0
M  V30 57058 H 5163.15 6.24866 -1.98047 0
M  V30 57059 H 5162.67 5.99111 -0.287362 0
M  V30 57060 H 5164.35 6.43373 -0.684073 0
M  V30 57061 N 5164.48 0.218335 1.5608 0
M  V30 57062 C 5165.41 -0.687844 2.23139 0
M  V30 57063 C 5166.39 -1.20353 1.20205 0
M  V30 57064 O 5167.58 -1.24812 1.4878 0
M  V30 57065 C 5164.71 -1.89752 2.90881 0
M  V30 57066 C 5163.66 -1.5158 4.00259 0
M  V30 57067 C 5162.99 -2.80399 4.55281 0
M  V30 57068 C 5164.29 -0.708222 5.17476 0
M  V30 57069 H 5165.98 -0.128749 2.99123 0
M  V30 57070 H 5163.53 -0.0604848 1.43873 0
M  V30 57071 H 5165.48 -2.53687 3.36483 0
M  V30 57072 H 5164.2 -2.48153 2.12339 0
M  V30 57073 H 5162.86 -0.899933 3.55383 0
M  V30 57074 H 5162.51 -3.36938 3.73473 0
M  V30 57075 H 5162.21 -2.55594 5.29099 0
M  V30 57076 H 5163.74 -3.45282 5.03599 0
M  V30 57077 H 5165.15 -1.2512 5.5948 0
M  V30 57078 H 5163.55 -0.557383 5.97506 0
M  V30 57079 H 5164.62 0.285849 4.84057 0
M  V30 57080 N 5165.96 -1.57504 -0.0550848 0
M  V30 57081 C 5167.21 -1.8724 -0.749943 0
M  V30 57082 C 5167.52 -0.813331 -1.77888 0
M  V30 57083 O 5168.73 -0.999069 -2.5245 0
M  V30 57084 C 5167.18 -3.32192 -1.38479 0
M  V30 57085 C 5166.79 -4.46268 -0.39355 0
M  V30 57086 C 5168.54 -3.71108 -2.06104 0
M  V30 57087 C 5166.44 -5.82268 -1.03526 0
M  V30 57088 H 5165.37 -0.698534 -0.283842 0
M  V30 57089 H 5168.02 -1.835 -0.00359546 0
M  V30 57090 H 5166.41 -3.30596 -2.17997 0
M  V30 57091 H 5167.58 -4.59288 0.373027 0
M  V30 57092 H 5165.89 -4.16014 0.179166 0
M  V30 57093 H 5168.49 -4.70021 -2.54921 0
M  V30 57094 H 5168.83 -3.01761 -2.86786 0
M  V30 57095 H 5169.37 -3.74767 -1.33396 0
M  V30 57096 H 5166.11 -6.5495 -0.268414 0
M  V30 57097 H 5165.63 -5.73018 -1.7723 0
M  V30 57098 H 5167.31 -6.28153 -1.55025 0
M  V30 57099 N 5167.44 0.326842 -1.54174 0
M  V30 57100 C 5168.66 1.08918 -1.76498 0
M  V30 57101 C 5169.09 1.81038 -0.510587 0
M  V30 57102 O 5168.45 1.73143 0.537695 0
M  V30 57103 C 5168.49 2.06547 -2.95585 0
M  V30 57104 O 5167.6 3.14384 -2.66901 0
M  V30 57105 H 5166.94 0.314195 -0.584959 0
M  V30 57106 H 5169.47 0.372137 -2.01187 0
M  V30 57107 H 5169.48 2.49475 -3.22841 0
M  V30 57108 H 5168.15 1.53456 -3.86554 0
M  V30 57109 H 5166.73 2.76155 -2.50585 0
M  V30 57110 N 5168.92 1.46191 0.588735 0
M  V30 57111 C 5169.85 1.59154 1.70857 0
M  V30 57112 C 5170.83 0.442141 1.64253 0
M  V30 57113 O 5172.01 0.66764 1.82363 0
M  V30 57114 C 5169.14 1.57581 3.09492 0
M  V30 57115 C 5168.1 2.7143 3.30923 0
M  V30 57116 C 5167.42 2.54916 4.70023 0
M  V30 57117 C 5168.72 4.13302 3.19342 0
M  V30 57118 H 5170.42 2.52894 1.60265 0
M  V30 57119 H 5167.96 1.2171 0.769596 0
M  V30 57120 H 5169.91 1.65245 3.87649 0
M  V30 57121 H 5168.64 0.603818 3.2097 0
M  V30 57122 H 5167.3 2.63225 2.55163 0
M  V30 57123 H 5166.95 1.55814 4.78258 0
M  V30 57124 H 5166.65 3.31274 4.85315 0
M  V30 57125 H 5168.17 2.64462 5.50356 0
M  V30 57126 H 5169.58 4.22649 3.8735 0
M  V30 57127 H 5167.98 4.90199 3.46158 0
M  V30 57128 H 5169.05 4.33881 2.16506 0
M  V30 57129 N 5170.39 -0.832859 1.33795 0
M  V30 57130 C 5171.3 -1.97509 1.26599 0
M  V30 57131 C 5172.32 -1.73113 0.175452 0
M  V30 57132 O 5173.5 -1.97385 0.400132 0
M  V30 57133 C 5170.56 -3.31622 1.01133 0
M  V30 57134 C 5169.62 -3.69093 2.19246 0
M  V30 57135 C 5168.85 -4.96806 1.94986 0
M  V30 57136 O 5169.08 -5.63205 0.903153 0
M  V30 57137 O 5168.01 -5.31922 2.81678 0
M  V30 57138 H 5171.84 -2.06522 2.22671 0
M  V30 57139 H 5169.42 -0.966785 1.13902 0
M  V30 57140 H 5171.3 -4.11965 0.886716 0
M  V30 57141 H 5169.98 -3.23599 0.0809357 0
M  V30 57142 H 5168.89 -2.89235 2.37264 0
M  V30 57143 H 5170.22 -3.81789 3.10641 0
M  V30 57144 N 5171.87 -1.17362 -1.05185 0
M  V30 57145 C 5173.1 -0.987154 -1.82401 0
M  V30 57146 C 5173.52 0.459784 -1.82394 0
M  V30 57147 O 5172.88 1.3292 -1.23297 0
M  V30 57148 C 5172.93 -1.53288 -3.26397 0
M  V30 57149 O 5172.03 -0.746684 -4.05584 0
M  V30 57150 H 5171.37 -0.35049 -0.563962 0
M  V30 57151 H 5173.9 -1.55861 -1.32546 0
M  V30 57152 H 5173.91 -1.55518 -3.77198 0
M  V30 57153 H 5172.59 -2.58614 -3.25717 0
M  V30 57154 H 5171.16 -0.795799 -3.6431 0
M  V30 57155 N 5173.35 1.23909 -0.973872 0
M  V30 57156 C 5174.26 2.28837 -0.516816 0
M  V30 57157 C 5175.28 1.68724 0.425223 0
M  V30 57158 O 5176.45 1.99202 0.296749 0
M  V30 57159 C 5173.52 3.46234 0.179792 0
M  V30 57160 C 5172.58 4.21726 -0.802838 0
M  V30 57161 C 5171.81 5.33518 -0.139379 0
M  V30 57162 O 5172.03 5.60255 1.07098 0
M  V30 57163 O 5170.97 5.96085 -0.834656 0
M  V30 57164 H 5174.79 2.70062 -1.38926 0
M  V30 57165 H 5172.38 1.29718 -0.741196 0
M  V30 57166 H 5174.26 4.17516 0.570844 0
M  V30 57167 H 5172.94 3.06973 1.0271 0
M  V30 57168 H 5171.84 3.52794 -1.24447 0
M  V30 57169 H 5173.18 4.6482 -1.61875 0
M  V30 57170 N 5174.83 0.744729 1.38894 0
M  V30 57171 C 5175.74 0.112975 2.34328 0
M  V30 57172 C 5176.75 -0.710814 1.58819 0
M  V30 57173 O 5177.93 -0.637025 1.9106 0
M  V30 57174 C 5175 -0.776298 3.37897 0
M  V30 57175 C 5174.06 0.0608508 4.29257 0
M  V30 57176 C 5173.29 -0.786072 5.27879 0
M  V30 57177 O 5173.51 -2.02445 5.33266 0
M  V30 57178 O 5172.45 -0.20957 6.01535 0
M  V30 57179 H 5176.27 0.900903 2.9003 0
M  V30 57180 H 5173.86 0.505512 1.40588 0
M  V30 57181 H 5175.74 -1.28482 4.01336 0
M  V30 57182 H 5174.41 -1.54287 2.84565 0
M  V30 57183 H 5173.32 0.615113 3.69008 0
M  V30 57184 H 5174.65 0.789873 4.85821 0
M  V30 57185 N 5176.31 -1.49687 0.49311 0
M  V30 57186 C 5177.72 -1.58907 0.148582 0
M  V30 57187 C 5177.92 -1.49915 -1.3464 0
M  V30 57188 O 5176.98 -1.369 -2.12166 0
M  V30 57189 C 5178.29 -2.91993 0.718367 0
M  V30 57190 C 5179.84 -3.0544 0.683765 0
M  V30 57191 C 5180.31 -4.41133 1.23148 0
M  V30 57192 N 5181.81 -4.47604 1.19183 0
M  V30 57193 C 5182.54 -5.51033 1.5859 0
M  V30 57194 N 5182.04 -6.61605 2.05551 0
M  V30 57195 N 5183.83 -5.41701 1.50055 0
M  V30 57196 H 5175.98 -1.53775 1.46516 0
M  V30 57197 H 5178.24 -0.727975 0.607254 0
M  V30 57198 H 5177.95 -3.04117 1.76651 0
M  V30 57199 H 5177.82 -3.76797 0.174322 0
M  V30 57200 H 5180.21 -2.92951 -0.355523 0
M  V30 57201 H 5180.29 -2.22339 1.26487 0
M  V30 57202 H 5179.94 -4.54374 2.26951 0
M  V30 57203 H 5179.87 -5.22861 0.626385 0
M  V30 57204 H 5182.36 -3.68271 0.847654 0
M  V30 57205 H 5182.67 -7.36613 2.33711 0
M  V30 57206 H 5181.01 -6.62666 2.0952 0
M  V30 57207 H 5184.21 -4.54208 1.13191 0
M  V30 57208 H 5184.38 -6.22182 1.8109 0
M  V30 57209 N 5177.78 -0.226609 -1.55962 0
M  V30 57210 C 5179.03 0.402922 -1.98043 0
M  V30 57211 C 5179.35 1.59934 -1.11563 0
M  V30 57212 O 5178.62 1.94939 -0.193788 0
M  V30 57213 H 5177.2 0.151854 -0.731402 0
M  V30 57214 H 5179.87 -0.320681 -1.92244 0
M  V30 57215 H 5178.96 0.72583 -3.03543 0
M  V30 57216 N 5179.26 1.57531 0.0467312 0
M  V30 57217 C 5180.17 2.08772 1.07011 0
M  V30 57218 C 5181.19 1.0225 1.40787 0
M  V30 57219 O 5182.36 1.33878 1.50462 0
M  V30 57220 C 5179.43 2.5423 2.35729 0
M  V30 57221 C 5178.49 3.75159 2.08696 0
M  V30 57222 C 5177.72 4.1844 3.31276 0
M  V30 57223 O 5177.95 3.6138 4.41317 0
M  V30 57224 O 5176.88 5.11029 3.18014 0
M  V30 57225 H 5180.71 2.96337 0.664708 0
M  V30 57226 H 5178.29 1.47075 0.262554 0
M  V30 57227 H 5180.17 2.83877 3.11435 0
M  V30 57228 H 5178.85 1.69784 2.75599 0
M  V30 57229 H 5177.76 3.50558 1.30614 0
M  V30 57230 H 5179.09 4.60535 1.73692 0
M  V30 57231 N 5180.74 -0.318661 1.54345 0
M  V30 57232 C 5181.67 -1.39745 1.87066 0
M  V30 57233 C 5182.65 -1.53739 0.727902 0
M  V30 57234 O 5183.84 -1.67538 0.982075 0
M  V30 57235 C 5180.97 -2.76439 2.10236 0
M  V30 57236 C 5179.92 -2.77228 3.26081 0
M  V30 57237 C 5179.25 -4.17044 3.34632 0
M  V30 57238 C 5180.55 -2.40538 4.63615 0
M  V30 57239 H 5182.24 -1.12609 2.77416 0
M  V30 57240 H 5179.79 -0.540271 1.33481 0
M  V30 57241 H 5181.74 -3.51977 2.31711 0
M  V30 57242 H 5180.46 -3.05062 1.1664 0
M  V30 57243 H 5179.12 -2.04145 3.045 0
M  V30 57244 H 5178.77 -4.42816 2.38585 0
M  V30 57245 H 5178.47 -4.18477 4.12493 0
M  V30 57246 H 5179.99 -4.94388 3.58347 0
M  V30 57247 H 5181.41 -3.05791 4.84938 0
M  V30 57248 H 5179.81 -2.53215 5.44061 0
M  V30 57249 H 5180.88 -1.35682 4.6553 0
M  V30 57250 N 5182.22 -1.46501 -0.580974 0
M  V30 57251 C 5183.13 -1.59784 -1.71774 0
M  V30 57252 C 5184.14 -0.481282 -1.67211 0
M  V30 57253 O 5185.32 -0.745636 -1.87089 0
M  V30 57254 C 5182.39 -1.58637 -3.08278 0
M  V30 57255 C 5181.45 -2.81539 -3.2409 0
M  V30 57256 C 5180.68 -2.80437 -4.54083 0
M  V30 57257 O 5180.9 -1.89281 -5.38079 0
M  V30 57258 O 5179.84 -3.72001 -4.7318 0
M  V30 57259 H 5183.66 -2.55924 -1.63514 0
M  V30 57260 H 5181.25 -1.29314 -0.748222 0
M  V30 57261 H 5183.13 -1.607 -3.89556 0
M  V30 57262 H 5181.8 -0.656579 -3.16971 0
M  V30 57263 H 5180.71 -2.8503 -2.42299 0
M  V30 57264 H 5182.04 -3.73733 -3.20289 0
M  V30 57265 N 5183.7 0.825752 -1.34235 0
M  V30 57266 C 5185.11 1.11844 -1.13855 0
M  V30 57267 C 5185.31 2.01405 0.0618323 0
M  V30 57268 O 5184.37 2.41468 0.738202 0
M  V30 57269 C 5185.68 1.76788 -2.43242 0
M  V30 57270 C 5187.23 1.89296 -2.49271 0
M  V30 57271 C 5187.7 2.57656 -3.78652 0
M  V30 57272 N 5189.2 2.65157 -3.79797 0
M  V30 57273 C 5189.93 3.18773 -4.76625 0
M  V30 57274 N 5189.43 3.72974 -5.83834 0
M  V30 57275 N 5191.22 3.17148 -4.64084 0
M  V30 57276 H 5183.37 0.229975 -2.11151 0
M  V30 57277 H 5185.63 0.164576 -0.933605 0
M  V30 57278 H 5185.34 1.18443 -3.31156 0
M  V30 57279 H 5185.21 2.76684 -2.56371 0
M  V30 57280 H 5187.6 2.4679 -1.61798 0
M  V30 57281 H 5187.68 0.883106 -2.40073 0
M  V30 57282 H 5187.33 2.00816 -4.66514 0
M  V30 57283 H 5187.26 3.59139 -3.85132 0
M  V30 57284 H 5189.75 2.26736 -3.02323 0
M  V30 57285 H 5190.06 4.12128 -6.53736 0
M  V30 57286 H 5188.4 3.71226 -5.87551 0
M  V30 57287 H 5191.6 2.74069 -3.79478 0
M  V30 57288 H 5191.77 3.58628 -5.39713 0
M  V30 57289 N 5185.17 1.17918 1.04561 0
M  V30 57290 C 5186.42 0.965878 1.7707 0
M  V30 57291 C 5186.74 -0.505938 1.88943 0
M  V30 57292 O 5187.94 -0.837626 2.58256 0
M  V30 57293 C 5186.4 1.67905 3.18333 0
M  V30 57294 C 5186.01 3.18983 3.14569 0
M  V30 57295 C 5187.75 1.54837 3.95254 0
M  V30 57296 C 5185.66 3.82961 4.5066 0
M  V30 57297 H 5184.59 0.357753 0.663724 0
M  V30 57298 H 5187.24 1.41239 1.17148 0
M  V30 57299 H 5185.62 1.16029 3.7862 0
M  V30 57300 H 5186.79 3.77844 2.63762 0
M  V30 57301 H 5185.11 3.32136 2.51147 0
M  V30 57302 H 5187.71 2.00001 4.95887 0
M  V30 57303 H 5188.05 0.499873 4.13288 0
M  V30 57304 H 5188.58 2.03965 3.4153 0
M  V30 57305 H 5185.32 4.87836 4.37831 0
M  V30 57306 H 5184.84 3.28888 5.0159 0
M  V30 57307 H 5186.52 3.85537 5.19587 0
M  V30 57308 N 5186.65 -1.23391 0.980429 0
M  V30 57309 C 5187.58 -2.27168 0.540104 0
M  V30 57310 C 5188.56 -1.6466 -0.426729 0
M  V30 57311 O 5189.75 -1.91544 -0.320085 0
M  V30 57312 C 5186.88 -3.46939 -0.158238 0
M  V30 57313 C 5185.83 -4.218 0.72588 0
M  V30 57314 C 5185.16 -5.34598 -0.104678 0
M  V30 57315 C 5186.46 -4.81795 2.01671 0
M  V30 57316 H 5188.15 -2.64252 1.40753 0
M  V30 57317 H 5185.7 -1.27027 0.678237 0
M  V30 57318 H 5187.65 -4.18685 -0.47759 0
M  V30 57319 H 5186.38 -3.08916 -1.06011 0
M  V30 57320 H 5185.03 -3.51871 1.02869 0
M  V30 57321 H 5184.68 -4.92815 -1.00709 0
M  V30 57322 H 5184.38 -5.85605 0.483763 0
M  V30 57323 H 5185.91 -6.09165 -0.41841 0
M  V30 57324 H 5187.32 -5.45548 1.76212 0
M  V30 57325 H 5185.72 -5.43089 2.55292 0
M  V30 57326 H 5186.79 -4.02539 2.70352 0
M  V30 57327 N 5188.13 -0.752084 -1.38497 0
M  V30 57328 C 5189.09 -0.131667 -2.28821 0
M  V30 57329 C 5190.09 0.649097 -1.47117 0
M  V30 57330 O 5191.28 0.475586 -1.67582 0
M  V30 57331 C 5188.42 0.821985 -3.30842 0
M  V30 57332 H 5189.61 -0.927652 -2.85192 0
M  V30 57333 H 5187.16 -0.518997 -1.47432 0
M  V30 57334 H 5187.9 1.6437 -2.79559 0
M  V30 57335 H 5187.68 0.264552 -3.91207 0
M  V30 57336 H 5189.17 1.25212 -3.98386 0
M  V30 57337 N 5189.61 1.49423 -0.501041 0
M  V30 57338 C 5190.89 1.9531 0.106482 0
M  V30 57339 C 5191.27 1.44254 1.54124 0
M  V30 57340 O 5190.61 0.656314 2.18872 0
M  V30 57341 C 5190.82 3.48995 0.0190745 0
M  V30 57342 C 5192.17 4.24161 0.19298 0
M  V30 57343 O 5193.2 3.56075 0.0942591 0
M  V30 57344 O 5192.06 5.45066 0.395677 0
M  V30 57345 H 5189.15 0.821493 0.0952779 0
M  V30 57346 H 5191.7 1.60068 -0.563582 0
M  V30 57347 H 5190.47 3.78791 -0.981486 0
M  V30 57348 H 5190.09 3.90854 0.729282 0
M  V30 57349 N 5191.09 0.234877 1.5584 0
M  V30 57350 C 5192.02 -0.664138 2.23856 0
M  V30 57351 C 5193 -1.19071 1.21474 0
M  V30 57352 O 5194.18 -1.23227 1.50096 0
M  V30 57353 C 5191.31 -1.86656 2.92877 0
M  V30 57354 C 5190.27 -1.47327 4.01844 0
M  V30 57355 C 5189.59 -2.75555 4.58229 0
M  V30 57356 C 5190.89 -0.653297 5.18198 0
M  V30 57357 H 5192.59 -0.0970161 2.99243 0
M  V30 57358 H 5190.13 -0.0452218 1.43929 0
M  V30 57359 H 5192.09 -2.50104 3.39155 0
M  V30 57360 H 5190.81 -2.45887 2.14959 0
M  V30 57361 H 5189.47 -0.862189 3.56317 0
M  V30 57362 H 5189.12 -3.32958 3.77025 0
M  V30 57363 H 5188.82 -2.49968 5.3178 0
M  V30 57364 H 5190.34 -3.39922 5.07233 0
M  V30 57365 H 5191.76 -1.19179 5.60776 0
M  V30 57366 H 5190.15 -0.493978 5.98063 0
M  V30 57367 H 5191.22 0.337174 4.83726 0
M  V30 57368 N 5192.57 -1.57553 -0.0383763 0
M  V30 57369 C 5193.48 -2.09337 -1.05902 0
M  V30 57370 C 5194.49 -1.02995 -1.40243 0
M  V30 57371 O 5195.67 -1.34674 -1.49749 0
M  V30 57372 C 5192.73 -2.55476 -2.34377 0
M  V30 57373 C 5191.79 -3.76261 -2.06703 0
M  V30 57374 C 5191.03 -4.20191 -3.29053 0
M  V30 57375 O 5191.25 -3.63715 -4.39394 0
M  V30 57376 O 5190.18 -5.12708 -3.15299 0
M  V30 57377 H 5194.01 -2.96685 -0.648983 0
M  V30 57378 H 5191.59 -1.47212 -0.25475 0
M  V30 57379 H 5193.48 -2.85525 -3.09925 0
M  V30 57380 H 5192.15 -1.71243 -2.74695 0
M  V30 57381 H 5191.06 -3.51245 -1.28753 0
M  V30 57382 H 5192.39 -4.61449 -1.71247 0
M  V30 57383 N 5194.04 0.310471 -1.54512 0
M  V30 57384 C 5194.95 1.40534 -1.87849 0
M  V30 57385 C 5195.97 1.55952 -0.77169 0
M  V30 57386 O 5197.15 1.70797 -1.06725 0
M  V30 57387 C 5194.21 2.75055 -2.11058 0
M  V30 57388 C 5193.27 2.68703 -3.34809 0
M  V30 57389 C 5192.5 3.96809 -3.56901 0
M  V30 57390 O 5192.73 4.95711 -2.82182 0
M  V30 57391 O 5191.66 3.99275 -4.50403 0
M  V30 57392 H 5195.49 1.15266 -2.80976 0
M  V30 57393 H 5193.07 0.505683 -1.40582 0
M  V30 57394 H 5194.95 3.54663 -2.27578 0
M  V30 57395 H 5193.63 3.00187 -1.21118 0
M  V30 57396 H 5192.54 1.876 -3.23662 0
M  V30 57397 H 5193.87 2.48525 -4.24849 0
M  V30 57398 N 5195.52 1.46807 0.573196 0
M  V30 57399 C 5196.43 1.60693 1.70924 0
M  V30 57400 C 5197.45 0.490143 1.66954 0
M  V30 57401 O 5198.62 0.755548 1.86691 0
M  V30 57402 C 5195.69 1.6027 3.07432 0
M  V30 57403 C 5194.75 2.83253 3.22593 0
M  V30 57404 C 5193.98 2.82841 4.52589 0
M  V30 57405 O 5194.21 1.92132 5.37067 0
M  V30 57406 O 5193.14 3.74505 4.712 0
M  V30 57407 H 5196.97 2.56787 1.62154 0
M  V30 57408 H 5194.55 1.29709 0.741354 0
M  V30 57409 H 5196.43 1.62763 3.88698 0
M  V30 57410 H 5195.11 0.673379 3.16619 0
M  V30 57411 H 5194.01 2.8631 2.40784 0
M  V30 57412 H 5195.35 3.75426 3.18302 0
M  V30 57413 N 5197 -0.818622 1.34671 0
M  V30 57414 C 5197.95 -1.95119 1.26615 0
M  V30 57415 C 5198.94 -1.6861 0.163407 0
M  V30 57416 O 5200.15 -1.76974 0.328648 0
M  V30 57417 H 5196.52 -0.640858 0.393453 0
M  V30 57418 H 5198.49 -1.99035 2.22323 0
M  V30 57419 C 5197.24 -3.31693 1.04283 0
M  V30 57420 H 5196.57 -3.52641 1.88372 0
M  V30 57421 H 5198.01 -4.11378 1.02684 0
M  V30 57422 C 5196.46 -3.35943 -0.25374 0
M  V30 57423 O 5196.99 -3.81637 -1.25365 0
M  V30 57424 N 5195.2 -2.89166 -0.288345 0
M  V30 57425 H 5194.75 -2.52174 0.525934 0
M  V30 57426 H 5194.71 -2.92392 -1.15562 0
M  V30 57427 N 5198.48 -1.18471 -1.03934 0
M  V30 57428 C 5199.89 -0.934681 -1.29367 0
M  V30 57429 C 5200.09 0.398998 -1.9751 0
M  V30 57430 O 5199.15 1.13302 -2.25652 0
M  V30 57431 C 5200.46 -2.10118 -2.15106 0
M  V30 57432 C 5202.01 -2.13963 -2.28448 0
M  V30 57433 C 5202.49 -3.30035 -3.17554 0
M  V30 57434 N 5203.98 -3.29905 -3.25142 0
M  V30 57435 C 5204.71 -4.1636 -3.94249 0
M  V30 57436 N 5204.21 -5.12951 -4.65675 0
M  V30 57437 N 5206 -4.0427 -3.90541 0
M  V30 57438 H 5198.15 -2.04296 -0.581113 0
M  V30 57439 H 5200.41 -0.892738 -0.318939 0
M  V30 57440 H 5200.12 -3.06578 -1.72345 0
M  V30 57441 H 5199.99 -2.06294 -3.15789 0
M  V30 57442 H 5202.38 -1.18081 -2.70446 0
M  V30 57443 H 5202.46 -2.21845 -1.27352 0
M  V30 57444 H 5202.11 -4.26191 -2.76268 0
M  V30 57445 H 5202.04 -3.1939 -4.18685 0
M  V30 57446 H 5204.53 -2.59979 -2.74262 0
M  V30 57447 H 5204.84 -5.75289 -5.16006 0
M  V30 57448 H 5203.19 -5.16909 -4.64575 0
M  V30 57449 H 5206.38 -3.28095 -3.33873 0
M  V30 57450 H 5206.55 -4.71863 -4.44127 0
M  V30 57451 N 5199.96 1.22869 -0.986959 0
M  V30 57452 C 5200.9 2.26595 -0.525122 0
M  V30 57453 C 5201.9 1.6408 0.421194 0
M  V30 57454 O 5203.1 1.77577 0.294367 0
M  V30 57455 H 5199.48 0.7366 -0.151407 0
M  V30 57456 H 5201.45 2.62904 -1.41152 0
M  V30 57457 C 5200.2 3.47374 0.15042 0
M  V30 57458 H 5199.52 3.95735 -0.56868 0
M  V30 57459 H 5200.96 4.21741 0.437108 0
M  V30 57460 C 5199.42 3.07168 1.38381 0
M  V30 57461 O 5199.95 3.16036 2.4796 0
M  V30 57462 N 5198.16 2.62013 1.25687 0
M  V30 57463 H 5197.7 2.54997 0.365265 0
M  V30 57464 H 5197.66 2.35479 2.08319 0
M  V30 57465 N 5201.43 0.759419 1.38096 0
M  V30 57466 C 5202.36 0.151159 2.3301 0
M  V30 57467 C 5203.34 -0.697045 1.55162 0
M  V30 57468 O 5204.53 -0.637036 1.83454 0
M  V30 57469 C 5201.66 -0.738304 3.39362 0
M  V30 57470 C 5200.61 0.00762456 4.27999 0
M  V30 57471 C 5199.94 -1.00047 5.25257 0
M  V30 57472 C 5201.24 1.17944 5.08809 0
M  V30 57473 H 5202.93 0.944033 2.84127 0
M  V30 57474 H 5200.48 0.45541 1.36609 0
M  V30 57475 H 5202.43 -1.17354 4.04729 0
M  V30 57476 H 5201.16 -1.56356 2.86741 0
M  V30 57477 H 5199.82 0.423507 3.64146 0
M  V30 57478 H 5199.46 -1.81995 4.68921 0
M  V30 57479 H 5199.16 -0.505993 5.85417 0
M  V30 57480 H 5200.69 -1.43491 5.935 0
M  V30 57481 H 5202.1 0.821462 5.67384 0
M  V30 57482 H 5200.5 1.60517 5.78234 0
M  V30 57483 H 5201.57 1.98954 4.42205 0
M  V30 57484 N 5202.91 -1.49156 0.508959 0
M  V30 57485 C 5203.84 -2.27201 -0.302035 0
M  V30 57486 C 5204.86 -1.34073 -0.923482 0
M  V30 57487 O 5206.05 -1.59293 -0.805476 0
M  V30 57488 C 5203.15 -3.06741 -1.44094 0
M  V30 57489 C 5202.32 -4.275 -0.925327 0
M  V30 57490 C 5201.38 -4.89021 -1.9428 0
M  V30 57491 O 5200.4 -5.48856 -1.50815 0
M  V30 57492 N 5201.61 -4.79382 -3.27373 0
M  V30 57493 H 5204.37 -2.97442 0.36722 0
M  V30 57494 H 5201.93 -1.58247 0.341989 0
M  V30 57495 H 5203.92 -3.44771 -2.11932 0
M  V30 57496 H 5202.49 -2.39057 -2.01421 0
M  V30 57497 H 5201.71 -3.94135 -0.0715916 0
M  V30 57498 H 5203 -5.05716 -0.559372 0
M  V30 57499 H 5202.4 -4.31882 -3.65369 0
M  V30 57500 H 5200.96 -5.21572 -3.90903 0
M  V30 57501 N 5204.39 -0.243138 -1.55713 0
M  V30 57502 C 5205.35 0.644646 -2.19948 0
M  V30 57503 C 5206.35 1.10558 -1.16763 0
M  V30 57504 O 5207.54 1.0109 -1.41868 0
M  V30 57505 C 5204.68 1.88559 -2.84004 0
M  V30 57506 H 5205.87 0.0842785 -2.99782 0
M  V30 57507 H 5203.42 0.00641751 -1.56299 0
M  V30 57508 H 5204.16 2.48728 -2.08098 0
M  V30 57509 H 5203.94 1.56333 -3.59587 0
M  V30 57510 H 5205.43 2.51763 -3.33175 0
M  V30 57511 N 5205.87 1.57571 0.0300203 0
M  V30 57512 C 5206.78 2.09895 1.04791 0
M  V30 57513 C 5207.79 1.03737 1.39695 0
M  V30 57514 O 5208.97 1.35466 1.49033 0
M  V30 57515 C 5206.04 2.56716 2.33019 0
M  V30 57516 C 5205.1 3.77352 2.04705 0
M  V30 57517 C 5204.33 4.2193 3.2682 0
M  V30 57518 O 5204.55 3.66041 4.37459 0
M  V30 57519 O 5203.49 5.14373 3.12576 0
M  V30 57520 H 5207.31 2.97025 0.63324 0
M  V30 57521 H 5204.9 1.47345 0.24694 0
M  V30 57522 H 5206.78 2.87164 3.08406 0
M  V30 57523 H 5205.45 1.72698 2.73783 0
M  V30 57524 H 5204.36 3.51923 1.26889 0
M  V30 57525 H 5205.69 4.62351 1.68797 0
M  V30 57526 N 5207.35 -0.302273 1.54674 0
M  V30 57527 C 5208.58 -1.0551 1.77627 0
M  V30 57528 C 5208.98 -1.81472 0.535223 0
M  V30 57529 O 5208.33 -1.76637 -0.504481 0
M  V30 57530 C 5208.39 -2.08295 2.93008 0
M  V30 57531 C 5208.05 -1.51539 4.31144 0
M  V30 57532 C 5209.05 -0.946081 5.11219 0
M  V30 57533 C 5206.74 -1.5514 4.77741 0
M  V30 57534 C 5208.73 -0.420336 6.36013 0
M  V30 57535 C 5206.42 -1.02178 6.02497 0
M  V30 57536 C 5207.41 -0.457222 6.81468 0
M  V30 57537 O 5207.1 0.0643656 8.03874 0
M  V30 57538 H 5206.83 -0.318735 0.596141 0
M  V30 57539 H 5209.39 -0.347487 2.02439 0
M  V30 57540 H 5207.62 -2.82732 2.63817 0
M  V30 57541 H 5209.31 -2.69468 3.03548 0
M  V30 57542 H 5210.07 -0.91117 4.76364 0
M  V30 57543 H 5205.95 -1.98022 4.16303 0
M  V30 57544 H 5209.5 0.020975 6.97597 0
M  V30 57545 H 5205.39 -1.05384 6.36839 0
M  V30 57546 H 5206.16 -0.0490545 8.18485 0
M  V30 57547 N 5208.82 -1.47109 -0.565403 0
M  V30 57548 C 5210.1 -1.43792 -1.32602 0
M  V30 57549 C 5210.48 -0.130502 -2.10696 0
M  V30 57550 O 5209.83 0.888012 -2.10539 0
M  V30 57551 C 5210.04 -2.67841 -2.23746 0
M  V30 57552 C 5211.39 -3.14714 -2.85026 0
M  V30 57553 O 5212.41 -2.68511 -2.34051 0
M  V30 57554 O 5211.27 -3.95015 -3.77657 0
M  V30 57555 H 5208.36 -0.572644 -0.596664 0
M  V30 57556 H 5210.91 -1.59299 -0.584984 0
M  V30 57557 H 5209.68 -3.54538 -1.65585 0
M  V30 57558 H 5209.31 -2.5488 -3.05159 0
M  V30 57559 N 5210.3 0.811468 -1.35103 0
M  V30 57560 C 5211.72 1.1063 -1.15035 0
M  V30 57561 C 5211.92 2.01459 0.0404671 0
M  V30 57562 O 5210.97 2.42237 0.712549 0
M  V30 57563 C 5212.29 1.74198 -2.45103 0
M  V30 57564 C 5213.84 1.86641 -2.51265 0
M  V30 57565 C 5214.31 2.53625 -3.81364 0
M  V30 57566 N 5215.8 2.61114 -3.82588 0
M  V30 57567 C 5216.54 3.137 -4.79979 0
M  V30 57568 N 5216.03 3.66761 -5.87757 0
M  V30 57569 N 5217.83 3.12207 -4.67422 0
M  V30 57570 H 5209.98 0.207567 -2.11383 0
M  V30 57571 H 5212.24 0.154664 -0.935298 0
M  V30 57572 H 5211.95 1.14924 -3.32393 0
M  V30 57573 H 5211.82 2.73949 -2.59291 0
M  V30 57574 H 5214.21 2.4506 -1.64407 0
M  V30 57575 H 5214.29 0.857594 -2.40996 0
M  V30 57576 H 5213.93 1.95857 -4.68618 0
M  V30 57577 H 5213.86 3.55034 -3.8892 0
M  V30 57578 H 5216.35 2.23516 -3.04711 0
M  V30 57579 H 5216.67 4.05171 -6.5807 0
M  V30 57580 H 5215.01 3.64973 -5.91456 0
M  V30 57581 H 5218.2 2.70029 -3.82364 0
M  V30 57582 H 5218.37 3.52884 -5.43486 0
M  V30 57583 N 5211.78 1.19021 1.03304 0
M  V30 57584 C 5212.71 0.947795 2.13399 0
M  V30 57585 C 5213.69 -0.117323 1.69695 0
M  V30 57586 O 5214.88 0.0368415 1.94165 0
M  V30 57587 C 5212.01 0.481098 3.43952 0
M  V30 57588 C 5210.96 1.48757 4.01317 0
M  V30 57589 C 5210.29 0.87811 5.2744 0
M  V30 57590 C 5211.59 2.86657 4.36606 0
M  V30 57591 H 5213.28 1.86854 2.33936 0
M  V30 57592 H 5210.83 0.899821 1.12424 0
M  V30 57593 H 5212.78 0.298825 4.20339 0
M  V30 57594 H 5211.5 -0.475234 3.23124 0
M  V30 57595 H 5210.16 1.65692 3.27019 0
M  V30 57596 H 5209.81 -0.0856464 5.02927 0
M  V30 57597 H 5209.51 1.55016 5.66784 0
M  V30 57598 H 5211.03 0.706539 6.06498 0
M  V30 57599 H 5212.45 2.7333 5.03948 0
M  V30 57600 H 5210.85 3.50616 4.8702 0
M  V30 57601 H 5211.92 3.39629 3.46093 0
M  V30 57602 N 5213.26 -1.22344 0.993461 0
M  V30 57603 C 5214.21 -2.24293 0.544197 0
M  V30 57604 C 5215.18 -1.60604 -0.423754 0
M  V30 57605 O 5216.36 -1.87953 -0.328387 0
M  V30 57606 C 5213.5 -3.44838 -0.134457 0
M  V30 57607 C 5212.61 -4.2304 0.8753 0
M  V30 57608 C 5211.75 -5.30928 0.170106 0
M  V30 57609 C 5210.79 -6.00849 1.1682 0
M  V30 57610 N 5209.92 -7.00379 0.491268 0
M  V30 57611 H 5214.76 -2.62085 1.41829 0
M  V30 57612 H 5212.3 -1.28807 0.71043 0
M  V30 57613 H 5214.26 -4.13627 -0.544853 0
M  V30 57614 H 5212.89 -3.07807 -0.972338 0
M  V30 57615 H 5211.94 -3.53542 1.40401 0
M  V30 57616 H 5213.25 -4.71231 1.63532 0
M  V30 57617 H 5212.41 -6.05973 -0.296992 0
M  V30 57618 H 5211.15 -4.83712 -0.622415 0
M  V30 57619 H 5210.15 -5.24585 1.64592 0
M  V30 57620 H 5211.38 -6.50152 1.9616 0
M  V30 57621 H 5209.32 -6.55394 -0.281807 0
M  V30 57622 H 5209.24 -7.4658 1.18973 0
M  V30 57623 H 5210.51 -7.79486 0.046991 0
M  V30 57624 N 5214.74 -0.766732 -1.37692 0
M  V30 57625 C 5215.67 -0.107878 -2.28946 0
M  V30 57626 C 5216.68 0.669649 -1.4839 0
M  V30 57627 O 5217.87 0.508569 -1.71102 0
M  V30 57628 C 5214.97 0.870969 -3.27517 0
M  V30 57629 C 5214.14 0.148317 -4.37148 0
M  V30 57630 C 5213.2 1.0398 -5.15824 0
M  V30 57631 O 5212.23 0.505439 -5.66951 0
M  V30 57632 N 5213.43 2.3666 -5.30068 0
M  V30 57633 H 5216.2 -0.891641 -2.86129 0
M  V30 57634 H 5213.76 -0.618645 -1.49614 0
M  V30 57635 H 5215.75 1.47068 -3.77032 0
M  V30 57636 H 5214.32 1.55573 -2.71138 0
M  V30 57637 H 5213.54 -0.632253 -3.89097 0
M  V30 57638 H 5214.83 -0.351223 -5.07586 0
M  V30 57639 H 5214.22 2.82515 -4.90104 0
M  V30 57640 H 5212.78 2.9165 -5.8291 0
M  V30 57641 N 5216.21 1.48884 -0.516862 0
M  V30 57642 C 5217.15 2.27358 0.289981 0
M  V30 57643 C 5218.16 1.34561 0.916359 0
M  V30 57644 O 5219.35 1.59718 0.797017 0
M  V30 57645 C 5216.45 3.07501 1.42465 0
M  V30 57646 C 5215.62 4.27985 0.902642 0
M  V30 57647 C 5214.68 4.90045 1.91684 0
M  V30 57648 O 5213.71 5.49649 1.47902 0
M  V30 57649 N 5214.91 4.81111 3.24827 0
M  V30 57650 H 5217.67 2.97243 -0.382989 0
M  V30 57651 H 5215.23 1.58063 -0.350376 0
M  V30 57652 H 5217.23 3.4589 2.10101 0
M  V30 57653 H 5215.8 2.40122 2.00151 0
M  V30 57654 H 5215.02 3.94167 0.0506886 0
M  V30 57655 H 5216.3 5.06005 0.532545 0
M  V30 57656 H 5215.7 4.33814 3.63073 0
M  V30 57657 H 5214.26 5.23638 3.88132 0
M  V30 57658 N 5217.69 0.251393 1.55582 0
M  V30 57659 C 5218.64 -0.660274 2.1823 0
M  V30 57660 C 5219.63 -1.13592 1.13955 0
M  V30 57661 O 5220.82 -1.08494 1.3985 0
M  V30 57662 C 5217.95 -1.85488 2.88876 0
M  V30 57663 C 5217.03 -1.39752 4.00412 0
M  V30 57664 N 5217.42 -0.6547 5.01545 0
M  V30 57665 C 5215.72 -1.68244 4.13049 0
M  V30 57666 C 5216.42 -0.417317 5.80201 0
M  V30 57667 N 5215.4 -0.982844 5.34641 0
M  V30 57668 H 5219.2 -0.0846392 2.93778 0
M  V30 57669 H 5216.72 0.0539026 1.62311 0
M  V30 57670 H 5218.71 -2.51905 3.32189 0
M  V30 57671 H 5217.37 -2.43469 2.14832 0
M  V30 57672 H 5218.38 -0.304363 5.17005 0
M  V30 57673 H 5215.06 -2.27332 3.5018 0
M  V30 57674 H 5216.45 0.176 6.71669 0
M  V30 57675 N 5219.17 -1.57585 -0.0216635 0
M  V30 57676 C 5220.08 -2.10448 -1.03676 0
M  V30 57677 C 5221.1 -1.04476 -1.39143 0
M  V30 57678 O 5222.27 -1.36255 -1.48313 0
M  V30 57679 C 5219.34 -2.57948 -2.31655 0
M  V30 57680 C 5218.4 -3.78432 -2.02701 0
M  V30 57681 C 5217.63 -4.23657 -3.24577 0
M  V30 57682 O 5217.86 -3.68355 -4.35512 0
M  V30 57683 O 5216.79 -5.16024 -3.09844 0
M  V30 57684 H 5220.62 -2.97356 -0.617479 0
M  V30 57685 H 5218.2 -1.47474 -0.239122 0
M  V30 57686 H 5220.08 -2.88796 -3.06879 0
M  V30 57687 H 5218.76 -1.74147 -2.72863 0
M  V30 57688 H 5217.66 -3.52591 -1.25021 0
M  V30 57689 H 5219 -4.6324 -1.66343 0
M  V30 57690 N 5220.65 0.294066 -1.54832 0
M  V30 57691 C 5221.6 1.36469 -1.82647 0
M  V30 57692 C 5222.58 1.45636 -0.684035 0
M  V30 57693 O 5223.78 1.49671 -0.944853 0
M  V30 57694 C 5220.9 2.72857 -2.08336 0
M  V30 57695 C 5219.99 2.67886 -3.28782 0
M  V30 57696 N 5220.38 2.32531 -4.4918 0
M  V30 57697 C 5218.68 2.98979 -3.30949 0
M  V30 57698 C 5219.38 2.3703 -5.31217 0
M  V30 57699 N 5218.36 2.74663 -4.69107 0
M  V30 57700 H 5222.16 1.0811 -2.73294 0
M  V30 57701 H 5219.67 0.502663 -1.54425 0
M  V30 57702 H 5221.67 3.50062 -2.26412 0
M  V30 57703 H 5220.33 3.02123 -1.18961 0
M  V30 57704 H 5221.34 2.04866 -4.75658 0
M  V30 57705 H 5218.02 3.33095 -2.51703 0
M  V30 57706 H 5219.41 2.12435 -6.37433 0
M  V30 57707 N 5222.13 1.47406 0.557593 0
M  V30 57708 C 5223.07 1.59865 1.66469 0
M  V30 57709 C 5224.04 0.4417 1.60119 0
M  V30 57710 O 5225.23 0.661704 1.78958 0
M  V30 57711 C 5222.37 1.61853 3.04791 0
M  V30 57712 C 5221.48 2.88462 3.2158 0
M  V30 57713 C 5220.62 2.81789 4.50298 0
M  V30 57714 C 5219.66 4.03224 4.60518 0
M  V30 57715 N 5218.79 3.9479 5.80591 0
M  V30 57716 H 5223.63 2.5442 1.55159 0
M  V30 57717 H 5221.17 1.26197 0.755832 0
M  V30 57718 H 5223.13 1.6099 3.84887 0
M  V30 57719 H 5221.76 0.708107 3.14938 0
M  V30 57720 H 5220.81 2.99194 2.34919 0
M  V30 57721 H 5222.12 3.7839 3.24996 0
M  V30 57722 H 5221.28 2.79172 5.38654 0
M  V30 57723 H 5220.02 1.89543 4.4936 0
M  V30 57724 H 5219.02 4.06146 3.70575 0
M  V30 57725 H 5220.25 4.96596 4.63216 0
M  V30 57726 H 5218.19 3.05347 5.80603 0
M  V30 57727 H 5218.11 4.78396 5.85383 0
M  V30 57728 H 5219.38 3.96188 6.71308 0
M  V30 57729 N 5223.61 -0.804292 1.35532 0
M  V30 57730 C 5224.85 -1.55841 1.28678 0
M  V30 57731 C 5225.17 -1.94512 -0.137908 0
M  V30 57732 O 5224.44 -1.63779 -1.07486 0
M  V30 57733 H 5223.02 -0.577914 0.473312 0
M  V30 57734 H 5225.69 -0.959233 1.69661 0
M  V30 57735 H 5224.78 -2.47278 1.9042 0
M  V30 57736 N 5225.08 -1.19567 -1.02672 0
M  V30 57737 C 5226.01 -0.959099 -2.12893 0
M  V30 57738 C 5226.99 0.108322 -1.69755 0
M  V30 57739 O 5228.18 -0.047138 -1.94143 0
M  V30 57740 C 5225.31 -0.499332 -3.43692 0
M  V30 57741 C 5224.26 -1.50884 -4.00522 0
M  V30 57742 C 5223.59 -0.906069 -5.26967 0
M  V30 57743 C 5224.89 -2.88969 -4.3508 0
M  V30 57744 H 5226.58 -1.88092 -2.32942 0
M  V30 57745 H 5224.13 -0.90577 -1.11946 0
M  V30 57746 H 5226.08 -0.321113 -4.20175 0
M  V30 57747 H 5224.81 0.458091 -3.23371 0
M  V30 57748 H 5223.47 -1.67424 -3.26136 0
M  V30 57749 H 5223.11 0.0589738 -5.02965 0
M  V30 57750 H 5222.81 -1.5802 -5.65954 0
M  V30 57751 H 5224.34 -0.738693 -6.06115 0
M  V30 57752 H 5225.75 -2.75999 -5.02491 0
M  V30 57753 H 5224.15 -3.53194 -4.85153 0
M  V30 57754 H 5225.22 -3.4146 -3.44287 0
M  V30 57755 N 5226.56 1.21816 -0.999936 0
M  V30 57756 C 5227.79 1.95296 -0.698163 0
M  V30 57757 C 5228.21 1.73276 0.731921 0
M  V30 57758 O 5227.57 1.01639 1.5013 0
M  V30 57759 C 5227.62 3.45919 -1.01846 0
M  V30 57760 O 5226.72 4.12223 -0.120946 0
M  V30 57761 H 5226.06 0.61072 -0.26061 0
M  V30 57762 H 5228.59 1.54716 -1.33881 0
M  V30 57763 H 5228.6 3.96467 -0.963214 0
M  V30 57764 H 5227.28 3.6127 -2.0605 0
M  V30 57765 H 5225.85 3.72176 -0.232284 0
M  V30 57766 N 5228.04 0.774023 1.37283 0
M  V30 57767 C 5229.45 0.404497 1.82265 0
M  V30 57768 C 5229.8 -1.06966 1.64477 0
M  V30 57769 O 5228.93 -1.82863 1.15715 0
M  V30 57770 C 5229.52 0.727415 3.30899 0
M  V30 57771 C 5228.08 0.410916 3.7415 0
M  V30 57772 C 5227.23 0.970074 2.59778 0
M  V30 57773 H 5230.18 0.968482 1.25722 0
M  V30 57774 H 5230.2 0.0128912 3.80498 0
M  V30 57775 H 5229.71 1.80038 3.43814 0
M  V30 57776 H 5227.81 -0.654641 3.66804 0
M  V30 57777 H 5227.93 0.920757 4.70169 0
M  V30 57778 H 5226.29 0.394182 2.51631 0
M  V30 57779 H 5227.07 2.04849 2.75485 0
M  V30 57780 N 5229.52 -1.48607 0.52475 0
M  V30 57781 C 5230.45 -2.32367 -0.229755 0
M  V30 57782 C 5231.43 -1.41762 -0.940079 0
M  V30 57783 O 5232.61 -1.70654 -0.926876 0
M  V30 57784 C 5229.74 -3.22839 -1.28032 0
M  V30 57785 C 5228.7 -4.22427 -0.688454 0
M  V30 57786 C 5228.02 -5.01997 -1.84129 0
M  V30 57787 C 5229.32 -5.21216 0.33636 0
M  V30 57788 H 5231.02 -2.95697 0.469443 0
M  V30 57789 H 5228.56 -1.42196 0.227206 0
M  V30 57790 H 5230.52 -3.80259 -1.81606 0
M  V30 57791 H 5229.24 -2.57499 -2.00903 0
M  V30 57792 H 5227.9 -3.66186 -0.174273 0
M  V30 57793 H 5227.55 -4.33085 -2.55825 0
M  V30 57794 H 5227.25 -5.69397 -1.45122 0
M  V30 57795 H 5228.77 -5.62268 -2.38091 0
M  V30 57796 H 5230.19 -5.7319 -0.112106 0
M  V30 57797 H 5228.58 -5.96639 0.643533 0
M  V30 57798 H 5229.65 -4.68672 1.24398 0
M  V30 57799 N 5231 -0.25964 -1.55447 0
M  V30 57800 C 5232.41 0.2411 -1.85137 0
M  V30 57801 C 5232.76 1.5663 -1.18158 0
M  V30 57802 O 5231.88 2.11358 -0.464425 0
M  V30 57803 C 5232.48 0.444237 -3.35875 0
M  V30 57804 C 5231.04 0.889225 -3.65745 0
M  V30 57805 C 5230.18 -0.0263449 -2.77287 0
M  V30 57806 H 5233.13 -0.481861 -1.51208 0
M  V30 57807 H 5233.16 1.28505 -3.58144 0
M  V30 57808 H 5232.67 -0.520425 -3.84595 0
M  V30 57809 H 5230.77 1.86591 -3.22513 0
M  V30 57810 H 5230.88 0.737265 -4.73393 0
M  V30 57811 H 5229.25 0.487273 -2.49995 0
M  V30 57812 H 5230.03 -0.986609 -3.28817 0
M  V30 57813 N 5232.47 1.57594 0.0133061 0
M  V30 57814 C 5233.7 1.94652 0.715928 0
M  V30 57815 C 5234.12 0.860845 1.67246 0
M  V30 57816 O 5233.48 -0.182165 1.80383 0
M  V30 57817 C 5233.53 3.30794 1.43554 0
M  V30 57818 O 5232.63 3.24157 2.54943 0
M  V30 57819 H 5231.97 0.635808 0.191426 0
M  V30 57820 H 5234.5 2.04568 -0.0359197 0
M  V30 57821 H 5234.51 3.66051 1.80195 0
M  V30 57822 H 5233.19 4.0937 0.734119 0
M  V30 57823 H 5231.77 3.00555 2.20728 0
M  V30 57824 N 5233.95 -0.28585 1.54986 0
M  V30 57825 C 5235.36 -0.857811 1.65827 0
M  V30 57826 C 5235.71 -1.87529 0.576829 0
M  V30 57827 O 5234.84 -2.14529 -0.28394 0
M  V30 57828 C 5235.43 -1.56266 3.0061 0
M  V30 57829 C 5233.99 -2.08283 3.13521 0
M  V30 57830 C 5233.14 -0.920541 2.61575 0
M  V30 57831 H 5236.09 -0.0624906 1.58577 0
M  V30 57832 H 5236.11 -2.42902 2.9288 0
M  V30 57833 H 5235.62 -0.821883 3.79298 0
M  V30 57834 H 5233.73 -2.85362 2.39582 0
M  V30 57835 H 5233.84 -2.30696 4.199 0
M  V30 57836 H 5232.2 -1.31035 2.18408 0
M  V30 57837 H 5232.99 -0.193473 3.42754 0
M  V30 57838 N 5235.43 -1.477 -0.549768 0
M  V30 57839 C 5236.84 -1.48478 -1.13186 0
M  V30 57840 C 5237.19 -0.243572 -1.94682 0
M  V30 57841 O 5236.32 0.650937 -2.06378 0
M  V30 57842 C 5236.91 -2.69029 -2.05934 0
M  V30 57843 C 5235.47 -2.72743 -2.594 0
M  V30 57844 C 5234.62 -2.41696 -1.35935 0
M  V30 57845 H 5237.57 -1.55102 -0.335993 0
M  V30 57846 H 5237.59 -2.46422 -2.89925 0
M  V30 57847 H 5237.1 -3.5935 -1.46592 0
M  V30 57848 H 5235.2 -1.8658 -3.22519 0
M  V30 57849 H 5235.32 -3.73638 -2.99886 0
M  V30 57850 H 5233.68 -1.92434 -1.66857 0
M  V30 57851 H 5234.46 -3.34234 -0.783751 0
M  V30 57852 N 5236.91 0.797093 -1.35957 0
M  V30 57853 C 5237.82 1.94083 -1.31791 0
M  V30 57854 C 5238.83 1.72587 -0.221288 0
M  V30 57855 O 5240.01 1.96255 -0.452324 0
M  V30 57856 C 5237.08 3.28824 -1.0989 0
M  V30 57857 C 5236.14 3.6315 -2.28955 0
M  V30 57858 C 5235.37 4.91462 -2.08089 0
M  V30 57859 O 5235.59 5.60612 -1.05216 0
M  V30 57860 O 5234.53 5.24267 -2.95682 0
M  V30 57861 H 5238.35 2.00546 -2.28068 0
M  V30 57862 H 5235.94 0.936247 -1.16425 0
M  V30 57863 H 5237.82 4.09469 -0.995629 0
M  V30 57864 H 5236.49 3.2327 -0.166704 0
M  V30 57865 H 5235.4 2.82843 -2.44849 0
M  V30 57866 H 5236.73 3.73419 -3.20654 0
M  V30 57867 N 5238.39 1.2011 1.02036 0
M  V30 57868 C 5239.32 0.889869 2.10135 0
M  V30 57869 C 5240.3 -0.156538 1.61845 0
M  V30 57870 O 5241.48 -0.030953 1.88475 0
M  V30 57871 C 5238.61 0.333345 3.37056 0
M  V30 57872 C 5237.65 1.36015 4.0423 0
M  V30 57873 S 5238.49 2.92381 4.48635 0
M  V30 57874 C 5239.64 2.38295 5.78763 0
M  V30 57875 H 5239.88 1.80532 2.36211 0
M  V30 57876 H 5237.41 1.02916 1.15098 0
M  V30 57877 H 5239.37 0.0187951 4.10496 0
M  V30 57878 H 5238.03 -0.560544 3.09058 0
M  V30 57879 H 5237.22 0.920048 4.95531 0
M  V30 57880 H 5236.82 1.62198 3.36998 0
M  V30 57881 H 5239.12 1.77822 6.53747 0
M  V30 57882 H 5240.06 3.27977 6.27564 0
M  V30 57883 H 5240.47 1.80559 5.34844 0
M  V30 57884 N 5239.86 -1.21284 1.00638 0
M  V30 57885 C 5240.8 -2.22364 0.512765 0
M  V30 57886 C 5241.78 -1.56693 -0.434277 0
M  V30 57887 O 5242.96 -1.85095 -0.356675 0
M  V30 57888 C 5240.09 -3.37739 -0.25502 0
M  V30 57889 C 5239.13 -4.2167 0.640031 0
M  V30 57890 S 5239.97 -4.92467 2.10325 0
M  V30 57891 C 5241.12 -6.1127 1.34534 0
M  V30 57892 H 5241.35 -2.63891 1.36927 0
M  V30 57893 H 5238.89 -1.31173 0.814433 0
M  V30 57894 H 5240.85 -4.04627 -0.691925 0
M  V30 57895 H 5239.51 -2.94693 -1.08696 0
M  V30 57896 H 5238.7 -5.03977 0.0485592 0
M  V30 57897 H 5238.3 -3.59984 1.01427 0
M  V30 57898 H 5240.59 -6.74658 0.619958 0
M  V30 57899 H 5241.54 -6.74856 2.14417 0
M  V30 57900 H 5241.94 -5.58023 0.852703 0
M  V30 57901 N 5241.34 -0.781292 -1.36871 0
M  V30 57902 C 5242.75 -0.414157 -1.82048 0
M  V30 57903 C 5243.1 1.06092 -1.65042 0
M  V30 57904 O 5242.23 1.82247 -1.16683 0
M  V30 57905 C 5242.82 -0.744953 -3.30509 0
M  V30 57906 C 5241.38 -0.430752 -3.73927 0
M  V30 57907 C 5240.53 -0.983837 -2.5926 0
M  V30 57908 H 5243.48 -0.975135 -1.25207 0
M  V30 57909 H 5243.5 -0.0330698 -3.80486 0
M  V30 57910 H 5243.01 -1.81859 -3.42854 0
M  V30 57911 H 5241.12 0.635179 -3.67146 0
M  V30 57912 H 5241.23 -0.945679 -4.69674 0
M  V30 57913 H 5239.59 -0.407521 -2.51419 0
M  V30 57914 H 5240.38 -2.06307 -2.74395 0
M  V30 57915 N 5242.82 1.48327 -0.532624 0
M  V30 57916 C 5244.05 2.069 -0.00361572 0
M  V30 57917 C 5244.46 1.3888 1.27897 0
M  V30 57918 O 5243.82 0.477181 1.76151 0
M  V30 57919 C 5243.87 3.60822 0.221289 0
M  V30 57920 O 5243.59 4.26287 -1.01049 0
M  V30 57921 C 5245.09 4.36197 0.790377 0
M  V30 57922 H 5242.31 0.670102 -0.0347071 0
M  V30 57923 H 5244.86 1.9068 -0.739022 0
M  V30 57924 H 5243.01 3.76639 0.906752 0
M  V30 57925 H 5243.43 5.18473 -0.792865 0
M  V30 57926 H 5244.9 5.44661 0.897156 0
M  V30 57927 H 5245.38 4.00804 1.79591 0
M  V30 57928 H 5245.98 4.25065 0.141397 0
M  V30 57929 N 5244.3 0.26788 1.55307 0
M  V30 57930 C 5245.52 -0.357416 2.04297 0
M  V30 57931 C 5245.95 -1.49218 1.14523 0
M  V30 57932 O 5245.31 -1.8074 0.142356 0
M  V30 57933 C 5245.35 -0.822775 3.51088 0
M  V30 57934 O 5244.46 -1.93065 3.64417 0
M  V30 57935 H 5243.8 -0.0750018 0.659751 0
M  V30 57936 H 5246.33 0.400067 2.00651 0
M  V30 57937 H 5246.34 -1.12046 3.92313 0
M  V30 57938 H 5245.01 0.00750241 4.15899 0
M  V30 57939 H 5243.59 -1.63606 3.35093 0
M  V30 57940 N 5245.78 -1.57599 -0.00494828 0
M  V30 57941 C 5247.19 -1.78464 -0.548417 0
M  V30 57942 C 5247.54 -0.90193 -1.7424 0
M  V30 57943 O 5246.66 -0.10309 -2.16154 0
M  V30 57944 C 5247.26 -3.23654 -1.00167 0
M  V30 57945 C 5245.82 -3.45632 -1.49049 0
M  V30 57946 C 5244.96 -2.73796 -0.439434 0
M  V30 57947 H 5247.92 -1.5715 0.221235 0
M  V30 57948 H 5247.94 -3.31494 -1.86793 0
M  V30 57949 H 5247.45 -3.87874 -0.132471 0
M  V30 57950 H 5245.55 -2.8662 -2.38075 0
M  V30 57951 H 5245.66 -4.54303 -1.52136 0
M  V30 57952 H 5244.03 -2.38271 -0.899959 0
M  V30 57953 H 5244.81 -3.40712 0.420719 0
M  V30 57954 N 5247.25 0.277627 -1.55135 0
M  V30 57955 C 5248.19 1.36525 -1.84102 0
M  V30 57956 C 5249.2 1.45753 -0.725245 0
M  V30 57957 O 5250.39 1.47653 -1.00304 0
M  V30 57958 C 5247.49 2.74694 -1.98485 0
M  V30 57959 C 5246.66 2.88113 -3.29104 0
M  V30 57960 C 5245.72 4.06928 -3.3361 0
M  V30 57961 O 5244.75 3.97906 -4.07013 0
M  V30 57962 N 5245.95 5.18678 -2.60679 0
M  V30 57963 H 5248.71 1.12023 -2.77977 0
M  V30 57964 H 5246.27 0.467738 -1.54996 0
M  V30 57965 H 5248.27 3.52464 -1.98875 0
M  V30 57966 H 5246.84 2.92039 -1.11499 0
M  V30 57967 H 5246.06 1.97265 -3.41292 0
M  V30 57968 H 5247.34 2.94007 -4.15256 0
M  V30 57969 H 5246.74 5.28894 -2.00717 0
M  V30 57970 H 5245.3 5.94695 -2.66797 0
M  V30 57971 N 5248.73 1.4799 0.541927 0
M  V30 57972 C 5249.96 1.59291 1.3282 0
M  V30 57973 C 5250.38 0.249006 1.86445 0
M  V30 57974 O 5249.74 -0.777524 1.63781 0
M  V30 57975 C 5249.79 2.63348 2.46333 0
M  V30 57976 O 5248.89 2.19679 3.4902 0
M  V30 57977 H 5248.23 0.534557 0.393884 0
M  V30 57978 H 5250.76 1.93888 0.653358 0
M  V30 57979 H 5250.77 2.84248 2.92689 0
M  V30 57980 H 5249.45 3.6092 2.06662 0
M  V30 57981 H 5248.03 2.08942 3.08865 0
M  V30 57982 N 5250.21 -0.789872 1.36377 0
M  V30 57983 C 5251.62 -1.36501 1.27375 0
M  V30 57984 C 5251.97 -1.96009 -0.0866421 0
M  V30 57985 O 5251.1 -1.92525 -0.988091 0
M  V30 57986 C 5251.69 -2.48167 2.30648 0
M  V30 57987 C 5250.25 -3.01498 2.25335 0
M  V30 57988 C 5249.4 -1.74574 2.15452 0
M  V30 57989 H 5252.35 -0.591554 1.47263 0
M  V30 57990 H 5252.37 -3.27172 1.94265 0
M  V30 57991 H 5251.88 -2.04827 3.29648 0
M  V30 57992 H 5249.98 -3.4926 1.29801 0
M  V30 57993 H 5250.1 -3.58344 3.18004 0
M  V30 57994 H 5248.46 -1.96788 1.61698 0
M  V30 57995 H 5249.24 -1.33362 3.16338 0
M  V30 57996 N 5251.69 -1.20649 -1.01398 0
M  V30 57997 C 5253.11 -0.961911 -1.27356 0
M  V30 57998 C 5253.31 0.357013 -1.98312 0
M  V30 57999 O 5252.36 1.0849 -2.28005 0
M  V30 58000 C 5253.67 -2.14634 -2.10601 0
M  V30 58001 C 5255.22 -2.18761 -2.23859 0
M  V30 58002 C 5255.7 -3.36697 -3.10482 0
M  V30 58003 N 5257.19 -3.36727 -3.18071 0
M  V30 58004 C 5257.92 -4.24629 -3.85328 0
M  V30 58005 N 5257.42 -5.22713 -4.5469 0
M  V30 58006 N 5259.21 -4.12463 -3.81878 0
M  V30 58007 H 5251.36 -2.05483 -0.537649 0
M  V30 58008 H 5253.63 -0.899303 -0.299931 0
M  V30 58009 H 5253.33 -3.10165 -1.65803 0
M  V30 58010 H 5253.21 -2.12946 -3.11342 0
M  V30 58011 H 5255.59 -1.23791 -2.6788 0
M  V30 58012 H 5255.67 -2.24496 -1.22618 0
M  V30 58013 H 5255.32 -4.31955 -2.67166 0
M  V30 58014 H 5255.25 -3.28199 -4.11816 0
M  V30 58015 H 5257.74 -2.65738 -2.68686 0
M  V30 58016 H 5258.05 -5.86105 -5.03687 0
M  V30 58017 H 5256.4 -5.26647 -4.53506 0
M  V30 58018 H 5259.59 -3.35103 -3.26839 0
M  V30 58019 H 5259.76 -4.81178 -4.34018 0
M  V30 58020 N 5253.17 1.20748 -1.0128 0
M  V30 58021 C 5254.44 1.85674 -0.615177 0
M  V30 58022 C 5254.82 1.90626 0.906909 0
M  V30 58023 O 5254.17 1.4113 1.79707 0
M  V30 58024 C 5254.38 3.25516 -1.25858 0
M  V30 58025 C 5255.73 4.01835 -1.37162 0
M  V30 58026 O 5256.75 3.34856 -1.2145 0
M  V30 58027 O 5255.61 5.21777 -1.62513 0
M  V30 58028 H 5252.71 0.79943 -0.211757 0
M  V30 58029 H 5255.25 1.28368 -1.10994 0
M  V30 58030 H 5254.03 3.16656 -2.2988 0
M  V30 58031 H 5253.65 3.9045 -0.750662 0
M  V30 58032 N 5254.65 0.78854 1.36454 0
M  V30 58033 C 5255.61 0.192289 2.28392 0
M  V30 58034 C 5256.61 -0.609864 1.48786 0
M  V30 58035 O 5257.8 -0.430987 1.68784 0
M  V30 58036 C 5254.93 -0.733979 3.32905 0
M  V30 58037 H 5256.12 1.00294 2.82633 0
M  V30 58038 H 5253.68 0.557904 1.46004 0
M  V30 58039 H 5254.41 -1.569 2.83818 0
M  V30 58040 H 5254.2 -0.160737 3.9177 0
M  V30 58041 H 5255.69 -1.14605 4.01566 0
M  V30 58042 N 5256.12 -1.48042 0.540482 0
M  V30 58043 C 5257.03 -2.33565 -0.220081 0
M  V30 58044 C 5258.05 -1.47149 -0.928608 0
M  V30 58045 O 5259.23 -1.8011 -0.901231 0
M  V30 58046 C 5256.29 -3.23494 -1.24709 0
M  V30 58047 C 5255.35 -4.25791 -0.547788 0
M  V30 58048 C 5254.58 -5.11423 -1.52587 0
M  V30 58049 O 5254.81 -4.99214 -2.75938 0
M  V30 58050 O 5253.74 -5.92502 -1.05951 0
M  V30 58051 H 5257.57 -2.99867 0.481003 0
M  V30 58052 H 5255.15 -1.46331 0.301278 0
M  V30 58053 H 5257.03 -3.7909 -1.84034 0
M  V30 58054 H 5255.71 -2.59841 -1.93039 0
M  V30 58055 H 5254.62 -3.74001 0.0862256 0
M  V30 58056 H 5255.95 -4.92111 0.0937626 0
M  V30 58057 N 5257.6 -0.276112 -1.55162 0
M  V30 58058 C 5258.53 0.604553 -2.25538 0
M  V30 58059 C 5259.51 1.15809 -1.24589 0
M  V30 58060 O 5260.7 1.19204 -1.5331 0
M  V30 58061 C 5257.83 1.78825 -2.97723 0
M  V30 58062 C 5256.78 1.36621 -4.05609 0
M  V30 58063 C 5256.11 2.63309 -4.65374 0
M  V30 58064 C 5257.41 0.515676 -5.19748 0
M  V30 58065 H 5259.1 0.017643 -2.99395 0
M  V30 58066 H 5256.65 0.00704565 -1.43998 0
M  V30 58067 H 5258.6 2.41024 -3.45667 0
M  V30 58068 H 5257.32 2.40101 -2.21402 0
M  V30 58069 H 5255.98 0.767415 -3.58478 0
M  V30 58070 H 5255.63 3.22845 -3.85721 0
M  V30 58071 H 5255.33 2.35781 -5.3822 0
M  V30 58072 H 5256.86 3.26354 -5.16067 0
M  V30 58073 H 5258.27 1.04269 -5.63738 0
M  V30 58074 H 5256.67 0.335238 -5.99163 0
M  V30 58075 H 5257.74 -0.465307 -4.82662 0
M  V30 58076 N 5259.08 1.576 -0.00340966 0
M  V30 58077 C 5260.33 1.89894 0.679934 0
M  V30 58078 C 5260.64 0.878793 1.74747 0
M  V30 58079 O 5261.85 1.09208 2.48568 0
M  V30 58080 C 5260.3 3.37103 1.26054 0
M  V30 58081 C 5259.91 4.47421 0.227649 0
M  V30 58082 C 5261.66 3.78502 1.92188 0
M  V30 58083 C 5259.56 5.85709 0.818444 0
M  V30 58084 H 5258.49 0.708587 0.257721 0
M  V30 58085 H 5261.14 1.83387 -0.0645117 0
M  V30 58086 H 5259.53 3.38459 2.05577 0
M  V30 58087 H 5260.7 4.57587 -0.543231 0
M  V30 58088 H 5259.01 4.15063 -0.333443 0
M  V30 58089 H 5261.61 4.79158 2.37301 0
M  V30 58090 H 5261.95 3.12197 2.75388 0
M  V30 58091 H 5262.49 3.7946 1.19395 0
M  V30 58092 H 5259.23 6.55495 0.0251482 0
M  V30 58093 H 5258.75 5.79201 1.5584 0
M  V30 58094 H 5260.43 6.33474 1.31604 0
M  V30 58095 N 5260.56 -0.269396 1.5528 0
M  V30 58096 C 5261.52 -1.31635 1.87629 0
M  V30 58097 C 5262.52 -1.42179 0.751108 0
M  V30 58098 O 5263.71 -1.41268 1.01926 0
M  V30 58099 C 5260.84 -2.69722 2.08477 0
M  V30 58100 H 5262.04 -1.04181 2.81223 0
M  V30 58101 H 5259.59 -0.507633 1.47827 0
M  V30 58102 H 5260.32 -3.02352 1.17277 0
M  V30 58103 H 5260.11 -2.63455 2.90403 0
M  V30 58104 H 5261.6 -3.45362 2.34765 0
M  V30 58105 N 5262.04 -1.48275 -0.534071 0
M  V30 58106 C 5262.95 -1.65168 -1.66603 0
M  V30 58107 C 5263.96 -0.534235 -1.65596 0
M  V30 58108 O 5265.14 -0.80478 -1.84622 0
M  V30 58109 C 5262.2 -1.68365 -3.03075 0
M  V30 58110 C 5261.26 -2.91707 -3.14969 0
M  V30 58111 C 5260.5 -2.94741 -4.44931 0
M  V30 58112 O 5260.72 -2.06304 -5.31785 0
M  V30 58113 O 5259.65 -3.86867 -4.61105 0
M  V30 58114 H 5263.48 -2.60996 -1.55289 0
M  V30 58115 H 5261.06 -1.31629 -0.706703 0
M  V30 58116 H 5262.95 -1.73012 -3.84246 0
M  V30 58117 H 5261.62 -0.757088 -3.14722 0
M  V30 58118 H 5260.53 -2.92594 -2.33109 0
M  V30 58119 H 5261.86 -3.83733 -3.08236 0
M  V30 58120 N 5263.51 0.782628 -1.36794 0
M  V30 58121 C 5264.48 1.87715 -1.31513 0
M  V30 58122 C 5265.48 1.59268 -0.221405 0
M  V30 58123 O 5266.67 1.67553 -0.476603 0
M  V30 58124 C 5263.8 3.24637 -1.04036 0
M  V30 58125 H 5264.99 1.93812 -2.2886 0
M  V30 58126 H 5262.55 0.981183 -1.21665 0
M  V30 58127 H 5263.28 3.24221 -0.0717578 0
M  V30 58128 H 5263.07 3.46674 -1.83192 0
M  V30 58129 H 5264.56 4.04708 -1.02963 0
M  V30 58130 N 5264.99 1.21185 1.00757 0
M  V30 58131 C 5265.94 0.968815 2.09482 0
M  V30 58132 C 5266.91 -0.104267 1.65772 0
M  V30 58133 O 5268.09 0.0423258 1.90753 0
M  V30 58134 C 5265.23 0.536806 3.40899 0
M  V30 58135 C 5264.35 1.67904 3.98035 0
M  V30 58136 C 5263.48 1.19645 5.1755 0
M  V30 58137 C 5262.52 2.31119 5.6679 0
M  V30 58138 N 5261.66 1.84012 6.77557 0
M  V30 58139 H 5266.5 1.8996 2.29606 0
M  V30 58140 H 5264.04 0.946727 1.12585 0
M  V30 58141 H 5265.99 0.267597 4.16341 0
M  V30 58142 H 5264.62 -0.356979 3.2082 0
M  V30 58143 H 5263.68 2.06295 3.19604 0
M  V30 58144 H 5264.99 2.51809 4.30574 0
M  V30 58145 H 5264.14 0.88375 6.00229 0
M  V30 58146 H 5262.88 0.327415 4.866 0
M  V30 58147 H 5261.89 2.63195 4.8271 0
M  V30 58148 H 5263.11 3.18514 5.99771 0
M  V30 58149 H 5261.06 0.994485 6.48418 0
M  V30 58150 H 5260.97 2.61491 7.09336 0
M  V30 58151 H 5262.24 1.55768 7.63778 0
M  V30 58152 N 5266.47 -1.20209 1.01919 0
M  V30 58153 C 5267.4 -2.25334 0.612102 0
M  V30 58154 C 5268.38 -1.65935 -0.374127 0
M  V30 58155 O 5269.57 -1.92465 -0.258985 0
M  V30 58156 C 5266.7 -3.47267 -0.0477819 0
M  V30 58157 C 5265.65 -4.19277 0.859705 0
M  V30 58158 C 5264.98 -5.3466 0.0654534 0
M  V30 58159 C 5266.28 -4.75135 2.16896 0
M  V30 58160 H 5267.97 -2.5964 1.49088 0
M  V30 58161 H 5265.52 -1.24805 0.718307 0
M  V30 58162 H 5267.47 -4.19992 -0.344147 0
M  V30 58163 H 5266.19 -3.12132 -0.961295 0
M  V30 58164 H 5264.85 -3.48421 1.14011 0
M  V30 58165 H 5264.5 -4.9577 -0.84979 0
M  V30 58166 H 5264.2 -5.8377 0.669824 0
M  V30 58167 H 5265.72 -6.10188 -0.224397 0
M  V30 58168 H 5267.14 -5.39665 1.93479 0
M  V30 58169 H 5265.54 -5.34692 2.72441 0
M  V30 58170 H 5266.61 -3.93734 2.83022 0
M  V30 58171 N 5267.95 -0.795765 -1.36034 0
M  V30 58172 C 5268.88 -0.212884 -2.32528 0
M  V30 58173 C 5269.86 0.655661 -1.56956 0
M  V30 58174 O 5271.04 0.588173 -1.85079 0
M  V30 58175 C 5268.17 0.648069 -3.412 0
M  V30 58176 C 5267.13 -0.121098 -4.27829 0
M  V30 58177 C 5266.45 0.860859 -5.27725 0
M  V30 58178 C 5267.75 -1.31393 -5.05503 0
M  V30 58179 H 5269.45 -1.01903 -2.81525 0
M  V30 58180 H 5266.99 -0.49147 -1.35354 0
M  V30 58181 H 5268.95 1.06583 -4.07699 0
M  V30 58182 H 5267.67 1.48699 -2.90785 0
M  V30 58183 H 5266.33 -0.519905 -3.62895 0
M  V30 58184 H 5265.98 1.69498 -4.73581 0
M  V30 58185 H 5265.68 0.350602 -5.86553 0
M  V30 58186 H 5267.2 1.27705 -5.97096 0
M  V30 58187 H 5268.62 -0.971605 -5.65007 0
M  V30 58188 H 5267.01 -1.75792 -5.73775 0
M  V30 58189 H 5268.08 -2.10608 -4.36775 0
M  V30 58190 N 5269.43 1.47754 -0.548326 0
M  V30 58191 C 5270.84 1.58246 -0.207456 0
M  V30 58192 C 5271.04 1.54809 1.28983 0
M  V30 58193 O 5270.1 1.4468 2.06939 0
M  V30 58194 C 5271.41 2.89126 -0.826244 0
M  V30 58195 C 5272.96 3.02692 -0.796656 0
M  V30 58196 C 5273.43 4.36259 -1.39435 0
M  V30 58197 N 5274.93 4.42872 -1.35714 0
M  V30 58198 C 5275.66 5.44767 -1.78932 0
M  V30 58199 N 5275.16 6.5352 -2.29965 0
M  V30 58200 N 5276.95 5.35759 -1.70056 0
M  V30 58201 H 5269.1 1.48231 -1.52123 0
M  V30 58202 H 5271.36 0.704935 -0.633854 0
M  V30 58203 H 5271.07 2.97351 -1.87817 0
M  V30 58204 H 5270.94 3.7589 -0.314048 0
M  V30 58205 H 5273.33 2.94068 0.246551 0
M  V30 58206 H 5273.41 2.17492 -1.34652 0
M  V30 58207 H 5273.06 4.45638 -2.43658 0
M  V30 58208 H 5272.99 5.20176 -0.82001 0
M  V30 58209 H 5275.48 3.64871 -0.983751 0
M  V30 58210 H 5275.79 7.27432 -2.60889 0
M  V30 58211 H 5274.13 6.54433 -2.3397 0
M  V30 58212 H 5277.33 4.49694 -1.29971 0
M  V30 58213 H 5277.5 6.15032 -2.04057 0
M  V30 58214 N 5270.9 0.284337 1.55014 0
M  V30 58215 C 5271.84 -0.632503 2.203 0
M  V30 58216 C 5272.85 -1.11041 1.19054 0
M  V30 58217 O 5274.04 -1.03073 1.45733 0
M  V30 58218 C 5271.14 -1.87589 2.82247 0
M  V30 58219 C 5270.31 -1.54326 4.0927 0
M  V30 58220 C 5269.37 -2.64007 4.55178 0
M  V30 58221 O 5268.4 -2.29803 5.20749 0
M  V30 58222 N 5269.6 -3.9424 4.26092 0
M  V30 58223 H 5272.36 -0.0736875 2.99609 0
M  V30 58224 H 5269.92 0.105824 1.61554 0
M  V30 58225 H 5271.92 -2.60278 3.09899 0
M  V30 58226 H 5270.49 -2.34352 2.06876 0
M  V30 58227 H 5269.71 -0.649775 3.88808 0
M  V30 58228 H 5270.99 -1.29617 4.92013 0
M  V30 58229 H 5270.39 -4.24846 3.73527 0
M  V30 58230 H 5268.95 -4.63279 4.58493 0
M  V30 58231 N 5272.38 -1.57596 0.0117675 0
M  V30 58232 C 5273.33 -2.05645 -0.984598 0
M  V30 58233 C 5274.32 -0.953468 -1.29606 0
M  V30 58234 O 5275.51 -1.21716 -1.28508 0
M  V30 58235 C 5272.64 -2.57293 -2.27277 0
M  V30 58236 C 5271.72 -3.7449 -1.99043 0
M  V30 58237 N 5272.11 -4.85746 -1.41012 0
M  V30 58238 C 5270.41 -3.82645 -2.29126 0
M  V30 58239 C 5271.11 -5.67098 -1.29516 0
M  V30 58240 N 5270.09 -5.13465 -1.78479 0
M  V30 58241 H 5273.89 -2.89071 -0.530601 0
M  V30 58242 H 5271.41 -1.61241 -0.19366 0
M  V30 58243 H 5273.4 -2.89998 -2.99511 0
M  V30 58244 H 5272.06 -1.7529 -2.73319 0
M  V30 58245 H 5273.07 -5.06356 -1.08738 0
M  V30 58246 H 5269.75 -3.11518 -2.77961 0
M  V30 58247 H 5271.14 -6.66528 -0.84791 0
M  V30 58248 N 5273.86 0.261157 -1.55421 0
M  V30 58249 C 5274.81 1.32308 -1.89112 0
M  V30 58250 C 5275.78 1.48514 -0.74382 0
M  V30 58251 O 5276.96 1.6273 -0.99618 0
M  V30 58252 C 5274.1 2.67619 -2.17886 0
M  V30 58253 C 5273.22 2.59537 -3.45347 0
M  V30 58254 C 5272.35 3.87106 -3.63762 0
M  V30 58255 C 5271.39 3.73583 -4.84873 0
M  V30 58256 N 5270.53 4.93012 -4.99884 0
M  V30 58257 H 5275.37 1.02877 -2.79679 0
M  V30 58258 H 5272.9 0.496763 -1.38458 0
M  V30 58259 H 5274.86 3.46362 -2.32571 0
M  V30 58260 H 5273.49 2.95228 -1.30539 0
M  V30 58261 H 5272.54 1.7244 -3.3907 0
M  V30 58262 H 5273.86 2.45449 -4.3423 0
M  V30 58263 H 5273.01 4.74291 -3.78329 0
M  V30 58264 H 5271.75 4.04074 -2.73085 0
M  V30 58265 H 5270.75 2.8478 -4.70298 0
M  V30 58266 H 5271.98 3.58122 -5.76997 0
M  V30 58267 H 5269.92 5.10368 -4.12141 0
M  V30 58268 H 5269.84 4.815 -5.82832 0
M  V30 58269 H 5271.11 5.81736 -5.18848 0
M  V30 58270 N 5275.34 1.48556 0.526201 0
M  V30 58271 C 5276.59 1.56456 1.27929 0
M  V30 58272 C 5276.91 0.241908 1.93494 0
M  V30 58273 O 5276.18 -0.736854 1.81514 0
M  V30 58274 H 5274.76 0.576396 0.475159 0
M  V30 58275 H 5277.42 1.85041 0.612018 0
M  V30 58276 H 5276.52 2.34758 2.05658 0
M  V30 58277 N 5276.82 -0.775363 1.37207 0
M  V30 58278 C 5278.23 -1.07541 1.17928 0
M  V30 58279 C 5278.43 -2.01496 0.0129605 0
M  V30 58280 O 5277.49 -2.44041 -0.648074 0
M  V30 58281 C 5278.8 -1.67638 2.49635 0
M  V30 58282 C 5280.35 -1.79914 2.56125 0
M  V30 58283 C 5280.82 -2.43425 3.87954 0
M  V30 58284 N 5282.32 -2.50879 3.89376 0
M  V30 58285 C 5283.05 -3.00864 4.88128 0
M  V30 58286 N 5282.55 -3.51049 5.97274 0
M  V30 58287 N 5284.34 -2.99705 4.75535 0
M  V30 58288 H 5276.49 -0.151449 2.11859 0
M  V30 58289 H 5278.75 -0.129812 0.93907 0
M  V30 58290 H 5278.46 -1.06071 3.35324 0
M  V30 58291 H 5278.33 -2.66978 2.66463 0
M  V30 58292 H 5280.72 -2.40615 1.70846 0
M  V30 58293 H 5280.8 -0.793396 2.43185 0
M  V30 58294 H 5280.45 -1.83363 4.73646 0
M  V30 58295 H 5280.38 -3.44597 3.98196 0
M  V30 58296 H 5282.87 -2.15359 3.1053 0
M  V30 58297 H 5283.18 -3.87581 6.68581 0
M  V30 58298 H 5281.52 -3.49163 6.00924 0
M  V30 58299 H 5284.72 -2.59796 3.89389 0
M  V30 58300 H 5284.89 -3.3835 5.52651 0
M  V30 58301 N 5278.3 -1.21718 -1.00112 0
M  V30 58302 C 5279.23 -1.00404 -2.10811 0
M  V30 58303 C 5280.21 0.0722905 -1.69946 0
M  V30 58304 O 5281.39 -0.088308 -1.93999 0
M  V30 58305 C 5278.52 -0.572121 -3.42555 0
M  V30 58306 C 5277.48 -1.59345 -3.97232 0
M  V30 58307 C 5276.8 -1.01764 -5.24927 0
M  V30 58308 C 5278.1 -2.98133 -4.28852 0
M  V30 58309 H 5279.8 -1.92991 -2.289 0
M  V30 58310 H 5277.34 -0.929312 -1.09999 0
M  V30 58311 H 5279.29 -0.410166 -4.19399 0
M  V30 58312 H 5278.02 0.389396 -3.2427 0
M  V30 58313 H 5276.68 -1.74304 -3.22511 0
M  V30 58314 H 5276.33 -0.0477259 -5.02977 0
M  V30 58315 H 5276.03 -1.69989 -5.62475 0
M  V30 58316 H 5277.55 -0.867093 -6.04412 0
M  V30 58317 H 5278.96 -2.86595 -4.96524 0
M  V30 58318 H 5277.36 -3.63406 -4.77552 0
M  V30 58319 H 5278.43 -3.48686 -3.36966 0
M  V30 58320 N 5279.77 1.19667 -1.02555 0
M  V30 58321 C 5280.68 2.26439 -0.613408 0
M  V30 58322 C 5281.7 1.70376 0.353279 0
M  V30 58323 O 5282.88 2.00281 0.211993 0
M  V30 58324 C 5279.94 3.46685 0.032781 0
M  V30 58325 C 5279 4.17942 -0.980984 0
M  V30 58326 C 5278.23 5.32447 -0.365537 0
M  V30 58327 O 5278.46 5.64294 0.832398 0
M  V30 58328 O 5277.39 5.92008 -1.08673 0
M  V30 58329 H 5281.22 2.63926 -1.50255 0
M  V30 58330 H 5278.8 1.26457 -0.795547 0
M  V30 58331 H 5280.68 4.19561 0.393248 0
M  V30 58332 H 5279.36 3.11053 0.895979 0
M  V30 58333 H 5278.27 3.47199 -1.39298 0
M  V30 58334 H 5279.6 4.57536 -1.81444 0
M  V30 58335 N 5281.25 0.802969 1.3561 0
M  V30 58336 C 5282.21 0.216502 2.28175 0
M  V30 58337 C 5283.21 -0.594049 1.49425 0
M  V30 58338 O 5284.4 -0.413061 1.69232 0
M  V30 58339 C 5281.54 -0.698629 3.33664 0
M  V30 58340 H 5282.73 1.03286 2.81553 0
M  V30 58341 H 5280.28 0.573358 1.45404 0
M  V30 58342 H 5281.02 -1.53881 2.85466 0
M  V30 58343 H 5280.8 -0.119176 3.91919 0
M  V30 58344 H 5282.29 -1.1034 4.02759 0
M  V30 58345 N 5282.73 -1.47461 0.556154 0
M  V30 58346 C 5284.15 -1.58134 0.215846 0
M  V30 58347 C 5284.35 -1.5549 -1.2816 0
M  V30 58348 O 5283.4 -1.45776 -2.06169 0
M  V30 58349 C 5284.71 -2.88684 0.841565 0
M  V30 58350 C 5286.26 -3.02265 0.812697 0
M  V30 58351 C 5286.74 -4.35513 1.41747 0
M  V30 58352 N 5288.23 -4.42147 1.3806 0
M  V30 58353 C 5288.96 -5.4381 1.81818 0
M  V30 58354 N 5288.46 -6.52291 2.33427 0
M  V30 58355 N 5290.25 -5.34849 1.72895 0
M  V30 58356 H 5282.4 -1.47422 1.52907 0
M  V30 58357 H 5284.67 -0.701564 0.637583 0
M  V30 58358 H 5284.37 -2.96351 1.89391 0
M  V30 58359 H 5284.25 -3.75719 0.333978 0
M  V30 58360 H 5286.63 -2.94195 -0.230953 0
M  V30 58361 H 5286.71 -2.16774 1.35803 0
M  V30 58362 H 5286.36 -4.44339 2.46018 0
M  V30 58363 H 5286.29 -5.19734 0.847585 0
M  V30 58364 H 5288.78 -3.64344 1.00309 0
M  V30 58365 H 5289.09 -7.26038 2.64743 0
M  V30 58366 H 5287.44 -6.53183 2.37437 0
M  V30 58367 H 5290.63 -4.48999 1.32354 0
M  V30 58368 H 5290.8 -6.13942 2.07316 0
M  V30 58369 N 5284.21 -0.292554 -1.54861 0
M  V30 58370 C 5285.14 0.629078 -2.19358 0
M  V30 58371 C 5286.12 1.13923 -1.16018 0
M  V30 58372 O 5287.3 1.20899 -1.44623 0
M  V30 58373 C 5284.43 1.8598 -2.83071 0
M  V30 58374 C 5283.48 1.48362 -3.99864 0
M  V30 58375 S 5284.31 0.546788 -5.32701 0
M  V30 58376 C 5285.46 1.78549 -5.99892 0
M  V30 58377 H 5285.7 0.0811121 -2.97189 0
M  V30 58378 H 5283.23 -0.0767263 -1.54209 0
M  V30 58379 H 5285.19 2.56612 -3.20407 0
M  V30 58380 H 5283.85 2.37892 -2.051 0
M  V30 58381 H 5283.04 2.39986 -4.43196 0
M  V30 58382 H 5282.64 0.857319 -3.64041 0
M  V30 58383 H 5284.94 2.72719 -6.20186 0
M  V30 58384 H 5285.88 1.39488 -6.94225 0
M  V30 58385 H 5286.29 1.95837 -5.29441 0
M  V30 58386 N 5285.69 1.57587 -0.020125 0
M  V30 58387 C 5286.62 2.06559 0.993286 0
M  V30 58388 C 5287.63 0.987272 1.29448 0
M  V30 58389 O 5288.82 1.26366 1.26071 0
M  V30 58390 C 5285.92 2.46758 2.32301 0
M  V30 58391 C 5285.09 3.77562 2.2083 0
M  V30 58392 C 5284.15 4.04409 3.3666 0
M  V30 58393 O 5283.18 4.74791 3.13946 0
M  V30 58394 N 5284.38 3.53878 4.60164 0
M  V30 58395 H 5287.14 2.94122 0.575513 0
M  V30 58396 H 5284.71 1.61038 0.166833 0
M  V30 58397 H 5286.7 2.61817 3.086 0
M  V30 58398 H 5285.27 1.64607 2.6575 0
M  V30 58399 H 5284.49 3.72386 1.29314 0
M  V30 58400 H 5285.78 4.63278 2.10359 0
M  V30 58401 H 5285.17 2.96921 4.81513 0
M  V30 58402 H 5283.73 3.74231 5.33661 0
M  V30 58403 N 5287.16 -0.252911 1.55557 0
M  V30 58404 C 5288.41 -0.979674 1.7631 0
M  V30 58405 C 5288.73 -1.86712 0.582936 0
M  V30 58406 O 5289.93 -2.63018 0.67334 0
M  V30 58407 C 5288.39 -1.79194 3.12118 0
M  V30 58408 C 5288 -0.952179 4.37764 0
M  V30 58409 C 5289.74 -2.51179 3.42212 0
M  V30 58410 C 5287.65 -1.75998 5.64605 0
M  V30 58411 H 5286.58 -0.369515 0.657248 0
M  V30 58412 H 5289.23 -0.234555 1.81995 0
M  V30 58413 H 5287.61 -2.57878 3.00525 0
M  V30 58414 H 5288.78 -0.208089 4.6033 0
M  V30 58415 H 5287.1 -0.345936 4.14961 0
M  V30 58416 H 5289.7 -3.12059 4.34193 0
M  V30 58417 H 5290.04 -3.2249 2.6326 0
M  V30 58418 H 5290.57 -1.7951 3.54994 0
M  V30 58419 H 5287.31 -1.09073 6.46362 0
M  V30 58420 H 5286.83 -2.47951 5.4615 0
M  V30 58421 H 5288.51 -2.32863 6.03642 0
M  V30 58422 N 5288.64 -1.48833 -0.518315 0
M  V30 58423 C 5289.57 -1.67125 -1.63069 0
M  V30 58424 C 5290.55 -0.520005 -1.61957 0
M  V30 58425 O 5291.74 -0.753887 -1.7897 0
M  V30 58426 C 5288.87 -1.72168 -3.01621 0
M  V30 58427 C 5287.82 -2.86909 -3.17596 0
M  V30 58428 C 5287.15 -2.77051 -4.57326 0
M  V30 58429 C 5288.45 -4.28067 -2.99259 0
M  V30 58430 H 5290.14 -2.60253 -1.48016 0
M  V30 58431 H 5287.69 -1.25243 -0.71065 0
M  V30 58432 H 5289.64 -1.83552 -3.79324 0
M  V30 58433 H 5288.36 -0.756269 -3.17723 0
M  V30 58434 H 5287.02 -2.751 -2.42313 0
M  V30 58435 H 5286.67 -1.78454 -4.7028 0
M  V30 58436 H 5286.37 -3.54052 -4.68957 0
M  V30 58437 H 5287.9 -2.90419 -5.37112 0
M  V30 58438 H 5289.31 -4.40649 -3.66744 0
M  V30 58439 H 5287.71 -5.06156 -3.22375 0
M  V30 58440 H 5288.78 -4.43717 -1.95559 0
M  V30 58441 N 5290.12 0.768075 -1.37617 0
M  V30 58442 C 5291.03 1.91244 -1.35878 0
M  V30 58443 C 5292.05 1.72079 -0.257846 0
M  V30 58444 O 5293.22 1.95251 -0.493851 0
M  V30 58445 C 5290.29 3.26419 -1.1684 0
M  V30 58446 C 5289.35 3.58212 -2.36606 0
M  V30 58447 C 5288.58 4.86937 -2.18467 0
M  V30 58448 O 5288.8 5.58254 -1.17084 0
M  V30 58449 O 5287.74 5.17877 -3.06736 0
M  V30 58450 H 5291.56 1.95663 -2.32271 0
M  V30 58451 H 5289.15 0.91134 -1.18385 0
M  V30 58452 H 5291.03 4.07265 -1.08226 0
M  V30 58453 H 5289.71 3.22844 -0.235237 0
M  V30 58454 H 5288.61 2.77585 -2.50793 0
M  V30 58455 H 5289.95 3.66533 -3.28503 0
M  V30 58456 N 5291.6 1.22247 0.994655 0
M  V30 58457 C 5292.87 0.954519 1.70729 0
M  V30 58458 C 5293.25 -0.530873 2.04316 0
M  V30 58459 O 5292.6 -1.49845 1.72508 0
M  V30 58460 C 5292.81 1.85027 2.95916 0
M  V30 58461 C 5294.16 2.1053 3.68731 0
M  V30 58462 O 5295.18 1.8246 3.0592 0
M  V30 58463 O 5294.04 2.58061 4.81733 0
M  V30 58464 H 5291.14 0.358816 0.745104 0
M  V30 58465 H 5293.68 1.33225 1.05116 0
M  V30 58466 H 5292.46 2.85507 2.67584 0
M  V30 58467 H 5292.08 1.47401 3.69268 0
M  V30 58468 N 5293.08 -1.19122 1.03188 0
M  V30 58469 C 5294.03 -2.20346 0.585809 0
M  V30 58470 C 5295.01 -1.56657 -0.367054 0
M  V30 58471 O 5296.2 -1.76004 -0.187536 0
M  V30 58472 C 5293.33 -3.4325 -0.05888 0
M  V30 58473 C 5292.42 -4.14076 0.916603 0
M  V30 58474 N 5292.81 -4.61043 2.08021 0
M  V30 58475 C 5291.11 -4.39806 0.740694 0
M  V30 58476 C 5291.81 -5.15468 2.6957 0
M  V30 58477 N 5290.78 -5.06449 1.9751 0
M  V30 58478 H 5294.59 -2.54341 1.47268 0
M  V30 58479 H 5292.1 -1.35229 0.899272 0
M  V30 58480 H 5294.1 -4.15014 -0.39609 0
M  V30 58481 H 5292.76 -3.10754 -0.941397 0
M  V30 58482 H 5293.77 -4.55773 2.4595 0
M  V30 58483 H 5290.44 -4.17398 -0.0924771 0
M  V30 58484 H 5291.83 -5.62075 3.68132 0
M  V30 58485 N 5294.55 -0.810149 -1.35183 0
M  V30 58486 C 5295.5 -0.211152 -2.3164 0
M  V30 58487 C 5296.5 0.641054 -1.56802 0
M  V30 58488 O 5297.7 0.53382 -1.71902 0
M  V30 58489 H 5294.08 -0.0495242 -0.750367 0
M  V30 58490 H 5296.05 -1.03974 -2.797 0
M  V30 58491 C 5294.8 0.622813 -3.42076 0
M  V30 58492 H 5294.12 -0.0236053 -3.99793 0
M  V30 58493 H 5295.56 1.00825 -4.11838 0
M  V30 58494 C 5294.02 1.78984 -2.85423 0
M  V30 58495 O 5294.55 2.88748 -2.79263 0
M  V30 58496 N 5292.76 1.6025 -2.42422 0
M  V30 58497 H 5292.3 0.709653 -2.47632 0
M  V30 58498 H 5292.26 2.3849 -2.04865 0
M  V30 58499 N 5296.03 1.47164 -0.563966 0
M  V30 58500 C 5296.98 2.30098 0.179932 0
M  V30 58501 C 5297.95 1.39477 0.90197 0
M  V30 58502 O 5299.13 1.68435 0.896337 0
M  V30 58503 C 5296.27 3.23577 1.19966 0
M  V30 58504 C 5295.39 4.29291 0.482998 0
M  V30 58505 C 5294.52 5.09916 1.48861 0
M  V30 58506 C 5293.56 6.07397 0.757299 0
M  V30 58507 N 5292.7 6.80956 1.71007 0
M  V30 58508 H 5297.54 2.93188 -0.533393 0
M  V30 58509 H 5295.08 1.44509 -0.274865 0
M  V30 58510 H 5297.03 3.76202 1.80355 0
M  V30 58511 H 5295.66 2.62337 1.88094 0
M  V30 58512 H 5294.72 3.7967 -0.235548 0
M  V30 58513 H 5296.03 4.9872 -0.0895829 0
M  V30 58514 H 5295.18 5.66724 2.16583 0
M  V30 58515 H 5293.92 4.40405 2.09511 0
M  V30 58516 H 5292.93 5.4976 0.0661908 0
M  V30 58517 H 5294.15 6.7892 0.156446 0
M  V30 58518 H 5292.1 6.1417 2.30502 0
M  V30 58519 H 5292.01 7.46579 1.18981 0
M  V30 58520 H 5293.28 7.42335 2.37822 0
M  V30 58521 N 5297.51 0.300763 1.54704 0
M  V30 58522 C 5298.44 -0.609102 2.20958 0
M  V30 58523 C 5299.46 -1.09772 1.20225 0
M  V30 58524 O 5300.64 -1.01522 1.46818 0
M  V30 58525 C 5297.74 -1.84585 2.84221 0
M  V30 58526 C 5296.92 -1.49977 4.10884 0
M  V30 58527 C 5295.98 -2.59164 4.57952 0
M  V30 58528 O 5295 -2.24267 5.23157 0
M  V30 58529 N 5296.2 -3.89699 4.3025 0
M  V30 58530 H 5298.97 -0.0419058 2.99671 0
M  V30 58531 H 5296.53 0.122953 1.61432 0
M  V30 58532 H 5298.52 -2.56977 3.12642 0
M  V30 58533 H 5297.09 -2.32145 2.0935 0
M  V30 58534 H 5296.31 -0.6085 3.89475 0
M  V30 58535 H 5297.6 -1.24391 4.9336 0
M  V30 58536 H 5297 -4.2086 3.78012 0
M  V30 58537 H 5295.56 -4.5839 4.63381 0
M  V30 58538 N 5298.99 -1.57574 0.028482 0
M  V30 58539 C 5299.92 -2.13213 -0.951964 0
M  V30 58540 C 5300.9 -1.0481 -1.33973 0
M  V30 58541 O 5302.08 -1.3264 -1.41846 0
M  V30 58542 C 5299.21 -2.6587 -2.23452 0
M  V30 58543 C 5298.17 -3.79054 -1.98752 0
M  V30 58544 C 5297.49 -4.18136 -3.33266 0
M  V30 58545 C 5298.79 -5.05156 -1.32721 0
M  V30 58546 H 5300.49 -2.95386 -0.488601 0
M  V30 58547 H 5298.03 -1.42093 -0.233578 0
M  V30 58548 H 5299.99 -3.03428 -2.9242 0
M  V30 58549 H 5298.71 -1.80857 -2.71953 0
M  V30 58550 H 5297.37 -3.41933 -1.32201 0
M  V30 58551 H 5297.02 -3.30106 -3.79525 0
M  V30 58552 H 5296.72 -4.94407 -3.17546 0
M  V30 58553 H 5298.24 -4.58276 -4.03504 0
M  V30 58554 H 5299.66 -5.40304 -1.91689 0
M  V30 58555 H 5298.05 -5.86421 -1.274 0
M  V30 58556 H 5299.12 -4.83971 -0.300091 0
M  V30 58557 N 5300.47 0.244658 -1.55689 0
M  V30 58558 C 5301.38 1.3244 -1.93641 0
M  V30 58559 C 5302.39 1.52538 -0.83714 0
M  V30 58560 O 5303.57 1.66117 -1.13873 0
M  V30 58561 C 5300.63 2.65856 -2.22534 0
M  V30 58562 C 5299.69 2.54261 -3.45905 0
M  V30 58563 C 5298.93 3.81314 -3.7341 0
M  V30 58564 O 5299.15 4.83297 -3.02953 0
M  V30 58565 O 5298.08 3.79812 -4.66933 0
M  V30 58566 H 5301.91 1.03245 -2.85612 0
M  V30 58567 H 5299.5 0.445602 -1.426 0
M  V30 58568 H 5301.38 3.44692 -2.42416 0
M  V30 58569 H 5300.05 2.9478 -1.33741 0
M  V30 58570 H 5298.96 1.73703 -3.31328 0
M  V30 58571 H 5300.29 2.30282 -4.35007 0
M  V30 58572 N 5301.94 1.49106 0.510415 0
M  V30 58573 C 5303.17 1.62072 1.29412 0
M  V30 58574 C 5303.59 0.288497 1.85874 0
M  V30 58575 O 5302.95 -0.742608 1.65394 0
M  V30 58576 C 5303 2.68514 2.40692 0
M  V30 58577 O 5302.1 2.27033 3.44282 0
M  V30 58578 H 5301.45 0.542792 0.382457 0
M  V30 58579 H 5303.98 1.9523 0.612085 0
M  V30 58580 H 5303.99 2.90393 2.86594 0
M  V30 58581 H 5302.66 3.65223 1.9896 0
M  V30 58582 H 5301.24 2.15447 3.04363 0
M  V30 58583 N 5303.42 -0.760766 1.38022 0
M  V30 58584 C 5304.35 -1.88382 1.30556 0
M  V30 58585 C 5305.37 -1.61318 0.219175 0
M  V30 58586 O 5306.56 -1.72031 0.476182 0
M  V30 58587 C 5303.66 -3.2386 0.998405 0
M  V30 58588 C 5302.83 -3.78484 2.19245 0
M  V30 58589 C 5301.89 -4.92462 1.85386 0
M  V30 58590 O 5300.91 -5.07471 2.57802 0
M  V30 58591 N 5302.12 -5.74898 0.804521 0
M  V30 58592 H 5304.88 -1.953 2.27328 0
M  V30 58593 H 5302.44 -0.940377 1.3179 0
M  V30 58594 H 5304.43 -3.97642 0.75254 0
M  V30 58595 H 5303 -3.12374 0.11888 0
M  V30 58596 H 5302.22 -2.96352 2.59941 0
M  V30 58597 H 5303.51 -4.11712 2.9895 0
M  V30 58598 H 5302.91 -5.65333 0.203826 0
M  V30 58599 H 5301.47 -6.48859 0.61853 0
M  V30 58600 N 5304.9 -1.22773 -0.988158 0
M  V30 58601 C 5305.83 -1.02634 -2.09734 0
M  V30 58602 C 5306.81 0.0542613 -1.70013 0
M  V30 58603 O 5308 -0.108879 -1.93895 0
M  V30 58604 C 5305.13 -0.608422 -3.41929 0
M  V30 58605 C 5304.08 -1.6355 -3.95519 0
M  V30 58606 C 5303.41 -1.07326 -5.23818 0
M  V30 58607 C 5304.71 -3.02664 -4.25666 0
M  V30 58608 H 5306.4 -1.95408 -2.2684 0
M  V30 58609 H 5303.95 -0.940926 -1.09007 0
M  V30 58610 H 5305.9 -0.454625 -4.1894 0
M  V30 58611 H 5304.62 0.354981 -3.24665 0
M  V30 58612 H 5303.28 -1.77715 -3.20645 0
M  V30 58613 H 5302.93 -0.101071 -5.02898 0
M  V30 58614 H 5302.63 -1.75945 -5.6064 0
M  V30 58615 H 5304.15 -0.93115 -6.03458 0
M  V30 58616 H 5305.57 -2.91845 -4.93456 0
M  V30 58617 H 5303.97 -3.6845 -4.73671 0
M  V30 58618 H 5305.04 -3.5224 -3.33249 0
M  V30 58619 N 5306.38 1.18573 -1.03818 0
M  V30 58620 C 5307.33 2.20032 -0.597486 0
M  V30 58621 C 5308.31 1.5685 0.358741 0
M  V30 58622 O 5309.51 1.76101 0.1782 0
M  V30 58623 C 5306.63 3.43276 0.0406758 0
M  V30 58624 C 5305.72 4.13584 -0.93855 0
M  V30 58625 N 5306.11 4.59934 -2.10463 0
M  V30 58626 C 5304.41 4.39407 -0.764008 0
M  V30 58627 C 5305.11 5.14031 -2.723 0
M  V30 58628 N 5304.09 5.05394 -2.00193 0
M  V30 58629 H 5307.89 2.53557 -1.48615 0
M  V30 58630 H 5305.4 1.3475 -0.906431 0
M  V30 58631 H 5307.4 4.15218 0.374076 0
M  V30 58632 H 5306.06 3.11248 0.924904 0
M  V30 58633 H 5307.07 4.54462 -2.48363 0
M  V30 58634 H 5303.75 4.17441 0.0703402 0
M  V30 58635 H 5305.14 5.60115 -3.71107 0
M  V30 58636 N 5307.86 0.817307 1.34751 0
M  V30 58637 C 5309.27 0.502363 1.51488 0
M  V30 58638 C 5309.47 -0.974506 1.76368 0
M  V30 58639 O 5308.53 -1.75918 1.81133 0
M  V30 58640 C 5309.84 1.35702 2.68338 0
M  V30 58641 C 5311.39 1.35357 2.82219 0
M  V30 58642 C 5311.87 2.19258 4.02107 0
M  V30 58643 N 5313.36 2.16852 4.09304 0
M  V30 58644 C 5314.09 2.78522 5.01211 0
M  V30 58645 N 5313.59 3.49162 5.9838 0
M  V30 58646 N 5315.38 2.68107 4.9404 0
M  V30 58647 H 5307.53 1.77363 1.1686 0
M  V30 58648 H 5309.79 0.755496 0.572651 0
M  V30 58649 H 5309.5 2.40557 2.56565 0
M  V30 58650 H 5309.37 1.01777 3.6321 0
M  V30 58651 H 5311.76 0.31283 2.93437 0
M  V30 58652 H 5311.84 1.73276 1.88173 0
M  V30 58653 H 5311.49 3.23379 3.91649 0
M  V30 58654 H 5311.42 1.78693 4.95355 0
M  V30 58655 H 5313.91 1.65464 3.3975 0
M  V30 58656 H 5314.22 3.93478 6.65128 0
M  V30 58657 H 5312.57 3.53267 5.98521 0
M  V30 58658 H 5315.76 2.125 4.17087 0
M  V30 58659 H 5315.93 3.16456 5.65473 0
M  V30 58660 N 5309.34 -1.46863 0.571763 0
M  V30 58661 C 5310.27 -2.3298 -0.155713 0
M  V30 58662 C 5311.25 -1.44681 -0.894503 0
M  V30 58663 O 5312.43 -1.73516 -0.872115 0
M  V30 58664 C 5309.56 -3.26749 -1.17696 0
M  V30 58665 C 5308.52 -4.24403 -0.553714 0
M  V30 58666 C 5307.84 -5.07601 -1.68065 0
M  V30 58667 C 5309.14 -5.19882 0.50201 0
M  V30 58668 H 5310.84 -2.94054 0.563279 0
M  V30 58669 H 5308.38 -1.41401 0.27233 0
M  V30 58670 H 5310.33 -3.85844 -1.69417 0
M  V30 58671 H 5309.06 -2.6376 -1.92609 0
M  V30 58672 H 5307.72 -3.66555 -0.0576861 0
M  V30 58673 H 5307.37 -4.41005 -2.41917 0
M  V30 58674 H 5307.07 -5.73726 -1.26933 0
M  V30 58675 H 5308.59 -5.69558 -2.20083 0
M  V30 58676 H 5310 -5.73257 0.0703072 0
M  V30 58677 H 5308.4 -5.9429 0.833024 0
M  V30 58678 H 5309.47 -4.64477 1.39245 0
M  V30 58679 N 5310.81 -0.308963 -1.54542 0
M  V30 58680 C 5312.23 0.0441713 -1.59539 0
M  V30 58681 C 5312.43 1.51739 -1.3258 0
M  V30 58682 O 5311.49 2.2713 -1.1031 0
M  V30 58683 C 5312.8 -0.360931 -2.98526 0
M  V30 58684 C 5314.35 -0.310361 -3.11457 0
M  V30 58685 C 5314.82 -0.690405 -4.52766 0
M  V30 58686 N 5316.31 -0.643246 -4.58712 0
M  V30 58687 C 5317.05 -0.909682 -5.66138 0
M  V30 58688 N 5316.54 -1.2425 -6.81567 0
M  V30 58689 N 5318.34 -0.836214 -5.55845 0
M  V30 58690 H 5310.49 -1.26899 -1.70325 0
M  V30 58691 H 5312.75 -0.515014 -0.795905 0
M  V30 58692 H 5312.46 -1.3868 -3.23204 0
M  V30 58693 H 5312.33 0.28143 -3.76149 0
M  V30 58694 H 5314.72 0.706274 -2.86524 0
M  V30 58695 H 5314.8 -0.987456 -2.35972 0
M  V30 58696 H 5314.44 -1.70489 -4.78431 0
M  V30 58697 H 5314.37 0.00884562 -5.26599 0
M  V30 58698 H 5316.86 -0.39727 -3.75806 0
M  V30 58699 H 5317.18 -1.43157 -7.59425 0
M  V30 58700 H 5315.52 -1.28062 -6.831 0
M  V30 58701 H 5318.71 -0.5758 -4.64545 0
M  V30 58702 H 5318.89 -1.04722 -6.39482 0
M  V30 58703 N 5312.29 1.57557 -0.0368381 0
M  V30 58704 C 5313.22 2.07601 0.971322 0
M  V30 58705 C 5314.24 1.00095 1.28394 0
M  V30 58706 O 5315.43 1.27696 1.24724 0
M  V30 58707 C 5312.53 2.49208 2.29671 0
M  V30 58708 C 5311.7 3.79883 2.16813 0
M  V30 58709 C 5310.76 4.07957 3.32351 0
M  V30 58710 O 5309.78 4.78094 3.08893 0
M  V30 58711 N 5310.99 3.58738 4.56385 0
M  V30 58712 H 5313.75 2.94716 0.544285 0
M  V30 58713 H 5311.31 1.61206 0.149743 0
M  V30 58714 H 5313.3 2.65076 3.05806 0
M  V30 58715 H 5311.87 1.67417 2.63989 0
M  V30 58716 H 5311.09 3.73737 1.25357 0
M  V30 58717 H 5312.38 4.65483 2.05433 0
M  V30 58718 H 5311.78 3.02011 4.78336 0
M  V30 58719 H 5310.34 3.79871 5.29662 0
M  V30 58720 N 5313.77 -0.236398 1.55817 0
M  V30 58721 C 5314.7 -1.29632 1.94211 0
M  V30 58722 C 5315.68 -1.49664 0.808372 0
M  V30 58723 O 5316.87 -1.62097 1.0695 0
M  V30 58724 C 5314 -2.64906 2.24593 0
M  V30 58725 C 5312.95 -2.59553 3.40318 0
M  V30 58726 C 5312.28 -3.98719 3.56268 0
M  V30 58727 C 5313.58 -2.15625 4.75713 0
M  V30 58728 H 5315.27 -0.977453 2.82995 0
M  V30 58729 H 5312.82 -0.468756 1.36157 0
M  V30 58730 H 5314.77 -3.392 2.50043 0
M  V30 58731 H 5313.49 -2.9845 1.32646 0
M  V30 58732 H 5312.15 -1.87717 3.14894 0
M  V30 58733 H 5311.8 -4.29547 2.61723 0
M  V30 58734 H 5311.5 -3.96024 4.34096 0
M  V30 58735 H 5313.02 -4.74698 3.8405 0
M  V30 58736 H 5314.44 -2.79655 5.00466 0
M  V30 58737 H 5312.83 -2.24019 5.56718 0
M  V30 58738 H 5313.9 -1.10814 4.72068 0
M  V30 58739 N 5315.25 -1.49374 -0.5025 0
M  V30 58740 C 5316.18 -1.68845 -1.61288 0
M  V30 58741 C 5317.16 -0.537153 -1.61396 0
M  V30 58742 O 5318.34 -0.772827 -1.7816 0
M  V30 58743 C 5315.47 -1.75358 -2.99778 0
M  V30 58744 C 5314.43 -2.90262 -3.14535 0
M  V30 58745 C 5313.75 -2.81886 -4.54361 0
M  V30 58746 C 5315.05 -4.31217 -2.94702 0
M  V30 58747 H 5316.75 -2.61808 -1.45248 0
M  V30 58748 H 5314.29 -1.2599 -0.697326 0
M  V30 58749 H 5316.25 -1.87565 -3.77356 0
M  V30 58750 H 5314.97 -0.789925 -3.16903 0
M  V30 58751 H 5313.63 -2.77654 -2.39382 0
M  V30 58752 H 5313.28 -1.83432 -4.68361 0
M  V30 58753 H 5312.98 -3.59006 -4.65176 0
M  V30 58754 H 5314.5 -2.961 -5.34001 0
M  V30 58755 H 5315.92 -4.44514 -3.6205 0
M  V30 58756 H 5314.31 -5.09547 -3.16989 0
M  V30 58757 H 5315.38 -4.45766 -1.90842 0
M  V30 58758 N 5316.73 0.753436 -1.38424 0
M  V30 58759 C 5317.64 1.89792 -1.37899 0
M  V30 58760 C 5318.65 1.71796 -0.276083 0
M  V30 58761 O 5319.83 1.94717 -0.514532 0
M  V30 58762 C 5316.89 3.25161 -1.20296 0
M  V30 58763 C 5315.95 3.55682 -2.40392 0
M  V30 58764 C 5315.19 4.84593 -2.23619 0
M  V30 58765 O 5315.41 5.56981 -1.22998 0
M  V30 58766 O 5314.34 5.14594 -3.12212 0
M  V30 58767 H 5318.17 1.93189 -2.34333 0
M  V30 58768 H 5315.75 0.898733 -1.19345 0
M  V30 58769 H 5317.64 4.06095 -1.12539 0
M  V30 58770 H 5316.31 3.22576 -0.269465 0
M  V30 58771 H 5315.22 2.7491 -2.53723 0
M  V30 58772 H 5316.55 3.63029 -3.32372 0
M  V30 58773 N 5318.2 1.23295 0.981634 0
M  V30 58774 C 5319.14 0.970855 2.07622 0
M  V30 58775 C 5320.15 -0.0546934 1.62708 0
M  V30 58776 O 5321.34 0.180686 1.77583 0
M  V30 58777 C 5318.44 0.440668 3.36023 0
M  V30 58778 C 5317.61 1.52609 4.09914 0
M  V30 58779 C 5316.67 1.001 5.16591 0
M  V30 58780 O 5315.7 1.6897 5.43542 0
M  V30 58781 N 5316.9 -0.171813 5.80246 0
M  V30 58782 H 5319.66 1.91324 2.30684 0
M  V30 58783 H 5317.22 1.14137 1.14824 0
M  V30 58784 H 5319.22 0.0744533 4.04632 0
M  V30 58785 H 5317.79 -0.407102 3.09938 0
M  V30 58786 H 5317.01 2.06513 3.35777 0
M  V30 58787 H 5318.29 2.25606 4.56047 0
M  V30 58788 H 5317.69 -0.747932 5.60734 0
M  V30 58789 H 5316.25 -0.479304 6.50035 0
M  V30 58790 N 5319.68 -1.1802 1.04446 0
M  V30 58791 C 5321.09 -1.69746 0.777372 0
M  V30 58792 C 5321.44 -1.83237 -0.701334 0
M  V30 58793 O 5320.57 -1.51457 -1.54563 0
M  V30 58794 C 5321.16 -3.08316 1.40451 0
M  V30 58795 C 5319.72 -3.57238 1.18565 0
M  V30 58796 C 5318.87 -2.3369 1.49279 0
M  V30 58797 H 5321.82 -1.02642 1.21038 0
M  V30 58798 H 5321.84 -3.71784 0.809759 0
M  V30 58799 H 5321.35 -2.98465 2.48073 0
M  V30 58800 H 5319.45 -3.72379 0.128352 0
M  V30 58801 H 5319.57 -4.40445 1.88534 0
M  V30 58802 H 5317.93 -2.37789 0.91261 0
M  V30 58803 H 5318.71 -2.26455 2.58018 0
M  V30 58804 N 5321.16 -0.824441 -1.34316 0
M  V30 58805 C 5322.09 -0.204885 -2.28282 0
M  V30 58806 C 5323.11 0.606109 -1.51097 0
M  V30 58807 O 5324.29 0.435541 -1.73105 0
M  V30 58808 C 5321.39 0.731274 -3.30916 0
M  V30 58809 C 5320.57 -0.037226 -4.37384 0
M  V30 58810 C 5319.63 0.820089 -5.1977 0
M  V30 58811 O 5318.65 0.264521 -5.68585 0
M  V30 58812 N 5319.85 2.13965 -5.39629 0
M  V30 58813 H 5322.62 -1.0122 -2.8209 0
M  V30 58814 H 5320.18 -0.681545 -1.46856 0
M  V30 58815 H 5322.17 1.30945 -3.8293 0
M  V30 58816 H 5320.74 1.43933 -2.77492 0
M  V30 58817 H 5319.96 -0.796714 -3.86065 0
M  V30 58818 H 5321.25 -0.566192 -5.0564 0
M  V30 58819 H 5320.65 2.61474 -5.01645 0
M  V30 58820 H 5319.21 2.66664 -5.94755 0
M  V30 58821 N 5322.64 1.46557 -0.579543 0
M  V30 58822 C 5323.6 2.28739 0.145291 0
M  V30 58823 C 5324.6 1.38214 0.821806 0
M  V30 58824 O 5325.79 1.60622 0.674246 0
M  V30 58825 C 5322.92 3.18512 1.21503 0
M  V30 58826 H 5324.12 2.94299 -0.57689 0
M  V30 58827 H 5321.67 1.52615 -0.337381 0
M  V30 58828 H 5322.4 2.57692 1.96889 0
M  V30 58829 H 5322.19 3.85159 0.73448 0
M  V30 58830 H 5323.68 3.80375 1.7235 0
M  V30 58831 N 5324.12 0.317154 1.54376 0
M  V30 58832 C 5325.03 -0.560787 2.27799 0
M  V30 58833 C 5326.04 -1.13469 1.31912 0
M  V30 58834 O 5327.22 -1.15603 1.64918 0
M  V30 58835 C 5324.28 -1.70875 3.01666 0
M  V30 58836 C 5323.34 -1.16731 4.13125 0
M  V30 58837 C 5322.58 -2.26056 4.83461 0
M  V30 58838 O 5322.8 -3.46276 4.53265 0
M  V30 58839 O 5321.73 -1.91836 5.70511 0
M  V30 58840 H 5325.56 0.0352998 3.03679 0
M  V30 58841 H 5323.15 0.0830587 1.49169 0
M  V30 58842 H 5325.03 -2.37723 3.47945 0
M  V30 58843 H 5323.7 -2.29114 2.28666 0
M  V30 58844 H 5322.61 -0.464094 3.7121 0
M  V30 58845 H 5323.94 -0.630135 4.8815 0
M  V30 58846 N 5325.59 -1.57535 0.0451932 0
M  V30 58847 C 5326.56 -2.10083 -0.916387 0
M  V30 58848 C 5327.56 -1.01918 -1.24376 0
M  V30 58849 O 5328.75 -1.28014 -1.18144 0
M  V30 58850 C 5325.88 -2.58009 -2.22809 0
M  V30 58851 H 5327.07 -2.96336 -0.460971 0
M  V30 58852 H 5324.63 -1.54975 -0.203114 0
M  V30 58853 H 5325.36 -1.75133 -2.72945 0
M  V30 58854 H 5325.15 -3.37047 -2.00354 0
M  V30 58855 H 5326.64 -2.98833 -2.917 0
M  V30 58856 N 5327.07 0.228132 -1.5594 0
M  V30 58857 C 5328.02 1.28267 -1.91876 0
M  V30 58858 C 5328.99 1.46903 -0.775154 0
M  V30 58859 O 5330.17 1.6058 -1.03047 0
M  V30 58860 C 5327.31 2.62937 -2.23514 0
M  V30 58861 C 5326.43 2.52153 -3.50774 0
M  V30 58862 C 5325.56 3.79302 -3.71891 0
M  V30 58863 C 5324.6 3.63214 -4.92689 0
M  V30 58864 N 5323.74 4.82297 -5.10229 0
M  V30 58865 H 5328.58 0.96921 -2.81798 0
M  V30 58866 H 5326.12 0.467282 -1.39481 0
M  V30 58867 H 5328.07 3.41351 -2.39866 0
M  V30 58868 H 5326.7 2.92392 -1.36772 0
M  V30 58869 H 5325.76 1.65209 -3.42652 0
M  V30 58870 H 5327.07 2.36183 -4.39339 0
M  V30 58871 H 5326.22 4.6616 -3.88304 0
M  V30 58872 H 5324.96 3.98191 -2.81595 0
M  V30 58873 H 5323.97 2.74741 -4.76233 0
M  V30 58874 H 5325.19 3.45803 -5.84463 0
M  V30 58875 H 5323.14 5.01511 -4.22874 0
M  V30 58876 H 5323.05 4.69029 -5.92915 0
M  V30 58877 H 5324.32 5.706 -5.31071 0
M  V30 58878 N 5328.55 1.49639 0.494571 0
M  V30 58879 C 5329.8 1.59686 1.25013 0
M  V30 58880 C 5330.13 0.285578 1.92089 0
M  V30 58881 O 5329.4 -0.711334 1.81026 0
M  V30 58882 C 5329.69 2.76066 2.31213 0
M  V30 58883 C 5329.54 4.17008 1.68596 0
M  V30 58884 C 5330.86 2.88068 3.32723 0
M  V30 58885 H 5327.98 0.581225 0.453151 0
M  V30 58886 H 5330.62 1.81946 0.547327 0
M  V30 58887 H 5328.77 2.57218 2.91155 0
M  V30 58888 H 5330.44 4.47389 1.12432 0
M  V30 58889 H 5328.69 4.22356 0.989843 0
M  V30 58890 H 5329.36 4.94325 2.45656 0
M  V30 58891 H 5331.83 3.05247 2.82779 0
M  V30 58892 H 5330.71 3.71165 4.04386 0
M  V30 58893 H 5330.97 1.9769 3.95438 0
M  V30 58894 N 5330.03 -0.746085 1.38821 0
M  V30 58895 C 5330.98 -1.88133 1.3678 0
M  V30 58896 C 5331.97 -1.67507 0.252554 0
M  V30 58897 O 5333.18 -1.74983 0.421997 0
M  V30 58898 H 5329.55 -0.6191 0.426871 0
M  V30 58899 H 5331.52 -1.8697 2.32561 0
M  V30 58900 C 5330.27 -3.25699 1.21719 0
M  V30 58901 H 5329.59 -3.4216 2.068 0
M  V30 58902 H 5331.03 -4.05357 1.24346 0
M  V30 58903 C 5329.49 -3.36816 -0.0753073 0
M  V30 58904 O 5330.02 -3.87745 -1.04959 0
M  V30 58905 N 5328.23 -2.90288 -0.134659 0
M  V30 58906 H 5327.78 -2.49032 0.658866 0
M  V30 58907 H 5327.73 -2.98106 -0.999004 0
M  V30 58908 N 5331.51 -1.23814 -0.975081 0
M  V30 58909 C 5332.75 -1.0713 -1.7137 0
M  V30 58910 C 5333.08 0.391797 -1.91023 0
M  V30 58911 O 5332.35 1.28035 -1.48269 0
M  V30 58912 H 5330.93 -0.393437 -0.634993 0
M  V30 58913 H 5333.59 -1.55616 -1.17344 0
M  V30 58914 H 5332.68 -1.56348 -2.70114 0
M  V30 58915 N 5332.98 1.17465 -1.0507 0
M  V30 58916 C 5334.21 1.91618 -0.780401 0
M  V30 58917 C 5334.63 1.76748 0.663755 0
M  V30 58918 O 5333.98 1.10382 1.45335 0
M  V30 58919 C 5334.04 3.42719 -1.15004 0
M  V30 58920 O 5333.76 3.5713 -2.53751 0
M  V30 58921 C 5335.26 4.33949 -0.905702 0
M  V30 58922 H 5332.48 0.608012 -0.283836 0
M  V30 58923 H 5335.02 1.48965 -1.40105 0
M  V30 58924 H 5333.18 3.83122 -0.574165 0
M  V30 58925 H 5333.59 4.5074 -2.68204 0
M  V30 58926 H 5335.06 5.38483 -1.21409 0
M  V30 58927 H 5335.54 4.38912 0.159141 0
M  V30 58928 H 5336.15 3.99258 -1.46536 0
M  V30 58929 N 5334.46 0.831553 1.33877 0
M  V30 58930 C 5335.69 0.436996 2.02232 0
M  V30 58931 C 5336.11 -0.959632 1.62593 0
M  V30 58932 O 5335.46 -1.62245 0.835633 0
M  V30 58933 C 5335.51 0.539554 3.57451 0
M  V30 58934 O 5335.23 1.88115 3.95657 0
M  V30 58935 C 5336.74 0.141008 4.43076 0
M  V30 58936 H 5333.96 0.174325 0.64796 0
M  V30 58937 H 5336.5 1.1221 1.70965 0
M  V30 58938 H 5334.65 -0.0975598 3.87277 0
M  V30 58939 H 5335.07 1.86148 4.90356 0
M  V30 58940 H 5336.54 0.263833 5.51369 0
M  V30 58941 H 5337.02 -0.916354 4.29534 0
M  V30 58942 H 5337.63 0.752265 4.18594 0
M  V30 58943 N 5335.94 -1.46248 0.587307 0
M  V30 58944 C 5337.19 -2.02662 0.0747563 0
M  V30 58945 C 5337.52 -1.45728 -1.28363 0
M  V30 58946 O 5336.8 -0.624127 -1.84214 0
M  V30 58947 C 5337.08 -3.60097 0.0139374 0
M  V30 58948 C 5336.93 -4.27407 1.40155 0
M  V30 58949 C 5338.25 -4.34747 -0.684338 0
M  V30 58950 H 5335.37 -0.736443 0.0286403 0
M  V30 58951 H 5338.01 -1.74338 0.755389 0
M  V30 58952 H 5336.16 -3.84359 -0.565695 0
M  V30 58953 H 5337.83 -4.14394 2.0267 0
M  V30 58954 H 5336.08 -3.86591 1.96799 0
M  V30 58955 H 5336.75 -5.36196 1.31142 0
M  V30 58956 H 5339.22 -4.15657 -0.191877 0
M  V30 58957 H 5338.1 -5.4447 -0.695936 0
M  V30 58958 H 5338.36 -4.06138 -1.74655 0
M  V30 58959 N 5337.42 -0.325336 -1.54205 0
M  V30 58960 C 5338.64 0.281346 -2.05483 0
M  V30 58961 C 5339.07 1.44865 -1.19982 0
M  V30 58962 O 5338.43 1.80087 -0.209338 0
M  V30 58963 C 5338.48 0.691905 -3.539 0
M  V30 58964 O 5337.58 1.79407 -3.71331 0
M  V30 58965 H 5336.92 0.0504639 -0.66208 0
M  V30 58966 H 5339.45 -0.474261 -1.99027 0
M  V30 58967 H 5339.46 0.974079 -3.96202 0
M  V30 58968 H 5338.14 -0.161856 -4.15585 0
M  V30 58969 H 5336.71 1.51057 -3.40934 0
M  V30 58970 N 5338.9 1.57509 -0.0535471 0
M  V30 58971 C 5340.12 1.97513 0.632725 0
M  V30 58972 C 5340.55 0.931004 1.63444 0
M  V30 58973 O 5339.91 -0.105494 1.80993 0
M  V30 58974 C 5339.95 3.36585 1.29395 0
M  V30 58975 O 5339.06 3.34678 2.40965 0
M  V30 58976 H 5338.4 0.643355 0.164287 0
M  V30 58977 H 5340.93 2.04232 -0.122652 0
M  V30 58978 H 5340.94 3.73365 1.64508 0
M  V30 58979 H 5339.61 4.12115 0.559831 0
M  V30 58980 H 5338.19 3.09647 2.07782 0
M  V30 58981 N 5340.38 -0.219858 1.56059 0
M  V30 58982 C 5341.79 -0.786706 1.69316 0
M  V30 58983 C 5342.14 -1.84914 0.655847 0
M  V30 58984 O 5341.26 -2.1554 -0.192696 0
M  V30 58985 C 5341.86 -1.43376 3.06967 0
M  V30 58986 C 5340.42 -1.94798 3.22073 0
M  V30 58987 C 5339.56 -0.80877 2.65244 0
M  V30 58988 H 5342.51 0.00482356 1.58699 0
M  V30 58989 H 5342.54 -2.30261 3.02919 0
M  V30 58990 H 5342.05 -0.660271 3.82442 0
M  V30 58991 H 5340.15 -2.74943 2.5147 0
M  V30 58992 H 5340.26 -2.12679 4.29307 0
M  V30 58993 H 5338.63 -1.21654 2.23769 0
M  V30 58994 H 5339.41 -0.0479251 3.43267 0
M  V30 58995 N 5341.85 -1.49899 -0.486629 0
M  V30 58996 C 5343.08 -1.64111 -1.26817 0
M  V30 58997 C 5343.5 -0.318032 -1.85392 0
M  V30 58998 O 5342.86 0.716202 -1.66554 0
M  V30 58999 C 5342.91 -2.72309 -2.3639 0
M  V30 59000 O 5342.01 -2.32481 -3.40626 0
M  V30 59001 H 5341.35 -0.548807 -0.373773 0
M  V30 59002 H 5343.88 -1.96179 -0.580948 0
M  V30 59003 H 5343.89 -2.94916 -2.81938 0
M  V30 59004 H 5342.57 -3.68342 -1.93125 0
M  V30 59005 H 5341.15 -2.20262 -3.00897 0
M  V30 59006 N 5343.33 0.738712 -1.39215 0
M  V30 59007 C 5344.56 1.52796 -1.39502 0
M  V30 59008 C 5344.97 1.88797 0.0114253 0
M  V30 59009 O 5344.33 1.53839 0.981833 0
M  V30 59010 C 5344.38 2.81785 -2.2645 0
M  V30 59011 O 5344.1 2.47315 -3.61617 0
M  V30 59012 C 5345.6 3.75836 -2.3508 0
M  V30 59013 H 5342.82 0.472305 -0.476623 0
M  V30 59014 H 5345.37 0.913089 -1.82983 0
M  V30 59015 H 5343.52 3.39613 -1.86392 0
M  V30 59016 H 5343.94 3.30148 -4.07557 0
M  V30 59017 H 5345.41 4.6325 -3.00173 0
M  V30 59018 H 5345.89 4.17324 -1.36885 0
M  V30 59019 H 5346.49 3.23928 -2.75592 0
M  V30 59020 N 5344.81 1.24329 0.968501 0
M  V30 59021 C 5346.03 1.11046 1.75167 0
M  V30 59022 C 5346.46 -0.333044 1.85128 0
M  V30 59023 O 5345.82 -1.2411 1.3216 0
M  V30 59024 C 5345.87 1.75408 3.15062 0
M  V30 59025 O 5344.97 1.02431 3.99477 0
M  V30 59026 H 5344.31 0.388507 0.538478 0
M  V30 59027 H 5346.84 1.64622 1.21494 0
M  V30 59028 H 5346.85 1.81133 3.65589 0
M  V30 59029 H 5345.53 2.80438 3.07128 0
M  V30 59030 H 5344.1 1.04487 3.57962 0
M  V30 59031 N 5346.29 -1.16906 1.05692 0
M  V30 59032 C 5347.22 -2.23273 0.683481 0
M  V30 59033 C 5348.2 -1.67041 -0.321147 0
M  V30 59034 O 5349.38 -1.93192 -0.197623 0
M  V30 59035 C 5346.51 -3.47243 0.0627227 0
M  V30 59036 C 5345.47 -4.1633 0.992659 0
M  V30 59037 C 5344.79 -5.34181 0.235518 0
M  V30 59038 C 5346.09 -4.67994 2.31903 0
M  V30 59039 H 5347.79 -2.54766 1.57273 0
M  V30 59040 H 5345.33 -1.22457 0.757649 0
M  V30 59041 H 5347.29 -4.20875 -0.210355 0
M  V30 59042 H 5346.01 -3.15033 -0.861506 0
M  V30 59043 H 5344.67 -3.44617 1.25038 0
M  V30 59044 H 5344.32 -4.98222 -0.691635 0
M  V30 59045 H 5344.02 -5.81343 0.855206 0
M  V30 59046 H 5345.54 -6.10593 -0.030157 0
M  V30 59047 H 5346.96 -5.33237 2.1055 0
M  V30 59048 H 5345.35 -5.25754 2.89314 0
M  V30 59049 H 5346.42 -3.84531 2.95405 0
M  V30 59050 N 5347.77 -0.838641 -1.33434 0
M  V30 59051 C 5348.7 -0.229086 -2.28052 0
M  V30 59052 C 5349.71 0.590049 -1.51731 0
M  V30 59053 O 5350.9 0.417157 -1.73557 0
M  V30 59054 C 5348 0.696134 -3.31673 0
M  V30 59055 C 5347.17 -0.0836144 -4.3732 0
M  V30 59056 C 5346.23 0.764914 -5.20611 0
M  V30 59057 O 5345.26 0.2042 -5.68834 0
M  V30 59058 N 5346.46 2.0823 -5.41868 0
M  V30 59059 H 5349.22 -1.04206 -2.81 0
M  V30 59060 H 5346.79 -0.697083 -1.46124 0
M  V30 59061 H 5348.78 1.26876 -3.84298 0
M  V30 59062 H 5347.35 1.40982 -2.79003 0
M  V30 59063 H 5346.57 -0.837616 -3.85198 0
M  V30 59064 H 5347.86 -0.61979 -5.05011 0
M  V30 59065 H 5347.25 2.56139 -5.0439 0
M  V30 59066 H 5345.81 2.60341 -5.9755 0
M  V30 59067 N 5349.24 1.45934 -0.595055 0
M  V30 59068 C 5350.66 1.57506 -0.257696 0
M  V30 59069 C 5350.86 1.58834 1.23992 0
M  V30 59070 O 5349.92 1.51191 2.02232 0
M  V30 59071 C 5351.23 2.86351 -0.917809 0
M  V30 59072 C 5352.78 3.00004 -0.892552 0
M  V30 59073 C 5353.25 4.31602 -1.53244 0
M  V30 59074 N 5354.74 4.38331 -1.49735 0
M  V30 59075 C 5355.48 5.38799 -1.96172 0
M  V30 59076 N 5354.97 6.45873 -2.50639 0
M  V30 59077 N 5356.77 5.30077 -1.87015 0
M  V30 59078 H 5348.92 1.43316 -1.56762 0
M  V30 59079 H 5351.18 0.684413 -0.65596 0
M  V30 59080 H 5350.89 2.91226 -1.97182 0
M  V30 59081 H 5350.76 3.74701 -0.433475 0
M  V30 59082 H 5353.15 2.94704 0.152871 0
M  V30 59083 H 5353.23 2.13098 -1.41503 0
M  V30 59084 H 5352.87 4.37661 -2.57712 0
M  V30 59085 H 5352.8 5.17304 -0.985085 0
M  V30 59086 H 5355.29 3.61556 -1.09933 0
M  V30 59087 H 5355.61 7.18764 -2.83899 0
M  V30 59088 H 5353.95 6.46659 -2.54672 0
M  V30 59089 H 5357.14 4.45332 -1.44212 0
M  V30 59090 H 5357.32 6.08229 -2.2352 0
M  V30 59091 N 5350.72 0.33351 1.54031 0
M  V30 59092 C 5351.95 -0.270445 2.05629 0
M  V30 59093 C 5352.37 -1.44227 1.20749 0
M  V30 59094 O 5351.73 -1.79974 0.218886 0
M  V30 59095 C 5351.78 -0.673127 3.54262 0
M  V30 59096 O 5350.88 -1.77435 3.72277 0
M  V30 59097 H 5350.22 -0.046952 0.662338 0
M  V30 59098 H 5352.75 0.484809 1.98773 0
M  V30 59099 H 5352.76 -0.953054 3.96713 0
M  V30 59100 H 5351.44 0.183893 4.15493 0
M  V30 59101 H 5350.02 -1.49247 3.41731 0
M  V30 59102 N 5352.2 -1.57478 0.0618994 0
M  V30 59103 C 5353.48 -1.84487 -0.649928 0
M  V30 59104 C 5353.86 -0.952433 -1.88393 0
M  V30 59105 O 5353.21 -0.0161838 -2.28494 0
M  V30 59106 C 5353.42 -3.34456 -0.997016 0
M  V30 59107 C 5354.76 -4.01729 -1.37474 0
M  V30 59108 O 5355.79 -3.39144 -1.08904 0
M  V30 59109 O 5354.65 -5.12098 -1.90836 0
M  V30 59110 H 5351.74 -0.76181 -0.321831 0
M  V30 59111 H 5354.29 -1.6945 0.0920787 0
M  V30 59112 H 5353.06 -3.91115 -0.120164 0
M  V30 59113 H 5352.68 -3.54719 -1.79611 0
M  V30 59114 N 5353.68 0.211579 -1.56173 0
M  V30 59115 C 5354.9 0.955259 -1.84091 0
M  V30 59116 C 5355.33 1.76751 -0.643469 0
M  V30 59117 O 5354.69 1.76655 0.40778 0
M  V30 59118 C 5354.73 1.84053 -3.10092 0
M  V30 59119 O 5353.84 2.9372 -2.89486 0
M  V30 59120 H 5353.18 0.269939 -0.606654 0
M  V30 59121 H 5355.71 0.221876 -2.03393 0
M  V30 59122 H 5355.72 2.2484 -3.40457 0
M  V30 59123 H 5354.39 1.24359 -3.96872 0
M  V30 59124 H 5352.97 2.56806 -2.70379 0
M  V30 59125 N 5355.16 1.50155 0.478672 0
M  V30 59126 C 5356.38 1.64781 1.25945 0
M  V30 59127 C 5356.81 0.327859 1.85221 0
M  V30 59128 O 5356.16 -0.707359 1.66931 0
M  V30 59129 C 5356.21 2.73559 2.34942 0
M  V30 59130 O 5355.32 2.34284 3.39388 0
M  V30 59131 H 5354.66 0.550782 0.370858 0
M  V30 59132 H 5357.19 1.96484 0.570536 0
M  V30 59133 H 5357.2 2.96407 2.8037 0
M  V30 59134 H 5355.87 3.69361 1.91168 0
M  V30 59135 H 5354.45 2.21854 2.99725 0
M  V30 59136 N 5356.63 -0.731319 1.39605 0
M  V30 59137 C 5357.57 -1.8557 1.34522 0
M  V30 59138 C 5358.58 -1.60817 0.253344 0
M  V30 59139 O 5359.77 -1.70983 0.512565 0
M  V30 59140 C 5356.87 -3.21669 1.06688 0
M  V30 59141 C 5356.04 -3.73749 2.27224 0
M  V30 59142 C 5355.1 -4.88419 1.9579 0
M  V30 59143 O 5354.13 -5.01888 2.68509 0
M  V30 59144 N 5355.33 -5.73062 0.926284 0
M  V30 59145 H 5358.09 -1.90434 2.3142 0
M  V30 59146 H 5355.65 -0.912211 1.33755 0
M  V30 59147 H 5357.65 -3.95956 0.836716 0
M  V30 59148 H 5356.22 -3.12051 0.185112 0
M  V30 59149 H 5355.44 -2.90771 2.66168 0
M  V30 59150 H 5356.72 -4.05278 3.07616 0
M  V30 59151 H 5356.12 -5.64773 0.323696 0
M  V30 59152 H 5354.68 -6.47401 0.756023 0
M  V30 59153 N 5358.11 -1.24841 -0.961894 0
M  V30 59154 C 5359.52 -1.08374 -1.52026 0
M  V30 59155 C 5359.87 0.342937 -1.9318 0
M  V30 59156 O 5359 1.23203 -1.77904 0
M  V30 59157 C 5359.59 -1.96112 -2.76271 0
M  V30 59158 C 5358.15 -1.83851 -3.28444 0
M  V30 59159 C 5357.3 -1.90698 -2.0132 0
M  V30 59160 H 5360.25 -1.38233 -0.779564 0
M  V30 59161 H 5360.27 -1.49682 -3.49822 0
M  V30 59162 H 5359.78 -2.9994 -2.46288 0
M  V30 59163 H 5357.89 -0.828781 -3.63266 0
M  V30 59164 H 5358 -2.68265 -3.96952 0
M  V30 59165 H 5356.36 -1.34495 -2.16294 0
M  V30 59166 H 5357.15 -2.96117 -1.73694 0
M  V30 59167 N 5359.59 1.16344 -1.0631 0
M  V30 59168 C 5360.52 2.19665 -0.618274 0
M  V30 59169 C 5361.5 1.58587 0.359022 0
M  V30 59170 O 5362.69 1.86586 0.267957 0
M  V30 59171 C 5359.81 3.38571 0.0935901 0
M  V30 59172 C 5358.86 4.18136 -0.840486 0
M  V30 59173 S 5359.69 4.81871 -2.33582 0
M  V30 59174 C 5360.85 6.04155 -1.63545 0
M  V30 59175 H 5361.08 2.57057 -1.49361 0
M  V30 59176 H 5358.61 1.27138 -0.87609 0
M  V30 59177 H 5360.57 4.07467 0.498084 0
M  V30 59178 H 5359.23 2.99543 0.945125 0
M  V30 59179 H 5358.43 5.03171 -0.288958 0
M  V30 59180 H 5358.03 3.54735 -1.18487 0
M  V30 59181 H 5360.32 6.70931 -0.94114 0
M  V30 59182 H 5361.26 6.63858 -2.46371 0
M  V30 59183 H 5361.67 5.53319 -1.11797 0
M  V30 59184 N 5361.07 0.845705 1.32987 0
M  V30 59185 C 5362 0.299039 2.31577 0
M  V30 59186 C 5362.98 -0.596956 1.59281 0
M  V30 59187 O 5364.16 -0.519077 1.87134 0
M  V30 59188 C 5361.29 -0.520988 3.4337 0
M  V30 59189 C 5360.25 0.279801 4.27084 0
M  V30 59190 C 5359.57 -0.664404 5.30556 0
M  V30 59191 C 5360.87 1.50064 5.00278 0
M  V30 59192 H 5362.57 1.12282 2.77549 0
M  V30 59193 H 5360.11 0.541367 1.33436 0
M  V30 59194 H 5362.07 -0.913776 4.11373 0
M  V30 59195 H 5360.79 -1.37804 2.96104 0
M  V30 59196 H 5359.45 0.654233 3.60715 0
M  V30 59197 H 5359.1 -1.51805 4.79546 0
M  V30 59198 H 5358.8 -0.132665 5.8745 0
M  V30 59199 H 5360.32 -1.05456 6.01424 0
M  V30 59200 H 5361.74 1.18063 5.61012 0
M  V30 59201 H 5360.13 1.96966 5.66855 0
M  V30 59202 H 5361.2 2.26674 4.28657 0
M  V30 59203 N 5362.55 -1.45617 0.602786 0
M  V30 59204 C 5363.48 -2.33258 -0.10626 0
M  V30 59205 C 5364.46 -1.46546 -0.863612 0
M  V30 59206 O 5365.64 -1.75327 -0.835113 0
M  V30 59207 C 5362.77 -3.29172 -1.10739 0
M  V30 59208 C 5361.73 -4.25482 -0.463567 0
M  V30 59209 C 5361.05 -5.11051 -1.5726 0
M  V30 59210 C 5362.35 -5.187 0.612172 0
M  V30 59211 H 5364.05 -2.92793 0.625526 0
M  V30 59212 H 5361.59 -1.40792 0.302262 0
M  V30 59213 H 5363.55 -3.89351 -1.61194 0
M  V30 59214 H 5362.27 -2.67786 -1.86971 0
M  V30 59215 H 5360.93 -3.66595 0.0200785 0
M  V30 59216 H 5360.58 -4.46037 -2.32508 0
M  V30 59217 H 5360.28 -5.7629 -1.14735 0
M  V30 59218 H 5361.8 -5.74098 -2.07952 0
M  V30 59219 H 5363.21 -5.72979 0.191888 0
M  V30 59220 H 5361.61 -5.92389 0.958894 0
M  V30 59221 H 5362.68 -4.61419 1.49066 0
M  V30 59222 N 5364.02 -0.341674 -1.53852 0
M  V30 59223 C 5365.44 0.0103208 -1.59597 0
M  V30 59224 C 5365.64 1.48892 -1.35769 0
M  V30 59225 O 5364.7 2.24739 -1.15103 0
M  V30 59226 C 5366.01 -0.424171 -2.97693 0
M  V30 59227 C 5367.56 -0.376356 -3.10729 0
M  V30 59228 C 5368.03 -0.786288 -4.512 0
M  V30 59229 N 5369.52 -0.740401 -4.57244 0
M  V30 59230 C 5370.26 -1.02956 -5.64081 0
M  V30 59231 N 5369.75 -1.38679 -6.78778 0
M  V30 59232 N 5371.55 -0.953928 -5.53946 0
M  V30 59233 H 5363.7 -1.30483 -1.67594 0
M  V30 59234 H 5365.96 -0.531781 -0.784801 0
M  V30 59235 H 5365.67 -1.45504 -3.2019 0
M  V30 59236 H 5365.54 0.20158 -3.76661 0
M  V30 59237 H 5367.93 0.64534 -2.87957 0
M  V30 59238 H 5368.01 -1.03729 -2.33825 0
M  V30 59239 H 5367.65 -1.80598 -4.74707 0
M  V30 59240 H 5367.58 -0.102856 -5.265 0
M  V30 59241 H 5370.07 -0.476894 -3.74879 0
M  V30 59242 H 5370.39 -1.59233 -7.56217 0
M  V30 59243 H 5368.73 -1.42522 -6.8023 0
M  V30 59244 H 5371.92 -0.674207 -4.63219 0
M  V30 59245 H 5372.1 -1.18263 -6.37117 0
M  V30 59246 N 5365.5 1.57443 -0.07025 0
M  V30 59247 C 5366.75 1.93718 0.60011 0
M  V30 59248 C 5367.08 0.950388 1.69355 0
M  V30 59249 O 5366.36 -0.0206439 1.94489 0
M  V30 59250 C 5366.64 3.4027 1.17849 0
M  V30 59251 C 5366.49 4.49706 0.0917994 0
M  V30 59252 C 5367.81 3.87606 2.08446 0
M  V30 59253 H 5364.93 0.704428 0.216679 0
M  V30 59254 H 5367.57 1.89513 -0.135904 0
M  V30 59255 H 5365.72 3.43984 1.80575 0
M  V30 59256 H 5367.4 4.58114 -0.541192 0
M  V30 59257 H 5365.64 4.29935 -0.57779 0
M  V30 59258 H 5366.31 5.49383 0.536855 0
M  V30 59259 H 5368.79 3.85889 1.55657 0
M  V30 59260 H 5367.66 4.90764 2.4585 0
M  V30 59261 H 5367.92 3.25458 2.99214 0
M  V30 59262 N 5366.98 -0.203294 1.56283 0
M  V30 59263 C 5368.23 -0.926317 1.80408 0
M  V30 59264 C 5368.56 -1.83248 0.642947 0
M  V30 59265 O 5367.84 -1.91197 -0.35693 0
M  V30 59266 C 5368.12 -1.7496 3.14739 0
M  V30 59267 C 5367.97 -0.868711 4.41331 0
M  V30 59268 C 5369.29 -2.72382 3.45682 0
M  V30 59269 H 5366.41 -0.335323 0.656298 0
M  V30 59270 H 5369.05 -0.194133 1.89006 0
M  V30 59271 H 5367.2 -2.37383 3.07541 0
M  V30 59272 H 5368.87 -0.259824 4.60568 0
M  V30 59273 H 5367.12 -0.175008 4.33447 0
M  V30 59274 H 5367.79 -1.47956 5.31802 0
M  V30 59275 H 5370.26 -2.20093 3.53126 0
M  V30 59276 H 5369.14 -3.27075 4.40809 0
M  V30 59277 H 5369.4 -3.51026 2.68763 0
M  V30 59278 N 5368.46 -1.50407 -0.470702 0
M  V30 59279 C 5369.71 -1.61097 -1.22034 0
M  V30 59280 C 5370.03 -0.313555 -1.92463 0
M  V30 59281 O 5369.3 0.668978 -1.84124 0
M  V30 59282 H 5367.88 -0.593634 -0.453439 0
M  V30 59283 H 5370.54 -1.87185 -0.54292 0
M  V30 59284 H 5369.64 -2.42229 -1.96803 0
M  V30 59285 N 5369.94 0.723905 -1.39991 0
M  V30 59286 C 5371.16 1.51815 -1.41304 0
M  V30 59287 C 5371.59 1.88096 -0.0123298 0
M  V30 59288 O 5370.95 1.52691 0.977506 0
M  V30 59289 C 5370.99 2.77524 -2.30245 0
M  V30 59290 O 5370.1 3.73897 -1.73997 0
M  V30 59291 H 5369.44 0.458041 -0.480723 0
M  V30 59292 H 5371.97 0.892226 -1.84121 0
M  V30 59293 H 5371.98 3.26142 -2.45144 0
M  V30 59294 H 5370.65 2.50451 -3.32035 0
M  V30 59295 H 5369.23 3.3271 -1.68401 0
M  V30 59296 N 5371.42 1.2535 0.95526 0
M  V30 59297 C 5372.35 1.01468 2.05516 0
M  V30 59298 C 5373.36 -0.0201683 1.62788 0
M  V30 59299 O 5374.55 0.218313 1.7716 0
M  V30 59300 C 5371.65 0.511844 3.35012 0
M  V30 59301 C 5370.82 1.6127 4.06584 0
M  V30 59302 C 5369.88 1.11035 5.14352 0
M  V30 59303 O 5368.91 1.80462 5.39835 0
M  V30 59304 N 5370.11 -0.048696 5.8048 0
M  V30 59305 H 5372.87 1.96174 2.26574 0
M  V30 59306 H 5370.44 1.16547 1.12377 0
M  V30 59307 H 5372.43 0.160265 4.04383 0
M  V30 59308 H 5371 -0.341268 3.10732 0
M  V30 59309 H 5370.22 2.13589 3.31321 0
M  V30 59310 H 5371.51 2.35229 4.51159 0
M  V30 59311 H 5370.9 -0.628824 5.62194 0
M  V30 59312 H 5369.46 -0.341314 6.50906 0
M  V30 59313 N 5372.89 -1.15778 1.06926 0
M  V30 59314 C 5374.12 -1.90352 0.810787 0
M  V30 59315 C 5374.54 -1.77781 -0.635552 0
M  V30 59316 O 5373.89 -1.1268 -1.4356 0
M  V30 59317 C 5373.94 -3.40846 1.20442 0
M  V30 59318 O 5373.67 -3.53048 2.59401 0
M  V30 59319 C 5375.17 -4.32453 0.974625 0
M  V30 59320 H 5372.39 -0.603419 0.293473 0
M  V30 59321 H 5374.93 -1.46718 1.42458 0
M  V30 59322 H 5373.09 -3.8216 0.635043 0
M  V30 59323 H 5373.5 -4.46416 2.75341 0
M  V30 59324 H 5374.97 -5.36483 1.29961 0
M  V30 59325 H 5375.45 -4.39109 -0.0892938 0
M  V30 59326 H 5376.06 -3.96876 1.5287 0
M  V30 59327 N 5374.37 -0.852746 -1.32537 0
M  V30 59328 C 5375.6 -0.468228 -2.02046 0
M  V30 59329 C 5376.02 0.92691 -1.63676 0
M  V30 59330 O 5375.38 1.60852 -0.836434 0
M  V30 59331 C 5375.43 -0.612644 -3.55358 0
M  V30 59332 O 5374.53 0.355361 -4.10866 0
M  V30 59333 H 5373.87 -0.188424 -0.636704 0
M  V30 59334 H 5376.4 -1.15141 -1.69126 0
M  V30 59335 H 5376.41 -0.499458 -4.04931 0
M  V30 59336 H 5375.09 -1.63002 -3.82627 0
M  V30 59337 H 5373.66 0.198573 -3.72371 0
M  V30 59338 N 5375.85 1.45295 -0.6105 0
M  V30 59339 C 5377.13 1.95562 -0.0386876 0
M  V30 59340 C 5377.51 1.55289 1.42999 0
M  V30 59341 O 5376.85 0.81686 2.134 0
M  V30 59342 C 5377.06 3.48175 -0.239854 0
M  V30 59343 C 5378.41 4.24424 -0.122184 0
M  V30 59344 O 5379.44 3.55793 -0.170129 0
M  V30 59345 O 5378.3 5.46499 -0.00972907 0
M  V30 59346 H 5375.39 0.826298 0.0340791 0
M  V30 59347 H 5377.94 1.55447 -0.680764 0
M  V30 59348 H 5376.71 3.70467 -1.25976 0
M  V30 59349 H 5376.33 3.95187 0.437347 0
M  V30 59350 N 5377.33 0.349828 1.53668 0
M  V30 59351 C 5378.55 -0.24862 2.05904 0
M  V30 59352 C 5378.98 -1.42938 1.22272 0
M  V30 59353 O 5378.34 -1.79732 0.237962 0
M  V30 59354 C 5378.38 -0.635515 3.54956 0
M  V30 59355 O 5377.49 -1.73477 3.74138 0
M  V30 59356 H 5376.83 -0.0399244 0.662799 0
M  V30 59357 H 5379.36 0.505865 1.98248 0
M  V30 59358 H 5379.37 -0.910924 3.97701 0
M  V30 59359 H 5378.04 0.227951 4.15275 0
M  V30 59360 H 5376.62 -1.45614 3.43294 0
M  V30 59361 N 5378.81 -1.57404 0.0785986 0
M  V30 59362 C 5379.74 -2.08728 -0.922391 0
M  V30 59363 C 5380.72 -0.993957 -1.28683 0
M  V30 59364 O 5381.9 -1.26781 -1.39495 0
M  V30 59365 C 5379.03 -2.55059 -2.22851 0
M  V30 59366 C 5378.07 -3.75891 -2.01514 0
M  V30 59367 S 5378.91 -5.20265 -1.26825 0
M  V30 59368 C 5380.06 -5.69933 -2.58703 0
M  V30 59369 H 5380.3 -2.93306 -0.485703 0
M  V30 59370 H 5377.83 -1.53815 -0.134323 0
M  V30 59371 H 5379.79 -2.82412 -2.97916 0
M  V30 59372 H 5378.45 -1.70737 -2.63643 0
M  V30 59373 H 5377.64 -4.06321 -2.98193 0
M  V30 59374 H 5377.24 -3.48946 -1.34584 0
M  V30 59375 H 5379.53 -5.77193 -3.5476 0
M  V30 59376 H 5380.48 -6.68712 -2.32873 0
M  V30 59377 H 5380.89 -4.97782 -2.6622 0
M  V30 59378 N 5380.28 0.195003 -1.56389 0
M  V30 59379 C 5381.53 0.913572 -1.80273 0
M  V30 59380 C 5381.85 1.83789 -0.65167 0
M  V30 59381 O 5381.12 1.93101 0.329989 0
M  V30 59382 H 5379.7 0.340336 -0.664966 0
M  V30 59383 H 5382.37 0.200491 -1.93866 0
M  V30 59384 H 5381.46 1.50464 -2.73436 0
M  V30 59385 N 5381.76 1.50654 0.462719 0
M  V30 59386 C 5382.67 1.72929 1.58533 0
M  V30 59387 C 5383.69 0.612635 1.62858 0
M  V30 59388 O 5384.86 0.891949 1.80572 0
M  V30 59389 C 5381.93 1.82633 2.94697 0
M  V30 59390 C 5380.99 3.06402 3.00693 0
M  V30 59391 C 5380.22 3.15634 4.30362 0
M  V30 59392 O 5380.45 2.31441 5.21336 0
M  V30 59393 O 5379.38 4.08426 4.42122 0
M  V30 59394 H 5383.21 2.68108 1.4266 0
M  V30 59395 H 5380.79 1.3485 0.643097 0
M  V30 59396 H 5382.67 1.91147 3.75554 0
M  V30 59397 H 5381.35 0.906384 3.10751 0
M  V30 59398 H 5380.26 3.03383 2.18883 0
M  V30 59399 H 5381.59 3.98003 2.89577 0
M  V30 59400 N 5383.24 -0.716471 1.40373 0
M  V30 59401 C 5384.15 -1.86069 1.42882 0
M  V30 59402 C 5385.17 -1.71003 0.321535 0
M  V30 59403 O 5386.34 -1.93284 0.565977 0
M  V30 59404 C 5383.41 -3.21858 1.28874 0
M  V30 59405 C 5382.47 -3.49184 2.49738 0
M  V30 59406 C 5381.7 -4.78493 2.36389 0
M  V30 59407 O 5381.92 -5.53524 1.37722 0
M  V30 59408 O 5380.86 -5.06136 3.25746 0
M  V30 59409 H 5384.68 -1.86908 2.39373 0
M  V30 59410 H 5382.27 -0.866775 1.21686 0
M  V30 59411 H 5384.15 -4.02968 1.23267 0
M  V30 59412 H 5382.83 -3.21749 0.354896 0
M  V30 59413 H 5381.73 -2.68086 2.60923 0
M  V30 59414 H 5383.07 -3.54089 3.4188 0
M  V30 59415 N 5384.72 -1.25855 -0.948599 0
M  V30 59416 C 5386 -1.01723 -1.67068 0
M  V30 59417 C 5386.38 0.454676 -2.06145 0
M  V30 59418 O 5385.72 1.43339 -1.7795 0
M  V30 59419 C 5385.93 -1.95882 -2.88845 0
M  V30 59420 C 5387.28 -2.2407 -3.60663 0
M  V30 59421 O 5388.31 -1.93688 -2.98937 0
M  V30 59422 O 5387.16 -2.75762 -4.71824 0
M  V30 59423 H 5384.26 -0.386223 -0.731273 0
M  V30 59424 H 5386.8 -1.37034 -1.00099 0
M  V30 59425 H 5385.58 -2.95242 -2.56804 0
M  V30 59426 H 5385.2 -1.61005 -3.63543 0
M  V30 59427 N 5386.2 1.1521 -1.07538 0
M  V30 59428 C 5387.13 2.22157 -0.718915 0
M  V30 59429 C 5388.11 1.67531 0.294532 0
M  V30 59430 O 5389.29 1.93482 0.166863 0
M  V30 59431 C 5386.42 3.471 -0.117958 0
M  V30 59432 C 5385.38 4.14698 -1.05877 0
M  V30 59433 C 5384.7 5.33739 -0.320472 0
M  V30 59434 C 5386 4.64245 -2.39319 0
M  V30 59435 H 5387.7 2.52231 -1.61306 0
M  V30 59436 H 5385.24 1.21236 -0.777035 0
M  V30 59437 H 5387.2 4.21156 0.143371 0
M  V30 59438 H 5385.92 3.16363 0.811278 0
M  V30 59439 H 5384.58 3.42584 -1.30505 0
M  V30 59440 H 5384.23 4.9926 0.612284 0
M  V30 59441 H 5383.93 5.79909 -0.947585 0
M  V30 59442 H 5385.45 6.10563 -0.0669868 0
M  V30 59443 H 5386.86 5.2982 -2.19007 0
M  V30 59444 H 5385.26 5.21085 -2.97642 0
M  V30 59445 H 5386.33 3.79783 -3.01485 0
M  V30 59446 N 5387.67 0.859763 1.32083 0
M  V30 59447 C 5388.6 0.323584 2.31247 0
M  V30 59448 C 5389.59 -0.580029 1.59905 0
M  V30 59449 O 5390.77 -0.499199 1.87674 0
M  V30 59450 C 5387.9 -0.48454 3.43903 0
M  V30 59451 C 5386.85 0.325083 4.26764 0
M  V30 59452 C 5386.18 -0.608094 5.31231 0
M  V30 59453 C 5387.48 1.55361 4.98658 0
M  V30 59454 H 5389.17 1.15219 2.76342 0
M  V30 59455 H 5386.72 0.555489 1.32855 0
M  V30 59456 H 5388.67 -0.870093 4.12319 0
M  V30 59457 H 5387.4 -1.34656 2.97549 0
M  V30 59458 H 5386.06 0.692455 3.60001 0
M  V30 59459 H 5385.7 -1.4671 4.81129 0
M  V30 59460 H 5385.4 -0.0703505 5.87558 0
M  V30 59461 H 5386.93 -0.990713 6.02509 0
M  V30 59462 H 5388.34 1.24007 5.59728 0
M  V30 59463 H 5386.74 2.02967 5.64734 0
M  V30 59464 H 5387.81 2.31207 4.26229 0
M  V30 59465 N 5389.15 -1.44969 0.618196 0
M  V30 59466 C 5390.38 -2.07038 0.122468 0
M  V30 59467 C 5390.8 -1.45797 -1.18848 0
M  V30 59468 O 5390.16 -0.55459 -1.72609 0
M  V30 59469 C 5390.21 -3.60599 0.00751316 0
M  V30 59470 O 5389.31 -3.99073 -1.03993 0
M  V30 59471 H 5388.65 -0.659298 0.0788847 0
M  V30 59472 H 5391.18 -1.86052 0.851213 0
M  V30 59473 H 5391.19 -4.0757 -0.187273 0
M  V30 59474 H 5389.87 -4.04557 0.964687 0
M  V30 59475 H 5388.45 -3.63756 -0.820751 0
M  V30 59476 N 5390.63 -0.357973 -1.53481 0
M  V30 59477 C 5392.04 0.122872 -1.86295 0
M  V30 59478 C 5392.39 1.48799 -1.2788 0
M  V30 59479 O 5391.52 2.07976 -0.597901 0
M  V30 59480 C 5392.11 0.229734 -3.3802 0
M  V30 59481 C 5390.67 0.654825 -3.7066 0
M  V30 59482 C 5389.82 -0.202636 -2.76559 0
M  V30 59483 H 5392.77 -0.577048 -1.47837 0
M  V30 59484 H 5392.79 1.05468 -3.65591 0
M  V30 59485 H 5392.3 -0.763959 -3.80507 0
M  V30 59486 H 5390.4 1.65702 -3.33727 0
M  V30 59487 H 5390.52 0.434712 -4.77124 0
M  V30 59488 H 5388.88 0.327299 -2.52588 0
M  V30 59489 H 5389.66 -1.19373 -3.21877 0
M  V30 59490 N 5392.11 1.5736 -0.086945 0
M  V30 59491 C 5393.52 1.81358 0.443435 0
M  V30 59492 C 5393.87 1.00198 1.68685 0
M  V30 59493 O 5393 0.228939 2.15186 0
M  V30 59494 C 5393.59 3.28944 0.811271 0
M  V30 59495 C 5392.15 3.53734 1.28644 0
M  V30 59496 C 5391.3 2.75892 0.279056 0
M  V30 59497 H 5394.25 1.55593 -0.312482 0
M  V30 59498 H 5394.27 3.41821 1.67148 0
M  V30 59499 H 5393.78 3.87986 -0.0938962 0
M  V30 59500 H 5391.88 3.00013 2.20959 0
M  V30 59501 H 5391.99 4.624 1.2539 0
M  V30 59502 H 5390.36 2.43112 0.759509 0
M  V30 59503 H 5391.14 3.3768 -0.618648 0
M  V30 59504 N 5393.59 -0.186707 1.5649 0
M  V30 59505 C 5394.52 -1.25559 1.91749 0
M  V30 59506 C 5395.53 -1.41277 0.80899 0
M  V30 59507 O 5396.72 -1.41554 1.08742 0
M  V30 59508 C 5393.82 -2.62654 2.14163 0
M  V30 59509 C 5392.99 -2.68436 3.45342 0
M  V30 59510 C 5392.05 -3.86786 3.56768 0
M  V30 59511 O 5391.08 -3.73499 4.2952 0
M  V30 59512 N 5392.28 -5.02597 2.90476 0
M  V30 59513 H 5395.05 -0.956251 2.84035 0
M  V30 59514 H 5392.61 -0.376575 1.5746 0
M  V30 59515 H 5394.6 -3.40269 2.19087 0
M  V30 59516 H 5393.17 -2.85042 1.28336 0
M  V30 59517 H 5392.39 -1.77032 3.52212 0
M  V30 59518 H 5393.68 -2.69296 4.31691 0
M  V30 59519 H 5393.07 -5.16292 2.31212 0
M  V30 59520 H 5391.63 -5.78129 3.01016 0
M  V30 59521 N 5395.07 -1.50897 -0.454723 0
M  V30 59522 C 5396.34 -1.53232 -1.21571 0
M  V30 59523 C 5396.72 -0.286432 -2.09148 0
M  V30 59524 O 5396.07 0.729393 -2.16546 0
M  V30 59525 C 5396.28 -2.837 -2.03261 0
M  V30 59526 C 5397.63 -3.3499 -2.60896 0
M  V30 59527 O 5398.65 -2.85133 -2.13489 0
M  V30 59528 O 5397.51 -4.21941 -3.47316 0
M  V30 59529 H 5394.61 -0.615326 -0.552543 0
M  V30 59530 H 5397.15 -1.63199 -0.465209 0
M  V30 59531 H 5395.92 -3.65844 -1.3883 0
M  V30 59532 H 5395.55 -2.76813 -2.85412 0
M  V30 59533 N 5396.54 0.709016 -1.40751 0
M  V30 59534 C 5397.77 1.49803 -1.42712 0
M  V30 59535 C 5398.19 1.88778 -0.0286238 0
M  V30 59536 O 5397.54 1.55887 0.948981 0
M  V30 59537 C 5397.59 2.76918 -2.32376 0
M  V30 59538 O 5397.32 2.39589 -3.66782 0
M  V30 59539 C 5398.82 3.70765 -2.42999 0
M  V30 59540 H 5396.04 0.462089 -0.486534 0
M  V30 59541 H 5398.58 0.87407 -1.84879 0
M  V30 59542 H 5396.74 3.35583 -1.93553 0
M  V30 59543 H 5397.15 3.21428 -4.14468 0
M  V30 59544 H 5398.62 4.56778 -3.09932 0
M  V30 59545 H 5399.1 4.14326 -1.45706 0
M  V30 59546 H 5399.71 3.18009 -2.82401 0
M  V30 59547 N 5398.02 1.26356 0.941911 0
M  V30 59548 C 5399.25 1.14737 1.72772 0
M  V30 59549 C 5399.67 -0.293701 1.85793 0
M  V30 59550 O 5399.03 -1.21279 1.34763 0
M  V30 59551 C 5399.08 1.82052 3.11271 0
M  V30 59552 O 5398.18 1.10881 3.97214 0
M  V30 59553 H 5397.52 0.399842 0.530116 0
M  V30 59554 H 5400.05 1.67162 1.17975 0
M  V30 59555 H 5400.06 1.88846 3.61664 0
M  V30 59556 H 5398.74 2.86889 3.0111 0
M  V30 59557 H 5397.31 1.12057 3.55665 0
M  V30 59558 N 5399.5 -1.14638 1.08148 0
M  V30 59559 C 5400.73 -1.89481 0.830931 0
M  V30 59560 C 5401.14 -1.78445 -0.61666 0
M  V30 59561 O 5400.5 -1.14196 -1.42357 0
M  V30 59562 C 5400.55 -3.39549 1.24051 0
M  V30 59563 O 5400.27 -3.50277 2.63131 0
M  V30 59564 C 5401.77 -4.31395 1.02044 0
M  V30 59565 H 5398.99 -0.600273 0.299856 0
M  V30 59566 H 5401.54 -1.45198 1.44006 0
M  V30 59567 H 5399.69 -3.81465 0.675541 0
M  V30 59568 H 5400.11 -4.43471 2.80061 0
M  V30 59569 H 5401.58 -5.35075 1.35644 0
M  V30 59570 H 5402.06 -4.39179 -0.0427153 0
M  V30 59571 H 5402.66 -3.95233 1.57071 0
M  V30 59572 N 5400.98 -0.866756 -1.31625 0
M  V30 59573 C 5402.23 -0.475155 -1.96435 0
M  V30 59574 C 5402.55 0.97512 -1.68868 0
M  V30 59575 O 5401.82 1.68314 -1.00236 0
M  V30 59576 H 5400.4 -0.172721 -0.726758 0
M  V30 59577 H 5403.06 -1.10584 -1.60491 0
M  V30 59578 H 5402.15 -0.630231 -3.05671 0
M  V30 59579 N 5402.46 1.44639 -0.625876 0
M  V30 59580 C 5403.39 2.33398 0.0691367 0
M  V30 59581 C 5404.37 1.47901 0.840189 0
M  V30 59582 O 5405.55 1.76633 0.807114 0
M  V30 59583 C 5402.68 3.30892 1.05488 0
M  V30 59584 C 5401.64 4.26166 0.395818 0
M  V30 59585 C 5400.96 5.13488 1.4911 0
M  V30 59586 C 5402.26 5.1766 -0.694615 0
M  V30 59587 H 5403.96 2.9176 -0.672027 0
M  V30 59588 H 5401.5 1.40293 -0.324623 0
M  V30 59589 H 5403.45 3.91866 1.5498 0
M  V30 59590 H 5402.18 2.70727 1.82687 0
M  V30 59591 H 5400.84 3.66516 -0.078398 0
M  V30 59592 H 5400.49 4.49679 2.25383 0
M  V30 59593 H 5400.19 5.78042 1.05552 0
M  V30 59594 H 5401.71 5.77334 1.98792 0
M  V30 59595 H 5403.12 5.72601 -0.283019 0
M  V30 59596 H 5401.52 5.90789 -1.05302 0
M  V30 59597 H 5402.59 4.58989 -1.56388 0
M  V30 59598 N 5403.93 0.366107 1.53289 0
M  V30 59599 C 5404.84 -0.48803 2.29468 0
M  V30 59600 C 5405.86 -1.09215 1.35455 0
M  V30 59601 O 5407.04 -1.10297 1.68512 0
M  V30 59602 C 5404.1 -1.61192 3.0695 0
M  V30 59603 C 5403.16 -1.03528 4.1663 0
M  V30 59604 C 5402.39 -2.10561 4.90408 0
M  V30 59605 O 5402.62 -3.31681 4.64052 0
M  V30 59606 O 5401.55 -1.73589 5.76325 0
M  V30 59607 H 5405.38 0.131895 3.03413 0
M  V30 59608 H 5402.96 0.130474 1.48829 0
M  V30 59609 H 5404.84 -2.26534 3.55332 0
M  V30 59610 H 5403.52 -2.21723 2.3584 0
M  V30 59611 H 5402.43 -0.345761 3.72499 0
M  V30 59612 H 5403.76 -0.474515 4.89907 0
M  V30 59613 N 5405.41 -1.57312 0.095289 0
M  V30 59614 C 5406.32 -2.17559 -0.877801 0
M  V30 59615 C 5407.34 -1.1451 -1.3101 0
M  V30 59616 O 5408.51 -1.46881 -1.37797 0
M  V30 59617 C 5405.58 -2.74421 -2.11882 0
M  V30 59618 C 5404.64 -3.92425 -1.74071 0
M  V30 59619 C 5403.87 -4.46566 -2.92257 0
M  V30 59620 O 5404.1 -3.99646 -4.06988 0
M  V30 59621 O 5403.03 -5.37586 -2.70713 0
M  V30 59622 H 5406.86 -3.01118 -0.395206 0
M  V30 59623 H 5404.44 -1.48841 -0.129071 0
M  V30 59624 H 5406.32 -3.10764 -2.84612 0
M  V30 59625 H 5405 -1.93908 -2.59194 0
M  V30 59626 H 5403.9 -3.60894 -0.985219 0
M  V30 59627 H 5405.24 -4.74302 -1.31523 0
M  V30 59628 N 5406.89 0.178405 -1.56587 0
M  V30 59629 C 5408.14 0.897499 -1.81859 0
M  V30 59630 C 5408.47 1.82202 -0.672019 0
M  V30 59631 O 5407.74 1.91741 0.326467 0
M  V30 59632 C 5408.03 1.69931 -3.17483 0
M  V30 59633 C 5407.88 0.798389 -4.42658 0
M  V30 59634 C 5409.2 2.66848 -3.49971 0
M  V30 59635 H 5406.32 0.324839 -0.66155 0
M  V30 59636 H 5408.96 0.16404 -1.89291 0
M  V30 59637 H 5407.11 2.3246 -3.11279 0
M  V30 59638 H 5408.78 0.186518 -4.60923 0
M  V30 59639 H 5407.02 0.106029 -4.3367 0
M  V30 59640 H 5407.7 1.39477 -5.34088 0
M  V30 59641 H 5410.17 2.14447 -3.56583 0
M  V30 59642 H 5409.05 3.20021 -4.45957 0
M  V30 59643 H 5409.31 3.46705 -2.74313 0
M  V30 59644 N 5408.37 1.51136 0.446714 0
M  V30 59645 C 5409.3 1.66443 1.56115 0
M  V30 59646 C 5410.28 0.512116 1.54325 0
M  V30 59647 O 5411.46 0.734763 1.7359 0
M  V30 59648 C 5408.59 1.66942 2.947 0
M  V30 59649 C 5407.64 2.88027 3.14551 0
M  V30 59650 S 5408.47 4.48983 2.91847 0
M  V30 59651 C 5409.62 4.52211 4.3273 0
M  V30 59652 H 5409.86 2.60707 1.42895 0
M  V30 59653 H 5407.39 1.40703 0.635762 0
M  V30 59654 H 5409.35 1.67913 3.74587 0
M  V30 59655 H 5408.01 0.738715 3.0529 0
M  V30 59656 H 5407.2 2.8475 4.15853 0
M  V30 59657 H 5406.8 2.84749 2.42475 0
M  V30 59658 H 5409.1 4.27275 5.25778 0
M  V30 59659 H 5410.04 5.53973 4.41044 0
M  V30 59660 H 5410.45 3.81638 4.15948 0
M  V30 59661 N 5409.85 -0.701542 1.41125 0
M  V30 59662 C 5410.76 -1.84543 1.44848 0
M  V30 59663 C 5411.77 -1.70653 0.339654 0
M  V30 59664 O 5412.95 -1.92673 0.586446 0
M  V30 59665 C 5410.01 -3.20473 1.32281 0
M  V30 59666 C 5409.07 -3.46515 2.53428 0
M  V30 59667 C 5408.31 -4.75959 2.41451 0
M  V30 59668 O 5408.53 -5.52032 1.43585 0
M  V30 59669 O 5407.46 -5.02652 3.31096 0
M  V30 59670 H 5411.29 -1.84358 2.41341 0
M  V30 59671 H 5408.88 -0.85382 1.22598 0
M  V30 59672 H 5410.76 -4.01638 1.27534 0
M  V30 59673 H 5409.43 -3.21354 0.389002 0
M  V30 59674 H 5408.34 -2.65303 2.63752 0
M  V30 59675 H 5409.67 -3.50443 3.45617 0
M  V30 59676 N 5411.32 -1.26854 -0.935197 0
M  V30 59677 C 5412.26 -1.04724 -2.03876 0
M  V30 59678 C 5413.27 -0.0057323 -1.62799 0
M  V30 59679 O 5414.46 -0.24647 -1.7679 0
M  V30 59680 C 5411.56 -0.565077 -3.34156 0
M  V30 59681 C 5410.73 -1.67718 -4.03967 0
M  V30 59682 C 5409.79 -1.19204 -5.1252 0
M  V30 59683 O 5408.82 -1.89027 -5.36896 0
M  V30 59684 N 5410.02 -0.0436594 -5.80484 0
M  V30 59685 H 5412.78 -1.99754 -2.23424 0
M  V30 59686 H 5410.34 -1.1832 -1.10508 0
M  V30 59687 H 5412.34 -0.224578 -4.04076 0
M  V30 59688 H 5410.91 0.29179 -3.11235 0
M  V30 59689 H 5410.13 -2.18833 -3.27881 0
M  V30 59690 H 5411.41 -2.42377 -4.4736 0
M  V30 59691 H 5410.81 0.539304 -5.63123 0
M  V30 59692 H 5409.37 0.237717 -6.51366 0
M  V30 59693 N 5412.8 1.14063 -1.08754 0
M  V30 59694 C 5413.73 2.21382 -0.742437 0
M  V30 59695 C 5414.71 1.67834 0.276746 0
M  V30 59696 O 5415.9 1.93648 0.146332 0
M  V30 59697 C 5413.03 3.46955 -0.154766 0
M  V30 59698 C 5411.98 4.13551 -1.10269 0
M  V30 59699 C 5411.31 5.33369 -0.377064 0
M  V30 59700 C 5412.61 4.61681 -2.44229 0
M  V30 59701 H 5414.3 2.50506 -1.63973 0
M  V30 59702 H 5411.85 1.20405 -0.78985 0
M  V30 59703 H 5413.8 4.21284 0.0986938 0
M  V30 59704 H 5412.53 3.17206 0.777677 0
M  V30 59705 H 5411.18 3.41181 -1.34131 0
M  V30 59706 H 5410.83 4.99881 0.559297 0
M  V30 59707 H 5410.53 5.78871 -1.00904 0
M  V30 59708 H 5412.06 6.10458 -0.131741 0
M  V30 59709 H 5413.47 5.27467 -2.24614 0
M  V30 59710 H 5411.87 5.17899 -3.03152 0
M  V30 59711 H 5412.94 3.76564 -3.05496 0
M  V30 59712 N 5414.28 0.873724 1.31163 0
M  V30 59713 C 5415.23 0.32143 2.30368 0
M  V30 59714 C 5416.22 -0.565512 1.59682 0
M  V30 59715 O 5417.43 -0.451196 1.74253 0
M  V30 59716 H 5413.8 0.0852688 0.74715 0
M  V30 59717 H 5415.77 1.172 2.74421 0
M  V30 59718 C 5414.52 -0.458895 3.44658 0
M  V30 59719 H 5413.85 0.214325 3.99225 0
M  V30 59720 H 5415.29 -0.810612 4.16179 0
M  V30 59721 C 5413.75 -1.65162 2.93638 0
M  V30 59722 O 5414.28 -2.75095 2.92721 0
M  V30 59723 N 5412.48 -1.48501 2.49791 0
M  V30 59724 H 5412.03 -0.590696 2.50736 0
M  V30 59725 H 5411.99 -2.28444 2.16011 0
M  V30 59726 N 5415.76 -1.44305 0.633538 0
M  V30 59727 C 5416.71 -2.32455 -0.0821139 0
M  V30 59728 C 5417.7 -1.47485 -0.833337 0
M  V30 59729 O 5418.91 -1.63815 -0.745963 0
M  V30 59730 H 5415.28 -0.750633 -0.0453256 0
M  V30 59731 H 5417.25 -2.90563 0.679384 0
M  V30 59732 C 5416 -3.31516 -1.04846 0
M  V30 59733 H 5415.32 -3.9691 -0.47984 0
M  V30 59734 H 5416.76 -3.9587 -1.51865 0
M  V30 59735 C 5415.22 -2.60622 -2.13489 0
M  V30 59736 O 5415.75 -2.40694 -3.21604 0
M  V30 59737 N 5413.96 -2.20321 -1.89491 0
M  V30 59738 H 5413.51 -2.36729 -1.01573 0
M  V30 59739 H 5413.46 -1.73215 -2.62382 0
M  V30 59740 N 5417.24 -0.374231 -1.53092 0
M  V30 59741 C 5418.46 0.215831 -2.06274 0
M  V30 59742 C 5418.89 1.40974 -1.2453 0
M  V30 59743 O 5418.24 1.7933 -0.266525 0
M  V30 59744 C 5418.29 0.578964 -3.55922 0
M  V30 59745 O 5417.4 1.67503 -3.76851 0
M  V30 59746 H 5416.74 0.0293748 -0.66335 0
M  V30 59747 H 5419.27 -0.53734 -1.97418 0
M  V30 59748 H 5419.28 0.847538 -3.991 0
M  V30 59749 H 5417.95 -0.293989 -4.1486 0
M  V30 59750 H 5416.53 1.40134 -3.45568 0
M  V30 59751 N 5418.71 1.57259 -0.10363 0
M  V30 59752 C 5419.96 1.94659 0.558058 0
M  V30 59753 C 5420.29 0.985945 1.67659 0
M  V30 59754 O 5419.54 0.0070433 1.95699 0
M  V30 59755 C 5419.84 3.38553 1.14526 0
M  V30 59756 C 5419.51 4.50652 0.149659 0
M  V30 59757 C 5418.17 4.8104 -0.124149 0
M  V30 59758 C 5420.52 5.18502 -0.52968 0
M  V30 59759 C 5417.85 5.76602 -1.08384 0
M  V30 59760 C 5420.2 6.15094 -1.4779 0
M  V30 59761 C 5418.87 6.43883 -1.75985 0
M  V30 59762 H 5418.14 0.712306 0.204208 0
M  V30 59763 H 5420.78 1.9064 -0.181275 0
M  V30 59764 H 5419.09 3.39191 1.96103 0
M  V30 59765 H 5420.79 3.64796 1.66508 0
M  V30 59766 H 5417.38 4.26972 0.373254 0
M  V30 59767 H 5421.56 4.95193 -0.331295 0
M  V30 59768 H 5416.82 5.97218 -1.3092 0
M  V30 59769 H 5420.99 6.6676 -2.01007 0
M  V30 59770 H 5418.62 7.1774 -2.50507 0
M  V30 59771 N 5420.19 -0.170098 1.56679 0
M  V30 59772 C 5421.6 -0.732442 1.71733 0
M  V30 59773 C 5421.95 -1.82734 0.714344 0
M  V30 59774 O 5421.08 -2.16044 -0.124026 0
M  V30 59775 C 5421.67 -1.33537 3.11373 0
M  V30 59776 C 5420.23 -1.84453 3.28107 0
M  V30 59777 C 5419.38 -0.723975 2.67682 0
M  V30 59778 H 5422.33 0.0553101 1.58604 0
M  V30 59779 H 5422.35 -2.20508 3.10091 0
M  V30 59780 H 5421.86 -0.538265 3.84349 0
M  V30 59781 H 5419.97 -2.66804 2.60089 0
M  V30 59782 H 5420.08 -1.98913 4.35856 0
M  V30 59783 H 5418.44 -1.14473 2.27526 0
M  V30 59784 H 5419.23 0.0613068 3.43245 0
M  V30 59785 N 5421.67 -1.51371 -0.438693 0
M  V30 59786 C 5422.9 -1.68062 -1.21532 0
M  V30 59787 C 5423.32 -0.376852 -1.84286 0
M  V30 59788 O 5422.68 0.662851 -1.68748 0
M  V30 59789 C 5422.73 -2.79692 -2.27607 0
M  V30 59790 O 5421.83 -2.432 -3.33058 0
M  V30 59791 H 5421.17 -0.560421 -0.356124 0
M  V30 59792 H 5423.7 -1.97928 -0.518241 0
M  V30 59793 H 5423.71 -3.03736 -2.72412 0
M  V30 59794 H 5422.39 -3.743 -1.81308 0
M  V30 59795 H 5420.96 -2.29723 -2.93737 0
M  V30 59796 N 5423.15 0.694048 -1.41495 0
M  V30 59797 C 5424.37 1.48784 -1.44493 0
M  V30 59798 C 5424.8 1.88027 -0.0522249 0
M  V30 59799 O 5424.16 1.5473 0.944898 0
M  V30 59800 C 5424.2 2.72578 -2.3608 0
M  V30 59801 O 5423.31 3.70122 -1.81889 0
M  V30 59802 H 5422.65 0.447741 -0.49033 0
M  V30 59803 H 5425.18 0.85297 -1.85972 0
M  V30 59804 H 5425.19 3.20869 -2.52007 0
M  V30 59805 H 5423.86 2.43352 -3.37273 0
M  V30 59806 H 5422.44 3.29063 -1.7542 0
M  V30 59807 N 5424.63 1.27348 0.928456 0
M  V30 59808 C 5426.04 1.04736 1.20427 0
M  V30 59809 C 5426.24 -0.219552 2.003 0
M  V30 59810 O 5425.3 -0.925251 2.34937 0
M  V30 59811 C 5426.61 2.28632 1.95315 0
M  V30 59812 C 5428.16 2.33662 2.08257 0
M  V30 59813 C 5428.64 3.57285 2.8655 0
M  V30 59814 N 5430.13 3.57838 2.94119 0
M  V30 59815 C 5430.86 4.50165 3.55161 0
M  V30 59816 N 5430.36 5.52794 4.17601 0
M  V30 59817 N 5432.15 4.3779 3.52557 0
M  V30 59818 H 5424.3 2.08698 0.394819 0
M  V30 59819 H 5426.56 0.917828 0.237268 0
M  V30 59820 H 5426.27 3.2085 1.44042 0
M  V30 59821 H 5426.14 2.33888 2.95933 0
M  V30 59822 H 5428.53 1.41951 2.58716 0
M  V30 59823 H 5428.61 2.3241 1.06862 0
M  V30 59824 H 5428.26 4.49333 2.36775 0
M  V30 59825 H 5428.19 3.55789 3.88229 0
M  V30 59826 H 5430.68 2.83615 2.49741 0
M  V30 59827 H 5430.99 6.19411 4.62115 0
M  V30 59828 H 5429.34 5.56637 4.16149 0
M  V30 59829 H 5432.53 3.56822 3.02978 0
M  V30 59830 H 5432.7 5.09933 3.9984 0
M  V30 59831 N 5426.11 -1.13484 1.09357 0
M  V30 59832 C 5427.35 -1.8438 0.827553 0
M  V30 59833 C 5427.67 -1.83894 -0.648681 0
M  V30 59834 O 5426.94 -1.2942 -1.47062 0
M  V30 59835 H 5425.52 -0.682721 0.303151 0
M  V30 59836 H 5428.19 -1.37473 1.38157 0
M  V30 59837 H 5427.28 -2.88915 1.18045 0
M  V30 59838 N 5427.58 -0.880667 -1.30698 0
M  V30 59839 C 5429 -0.574067 -1.48918 0
M  V30 59840 C 5429.2 0.889249 -1.80817 0
M  V30 59841 O 5428.26 1.67075 -1.8932 0
M  V30 59842 C 5429.57 -1.4835 -2.61558 0
M  V30 59843 C 5431.12 -1.48668 -2.7544 0
M  V30 59844 C 5431.59 -2.38194 -3.91188 0
M  V30 59845 N 5433.08 -2.36133 -3.98491 0
M  V30 59846 C 5433.82 -3.02119 -4.87352 0
M  V30 59847 N 5433.31 -3.77313 -5.81039 0
M  V30 59848 N 5435.11 -2.91373 -4.80685 0
M  V30 59849 H 5427.26 -1.82736 -1.08265 0
M  V30 59850 H 5429.52 -0.781958 -0.535953 0
M  V30 59851 H 5429.23 -2.52524 -2.44795 0
M  V30 59852 H 5429.1 -1.1899 -3.5794 0
M  V30 59853 H 5431.49 -0.452476 -2.9161 0
M  V30 59854 H 5431.57 -1.82057 -1.79691 0
M  V30 59855 H 5431.21 -3.41696 -3.75774 0
M  V30 59856 H 5431.14 -2.02123 -4.86265 0
M  V30 59857 H 5433.63 -1.81486 -3.31469 0
M  V30 59858 H 5433.95 -4.24764 -6.45597 0
M  V30 59859 H 5432.29 -3.81421 -5.80984 0
M  V30 59860 H 5435.48 -2.32158 -4.06473 0
M  V30 59861 H 5435.66 -3.43075 -5.4973 0
M  V30 59862 N 5429.06 1.43967 -0.641182 0
M  V30 59863 C 5430.01 2.32495 0.0697851 0
M  V30 59864 C 5431 1.47925 0.825503 0
M  V30 59865 O 5432.21 1.64208 0.737265 0
M  V30 59866 H 5428.58 0.750863 0.0413442 0
M  V30 59867 H 5430.56 2.90199 -0.694784 0
M  V30 59868 C 5429.3 3.32067 1.03087 0
M  V30 59869 H 5428.63 3.97159 0.458784 0
M  V30 59870 H 5430.07 3.9667 1.49764 0
M  V30 59871 C 5428.53 2.61751 2.12104 0
M  V30 59872 O 5429.06 2.42396 3.20323 0
M  V30 59873 N 5427.26 2.21323 1.8832 0
M  V30 59874 H 5426.81 2.37265 1.00316 0
M  V30 59875 H 5426.77 1.74604 2.61459 0
M  V30 59876 N 5430.54 0.382345 1.52892 0
M  V30 59877 C 5431.77 -0.202335 2.05908 0
M  V30 59878 C 5432.18 -1.41085 1.25461 0
M  V30 59879 O 5431.54 -1.80026 0.299483 0
M  V30 59880 C 5431.59 -0.579327 3.56828 0
M  V30 59881 O 5431.31 0.581172 4.34228 0
M  V30 59882 C 5432.81 -1.22061 4.26164 0
M  V30 59883 H 5430.03 -0.0321624 0.670229 0
M  V30 59884 H 5432.58 0.545564 1.97088 0
M  V30 59885 H 5430.73 -1.27713 3.65743 0
M  V30 59886 H 5431.15 0.272877 5.2379 0
M  V30 59887 H 5432.62 -1.43482 5.33026 0
M  V30 59888 H 5433.1 -2.18592 3.80939 0
M  V30 59889 H 5433.7 -0.563774 4.21547 0
M  V30 59890 N 5432.02 -1.57202 0.111969 0
M  V30 59891 C 5433.43 -1.8204 -0.414527 0
M  V30 59892 C 5433.78 -1.02869 -1.6707 0
M  V30 59893 O 5432.9 -0.263144 -2.14794 0
M  V30 59894 C 5433.5 -3.30193 -0.758837 0
M  V30 59895 C 5432.06 -3.55736 -1.23 0
M  V30 59896 C 5431.21 -2.76301 -0.235128 0
M  V30 59897 H 5434.16 -1.55076 0.337196 0
M  V30 59898 H 5434.18 -3.44437 -1.61689 0
M  V30 59899 H 5433.69 -3.87788 0.15561 0
M  V30 59900 H 5431.79 -3.0349 -2.16158 0
M  V30 59901 H 5431.9 -4.64337 -1.18018 0
M  V30 59902 H 5430.27 -2.4429 -0.720736 0
M  V30 59903 H 5431.05 -3.36653 0.672292 0
M  V30 59904 N 5433.5 0.161787 -1.56767 0
M  V30 59905 C 5434.74 0.875128 -1.8217 0
M  V30 59906 C 5435.06 1.82365 -0.690508 0
M  V30 59907 O 5434.33 1.93757 0.288955 0
M  V30 59908 H 5432.91 0.326155 -0.672036 0
M  V30 59909 H 5435.58 0.159324 -1.94248 0
M  V30 59910 H 5434.67 1.4463 -2.76566 0
M  V30 59911 N 5434.97 1.51602 0.430659 0
M  V30 59912 C 5435.92 1.73398 1.52322 0
M  V30 59913 C 5436.89 0.575813 1.558 0
M  V30 59914 O 5438.08 0.810992 1.72707 0
M  V30 59915 C 5435.22 1.87102 2.89977 0
M  V30 59916 C 5434.33 3.14678 2.95976 0
M  V30 59917 C 5433.46 3.18938 4.24796 0
M  V30 59918 C 5432.5 4.40802 4.24688 0
M  V30 59919 N 5431.64 4.42575 5.45043 0
M  V30 59920 H 5436.48 2.66655 1.33039 0
M  V30 59921 H 5434.02 1.32148 0.64616 0
M  V30 59922 H 5435.97 1.9303 3.69859 0
M  V30 59923 H 5434.6 0.972471 3.07803 0
M  V30 59924 H 5433.66 3.18027 2.08717 0
M  V30 59925 H 5434.97 4.04572 2.91758 0
M  V30 59926 H 5434.12 3.23819 5.13056 0
M  V30 59927 H 5432.86 2.26945 4.3168 0
M  V30 59928 H 5431.87 4.36091 3.3482 0
M  V30 59929 H 5433.09 5.34068 4.19462 0
M  V30 59930 H 5431.04 3.53454 5.52635 0
M  V30 59931 H 5430.95 5.26286 5.42733 0
M  V30 59932 H 5432.22 4.51657 6.35316 0
M  V30 59933 N 5436.45 -0.686534 1.41861 0
M  V30 59934 C 5437.86 -1.26677 1.37149 0
M  V30 59935 C 5438.21 -1.96111 0.058991 0
M  V30 59936 O 5437.34 -1.99324 -0.842559 0
M  V30 59937 C 5437.93 -2.30375 2.48421 0
M  V30 59938 C 5436.49 -2.83953 2.47079 0
M  V30 59939 C 5435.64 -1.58111 2.27807 0
M  V30 59940 H 5438.59 -0.480689 1.51245 0
M  V30 59941 H 5438.61 -3.11861 2.17998 0
M  V30 59942 H 5438.12 -1.7981 3.43933 0
M  V30 59943 H 5436.22 -3.3867 1.5535 0
M  V30 59944 H 5436.34 -3.33768 3.43709 0
M  V30 59945 H 5434.7 -1.84252 1.7585 0
M  V30 59946 H 5435.48 -1.09529 3.25359 0
M  V30 59947 N 5437.93 -1.27838 -0.92169 0
M  V30 59948 C 5438.86 -1.05404 -2.02399 0
M  V30 59949 C 5439.84 0.0274332 -1.62577 0
M  V30 59950 O 5441.02 -0.118917 -1.88125 0
M  V30 59951 C 5438.15 -0.600133 -3.33341 0
M  V30 59952 C 5437.2 -1.67707 -3.92144 0
M  V30 59953 S 5438.03 -3.27108 -4.23982 0
M  V30 59954 C 5439.19 -2.83533 -5.57996 0
M  V30 59955 H 5439.42 -1.98731 -2.21118 0
M  V30 59956 H 5436.95 -1.11737 -1.06556 0
M  V30 59957 H 5438.91 -0.344937 -4.09048 0
M  V30 59958 H 5437.57 0.313178 -3.12535 0
M  V30 59959 H 5436.76 -1.31091 -4.86653 0
M  V30 59960 H 5436.37 -1.88465 -3.23043 0
M  V30 59961 H 5438.66 -2.2921 -6.37549 0
M  V30 59962 H 5439.6 -3.76809 -5.99517 0
M  V30 59963 H 5440.01 -2.2249 -5.18805 0
M  V30 59964 N 5439.41 1.12903 -1.09958 0
M  V30 59965 C 5440.82 1.36297 -0.830374 0
M  V30 59966 C 5441.02 1.93774 0.552626 0
M  V30 59967 O 5440.08 2.16074 1.30645 0
M  V30 59968 C 5441.39 2.30918 -1.92606 0
M  V30 59969 C 5442.94 2.44521 -1.95393 0
M  V30 59970 C 5443.42 3.42453 -3.04122 0
M  V30 59971 N 5444.91 3.50007 -3.03396 0
M  V30 59972 C 5445.64 4.25679 -3.84167 0
M  V30 59973 N 5445.14 5.04459 -4.74861 0
M  V30 59974 N 5446.93 4.21036 -3.72405 0
M  V30 59975 H 5439.08 0.739501 -1.99111 0
M  V30 59976 H 5441.35 0.387952 -0.864984 0
M  V30 59977 H 5441.05 1.95851 -2.92122 0
M  V30 59978 H 5440.93 3.30991 -1.809 0
M  V30 59979 H 5443.31 2.78871 -0.965135 0
M  V30 59980 H 5443.39 1.44354 -2.11177 0
M  V30 59981 H 5443.04 3.08833 -4.03218 0
M  V30 59982 H 5442.97 4.42438 -2.8558 0
M  V30 59983 H 5445.46 2.93801 -2.37675 0
M  V30 59984 H 5445.77 5.59523 -5.33061 0
M  V30 59985 H 5444.12 5.03673 -4.78893 0
M  V30 59986 H 5447.31 3.5857 -3.00908 0
M  V30 59987 H 5447.48 4.79756 -4.35589 0
M  V30 59988 N 5440.89 0.887586 1.30229 0
M  V30 59989 C 5441.8 0.360415 2.31815 0
M  V30 59990 C 5442.81 -0.538683 1.65452 0
M  V30 59991 O 5443.99 -0.431176 1.9673 0
M  V30 59992 C 5441.05 -0.414215 3.44217 0
M  V30 59993 C 5440.11 0.514949 4.262 0
M  V30 59994 C 5439.35 -0.222807 5.33235 0
M  V30 59995 O 5439.57 -1.44852 5.51701 0
M  V30 59996 O 5438.5 0.428433 6.00373 0
M  V30 59997 H 5442.33 1.20289 2.78863 0
M  V30 59998 H 5439.92 0.651506 1.34446 0
M  V30 59999 H 5441.8 -0.852714 4.12682 0
M  V30 60000 H 5440.47 -1.23294 2.99299 0
M  V30 60001 H 5439.38 1.00231 3.60423 0
M  V30 60002 H 5440.71 1.29976 4.74729 0
M  V30 60003 N 5442.36 -1.43625 0.648807 0
M  V30 60004 C 5443.64 -1.9539 0.0905238 0
M  V30 60005 C 5444.02 -1.59025 -1.38831 0
M  V30 60006 O 5443.37 -0.873152 -2.11159 0
M  V30 60007 C 5443.58 -3.47416 0.332082 0
M  V30 60008 C 5444.93 -4.23951 0.23467 0
M  V30 60009 O 5445.95 -3.55217 0.264401 0
M  V30 60010 O 5444.81 -5.46281 0.15462 0
M  V30 60011 H 5441.9 -0.826911 -0.0121593 0
M  V30 60012 H 5444.45 -1.53587 0.721739 0
M  V30 60013 H 5443.22 -3.66997 1.35754 0
M  V30 60014 H 5442.85 -3.96208 -0.332416 0
M  V30 60015 N 5443.84 -0.390448 -1.52687 0
M  V30 60016 C 5445.07 0.191413 -2.06013 0
M  V30 60017 C 5445.49 1.40418 -1.26207 0
M  V30 60018 O 5444.84 1.79865 -0.309026 0
M  V30 60019 C 5444.89 0.560395 -3.5713 0
M  V30 60020 O 5444.61 -0.604192 -4.33914 0
M  V30 60021 C 5446.12 1.19799 -4.26806 0
M  V30 60022 H 5443.34 0.0286075 -0.67039 0
M  V30 60023 H 5445.88 -0.556008 -1.96796 0
M  V30 60024 H 5444.03 1.25771 -3.66415 0
M  V30 60025 H 5444.45 -0.300651 -5.23638 0
M  V30 60026 H 5445.92 1.40653 -5.3378 0
M  V30 60027 H 5446.4 2.16569 -3.82093 0
M  V30 60028 H 5447.01 0.54141 -4.2184 0
M  V30 60029 N 5445.32 1.5714 -0.120304 0
M  V30 60030 C 5446.25 2.111 0.866726 0
M  V30 60031 C 5447.23 1.02773 1.26002 0
M  V30 60032 O 5448.42 1.30435 1.36084 0
M  V30 60033 C 5445.54 2.60878 2.1601 0
M  V30 60034 C 5444.59 3.81102 1.91477 0
M  V30 60035 S 5445.42 5.23445 1.12987 0
M  V30 60036 C 5446.58 5.76592 2.43501 0
M  V30 60037 H 5446.81 2.9449 0.407768 0
M  V30 60038 H 5444.34 1.54117 0.0934949 0
M  V30 60039 H 5446.3 2.90211 2.90323 0
M  V30 60040 H 5444.96 1.77667 2.59024 0
M  V30 60041 H 5444.16 4.14085 2.87315 0
M  V30 60042 H 5443.76 3.52391 1.25285 0
M  V30 60043 H 5446.05 5.86396 3.39332 0
M  V30 60044 H 5446.99 6.74651 2.15061 0
M  V30 60045 H 5447.4 5.04666 2.52928 0
M  V30 60046 O 5446.84 -0.0190476 1.61489 0
M  V30 60047 H 5447.53 -0.638279 1.82882 0
M  V30 END ATOM
M  V30 BEGIN BOND
M  V30 END BOND
M  V30 END CTAB
M  END
$$$$
