drugbank_target|P11678 Eosinophil peroxidase (DB01065)
 OpenBabel12092120343D

  0  0  0     0  0            999 V3000
M  V30 BEGIN CTAB
M  V30 COUNTS 11466 11593 0 0 0
M  V30 BEGIN ATOM
M  V30 1 H -0.908 1.98254 -0.117106 0
M  V30 2 N 0 1.576 0 0
M  V30 3 C 0.933 2.03868 1.02534 0
M  V30 4 C 1.911 0.928543 1.3348 0
M  V30 5 O 3.095 1.19667 1.45644 0
M  V30 6 C 0.222 2.43627 2.35294 0
M  V30 7 C -0.732 3.65373 2.2001 0
M  V30 8 S 0.101 5.13292 1.52614 0
M  V30 9 C 1.257 5.56322 2.86805 0
M  V30 10 H 1.49 2.90518 0.631377 0
M  V30 11 H -0.977 1.52953 0.210867 0
M  V30 12 H 0.981 2.67203 3.11629 0
M  V30 13 H -0.358 1.57376 2.7183 0
M  V30 14 H -1.165 3.90944 3.18086 0
M  V30 15 H -1.563 3.418 1.51819 0
M  V30 16 H 0.729 5.58782 3.83104 0
M  V30 17 H 1.672 6.56266 2.65933 0
M  V30 18 H 2.08 4.83886 2.90714 0
M  V30 19 N 1.4781 -0.272755 1.55222 0
M  V30 20 C 2.4281 -1.33946 1.84506 0
M  V30 21 C 3.4121 -1.44682 0.70399 0
M  V30 22 O 4.6041 -1.48358 0.965338 0
M  V30 23 C 1.7331 -2.69968 2.12067 0
M  V30 24 C 0.8191 -2.63341 3.32434 0
M  V30 25 N 1.2101 -2.26335 4.52334 0
M  V30 26 C -0.4919 -2.94402 3.35028 0
M  V30 27 C 0.2091 -2.29705 5.34425 0
M  V30 28 N -0.8149 -2.68188 4.72838 0
M  V30 29 H 2.9871 -1.04343 2.74754 0
M  V30 30 H 0.5011 -0.481389 1.55101 0
M  V30 31 H 2.4981 -3.46916 2.31202 0
M  V30 32 H 1.1581 -3.00459 1.23103 0
M  V30 33 H 2.1691 -1.98309 4.78429 0
M  V30 34 H -1.1539 -3.29603 2.56257 0
M  V30 35 H 0.2361 -2.03653 6.40293 0
M  V30 36 N 2.9562 -1.48159 -0.537278 0
M  V30 37 C 3.8862 -1.65029 -1.6519 0
M  V30 38 C 4.8672 -0.499281 -1.62607 0
M  V30 39 O 6.0522 -0.730972 -1.79918 0
M  V30 40 C 3.1822 -1.68303 -3.03795 0
M  V30 41 C 2.1362 -2.8283 -3.21234 0
M  V30 42 C 1.4622 -2.71189 -4.60826 0
M  V30 43 C 2.7622 -4.24211 -3.04701 0
M  V30 44 H 4.4562 -2.58341 -1.51328 0
M  V30 45 H 2.0022 -1.24325 -0.726585 0
M  V30 46 H 3.9552 -1.78693 -3.81637 0
M  V30 47 H 2.6792 -0.715635 -3.18663 0
M  V30 48 H 1.3382 -2.71983 -2.45807 0
M  V30 49 H 0.9862 -1.72435 -4.7252 0
M  V30 50 H 0.6862 -3.48035 -4.7344 0
M  V30 51 H 2.2102 -2.83537 -5.40777 0
M  V30 52 H 3.6242 -4.3593 -3.72341 0
M  V30 53 H 2.0212 -5.01998 -3.28813 0
M  V30 54 H 3.0912 -4.41184 -2.01209 0
M  V30 55 N 4.4343 0.785586 -1.36625 0
M  V30 56 C 5.3643 1.91259 -1.33949 0
M  V30 57 C 6.3453 1.68795 -0.210325 0
M  V30 58 O 7.5303 1.89854 -0.408561 0
M  V30 59 C 4.6603 3.28339 -1.13186 0
M  V30 60 C 3.6143 3.65335 -2.22967 0
M  V30 61 C 2.9403 5.00806 -1.87342 0
M  V30 62 C 4.2403 3.7352 -3.65075 0
M  V30 63 H 5.9343 1.93755 -2.28253 0
M  V30 64 H 3.4803 0.930788 -1.09874 0
M  V30 65 H 5.4333 4.06804 -1.09948 0
M  V30 66 H 4.1573 3.2624 -0.153332 0
M  V30 67 H 2.8163 2.89169 -2.25337 0
M  V30 68 H 2.4643 4.95233 -0.880545 0
M  V30 69 H 2.1643 5.26529 -2.60846 0
M  V30 70 H 3.6883 5.81687 -1.85667 0
M  V30 71 H 5.1023 4.42168 -3.64911 0
M  V30 72 H 3.4993 4.10731 -4.37516 0
M  V30 73 H 4.5693 2.74527 -3.99703 0
M  V30 74 N 5.9124 1.20967 1.01018 0
M  V30 75 C 7.3234 1.02319 1.56165 0
M  V30 76 C 7.6744 -0.418546 1.91684 0
M  V30 77 O 6.7994 -1.30096 1.72928 0
M  V30 78 C 7.3944 1.85109 2.8376 0
M  V30 79 C 5.9534 1.70809 3.35412 0
M  V30 80 C 5.1004 1.82643 2.08655 0
M  V30 81 H 8.0514 1.35065 0.833255 0
M  V30 82 H 8.0724 1.35827 3.55431 0
M  V30 83 H 7.5844 2.90035 2.57878 0
M  V30 84 H 5.6854 0.685464 3.66241 0
M  V30 85 H 5.7984 2.52467 4.07182 0
M  V30 86 H 4.1624 1.25896 2.21409 0
M  V30 87 H 4.9454 2.89066 1.85191 0
M  V30 88 N 7.3905 -1.2043 1.01659 0
M  V30 89 C 8.3535 -2.21433 0.591616 0
M  V30 90 C 9.3535 -1.57203 -0.338226 0
M  V30 91 O 10.5435 -1.73737 -0.126918 0
M  V30 92 C 7.6755 -3.40628 -0.136058 0
M  V30 93 H 8.8685 -2.60545 1.48514 0
M  V30 94 H 6.4215 -1.33893 0.806379 0
M  V30 95 H 7.1565 -3.07019 -1.04449 0
M  V30 96 H 6.9415 -3.88475 0.531917 0
M  V30 97 H 8.4315 -4.15475 -0.420735 0
M  V30 98 N 8.8686 -0.792821 -1.36206 0
M  V30 99 C 9.7986 -0.207853 -2.32573 0
M  V30 100 C 10.7796 0.659055 -1.56813 0
M  V30 101 O 11.9646 0.592176 -1.84951 0
M  V30 102 C 9.0946 0.655449 -3.41059 0
M  V30 103 C 8.0486 -0.111842 -4.27854 0
M  V30 104 C 7.3746 0.872274 -5.27537 0
M  V30 105 C 8.6746 -1.30299 -5.05786 0
M  V30 106 H 10.3686 -1.01294 -2.81744 0
M  V30 107 H 7.9146 -0.48854 -1.3546 0
M  V30 108 H 9.8676 1.07464 -4.07467 0
M  V30 109 H 8.5916 1.49328 -2.90463 0
M  V30 110 H 7.2506 -0.512053 -3.63006 0
M  V30 111 H 6.8986 1.70523 -4.73214 0
M  V30 112 H 6.5986 0.363291 -5.86476 0
M  V30 113 H 8.1226 1.28996 -5.96818 0
M  V30 114 H 9.5366 -0.959379 -5.65216 0
M  V30 115 H 7.9336 -1.7455 -5.74154 0
M  V30 116 H 9.0036 -2.09663 -4.37229 0
M  V30 117 N 10.3467 1.47872 -0.545128 0
M  V30 118 C 11.3097 2.28337 0.198717 0
M  V30 119 C 12.3097 1.36255 0.853888 0
M  V30 120 O 13.4997 1.59003 0.711606 0
M  V30 121 C 10.6317 3.15585 1.28915 0
M  V30 122 H 11.8247 2.95567 -0.507941 0
M  V30 123 H 9.3777 1.53362 -0.301616 0
M  V30 124 H 10.1127 2.53019 2.02859 0
M  V30 125 H 9.8977 3.83337 0.824309 0
M  V30 126 H 11.3877 3.76243 1.81194 0
M  V30 127 N 11.8248 0.280983 1.55075 0
M  V30 128 C 13.0728 -0.333455 1.9933 0
M  V30 129 C 13.3938 -1.55937 1.17085 0
M  V30 130 O 12.6638 -1.94143 0.261805 0
M  V30 131 H 11.2438 -0.126197 0.736263 0
M  V30 132 H 13.9058 0.387678 1.91005 0
M  V30 133 H 13.0018 -0.619292 3.05894 0
M  V30 134 N 13.3029 -1.57598 0.00835791 0
M  V30 135 C 14.5489 -1.91211 -0.675732 0
M  V30 136 C 14.8819 -0.883139 -1.72958 0
M  V30 137 O 14.1569 0.097016 -1.94258 0
M  V30 138 C 14.4399 -3.35379 -1.31123 0
M  V30 139 C 14.2929 -4.48999 -0.268356 0
M  V30 140 C 15.6119 -3.7912 -2.23508 0
M  V30 141 H 12.7309 -0.695374 -0.244179 0
M  V30 142 H 15.3729 -1.89901 0.0613655 0
M  V30 143 H 13.5229 -3.36626 -1.93946 0
M  V30 144 H 15.1949 -4.59887 0.360844 0
M  V30 145 H 13.4379 -4.31873 0.408482 0
M  V30 146 H 14.1089 -5.46851 -0.752218 0
M  V30 147 H 16.5849 -3.79477 -1.70693 0
M  V30 148 H 15.4609 -4.80729 -2.64936 0
M  V30 149 H 15.7219 -3.13455 -3.11766 0
M  V30 150 N 14.781 0.264519 -1.55364 0
M  V30 151 C 15.711 1.33121 -1.91836 0
M  V30 152 C 16.692 1.51101 -0.781192 0
M  V30 153 O 17.877 1.64003 -1.04003 0
M  V30 154 C 15.007 2.68921 -2.19769 0
M  V30 155 C 13.961 2.65661 -3.35571 0
M  V30 156 C 13.287 4.05093 -3.49004 0
M  V30 157 C 14.587 2.24187 -4.71739 0
M  V30 158 H 16.281 1.02844 -2.81182 0
M  V30 159 H 13.827 0.493286 -1.35287 0
M  V30 160 H 15.78 3.43663 -2.43872 0
M  V30 161 H 14.504 3.00799 -1.27231 0
M  V30 162 H 13.163 1.93377 -3.1145 0
M  V30 163 H 12.811 4.34206 -2.53917 0
M  V30 164 H 12.511 4.03804 -4.26868 0
M  V30 165 H 14.035 4.81561 -3.75408 0
M  V30 166 H 15.449 2.88654 -4.9533 0
M  V30 167 H 13.846 2.34044 -5.52579 0
M  V30 168 H 14.916 1.19327 -4.69988 0
M  V30 169 N 16.2591 1.48442 0.529413 0
M  V30 170 C 17.2221 1.62524 1.61612 0
M  V30 171 C 18.2221 0.498509 1.52877 0
M  V30 172 O 19.4121 0.76431 1.56537 0
M  V30 173 C 16.5441 1.59597 3.01233 0
M  V30 174 H 17.7371 2.59423 1.50465 0
M  V30 175 H 15.2901 1.37047 0.751514 0
M  V30 176 H 16.0251 0.641781 3.17886 0
M  V30 177 H 15.8101 2.41397 3.08982 0
M  V30 178 H 17.3001 1.72646 3.80241 0
M  V30 179 N 17.7372 -0.778329 1.37039 0
M  V30 180 C 18.9652 -1.56734 1.35063 0
M  V30 181 C 19.3802 -1.88686 -0.0655597 0
M  V30 182 O 18.7372 -1.5096 -1.02554 0
M  V30 183 C 18.7882 -2.88163 2.18276 0
M  V30 184 O 18.5092 -2.57583 3.54376 0
M  V30 185 C 20.0102 -3.82422 2.24206 0
M  V30 186 H 17.2302 -0.485778 0.462883 0
M  V30 187 H 19.7742 -0.965185 1.8029 0
M  V30 188 H 17.9292 -3.44818 1.76576 0
M  V30 189 H 18.3432 -3.41699 3.97922 0
M  V30 190 H 19.8172 -4.71667 2.86765 0
M  V30 191 H 20.2942 -4.21078 1.24861 0
M  V30 192 H 20.9002 -3.31697 2.6619 0
M  V30 193 N 19.2153 -1.21501 -1.00376 0
M  V30 194 C 20.1453 -0.999478 -2.11028 0
M  V30 195 C 21.1263 0.0759671 -1.6993 0
M  V30 196 O 22.3113 -0.0841106 -1.94018 0
M  V30 197 C 19.4413 -0.564709 -3.42678 0
M  V30 198 C 18.3953 -1.58486 -3.97576 0
M  V30 199 C 17.7213 -1.00628 -5.25146 0
M  V30 200 C 19.0213 -2.97204 -4.29496 0
M  V30 201 H 20.7153 -1.92495 -2.29317 0
M  V30 202 H 18.2613 -0.92693 -1.102 0
M  V30 203 H 20.2143 -0.401091 -4.19487 0
M  V30 204 H 18.9383 0.396411 -3.24185 0
M  V30 205 H 17.5973 -1.73606 -3.22888 0
M  V30 206 H 17.2453 -0.0368439 -5.02987 0
M  V30 207 H 16.9453 -1.68771 -5.62841 0
M  V30 208 H 18.4693 -0.854015 -6.04598 0
M  V30 209 H 19.8833 -2.8552 -4.97143 0
M  V30 210 H 18.2803 -3.62372 -4.78338 0
M  V30 211 H 19.3503 -3.47956 -3.3772 0
M  V30 212 N 20.6934 1.19889 -1.02296 0
M  V30 213 C 21.9394 1.89701 -0.717033 0
M  V30 214 C 22.2724 1.7905 0.751989 0
M  V30 215 O 21.5474 1.17891 1.547 0
M  V30 216 C 21.8304 3.40858 -1.16136 0
M  V30 217 C 21.6834 3.60411 -2.69117 0
M  V30 218 C 23.0024 4.33876 -0.737549 0
M  V30 219 H 20.1214 0.688874 -0.261957 0
M  V30 220 H 22.7634 1.41154 -1.27183 0
M  V30 221 H 20.9134 3.82335 -0.689342 0
M  V30 222 H 22.5854 3.28145 -3.2422 0
M  V30 223 H 20.8284 3.03665 -3.0979 0
M  V30 224 H 21.4994 4.66396 -2.95261 0
M  V30 225 H 23.9754 4.00081 -1.14344 0
M  V30 226 H 22.8514 5.38242 -1.0764 0
M  V30 227 H 23.1124 4.40628 0.360436 0
M  V30 228 N 22.1715 0.800033 1.35784 0
M  V30 229 C 23.1015 0.220184 2.3246 0
M  V30 230 C 24.0825 -0.65073 1.57161 0
M  V30 231 O 25.2675 -0.582359 1.85263 0
M  V30 232 C 22.3975 -0.637353 3.41402 0
M  V30 233 C 21.3515 0.134531 4.27789 0
M  V30 234 C 20.6775 -0.844285 5.27992 0
M  V30 235 C 21.9775 1.32979 5.05088 0
M  V30 236 H 23.6715 1.02787 2.81203 0
M  V30 237 H 21.2175 0.495717 1.35199 0
M  V30 238 H 23.1705 -1.05302 4.08031 0
M  V30 239 H 21.8945 -1.47785 2.91251 0
M  V30 240 H 20.5535 0.531296 3.6273 0
M  V30 241 H 20.2015 -1.68011 4.74111 0
M  V30 242 H 19.9015 -0.332184 5.8666 0
M  V30 243 H 21.4255 -1.2583 5.97494 0
M  V30 244 H 22.8395 0.98934 5.64699 0
M  V30 245 H 21.2365 1.77593 5.7322 0
M  V30 246 H 22.3065 2.11978 4.36111 0
M  V30 247 N 23.6496 -1.47581 0.552962 0
M  V30 248 C 24.6126 -2.28439 -0.186605 0
M  V30 249 C 25.6126 -1.36706 -0.84665 0
M  V30 250 O 26.8026 -1.59378 -0.703164 0
M  V30 251 C 23.9346 -3.16264 -1.2724 0
M  V30 252 H 25.1276 -2.95294 0.523609 0
M  V30 253 H 22.6806 -1.532 0.309745 0
M  V30 254 H 23.4156 -2.54091 -2.01514 0
M  V30 255 H 23.2006 -3.83769 -0.803968 0
M  V30 256 H 24.6906 -3.77198 -1.79196 0
M  V30 257 N 25.1277 -0.289203 -1.54924 0
M  V30 258 C 26.0597 0.625583 -2.20497 0
M  V30 259 C 27.0727 1.10667 -1.19402 0
M  V30 260 O 28.2617 1.02615 -1.46056 0
M  V30 261 C 25.3617 1.86702 -2.82835 0
M  V30 262 C 24.5347 1.5304 -4.09753 0
M  V30 263 C 23.5937 2.62576 -4.56005 0
M  V30 264 O 22.6197 2.28167 -5.21468 0
M  V30 265 N 23.8217 3.92901 -4.27328 0
M  V30 266 H 26.5867 0.0642801 -2.99631 0
M  V30 267 H 24.1477 -0.110896 -1.6152 0
M  V30 268 H 26.1397 2.59304 -3.10715 0
M  V30 269 H 24.7097 2.33702 -2.07611 0
M  V30 270 H 23.9297 0.637564 -3.8901 0
M  V30 271 H 25.2177 1.28072 -4.92418 0
M  V30 272 H 24.6157 4.23671 -3.74859 0
M  V30 273 H 23.1727 4.61837 -4.59946 0
M  V30 274 N 26.6058 1.57591 -0.0167156 0
M  V30 275 C 28.0168 1.79201 0.523834 0
M  V30 276 C 28.3678 0.925796 1.72984 0
M  V30 277 O 27.4928 0.132792 2.15992 0
M  V30 278 C 28.0878 3.25 0.957091 0
M  V30 279 C 26.6468 3.47648 1.44283 0
M  V30 280 C 25.7938 2.74374 0.401757 0
M  V30 281 H 28.7448 1.56831 -0.242816 0
M  V30 282 H 28.7658 3.34031 1.82219 0
M  V30 283 H 28.2778 3.88019 0.0791415 0
M  V30 284 H 26.3788 2.89866 2.34113 0
M  V30 285 H 26.4918 4.56352 1.45877 0
M  V30 286 H 24.8558 2.39485 0.867121 0
M  V30 287 H 25.6388 3.40102 -0.467513 0
M  V30 288 N 28.0839 -0.256276 1.55502 0
M  V30 289 C 29.3239 -0.993081 1.78654 0
M  V30 290 C 29.6879 -1.8288 0.584724 0
M  V30 291 O 30.8889 -2.59665 0.694822 0
M  V30 292 C 29.1599 -1.83856 3.06483 0
M  V30 293 S 30.7189 -2.63573 3.5082 0
M  V30 294 H 27.5369 -0.334199 0.62756 0
M  V30 295 H 30.1389 -0.26184 1.93739 0
M  V30 296 H 28.8429 -1.21414 3.92029 0
M  V30 297 H 28.3739 -2.61271 2.94111 0
M  V30 298 H 30.3889 -3.86312 3.11412 0
M  V30 299 N 29.562 -1.4872 -0.521534 0
M  V30 300 C 30.472 -1.66569 -1.65203 0
M  V30 301 C 31.488 -0.548197 -1.65139 0
M  V30 302 O 32.664 -0.820339 -1.83936 0
M  V30 303 C 29.729 -1.70917 -3.01642 0
M  V30 304 C 28.79 -2.94356 -3.12495 0
M  V30 305 C 28.023 -2.98487 -4.42426 0
M  V30 306 O 28.246 -2.10786 -5.30024 0
M  V30 307 O 27.18 -3.90746 -4.57822 0
M  V30 308 H 31.006 -2.62298 -1.5308 0
M  V30 309 H 28.591 -1.3222 -0.695565 0
M  V30 310 H 30.473 -1.7625 -3.82771 0
M  V30 311 H 29.148 -0.783633 -3.14071 0
M  V30 312 H 28.055 -2.94552 -2.3063 0
M  V30 313 H 29.388 -3.86322 -3.04986 0
M  V30 314 N 31.0401 0.771051 -1.3745 0
M  V30 315 C 32.2881 1.52661 -1.32435 0
M  V30 316 C 32.6091 1.9479 0.0905024 0
M  V30 317 O 31.8791 1.66348 1.03466 0
M  V30 318 H 30.4591 0.566218 -0.487244 0
M  V30 319 H 33.1211 0.917636 -1.71946 0
M  V30 320 H 32.2171 2.42568 -1.96385 0
M  V30 321 N 32.5182 1.22032 0.997298 0
M  V30 322 C 33.7462 1.06841 1.7718 0
M  V30 323 C 34.1612 -0.381325 1.84909 0
M  V30 324 O 33.5182 -1.26437 1.31605 0
M  V30 325 C 33.5692 1.66814 3.20711 0
M  V30 326 O 33.2902 3.06116 3.13408 0
M  V30 327 C 34.7912 1.56838 4.14628 0
M  V30 328 H 32.0112 0.374782 0.556578 0
M  V30 329 H 34.5552 1.61532 1.2541 0
M  V30 330 H 32.7102 1.16196 3.69564 0
M  V30 331 H 33.1242 3.34926 4.0364 0
M  V30 332 H 34.5982 2.03532 5.13107 0
M  V30 333 H 35.0752 0.524155 4.36061 0
M  V30 334 H 35.6812 2.06741 3.7167 0
M  V30 335 N 33.9963 -1.19345 1.0293 0
M  V30 336 C 35.2733 -1.84811 0.640642 0
M  V30 337 C 35.6533 -1.91855 -0.88062 0
M  V30 338 O 35.0013 -1.43587 -1.7775 0
M  V30 339 C 35.2113 -3.23755 1.30321 0
M  V30 340 C 36.5593 -3.99912 1.42673 0
M  V30 341 O 37.5833 -3.33155 1.26041 0
M  V30 342 O 36.4423 -5.19494 1.6967 0
M  V30 343 H 33.5363 -0.796443 0.222726 0
M  V30 344 H 36.0823 -1.26831 1.12748 0
M  V30 345 H 34.8543 -3.13466 2.34211 0
M  V30 346 H 34.4773 -3.89381 0.804261 0
M  V30 347 N 35.4744 -0.807222 -1.35358 0
M  V30 348 C 36.8854 -0.44876 -1.81226 0
M  V30 349 C 37.2364 1.02929 -1.67033 0
M  V30 350 O 36.3614 1.79991 -1.20133 0
M  V30 351 C 36.9564 -0.807774 -3.2903 0
M  V30 352 C 35.5154 -0.501901 -3.73039 0
M  V30 353 C 34.6624 -1.03304 -2.57339 0
M  V30 354 H 37.6134 -0.998808 -1.23327 0
M  V30 355 H 37.6344 -0.10554 -3.80354 0
M  V30 356 H 37.1464 -1.88357 -3.39328 0
M  V30 357 H 35.2474 0.565128 -3.68289 0
M  V30 358 H 35.3604 -1.03497 -4.67787 0
M  V30 359 H 33.7244 -0.455339 -2.50597 0
M  V30 360 H 34.5074 -2.11496 -2.70415 0
M  V30 361 N 36.9525 1.47285 -0.560781 0
M  V30 362 C 37.9155 2.28535 0.174488 0
M  V30 363 C 38.9155 1.37153 0.839388 0
M  V30 364 O 40.1055 1.59748 0.694702 0
M  V30 365 C 37.2375 3.16934 1.25561 0
M  V30 366 H 38.4305 2.95012 -0.539262 0
M  V30 367 H 35.9835 1.53034 -0.317865 0
M  V30 368 H 36.7185 2.55157 2.00164 0
M  V30 369 H 36.5035 3.8419 0.783604 0
M  V30 370 H 37.9935 3.78143 1.77193 0
M  V30 371 N 38.4306 0.297415 1.54768 0
M  V30 372 C 39.6556 -0.318435 2.04941 0
M  V30 373 C 40.0806 -1.4701 1.17345 0
M  V30 374 O 39.4386 -1.80436 0.176758 0
M  V30 375 C 39.4866 -0.755749 3.52592 0
M  V30 376 O 38.5906 -1.86088 3.68028 0
M  V30 377 H 37.9316 -0.062421 0.661059 0
M  V30 378 H 40.4616 0.438215 1.99852 0
M  V30 379 H 40.4716 -1.04552 3.94376 0
M  V30 380 H 39.1466 0.0867233 4.1581 0
M  V30 381 H 37.7236 -1.57193 3.38149 0
M  V30 382 N 39.9087 -1.5758 0.0250728 0
M  V30 383 C 41.3197 -1.79476 -0.514323 0
M  V30 384 C 41.6707 -0.934956 -1.72491 0
M  V30 385 O 40.7957 -0.144245 -2.15919 0
M  V30 386 C 41.3907 -3.25503 -0.939842 0
M  V30 387 C 39.9497 -3.48408 -1.42438 0
M  V30 388 C 39.0967 -2.74583 -0.387201 0
M  V30 389 H 42.0477 -1.567 0.25113 0
M  V30 390 H 42.0687 -3.34992 -1.80445 0
M  V30 391 H 41.5807 -3.88056 -0.0585628 0
M  V30 392 H 39.6817 -2.91103 -2.32572 0
M  V30 393 H 39.7947 -4.57119 -1.43455 0
M  V30 394 H 38.1587 -2.39942 -0.854409 0
M  V30 395 H 38.9417 -3.39849 0.485543 0
M  V30 396 N 41.3868 0.248026 -1.55636 0
M  V30 397 C 42.6348 0.974295 -1.77065 0
M  V30 398 C 42.9558 1.85897 -0.588849 0
M  V30 399 O 42.2258 1.91868 0.395407 0
M  V30 400 H 40.8058 0.362733 -0.653019 0
M  V30 401 H 43.4678 0.266244 -1.93073 0
M  V30 402 H 42.5638 1.59667 -2.68166 0
M  V30 403 N 42.8649 1.48995 0.513639 0
M  V30 404 C 43.8279 1.64229 1.59879 0
M  V30 405 C 44.8279 0.514696 1.5234 0
M  V30 406 O 46.0179 0.78087 1.55718 0
M  V30 407 C 43.1499 1.62783 2.99524 0
M  V30 408 H 44.3429 2.61004 1.47705 0
M  V30 409 H 41.8959 1.37837 0.736936 0
M  V30 410 H 42.6309 0.675461 3.17188 0
M  V30 411 H 42.4159 2.4466 3.06404 0
M  V30 412 H 43.9059 1.76669 3.78388 0
M  V30 413 N 44.343 -0.763751 1.37857 0
M  V30 414 C 45.589 -1.52483 1.33704 0
M  V30 415 C 45.922 -1.94051 -0.0759612 0
M  V30 416 O 45.197 -1.64675 -1.03501 0
M  V30 417 C 45.48 -2.78441 2.28348 0
M  V30 418 C 45.333 -2.43075 3.78463 0
M  V30 419 C 46.652 -3.80415 2.21298 0
M  V30 420 H 43.771 -0.553169 0.487005 0
M  V30 421 H 46.413 -0.875562 1.68624 0
M  V30 422 H 44.563 -3.33842 1.987 0
M  V30 423 H 46.235 -1.93527 4.18742 0
M  V30 424 H 44.478 -1.75666 3.96641 0
M  V30 425 H 45.149 -3.33149 4.40132 0
M  V30 426 H 47.625 -3.34527 2.47449 0
M  V30 427 H 46.501 -4.66257 2.89647 0
M  V30 428 H 46.762 -4.25262 1.20849 0
M  V30 429 N 45.8211 -1.22559 -0.990812 0
M  V30 430 C 46.7311 -1.01394 -2.11557 0
M  V30 431 C 47.7471 0.0383962 -1.73958 0
M  V30 432 O 48.9231 -0.154787 -2.00804 0
M  V30 433 C 45.9881 -0.596569 -3.41529 0
M  V30 434 C 45.0491 -1.72276 -3.93217 0
M  V30 435 C 44.2821 -1.32521 -5.16985 0
M  V30 436 O 44.5051 -0.204909 -5.70032 0
M  V30 437 O 43.4391 -2.14247 -5.62478 0
M  V30 438 H 47.2651 -1.95633 -2.32296 0
M  V30 439 H 44.8501 -1.01172 -1.0993 0
M  V30 440 H 46.7321 -0.374263 -4.19735 0
M  V30 441 H 45.4071 0.316939 -3.22145 0
M  V30 442 H 44.3141 -1.99961 -3.16174 0
M  V30 443 H 45.6471 -2.61421 -4.17037 0
M  V30 444 N 47.2992 1.18797 -1.03562 0
M  V30 445 C 48.5272 1.92599 -0.755869 0
M  V30 446 C 48.9422 1.75886 0.686271 0
M  V30 447 O 48.2992 1.08517 1.46732 0
M  V30 448 C 48.3502 3.44159 -1.10619 0
M  V30 449 O 48.0712 3.60341 -2.4917 0
M  V30 450 C 49.5722 4.3507 -0.850214 0
M  V30 451 H 46.7922 0.611587 -0.276048 0
M  V30 452 H 49.3362 1.50742 -1.38192 0
M  V30 453 H 47.4912 3.83823 -0.525194 0
M  V30 454 H 47.9052 4.54128 -2.62427 0
M  V30 455 H 49.3792 5.39989 -1.14523 0
M  V30 456 H 49.8562 4.38673 0.215176 0
M  V30 457 H 50.4622 4.01097 -1.41426 0
M  V30 458 N 48.7773 0.814389 1.34928 0
M  V30 459 C 50.0023 0.410097 2.03305 0
M  V30 460 C 50.4273 -0.973464 1.60951 0
M  V30 461 O 49.7853 -1.63185 0.789964 0
M  V30 462 C 49.8333 0.51049 3.56968 0
M  V30 463 O 48.9373 -0.473035 4.09678 0
M  V30 464 H 48.2783 0.170088 0.641846 0
M  V30 465 H 50.8083 1.10244 1.72358 0
M  V30 466 H 50.8183 0.383135 4.06197 0
M  V30 467 H 49.4933 1.51963 3.87144 0
M  V30 468 H 48.0703 -0.305272 3.71648 0
M  V30 469 N 50.2554 -1.46986 0.568584 0
M  V30 470 C 51.5014 -2.02741 0.0488709 0
M  V30 471 C 51.8344 -1.44077 -1.30214 0
M  V30 472 O 51.1094 -0.600552 -1.84996 0
M  V30 473 C 51.3924 -3.60086 -0.032047 0
M  V30 474 C 51.2454 -4.29162 1.34686 0
M  V30 475 C 52.5644 -4.33838 -0.739798 0
M  V30 476 H 49.6834 -0.736749 0.0192338 0
M  V30 477 H 52.3254 -1.75289 0.733065 0
M  V30 478 H 50.4754 -3.83606 -0.61473 0
M  V30 479 H 52.1474 -4.16948 1.97362 0
M  V30 480 H 50.3904 -3.89073 1.91846 0
M  V30 481 H 51.0614 -5.37826 1.24285 0
M  V30 482 H 53.5374 -4.15378 -0.244939 0
M  V30 483 H 52.4134 -5.43537 -0.765406 0
M  V30 484 H 52.6744 -4.03875 -1.79827 0
M  V30 485 N 51.7335 -0.305618 -1.54608 0
M  V30 486 C 52.6635 0.561482 -2.26649 0
M  V30 487 C 53.6445 1.13415 -1.26772 0
M  V30 488 O 54.8295 1.16262 -1.55553 0
M  V30 489 C 51.9595 1.73122 -3.01075 0
M  V30 490 C 50.9135 1.2887 -4.08138 0
M  V30 491 C 50.2395 2.54396 -4.70305 0
M  V30 492 C 51.5395 0.416578 -5.20636 0
M  V30 493 H 53.2335 -0.0393902 -2.99374 0
M  V30 494 H 50.7795 -0.020385 -1.43986 0
M  V30 495 H 52.7325 2.34396 -3.50195 0
M  V30 496 H 51.4565 2.3584 -2.25936 0
M  V30 497 H 50.1155 0.698991 -3.59875 0
M  V30 498 H 49.7635 3.15439 -3.918 0
M  V30 499 H 49.4635 2.25486 -5.42614 0
M  V30 500 H 50.9875 3.16464 -5.2219 0
M  V30 501 H 52.4015 0.935116 -5.65622 0
M  V30 502 H 50.7985 0.221046 -5.99693 0
M  V30 503 H 51.8685 -0.557162 -4.81688 0
M  V30 504 N 53.2116 1.57565 -0.0334293 0
M  V30 505 C 54.6276 1.56297 0.322997 0
M  V30 506 C 54.8276 1.03945 1.7262 0
M  V30 507 O 53.8836 0.688109 2.42943 0
M  V30 508 C 55.1966 3.00232 0.167664 0
M  V30 509 C 56.7446 3.12078 0.240107 0
M  V30 510 C 57.2196 4.57859 0.113513 0
M  V30 511 N 58.7106 4.62887 0.170359 0
M  V30 512 C 59.4456 5.73319 0.0962517 0
M  V30 513 N 58.9416 6.92794 -0.0291881 0
M  V30 514 N 60.7346 5.61898 0.150551 0
M  V30 515 H 52.8856 1.89923 -0.950956 0
M  V30 516 H 55.1486 0.873824 -0.367608 0
M  V30 517 H 54.8546 3.42501 -0.799102 0
M  V30 518 H 54.7286 3.654 0.936083 0
M  V30 519 H 57.1156 2.69718 1.19733 0
M  V30 520 H 57.1966 2.49623 -0.558763 0
M  V30 521 H 56.8406 5.009 -0.840314 0
M  V30 522 H 56.7706 5.18299 0.931302 0
M  V30 523 H 59.2616 3.76954 0.26728 0
M  V30 524 H 59.5746 7.7276 -0.0789252 0
M  V30 525 H 57.9196 6.94971 -0.0640299 0
M  V30 526 H 61.1106 4.67448 0.246981 0
M  V30 527 H 61.2836 6.47938 0.0893365 0
M  V30 528 N 54.6897 -0.239769 1.55765 0
M  V30 529 C 55.9667 -0.990056 1.68693 0
M  V30 530 C 56.3467 -2.03107 0.5754 0
M  V30 531 O 55.6947 -2.24604 -0.42017 0
M  V30 532 C 55.9047 -1.61696 3.09282 0
M  V30 533 C 57.2527 -2.11613 3.6811 0
M  V30 534 O 58.2767 -1.71624 3.12127 0
M  V30 535 O 57.1357 -2.85057 4.66267 0
M  V30 536 H 54.2297 -0.461299 0.686391 0
M  V30 537 H 56.7757 -0.232991 1.68093 0
M  V30 538 H 55.5477 -0.864357 3.81634 0
M  V30 539 H 55.1707 -2.44005 3.13923 0
M  V30 540 N 56.1678 -1.49265 -0.50573 0
M  V30 541 C 57.4078 -1.60128 -1.27038 0
M  V30 542 C 57.7718 -0.279557 -1.89954 0
M  V30 543 O 58.9728 -0.263329 -2.67507 0
M  V30 544 C 57.2438 -2.72507 -2.31246 0
M  V30 545 S 58.8028 -3.0329 -3.17113 0
M  V30 546 H 55.6208 -0.564863 -0.4318 0
M  V30 547 H 58.2228 -1.86902 -0.573397 0
M  V30 548 H 56.9268 -3.67068 -1.83546 0
M  V30 549 H 56.4578 -2.4771 -3.05619 0
M  V30 550 H 58.4728 -2.44448 -4.31809 0
M  V30 551 N 57.6459 0.756429 -1.3826 0
M  V30 552 C 58.8949 1.51082 -1.3363 0
M  V30 553 C 59.2079 1.95467 0.0720068 0
M  V30 554 O 60.4139 2.7043 0.240834 0
M  V30 555 C 58.8699 2.72893 -2.34644 0
M  V30 556 C 58.4779 2.35544 -3.81081 0
M  V30 557 C 60.2219 3.50791 -2.39052 0
M  V30 558 C 58.1289 3.53948 -4.73787 0
M  V30 559 H 57.0589 0.56727 -0.49671 0
M  V30 560 H 59.7099 0.827147 -1.638 0
M  V30 561 H 58.0919 3.43227 -1.97513 0
M  V30 562 H 59.2659 1.72894 -4.27135 0
M  V30 563 H 57.5809 1.70786 -3.79764 0
M  V30 564 H 60.1779 4.38823 -3.05513 0
M  V30 565 H 60.5209 3.91745 -1.40861 0
M  V30 566 H 61.0539 2.87467 -2.74968 0
M  V30 567 H 57.7929 3.18064 -5.73163 0
M  V30 568 H 57.3129 4.15651 -4.32428 0
M  V30 569 H 58.9919 4.20566 -4.91663 0
M  V30 570 N 59.124 1.23083 0.984299 0
M  V30 571 C 60.087 1.00979 2.05757 0
M  V30 572 C 61.087 -0.0269573 1.60777 0
M  V30 573 O 62.277 0.212403 1.729 0
M  V30 574 C 59.409 0.527072 3.36801 0
M  V30 575 H 60.602 1.9622 2.26799 0
M  V30 576 H 58.155 1.05072 1.15714 0
M  V30 577 H 58.89 -0.429294 3.21446 0
M  V30 578 H 58.675 1.27515 3.70786 0
M  V30 579 H 60.165 0.392942 4.15747 0
M  V30 580 N 60.6021 -1.18246 1.0419 0
M  V30 581 C 61.5121 -2.25574 0.644476 0
M  V30 582 C 62.5281 -1.70845 -0.329826 0
M  V30 583 O 63.7041 -2.00554 -0.184443 0
M  V30 584 C 60.7691 -3.46697 0.014877 0
M  V30 585 C 59.8301 -4.16554 1.03834 0
M  V30 586 C 59.0631 -5.31894 0.438692 0
M  V30 587 O 59.2861 -5.65385 -0.754752 0
M  V30 588 O 58.2201 -5.90459 1.168 0
M  V30 589 H 62.0461 -2.61836 1.53869 0
M  V30 590 H 59.6311 -1.25352 0.812854 0
M  V30 591 H 61.5131 -4.20062 -0.335538 0
M  V30 592 H 60.1881 -3.12255 -0.853138 0
M  V30 593 H 59.0951 -3.45251 1.44057 0
M  V30 594 H 60.4281 -4.54998 1.87716 0
M  V30 595 N 62.0802 -0.821533 -1.34494 0
M  V30 596 C 63.0432 -0.247847 -2.27856 0
M  V30 597 C 64.0432 0.573453 -1.50227 0
M  V30 598 O 65.2332 0.389759 -1.69784 0
M  V30 599 C 62.3652 0.652698 -3.34593 0
M  V30 600 H 63.5582 -1.07146 -2.80107 0
M  V30 601 H 61.1112 -0.593291 -1.44602 0
M  V30 602 H 61.8462 1.49943 -2.87555 0
M  V30 603 H 61.6312 0.065292 -3.92046 0
M  V30 604 H 63.1212 1.04793 -4.04238 0
M  V30 605 N 63.5583 1.46682 -0.576371 0
M  V30 606 C 64.5053 2.30241 0.160499 0
M  V30 607 C 65.4753 1.40233 0.890162 0
M  V30 608 O 66.6603 1.69186 0.882084 0
M  V30 609 C 63.8003 3.24578 1.1723 0
M  V30 610 C 62.9133 4.29684 0.446736 0
M  V30 611 C 62.0483 5.11154 1.44551 0
M  V30 612 C 61.0873 6.08015 0.70599 0
M  V30 613 N 60.2243 6.82376 1.65251 0
M  V30 614 H 65.0643 2.92727 -0.558127 0
M  V30 615 H 62.6013 1.44272 -0.287056 0
M  V30 616 H 64.5593 3.77711 1.77172 0
M  V30 617 H 63.1893 2.63916 1.85872 0
M  V30 618 H 62.2413 3.79458 -0.267594 0
M  V30 619 H 63.5533 4.98626 -0.131686 0
M  V30 620 H 62.7073 5.68533 2.11791 0
M  V30 621 H 61.4463 4.42158 2.05786 0
M  V30 622 H 60.4513 5.49796 0.0197725 0
M  V30 623 H 61.6763 6.79028 0.09912 0
M  V30 624 H 59.6223 6.16094 2.25308 0
M  V30 625 H 59.5393 7.47556 1.12673 0
M  V30 626 H 60.8073 7.44316 2.31546 0
M  V30 627 N 65.0364 0.313813 1.54444 0
M  V30 628 C 65.9664 -0.549454 2.26943 0
M  V30 629 C 66.9474 -1.12741 1.27372 0
M  V30 630 O 68.1324 -1.15436 1.56167 0
M  V30 631 C 65.2624 -1.71523 3.01989 0
M  V30 632 C 64.2164 -1.26703 4.08816 0
M  V30 633 C 63.5424 -2.51898 4.71647 0
M  V30 634 C 64.8424 -0.388962 5.2085 0
M  V30 635 H 66.5364 0.0552661 2.99349 0
M  V30 636 H 64.0824 0.0280207 1.43973 0
M  V30 637 H 66.0354 -2.32535 3.51433 0
M  V30 638 H 64.7594 -2.34639 2.27183 0
M  V30 639 H 63.4184 -0.679896 3.6024 0
M  V30 640 H 63.0664 -3.13356 3.93468 0
M  V30 641 H 62.7664 -2.22605 5.43802 0
M  V30 642 H 64.2904 -3.1369 5.23861 0
M  V30 643 H 65.7044 -0.905107 5.6611 0
M  V30 644 H 64.1014 -0.18924 5.99802 0
M  V30 645 H 65.1714 0.582699 4.81386 0
M  V30 646 N 66.5145 -1.57545 0.0417849 0
M  V30 647 C 67.4445 -2.14009 -0.933929 0
M  V30 648 C 68.4255 -1.05938 -1.33083 0
M  V30 649 O 69.6105 -1.33833 -1.40721 0
M  V30 650 C 66.7405 -2.67747 -2.21199 0
M  V30 651 C 65.6945 -3.80718 -1.95544 0
M  V30 652 C 65.0205 -4.20935 -3.29724 0
M  V30 653 C 66.3205 -5.06258 -1.28452 0
M  V30 654 H 68.0145 -2.95788 -0.463645 0
M  V30 655 H 65.5605 -1.42285 -0.221573 0
M  V30 656 H 67.5135 -3.05886 -2.89848 0
M  V30 657 H 66.2375 -1.83147 -2.70416 0
M  V30 658 H 64.8965 -3.43037 -1.2931 0
M  V30 659 H 64.5445 -3.33298 -3.76724 0
M  V30 660 H 64.2445 -4.9707 -3.13361 0
M  V30 661 H 65.7685 -4.61666 -3.9962 0
M  V30 662 H 67.1825 -5.41903 -1.8712 0
M  V30 663 H 65.5795 -5.87475 -1.22445 0
M  V30 664 H 66.6495 -4.84207 -0.259219 0
M  V30 665 N 67.9926 0.231505 -1.5589 0
M  V30 666 C 69.2386 0.95877 -1.78705 0
M  V30 667 C 69.5716 1.8438 -0.609725 0
M  V30 668 O 68.8466 1.90521 0.391426 0
M  V30 669 C 69.1296 1.8062 -3.11526 0
M  V30 670 C 68.9826 0.948328 -4.39689 0
M  V30 671 C 70.3016 2.78585 -3.40703 0
M  V30 672 H 67.4206 0.347129 -0.650131 0
M  V30 673 H 70.0626 0.228259 -1.88624 0
M  V30 674 H 68.2126 2.42902 -3.03201 0
M  V30 675 H 69.8846 0.343016 -4.60023 0
M  V30 676 H 68.1276 0.253314 -4.3306 0
M  V30 677 H 68.7986 1.57543 -5.29041 0
M  V30 678 H 71.2746 2.26439 -3.49091 0
M  V30 679 H 70.1506 3.34988 -4.34826 0
M  V30 680 H 70.4116 3.55825 -2.62375 0
M  V30 681 N 69.4707 1.49531 0.497807 0
M  V30 682 C 70.7477 1.49682 1.25915 0
M  V30 683 C 71.1277 0.226339 2.09883 0
M  V30 684 O 70.4757 -0.791189 2.14365 0
M  V30 685 C 70.6857 2.77755 2.11313 0
M  V30 686 C 72.0337 3.27371 2.70395 0
M  V30 687 O 73.0577 2.78894 2.21578 0
M  V30 688 O 71.9167 4.11808 3.59272 0
M  V30 689 H 69.0107 0.599228 0.56996 0
M  V30 690 H 71.5567 1.61798 0.511816 0
M  V30 691 H 70.3287 3.61713 1.49264 0
M  V30 692 H 69.9517 2.68515 2.93233 0
M  V30 693 N 70.9488 -0.749086 1.3866 0
M  V30 694 C 71.9118 -1.84457 1.36045 0
M  V30 695 C 72.9118 -1.58682 0.260122 0
M  V30 696 O 74.1018 -1.66343 0.517261 0
M  V30 697 C 71.2338 -3.22008 1.11911 0
M  V30 698 H 72.4268 -1.88182 2.33512 0
M  V30 699 H 69.9798 -0.951266 1.24019 0
M  V30 700 H 70.7148 -3.2395 0.150686 0
M  V30 701 H 70.4998 -3.42111 1.91579 0
M  V30 702 H 71.9898 -4.0208 1.12788 0
M  V30 703 N 72.4269 -1.23603 -0.977757 0
M  V30 704 C 73.3899 -1.02069 -2.05218 0
M  V30 705 C 74.3899 0.0184305 -1.60789 0
M  V30 706 O 75.5799 -0.221569 -1.72785 0
M  V30 707 C 72.7119 -0.544926 -3.36517 0
M  V30 708 H 73.9049 -1.9742 -2.25755 0
M  V30 709 H 71.4579 -1.05684 -1.15155 0
M  V30 710 H 72.1929 0.412241 -3.21669 0
M  V30 711 H 71.9779 -1.2948 -3.70105 0
M  V30 712 H 73.4679 -0.414985 -4.15533 0
M  V30 713 N 73.905 1.17692 -1.04816 0
M  V30 714 C 75.135 1.91508 -0.775128 0
M  V30 715 C 75.543 1.76844 0.67253 0
M  V30 716 O 74.886 1.10057 1.47082 0
M  V30 717 C 74.948 3.43167 -1.0713 0
M  V30 718 C 74.612 3.81612 -2.51438 0
M  V30 719 C 75.609 3.84772 -3.49638 0
M  V30 720 C 73.294 4.12687 -2.86348 0
M  V30 721 C 75.288 4.18469 -4.80794 0
M  V30 722 C 72.975 4.46053 -4.17708 0
M  V30 723 C 73.973 4.48921 -5.14741 0
M  V30 724 O 73.661 4.81504 -6.43746 0
M  V30 725 H 73.393 0.614575 -0.281555 0
M  V30 726 H 75.947 1.50206 -1.40098 0
M  V30 727 H 74.177 3.84745 -0.388342 0
M  V30 728 H 75.866 3.98239 -0.784883 0
M  V30 729 H 76.632 3.60893 -3.24008 0
M  V30 730 H 72.511 4.09627 -2.11486 0
M  V30 731 H 76.055 4.20623 -5.56527 0
M  V30 732 H 71.952 4.69393 -4.43103 0
M  V30 733 H 72.72 4.99377 -6.4851 0
M  V30 734 N 75.3831 0.828654 1.34056 0
M  V30 735 C 76.3311 0.242973 2.31327 0
M  V30 736 C 77.3251 -0.61944 1.57668 0
M  V30 737 O 78.5311 -0.51014 1.7262 0
M  V30 738 H 74.9061 0.059834 0.749616 0
M  V30 739 H 76.8771 1.07809 2.78244 0
M  V30 740 C 75.6261 -0.575733 3.429 0
M  V30 741 H 74.9491 0.0785582 3.99723 0
M  V30 742 H 76.3891 -0.951547 4.13185 0
M  V30 743 C 74.8481 -1.75044 2.87856 0
M  V30 744 O 75.3781 -2.84882 2.83205 0
M  V30 745 N 73.5841 -1.56903 2.44602 0
M  V30 746 H 73.1311 -0.675547 2.48584 0
M  V30 747 H 73.0891 -2.35652 2.08124 0
M  V30 748 N 76.8612 -1.46375 0.584142 0
M  V30 749 C 78.1072 -2.03248 0.0787103 0
M  V30 750 C 78.4622 -1.44737 -1.26763 0
M  V30 751 O 77.7552 -0.603625 -1.81843 0
M  V30 752 C 77.9492 -3.57373 -0.0439342 0
M  V30 753 C 77.7782 -4.30831 1.28897 0
M  V30 754 C 76.5482 -4.69683 1.8635 0
M  V30 755 C 78.7462 -4.64278 2.21248 0
M  V30 756 N 76.7282 -5.27898 3.13365 0
M  V30 757 C 78.0992 -5.23078 3.32851 0
M  V30 758 C 80.1542 -4.46209 2.20911 0
M  V30 759 C 78.8572 -5.65715 4.44251 0
M  V30 760 C 80.8832 -4.89864 3.31341 0
M  V30 761 C 80.2452 -5.48736 4.41665 0
M  V30 762 H 76.3442 -0.778714 0.0716144 0
M  V30 763 H 78.9282 -1.78509 0.777355 0
M  V30 764 H 77.0992 -3.81823 -0.711749 0
M  V30 765 H 78.8312 -4.00892 -0.553881 0
M  V30 766 H 75.5862 -4.52488 1.39826 0
M  V30 767 H 76.0102 -5.61525 3.78178 0
M  V30 768 H 80.6522 -4.00027 1.36888 0
M  V30 769 H 78.3702 -6.10875 5.29015 0
M  V30 770 H 81.9562 -4.77634 3.322 0
M  V30 771 H 80.8362 -5.81898 5.25704 0
M  V30 772 N 78.3393 -0.321999 -1.54275 0
M  V30 773 C 79.5673 0.283052 -2.04955 0
M  V30 774 C 79.9823 1.45904 -1.19823 0
M  V30 775 O 79.3393 1.81063 -0.228545 0
M  V30 776 C 79.3903 0.719028 -3.54277 0
M  V30 777 O 79.1113 -0.410175 -4.36176 0
M  V30 778 C 80.6123 1.38705 -4.21041 0
M  V30 779 H 77.8323 0.0584616 -0.668448 0
M  V30 780 H 80.3763 -0.467734 -1.99079 0
M  V30 781 H 78.5313 1.41979 -3.60445 0
M  V30 782 H 78.9453 -0.0669416 -5.24457 0
M  V30 783 H 80.4193 1.64306 -5.2698 0
M  V30 784 H 80.8963 2.33385 -3.72059 0
M  V30 785 H 81.5023 0.728906 -4.19007 0
M  V30 786 N 79.8174 1.5752 -0.0501392 0
M  V30 787 C 80.7494 2.08413 0.95376 0
M  V30 788 C 81.7624 1.01175 1.27544 0
M  V30 789 O 82.9514 1.28744 1.23641 0
M  V30 790 C 80.0514 2.51138 2.27559 0
M  V30 791 C 79.2244 3.817 2.13598 0
M  V30 792 C 78.2834 4.10749 3.28895 0
M  V30 793 O 77.3094 4.80685 3.04845 0
M  V30 794 N 78.5114 3.62579 4.5334 0
M  V30 795 H 81.2764 2.95165 0.519383 0
M  V30 796 H 78.8374 1.61327 0.136127 0
M  V30 797 H 80.8294 2.67648 3.03557 0
M  V30 798 H 79.3994 1.6964 2.62567 0
M  V30 799 H 78.6194 3.74782 1.22197 0
M  V30 800 H 79.9074 4.67201 2.01496 0
M  V30 801 H 79.3054 3.06039 4.75769 0
M  V30 802 H 77.8624 3.84329 5.26436 0
M  V30 803 N 81.2955 -0.223234 1.56011 0
M  V30 804 C 82.2425 -1.27664 1.92277 0
M  V30 805 C 83.2125 -1.46659 0.779763 0
M  V30 806 O 84.3975 -1.60256 1.03551 0
M  V30 807 C 81.5375 -2.62234 2.24338 0
M  V30 808 C 80.6505 -2.51051 3.51564 0
M  V30 809 C 79.7855 -3.78133 3.7308 0
M  V30 810 C 78.8245 -3.61665 4.93827 0
M  V30 811 N 77.9615 -4.80693 5.11741 0
M  V30 812 H 82.8015 -0.960358 2.82101 0
M  V30 813 H 80.3385 -0.462901 1.39627 0
M  V30 814 H 82.2965 -3.40596 2.40936 0
M  V30 815 H 80.9265 -2.91961 1.3769 0
M  V30 816 H 79.9785 -1.64132 3.43169 0
M  V30 817 H 81.2905 -2.34803 4.40079 0
M  V30 818 H 80.4445 -4.64938 3.89766 0
M  V30 819 H 79.1835 -3.97304 2.82844 0
M  V30 820 H 78.1885 -2.73244 4.77093 0
M  V30 821 H 79.4135 -3.43966 5.85546 0
M  V30 822 H 77.3595 -5.00181 4.24446 0
M  V30 823 H 77.2765 -4.67165 5.94384 0
M  V30 824 H 78.5445 -5.6893 5.3286 0
M  V30 825 N 82.7736 -1.49793 -0.48987 0
M  V30 826 C 83.9986 -1.63836 -1.27172 0
M  V30 827 C 84.4236 -0.31402 -1.8546 0
M  V30 828 O 83.7816 0.719803 -1.66399 0
M  V30 829 C 83.8296 -2.71797 -2.36978 0
M  V30 830 O 82.9336 -2.31744 -3.41128 0
M  V30 831 H 82.2746 -0.547997 -0.37496 0
M  V30 832 H 84.8046 -1.96053 -0.585191 0
M  V30 833 H 84.8146 -2.94305 -2.82575 0
M  V30 834 H 83.4896 -3.67923 -1.93921 0
M  V30 835 H 82.0666 -2.1961 -3.01373 0
M  V30 836 N 84.2517 0.741722 -1.39055 0
M  V30 837 C 85.5007 1.49656 -1.35225 0
M  V30 838 C 85.8137 1.95533 0.0512708 0
M  V30 839 O 87.0197 2.7067 0.212138 0
M  V30 840 C 85.4757 2.70389 -2.37525 0
M  V30 841 C 85.0837 2.31489 -3.83558 0
M  V30 842 C 86.8277 3.48236 -2.42759 0
M  V30 843 C 84.7347 3.48903 -4.77515 0
M  V30 844 H 83.6647 0.56197 -0.502699 0
M  V30 845 H 86.3157 0.809727 -1.64668 0
M  V30 846 H 84.6977 3.41113 -2.01142 0
M  V30 847 H 85.8717 1.68354 -4.28945 0
M  V30 848 H 84.1867 1.66749 -3.81554 0
M  V30 849 H 86.7837 4.35558 -3.1015 0
M  V30 850 H 87.1267 3.90229 -1.45008 0
M  V30 851 H 87.6597 2.84535 -2.78002 0
M  V30 852 H 84.3987 3.11966 -5.76504 0
M  V30 853 H 83.9187 4.11041 -4.36813 0
M  V30 854 H 85.5977 4.15328 -4.96096 0
M  V30 855 N 85.7298 1.2412 0.971189 0
M  V30 856 C 86.6768 1.0305 2.06517 0
M  V30 857 C 87.6468 -0.0550666 1.66009 0
M  V30 858 O 88.8318 0.0988688 1.90544 0
M  V30 859 C 85.9718 0.637653 3.39158 0
M  V30 860 C 85.0848 1.79633 3.92882 0
M  V30 861 C 84.2198 1.34939 5.13775 0
M  V30 862 C 83.2588 2.47823 5.59687 0
M  V30 863 N 82.3958 2.04022 6.71803 0
M  V30 864 H 87.2358 1.96685 2.23873 0
M  V30 865 H 84.7728 0.979694 1.09729 0
M  V30 866 H 86.7308 0.390931 4.15364 0
M  V30 867 H 85.3608 -0.261693 3.21737 0
M  V30 868 H 84.4128 2.15681 3.13346 0
M  V30 869 H 85.7248 2.64466 4.22918 0
M  V30 870 H 84.8788 1.06134 5.97345 0
M  V30 871 H 83.6178 0.471557 4.85415 0
M  V30 872 H 82.6228 2.77392 4.74693 0
M  V30 873 H 83.8478 3.36158 5.90063 0
M  V30 874 H 81.7938 1.18632 6.45184 0
M  V30 875 H 81.7108 2.82409 7.01271 0
M  V30 876 H 82.9788 1.78347 7.58823 0
M  V30 877 N 87.2079 -1.17134 1.05439 0
M  V30 878 C 88.1399 -2.2078 0.615539 0
M  V30 879 C 89.1529 -1.59584 -0.322001 0
M  V30 880 O 90.3419 -1.78133 -0.114344 0
M  V30 881 C 87.4419 -3.38691 -0.118938 0
M  V30 882 C 86.6149 -4.29454 0.829924 0
M  V30 883 C 85.6739 -5.26024 0.136258 0
M  V30 884 O 84.6999 -5.63952 0.77115 0
M  V30 885 N 85.9019 -5.69487 -1.1254 0
M  V30 886 H 88.6669 -2.59052 1.50705 0
M  V30 887 H 86.2279 -1.32058 0.936603 0
M  V30 888 H 88.2199 -4.00329 -0.593179 0
M  V30 889 H 86.7899 -2.98996 -0.91215 0
M  V30 890 H 86.0099 -3.65211 1.48373 0
M  V30 891 H 87.2979 -4.86984 1.47392 0
M  V30 892 H 86.6959 -5.4075 -1.6615 0
M  V30 893 H 85.2529 -6.33257 -1.54366 0
M  V30 894 N 88.686 -0.835752 -1.33615 0
M  V30 895 C 90.102 -0.523139 -1.50783 0
M  V30 896 C 90.302 0.950171 -1.77691 0
M  V30 897 O 89.358 1.73411 -1.83534 0
M  V30 898 C 90.671 -1.39378 -2.66448 0
M  V30 899 C 92.219 -1.39223 -2.80332 0
M  V30 900 C 92.694 -2.24765 -3.99055 0
M  V30 901 N 94.185 -2.22458 -4.06284 0
M  V30 902 C 94.92 -2.85386 -4.97336 0
M  V30 903 N 94.416 -3.57354 -5.93523 0
M  V30 904 N 96.209 -2.74872 -4.90308 0
M  V30 905 H 88.36 -1.78952 -1.14411 0
M  V30 906 H 90.623 -0.763297 -0.562212 0
M  V30 907 H 90.329 -2.44061 -2.53234 0
M  V30 908 H 90.203 -1.0676 -3.61776 0
M  V30 909 H 92.59 -0.353136 -2.92979 0
M  V30 910 H 92.671 -1.75846 -1.85773 0
M  V30 911 H 92.315 -3.28732 -3.87167 0
M  V30 912 H 92.245 -1.85485 -4.92852 0
M  V30 913 H 94.736 -1.70119 -3.37443 0
M  V30 914 H 95.049 -4.02584 -6.59656 0
M  V30 915 H 93.394 -3.61461 -5.93608 0
M  V30 916 H 96.585 -2.18213 -4.14126 0
M  V30 917 H 96.758 -3.24199 -5.61069 0
M  V30 918 N 90.1641 1.46063 -0.591896 0
M  V30 919 C 91.0941 2.33172 0.123673 0
M  V30 920 C 92.0751 1.45897 0.87453 0
M  V30 921 O 93.2601 1.74698 0.848181 0
M  V30 922 C 90.3901 3.28336 1.13194 0
M  V30 923 C 89.3441 4.25124 0.495324 0
M  V30 924 C 88.6701 5.09863 1.61071 0
M  V30 925 C 89.9701 5.19143 -0.573425 0
M  V30 926 H 91.6641 2.93252 -0.603646 0
M  V30 927 H 89.2101 1.41014 -0.291741 0
M  V30 928 H 91.1631 3.88137 1.64097 0
M  V30 929 H 89.8871 2.66383 1.88965 0
M  V30 930 H 88.5461 3.66599 0.00729452 0
M  V30 931 H 88.1941 4.44288 2.35832 0
M  V30 932 H 87.8941 5.75417 1.19035 0
M  V30 933 H 89.4181 5.72529 2.12233 0
M  V30 934 H 90.8321 5.73106 -0.1491 0
M  V30 935 H 89.2291 5.93089 -0.914636 0
M  V30 936 H 90.2991 4.62519 -1.45617 0
M  V30 937 N 91.6422 0.330177 1.54103 0
M  V30 938 C 93.0582 -0.0222371 1.59585 0
M  V30 939 C 93.2582 -1.49902 1.34654 0
M  V30 940 O 92.3142 -2.25592 1.13421 0
M  V30 941 C 93.6272 0.401932 2.98002 0
M  V30 942 C 95.1752 0.353145 3.11001 0
M  V30 943 C 95.6502 0.752576 4.51775 0
M  V30 944 N 97.1412 0.706239 4.57784 0
M  V30 945 C 97.8762 0.987417 5.64834 0
M  V30 946 N 97.3722 1.33607 6.79795 0
M  V30 947 N 99.1652 0.91254 5.54643 0
M  V30 948 H 91.3162 1.29228 1.68564 0
M  V30 949 H 93.5792 0.525906 0.78875 0
M  V30 950 H 93.2852 1.4311 3.21267 0
M  V30 951 H 93.1592 -0.229699 3.765 0
M  V30 952 H 95.5462 -0.666822 2.87467 0
M  V30 953 H 95.6272 1.0198 2.34593 0
M  V30 954 H 95.2712 1.77049 4.76042 0
M  V30 955 H 95.2012 0.0635409 5.26562 0
M  V30 956 H 97.6922 0.44889 3.75224 0
M  V30 957 H 98.0052 1.53582 7.57385 0
M  V30 958 H 96.3502 1.37439 6.81275 0
M  V30 959 H 99.5412 0.639601 4.6371 0
M  V30 960 H 99.7142 1.13503 6.37982 0
M  V30 961 N 93.1203 -1.57491 0.0584922 0
M  V30 962 C 94.3453 -1.97711 -0.62652 0
M  V30 963 C 94.7703 -0.936132 -1.63151 0
M  V30 964 O 94.1283 0.099811 -1.81025 0
M  V30 965 C 94.1763 -3.36989 -1.28338 0
M  V30 966 O 93.2803 -3.35433 -2.39913 0
M  V30 967 H 92.6213 -0.643868 -0.162266 0
M  V30 968 H 95.1513 -2.04193 0.129064 0
M  V30 969 H 95.1613 -3.73879 -1.63335 0
M  V30 970 H 93.8363 -4.12289 -0.546889 0
M  V30 971 H 92.4133 -3.10298 -2.06809 0
M  V30 972 N 94.5984 0.214957 -1.56127 0
M  V30 973 C 95.8464 0.936518 -1.79091 0
M  V30 974 C 96.1674 1.84606 -0.628148 0
M  V30 975 O 95.4374 1.92664 0.35462 0
M  V30 976 H 94.0174 0.3488 -0.660566 0
M  V30 977 H 96.6794 0.22523 -1.93594 0
M  V30 978 H 95.7754 1.53943 -2.71492 0
M  V30 979 N 96.0765 1.50051 0.48192 0
M  V30 980 C 97.3015 1.64508 1.26301 0
M  V30 981 C 97.7265 0.323851 1.85291 0
M  V30 982 O 97.0845 -0.710969 1.66778 0
M  V30 983 C 97.1325 2.7305 2.35533 0
M  V30 984 O 96.2365 2.3355 3.39895 0
M  V30 985 H 95.5775 0.549978 0.372048 0
M  V30 986 H 98.1075 1.9636 0.574786 0
M  V30 987 H 98.1175 2.95799 2.8101 0
M  V30 988 H 96.7925 3.68946 1.91967 0
M  V30 989 H 95.3695 2.21205 3.00204 0
M  V30 990 N 97.5546 -0.734337 1.39446 0
M  V30 991 C 98.5176 -1.83004 1.37994 0
M  V30 992 C 99.5176 -1.58397 0.276938 0
M  V30 993 O 100.708 -1.65785 0.534875 0
M  V30 994 C 97.8396 -3.20802 1.1532 0
M  V30 995 H 99.0326 -1.85694 2.35494 0
M  V30 996 H 96.5856 -0.938059 1.25021 0
M  V30 997 H 97.3206 -3.23772 0.185036 0
M  V30 998 H 97.1056 -3.4006 1.95197 0
M  V30 999 H 98.5956 -4.00862 1.17046 0
M  V30 1000 N 99.0327 -1.24633 -0.964593 0
M  V30 1001 C 100.258 -1.11596 -1.74818 0
M  V30 1002 C 100.683 0.32723 -1.85232 0
M  V30 1003 O 100.041 1.23695 -1.32549 0
M  V30 1004 C 100.089 -1.76397 -3.1451 0
M  V30 1005 O 99.1927 -1.03685 -3.99153 0
M  V30 1006 H 98.5337 -0.390196 -0.537255 0
M  V30 1007 H 101.064 -1.65002 -1.20977 0
M  V30 1008 H 101.074 -1.8228 -3.65018 0
M  V30 1009 H 99.7487 -2.81401 -3.06246 0
M  V30 1010 H 98.3257 -1.05611 -3.57632 0
M  V30 1011 N 100.511 1.16574 -1.06058 0
M  V30 1012 C 101.922 1.68662 -0.800632 0
M  V30 1013 C 102.273 1.84184 0.67608 0
M  V30 1014 O 101.398 1.53568 1.52466 0
M  V30 1015 C 101.993 3.06356 -1.44676 0
M  V30 1016 C 100.552 3.55575 -1.23465 0
M  V30 1017 C 99.6988 2.31616 -1.52477 0
M  V30 1018 H 102.65 1.00969 -1.22438 0
M  V30 1019 H 102.671 3.70636 -0.860788 0
M  V30 1020 H 102.183 2.95027 -2.52152 0
M  V30 1021 H 100.284 3.72167 -0.179527 0
M  V30 1022 H 100.397 4.37812 -1.94571 0
M  V30 1023 H 98.7608 2.36512 -0.945209 0
M  V30 1024 H 99.5438 2.22887 -2.61106 0
M  V30 1025 N 101.989 0.842826 1.3317 0
M  V30 1026 C 102.922 0.223862 2.27099 0
M  V30 1027 C 103.9 -0.631311 1.49844 0
M  V30 1028 O 105.084 -0.590708 1.79005 0
M  V30 1029 C 102.211 -0.685313 3.31694 0
M  V30 1030 C 101.257 0.094919 4.26394 0
M  V30 1031 S 102.09 1.45546 5.15341 0
M  V30 1032 C 103.246 0.551685 6.23464 0
M  V30 1033 H 103.479 1.02015 2.79249 0
M  V30 1034 H 101.012 0.639797 1.4052 0
M  V30 1035 H 102.97 -1.20426 3.92438 0
M  V30 1036 H 101.631 -1.4553 2.78352 0
M  V30 1037 H 100.824 -0.597059 5.00451 0
M  V30 1038 H 100.426 0.545054 3.70007 0
M  V30 1039 H 102.718 -0.248877 6.77043 0
M  V30 1040 H 103.661 1.26253 6.96754 0
M  V30 1041 H 104.069 0.131275 5.64347 0
M  V30 1042 N 103.467 -1.45747 0.599634 0
M  V30 1043 C 104.744 -1.95585 0.0240846 0
M  V30 1044 C 105.124 -1.54217 -1.44154 0
M  V30 1045 O 104.472 -0.800903 -2.14004 0
M  V30 1046 C 104.682 -3.48344 0.21385 0
M  V30 1047 C 106.03 -4.24504 0.0904902 0
M  V30 1048 O 107.054 -3.55911 0.143558 0
M  V30 1049 O 105.913 -5.46491 -0.0310766 0
M  V30 1050 H 103.007 -0.82602 -0.0402478 0
M  V30 1051 H 105.553 -1.55951 0.669139 0
M  V30 1052 H 104.325 -3.71397 1.23206 0
M  V30 1053 H 103.948 -3.9485 -0.466842 0
M  V30 1054 N 104.945 -0.338344 -1.53925 0
M  V30 1055 C 105.875 0.51328 -2.27789 0
M  V30 1056 C 106.856 1.107 -1.29149 0
M  V30 1057 O 108.041 1.12937 -1.57984 0
M  V30 1058 C 105.171 1.66697 -3.04679 0
M  V30 1059 C 104.125 1.20183 -4.1078 0
M  V30 1060 C 103.451 2.44363 -4.75595 0
M  V30 1061 C 104.751 0.30605 -5.21403 0
M  V30 1062 H 106.445 -0.102883 -2.99223 0
M  V30 1063 H 103.991 -0.0509219 -1.4391 0
M  V30 1064 H 105.944 2.26915 -3.55088 0
M  V30 1065 H 104.668 2.30995 -2.30887 0
M  V30 1066 H 103.327 0.622499 -3.61276 0
M  V30 1067 H 102.975 3.07057 -3.98403 0
M  V30 1068 H 102.675 2.13925 -5.47275 0
M  V30 1069 H 104.199 3.05317 -5.28786 0
M  V30 1070 H 105.613 0.814929 -5.67478 0
M  V30 1071 H 104.01 0.0937929 -6.00027 0
M  V30 1072 H 105.08 -0.65921 -4.80398 0
M  V30 1073 N 106.423 1.57458 -0.0668435 0
M  V30 1074 C 107.353 2.15468 0.899764 0
M  V30 1075 C 108.334 1.08042 1.31381 0
M  V30 1076 O 109.519 1.36054 1.38574 0
M  V30 1077 C 106.649 2.71232 2.16911 0
M  V30 1078 C 105.603 3.83781 1.89463 0
M  V30 1079 C 104.929 4.26127 3.22986 0
M  V30 1080 C 106.229 5.08238 1.20381 0
M  V30 1081 H 107.923 2.96488 0.416529 0
M  V30 1082 H 105.469 1.4262 0.198908 0
M  V30 1083 H 107.422 3.10458 2.84945 0
M  V30 1084 H 106.146 1.87426 2.67468 0
M  V30 1085 H 104.805 3.45051 1.23836 0
M  V30 1086 H 104.453 3.39249 3.71374 0
M  V30 1087 H 104.153 5.01993 3.05413 0
M  V30 1088 H 105.677 4.67966 3.92225 0
M  V30 1089 H 107.091 5.44811 1.78475 0
M  V30 1090 H 105.488 5.89349 1.13083 0
M  V30 1091 H 106.558 4.84558 0.182153 0
M  V30 1092 N 107.901 -0.206675 1.56239 0
M  V30 1093 C 109.126 -0.949474 1.8439 0
M  V30 1094 C 109.551 -1.76549 0.649016 0
M  V30 1095 O 108.909 -1.76782 -0.402231 0
M  V30 1096 C 108.957 -1.83078 3.10668 0
M  V30 1097 O 108.061 -2.9281 2.90407 0
M  V30 1098 H 107.402 -0.268033 0.607499 0
M  V30 1099 H 109.932 -0.215488 2.03462 0
M  V30 1100 H 109.942 -2.2377 3.41161 0
M  V30 1101 H 108.617 -1.23112 3.97261 0
M  V30 1102 H 107.194 -2.55956 2.71184 0
M  V30 1103 N 109.379 -1.50304 -0.473955 0
M  V30 1104 C 110.609 -1.64663 -1.24778 0
M  V30 1105 C 111.017 -0.328174 -1.86332 0
M  V30 1106 O 110.36 0.699536 -1.69859 0
M  V30 1107 C 110.422 -2.6778 -2.39863 0
M  V30 1108 C 110.086 -4.11413 -1.98969 0
M  V30 1109 C 111.083 -4.97372 -1.51385 0
M  V30 1110 C 108.768 -4.57312 -2.07777 0
M  V30 1111 C 110.762 -6.27277 -1.13148 0
M  V30 1112 C 108.449 -5.87223 -1.69152 0
M  V30 1113 C 109.447 -6.72031 -1.21915 0
M  V30 1114 O 109.135 -7.99518 -0.838237 0
M  V30 1115 H 108.867 -0.556602 -0.383627 0
M  V30 1116 H 111.421 -1.9726 -0.572491 0
M  V30 1117 H 109.651 -2.30419 -3.10554 0
M  V30 1118 H 111.34 -2.71388 -3.01833 0
M  V30 1119 H 112.106 -4.63128 -1.44004 0
M  V30 1120 H 107.985 -3.91449 -2.43493 0
M  V30 1121 H 111.529 -6.93425 -0.762077 0
M  V30 1122 H 107.426 -6.20989 -1.76191 0
M  V30 1123 H 108.194 -8.12764 -0.967339 0
M  V30 1124 N 110.857 0.726932 -1.39834 0
M  V30 1125 C 112.104 1.48664 -1.37496 0
M  V30 1126 C 112.432 1.94482 0.0264678 0
M  V30 1127 O 111.687 1.67692 1.00886 0
M  V30 1128 C 111.986 2.73495 -2.30077 0
M  V30 1129 C 111.652 2.46502 -3.77555 0
M  V30 1130 C 110.314 2.3885 -4.17737 0
M  V30 1131 C 112.666 2.23604 -4.70798 0
M  V30 1132 C 109.994 2.06352 -5.49214 0
M  V30 1133 C 112.346 1.92622 -6.02561 0
M  V30 1134 C 111.01 1.83444 -6.41798 0
M  V30 1135 H 110.28 0.544001 -0.503135 0
M  V30 1136 H 112.927 0.833657 -1.72402 0
M  V30 1137 H 111.232 3.43575 -1.88317 0
M  V30 1138 H 112.929 3.31549 -2.25558 0
M  V30 1139 H 109.519 2.5334 -3.45712 0
M  V30 1140 H 113.703 2.28479 -4.40581 0
M  V30 1141 H 108.959 1.97776 -5.78528 0
M  V30 1142 H 113.133 1.73914 -6.74334 0
M  V30 1143 H 110.76 1.58029 -7.43593 0
M  V30 1144 N 112.336 1.25143 0.95797 0
M  V30 1145 C 113.283 1.05235 2.05412 0
M  V30 1146 C 114.253 -0.0374561 1.66058 0
M  V30 1147 O 115.438 0.119073 1.90428 0
M  V30 1148 C 112.578 0.673589 3.38462 0
M  V30 1149 C 111.691 1.8379 3.90954 0
M  V30 1150 C 110.826 1.40381 5.12315 0
M  V30 1151 C 109.865 2.53746 5.57027 0
M  V30 1152 N 109.002 2.11136 6.69601 0
M  V30 1153 H 113.842 1.99048 2.21774 0
M  V30 1154 H 111.379 0.991277 1.08683 0
M  V30 1155 H 113.337 0.434964 4.14926 0
M  V30 1156 H 111.967 -0.227554 3.21997 0
M  V30 1157 H 111.019 2.18992 3.11041 0
M  V30 1158 H 112.331 2.68937 4.20089 0
M  V30 1159 H 111.485 1.12464 5.96185 0
M  V30 1160 H 110.224 0.523015 4.84887 0
M  V30 1161 H 109.229 2.82412 4.71724 0
M  V30 1162 H 110.454 3.42398 5.86464 0
M  V30 1163 H 108.4 1.25468 6.4389 0
M  V30 1164 H 108.317 2.89832 6.98236 0
M  V30 1165 H 109.585 1.86385 7.56889 0
M  V30 1166 N 113.814 -1.1601 1.06675 0
M  V30 1167 C 114.746 -2.20115 0.638921 0
M  V30 1168 C 115.759 -1.59916 -0.305057 0
M  V30 1169 O 116.948 -1.78245 -0.0954446 0
M  V30 1170 C 114.048 -3.38798 -0.0830083 0
M  V30 1171 C 113.221 -4.2855 0.875426 0
M  V30 1172 C 112.28 -5.25849 0.192042 0
M  V30 1173 O 111.306 -5.63102 0.830921 0
M  V30 1174 N 112.508 -5.70648 -1.06493 0
M  V30 1175 H 115.273 -2.57439 1.53444 0
M  V30 1176 H 112.834 -1.31057 0.950557 0
M  V30 1177 H 114.826 -4.00936 -0.550685 0
M  V30 1178 H 113.396 -2.99947 -0.880386 0
M  V30 1179 H 112.616 -3.63617 1.52238 0
M  V30 1180 H 113.904 -4.85393 1.52548 0
M  V30 1181 H 113.302 -5.42482 -1.60405 0
M  V30 1182 H 111.859 -6.34859 -1.47641 0
M  V30 1183 N 115.292 -0.849877 -1.32721 0
M  V30 1184 C 116.703 -0.506188 -1.79707 0
M  V30 1185 C 117.054 0.975627 -1.70223 0
M  V30 1186 O 116.179 1.76078 -1.25799 0
M  V30 1187 C 116.774 -0.912044 -3.26293 0
M  V30 1188 C 115.333 -0.620326 -3.71253 0
M  V30 1189 C 114.48 -1.11439 -2.53922 0
M  V30 1190 H 117.431 -1.03754 -1.20087 0
M  V30 1191 H 117.452 -0.226493 -3.79825 0
M  V30 1192 H 116.964 -1.99057 -3.33164 0
M  V30 1193 H 115.065 0.447674 -3.69901 0
M  V30 1194 H 115.178 -1.18327 -4.64258 0
M  V30 1195 H 113.542 -0.534834 -2.49021 0
M  V30 1196 H 114.325 -2.19992 -2.6355 0
M  V30 1197 N 116.77 1.45427 -0.607355 0
M  V30 1198 C 118.016 2.0254 -0.102607 0
M  V30 1199 C 118.349 1.47478 1.26348 0
M  V30 1200 O 117.624 0.64939 1.83339 0
M  V30 1201 C 117.907 3.60044 -0.0634347 0
M  V30 1202 C 117.76 4.2544 -1.46017 0
M  V30 1203 C 119.079 4.35646 0.624514 0
M  V30 1204 H 116.198 0.73598 -0.0387607 0
M  V30 1205 H 118.84 1.73284 -0.779282 0
M  V30 1206 H 116.99 3.85101 0.512808 0
M  V30 1207 H 118.662 4.11569 -2.08347 0
M  V30 1208 H 116.905 3.83849 -2.02094 0
M  V30 1209 H 117.576 5.34342 -1.385 0
M  V30 1210 H 120.052 4.15882 0.134723 0
M  V30 1211 H 118.928 5.45376 0.621028 0
M  V30 1212 H 119.189 4.08501 1.69055 0
M  V30 1213 N 118.248 0.346503 1.53744 0
M  V30 1214 C 119.211 -0.496439 2.23759 0
M  V30 1215 C 120.211 -1.0252 1.2388 0
M  V30 1216 O 121.401 -0.913974 1.48297 0
M  V30 1217 C 118.533 -1.69187 2.95954 0
M  V30 1218 H 119.726 0.115952 2.99676 0
M  V30 1219 H 117.279 0.0978939 1.55993 0
M  V30 1220 H 118.014 -2.34288 2.24231 0
M  V30 1221 H 117.799 -1.31989 3.69217 0
M  V30 1222 H 119.289 -2.28969 3.49232 0
M  V30 1223 N 119.726 -1.57421 0.075193 0
M  V30 1224 C 120.689 -2.11791 -0.876203 0
M  V30 1225 C 121.689 -1.04268 -1.22412 0
M  V30 1226 O 122.879 -1.30242 -1.15684 0
M  V30 1227 C 120.011 -2.62207 -2.17854 0
M  V30 1228 H 121.204 -2.9716 -0.40444 0
M  V30 1229 H 118.757 -1.55333 -0.173557 0
M  V30 1230 H 119.492 -1.803 -2.6956 0
M  V30 1231 H 119.277 -3.40802 -1.93897 0
M  V30 1232 H 120.767 -3.04335 -2.85955 0
M  V30 1233 N 121.204 0.198386 -1.56346 0
M  V30 1234 C 122.432 0.935572 -1.84539 0
M  V30 1235 C 122.847 1.76989 -0.657281 0
M  V30 1236 O 122.204 1.78626 0.374043 0
M  V30 1237 C 122.255 1.8344 -3.11499 0
M  V30 1238 O 121.976 1.03377 -4.25728 0
M  V30 1239 C 123.477 2.68355 -3.52846 0
M  V30 1240 H 120.697 0.273126 -0.612897 0
M  V30 1241 H 123.241 0.20663 -2.03453 0
M  V30 1242 H 121.396 2.51701 -2.94492 0
M  V30 1243 H 121.81 1.64599 -4.98003 0
M  V30 1244 H 123.284 3.27085 -4.44657 0
M  V30 1245 H 123.761 3.41901 -2.75681 0
M  V30 1246 H 124.367 2.05471 -3.72373 0
M  V30 1247 N 122.682 1.50554 0.465978 0
M  V30 1248 C 124.098 1.38093 0.800154 0
M  V30 1249 C 124.298 0.440988 1.96615 0
M  V30 1250 O 123.354 -0.114499 2.5224 0
M  V30 1251 C 124.667 2.79565 1.10742 0
M  V30 1252 C 126.215 2.88516 1.21357 0
M  V30 1253 C 126.69 4.30833 1.55393 0
M  V30 1254 N 128.181 4.33807 1.62375 0
M  V30 1255 C 128.916 5.40927 1.90225 0
M  V30 1256 N 128.412 6.58247 2.16062 0
M  V30 1257 N 130.205 5.28376 1.9177 0
M  V30 1258 H 122.356 2.10237 -0.302366 0
M  V30 1259 H 124.619 0.945203 -0.0727746 0
M  V30 1260 H 124.325 3.50208 0.323661 0
M  V30 1261 H 124.199 3.17125 2.04234 0
M  V30 1262 H 126.586 2.1809 1.98799 0
M  V30 1263 H 126.667 2.54492 0.258321 0
M  V30 1264 H 126.311 5.01799 0.784889 0
M  V30 1265 H 126.241 4.62347 2.52076 0
M  V30 1266 H 128.732 3.49212 1.44427 0
M  V30 1267 H 129.045 7.3569 2.36601 0
M  V30 1268 H 127.39 6.61413 2.13444 0
M  V30 1269 H 130.581 4.35715 1.71085 0
M  V30 1270 H 130.754 6.11944 2.13139 0
M  V30 1271 N 124.16 -0.719506 1.40217 0
M  V30 1272 C 125.388 -1.50864 1.41589 0
M  V30 1273 C 125.803 -1.88794 0.0145275 0
M  V30 1274 O 125.16 -1.55174 -0.960594 0
M  V30 1275 C 125.211 -2.78646 2.30302 0
M  V30 1276 O 124.932 -2.42321 3.64983 0
M  V30 1277 C 126.433 -3.72569 2.40224 0
M  V30 1278 H 123.653 -0.465709 0.48307 0
M  V30 1279 H 126.197 -0.88785 1.84221 0
M  V30 1280 H 124.352 -3.37019 1.91042 0
M  V30 1281 H 124.766 -3.24514 4.12057 0
M  V30 1282 H 126.24 -4.5908 3.06512 0
M  V30 1283 H 126.717 -4.15403 1.42608 0
M  V30 1284 H 127.323 -3.20109 2.80019 0
M  V30 1285 N 125.638 -1.25649 -0.95132 0
M  V30 1286 C 126.884 -1.10757 -1.69884 0
M  V30 1287 C 127.217 0.350061 -1.91019 0
M  V30 1288 O 126.492 1.25783 -1.48354 0
M  V30 1289 C 126.775 -1.86606 -3.07978 0
M  V30 1290 C 126.628 -3.40217 -2.94232 0
M  V30 1291 C 127.947 -1.65182 -4.07925 0
M  V30 1292 H 125.066 -0.40374 -0.616574 0
M  V30 1293 H 127.708 -1.54521 -1.10558 0
M  V30 1294 H 125.858 -1.49409 -3.58621 0
M  V30 1295 H 127.53 -3.87108 -2.50889 0
M  V30 1296 H 125.773 -3.67759 -2.30078 0
M  V30 1297 H 126.444 -3.88505 -3.92133 0
M  V30 1298 H 128.92 -1.9757 -3.66204 0
M  V30 1299 H 127.796 -2.20683 -5.02583 0
M  V30 1300 H 128.057 -0.593933 -4.38092 0
M  V30 1301 N 127.117 1.15442 -1.07289 0
M  V30 1302 C 128.363 1.86489 -0.796846 0
M  V30 1303 C 128.696 1.82078 0.675371 0
M  V30 1304 O 127.971 1.24346 1.4956 0
M  V30 1305 C 128.254 3.35626 -1.30489 0
M  V30 1306 C 128.107 3.48673 -2.84161 0
M  V30 1307 C 129.426 4.30357 -0.920907 0
M  V30 1308 H 126.545 0.677144 -0.290939 0
M  V30 1309 H 129.187 1.35633 -1.33056 0
M  V30 1310 H 127.337 3.79068 -0.850883 0
M  V30 1311 H 129.009 3.14099 -3.37846 0
M  V30 1312 H 127.252 2.90253 -3.22391 0
M  V30 1313 H 127.923 4.53453 -3.14777 0
M  V30 1314 H 130.399 3.94871 -1.3121 0
M  V30 1315 H 129.275 5.33193 -1.30372 0
M  V30 1316 H 129.536 4.4176 0.173226 0
M  V30 1317 N 128.595 0.856903 1.32268 0
M  V30 1318 C 130.011 0.547061 1.49931 0
M  V30 1319 C 130.211 -0.921781 1.7918 0
M  V30 1320 O 129.267 -1.70469 1.8627 0
M  V30 1321 C 130.58 1.43599 2.64196 0
M  V30 1322 C 132.128 1.43665 2.78081 0
M  V30 1323 C 132.603 2.31085 3.95428 0
M  V30 1324 N 134.094 2.28893 4.02694 0
M  V30 1325 C 134.829 2.93262 4.92732 0
M  V30 1326 N 134.325 3.66751 5.87763 0
M  V30 1327 N 136.118 2.82638 4.85873 0
M  V30 1328 H 128.269 1.8075 1.11549 0
M  V30 1329 H 130.532 0.772144 0.549997 0
M  V30 1330 H 130.238 2.48058 2.49319 0
M  V30 1331 H 130.112 1.12502 3.60032 0
M  V30 1332 H 132.499 0.399701 2.92381 0
M  V30 1333 H 132.58 1.7878 1.82952 0
M  V30 1334 H 132.224 3.34849 3.81888 0
M  V30 1335 H 132.154 1.93302 4.89839 0
M  V30 1336 H 134.645 1.75466 3.34694 0
M  V30 1337 H 134.958 4.13027 6.53168 0
M  V30 1338 H 133.303 3.70859 5.87783 0
M  V30 1339 H 136.494 2.24774 4.10602 0
M  V30 1340 H 136.667 3.33084 5.55841 0
M  V30 1341 N 130.073 -1.45103 0.615059 0
M  V30 1342 C 131.036 -2.29025 -0.0895485 0
M  V30 1343 C 132.036 -1.40174 -0.787906 0
M  V30 1344 O 133.226 -1.62217 -0.634933 0
M  V30 1345 C 130.358 -3.21376 -1.13711 0
M  V30 1346 H 131.551 -2.92807 0.648382 0
M  V30 1347 H 129.104 -1.51749 0.374444 0
M  V30 1348 H 129.839 -2.6241 -1.90556 0
M  V30 1349 H 129.624 -3.86834 -0.640475 0
M  V30 1350 H 131.114 -3.84459 -1.63036 0
M  V30 1351 N 131.551 -0.354651 -1.53558 0
M  V30 1352 C 132.514 0.484566 -2.24019 0
M  V30 1353 C 133.514 1.01861 -1.24422 0
M  V30 1354 O 134.704 0.906097 -1.4878 0
M  V30 1355 C 131.836 1.67615 -2.96847 0
M  V30 1356 H 133.029 -0.131843 -2.9961 0
M  V30 1357 H 130.582 -0.106165 -1.55939 0
M  V30 1358 H 131.317 2.33095 -2.25471 0
M  V30 1359 H 131.102 1.30029 -3.69912 0
M  V30 1360 H 132.592 2.27114 -3.50441 0
M  V30 1361 N 133.029 1.57378 -0.0835403 0
M  V30 1362 C 134.306 1.85363 0.624507 0
M  V30 1363 C 134.686 0.978239 1.87066 0
M  V30 1364 O 134.034 0.0475908 2.2845 0
M  V30 1365 C 134.244 3.35795 0.950947 0
M  V30 1366 C 135.592 4.03581 1.31939 0
M  V30 1367 O 136.616 3.40609 1.04232 0
M  V30 1368 O 135.475 5.14672 1.83779 0
M  V30 1369 H 132.569 0.766162 0.311329 0
M  V30 1370 H 135.115 1.69307 -0.115362 0
M  V30 1371 H 133.887 3.91244 0.0663899 0
M  V30 1372 H 133.51 3.57154 1.74719 0
M  V30 1373 N 134.507 -0.190092 1.56449 0
M  V30 1374 C 135.737 -0.92443 1.84764 0
M  V30 1375 C 136.145 -1.77146 0.664529 0
M  V30 1376 O 135.488 -1.79812 -0.375957 0
M  V30 1377 C 135.55 -1.86651 3.07248 0
M  V30 1378 C 135.214 -1.20094 4.40938 0
M  V30 1379 C 136.211 -0.575445 5.16706 0
M  V30 1380 C 133.896 -1.2033 4.87674 0
M  V30 1381 C 135.89 0.0388111 6.37388 0
M  V30 1382 C 133.577 -0.585214 6.08291 0
M  V30 1383 C 134.575 0.0347578 6.82991 0
M  V30 1384 O 134.263 0.643147 8.01323 0
M  V30 1385 H 133.995 -0.274974 0.617548 0
M  V30 1386 H 136.549 -0.200788 2.04416 0
M  V30 1387 H 134.779 -2.62998 2.83494 0
M  V30 1388 H 136.468 -2.46907 3.22167 0
M  V30 1389 H 137.234 -0.565728 4.81689 0
M  V30 1390 H 133.113 -1.67526 4.29484 0
M  V30 1391 H 136.657 0.523329 6.95634 0
M  V30 1392 H 132.554 -0.592451 6.42775 0
M  V30 1393 H 133.322 0.540545 8.16713 0
M  V30 1394 N 135.985 -1.50799 -0.457987 0
M  V30 1395 C 136.918 -1.65273 -1.57353 0
M  V30 1396 C 137.896 -0.500578 -1.54703 0
M  V30 1397 O 139.08 -0.721781 -1.74134 0
M  V30 1398 C 136.207 -1.64737 -2.95938 0
M  V30 1399 C 135.253 -2.8567 -3.16693 0
M  V30 1400 S 136.086 -4.46791 -2.95191 0
M  V30 1401 C 137.242 -4.48968 -4.36095 0
M  V30 1402 H 137.475 -2.59633 -1.44838 0
M  V30 1403 H 135.008 -1.40225 -0.64625 0
M  V30 1404 H 136.966 -1.65112 -3.7583 0
M  V30 1405 H 135.627 -0.715899 -3.05833 0
M  V30 1406 H 134.82 -2.81637 -4.17967 0
M  V30 1407 H 134.422 -2.8293 -2.44594 0
M  V30 1408 H 136.714 -4.23337 -5.28954 0
M  V30 1409 H 137.657 -5.50664 -4.45168 0
M  V30 1410 H 138.065 -3.78522 -4.18786 0
M  V30 1411 N 137.463 0.71206 -1.40597 0
M  V30 1412 C 138.413 1.81783 -1.37619 0
M  V30 1413 C 139.397 1.58896 -0.253162 0
M  V30 1414 O 140.589 1.70009 -0.492547 0
M  V30 1415 C 137.718 3.19944 -1.24462 0
M  V30 1416 C 136.804 3.48582 -2.4156 0
M  V30 1417 N 137.195 3.48016 -3.67041 0
M  V30 1418 C 135.493 3.79056 -2.35016 0
M  V30 1419 C 136.194 3.75096 -4.44609 0
M  V30 1420 N 135.17 3.94022 -3.74497 0
M  V30 1421 H 138.972 1.79683 -2.32575 0
M  V30 1422 H 136.486 0.91134 -1.34419 0
M  V30 1423 H 138.483 3.99133 -1.20411 0
M  V30 1424 H 137.143 3.23267 -0.304762 0
M  V30 1425 H 138.154 3.28782 -4.00153 0
M  V30 1426 H 134.831 3.89848 -1.49415 0
M  V30 1427 H 136.221 3.80934 -5.53479 0
M  V30 1428 N 138.941 1.26152 0.944643 0
M  V30 1429 C 140.187 1.11657 1.69294 0
M  V30 1430 C 140.52 -0.339926 1.91202 0
M  V30 1431 O 139.795 -1.24994 1.49019 0
M  V30 1432 C 140.078 1.88236 3.06984 0
M  V30 1433 C 139.931 3.41772 2.92424 0
M  V30 1434 C 141.25 1.67343 4.07043 0
M  V30 1435 H 138.369 0.407004 0.614424 0
M  V30 1436 H 141.011 1.55106 1.09737 0
M  V30 1437 H 139.161 1.51308 3.57824 0
M  V30 1438 H 140.833 3.88433 2.48832 0
M  V30 1439 H 139.076 3.68974 2.28124 0
M  V30 1440 H 139.747 3.90579 3.90067 0
M  V30 1441 H 142.223 1.99509 3.65151 0
M  V30 1442 H 141.099 2.23346 5.01406 0
M  V30 1443 H 141.36 0.617158 4.37771 0
M  V30 1444 N 140.419 -1.14872 1.07899 0
M  V30 1445 C 141.382 -2.17986 0.708161 0
M  V30 1446 C 142.382 -1.58775 -0.25442 0
M  V30 1447 O 143.572 -1.74166 -0.034645 0
M  V30 1448 C 140.704 -3.40871 0.0446929 0
M  V30 1449 H 141.897 -2.52306 1.62116 0
M  V30 1450 H 139.45 -1.2943 0.876218 0
M  V30 1451 H 140.185 -3.12124 -0.880281 0
M  V30 1452 H 139.97 -3.8511 0.737091 0
M  V30 1453 H 141.46 -4.17121 -0.19991 0
M  V30 1454 N 141.898 -0.863906 -1.31812 0
M  V30 1455 C 142.828 -0.330843 -2.31144 0
M  V30 1456 C 143.809 0.575005 -1.60087 0
M  V30 1457 O 144.994 0.493304 -1.8783 0
M  V30 1458 C 142.124 0.47374 -3.44054 0
M  V30 1459 C 141.078 -0.338481 -4.26659 0
M  V30 1460 C 140.404 0.591412 -5.31419 0
M  V30 1461 C 141.704 -1.56926 -4.98168 0
M  V30 1462 H 143.398 -1.16086 -2.75979 0
M  V30 1463 H 140.944 -0.559657 -1.32679 0
M  V30 1464 H 142.897 0.857143 -4.12591 0
M  V30 1465 H 141.621 1.33721 -2.9797 0
M  V30 1466 H 140.28 -0.703754 -3.59782 0
M  V30 1467 H 139.928 1.45199 -4.81587 0
M  V30 1468 H 139.628 0.0519022 -5.87577 0
M  V30 1469 H 141.152 0.97179 -6.02817 0
M  V30 1470 H 142.566 -1.25764 -5.59336 0
M  V30 1471 H 140.963 -2.04739 -5.64094 0
M  V30 1472 H 142.033 -2.32544 -4.25501 0
M  V30 1473 N 143.376 1.44774 -0.622745 0
M  V30 1474 C 144.624 2.01721 -0.123655 0
M  V30 1475 C 144.945 1.49172 1.25589 0
M  V30 1476 O 144.215 0.691974 1.83272 0
M  V30 1477 H 142.795 0.745777 -0.0427225 0
M  V30 1478 H 145.457 1.77382 -0.807559 0
M  V30 1479 H 144.553 3.11984 -0.0849534 0
M  V30 1480 N 144.854 0.36279 1.53368 0
M  V30 1481 C 145.784 -0.476976 2.28576 0
M  V30 1482 C 146.765 -1.08631 1.30894 0
M  V30 1483 O 147.95 -1.10409 1.59761 0
M  V30 1484 C 145.08 -1.61828 3.07293 0
M  V30 1485 C 144.034 -1.13633 4.1264 0
M  V30 1486 C 143.36 -2.36766 4.79423 0
M  V30 1487 C 144.66 -0.223061 5.21823 0
M  V30 1488 H 146.354 0.150474 2.99022 0
M  V30 1489 H 143.9 0.0738103 1.43811 0
M  V30 1490 H 145.853 -2.21237 3.58653 0
M  V30 1491 H 144.577 -2.27292 2.34533 0
M  V30 1492 H 143.236 -0.564945 3.62221 0
M  V30 1493 H 142.884 -3.0068 4.03238 0
M  V30 1494 H 142.584 -2.05192 5.50609 0
M  V30 1495 H 144.108 -2.96865 5.33576 0
M  V30 1496 H 145.522 -0.724545 5.68703 0
M  V30 1497 H 143.919 0.001678 6.001 0
M  V30 1498 H 144.989 0.735553 4.79289 0
M  V30 1499 N 146.332 -1.57332 0.0918853 0
M  V30 1500 C 147.262 -2.16872 -0.865371 0
M  V30 1501 C 148.243 -1.10118 -1.29646 0
M  V30 1502 O 149.428 -1.38242 -1.36392 0
M  V30 1503 C 146.558 -2.74649 -2.12569 0
M  V30 1504 C 145.512 -3.86747 -1.83333 0
M  V30 1505 C 144.838 -4.31212 -3.16166 0
M  V30 1506 C 146.138 -5.10089 -1.1228 0
M  V30 1507 H 147.832 -2.97114 -0.369307 0
M  V30 1508 H 145.378 -1.42918 -0.176194 0
M  V30 1509 H 147.331 -3.14952 -2.7997 0
M  V30 1510 H 146.055 -1.91657 -2.64452 0
M  V30 1511 H 144.714 -3.46978 -1.18331 0
M  V30 1512 H 144.362 -3.45115 -3.6593 0
M  V30 1513 H 144.062 -5.06788 -2.97388 0
M  V30 1514 H 145.586 -4.74146 -3.84731 0
M  V30 1515 H 147 -5.47582 -1.69785 0
M  V30 1516 H 145.397 -5.91073 -1.03693 0
M  V30 1517 H 146.467 -4.84786 -0.105041 0
M  V30 1518 N 147.81 0.181792 -1.56548 0
M  V30 1519 C 148.72 1.24538 -1.98815 0
M  V30 1520 C 149.736 1.49045 -0.897861 0
M  V30 1521 O 150.912 1.61399 -1.20467 0
M  V30 1522 C 147.977 2.56683 -2.33055 0
M  V30 1523 C 147.038 2.40131 -3.55859 0
M  V30 1524 C 146.271 3.65975 -3.88456 0
M  V30 1525 O 146.494 4.70711 -3.22161 0
M  V30 1526 O 145.428 3.6071 -4.81842 0
M  V30 1527 H 149.254 0.916647 -2.89536 0
M  V30 1528 H 146.839 0.387842 -1.44278 0
M  V30 1529 H 148.721 3.34655 -2.56094 0
M  V30 1530 H 147.396 2.89157 -1.45498 0
M  V30 1531 H 146.303 1.60226 -3.38051 0
M  V30 1532 H 147.636 2.12585 -4.43924 0
M  V30 1533 N 149.288 1.51039 0.449983 0
M  V30 1534 C 150.198 1.74261 1.57067 0
M  V30 1535 C 151.214 0.626363 1.62335 0
M  V30 1536 O 152.39 0.907162 1.79812 0
M  V30 1537 C 149.455 1.85114 2.93144 0
M  V30 1538 C 148.516 3.0893 2.98095 0
M  V30 1539 C 147.749 3.19256 4.27681 0
M  V30 1540 O 147.972 2.35835 5.19363 0
M  V30 1541 O 146.906 4.12144 4.38658 0
M  V30 1542 H 150.732 2.69303 1.40391 0
M  V30 1543 H 148.317 1.35389 0.631688 0
M  V30 1544 H 150.199 1.94311 3.73926 0
M  V30 1545 H 148.874 0.932588 3.09975 0
M  V30 1546 H 147.781 3.0522 2.16314 0
M  V30 1547 H 149.114 4.00433 2.86206 0
M  V30 1548 N 150.766 -0.704594 1.40972 0
M  V30 1549 C 151.713 -1.81862 1.42109 0
M  V30 1550 C 152.683 -1.63781 0.276593 0
M  V30 1551 O 153.868 -1.84759 0.4763 0
M  V30 1552 C 151.008 -3.19669 1.30022 0
M  V30 1553 C 150.121 -3.49246 2.54267 0
M  V30 1554 C 149.256 -4.76618 2.3454 0
M  V30 1555 C 148.295 -4.99133 3.54306 0
M  V30 1556 N 147.432 -6.17726 3.33706 0
M  V30 1557 H 152.272 -1.80226 2.37324 0
M  V30 1558 H 149.809 -0.880238 1.17857 0
M  V30 1559 H 151.767 -3.99263 1.21018 0
M  V30 1560 H 150.397 -3.20506 0.384192 0
M  V30 1561 H 149.449 -2.64125 2.73756 0
M  V30 1562 H 150.761 -3.61788 3.43381 0
M  V30 1563 H 149.915 -5.64249 2.22952 0
M  V30 1564 H 148.654 -4.66305 1.42867 0
M  V30 1565 H 147.659 -4.09953 3.66359 0
M  V30 1566 H 148.884 -5.11311 4.4692 0
M  V30 1567 H 146.83 -6.08642 2.44725 0
M  V30 1568 H 146.747 -6.30995 4.16391 0
M  V30 1569 H 148.015 -7.08115 3.25873 0
M  V30 1570 N 152.244 -1.26651 -0.937939 0
M  V30 1571 C 153.174 -1.10993 -2.05433 0
M  V30 1572 C 154.155 -0.0142161 -1.70094 0
M  V30 1573 O 155.34 -0.186837 -1.93299 0
M  V30 1574 C 152.47 -0.745561 -3.39203 0
M  V30 1575 C 151.424 -1.79337 -3.88616 0
M  V30 1576 C 150.75 -1.28324 -5.19073 0
M  V30 1577 C 152.05 -3.19553 -4.13138 0
M  V30 1578 H 153.744 -2.0438 -2.1879 0
M  V30 1579 H 151.29 -0.984041 -1.05131 0
M  V30 1580 H 153.243 -0.622888 -4.16771 0
M  V30 1581 H 151.967 0.22401 -3.25831 0
M  V30 1582 H 150.626 -1.90477 -3.13231 0
M  V30 1583 H 150.274 -0.303414 -5.02084 0
M  V30 1584 H 149.974 -1.98369 -5.53103 0
M  V30 1585 H 151.498 -1.1733 -5.99221 0
M  V30 1586 H 152.912 -3.11471 -4.81309 0
M  V30 1587 H 151.309 -3.87218 -4.58457 0
M  V30 1588 H 152.379 -3.65368 -3.18801 0
M  V30 1589 N 153.722 1.14298 -1.08507 0
M  V30 1590 C 154.654 2.1907 -0.673859 0
M  V30 1591 C 155.667 1.60381 0.279577 0
M  V30 1592 O 156.856 1.78374 0.0670754 0
M  V30 1593 C 153.956 3.38888 0.0290979 0
M  V30 1594 C 153.129 4.27103 -0.943494 0
M  V30 1595 C 152.188 5.25477 -0.275676 0
M  V30 1596 O 151.214 5.61709 -0.920401 0
M  V30 1597 N 152.416 5.7227 0.974013 0
M  V30 1598 H 155.181 2.54965 -1.57521 0
M  V30 1599 H 152.742 1.29528 -0.971287 0
M  V30 1600 H 154.734 4.01761 0.48683 0
M  V30 1601 H 153.304 3.01309 0.832555 0
M  V30 1602 H 152.524 3.61149 -1.58004 0
M  V30 1603 H 153.812 4.82905 -1.60251 0
M  V30 1604 H 153.21 5.44965 1.51755 0
M  V30 1605 H 151.767 6.37127 1.37522 0
M  V30 1606 N 155.201 0.870884 1.31352 0
M  V30 1607 C 156.612 0.534714 1.78879 0
M  V30 1608 C 156.963 -0.948423 1.71754 0
M  V30 1609 O 156.088 -1.74055 1.28584 0
M  V30 1610 C 156.683 0.963839 3.24801 0
M  V30 1611 C 155.242 0.679311 3.70219 0
M  V30 1612 C 154.389 1.15465 2.52117 0
M  V30 1613 H 157.34 1.05651 1.18421 0
M  V30 1614 H 157.361 0.286892 3.79417 0
M  V30 1615 H 156.873 2.04332 3.29955 0
M  V30 1616 H 154.974 -0.388769 3.70566 0
M  V30 1617 H 155.087 1.25698 4.62317 0
M  V30 1618 H 153.451 0.574383 2.48139 0
M  V30 1619 H 154.234 2.24157 2.60016 0
M  V30 1620 N 156.679 -1.44442 0.630414 0
M  V30 1621 C 157.611 -2.2892 -0.113347 0
M  V30 1622 C 158.624 -1.41243 -0.80959 0
M  V30 1623 O 159.813 -1.65402 -0.671156 0
M  V30 1624 C 156.913 -3.17594 -1.18266 0
M  V30 1625 C 156.086 -4.33682 -0.569073 0
M  V30 1626 C 155.145 -5.03397 -1.53226 0
M  V30 1627 O 154.171 -5.59438 -1.04967 0
M  V30 1628 N 155.373 -5.04783 -2.86661 0
M  V30 1629 H 158.138 -2.93392 0.611636 0
M  V30 1630 H 155.699 -1.54881 0.471523 0
M  V30 1631 H 157.691 -3.61097 -1.82732 0
M  V30 1632 H 156.261 -2.54876 -1.80988 0
M  V30 1633 H 155.481 -3.9338 0.254187 0
M  V30 1634 H 156.769 -5.08608 -0.139767 0
M  V30 1635 H 156.167 -4.60584 -3.28449 0
M  V30 1636 H 154.724 -5.52077 -3.46489 0
M  V30 1637 N 158.157 -0.370918 -1.53173 0
M  V30 1638 C 159.573 -0.0200818 -1.59587 0
M  V30 1639 C 159.773 1.46279 -1.38581 0
M  V30 1640 O 158.829 2.22506 -1.19363 0
M  V30 1641 C 160.142 -0.4808 -2.96831 0
M  V30 1642 C 161.69 -0.435477 -3.09956 0
M  V30 1643 C 162.165 -0.872092 -4.4962 0
M  V30 1644 N 163.656 -0.827364 -4.55751 0
M  V30 1645 C 164.391 -1.13683 -5.62018 0
M  V30 1646 N 163.887 -1.51584 -6.76014 0
M  V30 1647 N 165.68 -1.05927 -5.52029 0
M  V30 1648 H 157.831 -1.33652 -1.65079 0
M  V30 1649 H 160.094 -0.546634 -0.774529 0
M  V30 1650 H 159.8 -1.51577 -3.1736 0
M  V30 1651 H 159.674 0.129796 -3.76977 0
M  V30 1652 H 162.061 0.590371 -2.89134 0
M  V30 1653 H 162.142 -1.08164 -2.31806 0
M  V30 1654 H 161.786 -1.89608 -4.71181 0
M  V30 1655 H 161.716 -0.203127 -5.26208 0
M  V30 1656 H 164.207 -0.548216 -3.73902 0
M  V30 1657 H 164.52 -1.73609 -7.53047 0
M  V30 1658 H 162.865 -1.55454 -6.77391 0
M  V30 1659 H 166.056 -0.762321 -4.61851 0
M  V30 1660 H 166.229 -1.30378 -6.34749 0
M  V30 1661 N 159.635 1.57281 -0.100228 0
M  V30 1662 C 160.86 1.99302 0.573881 0
M  V30 1663 C 161.285 0.979059 1.60611 0
M  V30 1664 O 160.643 -0.0517803 1.81226 0
M  V30 1665 C 160.691 3.40274 1.19358 0
M  V30 1666 O 159.795 3.41676 2.30935 0
M  V30 1667 H 159.136 0.647944 0.145138 0
M  V30 1668 H 161.666 2.03779 -0.183156 0
M  V30 1669 H 161.676 3.78078 1.53365 0
M  V30 1670 H 160.351 4.13594 0.437385 0
M  V30 1671 H 158.928 3.15672 1.98509 0
M  V30 1672 N 161.113 -0.173488 1.56642 0
M  V30 1673 C 162.361 -0.888706 1.81512 0
M  V30 1674 C 162.682 -1.82875 0.676872 0
M  V30 1675 O 161.952 -1.93536 -0.303414 0
M  V30 1676 H 160.532 -0.331164 0.669582 0
M  V30 1677 H 163.194 -0.173823 1.94123 0
M  V30 1678 H 162.29 -1.46691 2.75478 0
M  V30 1679 N 162.591 -1.51276 -0.441967 0
M  V30 1680 C 164.002 -1.56244 -1.02199 0
M  V30 1681 C 164.353 -0.383149 -1.92422 0
M  V30 1682 O 163.478 0.500613 -2.1053 0
M  V30 1683 C 164.073 -2.83162 -1.86024 0
M  V30 1684 C 162.632 -2.90716 -2.39084 0
M  V30 1685 C 161.779 -2.50858 -1.18175 0
M  V30 1686 H 164.73 -1.5712 -0.223416 0
M  V30 1687 H 164.751 -2.66663 -2.71425 0
M  V30 1688 H 164.263 -3.68974 -1.20331 0
M  V30 1689 H 162.364 -2.09323 -3.08244 0
M  V30 1690 H 162.477 -3.94266 -2.72198 0
M  V30 1691 H 160.841 -2.03951 -1.52565 0
M  V30 1692 H 161.624 -3.3901 -0.541001 0
M  V30 1693 N 164.069 0.697108 -1.41344 0
M  V30 1694 C 165.316 1.45714 -1.40619 0
M  V30 1695 C 165.644 1.94494 -0.0147907 0
M  V30 1696 O 164.899 1.69794 0.973066 0
M  V30 1697 C 165.198 2.68553 -2.35826 0
M  V30 1698 C 164.864 2.38438 -3.82698 0
M  V30 1699 C 163.526 2.29936 -4.22709 0
M  V30 1700 C 165.878 2.13567 -4.75435 0
M  V30 1701 C 163.206 1.94656 -5.53467 0
M  V30 1702 C 165.558 1.79797 -6.06511 0
M  V30 1703 C 164.222 1.69789 -6.45545 0
M  V30 1704 H 163.492 0.533206 -0.51456 0
M  V30 1705 H 166.139 0.796901 -1.74131 0
M  V30 1706 H 164.444 3.39503 -1.95563 0
M  V30 1707 H 166.141 3.2669 -2.32539 0
M  V30 1708 H 162.731 2.4595 -3.51008 0
M  V30 1709 H 166.915 2.19082 -4.45328 0
M  V30 1710 H 162.171 1.8546 -5.82593 0
M  V30 1711 H 166.345 1.59572 -6.77872 0
M  V30 1712 H 163.972 1.4222 -7.46778 0
M  V30 1713 N 165.547 1.27147 0.931209 0
M  V30 1714 C 166.495 1.09398 2.05268 0
M  V30 1715 C 167.489 0.0180591 1.6939 0
M  V30 1716 O 168.695 0.17551 1.79142 0
M  V30 1717 H 165.07 0.336986 0.672268 0
M  V30 1718 H 167.041 2.04416 2.17386 0
M  V30 1719 C 165.79 0.75424 3.39421 0
M  V30 1720 H 165.113 1.57404 3.67511 0
M  V30 1721 H 166.553 0.669903 4.18674 0
M  V30 1722 C 165.012 -0.541197 3.32525 0
M  V30 1723 O 165.542 -1.57664 3.69466 0
M  V30 1724 N 163.748 -0.535517 2.85623 0
M  V30 1725 H 163.295 0.307511 2.55758 0
M  V30 1726 H 163.253 -1.40236 2.81392 0
M  V30 1727 N 167.025 -1.13721 1.09112 0
M  V30 1728 C 168.271 -1.85198 0.826414 0
M  V30 1729 C 168.604 -1.83129 -0.646319 0
M  V30 1730 O 167.879 -1.2671 -1.47563 0
M  V30 1731 C 168.162 -3.33507 1.35812 0
M  V30 1732 C 168.015 -3.44108 2.89672 0
M  V30 1733 C 169.334 -4.28838 0.989256 0
M  V30 1734 H 166.453 -0.67243 0.301675 0
M  V30 1735 H 169.095 -1.33499 1.35197 0
M  V30 1736 H 167.245 -3.77666 0.911082 0
M  V30 1737 H 168.917 -3.08684 3.428 0
M  V30 1738 H 167.16 -2.85087 3.26967 0
M  V30 1739 H 167.831 -4.48388 3.21951 0
M  V30 1740 H 170.307 -3.92734 1.37475 0
M  V30 1741 H 169.183 -5.31051 1.38838 0
M  V30 1742 H 169.444 -4.4198 -0.102924 0
M  V30 1743 N 168.503 -0.877838 -1.30888 0
M  V30 1744 C 169.731 -0.507414 -2.00581 0
M  V30 1745 C 170.146 0.902216 -1.65848 0
M  V30 1746 O 169.503 1.59225 -0.891831 0
M  V30 1747 C 169.554 -0.664162 -3.55347 0
M  V30 1748 O 169.275 -2.01829 -3.8884 0
M  V30 1749 C 170.776 -0.295787 -4.42312 0
M  V30 1750 H 167.996 -0.196866 -0.641471 0
M  V30 1751 H 170.54 -1.18117 -1.66939 0
M  V30 1752 H 168.695 -0.0378619 -3.87381 0
M  V30 1753 H 169.109 -2.03174 -4.8355 0
M  V30 1754 H 170.583 -0.456388 -5.5011 0
M  V30 1755 H 171.06 0.765663 -4.32475 0
M  V30 1756 H 171.666 -0.898113 -4.15709 0
M  V30 1757 N 169.982 1.44106 -0.638065 0
M  V30 1758 C 171.259 1.95453 -0.0759321 0
M  V30 1759 C 171.639 1.57984 1.40015 0
M  V30 1760 O 170.987 0.857361 2.11806 0
M  V30 1761 C 171.197 3.47655 -0.306132 0
M  V30 1762 C 172.545 4.24114 -0.203008 0
M  V30 1763 O 173.569 3.55405 -0.237871 0
M  V30 1764 O 172.428 5.46381 -0.113827 0
M  V30 1765 H 169.522 0.826797 0.0183332 0
M  V30 1766 H 172.068 1.54122 -0.710251 0
M  V30 1767 H 170.84 3.68 -1.3301 0
M  V30 1768 H 170.463 3.95949 0.361991 0
M  V30 1769 N 171.46 0.379036 1.52974 0
M  V30 1770 C 172.706 -0.206727 2.01744 0
M  V30 1771 C 173.039 -1.47314 1.26539 0
M  V30 1772 O 172.314 -1.91084 0.362903 0
M  V30 1773 C 172.597 -0.485066 3.56818 0
M  V30 1774 C 172.45 0.795919 4.42702 0
M  V30 1775 C 173.769 -1.28003 4.21074 0
M  V30 1776 H 170.888 -0.0736607 0.73331 0
M  V30 1777 H 173.53 0.506581 1.83122 0
M  V30 1778 H 171.68 -1.09272 3.72816 0
M  V30 1779 H 173.352 1.43307 4.38476 0
M  V30 1780 H 171.595 1.41344 4.10127 0
M  V30 1781 H 172.266 0.555947 5.49193 0
M  V30 1782 H 174.742 -0.765867 4.08991 0
M  V30 1783 H 173.618 -1.44352 5.29579 0
M  V30 1784 H 173.879 -2.29236 3.78026 0
M  V30 1785 N 172.938 -1.57226 0.108567 0
M  V30 1786 C 173.868 -2.17778 -0.84232 0
M  V30 1787 C 174.849 -1.11487 -1.2847 0
M  V30 1788 O 176.034 -1.39681 -1.34918 0
M  V30 1789 C 173.164 -2.76888 -2.09644 0
M  V30 1790 C 172.118 -3.88669 -1.79221 0
M  V30 1791 C 171.444 -4.34541 -3.11574 0
M  V30 1792 C 172.744 -5.11251 -1.06864 0
M  V30 1793 H 174.438 -2.97489 -0.337774 0
M  V30 1794 H 171.984 -1.43097 -0.161025 0
M  V30 1795 H 173.937 -3.17904 -2.76614 0
M  V30 1796 H 172.661 -1.94451 -2.62405 0
M  V30 1797 H 171.32 -3.48213 -1.14644 0
M  V30 1798 H 170.968 -3.48977 -3.62249 0
M  V30 1799 H 170.668 -5.09914 -2.91996 0
M  V30 1800 H 172.192 -4.782 -3.7968 0
M  V30 1801 H 173.606 -5.49352 -1.63968 0
M  V30 1802 H 172.003 -5.9214 -0.974178 0
M  V30 1803 H 173.073 -4.8487 -0.0536168 0
M  V30 1804 N 174.416 0.165178 -1.56732 0
M  V30 1805 C 175.644 0.896218 -1.86482 0
M  V30 1806 C 176.059 1.75555 -0.694675 0
M  V30 1807 O 175.416 1.79379 0.33607 0
M  V30 1808 C 175.467 1.76792 -3.1532 0
M  V30 1809 O 175.188 0.943239 -4.27825 0
M  V30 1810 C 176.689 2.6081 -3.58459 0
M  V30 1811 H 173.909 0.260064 -0.618553 0
M  V30 1812 H 176.453 0.163428 -2.03846 0
M  V30 1813 H 174.608 2.45398 -2.99764 0
M  V30 1814 H 175.022 1.53998 -5.01383 0
M  V30 1815 H 176.496 3.17579 -4.51495 0
M  V30 1816 H 176.973 3.35977 -2.82872 0
M  V30 1817 H 177.579 1.97526 -3.76648 0
M  V30 1818 N 175.894 1.51508 0.433938 0
M  V30 1819 C 176.804 1.75917 1.5521 0
M  V30 1820 C 177.82 0.643545 1.61662 0
M  V30 1821 O 178.996 0.926183 1.7884 0
M  V30 1822 C 176.061 1.88213 2.91164 0
M  V30 1823 C 175.122 3.12074 2.94802 0
M  V30 1824 C 174.355 3.23774 4.24271 0
M  V30 1825 O 174.578 2.4133 5.16833 0
M  V30 1826 O 173.512 4.16774 4.34262 0
M  V30 1827 H 177.338 2.70777 1.37527 0
M  V30 1828 H 174.923 1.36051 0.617293 0
M  V30 1829 H 176.805 1.98267 3.71845 0
M  V30 1830 H 175.48 0.965413 3.08968 0
M  V30 1831 H 174.387 3.07497 2.13065 0
M  V30 1832 H 175.72 4.03446 2.81943 0
M  V30 1833 N 177.372 -0.689602 1.41712 0
M  V30 1834 C 178.783 -1.26973 1.36875 0
M  V30 1835 C 179.134 -1.96124 0.054748 0
M  V30 1836 O 178.259 -1.99141 -0.84687 0
M  V30 1837 C 178.854 -2.30912 2.47922 0
M  V30 1838 C 177.413 -2.84486 2.46464 0
M  V30 1839 C 176.56 -1.58603 2.27465 0
M  V30 1840 H 179.511 -0.48396 1.51141 0
M  V30 1841 H 179.532 -3.12331 2.17323 0
M  V30 1842 H 179.044 -1.80554 3.43543 0
M  V30 1843 H 177.145 -3.39005 1.54617 0
M  V30 1844 H 177.258 -3.34511 3.42986 0
M  V30 1845 H 175.622 -1.84632 1.75451 0
M  V30 1846 H 176.405 -1.10233 3.25121 0
M  V30 1847 N 178.85 -1.27639 -0.924453 0
M  V30 1848 C 179.782 -1.06442 -2.02985 0
M  V30 1849 C 180.795 -0.0194771 -1.62788 0
M  V30 1850 O 181.984 -0.261388 -1.76576 0
M  V30 1851 C 179.084 -0.59327 -3.33667 0
M  V30 1852 C 178.257 -1.71123 -4.02537 0
M  V30 1853 C 177.316 -1.23527 -5.11495 0
M  V30 1854 O 176.342 -1.93553 -5.35281 0
M  V30 1855 N 177.544 -0.0926678 -5.80426 0
M  V30 1856 H 180.309 -2.01633 -2.2173 0
M  V30 1857 H 177.87 -1.19248 -1.09505 0
M  V30 1858 H 179.862 -0.258686 -4.03872 0
M  V30 1859 H 178.432 0.265502 -3.1147 0
M  V30 1860 H 177.652 -2.21593 -3.26022 0
M  V30 1861 H 178.94 -2.46145 -4.45298 0
M  V30 1862 H 178.338 0.491741 -5.63559 0
M  V30 1863 H 176.895 0.182714 -6.51544 0
M  V30 1864 N 180.328 1.1314 -1.09713 0
M  V30 1865 C 181.258 2.20748 -0.761102 0
M  V30 1866 C 182.239 1.68061 0.262566 0
M  V30 1867 O 183.424 1.93765 0.129977 0
M  V30 1868 C 180.554 3.46812 -0.184054 0
M  V30 1869 C 179.508 4.12606 -1.13757 0
M  V30 1870 C 178.834 5.33031 -0.422083 0
M  V30 1871 C 180.134 4.59603 -2.48118 0
M  V30 1872 H 181.828 2.49113 -1.66082 0
M  V30 1873 H 179.374 1.19734 -0.799987 0
M  V30 1874 H 181.327 4.21353 0.0631215 0
M  V30 1875 H 180.051 3.17851 0.750868 0
M  V30 1876 H 178.71 3.40036 -1.37007 0
M  V30 1877 H 178.358 5.00335 0.517072 0
M  V30 1878 H 178.058 5.77999 -1.05788 0
M  V30 1879 H 179.582 6.10325 -0.183277 0
M  V30 1880 H 180.996 5.25552 -2.29059 0
M  V30 1881 H 179.393 5.15321 -3.07514 0
M  V30 1882 H 180.463 3.73971 -3.08665 0
M  V30 1883 N 181.806 0.884767 1.30421 0
M  V30 1884 C 183.222 0.57874 1.48737 0
M  V30 1885 C 183.422 -0.883567 1.81095 0
M  V30 1886 O 182.478 -1.6648 1.89844 0
M  V30 1887 C 183.791 1.49171 2.61091 0
M  V30 1888 C 185.339 1.49532 2.74971 0
M  V30 1889 C 185.814 2.39421 3.90438 0
M  V30 1890 N 187.305 2.37383 3.97748 0
M  V30 1891 C 188.04 3.03647 4.86401 0
M  V30 1892 N 187.536 3.79136 5.79852 0
M  V30 1893 N 189.329 2.9288 4.79768 0
M  V30 1894 H 181.48 1.83075 1.0769 0
M  V30 1895 H 183.743 0.783637 0.533495 0
M  V30 1896 H 183.449 2.53291 2.44001 0
M  V30 1897 H 183.323 1.20113 3.57565 0
M  V30 1898 H 185.71 0.46163 2.91467 0
M  V30 1899 H 185.791 1.8262 1.79119 0
M  V30 1900 H 185.435 3.42874 3.74699 0
M  V30 1901 H 185.365 2.03649 4.85628 0
M  V30 1902 H 187.856 1.82525 3.30897 0
M  V30 1903 H 188.169 4.26789 6.4426 0
M  V30 1904 H 186.514 3.83243 5.79784 0
M  V30 1905 H 189.705 2.33433 4.05742 0
M  V30 1906 H 189.878 3.448 5.4865 0
M  V30 1907 N 183.284 -1.43765 0.645699 0
M  V30 1908 C 184.214 -2.33471 -0.0370477 0
M  V30 1909 C 185.195 -1.49042 -0.819779 0
M  V30 1910 O 186.38 -1.77726 -0.782758 0
M  V30 1911 C 183.51 -3.32311 -1.0093 0
M  V30 1912 C 182.464 -4.2667 -0.337201 0
M  V30 1913 C 181.79 -5.1549 -1.42037 0
M  V30 1914 C 183.09 -5.16657 0.765706 0
M  V30 1915 H 184.784 -2.90809 0.712069 0
M  V30 1916 H 182.33 -1.39834 0.343876 0
M  V30 1917 H 184.283 -3.9396 -1.49578 0
M  V30 1918 H 183.007 -2.73213 -1.78948 0
M  V30 1919 H 181.666 -3.66374 0.128771 0
M  V30 1920 H 181.314 -4.52735 -2.1918 0
M  V30 1921 H 181.014 -5.79438 -0.975966 0
M  V30 1922 H 182.538 -5.80012 -1.90838 0
M  V30 1923 H 183.952 -5.72158 0.361702 0
M  V30 1924 H 182.349 -5.89286 1.13413 0
M  V30 1925 H 183.419 -4.56796 1.62683 0
M  V30 1926 N 184.763 -0.387143 -1.52771 0
M  V30 1927 C 185.693 0.440551 -2.29306 0
M  V30 1928 C 186.674 1.06535 -1.32606 0
M  V30 1929 O 187.859 1.07853 -1.61497 0
M  V30 1930 C 184.989 1.56919 -3.09829 0
M  V30 1931 C 183.943 1.07054 -4.14395 0
M  V30 1932 C 183.269 2.29109 -4.83129 0
M  V30 1933 C 184.569 0.140015 -5.22112 0
M  V30 1934 H 186.263 -0.198026 -2.98744 0
M  V30 1935 H 183.809 -0.09668 -1.43675 0
M  V30 1936 H 185.762 2.15503 -3.62128 0
M  V30 1937 H 184.486 2.23532 -2.3812 0
M  V30 1938 H 183.145 0.507247 -3.63074 0
M  V30 1939 H 182.793 2.94227 -4.0797 0
M  V30 1940 H 182.493 1.96406 -5.53804 0
M  V30 1941 H 184.017 2.88339 -5.38231 0
M  V30 1942 H 185.431 0.633978 -5.69784 0
M  V30 1943 H 183.828 -0.0971485 -6.00021 0
M  V30 1944 H 184.898 -0.811711 -4.78058 0
M  V30 1945 N 186.241 1.57166 -0.116904 0
M  V30 1946 C 187.466 1.999 0.55271 0
M  V30 1947 C 187.891 0.996039 1.59564 0
M  V30 1948 O 187.249 -0.032556 1.81271 0
M  V30 1949 C 187.297 3.4152 1.15742 0
M  V30 1950 O 186.401 3.44106 2.27299 0
M  V30 1951 H 185.742 0.649447 0.138258 0
M  V30 1952 H 188.272 2.03573 -0.204759 0
M  V30 1953 H 188.282 3.79684 1.49346 0
M  V30 1954 H 186.957 4.14034 0.393493 0
M  V30 1955 H 185.534 3.17759 1.9515 0
M  V30 1956 N 187.719 -0.156864 1.56817 0
M  V30 1957 C 188.651 -1.21883 1.94106 0
M  V30 1958 C 189.664 -1.3971 0.835754 0
M  V30 1959 O 190.853 -1.39457 1.11418 0
M  V30 1960 C 187.953 -2.58527 2.19127 0
M  V30 1961 C 187.126 -2.61809 3.50393 0
M  V30 1962 C 186.185 -3.7992 3.64071 0
M  V30 1963 O 185.211 -3.65249 4.36557 0
M  V30 1964 N 186.413 -4.96973 2.99997 0
M  V30 1965 H 189.178 -0.901974 2.85805 0
M  V30 1966 H 186.739 -0.346513 1.58148 0
M  V30 1967 H 188.731 -3.36034 2.25529 0
M  V30 1968 H 187.301 -2.82545 1.33742 0
M  V30 1969 H 186.521 -1.7029 3.5552 0
M  V30 1970 H 187.809 -2.61024 4.36742 0
M  V30 1971 H 187.207 -5.11794 2.41004 0
M  V30 1972 H 185.764 -5.7229 3.11974 0
M  V30 1973 N 189.197 -1.51736 -0.425897 0
M  V30 1974 C 190.16 -1.73271 -1.50032 0
M  V30 1975 C 191.16 -0.602639 -1.4908 0
M  V30 1976 O 192.35 -0.87033 -1.509 0
M  V30 1977 C 189.482 -1.79969 -2.89523 0
M  V30 1978 H 190.675 -2.69172 -1.32237 0
M  V30 1979 H 188.228 -1.41899 -0.65532 0
M  V30 1980 H 188.963 -0.859241 -3.1271 0
M  V30 1981 H 188.748 -2.62109 -2.91619 0
M  V30 1982 H 190.238 -1.9843 -3.67444 0
M  V30 1983 N 190.675 0.682077 -1.42076 0
M  V30 1984 C 191.9 1.47558 -1.45744 0
M  V30 1985 C 192.325 1.87977 -0.0680981 0
M  V30 1986 O 191.683 1.55522 0.9318 0
M  V30 1987 C 191.731 2.70575 -2.38373 0
M  V30 1988 O 190.835 3.68573 -1.85007 0
M  V30 1989 H 190.176 0.443585 -0.494093 0
M  V30 1990 H 192.706 0.837238 -1.86686 0
M  V30 1991 H 192.716 3.18729 -2.54707 0
M  V30 1992 H 191.391 2.40495 -3.39315 0
M  V30 1993 H 189.968 3.2757 -1.78192 0
M  V30 1994 N 192.153 1.28127 0.917671 0
M  V30 1995 C 193.401 1.14825 1.66312 0
M  V30 1996 C 193.722 -0.304379 1.9261 0
M  V30 1997 O 192.992 -1.21149 1.53947 0
M  V30 1998 H 191.572 0.421953 0.616413 0
M  V30 1999 H 194.234 1.608 1.10134 0
M  V30 2000 H 193.33 1.68489 2.62712 0
M  V30 2001 N 193.631 -1.12557 1.10312 0
M  V30 2002 C 194.871 -1.8568 0.854543 0
M  V30 2003 C 195.235 -1.82091 -0.608843 0
M  V30 2004 O 196.436 -2.50544 -0.973717 0
M  V30 2005 C 194.707 -3.2942 1.38626 0
M  V30 2006 S 196.266 -4.19931 1.27293 0
M  V30 2007 H 193.084 -0.640427 0.308827 0
M  V30 2008 H 195.686 -1.35599 1.40831 0
M  V30 2009 H 194.39 -3.2959 2.44537 0
M  V30 2010 H 193.921 -3.84566 0.82902 0
M  V30 2011 H 195.936 -4.95668 0.229776 0
M  V30 2012 N 195.109 -0.891671 -1.2995 0
M  V30 2013 C 196.072 -0.36828 -2.26222 0
M  V30 2014 C 197.072 0.493014 -1.53056 0
M  V30 2015 O 198.262 0.299213 -1.71611 0
M  V30 2016 C 195.394 0.47442 -3.37583 0
M  V30 2017 H 196.587 -1.21844 -2.74033 0
M  V30 2018 H 194.14 -0.669107 -1.41254 0
M  V30 2019 H 194.875 1.34489 -2.95099 0
M  V30 2020 H 194.66 -0.142615 -3.91841 0
M  V30 2021 H 196.15 0.83218 -4.09224 0
M  V30 2022 N 196.587 1.43421 -0.653314 0
M  V30 2023 C 197.517 2.33487 0.0246656 0
M  V30 2024 C 198.498 1.49475 0.811863 0
M  V30 2025 O 199.683 1.78139 0.773322 0
M  V30 2026 C 196.813 3.32841 0.99166 0
M  V30 2027 C 195.767 4.26842 0.314568 0
M  V30 2028 C 195.093 5.16236 1.39302 0
M  V30 2029 C 196.393 5.16243 -0.793095 0
M  V30 2030 H 198.087 2.90427 -0.727481 0
M  V30 2031 H 195.633 1.39649 -0.351287 0
M  V30 2032 H 197.586 3.94747 1.47487 0
M  V30 2033 H 196.31 2.74158 1.77497 0
M  V30 2034 H 194.969 3.663 -0.148199 0
M  V30 2035 H 194.617 4.53891 2.16776 0
M  V30 2036 H 194.317 5.79948 0.945223 0
M  V30 2037 H 195.841 5.81015 1.87759 0
M  V30 2038 H 197.255 5.71958 -0.392039 0
M  V30 2039 H 195.652 5.88676 -1.16536 0
M  V30 2040 H 196.722 4.55927 -1.65103 0
M  V30 2041 N 198.065 0.39524 1.52563 0
M  V30 2042 C 199.481 0.0454682 1.59535 0
M  V30 2043 C 199.681 -1.44056 1.4089 0
M  V30 2044 O 198.737 -2.20579 1.22888 0
M  V30 2045 C 200.05 0.527963 2.96029 0
M  V30 2046 C 201.598 0.484733 3.09224 0
M  V30 2047 C 202.073 0.943512 4.48176 0
M  V30 2048 N 203.564 0.899765 4.54377 0
M  V30 2049 C 204.299 1.22609 5.60138 0
M  V30 2050 N 203.795 1.62319 6.73516 0
M  V30 2051 N 205.588 1.14696 5.50274 0
M  V30 2052 H 197.739 1.36261 1.62931 0
M  V30 2053 H 200.002 0.558887 0.765735 0
M  V30 2054 H 199.708 1.56607 3.14908 0
M  V30 2055 H 199.582 -0.0698056 3.77135 0
M  V30 2056 H 201.969 -0.544298 2.90037 0
M  V30 2057 H 202.05 1.11838 2.30056 0
M  V30 2058 H 201.694 1.9708 4.68104 0
M  V30 2059 H 201.624 0.286817 5.25818 0
M  V30 2060 H 204.115 0.607632 3.72983 0
M  V30 2061 H 204.428 1.85567 7.5019 0
M  V30 2062 H 202.773 1.66211 6.74833 0
M  V30 2063 H 205.964 0.835701 4.6058 0
M  V30 2064 H 206.137 1.40459 6.32594 0
M  V30 2065 N 199.544 -1.57102 0.125237 0
M  V30 2066 C 200.821 -1.86953 -0.575142 0
M  V30 2067 C 201.201 -1.02749 -1.84407 0
M  V30 2068 O 200.549 -0.108144 -2.28244 0
M  V30 2069 C 200.759 -3.38198 -0.861583 0
M  V30 2070 C 202.107 -4.06937 -1.21192 0
M  V30 2071 O 203.131 -3.43252 -0.951645 0
M  V30 2072 O 201.99 -5.19364 -1.70068 0
M  V30 2073 H 199.084 -0.774147 -0.290906 0
M  V30 2074 H 201.63 -1.68942 0.160211 0
M  V30 2075 H 200.402 -3.91282 0.0373647 0
M  V30 2076 H 200.025 -3.61661 -1.65188 0
M  V30 2077 N 201.022 0.148545 -1.56898 0
M  V30 2078 C 201.954 1.20852 -1.9475 0
M  V30 2079 C 202.967 1.39265 -0.843152 0
M  V30 2080 O 204.156 1.38864 -1.12156 0
M  V30 2081 C 201.256 2.57362 -2.20495 0
M  V30 2082 C 200.429 2.59947 -3.51776 0
M  V30 2083 C 199.488 3.77984 -3.6608 0
M  V30 2084 O 198.514 3.62929 -4.38487 0
M  V30 2085 N 199.716 4.95375 -3.02629 0
M  V30 2086 H 202.481 0.886804 -2.86279 0
M  V30 2087 H 200.042 0.338121 -1.5833 0
M  V30 2088 H 202.034 3.34833 -2.27307 0
M  V30 2089 H 200.604 2.81832 -1.35238 0
M  V30 2090 H 199.824 1.68403 -3.56419 0
M  V30 2091 H 201.112 2.58704 -4.38121 0
M  V30 2092 H 200.51 5.10509 -2.43715 0
M  V30 2093 H 199.067 5.70627 -3.15004 0
M  V30 2094 N 202.5 1.5196 0.417844 0
M  V30 2095 C 203.463 1.74065 1.49111 0
M  V30 2096 C 204.463 0.610537 1.48758 0
M  V30 2097 O 205.653 0.87832 1.50437 0
M  V30 2098 C 202.785 1.81502 2.88565 0
M  V30 2099 H 203.978 2.69869 1.30807 0
M  V30 2100 H 201.531 1.42244 0.647785 0
M  V30 2101 H 202.266 0.875813 3.1225 0
M  V30 2102 H 202.051 2.63651 2.90225 0
M  V30 2103 H 203.541 2.00376 3.66387 0
M  V30 2104 N 203.978 -0.674533 1.42435 0
M  V30 2105 C 204.888 -1.81751 1.48337 0
M  V30 2106 C 205.904 -1.69975 0.372099 0
M  V30 2107 O 207.08 -1.91521 0.62304 0
M  V30 2108 C 204.145 -3.17895 1.38361 0
M  V30 2109 C 203.206 -3.41625 2.59982 0
M  V30 2110 C 202.439 -4.71274 2.50473 0
M  V30 2111 O 202.662 -5.49197 1.54075 0
M  V30 2112 O 201.596 -4.96254 3.4061 0
M  V30 2113 H 205.422 -1.79728 2.44809 0
M  V30 2114 H 203.007 -0.830312 1.24202 0
M  V30 2115 H 204.889 -3.99136 1.35161 0
M  V30 2116 H 203.564 -3.20555 0.450144 0
M  V30 2117 H 202.471 -2.60231 2.68757 0
M  V30 2118 H 203.804 -3.43796 3.52229 0
M  V30 2119 N 205.456 -1.28612 -0.910864 0
M  V30 2120 C 206.872 -1.06381 -1.18976 0
M  V30 2121 C 207.072 0.191998 -2.00583 0
M  V30 2122 O 206.128 0.892869 -2.36187 0
M  V30 2123 C 207.441 -2.31295 -1.92154 0
M  V30 2124 C 208.989 -2.36503 -2.05025 0
M  V30 2125 C 209.464 -3.61191 -2.81612 0
M  V30 2126 N 210.955 -3.61847 -2.89172 0
M  V30 2127 C 211.69 -4.55004 -3.4894 0
M  V30 2128 N 211.186 -5.58482 -4.09963 0
M  V30 2129 N 212.979 -4.42594 -3.46506 0
M  V30 2130 H 205.13 -2.09221 -0.366094 0
M  V30 2131 H 207.393 -0.921003 -0.224629 0
M  V30 2132 H 207.099 -3.228 -1.39618 0
M  V30 2133 H 206.973 -2.37934 -2.9269 0
M  V30 2134 H 209.36 -1.45494 -2.5674 0
M  V30 2135 H 209.441 -2.33857 -1.03657 0
M  V30 2136 H 209.085 -4.52545 -2.30576 0
M  V30 2137 H 209.015 -3.61092 -3.83302 0
M  V30 2138 H 211.506 -2.87022 -2.45819 0
M  V30 2139 H 211.819 -6.25704 -4.53557 0
M  V30 2140 H 210.164 -5.62305 -4.08459 0
M  V30 2141 H 213.355 -3.60953 -2.98045 0
M  V30 2142 H 213.528 -5.15381 -3.92793 0
M  V30 2143 N 206.934 1.1197 -1.10907 0
M  V30 2144 C 208.174 1.85224 -0.864378 0
M  V30 2145 C 208.538 1.82411 0.599178 0
M  V30 2146 O 209.739 2.51057 0.960416 0
M  V30 2147 C 208.01 3.2868 -1.40371 0
M  V30 2148 S 209.569 4.1925 -1.29518 0
M  V30 2149 H 206.387 0.63878 -0.312219 0
M  V30 2150 H 208.989 1.3485 -1.41548 0
M  V30 2151 H 207.693 3.28289 -2.46281 0
M  V30 2152 H 207.224 3.84121 -0.849402 0
M  V30 2153 H 209.239 4.95539 -0.256059 0
M  V30 2154 N 208.412 0.89855 1.29475 0
M  V30 2155 C 209.637 0.538561 2.00285 0
M  V30 2156 C 210.062 -0.869135 1.66816 0
M  V30 2157 O 209.42 -1.57831 0.892145 0
M  V30 2158 C 209.468 0.736475 3.52999 0
M  V30 2159 O 208.572 -0.211537 4.11857 0
M  V30 2160 H 207.913 0.210563 0.62973 0
M  V30 2161 H 210.443 1.20982 1.64998 0
M  V30 2162 H 210.453 0.640685 4.02938 0
M  V30 2163 H 209.128 1.76276 3.76696 0
M  V30 2164 H 207.705 -0.0682991 3.72837 0
M  V30 2165 N 209.89 -1.43072 0.660911 0
M  V30 2166 C 211.167 -1.95307 0.107017 0
M  V30 2167 C 211.547 -1.60192 -1.37484 0
M  V30 2168 O 210.895 -0.890949 -2.10415 0
M  V30 2169 C 211.105 -3.47124 0.361402 0
M  V30 2170 C 212.453 -4.23738 0.270455 0
M  V30 2171 O 213.477 -3.54981 0.294382 0
M  V30 2172 O 212.336 -5.46131 0.200737 0
M  V30 2173 H 209.43 -0.826984 -0.00517729 0
M  V30 2174 H 211.976 -1.52972 0.734681 0
M  V30 2175 H 210.748 -3.65837 1.38848 0
M  V30 2176 H 210.371 -3.96475 -0.298953 0
M  V30 2177 N 211.368 -0.403325 -1.52352 0
M  V30 2178 C 212.315 0.425011 -2.26853 0
M  V30 2179 C 213.285 1.04598 -1.29029 0
M  V30 2180 O 214.47 1.07135 -1.57882 0
M  V30 2181 C 211.61 1.53888 -3.08889 0
M  V30 2182 C 210.723 0.939396 -4.21663 0
M  V30 2183 C 209.858 2.02547 -4.91068 0
M  V30 2184 C 208.897 1.40263 -5.95813 0
M  V30 2185 N 208.034 2.4286 -6.58759 0
M  V30 2186 H 212.874 -0.21674 -2.97211 0
M  V30 2187 H 210.411 -0.118722 -1.4662 0
M  V30 2188 H 212.369 2.19558 -3.54753 0
M  V30 2189 H 210.999 2.15074 -2.40714 0
M  V30 2190 H 210.051 0.171898 -3.80011 0
M  V30 2191 H 211.363 0.44436 -4.96817 0
M  V30 2192 H 210.517 2.75958 -5.40308 0
M  V30 2193 H 209.256 2.55415 -4.15469 0
M  V30 2194 H 208.261 0.653833 -5.45898 0
M  V30 2195 H 209.486 0.881719 -6.73352 0
M  V30 2196 H 207.432 2.94871 -5.85992 0
M  V30 2197 H 207.349 1.98152 -7.2957 0
M  V30 2198 H 208.617 3.15858 -7.12639 0
M  V30 2199 N 212.846 1.57033 -0.133567 0
M  V30 2200 C 214.076 1.99754 0.527429 0
M  V30 2201 C 214.484 1.01245 1.59832 0
M  V30 2202 O 213.827 -0.000645496 1.837 0
M  V30 2203 C 213.889 3.38903 1.19939 0
M  V30 2204 C 213.553 4.56174 0.274709 0
M  V30 2205 C 214.55 5.17563 -0.492398 0
M  V30 2206 C 212.235 5.01972 0.18153 0
M  V30 2207 C 214.229 6.2315 -1.34027 0
M  V30 2208 C 211.916 6.07416 -0.669958 0
M  V30 2209 C 212.914 6.67874 -1.42947 0
M  V30 2210 O 212.602 7.71279 -2.2668 0
M  V30 2211 H 212.334 0.660702 0.142999 0
M  V30 2212 H 214.888 2.04207 -0.221099 0
M  V30 2213 H 213.118 3.31248 1.99528 0
M  V30 2214 H 214.807 3.65818 1.75875 0
M  V30 2215 H 215.573 4.83087 -0.430367 0
M  V30 2216 H 211.452 4.54652 0.762422 0
M  V30 2217 H 214.996 6.70268 -1.93357 0
M  V30 2218 H 210.893 6.41321 -0.73333 0
M  V30 2219 H 211.661 7.88441 -2.1978 0
M  V30 2220 N 214.325 -0.140222 1.56975 0
M  V30 2221 C 215.741 -0.493088 1.51792 0
M  V30 2222 C 215.941 -1.83013 0.843116 0
M  V30 2223 O 214.997 -2.49041 0.416493 0
M  V30 2224 C 216.31 -0.497144 2.96562 0
M  V30 2225 C 217.858 -0.582186 3.07538 0
M  V30 2226 C 218.333 -0.616838 4.53827 0
M  V30 2227 N 219.824 -0.678873 4.58198 0
M  V30 2228 C 220.559 -0.726782 5.68775 0
M  V30 2229 N 220.055 -0.733623 6.88905 0
M  V30 2230 N 221.848 -0.768179 5.56826 0
M  V30 2231 H 213.999 0.736108 1.99237 0
M  V30 2232 H 216.262 0.269182 0.90898 0
M  V30 2233 H 215.968 0.417217 3.49217 0
M  V30 2234 H 215.842 -1.33263 3.52875 0
M  V30 2235 H 218.229 -1.48697 2.54899 0
M  V30 2236 H 218.31 0.280581 2.54257 0
M  V30 2237 H 217.954 0.283812 5.07106 0
M  V30 2238 H 217.884 -1.49619 5.04898 0
M  V30 2239 H 220.375 -0.68061 3.7172 0
M  V30 2240 H 220.688 -0.772215 7.68932 0
M  V30 2241 H 219.033 -0.701389 6.91452 0
M  V30 2242 H 222.224 -0.760051 4.61888 0
M  V30 2243 H 222.397 -0.80205 6.43017 0
M  V30 2244 N 215.803 -1.52179 -0.40978 0
M  V30 2245 C 217.031 -1.70054 -1.17853 0
M  V30 2246 C 217.446 -0.409735 -1.843 0
M  V30 2247 O 216.803 0.614183 -1.71855 0
M  V30 2248 C 216.854 -2.83568 -2.24213 0
M  V30 2249 O 216.575 -4.0765 -1.60478 0
M  V30 2250 C 218.076 -3.12947 -3.13973 0
M  V30 2251 H 215.296 -0.569917 -0.354169 0
M  V30 2252 H 217.84 -1.98734 -0.482198 0
M  V30 2253 H 215.995 -2.57409 -2.89516 0
M  V30 2254 H 216.409 -4.70899 -2.30986 0
M  V30 2255 H 217.883 -3.95889 -3.84677 0
M  V30 2256 H 218.36 -2.26472 -3.76307 0
M  V30 2257 H 218.966 -3.40868 -2.5434 0
M  V30 2258 N 217.281 0.66697 -1.42791 0
M  V30 2259 C 218.53 1.42278 -1.42968 0
M  V30 2260 C 218.843 1.9553 -0.0524489 0
M  V30 2261 O 220.049 2.71414 0.068363 0
M  V30 2262 C 218.505 2.57418 -2.51524 0
M  V30 2263 C 218.113 2.10832 -3.9529 0
M  V30 2264 C 219.857 3.34878 -2.60877 0
M  V30 2265 C 217.764 3.23101 -4.95338 0
M  V30 2266 H 216.694 0.534533 -0.531781 0
M  V30 2267 H 219.345 0.721302 -1.68729 0
M  V30 2268 H 217.727 3.29971 -2.18941 0
M  V30 2269 H 218.901 1.4538 -4.37266 0
M  V30 2270 H 217.216 1.46289 -3.89857 0
M  V30 2271 H 219.813 4.18505 -3.32802 0
M  V30 2272 H 220.156 3.81993 -1.6549 0
M  V30 2273 H 220.689 2.69398 -2.92693 0
M  V30 2274 H 217.428 2.80969 -5.9223 0
M  V30 2275 H 216.948 3.87309 -4.57987 0
M  V30 2276 H 218.627 3.88447 -5.17415 0
M  V30 2277 N 218.759 1.29093 0.90403 0
M  V30 2278 C 219.987 1.19689 1.68766 0
M  V30 2279 C 220.402 -0.243113 1.87228 0
M  V30 2280 O 219.759 -1.16326 1.40621 0
M  V30 2281 C 219.81 1.90144 3.07453 0
M  V30 2282 O 219.531 3.2852 2.89838 0
M  V30 2283 C 221.032 1.87162 4.01852 0
M  V30 2284 H 218.252 0.415035 0.527244 0
M  V30 2285 H 220.796 1.7039 1.13082 0
M  V30 2286 H 218.951 1.43289 3.59926 0
M  V30 2287 H 219.365 3.63944 3.77684 0
M  V30 2288 H 220.839 2.41032 4.96596 0
M  V30 2289 H 221.316 0.84617 4.30972 0
M  V30 2290 H 221.922 2.33741 3.5531 0
M  V30 2291 N 220.237 -1.11381 1.11499 0
M  V30 2292 C 221.485 -1.8277 0.862524 0
M  V30 2293 C 221.806 -1.85097 -0.613534 0
M  V30 2294 O 221.076 -1.32198 -1.4457 0
M  V30 2295 H 219.656 -0.676823 0.316101 0
M  V30 2296 H 222.318 -1.34816 1.4075 0
M  V30 2297 H 221.414 -2.86614 1.23527 0
M  V30 2298 N 221.715 -0.905404 -1.28997 0
M  V30 2299 C 223.131 -0.60233 -1.47798 0
M  V30 2300 C 223.331 0.854645 -1.82478 0
M  V30 2301 O 222.387 1.63439 -1.92468 0
M  V30 2302 C 223.7 -1.53306 -2.58685 0
M  V30 2303 C 225.248 -1.53887 -2.72558 0
M  V30 2304 C 225.723 -2.45602 -3.86579 0
M  V30 2305 N 227.214 -2.43681 -3.93921 0
M  V30 2306 C 227.949 -3.11347 -4.81509 0
M  V30 2307 N 227.445 -3.88313 -5.73746 0
M  V30 2308 N 229.238 -3.00476 -4.75048 0
M  V30 2309 H 221.389 -1.84765 -1.04764 0
M  V30 2310 H 223.652 -0.792025 -0.520961 0
M  V30 2311 H 223.358 -2.57141 -2.39941 0
M  V30 2312 H 223.232 -1.25787 -3.55609 0
M  V30 2313 H 225.619 -0.507941 -2.90696 0
M  V30 2314 H 225.7 -1.85447 -1.76191 0
M  V30 2315 H 225.344 -3.48792 -3.69197 0
M  V30 2316 H 225.274 -2.11349 -4.82327 0
M  V30 2317 H 227.765 -1.87767 -3.27951 0
M  V30 2318 H 228.078 -4.36985 -6.37389 0
M  V30 2319 H 226.423 -3.92419 -5.73614 0
M  V30 2320 H 229.614 -2.39858 -4.01977 0
M  V30 2321 H 229.787 -3.53485 -5.43095 0
M  V30 2322 N 223.193 1.4272 -0.668489 0
M  V30 2323 C 224.433 2.03497 -0.19194 0
M  V30 2324 C 224.797 1.51684 1.17712 0
M  V30 2325 O 225.998 2.04205 1.74796 0
M  V30 2326 C 224.269 3.56734 -0.218032 0
M  V30 2327 S 225.828 4.38395 0.188438 0
M  V30 2328 H 222.646 0.706542 -0.0794959 0
M  V30 2329 H 225.248 1.74563 -0.880235 0
M  V30 2330 H 223.952 3.91943 -1.2169 0
M  V30 2331 H 223.483 3.90333 0.490303 0
M  V30 2332 H 225.498 4.75345 1.42345 0
M  V30 2333 N 224.671 0.411399 1.52136 0
M  V30 2334 C 225.619 -0.427633 2.28635 0
M  V30 2335 C 226.613 -1.04383 1.33419 0
M  V30 2336 O 227.819 -0.981772 1.50868 0
M  V30 2337 H 224.194 -0.156689 0.735495 0
M  V30 2338 H 226.165 0.238761 2.97443 0
M  V30 2339 C 224.914 -1.53082 3.12188 0
M  V30 2340 H 224.237 -1.06601 3.85326 0
M  V30 2341 H 225.677 -2.09167 3.68816 0
M  V30 2342 C 224.136 -2.49946 2.25895 0
M  V30 2343 O 224.666 -3.53884 1.90076 0
M  V30 2344 N 222.872 -2.2021 1.8962 0
M  V30 2345 H 222.419 -1.35719 2.18948 0
M  V30 2346 H 222.377 -2.85266 1.32176 0
M  V30 2347 N 226.149 -1.5696 0.141893 0
M  V30 2348 C 227.097 -2.17784 -0.816874 0
M  V30 2349 C 228.091 -1.1334 -1.25899 0
M  V30 2350 O 229.297 -1.316 -1.22806 0
M  V30 2351 H 225.672 -0.697278 -0.281615 0
M  V30 2352 H 227.643 -2.97087 -0.279621 0
M  V30 2353 C 226.392 -2.80983 -2.04802 0
M  V30 2354 H 225.715 -3.61062 -1.7168 0
M  V30 2355 H 227.155 -3.2705 -2.69841 0
M  V30 2356 C 225.614 -1.79228 -2.8527 0
M  V30 2357 O 226.144 -1.25962 -3.8144 0
M  V30 2358 N 224.35 -1.48647 -2.49704 0
M  V30 2359 H 223.897 -1.92155 -1.71564 0
M  V30 2360 H 223.855 -0.808115 -3.03837 0
M  V30 2361 N 227.627 0.131896 -1.57047 0
M  V30 2362 C 228.574 1.16236 -1.99393 0
M  V30 2363 C 229.544 1.41863 -0.863943 0
M  V30 2364 O 230.729 1.53946 -1.12718 0
M  V30 2365 C 227.869 2.48708 -2.39245 0
M  V30 2366 C 226.982 2.30127 -3.65603 0
M  V30 2367 C 226.117 3.55738 -3.94492 0
M  V30 2368 C 225.156 3.32259 -5.14073 0
M  V30 2369 N 224.293 4.50039 -5.38896 0
M  V30 2370 H 229.133 0.794251 -2.87221 0
M  V30 2371 H 226.67 0.380707 -1.42088 0
M  V30 2372 H 228.628 3.25969 -2.60384 0
M  V30 2373 H 227.258 2.83437 -1.54478 0
M  V30 2374 H 226.31 1.43845 -3.52154 0
M  V30 2375 H 227.622 2.08746 -4.5302 0
M  V30 2376 H 226.776 4.41423 -4.1621 0
M  V30 2377 H 225.515 3.80138 -3.05526 0
M  V30 2378 H 224.52 2.44963 -4.92212 0
M  V30 2379 H 225.745 3.09242 -6.04604 0
M  V30 2380 H 223.691 4.74584 -4.52886 0
M  V30 2381 H 223.608 4.31716 -6.2061 0
M  V30 2382 H 224.876 5.36895 -5.65123 0
M  V30 2383 N 229.106 1.52395 0.401703 0
M  V30 2384 C 230.522 1.41363 0.740864 0
M  V30 2385 C 230.722 0.523982 1.94568 0
M  V30 2386 O 229.778 -0.00741204 2.52499 0
M  V30 2387 C 231.091 2.84011 0.987847 0
M  V30 2388 C 232.639 2.93404 1.09011 0
M  V30 2389 C 233.114 4.37036 1.3698 0
M  V30 2390 N 234.605 4.40304 1.43829 0
M  V30 2391 C 235.34 5.48508 1.67112 0
M  V30 2392 N 234.836 6.66819 1.87949 0
M  V30 2393 N 236.629 5.36034 1.69187 0
M  V30 2394 H 228.78 2.08765 -0.391262 0
M  V30 2395 H 231.043 0.941265 -0.112798 0
M  V30 2396 H 230.749 3.51265 0.174835 0
M  V30 2397 H 230.623 3.25502 1.906 0
M  V30 2398 H 233.01 2.26325 1.8937 0
M  V30 2399 H 233.091 2.55359 0.15015 0
M  V30 2400 H 232.735 5.04676 0.571353 0
M  V30 2401 H 232.665 4.72623 2.3224 0
M  V30 2402 H 235.156 3.55024 1.29486 0
M  V30 2403 H 235.469 7.45063 2.05185 0
M  V30 2404 H 233.814 6.6987 1.85199 0
M  V30 2405 H 237.005 4.42579 1.52451 0
M  V30 2406 H 237.178 6.20434 1.86993 0
M  V30 2407 N 230.584 -0.659388 1.43143 0
M  V30 2408 C 232 -0.974337 1.26407 0
M  V30 2409 C 232.2 -2.007 0.179341 0
M  V30 2410 O 231.256 -2.4856 -0.444295 0
M  V30 2411 C 232.569 -1.46447 2.62628 0
M  V30 2412 C 234.117 -1.58144 2.7011 0
M  V30 2413 C 234.592 -2.1055 4.06734 0
M  V30 2414 N 236.083 -2.17861 4.08767 0
M  V30 2415 C 236.818 -2.59519 5.1131 0
M  V30 2416 N 236.314 -3.00518 6.24228 0
M  V30 2417 N 238.107 -2.59404 4.98664 0
M  V30 2418 H 230.258 0.0240528 2.12386 0
M  V30 2419 H 232.521 -0.0518065 0.946583 0
M  V30 2420 H 232.227 -0.780123 3.42939 0
M  V30 2421 H 232.101 -2.44058 2.87603 0
M  V30 2422 H 234.488 -2.25682 1.90136 0
M  V30 2423 H 234.569 -0.589828 2.48907 0
M  V30 2424 H 234.213 -1.43616 4.87172 0
M  V30 2425 H 234.143 -3.10531 4.25298 0
M  V30 2426 H 236.634 -1.88975 3.27257 0
M  V30 2427 H 236.947 -3.31036 6.98309 0
M  V30 2428 H 235.292 -2.98337 6.2771 0
M  V30 2429 H 238.483 -2.26747 4.09516 0
M  V30 2430 H 238.656 -2.91548 5.78709 0
M  V30 2431 N 232.062 -1.29571 -0.897171 0
M  V30 2432 C 233.473 -1.15964 -1.46319 0
M  V30 2433 C 233.824 0.244267 -1.94674 0
M  V30 2434 O 232.949 1.13998 -1.83939 0
M  V30 2435 C 233.544 -2.09906 -2.65942 0
M  V30 2436 C 232.103 -2.00314 -3.18671 0
M  V30 2437 C 231.25 -2.00687 -1.91363 0
M  V30 2438 H 234.201 -1.42019 -0.708268 0
M  V30 2439 H 234.222 -1.67276 -3.41759 0
M  V30 2440 H 233.734 -3.12075 -2.30718 0
M  V30 2441 H 231.835 -1.01242 -3.58582 0
M  V30 2442 H 231.948 -2.88102 -3.82798 0
M  V30 2443 H 230.312 -1.45319 -2.09175 0
M  V30 2444 H 231.095 -3.04566 -1.58413 0
M  V30 2445 N 233.54 1.10788 -1.12088 0
M  V30 2446 C 234.47 2.19083 -0.807755 0
M  V30 2447 C 235.451 1.6858 0.226859 0
M  V30 2448 O 236.636 1.93997 0.0888475 0
M  V30 2449 C 233.766 3.46344 -0.257576 0
M  V30 2450 C 232.72 4.101 -1.22483 0
M  V30 2451 C 232.046 5.32016 -0.535052 0
M  V30 2452 C 233.346 4.54236 -2.57811 0
M  V30 2453 H 235.04 2.45534 -1.71328 0
M  V30 2454 H 232.586 1.1801 -0.825205 0
M  V30 2455 H 234.539 4.21392 -0.0262679 0
M  V30 2456 H 233.263 3.19373 0.683278 0
M  V30 2457 H 231.922 3.37054 -1.44189 0
M  V30 2458 H 231.57 5.01319 0.410827 0
M  V30 2459 H 231.27 5.75625 -1.18024 0
M  V30 2460 H 232.794 6.09799 -0.312695 0
M  V30 2461 H 234.208 5.20575 -2.40155 0
M  V30 2462 H 232.605 5.08682 -3.18375 0
M  V30 2463 H 233.675 3.6734 -3.16528 0
M  V30 2464 N 235.018 0.912232 1.28515 0
M  V30 2465 C 235.948 0.416403 2.29757 0
M  V30 2466 C 236.929 -0.515194 1.6211 0
M  V30 2467 O 238.114 -0.423253 1.89532 0
M  V30 2468 C 235.244 -0.34572 3.45575 0
M  V30 2469 C 234.198 0.496599 4.25109 0
M  V30 2470 C 233.524 -0.393771 5.33248 0
M  V30 2471 C 234.824 1.75307 4.92001 0
M  V30 2472 H 236.518 1.26249 2.7148 0
M  V30 2473 H 234.064 0.608515 1.30511 0
M  V30 2474 H 236.017 -0.703422 4.15488 0
M  V30 2475 H 234.741 -1.2257 3.02728 0
M  V30 2476 H 233.4 0.8368 3.56922 0
M  V30 2477 H 233.048 -1.27225 4.86644 0
M  V30 2478 H 232.748 0.166209 5.87365 0
M  V30 2479 H 234.272 -0.747389 6.06009 0
M  V30 2480 H 235.686 1.46437 5.54283 0
M  V30 2481 H 234.083 2.25534 5.56106 0
M  V30 2482 H 235.153 2.48176 4.16577 0
M  V30 2483 N 236.496 -1.42363 0.676048 0
M  V30 2484 C 237.744 -2.01123 0.198437 0
M  V30 2485 C 238.065 -1.53731 -1.19966 0
M  V30 2486 O 237.335 -0.759518 -1.80577 0
M  V30 2487 H 235.915 -0.743678 0.0703721 0
M  V30 2488 H 238.577 -1.74263 0.872837 0
M  V30 2489 H 237.673 -3.11454 0.200686 0
M  V30 2490 N 237.974 -0.419461 -1.51915 0
M  V30 2491 C 238.937 0.389116 -2.25873 0
M  V30 2492 C 239.937 0.964924 -1.28631 0
M  V30 2493 O 241.127 0.842179 -1.52489 0
M  V30 2494 C 238.259 1.54874 -3.03689 0
M  V30 2495 H 239.452 -0.258799 -2.98781 0
M  V30 2496 H 237.005 -0.172209 -1.55348 0
M  V30 2497 H 237.74 2.23323 -2.35154 0
M  V30 2498 H 237.525 1.14223 -3.75094 0
M  V30 2499 H 239.015 2.12046 -3.59759 0
M  V30 2500 N 239.452 1.56882 -0.150215 0
M  V30 2501 C 240.677 2.01027 0.510184 0
M  V30 2502 C 241.102 1.02966 1.57415 0
M  V30 2503 O 240.46 0.00590158 1.81299 0
M  V30 2504 C 240.508 3.43899 1.08472 0
M  V30 2505 O 239.612 3.4885 2.19948 0
M  V30 2506 H 238.953 0.652233 0.124451 0
M  V30 2507 H 241.483 2.03093 -0.247894 0
M  V30 2508 H 241.493 3.82766 1.41259 0
M  V30 2509 H 240.168 4.14776 0.305582 0
M  V30 2510 H 238.745 3.21827 1.88366 0
M  V30 2511 N 240.93 -0.123565 1.57115 0
M  V30 2512 C 241.878 -1.17082 2.00984 0
M  V30 2513 C 242.872 -1.43136 0.906009 0
M  V30 2514 O 244.078 -1.43152 1.09121 0
M  V30 2515 H 240.453 -0.394653 0.64012 0
M  V30 2516 H 242.424 -0.774292 2.88179 0
M  V30 2517 C 241.173 -2.49057 2.42623 0
M  V30 2518 H 240.496 -2.29846 3.27125 0
M  V30 2519 H 241.936 -3.20906 2.7712 0
M  V30 2520 C 240.395 -3.11305 1.28805 0
M  V30 2521 O 240.925 -3.97171 0.60153 0
M  V30 2522 N 239.131 -2.71111 1.04628 0
M  V30 2523 H 238.678 -2.01382 1.60634 0
M  V30 2524 H 238.636 -3.1309 0.286685 0
M  V30 2525 N 242.408 -1.52605 -0.393616 0
M  V30 2526 C 243.34 -1.73303 -1.49995 0
M  V30 2527 C 244.353 -0.613473 -1.50799 0
M  V30 2528 O 245.542 -0.889049 -1.54784 0
M  V30 2529 C 242.642 -1.77245 -2.88855 0
M  V30 2530 C 241.815 -3.06483 -3.12069 0
M  V30 2531 C 240.874 -3.02033 -4.30886 0
M  V30 2532 O 239.9 -3.75907 -4.27414 0
M  V30 2533 N 241.102 -2.20897 -5.36828 0
M  V30 2534 H 243.867 -2.68756 -1.32629 0
M  V30 2535 H 241.428 -1.51036 -0.583083 0
M  V30 2536 H 243.42 -1.7178 -3.66434 0
M  V30 2537 H 241.99 -0.891993 -2.99603 0
M  V30 2538 H 241.21 -3.25474 -2.22396 0
M  V30 2539 H 242.498 -3.91947 -3.2443 0
M  V30 2540 H 241.896 -1.60336 -5.42502 0
M  V30 2541 H 240.453 -2.21275 -6.13091 0
M  V30 2542 N 243.887 0.651787 -1.4349 0
M  V30 2543 C 244.85 1.74647 -1.48429 0
M  V30 2544 C 245.85 1.56513 -0.368817 0
M  V30 2545 O 247.04 1.62385 -0.630623 0
M  V30 2546 C 244.172 3.13533 -1.33827 0
M  V30 2547 H 245.365 1.71649 -2.4592 0
M  V30 2548 H 242.918 0.863573 -1.30277 0
M  V30 2549 H 243.653 3.22142 -0.37349 0
M  V30 2550 H 243.438 3.28101 -2.14691 0
M  V30 2551 H 244.928 3.93356 -1.40218 0
M  V30 2552 N 245.365 1.30045 0.890287 0
M  V30 2553 C 246.295 1.18541 2.01172 0
M  V30 2554 C 247.276 0.0773356 1.69924 0
M  V30 2555 O 248.461 0.25845 1.92473 0
M  V30 2556 C 245.591 0.870941 3.36202 0
M  V30 2557 C 244.545 1.93637 3.81692 0
M  V30 2558 C 243.871 1.475 5.13953 0
M  V30 2559 C 245.171 3.34666 4.00994 0
M  V30 2560 H 246.865 2.12359 2.11054 0
M  V30 2561 H 244.411 1.02238 1.01407 0
M  V30 2562 H 246.364 0.777141 4.14172 0
M  V30 2563 H 245.088 -0.102926 3.26438 0
M  V30 2564 H 243.747 2.01972 3.05946 0
M  V30 2565 H 243.395 0.489551 5.00612 0
M  V30 2566 H 243.095 2.1876 5.4536 0
M  V30 2567 H 244.619 1.39489 5.94454 0
M  V30 2568 H 246.033 3.2912 4.69417 0
M  V30 2569 H 244.43 4.03966 4.43769 0
M  V30 2570 H 245.5 3.76949 3.05021 0
M  V30 2571 N 246.843 -1.10192 1.12674 0
M  V30 2572 C 247.806 -2.14786 0.799979 0
M  V30 2573 C 248.806 -1.59711 -0.18685 0
M  V30 2574 O 249.996 -1.74156 0.0392558 0
M  V30 2575 C 247.128 -3.40374 0.189228 0
M  V30 2576 H 248.321 -2.45203 1.72671 0
M  V30 2577 H 245.874 -1.25597 0.930326 0
M  V30 2578 H 246.609 -3.15577 -0.747107 0
M  V30 2579 H 246.394 -3.81637 0.899766 0
M  V30 2580 H 247.884 -4.17594 -0.0228143 0
M  V30 2581 N 248.321 -0.919034 -1.28029 0
M  V30 2582 C 249.737 -0.617972 -1.4715 0
M  V30 2583 C 249.937 0.835242 -1.83374 0
M  V30 2584 O 248.993 1.61388 -1.94191 0
M  V30 2585 C 250.306 -1.56041 -2.57044 0
M  V30 2586 C 251.854 -1.56769 -2.7091 0
M  V30 2587 C 252.329 -2.49688 -3.83953 0
M  V30 2588 N 253.82 -2.47845 -3.91314 0
M  V30 2589 C 254.555 -3.16437 -4.78179 0
M  V30 2590 N 254.051 -3.94376 -5.69596 0
M  V30 2591 N 255.844 -3.05498 -4.71834 0
M  V30 2592 H 247.995 -1.85866 -1.02798 0
M  V30 2593 H 250.258 -0.797506 -0.512531 0
M  V30 2594 H 249.964 -2.59671 -2.372 0
M  V30 2595 H 249.838 -1.29551 -3.54255 0
M  V30 2596 H 252.225 -0.538745 -2.90141 0
M  V30 2597 H 252.306 -1.87305 -1.74214 0
M  V30 2598 H 251.95 -3.52688 -3.65477 0
M  V30 2599 H 251.88 -2.16453 -4.80058 0
M  V30 2600 H 254.371 -1.91234 -3.25941 0
M  V30 2601 H 254.684 -4.43721 -6.32718 0
M  V30 2602 H 253.029 -3.98481 -5.69419 0
M  V30 2603 H 256.22 -2.44108 -3.99411 0
M  V30 2604 H 256.393 -3.59225 -5.39316 0
M  V30 2605 N 249.799 1.42003 -0.683588 0
M  V30 2606 C 251.045 2.02223 -0.218536 0
M  V30 2607 C 251.4 1.53126 1.16492 0
M  V30 2608 O 250.693 0.727459 1.77253 0
M  V30 2609 C 250.887 3.56827 -0.202357 0
M  V30 2610 C 250.716 4.20928 -1.5827 0
M  V30 2611 C 249.486 4.5573 -2.18262 0
M  V30 2612 C 251.684 4.47933 -2.52706 0
M  V30 2613 N 249.666 5.05056 -3.48986 0
M  V30 2614 C 251.037 4.98906 -3.68094 0
M  V30 2615 C 253.092 4.29931 -2.51125 0
M  V30 2616 C 251.795 5.33768 -4.82166 0
M  V30 2617 C 253.821 4.65875 -3.643 0
M  V30 2618 C 253.183 5.17008 -4.78417 0
M  V30 2619 H 249.282 0.771931 -0.125088 0
M  V30 2620 H 251.866 1.72729 -0.898479 0
M  V30 2621 H 250.037 3.85819 0.447029 0
M  V30 2622 H 251.769 4.03755 0.276399 0
M  V30 2623 H 248.524 4.41781 -1.70665 0
M  V30 2624 H 248.948 5.34139 -4.15962 0
M  V30 2625 H 253.59 3.89647 -1.6412 0
M  V30 2626 H 251.308 5.72981 -5.6984 0
M  V30 2627 H 254.894 4.53615 -3.64314 0
M  V30 2628 H 253.774 5.44301 -5.64541 0
M  V30 2629 N 251.277 0.427512 1.51691 0
M  V30 2630 C 252.207 -0.3796 2.30394 0
M  V30 2631 C 253.188 -1.02982 1.35384 0
M  V30 2632 O 254.373 -1.03534 1.643 0
M  V30 2633 C 251.503 -1.48649 3.1388 0
M  V30 2634 C 250.457 -0.960294 4.17088 0
M  V30 2635 C 249.783 -2.16219 4.89033 0
M  V30 2636 C 251.083 -0.00153679 5.223 0
M  V30 2637 H 252.777 0.277164 2.98114 0
M  V30 2638 H 250.323 0.134739 1.43368 0
M  V30 2639 H 252.276 -2.05826 3.67714 0
M  V30 2640 H 251 -2.1714 2.43962 0
M  V30 2641 H 249.659 -0.410806 3.64291 0
M  V30 2642 H 249.307 -2.83307 4.15628 0
M  V30 2643 H 249.007 -1.81654 5.58816 0
M  V30 2644 H 250.531 -2.73968 5.45687 0
M  V30 2645 H 251.945 -0.482687 5.71264 0
M  V30 2646 H 250.342 0.256199 5.99553 0
M  V30 2647 H 251.412 0.938174 4.75738 0
M  V30 2648 N 252.755 -1.56801 0.158532 0
M  V30 2649 C 254.166 -1.83189 -0.360366 0
M  V30 2650 C 254.517 -1.07778 -1.63946 0
M  V30 2651 O 253.642 -0.326718 -2.13919 0
M  V30 2652 C 254.237 -3.32297 -0.660595 0
M  V30 2653 C 252.796 -3.59227 -1.12398 0
M  V30 2654 C 251.943 -2.76877 -0.153097 0
M  V30 2655 H 254.894 -1.54008 0.383031 0
M  V30 2656 H 254.915 -3.4908 -1.51405 0
M  V30 2657 H 254.427 -3.87156 0.270527 0
M  V30 2658 H 252.528 -3.09766 -2.07064 0
M  V30 2659 H 252.641 -4.67632 -1.04197 0
M  V30 2660 H 251.005 -2.46319 -0.647983 0
M  V30 2661 H 251.788 -3.34511 0.77182 0
M  V30 2662 N 254.233 0.115231 -1.57178 0
M  V30 2663 C 255.196 1.12526 -1.99676 0
M  V30 2664 C 256.196 1.34095 -0.88742 0
M  V30 2665 O 257.386 1.30548 -1.15337 0
M  V30 2666 C 254.518 2.4789 -2.34015 0
M  V30 2667 H 255.711 0.759912 -2.90113 0
M  V30 2668 H 253.264 0.359648 -1.52106 0
M  V30 2669 H 253.999 2.89339 -1.4647 0
M  V30 2670 H 253.784 2.33588 -3.14927 0
M  V30 2671 H 255.274 3.20575 -2.67622 0
M  V30 2672 N 255.711 1.52812 0.385517 0
M  V30 2673 C 256.621 1.80766 1.49535 0
M  V30 2674 C 257.637 0.694651 1.59532 0
M  V30 2675 O 258.813 0.982611 1.75803 0
M  V30 2676 C 255.878 1.97381 2.85029 0
M  V30 2677 C 254.939 3.21295 2.84724 0
M  V30 2678 C 254.172 3.37108 4.13756 0
M  V30 2679 O 254.395 2.5765 5.08893 0
M  V30 2680 O 253.329 4.30378 4.20783 0
M  V30 2681 H 257.155 2.75015 1.28842 0
M  V30 2682 H 254.74 1.37946 0.573697 0
M  V30 2683 H 256.622 2.09996 3.65349 0
M  V30 2684 H 255.297 1.06322 3.05741 0
M  V30 2685 H 254.204 3.1412 2.03174 0
M  V30 2686 H 255.537 4.12212 2.68965 0
M  V30 2687 N 257.189 -0.644168 1.43834 0
M  V30 2688 C 258.419 -1.42939 1.49171 0
M  V30 2689 C 258.827 -1.88874 0.111048 0
M  V30 2690 O 258.17 -1.60656 -0.8908 0
M  V30 2691 C 258.232 -2.69151 2.38324 0
M  V30 2692 C 257.896 -2.45097 3.85715 0
M  V30 2693 C 258.893 -2.07747 4.76589 0
M  V30 2694 C 256.578 -2.59141 4.30292 0
M  V30 2695 C 258.572 -1.8475 6.10038 0
M  V30 2696 C 256.259 -2.35759 5.63792 0
M  V30 2697 C 257.257 -1.9862 6.53482 0
M  V30 2698 O 256.945 -1.75489 7.84512 0
M  V30 2699 H 256.677 -0.445271 0.508635 0
M  V30 2700 H 259.231 -0.79621 1.8934 0
M  V30 2701 H 257.461 -3.3506 1.93058 0
M  V30 2702 H 259.15 -3.31123 2.3476 0
M  V30 2703 H 259.916 -1.96465 4.43426 0
M  V30 2704 H 255.795 -2.87022 3.60749 0
M  V30 2705 H 259.339 -1.55686 6.80006 0
M  V30 2706 H 255.236 -2.46646 5.9652 0
M  V30 2707 H 256.004 -1.89841 7.9618 0
M  V30 2708 N 258.668 -1.30515 -0.883378 0
M  V30 2709 C 259.578 -1.18959 -2.02203 0
M  V30 2710 C 260.594 -0.109172 -1.73657 0
M  V30 2711 O 261.77 -0.324413 -1.9877 0
M  V30 2712 C 258.835 -0.883871 -3.35244 0
M  V30 2713 C 257.896 -2.04982 -3.77201 0
M  V30 2714 C 257.129 -1.75859 -5.03894 0
M  V30 2715 O 257.352 -0.687276 -5.66244 0
M  V30 2716 O 256.286 -2.61146 -5.42297 0
M  V30 2717 H 260.112 -2.14616 -2.1488 0
M  V30 2718 H 257.697 -1.10124 -1.0096 0
M  V30 2719 H 259.579 -0.728644 -4.15053 0
M  V30 2720 H 258.254 0.0427798 -3.23672 0
M  V30 2721 H 257.161 -2.26038 -2.9809 0
M  V30 2722 H 258.494 -2.95825 -3.93381 0
M  V30 2723 N 260.146 1.09593 -1.13257 0
M  V30 2724 C 261.423 1.78293 -0.804432 0
M  V30 2725 C 261.803 1.99004 0.70431 0
M  V30 2726 O 261.151 1.59007 1.641 0
M  V30 2727 C 261.361 3.10707 -1.5894 0
M  V30 2728 C 262.709 3.85443 -1.78099 0
M  V30 2729 O 263.733 3.20454 -1.55525 0
M  V30 2730 O 262.592 5.02108 -2.15753 0
M  V30 2731 H 259.686 0.773156 -0.293528 0
M  V30 2732 H 262.232 1.16164 -1.23709 0
M  V30 2733 H 261.004 2.91106 -2.61482 0
M  V30 2734 H 260.627 3.80558 -1.15157 0
M  V30 2735 N 261.624 0.925811 1.2754 0
M  V30 2736 C 262.872 0.564138 1.94067 0
M  V30 2737 C 263.193 -0.897188 1.73134 0
M  V30 2738 O 262.463 -1.63573 1.07799 0
M  V30 2739 H 261.043 0.205645 0.718136 0
M  V30 2740 H 263.705 1.1778 1.55287 0
M  V30 2741 H 262.801 0.76881 3.02483 0
M  V30 2742 N 263.102 -1.41638 0.69111 0
M  V30 2743 C 264.032 -2.3347 0.037248 0
M  V30 2744 C 265.013 -1.51575 -0.771947 0
M  V30 2745 O 266.198 -1.80126 -0.72582 0
M  V30 2746 C 263.328 -3.35354 -0.903064 0
M  V30 2747 C 262.282 -4.27526 -0.201288 0
M  V30 2748 C 261.608 -5.19747 -1.25565 0
M  V30 2749 C 262.908 -5.13959 0.929689 0
M  V30 2750 H 264.602 -2.88397 0.804227 0
M  V30 2751 H 262.148 -1.38669 0.388189 0
M  V30 2752 H 264.101 -3.98519 -1.36969 0
M  V30 2753 H 262.825 -2.78767 -1.70166 0
M  V30 2754 H 261.484 -3.65779 0.245265 0
M  V30 2755 H 261.132 -4.59479 -2.04666 0
M  V30 2756 H 260.832 -5.8225 -0.791128 0
M  V30 2757 H 262.356 -5.85789 -1.72288 0
M  V30 2758 H 263.77 -5.70718 0.543546 0
M  V30 2759 H 262.167 -5.85379 1.32103 0
M  V30 2760 H 263.237 -4.51389 1.77133 0
M  V30 2761 N 264.58 -0.43555 -1.51462 0
M  V30 2762 C 265.805 0.132627 -2.06976 0
M  V30 2763 C 266.23 1.35848 -1.30104 0
M  V30 2764 O 265.588 1.78112 -0.338493 0
M  V30 2765 C 265.636 0.43523 -3.57964 0
M  V30 2766 O 264.74 1.52198 -3.83288 0
M  V30 2767 H 264.081 0.00265 -0.663995 0
M  V30 2768 H 266.611 -0.616369 -1.95095 0
M  V30 2769 H 266.621 0.686206 -4.02188 0
M  V30 2770 H 265.296 -0.460739 -4.1334 0
M  V30 2771 H 263.873 1.2611 -3.50928 0
M  V30 2772 N 266.058 1.56714 -0.166846 0
M  V30 2773 C 266.988 2.20754 0.760913 0
M  V30 2774 C 267.969 1.16178 1.24244 0
M  V30 2775 O 269.154 1.44592 1.29641 0
M  V30 2776 C 266.284 2.84478 1.99223 0
M  V30 2777 C 265.238 3.95053 1.64672 0
M  V30 2778 C 264.564 4.45805 2.95232 0
M  V30 2779 C 265.864 5.14865 0.878155 0
M  V30 2780 H 267.558 2.98537 0.22713 0
M  V30 2781 H 265.104 1.43596 0.107805 0
M  V30 2782 H 267.057 3.27951 2.64624 0
M  V30 2783 H 265.781 2.04056 2.55007 0
M  V30 2784 H 264.44 3.52228 1.01641 0
M  V30 2785 H 264.088 3.62181 3.49047 0
M  V30 2786 H 263.788 5.204 2.7287 0
M  V30 2787 H 265.312 4.91962 3.6167 0
M  V30 2788 H 266.726 5.55059 1.43466 0
M  V30 2789 H 265.123 5.95348 0.753738 0
M  V30 2790 H 266.193 4.84735 -0.126377 0
M  V30 2791 N 267.536 -0.106894 1.57237 0
M  V30 2792 C 268.947 -0.662723 1.74542 0
M  V30 2793 C 269.298 -1.7971 0.787319 0
M  V30 2794 O 268.423 -2.16368 -0.0369636 0
M  V30 2795 C 269.018 -1.20896 3.16496 0
M  V30 2796 C 267.577 -1.71096 3.35266 0
M  V30 2797 C 266.724 -0.615642 2.7038 0
M  V30 2798 H 269.675 0.119106 1.58252 0
M  V30 2799 H 269.696 -2.07847 3.18716 0
M  V30 2800 H 269.208 -0.383122 3.86204 0
M  V30 2801 H 267.309 -2.56119 2.70618 0
M  V30 2802 H 267.422 -1.81208 4.43509 0
M  V30 2803 H 265.786 -1.05222 2.31949 0
M  V30 2804 H 266.569 0.199419 3.4272 0
M  V30 2805 N 269.014 -1.53014 -0.377408 0
M  V30 2806 C 270.261 -1.68623 -1.12128 0
M  V30 2807 C 270.589 -0.431997 -1.89642 0
M  V30 2808 O 269.844 0.585855 -1.86725 0
M  V30 2809 C 270.143 -2.87982 -2.11663 0
M  V30 2810 C 269.809 -4.24964 -1.50719 0
M  V30 2811 C 268.471 -4.62217 -1.33825 0
M  V30 2812 C 270.823 -5.10199 -1.06519 0
M  V30 2813 C 268.151 -5.82352 -0.712963 0
M  V30 2814 C 270.503 -6.30969 -0.453955 0
M  V30 2815 C 269.167 -6.66944 -0.272411 0
M  V30 2816 H 268.437 -0.617034 -0.410305 0
M  V30 2817 H 271.084 -1.8718 -0.404484 0
M  V30 2818 H 269.389 -2.63889 -2.89603 0
M  V30 2819 H 271.086 -2.97253 -2.6915 0
M  V30 2820 H 267.676 -3.95626 -1.64858 0
M  V30 2821 H 271.86 -4.81978 -1.18368 0
M  V30 2822 H 267.116 -6.08824 -0.560611 0
M  V30 2823 H 271.29 -6.96324 -0.103217 0
M  V30 2824 H 268.917 -7.59898 0.214181 0
M  V30 2825 N 270.492 0.636531 -1.44174 0
M  V30 2826 C 271.74 1.39343 -1.46383 0
M  V30 2827 C 272.061 1.94766 -0.0955715 0
M  V30 2828 O 271.331 1.75452 0.871395 0
M  V30 2829 H 269.911 0.517199 -0.538994 0
M  V30 2830 H 272.573 0.74957 -1.7991 0
M  V30 2831 H 271.669 2.22746 -2.18611 0
M  V30 2832 N 271.97 1.30982 0.876444 0
M  V30 2833 C 273.216 1.21484 1.63136 0
M  V30 2834 C 273.571 -0.226339 1.91064 0
M  V30 2835 O 272.864 -1.15788 1.52656 0
M  V30 2836 C 273.058 1.98572 2.9716 0
M  V30 2837 C 272.887 3.50039 2.82317 0
M  V30 2838 C 271.657 4.19393 2.81847 0
M  V30 2839 C 273.855 4.45111 2.57644 0
M  V30 2840 N 271.837 5.57061 2.57985 0
M  V30 2841 C 273.208 5.70402 2.42986 0
M  V30 2842 C 275.263 4.3461 2.42937 0
M  V30 2843 C 273.966 6.8638 2.15115 0
M  V30 2844 C 275.992 5.50365 2.16454 0
M  V30 2845 C 275.354 6.74642 2.02578 0
M  V30 2846 H 271.453 0.499632 0.601575 0
M  V30 2847 H 274.037 1.65094 1.03209 0
M  V30 2848 H 272.208 1.5734 3.55104 0
M  V30 2849 H 273.94 1.81146 3.61895 0
M  V30 2850 H 270.695 3.71303 2.93991 0
M  V30 2851 H 271.119 6.29529 2.49043 0
M  V30 2852 H 275.761 3.39199 2.52396 0
M  V30 2853 H 273.479 7.81824 2.04394 0
M  V30 2854 H 277.065 5.44154 2.05884 0
M  V30 2855 H 275.945 7.62699 1.82374 0
M  V30 2856 N 273.449 -1.08991 1.13837 0
M  V30 2857 C 274.677 -1.85011 0.926202 0
M  V30 2858 C 275.092 -1.8135 -0.525127 0
M  V30 2859 O 274.449 -1.21287 -1.36366 0
M  V30 2860 C 274.5 -3.32802 1.41155 0
M  V30 2861 O 274.221 -3.36444 2.80601 0
M  V30 2862 C 275.722 -4.25649 1.23847 0
M  V30 2863 H 272.942 -0.584249 0.32999 0
M  V30 2864 H 275.486 -1.37688 1.51202 0
M  V30 2865 H 273.641 -3.77536 0.868631 0
M  V30 2866 H 274.055 -4.28657 3.02248 0
M  V30 2867 H 275.529 -5.27485 1.62675 0
M  V30 2868 H 276.006 -4.38828 0.18065 0
M  V30 2869 H 276.612 -3.86735 1.76964 0
M  V30 2870 N 274.927 -0.932562 -1.27047 0
M  V30 2871 C 276.338 -0.619451 -1.76124 0
M  V30 2872 C 276.689 0.865397 -1.76083 0
M  V30 2873 O 275.814 1.67722 -1.36742 0
M  V30 2874 C 276.409 -1.11771 -3.19832 0
M  V30 2875 C 274.968 -0.855174 -3.66557 0
M  V30 2876 C 274.115 -1.27362 -2.46321 0
M  V30 2877 H 277.066 -1.11181 -1.13245 0
M  V30 2878 H 277.087 -0.46759 -3.77616 0
M  V30 2879 H 276.599 -2.19842 -3.1983 0
M  V30 2880 H 274.7 0.211524 -3.71999 0
M  V30 2881 H 274.813 -1.47613 -4.55793 0
M  V30 2882 H 273.177 -0.692119 -2.45116 0
M  V30 2883 H 273.96 -2.36307 -2.49025 0
M  V30 2884 N 276.405 1.4127 -0.698611 0
M  V30 2885 C 277.63 2.06024 -0.238512 0
M  V30 2886 C 278.055 1.5224 1.10475 0
M  V30 2887 O 277.413 0.650623 1.69223 0
M  V30 2888 C 277.461 3.59988 -0.209952 0
M  V30 2889 O 276.565 4.04282 0.814235 0
M  V30 2890 H 275.906 0.653829 -0.115775 0
M  V30 2891 H 278.436 1.8098 -0.954326 0
M  V30 2892 H 278.446 4.07979 -0.0418436 0
M  V30 2893 H 277.121 3.98503 -1.1903 0
M  V30 2894 H 275.698 3.6779 0.615234 0
M  V30 2895 N 277.883 0.443576 1.51229 0
M  V30 2896 C 279.299 0.0962001 1.5931 0
M  V30 2897 C 279.499 -1.39501 1.45402 0
M  V30 2898 O 278.555 -2.16557 1.29843 0
M  V30 2899 C 279.868 0.621875 2.94199 0
M  V30 2900 C 281.416 0.582865 3.07525 0
M  V30 2901 C 281.891 1.08562 4.44948 0
M  V30 2902 N 283.382 1.04387 4.51284 0
M  V30 2903 C 284.117 1.40368 5.55954 0
M  V30 2904 N 283.613 1.83664 6.68011 0
M  V30 2905 N 285.406 1.32145 5.46346 0
M  V30 2906 H 277.557 1.41376 1.58514 0
M  V30 2907 H 279.82 0.582965 0.747567 0
M  V30 2908 H 279.526 1.66546 3.09767 0
M  V30 2909 H 279.4 0.0502125 3.77167 0
M  V30 2910 H 281.787 -0.451749 2.91622 0
M  V30 2911 H 281.868 1.191 2.26382 0
M  V30 2912 H 281.512 2.11873 4.61598 0
M  V30 2913 H 281.442 0.453956 5.2464 0
M  V30 2914 H 283.933 0.725986 3.70861 0
M  V30 2915 H 284.246 2.0934 7.43906 0
M  V30 2916 H 282.591 1.87596 6.69203 0
M  V30 2917 H 285.782 0.981808 4.57688 0
M  V30 2918 H 285.955 1.60514 6.27805 0
M  V30 2919 N 279.361 -1.56624 0.175154 0
M  V30 2920 C 280.777 -1.58571 -0.180966 0
M  V30 2921 C 280.977 -1.19065 -1.6256 0
M  V30 2922 O 280.033 -0.904044 -2.35761 0
M  V30 2923 C 281.346 -3.00522 0.103326 0
M  V30 2924 C 282.894 -3.12972 0.0418426 0
M  V30 2925 C 283.369 -4.57022 0.299175 0
M  V30 2926 N 284.86 -4.62541 0.247086 0
M  V30 2927 C 285.595 -5.71857 0.420318 0
M  V30 2928 N 285.091 -6.89717 0.652816 0
M  V30 2929 N 286.884 -5.60972 0.355957 0
M  V30 2930 H 279.035 -1.80589 1.11809 0
M  V30 2931 H 281.298 -0.837178 0.444788 0
M  V30 2932 H 281.004 -3.33916 1.10422 0
M  V30 2933 H 280.878 -3.72344 -0.603299 0
M  V30 2934 H 283.265 -2.79403 -0.949636 0
M  V30 2935 H 283.346 -2.43578 0.781238 0
M  V30 2936 H 282.99 -4.913 1.28788 0
M  V30 2937 H 282.92 -5.24579 -0.460876 0
M  V30 2938 H 285.411 -3.77829 0.0731895 0
M  V30 2939 H 285.724 -7.68911 0.774347 0
M  V30 2940 H 284.069 -6.91572 0.689476 0
M  V30 2941 H 287.26 -4.67773 0.174882 0
M  V30 2942 H 287.433 -6.46111 0.494388 0
M  V30 2943 N 280.839 0.0985539 -1.57292 0
M  V30 2944 C 282.255 0.45267 -1.53046 0
M  V30 2945 C 282.455 1.80713 -0.891342 0
M  V30 2946 O 281.511 2.4785 -0.482375 0
M  V30 2947 C 282.824 0.418341 -2.97776 0
M  V30 2948 C 284.372 0.500443 -3.08973 0
M  V30 2949 C 284.847 0.496297 -4.55303 0
M  V30 2950 N 286.338 0.557151 -4.59837 0
M  V30 2951 C 287.073 0.575726 -5.70502 0
M  V30 2952 N 286.569 0.550714 -6.90608 0
M  V30 2953 N 288.362 0.620277 -5.58667 0
M  V30 2954 H 280.513 -0.788673 -1.97215 0
M  V30 2955 H 282.776 -0.293188 -0.901524 0
M  V30 2956 H 282.482 -0.509659 -3.47988 0
M  V30 2957 H 282.356 1.2386 -3.56284 0
M  V30 2958 H 284.743 1.41886 -2.58751 0
M  V30 2959 H 284.824 -0.347894 -2.53423 0
M  V30 2960 H 284.468 -0.418162 -5.06176 0
M  V30 2961 H 284.398 1.3618 -5.08687 0
M  V30 2962 H 286.889 0.581816 -3.73394 0
M  V30 2963 H 287.202 0.568075 -7.70709 0
M  V30 2964 H 285.547 0.517816 -6.93068 0
M  V30 2965 H 288.738 0.637322 -4.63741 0
M  V30 2966 H 288.911 0.631283 -6.44918 0
M  V30 2967 N 282.317 1.53212 0.369288 0
M  V30 2968 C 283.265 1.80054 1.47253 0
M  V30 2969 C 284.259 0.669456 1.55611 0
M  V30 2970 O 285.465 0.852328 1.58541 0
M  V30 2971 H 281.84 0.570034 0.490475 0
M  V30 2972 H 283.811 2.72403 1.21817 0
M  V30 2973 C 282.56 2.00403 2.84137 0
M  V30 2974 H 281.883 2.86876 2.78464 0
M  V30 2975 H 283.323 2.23164 3.60519 0
M  V30 2976 C 281.782 0.782081 3.27697 0
M  V30 2977 O 282.312 -0.0310205 4.01688 0
M  V30 2978 N 280.518 0.606573 2.84199 0
M  V30 2979 H 280.065 1.26939 2.24152 0
M  V30 2980 H 280.023 -0.20962 3.137 0
M  V30 2981 N 283.795 -0.628877 1.44509 0
M  V30 2982 C 285.043 -1.38565 1.4712 0
M  V30 2983 C 285.364 -1.94712 0.105899 0
M  V30 2984 O 284.634 -1.75912 -0.862079 0
M  V30 2985 H 283.214 -0.514333 0.541729 0
M  V30 2986 H 285.876 -0.740018 1.80305 0
M  V30 2987 H 284.972 -2.21583 2.19789 0
M  V30 2988 N 285.273 -1.31445 -0.869486 0
M  V30 2989 C 286.52 -1.21158 -1.62256 0
M  V30 2990 C 286.848 0.230155 -1.93133 0
M  V30 2991 O 286.103 1.17906 -1.56194 0
M  V30 2992 C 286.402 -2.00145 -2.96102 0
M  V30 2993 C 286.068 -3.4964 -2.84715 0
M  V30 2994 C 284.73 -3.90403 -2.81317 0
M  V30 2995 C 287.082 -4.44769 -2.71716 0
M  V30 2996 C 284.41 -5.24561 -2.62778 0
M  V30 2997 C 286.762 -5.79054 -2.54714 0
M  V30 2998 C 285.426 -6.19037 -2.49699 0
M  V30 2999 H 284.696 -0.443348 -0.593737 0
M  V30 3000 H 287.343 -1.62715 -1.00976 0
M  V30 3001 H 285.648 -1.5127 -3.6142 0
M  V30 3002 H 287.345 -1.89566 -3.53363 0
M  V30 3003 H 283.935 -3.17256 -2.88178 0
M  V30 3004 H 288.119 -4.14208 -2.73397 0
M  V30 3005 H 283.375 -5.54613 -2.57321 0
M  V30 3006 H 287.549 -6.52393 -2.43632 0
M  V30 3007 H 285.176 -7.22935 -2.35093 0
M  V30 3008 N 286.751 1.08385 -1.14413 0
M  V30 3009 C 287.681 2.17321 -0.854044 0
M  V30 3010 C 288.662 1.69024 0.191049 0
M  V30 3011 O 289.847 1.94141 0.0476779 0
M  V30 3012 C 286.977 3.45719 -0.330983 0
M  V30 3013 C 285.931 4.07409 -1.31155 0
M  V30 3014 C 285.257 5.30762 -0.64778 0
M  V30 3015 C 286.557 4.48665 -2.67388 0
M  V30 3016 H 288.251 2.41845 -1.76498 0
M  V30 3017 H 285.797 1.16233 -0.850051 0
M  V30 3018 H 287.75 4.21241 -0.115645 0
M  V30 3019 H 286.474 3.2075 0.615381 0
M  V30 3020 H 285.133 3.33919 -1.51306 0
M  V30 3021 H 284.781 5.02078 0.304398 0
M  V30 3022 H 284.481 5.72992 -1.30207 0
M  V30 3023 H 286.005 6.08998 -0.441972 0
M  V30 3024 H 287.419 5.15364 -2.51143 0
M  V30 3025 H 285.816 5.01814 -3.29093 0
M  V30 3026 H 286.886 3.60543 -3.24248 0
M  V30 3027 N 288.23 0.939286 1.26551 0
M  V30 3028 C 289.16 0.465044 2.28822 0
M  V30 3029 C 290.141 -0.480692 1.63167 0
M  V30 3030 O 291.326 -0.382955 1.90387 0
M  V30 3031 C 288.456 -0.27234 3.46231 0
M  V30 3032 C 287.41 0.58666 4.2396 0
M  V30 3033 C 286.736 -0.280573 5.33963 0
M  V30 3034 C 288.036 1.85704 4.88171 0
M  V30 3035 H 289.73 1.31979 2.68741 0
M  V30 3036 H 287.276 0.636061 1.29191 0
M  V30 3037 H 289.229 -0.615133 4.16886 0
M  V30 3038 H 287.953 -1.16121 3.0526 0
M  V30 3039 H 286.612 0.91232 3.55067 0
M  V30 3040 H 286.26 -1.16874 4.89234 0
M  V30 3041 H 285.96 0.29076 5.8688 0
M  V30 3042 H 287.484 -0.618678 6.07458 0
M  V30 3043 H 288.898 1.58161 5.51052 0
M  V30 3044 H 287.295 2.37279 5.51197 0
M  V30 3045 H 288.365 2.56957 4.11219 0
M  V30 3046 N 289.708 -1.40897 0.706093 0
M  V30 3047 C 291.119 -1.84023 0.315052 0
M  V30 3048 C 291.47 -1.5906 -1.14866 0
M  V30 3049 O 290.595 -1.06651 -1.88293 0
M  V30 3050 C 291.19 -3.34055 0.565038 0
M  V30 3051 C 289.749 -3.7571 0.227806 0
M  V30 3052 C 288.896 -2.64204 0.842122 0
M  V30 3053 H 291.847 -1.303 0.905963 0
M  V30 3054 H 291.868 -3.80107 -0.172843 0
M  V30 3055 H 291.38 -3.52192 1.63042 0
M  V30 3056 H 289.481 -3.63172 -0.832895 0
M  V30 3057 H 289.594 -4.74103 0.690174 0
M  V30 3058 H 287.958 -2.53255 0.270893 0
M  V30 3059 H 288.741 -2.85155 1.91158 0
M  V30 3060 N 291.186 -0.45159 -1.50991 0
M  V30 3061 C 292.116 0.342898 -2.30969 0
M  V30 3062 C 293.097 1.00815 -1.37005 0
M  V30 3063 O 294.282 1.00907 -1.65926 0
M  V30 3064 C 291.412 1.43637 -3.16205 0
M  V30 3065 C 290.366 0.893818 -4.18563 0
M  V30 3066 C 289.692 2.08411 -4.92411 0
M  V30 3067 C 290.992 -0.0815568 -5.22236 0
M  V30 3068 H 292.686 -0.324556 -2.97636 0
M  V30 3069 H 290.232 -0.157531 -1.43136 0
M  V30 3070 H 292.185 1.9995 -3.70942 0
M  V30 3071 H 290.909 2.13232 -2.47386 0
M  V30 3072 H 289.568 0.352798 -3.64898 0
M  V30 3073 H 289.216 2.76658 -4.20082 0
M  V30 3074 H 288.916 1.72741 -5.61636 0
M  V30 3075 H 290.44 2.65251 -5.49976 0
M  V30 3076 H 291.854 0.391742 -5.7196 0
M  V30 3077 H 290.251 -0.351551 -5.99069 0
M  V30 3078 H 291.321 -1.01374 -4.74185 0
M  V30 3079 N 292.664 1.56529 -0.183458 0
M  V30 3080 C 293.91 1.97537 0.459036 0
M  V30 3081 C 294.243 1.06989 1.62071 0
M  V30 3082 O 293.518 0.11948 1.94133 0
M  V30 3083 C 293.801 3.47874 0.930368 0
M  V30 3084 C 293.654 4.492 -0.232317 0
M  V30 3085 C 294.973 4.01612 1.79989 0
M  V30 3086 H 292.092 0.718204 0.165383 0
M  V30 3087 H 294.734 1.88042 -0.272038 0
M  V30 3088 H 292.884 3.56095 1.55333 0
M  V30 3089 H 294.556 4.53027 -0.86972 0
M  V30 3090 H 292.799 4.24657 -0.885928 0
M  V30 3091 H 293.47 5.51823 0.139796 0
M  V30 3092 H 295.946 3.96097 1.27461 0
M  V30 3093 H 294.822 5.07195 2.09867 0
M  V30 3094 H 295.083 3.46163 2.74998 0
M  V30 3095 N 294.142 -0.090211 1.57342 0
M  V30 3096 C 295.558 -0.444547 1.53284 0
M  V30 3097 C 295.758 -1.80238 0.900914 0
M  V30 3098 O 294.814 -2.4759 0.495513 0
M  V30 3099 C 296.127 -0.402543 2.97993 0
M  V30 3100 C 297.675 -0.48405 3.09234 0
M  V30 3101 C 298.15 -0.472144 4.5556 0
M  V30 3102 N 299.641 -0.532757 4.60126 0
M  V30 3103 C 300.376 -0.545462 5.708 0
M  V30 3104 N 299.872 -0.514082 6.9089 0
M  V30 3105 N 301.665 -0.59064 5.58988 0
M  V30 3106 H 293.816 0.799121 1.96794 0
M  V30 3107 H 296.079 0.297965 0.899956 0
M  V30 3108 H 295.785 0.528106 3.47712 0
M  V30 3109 H 295.659 -1.21969 3.56936 0
M  V30 3110 H 298.046 -1.40512 2.595 0
M  V30 3111 H 298.127 0.361328 2.53235 0
M  V30 3112 H 297.771 0.445 5.05947 0
M  V30 3113 H 297.701 -1.3348 5.09402 0
M  V30 3114 H 300.192 -0.562006 3.73698 0
M  V30 3115 H 300.505 -0.527195 7.71 0
M  V30 3116 H 298.85 -0.481054 6.93333 0
M  V30 3117 H 302.041 -0.61272 4.64073 0
M  V30 3118 H 302.214 -0.597073 6.45243 0
M  V30 3119 N 295.62 -1.53406 -0.361157 0
M  V30 3120 C 296.583 -1.79479 -1.42548 0
M  V30 3121 C 297.583 -0.665327 -1.4639 0
M  V30 3122 O 298.773 -0.933549 -1.47073 0
M  V30 3123 C 295.905 -1.92087 -2.8163 0
M  V30 3124 H 297.098 -2.74538 -1.20701 0
M  V30 3125 H 294.651 -1.4455 -0.594546 0
M  V30 3126 H 295.386 -0.991099 -3.08784 0
M  V30 3127 H 295.171 -2.74241 -2.80239 0
M  V30 3128 H 296.661 -2.13836 -3.58697 0
M  V30 3129 N 297.098 0.621204 -1.44841 0
M  V30 3130 C 298.344 1.3826 -1.48365 0
M  V30 3131 C 298.677 1.93831 -0.119624 0
M  V30 3132 O 297.952 1.74251 0.864111 0
M  V30 3133 C 298.235 2.54058 -2.55199 0
M  V30 3134 C 298.088 2.03772 -4.00995 0
M  V30 3135 C 299.407 3.56225 -2.58442 0
M  V30 3136 H 296.526 0.501374 -0.540179 0
M  V30 3137 H 299.168 0.7015 -1.76576 0
M  V30 3138 H 297.318 3.12162 -2.31274 0
M  V30 3139 H 298.99 1.50423 -4.36086 0
M  V30 3140 H 297.233 1.34876 -4.12299 0
M  V30 3141 H 297.904 2.87185 -4.71411 0
M  V30 3142 H 300.38 3.07939 -2.79844 0
M  V30 3143 H 299.256 4.34756 -3.3508 0
M  V30 3144 H 299.517 4.10949 -1.63013 0
M  V30 3145 N 298.576 1.31904 0.862503 0
M  V30 3146 C 299.801 1.25135 1.65397 0
M  V30 3147 C 300.226 -0.179 1.87246 0
M  V30 3148 O 299.584 -1.1277 1.4196 0
M  V30 3149 C 299.632 2.00832 2.99498 0
M  V30 3150 O 298.736 1.35075 3.89652 0
M  V30 3151 H 298.077 0.431655 0.504549 0
M  V30 3152 H 300.607 1.74094 1.07483 0
M  V30 3153 H 300.617 2.10709 3.49379 0
M  V30 3154 H 299.292 3.04847 2.82916 0
M  V30 3155 H 297.869 1.33696 3.48109 0
M  V30 3156 N 300.054 -1.07777 1.14986 0
M  V30 3157 C 301.002 -2.16964 0.838406 0
M  V30 3158 C 301.996 -1.68372 -0.186386 0
M  V30 3159 O 303.202 -1.79951 -0.0418465 0
M  V30 3160 H 299.577 -0.708006 0.253439 0
M  V30 3161 H 301.548 -2.40454 1.76704 0
M  V30 3162 C 300.297 -3.4604 0.339335 0
M  V30 3163 H 299.62 -3.83813 1.11927 0
M  V30 3164 H 301.06 -4.23698 0.160021 0
M  V30 3165 C 299.519 -3.23569 -0.938325 0
M  V30 3166 O 300.049 -3.47752 -2.01077 0
M  V30 3167 N 298.255 -2.77079 -0.876117 0
M  V30 3168 H 297.802 -2.576 -0.00322037 0
M  V30 3169 H 297.76 -2.62422 -1.73153 0
M  V30 3170 N 301.532 -0.945985 -1.26051 0
M  V30 3171 C 302.464 -0.416662 -2.25381 0
M  V30 3172 C 303.477 0.462712 -1.56086 0
M  V30 3173 O 304.666 0.272383 -1.7641 0
M  V30 3174 C 301.766 0.419812 -3.3629 0
M  V30 3175 C 300.939 -0.444531 -4.35135 0
M  V30 3176 C 299.998 0.332305 -5.2515 0
M  V30 3177 O 299.024 -0.266324 -5.68577 0
M  V30 3178 N 300.226 1.62763 -5.57215 0
M  V30 3179 H 302.991 -1.27059 -2.71433 0
M  V30 3180 H 300.552 -0.815392 -1.39868 0
M  V30 3181 H 302.544 0.947013 -3.93464 0
M  V30 3182 H 301.114 1.17456 -2.89694 0
M  V30 3183 H 300.334 -1.15291 -3.76964 0
M  V30 3184 H 301.622 -1.03478 -4.98166 0
M  V30 3185 H 301.02 2.13603 -5.23823 0
M  V30 3186 H 299.577 2.10097 -6.17011 0
M  V30 3187 N 303.011 1.40521 -0.713556 0
M  V30 3188 C 304.26 2.00155 -0.249192 0
M  V30 3189 C 304.573 1.57224 1.16362 0
M  V30 3190 O 305.779 2.09542 1.72639 0
M  V30 3191 C 304.235 3.5773 -0.3946 0
M  V30 3192 C 303.843 4.09635 -1.81392 0
M  V30 3193 C 305.587 4.24499 0.00907364 0
M  V30 3194 C 303.494 5.59707 -1.91003 0
M  V30 3195 H 302.424 0.74868 -0.0894114 0
M  V30 3196 H 305.075 1.60784 -0.884352 0
M  V30 3197 H 303.457 3.94792 0.30911 0
M  V30 3198 H 304.631 3.83955 -2.54785 0
M  V30 3199 H 302.946 3.55456 -2.16888 0
M  V30 3200 H 305.543 5.34683 -0.0420404 0
M  V30 3201 H 305.886 4.02824 1.05065 0
M  V30 3202 H 306.419 3.92536 -0.645007 0
M  V30 3203 H 303.158 5.86234 -2.93275 0
M  V30 3204 H 302.678 5.87258 -1.22019 0
M  V30 3205 H 304.357 6.24776 -1.6812 0
M  V30 3206 N 304.489 0.459591 1.5075 0
M  V30 3207 C 305.735 -0.0994966 2.02556 0
M  V30 3208 C 306.068 -1.40399 1.3417 0
M  V30 3209 O 305.343 -1.88892 0.463683 0
M  V30 3210 C 305.626 -0.295242 3.58888 0
M  V30 3211 C 305.479 1.02947 4.37861 0
M  V30 3212 C 306.798 -1.05502 4.27267 0
M  V30 3213 H 303.917 -0.034686 0.736183 0
M  V30 3214 H 306.559 0.602938 1.8018 0
M  V30 3215 H 304.709 -0.893563 3.78084 0
M  V30 3216 H 306.381 1.66348 4.30263 0
M  V30 3217 H 304.624 1.62885 4.02058 0
M  V30 3218 H 305.295 0.846281 5.45474 0
M  V30 3219 H 307.771 -0.547993 4.12476 0
M  V30 3220 H 306.647 -1.16077 5.36486 0
M  V30 3221 H 306.908 -2.08875 3.89645 0
M  V30 3222 N 305.967 -1.56429 0.191757 0
M  V30 3223 C 307.383 -1.58754 -0.164137 0
M  V30 3224 C 307.583 -1.20782 -1.61288 0
M  V30 3225 O 306.639 -0.928999 -2.34789 0
M  V30 3226 C 307.952 -3.00396 0.135195 0
M  V30 3227 C 309.5 -3.1291 0.0750351 0
M  V30 3228 C 309.975 -4.56679 0.347632 0
M  V30 3229 N 311.466 -4.62252 0.296131 0
M  V30 3230 C 312.201 -5.71379 0.480948 0
M  V30 3231 N 311.697 -6.88986 0.725933 0
M  V30 3232 N 313.49 -5.60563 0.415435 0
M  V30 3233 H 305.641 -1.79393 1.13718 0
M  V30 3234 H 307.904 -0.832414 0.453643 0
M  V30 3235 H 307.61 -3.32726 1.13958 0
M  V30 3236 H 307.484 -3.72963 -0.563773 0
M  V30 3237 H 309.871 -2.80394 -0.919948 0
M  V30 3238 H 309.952 -2.42736 0.807029 0
M  V30 3239 H 309.596 -4.89907 1.33992 0
M  V30 3240 H 309.526 -5.25039 -0.405212 0
M  V30 3241 H 312.017 -3.7773 0.113259 0
M  V30 3242 H 312.33 -7.68046 0.855857 0
M  V30 3243 H 310.675 -6.90801 0.762788 0
M  V30 3244 H 313.866 -4.67561 0.224486 0
M  V30 3245 H 314.039 -6.45551 0.562889 0
M  V30 3246 N 307.445 0.0818655 -1.57387 0
M  V30 3247 C 308.692 0.782914 -1.86753 0
M  V30 3248 C 309.02 1.78082 -0.782118 0
M  V30 3249 O 308.275 1.94426 0.22295 0
M  V30 3250 C 308.574 1.53513 -3.22752 0
M  V30 3251 C 308.24 0.678134 -4.45771 0
M  V30 3252 C 306.902 0.441929 -4.79166 0
M  V30 3253 C 309.254 0.0832243 -5.21134 0
M  V30 3254 C 306.582 -0.398833 -5.85343 0
M  V30 3255 C 308.934 -0.744935 -6.28199 0
M  V30 3256 C 307.598 -0.991107 -6.60101 0
M  V30 3257 H 306.868 0.286489 -0.683378 0
M  V30 3258 H 309.515 0.0439808 -1.91449 0
M  V30 3259 H 307.82 2.34599 -3.138 0
M  V30 3260 H 309.517 2.08218 -3.42705 0
M  V30 3261 H 306.107 0.872357 -4.19628 0
M  V30 3262 H 310.291 0.252847 -4.95655 0
M  V30 3263 H 305.547 -0.598405 -6.08465 0
M  V30 3264 H 309.721 -1.21271 -6.8576 0
M  V30 3265 H 307.348 -1.64437 -7.42202 0
M  V30 3266 N 308.923 1.53595 0.353017 0
M  V30 3267 C 310.334 1.61937 0.929153 0
M  V30 3268 C 310.685 0.494686 1.89861 0
M  V30 3269 O 309.81 -0.377017 2.1309 0
M  V30 3270 C 310.405 2.93526 1.69199 0
M  V30 3271 C 308.964 3.04161 2.21727 0
M  V30 3272 C 308.111 2.57322 1.03348 0
M  V30 3273 H 311.062 1.58155 0.131431 0
M  V30 3274 H 311.083 2.82034 2.55416 0
M  V30 3275 H 310.595 3.75362 0.986144 0
M  V30 3276 H 308.696 2.26938 2.95516 0
M  V30 3277 H 308.809 4.09465 2.48748 0
M  V30 3278 H 307.173 2.12499 1.40414 0
M  V30 3279 H 307.956 3.41588 0.342428 0
M  V30 3280 N 310.401 -0.613514 1.45168 0
M  V30 3281 C 311.349 -1.74572 1.53712 0
M  V30 3282 C 312.343 -1.64426 0.407505 0
M  V30 3283 O 313.549 -1.70291 0.583176 0
M  V30 3284 H 309.924 -0.576641 0.48269 0
M  V30 3285 H 311.895 -1.64492 2.48968 0
M  V30 3286 C 310.644 -3.12943 1.51532 0
M  V30 3287 H 309.967 -3.21407 2.37776 0
M  V30 3288 H 311.407 -3.9201 1.61569 0
M  V30 3289 C 309.866 -3.36053 0.238798 0
M  V30 3290 O 310.396 -3.95837 -0.6838 0
M  V30 3291 N 308.602 -2.9028 0.136359 0
M  V30 3292 H 308.149 -2.41811 0.887999 0
M  V30 3293 H 308.107 -3.06116 -0.716944 0
M  V30 3294 N 311.879 -1.3236 -0.855495 0
M  V30 3295 C 312.789 -1.23221 -1.99634 0
M  V30 3296 C 313.805 -0.145983 -1.73387 0
M  V30 3297 O 314.981 -0.366502 -1.98037 0
M  V30 3298 C 312.046 -0.954782 -3.33294 0
M  V30 3299 C 311.107 -2.12937 -3.72769 0
M  V30 3300 C 310.34 -1.86508 -5.00051 0
M  V30 3301 O 310.563 -0.807231 -5.64659 0
M  V30 3302 O 309.497 -2.72591 -5.36636 0
M  V30 3303 H 313.323 -2.19126 -2.1028 0
M  V30 3304 H 310.908 -1.12241 -0.986018 0
M  V30 3305 H 312.79 -0.816519 -4.13414 0
M  V30 3306 H 311.465 -0.0258854 -3.2369 0
M  V30 3307 H 310.372 -2.3231 -2.93228 0
M  V30 3308 H 311.705 -3.04102 -3.87018 0
M  V30 3309 N 313.357 1.07166 -1.15556 0
M  V30 3310 C 314.773 1.31899 -0.898603 0
M  V30 3311 C 314.973 1.96333 0.453383 0
M  V30 3312 O 314.029 2.22438 1.19489 0
M  V30 3313 C 315.342 2.20826 -2.04099 0
M  V30 3314 C 316.89 2.34269 -2.07574 0
M  V30 3315 C 317.365 3.26546 -3.21141 0
M  V30 3316 N 318.856 3.34127 -3.20801 0
M  V30 3317 C 319.591 4.05595 -4.05315 0
M  V30 3318 N 319.087 4.79661 -4.99897 0
M  V30 3319 N 320.88 4.01555 -3.93332 0
M  V30 3320 H 313.031 0.637302 -2.02613 0
M  V30 3321 H 315.294 0.343468 -0.883591 0
M  V30 3322 H 315 1.80744 -3.01703 0
M  V30 3323 H 314.874 3.21364 -1.97496 0
M  V30 3324 H 317.261 2.73603 -1.10568 0
M  V30 3325 H 317.342 1.33429 -2.18244 0
M  V30 3326 H 316.986 2.87931 -4.184 0
M  V30 3327 H 316.916 4.27345 -3.07708 0
M  V30 3328 H 319.407 2.81336 -2.52306 0
M  V30 3329 H 319.72 5.31694 -5.60822 0
M  V30 3330 H 318.065 4.78671 -5.03884 0
M  V30 3331 H 321.256 3.42806 -3.18751 0
M  V30 3332 H 321.429 4.56987 -4.5942 0
M  V30 3333 N 314.835 0.952656 1.25548 0
M  V30 3334 C 315.765 0.489287 2.28316 0
M  V30 3335 C 316.746 -0.463359 1.63667 0
M  V30 3336 O 317.931 -0.36274 1.90782 0
M  V30 3337 C 315.061 -0.235603 3.465 0
M  V30 3338 C 314.015 0.631593 4.23314 0
M  V30 3339 C 313.341 -0.223923 5.34231 0
M  V30 3340 C 314.641 1.90871 4.86174 0
M  V30 3341 H 316.335 1.34822 2.67326 0
M  V30 3342 H 313.881 0.649728 1.28509 0
M  V30 3343 H 315.834 -0.570882 4.17515 0
M  V30 3344 H 314.558 -1.12877 3.06474 0
M  V30 3345 H 313.217 0.949929 3.54079 0
M  V30 3346 H 312.865 -1.11678 4.90446 0
M  V30 3347 H 312.565 0.35299 5.86539 0
M  V30 3348 H 314.089 -0.554214 6.0808 0
M  V30 3349 H 315.503 1.63997 5.49343 0
M  V30 3350 H 313.9 2.43112 5.4865 0
M  V30 3351 H 314.97 2.61304 4.08471 0
M  V30 3352 N 316.313 -1.40141 0.720998 0
M  V30 3353 C 317.541 -2.05096 0.272656 0
M  V30 3354 C 317.956 -1.54334 -1.0875 0
M  V30 3355 O 317.313 -0.702211 -1.6845 0
M  V30 3356 C 317.364 -3.60636 0.249835 0
M  V30 3357 O 317.085 -4.09526 1.55629 0
M  V30 3358 C 318.586 -4.42772 -0.216396 0
M  V30 3359 H 315.806 -0.659897 0.121558 0
M  V30 3360 H 318.35 -1.79449 0.980723 0
M  V30 3361 H 316.505 -3.85232 -0.409237 0
M  V30 3362 H 316.919 -5.03758 1.4604 0
M  V30 3363 H 318.393 -5.51702 -0.181212 0
M  V30 3364 H 318.87 -4.20756 -1.25941 0
M  V30 3365 H 319.476 -4.23294 0.412596 0
M  V30 3366 N 317.792 -0.46758 -1.50504 0
M  V30 3367 C 319.017 0.0886943 -2.0721 0
M  V30 3368 C 319.442 1.33057 -1.32956 0
M  V30 3369 O 318.8 1.77354 -0.376197 0
M  V30 3370 C 318.848 0.359202 -3.58806 0
M  V30 3371 O 317.952 1.44034 -3.8643 0
M  V30 3372 H 317.293 -0.0114349 -0.663902 0
M  V30 3373 H 319.823 -0.657613 -1.93744 0
M  V30 3374 H 319.833 0.600742 -4.03553 0
M  V30 3375 H 318.508 -0.548311 -4.1227 0
M  V30 3376 H 317.085 1.18638 -3.53524 0
M  V30 3377 N 319.27 1.56325 -0.20005 0
M  V30 3378 C 320.547 1.89484 0.48529 0
M  V30 3379 C 320.927 1.1143 1.79294 0
M  V30 3380 O 320.275 0.216919 2.27468 0
M  V30 3381 C 320.485 3.41923 0.699243 0
M  V30 3382 C 321.833 4.12256 1.01638 0
M  V30 3383 O 322.857 3.47402 0.786792 0
M  V30 3384 O 321.716 5.26887 1.45095 0
M  V30 3385 H 318.81 0.787144 0.253639 0
M  V30 3386 H 321.356 1.67985 -0.240633 0
M  V30 3387 H 320.128 3.90658 -0.224008 0
M  V30 3388 H 319.751 3.69131 1.47744 0
M  V30 3389 N 320.748 -0.0735177 1.57428 0
M  V30 3390 C 322.164 -0.428264 1.53747 0
M  V30 3391 C 322.364 -1.79272 0.91998 0
M  V30 3392 O 321.42 -2.47051 0.521745 0
M  V30 3393 C 322.733 -0.370914 2.98404 0
M  V30 3394 C 324.281 -0.451224 3.0973 0
M  V30 3395 C 324.756 -0.4238 4.56035 0
M  V30 3396 N 326.247 -0.483925 4.60665 0
M  V30 3397 C 326.982 -0.484891 5.71346 0
M  V30 3398 N 326.478 -0.440775 6.91396 0
M  V30 3399 N 328.271 -0.531319 5.59583 0
M  V30 3400 H 320.422 0.819949 1.95935 0
M  V30 3401 H 322.685 0.307493 0.896745 0
M  V30 3402 H 322.391 0.564956 3.47133 0
M  V30 3403 H 322.265 -1.18176 3.5821 0
M  V30 3404 H 324.652 -1.37752 2.60976 0
M  V30 3405 H 324.733 0.388167 2.52838 0
M  V30 3406 H 324.377 0.498638 5.05446 0
M  V30 3407 H 324.307 -1.2807 5.10789 0
M  V30 3408 H 326.798 -0.522338 3.74273 0
M  V30 3409 H 327.111 -0.44539 7.71515 0
M  V30 3410 H 325.456 -0.40749 6.93804 0
M  V30 3411 H 328.647 -0.563464 4.64696 0
M  V30 3412 H 328.82 -0.528603 6.4584 0
M  V30 3413 N 322.226 -1.5378 -0.344866 0
M  V30 3414 C 323.474 -1.70625 -1.08311 0
M  V30 3415 C 323.795 -0.471447 -1.89215 0
M  V30 3416 O 323.065 0.514616 -1.8902 0
M  V30 3417 H 321.645 -0.629058 -0.402859 0
M  V30 3418 H 324.307 -1.9103 -0.386459 0
M  V30 3419 H 323.403 -2.57656 -1.76124 0
M  V30 3420 N 323.704 0.605807 -1.45491 0
M  V30 3421 C 325.12 0.926751 -1.29936 0
M  V30 3422 C 325.32 1.99896 -0.253706 0
M  V30 3423 O 324.376 2.50038 0.351737 0
M  V30 3424 C 325.689 1.36599 -2.67883 0
M  V30 3425 C 327.237 1.4801 -2.75793 0
M  V30 3426 C 327.712 1.95309 -4.14268 0
M  V30 3427 N 329.203 2.0254 -4.16571 0
M  V30 3428 C 329.938 2.40363 -5.20589 0
M  V30 3429 N 329.434 2.77143 -6.34952 0
M  V30 3430 N 331.227 2.40718 -5.07948 0
M  V30 3431 H 323.378 -0.102862 -2.12151 0
M  V30 3432 H 325.641 0.016639 -0.947854 0
M  V30 3433 H 325.347 0.652306 -3.45598 0
M  V30 3434 H 325.221 2.33215 -2.96463 0
M  V30 3435 H 327.608 2.1847 -1.98381 0
M  V30 3436 H 327.689 0.497041 -2.50925 0
M  V30 3437 H 327.333 1.25436 -4.92167 0
M  V30 3438 H 327.263 2.94532 -4.3653 0
M  V30 3439 H 329.754 1.76699 -3.34045 0
M  V30 3440 H 330.067 3.0489 -7.10114 0
M  V30 3441 H 328.412 2.74834 -6.3835 0
M  V30 3442 H 331.603 2.11392 -4.1765 0
M  V30 3443 H 331.776 2.69869 -5.89131 0
M  V30 3444 N 325.182 1.32811 0.848464 0
M  V30 3445 C 326.145 1.22194 1.9391 0
M  V30 3446 C 327.145 0.143404 1.60159 0
M  V30 3447 O 328.335 0.394253 1.6968 0
M  V30 3448 C 325.467 0.88067 3.29328 0
M  V30 3449 H 326.66 2.19127 2.04752 0
M  V30 3450 H 324.213 1.16731 1.0394 0
M  V30 3451 H 324.948 -0.0865776 3.24184 0
M  V30 3452 H 324.733 1.66052 3.55203 0
M  V30 3453 H 326.223 0.830871 4.09251 0
M  V30 3454 N 326.66 -1.06551 1.16123 0
M  V30 3455 C 327.59 -2.15935 0.88851 0
M  V30 3456 C 328.571 -1.69306 -0.164135 0
M  V30 3457 O 329.756 -1.94193 -0.0167857 0
M  V30 3458 C 326.886 -3.45149 0.385942 0
M  V30 3459 C 325.84 -4.05271 1.3762 0
M  V30 3460 C 325.166 -5.29664 0.732137 0
M  V30 3461 C 326.466 -4.44355 2.74493 0
M  V30 3462 H 328.16 -2.39006 1.80323 0
M  V30 3463 H 325.706 -1.14866 0.868435 0
M  V30 3464 H 327.659 -4.21004 0.182647 0
M  V30 3465 H 326.383 -3.21689 -0.564274 0
M  V30 3466 H 325.042 -3.3147 1.56599 0
M  V30 3467 H 324.69 -5.02499 -0.224483 0
M  V30 3468 H 324.39 -5.70848 1.39307 0
M  V30 3469 H 325.914 -6.08218 0.538802 0
M  V30 3470 H 327.328 -5.11303 2.59311 0
M  V30 3471 H 325.725 -4.96515 3.37035 0
M  V30 3472 H 326.795 -3.55339 3.29943 0
M  V30 3473 N 328.138 -0.959301 -1.25041 0
M  V30 3474 C 329.071 -0.427418 -2.24161 0
M  V30 3475 C 330.049 0.493837 -1.54919 0
M  V30 3476 O 331.233 0.427144 -1.83597 0
M  V30 3477 C 328.36 0.383893 -3.36517 0
M  V30 3478 C 327.406 -0.478431 -4.23808 0
M  V30 3479 S 328.239 -1.91353 -5.00144 0
M  V30 3480 C 329.395 -1.11077 -6.15965 0
M  V30 3481 H 329.628 -1.26743 -2.6893 0
M  V30 3482 H 327.161 -0.763714 -1.34189 0
M  V30 3483 H 329.119 0.846039 -4.01687 0
M  V30 3484 H 327.78 1.19878 -2.90324 0
M  V30 3485 H 326.973 0.14406 -5.03794 0
M  V30 3486 H 326.575 -0.87597 -3.63597 0
M  V30 3487 H 328.867 -0.361699 -6.76534 0
M  V30 3488 H 329.81 -1.88472 -6.82557 0
M  V30 3489 H 330.218 -0.638843 -5.60873 0
M  V30 3490 N 329.616 1.39756 -0.72842 0
M  V30 3491 C 330.863 2.00645 -0.273487 0
M  V30 3492 C 331.191 1.57786 1.13727 0
M  V30 3493 O 330.446 0.794886 1.7883 0
M  V30 3494 C 330.745 3.56002 -0.315776 0
M  V30 3495 C 330.411 4.18489 -1.67863 0
M  V30 3496 C 329.073 4.3527 -2.05166 0
M  V30 3497 C 331.425 4.53219 -2.57375 0
M  V30 3498 C 328.753 4.84069 -3.31503 0
M  V30 3499 C 331.105 5.03423 -3.83077 0
M  V30 3500 C 329.769 5.18413 -4.20481 0
M  V30 3501 H 329.039 0.734211 -0.100076 0
M  V30 3502 H 331.686 1.6718 -0.933972 0
M  V30 3503 H 329.991 3.89452 0.428285 0
M  V30 3504 H 331.688 4.00963 0.0542575 0
M  V30 3505 H 328.278 4.05824 -1.37858 0
M  V30 3506 H 332.462 4.39878 -2.29827 0
M  V30 3507 H 327.718 4.93859 -3.60435 0
M  V30 3508 H 331.892 5.2927 -4.52599 0
M  V30 3509 H 329.519 5.55987 -5.18443 0
M  V30 3510 N 331.094 0.475555 1.50254 0
M  V30 3511 C 332.027 -0.362381 2.25304 0
M  V30 3512 C 333.005 -0.992393 1.28803 0
M  V30 3513 O 334.189 -1.02746 1.58036 0
M  V30 3514 C 331.316 -1.50813 3.03271 0
M  V30 3515 C 330.362 -0.995044 4.1473 0
M  V30 3516 S 331.195 0.0938436 5.35418 0
M  V30 3517 C 332.351 -1.05567 6.16933 0
M  V30 3518 H 332.584 0.274686 2.96028 0
M  V30 3519 H 330.117 0.260495 1.52187 0
M  V30 3520 H 332.075 -2.16476 3.48781 0
M  V30 3521 H 330.736 -2.11672 2.32064 0
M  V30 3522 H 329.929 -1.85293 4.68703 0
M  V30 3523 H 329.531 -0.416052 3.71679 0
M  V30 3524 H 331.823 -1.96636 6.48337 0
M  V30 3525 H 332.766 -0.555109 7.05921 0
M  V30 3526 H 333.174 -1.31151 5.49053 0
M  V30 3527 N 332.573 -1.56217 0.208337 0
M  V30 3528 C 333.505 -2.1695 -0.739276 0
M  V30 3529 C 334.518 -1.13492 -1.1672 0
M  V30 3530 O 335.707 -1.40529 -1.10063 0
M  V30 3531 C 332.807 -2.72755 -2.01142 0
M  V30 3532 C 331.98 -4.0125 -1.74118 0
M  V30 3533 C 331.039 -4.41749 -2.85909 0
M  V30 3534 O 330.065 -5.08912 -2.54946 0
M  V30 3535 N 331.267 -4.06342 -4.14568 0
M  V30 3536 H 334.032 -2.98893 -0.219837 0
M  V30 3537 H 331.593 -1.61878 0.0268445 0
M  V30 3538 H 333.585 -2.96826 -2.75094 0
M  V30 3539 H 332.155 -1.95191 -2.4417 0
M  V30 3540 H 331.375 -3.85173 -0.838775 0
M  V30 3541 H 332.663 -4.851 -1.53477 0
M  V30 3542 H 332.061 -3.52345 -4.42571 0
M  V30 3543 H 330.618 -4.35335 -4.85105 0
M  V30 3544 N 334.051 0.0651679 -1.57465 0
M  V30 3545 C 335.297 0.758912 -1.88712 0
M  V30 3546 C 335.652 1.7485 -0.802819 0
M  V30 3547 O 334.945 1.90632 0.192359 0
M  V30 3548 C 335.139 1.50081 -3.24362 0
M  V30 3549 C 334.968 0.584579 -4.45884 0
M  V30 3550 C 333.738 0.219039 -5.04825 0
M  V30 3551 C 335.936 -0.121559 -5.14156 0
M  V30 3552 N 333.918 -0.702222 -6.09871 0
M  V30 3553 C 335.289 -0.899767 -6.13436 0
M  V30 3554 C 337.344 -0.192331 -4.97528 0
M  V30 3555 C 336.047 -1.74218 -6.97883 0
M  V30 3556 C 338.073 -1.02174 -5.82507 0
M  V30 3557 C 337.435 -1.78798 -6.8133 0
M  V30 3558 H 333.534 0.25293 -0.739967 0
M  V30 3559 H 336.118 0.0201744 -1.9469 0
M  V30 3560 H 334.289 2.21023 -3.1938 0
M  V30 3561 H 336.021 2.14409 -3.43236 0
M  V30 3562 H 332.776 0.57336 -4.70117 0
M  V30 3563 H 333.2 -1.15629 -6.67052 0
M  V30 3564 H 337.842 0.385741 -4.21037 0
M  V30 3565 H 335.56 -2.3312 -7.73745 0
M  V30 3566 H 339.146 -1.07957 -5.71696 0
M  V30 3567 H 338.026 -2.41942 -7.45945 0
M  V30 3568 N 335.529 1.53961 0.336706 0
M  V30 3569 C 336.777 1.71197 1.07405 0
M  V30 3570 C 337.098 0.481475 1.88962 0
M  V30 3571 O 336.368 -0.504585 1.8929 0
M  V30 3572 H 334.948 0.631185 0.399517 0
M  V30 3573 H 337.61 1.91232 0.376323 0
M  V30 3574 H 336.706 2.58587 1.74755 0
M  V30 3575 N 337.007 -0.598083 1.45811 0
M  V30 3576 C 337.939 -1.72231 1.51225 0
M  V30 3577 C 338.952 -1.57757 0.402059 0
M  V30 3578 O 340.141 -1.65464 0.669624 0
M  V30 3579 C 337.241 -3.10331 1.3619 0
M  V30 3580 C 336.414 -3.50955 2.61054 0
M  V30 3581 C 335.473 -4.68055 2.40439 0
M  V30 3582 O 334.499 -4.74691 3.14097 0
M  V30 3583 N 335.701 -5.61941 1.45612 0
M  V30 3584 H 338.466 -1.68046 2.48154 0
M  V30 3585 H 336.027 -0.783637 1.41671 0
M  V30 3586 H 338.019 -3.86439 1.20195 0
M  V30 3587 H 336.589 -3.0897 0.475015 0
M  V30 3588 H 335.809 -2.64711 2.92099 0
M  V30 3589 H 337.097 -3.74858 3.44034 0
M  V30 3590 H 336.495 -5.59301 0.848431 0
M  V30 3591 H 335.052 -6.37542 1.35585 0
M  V30 3592 N 338.485 -1.33259 -0.841409 0
M  V30 3593 C 339.732 -1.24572 -1.5965 0
M  V30 3594 C 340.06 0.189137 -1.93578 0
M  V30 3595 O 339.315 1.14566 -1.5866 0
M  V30 3596 C 339.614 -2.06381 -2.9179 0
M  V30 3597 C 339.28 -3.556 -2.77235 0
M  V30 3598 C 337.942 -3.96282 -2.72973 0
M  V30 3599 C 340.294 -4.50433 -2.62221 0
M  V30 3600 C 337.622 -5.30017 -2.51592 0
M  V30 3601 C 339.974 -5.84327 -2.42374 0
M  V30 3602 C 338.638 -6.24194 -2.36512 0
M  V30 3603 H 337.908 -0.455842 -0.5842 0
M  V30 3604 H 340.555 -1.6482 -0.975016 0
M  V30 3605 H 338.86 -1.58903 -3.5813 0
M  V30 3606 H 340.557 -1.97019 -3.49263 0
M  V30 3607 H 337.147 -3.23298 -2.81384 0
M  V30 3608 H 341.331 -4.19914 -2.64549 0
M  V30 3609 H 336.587 -5.59947 -2.45499 0
M  V30 3610 H 340.761 -6.57414 -2.29739 0
M  V30 3611 H 338.388 -7.27759 -2.19706 0
M  V30 3612 N 339.963 1.05934 -1.16686 0
M  V30 3613 C 341.212 1.78188 -0.945085 0
M  V30 3614 C 341.525 1.88338 0.528021 0
M  V30 3615 O 342.731 2.57258 0.867799 0
M  V30 3616 C 341.187 3.20277 -1.64167 0
M  V30 3617 C 340.795 3.18281 -3.15279 0
M  V30 3618 C 342.539 3.97039 -1.502 0
M  V30 3619 C 340.446 4.55112 -3.7766 0
M  V30 3620 H 339.376 0.667866 -0.349959 0
M  V30 3621 H 342.027 1.18794 -1.39858 0
M  V30 3622 H 340.409 3.79952 -1.11589 0
M  V30 3623 H 341.583 2.68167 -3.74731 0
M  V30 3624 H 339.898 2.55018 -3.29173 0
M  V30 3625 H 342.495 4.98194 -1.94183 0
M  V30 3626 H 342.838 4.13845 -0.451461 0
M  V30 3627 H 343.371 3.43894 -1.99954 0
M  V30 3628 H 340.11 4.43512 -4.82677 0
M  V30 3629 H 339.63 5.05406 -3.22994 0
M  V30 3630 H 341.309 5.24064 -3.79428 0
M  V30 3631 N 341.441 0.965919 1.2453 0
M  V30 3632 C 342.718 0.543777 1.87889 0
M  V30 3633 C 343.098 -0.97909 1.87021 0
M  V30 3634 O 342.446 -1.84969 1.3416 0
M  V30 3635 C 342.656 1.13327 3.30088 0
M  V30 3636 C 344.004 1.21707 4.06783 0
M  V30 3637 O 345.028 1.08566 3.39252 0
M  V30 3638 O 343.887 1.42456 5.27606 0
M  V30 3639 H 340.981 0.181054 0.806938 0
M  V30 3640 H 343.527 1.06007 1.32516 0
M  V30 3641 H 342.299 2.17612 3.25209 0
M  V30 3642 H 341.922 0.600911 3.93033 0
M  V30 3643 N 342.919 -1.39368 0.735821 0
M  V30 3644 C 343.869 -2.27885 0.0724287 0
M  V30 3645 C 344.853 -1.44301 -0.711756 0
M  V30 3646 O 346.045 -1.67206 -0.58063 0
M  V30 3647 C 343.174 -3.33029 -0.833454 0
M  V30 3648 C 342.26 -4.24078 -0.0433749 0
M  V30 3649 N 342.651 -4.96138 0.983903 0
M  V30 3650 C 340.949 -4.45164 -0.272905 0
M  V30 3651 C 341.65 -5.63069 1.4604 0
M  V30 3652 N 340.626 -5.37991 0.778857 0
M  V30 3653 H 344.428 -2.81052 0.859467 0
M  V30 3654 H 341.942 -1.5206 0.570227 0
M  V30 3655 H 343.939 -3.95311 -1.32419 0
M  V30 3656 H 342.599 -2.81421 -1.61964 0
M  V30 3657 H 343.61 -4.9958 1.36528 0
M  V30 3658 H 340.287 -4.04497 -1.03383 0
M  V30 3659 H 341.677 -6.30755 2.31511 0
M  V30 3660 N 344.397 -0.483516 -1.5 0
M  V30 3661 C 345.674 0.129337 -1.95172 0
M  V30 3662 C 346.054 1.55802 -1.4244 0
M  V30 3663 O 345.402 2.19625 -0.630649 0
M  V30 3664 C 345.612 0.0599251 -3.48949 0
M  V30 3665 C 346.96 0.242617 -4.23906 0
M  V30 3666 O 347.984 0.135933 -3.55941 0
M  V30 3667 O 346.843 0.459454 -5.44565 0
M  V30 3668 H 343.937 0.104887 -0.820322 0
M  V30 3669 H 346.483 -0.544807 -1.60717 0
M  V30 3670 H 345.255 -0.937079 -3.79914 0
M  V30 3671 H 344.878 0.774984 -3.89974 0
M  V30 3672 N 345.875 1.56104 -0.216619 0
M  V30 3673 C 346.805 2.23063 0.690296 0
M  V30 3674 C 347.786 1.20072 1.20485 0
M  V30 3675 O 348.971 1.48643 1.24976 0
M  V30 3676 C 346.101 2.90672 1.90072 0
M  V30 3677 C 345.055 4.00092 1.5202 0
M  V30 3678 C 344.381 4.54972 2.80899 0
M  V30 3679 C 345.681 5.17398 0.71391 0
M  V30 3680 H 347.375 2.99109 0.132038 0
M  V30 3681 H 344.921 1.43866 0.0620664 0
M  V30 3682 H 346.874 3.36204 2.54057 0
M  V30 3683 H 345.598 2.12066 2.48386 0
M  V30 3684 H 344.257 3.55283 0.903839 0
M  V30 3685 H 343.905 3.73102 3.37348 0
M  V30 3686 H 343.605 5.28817 2.56176 0
M  V30 3687 H 345.129 5.0322 3.45836 0
M  V30 3688 H 346.543 5.59342 1.25735 0
M  V30 3689 H 344.94 5.97444 0.563951 0
M  V30 3690 H 346.01 4.84088 -0.280527 0
M  V30 3691 N 347.353 -0.0568162 1.57498 0
M  V30 3692 C 348.63 -0.786954 1.79071 0
M  V30 3693 C 349.01 -1.95028 0.80792 0
M  V30 3694 O 348.358 -2.27968 -0.155858 0
M  V30 3695 C 348.568 -1.24594 3.26002 0
M  V30 3696 C 349.916 -1.67323 3.90241 0
M  V30 3697 O 350.94 -1.34124 3.29984 0
M  V30 3698 O 349.799 -2.28842 4.9628 0
M  V30 3699 H 346.893 -0.378262 0.735423 0
M  V30 3700 H 349.439 -0.035734 1.69662 0
M  V30 3701 H 348.211 -0.41423 3.89101 0
M  V30 3702 H 347.834 -2.05803 3.40192 0
M  V30 3703 N 348.832 -1.54138 -0.328536 0
M  V30 3704 C 350.079 -1.72105 -1.06706 0
M  V30 3705 C 350.407 -0.492111 -1.88171 0
M  V30 3706 O 349.662 0.526153 -1.88494 0
M  V30 3707 C 349.961 -2.9457 -2.02393 0
M  V30 3708 C 349.627 -4.29544 -1.37122 0
M  V30 3709 C 348.289 -4.6624 -1.19052 0
M  V30 3710 C 350.641 -5.1333 -0.902331 0
M  V30 3711 C 347.969 -5.84325 -0.527331 0
M  V30 3712 C 350.321 -6.32094 -0.252988 0
M  V30 3713 C 348.985 -6.67473 -0.0600901 0
M  V30 3714 H 348.255 -0.629775 -0.390466 0
M  V30 3715 H 350.902 -1.88372 -0.34473 0
M  V30 3716 H 349.207 -2.72969 -2.81061 0
M  V30 3717 H 350.904 -3.05665 -2.59557 0
M  V30 3718 H 347.494 -4.0067 -1.52188 0
M  V30 3719 H 351.678 -4.855 -1.02974 0
M  V30 3720 H 346.934 -6.103 -0.366634 0
M  V30 3721 H 351.108 -6.96299 0.118366 0
M  V30 3722 H 348.735 -7.58832 0.455828 0
M  V30 3723 N 350.31 0.590341 -1.46126 0
M  V30 3724 C 351.535 1.37991 -1.54833 0
M  V30 3725 C 351.96 1.87163 -0.187506 0
M  V30 3726 O 351.318 1.61133 0.831008 0
M  V30 3727 C 351.366 2.54867 -2.55098 0
M  V30 3728 O 350.47 3.56061 -2.08073 0
M  V30 3729 H 349.811 0.411265 -0.521303 0
M  V30 3730 H 352.341 0.716819 -1.91632 0
M  V30 3731 H 352.351 3.01886 -2.74461 0
M  V30 3732 H 351.026 2.18429 -3.53923 0
M  V30 3733 H 349.603 3.15574 -1.98664 0
M  V30 3734 N 351.788 1.33704 0.83433 0
M  V30 3735 C 353.199 1.22813 1.4062 0
M  V30 3736 C 353.55 -0.151107 1.95617 0
M  V30 3737 O 352.675 -1.05092 1.89168 0
M  V30 3738 C 353.27 2.22355 2.55624 0
M  V30 3739 C 351.829 2.1529 3.08751 0
M  V30 3740 C 350.976 2.09589 1.8157 0
M  V30 3741 H 353.927 1.45236 0.639702 0
M  V30 3742 H 353.948 1.83391 3.33389 0
M  V30 3743 H 353.46 3.22728 2.15566 0
M  V30 3744 H 351.561 1.18235 3.53343 0
M  V30 3745 H 351.674 3.06038 3.68616 0
M  V30 3746 H 350.038 1.55134 2.02004 0
M  V30 3747 H 350.821 3.11777 1.43701 0
M  V30 3748 N 353.266 -1.05314 1.17247 0
M  V30 3749 C 354.176 -2.16538 0.90268 0
M  V30 3750 C 355.192 -1.73523 -0.128707 0
M  V30 3751 O 356.368 -2.01337 0.0502701 0
M  V30 3752 C 353.433 -3.44167 0.418356 0
M  V30 3753 C 352.494 -4.01635 1.51618 0
M  V30 3754 C 351.727 -5.23171 1.05487 0
M  V30 3755 O 351.95 -5.70327 -0.0914715 0
M  V30 3756 O 350.884 -5.72848 1.8474 0
M  V30 3757 H 354.71 -2.42145 1.83302 0
M  V30 3758 H 352.295 -1.15037 0.953246 0
M  V30 3759 H 354.177 -4.21112 0.155726 0
M  V30 3760 H 352.852 -3.20063 -0.48385 0
M  V30 3761 H 351.759 -3.26135 1.83268 0
M  V30 3762 H 353.092 -4.30053 2.39405 0
M  V30 3763 N 354.744 -0.972509 -1.24016 0
M  V30 3764 C 355.969 -0.654417 -1.96805 0
M  V30 3765 C 356.394 0.770398 -1.716 0
M  V30 3766 O 355.752 1.52361 -0.982647 0
M  V30 3767 C 355.8 -0.941031 -3.48105 0
M  V30 3768 O 354.904 -0.0289472 -4.1239 0
M  V30 3769 H 354.245 -0.24692 -0.616382 0
M  V30 3770 H 356.775 -1.30396 -1.57664 0
M  V30 3771 H 356.785 -0.87452 -3.98517 0
M  V30 3772 H 355.46 -1.97939 -3.65777 0
M  V30 3773 H 354.037 -0.149192 -3.72601 0
M  V30 3774 N 356.222 1.38976 -0.743202 0
M  V30 3775 C 357.633 1.83123 -0.363732 0
M  V30 3776 C 357.984 1.6205 1.10609 0
M  V30 3777 O 357.109 1.11606 1.854 0
M  V30 3778 C 357.704 3.32439 -0.653408 0
M  V30 3779 C 356.263 3.74974 -0.327338 0
M  V30 3780 C 355.41 2.61878 -0.911875 0
M  V30 3781 H 358.361 1.27852 -0.940191 0
M  V30 3782 H 358.382 3.80432 0.0720031 0
M  V30 3783 H 357.894 3.47745 -1.72323 0
M  V30 3784 H 355.995 3.65252 0.736314 0
M  V30 3785 H 356.108 4.72106 -0.815631 0
M  V30 3786 H 354.472 2.52448 -0.337944 0
M  V30 3787 H 355.255 2.79987 -1.98651 0
M  V30 3788 N 357.7 0.491464 1.49741 0
M  V30 3789 C 358.663 -0.280906 2.27472 0
M  V30 3790 C 359.663 -0.902454 1.33088 0
M  V30 3791 O 360.853 -0.768465 1.56334 0
M  V30 3792 C 357.985 -1.40209 3.10732 0
M  V30 3793 H 359.178 0.401056 2.97206 0
M  V30 3794 H 356.731 0.246131 1.5435 0
M  V30 3795 H 357.466 -2.11849 2.45541 0
M  V30 3796 H 357.251 -0.961969 3.80117 0
M  V30 3797 H 358.741 -1.9464 3.69466 0
M  V30 3798 N 359.178 -1.55987 0.224894 0
M  V30 3799 C 360.594 -1.59066 -0.130426 0
M  V30 3800 C 360.794 -1.24176 -1.5869 0
M  V30 3801 O 359.85 -0.978592 -2.32766 0
M  V30 3802 C 361.163 -3.00042 0.198883 0
M  V30 3803 C 362.711 -3.1268 0.141391 0
M  V30 3804 C 363.186 -4.55839 0.444422 0
M  V30 3805 N 364.677 -4.6152 0.394115 0
M  V30 3806 C 365.412 -5.70231 0.602038 0
M  V30 3807 N 364.908 -6.87291 0.871914 0
M  V30 3808 N 366.701 -5.59555 0.534245 0
M  V30 3809 H 358.852 -1.76941 1.17497 0
M  V30 3810 H 361.115 -0.822604 0.471197 0
M  V30 3811 H 360.821 -3.30234 1.2099 0
M  V30 3812 H 360.695 -3.74075 -0.484535 0
M  V30 3813 H 363.082 -2.82283 -0.860265 0
M  V30 3814 H 363.163 -2.40969 0.858335 0
M  V30 3815 H 362.807 -4.86954 1.44353 0
M  V30 3816 H 362.737 -5.2578 -0.293752 0
M  V30 3817 H 365.228 -3.77405 0.193356 0
M  V30 3818 H 365.541 -7.66058 1.01858 0
M  V30 3819 H 363.886 -6.89028 0.909145 0
M  V30 3820 H 367.077 -4.6698 0.323612 0
M  V30 3821 H 367.25 -6.44211 0.699693 0
M  V30 3822 N 360.656 0.0484629 -1.57525 0
M  V30 3823 C 361.902 0.744226 -1.88651 0
M  V30 3824 C 362.235 1.76029 -0.820212 0
M  V30 3825 O 361.51 1.93782 0.166985 0
M  V30 3826 C 361.793 1.43128 -3.30434 0
M  V30 3827 C 361.646 0.43005 -4.47739 0
M  V30 3828 C 362.965 2.37031 -3.70816 0
M  V30 3829 H 360.084 0.269089 -0.68612 0
M  V30 3830 H 362.726 0.00713532 -1.89999 0
M  V30 3831 H 360.876 2.05956 -3.29415 0
M  V30 3832 H 362.548 -0.194816 -4.60888 0
M  V30 3833 H 360.791 -0.252522 -4.33064 0
M  V30 3834 H 361.462 0.948874 -5.43783 0
M  V30 3835 H 363.938 1.84263 -3.73077 0
M  V30 3836 H 362.814 2.82094 -4.70865 0
M  V30 3837 H 363.075 3.22864 -3.02012 0
M  V30 3838 N 362.134 1.5431 0.320358 0
M  V30 3839 C 363.097 1.83195 1.3774 0
M  V30 3840 C 364.097 0.703906 1.44575 0
M  V30 3841 O 365.287 0.972214 1.44546 0
M  V30 3842 C 362.419 1.99487 2.76438 0
M  V30 3843 H 363.612 2.77642 1.1338 0
M  V30 3844 H 361.165 1.46076 0.556012 0
M  V30 3845 H 361.9 1.07262 3.06048 0
M  V30 3846 H 361.685 2.81575 2.7287 0
M  V30 3847 H 363.175 2.23271 3.52902 0
M  V30 3848 N 363.613 -0.582584 1.46437 0
M  V30 3849 C 364.86 -1.34079 1.51753 0
M  V30 3850 C 365.188 -1.93762 0.169299 0
M  V30 3851 O 364.443 -1.76989 -0.835062 0
M  V30 3852 C 364.742 -2.48964 2.56421 0
M  V30 3853 C 364.408 -2.07273 4.00436 0
M  V30 3854 C 363.07 -1.95618 4.39644 0
M  V30 3855 C 365.422 -1.75111 4.90903 0
M  V30 3856 C 362.75 -1.5006 5.67185 0
M  V30 3857 C 365.102 -1.31032 6.18881 0
M  V30 3858 C 363.766 -1.17954 6.56996 0
M  V30 3859 H 363.036 -0.49063 0.555304 0
M  V30 3860 H 365.683 -0.656007 1.79913 0
M  V30 3861 H 363.988 -3.22889 2.21923 0
M  V30 3862 H 365.685 -3.07178 2.57765 0
M  V30 3863 H 362.275 -2.17279 3.69443 0
M  V30 3864 H 366.459 -1.83001 4.61329 0
M  V30 3865 H 361.715 -1.38577 5.95488 0
M  V30 3866 H 365.889 -1.052 6.88408 0
M  V30 3867 H 363.516 -0.824279 7.55718 0
M  V30 3868 N 365.091 -1.34144 -0.827227 0
M  V30 3869 C 366.319 -1.29325 -1.61501 0
M  V30 3870 C 366.734 0.13354 -1.88327 0
M  V30 3871 O 366.091 1.0793 -1.47164 0
M  V30 3872 C 366.142 -2.07746 -2.95844 0
M  V30 3873 O 365.863 -3.4486 -2.70191 0
M  V30 3874 C 367.364 -2.10273 -3.90256 0
M  V30 3875 H 364.584 -0.445069 -0.50215 0
M  V30 3876 H 367.128 -1.76693 -1.02955 0
M  V30 3877 H 365.283 -1.6403 -3.5096 0
M  V30 3878 H 365.697 -3.85345 -3.55822 0
M  V30 3879 H 367.171 -2.69575 -4.81698 0
M  V30 3880 H 367.648 -1.096 -4.25305 0
M  V30 3881 H 368.254 -2.54059 -3.41078 0
M  V30 3882 N 366.569 1.04691 -1.17803 0
M  V30 3883 C 367.532 2.10724 -0.901545 0
M  V30 3884 C 368.532 1.6042 0.110437 0
M  V30 3885 O 369.722 1.7377 -0.122303 0
M  V30 3886 C 366.854 3.39084 -0.351409 0
M  V30 3887 H 368.047 2.36686 -1.84174 0
M  V30 3888 H 365.6 1.21015 -0.98919 0
M  V30 3889 H 366.335 3.18782 0.59569 0
M  V30 3890 H 366.12 3.76909 -1.08083 0
M  V30 3891 H 367.61 4.17227 -0.176451 0
M  V30 3892 N 368.047 0.979072 1.23499 0
M  V30 3893 C 369.295 0.645941 1.91499 0
M  V30 3894 C 369.616 -0.822948 1.76784 0
M  V30 3895 O 368.886 -1.58854 1.14639 0
M  V30 3896 H 367.466 0.235919 0.708767 0
M  V30 3897 H 370.128 1.2426 1.50152 0
M  V30 3898 H 369.224 0.896411 2.9895 0
M  V30 3899 N 369.525 -1.3858 0.750561 0
M  V30 3900 C 370.771 -2.00481 0.305825 0
M  V30 3901 C 371.104 -1.5944 -1.10872 0
M  V30 3902 O 370.379 -0.83052 -1.75877 0
M  V30 3903 C 370.662 -3.5758 0.425287 0
M  V30 3904 C 370.515 -4.08594 1.88072 0
M  V30 3905 C 371.834 -4.39719 -0.183122 0
M  V30 3906 H 368.953 -0.728348 0.112598 0
M  V30 3907 H 371.595 -1.64566 0.949638 0
M  V30 3908 H 369.745 -3.88306 -0.122828 0
M  V30 3909 H 371.417 -3.88523 2.48691 0
M  V30 3910 H 369.66 -3.61574 2.39681 0
M  V30 3911 H 370.331 -5.177 1.91548 0
M  V30 3912 H 372.807 -4.15128 0.284303 0
M  V30 3913 H 371.683 -5.48856 -0.0692757 0
M  V30 3914 H 371.944 -4.23434 -1.27106 0
M  V30 3915 N 371.003 -0.499398 -1.49478 0
M  V30 3916 C 372.28 0.108629 -1.95298 0
M  V30 3917 C 372.66 1.54282 -1.44084 0
M  V30 3918 O 372.008 2.18944 -0.653908 0
M  V30 3919 C 372.218 0.0229111 -3.48992 0
M  V30 3920 C 373.566 0.197643 -4.2414 0
M  V30 3921 O 374.59 0.0981735 -3.56065 0
M  V30 3922 O 373.449 0.401669 -5.45022 0
M  V30 3923 H 370.543 0.096181 -0.821388 0
M  V30 3924 H 373.089 -0.561822 -1.6013 0
M  V30 3925 H 371.861 -0.977321 -3.78899 0
M  V30 3926 H 371.484 0.733579 -3.90774 0
M  V30 3927 N 372.481 1.55866 -0.233164 0
M  V30 3928 C 373.721 2.00506 0.397078 0
M  V30 3929 C 374.085 1.1176 1.56121 0
M  V30 3930 O 375.286 1.45796 2.25825 0
M  V30 3931 C 373.557 3.4811 0.809601 0
M  V30 3932 S 375.116 4.14765 1.43231 0
M  V30 3933 H 371.934 0.699828 0.125547 0
M  V30 3934 H 374.536 1.92429 -0.345177 0
M  V30 3935 H 373.24 4.10373 -0.0471601 0
M  V30 3936 H 372.771 3.60085 1.58438 0
M  V30 3937 H 374.786 4.14914 2.7214 0
M  V30 3938 N 373.959 -0.0401083 1.57549 0
M  V30 3939 C 374.869 -1.06133 2.0922 0
M  V30 3940 C 375.885 -1.40356 1.0284 0
M  V30 3941 O 377.061 -1.49897 1.34509 0
M  V30 3942 C 374.126 -2.34658 2.55218 0
M  V30 3943 C 373.187 -2.07117 3.76033 0
M  V30 3944 C 372.42 -3.29514 4.19829 0
M  V30 3945 O 372.643 -4.39794 3.63232 0
M  V30 3946 O 371.577 -3.15863 5.12362 0
M  V30 3947 H 375.403 -0.652244 2.96613 0
M  V30 3948 H 372.988 -0.256368 1.47184 0
M  V30 3949 H 374.87 -3.10239 2.85184 0
M  V30 3950 H 373.545 -2.74883 1.70941 0
M  V30 3951 H 372.452 -1.29139 3.51104 0
M  V30 3952 H 373.785 -1.71754 4.61261 0
M  V30 3953 N 375.437 -1.54477 -0.31217 0
M  V30 3954 C 376.853 -1.45442 -0.657185 0
M  V30 3955 C 377.053 -0.63653 -1.91182 0
M  V30 3956 O 376.109 -0.139815 -2.52113 0
M  V30 3957 C 377.422 -2.89287 -0.82058 0
M  V30 3958 C 378.97 -2.9926 -0.917188 0
M  V30 3959 C 379.445 -4.44279 -1.11267 0
M  V30 3960 N 380.936 -4.4794 -1.17914 0
M  V30 3961 C 381.671 -5.57318 -1.34848 0
M  V30 3962 N 381.167 -6.76642 -1.48752 0
M  V30 3963 N 382.96 -5.44986 -1.37647 0
M  V30 3964 H 375.111 -2.06129 0.512313 0
M  V30 3965 H 377.374 -0.933088 0.167485 0
M  V30 3966 H 377.08 -3.51687 0.0302604 0
M  V30 3967 H 376.954 -3.36061 -1.71298 0
M  V30 3968 H 379.341 -2.36981 -1.75852 0
M  V30 3969 H 379.422 -2.558 -0.00101257 0
M  V30 3970 H 379.066 -5.07149 -0.27614 0
M  V30 3971 H 378.996 -4.85359 -2.04289 0
M  V30 3972 H 381.487 -3.61969 -1.08567 0
M  V30 3973 H 381.8 -7.55758 -1.61397 0
M  V30 3974 H 380.145 -6.79529 -1.45828 0
M  V30 3975 H 383.336 -4.50715 -1.26388 0
M  V30 3976 H 383.509 -6.3028 -1.50501 0
M  V30 3977 N 376.915 0.57481 -1.46744 0
M  V30 3978 C 378.143 1.35856 -1.56047 0
M  V30 3979 C 378.558 1.87691 -0.204365 0
M  V30 3980 O 377.915 1.64049 0.79963 0
M  V30 3981 C 377.966 2.54066 -2.57163 0
M  V30 3982 O 377.687 2.04377 -3.87507 0
M  V30 3983 C 379.188 3.46514 -2.76483 0
M  V30 3984 H 376.408 0.414754 -0.527466 0
M  V30 3985 H 378.952 0.698035 -1.92218 0
M  V30 3986 H 377.107 3.16092 -2.23974 0
M  V30 3987 H 377.521 2.81419 -4.4261 0
M  V30 3988 H 378.995 4.25919 -3.51137 0
M  V30 3989 H 379.472 3.98951 -1.83671 0
M  V30 3990 H 380.078 2.90318 -3.10799 0
M  V30 3991 N 378.394 1.34581 0.820102 0
M  V30 3992 C 379.634 1.28448 1.58998 0
M  V30 3993 C 379.998 -0.142883 1.91468 0
M  V30 3994 O 381.199 -0.328422 2.66786 0
M  V30 3995 C 379.47 2.153 2.85273 0
M  V30 3996 S 381.029 2.26548 3.75794 0
M  V30 3997 H 377.847 0.456685 0.54494 0
M  V30 3998 H 380.449 1.69825 0.968487 0
M  V30 3999 H 379.153 3.18008 2.59421 0
M  V30 4000 H 378.684 1.7483 3.52417 0
M  V30 4001 H 380.699 1.44034 4.74835 0
M  V30 4002 N 379.872 -1.04064 1.18357 0
M  V30 4003 C 380.835 -2.10243 0.912707 0
M  V30 4004 C 381.835 -1.60477 -0.101928 0
M  V30 4005 O 383.025 -1.73703 0.131517 0
M  V30 4006 C 380.157 -3.38893 0.369387 0
M  V30 4007 H 381.35 -2.35706 1.85426 0
M  V30 4008 H 378.903 -1.20489 0.995594 0
M  V30 4009 H 379.638 -3.19094 -0.578776 0
M  V30 4010 H 379.423 -3.76331 1.1008 0
M  V30 4011 H 380.913 -4.17128 0.198575 0
M  V30 4012 N 381.35 -0.985608 -1.22978 0
M  V30 4013 C 382.282 -0.488154 -2.23941 0
M  V30 4014 C 383.295 0.41282 -1.57479 0
M  V30 4015 O 384.484 0.216121 -1.77187 0
M  V30 4016 C 381.584 0.312611 -3.37455 0
M  V30 4017 C 380.757 -0.582741 -4.33501 0
M  V30 4018 C 379.816 0.165064 -5.25941 0
M  V30 4019 O 378.842 -0.447077 -5.67442 0
M  V30 4020 N 380.044 1.44953 -5.62111 0
M  V30 4021 H 382.809 -1.3563 -2.67254 0
M  V30 4022 H 380.37 -0.859477 -1.37203 0
M  V30 4023 H 382.362 0.821357 -3.96277 0
M  V30 4024 H 380.932 1.0818 -2.93285 0
M  V30 4025 H 380.152 -1.27225 -3.73105 0
M  V30 4026 H 381.44 -1.19275 -4.94622 0
M  V30 4027 H 380.838 1.9683 -5.30353 0
M  V30 4028 H 379.395 1.90361 -6.23383 0
M  V30 4029 N 382.828 1.3818 -0.7579 0
M  V30 4030 C 383.758 2.33027 -0.148597 0
M  V30 4031 C 384.739 1.55085 0.69875 0
M  V30 4032 O 385.924 1.83384 0.639053 0
M  V30 4033 C 383.054 3.3928 0.742034 0
M  V30 4034 C 382.008 4.28 -0.00291946 0
M  V30 4035 C 381.334 5.25146 1.00625 0
M  V30 4036 C 382.634 5.08938 -1.17385 0
M  V30 4037 H 384.328 2.84231 -0.940909 0
M  V30 4038 H 381.874 1.36659 -0.453908 0
M  V30 4039 H 383.827 4.046 1.17799 0
M  V30 4040 H 382.551 2.86569 1.56671 0
M  V30 4041 H 381.21 3.64192 -0.419504 0
M  V30 4042 H 380.858 4.68721 1.8251 0
M  V30 4043 H 380.558 5.85361 0.512428 0
M  V30 4044 H 382.082 5.93342 1.44143 0
M  V30 4045 H 383.496 5.67474 -0.815224 0
M  V30 4046 H 381.893 5.7841 -1.59882 0
M  V30 4047 H 382.963 4.42424 -1.98468 0
M  V30 4048 N 384.306 0.507319 1.49211 0
M  V30 4049 C 385.717 0.0611118 1.866 0
M  V30 4050 C 386.068 -1.35488 1.41907 0
M  V30 4051 O 385.193 -2.0108 0.799726 0
M  V30 4052 C 385.788 0.104125 3.3864 0
M  V30 4053 C 384.347 -0.28677 3.75306 0
M  V30 4054 C 383.494 0.473893 2.73221 0
M  V30 4055 H 386.445 0.719775 1.41439 0
M  V30 4056 H 386.466 -0.689672 3.74198 0
M  V30 4057 H 385.978 1.13482 3.71138 0
M  V30 4058 H 384.079 -1.32046 3.48417 0
M  V30 4059 H 384.192 0.0370745 4.79086 0
M  V30 4060 H 382.556 -0.0770644 2.54583 0
M  V30 4061 H 383.339 1.50478 3.08563 0
M  V30 4062 N 385.784 -1.5574 0.241426 0
M  V30 4063 C 387.195 -1.84842 -0.262755 0
M  V30 4064 C 387.546 -1.16317 -1.58003 0
M  V30 4065 O 386.671 -0.439653 -2.11887 0
M  V30 4066 C 387.266 -3.35332 -0.483523 0
M  V30 4067 C 385.825 -3.6468 -0.931977 0
M  V30 4068 C 384.972 -2.77299 -0.0061151 0
M  V30 4069 H 387.923 -1.51761 0.464129 0
M  V30 4070 H 387.944 -3.56615 -1.32688 0
M  V30 4071 H 387.456 -3.85178 0.47537 0
M  V30 4072 H 385.557 -3.20307 -1.90353 0
M  V30 4073 H 385.67 -4.72498 -0.792628 0
M  V30 4074 H 384.034 -2.49408 -0.516503 0
M  V30 4075 H 384.817 -3.2995 0.948052 0
M  V30 4076 N 387.262 0.0317525 -1.57568 0
M  V30 4077 C 388.502 0.727979 -1.90997 0
M  V30 4078 C 388.866 1.72664 -0.839708 0
M  V30 4079 O 390.067 2.47092 -1.05825 0
M  V30 4080 C 388.338 1.38239 -3.29583 0
M  V30 4081 S 389.897 2.10814 -3.84841 0
M  V30 4082 H 386.715 0.241226 -0.668828 0
M  V30 4083 H 389.317 -0.0173037 -1.95492 0
M  V30 4084 H 388.021 0.642288 -4.05343 0
M  V30 4085 H 387.552 2.16628 -3.28384 0
M  V30 4086 H 389.567 3.3792 -3.63352 0
M  V30 4087 N 388.74 1.54641 0.303973 0
M  V30 4088 C 389.987 1.7378 1.03955 0
M  V30 4089 C 390.315 0.521986 1.87365 0
M  V30 4090 O 389.57 -0.496099 1.89308 0
M  V30 4091 C 389.869 2.97753 1.97681 0
M  V30 4092 C 389.535 4.31671 1.30271 0
M  V30 4093 C 388.197 4.68075 1.11619 0
M  V30 4094 C 390.549 5.147 0.82055 0
M  V30 4095 C 387.877 5.8509 0.434304 0
M  V30 4096 C 390.229 6.32416 0.152395 0
M  V30 4097 C 388.893 6.67484 -0.0461067 0
M  V30 4098 H 388.163 0.635908 0.380398 0
M  V30 4099 H 390.81 1.88896 0.314718 0
M  V30 4100 H 389.115 2.77406 2.76682 0
M  V30 4101 H 390.812 3.09756 2.54661 0
M  V30 4102 H 387.402 4.03041 1.45795 0
M  V30 4103 H 391.586 4.87077 0.952374 0
M  V30 4104 H 386.842 6.10806 0.269495 0
M  V30 4105 H 391.016 6.96023 -0.229126 0
M  V30 4106 H 388.643 7.58011 -0.576494 0
M  V30 4107 N 390.218 -0.567019 1.47046 0
M  V30 4108 C 391.629 -1.14916 1.47143 0
M  V30 4109 C 391.98 -1.94954 0.220767 0
M  V30 4110 O 391.105 -2.05602 -0.67505 0
M  V30 4111 C 391.7 -2.09069 2.666 0
M  V30 4112 C 390.259 -2.62575 2.69687 0
M  V30 4113 C 389.406 -1.38755 2.40088 0
M  V30 4114 H 392.357 -0.354126 1.54699 0
M  V30 4115 H 392.378 -2.92789 2.43011 0
M  V30 4116 H 391.89 -1.50789 3.57609 0
M  V30 4117 H 389.991 -3.24681 1.82792 0
M  V30 4118 H 390.104 -3.04239 3.70102 0
M  V30 4119 H 388.468 -1.69098 1.90468 0
M  V30 4120 H 389.251 -0.822822 3.33293 0
M  V30 4121 N 391.696 -1.35014 -0.812953 0
M  V30 4122 C 392.945 -1.27269 -1.56479 0
M  V30 4123 C 393.258 0.152771 -1.95002 0
M  V30 4124 O 394.464 0.352451 -2.69203 0
M  V30 4125 C 392.92 -2.23159 -2.82362 0
M  V30 4126 C 392.528 -3.71016 -2.511 0
M  V30 4127 C 394.272 -2.24342 -3.60376 0
M  V30 4128 C 392.179 -4.58746 -3.73237 0
M  V30 4129 H 391.109 -0.472829 -0.587324 0
M  V30 4130 H 393.76 -1.6024 -0.894171 0
M  V30 4131 H 392.142 -1.83151 -3.51101 0
M  V30 4132 H 393.316 -4.1962 -1.90409 0
M  V30 4133 H 391.631 -3.72378 -1.86343 0
M  V30 4134 H 394.228 -2.87107 -4.51081 0
M  V30 4135 H 394.571 -1.24542 -3.97234 0
M  V30 4136 H 395.104 -2.62846 -2.98591 0
M  V30 4137 H 391.843 -5.59521 -3.41492 0
M  V30 4138 H 391.363 -4.14871 -4.33176 0
M  V30 4139 H 393.042 -4.73852 -4.40537 0
M  V30 4140 N 393.175 1.03435 -1.18907 0
M  V30 4141 C 394.122 2.11591 -0.921837 0
M  V30 4142 C 395.092 1.65499 0.141226 0
M  V30 4143 O 396.277 1.908 0.000242829 0
M  V30 4144 C 393.417 3.42012 -0.460616 0
M  V30 4145 C 392.53 4.01682 -1.58982 0
M  V30 4146 C 391.665 5.20091 -1.08069 0
M  V30 4147 C 390.704 5.71805 -2.18416 0
M  V30 4148 N 389.841 6.81494 -1.68849 0
M  V30 4149 H 394.681 2.33787 -1.8479 0
M  V30 4150 H 392.218 1.1467 -0.921373 0
M  V30 4151 H 394.176 4.16834 -0.174642 0
M  V30 4152 H 392.806 3.19944 0.428467 0
M  V30 4153 H 391.858 3.24127 -1.99113 0
M  V30 4154 H 393.17 4.36084 -2.4214 0
M  V30 4155 H 392.324 6.02051 -0.749615 0
M  V30 4156 H 391.063 4.87209 -0.218771 0
M  V30 4157 H 390.068 4.88461 -2.5236 0
M  V30 4158 H 391.293 6.06728 -3.05054 0
M  V30 4159 H 389.239 6.50475 -0.849572 0
M  V30 4160 H 389.156 7.14994 -2.45601 0
M  V30 4161 H 390.424 7.67063 -1.38689 0
M  V30 4162 N 394.653 0.992116 1.22453 0
M  V30 4163 C 395.902 0.662992 1.90492 0
M  V30 4164 C 396.215 -0.808407 1.78113 0
M  V30 4165 O 397.421 -1.24908 2.41061 0
M  V30 4166 C 395.877 1.1353 3.41524 0
M  V30 4167 C 395.485 2.63187 3.62542 0
M  V30 4168 C 397.229 0.880465 4.15269 0
M  V30 4169 C 395.136 3.04024 5.0727 0
M  V30 4170 H 394.066 0.244278 0.713333 0
M  V30 4171 H 396.717 1.20157 1.38688 0
M  V30 4172 H 395.099 0.52485 3.92506 0
M  V30 4173 H 396.273 3.2957 3.22056 0
M  V30 4174 H 394.588 2.86543 3.02129 0
M  V30 4175 H 397.185 1.16128 5.21937 0
M  V30 4176 H 397.528 -0.183408 4.15896 0
M  V30 4177 H 398.061 1.45307 3.70312 0
M  V30 4178 H 394.8 4.09584 5.11782 0
M  V30 4179 H 394.32 2.42343 5.48662 0
M  V30 4180 H 395.999 2.95282 5.75689 0
M  V30 4181 N 396.131 -1.37776 0.765217 0
M  V30 4182 C 397.542 -1.82521 0.392819 0
M  V30 4183 C 397.893 -1.63789 -1.08017 0
M  V30 4184 O 397.018 -1.14542 -1.83601 0
M  V30 4185 C 397.613 -3.31358 0.706214 0
M  V30 4186 C 396.172 -3.74406 0.386952 0
M  V30 4187 C 395.319 -2.60394 0.953422 0
M  V30 4188 H 398.27 -1.2634 0.960412 0
M  V30 4189 H 398.291 -3.80498 -0.0114706 0
M  V30 4190 H 397.803 -3.44959 1.77833 0
M  V30 4191 H 395.904 -3.66377 -0.678112 0
M  V30 4192 H 396.017 -4.70749 0.890636 0
M  V30 4193 H 394.381 -2.51878 0.378064 0
M  V30 4194 H 395.164 -2.76791 2.03081 0
M  V30 4195 N 397.609 -0.515225 -1.4894 0
M  V30 4196 C 399.02 -0.0710067 -1.86565 0
M  V30 4197 C 399.371 1.34733 -1.42623 0
M  V30 4198 O 398.496 2.00653 -0.810379 0
M  V30 4199 C 399.091 -0.122083 -3.3858 0
M  V30 4200 C 397.65 0.266863 -3.75453 0
M  V30 4201 C 396.797 -0.488376 -2.72966 0
M  V30 4202 H 399.748 -0.727266 -1.41055 0
M  V30 4203 H 399.769 0.669818 -3.74558 0
M  V30 4204 H 399.281 -1.15448 -3.70531 0
M  V30 4205 H 397.382 1.30196 -3.49113 0
M  V30 4206 H 397.495 -0.0624811 -4.79059 0
M  V30 4207 H 395.859 0.0635622 -2.54621 0
M  V30 4208 H 396.642 -1.52113 -3.07761 0
M  V30 4209 N 399.087 1.5561 -0.249682 0
M  V30 4210 C 400.035 2.22894 0.664906 0
M  V30 4211 C 401.029 1.21743 1.17792 0
M  V30 4212 O 402.235 1.39748 1.13449 0
M  V30 4213 H 398.61 0.715022 0.232912 0
M  V30 4214 H 400.581 2.98307 0.0742998 0
M  V30 4215 C 399.33 2.94424 1.84959 0
M  V30 4216 H 398.653 3.72031 1.46399 0
M  V30 4217 H 400.093 3.44862 2.4667 0
M  V30 4218 C 398.552 1.98454 2.72245 0
M  V30 4219 O 399.082 1.51939 3.71857 0
M  V30 4220 N 397.288 1.65496 2.38871 0
M  V30 4221 H 396.835 2.03517 1.57919 0
M  V30 4222 H 396.793 1.0155 2.97548 0
M  V30 4223 N 400.565 -0.0233959 1.57583 0
M  V30 4224 C 401.842 -0.748794 1.807 0
M  V30 4225 C 402.222 -1.9327 0.849106 0
M  V30 4226 O 401.57 -2.28247 -0.107468 0
M  V30 4227 C 401.78 -1.17651 3.28571 0
M  V30 4228 C 403.128 -1.59008 3.93702 0
M  V30 4229 O 404.152 -1.27094 3.32755 0
M  V30 4230 O 403.011 -2.18264 5.01022 0
M  V30 4231 H 400.105 -0.362578 0.743281 0
M  V30 4232 H 402.651 0.000261958 1.697 0
M  V30 4233 H 401.423 -0.331603 3.89892 0
M  V30 4234 H 401.046 -1.98541 3.44481 0
M  V30 4235 N 402.043 -1.548 -0.295768 0
M  V30 4236 C 403.454 -1.65274 -0.868411 0
M  V30 4237 C 403.805 -0.56481 -1.87894 0
M  V30 4238 O 402.93 0.29767 -2.14343 0
M  V30 4239 C 403.525 -2.99603 -1.58188 0
M  V30 4240 C 402.084 -3.12181 -2.10286 0
M  V30 4241 C 401.231 -2.6098 -0.93727 0
M  V30 4242 H 404.182 -1.58534 -0.0726422 0
M  V30 4243 H 404.203 -2.91319 -2.44772 0
M  V30 4244 H 403.715 -3.78764 -0.846151 0
M  V30 4245 H 401.816 -2.3775 -2.8689 0
M  V30 4246 H 401.929 -4.18415 -2.33379 0
M  V30 4247 H 400.293 -2.17564 -1.32431 0
M  V30 4248 H 401.076 -3.42623 -0.215414 0
M  V30 4249 N 403.521 0.559213 -1.47345 0
M  V30 4250 C 404.937 0.884943 -1.32819 0
M  V30 4251 C 405.137 1.98988 -0.317173 0
M  V30 4252 O 404.193 2.51031 0.272011 0
M  V30 4253 C 405.506 1.28007 -2.72093 0
M  V30 4254 C 407.054 1.39161 -2.80363 0
M  V30 4255 C 407.529 1.82031 -4.20272 0
M  V30 4256 N 409.02 1.89185 -4.22804 0
M  V30 4257 C 409.755 2.2368 -5.27973 0
M  V30 4258 N 409.251 2.56802 -6.43447 0
M  V30 4259 N 411.044 2.24436 -5.15349 0
M  V30 4260 H 403.195 -0.170304 -2.11716 0
M  V30 4261 H 405.458 -0.0135247 -0.947904 0
M  V30 4262 H 405.164 0.542027 -3.47498 0
M  V30 4263 H 405.038 2.23665 -3.03733 0
M  V30 4264 H 407.425 2.12048 -2.05231 0
M  V30 4265 H 407.506 0.41696 -2.52379 0
M  V30 4266 H 407.15 1.09715 -4.95908 0
M  V30 4267 H 407.08 2.80495 -4.45679 0
M  V30 4268 H 409.571 1.65982 -3.39497 0
M  V30 4269 H 409.884 2.82144 -7.19454 0
M  V30 4270 H 408.229 2.54387 -6.46771 0
M  V30 4271 H 411.42 1.97998 -4.24163 0
M  V30 4272 H 411.593 2.50989 -5.97418 0
M  V30 4273 N 404.999 1.35443 0.805782 0
M  V30 4274 C 406.248 1.28097 1.55801 0
M  V30 4275 C 406.561 -0.142428 1.95081 0
M  V30 4276 O 407.767 -0.33817 2.69386 0
M  V30 4277 C 406.223 2.24653 2.81174 0
M  V30 4278 C 405.831 3.72342 2.49129 0
M  V30 4279 C 407.575 2.2625 3.59181 0
M  V30 4280 C 405.482 4.60719 3.70799 0
M  V30 4281 H 404.412 0.475937 0.584808 0
M  V30 4282 H 407.063 1.60712 0.885661 0
M  V30 4283 H 405.445 1.85011 3.50124 0
M  V30 4284 H 406.619 4.20624 1.88181 0
M  V30 4285 H 404.934 3.73361 1.84366 0
M  V30 4286 H 407.531 2.89495 4.49552 0
M  V30 4287 H 407.874 1.26647 3.96568 0
M  V30 4288 H 408.407 2.64426 2.97193 0
M  V30 4289 H 405.146 5.61324 3.3852 0
M  V30 4290 H 404.666 4.17163 4.3097 0
M  V30 4291 H 406.345 4.76182 4.38018 0
M  V30 4292 N 406.477 -1.02803 1.19454 0
M  V30 4293 C 407.424 -2.11099 0.933046 0
M  V30 4294 C 408.394 -1.65571 -0.132447 0
M  V30 4295 O 409.579 -1.90797 0.00987576 0
M  V30 4296 C 406.719 -3.41763 0.478747 0
M  V30 4297 C 405.832 -4.00833 1.6111 0
M  V30 4298 C 404.967 -5.19511 1.10825 0
M  V30 4299 C 404.006 -5.70639 2.21445 0
M  V30 4300 N 403.143 -6.80589 1.72461 0
M  V30 4301 H 407.983 -2.32804 1.86028 0
M  V30 4302 H 405.52 -1.14179 0.927441 0
M  V30 4303 H 407.478 -4.16736 0.196745 0
M  V30 4304 H 406.108 -3.20166 -0.411493 0
M  V30 4305 H 405.16 -3.23066 2.00829 0
M  V30 4306 H 406.472 -4.34794 2.4445 0
M  V30 4307 H 405.626 -6.01645 0.781533 0
M  V30 4308 H 404.365 -4.87086 0.244606 0
M  V30 4309 H 403.37 -4.87116 2.54947 0
M  V30 4310 H 404.595 -6.05102 3.08267 0
M  V30 4311 H 402.541 -6.50016 0.884056 0
M  V30 4312 H 402.458 -7.13681 2.49389 0
M  V30 4313 H 403.726 -7.66317 1.42755 0
M  V30 4314 N 407.956 -0.998596 -1.21925 0
M  V30 4315 C 408.904 -0.546641 -2.26085 0
M  V30 4316 C 409.898 0.405576 -1.64473 0
M  V30 4317 O 411.104 0.277471 -1.77849 0
M  V30 4318 H 407.479 -0.158403 -0.735127 0
M  V30 4319 H 409.45 -1.43645 -2.61551 0
M  V30 4320 C 408.199 0.117388 -3.47502 0
M  V30 4321 H 407.522 -0.606277 -3.95176 0
M  V30 4322 H 408.962 0.396993 -4.22137 0
M  V30 4323 C 407.421 1.35455 -3.0847 0
M  V30 4324 O 407.951 2.44944 -3.18379 0
M  V30 4325 N 406.157 1.23191 -2.63196 0
M  V30 4326 H 405.704 0.341006 -2.55333 0
M  V30 4327 H 405.662 2.06071 -2.37449 0
M  V30 4328 N 409.434 1.37368 -0.772513 0
M  V30 4329 C 410.366 2.28899 -0.117502 0
M  V30 4330 C 411.379 1.4867 0.663405 0
M  V30 4331 O 412.568 1.71314 0.501372 0
M  V30 4332 C 409.668 3.2788 0.857192 0
M  V30 4333 C 408.841 4.37207 0.129938 0
M  V30 4334 C 407.9 5.16257 1.01811 0
M  V30 4335 O 406.926 5.67159 0.481601 0
M  V30 4336 N 408.128 5.31058 2.3443 0
M  V30 4337 H 410.893 2.85752 -0.903662 0
M  V30 4338 H 408.454 1.49353 -0.62493 0
M  V30 4339 H 410.446 3.77647 1.45482 0
M  V30 4340 H 409.016 2.7179 1.54432 0
M  V30 4341 H 408.236 3.88827 -0.648605 0
M  V30 4342 H 409.524 5.07434 -0.372559 0
M  V30 4343 H 408.922 4.91287 2.80452 0
M  V30 4344 H 407.479 5.84131 2.89197 0
M  V30 4345 N 410.912 0.523116 1.48665 0
M  V30 4346 C 412.328 0.180511 1.58576 0
M  V30 4347 C 412.528 -1.31597 1.52592 0
M  V30 4348 O 411.584 -2.0937 1.4114 0
M  V30 4349 C 412.897 0.776949 2.90489 0
M  V30 4350 C 414.445 0.745058 3.04003 0
M  V30 4351 C 414.92 1.31995 4.38567 0
M  V30 4352 N 416.411 1.28162 4.45117 0
M  V30 4353 C 417.146 1.6964 5.47731 0
M  V30 4354 N 416.642 2.18816 6.57337 0
M  V30 4355 N 418.435 1.6092 5.38573 0
M  V30 4356 H 410.586 1.4958 1.50797 0
M  V30 4357 H 412.849 0.621772 0.715614 0
M  V30 4358 H 412.555 1.82732 3.00503 0
M  V30 4359 H 412.429 0.25007 3.7637 0
M  V30 4360 H 414.816 -0.296532 2.93606 0
M  V30 4361 H 414.897 1.30933 2.1975 0
M  V30 4362 H 414.541 2.36043 4.49718 0
M  V30 4363 H 414.471 0.731418 5.21496 0
M  V30 4364 H 416.962 0.92155 3.66491 0
M  V30 4365 H 417.275 2.48478 7.31764 0
M  V30 4366 H 415.62 2.22805 6.58318 0
M  V30 4367 H 418.811 1.22304 4.5184 0
M  V30 4368 H 418.984 1.93567 6.18414 0
M  V30 4369 N 412.39 -1.55475 0.257931 0
M  V30 4370 C 413.667 -1.91155 -0.414629 0
M  V30 4371 C 414.047 -1.18008 -1.75035 0
M  V30 4372 O 413.395 -0.301193 -2.26506 0
M  V30 4373 C 413.605 -3.44283 -0.571859 0
M  V30 4374 C 414.953 -4.15744 -0.862678 0
M  V30 4375 O 415.977 -3.50083 -0.657314 0
M  V30 4376 O 414.836 -5.31909 -1.2544 0
M  V30 4377 H 411.93 -0.796016 -0.22425 0
M  V30 4378 H 414.476 -1.66976 0.302814 0
M  V30 4379 H 413.248 -3.89558 0.368844 0
M  V30 4380 H 412.871 -3.7436 -1.33943 0
M  V30 4381 N 413.868 0.0150385 -1.57593 0
M  V30 4382 C 415.108 0.70768 -1.91758 0
M  V30 4383 C 415.472 1.71764 -0.857974 0
M  V30 4384 O 416.673 2.45956 -1.0844 0
M  V30 4385 C 414.944 1.34736 -3.3103 0
M  V30 4386 S 416.503 2.06721 -3.87056 0
M  V30 4387 H 413.321 0.234119 -0.671349 0
M  V30 4388 H 415.923 -0.0380373 -1.95463 0
M  V30 4389 H 414.627 0.59926 -4.06001 0
M  V30 4390 H 414.158 2.13133 -3.30663 0
M  V30 4391 H 416.173 3.34047 -3.66915 0
M  V30 4392 N 415.346 1.54954 0.287554 0
M  V30 4393 C 416.595 1.74081 1.01877 0
M  V30 4394 C 416.908 0.541135 1.87966 0
M  V30 4395 O 418.114 0.614491 2.64455 0
M  V30 4396 C 416.57 3.08042 1.86113 0
M  V30 4397 C 416.178 4.35531 1.04961 0
M  V30 4398 C 417.922 3.36523 2.58752 0
M  V30 4399 C 415.829 5.60538 1.88551 0
M  V30 4400 H 414.759 0.64884 0.384087 0
M  V30 4401 H 417.41 1.81426 0.275101 0
M  V30 4402 H 415.792 2.94696 2.64519 0
M  V30 4403 H 416.966 4.59751 0.31074 0
M  V30 4404 H 415.281 4.14085 0.43843 0
M  V30 4405 H 417.878 4.27122 3.21668 0
M  V30 4406 H 418.221 2.56 3.28283 0
M  V30 4407 H 418.754 3.50901 1.87386 0
M  V30 4408 H 415.493 6.43767 1.23466 0
M  V30 4409 H 415.013 5.40483 2.60074 0
M  V30 4410 H 416.692 5.98297 2.46273 0
M  V30 4411 N 416.824 -0.551391 1.4764 0
M  V30 4412 C 418.235 -1.13349 1.48354 0
M  V30 4413 C 418.586 -1.94709 0.241432 0
M  V30 4414 O 417.711 -2.06306 -0.653205 0
M  V30 4415 C 418.306 -2.0623 2.68802 0
M  V30 4416 C 416.865 -2.597 2.72457 0
M  V30 4417 C 416.012 -1.36201 2.41546 0
M  V30 4418 H 418.963 -0.337698 1.55065 0
M  V30 4419 H 418.984 -2.90196 2.46103 0
M  V30 4420 H 418.496 -1.46987 3.59188 0
M  V30 4421 H 416.597 -3.22724 1.86225 0
M  V30 4422 H 416.71 -3.00296 3.73308 0
M  V30 4423 H 415.074 -1.67068 1.9225 0
M  V30 4424 H 415.857 -0.787425 3.34147 0
M  V30 4425 N 418.302 -1.35869 -0.798587 0
M  V30 4426 C 419.549 -1.29588 -1.55606 0
M  V30 4427 C 419.877 0.127456 -1.94082 0
M  V30 4428 O 419.132 1.09461 -1.62225 0
M  V30 4429 C 419.431 -2.1556 -2.85077 0
M  V30 4430 C 419.097 -3.6424 -2.65781 0
M  V30 4431 C 417.759 -4.04766 -2.60227 0
M  V30 4432 C 420.111 -4.58547 -2.47758 0
M  V30 4433 C 417.439 -5.37753 -2.34603 0
M  V30 4434 C 419.791 -5.91742 -2.23662 0
M  V30 4435 C 418.455 -6.31402 -2.16534 0
M  V30 4436 H 417.725 -0.474197 -0.569402 0
M  V30 4437 H 420.372 -1.67839 -0.922086 0
M  V30 4438 H 418.677 -1.70216 -3.52893 0
M  V30 4439 H 420.374 -2.08031 -3.42818 0
M  V30 4440 H 416.964 -3.32086 -2.70956 0
M  V30 4441 H 421.148 -4.28117 -2.51056 0
M  V30 4442 H 416.404 -5.67474 -2.2756 0
M  V30 4443 H 420.578 -6.6439 -2.08708 0
M  V30 4444 H 418.205 -7.34381 -1.96441 0
M  V30 4445 N 419.78 1.02168 -1.19998 0
M  V30 4446 C 421.027 1.75685 -1.00702 0
M  V30 4447 C 421.355 1.88947 0.461426 0
M  V30 4448 O 420.61 1.40832 1.35885 0
M  V30 4449 C 420.909 3.18081 -1.62969 0
M  V30 4450 C 420.575 3.24809 -3.12746 0
M  V30 4451 C 419.237 3.26352 -3.53621 0
M  V30 4452 C 421.589 3.23379 -4.08749 0
M  V30 4453 C 418.917 3.2413 -4.89036 0
M  V30 4454 C 421.269 3.22698 -5.44104 0
M  V30 4455 C 419.933 3.22542 -5.84399 0
M  V30 4456 H 419.203 0.642877 -0.368496 0
M  V30 4457 H 421.85 1.19865 -1.49348 0
M  V30 4458 H 420.155 3.77027 -1.06573 0
M  V30 4459 H 421.852 3.73648 -1.45561 0
M  V30 4460 H 418.442 3.2434 -2.80181 0
M  V30 4461 H 422.626 3.21361 -3.78207 0
M  V30 4462 H 417.882 3.22338 -5.19527 0
M  V30 4463 H 422.056 3.20543 -6.18244 0
M  V30 4464 H 419.683 3.20575 -6.89301 0
M  V30 4465 N 421.258 1.00505 1.21394 0
M  V30 4466 C 422.674 0.717873 1.42544 0
M  V30 4467 C 422.874 -0.706936 1.88692 0
M  V30 4468 O 421.93 -1.47627 2.04847 0
M  V30 4469 C 423.243 1.73377 2.45684 0
M  V30 4470 C 424.791 1.75059 2.59467 0
M  V30 4471 C 425.266 2.75545 3.6584 0
M  V30 4472 N 426.757 2.74213 3.73311 0
M  V30 4473 C 427.492 3.48626 4.55245 0
M  V30 4474 N 426.988 4.32678 5.41075 0
M  V30 4475 N 428.781 3.37276 4.49668 0
M  V30 4476 H 420.932 1.92506 0.897503 0
M  V30 4477 H 423.195 0.830919 0.456375 0
M  V30 4478 H 422.901 2.75395 2.18748 0
M  V30 4479 H 422.775 1.53647 3.44489 0
M  V30 4480 H 425.162 0.737337 2.8574 0
M  V30 4481 H 425.243 1.98861 1.60897 0
M  V30 4482 H 424.887 3.77028 3.40313 0
M  V30 4483 H 424.817 2.49009 4.64007 0
M  V30 4484 H 427.308 2.13234 3.11993 0
M  V30 4485 H 427.621 4.86253 6.00648 0
M  V30 4486 H 425.966 4.3676 5.40616 0
M  V30 4487 H 429.157 2.71043 3.81646 0
M  V30 4488 H 429.33 3.95524 5.13288 0
M  V30 4489 N 422.737 -1.36956 0.779787 0
M  V30 4490 C 423.962 -2.04283 0.358224 0
M  V30 4491 C 424.387 -1.58422 -1.01411 0
M  V30 4492 O 423.745 -0.748179 -1.65142 0
M  V30 4493 C 423.793 -3.58152 0.419479 0
M  V30 4494 O 422.897 -4.08342 -0.577142 0
M  V30 4495 H 422.238 -0.645967 0.153698 0
M  V30 4496 H 424.768 -1.75108 1.05822 0
M  V30 4497 H 424.778 -4.07041 0.279636 0
M  V30 4498 H 423.453 -3.90886 1.42061 0
M  V30 4499 H 422.03 -3.70751 -0.399755 0
M  V30 4500 N 424.215 -0.530993 -1.48385 0
M  V30 4501 C 425.178 0.220497 -2.28137 0
M  V30 4502 C 426.178 0.866851 -1.35434 0
M  V30 4503 O 427.368 0.726746 -1.58316 0
M  V30 4504 C 424.5 1.31921 -3.1434 0
M  V30 4505 H 425.693 -0.479714 -2.96038 0
M  V30 4506 H 423.246 -0.286968 -1.53643 0
M  V30 4507 H 423.981 2.05264 -2.51072 0
M  V30 4508 H 423.766 0.86085 -3.82533 0
M  V30 4509 H 425.256 1.84776 -3.74497 0
M  V30 4510 N 425.693 1.55336 -0.266172 0
M  V30 4511 C 427.104 1.85236 0.233315 0
M  V30 4512 C 427.455 1.18816 1.56132 0
M  V30 4513 O 426.58 0.473307 2.11161 0
M  V30 4514 C 427.175 3.36059 0.430113 0
M  V30 4515 C 425.734 3.66116 0.873842 0
M  V30 4516 C 424.881 2.77274 -0.0380016 0
M  V30 4517 H 427.832 1.51004 -0.488214 0
M  V30 4518 H 427.853 3.58681 1.26998 0
M  V30 4519 H 427.365 3.84373 -0.536588 0
M  V30 4520 H 425.466 3.23295 1.85233 0
M  V30 4521 H 425.579 4.73699 0.717358 0
M  V30 4522 H 423.943 2.50198 0.476759 0
M  V30 4523 H 424.726 3.284 -1.00042 0
M  V30 4524 N 427.171 -0.0066808 1.57599 0
M  V30 4525 C 428.396 -0.707738 1.94951 0
M  V30 4526 C 428.821 -1.66882 0.867868 0
M  V30 4527 O 428.179 -1.80457 -0.17458 0
M  V30 4528 C 428.227 -1.42162 3.31394 0
M  V30 4529 O 427.331 -2.53578 3.25226 0
M  V30 4530 H 426.672 -0.188752 0.636607 0
M  V30 4531 H 429.202 0.0445193 2.04552 0
M  V30 4532 H 429.212 -1.78655 3.66806 0
M  V30 4533 H 427.887 -0.716903 4.09675 0
M  V30 4534 H 426.464 -2.19463 3.01481 0
M  V30 4535 N 428.649 -1.55105 -0.279332 0
M  V30 4536 C 429.889 -1.7716 -1.01949 0
M  V30 4537 C 430.253 -0.557511 -1.83728 0
M  V30 4538 O 431.454 -0.656198 -2.60667 0
M  V30 4539 C 429.725 -3.0372 -1.88385 0
M  V30 4540 S 431.284 -3.46868 -2.68752 0
M  V30 4541 H 428.102 -0.62253 -0.343478 0
M  V30 4542 H 430.704 -1.93329 -0.290572 0
M  V30 4543 H 429.408 -3.90184 -1.2722 0
M  V30 4544 H 428.939 -2.902 -2.65608 0
M  V30 4545 H 430.954 -3.05643 -3.90892 0
M  V30 4546 N 430.127 0.543554 -1.4793 0
M  V30 4547 C 431.538 1.12561 -1.48953 0
M  V30 4548 C 431.889 1.94578 -0.251754 0
M  V30 4549 O 431.014 2.0665 0.642255 0
M  V30 4550 C 431.609 2.04801 -2.69892 0
M  V30 4551 C 430.168 2.58251 -2.73831 0
M  V30 4552 C 429.315 1.34918 -2.42265 0
M  V30 4553 H 432.266 0.32947 -1.55242 0
M  V30 4554 H 432.287 2.88886 -2.47639 0
M  V30 4555 H 431.799 1.4508 -3.59963 0
M  V30 4556 H 429.9 3.21732 -1.87934 0
M  V30 4557 H 430.013 2.98312 -3.74895 0
M  V30 4558 H 428.377 1.66046 -1.93134 0
M  V30 4559 H 429.16 0.769693 -3.3456 0
M  V30 4560 N 431.605 1.3629 0.791371 0
M  V30 4561 C 432.537 1.26321 1.91248 0
M  V30 4562 C 433.55 0.18313 1.61767 0
M  V30 4563 O 434.739 0.437682 1.73051 0
M  V30 4564 C 431.839 0.925901 3.26007 0
M  V30 4565 C 431.012 2.10746 3.83281 0
M  V30 4566 C 430.071 1.74352 4.96475 0
M  V30 4567 O 429.097 2.46416 5.13096 0
M  V30 4568 N 430.299 0.676058 5.7655 0
M  V30 4569 H 433.064 2.22915 2.00323 0
M  V30 4570 H 430.625 1.29659 0.969546 0
M  V30 4571 H 432.617 0.663636 3.99222 0
M  V30 4572 H 431.187 0.0491581 3.12561 0
M  V30 4573 H 430.407 2.53264 3.02077 0
M  V30 4574 H 431.695 2.8969 4.18279 0
M  V30 4575 H 431.093 0.0776467 5.65647 0
M  V30 4576 H 429.65 0.473612 6.50077 0
M  V30 4577 N 433.083 -1.0153 1.20538 0
M  V30 4578 C 434.031 -2.12215 0.952235 0
M  V30 4579 C 435.025 -1.69123 -0.0968735 0
M  V30 4580 O 436.231 -1.7992 0.0536006 0
M  V30 4581 H 432.606 -0.693576 0.290613 0
M  V30 4582 H 434.577 -2.3075 1.89201 0
M  V30 4583 C 433.326 -3.43755 0.522287 0
M  V30 4584 H 432.649 -3.7734 1.32115 0
M  V30 4585 H 434.089 -4.22254 0.384389 0
M  V30 4586 C 432.548 -3.28088 -0.765489 0
M  V30 4587 O 433.078 -3.57921 -1.8236 0
M  V30 4588 N 431.284 -2.81333 -0.728011 0
M  V30 4589 H 430.831 -2.57255 0.133332 0
M  V30 4590 H 430.789 -2.71232 -1.58999 0
M  V30 4591 N 434.561 -1.01147 -1.20859 0
M  V30 4592 C 435.508 -0.577354 -2.23462 0
M  V30 4593 C 436.478 0.399922 -1.61214 0
M  V30 4594 O 437.663 0.300515 -1.88419 0
M  V30 4595 C 434.803 0.083372 -3.44999 0
M  V30 4596 C 433.916 -0.937856 -4.21697 0
M  V30 4597 C 433.051 -0.248717 -5.30617 0
M  V30 4598 C 432.09 -1.25705 -5.99053 0
M  V30 4599 N 431.227 -0.594939 -6.99575 0
M  V30 4600 H 436.067 -1.45695 -2.59956 0
M  V30 4601 H 433.604 -0.729428 -1.27741 0
M  V30 4602 H 435.562 0.483535 -4.14388 0
M  V30 4603 H 434.192 0.926645 -3.09214 0
M  V30 4604 H 433.244 -1.45622 -3.51423 0
M  V30 4605 H 434.556 -1.70493 -4.68757 0
M  V30 4606 H 433.71 0.207215 -6.06346 0
M  V30 4607 H 432.449 0.55071 -4.84581 0
M  V30 4608 H 431.454 -1.72343 -5.2209 0
M  V30 4609 H 432.679 -2.05767 -6.47176 0
M  V30 4610 H 430.625 0.184713 -6.5574 0
M  V30 4611 H 430.542 -1.30017 -7.44736 0
M  V30 4612 H 431.81 -0.162427 -7.79331 0
M  V30 4613 N 436.039 1.36541 -0.78704 0
M  V30 4614 C 436.987 2.31965 -0.171724 0
M  V30 4615 C 437.981 1.55689 0.667631 0
M  V30 4616 O 439.187 1.70969 0.562981 0
M  V30 4617 H 435.562 0.751101 -0.0367545 0
M  V30 4618 H 437.533 2.81428 -0.992017 0
M  V30 4619 C 436.282 3.40968 0.680904 0
M  V30 4620 H 435.605 3.99775 0.0443961 0
M  V30 4621 H 437.045 4.10063 1.07815 0
M  V30 4622 C 435.504 2.82338 1.83813 0
M  V30 4623 O 436.034 2.74311 2.93456 0
M  V30 4624 N 434.24 2.39661 1.6435 0
M  V30 4625 H 433.787 2.46389 0.751668 0
M  V30 4626 H 433.745 2.00779 2.4194 0
M  V30 4627 N 437.518 0.538854 1.48102 0
M  V30 4628 C 438.934 0.19732 1.58376 0
M  V30 4629 C 439.134 -1.29971 1.5398 0
M  V30 4630 O 438.19 -2.07861 1.43352 0
M  V30 4631 C 439.503 0.807716 2.89649 0
M  V30 4632 C 441.051 0.77726 3.03196 0
M  V30 4633 C 441.526 1.36639 4.37143 0
M  V30 4634 N 443.017 1.32875 4.43732 0
M  V30 4635 C 443.752 1.7544 5.45901 0
M  V30 4636 N 443.248 2.25776 6.54979 0
M  V30 4637 N 445.041 1.66623 5.36836 0
M  V30 4638 H 437.192 1.5117 1.49202 0
M  V30 4639 H 439.455 0.629327 0.708979 0
M  V30 4640 H 439.161 1.85909 2.98548 0
M  V30 4641 H 439.035 0.289975 3.76084 0
M  V30 4642 H 441.422 -0.265374 2.93904 0
M  V30 4643 H 441.503 1.33256 2.18349 0
M  V30 4644 H 441.147 2.408 4.47189 0
M  V30 4645 H 441.077 0.786689 5.20691 0
M  V30 4646 H 443.568 0.96037 3.65493 0
M  V30 4647 H 443.881 2.56226 7.29087 0
M  V30 4648 H 442.226 2.29775 6.55918 0
M  V30 4649 H 445.417 1.27089 4.50517 0
M  V30 4650 H 445.59 2.00115 6.16326 0
M  V30 4651 N 438.996 -1.55193 0.274407 0
M  V30 4652 C 440.242 -1.99877 -0.343086 0
M  V30 4653 C 440.575 -1.16256 -1.55558 0
M  V30 4654 O 439.85 -0.232462 -1.93106 0
M  V30 4655 C 440.133 -3.52706 -0.725965 0
M  V30 4656 C 439.986 -4.47081 0.493818 0
M  V30 4657 C 441.305 -4.11422 -1.56268 0
M  V30 4658 H 438.424 -0.726625 -0.123229 0
M  V30 4659 H 441.066 -1.86136 0.38121 0
M  V30 4660 H 439.216 -3.64546 -1.34307 0
M  V30 4661 H 440.888 -4.47186 1.13237 0
M  V30 4662 H 439.131 -4.1877 1.13201 0
M  V30 4663 H 439.802 -5.51699 0.18217 0
M  V30 4664 H 442.278 -4.02855 -1.04151 0
M  V30 4665 H 441.154 -5.18568 -1.79939 0
M  V30 4666 H 441.415 -3.61607 -2.54348 0
M  V30 4667 N 440.474 -0.00167713 -1.576 0
M  V30 4668 C 441.89 0.354422 -1.55615 0
M  V30 4669 C 442.09 1.74679 -1.00447 0
M  V30 4670 O 441.146 2.4428 -0.639022 0
M  V30 4671 C 442.459 0.22812 -2.99833 0
M  V30 4672 C 444.007 0.302934 -3.11531 0
M  V30 4673 C 444.482 0.205737 -4.57538 0
M  V30 4674 N 445.973 0.263584 -4.62449 0
M  V30 4675 C 446.708 0.211742 -5.73009 0
M  V30 4676 N 446.204 0.110399 -6.92712 0
M  V30 4677 N 447.997 0.263729 -5.61481 0
M  V30 4678 H 440.148 -0.912498 -1.918 0
M  V30 4679 H 442.411 -0.349928 -0.881053 0
M  V30 4680 H 442.117 -0.729934 -3.44042 0
M  V30 4681 H 441.991 1.00951 -3.6344 0
M  V30 4682 H 444.378 1.25143 -2.67251 0
M  V30 4683 H 444.459 -0.508357 -2.50698 0
M  V30 4684 H 444.103 -0.739225 -5.02492 0
M  V30 4685 H 444.033 1.03554 -5.16318 0
M  V30 4686 H 446.524 0.343173 -3.76339 0
M  V30 4687 H 446.837 0.0767828 -7.72762 0
M  V30 4688 H 445.182 0.0760025 -6.94958 0
M  V30 4689 H 448.373 0.34111 -4.66855 0
M  V30 4690 H 448.546 0.219862 -6.47627 0
M  V30 4691 N 441.952 1.55251 0.271103 0
M  V30 4692 C 442.9 1.89054 1.35504 0
M  V30 4693 C 443.894 0.767064 1.51038 0
M  V30 4694 O 445.1 0.951429 1.528 0
M  V30 4695 H 441.475 0.600072 0.45323 0
M  V30 4696 H 443.446 2.79598 1.04247 0
M  V30 4697 C 442.195 2.18068 2.70817 0
M  V30 4698 H 441.518 3.04005 2.59656 0
M  V30 4699 H 442.958 2.4564 3.45597 0
M  V30 4700 C 441.417 0.988901 3.2206 0
M  V30 4701 O 441.947 0.224501 4.01072 0
M  V30 4702 N 440.153 0.786085 2.79766 0
M  V30 4703 H 439.7 1.40937 2.15626 0
M  V30 4704 H 439.658 -0.00969349 3.14399 0
M  V30 4705 N 443.43 -0.535701 1.48216 0
M  V30 4706 C 444.362 -1.65662 1.58394 0
M  V30 4707 C 445.375 -1.5591 0.468607 0
M  V30 4708 O 446.564 -1.62475 0.7392 0
M  V30 4709 C 443.664 -3.04276 1.4923 0
M  V30 4710 C 442.837 -3.39567 2.75705 0
M  V30 4711 C 441.896 -4.57436 2.60075 0
M  V30 4712 O 440.922 -4.60942 3.33948 0
M  V30 4713 N 442.124 -5.55259 1.69315 0
M  V30 4714 H 444.889 -1.5737 2.55058 0
M  V30 4715 H 442.45 -0.722845 1.44867 0
M  V30 4716 H 444.442 -3.80994 1.36477 0
M  V30 4717 H 443.012 -3.06677 0.605632 0
M  V30 4718 H 442.232 -2.52083 3.03064 0
M  V30 4719 H 443.52 -3.59929 3.59623 0
M  V30 4720 H 442.918 -5.552 1.08489 0
M  V30 4721 H 441.475 -6.31218 1.62504 0
M  V30 4722 N 444.908 -1.36708 -0.784132 0
M  V30 4723 C 446.157 -1.30559 -1.53744 0
M  V30 4724 C 446.47 0.111374 -1.95283 0
M  V30 4725 O 447.676 0.29527 -2.6989 0
M  V30 4726 C 446.132 -2.29098 -2.77565 0
M  V30 4727 C 445.74 -3.76258 -2.43174 0
M  V30 4728 C 447.484 -2.31936 -3.55536 0
M  V30 4729 C 445.391 -4.6656 -3.63422 0
M  V30 4730 H 444.321 -0.48518 -0.577162 0
M  V30 4731 H 446.972 -1.62101 -0.859981 0
M  V30 4732 H 445.354 -1.90557 -3.47137 0
M  V30 4733 H 446.528 -4.23565 -1.81465 0
M  V30 4734 H 444.843 -3.76246 -1.78403 0
M  V30 4735 H 447.44 -2.9661 -4.44889 0
M  V30 4736 H 447.783 -1.3294 -3.94503 0
M  V30 4737 H 448.316 -2.6912 -2.92949 0
M  V30 4738 H 445.055 -5.66638 -3.29547 0
M  V30 4739 H 444.575 -4.23966 -4.24279 0
M  V30 4740 H 446.254 -4.8309 -4.30387 0
M  V30 4741 N 446.386 1.0089 -1.21074 0
M  V30 4742 C 447.334 2.11707 -0.963476 0
M  V30 4743 C 448.328 1.69172 0.0879032 0
M  V30 4744 O 449.534 1.79889 -0.0631415 0
M  V30 4745 H 445.909 0.692026 -0.294287 0
M  V30 4746 H 447.88 2.29743 -1.90422 0
M  V30 4747 C 446.629 3.43473 -0.540509 0
M  V30 4748 H 445.952 3.76634 -1.34114 0
M  V30 4749 H 447.392 4.22044 -0.406777 0
M  V30 4750 C 445.851 3.2849 0.748079 0
M  V30 4751 O 446.381 3.58883 1.8046 0
M  V30 4752 N 444.587 2.81715 0.713081 0
M  V30 4753 H 444.134 2.5718 -0.146973 0
M  V30 4754 H 444.092 2.72071 1.57558 0
M  V30 4755 N 447.864 1.01787 1.20321 0
M  V30 4756 C 448.827 0.593972 2.2137 0
M  V30 4757 C 449.827 -0.336553 1.57239 0
M  V30 4758 O 451.017 -0.125069 1.7375 0
M  V30 4759 C 448.149 -0.132433 3.40643 0
M  V30 4760 H 449.342 1.48791 2.60387 0
M  V30 4761 H 446.895 0.807803 1.33807 0
M  V30 4762 H 447.63 -1.04123 3.0713 0
M  V30 4763 H 447.415 0.53605 3.88418 0
M  V30 4764 H 448.905 -0.416314 4.1552 0
M  V30 4765 N 449.342 -1.36122 0.79427 0
M  V30 4766 C 450.272 -2.32551 0.210328 0
M  V30 4767 C 451.253 -1.56884 -0.657386 0
M  V30 4768 O 452.438 -1.85014 -0.590207 0
M  V30 4769 C 449.568 -3.41128 -0.651819 0
M  V30 4770 C 448.522 -4.27842 0.116395 0
M  V30 4771 C 447.848 -5.2763 -0.86666 0
M  V30 4772 C 449.148 -5.05647 1.30837 0
M  V30 4773 H 450.842 -2.81636 1.01594 0
M  V30 4774 H 448.388 -1.35407 0.489981 0
M  V30 4775 H 450.341 -4.07581 -1.07031 0
M  V30 4776 H 449.065 -2.90622 -1.49019 0
M  V30 4777 H 447.724 -3.62952 0.515915 0
M  V30 4778 H 447.372 -4.73395 -1.70019 0
M  V30 4779 H 447.072 -5.86514 -0.35705 0
M  V30 4780 H 448.596 -5.96955 -1.28361 0
M  V30 4781 H 450.01 -5.65113 0.965393 0
M  V30 4782 H 448.407 -5.73967 1.75161 0
M  V30 4783 H 449.477 -4.37006 2.10128 0
M  V30 4784 N 450.82 -0.546701 -1.47814 0
M  V30 4785 C 452.048 -0.0232857 -2.06887 0
M  V30 4786 C 452.463 1.26571 -1.4009 0
M  V30 4787 O 451.82 1.7569 -0.493906 0
M  V30 4788 C 451.871 0.186975 -3.61016 0
M  V30 4789 O 451.592 -1.05097 -4.25307 0
M  V30 4790 C 453.093 0.748872 -4.36929 0
M  V30 4791 H 450.313 -0.0410763 -0.669742 0
M  V30 4792 H 452.857 -0.757117 -1.89968 0
M  V30 4793 H 451.012 0.870903 -3.77484 0
M  V30 4794 H 451.426 -0.842121 -5.17695 0
M  V30 4795 H 452.9 0.845334 -5.45489 0
M  V30 4796 H 453.377 1.75772 -4.02493 0
M  V30 4797 H 453.983 0.100979 -4.2518 0
M  V30 4798 N 452.299 1.55045 -0.282633 0
M  V30 4799 C 453.524 2.04628 0.337977 0
M  V30 4800 C 453.949 1.15937 1.48123 0
M  V30 4801 O 453.307 0.159532 1.80597 0
M  V30 4802 C 453.355 3.51854 0.78936 0
M  V30 4803 O 452.459 3.66236 1.89592 0
M  V30 4804 H 451.8 0.660434 0.0687261 0
M  V30 4805 H 454.33 2.00261 -0.419124 0
M  V30 4806 H 454.34 3.93361 1.08311 0
M  V30 4807 H 453.015 4.15873 -0.0470419 0
M  V30 4808 H 451.592 3.36633 1.60413 0
M  V30 4809 N 453.777 0.010035 1.57597 0
M  V30 4810 C 455.024 -0.6727 1.91 0
M  V30 4811 C 455.352 -1.73219 0.884614 0
M  V30 4812 O 454.607 -1.95395 -0.109215 0
M  V30 4813 C 454.906 -1.34434 3.31153 0
M  V30 4814 C 454.572 -0.417083 4.48967 0
M  V30 4815 C 453.234 -0.161809 4.80928 0
M  V30 4816 C 455.586 0.220753 5.20732 0
M  V30 4817 C 452.914 0.739426 5.82022 0
M  V30 4818 C 455.266 1.10993 6.22787 0
M  V30 4819 C 453.93 1.37428 6.532 0
M  V30 4820 H 453.2 -0.246158 0.698918 0
M  V30 4821 H 455.847 0.0677145 1.9138 0
M  V30 4822 H 454.152 -2.15905 3.26944 0
M  V30 4823 H 455.849 -1.87883 3.54261 0
M  V30 4824 H 452.439 -0.626217 4.24001 0
M  V30 4825 H 456.623 0.0365643 4.96287 0
M  V30 4826 H 451.879 0.952139 6.03941 0
M  V30 4827 H 456.053 1.61046 6.77523 0
M  V30 4828 H 453.68 2.0743 7.31353 0
M  V30 4829 N 455.255 -1.55392 -0.262866 0
M  V30 4830 C 456.501 -1.76737 -0.99458 0
M  V30 4831 C 456.834 -0.572453 -1.85571 0
M  V30 4832 O 456.109 0.429732 -1.89693 0
M  V30 4833 C 456.392 -3.07824 -1.8686 0
M  V30 4834 C 456.245 -4.3769 -1.03672 0
M  V30 4835 C 457.564 -3.35021 -2.85393 0
M  V30 4836 H 454.683 -0.643005 -0.360157 0
M  V30 4837 H 457.325 -1.88126 -0.266216 0
M  V30 4838 H 455.475 -2.98245 -2.48962 0
M  V30 4839 H 457.147 -4.59238 -0.43563 0
M  V30 4840 H 455.39 -4.32461 -0.340513 0
M  V30 4841 H 456.061 -5.25759 -1.6817 0
M  V30 4842 H 458.537 -3.44458 -2.33426 0
M  V30 4843 H 457.413 -4.27989 -3.43681 0
M  V30 4844 H 457.674 -2.55153 -3.61039 0
M  V30 4845 N 456.733 0.527833 -1.48498 0
M  V30 4846 C 458.01 1.28905 -1.47115 0
M  V30 4847 C 458.39 2.10297 -0.184007 0
M  V30 4848 O 457.738 2.12728 0.834218 0
M  V30 4849 C 457.948 2.16866 -2.73441 0
M  V30 4850 C 459.296 2.76936 -3.21857 0
M  V30 4851 O 460.32 2.27152 -2.74373 0
M  V30 4852 O 459.179 3.67496 -4.04486 0
M  V30 4853 H 456.273 0.581918 -0.587623 0
M  V30 4854 H 458.819 0.544311 -1.60734 0
M  V30 4855 H 457.591 1.56521 -3.58632 0
M  V30 4856 H 457.214 2.98583 -2.62553 0
M  V30 4857 N 458.211 1.37122 0.776871 0
M  V30 4858 C 459.174 1.32301 1.8716 0
M  V30 4859 C 460.174 0.228099 1.59174 0
M  V30 4860 O 461.364 0.483642 1.67352 0
M  V30 4861 C 458.496 1.054 3.24197 0
M  V30 4862 H 459.689 2.29673 1.92848 0
M  V30 4863 H 457.242 1.22077 0.97606 0
M  V30 4864 H 457.977 0.0853872 3.24188 0
M  V30 4865 H 457.762 1.84648 3.45901 0
M  V30 4866 H 459.252 1.04664 4.04271 0
M  V30 4867 N 459.689 -1.00246 1.21608 0
M  V30 4868 C 460.914 -1.78167 1.06167 0
M  V30 4869 C 461.339 -1.84138 -0.384035 0
M  V30 4870 O 460.697 -1.28683 -1.27712 0
M  V30 4871 C 460.745 -3.19786 1.66642 0
M  V30 4872 O 459.849 -4.02153 0.913613 0
M  V30 4873 H 459.19 -0.549 0.37349 0
M  V30 4874 H 461.72 -1.25994 1.61204 0
M  V30 4875 H 461.73 -3.70451 1.70969 0
M  V30 4876 H 460.405 -3.14754 2.7185 0
M  V30 4877 H 458.982 -3.60711 0.945635 0
M  V30 4878 N 461.167 -1.02423 -1.1978 0
M  V30 4879 C 462.1 -0.545641 -2.21581 0
M  V30 4880 C 463.078 0.411024 -1.57319 0
M  V30 4881 O 464.262 0.329223 -1.85603 0
M  V30 4882 C 461.389 0.204973 -3.38079 0
M  V30 4883 C 460.435 -0.70241 -4.20676 0
M  V30 4884 S 461.268 -2.17595 -4.89298 0
M  V30 4885 C 462.424 -1.43572 -6.09211 0
M  V30 4886 H 462.657 -1.4082 -2.61834 0
M  V30 4887 H 460.19 -0.833771 -1.29952 0
M  V30 4888 H 462.148 0.631924 -4.05607 0
M  V30 4889 H 460.809 1.0432 -2.9627 0
M  V30 4890 H 460.002 -0.123193 -5.03849 0
M  V30 4891 H 459.604 -1.06747 -3.58442 0
M  V30 4892 H 461.896 -0.719806 -6.73665 0
M  V30 4893 H 462.839 -2.24388 -6.71607 0
M  V30 4894 H 463.247 -0.935252 -5.56699 0
M  V30 4895 N 462.645 1.35699 -0.801477 0
M  V30 4896 C 463.891 1.99208 -0.380022 0
M  V30 4897 C 464.224 1.63445 1.04878 0
M  V30 4898 O 463.499 0.895223 1.72673 0
M  V30 4899 C 463.782 3.55755 -0.557708 0
M  V30 4900 C 463.635 4.01332 -2.03107 0
M  V30 4901 C 464.954 4.40096 0.0197968 0
M  V30 4902 H 462.073 0.723667 -0.139552 0
M  V30 4903 H 464.715 1.60928 -1.01006 0
M  V30 4904 H 462.865 3.88494 -0.0213741 0
M  V30 4905 H 464.537 3.79026 -2.62939 0
M  V30 4906 H 462.78 3.52429 -2.52936 0
M  V30 4907 H 463.451 5.10234 -2.1063 0
M  V30 4908 H 465.927 4.13786 -0.438179 0
M  V30 4909 H 464.803 5.48735 -0.134477 0
M  V30 4910 H 465.064 4.2786 1.11303 0
M  V30 4911 N 464.123 0.554532 1.47522 0
M  V30 4912 C 465.353 0.0342074 2.06572 0
M  V30 4913 C 465.761 -1.26375 1.40805 0
M  V30 4914 O 465.104 -1.7683 0.49769 0
M  V30 4915 C 465.166 -0.235096 3.5873 0
M  V30 4916 C 464.83 0.973024 4.46521 0
M  V30 4917 C 465.827 1.8779 4.848 0
M  V30 4918 C 463.512 1.18694 4.88075 0
M  V30 4919 C 465.506 2.98039 5.63428 0
M  V30 4920 C 463.193 2.29254 5.66468 0
M  V30 4921 C 464.191 3.18757 6.04055 0
M  V30 4922 O 463.879 4.27401 6.8087 0
M  V30 4923 H 463.611 0.041587 0.67472 0
M  V30 4924 H 466.165 0.766748 1.90552 0
M  V30 4925 H 464.395 -1.02191 3.72953 0
M  V30 4926 H 466.084 -0.700477 3.9981 0
M  V30 4927 H 466.85 1.72467 4.53299 0
M  V30 4928 H 462.729 0.49947 4.58286 0
M  V30 4929 H 466.273 3.67926 5.92685 0
M  V30 4930 H 462.17 2.4455 5.97382 0
M  V30 4931 H 462.938 4.25415 6.9926 0
M  V30 4932 N 465.601 -1.54893 0.290851 0
M  V30 4933 C 466.849 -1.99538 -0.320756 0
M  V30 4934 C 467.17 -1.18075 -1.55188 0
M  V30 4935 O 466.44 -0.274162 -1.93972 0
M  V30 4936 H 465.02 -0.737052 -0.121507 0
M  V30 4937 H 467.682 -1.90755 0.399832 0
M  V30 4938 H 466.778 -3.06282 -0.599802 0
M  V30 4939 N 467.08 -0.0183926 -1.57589 0
M  V30 4940 C 468.305 0.676634 -1.96052 0
M  V30 4941 C 468.73 1.6548 -0.894307 0
M  V30 4942 O 468.088 1.80712 0.145849 0
M  V30 4943 C 468.136 1.36872 -3.33614 0
M  V30 4944 O 467.24 2.48372 -3.29219 0
M  V30 4945 H 466.581 0.1786 -0.63953 0
M  V30 4946 H 469.111 -0.077056 -2.04455 0
M  V30 4947 H 469.121 1.72797 -3.69601 0
M  V30 4948 H 467.796 0.651636 -4.10763 0
M  V30 4949 H 466.373 2.14639 -3.04934 0
M  V30 4950 N 468.558 1.5553 0.254621 0
M  V30 4951 C 469.468 1.92789 1.33677 0
M  V30 4952 C 470.484 0.827356 1.53071 0
M  V30 4953 O 471.66 1.12807 1.66843 0
M  V30 4954 C 468.725 2.20827 2.67275 0
M  V30 4955 C 467.786 3.4427 2.5647 0
M  V30 4956 C 467.019 3.70961 3.83697 0
M  V30 4957 O 467.242 2.99852 4.85227 0
M  V30 4958 O 466.176 4.64491 3.82794 0
M  V30 4959 H 470.002 2.84945 1.05071 0
M  V30 4960 H 467.587 1.42312 0.454723 0
M  V30 4961 H 469.469 2.40204 3.46237 0
M  V30 4962 H 468.144 1.31851 2.9563 0
M  V30 4963 H 467.051 3.30209 1.75821 0
M  V30 4964 H 468.384 4.33524 2.33062 0
M  V30 4965 N 470.036 -0.519951 1.48776 0
M  V30 4966 C 471.282 -1.27711 1.57536 0
M  V30 4967 C 471.615 -1.92547 0.252866 0
M  V30 4968 O 470.89 -1.7979 -0.742021 0
M  V30 4969 C 471.173 -2.35875 2.72094 0
M  V30 4970 C 471.026 -1.75664 4.1408 0
M  V30 4971 C 472.345 -3.37575 2.82367 0
M  V30 4972 H 469.464 -0.462971 0.573434 0
M  V30 4973 H 472.106 -0.578194 1.80989 0
M  V30 4974 H 470.256 -2.95488 2.52228 0
M  V30 4975 H 471.928 -1.20025 4.45412 0
M  V30 4976 H 470.171 -1.06154 4.20611 0
M  V30 4977 H 470.842 -2.54029 4.90075 0
M  V30 4978 H 473.318 -2.87929 3.00393 0
M  V30 4979 H 472.194 -4.1064 3.64233 0
M  V30 4980 H 472.455 -3.98743 1.90936 0
M  V30 4981 N 471.514 -1.37532 -0.769588 0
M  V30 4982 C 472.739 -1.36231 -1.56384 0
M  V30 4983 C 473.164 0.0495849 -1.88035 0
M  V30 4984 O 472.522 1.02723 -1.49391 0
M  V30 4985 C 472.57 -2.20986 -2.84952 0
M  V30 4986 O 471.674 -1.61597 -3.79421 0
M  V30 4987 H 471.015 -0.465387 -0.473615 0
M  V30 4988 H 473.545 -1.81085 -0.952342 0
M  V30 4989 H 473.555 -2.34277 -3.34034 0
M  V30 4990 H 472.23 -3.23612 -2.61243 0
M  V30 4991 H 470.807 -1.57359 -3.38072 0
M  V30 4992 N 472.992 0.995999 -1.22138 0
M  V30 4993 C 473.922 2.10387 -1.01289 0
M  V30 4994 C 474.903 1.69975 0.0651454 0
M  V30 4995 O 476.088 1.9396 -0.0964628 0
M  V30 4996 C 473.218 3.42312 -0.586517 0
M  V30 4997 C 472.172 3.96558 -1.61014 0
M  V30 4998 C 471.498 5.24494 -1.0397 0
M  V30 4999 C 472.798 4.27595 -2.99933 0
M  V30 5000 H 474.492 2.28086 -1.93951 0
M  V30 5001 H 472.038 1.09607 -0.933928 0
M  V30 5002 H 473.991 4.19223 -0.427793 0
M  V30 5003 H 472.715 3.24431 0.375761 0
M  V30 5004 H 471.374 3.21776 -1.75658 0
M  V30 5005 H 471.022 5.02953 -0.0688703 0
M  V30 5006 H 470.722 5.61755 -1.72352 0
M  V30 5007 H 472.246 6.04042 -0.892494 0
M  V30 5008 H 473.66 4.95315 -2.8868 0
M  V30 5009 H 472.057 4.76021 -3.6541 0
M  V30 5010 H 473.127 3.35498 -3.50099 0
M  V30 5011 N 474.47 1.03057 1.19235 0
M  V30 5012 C 475.695 0.74757 1.93458 0
M  V30 5013 C 476.12 -0.687648 1.7508 0
M  V30 5014 O 475.478 -1.47499 1.05422 0
M  V30 5015 C 475.526 1.10604 3.43219 0
M  V30 5016 O 474.63 0.225671 4.11782 0
M  V30 5017 H 473.971 0.276047 0.603899 0
M  V30 5018 H 476.501 1.3777 1.51263 0
M  V30 5019 H 476.511 1.06366 3.93891 0
M  V30 5020 H 475.186 2.15165 3.55917 0
M  V30 5021 H 473.763 0.326795 3.71465 0
M  V30 5022 N 475.948 -1.35272 0.808662 0
M  V30 5023 C 476.878 -2.32315 0.234981 0
M  V30 5024 C 477.859 -1.57572 -0.64071 0
M  V30 5025 O 479.044 -1.8563 -0.570551 0
M  V30 5026 C 476.174 -3.41801 -0.615601 0
M  V30 5027 C 475.128 -4.27694 0.161767 0
M  V30 5028 C 474.454 -5.28519 -0.810649 0
M  V30 5029 C 475.754 -5.04231 1.36193 0
M  V30 5030 H 477.448 -2.80543 1.04575 0
M  V30 5031 H 474.994 -1.3488 0.504315 0
M  V30 5032 H 476.947 -4.08693 -1.02702 0
M  V30 5033 H 475.671 -2.92186 -1.45928 0
M  V30 5034 H 474.33 -3.62384 0.554382 0
M  V30 5035 H 473.978 -4.75171 -1.64988 0
M  V30 5036 H 473.678 -5.8686 -0.294822 0
M  V30 5037 H 475.202 -5.98283 -1.22023 0
M  V30 5038 H 476.616 -5.64058 1.02528 0
M  V30 5039 H 475.013 -5.72077 1.81239 0
M  V30 5040 H 476.083 -4.34753 2.14751 0
M  V30 5041 N 477.426 -0.562348 -1.47226 0
M  V30 5042 C 478.842 -0.222492 -1.58042 0
M  V30 5043 C 479.042 1.27505 -1.56028 0
M  V30 5044 O 478.098 2.05555 -1.46641 0
M  V30 5045 C 479.411 -0.853694 -2.88327 0
M  V30 5046 C 480.959 -0.825397 -3.01921 0
M  V30 5047 C 481.434 -1.43576 -4.34914 0
M  V30 5048 N 482.925 -1.39918 -4.41562 0
M  V30 5049 C 483.66 -1.84103 -5.43041 0
M  V30 5050 N 483.156 -2.36167 -6.51304 0
M  V30 5051 N 484.949 -1.75142 -5.34118 0
M  V30 5052 H 477.1 -1.53525 -1.46778 0
M  V30 5053 H 479.363 -0.640527 -0.698877 0
M  V30 5054 H 479.069 -1.90635 -2.95552 0
M  V30 5055 H 478.943 -0.34977 -3.75575 0
M  V30 5056 H 481.33 0.218583 -2.94289 0
M  V30 5057 H 481.411 -1.36713 -2.16202 0
M  V30 5058 H 481.055 -2.47884 -4.43301 0
M  V30 5059 H 480.985 -0.869427 -5.19373 0
M  V30 5060 H 483.476 -1.0184 -3.63919 0
M  V30 5061 H 483.789 -2.67793 -7.24919 0
M  V30 5062 H 482.134 -2.40181 -6.52179 0
M  V30 5063 H 485.325 -1.34241 -4.48439 0
M  V30 5064 H 485.498 -2.09895 -6.13065 0
M  V30 5065 N 478.904 1.54736 -0.299062 0
M  V30 5066 C 479.834 2.26409 0.571085 0
M  V30 5067 C 480.815 1.2629 1.13951 0
M  V30 5068 O 482 1.55059 1.16921 0
M  V30 5069 C 479.13 3.00338 1.74396 0
M  V30 5070 C 478.084 4.07588 1.30599 0
M  V30 5071 C 477.41 4.69222 2.56387 0
M  V30 5072 C 478.71 5.20455 0.438645 0
M  V30 5073 H 480.404 2.99388 -0.0266991 0
M  V30 5074 H 477.95 1.43993 -0.0142812 0
M  V30 5075 H 479.903 3.49198 2.35878 0
M  V30 5076 H 478.627 2.24934 2.36796 0
M  V30 5077 H 477.286 3.59575 0.71424 0
M  V30 5078 H 476.934 3.9046 3.17097 0
M  V30 5079 H 476.634 5.41653 2.27784 0
M  V30 5080 H 478.158 5.20844 3.18675 0
M  V30 5081 H 479.572 5.65221 0.959085 0
M  V30 5082 H 477.969 5.99594 0.246466 0
M  V30 5083 H 479.039 4.8192 -0.536738 0
M  V30 5084 N 480.382 0.0267497 1.57577 0
M  V30 5085 C 481.798 -0.32962 1.56159 0
M  V30 5086 C 481.998 -1.73059 1.03213 0
M  V30 5087 O 481.054 -2.43233 0.677804 0
M  V30 5088 C 482.367 -0.18039 3.00158 0
M  V30 5089 C 483.915 -0.253334 3.11973 0
M  V30 5090 C 484.39 -0.132921 4.57807 0
M  V30 5091 N 485.881 -0.189979 4.6281 0
M  V30 5092 C 486.616 -0.120554 5.73273 0
M  V30 5093 N 486.112 -0.000180315 6.928 0
M  V30 5094 N 487.905 -0.174369 5.61829 0
M  V30 5095 H 480.056 0.942896 1.90324 0
M  V30 5096 H 482.319 0.3639 0.875375 0
M  V30 5097 H 482.025 0.784576 3.42837 0
M  V30 5098 H 481.899 -0.951565 3.65 0
M  V30 5099 H 484.286 -1.20876 2.69208 0
M  V30 5100 H 484.367 0.548177 2.49857 0
M  V30 5101 H 484.011 0.819073 5.01252 0
M  V30 5102 H 483.941 -0.953264 5.179 0
M  V30 5103 H 486.432 -0.283257 3.76837 0
M  V30 5104 H 486.745 0.0461666 7.72786 0
M  V30 5105 H 485.09 0.034569 6.94991 0
M  V30 5106 H 488.281 -0.266794 4.67339 0
M  V30 5107 H 488.454 -0.116802 6.47895 0
M  V30 5108 N 481.861 -1.55662 -0.24637 0
M  V30 5109 C 482.809 -1.91186 -1.3248 0
M  V30 5110 C 483.803 -0.790996 -1.49799 0
M  V30 5111 O 485.009 -0.975617 -1.51267 0
M  V30 5112 H 481.384 -0.607207 -0.443626 0
M  V30 5113 H 483.355 -2.81221 -0.997853 0
M  V30 5114 C 482.104 -2.22349 -2.67313 0
M  V30 5115 H 481.427 -3.08097 -2.54786 0
M  V30 5116 H 482.867 -2.51107 -3.41645 0
M  V30 5117 C 481.326 -1.04001 -3.20446 0
M  V30 5118 O 481.856 -0.28828 -4.00664 0
M  V30 5119 N 480.062 -0.830494 -2.7848 0
M  V30 5120 H 479.609 -1.4435 -2.13356 0
M  V30 5121 H 479.567 -0.0403258 -3.14374 0
M  V30 5122 N 483.339 0.512053 -1.4905 0
M  V30 5123 C 484.755 0.84224 -1.35567 0
M  V30 5124 C 484.955 1.97878 -0.380319 0
M  V30 5125 O 484.011 2.51769 0.19201 0
M  V30 5126 C 485.324 1.19286 -2.76028 0
M  V30 5127 C 486.872 1.30171 -2.84648 0
M  V30 5128 C 487.347 1.68568 -4.25851 0
M  V30 5129 N 488.838 1.75638 -4.28609 0
M  V30 5130 C 489.573 2.06769 -5.34821 0
M  V30 5131 N 489.069 2.36201 -6.51292 0
M  V30 5132 N 490.862 2.07927 -5.22229 0
M  V30 5133 H 483.013 -0.237574 -2.11067 0
M  V30 5134 H 485.276 -0.0436747 -0.946993 0
M  V30 5135 H 484.982 0.431199 -3.49047 0
M  V30 5136 H 484.856 2.13889 -3.10695 0
M  V30 5137 H 487.243 2.05411 -2.11873 0
M  V30 5138 H 487.324 0.336457 -2.53578 0
M  V30 5139 H 486.968 0.938824 -4.99148 0
M  V30 5140 H 486.898 2.66174 -4.54377 0
M  V30 5141 H 489.389 1.55097 -3.44606 0
M  V30 5142 H 489.702 2.59112 -7.28066 0
M  V30 5143 H 488.047 2.33681 -6.54536 0
M  V30 5144 H 491.238 1.84403 -4.30248 0
M  V30 5145 H 491.411 2.31856 -6.05101 0
M  V30 5146 N 484.817 1.37938 0.762283 0
M  V30 5147 C 486.045 1.36883 1.55147 0
M  V30 5148 C 486.46 -0.0435348 1.8875 0
M  V30 5149 O 485.817 -1.00786 1.52146 0
M  V30 5150 C 485.868 2.21624 2.85596 0
M  V30 5151 O 485.589 3.57358 2.5343 0
M  V30 5152 C 487.09 2.28653 3.7978 0
M  V30 5153 H 484.31 0.468521 0.480343 0
M  V30 5154 H 486.854 1.81404 0.944079 0
M  V30 5155 H 485.009 1.80588 3.42734 0
M  V30 5156 H 485.423 4.01883 3.37032 0
M  V30 5157 H 486.897 2.9225 4.68288 0
M  V30 5158 H 487.374 1.29767 4.19592 0
M  V30 5159 H 487.98 2.70043 3.28568 0
M  V30 5160 N 486.295 -0.989507 1.22664 0
M  V30 5161 C 487.243 -2.10148 0.997035 0
M  V30 5162 C 488.237 -1.6929 -0.0609783 0
M  V30 5163 O 489.443 -1.79766 0.0917523 0
M  V30 5164 H 485.818 -0.687256 0.305259 0
M  V30 5165 H 487.789 -2.26685 1.94053 0
M  V30 5166 C 486.538 -3.4257 0.595085 0
M  V30 5167 H 485.861 -3.74453 1.40089 0
M  V30 5168 H 487.301 -4.21344 0.473869 0
M  V30 5169 C 485.76 -3.29638 -0.695725 0
M  V30 5170 O 486.29 -3.61709 -1.74727 0
M  V30 5171 N 484.496 -2.82814 -0.668173 0
M  V30 5172 H 484.043 -2.56914 0.18787 0
M  V30 5173 H 484.001 -2.74544 -1.5321 0
M  V30 5174 N 487.773 -1.03688 -1.18687 0
M  V30 5175 C 489.003 -0.756819 -1.92239 0
M  V30 5176 C 489.411 0.689374 -1.76194 0
M  V30 5177 O 488.754 1.48126 -1.08648 0
M  V30 5178 C 488.816 -1.03851 -3.44173 0
M  V30 5179 C 488.48 -2.47785 -3.83994 0
M  V30 5180 C 489.477 -3.4595 -3.88091 0
M  V30 5181 C 487.162 -2.82397 -4.154 0
M  V30 5182 C 489.156 -4.76779 -4.23038 0
M  V30 5183 C 486.843 -4.13433 -4.50018 0
M  V30 5184 C 487.841 -5.10434 -4.53813 0
M  V30 5185 O 487.529 -6.39122 -4.87625 0
M  V30 5186 H 487.261 -0.275678 -0.617234 0
M  V30 5187 H 489.815 -1.38658 -1.51536 0
M  V30 5188 H 488.045 -0.351612 -3.85098 0
M  V30 5189 H 489.734 -0.746846 -3.9897 0
M  V30 5190 H 490.5 -3.20549 -3.63969 0
M  V30 5191 H 486.379 -2.07568 -4.11627 0
M  V30 5192 H 489.923 -5.52488 -4.25914 0
M  V30 5193 H 485.82 -4.38604 -4.736 0
M  V30 5194 H 486.588 -6.43715 -5.05542 0
M  V30 5195 N 489.251 1.34841 -0.815825 0
M  V30 5196 C 490.181 2.32187 -0.247298 0
M  V30 5197 C 491.162 1.5791 0.632344 0
M  V30 5198 O 492.347 1.8593 0.560698 0
M  V30 5199 C 489.477 3.42122 0.597466 0
M  V30 5200 C 488.431 4.27602 -0.184446 0
M  V30 5201 C 487.757 5.28942 0.782609 0
M  V30 5202 C 489.057 5.03502 -1.38865 0
M  V30 5203 H 490.751 2.79985 -1.06061 0
M  V30 5204 H 488.297 1.34611 -0.511461 0
M  V30 5205 H 490.25 4.09232 1.00533 0
M  V30 5206 H 488.974 2.92956 1.44376 0
M  V30 5207 H 487.633 3.62085 -0.573592 0
M  V30 5208 H 487.281 4.7604 1.62466 0
M  V30 5209 H 486.981 5.87008 0.263695 0
M  V30 5210 H 488.505 5.98922 1.18848 0
M  V30 5211 H 489.919 5.63506 -1.05518 0
M  V30 5212 H 488.316 5.71108 -1.8427 0
M  V30 5213 H 489.386 4.33608 -2.17054 0
M  V30 5214 N 490.729 0.570148 1.46925 0
M  V30 5215 C 491.977 0.0508523 2.02036 0
M  V30 5216 C 492.298 -1.30885 1.44548 0
M  V30 5217 O 491.568 -1.85647 0.625453 0
M  V30 5218 H 490.148 0.0158088 0.746833 0
M  V30 5219 H 492.81 0.743086 1.80178 0
M  V30 5220 H 491.906 -0.027575 3.12088 0
M  V30 5221 N 492.207 -1.54576 0.307264 0
M  V30 5222 C 493.137 -2.26708 -0.55907 0
M  V30 5223 C 494.118 -1.26893 -1.1328 0
M  V30 5224 O 495.303 -1.55677 -1.16097 0
M  V30 5225 C 492.433 -3.01259 -1.72801 0
M  V30 5226 C 491.387 -4.08275 -1.28435 0
M  V30 5227 C 490.713 -4.70575 -2.53895 0
M  V30 5228 C 492.013 -5.2068 -0.411038 0
M  V30 5229 H 493.707 -2.9937 0.042576 0
M  V30 5230 H 491.253 -1.43983 0.0219173 0
M  V30 5231 H 493.206 -3.50444 -2.34023 0
M  V30 5232 H 491.93 -2.26187 -2.356 0
M  V30 5233 H 490.589 -3.59949 -0.695161 0
M  V30 5234 H 490.237 -3.92136 -3.15021 0
M  V30 5235 H 489.937 -5.42854 -2.24908 0
M  V30 5236 H 491.461 -5.22527 -3.15908 0
M  V30 5237 H 492.875 -5.65721 -0.929097 0
M  V30 5238 H 491.272 -5.99716 -0.214664 0
M  V30 5239 H 492.342 -4.81629 0.562287 0
M  V30 5240 N 493.685 -0.035106 -1.57561 0
M  V30 5241 C 494.615 0.942993 -2.13612 0
M  V30 5242 C 495.596 1.33531 -1.05373 0
M  V30 5243 O 496.781 1.41287 -1.33235 0
M  V30 5244 C 493.911 2.22332 -2.66807 0
M  V30 5245 C 492.865 1.97156 -3.79886 0
M  V30 5246 C 492.191 3.31506 -4.19533 0
M  V30 5247 C 493.491 1.30596 -5.05709 0
M  V30 5248 H 495.185 0.476179 -2.95589 0
M  V30 5249 H 492.731 0.227602 -1.4219 0
M  V30 5250 H 494.684 2.91142 -3.04654 0
M  V30 5251 H 493.408 2.7119 -1.81999 0
M  V30 5252 H 492.067 1.30763 -3.42486 0
M  V30 5253 H 491.715 3.78134 -3.31698 0
M  V30 5254 H 491.415 3.15465 -4.95738 0
M  V30 5255 H 492.939 4.01574 -4.59968 0
M  V30 5256 H 494.353 1.89416 -5.41105 0
M  V30 5257 H 492.75 1.24934 -5.86951 0
M  V30 5258 H 493.82 0.279742 -4.84092 0
M  V30 5259 N 495.163 1.55791 0.238111 0
M  V30 5260 C 496.126 1.90239 1.27835 0
M  V30 5261 C 497.126 0.779552 1.4064 0
M  V30 5262 O 498.316 1.04747 1.3919 0
M  V30 5263 C 495.448 2.13859 2.65475 0
M  V30 5264 H 496.641 2.83262 0.985034 0
M  V30 5265 H 494.194 1.48818 0.477799 0
M  V30 5266 H 494.929 1.23334 2.99932 0
M  V30 5267 H 494.714 2.95643 2.57561 0
M  V30 5268 H 496.204 2.41664 3.40571 0
M  V30 5269 N 496.642 -0.504142 1.49319 0
M  V30 5270 C 497.891 -1.25507 1.57895 0
M  V30 5271 C 498.204 -1.93735 0.269433 0
M  V30 5272 O 499.41 -2.70492 0.233706 0
M  V30 5273 C 497.866 -2.27869 2.78574 0
M  V30 5274 C 497.474 -1.65594 4.16272 0
M  V30 5275 C 499.218 -3.0381 2.96479 0
M  V30 5276 C 497.125 -2.66048 5.28178 0
M  V30 5277 H 496.055 -0.47212 0.587894 0
M  V30 5278 H 498.706 -0.52931 1.757 0
M  V30 5279 H 497.088 -3.03594 2.54257 0
M  V30 5280 H 498.262 -0.958826 4.50714 0
M  V30 5281 H 496.577 -1.02055 4.037 0
M  V30 5282 H 499.174 -3.78925 3.77253 0
M  V30 5283 H 499.517 -3.61235 2.06918 0
M  V30 5284 H 500.05 -2.352 3.20821 0
M  V30 5285 H 496.789 -2.13408 6.19788 0
M  V30 5286 H 496.309 -3.34009 4.98195 0
M  V30 5287 H 497.988 -3.28536 5.57381 0
M  V30 5288 N 498.12 -1.38341 -0.754957 0
M  V30 5289 C 499.068 -1.35573 -1.89005 0
M  V30 5290 C 500.062 -0.241824 -1.67665 0
M  V30 5291 O 501.268 -0.410785 -1.7525 0
M  V30 5292 H 497.643 -0.422898 -0.621821 0
M  V30 5293 H 499.614 -2.31359 -1.88455 0
M  V30 5294 C 498.363 -1.19631 -3.26471 0
M  V30 5295 H 497.686 -2.04605 -3.43477 0
M  V30 5296 H 499.126 -1.21748 -4.06144 0
M  V30 5297 C 497.585 0.0968705 -3.36761 0
M  V30 5298 O 498.115 1.07439 -3.87066 0
M  V30 5299 N 496.321 0.153242 -2.90196 0
M  V30 5300 H 495.868 -0.642908 -2.49448 0
M  V30 5301 H 495.826 1.01807 -2.9746 0
M  V30 5302 N 499.598 0.982988 -1.23187 0
M  V30 5303 C 500.53 2.07729 -0.968572 0
M  V30 5304 C 501.543 1.62702 0.0564821 0
M  V30 5305 O 502.732 1.77603 -0.178733 0
M  V30 5306 C 499.832 3.36071 -0.436974 0
M  V30 5307 C 499.005 4.10081 -1.52159 0
M  V30 5308 C 498.064 5.16701 -0.99532 0
M  V30 5309 O 497.09 5.43727 -1.68373 0
M  V30 5310 N 498.292 5.80226 0.178192 0
M  V30 5311 H 501.057 2.30894 -1.9107 0
M  V30 5312 H 498.618 1.14949 -1.1401 0
M  V30 5313 H 500.61 4.04639 -0.0700051 0
M  V30 5314 H 499.18 3.09893 0.410509 0
M  V30 5315 H 498.4 3.36004 -2.06144 0
M  V30 5316 H 499.688 4.56295 -2.25105 0
M  V30 5317 H 499.086 5.60651 0.754096 0
M  V30 5318 H 497.643 6.49982 0.486449 0
M  V30 5319 N 501.076 1.04316 1.18135 0
M  V30 5320 C 502.492 0.762858 1.40188 0
M  V30 5321 C 502.692 -0.646547 1.90846 0
M  V30 5322 O 501.748 -1.41036 2.0944 0
M  V30 5323 C 503.061 1.81106 2.40044 0
M  V30 5324 C 504.609 1.83226 2.53766 0
M  V30 5325 C 505.084 2.87044 3.56889 0
M  V30 5326 N 506.575 2.85951 3.64398 0
M  V30 5327 C 507.31 3.62932 4.43923 0
M  V30 5328 N 506.806 4.49672 5.27036 0
M  V30 5329 N 508.599 3.51411 4.38711 0
M  V30 5330 H 500.75 1.95264 0.835805 0
M  V30 5331 H 503.013 0.845017 0.429709 0
M  V30 5332 H 502.719 2.82214 2.09876 0
M  V30 5333 H 502.593 1.64529 3.39426 0
M  V30 5334 H 504.98 0.827869 2.8325 0
M  V30 5335 H 505.061 2.03879 1.54489 0
M  V30 5336 H 504.705 3.87663 3.28145 0
M  V30 5337 H 504.635 2.63645 4.5585 0
M  V30 5338 H 507.126 2.23051 3.05052 0
M  V30 5339 H 507.439 5.05116 5.84874 0
M  V30 5340 H 505.784 4.53738 5.26447 0
M  V30 5341 H 508.975 2.83047 3.72829 0
M  V30 5342 H 509.148 4.11654 5.00445 0
M  V30 5343 N 502.554 -1.34406 0.822964 0
M  V30 5344 C 503.801 -1.98284 0.411057 0
M  V30 5345 C 504.129 -1.65245 -1.02588 0
M  V30 5346 O 503.384 -0.91619 -1.72929 0
M  V30 5347 C 503.683 -3.52981 0.560268 0
M  V30 5348 C 503.349 -4.05931 1.96293 0
M  V30 5349 C 502.011 -4.20103 2.34664 0
M  V30 5350 C 504.363 -4.34412 2.87985 0
M  V30 5351 C 501.691 -4.60082 3.64062 0
M  V30 5352 C 504.043 -4.75838 4.16847 0
M  V30 5353 C 502.707 -4.88215 4.55195 0
M  V30 5354 H 501.977 -0.725573 0.150416 0
M  V30 5355 H 504.624 -1.60349 1.04692 0
M  V30 5356 H 502.929 -3.91477 -0.158982 0
M  V30 5357 H 504.626 -4.00385 0.222087 0
M  V30 5358 H 501.216 -3.95363 1.65487 0
M  V30 5359 H 505.4 -4.23001 2.59584 0
M  V30 5360 H 500.656 -4.67856 3.93599 0
M  V30 5361 H 504.83 -4.96834 4.87984 0
M  V30 5362 H 502.457 -5.18952 5.55512 0
M  V30 5363 N 504.032 -0.577932 -1.46621 0
M  V30 5364 C 504.964 0.195801 -2.28362 0
M  V30 5365 C 505.977 0.859983 -1.38232 0
M  V30 5366 O 507.166 0.730349 -1.62875 0
M  V30 5367 C 504.266 1.29639 -3.13124 0
M  V30 5368 C 503.439 0.725049 -4.31349 0
M  V30 5369 C 502.498 1.71274 -4.97546 0
M  V30 5370 O 501.524 1.25067 -5.5529 0
M  V30 5371 N 502.726 3.04672 -4.94121 0
M  V30 5372 H 505.491 -0.505468 -2.95407 0
M  V30 5373 H 503.052 -0.415381 -1.56481 0
M  V30 5374 H 505.044 1.95631 -3.54275 0
M  V30 5375 H 503.614 1.90059 -2.48186 0
M  V30 5376 H 502.834 -0.112205 -3.9404 0
M  V30 5377 H 504.122 0.323034 -5.07774 0
M  V30 5378 H 503.52 3.4484 -4.48444 0
M  V30 5379 H 502.077 3.66166 -5.39227 0
M  V30 5380 N 505.51 1.54411 -0.315457 0
M  V30 5381 C 506.787 1.92562 0.343398 0
M  V30 5382 C 507.167 1.24423 1.70535 0
M  V30 5383 O 506.515 0.385051 2.25232 0
M  V30 5384 C 506.725 3.46168 0.443687 0
M  V30 5385 C 508.073 4.18659 0.707783 0
M  V30 5386 O 509.097 3.52281 0.52693 0
M  V30 5387 O 507.956 5.36198 1.05612 0
M  V30 5388 H 505.05 0.80379 0.194552 0
M  V30 5389 H 507.596 1.65738 -0.364577 0
M  V30 5390 H 506.368 3.8792 -0.513172 0
M  V30 5391 H 505.991 3.79073 1.19956 0
M  V30 5392 N 506.988 0.0434614 1.5754 0
M  V30 5393 C 507.936 -0.951465 2.1225 0
M  V30 5394 C 508.93 -1.3274 1.05245 0
M  V30 5395 O 510.136 -1.30795 1.23663 0
M  V30 5396 H 506.511 -0.324667 0.678303 0
M  V30 5397 H 508.482 -0.464855 2.94757 0
M  V30 5398 C 507.231 -2.21972 2.67626 0
M  V30 5399 H 506.554 -1.93923 3.4962 0
M  V30 5400 H 507.994 -2.89765 3.09536 0
M  V30 5401 C 506.453 -2.95919 1.61038 0
M  V30 5402 O 506.983 -3.8857 1.01862 0
M  V30 5403 N 505.189 -2.58511 1.32741 0
M  V30 5404 H 504.736 -1.83244 1.81051 0
M  V30 5405 H 504.694 -3.08296 0.616531 0
M  V30 5406 N 508.466 -1.55915 -0.229846 0
M  V30 5407 C 509.714 -1.7819 -0.953565 0
M  V30 5408 C 510.035 -0.610504 -1.85197 0
M  V30 5409 O 509.305 0.372988 -1.92316 0
M  V30 5410 H 507.885 -0.657208 -0.355087 0
M  V30 5411 H 510.547 -1.9337 -0.243693 0
M  V30 5412 H 509.643 -2.70011 -1.56527 0
M  V30 5413 N 509.944 0.496216 -1.49584 0
M  V30 5414 C 511.36 0.827814 -1.36453 0
M  V30 5415 C 511.56 1.97464 -0.401285 0
M  V30 5416 O 510.616 2.51958 0.165296 0
M  V30 5417 C 511.929 1.16352 -2.77277 0
M  V30 5418 C 513.477 1.27145 -2.86013 0
M  V30 5419 C 513.952 1.64042 -4.27615 0
M  V30 5420 N 515.443 1.71082 -4.30448 0
M  V30 5421 C 516.178 2.01085 -5.36984 0
M  V30 5422 N 515.674 2.2928 -6.5376 0
M  V30 5423 N 517.467 2.02376 -5.24405 0
M  V30 5424 H 509.618 -0.259947 -2.10803 0
M  V30 5425 H 511.881 -0.0537163 -0.946477 0
M  V30 5426 H 511.587 0.394153 -3.49484 0
M  V30 5427 H 511.461 2.10582 -3.12946 0
M  V30 5428 H 513.848 2.03152 -2.1404 0
M  V30 5429 H 513.929 0.309542 -2.5392 0
M  V30 5430 H 513.573 0.88583 -5.00115 0
M  V30 5431 H 513.503 2.6134 -4.57175 0
M  V30 5432 H 515.994 1.51434 -3.46232 0
M  V30 5433 H 516.307 2.51376 -7.30774 0
M  V30 5434 H 514.652 2.26726 -6.56978 0
M  V30 5435 H 517.843 1.79829 -4.32179 0
M  V30 5436 H 518.016 2.25425 -6.07526 0
M  V30 5437 N 511.423 1.38739 0.74761 0
M  V30 5438 C 512.386 1.36241 1.84312 0
M  V30 5439 C 513.386 0.261811 1.58654 0
M  V30 5440 O 514.576 0.519031 1.66288 0
M  V30 5441 C 511.708 1.12253 3.21888 0
M  V30 5442 H 512.901 2.33712 1.87933 0
M  V30 5443 H 510.454 1.2412 0.949946 0
M  V30 5444 H 511.189 0.154133 3.23934 0
M  V30 5445 H 510.974 1.91943 3.41907 0
M  V30 5446 H 512.464 1.13215 4.0196 0
M  V30 5447 N 512.901 -0.976442 1.23707 0
M  V30 5448 C 513.831 -2.08749 1.04624 0
M  V30 5449 C 514.812 -1.70057 -0.0380956 0
M  V30 5450 O 515.997 -1.93782 0.127308 0
M  V30 5451 C 513.127 -3.41335 0.640902 0
M  V30 5452 C 512.081 -3.93947 1.67302 0
M  V30 5453 C 511.407 -5.22774 1.12301 0
M  V30 5454 C 512.707 -4.22769 3.06697 0
M  V30 5455 H 514.401 -2.24972 1.97555 0
M  V30 5456 H 511.947 -1.08108 0.951247 0
M  V30 5457 H 513.9 -4.18489 0.494434 0
M  V30 5458 H 512.624 -3.24988 -0.324099 0
M  V30 5459 H 511.283 -3.18941 1.80755 0
M  V30 5460 H 510.931 -5.0278 0.148877 0
M  V30 5461 H 510.631 -5.58942 1.81267 0
M  V30 5462 H 512.155 -6.02546 0.988479 0
M  V30 5463 H 513.569 -4.90659 2.96524 0
M  V30 5464 H 511.966 -4.70147 3.72937 0
M  V30 5465 H 513.036 -3.29885 3.55392 0
M  V30 5466 N 514.379 -1.04941 -1.1758 0
M  V30 5467 C 515.309 -0.669172 -2.23706 0
M  V30 5468 C 516.29 0.331835 -1.66832 0
M  V30 5469 O 517.475 0.209988 -1.93061 0
M  V30 5470 C 514.605 -0.0404889 -3.47276 0
M  V30 5471 C 513.559 -0.965983 -4.16957 0
M  V30 5472 C 512.885 -0.201312 -5.34321 0
M  V30 5473 C 514.185 -2.28902 -4.69469 0
M  V30 5474 H 515.879 -1.55639 -2.55767 0
M  V30 5475 H 513.425 -0.749793 -1.22939 0
M  V30 5476 H 515.378 0.237298 -4.20731 0
M  V30 5477 H 514.102 0.881658 -3.14475 0
M  V30 5478 H 512.761 -1.22829 -3.45411 0
M  V30 5479 H 512.409 0.723519 -4.97769 0
M  V30 5480 H 512.109 -0.817968 -5.81879 0
M  V30 5481 H 513.633 0.0692499 -6.10561 0
M  V30 5482 H 515.047 -2.07132 -5.34574 0
M  V30 5483 H 513.444 -2.85942 -5.27596 0
M  V30 5484 H 514.514 -2.92937 -3.86414 0
M  V30 5485 N 515.857 1.33968 -0.830081 0
M  V30 5486 C 517.268 1.80439 -0.479455 0
M  V30 5487 C 517.619 1.68756 1.00079 0
M  V30 5488 O 516.744 1.23171 1.77927 0
M  V30 5489 C 517.339 3.27611 -0.863505 0
M  V30 5490 C 515.898 3.72133 -0.565145 0
M  V30 5491 C 515.045 2.55549 -1.07657 0
M  V30 5492 H 517.996 1.21614 -1.0196 0
M  V30 5493 H 518.017 3.8012 -0.170083 0
M  V30 5494 H 517.529 3.36082 -1.94089 0
M  V30 5495 H 515.63 3.69196 0.502536 0
M  V30 5496 H 515.743 4.65963 -1.11422 0
M  V30 5497 H 514.107 2.49788 -0.497807 0
M  V30 5498 H 514.89 2.66786 -2.16055 0
M  V30 5499 N 517.335 0.585699 1.46312 0
M  V30 5500 C 518.582 0.0724211 2.0237 0
M  V30 5501 C 518.91 -1.28868 1.45683 0
M  V30 5502 O 518.165 -1.85853 0.612945 0
M  V30 5503 C 518.464 -0.0401312 3.57377 0
M  V30 5504 C 518.13 1.25376 4.33119 0
M  V30 5505 C 516.792 1.60824 4.5353 0
M  V30 5506 C 519.144 2.10987 4.76586 0
M  V30 5507 C 516.472 2.81676 5.14661 0
M  V30 5508 C 518.824 3.31068 5.39052 0
M  V30 5509 C 517.488 3.66794 5.5769 0
M  V30 5510 H 516.758 0.0265007 0.740526 0
M  V30 5511 H 519.405 0.762935 1.75646 0
M  V30 5512 H 517.71 -0.813791 3.83255 0
M  V30 5513 H 519.407 -0.453078 3.98432 0
M  V30 5514 H 515.997 0.967808 4.1753 0
M  V30 5515 H 520.181 1.84904 4.60569 0
M  V30 5516 H 515.437 3.0949 5.27282 0
M  V30 5517 H 519.611 3.97672 5.71691 0
M  V30 5518 H 517.238 4.60529 6.04828 0
M  V30 5519 N 518.813 -1.54241 0.323641 0
M  V30 5520 C 520.09 -1.92741 -0.333181 0
M  V30 5521 C 520.47 -1.25326 -1.69872 0
M  V30 5522 O 519.818 -0.396991 -2.25025 0
M  V30 5523 C 520.028 -3.46399 -0.425322 0
M  V30 5524 C 521.376 -4.19029 -0.68557 0
M  V30 5525 O 522.4 -3.52555 -0.50824 0
M  V30 5526 O 521.259 -5.36751 -1.02767 0
M  V30 5527 H 518.353 -0.804811 -0.190286 0
M  V30 5528 H 520.899 -1.65542 0.373361 0
M  V30 5529 H 519.671 -3.87643 0.533737 0
M  V30 5530 H 519.294 -3.79704 -1.17944 0
M  V30 5531 N 520.291 -0.0518155 -1.57515 0
M  V30 5532 C 521.239 0.940195 -2.12751 0
M  V30 5533 C 522.233 1.3218 -1.05948 0
M  V30 5534 O 523.439 1.30138 -1.24355 0
M  V30 5535 H 519.814 0.321066 -0.680015 0
M  V30 5536 H 521.785 0.449217 -2.94999 0
M  V30 5537 C 520.534 2.2055 -2.68799 0
M  V30 5538 H 519.857 1.92066 -3.50643 0
M  V30 5539 H 521.297 2.88119 -3.11068 0
M  V30 5540 C 519.756 2.95061 -1.62605 0
M  V30 5541 O 520.286 3.88025 -1.03921 0
M  V30 5542 N 518.492 2.57804 -1.34111 0
M  V30 5543 H 518.039 1.82281 -1.8202 0
M  V30 5544 H 517.997 3.07964 -0.632872 0
M  V30 5545 N 521.769 1.56035 0.221574 0
M  V30 5546 C 522.699 1.95434 1.2778 0
M  V30 5547 C 523.68 0.822564 1.48889 0
M  V30 5548 O 524.865 1.08486 1.61072 0
M  V30 5549 C 521.995 2.27102 2.62759 0
M  V30 5550 C 520.949 3.4277 2.56306 0
M  V30 5551 C 520.275 3.60043 3.95314 0
M  V30 5552 C 521.575 4.77742 2.11093 0
M  V30 5553 H 523.269 2.83912 0.950504 0
M  V30 5554 H 520.815 1.36596 0.455791 0
M  V30 5555 H 522.768 2.53256 3.36807 0
M  V30 5556 H 521.492 1.35478 2.97176 0
M  V30 5557 H 520.151 3.16664 1.84715 0
M  V30 5558 H 519.799 2.65794 4.27039 0
M  V30 5559 H 519.499 4.37841 3.91879 0
M  V30 5560 H 521.023 3.88545 4.71025 0
M  V30 5561 H 522.437 5.03102 2.74885 0
M  V30 5562 H 520.834 5.58823 2.18716 0
M  V30 5563 H 521.904 4.731 1.06321 0
M  V30 5564 N 523.247 -0.488276 1.49845 0
M  V30 5565 C 524.197 -1.58556 1.63842 0
M  V30 5566 C 525.181 -1.53142 0.493586 0
M  V30 5567 O 526.373 -1.60457 0.747169 0
M  V30 5568 C 523.502 -2.97101 1.72005 0
M  V30 5569 C 522.588 -3.07463 2.92108 0
M  V30 5570 N 522.979 -2.87681 4.16021 0
M  V30 5571 C 521.277 -3.3858 2.90309 0
M  V30 5572 C 521.978 -3.0256 4.96822 0
M  V30 5573 N 520.954 -3.32002 4.30437 0
M  V30 5574 H 524.756 -1.41935 2.57355 0
M  V30 5575 H 522.27 -0.694668 1.46793 0
M  V30 5576 H 524.267 -3.75976 1.80132 0
M  V30 5577 H 522.927 -3.14782 0.796375 0
M  V30 5578 H 523.938 -2.63603 4.45796 0
M  V30 5579 H 520.615 -3.62357 2.07372 0
M  V30 5580 H 522.005 -2.9165 6.05301 0
M  V30 5581 N 524.725 -1.39134 -0.740242 0
M  V30 5582 C 526.002 -1.26584 -1.49117 0
M  V30 5583 C 526.382 0.126902 -2.10718 0
M  V30 5584 O 525.73 1.13765 -1.98166 0
M  V30 5585 C 525.94 -2.38619 -2.54681 0
M  V30 5586 C 527.288 -2.77685 -3.21211 0
M  V30 5587 O 528.312 -2.38029 -2.64991 0
M  V30 5588 O 527.171 -3.46115 -4.22926 0
M  V30 5589 H 524.265 -0.495769 -0.661923 0
M  V30 5590 H 526.811 -1.50995 -0.774514 0
M  V30 5591 H 525.583 -3.3175 -2.07504 0
M  V30 5592 H 525.206 -2.15845 -3.33911 0
M  V30 5593 N 526.204 0.969867 -1.24223 0
M  V30 5594 C 527.481 1.68774 -0.988664 0
M  V30 5595 C 527.861 2.05342 0.489673 0
M  V30 5596 O 527.209 1.75486 1.46345 0
M  V30 5597 C 527.419 2.92135 -1.90941 0
M  V30 5598 C 528.767 3.64422 -2.17903 0
M  V30 5599 O 529.791 3.02188 -1.88576 0
M  V30 5600 O 528.65 4.76446 -2.67697 0
M  V30 5601 H 525.744 0.737736 -0.37373 0
M  V30 5602 H 528.29 1.02415 -1.35312 0
M  V30 5603 H 527.062 2.61788 -2.90831 0
M  V30 5604 H 526.685 3.66228 -1.54798 0
M  V30 5605 N 527.682 1.05563 1.17022 0
M  V30 5606 C 529.093 0.793475 1.69 0
M  V30 5607 C 529.444 -0.683882 1.83895 0
M  V30 5608 O 528.569 -1.53116 1.5292 0
M  V30 5609 C 529.164 1.43376 3.06967 0
M  V30 5610 C 527.723 1.21956 3.56095 0
M  V30 5611 C 526.87 1.51494 2.3226 0
M  V30 5612 H 529.821 1.22008 1.01487 0
M  V30 5613 H 529.842 0.845068 3.70997 0
M  V30 5614 H 529.354 2.50899 2.96093 0
M  V30 5615 H 527.455 0.163749 3.7224 0
M  V30 5616 H 527.568 1.92713 4.38633 0
M  V30 5617 H 525.932 0.935175 2.3691 0
M  V30 5618 H 526.715 2.60159 2.23992 0
M  V30 5619 N 529.16 -1.33526 0.837174 0
M  V30 5620 C 530.4 -1.99649 0.438115 0
M  V30 5621 C 530.764 -1.64879 -0.983816 0
M  V30 5622 O 531.965 -2.23956 -1.48651 0
M  V30 5623 C 530.236 -3.51431 0.650461 0
M  V30 5624 S 531.795 -4.37431 0.346371 0
M  V30 5625 H 528.613 -0.69162 0.164872 0
M  V30 5626 H 531.215 -1.62556 1.08609 0
M  V30 5627 H 529.919 -3.74225 1.68475 0
M  V30 5628 H 529.45 -3.93398 -0.0117309 0
M  V30 5629 H 531.465 -4.89132 -0.834504 0
M  V30 5630 N 530.638 -0.59345 -1.46 0
M  V30 5631 C 531.568 0.121192 -2.33185 0
M  V30 5632 C 532.549 0.872977 -1.4599 0
M  V30 5633 O 533.734 0.846321 -1.74789 0
M  V30 5634 C 530.864 1.12844 -3.28456 0
M  V30 5635 C 529.818 0.4908 -4.25177 0
M  V30 5636 C 529.144 1.60529 -5.10034 0
M  V30 5637 C 530.444 -0.578949 -5.19081 0
M  V30 5638 H 532.138 -0.606767 -2.93187 0
M  V30 5639 H 529.684 -0.293242 -1.40983 0
M  V30 5640 H 531.637 1.63684 -3.88311 0
M  V30 5641 H 530.361 1.88681 -2.66584 0
M  V30 5642 H 529.02 0.00339328 -3.666 0
M  V30 5643 H 528.668 2.35359 -4.44539 0
M  V30 5644 H 528.368 1.18422 -5.75543 0
M  V30 5645 H 529.892 2.11623 -5.72755 0
M  V30 5646 H 531.306 -0.155199 -5.7309 0
M  V30 5647 H 529.703 -0.920947 -5.92991 0
M  V30 5648 H 530.773 -1.46109 -4.62364 0
M  V30 5649 N 532.116 1.54067 -0.331816 0
M  V30 5650 C 533.046 2.27569 0.522932 0
M  V30 5651 C 534.027 1.28679 1.11247 0
M  V30 5652 O 535.212 1.57504 1.13605 0
M  V30 5653 C 532.342 3.0397 1.67987 0
M  V30 5654 C 531.296 4.10267 1.21924 0
M  V30 5655 C 530.622 4.74555 2.46377 0
M  V30 5656 C 531.922 5.21268 0.32815 0
M  V30 5657 H 533.616 2.99264 -0.0901977 0
M  V30 5658 H 531.162 1.4393 -0.044821 0
M  V30 5659 H 533.115 3.54123 2.28418 0
M  V30 5660 H 531.839 2.29906 2.31971 0
M  V30 5661 H 530.498 3.61009 0.637809 0
M  V30 5662 H 530.146 3.97098 3.08743 0
M  V30 5663 H 529.846 5.46363 2.16243 0
M  V30 5664 H 531.37 5.27487 3.07555 0
M  V30 5665 H 532.784 5.67128 0.838978 0
M  V30 5666 H 531.181 5.99982 0.119228 0
M  V30 5667 H 532.251 4.80673 -0.638839 0
M  V30 5668 N 533.594 0.0601682 1.57485 0
M  V30 5669 C 534.822 -0.620937 1.97363 0
M  V30 5670 C 535.237 -1.63846 0.938082 0
M  V30 5671 O 534.594 -1.82339 -0.0766578 0
M  V30 5672 C 534.645 -1.29987 3.37321 0
M  V30 5673 O 534.366 -0.323081 4.36907 0
M  V30 5674 C 535.867 -2.06989 3.92008 0
M  V30 5675 H 533.087 -0.169135 0.649334 0
M  V30 5676 H 535.631 0.129132 2.04092 0
M  V30 5677 H 533.786 -2.0011 3.31715 0
M  V30 5678 H 534.2 -0.808754 5.18227 0
M  V30 5679 H 535.674 -2.49901 4.92192 0
M  V30 5680 H 536.151 -2.92173 3.2792 0
M  V30 5681 H 536.757 -1.41757 4.0098 0
M  V30 5682 N 535.072 -1.5615 -0.213296 0
M  V30 5683 C 536.02 -1.93953 -1.28394 0
M  V30 5684 C 537.014 -0.822592 -1.48087 0
M  V30 5685 O 538.22 -1.00748 -1.49164 0
M  V30 5686 H 534.595 -0.61648 -0.430646 0
M  V30 5687 H 536.566 -2.83275 -0.937977 0
M  V30 5688 C 535.315 -2.27969 -2.62537 0
M  V30 5689 H 534.638 -3.13432 -2.48194 0
M  V30 5690 H 536.078 -2.58297 -3.36242 0
M  V30 5691 C 534.537 -1.10775 -3.18167 0
M  V30 5692 O 535.067 -0.373201 -3.99963 0
M  V30 5693 N 533.273 -0.889377 -2.76656 0
M  V30 5694 H 532.82 -1.48843 -2.10246 0
M  V30 5695 H 532.778 -0.107 -3.14218 0
M  V30 5696 N 536.55 0.480323 -1.50102 0
M  V30 5697 C 537.966 0.813295 -1.37323 0
M  V30 5698 C 538.166 1.97027 -0.422206 0
M  V30 5699 O 537.222 2.5212 0.138563 0
M  V30 5700 C 538.535 1.13404 -2.78496 0
M  V30 5701 C 540.083 1.24104 -2.87345 0
M  V30 5702 C 540.558 1.59497 -4.29331 0
M  V30 5703 N 542.049 1.66507 -4.32238 0
M  V30 5704 C 542.784 1.95378 -5.39087 0
M  V30 5705 N 542.28 2.22333 -6.56155 0
M  V30 5706 N 544.073 1.96803 -5.26522 0
M  V30 5707 H 536.224 -0.282291 -2.10516 0
M  V30 5708 H 538.487 -0.063752 -0.945854 0
M  V30 5709 H 538.193 0.357064 -3.49883 0
M  V30 5710 H 538.067 2.07251 -3.15162 0
M  V30 5711 H 540.454 2.00871 -2.16183 0
M  V30 5712 H 540.535 0.282593 -2.54234 0
M  V30 5713 H 540.179 0.832736 -5.01027 0
M  V30 5714 H 540.109 2.56477 -4.59921 0
M  V30 5715 H 542.6 1.47753 -3.47818 0
M  V30 5716 H 542.913 2.43611 -7.33399 0
M  V30 5717 H 541.258 2.19745 -6.59346 0
M  V30 5718 H 544.449 1.75235 -4.34062 0
M  V30 5719 H 544.622 2.18969 -6.09883 0
M  V30 5720 N 538.028 1.39524 0.732853 0
M  V30 5721 C 539.253 1.40329 1.52717 0
M  V30 5722 C 539.678 0.000286574 1.881 0
M  V30 5723 O 539.036 -0.987262 1.52062 0
M  V30 5724 C 539.084 2.28464 2.78992 0
M  V30 5725 O 538.188 1.716 3.75003 0
M  V30 5726 H 537.529 0.47778 0.461109 0
M  V30 5727 H 540.059 1.83546 0.903996 0
M  V30 5728 H 540.069 2.43051 3.27705 0
M  V30 5729 H 538.744 3.30425 2.52572 0
M  V30 5730 H 537.321 1.66267 3.33781 0
M  V30 5731 N 539.506 -0.963266 1.24736 0
M  V30 5732 C 540.469 -2.04013 1.04457 0
M  V30 5733 C 541.469 -1.608 0.000335555 0
M  V30 5734 O 542.659 -1.72515 0.241719 0
M  V30 5735 C 539.791 -3.35858 0.584162 0
M  V30 5736 H 540.984 -2.23436 2.00041 0
M  V30 5737 H 538.537 -1.13914 1.07021 0
M  V30 5738 H 539.272 -3.22128 -0.374673 0
M  V30 5739 H 539.057 -3.68568 1.3379 0
M  V30 5740 H 540.547 -4.1502 0.463451 0
M  V30 5741 N 540.985 -1.06182 -1.16461 0
M  V30 5742 C 542.401 -0.785065 -1.38956 0
M  V30 5743 C 542.601 0.616103 -1.9185 0
M  V30 5744 O 541.657 1.37686 -2.11657 0
M  V30 5745 C 542.97 -1.84902 -2.37132 0
M  V30 5746 C 544.518 -1.8724 -2.50819 0
M  V30 5747 C 544.993 -2.92686 -3.52277 0
M  V30 5748 N 546.484 -2.91712 -3.59803 0
M  V30 5749 C 547.219 -3.69949 -4.38093 0
M  V30 5750 N 546.715 -4.58 -5.19815 0
M  V30 5751 N 548.508 -3.58346 -4.33064 0
M  V30 5752 H 540.659 -1.96569 -0.804634 0
M  V30 5753 H 542.922 -0.851747 -0.416211 0
M  V30 5754 H 542.628 -2.85518 -2.0536 0
M  V30 5755 H 542.502 -1.69908 -3.36766 0
M  V30 5756 H 544.889 -0.872827 -2.81897 0
M  V30 5757 H 544.97 -2.06311 -1.51226 0
M  V30 5758 H 544.614 -3.92835 -3.21937 0
M  V30 5759 H 544.544 -2.70864 -4.51598 0
M  V30 5760 H 547.035 -2.27876 -3.01464 0
M  V30 5761 H 547.348 -5.14357 -5.76764 0
M  V30 5762 H 545.693 -4.62056 -5.19162 0
M  V30 5763 H 548.884 -2.88943 -3.68279 0
M  V30 5764 H 549.057 -4.19563 -4.93833 0
M  V30 5765 N 542.463 1.3308 -0.844243 0
M  V30 5766 C 543.712 1.96868 -0.438833 0
M  V30 5767 C 544.025 1.67599 1.00846 0
M  V30 5768 O 545.231 2.25043 1.51881 0
M  V30 5769 C 543.687 3.5234 -0.73377 0
M  V30 5770 C 543.295 3.90481 -2.1961 0
M  V30 5771 C 545.039 4.22653 -0.395574 0
M  V30 5772 C 542.946 5.38954 -2.43481 0
M  V30 5773 H 541.876 0.736749 -0.160364 0
M  V30 5774 H 544.527 1.51623 -1.03358 0
M  V30 5775 H 542.909 3.95941 -0.068589 0
M  V30 5776 H 544.083 3.57922 -2.90221 0
M  V30 5777 H 542.398 3.33165 -2.4978 0
M  V30 5778 H 544.995 5.31848 -0.551477 0
M  V30 5779 H 545.338 4.11004 0.661921 0
M  V30 5780 H 545.871 3.84601 -1.01621 0
M  V30 5781 H 542.61 5.55612 -3.47816 0
M  V30 5782 H 542.13 5.72954 -1.77437 0
M  V30 5783 H 543.809 6.05907 -2.26905 0
M  V30 5784 N 543.941 0.601185 1.45683 0
M  V30 5785 C 545.352 0.179659 1.85834 0
M  V30 5786 C 545.703 -1.26189 1.50236 0
M  V30 5787 O 544.828 -1.95587 0.925987 0
M  V30 5788 C 545.423 0.319277 3.37292 0
M  V30 5789 C 543.982 -0.0475092 3.7637 0
M  V30 5790 C 543.129 0.646692 2.69654 0
M  V30 5791 H 546.08 0.808268 1.36575 0
M  V30 5792 H 546.101 -0.4503 3.77826 0
M  V30 5793 H 545.613 1.36855 3.6317 0
M  V30 5794 H 543.714 -1.0962 3.5611 0
M  V30 5795 H 543.827 0.34168 4.7788 0
M  V30 5796 H 542.191 0.0849971 2.54558 0
M  V30 5797 H 542.974 1.69797 2.98369 0
M  V30 5798 N 545.419 -1.53889 0.339982 0
M  V30 5799 C 546.659 -2.02765 -0.258011 0
M  V30 5800 C 547.023 -1.22249 -1.48051 0
M  V30 5801 O 548.224 -1.61007 -2.15245 0
M  V30 5802 C 546.495 -3.5286 -0.567872 0
M  V30 5803 S 548.054 -4.23647 -1.14318 0
M  V30 5804 H 544.872 -0.706814 -0.0770389 0
M  V30 5805 H 547.474 -1.89594 0.476917 0
M  V30 5806 H 546.178 -4.09073 0.329745 0
M  V30 5807 H 545.709 -3.70144 -1.33256 0
M  V30 5808 H 547.724 -4.32676 -2.42911 0
M  V30 5809 N 546.897 -0.0685191 -1.57451 0
M  V30 5810 C 548.144 0.601348 -1.93365 0
M  V30 5811 C 548.472 1.69816 -0.948294 0
M  V30 5812 O 547.727 1.95666 0.0366199 0
M  V30 5813 C 548.026 1.22051 -3.35914 0
M  V30 5814 C 547.692 0.250165 -4.50205 0
M  V30 5815 C 546.354 -0.0167954 -4.81197 0
M  V30 5816 C 548.706 -0.413867 -5.19554 0
M  V30 5817 C 546.034 -0.95493 -5.78876 0
M  V30 5818 C 548.386 -1.3403 -6.18238 0
M  V30 5819 C 547.05 -1.61576 -6.47649 0
M  V30 5820 H 546.32 0.220049 -0.707573 0
M  V30 5821 H 548.967 -0.138697 -1.90997 0
M  V30 5822 H 547.272 2.03622 -3.34732 0
M  V30 5823 H 548.969 1.74605 -3.6099 0
M  V30 5824 H 545.559 0.468421 -4.26033 0
M  V30 5825 H 549.743 -0.220733 -4.95809 0
M  V30 5826 H 544.999 -1.17563 -5.99991 0
M  V30 5827 H 549.173 -1.86081 -6.71079 0
M  V30 5828 H 546.8 -2.34431 -7.2315 0
M  V30 5829 N 548.375 1.56261 0.205012 0
M  V30 5830 C 549.305 1.96779 1.257 0
M  V30 5831 C 550.286 0.838309 1.48008 0
M  V30 5832 O 551.471 1.10189 1.59913 0
M  V30 5833 C 548.601 2.29876 2.60335 0
M  V30 5834 C 547.555 3.45469 2.52656 0
M  V30 5835 C 546.881 3.64215 3.91473 0
M  V30 5836 C 548.181 4.79954 2.06014 0
M  V30 5837 H 549.875 2.84904 0.920338 0
M  V30 5838 H 547.421 1.37072 0.441277 0
M  V30 5839 H 549.374 2.56814 3.34102 0
M  V30 5840 H 548.098 1.38622 2.95722 0
M  V30 5841 H 546.757 3.18605 1.81345 0
M  V30 5842 H 546.405 2.70309 4.24196 0
M  V30 5843 H 546.105 4.41973 3.87213 0
M  V30 5844 H 547.629 3.93519 4.66878 0
M  V30 5845 H 549.043 5.05989 2.69533 0
M  V30 5846 H 547.44 5.61111 2.12777 0
M  V30 5847 H 548.51 4.74201 1.01297 0
M  V30 5848 N 549.853 -0.472356 1.50355 0
M  V30 5849 C 550.816 -1.5529 1.68576 0
M  V30 5850 C 551.816 -1.50863 0.556511 0
M  V30 5851 O 553.006 -1.53505 0.823516 0
M  V30 5852 C 550.138 -2.94921 1.70981 0
M  V30 5853 H 551.331 -1.40451 2.64978 0
M  V30 5854 H 548.884 -0.698645 1.39816 0
M  V30 5855 H 549.619 -3.15204 0.762675 0
M  V30 5856 H 549.404 -2.99541 2.53017 0
M  V30 5857 H 550.894 -3.73372 1.87037 0
M  V30 5858 N 551.331 -1.39911 -0.725443 0
M  V30 5859 C 552.579 -1.37382 -1.48224 0
M  V30 5860 C 552.9 0.0264107 -1.94982 0
M  V30 5861 O 552.17 0.979408 -1.6966 0
M  V30 5862 H 550.75 -0.505596 -0.549892 0
M  V30 5863 H 553.412 -1.7487 -0.860608 0
M  V30 5864 H 552.508 -2.04254 -2.3598 0
M  V30 5865 N 552.809 0.956637 -1.25245 0
M  V30 5866 C 554.086 1.67716 -1.00651 0
M  V30 5867 C 554.466 2.0585 0.467866 0
M  V30 5868 O 553.814 1.77029 1.44475 0
M  V30 5869 C 554.024 2.90093 -1.94028 0
M  V30 5870 C 555.372 3.6209 -2.21756 0
M  V30 5871 O 556.396 3.00171 -1.9177 0
M  V30 5872 O 555.255 4.7358 -2.72735 0
M  V30 5873 H 552.349 0.733731 -0.381533 0
M  V30 5874 H 554.895 1.00974 -1.3639 0
M  V30 5875 H 553.667 2.58689 -2.93591 0
M  V30 5876 H 553.29 3.64566 -1.58674 0
M  V30 5877 N 554.287 1.06798 1.15896 0
M  V30 5878 C 555.515 0.808694 1.90441 0
M  V30 5879 C 555.93 -0.637506 1.77711 0
M  V30 5880 O 555.287 -1.43684 1.12522 0
M  V30 5881 C 555.338 1.20068 3.40978 0
M  V30 5882 O 555.059 2.59013 3.53333 0
M  V30 5883 C 556.56 0.96987 4.3256 0
M  V30 5884 H 553.78 0.292809 0.603742 0
M  V30 5885 H 556.324 1.42296 1.46874 0
M  V30 5886 H 554.479 0.630842 3.82229 0
M  V30 5887 H 554.893 2.7485 4.46719 0
M  V30 5888 H 556.367 1.29371 5.36626 0
M  V30 5889 H 556.844 -0.0941209 4.39099 0
M  V30 5890 H 557.45 1.52433 3.97044 0
M  V30 5891 N 555.766 -1.3263 0.851289 0
M  V30 5892 C 557.182 -1.50162 0.5407 0
M  V30 5893 C 557.382 -1.78788 -0.929369 0
M  V30 5894 O 556.438 -1.85545 -1.71258 0
M  V30 5895 C 557.751 -2.64803 1.42478 0
M  V30 5896 C 559.299 -2.78688 1.42485 0
M  V30 5897 C 559.774 -3.96405 2.29407 0
M  V30 5898 N 561.265 -4.0366 2.27184 0
M  V30 5899 C 562 -4.93971 2.9117 0
M  V30 5900 N 561.496 -5.89313 3.64256 0
M  V30 5901 N 563.289 -4.87066 2.80576 0
M  V30 5902 H 555.44 -1.12315 1.80275 0
M  V30 5903 H 557.703 -0.553266 0.769806 0
M  V30 5904 H 557.409 -2.50368 2.46999 0
M  V30 5905 H 557.283 -3.60506 1.10974 0
M  V30 5906 H 559.67 -2.92547 0.387304 0
M  V30 5907 H 559.751 -1.83708 1.78002 0
M  V30 5908 H 559.395 -3.83304 3.33228 0
M  V30 5909 H 559.325 -4.90654 1.91224 0
M  V30 5910 H 561.816 -3.35435 1.74045 0
M  V30 5911 H 562.129 -6.54913 4.10255 0
M  V30 5912 H 560.474 -5.8935 3.68364 0
M  V30 5913 H 563.665 -4.11552 2.23031 0
M  V30 5914 H 563.838 -5.57248 3.30725 0
M  V30 5915 N 557.244 -0.608902 -1.45362 0
M  V30 5916 C 558.469 -0.10921 -2.07112 0
M  V30 5917 C 558.894 1.19779 -1.45033 0
M  V30 5918 O 558.252 1.72961 -0.543527 0
M  V30 5919 C 558.3 0.0155745 -3.60597 0
M  V30 5920 O 557.404 1.06546 -3.98399 0
M  V30 5921 H 556.745 -0.0746619 -0.659789 0
M  V30 5922 H 559.275 -0.839283 -1.86594 0
M  V30 5923 H 559.285 0.213364 -4.07442 0
M  V30 5924 H 557.96 -0.938765 -4.05167 0
M  V30 5925 H 556.537 0.844024 -3.63223 0
M  V30 5926 N 558.722 1.53707 -0.348139 0
M  V30 5927 C 559.95 2.05406 0.248224 0
M  V30 5928 C 560.365 1.22282 1.43849 0
M  V30 5929 O 559.722 0.259244 1.80649 0
M  V30 5930 C 559.773 3.55446 0.658793 0
M  V30 5931 O 559.494 4.35417 -0.484149 0
M  V30 5932 C 560.995 4.23335 1.31539 0
M  V30 5933 H 558.215 0.669344 0.0471075 0
M  V30 5934 H 560.759 1.98257 -0.501456 0
M  V30 5935 H 558.914 3.62803 1.35841 0
M  V30 5936 H 559.328 5.24268 -0.155949 0
M  V30 5937 H 560.802 5.29692 1.55338 0
M  V30 5938 H 561.279 3.75967 2.27036 0
M  V30 5939 H 561.885 4.20184 0.657683 0
M  V30 5940 N 560.2 0.0768682 1.57412 0
M  V30 5941 C 561.11 -0.903207 2.16516 0
M  V30 5942 C 562.126 -1.32341 1.12968 0
M  V30 5943 O 563.302 -1.39507 1.45258 0
M  V30 5944 C 560.367 -2.1508 2.71922 0
M  V30 5945 C 559.428 -1.78653 3.90361 0
M  V30 5946 C 558.661 -2.97465 4.43114 0
M  V30 5947 O 558.884 -4.11638 3.94854 0
M  V30 5948 O 557.818 -2.76987 5.3438 0
M  V30 5949 H 561.644 -0.430427 3.00634 0
M  V30 5950 H 559.229 -0.146485 1.4868 0
M  V30 5951 H 561.111 -2.8823 3.07411 0
M  V30 5952 H 559.786 -2.61446 1.9086 0
M  V30 5953 H 558.693 -1.0274 3.59716 0
M  V30 5954 H 560.026 -1.37066 4.7273 0
M  V30 5955 N 561.678 -1.56367 -0.196722 0
M  V30 5956 C 562.906 -1.84639 -0.933608 0
M  V30 5957 C 563.321 -0.659164 -1.76919 0
M  V30 5958 O 562.678 0.372142 -1.78665 0
M  V30 5959 C 562.729 -3.11694 -1.83109 0
M  V30 5960 O 562.45 -4.25838 -1.02924 0
M  V30 5961 C 563.951 -3.53132 -2.67979 0
M  V30 5962 H 561.171 -0.613188 -0.272473 0
M  V30 5963 H 563.715 -2.03475 -0.204465 0
M  V30 5964 H 561.87 -2.94759 -2.51387 0
M  V30 5965 H 562.284 -4.98178 -1.64069 0
M  V30 5966 H 563.758 -4.45005 -3.26611 0
M  V30 5967 H 564.235 -2.76045 -3.41608 0
M  V30 5968 H 564.841 -3.72592 -2.05074 0
M  V30 5969 N 563.156 0.464375 -1.50603 0
M  V30 5970 C 564.567 1.04507 -1.5471 0
M  V30 5971 C 564.918 1.9297 -0.354542 0
M  V30 5972 O 564.043 2.09763 0.531812 0
M  V30 5973 C 564.638 1.90207 -2.80369 0
M  V30 5974 C 563.197 2.43373 -2.87135 0
M  V30 5975 C 562.344 1.21886 -2.49076 0
M  V30 5976 H 565.295 0.246716 -1.56771 0
M  V30 5977 H 565.316 2.75353 -2.62604 0
M  V30 5978 H 564.828 1.25796 -3.67147 0
M  V30 5979 H 562.929 3.11318 -2.04724 0
M  V30 5980 H 563.042 2.7802 -3.90181 0
M  V30 5981 H 561.406 1.55575 -2.01664 0
M  V30 5982 H 562.189 0.591268 -3.3817 0
M  V30 5983 N 564.634 1.40294 0.718013 0
M  V30 5984 C 565.581 1.40367 1.8321 0
M  V30 5985 C 566.551 0.260952 1.64037 0
M  V30 5986 O 567.736 0.458648 1.85205 0
M  V30 5987 C 564.876 1.26965 3.20895 0
M  V30 5988 C 563.989 2.50922 3.51656 0
M  V30 5989 C 563.124 2.29981 4.78834 0
M  V30 5990 C 562.163 3.49527 5.02491 0
M  V30 5991 N 561.3 3.27796 6.20882 0
M  V30 5992 H 566.14 2.35593 1.82482 0
M  V30 5993 H 563.677 1.17012 0.891444 0
M  V30 5994 H 565.635 1.17202 4.00399 0
M  V30 5995 H 564.265 0.353591 3.20858 0
M  V30 5996 H 563.317 2.71223 2.66725 0
M  V30 5997 H 564.629 3.39913 3.65048 0
M  V30 5998 H 563.783 2.17558 5.66351 0
M  V30 5999 H 562.522 1.38411 4.67647 0
M  V30 6000 H 561.527 3.6243 4.1343 0
M  V30 6001 H 562.752 4.42021 5.15553 0
M  V30 6002 H 560.698 2.38906 6.1095 0
M  V30 6003 H 560.615 4.10351 6.34939 0
M  V30 6004 H 561.883 3.19101 7.11193 0
M  V30 6005 N 566.112 -0.949982 1.2575 0
M  V30 6006 C 567.042 -2.06483 1.09028 0
M  V30 6007 C 568.023 -1.701 -0.00201532 0
M  V30 6008 O 569.208 -1.93469 0.168383 0
M  V30 6009 C 566.338 -3.39899 0.71316 0
M  V30 6010 C 565.292 -3.90309 1.75621 0
M  V30 6011 C 564.618 -5.20274 1.23365 0
M  V30 6012 C 565.918 -4.16169 3.15596 0
M  V30 6013 H 567.612 -2.20731 2.02283 0
M  V30 6014 H 565.158 -1.06066 0.973964 0
M  V30 6015 H 567.111 -4.17346 0.58309 0
M  V30 6016 H 565.835 -3.25602 -0.255091 0
M  V30 6017 H 564.494 -3.15035 1.8748 0
M  V30 6018 H 564.142 -5.02351 0.255491 0
M  V30 6019 H 563.842 -5.54971 1.93082 0
M  V30 6020 H 565.366 -6.00314 1.11607 0
M  V30 6021 H 566.78 -4.84259 3.06864 0
M  V30 6022 H 565.177 -4.62131 3.82825 0
M  V30 6023 H 566.247 -3.22273 3.6231 0
M  V30 6024 N 567.59 -1.07411 -1.15328 0
M  V30 6025 C 568.553 -0.698914 -2.18284 0
M  V30 6026 C 569.553 0.261149 -1.58665 0
M  V30 6027 O 570.743 0.0420277 -1.74149 0
M  V30 6028 C 567.875 -0.0302427 -3.40887 0
M  V30 6029 H 569.068 -1.61045 -2.52991 0
M  V30 6030 H 566.621 -0.870724 -1.298 0
M  V30 6031 H 567.356 0.893505 -3.11748 0
M  V30 6032 H 567.141 -0.720759 -3.85419 0
M  V30 6033 H 568.631 0.21759 -4.17033 0
M  V30 6034 N 569.068 1.32177 -0.85831 0
M  V30 6035 C 570.031 2.27086 -0.310588 0
M  V30 6036 C 571.031 1.51751 0.531806 0
M  V30 6037 O 572.221 1.70794 0.34279 0
M  V30 6038 C 569.353 3.36266 0.560179 0
M  V30 6039 H 570.546 2.77045 -1.1483 0
M  V30 6040 H 568.099 1.42911 -0.632942 0
M  V30 6041 H 568.834 2.9158 1.41956 0
M  V30 6042 H 568.619 3.92077 -0.0428473 0
M  V30 6043 H 570.109 4.06974 0.936056 0
M  V30 6044 N 570.547 0.616602 1.45037 0
M  V30 6045 C 571.48 -0.145984 2.27733 0
M  V30 6046 C 572.458 -0.865108 1.37676 0
M  V30 6047 O 573.642 -0.872152 1.6711 0
M  V30 6048 C 570.769 -1.2122 3.16265 0
M  V30 6049 C 569.815 -0.595218 4.22326 0
M  V30 6050 S 570.648 0.603744 5.32086 0
M  V30 6051 C 571.804 -0.462842 6.24186 0
M  V30 6052 H 572.037 0.555591 2.92062 0
M  V30 6053 H 569.57 0.404364 1.49011 0
M  V30 6054 H 571.528 -1.82247 3.67827 0
M  V30 6055 H 570.189 -1.88589 2.51183 0
M  V30 6056 H 569.382 -1.39775 4.8423 0
M  V30 6057 H 568.984 -0.0598965 3.73952 0
M  V30 6058 H 571.276 -1.33945 6.64127 0
M  V30 6059 H 572.219 0.120259 7.07998 0
M  V30 6060 H 572.627 -0.782219 5.59054 0
M  V30 6061 N 572.025 -1.5352 0.356285 0
M  V30 6062 C 572.975 -2.22204 -0.510815 0
M  V30 6063 C 573.959 -1.21393 -1.05605 0
M  V30 6064 O 575.151 -1.46883 -0.987639 0
M  V30 6065 C 572.28 -3.00786 -1.65478 0
M  V30 6066 C 571.366 -4.08965 -1.12287 0
M  V30 6067 N 571.757 -5.04829 -0.313191 0
M  V30 6068 C 570.055 -4.23505 -1.39856 0
M  V30 6069 C 570.756 -5.81695 -0.0230322 0
M  V30 6070 N 569.732 -5.40074 -0.618144 0
M  V30 6071 H 573.534 -2.93676 0.114711 0
M  V30 6072 H 571.048 -1.61572 0.163811 0
M  V30 6073 H 573.045 -3.48502 -2.28806 0
M  V30 6074 H 571.705 -2.30843 -2.28345 0
M  V30 6075 H 572.716 -5.17879 0.0468202 0
M  V30 6076 H 569.393 -3.64786 -2.0307 0
M  V30 6077 H 570.783 -6.68931 0.630927 0
M  V30 6078 N 573.503 -0.0852151 -1.57369 0
M  V30 6079 C 574.731 0.58946 -1.98325 0
M  V30 6080 C 575.146 1.62333 -0.96403 0
M  V30 6081 O 574.503 1.82438 0.0476395 0
M  V30 6082 C 574.554 1.24604 -3.39347 0
M  V30 6083 O 574.275 0.253532 -4.37366 0
M  V30 6084 C 575.776 2.00726 -3.95252 0
M  V30 6085 H 572.996 0.158783 -0.651942 0
M  V30 6086 H 575.54 -0.161584 -2.03861 0
M  V30 6087 H 573.695 1.94808 -3.34856 0
M  V30 6088 H 574.109 0.726207 -5.19448 0
M  V30 6089 H 575.583 2.42039 -4.96106 0
M  V30 6090 H 576.06 2.86919 -3.32527 0
M  V30 6091 H 576.666 1.3536 -4.03185 0
M  V30 6092 N 574.981 1.5647 0.188427 0
M  V30 6093 C 575.911 1.98101 1.23606 0
M  V30 6094 C 576.892 0.853961 1.47111 0
M  V30 6095 O 578.077 1.11879 1.58735 0
M  V30 6096 C 575.207 2.32624 2.57882 0
M  V30 6097 C 574.161 3.48129 2.48978 0
M  V30 6098 C 573.487 3.68347 3.87588 0
M  V30 6099 C 574.787 4.82112 2.00911 0
M  V30 6100 H 576.481 2.85864 0.890068 0
M  V30 6101 H 574.027 1.37532 0.426714 0
M  V30 6102 H 575.98 2.60343 3.3136 0
M  V30 6103 H 574.704 1.41751 2.94235 0
M  V30 6104 H 573.363 3.20511 1.77956 0
M  V30 6105 H 573.011 2.74793 4.21305 0
M  V30 6106 H 572.711 4.46055 3.82503 0
M  V30 6107 H 574.235 3.98449 4.62678 0
M  V30 6108 H 575.649 5.08819 2.64151 0
M  V30 6109 H 574.046 5.63337 2.06814 0
M  V30 6110 H 575.116 4.75249 0.96262 0
M  V30 6111 N 576.459 -0.456382 1.50847 0
M  V30 6112 C 577.706 -1.20736 1.62571 0
M  V30 6113 C 578.034 -1.9163 0.332904 0
M  V30 6114 O 577.289 -1.8343 -0.682058 0
M  V30 6115 C 577.588 -2.26336 2.76599 0
M  V30 6116 C 577.254 -1.7259 4.16562 0
M  V30 6117 C 575.916 -1.57654 4.54641 0
M  V30 6118 C 578.268 -1.32877 5.03977 0
M  V30 6119 C 575.596 -1.0145 5.77862 0
M  V30 6120 C 577.948 -0.7811 6.27759 0
M  V30 6121 C 576.612 -0.618488 6.64628 0
M  V30 6122 H 575.882 -0.441803 0.594888 0
M  V30 6123 H 578.529 -0.501169 1.84826 0
M  V30 6124 H 576.834 -3.0292 2.48489 0
M  V30 6125 H 578.531 -2.84227 2.82871 0
M  V30 6126 H 575.121 -1.85187 3.86528 0
M  V30 6127 H 579.305 -1.43245 4.75179 0
M  V30 6128 H 574.561 -0.876109 6.0509 0
M  V30 6129 H 578.735 -0.464783 6.94847 0
M  V30 6130 H 576.362 -0.180838 7.59985 0
M  V30 6131 N 577.937 -1.40673 -0.710563 0
M  V30 6132 C 578.87 -1.35742 -1.83438 0
M  V30 6133 C 579.848 -0.226997 -1.61008 0
M  V30 6134 O 581.032 -0.411477 -1.83954 0
M  V30 6135 C 578.159 -1.11374 -3.19865 0
M  V30 6136 C 577.205 -2.26935 -3.61113 0
M  V30 6137 S 578.038 -3.89352 -3.67648 0
M  V30 6138 C 579.194 -3.67258 -5.06826 0
M  V30 6139 H 579.427 -2.30848 -1.87341 0
M  V30 6140 H 576.96 -1.27018 -0.877831 0
M  V30 6141 H 578.918 -0.980004 -3.9863 0
M  V30 6142 H 577.579 -0.179135 -3.13589 0
M  V30 6143 H 576.772 -2.0554 -4.60184 0
M  V30 6144 H 576.374 -2.36638 -2.89618 0
M  V30 6145 H 578.666 -3.26036 -5.93891 0
M  V30 6146 H 579.609 -4.65878 -5.33257 0
M  V30 6147 H 580.017 -3.0084 -4.77656 0
M  V30 6148 N 579.415 0.9433 -1.26252 0
M  V30 6149 C 580.831 1.21644 -1.03319 0
M  V30 6150 C 581.031 2.0003 0.242983 0
M  V30 6151 O 580.087 2.33838 0.952688 0
M  V30 6152 C 581.4 1.97978 -2.2633 0
M  V30 6153 C 582.948 2.10978 -2.31209 0
M  V30 6154 C 583.423 2.90713 -3.53907 0
M  V30 6155 N 584.914 2.98287 -3.54371 0
M  V30 6156 C 585.649 3.60406 -4.45976 0
M  V30 6157 N 585.145 4.24043 -5.47868 0
M  V30 6158 N 586.938 3.57658 -4.33633 0
M  V30 6159 H 579.089 0.419221 -2.08222 0
M  V30 6160 H 581.352 0.247995 -0.914988 0
M  V30 6161 H 581.058 1.47788 -3.19142 0
M  V30 6162 H 580.932 2.9865 -2.30408 0
M  V30 6163 H 583.319 2.6036 -1.38913 0
M  V30 6164 H 583.4 1.09575 -2.31143 0
M  V30 6165 H 583.044 2.42018 -4.46531 0
M  V30 6166 H 582.974 3.92367 -3.5122 0
M  V30 6167 H 585.465 2.53044 -2.80673 0
M  V30 6168 H 585.778 4.69334 -6.13959 0
M  V30 6169 H 584.123 4.22637 -5.51728 0
M  V30 6170 H 587.314 3.07134 -3.53251 0
M  V30 6171 H 587.487 4.05782 -5.05218 0
M  V30 6172 N 580.893 1.08022 1.14757 0
M  V30 6173 C 581.803 0.718292 2.23333 0
M  V30 6174 C 582.819 -0.273477 1.71837 0
M  V30 6175 O 583.995 -0.118406 2.01052 0
M  V30 6176 C 581.06 0.128855 3.4646 0
M  V30 6177 C 580.121 1.17473 4.12915 0
M  V30 6178 C 579.354 0.61333 5.30164 0
M  V30 6179 O 579.577 -0.568458 5.6756 0
M  V30 6180 O 578.511 1.3615 5.86299 0
M  V30 6181 H 582.337 1.62394 2.56636 0
M  V30 6182 H 579.922 0.853628 1.22611 0
M  V30 6183 H 581.804 -0.197249 4.20938 0
M  V30 6184 H 580.479 -0.750014 3.14891 0
M  V30 6185 H 579.386 1.5533 3.40328 0
M  V30 6186 H 580.719 2.02574 4.48581 0
M  V30 6187 N 582.371 -1.3172 0.865308 0
M  V30 6188 C 583.321 -2.26157 0.289305 0
M  V30 6189 C 584.305 -1.50428 -0.570977 0
M  V30 6190 O 585.497 -1.71978 -0.418617 0
M  V30 6191 C 582.626 -3.39457 -0.512237 0
M  V30 6192 C 581.712 -4.22561 0.361028 0
M  V30 6193 N 582.103 -4.84501 1.45231 0
M  V30 6194 C 580.401 -4.45739 0.152641 0
M  V30 6195 C 581.102 -5.46586 1.99043 0
M  V30 6196 N 580.078 -5.28119 1.28809 0
M  V30 6197 H 583.88 -2.71581 1.12344 0
M  V30 6198 H 581.394 -1.45932 0.712565 0
M  V30 6199 H 583.391 -4.06133 -0.941379 0
M  V30 6200 H 582.051 -2.95577 -1.34404 0
M  V30 6201 H 583.062 -4.84293 1.83524 0
M  V30 6202 H 579.739 -4.1251 -0.643583 0
M  V30 6203 H 581.129 -6.05817 2.90577 0
M  V30 6204 N 583.85 -0.624285 -1.44708 0
M  V30 6205 C 584.798 0.0969952 -2.32398 0
M  V30 6206 C 585.792 0.842762 -1.46949 0
M  V30 6207 O 586.998 0.756436 -1.63334 0
M  V30 6208 H 583.373 0.0501306 -0.750327 0
M  V30 6209 H 585.344 -0.660767 -2.90992 0
M  V30 6210 C 584.093 1.06967 -3.30837 0
M  V30 6211 H 583.416 0.505242 -3.96595 0
M  V30 6212 H 584.856 1.54397 -3.94889 0
M  V30 6213 C 583.315 2.15153 -2.5925 0
M  V30 6214 O 583.845 3.23139 -2.3863 0
M  V30 6215 N 582.051 1.90898 -2.19103 0
M  V30 6216 H 581.598 1.03086 -2.36074 0
M  V30 6217 H 581.556 2.63485 -1.71531 0
M  V30 6218 N 585.328 1.53329 -0.364422 0
M  V30 6219 C 586.744 1.59594 -0.0133165 0
M  V30 6220 C 586.944 1.37959 1.46865 0
M  V30 6221 O 586 1.18418 2.2301 0
M  V30 6222 C 587.313 2.97032 -0.468213 0
M  V30 6223 C 588.861 3.10138 -0.422334 0
M  V30 6224 C 589.336 4.49986 -0.853024 0
M  V30 6225 N 590.827 4.56098 -0.808037 0
M  V30 6226 C 591.562 5.62495 -1.11299 0
M  V30 6227 N 591.058 6.7665 -1.48717 0
M  V30 6228 N 592.851 5.52473 -1.03586 0
M  V30 6229 H 585.002 1.65644 -1.32951 0
M  V30 6230 H 587.265 0.77684 -0.543345 0
M  V30 6231 H 586.971 3.18 -1.5023 0
M  V30 6232 H 586.845 3.76918 0.145775 0
M  V30 6233 H 589.232 2.88881 0.602622 0
M  V30 6234 H 589.313 2.32263 -1.0718 0
M  V30 6235 H 588.957 4.7198 -1.87609 0
M  V30 6236 H 588.887 5.26289 -0.180819 0
M  V30 6237 H 591.378 3.74131 -0.532361 0
M  V30 6238 H 591.691 7.53776 -1.70415 0
M  V30 6239 H 590.036 6.78044 -1.52581 0
M  V30 6240 H 593.227 4.6217 -0.742736 0
M  V30 6241 H 593.4 6.35295 -1.27686 0
M  V30 6242 N 586.806 0.0935595 1.57322 0
M  V30 6243 C 587.736 -0.863062 2.16964 0
M  V30 6244 C 588.717 -1.29528 1.10256 0
M  V30 6245 O 589.902 -1.36245 1.38387 0
M  V30 6246 C 587.032 -2.12276 2.74875 0
M  V30 6247 C 585.986 -1.82921 3.86942 0
M  V30 6248 C 585.312 -3.15707 4.31548 0
M  V30 6249 C 586.612 -1.11737 5.10208 0
M  V30 6250 H 588.306 -0.366145 2.97153 0
M  V30 6251 H 585.852 -0.174673 1.42937 0
M  V30 6252 H 587.805 -2.79634 3.1525 0
M  V30 6253 H 586.529 -2.64248 1.91938 0
M  V30 6254 H 585.188 -1.17961 3.47103 0
M  V30 6255 H 584.836 -3.65563 3.45504 0
M  V30 6256 H 584.536 -2.96849 5.07104 0
M  V30 6257 H 586.06 -3.84226 4.74555 0
M  V30 6258 H 587.474 -1.69203 5.47762 0
M  V30 6259 H 585.871 -1.03064 5.91183 0
M  V30 6260 H 586.941 -0.0998818 4.84797 0
M  V30 6261 N 588.284 -1.56567 -0.180126 0
M  V30 6262 C 589.247 -1.94852 -1.20686 0
M  V30 6263 C 590.247 -0.831212 -1.3765 0
M  V30 6264 O 591.437 -1.09841 -1.35206 0
M  V30 6265 C 588.569 -2.23565 -2.57355 0
M  V30 6266 H 589.762 -2.86722 -0.879225 0
M  V30 6267 H 587.315 -1.50489 -0.422237 0
M  V30 6268 H 588.05 -1.34381 -2.95148 0
M  V30 6269 H 587.835 -3.04999 -2.46411 0
M  V30 6270 H 589.325 -2.54137 -3.31367 0
M  V30 6271 N 589.762 0.448376 -1.51087 0
M  V30 6272 C 590.99 1.22143 -1.66999 0
M  V30 6273 C 591.405 1.85283 -0.362699 0
M  V30 6274 O 590.762 1.70236 0.65772 0
M  V30 6275 C 590.813 2.31357 -2.7777 0
M  V30 6276 O 590.534 1.70801 -4.03434 0
M  V30 6277 C 592.035 3.21836 -3.04855 0
M  V30 6278 H 589.255 0.368558 -0.560719 0
M  V30 6279 H 591.799 0.532618 -1.97442 0
M  V30 6280 H 589.954 2.95973 -2.49958 0
M  V30 6281 H 590.368 2.42895 -4.64868 0
M  V30 6282 H 591.842 3.94627 -3.85971 0
M  V30 6283 H 592.319 3.81949 -2.16821 0
M  V30 6284 H 592.925 2.62933 -3.34285 0
M  V30 6285 N 591.24 1.41047 0.703093 0
M  V30 6286 C 592.15 1.44645 1.84703 0
M  V30 6287 C 593.166 0.337778 1.7069 0
M  V30 6288 O 594.342 0.584327 1.92737 0
M  V30 6289 C 591.407 1.31928 3.20618 0
M  V30 6290 C 590.468 2.53047 3.46794 0
M  V30 6291 C 589.701 2.40927 4.76224 0
M  V30 6292 O 589.924 1.42978 5.5219 0
M  V30 6293 O 588.858 3.30543 5.03016 0
M  V30 6294 H 592.684 2.41139 1.84624 0
M  V30 6295 H 590.269 1.22504 0.855167 0
M  V30 6296 H 592.151 1.27092 4.01778 0
M  V30 6297 H 590.826 0.385469 3.21397 0
M  V30 6298 H 589.733 2.6346 2.65593 0
M  V30 6299 H 591.066 3.45231 3.50822 0
M  V30 6300 N 592.718 -0.936591 1.26751 0
M  V30 6301 C 593.648 -2.05315 1.11212 0
M  V30 6302 C 594.629 -1.70092 0.0160262 0
M  V30 6303 O 595.814 -1.93279 0.188894 0
M  V30 6304 C 592.944 -3.39123 0.749171 0
M  V30 6305 C 591.898 -3.88425 1.79751 0
M  V30 6306 C 591.224 -5.18936 1.28876 0
M  V30 6307 C 592.524 -4.12798 3.19992 0
M  V30 6308 H 594.218 -2.18573 2.04613 0
M  V30 6309 H 591.764 -1.05027 0.985159 0
M  V30 6310 H 593.717 -4.16704 0.627323 0
M  V30 6311 H 592.441 -3.25855 -0.220543 0
M  V30 6312 H 591.1 -3.13028 1.90811 0
M  V30 6313 H 590.748 -5.02051 0.308757 0
M  V30 6314 H 590.448 -5.52892 1.98958 0
M  V30 6315 H 591.972 -5.99096 1.17967 0
M  V30 6316 H 593.386 -4.80977 3.11983 0
M  V30 6317 H 591.783 -4.58044 3.87705 0
M  V30 6318 H 592.853 -3.18412 3.65707 0
M  V30 6319 N 594.196 -1.08629 -1.14182 0
M  V30 6320 C 595.612 -0.814363 -1.3726 0
M  V30 6321 C 595.812 0.575271 -1.93114 0
M  V30 6322 O 594.868 1.33165 -2.1453 0
M  V30 6323 C 596.181 -1.8989 -2.33157 0
M  V30 6324 C 597.729 -1.92518 -2.46791 0
M  V30 6325 C 598.204 -3.00092 -3.45989 0
M  V30 6326 N 599.695 -2.99279 -3.53534 0
M  V30 6327 C 600.43 -3.79158 -4.30147 0
M  V30 6328 N 599.926 -4.68923 -5.09983 0
M  V30 6329 N 601.719 -3.67451 -4.25366 0
M  V30 6330 H 593.87 -1.98232 -0.762758 0
M  V30 6331 H 596.133 -0.860383 -0.398051 0
M  V30 6332 H 595.839 -2.89809 -1.99257 0
M  V30 6333 H 595.713 -1.77013 -3.33086 0
M  V30 6334 H 598.1 -0.932425 -2.79982 0
M  V30 6335 H 598.181 -2.09473 -1.46816 0
M  V30 6336 H 597.825 -3.99575 -3.13532 0
M  V30 6337 H 597.755 -2.80382 -4.45751 0
M  V30 6338 H 600.246 -2.3422 -2.96563 0
M  V30 6339 H 600.559 -5.26475 -5.65724 0
M  V30 6340 H 598.904 -4.72964 -5.09244 0
M  V30 6341 H 602.095 -2.9669 -3.62067 0
M  V30 6342 H 602.268 -4.29944 -4.84822 0
M  V30 6343 N 595.674 1.31259 -0.872281 0
M  V30 6344 C 597.09 1.49283 -0.564521 0
M  V30 6345 C 597.29 1.80243 0.900807 0
M  V30 6346 O 596.346 1.88246 1.68284 0
M  V30 6347 C 597.659 2.62503 -1.46673 0
M  V30 6348 C 599.207 2.76386 -1.46901 0
M  V30 6349 C 599.682 3.92705 -2.35684 0
M  V30 6350 N 601.173 3.99995 -2.33577 0
M  V30 6351 C 601.908 4.89276 -2.98992 0
M  V30 6352 N 601.404 5.83443 -3.73585 0
M  V30 6353 N 603.197 4.82541 -2.88289 0
M  V30 6354 H 595.348 1.09432 -1.82039 0
M  V30 6355 H 597.611 0.540949 -0.77851 0
M  V30 6356 H 597.317 2.46407 -2.50951 0
M  V30 6357 H 597.191 3.58695 -1.16696 0
M  V30 6358 H 599.578 2.91894 -0.433796 0
M  V30 6359 H 599.659 1.80853 -1.80903 0
M  V30 6360 H 599.303 3.77954 -3.39283 0
M  V30 6361 H 599.233 4.87549 -1.99006 0
M  V30 6362 H 601.724 3.32624 -1.7936 0
M  V30 6363 H 602.037 6.48303 -4.20622 0
M  V30 6364 H 600.382 5.83415 -3.77694 0
M  V30 6365 H 603.573 4.07951 -2.2955 0
M  V30 6366 H 603.746 5.51916 -3.39549 0
M  V30 6367 N 597.152 0.631951 1.44375 0
M  V30 6368 C 598.082 -0.0593243 2.33425 0
M  V30 6369 C 599.063 -0.833964 1.48253 0
M  V30 6370 O 600.248 -0.799682 1.76971 0
M  V30 6371 C 597.378 -1.04096 3.31333 0
M  V30 6372 C 596.332 -0.377899 4.26328 0
M  V30 6373 C 595.658 -1.4695 5.14111 0
M  V30 6374 C 596.958 0.716371 5.17364 0
M  V30 6375 H 598.652 0.684287 2.91475 0
M  V30 6376 H 596.198 0.330518 1.40156 0
M  V30 6377 H 598.151 -1.53331 3.92514 0
M  V30 6378 H 596.875 -1.81547 2.71493 0
M  V30 6379 H 595.534 0.0938054 3.6648 0
M  V30 6380 H 595.182 -2.2349 4.50623 0
M  V30 6381 H 594.882 -1.03121 5.78481 0
M  V30 6382 H 596.406 -1.96363 5.78164 0
M  V30 6383 H 597.82 0.307089 5.72477 0
M  V30 6384 H 596.217 1.07784 5.90341 0
M  V30 6385 H 597.287 1.58316 4.58327 0
M  V30 6386 N 598.631 -1.53133 0.372548 0
M  V30 6387 C 599.579 -2.27473 -0.485681 0
M  V30 6388 C 600.573 -1.30719 -1.07745 0
M  V30 6389 O 601.779 -1.48321 -1.01985 0
M  V30 6390 H 598.154 -0.731269 -0.175356 0
M  V30 6391 H 600.125 -2.97955 0.162986 0
M  V30 6392 C 598.874 -3.08191 -1.60978 0
M  V30 6393 H 598.197 -3.82488 -1.16373 0
M  V30 6394 H 599.637 -3.63373 -2.18485 0
M  V30 6395 C 598.096 -2.19461 -2.55614 0
M  V30 6396 O 598.626 -1.81008 -3.58607 0
M  V30 6397 N 596.832 -1.83955 -2.24965 0
M  V30 6398 H 596.379 -2.15423 -1.41247 0
M  V30 6399 H 596.337 -1.24874 -2.88538 0
M  V30 6400 N 600.109 -0.101901 -1.5727 0
M  V30 6401 C 601.52 0.426173 -1.81771 0
M  V30 6402 C 601.871 1.67725 -1.01797 0
M  V30 6403 O 600.996 2.14958 -0.249386 0
M  V30 6404 C 601.591 0.779962 -3.297 0
M  V30 6405 C 600.15 1.25275 -3.54941 0
M  V30 6406 C 599.297 0.252814 -2.76145 0
M  V30 6407 H 602.248 -0.32726 -1.55289 0
M  V30 6408 H 602.269 1.63891 -3.43395 0
M  V30 6409 H 601.781 -0.130778 -3.8788 0
M  V30 6410 H 599.882 2.18097 -3.021 0
M  V30 6411 H 599.995 1.20988 -4.63572 0
M  V30 6412 H 598.359 0.736362 -2.43823 0
M  V30 6413 H 599.142 -0.650724 -3.37076 0
M  V30 6414 N 601.587 1.56661 0.17182 0
M  V30 6415 C 603.003 1.50768 0.52357 0
M  V30 6416 C 603.203 0.806072 1.84675 0
M  V30 6417 O 602.259 0.366233 2.4983 0
M  V30 6418 C 603.572 2.955 0.556793 0
M  V30 6419 C 605.12 3.06303 0.644029 0
M  V30 6420 C 605.595 4.52492 0.708148 0
M  V30 6421 N 607.086 4.56737 0.771051 0
M  V30 6422 C 607.821 5.67196 0.841229 0
M  V30 6423 N 607.317 6.87287 0.872272 0
M  V30 6424 N 609.11 5.55165 0.88021 0
M  V30 6425 H 601.261 2.00679 -0.695817 0
M  V30 6426 H 603.524 0.914219 -0.250814 0
M  V30 6427 H 603.23 3.49986 -0.346774 0
M  V30 6428 H 603.104 3.50119 1.40346 0
M  V30 6429 H 605.491 2.51851 1.53802 0
M  V30 6430 H 605.572 2.5477 -0.229297 0
M  V30 6431 H 605.216 5.07575 -0.181585 0
M  V30 6432 H 605.146 5.01781 1.59761 0
M  V30 6433 H 607.637 3.70274 0.755364 0
M  V30 6434 H 607.95 7.6722 0.92698 0
M  V30 6435 H 606.295 6.89898 0.840557 0
M  V30 6436 H 609.486 4.60263 0.852956 0
M  V30 6437 H 609.659 6.41271 0.931439 0
M  V30 6438 N 603.065 -0.440357 1.51323 0
M  V30 6439 C 604.311 -1.18874 1.65047 0
M  V30 6440 C 604.666 -1.88988 0.360742 0
M  V30 6441 O 603.959 -1.80479 -0.643272 0
M  V30 6442 C 604.153 -2.2339 2.78984 0
M  V30 6443 C 603.982 -1.63534 4.18911 0
M  V30 6444 C 602.752 -1.42158 4.84891 0
M  V30 6445 C 604.95 -1.11324 5.02107 0
M  V30 6446 N 602.932 -0.778679 6.08942 0
M  V30 6447 C 604.303 -0.595421 6.17134 0
M  V30 6448 C 606.358 -1.00471 4.87658 0
M  V30 6449 C 605.061 0.0202557 7.19297 0
M  V30 6450 C 607.087 -0.402928 5.90026 0
M  V30 6451 C 606.449 0.10436 7.04323 0
M  V30 6452 H 602.548 -0.422771 0.657866 0
M  V30 6453 H 605.132 -0.485814 1.88542 0
M  V30 6454 H 603.303 -2.91074 2.57158 0
M  V30 6455 H 605.035 -2.90366 2.81904 0
M  V30 6456 H 601.79 -1.68247 4.42707 0
M  V30 6457 H 602.214 -0.474755 6.75333 0
M  V30 6458 H 606.856 -1.38278 3.99548 0
M  V30 6459 H 604.574 0.410468 8.07057 0
M  V30 6460 H 608.16 -0.320897 5.80914 0
M  V30 6461 H 607.04 0.562697 7.82179 0
M  V30 6462 N 604.543 -1.41418 -0.695603 0
M  V30 6463 C 605.491 -1.43467 -1.83084 0
M  V30 6464 C 606.485 -0.312719 -1.66489 0
M  V30 6465 O 607.691 -0.484744 -1.7335 0
M  V30 6466 H 604.066 -0.448891 -0.603325 0
M  V30 6467 H 606.037 -2.39144 -1.78473 0
M  V30 6468 C 604.786 -1.3337 -3.21104 0
M  V30 6469 H 604.109 -2.18989 -3.3449 0
M  V30 6470 H 605.549 -1.38865 -4.00615 0
M  V30 6471 C 604.008 -0.0460484 -3.36869 0
M  V30 6472 O 604.538 0.909258 -3.91274 0
M  V30 6473 N 602.744 0.0300222 -2.90584 0
M  V30 6474 H 602.291 -0.748129 -2.46497 0
M  V30 6475 H 602.249 0.890991 -3.01511 0
M  V30 6476 N 606.021 0.929856 -1.27246 0
M  V30 6477 C 607.269 1.674 -1.13233 0
M  V30 6478 C 607.59 1.92311 0.322744 0
M  V30 6479 O 606.86 1.52784 1.22612 0
M  V30 6480 H 605.44 0.620411 -0.416052 0
M  V30 6481 H 608.102 1.11663 -1.59741 0
M  V30 6482 H 607.198 2.64308 -1.65975 0
M  V30 6483 N 607.499 1.09233 1.13605 0
M  V30 6484 C 608.776 0.739633 1.81077 0
M  V30 6485 C 609.156 -0.775595 1.96336 0
M  V30 6486 O 608.504 -1.69726 1.52988 0
M  V30 6487 C 608.714 1.47636 3.16235 0
M  V30 6488 C 610.062 1.64087 3.91613 0
M  V30 6489 O 611.086 1.43871 3.25852 0
M  V30 6490 O 609.945 1.97511 5.0956 0
M  V30 6491 H 607.039 0.265464 0.783236 0
M  V30 6492 H 609.585 1.19441 1.20549 0
M  V30 6493 H 608.357 2.50818 3.00344 0
M  V30 6494 H 607.98 1.01362 3.84462 0
M  V30 6495 N 608.977 -1.30795 0.87923 0
M  V30 6496 C 609.924 -2.28282 0.339968 0
M  V30 6497 C 610.894 -1.56134 -0.566685 0
M  V30 6498 O 612.079 -1.84231 -0.496338 0
M  V30 6499 C 609.219 -3.42225 -0.444501 0
M  V30 6500 C 608.332 -4.29204 0.490717 0
M  V30 6501 C 607.467 -5.30302 -0.308784 0
M  V30 6502 C 606.506 -6.08929 0.622272 0
M  V30 6503 N 605.643 -7.01957 -0.14155 0
M  V30 6504 H 610.483 -2.73794 1.17647 0
M  V30 6505 H 608.02 -1.34682 0.591527 0
M  V30 6506 H 609.978 -4.07038 -0.915186 0
M  V30 6507 H 608.608 -2.97799 -1.24562 0
M  V30 6508 H 607.66 -3.6475 1.07988 0
M  V30 6509 H 608.972 -4.84045 1.20425 0
M  V30 6510 H 608.126 -6.00835 -0.841575 0
M  V30 6511 H 606.865 -4.7614 -1.05556 0
M  V30 6512 H 605.87 -5.37278 1.16674 0
M  V30 6513 H 607.095 -6.65178 1.36804 0
M  V30 6514 H 605.041 -6.50192 -0.870966 0
M  V30 6515 H 604.958 -7.54261 0.51246 0
M  V30 6516 H 606.226 -7.76741 -0.655271 0
M  V30 6517 N 610.455 -0.639598 -1.44038 0
M  V30 6518 C 611.385 0.0469443 -2.33453 0
M  V30 6519 C 612.366 0.82609 -1.48694 0
M  V30 6520 O 613.551 0.790285 -1.77393 0
M  V30 6521 C 610.681 1.02338 -3.3188 0
M  V30 6522 C 609.635 0.355284 -4.26523 0
M  V30 6523 C 608.961 1.44221 -5.14883 0
M  V30 6524 C 610.261 -0.743798 -5.16977 0
M  V30 6525 H 611.955 -0.699735 -2.91108 0
M  V30 6526 H 609.501 -0.337946 -1.39978 0
M  V30 6527 H 611.454 1.51247 -3.93322 0
M  V30 6528 H 610.178 1.80105 -2.72451 0
M  V30 6529 H 608.837 -0.113239 -3.66425 0
M  V30 6530 H 608.485 2.21097 -4.51802 0
M  V30 6531 H 608.185 1.00052 -5.79019 0
M  V30 6532 H 609.709 1.93295 -5.79197 0
M  V30 6533 H 611.123 -0.337444 -5.72306 0
M  V30 6534 H 609.52 -1.10914 -5.89761 0
M  V30 6535 H 610.59 -1.60745 -4.57481 0
M  V30 6536 N 611.933 1.52934 -0.380664 0
M  V30 6537 C 613.163 2.05587 0.204302 0
M  V30 6538 C 613.571 1.25288 1.41773 0
M  V30 6539 O 612.914 0.290394 1.8139 0
M  V30 6540 C 612.976 3.53624 0.647324 0
M  V30 6541 C 612.64 4.54765 -0.451465 0
M  V30 6542 C 613.637 5.03226 -1.30614 0
M  V30 6543 C 611.322 4.98508 -0.616025 0
M  V30 6544 C 613.316 5.94046 -2.31058 0
M  V30 6545 C 611.003 5.89131 -1.62381 0
M  V30 6546 C 612.001 6.36792 -2.46952 0
M  V30 6547 O 611.689 7.25626 -3.46009 0
M  V30 6548 H 611.421 0.675013 0.0365198 0
M  V30 6549 H 613.975 1.98125 -0.541827 0
M  V30 6550 H 612.205 3.58676 1.44529 0
M  V30 6551 H 613.894 3.89061 1.15698 0
M  V30 6552 H 614.66 4.70167 -1.19027 0
M  V30 6553 H 610.539 4.60989 0.0324987 0
M  V30 6554 H 614.083 6.3117 -2.97104 0
M  V30 6555 H 609.98 6.21603 -1.7401 0
M  V30 6556 H 610.748 7.43664 -3.41916 0
M  V30 6557 N 613.412 0.11024 1.57214 0
M  V30 6558 C 614.36 -0.860586 2.16094 0
M  V30 6559 C 615.354 -1.28156 1.1078 0
M  V30 6560 O 616.56 -1.25433 1.29099 0
M  V30 6561 H 612.935 -0.295606 0.691463 0
M  V30 6562 H 614.906 -0.33942 2.96463 0
M  V30 6563 C 613.655 -2.10421 2.768 0
M  V30 6564 H 612.978 -1.7892 3.5753 0
M  V30 6565 H 614.418 -2.76375 3.21547 0
M  V30 6566 C 612.877 -2.88823 1.73444 0
M  V30 6567 O 613.407 -3.839 1.18251 0
M  V30 6568 N 611.613 -2.52649 1.43586 0
M  V30 6569 H 611.16 -1.754 1.8866 0
M  V30 6570 H 611.118 -3.05403 0.746735 0
M  V30 6571 N 614.89 -1.56749 -0.16351 0
M  V30 6572 C 615.8 -2.00255 -1.2221 0
M  V30 6573 C 616.816 -0.915194 -1.47987 0
M  V30 6574 O 617.992 -1.22342 -1.59982 0
M  V30 6575 C 615.057 -2.36035 -2.53946 0
M  V30 6576 C 614.118 -3.58637 -2.35962 0
M  V30 6577 C 613.351 -3.92701 -3.61416 0
M  V30 6578 O 613.574 -3.27632 -4.66919 0
M  V30 6579 O 612.508 -4.86019 -3.55062 0
M  V30 6580 H 616.334 -2.90586 -0.882794 0
M  V30 6581 H 613.919 -1.44721 -0.370978 0
M  V30 6582 H 615.801 -2.59982 -3.31643 0
M  V30 6583 H 614.476 -1.48863 -2.8744 0
M  V30 6584 H 613.383 -3.39898 -1.5627 0
M  V30 6585 H 614.716 -4.46374 -2.0739 0
M  V30 6586 N 616.368 0.432326 -1.51554 0
M  V30 6587 C 617.331 1.50765 -1.72634 0
M  V30 6588 C 618.331 1.49334 -0.596314 0
M  V30 6589 O 619.521 1.51268 -0.863925 0
M  V30 6590 C 616.653 2.90284 -1.7874 0
M  V30 6591 H 617.846 1.33377 -2.68609 0
M  V30 6592 H 615.399 0.661329 -1.4162 0
M  V30 6593 H 616.134 3.13071 -0.845977 0
M  V30 6594 H 615.919 2.92727 -2.6087 0
M  V30 6595 H 617.409 3.68282 -1.96871 0
M  V30 6596 N 617.846 1.41785 0.688094 0
M  V30 6597 C 619.262 1.24419 0.999608 0
M  V30 6598 C 619.462 0.138868 2.01021 0
M  V30 6599 O 618.518 -0.494283 2.47615 0
M  V30 6600 C 619.831 2.59625 1.51709 0
M  V30 6601 C 621.379 2.66869 1.63554 0
M  V30 6602 C 621.854 4.0241 2.18702 0
M  V30 6603 N 623.345 4.04295 2.26053 0
M  V30 6604 C 624.08 5.05977 2.69768 0
M  V30 6605 N 623.576 6.18047 3.13033 0
M  V30 6606 N 625.369 4.93336 2.69398 0
M  V30 6607 H 617.52 2.12392 0.0187427 0
M  V30 6608 H 619.783 0.945347 0.0708673 0
M  V30 6609 H 619.489 3.41297 0.849059 0
M  V30 6610 H 619.363 2.82628 2.49803 0
M  V30 6611 H 621.75 1.8555 2.29467 0
M  V30 6612 H 621.831 2.47668 0.639857 0
M  V30 6613 H 621.475 4.8418 1.53402 0
M  V30 6614 H 621.405 4.18955 3.19037 0
M  V30 6615 H 623.896 3.23383 1.9553 0
M  V30 6616 H 624.209 6.91498 3.45038 0
M  V30 6617 H 622.554 6.21572 3.10923 0
M  V30 6618 H 625.745 4.04865 2.34952 0
M  V30 6619 H 625.918 5.72717 3.03148 0
M  V30 6620 N 619.324 -0.923095 1.27737 0
M  V30 6621 C 620.271 -2.02432 1.1086 0
M  V30 6622 C 621.241 -1.66098 0.00835195 0
M  V30 6623 O 622.426 -1.90027 0.171542 0
M  V30 6624 C 619.566 -3.36476 0.766671 0
M  V30 6625 C 618.679 -3.85737 1.94501 0
M  V30 6626 C 617.814 -5.08249 1.54455 0
M  V30 6627 C 616.853 -5.49818 2.6901 0
M  V30 6628 N 615.99 -6.63524 2.29521 0
M  V30 6629 H 620.83 -2.16201 2.05089 0
M  V30 6630 H 618.367 -1.05909 1.02087 0
M  V30 6631 H 620.325 -4.13569 0.549223 0
M  V30 6632 H 618.955 -3.22502 -0.13867 0
M  V30 6633 H 618.007 -3.04883 2.27487 0
M  V30 6634 H 619.319 -4.12513 2.80419 0
M  V30 6635 H 618.473 -5.92857 1.28862 0
M  V30 6636 H 617.212 -4.83261 0.656534 0
M  V30 6637 H 616.217 -4.63757 2.95313 0
M  V30 6638 H 617.442 -5.76799 3.5844 0
M  V30 6639 H 615.388 -6.40185 1.43177 0
M  V30 6640 H 615.305 -6.89978 3.08977 0
M  V30 6641 H 616.573 -7.51461 2.07187 0
M  V30 6642 N 620.802 -1.09834 -1.13024 0
M  V30 6643 C 622.051 -0.831806 -1.83749 0
M  V30 6644 C 622.364 0.644763 -1.84668 0
M  V30 6645 O 623.57 1.02697 -2.51327 0
M  V30 6646 C 622.026 -1.43817 -3.29916 0
M  V30 6647 C 621.634 -2.94759 -3.37374 0
M  V30 6648 C 623.378 -1.25077 -4.05655 0
M  V30 6649 C 621.285 -3.48461 -4.77838 0
M  V30 6650 H 620.215 -0.30751 -0.688443 0
M  V30 6651 H 622.866 -1.32156 -1.27307 0
M  V30 6652 H 621.248 -0.876106 -3.86187 0
M  V30 6653 H 622.422 -3.57228 -2.91076 0
M  V30 6654 H 620.737 -3.12581 -2.75103 0
M  V30 6655 H 623.334 -1.62649 -5.09362 0
M  V30 6656 H 623.677 -0.191782 -4.15858 0
M  V30 6657 H 624.21 -1.78057 -3.55725 0
M  V30 6658 H 620.949 -4.53998 -4.72828 0
M  V30 6659 H 620.469 -2.90757 -5.24615 0
M  V30 6660 H 622.148 -3.45914 -5.46766 0
M  V30 6661 N 622.28 1.30327 -0.886154 0
M  V30 6662 C 623.213 2.26241 -0.298407 0
M  V30 6663 C 624.191 1.51839 0.581704 0
M  V30 6664 O 625.375 1.80851 0.531536 0
M  V30 6665 C 622.502 3.33768 0.575888 0
M  V30 6666 C 621.548 4.25852 -0.235057 0
M  V30 6667 S 622.381 5.10277 -1.62411 0
M  V30 6668 C 623.537 6.21313 -0.756368 0
M  V30 6669 H 623.77 2.75744 -1.11141 0
M  V30 6670 H 621.303 1.38341 -0.685651 0
M  V30 6671 H 623.261 3.96186 1.07458 0
M  V30 6672 H 621.922 2.82986 1.363 0
M  V30 6673 H 621.115 5.02143 0.432198 0
M  V30 6674 H 620.717 3.68015 -0.666409 0
M  V30 6675 H 623.009 6.77495 0.0261451 0
M  V30 6676 H 623.952 6.92226 -1.49093 0
M  V30 6677 H 624.36 5.63611 -0.316749 0
M  V30 6678 N 623.758 0.647228 1.43697 0
M  V30 6679 C 625.006 0.157876 2.01482 0
M  V30 6680 C 625.327 -1.23039 1.51282 0
M  V30 6681 O 624.597 -1.82071 0.722982 0
M  V30 6682 H 623.177 0.0553745 0.744945 0
M  V30 6683 H 625.839 0.83755 1.75986 0
M  V30 6684 H 624.935 0.137895 3.11795 0
M  V30 6685 N 625.236 -1.5273 0.388769 0
M  V30 6686 C 626.199 -2.25043 -0.434544 0
M  V30 6687 C 627.199 -1.26661 -0.990644 0
M  V30 6688 O 628.389 -1.50762 -0.872731 0
M  V30 6689 C 625.521 -3.00507 -1.60961 0
M  V30 6690 H 626.714 -2.99242 0.198549 0
M  V30 6691 H 624.267 -1.55664 0.140875 0
M  V30 6692 H 625.002 -2.30607 -2.28015 0
M  V30 6693 H 624.787 -3.72716 -1.21757 0
M  V30 6694 H 626.277 -3.55413 -2.19251 0
M  V30 6695 N 626.714 -0.118576 -1.57153 0
M  V30 6696 C 627.647 0.869046 -2.11004 0
M  V30 6697 C 628.625 1.26115 -1.02634 0
M  V30 6698 O 629.809 1.36228 -1.30285 0
M  V30 6699 C 626.936 2.16297 -2.6064 0
M  V30 6700 C 625.982 1.91896 -3.80891 0
M  V30 6701 S 626.815 1.13562 -5.2332 0
M  V30 6702 C 627.971 2.44135 -5.76324 0
M  V30 6703 H 628.204 0.411005 -2.94445 0
M  V30 6704 H 625.737 0.0951891 -1.54106 0
M  V30 6705 H 627.695 2.90642 -2.89892 0
M  V30 6706 H 626.356 2.59219 -1.77382 0
M  V30 6707 H 625.549 2.8777 -4.13768 0
M  V30 6708 H 625.151 1.25672 -3.52253 0
M  V30 6709 H 627.443 3.39976 -5.86022 0
M  V30 6710 H 628.386 2.15803 -6.74414 0
M  V30 6711 H 628.794 2.53483 -5.04387 0
M  V30 6712 N 628.193 1.56834 0.155195 0
M  V30 6713 C 629.439 1.83169 0.870467 0
M  V30 6714 C 629.772 0.698929 1.81187 0
M  V30 6715 O 629.047 -0.298035 1.92203 0
M  V30 6716 C 629.33 3.19965 1.65211 0
M  V30 6717 C 629.183 4.43792 0.732744 0
M  V30 6718 C 630.502 3.53885 2.61636 0
M  V30 6719 H 627.621 0.666288 0.315006 0
M  V30 6720 H 630.263 1.89513 0.135988 0
M  V30 6721 H 628.413 3.14687 2.27825 0
M  V30 6722 H 630.085 4.61148 0.118236 0
M  V30 6723 H 628.328 4.3378 0.0417906 0
M  V30 6724 H 628.999 5.36095 1.31552 0
M  V30 6725 H 631.475 3.5972 2.09143 0
M  V30 6726 H 630.351 4.50648 3.13381 0
M  V30 6727 H 630.612 2.79418 3.42605 0
M  V30 6728 N 629.671 -0.424282 1.51781 0
M  V30 6729 C 630.603 -1.53457 1.70246 0
M  V30 6730 C 631.616 -1.52004 0.582967 0
M  V30 6731 O 632.805 -1.56544 0.857683 0
M  V30 6732 C 629.905 -2.92368 1.71389 0
M  V30 6733 C 629.078 -3.1818 3.00133 0
M  V30 6734 C 628.137 -4.36884 2.9329 0
M  V30 6735 O 627.163 -4.34901 3.67219 0
M  V30 6736 N 628.365 -5.4117 2.10036 0
M  V30 6737 H 631.13 -1.38017 2.66029 0
M  V30 6738 H 628.691 -0.613394 1.4983 0
M  V30 6739 H 630.683 -3.6982 1.64362 0
M  V30 6740 H 629.253 -3.0134 0.831449 0
M  V30 6741 H 628.473 -2.28908 3.20928 0
M  V30 6742 H 629.761 -3.32261 3.85331 0
M  V30 6743 H 629.159 -5.45623 1.49373 0
M  V30 6744 H 627.716 -6.17425 2.08878 0
M  V30 6745 N 631.149 -1.42148 -0.680565 0
M  V30 6746 C 632.398 -1.41604 -1.43636 0
M  V30 6747 C 632.711 -0.0337887 -1.95571 0
M  V30 6748 O 633.917 0.0942588 -2.71336 0
M  V30 6749 C 632.373 -2.49056 -2.59806 0
M  V30 6750 C 631.981 -3.9326 -2.14594 0
M  V30 6751 C 633.725 -2.5767 -3.37352 0
M  V30 6752 C 631.632 -4.92232 -3.27813 0
M  V30 6753 H 630.562 -0.526656 -0.539583 0
M  V30 6754 H 633.213 -1.68033 -0.737369 0
M  V30 6755 H 631.595 -2.15782 -3.32045 0
M  V30 6756 H 632.769 -4.35858 -1.49546 0
M  V30 6757 H 631.084 -3.88443 -1.50002 0
M  V30 6758 H 633.681 -3.28794 -4.21662 0
M  V30 6759 H 634.024 -1.61837 -3.83555 0
M  V30 6760 H 634.557 -2.90109 -2.72179 0
M  V30 6761 H 631.296 -5.89522 -2.86607 0
M  V30 6762 H 630.816 -4.5427 -3.91661 0
M  V30 6763 H 632.495 -5.13684 -3.93367 0
M  V30 6764 N 632.627 0.916307 -1.28225 0
M  V30 6765 C 633.876 1.65975 -1.14608 0
M  V30 6766 C 634.189 1.93204 0.305191 0
M  V30 6767 O 635.395 2.65611 0.562432 0
M  V30 6768 C 633.851 2.98989 -2.00333 0
M  V30 6769 C 633.459 2.79417 -3.50186 0
M  V30 6770 C 635.203 3.76856 -1.95397 0
M  V30 6771 C 633.11 4.08056 -4.28071 0
M  V30 6772 H 632.04 0.622587 -0.425324 0
M  V30 6773 H 634.691 1.01705 -1.52736 0
M  V30 6774 H 633.073 3.6438 -1.5506 0
M  V30 6775 H 634.247 2.22723 -4.034 0
M  V30 6776 H 632.562 2.14966 -3.56621 0
M  V30 6777 H 635.159 4.72203 -2.50856 0
M  V30 6778 H 635.502 4.05776 -0.930137 0
M  V30 6779 H 636.035 3.1828 -2.38626 0
M  V30 6780 H 632.774 3.8431 -5.31024 0
M  V30 6781 H 632.294 4.64371 -3.79631 0
M  V30 6782 H 633.973 4.76333 -4.37854 0
M  V30 6783 N 634.105 1.10431 1.1244 0
M  V30 6784 C 635.333 0.868872 1.87772 0
M  V30 6785 C 635.748 -0.580645 1.7965 0
M  V30 6786 O 635.105 -1.40031 1.17036 0
M  V30 6787 C 635.156 1.30855 3.36986 0
M  V30 6788 O 634.877 2.70123 3.44914 0
M  V30 6789 C 636.378 1.107 4.29256 0
M  V30 6790 H 633.598 0.311868 0.59412 0
M  V30 6791 H 636.142 1.46897 1.42273 0
M  V30 6792 H 634.297 0.752126 3.80029 0
M  V30 6793 H 634.711 2.88923 4.37748 0
M  V30 6794 H 636.185 1.46378 5.32238 0
M  V30 6795 H 636.662 0.0456228 4.39176 0
M  V30 6796 H 637.268 1.64988 3.91994 0
M  V30 6797 N 635.583 -1.29855 0.893053 0
M  V30 6798 C 636.813 -1.99686 0.530019 0
M  V30 6799 C 637.221 -1.67066 -0.888012 0
M  V30 6800 O 636.564 -0.908366 -1.5967 0
M  V30 6801 C 636.626 -3.53855 0.63457 0
M  V30 6802 C 636.29 -4.10013 2.01837 0
M  V30 6803 C 637.287 -4.25406 2.98874 0
M  V30 6804 C 634.972 -4.45202 2.32595 0
M  V30 6805 C 636.966 -4.7521 4.24799 0
M  V30 6806 C 634.653 -4.94704 3.58763 0
M  V30 6807 C 635.651 -5.09662 4.5468 0
M  V30 6808 O 635.339 -5.58093 5.78608 0
M  V30 6809 H 635.071 -0.644913 0.20264 0
M  V30 6810 H 637.625 -1.66518 1.20253 0
M  V30 6811 H 635.855 -3.86583 -0.0949477 0
M  V30 6812 H 637.544 -4.04922 0.281648 0
M  V30 6813 H 638.31 -3.98515 2.76425 0
M  V30 6814 H 634.189 -4.32822 1.58701 0
M  V30 6815 H 637.733 -4.86801 4.99671 0
M  V30 6816 H 633.63 -5.21032 3.81046 0
M  V30 6817 H 634.398 -5.7642 5.81104 0
M  V30 6818 N 637.061 -0.65484 -1.43351 0
M  V30 6819 C 638.477 -0.32255 -1.56307 0
M  V30 6820 C 638.677 1.17324 -1.63821 0
M  V30 6821 O 637.733 1.95813 -1.59417 0
M  V30 6822 C 639.046 -1.03533 -2.82314 0
M  V30 6823 C 640.594 -1.01574 -2.9606 0
M  V30 6824 C 641.069 -1.70945 -4.24902 0
M  V30 6825 N 642.56 -1.67716 -4.3177 0
M  V30 6826 C 643.295 -2.18265 -5.30234 0
M  V30 6827 N 642.791 -2.7711 -6.34966 0
M  V30 6828 N 644.584 -2.08756 -5.21898 0
M  V30 6829 H 636.735 -1.62549 -1.36717 0
M  V30 6830 H 638.998 -0.683676 -0.656727 0
M  V30 6831 H 638.704 -2.09045 -2.8283 0
M  V30 6832 H 638.578 -0.587913 -3.7259 0
M  V30 6833 H 640.965 0.0309834 -2.95084 0
M  V30 6834 H 641.046 -1.50186 -2.07069 0
M  V30 6835 H 640.69 -2.75574 -4.26639 0
M  V30 6836 H 640.62 -1.19797 -5.12793 0
M  V30 6837 H 643.111 -1.24777 -3.56706 0
M  V30 6838 H 643.424 -3.13353 -7.06421 0
M  V30 6839 H 641.769 -2.81171 -6.35585 0
M  V30 6840 H 644.96 -1.62488 -4.38994 0
M  V30 6841 H 645.133 -2.48459 -5.98475 0
M  V30 6842 N 638.539 1.52521 -0.396863 0
M  V30 6843 C 639.816 1.94112 0.240842 0
M  V30 6844 C 640.196 1.33288 1.637 0
M  V30 6845 O 639.544 0.503901 2.22875 0
M  V30 6846 C 639.754 3.48033 0.259567 0
M  V30 6847 C 641.102 4.21822 0.484866 0
M  V30 6848 O 642.126 3.54579 0.339453 0
M  V30 6849 O 640.985 5.41042 0.770412 0
M  V30 6850 H 638.079 0.812973 0.151671 0
M  V30 6851 H 640.625 1.63572 -0.451918 0
M  V30 6852 H 639.397 3.84655 -0.718078 0
M  V30 6853 H 639.02 3.84899 0.996937 0
M  V30 6854 N 640.017 0.126909 1.57088 0
M  V30 6855 C 641.264 -0.529168 1.95464 0
M  V30 6856 C 641.592 -1.6618 1.01067 0
M  V30 6857 O 640.847 -1.95667 0.0360254 0
M  V30 6858 C 641.146 -1.095 3.40212 0
M  V30 6859 C 640.812 -0.0829015 4.50824 0
M  V30 6860 C 639.474 0.195377 4.80803 0
M  V30 6861 C 641.826 0.606411 5.1766 0
M  V30 6862 C 639.154 1.16912 5.74933 0
M  V30 6863 C 641.506 1.56884 6.12838 0
M  V30 6864 C 640.17 1.85502 6.41206 0
M  V30 6865 H 639.44 -0.193636 0.715252 0
M  V30 6866 H 642.087 0.209489 1.90351 0
M  V30 6867 H 640.392 -1.91058 3.42059 0
M  V30 6868 H 642.089 -1.61087 3.67222 0
M  V30 6869 H 638.679 -0.309979 4.27478 0
M  V30 6870 H 642.863 0.404597 4.94648 0
M  V30 6871 H 638.119 1.3975 5.95214 0
M  V30 6872 H 642.293 2.10859 6.6371 0
M  V30 6873 H 639.92 2.61109 7.13951 0
M  V30 6874 N 641.495 -1.56914 -0.146875 0
M  V30 6875 C 642.425 -2.01308 -1.1831 0
M  V30 6876 C 643.406 -0.892664 -1.44795 0
M  V30 6877 O 644.591 -1.16048 -1.55713 0
M  V30 6878 C 641.721 -2.3938 -2.51624 0
M  V30 6879 C 640.675 -3.54608 -2.3966 0
M  V30 6880 C 640.001 -3.78493 -3.77686 0
M  V30 6881 C 641.301 -4.87269 -1.88058 0
M  V30 6882 H 642.995 -2.88123 -0.813964 0
M  V30 6883 H 640.541 -1.38615 -0.3901 0
M  V30 6884 H 642.494 -2.69037 -3.24341 0
M  V30 6885 H 641.218 -1.49502 -2.90373 0
M  V30 6886 H 639.877 -3.25116 -1.69396 0
M  V30 6887 H 639.525 -2.85866 -4.13871 0
M  V30 6888 H 639.225 -4.56039 -3.70543 0
M  V30 6889 H 640.749 -4.10576 -4.51951 0
M  V30 6890 H 642.163 -5.15644 -2.50568 0
M  V30 6891 H 640.56 -5.68622 -1.91805 0
M  V30 6892 H 641.63 -4.77634 -0.836277 0
M  V30 6893 N 642.974 0.416227 -1.52004 0
M  V30 6894 C 644.385 0.995319 -1.57957 0
M  V30 6895 C 644.736 1.91744 -0.415754 0
M  V30 6896 O 643.861 2.11349 0.464808 0
M  V30 6897 C 644.456 1.81191 -2.86278 0
M  V30 6898 C 643.015 2.34115 -2.94732 0
M  V30 6899 C 642.162 1.139 -2.52828 0
M  V30 6900 H 645.113 0.196716 -1.57476 0
M  V30 6901 H 645.134 2.66859 -2.71231 0
M  V30 6902 H 644.646 1.14051 -3.70963 0
M  V30 6903 H 642.747 3.04647 -2.14525 0
M  V30 6904 H 642.86 2.65466 -3.98829 0
M  V30 6905 H 641.224 1.49081 -2.06511 0
M  V30 6906 H 642.007 0.483383 -3.3988 0
M  V30 6907 N 644.452 1.42507 0.673017 0
M  V30 6908 C 645.382 1.48916 1.79851 0
M  V30 6909 C 646.363 0.345566 1.66553 0
M  V30 6910 O 647.548 0.560116 1.85947 0
M  V30 6911 C 644.678 1.39258 3.18158 0
M  V30 6912 C 643.632 2.51662 3.46194 0
M  V30 6913 C 642.958 2.27062 4.84094 0
M  V30 6914 C 644.258 3.93968 3.42909 0
M  V30 6915 H 645.952 2.43114 1.74745 0
M  V30 6916 H 643.498 1.17013 0.839288 0
M  V30 6917 H 645.451 1.42349 3.96629 0
M  V30 6918 H 644.175 0.415542 3.23946 0
M  V30 6919 H 642.834 2.47891 2.70084 0
M  V30 6920 H 642.482 1.27648 4.86534 0
M  V30 6921 H 642.182 3.02398 5.03815 0
M  V30 6922 H 643.706 2.31905 5.64847 0
M  V30 6923 H 645.12 3.99332 4.11347 0
M  V30 6924 H 643.517 4.6917 3.74165 0
M  V30 6925 H 644.587 4.20512 2.41449 0
M  V30 6926 N 645.93 -0.909495 1.28709 0
M  V30 6927 C 647.176 -1.66151 1.16283 0
M  V30 6928 C 647.509 -1.92067 -0.287069 0
M  V30 6929 O 646.784 -1.52409 -1.20837 0
M  V30 6930 C 647.067 -3.01676 1.9663 0
M  V30 6931 C 646.92 -2.82888 3.49707 0
M  V30 6932 C 648.239 -4.02274 1.78504 0
M  V30 6933 H 645.358 -0.602966 0.423793 0
M  V30 6934 H 648 -1.05418 1.58073 0
M  V30 6935 H 646.15 -3.53515 1.61119 0
M  V30 6936 H 647.822 -2.38026 3.95147 0
M  V30 6937 H 646.065 -2.17862 3.75125 0
M  V30 6938 H 646.736 -3.79147 4.01187 0
M  V30 6939 H 649.212 -3.59511 2.09503 0
M  V30 6940 H 648.088 -4.95056 2.37088 0
M  V30 6941 H 648.349 -4.35903 0.737647 0
M  V30 6942 N 647.408 -1.11026 -1.11852 0
M  V30 6943 C 648.338 -0.786812 -2.19844 0
M  V30 6944 C 649.319 0.242935 -1.68356 0
M  V30 6945 O 650.504 0.107355 -1.93903 0
M  V30 6946 C 647.634 -0.224516 -3.46574 0
M  V30 6947 C 646.588 -1.18564 -4.1125 0
M  V30 6948 C 645.914 -0.484261 -5.32503 0
M  V30 6949 C 647.214 -2.53465 -4.56676 0
M  V30 6950 H 648.908 -1.68978 -2.47158 0
M  V30 6951 H 646.454 -0.813906 -1.18792 0
M  V30 6952 H 648.407 0.0139435 -4.21398 0
M  V30 6953 H 647.131 0.713722 -3.18706 0
M  V30 6954 H 645.79 -1.40966 -3.38414 0
M  V30 6955 H 645.438 0.458646 -5.00905 0
M  V30 6956 H 645.138 -1.12526 -5.76725 0
M  V30 6957 H 646.662 -0.254492 -6.10069 0
M  V30 6958 H 648.076 -2.35177 -5.22843 0
M  V30 6959 H 646.473 -3.13507 -5.11697 0
M  V30 6960 H 647.543 -3.13008 -3.70343 0
M  V30 6961 N 648.886 1.2938 -0.899927 0
M  V30 6962 C 650.134 1.95164 -0.524924 0
M  V30 6963 C 650.455 1.71292 0.931888 0
M  V30 6964 O 649.725 1.04481 1.65712 0
M  V30 6965 H 648.305 0.722133 -0.191135 0
M  V30 6966 H 650.967 1.57628 -1.14627 0
M  V30 6967 H 650.063 3.0397 -0.707711 0
M  V30 6968 N 650.364 0.662433 1.43002 0
M  V30 6969 C 651.311 -0.0235324 2.30788 0
M  V30 6970 C 652.281 -0.805342 1.4527 0
M  V30 6971 O 653.466 -0.78009 1.74124 0
M  V30 6972 C 650.606 -0.977545 3.30965 0
M  V30 6973 C 649.719 -0.190865 4.31578 0
M  V30 6974 C 648.854 -1.13951 5.18834 0
M  V30 6975 C 647.893 -0.343796 6.11134 0
M  V30 6976 N 647.03 -1.2445 6.90982 0
M  V30 6977 H 651.87 0.730921 2.88897 0
M  V30 6978 H 649.407 0.372197 1.42313 0
M  V30 6979 H 651.365 -1.54437 3.87563 0
M  V30 6980 H 649.995 -1.69877 2.74484 0
M  V30 6981 H 649.047 0.492388 3.772 0
M  V30 6982 H 650.359 0.427464 4.96965 0
M  V30 6983 H 649.513 -1.77666 5.80103 0
M  V30 6984 H 648.252 -1.79174 4.53595 0
M  V30 6985 H 647.257 0.30665 5.48944 0
M  V30 6986 H 648.482 0.304161 6.78419 0
M  V30 6987 H 646.428 -1.88336 6.28383 0
M  V30 6988 H 646.345 -0.680959 7.52927 0
M  V30 6989 H 647.613 -1.86952 7.56749 0
M  V30 6990 N 651.842 -1.52309 0.404946 0
M  V30 6991 C 652.805 -2.25491 -0.410651 0
M  V30 6992 C 653.805 -1.27704 -0.977154 0
M  V30 6993 O 654.995 -1.51679 -0.856691 0
M  V30 6994 C 652.127 -3.02197 -1.57765 0
M  V30 6995 H 653.32 -2.99015 0.230277 0
M  V30 6996 H 650.873 -1.55506 0.157377 0
M  V30 6997 H 651.608 -2.33013 -2.25556 0
M  V30 6998 H 651.393 -3.73987 -1.17797 0
M  V30 6999 H 652.883 -3.57719 -2.15469 0
M  V30 7000 N 653.32 -0.135238 -1.57019 0
M  V30 7001 C 654.736 0.221262 -1.58059 0
M  V30 7002 C 654.936 1.65538 -1.14889 0
M  V30 7003 O 653.992 2.37985 -0.843751 0
M  V30 7004 C 655.305 -0.0268114 -3.00688 0
M  V30 7005 C 656.853 0.0378206 -3.12977 0
M  V30 7006 C 657.328 -0.182769 -4.57635 0
M  V30 7007 N 658.819 -0.129292 -4.6302 0
M  V30 7008 C 659.554 -0.274648 -5.72742 0
M  V30 7009 N 659.05 -0.477075 -6.91155 0
M  V30 7010 N 660.843 -0.213077 -5.61696 0
M  V30 7011 H 652.994 -1.07177 -1.83376 0
M  V30 7012 H 655.257 -0.423338 -0.848227 0
M  V30 7013 H 654.963 -1.01889 -3.36618 0
M  V30 7014 H 654.837 0.697863 -3.70688 0
M  V30 7015 H 657.224 1.02043 -2.76896 0
M  V30 7016 H 657.305 -0.718996 -2.45487 0
M  V30 7017 H 656.949 -1.16243 -4.94419 0
M  V30 7018 H 656.879 0.59423 -5.23237 0
M  V30 7019 H 659.37 0.0229896 -3.77893 0
M  V30 7020 H 659.683 -0.578413 -7.70632 0
M  V30 7021 H 658.028 -0.513252 -6.93102 0
M  V30 7022 H 661.219 -0.0557796 -4.68067 0
M  V30 7023 H 661.392 -0.329796 -6.4716 0
M  V30 7024 N 654.798 1.5699 0.138552 0
M  V30 7025 C 655.761 1.97984 1.15478 0
M  V30 7026 C 656.761 0.867416 1.35398 0
M  V30 7027 O 657.951 1.13387 1.32246 0
M  V30 7028 C 655.083 2.3031 2.51337 0
M  V30 7029 H 656.276 2.88953 0.802896 0
M  V30 7030 H 653.829 1.51555 0.382189 0
M  V30 7031 H 654.564 1.42159 2.91481 0
M  V30 7032 H 654.349 3.11425 2.38237 0
M  V30 7033 H 655.839 2.62834 3.24512 0
M  V30 7034 N 656.276 -0.40816 1.52223 0
M  V30 7035 C 657.692 -0.74685 1.41047 0
M  V30 7036 C 657.892 -1.94788 0.51573 0
M  V30 7037 O 656.948 -2.52494 -0.0181156 0
M  V30 7038 C 658.261 -0.999878 2.83589 0
M  V30 7039 C 659.809 -1.10253 2.92939 0
M  V30 7040 C 660.284 -1.38832 4.36451 0
M  V30 7041 N 661.775 -1.45694 4.3969 0
M  V30 7042 C 662.51 -1.69435 5.47795 0
M  V30 7043 N 662.006 -1.90774 6.66016 0
M  V30 7044 N 663.799 -1.71458 5.35312 0
M  V30 7045 H 655.95 0.382409 2.08929 0
M  V30 7046 H 658.213 0.108807 0.941735 0
M  V30 7047 H 657.919 -0.189723 3.51188 0
M  V30 7048 H 657.793 -1.91978 3.24691 0
M  V30 7049 H 660.18 -1.90328 2.2552 0
M  V30 7050 H 660.261 -0.160973 2.55293 0
M  V30 7051 H 659.905 -0.592741 5.04429 0
M  V30 7052 H 659.835 -2.34241 4.71634 0
M  V30 7053 H 662.326 -1.3099 3.54472 0
M  V30 7054 H 662.639 -2.08342 7.44186 0
M  V30 7055 H 660.984 -1.88037 6.69079 0
M  V30 7056 H 664.175 -1.54326 4.41929 0
M  V30 7057 H 664.348 -1.89621 6.19635 0
M  V30 7058 N 657.755 -1.42862 -0.66545 0
M  V30 7059 C 659.171 -1.25993 -0.979687 0
M  V30 7060 C 659.371 -0.170831 -2.00775 0
M  V30 7061 O 658.427 0.454827 -2.4837 0
M  V30 7062 C 659.74 -2.62005 -1.47559 0
M  V30 7063 C 661.288 -2.69437 -1.59288 0
M  V30 7064 C 661.763 -4.05838 -2.12272 0
M  V30 7065 N 663.254 -4.0784 -2.19592 0
M  V30 7066 C 663.989 -5.10205 -2.61684 0
M  V30 7067 N 663.485 -6.22949 -3.03161 0
M  V30 7068 N 665.278 -4.9756 -2.61516 0
M  V30 7069 H 657.429 -2.12395 0.0150493 0
M  V30 7070 H 659.692 -0.946355 -0.0558187 0
M  V30 7071 H 659.398 -3.42605 -0.794654 0
M  V30 7072 H 659.272 -2.86566 -2.45275 0
M  V30 7073 H 661.659 -1.89178 -2.26486 0
M  V30 7074 H 661.74 -2.48655 -0.600374 0
M  V30 7075 H 661.384 -4.86559 -1.4568 0
M  V30 7076 H 661.314 -4.23977 -3.12331 0
M  V30 7077 H 663.805 -3.26452 -1.90361 0
M  V30 7078 H 664.118 -6.96899 -3.33993 0
M  V30 7079 H 662.463 -6.2644 -3.00995 0
M  V30 7080 H 665.654 -4.08551 -2.28481 0
M  V30 7081 H 665.827 -5.77468 -2.93999 0
M  V30 7082 N 659.233 0.902656 -1.29189 0
M  V30 7083 C 660.461 1.68639 -1.19869 0
M  V30 7084 C 660.876 1.87254 0.241121 0
M  V30 7085 O 660.233 1.40745 1.16177 0
M  V30 7086 C 660.284 3.07251 -1.90471 0
M  V30 7087 O 660.005 2.89488 -3.28829 0
M  V30 7088 C 661.506 4.01653 -1.8759 0
M  V30 7089 H 658.726 0.526802 -0.415596 0
M  V30 7090 H 661.27 1.12901 -1.7051 0
M  V30 7091 H 659.425 3.59774 -1.43672 0
M  V30 7092 H 659.839 3.77296 -3.64346 0
M  V30 7093 H 661.313 4.96339 -2.4156 0
M  V30 7094 H 661.79 4.30881 -0.850756 0
M  V30 7095 H 662.396 3.55061 -2.34119 0
M  V30 7096 N 660.711 1.11618 1.11262 0
M  V30 7097 C 661.641 0.79846 2.19424 0
M  V30 7098 C 662.622 -0.234003 1.68483 0
M  V30 7099 O 663.807 -0.0970704 1.93957 0
M  V30 7100 C 660.937 0.242892 3.4645 0
M  V30 7101 C 659.891 1.20744 4.10615 0
M  V30 7102 C 659.217 0.512494 5.32238 0
M  V30 7103 C 660.517 2.55884 4.55325 0
M  V30 7104 H 662.211 1.70286 2.46258 0
M  V30 7105 H 659.757 0.820195 1.18359 0
M  V30 7106 H 661.71 0.00840447 4.21399 0
M  V30 7107 H 660.434 -0.696811 3.1908 0
M  V30 7108 H 659.093 1.42759 3.37662 0
M  V30 7109 H 658.741 -0.432075 5.01141 0
M  V30 7110 H 658.441 1.15583 5.7612 0
M  V30 7111 H 659.965 0.286842 6.09926 0
M  V30 7112 H 661.379 2.37946 5.21588 0
M  V30 7113 H 659.776 3.16216 5.10027 0
M  V30 7114 H 660.846 3.14968 3.68678 0
M  V30 7115 N 662.189 -1.289 0.906776 0
M  V30 7116 C 663.437 -1.94883 0.535266 0
M  V30 7117 C 663.758 -1.71784 -0.922791 0
M  V30 7118 O 663.028 -1.05359 -1.65156 0
M  V30 7119 H 661.608 -0.721109 0.194962 0
M  V30 7120 H 664.27 -1.57018 1.15461 0
M  V30 7121 H 663.366 -3.03591 0.723821 0
M  V30 7122 N 663.667 -0.670007 -1.42649 0
M  V30 7123 C 664.617 0.0339546 -2.27975 0
M  V30 7124 C 665.601 0.778295 -1.40824 0
M  V30 7125 O 666.793 0.657997 -1.64315 0
M  V30 7126 C 663.922 0.987899 -3.28779 0
M  V30 7127 C 663.008 0.241153 -4.23414 0
M  V30 7128 N 663.399 -0.751392 -5.00188 0
M  V30 7129 C 661.697 0.480269 -4.43407 0
M  V30 7130 C 662.398 -1.19615 -5.69269 0
M  V30 7131 N 661.374 -0.527045 -5.41039 0
M  V30 7132 H 665.176 -0.727425 -2.84756 0
M  V30 7133 H 662.69 -0.498673 -1.54554 0
M  V30 7134 H 664.687 1.50716 -3.88703 0
M  V30 7135 H 663.347 1.74916 -2.73559 0
M  V30 7136 H 664.358 -1.13075 -5.05405 0
M  V30 7137 H 661.035 1.2214 -3.99234 0
M  V30 7138 H 662.425 -2.01836 -6.40868 0
M  V30 7139 N 665.145 1.52092 -0.413018 0
M  V30 7140 C 666.375 2.05974 0.160648 0
M  V30 7141 C 666.783 1.28267 1.39084 0
M  V30 7142 O 666.126 0.328805 1.80733 0
M  V30 7143 C 666.188 3.54918 0.572169 0
M  V30 7144 C 665.852 4.53705 -0.547826 0
M  V30 7145 C 666.849 5.00342 -1.41259 0
M  V30 7146 C 664.534 4.97089 -0.721627 0
M  V30 7147 C 666.528 5.89011 -2.43607 0
M  V30 7148 C 664.215 5.85554 -1.74841 0
M  V30 7149 C 665.213 6.3141 -2.60403 0
M  V30 7150 O 664.901 7.18123 -3.61323 0
M  V30 7151 H 664.633 0.675636 0.0221936 0
M  V30 7152 H 667.187 1.96931 -0.58373 0
M  V30 7153 H 665.417 3.61661 1.36889 0
M  V30 7154 H 667.106 3.91428 1.0742 0
M  V30 7155 H 667.872 4.67537 -1.28974 0
M  V30 7156 H 663.751 4.60954 -0.0652911 0
M  V30 7157 H 667.295 6.24725 -3.10425 0
M  V30 7158 H 663.192 6.17773 -1.87156 0
M  V30 7159 H 663.96 7.36244 -3.57613 0
M  V30 7160 N 666.623 0.143563 1.56945 0
M  V30 7161 C 668.039 -0.212877 1.58174 0
M  V30 7162 C 668.239 -1.64926 1.15766 0
M  V30 7163 O 667.295 -2.37535 0.856361 0
M  V30 7164 C 668.608 0.0427573 3.0067 0
M  V30 7165 C 670.156 -0.0212221 3.12993 0
M  V30 7166 C 670.631 0.207036 4.57532 0
M  V30 7167 N 672.122 0.153845 4.62944 0
M  V30 7168 C 672.857 0.305018 5.72588 0
M  V30 7169 N 672.353 0.513722 6.90893 0
M  V30 7170 N 674.146 0.242862 5.61575 0
M  V30 7171 H 666.297 1.08148 1.82805 0
M  V30 7172 H 668.56 0.427831 0.84597 0
M  V30 7173 H 668.266 1.03672 3.36073 0
M  V30 7174 H 668.14 -0.678195 3.71053 0
M  V30 7175 H 670.527 -1.00574 2.77433 0
M  V30 7176 H 670.608 0.732004 2.45103 0
M  V30 7177 H 670.252 1.18863 4.93795 0
M  V30 7178 H 670.182 -0.566473 5.23544 0
M  V30 7179 H 672.673 -0.00294866 3.779 0
M  V30 7180 H 672.986 0.619273 7.70315 0
M  V30 7181 H 671.331 0.550001 6.9282 0
M  V30 7182 H 674.522 0.0806015 4.68031 0
M  V30 7183 H 674.695 0.364112 6.46976 0
M  V30 7184 N 668.101 -1.57061 -0.130224 0
M  V30 7185 C 669.349 -1.83893 -0.838313 0
M  V30 7186 C 669.67 -0.727046 -1.80939 0
M  V30 7187 O 668.94 0.249927 -1.94299 0
M  V30 7188 H 667.52 -0.67846 -0.312573 0
M  V30 7189 H 670.182 -1.94529 -0.120224 0
M  V30 7190 H 669.278 -2.79419 -1.39038 0
M  V30 7191 N 669.579 0.400081 -1.52437 0
M  V30 7192 C 670.809 1.16598 -1.70553 0
M  V30 7193 C 671.217 1.8451 -0.418665 0
M  V30 7194 O 670.56 1.73069 0.615855 0
M  V30 7195 C 670.622 2.26517 -2.7916 0
M  V30 7196 C 670.286 1.78666 -4.20628 0
M  V30 7197 C 671.283 1.26946 -5.04163 0
M  V30 7198 C 668.968 1.85225 -4.66902 0
M  V30 7199 C 670.962 0.824187 -6.32049 0
M  V30 7200 C 668.649 1.40309 -5.94774 0
M  V30 7201 C 669.647 0.889922 -6.77178 0
M  V30 7202 O 669.335 0.447281 -8.02655 0
M  V30 7203 H 669.067 0.356023 -0.574651 0
M  V30 7204 H 671.621 0.475598 -1.99818 0
M  V30 7205 H 669.851 2.98946 -2.45292 0
M  V30 7206 H 671.54 2.88237 -2.85787 0
M  V30 7207 H 672.306 1.21244 -4.69601 0
M  V30 7208 H 668.185 2.24111 -4.02859 0
M  V30 7209 H 671.729 0.422958 -6.96317 0
M  V30 7210 H 667.626 1.45693 -6.28843 0
M  V30 7211 H 668.394 0.569768 -8.16514 0
M  V30 7212 N 671.057 1.43213 0.657864 0
M  V30 7213 C 672.297 1.46083 1.42965 0
M  V30 7214 C 672.661 0.0809712 1.91829 0
M  V30 7215 O 673.862 -0.0156305 2.68795 0
M  V30 7216 C 672.133 2.47044 2.58271 0
M  V30 7217 S 673.692 2.68753 3.46868 0
M  V30 7218 H 670.51 0.517015 0.488074 0
M  V30 7219 H 673.112 1.79945 0.764213 0
M  V30 7220 H 671.816 3.46044 2.20639 0
M  V30 7221 H 671.347 2.14665 3.2967 0
M  V30 7222 H 673.362 1.98329 4.54841 0
M  V30 7223 N 672.536 -0.895792 1.29666 0
M  V30 7224 C 673.761 -1.68528 1.20885 0
M  V30 7225 C 674.186 -1.8673 -0.226595 0
M  V30 7226 O 673.544 -1.39044 -1.16347 0
M  V30 7227 C 673.592 -3.04512 1.93144 0
M  V30 7228 O 672.696 -3.92963 1.25115 0
M  V30 7229 H 672.037 -0.515371 0.418675 0
M  V30 7230 H 674.567 -1.11878 1.71302 0
M  V30 7231 H 674.577 -3.54628 2.0175 0
M  V30 7232 H 673.252 -2.90582 2.97548 0
M  V30 7233 H 671.829 -3.51399 1.24794 0
M  V30 7234 N 674.014 -1.12206 -1.10668 0
M  V30 7235 C 674.962 -0.782918 -2.19028 0
M  V30 7236 C 675.956 0.229175 -1.67843 0
M  V30 7237 O 677.162 0.0876295 -1.79787 0
M  V30 7238 H 673.537 -0.235339 -0.714227 0
M  V30 7239 H 675.508 -1.70527 -2.44874 0
M  V30 7240 C 674.257 -0.25116 -3.46792 0
M  V30 7241 H 673.58 -1.02123 -3.86537 0
M  V30 7242 H 675.02 -0.0521409 -4.23968 0
M  V30 7243 C 673.479 1.02037 -3.21076 0
M  V30 7244 O 674.009 2.09862 -3.42522 0
M  V30 7245 N 672.215 0.946348 -2.74759 0
M  V30 7246 H 671.762 0.068777 -2.57508 0
M  V30 7247 H 671.72 1.79775 -2.57931 0
M  V30 7248 N 675.492 1.28418 -0.913599 0
M  V30 7249 C 676.738 1.9527 -0.547484 0
M  V30 7250 C 677.071 1.71745 0.906486 0
M  V30 7251 O 676.346 1.03834 1.64465 0
M  V30 7252 C 676.629 3.49748 -0.857205 0
M  V30 7253 C 676.482 3.82675 -2.3639 0
M  V30 7254 C 677.801 4.3868 -0.353258 0
M  V30 7255 H 674.92 0.709236 -0.200381 0
M  V30 7256 H 677.562 1.51789 -1.14281 0
M  V30 7257 H 675.712 3.86915 -0.350548 0
M  V30 7258 H 677.384 3.55378 -2.94116 0
M  V30 7259 H 675.627 3.29724 -2.81894 0
M  V30 7260 H 676.298 4.90547 -2.53115 0
M  V30 7261 H 678.774 4.08584 -0.787288 0
M  V30 7262 H 677.65 5.45621 -0.599049 0
M  V30 7263 H 677.911 4.35753 0.746413 0
M  V30 7264 N 676.97 0.677563 1.42291 0
M  V30 7265 C 678.247 0.129803 1.95169 0
M  V30 7266 C 678.627 -1.35605 1.61786 0
M  V30 7267 O 677.975 -2.09361 0.915444 0
M  V30 7268 C 678.185 0.401889 3.46678 0
M  V30 7269 C 679.533 0.319889 4.23393 0
M  V30 7270 O 680.557 0.33579 3.54614 0
M  V30 7271 O 679.416 0.264459 5.4586 0
M  V30 7272 H 676.51 0.00447433 0.826988 0
M  V30 7273 H 679.056 0.752483 1.52105 0
M  V30 7274 H 677.828 1.43108 3.64192 0
M  V30 7275 H 677.451 -0.252662 3.96796 0
M  V30 7276 N 678.448 -1.51871 0.421078 0
M  V30 7277 C 679.859 -1.86644 -0.0457991 0
M  V30 7278 C 680.21 -1.33919 -1.43388 0
M  V30 7279 O 679.335 -0.683316 -2.05328 0
M  V30 7280 C 679.93 -3.38681 -0.0898844 0
M  V30 7281 C 678.489 -3.73049 -0.501127 0
M  V30 7282 C 677.636 -2.75485 0.316723 0
M  V30 7283 H 680.587 -1.45327 0.637635 0
M  V30 7284 H 680.608 -3.69636 -0.902734 0
M  V30 7285 H 680.12 -3.77025 0.920513 0
M  V30 7286 H 678.221 -3.40288 -1.51773 0
M  V30 7287 H 678.334 -4.78512 -0.237217 0
M  V30 7288 H 676.698 -2.53725 -0.222663 0
M  V30 7289 H 677.481 -3.16671 1.32569 0
M  V30 7290 N 679.926 -0.151884 -1.56866 0
M  V30 7291 C 681.342 0.204486 -1.58285 0
M  V30 7292 C 681.542 1.6431 -1.16639 0
M  V30 7293 O 680.598 2.37077 -0.868946 0
M  V30 7294 C 681.911 -0.0587019 -3.00643 0
M  V30 7295 C 683.459 0.00462303 -3.13 0
M  V30 7296 C 683.934 -0.231297 -4.57416 0
M  V30 7297 N 685.425 -0.178394 -4.62856 0
M  V30 7298 C 686.16 -0.335379 -5.72418 0
M  V30 7299 N 685.656 -0.550355 -6.90611 0
M  V30 7300 N 687.449 -0.272641 -5.61438 0
M  V30 7301 H 679.6 -1.09116 -1.82229 0
M  V30 7302 H 681.863 -0.432311 -0.843689 0
M  V30 7303 H 681.569 -1.05453 -3.35518 0
M  V30 7304 H 681.443 0.658508 -3.71407 0
M  V30 7305 H 683.83 0.991009 -2.77962 0
M  V30 7306 H 683.911 -0.744992 -2.44711 0
M  V30 7307 H 683.555 -1.2148 -4.93158 0
M  V30 7308 H 683.485 0.5387 -5.23837 0
M  V30 7309 H 685.976 -0.0170923 -3.77896 0
M  V30 7310 H 686.289 -0.660116 -7.69976 0
M  V30 7311 H 684.634 -0.586736 -6.92519 0
M  V30 7312 H 687.825 -0.105421 -4.67981 0
M  V30 7313 H 687.998 -0.398418 -6.46774 0
M  V30 7314 N 681.404 1.57128 0.121893 0
M  V30 7315 C 682.65 1.84974 0.831418 0
M  V30 7316 C 682.983 0.737204 1.79663 0
M  V30 7317 O 682.258 -0.257199 1.92792 0
M  V30 7318 C 682.541 3.23397 1.58386 0
M  V30 7319 C 682.394 4.45246 0.638445 0
M  V30 7320 C 683.713 3.59355 2.54071 0
M  V30 7321 H 680.832 0.67282 0.300803 0
M  V30 7322 H 683.474 1.89759 0.0957587 0
M  V30 7323 H 681.624 3.19449 2.21098 0
M  V30 7324 H 683.296 4.61295 0.0203925 0
M  V30 7325 H 681.539 4.33771 -0.05023 0
M  V30 7326 H 682.21 5.38765 1.20151 0
M  V30 7327 H 684.686 3.64075 2.01465 0
M  V30 7328 H 683.562 4.57193 3.03752 0
M  V30 7329 H 683.823 2.86622 3.36601 0
M  V30 7330 N 682.882 -0.391992 1.52647 0
M  V30 7331 C 683.845 -1.46135 1.7657 0
M  V30 7332 C 684.845 -1.47701 0.635698 0
M  V30 7333 O 686.035 -1.48924 0.903728 0
M  V30 7334 C 683.167 -2.85443 1.86374 0
M  V30 7335 H 684.36 -1.26208 2.72051 0
M  V30 7336 H 681.913 -0.623549 1.43323 0
M  V30 7337 H 682.648 -3.10718 0.928685 0
M  V30 7338 H 682.433 -2.85708 2.68539 0
M  V30 7339 H 683.923 -3.62933 2.06566 0
M  V30 7340 N 684.36 -1.4356 -0.65026 0
M  V30 7341 C 685.308 -1.49219 -1.78427 0
M  V30 7342 C 686.302 -0.365528 -1.65409 0
M  V30 7343 O 687.508 -0.539649 -1.7172 0
M  V30 7344 H 683.883 -0.467858 -0.588738 0
M  V30 7345 H 685.854 -2.44701 -1.70774 0
M  V30 7346 C 684.603 -1.43519 -3.16698 0
M  V30 7347 H 683.926 -2.2952 -3.27354 0
M  V30 7348 H 685.366 -1.5154 -3.95995 0
M  V30 7349 C 683.825 -0.153197 -3.36552 0
M  V30 7350 O 684.355 0.784317 -3.93969 0
M  V30 7351 N 682.561 -0.0624402 -2.90533 0
M  V30 7352 H 682.108 -0.826172 -2.43992 0
M  V30 7353 H 682.066 0.794616 -3.04193 0
M  V30 7354 N 685.838 0.888903 -1.30139 0
M  V30 7355 C 687.084 1.6428 -1.18912 0
M  V30 7356 C 687.417 1.92499 0.256477 0
M  V30 7357 O 686.692 1.54312 1.18397 0
M  V30 7358 C 686.975 2.9851 -2.01405 0
M  V30 7359 C 686.828 2.77288 -3.54163 0
M  V30 7360 C 688.147 3.99383 -1.84882 0
M  V30 7361 H 685.266 0.596148 -0.433333 0
M  V30 7362 H 687.908 1.0289 -1.5973 0
M  V30 7363 H 686.058 3.50907 -1.66722 0
M  V30 7364 H 687.73 2.31709 -3.98884 0
M  V30 7365 H 685.973 2.11867 -3.78543 0
M  V30 7366 H 686.644 3.72717 -4.07168 0
M  V30 7367 H 689.12 3.56132 -2.15196 0
M  V30 7368 H 687.996 4.91222 -2.44934 0
M  V30 7369 H 688.257 4.34674 -0.806902 0
M  V30 7370 N 687.317 1.12792 1.10072 0
M  V30 7371 C 688.564 0.885545 1.82111 0
M  V30 7372 C 688.892 -0.588519 1.85383 0
M  V30 7373 O 688.147 -1.45124 1.31292 0
M  V30 7374 C 688.446 1.4102 3.28403 0
M  V30 7375 C 688.112 2.89995 3.45273 0
M  V30 7376 C 686.774 3.30671 3.49585 0
M  V30 7377 C 689.126 3.85874 3.50358 0
M  V30 7378 C 686.454 4.65925 3.56553 0
M  V30 7379 C 688.806 5.20963 3.58859 0
M  V30 7380 C 687.47 5.61177 3.61437 0
M  V30 7381 H 686.74 0.324044 0.666391 0
M  V30 7382 H 689.387 1.40874 1.29718 0
M  V30 7383 H 687.692 0.807551 3.83387 0
M  V30 7384 H 689.389 1.19882 3.82661 0
M  V30 7385 H 685.979 2.57537 3.42597 0
M  V30 7386 H 690.163 3.5554 3.46273 0
M  V30 7387 H 685.419 4.96468 3.56833 0
M  V30 7388 H 689.593 5.95079 3.61738 0
M  V30 7389 H 687.22 6.6597 3.66589 0
M  V30 7390 N 688.795 -1.27931 0.920396 0
M  V30 7391 C 690.023 -1.98805 0.573087 0
M  V30 7392 C 690.438 -1.68724 -0.847201 0
M  V30 7393 O 689.795 -0.943699 -1.56207 0
M  V30 7394 C 689.846 -3.52971 0.780633 0
M  V30 7395 O 689.567 -3.81994 2.14504 0
M  V30 7396 C 691.068 -4.411 0.44105 0
M  V30 7397 H 688.288 -0.634651 0.21785 0
M  V30 7398 H 690.832 -1.62965 1.23542 0
M  V30 7399 H 688.987 -3.87048 0.165204 0
M  V30 7400 H 689.401 -4.76609 2.18962 0
M  V30 7401 H 690.875 -5.48312 0.637006 0
M  V30 7402 H 691.352 -4.34758 -0.62306 0
M  V30 7403 H 691.958 -4.12532 1.0343 0
M  V30 7404 N 690.273 -0.685099 -1.4193 0
M  V30 7405 C 691.203 -0.0273506 -2.33484 0
M  V30 7406 C 692.184 0.778366 -1.51246 0
M  V30 7407 O 693.369 0.733449 -1.79817 0
M  V30 7408 C 690.499 0.917272 -3.34968 0
M  V30 7409 C 689.453 0.21941 -4.27437 0
M  V30 7410 C 688.779 1.27768 -5.1921 0
M  V30 7411 C 690.079 -0.907894 -5.14349 0
M  V30 7412 H 691.773 -0.791994 -2.88735 0
M  V30 7413 H 689.319 -0.382308 -1.38832 0
M  V30 7414 H 691.272 1.38657 -3.97935 0
M  V30 7415 H 689.996 1.71346 -2.78043 0
M  V30 7416 H 688.655 -0.229757 -3.65879 0
M  V30 7417 H 688.303 2.06612 -4.58607 0
M  V30 7418 H 688.003 0.815803 -5.81909 0
M  V30 7419 H 689.527 1.7477 -5.85054 0
M  V30 7420 H 690.941 -0.519348 -5.70943 0
M  V30 7421 H 689.338 -1.2962 -5.85934 0
M  V30 7422 H 690.408 -1.75218 -4.52136 0
M  V30 7423 N 691.751 1.51645 -0.429126 0
M  V30 7424 C 692.714 2.26116 0.374726 0
M  V30 7425 C 693.714 1.29242 0.956714 0
M  V30 7426 O 694.904 1.53022 0.832452 0
M  V30 7427 C 692.036 3.04669 1.52937 0
M  V30 7428 H 693.229 2.9861 -0.277818 0
M  V30 7429 H 690.782 1.55236 -0.182097 0
M  V30 7430 H 691.517 2.36571 2.21821 0
M  V30 7431 H 691.302 3.75814 1.11833 0
M  V30 7432 H 692.792 3.61102 2.09751 0
M  V30 7433 N 693.229 0.160201 1.56784 0
M  V30 7434 C 694.476 -0.487588 1.96542 0
M  V30 7435 C 694.804 -1.63999 1.04569 0
M  V30 7436 O 694.059 -1.95546 0.0775211 0
M  V30 7437 C 694.358 -1.02259 3.42459 0
M  V30 7438 C 694.024 0.0127436 4.50898 0
M  V30 7439 C 692.686 0.297318 4.80281 0
M  V30 7440 C 695.038 0.716078 5.16257 0
M  V30 7441 C 692.366 1.29081 5.72324 0
M  V30 7442 C 694.718 1.69847 6.09372 0
M  V30 7443 C 693.382 1.99061 6.37127 0
M  V30 7444 H 692.652 -0.178421 0.719199 0
M  V30 7445 H 695.299 0.249818 1.89864 0
M  V30 7446 H 693.604 -1.8376 3.46034 0
M  V30 7447 H 695.301 -1.53261 3.70556 0
M  V30 7448 H 691.891 -0.219235 4.28039 0
M  V30 7449 H 696.075 0.509428 4.93679 0
M  V30 7450 H 691.331 1.52344 5.92116 0
M  V30 7451 H 695.505 2.2489 6.59088 0
M  V30 7452 H 693.132 2.76194 7.08252 0
M  V30 7453 N 694.707 -1.5719 -0.113559 0
M  V30 7454 C 696.123 -1.52607 -0.467253 0
M  V30 7455 C 696.323 -0.874058 -1.81556 0
M  V30 7456 O 695.379 -0.458703 -2.48299 0
M  V30 7457 C 696.692 -2.97363 -0.446736 0
M  V30 7458 C 698.24 -3.08482 -0.529903 0
M  V30 7459 C 698.715 -4.54809 -0.539721 0
M  V30 7460 N 700.206 -4.59284 -0.601005 0
M  V30 7461 C 700.941 -5.69927 -0.630138 0
M  V30 7462 N 700.437 -6.90051 -0.616589 0
M  V30 7463 N 702.23 -5.5805 -0.673558 0
M  V30 7464 H 694.381 -1.97958 0.769819 0
M  V30 7465 H 696.644 -0.90428 0.284572 0
M  V30 7466 H 696.35 -3.48458 0.47643 0
M  V30 7467 H 696.224 -3.55086 -1.27254 0
M  V30 7468 H 698.611 -2.57386 -1.44349 0
M  V30 7469 H 698.692 -2.53744 0.323695 0
M  V30 7470 H 698.336 -5.06552 0.369843 0
M  V30 7471 H 698.266 -5.07364 -1.41028 0
M  V30 7472 H 700.757 -3.72822 -0.617419 0
M  V30 7473 H 701.07 -7.70132 -0.641592 0
M  V30 7474 H 699.415 -6.92543 -0.583927 0
M  V30 7475 H 702.606 -4.63112 -0.681544 0
M  V30 7476 H 702.779 -6.44286 -0.692794 0
M  V30 7477 N 696.185 0.383891 -1.52853 0
M  V30 7478 C 697.432 1.12842 -1.68146 0
M  V30 7479 C 697.76 1.89823 -0.423954 0
M  V30 7480 O 697.015 1.86475 0.593765 0
M  V30 7481 C 697.314 2.12881 -2.87082 0
M  V30 7482 C 696.98 1.52519 -4.24322 0
M  V30 7483 C 695.642 1.35783 -4.61645 0
M  V30 7484 C 697.994 1.0868 -5.09743 0
M  V30 7485 C 695.322 0.737643 -5.82044 0
M  V30 7486 C 697.674 0.480699 -6.30771 0
M  V30 7487 C 696.338 0.300681 -6.66822 0
M  V30 7488 H 695.608 0.412917 -0.615289 0
M  V30 7489 H 698.255 0.412416 -1.87006 0
M  V30 7490 H 696.56 2.90719 -2.62659 0
M  V30 7491 H 698.257 2.70408 -2.96109 0
M  V30 7492 H 694.847 1.66534 -3.94923 0
M  V30 7493 H 699.031 1.2041 -4.81472 0
M  V30 7494 H 694.287 0.586415 -6.08581 0
M  V30 7495 H 698.461 0.132733 -6.96273 0
M  V30 7496 H 696.088 -0.181966 -7.59982 0
M  V30 7497 N 697.663 1.43903 0.642637 0
M  V30 7498 C 698.911 1.45791 1.39962 0
M  V30 7499 C 699.232 0.0873144 1.94804 0
M  V30 7500 O 698.502 -0.878825 1.75081 0
M  V30 7501 H 697.082 0.536797 0.519479 0
M  V30 7502 H 699.744 1.7959 0.757189 0
M  V30 7503 H 698.84 2.17665 2.2367 0
M  V30 7504 N 699.141 -0.881989 1.30609 0
M  V30 7505 C 700.091 -1.97539 1.13852 0
M  V30 7506 C 701.075 -1.60813 0.0528428 0
M  V30 7507 O 702.267 -1.74827 0.276484 0
M  V30 7508 C 699.396 -3.32977 0.835519 0
M  V30 7509 C 698.482 -3.76008 1.96159 0
M  V30 7510 N 698.873 -3.91109 3.20729 0
M  V30 7511 C 697.171 -4.05427 1.85863 0
M  V30 7512 C 697.872 -4.27661 3.94311 0
M  V30 7513 N 696.848 -4.37686 3.22385 0
M  V30 7514 H 700.65 -2.07309 2.08327 0
M  V30 7515 H 698.164 -1.072 1.21992 0
M  V30 7516 H 700.161 -4.11041 0.696477 0
M  V30 7517 H 698.821 -3.24542 -0.101135 0
M  V30 7518 H 699.832 -3.7616 3.55984 0
M  V30 7519 H 696.509 -4.05449 0.995847 0
M  V30 7520 H 697.899 -4.47042 5.01601 0
M  V30 7521 N 700.619 -1.13374 -1.09472 0
M  V30 7522 C 701.847 -0.918351 -1.85402 0
M  V30 7523 C 702.262 0.53281 -1.81126 0
M  V30 7524 O 701.619 1.36879 -1.20708 0
M  V30 7525 C 701.67 -1.39743 -3.33398 0
M  V30 7526 O 701.391 -2.79172 -3.37631 0
M  V30 7527 C 702.892 -1.22042 -4.2617 0
M  V30 7528 H 700.112 -0.327511 -0.585643 0
M  V30 7529 H 702.656 -1.50617 -1.38328 0
M  V30 7530 H 700.811 -0.852619 -3.77901 0
M  V30 7531 H 701.225 -3.00428 -4.29934 0
M  V30 7532 H 702.699 -1.60438 -5.2817 0
M  V30 7533 H 703.176 -0.162047 -4.38901 0
M  V30 7534 H 703.782 -1.75323 -3.87482 0
M  V30 7535 N 702.098 1.27442 -0.927168 0
M  V30 7536 C 703.031 2.25177 -0.370232 0
M  V30 7537 C 704.009 1.53612 0.533103 0
M  V30 7538 O 705.193 1.8245 0.47373 0
M  V30 7539 C 702.32 3.35431 0.469411 0
M  V30 7540 C 701.366 4.24888 -0.370419 0
M  V30 7541 S 702.199 5.04852 -1.78562 0
M  V30 7542 C 703.355 6.18592 -0.953651 0
M  V30 7543 H 703.588 2.72069 -1.19858 0
M  V30 7544 H 701.121 1.36089 -0.729316 0
M  V30 7545 H 703.079 3.99404 0.947992 0
M  V30 7546 H 701.74 2.87179 1.27228 0
M  V30 7547 H 700.933 5.03264 0.272226 0
M  V30 7548 H 700.535 3.65709 -0.783153 0
M  V30 7549 H 702.827 6.77235 -0.189408 0
M  V30 7550 H 703.77 6.87132 -1.7104 0
M  V30 7551 H 704.178 5.62318 -0.495897 0
M  V30 7552 N 703.576 0.692616 1.41565 0
M  V30 7553 C 704.506 0.0397325 2.33466 0
M  V30 7554 C 705.487 -0.770334 1.51657 0
M  V30 7555 O 706.672 -0.723903 1.80203 0
M  V30 7556 C 703.802 -0.899495 3.3545 0
M  V30 7557 C 702.756 -0.196738 4.27548 0
M  V30 7558 C 702.082 -1.25012 5.19881 0
M  V30 7559 C 703.382 0.935158 5.1386 0
M  V30 7560 H 705.076 0.807296 2.88311 0
M  V30 7561 H 702.622 0.389665 1.38628 0
M  V30 7562 H 704.575 -1.36545 3.98665 0
M  V30 7563 H 703.299 -1.69869 2.78948 0
M  V30 7564 H 701.958 0.249158 3.65752 0
M  V30 7565 H 701.606 -2.04177 4.59696 0
M  V30 7566 H 701.306 -0.784931 5.82334 0
M  V30 7567 H 702.83 -1.71665 5.85972 0
M  V30 7568 H 704.244 0.549619 5.70659 0
M  V30 7569 H 702.641 1.32726 5.85238 0
M  V30 7570 H 703.711 1.77613 4.512 0
M  V30 7571 N 705.054 -1.51416 0.437162 0
M  V30 7572 C 705.986 -2.255 -0.410171 0
M  V30 7573 C 706.999 -1.29511 -0.986444 0
M  V30 7574 O 708.188 -1.55266 -0.880614 0
M  V30 7575 C 705.288 -2.99511 -1.58575 0
M  V30 7576 C 704.461 -4.22595 -1.12839 0
M  V30 7577 C 703.52 -4.79187 -2.17407 0
M  V30 7578 O 702.546 -5.4103 -1.76849 0
M  V30 7579 N 703.748 -4.63204 -3.49889 0
M  V30 7580 H 706.513 -2.98856 0.224783 0
M  V30 7581 H 704.074 -1.59699 0.266041 0
M  V30 7582 H 706.066 -3.34258 -2.28152 0
M  V30 7583 H 704.636 -2.29167 -2.12606 0
M  V30 7584 H 703.856 -3.93344 -0.259695 0
M  V30 7585 H 705.144 -5.02468 -0.800196 0
M  V30 7586 H 704.542 -4.13945 -3.85573 0
M  V30 7587 H 703.099 -5.02313 -4.15361 0
M  V30 7588 N 706.532 -0.168513 -1.56696 0
M  V30 7589 C 707.943 0.348694 -1.83415 0
M  V30 7590 C 708.294 1.63257 -1.0882 0
M  V30 7591 O 707.419 2.13707 -0.340333 0
M  V30 7592 C 708.014 0.639423 -3.32711 0
M  V30 7593 C 706.573 1.10108 -3.59935 0
M  V30 7594 C 705.72 0.135464 -2.76969 0
M  V30 7595 H 708.671 -0.392829 -1.53761 0
M  V30 7596 H 708.692 1.49179 -3.50037 0
M  V30 7597 H 708.204 -0.295173 -3.86976 0
M  V30 7598 H 706.305 2.05088 -3.11079 0
M  V30 7599 H 706.418 1.01218 -4.68286 0
M  V30 7600 H 704.782 0.632286 -2.46727 0
M  V30 7601 H 705.565 -0.793104 -3.34013 0
M  V30 7602 N 708.01 1.57248 0.105221 0
M  V30 7603 C 709.257 1.8557 0.810552 0
M  V30 7604 C 709.585 0.755595 1.79223 0
M  V30 7605 O 708.84 -0.251788 1.94073 0
M  V30 7606 C 709.139 3.20437 1.58287 0
M  V30 7607 C 708.805 4.44716 0.744235 0
M  V30 7608 C 707.467 4.78458 0.513013 0
M  V30 7609 C 709.819 5.20953 0.160578 0
M  V30 7610 C 707.147 5.8587 -0.311894 0
M  V30 7611 C 709.499 6.29235 -0.651596 0
M  V30 7612 C 708.163 6.615 -0.893005 0
M  V30 7613 H 707.433 0.67905 0.296602 0
M  V30 7614 H 710.08 1.91363 0.0723968 0
M  V30 7615 H 708.385 3.10283 2.39232 0
M  V30 7616 H 710.082 3.39576 2.13282 0
M  V30 7617 H 706.672 4.18287 0.934555 0
M  V30 7618 H 710.856 4.95226 0.3264 0
M  V30 7619 H 706.112 6.09286 -0.508012 0
M  V30 7620 H 710.286 6.87484 -1.11077 0
M  V30 7621 H 707.913 7.44562 -1.53401 0
M  V30 7622 N 709.488 -0.375779 1.53054 0
M  V30 7623 C 710.421 -1.48187 1.7354 0
M  V30 7624 C 711.399 -1.5177 0.583495 0
M  V30 7625 O 712.583 -1.69976 0.81488 0
M  V30 7626 C 709.71 -2.86598 1.80497 0
M  V30 7627 C 708.756 -3.00784 3.02376 0
M  V30 7628 S 709.589 -2.70601 4.62099 0
M  V30 7629 C 710.745 -4.11181 4.71891 0
M  V30 7630 H 710.978 -1.30587 2.67085 0
M  V30 7631 H 708.511 -0.569485 1.43514 0
M  V30 7632 H 710.469 -3.66353 1.85192 0
M  V30 7633 H 709.13 -3.01514 0.880217 0
M  V30 7634 H 708.323 -4.02128 3.03824 0
M  V30 7635 H 707.925 -2.28939 2.95742 0
M  V30 7636 H 710.217 -5.0529 4.51319 0
M  V30 7637 H 711.16 -4.14742 5.73929 0
M  V30 7638 H 711.568 -3.97706 4.00612 0
M  V30 7639 N 710.966 -1.44241 -0.634997 0
M  V30 7640 C 712.213 -1.46821 -1.39463 0
M  V30 7641 C 712.541 -0.0993362 -1.94246 0
M  V30 7642 O 711.796 0.898325 -1.73864 0
M  V30 7643 C 712.095 -2.47279 -2.58046 0
M  V30 7644 C 711.761 -3.92703 -2.21574 0
M  V30 7645 C 710.423 -4.32306 -2.1134 0
M  V30 7646 C 712.775 -4.84271 -1.92695 0
M  V30 7647 C 710.103 -5.61407 -1.70409 0
M  V30 7648 C 712.455 -6.13755 -1.53258 0
M  V30 7649 C 711.119 -6.52316 -1.41562 0
M  V30 7650 H 710.389 -0.537256 -0.51033 0
M  V30 7651 H 713.036 -1.77431 -0.720441 0
M  V30 7652 H 711.341 -2.10138 -3.3068 0
M  V30 7653 H 713.038 -2.46523 -3.16271 0
M  V30 7654 H 709.628 -3.61369 -2.30456 0
M  V30 7655 H 713.812 -4.54432 -1.99513 0
M  V30 7656 H 709.068 -5.90105 -1.59955 0
M  V30 7657 H 713.242 -6.84168 -1.29949 0
M  V30 7658 H 710.869 -7.52255 -1.09619 0
M  V30 7659 N 712.444 0.87505 -1.31075 0
M  V30 7660 C 713.86 1.15997 -1.09622 0
M  V30 7661 C 714.06 2.01036 0.136611 0
M  V30 7662 O 713.116 2.38559 0.827397 0
M  V30 7663 C 714.429 1.85702 -2.36506 0
M  V30 7664 C 715.977 1.98425 -2.42067 0
M  V30 7665 C 716.452 2.71544 -3.68819 0
M  V30 7666 N 717.943 2.79084 -3.69684 0
M  V30 7667 C 718.678 3.36259 -4.64454 0
M  V30 7668 N 718.174 3.94406 -5.69575 0
M  V30 7669 N 719.967 3.34169 -4.51982 0
M  V30 7670 H 712.118 0.308258 -2.10151 0
M  V30 7671 H 714.381 0.199145 -0.926847 0
M  V30 7672 H 714.087 1.30663 -3.26527 0
M  V30 7673 H 713.961 2.86017 -2.45915 0
M  V30 7674 H 716.348 2.5263 -1.52518 0
M  V30 7675 H 716.429 0.971682 -2.36626 0
M  V30 7676 H 716.073 2.18008 -4.58732 0
M  V30 7677 H 716.003 3.73198 -3.71525 0
M  V30 7678 H 718.494 2.3781 -2.93691 0
M  V30 7679 H 718.807 4.36129 -6.37974 0
M  V30 7680 H 717.152 3.92797 -5.73355 0
M  V30 7681 H 720.343 2.87977 -3.69035 0
M  V30 7682 H 720.516 3.78431 -5.26017 0
M  V30 7683 N 713.922 1.13953 1.08869 0
M  V30 7684 C 714.852 0.844824 2.17681 0
M  V30 7685 C 715.833 -0.198213 1.68941 0
M  V30 7686 O 717.018 -0.0559073 1.9412 0
M  V30 7687 C 714.148 0.316325 3.45856 0
M  V30 7688 C 713.102 1.29426 4.07962 0
M  V30 7689 C 712.428 0.625275 5.31031 0
M  V30 7690 C 713.728 2.65484 4.49795 0
M  V30 7691 H 715.422 1.75471 2.42591 0
M  V30 7692 H 712.968 0.845116 1.16592 0
M  V30 7693 H 714.921 0.0977876 4.21287 0
M  V30 7694 H 713.645 -0.628972 3.20486 0
M  V30 7695 H 712.304 1.49889 3.34558 0
M  V30 7696 H 711.952 -0.325678 5.01945 0
M  V30 7697 H 711.652 1.27777 5.73539 0
M  V30 7698 H 713.176 0.416152 6.0918 0
M  V30 7699 H 714.59 2.48957 5.16424 0
M  V30 7700 H 712.987 3.26963 5.03205 0
M  V30 7701 H 714.057 3.22717 3.61914 0
M  V30 7702 N 715.4 -1.26948 0.933913 0
M  V30 7703 C 716.677 -1.89212 0.495784 0
M  V30 7704 C 717.057 -1.84469 -1.02637 0
M  V30 7705 O 716.405 -1.29409 -1.88323 0
M  V30 7706 C 716.615 -3.32865 1.0489 0
M  V30 7707 C 717.963 -4.09749 1.11315 0
M  V30 7708 O 718.987 -3.41905 0.998966 0
M  V30 7709 O 717.846 -5.31061 1.28983 0
M  V30 7710 H 714.94 -0.811284 0.160459 0
M  V30 7711 H 717.486 -1.35171 1.02601 0
M  V30 7712 H 716.258 -3.30642 2.09265 0
M  V30 7713 H 715.881 -3.94435 0.500692 0
M  V30 7714 N 716.879 -0.700114 -1.41195 0
M  V30 7715 C 718.104 -0.240704 -2.05998 0
M  V30 7716 C 718.529 1.10313 -1.52357 0
M  V30 7717 O 717.887 1.69154 -0.652424 0
M  V30 7718 C 717.935 -0.213783 -3.59966 0
M  V30 7719 O 717.039 0.809933 -4.04368 0
M  V30 7720 H 716.38 -0.116471 -0.653705 0
M  V30 7721 H 718.91 -0.956251 -1.80878 0
M  V30 7722 H 718.92 -0.0461852 -4.07974 0
M  V30 7723 H 717.595 -1.19454 -3.98376 0
M  V30 7724 H 716.172 0.611319 -3.67855 0
M  V30 7725 N 718.357 1.51182 -0.445186 0
M  V30 7726 C 719.289 2.25714 0.398206 0
M  V30 7727 C 720.302 1.30032 0.979562 0
M  V30 7728 O 721.491 1.55731 0.872368 0
M  V30 7729 C 718.591 3.00348 1.56985 0
M  V30 7730 C 717.764 4.23187 1.10596 0
M  V30 7731 C 716.823 4.80334 2.14863 0
M  V30 7732 O 715.849 5.4196 1.73977 0
M  V30 7733 N 717.051 4.65053 3.47427 0
M  V30 7734 H 719.816 2.98732 -0.240629 0
M  V30 7735 H 717.377 1.59556 -0.274507 0
M  V30 7736 H 719.369 3.35464 2.26376 0
M  V30 7737 H 717.939 2.30291 2.11387 0
M  V30 7738 H 717.159 3.93476 0.238832 0
M  V30 7739 H 718.447 5.02886 0.773537 0
M  V30 7740 H 717.845 4.15984 3.83372 0
M  V30 7741 H 716.402 5.04509 4.12691 0
M  V30 7742 N 719.835 0.176821 1.56605 0
M  V30 7743 C 721.065 -0.472142 2.01133 0
M  V30 7744 C 721.473 -1.56979 1.05614 0
M  V30 7745 O 720.816 -1.83632 0.0500137 0
M  V30 7746 C 720.878 -1.10547 3.42081 0
M  V30 7747 C 720.542 -0.148806 4.56758 0
M  V30 7748 C 721.539 0.634939 5.16008 0
M  V30 7749 C 719.224 -0.0430325 5.02282 0
M  V30 7750 C 721.218 1.5116 6.19217 0
M  V30 7751 C 718.905 0.83721 6.05338 0
M  V30 7752 C 719.903 1.61311 6.63677 0
M  V30 7753 O 719.591 2.47863 7.64735 0
M  V30 7754 H 719.323 -0.124725 0.664394 0
M  V30 7755 H 721.877 0.277329 2.03519 0
M  V30 7756 H 720.107 -1.90318 3.36625 0
M  V30 7757 H 721.796 -1.6572 3.70529 0
M  V30 7758 H 722.562 0.563424 4.81716 0
M  V30 7759 H 718.441 -0.636753 4.56581 0
M  V30 7760 H 721.985 2.11767 6.64681 0
M  V30 7761 H 717.882 0.909908 6.39055 0
M  V30 7762 H 718.65 2.4144 7.8208 0
M  V30 7763 N 721.313 -1.57302 -0.09688 0
M  V30 7764 C 722.729 -1.53094 -0.451041 0
M  V30 7765 C 722.929 -0.893265 -1.80618 0
M  V30 7766 O 721.985 -0.485013 -2.47798 0
M  V30 7767 C 723.298 -2.9782 -0.415172 0
M  V30 7768 C 724.846 -3.09026 -0.497155 0
M  V30 7769 C 725.321 -4.55356 -0.491452 0
M  V30 7770 N 726.812 -4.59896 -0.552258 0
M  V30 7771 C 727.547 -5.70563 -0.569654 0
M  V30 7772 N 727.043 -6.90666 -0.543365 0
M  V30 7773 N 728.836 -5.58733 -0.614331 0
M  V30 7774 H 720.987 -1.97131 0.790771 0
M  V30 7775 H 723.25 -0.901211 0.294147 0
M  V30 7776 H 722.956 -3.47933 0.513362 0
M  V30 7777 H 722.83 -3.56416 -1.23481 0
M  V30 7778 H 725.217 -2.58902 -1.41611 0
M  V30 7779 H 725.298 -2.53386 0.35059 0
M  V30 7780 H 724.942 -5.06131 0.423549 0
M  V30 7781 H 724.872 -5.08832 -1.35639 0
M  V30 7782 H 727.363 -3.73456 -0.577842 0
M  V30 7783 H 727.676 -7.70769 -0.559873 0
M  V30 7784 H 726.021 -6.93123 -0.510441 0
M  V30 7785 H 729.212 -4.63809 -0.632387 0
M  V30 7786 H 729.385 -6.44984 -0.62442 0
M  V30 7787 N 722.791 0.367657 -1.53252 0
M  V30 7788 C 723.754 1.43308 -1.78873 0
M  V30 7789 C 724.754 1.46671 -0.659115 0
M  V30 7790 O 725.944 1.47468 -0.927306 0
M  V30 7791 C 723.076 2.82442 -1.90892 0
M  V30 7792 H 724.269 1.21864 -2.74024 0
M  V30 7793 H 721.822 0.600668 -1.44297 0
M  V30 7794 H 722.557 3.09202 -0.978 0
M  V30 7795 H 722.342 2.81399 -2.73051 0
M  V30 7796 H 723.832 3.59601 -2.12314 0
M  V30 7797 N 724.269 1.44576 0.627338 0
M  V30 7798 C 725.494 1.51271 1.41887 0
M  V30 7799 C 725.919 0.139814 1.8758 0
M  V30 7800 O 725.277 -0.871746 1.58966 0
M  V30 7801 C 725.325 2.48529 2.61277 0
M  V30 7802 O 724.429 1.98944 3.61241 0
M  V30 7803 H 723.77 0.510668 0.424399 0
M  V30 7804 H 726.3 1.89746 0.765356 0
M  V30 7805 H 726.31 2.66689 3.08773 0
M  V30 7806 H 724.985 3.48249 2.27366 0
M  V30 7807 H 723.562 1.90568 3.20528 0
M  V30 7808 N 725.747 -0.868086 1.31537 0
M  V30 7809 C 726.71 -1.95703 1.19302 0
M  V30 7810 C 727.71 -1.60355 0.119612 0
M  V30 7811 O 728.9 -1.70247 0.36902 0
M  V30 7812 C 726.032 -3.30599 0.831684 0
M  V30 7813 H 727.225 -2.07982 2.16064 0
M  V30 7814 H 724.778 -1.05661 1.15176 0
M  V30 7815 H 725.513 -3.2402 -0.134694 0
M  V30 7816 H 725.298 -3.57629 1.60761 0
M  V30 7817 H 726.788 -4.10439 0.770026 0
M  V30 7818 N 727.225 -1.14528 -1.08264 0
M  V30 7819 C 728.636 -0.925261 -1.6216 0
M  V30 7820 C 728.987 0.535587 -1.88748 0
M  V30 7821 O 728.112 1.4048 -1.64604 0
M  V30 7822 C 728.707 -1.67316 -2.94603 0
M  V30 7823 C 727.266 -1.49868 -3.45278 0
M  V30 7824 C 726.413 -1.69471 -2.19487 0
M  V30 7825 H 729.364 -1.29687 -0.914707 0
M  V30 7826 H 729.385 -1.13721 -3.63109 0
M  V30 7827 H 728.897 -2.73635 -2.75219 0
M  V30 7828 H 726.998 -0.459032 -3.69762 0
M  V30 7829 H 727.111 -2.2696 -4.21931 0
M  V30 7830 H 725.475 -1.12048 -2.2873 0
M  V30 7831 H 726.258 -2.77136 -2.0261 0
M  V30 7832 N 728.703 1.26451 -0.940633 0
M  V30 7833 C 729.651 2.28389 -0.440581 0
M  V30 7834 C 730.645 1.62402 0.481859 0
M  V30 7835 O 731.851 1.76361 0.360132 0
M  V30 7836 H 728.226 0.741716 -0.123938 0
M  V30 7837 H 730.197 2.67967 -1.31288 0
M  V30 7838 C 728.946 3.46576 0.279364 0
M  V30 7839 H 728.269 3.97574 -0.421274 0
M  V30 7840 H 729.709 4.19826 0.59348 0
M  V30 7841 C 728.168 3.01815 1.49697 0
M  V30 7842 O 728.698 3.06607 2.59529 0
M  V30 7843 N 726.904 2.57163 1.35334 0
M  V30 7844 H 726.451 2.53464 0.459743 0
M  V30 7845 H 726.409 2.27578 2.16923 0
M  V30 7846 N 730.181 0.707592 1.40822 0
M  V30 7847 C 731.406 0.251626 2.05868 0
M  V30 7848 C 731.831 -1.09503 1.5294 0
M  V30 7849 O 731.189 -1.68806 0.661385 0
M  V30 7850 C 731.237 0.23287 3.59847 0
M  V30 7851 O 730.341 -0.788477 4.04792 0
M  V30 7852 H 729.682 0.119936 0.653078 0
M  V30 7853 H 732.212 0.96583 1.80369 0
M  V30 7854 H 732.222 0.0678204 4.07944 0
M  V30 7855 H 730.897 1.21565 3.97737 0
M  V30 7856 H 729.474 -0.591802 3.68174 0
M  V30 7857 N 731.66 -1.50943 0.453197 0
M  V30 7858 C 732.61 -2.25003 -0.368467 0
M  V30 7859 C 733.594 -1.27864 -0.976714 0
M  V30 7860 O 734.786 -1.52867 -0.892228 0
M  V30 7861 C 731.915 -3.10701 -1.46014 0
M  V30 7862 C 731.001 -4.15278 -0.860506 0
M  V30 7863 N 731.392 -5.05799 0.00849611 0
M  V30 7864 C 729.69 -4.31542 -1.1264 0
M  V30 7865 C 730.391 -5.80664 0.346951 0
M  V30 7866 N 729.367 -5.42912 -0.273426 0
M  V30 7867 H 733.169 -2.92352 0.301246 0
M  V30 7868 H 730.683 -1.60203 0.266233 0
M  V30 7869 H 732.68 -3.62348 -2.06179 0
M  V30 7870 H 731.34 -2.44898 -2.13202 0
M  V30 7871 H 732.351 -5.16533 0.376077 0
M  V30 7872 H 729.028 -3.76962 -1.7946 0
M  V30 7873 H 730.418 -6.63565 1.05507 0
M  V30 7874 N 733.138 -0.185124 -1.56509 0
M  V30 7875 C 734.384 0.456934 -1.97585 0
M  V30 7876 C 734.717 1.61957 -1.07161 0
M  V30 7877 O 733.992 1.9412 -0.121546 0
M  V30 7878 C 734.275 0.926666 -3.47973 0
M  V30 7879 C 734.128 -0.237097 -4.49175 0
M  V30 7880 C 735.447 1.79561 -4.01803 0
M  V30 7881 H 732.566 0.164619 -0.71838 0
M  V30 7882 H 735.208 -0.274039 -1.88013 0
M  V30 7883 H 733.358 1.54954 -3.56261 0
M  V30 7884 H 735.03 -0.87454 -4.52934 0
M  V30 7885 H 733.273 -0.890446 -4.24563 0
M  V30 7886 H 733.944 0.133924 -5.51838 0
M  V30 7887 H 736.42 1.27039 -3.96232 0
M  V30 7888 H 735.296 2.09327 -5.07418 0
M  V30 7889 H 735.557 2.74629 -3.46455 0
M  V30 7890 N 734.616 1.57351 0.0885366 0
M  V30 7891 C 736.027 1.75303 0.642308 0
M  V30 7892 C 736.378 0.808238 1.78779 0
M  V30 7893 O 735.503 -0.01171 2.16397 0
M  V30 7894 C 736.098 3.17885 1.17194 0
M  V30 7895 C 734.657 3.37239 1.67172 0
M  V30 7896 C 733.804 2.7108 0.584045 0
M  V30 7897 H 736.755 1.58103 -0.137567 0
M  V30 7898 H 736.776 3.2112 2.04114 0
M  V30 7899 H 736.288 3.86625 0.338024 0
M  V30 7900 H 734.389 2.73588 2.52943 0
M  V30 7901 H 734.502 4.45594 1.76019 0
M  V30 7902 H 732.866 2.33161 1.02508 0
M  V30 7903 H 733.649 3.42464 -0.239403 0
M  V30 7904 N 736.094 -0.359525 1.53444 0
M  V30 7905 C 737.024 -1.44662 1.8329 0
M  V30 7906 C 738.005 -1.55617 0.68683 0
M  V30 7907 O 739.19 -1.70086 0.93725 0
M  V30 7908 C 736.32 -2.81923 2.02822 0
M  V30 7909 C 735.274 -2.85787 3.18606 0
M  V30 7910 C 734.6 -4.25781 3.23442 0
M  V30 7911 C 735.9 -2.52762 4.57065 0
M  V30 7912 H 737.594 -1.19934 2.74329 0
M  V30 7913 H 735.14 -0.575517 1.31999 0
M  V30 7914 H 737.093 -3.58005 2.22285 0
M  V30 7915 H 735.817 -3.08051 1.085 0
M  V30 7916 H 734.476 -2.12157 2.98973 0
M  V30 7917 H 734.124 -4.48994 2.26745 0
M  V30 7918 H 733.824 -4.29281 4.01238 0
M  V30 7919 H 735.348 -5.03727 3.45096 0
M  V30 7920 H 736.762 -3.18557 4.76649 0
M  V30 7921 H 735.159 -2.67569 5.37147 0
M  V30 7922 H 736.229 -1.47993 4.61764 0
M  V30 7923 N 737.572 -1.44907 -0.619662 0
M  V30 7924 C 738.797 -1.52021 -1.41083 0
M  V30 7925 C 739.222 -0.14976 -1.87503 0
M  V30 7926 O 738.58 0.863303 -1.59426 0
M  V30 7927 C 738.628 -2.49911 -2.59955 0
M  V30 7928 O 737.732 -2.00857 -3.60181 0
M  V30 7929 H 737.073 -0.512912 -0.421684 0
M  V30 7930 H 739.603 -1.90149 -0.755282 0
M  V30 7931 H 739.613 -2.68323 -3.07354 0
M  V30 7932 H 738.288 -3.4945 -2.25516 0
M  V30 7933 H 736.865 -1.92265 -3.19513 0
M  V30 7934 N 739.05 0.861098 -1.31996 0
M  V30 7935 C 740.275 1.65264 -1.2531 0
M  V30 7936 C 740.7 1.87265 0.177007 0
M  V30 7937 O 740.058 1.4208 1.12619 0
M  V30 7938 C 740.106 2.99284 -2.0115 0
M  V30 7939 O 739.21 3.89508 -1.3549 0
M  V30 7940 H 738.551 0.50409 -0.432192 0
M  V30 7941 H 741.081 1.07297 -1.74208 0
M  V30 7942 H 741.091 3.49154 -2.11081 0
M  V30 7943 H 739.766 2.82591 -3.05148 0
M  V30 7944 H 738.343 3.47966 -1.34066 0
M  V30 7945 N 740.528 1.15101 1.07655 0
M  V30 7946 C 741.491 0.847625 2.12951 0
M  V30 7947 C 742.491 -0.151227 1.60087 0
M  V30 7948 O 743.681 0.0780399 1.74025 0
M  V30 7949 C 740.813 0.265 3.39868 0
M  V30 7950 H 742.006 1.7809 2.41296 0
M  V30 7951 H 739.559 0.958072 1.23494 0
M  V30 7952 H 740.294 -0.676625 3.17163 0
M  V30 7953 H 740.079 0.984554 3.79538 0
M  V30 7954 H 741.569 0.0702121 4.17541 0
M  V30 7955 N 742.006 -1.2595 0.947325 0
M  V30 7956 C 743.253 -1.93463 0.598178 0
M  V30 7957 C 743.581 -1.74271 -0.863705 0
M  V30 7958 O 742.836 -1.07684 -1.63409 0
M  V30 7959 C 743.135 -3.46034 0.894158 0
M  V30 7960 C 742.801 -3.85373 2.3409 0
M  V30 7961 C 741.463 -3.95823 2.73637 0
M  V30 7962 C 743.815 -4.04986 3.2808 0
M  V30 7963 C 741.143 -4.23288 4.06257 0
M  V30 7964 C 743.495 -4.3394 4.60303 0
M  V30 7965 C 742.159 -4.42606 4.99656 0
M  V30 7966 H 741.429 -0.707933 0.218889 0
M  V30 7967 H 744.076 -1.4964 1.19499 0
M  V30 7968 H 742.381 -3.9121 0.214874 0
M  V30 7969 H 744.078 -3.96445 0.602698 0
M  V30 7970 H 740.668 -3.7779 2.02417 0
M  V30 7971 H 744.852 -3.96333 2.9872 0
M  V30 7972 H 740.108 -4.28211 4.36401 0
M  V30 7973 H 744.282 -4.48061 5.33118 0
M  V30 7974 H 741.909 -4.63641 6.02446 0
M  V30 7975 N 743.484 -0.715051 -1.40445 0
M  V30 7976 C 744.731 -0.254328 -2.00897 0
M  V30 7977 C 745.059 1.15228 -1.56693 0
M  V30 7978 O 744.314 1.7958 -0.777786 0
M  V30 7979 C 744.613 -0.281791 -3.56287 0
M  V30 7980 C 744.279 -1.63862 -4.20071 0
M  V30 7981 C 742.941 -2.01003 -4.37208 0
M  V30 7982 C 745.293 -2.53039 -4.55654 0
M  V30 7983 C 742.621 -3.26869 -4.8721 0
M  V30 7984 C 744.973 -3.78256 -5.07055 0
M  V30 7985 C 743.637 -4.15515 -5.22401 0
M  V30 7986 H 742.907 -0.0930652 -0.735133 0
M  V30 7987 H 745.554 -0.917977 -1.68064 0
M  V30 7988 H 743.859 0.465428 -3.89026 0
M  V30 7989 H 745.556 0.0925158 -4.00893 0
M  V30 7990 H 742.146 -1.33979 -4.07121 0
M  V30 7991 H 746.33 -2.2562 -4.42051 0
M  V30 7992 H 741.586 -3.55706 -4.97276 0
M  V30 7993 H 745.76 -4.47528 -5.33565 0
M  V30 7994 H 743.387 -5.13114 -5.60909 0
M  V30 7995 N 744.962 1.50701 -0.461195 0
M  V30 7996 C 745.925 2.2686 0.326679 0
M  V30 7997 C 746.925 1.31243 0.929085 0
M  V30 7998 O 748.115 1.54754 0.799807 0
M  V30 7999 C 745.247 3.07844 1.46441 0
M  V30 8000 H 746.44 2.97954 -0.341095 0
M  V30 8001 H 743.993 1.54814 -0.214984 0
M  V30 8002 H 744.728 2.41223 2.16753 0
M  V30 8003 H 744.513 3.78101 1.03836 0
M  V30 8004 H 746.003 3.65469 2.02044 0
M  V30 8005 N 746.441 0.193421 1.56409 0
M  V30 8006 C 747.666 -0.454552 2.02358 0
M  V30 8007 C 748.091 -1.54516 1.07268 0
M  V30 8008 O 747.449 -1.81214 0.0558962 0
M  V30 8009 C 747.497 -0.989469 3.46759 0
M  V30 8010 O 746.601 -2.10244 3.54783 0
M  V30 8011 H 745.942 -0.106417 0.655417 0
M  V30 8012 H 748.472 0.303807 2.02332 0
M  V30 8013 H 748.482 -1.30649 3.86516 0
M  V30 8014 H 747.157 -0.191083 4.15461 0
M  V30 8015 H 745.734 -1.79419 3.26899 0
M  V30 8016 N 747.919 -1.57396 -0.0801906 0
M  V30 8017 C 749.165 -1.87979 -0.776884 0
M  V30 8018 C 749.52 -0.786098 -1.75608 0
M  V30 8019 O 748.813 0.210541 -1.9044 0
M  V30 8020 C 749.007 -3.22915 -1.53169 0
M  V30 8021 C 748.836 -4.45306 -0.627099 0
M  V30 8022 C 747.606 -5.04593 -0.267201 0
M  V30 8023 C 749.804 -5.14249 0.0724916 0
M  V30 8024 N 747.786 -6.10513 0.643995 0
M  V30 8025 C 749.157 -6.14267 0.841191 0
M  V30 8026 C 751.212 -4.97689 0.144847 0
M  V30 8027 C 749.915 -6.99514 1.67551 0
M  V30 8028 C 751.941 -5.83455 0.966112 0
M  V30 8029 C 751.303 -6.83005 1.72288 0
M  V30 8030 H 747.402 -0.737519 -0.259979 0
M  V30 8031 H 749.986 -1.94661 -0.0387512 0
M  V30 8032 H 748.157 -3.17256 -2.2406 0
M  V30 8033 H 749.889 -3.41174 -2.17675 0
M  V30 8034 H 746.644 -4.69548 -0.618194 0
M  V30 8035 H 747.068 -6.68125 1.09259 0
M  V30 8036 H 751.71 -4.20649 -0.4259 0
M  V30 8037 H 749.428 -7.75934 2.25726 0
M  V30 8038 H 753.014 -5.727 1.02497 0
M  V30 8039 H 751.894 -7.48219 2.34813 0
M  V30 8040 N 749.397 0.351382 -1.53633 0
M  V30 8041 C 750.813 0.693987 -1.43722 0
M  V30 8042 C 751.013 1.9274 -0.587669 0
M  V30 8043 O 750.069 2.52387 -0.0756082 0
M  V30 8044 C 751.382 0.893937 -2.87105 0
M  V30 8045 C 752.93 0.993051 -2.96829 0
M  V30 8046 C 753.405 1.22537 -4.41303 0
M  V30 8047 N 754.896 1.29275 -4.44795 0
M  V30 8048 C 755.631 1.48988 -5.53706 0
M  V30 8049 N 755.127 1.65924 -6.72637 0
M  V30 8050 N 756.92 1.51472 -5.41306 0
M  V30 8051 H 749.071 -0.459688 -2.07366 0
M  V30 8052 H 751.334 -0.143684 -0.937048 0
M  V30 8053 H 751.04 0.0592517 -3.5165 0
M  V30 8054 H 750.914 1.79795 -3.31592 0
M  V30 8055 H 753.301 1.81827 -2.32429 0
M  V30 8056 H 753.382 0.0661119 -2.55715 0
M  V30 8057 H 753.026 0.405117 -5.06282 0
M  V30 8058 H 752.956 2.16575 -4.80003 0
M  V30 8059 H 755.447 1.17743 -3.59089 0
M  V30 8060 H 755.76 1.80578 -7.51406 0
M  V30 8061 H 754.105 1.63075 -6.75597 0
M  V30 8062 H 757.296 1.37818 -4.47352 0
M  V30 8063 H 757.469 1.66493 -6.26246 0
M  V30 8064 N 750.875 1.45233 0.611969 0
M  V30 8065 C 752.124 1.48296 1.36716 0
M  V30 8066 C 752.437 0.12706 1.95187 0
M  V30 8067 O 753.643 0.0353066 2.71477 0
M  V30 8068 C 752.099 2.61168 2.47627 0
M  V30 8069 C 751.707 4.03051 1.95587 0
M  V30 8070 C 753.451 2.73472 3.24674 0
M  V30 8071 C 751.358 5.07312 3.03954 0
M  V30 8072 H 750.288 0.5518 0.513841 0
M  V30 8073 H 752.939 1.7136 0.656359 0
M  V30 8074 H 751.321 2.31379 3.21372 0
M  V30 8075 H 752.495 4.42497 1.2858 0
M  V30 8076 H 750.81 3.95158 1.31298 0
M  V30 8077 H 753.407 3.48537 4.05494 0
M  V30 8078 H 753.75 1.79953 3.75397 0
M  V30 8079 H 754.283 3.02765 2.58028 0
M  V30 8080 H 751.022 6.02525 2.58154 0
M  V30 8081 H 750.542 4.7244 3.69541 0
M  V30 8082 H 752.221 5.31867 3.6841 0
M  V30 8083 N 752.353 -0.854086 1.3245 0
M  V30 8084 C 753.599 -1.61069 1.23225 0
M  V30 8085 C 753.932 -1.93111 -0.205349 0
M  V30 8086 O 753.207 -1.57397 -1.14265 0
M  V30 8087 C 753.49 -2.93065 2.09249 0
M  V30 8088 C 753.343 -2.67801 3.6139 0
M  V30 8089 C 754.662 -3.94341 1.95406 0
M  V30 8090 H 751.781 -0.584449 0.448986 0
M  V30 8091 H 754.423 -0.986189 1.62402 0
M  V30 8092 H 752.573 -3.46364 1.75967 0
M  V30 8093 H 754.245 -2.21052 4.04887 0
M  V30 8094 H 752.488 -2.01756 3.84027 0
M  V30 8095 H 753.159 -3.6179 4.16907 0
M  V30 8096 H 755.635 -3.50301 2.24562 0
M  V30 8097 H 754.511 -4.84555 2.57872 0
M  V30 8098 H 754.772 -4.32382 0.921865 0
M  V30 8099 N 753.831 -1.1567 -1.07043 0
M  V30 8100 C 755.061 -0.956083 -1.83146 0
M  V30 8101 C 755.469 0.498969 -1.82502 0
M  V30 8102 O 754.812 1.35791 -1.23719 0
M  V30 8103 C 754.874 -1.39704 -3.31245 0
M  V30 8104 C 754.538 -2.87045 -3.55604 0
M  V30 8105 C 755.535 -3.85092 -3.49285 0
M  V30 8106 C 753.22 -3.24787 -3.8317 0
M  V30 8107 C 755.214 -5.18885 -3.70185 0
M  V30 8108 C 752.901 -4.58751 -4.03721 0
M  V30 8109 C 753.899 -5.55609 -3.97224 0
M  V30 8110 O 753.587 -6.87154 -4.17223 0
M  V30 8111 H 753.319 -0.339473 -0.58458 0
M  V30 8112 H 755.873 -1.53922 -1.36005 0
M  V30 8113 H 754.103 -0.757326 -3.79212 0
M  V30 8114 H 755.792 -1.16503 -3.88821 0
M  V30 8115 H 756.558 -3.5728 -3.27988 0
M  V30 8116 H 752.437 -2.49979 -3.87339 0
M  V30 8117 H 755.981 -5.94473 -3.6503 0
M  V30 8118 H 751.878 -4.86277 -4.24505 0
M  V30 8119 H 752.646 -6.93618 -4.34553 0
M  V30 8120 N 755.309 1.25446 -0.953992 0
M  V30 8121 C 756.219 2.29632 -0.480264 0
M  V30 8122 C 757.235 1.68025 0.452071 0
M  V30 8123 O 758.411 1.98703 0.328472 0
M  V30 8124 C 755.476 3.45903 0.234974 0
M  V30 8125 C 754.537 4.22953 -0.735495 0
M  V30 8126 C 753.77 5.33672 -0.0542957 0
M  V30 8127 O 753.993 5.58477 1.16018 0
M  V30 8128 O 752.927 5.9734 -0.739509 0
M  V30 8129 H 756.753 2.72242 -1.34602 0
M  V30 8130 H 754.338 1.30883 -0.720419 0
M  V30 8131 H 756.22 4.16552 0.637341 0
M  V30 8132 H 754.895 3.05296 1.07592 0
M  V30 8133 H 753.802 3.54734 -1.18806 0
M  V30 8134 H 755.135 4.67341 -1.54444 0
M  V30 8135 N 756.787 0.722489 1.40064 0
M  V30 8136 C 758.035 0.264455 2.00362 0
M  V30 8137 C 758.356 -1.14847 1.57592 0
M  V30 8138 O 757.626 -1.77982 0.818477 0
M  V30 8139 H 756.206 0.0947846 0.740962 0
M  V30 8140 H 758.868 0.929659 1.71299 0
M  V30 8141 H 757.964 0.302977 3.10626 0
M  V30 8142 N 758.265 -1.50454 0.469181 0
M  V30 8143 C 759.513 -2.01916 -0.0862982 0
M  V30 8144 C 759.834 -1.35337 -1.40388 0
M  V30 8145 O 759.104 -0.498096 -1.89462 0
M  V30 8146 H 757.684 -0.746185 -0.0348825 0
M  V30 8147 H 760.346 -1.84804 0.619167 0
M  V30 8148 H 759.442 -3.11182 -0.239189 0
M  V30 8149 N 759.743 -0.201713 -1.56304 0
M  V30 8150 C 760.992 0.435557 -1.96941 0
M  V30 8151 C 761.305 1.62299 -1.09172 0
M  V30 8152 O 762.511 2.32849 -1.3962 0
M  V30 8153 C 760.967 0.826298 -3.50286 0
M  V30 8154 C 760.575 -0.337216 -4.46729 0
M  V30 8155 C 762.319 1.43028 -3.99679 0
M  V30 8156 C 760.226 0.0748539 -5.91353 0
M  V30 8157 H 759.156 0.1665 -0.735387 0
M  V30 8158 H 761.807 -0.294781 -1.81117 0
M  V30 8159 H 760.189 1.61349 -3.61639 0
M  V30 8160 H 761.363 -1.11476 -4.47113 0
M  V30 8161 H 759.678 -0.853126 -4.07567 0
M  V30 8162 H 762.275 1.75115 -5.05212 0
M  V30 8163 H 762.618 2.33911 -3.44371 0
M  V30 8164 H 763.151 0.706924 -3.91468 0
M  V30 8165 H 759.89 -0.799957 -6.506 0
M  V30 8166 H 759.41 0.817122 -5.94208 0
M  V30 8167 H 761.089 0.508389 -6.45 0
M  V30 8168 N 761.222 1.57436 0.0718424 0
M  V30 8169 C 762.499 1.78312 0.804006 0
M  V30 8170 C 762.879 0.789273 1.9579 0
M  V30 8171 O 762.227 -0.177605 2.27809 0
M  V30 8172 C 762.437 3.24798 1.277 0
M  V30 8173 C 763.785 3.88627 1.71039 0
M  V30 8174 O 764.809 3.28689 1.37266 0
M  V30 8175 O 763.668 4.94073 2.33567 0
M  V30 8176 H 760.762 0.73178 0.385262 0
M  V30 8177 H 763.308 1.69621 0.0519219 0
M  V30 8178 H 762.08 3.88688 0.45134 0
M  V30 8179 H 761.703 3.38213 2.0904 0
M  V30 8180 N 762.7 -0.34323 1.53817 0
M  V30 8181 C 764.111 -0.918823 1.62525 0
M  V30 8182 C 764.462 -1.89542 0.506765 0
M  V30 8183 O 763.587 -2.13326 -0.363441 0
M  V30 8184 C 764.182 -1.67326 2.94597 0
M  V30 8185 C 762.741 -2.19786 3.05567 0
M  V30 8186 C 761.888 -1.01708 2.57974 0
M  V30 8187 H 764.839 -0.121358 1.58235 0
M  V30 8188 H 764.86 -2.53615 2.83654 0
M  V30 8189 H 764.372 -0.962223 3.75983 0
M  V30 8190 H 762.473 -2.94065 2.28816 0
M  V30 8191 H 762.586 -2.46135 4.1104 0
M  V30 8192 H 760.95 -1.39058 2.13389 0
M  V30 8193 H 761.733 -0.320671 3.41799 0
M  V30 8194 N 764.178 -1.45556 -0.604258 0
M  V30 8195 C 765.427 -1.49019 -1.35928 0
M  V30 8196 C 765.74 -0.137409 -1.95117 0
M  V30 8197 O 766.946 -0.0497032 -2.71455 0
M  V30 8198 C 765.402 -2.62477 -2.46239 0
M  V30 8199 C 765.01 -4.04082 -1.93447 0
M  V30 8200 C 766.754 -2.7519 -3.23219 0
M  V30 8201 C 764.661 -5.08917 -3.0126 0
M  V30 8202 H 763.591 -0.554518 -0.510907 0
M  V30 8203 H 766.242 -1.71705 -0.647262 0
M  V30 8204 H 764.624 -2.3308 -3.2014 0
M  V30 8205 H 765.798 -4.43173 -1.26232 0
M  V30 8206 H 764.113 -3.95849 -1.29201 0
M  V30 8207 H 766.71 -3.50683 -4.0364 0
M  V30 8208 H 767.053 -1.81941 -3.74437 0
M  V30 8209 H 767.586 -3.04129 -2.56418 0
M  V30 8210 H 764.325 -6.03886 -2.54955 0
M  V30 8211 H 763.845 -4.74393 -3.67031 0
M  V30 8212 H 765.524 -5.33814 -3.65584 0
M  V30 8213 N 765.656 0.84705 -1.32902 0
M  V30 8214 C 766.586 1.97166 -1.25091 0
M  V30 8215 C 767.567 1.69578 -0.133161 0
M  V30 8216 O 768.752 1.91519 -0.321591 0
M  V30 8217 C 765.882 3.33157 -0.981006 0
M  V30 8218 C 764.836 3.75119 -2.06082 0
M  V30 8219 C 764.162 5.08826 -1.64318 0
M  V30 8220 C 765.462 3.89774 -3.47669 0
M  V30 8221 H 767.156 2.03958 -2.19184 0
M  V30 8222 H 764.702 0.979907 -1.05517 0
M  V30 8223 H 766.655 4.11393 -0.912891 0
M  V30 8224 H 765.379 3.266 -0.00445559 0
M  V30 8225 H 764.038 2.9914 -2.11921 0
M  V30 8226 H 763.686 4.98732 -0.653876 0
M  V30 8227 H 763.386 5.37873 -2.36572 0
M  V30 8228 H 764.91 5.89546 -1.58958 0
M  V30 8229 H 766.324 4.58343 -3.44376 0
M  V30 8230 H 764.721 4.30248 -4.18338 0
M  V30 8231 H 765.791 2.92463 -3.86773 0
M  V30 8232 N 767.134 1.16236 1.06428 0
M  V30 8233 C 768.55 0.906983 1.31324 0
M  V30 8234 C 768.75 -0.440872 1.96618 0
M  V30 8235 O 767.806 -1.1807 2.23194 0
M  V30 8236 C 769.119 2.05501 2.19522 0
M  V30 8237 C 770.667 2.09061 2.32943 0
M  V30 8238 C 771.142 3.23214 3.24495 0
M  V30 8239 N 772.633 3.22922 3.32078 0
M  V30 8240 C 773.368 4.07889 4.03006 0
M  V30 8241 N 772.864 5.02941 4.76469 0
M  V30 8242 N 774.657 3.95881 3.99043 0
M  V30 8243 H 766.808 2.03015 0.624388 0
M  V30 8244 H 769.071 0.88576 0.337835 0
M  V30 8245 H 768.777 3.02847 1.78819 0
M  V30 8246 H 768.651 1.99538 3.201 0
M  V30 8247 H 771.038 1.12308 2.72893 0
M  V30 8248 H 771.119 2.19089 1.32037 0
M  V30 8249 H 770.763 4.20225 2.85261 0
M  V30 8250 H 770.693 3.10423 4.25377 0
M  V30 8251 H 773.184 2.54093 2.79724 0
M  V30 8252 H 773.497 5.64196 5.28112 0
M  V30 8253 H 771.842 5.06922 4.75453 0
M  V30 8254 H 775.033 3.20927 3.40769 0
M  V30 8255 H 775.206 4.62321 4.54052 0
M  V30 8256 N 768.612 -1.24939 0.960631 0
M  V30 8257 C 769.86 -1.92437 0.617441 0
M  V30 8258 C 770.181 -1.75543 -0.849101 0
M  V30 8259 O 769.451 -1.12269 -1.60538 0
M  V30 8260 H 768.031 -0.712192 0.225371 0
M  V30 8261 H 770.693 -1.5198 1.22017 0
M  V30 8262 H 769.789 -3.00247 0.851933 0
M  V30 8263 N 770.09 -0.729906 -1.39679 0
M  V30 8264 C 771.02 -0.101618 -2.33279 0
M  V30 8265 C 772.001 0.729854 -1.53646 0
M  V30 8266 O 773.186 0.67587 -1.82059 0
M  V30 8267 C 770.316 0.81024 -3.37716 0
M  V30 8268 C 769.27 0.0833126 -4.27919 0
M  V30 8269 C 768.596 1.11185 -5.23012 0
M  V30 8270 C 769.896 -1.07107 -5.112 0
M  V30 8271 H 771.59 -0.883452 -2.86069 0
M  V30 8272 H 769.136 -0.426283 -1.37546 0
M  V30 8273 H 771.089 1.25927 -4.02145 0
M  V30 8274 H 769.813 1.62413 -2.83354 0
M  V30 8275 H 768.472 -0.346043 -3.64963 0
M  V30 8276 H 768.12 1.91917 -4.64948 0
M  V30 8277 H 767.82 0.63026 -5.8421 0
M  V30 8278 H 769.344 1.56068 -5.90318 0
M  V30 8279 H 770.758 -0.700726 -5.69002 0
M  V30 8280 H 769.155 -1.48196 -5.81514 0
M  V30 8281 H 770.225 -1.89513 -4.46332 0
M  V30 8282 N 771.568 1.50203 -0.477153 0
M  V30 8283 C 772.501 2.25343 0.359983 0
M  V30 8284 C 773.479 1.28909 0.991022 0
M  V30 8285 O 774.663 1.58146 1.02578 0
M  V30 8286 C 771.79 3.03431 1.5049 0
M  V30 8287 C 770.836 4.14836 0.99063 0
M  V30 8288 S 771.669 5.35407 -0.0995413 0
M  V30 8289 C 772.825 6.17045 1.04911 0
M  V30 8290 H 773.058 2.95999 -0.277836 0
M  V30 8291 H 770.591 1.52159 -0.262115 0
M  V30 8292 H 772.549 3.49012 2.16105 0
M  V30 8293 H 771.21 2.32289 2.11425 0
M  V30 8294 H 770.403 4.689 1.84794 0
M  V30 8295 H 770.005 3.71723 0.412097 0
M  V30 8296 H 772.297 6.48546 1.95946 0
M  V30 8297 H 773.24 7.05979 0.547596 0
M  V30 8298 H 773.648 5.49193 1.30567 0
M  V30 8299 N 773.046 0.209999 1.56195 0
M  V30 8300 C 774.009 -0.691232 2.18528 0
M  V30 8301 C 775.009 -1.13013 1.14388 0
M  V30 8302 O 776.199 -1.04081 1.39688 0
M  V30 8303 C 773.331 -1.94551 2.79934 0
M  V30 8304 H 774.524 -0.147953 2.99535 0
M  V30 8305 H 772.077 -0.0396243 1.5625 0
M  V30 8306 H 772.812 -2.53094 2.02766 0
M  V30 8307 H 772.597 -1.63938 3.56184 0
M  V30 8308 H 774.087 -2.58785 3.2775 0
M  V30 8309 N 774.524 -1.57472 -0.0634922 0
M  V30 8310 C 775.752 -1.91887 -0.773767 0
M  V30 8311 C 776.167 -0.806733 -1.70696 0
M  V30 8312 O 775.524 0.219383 -1.81177 0
M  V30 8313 C 775.575 -3.26092 -1.56034 0
M  V30 8314 O 775.296 -4.33029 -0.66464 0
M  V30 8315 C 776.797 -3.74573 -2.37087 0
M  V30 8316 H 774.017 -0.634074 -0.219525 0
M  V30 8317 H 776.561 -2.04476 -0.0312828 0
M  V30 8318 H 774.716 -3.15004 -2.25502 0
M  V30 8319 H 775.13 -5.10291 -1.21258 0
M  V30 8320 H 776.604 -4.71084 -2.87722 0
M  V30 8321 H 777.081 -3.04003 -3.16984 0
M  V30 8322 H 777.687 -3.88631 -1.72759 0
M  V30 8323 N 776.003 0.335068 -1.53997 0
M  V30 8324 C 777.414 0.910191 -1.6301 0
M  V30 8325 C 777.765 1.89271 -0.516809 0
M  V30 8326 O 776.89 2.13516 0.352123 0
M  V30 8327 C 777.485 1.65761 -2.9548 0
M  V30 8328 C 776.044 2.18163 -3.06728 0
M  V30 8329 C 775.191 1.00338 -2.5851 0
M  V30 8330 H 778.142 0.112965 -1.58297 0
M  V30 8331 H 778.163 2.52107 -2.84995 0
M  V30 8332 H 777.675 0.94227 -3.76488 0
M  V30 8333 H 775.776 2.92847 -2.30372 0
M  V30 8334 H 775.889 2.43952 -4.1234 0
M  V30 8335 H 774.253 1.37925 -2.14124 0
M  V30 8336 H 775.036 0.30254 -3.41964 0
M  V30 8337 N 777.481 1.45874 0.596531 0
M  V30 8338 C 778.444 1.54988 1.68853 0
M  V30 8339 C 779.444 0.428302 1.54991 0
M  V30 8340 O 780.634 0.692158 1.59859 0
M  V30 8341 C 777.766 1.457 3.08195 0
M  V30 8342 H 778.959 2.52294 1.62135 0
M  V30 8343 H 776.512 1.33479 0.813206 0
M  V30 8344 H 777.247 0.496204 3.20481 0
M  V30 8345 H 777.032 2.27061 3.19665 0
M  V30 8346 H 778.522 1.55133 3.87716 0
M  V30 8347 N 778.959 -0.83999 1.33349 0
M  V30 8348 C 779.906 -1.94972 1.23509 0
M  V30 8349 C 780.876 -1.65709 0.113967 0
M  V30 8350 O 782.061 -1.88552 0.292045 0
M  V30 8351 C 779.201 -3.30919 0.979105 0
M  V30 8352 C 778.314 -3.72587 2.18639 0
M  V30 8353 C 777.449 -4.97397 1.86465 0
M  V30 8354 C 776.488 -5.31597 3.03432 0
M  V30 8355 N 775.625 -6.47584 2.71254 0
M  V30 8356 H 780.465 -2.0272 2.18423 0
M  V30 8357 H 778.002 -0.992017 1.08616 0
M  V30 8358 H 779.96 -4.09239 0.811126 0
M  V30 8359 H 778.59 -3.22731 0.0667099 0
M  V30 8360 H 777.642 -2.89799 2.46416 0
M  V30 8361 H 778.954 -3.93844 3.06086 0
M  V30 8362 H 778.108 -5.83462 1.66305 0
M  V30 8363 H 776.847 -4.78107 0.96254 0
M  V30 8364 H 775.852 -4.44037 3.24208 0
M  V30 8365 H 777.077 -5.52836 3.94397 0
M  V30 8366 H 775.023 -6.29783 1.836 0
M  V30 8367 H 774.94 -6.68931 3.52231 0
M  V30 8368 H 776.208 -7.36764 2.54558 0
M  V30 8369 N 780.437 -1.16799 -1.0581 0
M  V30 8370 C 781.367 -0.902241 -2.15364 0
M  V30 8371 C 782.348 0.153351 -1.69407 0
M  V30 8372 O 783.533 0.00442032 -1.94199 0
M  V30 8373 C 780.663 -0.407911 -3.44896 0
M  V30 8374 C 779.617 -1.40197 -4.04387 0
M  V30 8375 C 778.943 -0.765848 -5.29187 0
M  V30 8376 C 780.243 -2.77316 -4.42598 0
M  V30 8377 H 781.937 -1.81841 -2.37853 0
M  V30 8378 H 779.483 -0.875731 -1.14311 0
M  V30 8379 H 781.436 -0.20945 -4.20879 0
M  V30 8380 H 780.16 0.54378 -3.22041 0
M  V30 8381 H 778.819 -1.58707 -3.30466 0
M  V30 8382 H 778.467 0.192482 -5.02632 0
M  V30 8383 H 778.167 -1.42939 -5.69949 0
M  V30 8384 H 779.691 -0.577519 -6.07863 0
M  V30 8385 H 781.105 -2.62561 -5.09642 0
M  V30 8386 H 779.502 -3.4019 -4.94359 0
M  V30 8387 H 780.572 -3.32199 -3.53231 0
M  V30 8388 N 781.915 1.24427 -0.967243 0
M  V30 8389 C 782.863 2.27403 -0.488927 0
M  V30 8390 C 783.857 1.63388 0.447302 0
M  V30 8391 O 785.063 1.77085 0.322643 0
M  V30 8392 H 781.438 0.738921 -0.139643 0
M  V30 8393 H 783.409 2.65122 -1.36942 0
M  V30 8394 C 782.158 3.4709 0.205787 0
M  V30 8395 H 781.481 3.96591 -0.50551 0
M  V30 8396 H 782.921 4.2099 0.504296 0
M  V30 8397 C 781.38 3.04923 1.43261 0
M  V30 8398 O 781.91 3.12043 2.52967 0
M  V30 8399 N 780.116 2.59976 1.29849 0
M  V30 8400 H 779.663 2.54382 0.405876 0
M  V30 8401 H 779.621 2.32128 2.12047 0
M  V30 8402 N 783.393 0.737304 1.3929 0
M  V30 8403 C 784.809 0.413132 1.5416 0
M  V30 8404 C 785.009 -1.07574 1.70382 0
M  V30 8405 O 784.065 -1.86185 1.70562 0
M  V30 8406 C 785.378 1.19817 2.75798 0
M  V30 8407 C 786.926 1.18662 2.89635 0
M  V30 8408 C 787.401 1.95427 4.14213 0
M  V30 8409 N 788.892 1.92605 4.21257 0
M  V30 8410 C 789.627 2.48808 5.16606 0
M  V30 8411 N 789.123 3.13659 6.1773 0
M  V30 8412 N 790.916 2.38829 5.08839 0
M  V30 8413 H 783.067 1.70243 1.27008 0
M  V30 8414 H 785.33 0.720802 0.61575 0
M  V30 8415 H 785.036 2.25179 2.70161 0
M  V30 8416 H 784.91 0.804144 3.68529 0
M  V30 8417 H 787.297 0.141112 2.94762 0
M  V30 8418 H 787.378 1.62003 1.97961 0
M  V30 8419 H 787.022 2.9998 4.09847 0
M  V30 8420 H 786.952 1.4949 5.04936 0
M  V30 8421 H 789.443 1.45362 3.48824 0
M  V30 8422 H 789.756 3.54006 6.8695 0
M  V30 8423 H 788.101 3.17749 6.1811 0
M  V30 8424 H 791.292 1.87806 4.28773 0
M  V30 8425 H 791.465 2.82929 5.82971 0
M  V30 8426 N 784.871 -1.49948 0.485112 0
M  V30 8427 C 785.803 -2.26691 -0.338222 0
M  V30 8428 C 786.816 -1.32584 -0.944742 0
M  V30 8429 O 788.005 -1.57989 -0.830772 0
M  V30 8430 C 785.105 -3.04405 -1.48966 0
M  V30 8431 C 784.278 -4.25971 -0.993371 0
M  V30 8432 C 783.337 -4.85861 -2.02052 0
M  V30 8433 O 782.363 -5.46382 -1.59547 0
M  V30 8434 N 783.565 -4.74101 -3.34975 0
M  V30 8435 H 786.33 -2.97989 0.319748 0
M  V30 8436 H 783.891 -1.58772 0.316714 0
M  V30 8437 H 785.883 -3.41348 -2.17403 0
M  V30 8438 H 784.453 -2.35815 -2.05207 0
M  V30 8439 H 783.673 -3.93971 -0.134424 0
M  V30 8440 H 784.961 -5.0476 -0.639934 0
M  V30 8441 H 784.359 -4.26002 -3.72208 0
M  V30 8442 H 782.916 -5.15274 -3.9917 0
M  V30 8443 N 786.349 -0.21828 -1.56081 0
M  V30 8444 C 787.626 0.463143 -1.90038 0
M  V30 8445 C 788.006 1.77982 -1.13515 0
M  V30 8446 O 787.354 2.27199 -0.24345 0
M  V30 8447 C 787.564 0.659292 -3.42716 0
M  V30 8448 C 788.912 0.968203 -4.13414 0
M  V30 8449 O 789.936 0.746195 -3.48296 0
M  V30 8450 O 788.795 1.38936 -5.28544 0
M  V30 8451 H 785.889 0.244435 -0.790051 0
M  V30 8452 H 788.435 -0.260221 -1.67693 0
M  V30 8453 H 787.207 -0.269584 -3.9037 0
M  V30 8454 H 786.83 1.43426 -3.7083 0
M  V30 8455 N 787.827 1.57504 0.0551401 0
M  V30 8456 C 788.79 2.03826 1.04821 0
M  V30 8457 C 789.79 0.937968 1.30609 0
M  V30 8458 O 790.98 1.20237 1.2605 0
M  V30 8459 C 788.112 2.43309 2.38775 0
M  V30 8460 H 789.305 2.92802 0.6486 0
M  V30 8461 H 786.858 1.53368 0.301315 0
M  V30 8462 H 787.593 1.5741 2.83536 0
M  V30 8463 H 787.378 3.23615 2.21395 0
M  V30 8464 H 788.868 2.79666 3.10124 0
M  V30 8465 N 789.305 -0.326896 1.54172 0
M  V30 8466 C 790.238 -1.42591 1.78166 0
M  V30 8467 C 791.216 -1.49837 0.631484 0
M  V30 8468 O 792.4 -1.67298 0.868544 0
M  V30 8469 C 789.527 -2.8071 1.89524 0
M  V30 8470 C 788.573 -2.91012 3.11792 0
M  V30 8471 S 789.406 -2.55763 4.70474 0
M  V30 8472 C 790.562 -3.9596 4.84733 0
M  V30 8473 H 790.795 -1.22024 2.71104 0
M  V30 8474 H 788.328 -0.523539 1.45253 0
M  V30 8475 H 790.286 -3.60276 1.96753 0
M  V30 8476 H 788.947 -2.98562 0.975696 0
M  V30 8477 H 788.14 -3.92258 3.16464 0
M  V30 8478 H 787.742 -2.19414 3.02876 0
M  V30 8479 H 790.034 -4.90676 4.67166 0
M  V30 8480 H 790.977 -3.96273 5.86833 0
M  V30 8481 H 791.385 -3.8476 4.13062 0
M  V30 8482 N 790.784 -1.46188 -0.588786 0
M  V30 8483 C 791.714 -1.59148 -1.70863 0
M  V30 8484 C 792.695 -0.442083 -1.64255 0
M  V30 8485 O 793.88 -0.667575 -1.82365 0
M  V30 8486 C 791.01 -1.5757 -3.09498 0
M  V30 8487 C 789.964 -2.71418 -3.30932 0
M  V30 8488 C 789.29 -2.549 -4.70032 0
M  V30 8489 C 790.59 -4.1329 -3.19356 0
M  V30 8490 H 792.284 -2.52889 -1.60274 0
M  V30 8491 H 789.83 -1.21707 -0.769638 0
M  V30 8492 H 791.783 -1.65231 -3.87655 0
M  V30 8493 H 790.507 -0.603705 -3.20972 0
M  V30 8494 H 789.166 -2.63216 -2.55172 0
M  V30 8495 H 788.814 -1.55797 -4.78264 0
M  V30 8496 H 788.514 -3.31257 -4.85327 0
M  V30 8497 H 790.038 -2.64443 -5.50366 0
M  V30 8498 H 791.452 -4.22636 -3.87365 0
M  V30 8499 H 789.849 -4.90187 -3.46175 0
M  V30 8500 H 790.919 -4.33874 -2.16522 0
M  V30 8501 N 792.262 0.832906 -1.33792 0
M  V30 8502 C 793.508 1.59089 -1.25772 0
M  V30 8503 C 793.841 1.93414 0.174601 0
M  V30 8504 O 793.116 1.59195 1.11746 0
M  V30 8505 C 793.399 2.89699 -2.13885 0
M  V30 8506 C 793.252 2.62017 -3.65605 0
M  V30 8507 C 794.571 3.91182 -2.01654 0
M  V30 8508 H 791.69 0.577232 -0.458227 0
M  V30 8509 H 794.332 0.960227 -1.6395 0
M  V30 8510 H 792.482 3.4352 -1.81456 0
M  V30 8511 H 794.154 2.14582 -4.08353 0
M  V30 8512 H 792.397 1.95621 -3.87189 0
M  V30 8513 H 793.068 3.55112 -4.2261 0
M  V30 8514 H 795.544 3.46684 -2.30107 0
M  V30 8515 H 794.42 4.80391 -2.65548 0
M  V30 8516 H 794.681 4.30861 -0.990536 0
M  V30 8517 N 793.74 1.17359 1.05189 0
M  V30 8518 C 795.017 0.871914 1.75091 0
M  V30 8519 C 795.397 -0.627821 2.01548 0
M  V30 8520 O 794.745 -1.5791 1.65156 0
M  V30 8521 C 794.955 1.70687 3.04413 0
M  V30 8522 C 796.303 1.92684 3.78362 0
M  V30 8523 O 797.327 1.67645 3.14282 0
M  V30 8524 O 796.186 2.34765 4.93505 0
M  V30 8525 H 793.28 0.322831 0.761386 0
M  V30 8526 H 795.826 1.28054 1.11357 0
M  V30 8527 H 794.598 2.72405 2.80911 0
M  V30 8528 H 794.221 1.29602 3.75884 0
M  V30 8529 N 795.218 -1.23913 0.973828 0
M  V30 8530 C 796.128 -2.28838 0.516735 0
M  V30 8531 C 797.144 -1.68723 -0.425282 0
M  V30 8532 O 798.32 -1.99201 -0.296819 0
M  V30 8533 C 795.385 -3.46233 -0.179914 0
M  V30 8534 C 794.446 -4.21729 0.80269 0
M  V30 8535 C 793.679 -5.33518 0.139191 0
M  V30 8536 O 793.902 -5.60252 -1.07118 0
M  V30 8537 O 792.836 -5.96088 0.834447 0
M  V30 8538 H 796.662 -2.70067 1.38916 0
M  V30 8539 H 794.247 -1.2972 0.74115 0
M  V30 8540 H 796.129 -4.17514 -0.570991 0
M  V30 8541 H 794.804 -3.06969 -1.02721 0
M  V30 8542 H 793.711 -3.52799 1.24434 0
M  V30 8543 H 795.044 -4.64825 1.61859 0
M  V30 8544 N 796.696 -0.74468 -1.38897 0
M  V30 8545 C 797.626 -0.126355 -2.33158 0
M  V30 8546 C 798.607 0.713517 -1.54412 0
M  V30 8547 O 799.792 0.656523 -1.82766 0
M  V30 8548 C 796.922 0.774375 -3.38557 0
M  V30 8549 C 795.876 0.0379214 -4.27983 0
M  V30 8550 C 795.202 1.05631 -5.24162 0
M  V30 8551 C 796.502 -1.12523 -5.10035 0
M  V30 8552 H 798.196 -0.913744 -2.85116 0
M  V30 8553 H 795.742 -0.440847 -1.37086 0
M  V30 8554 H 797.695 1.21655 -4.03458 0
M  V30 8555 H 796.419 1.59399 -2.85061 0
M  V30 8556 H 795.078 -0.384733 -3.64576 0
M  V30 8557 H 794.726 1.86975 -4.66958 0
M  V30 8558 H 794.426 0.568261 -5.84846 0
M  V30 8559 H 795.95 1.49799 -5.9194 0
M  V30 8560 H 797.364 -0.761037 -5.68226 0
M  V30 8561 H 795.761 -1.54355 -5.79909 0
M  V30 8562 H 796.831 -1.94237 -4.44297 0
M  V30 8563 N 798.174 1.49689 -0.493057 0
M  V30 8564 C 799.59 1.58907 -0.148526 0
M  V30 8565 C 799.79 1.4991 1.34645 0
M  V30 8566 O 798.846 1.36893 2.12171 0
M  V30 8567 C 800.159 2.91996 -0.718265 0
M  V30 8568 C 801.707 3.05443 -0.683658 0
M  V30 8569 C 802.182 4.41138 -1.23132 0
M  V30 8570 N 803.673 4.47608 -1.19167 0
M  V30 8571 C 804.408 5.51038 -1.5857 0
M  V30 8572 N 803.904 6.61612 -2.05528 0
M  V30 8573 N 805.697 5.41706 -1.50036 0
M  V30 8574 H 797.848 1.5378 -1.46511 0
M  V30 8575 H 800.111 0.727996 -0.607228 0
M  V30 8576 H 799.817 3.04123 -1.7664 0
M  V30 8577 H 799.691 3.76798 -0.17419 0
M  V30 8578 H 802.078 2.92949 0.355626 0
M  V30 8579 H 802.159 2.22344 -1.26479 0
M  V30 8580 H 801.803 4.54382 -2.26935 0
M  V30 8581 H 801.733 5.22864 -0.626201 0
M  V30 8582 H 804.224 3.68274 -0.847524 0
M  V30 8583 H 804.537 7.36622 -2.33685 0
M  V30 8584 H 802.882 6.62674 -2.09497 0
M  V30 8585 H 806.073 4.54212 -1.13176 0
M  V30 8586 H 806.246 6.22188 -1.81068 0
M  V30 8587 N 799.652 0.226554 1.55963 0
M  V30 8588 C 800.929 -0.453058 1.90281 0
M  V30 8589 C 801.309 -1.77377 1.14458 0
M  V30 8590 O 800.657 -2.27067 0.255496 0
M  V30 8591 C 800.867 -0.641108 3.43061 0
M  V30 8592 C 802.215 -0.946265 4.13921 0
M  V30 8593 O 803.239 -0.727713 3.48687 0
M  V30 8594 O 802.098 -1.36131 5.29274 0
M  V30 8595 H 799.192 -0.240242 0.791336 0
M  V30 8596 H 801.738 0.26911 1.67553 0
M  V30 8597 H 800.51 0.290283 3.90222 0
M  V30 8598 H 800.133 -1.41458 3.71585 0
M  V30 8599 N 801.13 -1.57531 -0.0467866 0
M  V30 8600 C 802.546 -1.54451 -0.402107 0
M  V30 8601 C 802.746 -0.950275 -1.77685 0
M  V30 8602 O 801.802 -0.563602 -2.4613 0
M  V30 8603 C 803.115 -2.9899 -0.320212 0
M  V30 8604 C 804.663 -3.10452 -0.398588 0
M  V30 8605 C 805.138 -4.56689 -0.346335 0
M  V30 8606 N 806.629 -4.6142 -0.405666 0
M  V30 8607 C 807.364 -5.72087 -0.387845 0
M  V30 8608 N 806.86 -6.92045 -0.32336 0
M  V30 8609 N 808.653 -5.60404 -0.436263 0
M  V30 8610 H 800.804 -1.94515 0.853087 0
M  V30 8611 H 803.067 -0.891397 0.322669 0
M  V30 8612 H 802.773 -3.46124 0.623794 0
M  V30 8613 H 802.647 -3.60164 -1.1208 0
M  V30 8614 H 805.034 -2.63276 -1.33302 0
M  V30 8615 H 805.115 -2.52142 0.431026 0
M  V30 8616 H 804.759 -5.04527 0.584356 0
M  V30 8617 H 804.689 -5.12889 -1.19382 0
M  V30 8618 H 807.18 -3.75105 -0.458737 0
M  V30 8619 H 807.493 -7.7216 -0.314375 0
M  V30 8620 H 805.838 -6.94396 -0.28967 0
M  V30 8621 H 809.029 -4.65586 -0.48451 0
M  V30 8622 H 809.202 -6.46645 -0.418907 0
M  V30 8623 N 802.608 0.318715 -1.54344 0
M  V30 8624 C 803.538 1.39751 -1.87061 0
M  V30 8625 C 804.519 1.53741 -0.727848 0
M  V30 8626 O 805.704 1.67541 -0.982016 0
M  V30 8627 C 802.834 2.76446 -2.10226 0
M  V30 8628 C 801.788 2.77239 -3.26071 0
M  V30 8629 C 801.114 4.17056 -3.34617 0
M  V30 8630 C 802.414 2.40555 -4.63606 0
M  V30 8631 H 804.108 1.12619 -2.77412 0
M  V30 8632 H 801.654 0.540318 -1.33479 0
M  V30 8633 H 803.607 3.51985 -2.31699 0
M  V30 8634 H 802.331 3.05066 -1.16629 0
M  V30 8635 H 800.99 2.04155 -3.04493 0
M  V30 8636 H 800.638 4.42824 -2.3857 0
M  V30 8637 H 800.338 4.18492 -4.12478 0
M  V30 8638 H 801.862 4.94401 -3.5833 0
M  V30 8639 H 803.276 3.05808 -4.84927 0
M  V30 8640 H 801.673 2.53234 -5.44052 0
M  V30 8641 H 802.743 1.35698 -4.65526 0
M  V30 8642 N 804.086 1.46499 0.581025 0
M  V30 8643 C 805.333 1.51896 1.33918 0
M  V30 8644 C 805.661 0.171361 1.93744 0
M  V30 8645 O 804.916 -0.833178 1.77078 0
M  V30 8646 C 805.215 2.56686 2.48691 0
M  V30 8647 C 804.881 4.00656 2.06847 0
M  V30 8648 C 803.543 4.39852 1.9515 0
M  V30 8649 C 805.895 4.91089 1.74589 0
M  V30 8650 C 803.223 5.67345 1.49456 0
M  V30 8651 C 805.575 6.1902 1.30373 0
M  V30 8652 C 804.239 6.57121 1.17255 0
M  V30 8653 H 803.509 0.555826 0.490039 0
M  V30 8654 H 806.156 1.79983 0.654092 0
M  V30 8655 H 804.461 2.22266 3.22653 0
M  V30 8656 H 806.158 2.58091 3.06904 0
M  V30 8657 H 802.748 3.69674 2.16886 0
M  V30 8658 H 806.932 4.61523 1.8251 0
M  V30 8659 H 802.188 5.95635 1.37944 0
M  V30 8660 H 806.362 6.8852 1.04467 0
M  V30 8661 H 803.989 7.55805 0.816236 0
M  V30 8662 N 805.565 -0.825799 1.34232 0
M  V30 8663 C 806.981 -1.11848 1.13851 0
M  V30 8664 C 807.181 -2.01405 -0.0619031 0
M  V30 8665 O 806.237 -2.41465 -0.738287 0
M  V30 8666 C 807.55 -1.76797 2.43235 0
M  V30 8667 C 809.098 -1.89304 2.49265 0
M  V30 8668 C 809.573 -2.57669 3.78643 0
M  V30 8669 N 811.064 -2.65171 3.79788 0
M  V30 8670 C 811.799 -3.1879 4.76614 0
M  V30 8671 N 811.295 -3.72995 5.83821 0
M  V30 8672 N 813.088 -3.17164 4.64073 0
M  V30 8673 H 805.239 -0.230049 2.11151 0
M  V30 8674 H 807.502 -0.164609 0.9336 0
M  V30 8675 H 807.208 -1.18455 3.31152 0
M  V30 8676 H 807.082 -2.76693 2.56361 0
M  V30 8677 H 809.469 -2.46796 1.6179 0
M  V30 8678 H 809.55 -0.883191 2.4007 0
M  V30 8679 H 809.194 -2.00833 4.66507 0
M  V30 8680 H 809.124 -3.59152 3.8512 0
M  V30 8681 H 811.615 -2.26746 3.02315 0
M  V30 8682 H 811.928 -4.12151 6.53721 0
M  V30 8683 H 810.273 -3.71246 5.87538 0
M  V30 8684 H 813.464 -2.74082 3.79469 0
M  V30 8685 H 813.637 -3.58647 5.397 0
M  V30 8686 N 807.043 -1.17915 -1.04565 0
M  V30 8687 C 807.975 -0.859359 -2.1248 0
M  V30 8688 C 808.988 0.140922 -1.62189 0
M  V30 8689 O 810.177 -0.0862361 -1.78292 0
M  V30 8690 C 807.277 -0.261811 -3.37887 0
M  V30 8691 C 806.45 -1.30651 -4.17431 0
M  V30 8692 C 805.509 -0.725575 -5.21174 0
M  V30 8693 O 804.535 -1.39901 -5.51739 0
M  V30 8694 N 805.737 0.479351 -5.78517 0
M  V30 8695 H 808.502 -1.78818 -2.40508 0
M  V30 8696 H 806.063 -1.07885 -1.20716 0
M  V30 8697 H 808.055 0.14028 -4.04457 0
M  V30 8698 H 806.625 0.570929 -3.07342 0
M  V30 8699 H 805.845 -1.88412 -3.46258 0
M  V30 8700 H 807.133 -2.01099 -4.67372 0
M  V30 8701 H 806.531 1.04431 -5.55977 0
M  V30 8702 H 805.088 0.823427 -6.46578 0
M  V30 8703 N 808.521 1.23394 -0.980386 0
M  V30 8704 C 809.767 1.92094 -0.650223 0
M  V30 8705 C 810.1 1.76309 0.814173 0
M  V30 8706 O 809.375 1.12406 1.5873 0
M  V30 8707 C 809.658 3.44713 -1.04139 0
M  V30 8708 C 809.511 3.69606 -2.56342 0
M  V30 8709 C 810.83 4.36191 -0.585296 0
M  V30 8710 H 807.949 0.697618 -0.237695 0
M  V30 8711 H 810.591 1.45517 -1.22167 0
M  V30 8712 H 808.741 3.84513 -0.55515 0
M  V30 8713 H 810.413 3.39288 -3.1254 0
M  V30 8714 H 808.656 3.14318 -2.98976 0
M  V30 8715 H 809.327 4.76441 -2.78762 0
M  V30 8716 H 811.803 4.03836 -1.00276 0
M  V30 8717 H 810.679 5.41679 -0.887428 0
M  V30 8718 H 810.94 4.39097 0.51438 0
M  V30 8719 N 809.999 0.752036 1.385 0
M  V30 8720 C 811.415 0.42946 1.53713 0
M  V30 8721 C 811.615 -1.0576 1.71514 0
M  V30 8722 O 810.671 -1.84366 1.72527 0
M  V30 8723 C 811.984 1.22735 2.74511 0
M  V30 8724 C 813.532 1.21727 2.8836 0
M  V30 8725 C 814.007 1.99809 4.12117 0
M  V30 8726 N 815.498 1.97062 4.19191 0
M  V30 8727 C 816.233 2.54274 5.13938 0
M  V30 8728 N 815.729 3.20193 6.14368 0
M  V30 8729 N 817.522 2.44212 5.06277 0
M  V30 8730 H 809.673 1.71581 1.25195 0
M  V30 8731 H 811.936 0.727293 0.60807 0
M  V30 8732 H 811.642 2.28032 2.67758 0
M  V30 8733 H 811.516 0.843186 3.67655 0
M  V30 8734 H 813.903 0.172367 2.94596 0
M  V30 8735 H 813.984 1.64094 1.96232 0
M  V30 8736 H 813.628 3.0431 4.06642 0
M  V30 8737 H 813.558 1.54837 5.03322 0
M  V30 8738 H 816.049 1.49054 3.47263 0
M  V30 8739 H 816.362 3.61272 6.83156 0
M  V30 8740 H 814.707 3.24287 6.14705 0
M  V30 8741 H 817.898 1.92343 4.26757 0
M  V30 8742 H 818.071 2.89096 5.79937 0
M  V30 8743 N 811.477 -1.49425 0.500989 0
M  V30 8744 C 812.893 -1.58826 0.156951 0
M  V30 8745 C 813.093 -1.50622 -1.33848 0
M  V30 8746 O 812.149 -1.38016 -2.11442 0
M  V30 8747 C 813.462 -2.91611 0.73374 0
M  V30 8748 C 815.01 -3.05076 0.699846 0
M  V30 8749 C 815.485 -4.40479 1.2547 0
M  V30 8750 N 816.976 -4.4697 1.2154 0
M  V30 8751 C 817.711 -5.50189 1.6149 0
M  V30 8752 N 817.207 -6.60512 2.09034 0
M  V30 8753 N 819 -5.40903 1.52907 0
M  V30 8754 H 811.151 -1.53001 1.47324 0
M  V30 8755 H 813.414 -0.724765 0.61108 0
M  V30 8756 H 813.12 -3.03182 1.78251 0
M  V30 8757 H 812.994 -3.767 0.19417 0
M  V30 8758 H 815.381 -2.93134 -0.340085 0
M  V30 8759 H 815.462 -2.2167 1.27656 0
M  V30 8760 H 815.106 -4.53172 2.29341 0
M  V30 8761 H 815.036 -5.22524 0.653921 0
M  V30 8762 H 817.527 -3.67819 0.867043 0
M  V30 8763 H 817.84 -7.35372 2.37588 0
M  V30 8764 H 816.185 -6.61553 2.13008 0
M  V30 8765 H 819.376 -4.53606 1.15583 0
M  V30 8766 H 819.549 -6.21219 1.84365 0
M  V30 8767 N 812.955 -0.234822 -1.55841 0
M  V30 8768 C 814.204 0.393685 -1.97821 0
M  V30 8769 C 814.517 1.59947 -1.1259 0
M  V30 8770 O 815.723 2.29835 -1.44528 0
M  V30 8771 C 814.179 0.751811 -3.5196 0
M  V30 8772 C 813.787 -0.431898 -4.45913 0
M  V30 8773 C 815.531 1.34518 -4.02623 0
M  V30 8774 C 813.438 -0.0505976 -5.91378 0
M  V30 8775 H 812.368 0.150864 -0.738753 0
M  V30 8776 H 815.019 -0.333132 -1.80451 0
M  V30 8777 H 813.401 1.53642 -3.6498 0
M  V30 8778 H 814.575 -1.20935 -4.44647 0
M  V30 8779 H 812.89 -0.939385 -4.05666 0
M  V30 8780 H 815.487 1.64359 -5.08813 0
M  V30 8781 H 815.83 2.26554 -3.49255 0
M  V30 8782 H 816.363 0.623729 -3.9288 0
M  V30 8783 H 813.102 -0.937779 -6.48757 0
M  V30 8784 H 812.622 0.690898 -5.95808 0
M  V30 8785 H 814.301 0.37146 -6.45933 0
M  V30 8786 N 814.433 1.57553 0.0384317 0
M  V30 8787 C 815.681 1.88468 0.729672 0
M  V30 8788 C 816.002 0.831302 1.76393 0
M  V30 8789 O 815.272 -0.13622 1.95426 0
M  V30 8790 H 813.852 0.695529 0.272485 0
M  V30 8791 H 816.514 1.94899 0.0066032 0
M  V30 8792 H 815.61 2.8705 1.22511 0
M  V30 8793 N 815.911 -0.310526 1.54511 0
M  V30 8794 C 816.841 -1.38757 1.878 0
M  V30 8795 C 817.822 -1.53353 0.735991 0
M  V30 8796 O 819.007 -1.67018 0.990887 0
M  V30 8797 C 816.137 -2.75327 2.11689 0
M  V30 8798 C 815.091 -2.75506 3.27537 0
M  V30 8799 C 814.417 -4.15275 3.36824 0
M  V30 8800 C 815.717 -2.38093 4.64875 0
M  V30 8801 H 817.411 -1.11146 2.78005 0
M  V30 8802 H 814.957 -0.533232 1.33763 0
M  V30 8803 H 816.91 -3.50752 2.33562 0
M  V30 8804 H 815.634 -3.04443 1.18245 0
M  V30 8805 H 814.293 -2.02538 3.05572 0
M  V30 8806 H 813.941 -4.41553 2.40915 0
M  V30 8807 H 813.641 -4.16299 4.14692 0
M  V30 8808 H 815.165 -4.92493 3.60947 0
M  V30 8809 H 816.579 -3.03232 4.86542 0
M  V30 8810 H 814.976 -2.50345 5.45387 0
M  V30 8811 H 816.046 -1.33227 4.66239 0
M  V30 8812 N 817.389 -1.46805 -0.573248 0
M  V30 8813 C 818.666 -1.43082 -1.33368 0
M  V30 8814 C 819.046 -0.119252 -2.10763 0
M  V30 8815 O 818.394 0.899239 -2.10062 0
M  V30 8816 C 818.604 -2.66643 -2.25172 0
M  V30 8817 C 819.952 -3.13188 -2.86702 0
M  V30 8818 O 820.976 -2.67258 -2.35482 0
M  V30 8819 O 819.835 -3.92994 -3.79761 0
M  V30 8820 H 816.929 -0.569451 -0.599712 0
M  V30 8821 H 819.475 -1.58984 -0.59348 0
M  V30 8822 H 818.247 -3.53649 -1.67475 0
M  V30 8823 H 817.87 -2.53247 -3.06516 0
M  V30 8824 N 818.867 0.818669 -1.34668 0
M  V30 8825 C 819.797 1.94468 -1.29245 0
M  V30 8826 C 820.778 1.69257 -0.169101 0
M  V30 8827 O 821.963 1.90794 -0.362143 0
M  V30 8828 C 819.093 3.31001 -1.05145 0
M  V30 8829 C 818.047 3.70663 -2.13992 0
M  V30 8830 C 817.373 5.05226 -1.75074 0
M  V30 8831 C 818.673 3.82312 -3.55858 0
M  V30 8832 H 820.367 1.99263 -2.2346 0
M  V30 8833 H 817.913 0.957304 -1.07572 0
M  V30 8834 H 819.866 4.09364 -0.999949 0
M  V30 8835 H 818.59 3.26517 -0.0737312 0
M  V30 8836 H 817.249 2.94578 -2.18219 0
M  V30 8837 H 816.897 4.97233 -0.759518 0
M  V30 8838 H 816.597 5.32734 -2.47928 0
M  V30 8839 H 818.121 5.86042 -1.71427 0
M  V30 8840 H 819.535 4.50935 -3.5402 0
M  V30 8841 H 817.932 4.21278 -4.2737 0
M  V30 8842 H 819.002 2.84193 -3.9289 0
M  V30 8843 N 820.346 1.18468 1.03938 0
M  V30 8844 C 821.309 0.914944 2.10146 0
M  V30 8845 C 822.309 -0.10022 1.60487 0
M  V30 8846 O 823.499 0.133365 1.73689 0
M  V30 8847 C 820.631 0.372993 3.38853 0
M  V30 8848 H 821.824 1.85677 2.35508 0
M  V30 8849 H 819.377 0.996876 1.20383 0
M  V30 8850 H 820.112 -0.57538 3.19155 0
M  V30 8851 H 819.897 1.1048 3.76213 0
M  V30 8852 H 821.387 0.203014 4.17106 0
M  V30 8853 N 821.824 -1.22873 0.986916 0
M  V30 8854 C 822.787 -2.2281 0.537442 0
M  V30 8855 C 823.787 -1.56331 -0.37646 0
M  V30 8856 O 824.977 -1.73376 -0.169247 0
M  V30 8857 C 822.109 -3.40195 -0.219082 0
M  V30 8858 H 823.302 -2.64089 1.42116 0
M  V30 8859 H 820.855 -1.35819 0.773488 0
M  V30 8860 H 821.59 -3.04381 -1.11905 0
M  V30 8861 H 821.375 -3.89657 0.437026 0
M  V30 8862 H 822.865 -4.14326 -0.521926 0
M  V30 8863 N 823.302 -0.75937 -1.38099 0
M  V30 8864 C 824.232 -0.151077 -2.33011 0
M  V30 8865 C 825.213 0.697099 -1.5516 0
M  V30 8866 O 826.398 0.637101 -1.83452 0
M  V30 8867 C 823.528 0.738423 -3.39359 0
M  V30 8868 C 822.482 -0.0074741 -4.27999 0
M  V30 8869 C 821.808 1.00066 -5.25253 0
M  V30 8870 C 823.108 -1.17926 -5.08813 0
M  V30 8871 H 824.802 -0.943933 -2.84131 0
M  V30 8872 H 822.348 -0.455362 -1.36611 0
M  V30 8873 H 824.301 1.17369 -4.04725 0
M  V30 8874 H 823.025 1.56366 -2.86735 0
M  V30 8875 H 821.684 -0.423379 -3.64147 0
M  V30 8876 H 821.332 1.82012 -4.68914 0
M  V30 8877 H 821.032 0.506199 -5.85416 0
M  V30 8878 H 822.556 1.43512 -5.93495 0
M  V30 8879 H 823.97 -0.821262 -5.67387 0
M  V30 8880 H 822.367 -1.60497 -5.78239 0
M  V30 8881 H 823.437 -1.98938 -4.42212 0
M  V30 8882 N 824.78 1.49157 -0.508906 0
M  V30 8883 C 825.728 2.30922 0.278906 0
M  V30 8884 C 826.722 1.39889 0.955382 0
M  V30 8885 O 827.928 1.56901 0.882169 0
M  V30 8886 H 824.303 0.744087 0.108805 0
M  V30 8887 H 826.274 2.95277 -0.430583 0
M  V30 8888 C 825.023 3.21432 1.32576 0
M  V30 8889 H 824.346 3.91413 0.814634 0
M  V30 8890 H 825.786 3.81568 1.84882 0
M  V30 8891 C 824.245 2.41583 2.34817 0
M  V30 8892 O 824.775 2.1256 3.40854 0
M  V30 8893 N 822.981 2.03462 2.07489 0
M  V30 8894 H 822.528 2.27265 1.21278 0
M  V30 8895 H 822.486 1.50345 2.76123 0
M  V30 8896 N 826.258 0.243083 1.55714 0
M  V30 8897 C 827.191 -0.698623 2.17243 0
M  V30 8898 C 828.169 -1.1756 1.12331 0
M  V30 8899 O 829.353 -1.25444 1.40699 0
M  V30 8900 C 826.48 -1.94901 2.77004 0
M  V30 8901 C 825.526 -1.61022 3.94936 0
M  V30 8902 S 826.359 -0.716173 5.30689 0
M  V30 8903 C 827.515 -1.97565 5.93901 0
M  V30 8904 H 827.748 -0.175724 2.9678 0
M  V30 8905 H 825.281 0.0275727 1.54375 0
M  V30 8906 H 827.239 -2.66687 3.12071 0
M  V30 8907 H 825.9 -2.44304 1.9742 0
M  V30 8908 H 825.093 -2.5398 4.35328 0
M  V30 8909 H 824.695 -0.972829 3.61126 0
M  V30 8910 H 826.987 -2.92333 6.11186 0
M  V30 8911 H 827.93 -1.61528 6.8943 0
M  V30 8912 H 828.338 -2.126 5.22935 0
M  V30 8913 N 827.736 -1.57571 -0.0300757 0
M  V30 8914 C 828.668 -2.0329 -1.05857 0
M  V30 8915 C 829.681 -0.945543 -1.32527 0
M  V30 8916 O 830.87 -1.22287 -1.30032 0
M  V30 8917 C 827.97 -2.39234 -2.40042 0
M  V30 8918 C 827.143 -3.70337 -2.32743 0
M  V30 8919 C 826.202 -3.93482 -3.49369 0
M  V30 8920 O 825.228 -4.64551 -3.28909 0
M  V30 8921 N 826.43 -3.39042 -4.71201 0
M  V30 8922 H 829.195 -2.9214 -0.668897 0
M  V30 8923 H 826.756 -1.60425 -0.218038 0
M  V30 8924 H 828.748 -2.51856 -3.16782 0
M  V30 8925 H 827.318 -1.5606 -2.70858 0
M  V30 8926 H 826.538 -3.68079 -1.41109 0
M  V30 8927 H 827.826 -4.56343 -2.25007 0
M  V30 8928 H 827.224 -2.81434 -4.90725 0
M  V30 8929 H 825.781 -3.57045 -5.45309 0
M  V30 8930 N 829.214 0.302327 -1.54673 0
M  V30 8931 C 830.63 0.647911 -1.45857 0
M  V30 8932 C 830.83 1.90773 -0.64869 0
M  V30 8933 O 829.886 2.52018 -0.155865 0
M  V30 8934 C 831.199 0.802144 -2.89804 0
M  V30 8935 C 832.747 0.898114 -2.99838 0
M  V30 8936 C 833.222 1.08436 -4.44978 0
M  V30 8937 N 834.713 1.15059 -4.48682 0
M  V30 8938 C 835.448 1.31296 -5.58166 0
M  V30 8939 N 834.944 1.4444 -6.77576 0
M  V30 8940 N 836.737 1.34174 -5.45851 0
M  V30 8941 H 828.888 -0.525428 -2.05798 0
M  V30 8942 H 831.151 -0.173423 -0.932002 0
M  V30 8943 H 830.857 -0.0526531 -3.51661 0
M  V30 8944 H 830.731 1.69155 -3.37145 0
M  V30 8945 H 833.118 1.7434 -2.38096 0
M  V30 8946 H 833.199 -0.0152752 -2.55795 0
M  V30 8947 H 832.843 0.243843 -5.07314 0
M  V30 8948 H 832.773 2.01195 -4.8665 0
M  V30 8949 H 835.264 1.0626 -3.62653 0
M  V30 8950 H 835.577 1.56582 -7.56771 0
M  V30 8951 H 833.922 1.41499 -6.80443 0
M  V30 8952 H 837.113 1.23516 -4.5151 0
M  V30 8953 H 837.286 1.46485 -6.31226 0
M  V30 8954 N 830.692 1.47107 0.565454 0
M  V30 8955 C 831.917 1.57153 1.35343 0
M  V30 8956 C 832.342 0.219247 1.86818 0
M  V30 8957 O 831.7 -0.803539 1.62521 0
M  V30 8958 C 831.748 2.59387 2.50501 0
M  V30 8959 O 830.852 2.14086 3.52478 0
M  V30 8960 H 830.193 0.528209 0.402357 0
M  V30 8961 H 832.723 1.92821 0.684189 0
M  V30 8962 H 832.733 2.79546 2.97184 0
M  V30 8963 H 831.408 3.57579 2.12391 0
M  V30 8964 H 829.985 2.03991 3.12157 0
M  V30 8965 N 832.17 -0.811516 1.35101 0
M  V30 8966 C 833.586 -1.10634 1.15031 0
M  V30 8967 C 833.786 -2.01459 -0.0405379 0
M  V30 8968 O 832.842 -2.42235 -0.712635 0
M  V30 8969 C 834.155 -1.74207 2.45097 0
M  V30 8970 C 835.703 -1.8665 2.51258 0
M  V30 8971 C 836.178 -2.53638 3.81355 0
M  V30 8972 N 837.669 -2.61128 3.82579 0
M  V30 8973 C 838.404 -3.13717 4.79968 0
M  V30 8974 N 837.9 -3.66782 5.87744 0
M  V30 8975 N 839.693 -3.12224 4.67411 0
M  V30 8976 H 831.844 -0.207641 2.11383 0
M  V30 8977 H 834.107 -0.154697 0.935293 0
M  V30 8978 H 833.813 -1.14936 3.32389 0
M  V30 8979 H 833.687 -2.73958 2.59281 0
M  V30 8980 H 836.074 -2.45066 1.64398 0
M  V30 8981 H 836.155 -0.857678 2.40993 0
M  V30 8982 H 835.799 -1.95873 4.68611 0
M  V30 8983 H 835.729 -3.55047 3.88907 0
M  V30 8984 H 838.22 -2.23527 3.04703 0
M  V30 8985 H 838.533 -4.05194 6.58056 0
M  V30 8986 H 836.878 -3.64994 5.91443 0
M  V30 8987 H 840.069 -2.70042 3.82354 0
M  V30 8988 H 840.242 -3.52903 5.43474 0
M  V30 8989 N 833.648 -1.19017 -1.03309 0
M  V30 8990 C 834.925 -0.899659 -1.73682 0
M  V30 8991 C 835.305 0.595677 -2.02521 0
M  V30 8992 O 834.653 1.55263 -1.67648 0
M  V30 8993 C 834.863 -1.75508 -3.01659 0
M  V30 8994 C 836.211 -1.98679 -3.75249 0
M  V30 8995 O 837.235 -1.72624 -3.11576 0
M  V30 8996 O 836.094 -2.42587 -4.89708 0
M  V30 8997 H 833.188 -0.334903 -0.756154 0
M  V30 8998 H 835.734 -1.29809 -1.09305 0
M  V30 8999 H 834.506 -2.7684 -2.76542 0
M  V30 9000 H 834.129 -1.35565 -3.73775 0
M  V30 9001 N 835.127 1.22348 -0.993418 0
M  V30 9002 C 836.077 2.221 -0.515333 0
M  V30 9003 C 837.061 1.55409 0.416762 0
M  V30 9004 O 838.253 1.75317 0.243497 0
M  V30 9005 C 835.382 3.42888 0.168173 0
M  V30 9006 C 834.468 4.16786 -0.784257 0
M  V30 9007 N 834.859 4.67435 -1.93231 0
M  V30 9008 C 833.157 4.41942 -0.600243 0
M  V30 9009 C 833.858 5.23792 -2.53016 0
M  V30 9010 N 832.834 5.12483 -1.8128 0
M  V30 9011 H 836.636 2.58902 -1.39093 0
M  V30 9012 H 834.15 1.38024 -0.855747 0
M  V30 9013 H 836.147 4.13542 0.528069 0
M  V30 9014 H 834.807 3.07598 1.03989 0
M  V30 9015 H 835.818 4.63375 -2.31309 0
M  V30 9016 H 832.495 4.16891 0.225369 0
M  V30 9017 H 833.885 5.73515 -3.50043 0
M  V30 9018 N 836.605 0.766683 1.37694 0
M  V30 9019 C 837.853 0.328065 1.9942 0
M  V30 9020 C 838.174 -1.09775 1.61166 0
M  V30 9021 O 837.444 -1.75288 0.874686 0
M  V30 9022 H 836.024 0.11831 0.737572 0
M  V30 9023 H 838.686 0.983686 1.68255 0
M  V30 9024 H 837.782 0.401647 3.09505 0
M  V30 9025 N 838.083 -1.48885 0.516809 0
M  V30 9026 C 839.013 -2.32241 -0.242157 0
M  V30 9027 C 839.994 -1.41258 -0.947633 0
M  V30 9028 O 841.179 -1.70156 -0.935973 0
M  V30 9029 C 838.309 -3.22151 -1.29754 0
M  V30 9030 C 837.263 -4.22053 -0.710995 0
M  V30 9031 C 836.589 -5.01007 -1.86806 0
M  V30 9032 C 837.889 -5.21388 0.30853 0
M  V30 9033 H 839.583 -2.95943 0.453651 0
M  V30 9034 H 837.129 -1.42316 0.219612 0
M  V30 9035 H 839.082 -3.79284 -1.83634 0
M  V30 9036 H 837.806 -2.56423 -2.02274 0
M  V30 9037 H 836.465 -3.66087 -0.193819 0
M  V30 9038 H 836.113 -4.31713 -2.58133 0
M  V30 9039 H 835.813 -5.68615 -1.48159 0
M  V30 9040 H 837.337 -5.60989 -2.4109 0
M  V30 9041 H 838.751 -5.73122 -0.142703 0
M  V30 9042 H 837.148 -5.96975 0.611673 0
M  V30 9043 H 838.218 -4.69329 1.21894 0
M  V30 9044 N 839.561 -0.251338 -1.55583 0
M  V30 9045 C 840.972 0.25098 -1.85005 0
M  V30 9046 C 841.323 1.57259 -1.17321 0
M  V30 9047 O 840.448 2.11603 -0.453136 0
M  V30 9048 C 841.043 0.462161 -3.35633 0
M  V30 9049 C 839.602 0.908737 -3.65266 0
M  V30 9050 C 838.749 -0.0115418 -2.77298 0
M  V30 9051 H 841.7 -0.473782 -1.51463 0
M  V30 9052 H 841.721 1.30415 -3.57452 0
M  V30 9053 H 841.233 -0.499886 -3.84867 0
M  V30 9054 H 839.334 1.8831 -3.21512 0
M  V30 9055 H 839.447 0.762526 -4.72993 0
M  V30 9056 H 837.811 0.500612 -2.49732 0
M  V30 9057 H 838.594 -0.969042 -3.29339 0
M  V30 9058 N 841.039 1.57585 0.0217189 0
M  V30 9059 C 842.287 1.89231 0.709641 0
M  V30 9060 C 842.608 0.849964 1.75501 0
M  V30 9061 O 841.878 -0.115485 1.95559 0
M  V30 9062 H 840.458 0.69838 0.265092 0
M  V30 9063 H 843.12 1.94895 -0.0140688 0
M  V30 9064 H 842.216 2.88333 1.19459 0
M  V30 9065 N 842.517 -0.29412 1.54831 0
M  V30 9066 C 843.747 -1.04572 1.7818 0
M  V30 9067 C 844.155 -1.81187 0.544776 0
M  V30 9068 O 843.498 -1.769 -0.495169 0
M  V30 9069 C 843.56 -2.06748 2.94101 0
M  V30 9070 C 843.224 -1.49265 4.31936 0
M  V30 9071 C 844.221 -0.919136 5.11711 0
M  V30 9072 C 841.906 -1.52621 4.78552 0
M  V30 9073 C 843.9 -0.386824 6.36225 0
M  V30 9074 C 841.587 -0.990031 6.03027 0
M  V30 9075 C 842.585 -0.421315 6.81699 0
M  V30 9076 O 842.273 0.106713 8.03829 0
M  V30 9077 H 842.005 -0.31559 0.597812 0
M  V30 9078 H 844.559 -0.336817 2.0262 0
M  V30 9079 H 842.789 -2.81339 2.65303 0
M  V30 9080 H 844.478 -2.67865 3.04964 0
M  V30 9081 H 845.244 -0.886062 4.76837 0
M  V30 9082 H 841.123 -1.95826 4.17341 0
M  V30 9083 H 844.667 0.0577248 6.97576 0
M  V30 9084 H 840.564 -1.02027 6.37386 0
M  V30 9085 H 841.332 -0.00593526 8.185 0
M  V30 9086 N 843.995 -1.47404 -0.557645 0
M  V30 9087 C 844.943 -1.60265 -1.68576 0
M  V30 9088 C 845.937 -0.469982 -1.6275 0
M  V30 9089 O 847.143 -0.647764 -1.67941 0
M  V30 9090 H 843.518 -0.504353 -0.557792 0
M  V30 9091 H 845.489 -2.55066 -1.54867 0
M  V30 9092 C 844.238 -1.63369 -3.0693 0
M  V30 9093 H 843.561 -2.49874 -3.12095 0
M  V30 9094 H 845.001 -1.76417 -3.85556 0
M  V30 9095 C 843.46 -0.366921 -3.34896 0
M  V30 9096 O 843.99 0.53218 -3.98159 0
M  V30 9097 N 842.196 -0.247082 -2.89548 0
M  V30 9098 H 841.743 -0.979669 -2.38244 0
M  V30 9099 H 841.701 0.599552 -3.0863 0
M  V30 9100 N 845.473 0.80434 -1.35529 0
M  V30 9101 C 846.436 1.89788 -1.28503 0
M  V30 9102 C 847.436 1.59601 -0.195983 0
M  V30 9103 O 848.626 1.68292 -0.449827 0
M  V30 9104 C 845.758 3.26255 -0.98847 0
M  V30 9105 H 846.951 1.97436 -2.25741 0
M  V30 9106 H 844.504 1.00046 -1.20086 0
M  V30 9107 H 845.239 3.24294 -0.0200541 0
M  V30 9108 H 845.024 3.49551 -1.77641 0
M  V30 9109 H 846.514 4.06298 -0.964975 0
M  V30 9110 N 846.951 1.19563 1.02676 0
M  V30 9111 C 848.197 1.01108 1.7649 0
M  V30 9112 C 848.552 -0.453152 1.86987 0
M  V30 9113 O 847.845 -1.33209 1.37717 0
M  V30 9114 C 848.039 1.61619 3.18769 0
M  V30 9115 C 847.868 3.13774 3.22142 0
M  V30 9116 C 846.638 3.82687 3.29968 0
M  V30 9117 C 848.836 4.11114 3.09014 0
M  V30 9118 N 846.818 5.2222 3.22737 0
M  V30 9119 C 848.189 5.37259 3.0944 0
M  V30 9120 C 850.244 4.02447 2.93157 0
M  V30 9121 C 848.947 6.55738 2.95636 0
M  V30 9122 C 850.973 5.20538 2.80703 0
M  V30 9123 C 850.335 6.45582 2.81785 0
M  V30 9124 H 846.434 0.424123 0.656996 0
M  V30 9125 H 849.018 1.5157 1.22207 0
M  V30 9126 H 847.189 1.13756 3.71368 0
M  V30 9127 H 848.921 1.36579 3.80957 0
M  V30 9128 H 845.676 3.3349 3.36275 0
M  V30 9129 H 846.1 5.95238 3.22523 0
M  V30 9130 H 850.742 3.0659 2.9114 0
M  V30 9131 H 848.46 7.51778 2.96403 0
M  V30 9132 H 852.046 5.15635 2.69466 0
M  V30 9133 H 850.926 7.35423 2.72254 0
M  V30 9134 N 848.429 -1.21819 0.999893 0
M  V30 9135 C 849.845 -1.42847 0.711824 0
M  V30 9136 C 850.045 -1.88391 -0.714928 0
M  V30 9137 O 849.101 -2.0422 -1.48494 0
M  V30 9138 C 850.414 -2.46417 1.72334 0
M  V30 9139 C 851.962 -2.60207 1.73958 0
M  V30 9140 C 852.437 -3.67005 2.73992 0
M  V30 9141 N 853.928 -3.7447 2.72628 0
M  V30 9142 C 854.663 -4.56718 3.46693 0
M  V30 9143 N 854.159 -5.42904 4.3038 0
M  V30 9144 N 855.952 -4.51094 3.35366 0
M  V30 9145 H 848.103 -0.905656 1.92124 0
M  V30 9146 H 850.366 -0.459893 0.828977 0
M  V30 9147 H 850.072 -2.19914 2.74465 0
M  V30 9148 H 849.946 -3.45137 1.52186 0
M  V30 9149 H 852.333 -2.8605 0.725217 0
M  V30 9150 H 852.414 -1.61739 1.98177 0
M  V30 9151 H 852.058 -3.41908 3.75582 0
M  V30 9152 H 851.988 -4.65058 2.4704 0
M  V30 9153 H 854.479 -3.12895 2.11909 0
M  V30 9154 H 854.792 -6.02704 4.83702 0
M  V30 9155 H 853.137 -5.42463 4.34464 0
M  V30 9156 H 856.328 -3.82791 2.69423 0
M  V30 9157 H 856.501 -5.1496 3.93344 0
M  V30 9158 N 849.908 -0.773975 -1.37286 0
M  V30 9159 C 851.324 -0.45386 -1.53011 0
M  V30 9160 C 851.524 1.03018 -1.73175 0
M  V30 9161 O 850.58 1.81597 -1.75438 0
M  V30 9162 C 851.893 -1.27087 -2.72524 0
M  V30 9163 C 853.441 -1.26299 -2.86387 0
M  V30 9164 C 853.916 -2.0634 -4.08886 0
M  V30 9165 N 855.407 -2.03706 -4.16003 0
M  V30 9166 C 856.142 -2.62418 -5.09828 0
M  V30 9167 N 855.638 -3.29926 -6.09197 0
M  V30 9168 N 857.431 -2.52236 -5.02328 0
M  V30 9169 H 849.582 -1.73551 -1.22449 0
M  V30 9170 H 851.845 -0.736874 -0.596423 0
M  V30 9171 H 851.551 -2.32263 -2.64096 0
M  V30 9172 H 851.425 -0.90157 -3.66267 0
M  V30 9173 H 853.812 -0.219213 -2.94285 0
M  V30 9174 H 853.893 -1.67195 -1.93596 0
M  V30 9175 H 853.537 -3.10741 -4.01749 0
M  V30 9176 H 853.467 -1.62825 -5.00795 0
M  V30 9177 H 855.958 -1.54559 -3.44848 0
M  V30 9178 H 856.271 -3.72095 -6.77322 0
M  V30 9179 H 854.616 -3.34026 -6.09469 0
M  V30 9180 H 857.807 -1.99108 -4.23643 0
M  V30 9181 H 857.98 -2.98286 -5.75265 0
M  V30 9182 N 851.386 1.48609 -0.524698 0
M  V30 9183 C 852.633 2.02497 0.0113214 0
M  V30 9184 C 852.961 1.40229 1.34781 0
M  V30 9185 O 852.216 0.53557 1.88229 0
M  V30 9186 C 852.515 3.56906 0.187873 0
M  V30 9187 C 852.181 4.37932 -1.07359 0
M  V30 9188 C 850.843 4.59792 -1.41933 0
M  V30 9189 C 853.195 4.84902 -1.911 0
M  V30 9190 C 850.523 5.25868 -2.60154 0
M  V30 9191 C 852.875 5.52281 -3.08495 0
M  V30 9192 C 851.539 5.7238 -3.4342 0
M  V30 9193 H 850.809 0.740988 0.0041428 0
M  V30 9194 H 853.456 1.78651 -0.689652 0
M  V30 9195 H 851.761 3.79563 0.971572 0
M  V30 9196 H 853.458 3.96218 0.617443 0
M  V30 9197 H 850.048 4.21175 -0.794331 0
M  V30 9198 H 854.232 4.67821 -1.65701 0
M  V30 9199 H 849.488 5.39628 -2.87422 0
M  V30 9200 H 853.662 5.87645 -3.73692 0
M  V30 9201 H 851.289 6.23354 -4.35126 0
M  V30 9202 N 852.864 0.259585 1.55447 0
M  V30 9203 C 854.104 -0.362989 2.01151 0
M  V30 9204 C 854.468 -1.54201 1.14394 0
M  V30 9205 O 855.669 -2.23318 1.49608 0
M  V30 9206 C 853.94 -0.750399 3.49434 0
M  V30 9207 S 855.499 -1.3617 4.17137 0
M  V30 9208 H 852.317 -0.11365 0.701858 0
M  V30 9209 H 854.919 0.377788 1.91815 0
M  V30 9210 H 853.623 0.116807 4.10234 0
M  V30 9211 H 853.154 -1.52303 3.62722 0
M  V30 9212 H 855.169 -2.65059 4.19474 0
M  V30 9213 N 854.342 -1.57594 -0.0133615 0
M  V30 9214 C 855.59 -1.89605 -0.699596 0
M  V30 9215 C 855.911 -0.85926 -1.75048 0
M  V30 9216 O 855.181 0.105112 -1.95618 0
M  V30 9217 H 853.761 -0.699776 -0.261385 0
M  V30 9218 H 856.423 -1.94885 0.0244044 0
M  V30 9219 H 855.519 -2.88962 -1.17928 0
M  V30 9220 N 855.82 0.285905 -1.54985 0
M  V30 9221 C 856.75 1.35752 -1.89983 0
M  V30 9222 C 857.731 1.52163 -0.760295 0
M  V30 9223 O 858.916 1.65421 -1.01733 0
M  V30 9224 C 856.046 2.71925 -2.16042 0
M  V30 9225 C 855 2.70261 -3.31878 0
M  V30 9226 C 854.326 4.09864 -3.43388 0
M  V30 9227 C 855.626 2.30667 -4.68604 0
M  V30 9228 H 857.32 1.06709 -2.79738 0
M  V30 9229 H 854.866 0.511884 -1.34595 0
M  V30 9230 H 856.819 3.46992 -2.39113 0
M  V30 9231 H 855.543 3.02523 -1.23074 0
M  V30 9232 H 854.202 1.97651 -3.08755 0
M  V30 9233 H 853.85 4.37664 -2.47909 0
M  V30 9234 H 853.55 4.09648 -4.21262 0
M  V30 9235 H 855.074 4.86689 -3.68736 0
M  V30 9236 H 856.488 2.95453 -4.91305 0
M  V30 9237 H 854.885 2.41637 -5.49301 0
M  V30 9238 H 855.955 1.25793 -4.68299 0
M  V30 9239 N 857.298 1.47698 0.54982 0
M  V30 9240 C 858.523 1.58579 1.33669 0
M  V30 9241 C 858.948 0.239049 1.86575 0
M  V30 9242 O 858.306 -0.786256 1.63364 0
M  V30 9243 C 858.354 2.62029 2.47736 0
M  V30 9244 O 857.458 2.17813 3.50188 0
M  V30 9245 H 856.799 0.532447 0.396732 0
M  V30 9246 H 859.329 1.93536 0.6637 0
M  V30 9247 H 859.339 2.82682 2.94202 0
M  V30 9248 H 858.014 3.59812 2.08586 0
M  V30 9249 H 856.591 2.07291 3.09976 0
M  V30 9250 N 858.776 -0.797141 1.35954 0
M  V30 9251 C 859.708 -1.91782 1.25509 0
M  V30 9252 C 860.721 -1.61843 0.176271 0
M  V30 9253 O 861.91 -1.73235 0.430343 0
M  V30 9254 C 859.01 -3.26396 0.912073 0
M  V30 9255 C 858.183 -3.84171 2.0912 0
M  V30 9256 C 857.242 -4.9721 1.72246 0
M  V30 9257 O 856.268 -5.14136 2.44239 0
M  V30 9258 N 857.47 -5.76831 0.651611 0
M  V30 9259 H 860.235 -2.01266 2.22063 0
M  V30 9260 H 857.796 -0.975033 1.29247 0
M  V30 9261 H 859.788 -3.99499 0.646707 0
M  V30 9262 H 858.358 -3.12579 0.0359079 0
M  V30 9263 H 857.578 -3.03148 2.51982 0
M  V30 9264 H 858.866 -4.19503 2.87914 0
M  V30 9265 H 858.264 -5.65675 0.0536678 0
M  V30 9266 H 856.821 -6.50272 0.44605 0
M  V30 9267 N 860.254 -1.20106 -1.0204 0
M  V30 9268 C 861.665 -1.00992 -1.57027 0
M  V30 9269 C 862.016 0.434782 -1.91322 0
M  V30 9270 O 861.141 1.31557 -1.71819 0
M  V30 9271 C 861.736 -1.82697 -2.85319 0
M  V30 9272 C 860.295 -1.67959 -3.36848 0
M  V30 9273 C 859.442 -1.80868 -2.10195 0
M  V30 9274 H 862.393 -1.34354 -0.844676 0
M  V30 9275 H 862.414 -1.32809 -3.5657 0
M  V30 9276 H 861.926 -2.87839 -2.60328 0
M  V30 9277 H 860.027 -0.654389 -3.66809 0
M  V30 9278 H 860.14 -2.49006 -4.09308 0
M  V30 9279 H 858.504 -1.24015 -2.22469 0
M  V30 9280 H 859.287 -2.87486 -1.87635 0
M  V30 9281 N 861.732 1.21287 -1.00634 0
M  V30 9282 C 863.148 1.42467 -0.719389 0
M  V30 9283 C 863.348 1.88767 0.704927 0
M  V30 9284 O 862.404 2.05004 1.47409 0
M  V30 9285 C 863.717 2.455 -1.73639 0
M  V30 9286 C 865.265 2.59281 -1.75335 0
M  V30 9287 C 865.74 3.65547 -2.75934 0
M  V30 9288 N 867.231 3.73019 -2.74611 0
M  V30 9289 C 867.966 4.54873 -3.4911 0
M  V30 9290 N 867.462 5.40614 -4.33253 0
M  V30 9291 N 869.255 4.49309 -3.37754 0
M  V30 9292 H 861.406 0.895454 -1.92602 0
M  V30 9293 H 863.669 0.455491 -0.831404 0
M  V30 9294 H 863.375 2.18455 -2.75627 0
M  V30 9295 H 863.249 3.44325 -1.54014 0
M  V30 9296 H 865.636 2.85661 -0.740377 0
M  V30 9297 H 865.717 1.60685 -1.99032 0
M  V30 9298 H 865.361 3.39911 -3.77389 0
M  V30 9299 H 865.291 4.63741 -2.49503 0
M  V30 9300 H 867.782 3.11766 -2.13565 0
M  V30 9301 H 868.095 6.0013 -4.86892 0
M  V30 9302 H 866.44 5.40151 -4.37335 0
M  V30 9303 H 869.631 3.81357 -2.71449 0
M  V30 9304 H 869.804 5.12867 -3.9607 0
M  V30 9305 N 863.21 0.781244 1.36873 0
M  V30 9306 C 864.158 0.161889 2.32036 0
M  V30 9307 C 865.152 -0.674225 1.55405 0
M  V30 9308 O 866.358 -0.570223 1.70729 0
M  V30 9309 H 862.733 0.0335702 0.75125 0
M  V30 9310 H 864.704 0.980078 2.81846 0
M  V30 9311 C 863.453 -0.695352 3.40676 0
M  V30 9312 H 862.776 -0.0613425 3.99753 0
M  V30 9313 H 864.216 -1.09553 4.09602 0
M  V30 9314 C 862.675 -1.85008 2.81556 0
M  V30 9315 O 863.205 -2.94616 2.73065 0
M  V30 9316 N 861.411 -1.65364 2.38962 0
M  V30 9317 H 860.958 -0.762106 2.46068 0
M  V30 9318 H 860.916 -2.42789 1.99752 0
M  V30 9319 N 864.689 -1.48329 0.532571 0
M  V30 9320 C 865.619 -2.32485 -0.217511 0
M  V30 9321 C 866.6 -1.42255 -0.932598 0
M  V30 9322 O 867.785 -1.7114 -0.917873 0
M  V30 9323 C 864.915 -3.23509 -1.26329 0
M  V30 9324 C 863.869 -4.22784 -0.666191 0
M  V30 9325 C 863.195 -5.0296 -1.81482 0
M  V30 9326 C 864.495 -5.21031 0.363813 0
M  V30 9327 H 866.189 -2.95445 0.485014 0
M  V30 9328 H 863.735 -1.42075 0.234694 0
M  V30 9329 H 865.688 -3.81211 -1.79601 0
M  V30 9330 H 864.412 -2.58554 -1.99543 0
M  V30 9331 H 863.071 -3.66272 -0.15498 0
M  V30 9332 H 862.719 -4.34427 -2.5354 0
M  V30 9333 H 862.419 -5.70154 -1.4212 0
M  V30 9334 H 863.943 -5.63514 -2.35126 0
M  V30 9335 H 865.357 -5.73241 -0.0819079 0
M  V30 9336 H 863.754 -5.96292 0.674956 0
M  V30 9337 H 864.824 -4.6801 1.26865 0
M  V30 9338 N 866.167 -0.267825 -1.55308 0
M  V30 9339 C 867.13 0.60965 -2.20943 0
M  V30 9340 C 868.13 1.0869 -1.18504 0
M  V30 9341 O 869.32 0.988248 -1.43455 0
M  V30 9342 C 866.452 1.84027 -2.86961 0
M  V30 9343 H 867.645 0.0366806 -2.99878 0
M  V30 9344 H 865.198 -0.0183941 -1.56289 0
M  V30 9345 H 865.933 2.45394 -2.1202 0
M  V30 9346 H 865.718 1.50605 -3.62023 0
M  V30 9347 H 867.208 2.46442 -3.37129 0
M  V30 9348 N 867.645 1.57599 0.00500368 0
M  V30 9349 C 868.577 2.04949 1.02609 0
M  V30 9350 C 869.59 0.966507 1.31006 0
M  V30 9351 O 870.779 1.2434 1.2807 0
M  V30 9352 C 867.879 2.43023 2.36206 0
M  V30 9353 C 867.052 3.73993 2.26821 0
M  V30 9354 C 866.111 3.9899 3.43065 0
M  V30 9355 O 865.137 4.69725 3.21477 0
M  V30 9356 N 866.339 3.46496 4.65748 0
M  V30 9357 H 869.104 2.93167 0.622336 0
M  V30 9358 H 866.665 1.60752 0.192488 0
M  V30 9359 H 868.657 2.56863 3.12735 0
M  V30 9360 H 867.227 1.60349 2.68341 0
M  V30 9361 H 866.447 3.70277 1.35235 0
M  V30 9362 H 867.735 4.59865 2.17719 0
M  V30 9363 H 867.133 2.89206 4.86186 0
M  V30 9364 H 865.69 3.65675 5.3956 0
M  V30 9365 N 869.123 -0.277682 1.55134 0
M  V30 9366 C 870.053 -1.34742 1.90701 0
M  V30 9367 C 871.034 -1.51757 0.768354 0
M  V30 9368 O 872.219 -1.64879 1.02609 0
M  V30 9369 C 869.349 -2.70775 2.17481 0
M  V30 9370 C 868.303 -2.68497 3.33307 0
M  V30 9371 C 867.629 -4.08037 3.45557 0
M  V30 9372 C 868.929 -2.28178 4.69821 0
M  V30 9373 H 870.623 -1.05224 2.803 0
M  V30 9374 H 868.169 -0.504738 1.34864 0
M  V30 9375 H 870.122 -3.45719 2.40949 0
M  V30 9376 H 868.846 -3.01867 1.24676 0
M  V30 9377 H 867.505 -1.9601 3.09799 0
M  V30 9378 H 867.153 -4.36344 2.50226 0
M  V30 9379 H 866.853 -4.07409 4.23429 0
M  V30 9380 H 868.377 -4.84726 3.71312 0
M  V30 9381 H 869.791 -2.92843 4.92865 0
M  V30 9382 H 868.188 -2.3872 5.50575 0
M  V30 9383 H 869.258 -1.23308 4.6896 0
M  V30 9384 N 870.601 -1.47988 -0.541979 0
M  V30 9385 C 871.826 -1.59286 -1.32826 0
M  V30 9386 C 872.251 -0.24894 -1.86445 0
M  V30 9387 O 871.609 0.777581 -1.63778 0
M  V30 9388 C 871.657 -2.6334 -2.46343 0
M  V30 9389 O 870.761 -2.19667 -3.49028 0
M  V30 9390 H 870.102 -0.534543 -0.393903 0
M  V30 9391 H 872.632 -1.93885 -0.653427 0
M  V30 9392 H 872.642 -2.84238 -2.92699 0
M  V30 9393 H 871.317 -3.60913 -2.06675 0
M  V30 9394 H 869.894 -2.08932 -3.08872 0
M  V30 9395 N 872.079 0.78992 -1.36375 0
M  V30 9396 C 873.495 1.0879 -1.16777 0
M  V30 9397 C 873.695 2.01498 0.00848236 0
M  V30 9398 O 872.751 2.43338 0.674007 0
M  V30 9399 C 874.064 1.70285 -2.47837 0
M  V30 9400 C 875.612 1.82629 -2.54196 0
M  V30 9401 C 876.087 2.47539 -3.85342 0
M  V30 9402 N 877.578 2.55008 -3.86685 0
M  V30 9403 C 878.313 3.06041 -4.84898 0
M  V30 9404 N 877.809 3.57385 -5.93505 0
M  V30 9405 N 879.602 3.04748 -4.72319 0
M  V30 9406 H 871.753 0.173985 -2.11686 0
M  V30 9407 H 874.016 0.139798 -0.937636 0
M  V30 9408 H 873.722 1.09633 -3.34176 0
M  V30 9409 H 873.596 2.69799 -2.63607 0
M  V30 9410 H 875.983 2.42419 -1.68276 0
M  V30 9411 H 876.064 0.81923 -2.42327 0
M  V30 9412 H 875.708 1.88393 -4.71668 0
M  V30 9413 H 875.638 3.48815 -3.94507 0
M  V30 9414 H 878.129 2.18651 -3.08221 0
M  V30 9415 H 878.442 3.94674 -6.64419 0
M  V30 9416 H 876.787 3.55538 -5.97175 0
M  V30 9417 H 879.978 2.63925 -3.86602 0
M  V30 9418 H 880.151 3.44212 -5.49019 0
M  V30 9419 N 873.557 1.20646 1.01402 0
M  V30 9420 C 874.803 1.0197 1.753 0
M  V30 9421 C 875.136 -0.446803 1.8899 0
M  V30 9422 O 874.411 -1.33169 1.41762 0
M  V30 9423 C 874.694 1.70693 3.17074 0
M  V30 9424 C 874.547 3.24805 3.11162 0
M  V30 9425 C 875.866 1.44212 4.15802 0
M  V30 9426 H 872.985 0.371844 0.636318 0
M  V30 9427 H 875.627 1.48696 1.18277 0
M  V30 9428 H 873.777 1.30968 3.65759 0
M  V30 9429 H 875.449 3.73841 2.70261 0
M  V30 9430 H 873.692 3.55576 2.48492 0
M  V30 9431 H 874.363 3.68049 4.11393 0
M  V30 9432 H 876.839 1.7868 3.75783 0
M  V30 9433 H 875.715 1.94825 5.13161 0
M  V30 9434 H 875.976 0.370252 4.40547 0
M  V30 9435 N 875.035 -1.20752 1.01276 0
M  V30 9436 C 875.965 -2.25658 0.600064 0
M  V30 9437 C 876.946 -1.65733 -0.38298 0
M  V30 9438 O 878.131 -1.92324 -0.269256 0
M  V30 9439 C 875.261 -3.47237 -0.0663197 0
M  V30 9440 C 874.215 -4.1973 0.83731 0
M  V30 9441 C 873.541 -5.34687 0.0369102 0
M  V30 9442 C 874.841 -4.76286 2.14357 0
M  V30 9443 H 876.535 -2.60432 1.477 0
M  V30 9444 H 874.081 -1.25187 0.711634 0
M  V30 9445 H 876.034 -4.19803 -0.366563 0
M  V30 9446 H 874.758 -3.11615 -0.977944 0
M  V30 9447 H 873.417 -3.49024 1.1215 0
M  V30 9448 H 873.065 -4.95309 -0.876244 0
M  V30 9449 H 872.765 -5.84119 0.63865 0
M  V30 9450 H 874.289 -6.10059 -0.256968 0
M  V30 9451 H 875.703 -5.40691 1.90595 0
M  V30 9452 H 874.1 -5.36139 2.69583 0
M  V30 9453 H 875.17 -3.9524 2.80916 0
M  V30 9454 N 876.513 -0.788492 -1.36457 0
M  V30 9455 C 877.46 -0.18435 -2.30063 0
M  V30 9456 C 878.43 0.67128 -1.51931 0
M  V30 9457 O 879.615 0.620152 -1.8044 0
M  V30 9458 C 876.755 0.675596 -3.38422 0
M  V30 9459 C 875.868 -0.198475 -4.31544 0
M  V30 9460 C 875.003 0.667757 -5.26986 0
M  V30 9461 C 874.042 -0.207825 -6.11747 0
M  V30 9462 N 873.179 0.617335 -6.99381 0
M  V30 9463 H 878.019 -0.988056 -2.81143 0
M  V30 9464 H 875.556 -0.498815 -1.38384 0
M  V30 9465 H 877.514 1.18916 -3.99894 0
M  V30 9466 H 876.144 1.44474 -2.88664 0
M  V30 9467 H 875.196 -0.829995 -3.71235 0
M  V30 9468 H 876.508 -0.873163 -4.91098 0
M  V30 9469 H 875.662 1.24716 -5.93743 0
M  V30 9470 H 874.401 1.37607 -4.67884 0
M  V30 9471 H 873.406 -0.799638 -5.43954 0
M  V30 9472 H 874.631 -0.913729 -6.72925 0
M  V30 9473 H 872.577 1.30996 -6.42788 0
M  V30 9474 H 872.494 0.000307255 -7.56 0
M  V30 9475 H 873.762 1.1806 -7.70508 0
M  V30 9476 N 877.991 1.48044 -0.54043 0
M  V30 9477 C 878.939 2.31461 0.229862 0
M  V30 9478 C 879.933 1.41884 0.925495 0
M  V30 9479 O 881.139 1.58736 0.848689 0
M  V30 9480 H 877.514 0.746227 0.0929975 0
M  V30 9481 H 879.485 2.94297 -0.493118 0
M  V30 9482 C 878.234 3.24172 1.25729 0
M  V30 9483 H 877.557 3.93052 0.731426 0
M  V30 9484 H 878.997 3.85404 1.76747 0
M  V30 9485 C 877.456 2.4651 2.2964 0
M  V30 9486 O 877.986 2.19742 3.36268 0
M  V30 9487 N 876.192 2.07817 2.03127 0
M  V30 9488 H 875.739 2.29786 1.1643 0
M  V30 9489 H 875.697 1.56168 2.72872 0
M  V30 9490 N 879.47 0.276058 1.55163 0
M  V30 9491 C 880.402 -0.644254 2.19959 0
M  V30 9492 C 881.415 -1.11675 1.18459 0
M  V30 9493 O 882.604 -1.0385 1.45181 0
M  V30 9494 C 879.704 -1.89093 2.81242 0
M  V30 9495 C 878.877 -1.56509 4.08441 0
M  V30 9496 C 877.936 -2.66433 4.53762 0
M  V30 9497 O 876.962 -2.32579 5.19515 0
M  V30 9498 N 878.164 -3.96509 4.23982 0
M  V30 9499 H 880.929 -0.0896808 2.99566 0
M  V30 9500 H 878.49 0.0971981 1.61608 0
M  V30 9501 H 880.482 -2.61929 3.08505 0
M  V30 9502 H 879.052 -2.35453 2.05622 0
M  V30 9503 H 878.272 -0.670522 3.88455 0
M  V30 9504 H 879.56 -1.32242 4.91314 0
M  V30 9505 H 878.958 -4.26834 3.71254 0
M  V30 9506 H 877.515 -4.6572 4.56014 0
M  V30 9507 N 880.948 -1.576 0.00335426 0
M  V30 9508 C 882.225 -1.81945 -0.718015 0
M  V30 9509 C 882.605 -0.881788 -1.91801 0
M  V30 9510 O 881.953 0.0687118 -2.28397 0
M  V30 9511 C 882.163 -3.30521 -1.12058 0
M  V30 9512 C 883.511 -3.96345 -1.52303 0
M  V30 9513 O 884.535 -3.34864 -1.21428 0
M  V30 9514 O 883.394 -5.04655 -2.09728 0
M  V30 9515 H 880.488 -0.749328 -0.34991 0
M  V30 9516 H 883.034 -1.69675 0.0290654 0
M  V30 9517 H 881.806 -3.90399 -0.265378 0
M  V30 9518 H 881.429 -3.47802 -1.92665 0
M  V30 9519 N 882.426 0.269451 -1.5528 0
M  V30 9520 C 883.356 1.33729 -1.91413 0
M  V30 9521 C 884.337 1.51348 -0.776391 0
M  V30 9522 O 885.522 1.64332 -1.03482 0
M  V30 9523 C 882.652 2.69618 -2.18914 0
M  V30 9524 C 881.606 2.66725 -3.34726 0
M  V30 9525 C 880.932 4.06199 -3.47716 0
M  V30 9526 C 882.232 2.25684 -4.71025 0
M  V30 9527 H 883.926 1.03736 -2.80854 0
M  V30 9528 H 881.472 0.497579 -1.3513 0
M  V30 9529 H 883.425 3.44436 -2.42779 0
M  V30 9530 H 882.149 3.01201 -1.26275 0
M  V30 9531 H 880.808 1.94365 -3.10834 0
M  V30 9532 H 880.456 4.3501 -2.52537 0
M  V30 9533 H 880.156 4.05157 -4.25583 0
M  V30 9534 H 881.68 4.8275 -3.73877 0
M  V30 9535 H 883.094 2.90225 -4.94411 0
M  V30 9536 H 881.491 2.35797 -5.51833 0
M  V30 9537 H 882.561 1.20819 -4.69607 0
M  V30 9538 N 883.904 1.48273 0.534124 0
M  V30 9539 C 884.867 1.6201 1.62127 0
M  V30 9540 C 885.867 0.493653 1.53035 0
M  V30 9541 O 887.057 0.759337 1.56779 0
M  V30 9542 C 884.189 1.5864 3.01739 0
M  V30 9543 H 885.382 2.58944 1.51288 0
M  V30 9544 H 882.935 1.36808 0.755861 0
M  V30 9545 H 883.67 0.631685 3.18088 0
M  V30 9546 H 883.455 2.40415 3.09747 0
M  V30 9547 H 884.945 1.71438 3.80787 0
M  V30 9548 N 885.382 -0.782676 1.36792 0
M  V30 9549 C 886.798 -1.08169 1.17352 0
M  V30 9550 C 886.998 -2.015 0.0022037 0
M  V30 9551 O 886.054 -2.43692 -0.661093 0
M  V30 9552 C 887.367 -1.68969 2.48737 0
M  V30 9553 C 888.915 -1.81278 2.55161 0
M  V30 9554 C 889.39 -2.45492 3.86649 0
M  V30 9555 N 890.881 -2.52954 3.88032 0
M  V30 9556 C 891.616 -3.03465 4.86515 0
M  V30 9557 N 891.112 -3.54232 5.95392 0
M  V30 9558 N 892.905 -3.02239 4.73928 0
M  V30 9559 H 885.056 -0.162757 2.11775 0
M  V30 9560 H 887.319 -0.134823 0.938364 0
M  V30 9561 H 887.025 -1.07859 3.34753 0
M  V30 9562 H 886.899 -2.68397 2.65034 0
M  V30 9563 H 889.286 -2.41524 1.69559 0
M  V30 9564 H 889.367 -0.806367 2.42758 0
M  V30 9565 H 889.011 -1.85889 4.7266 0
M  V30 9566 H 888.941 -3.46718 3.96351 0
M  V30 9567 H 891.432 -2.17014 3.09376 0
M  V30 9568 H 891.745 -3.91145 6.66503 0
M  V30 9569 H 890.09 -3.52366 5.99052 0
M  V30 9570 H 893.281 -2.61871 3.87996 0
M  V30 9571 H 893.454 -3.41295 5.50837 0
M  V30 9572 N 886.86 -1.21182 -1.00761 0
M  V30 9573 C 887.807 -0.968741 -2.09485 0
M  V30 9574 C 888.777 0.104325 -1.65772 0
M  V30 9575 O 889.962 -0.0422587 -1.90753 0
M  V30 9576 C 887.102 -0.536686 -3.40901 0
M  V30 9577 C 886.215 -1.6789 -3.98041 0
M  V30 9578 C 885.35 -1.19627 -5.17555 0
M  V30 9579 C 884.389 -2.31099 -5.66798 0
M  V30 9580 N 883.526 -1.83988 -6.77564 0
M  V30 9581 H 888.366 -1.89952 -2.29613 0
M  V30 9582 H 885.903 -0.946688 -1.12589 0
M  V30 9583 H 887.861 -0.26745 -4.16342 0
M  V30 9584 H 886.491 0.357092 -3.20819 0
M  V30 9585 H 885.543 -2.06284 -3.19611 0
M  V30 9586 H 886.855 -2.51794 -4.30582 0
M  V30 9587 H 886.009 -0.883539 -6.00232 0
M  V30 9588 H 884.748 -0.327244 -4.86601 0
M  V30 9589 H 883.753 -2.63178 -4.82719 0
M  V30 9590 H 884.978 -3.18493 -5.99782 0
M  V30 9591 H 882.924 -0.994257 -6.48422 0
M  V30 9592 H 882.841 -2.61466 -7.09346 0
M  V30 9593 H 884.109 -1.55741 -7.63783 0
M  V30 9594 N 888.338 1.20213 -1.01915 0
M  V30 9595 C 889.585 1.89647 -0.709955 0
M  V30 9596 C 889.913 1.7901 0.760631 0
M  V30 9597 O 889.168 1.17028 1.56853 0
M  V30 9598 C 889.467 3.40232 -1.09438 0
M  V30 9599 C 889.133 3.7107 -2.5616 0
M  V30 9600 C 887.795 3.79196 -2.96249 0
M  V30 9601 C 890.147 3.85169 -3.51133 0
M  V30 9602 C 887.475 3.98882 -4.30244 0
M  V30 9603 C 889.827 4.06365 -4.8482 0
M  V30 9604 C 888.491 4.12722 -5.24611 0
M  V30 9605 H 887.761 0.693967 -0.259791 0
M  V30 9606 H 890.408 1.42419 -1.2802 0
M  V30 9607 H 888.713 3.89292 -0.442596 0
M  V30 9608 H 890.41 3.92257 -0.832811 0
M  V30 9609 H 887 3.65346 -2.24099 0
M  V30 9610 H 891.184 3.78243 -3.21319 0
M  V30 9611 H 886.44 4.02039 -4.60624 0
M  V30 9612 H 890.614 4.16216 -5.58334 0
M  V30 9613 H 888.241 4.27728 -6.28453 0
M  V30 9614 N 889.816 0.795718 1.36037 0
M  V30 9615 C 890.746 0.212803 2.32528 0
M  V30 9616 C 891.727 -0.655716 1.56953 0
M  V30 9617 O 892.912 -0.588238 1.85077 0
M  V30 9618 C 890.042 -0.648189 3.41198 0
M  V30 9619 C 888.996 0.120948 4.27829 0
M  V30 9620 C 888.322 -0.861044 5.27722 0
M  V30 9621 C 889.622 1.31375 5.05508 0
M  V30 9622 H 891.316 1.01893 2.81528 0
M  V30 9623 H 888.862 0.491422 1.35355 0
M  V30 9624 H 890.815 -1.06597 4.07695 0
M  V30 9625 H 889.539 -1.48709 2.9078 0
M  V30 9626 H 888.198 0.519777 3.62897 0
M  V30 9627 H 887.846 -1.69515 4.73575 0
M  V30 9628 H 887.546 -0.350808 5.86552 0
M  V30 9629 H 889.07 -1.27726 5.97092 0
M  V30 9630 H 890.484 0.971406 5.6501 0
M  V30 9631 H 888.881 1.75772 5.73781 0
M  V30 9632 H 889.951 2.10593 4.36782 0
M  V30 9633 N 891.294 -1.47756 0.548274 0
M  V30 9634 C 892.242 -2.3158 -0.217584 0
M  V30 9635 C 893.236 -1.42372 -0.917957 0
M  V30 9636 O 894.442 -1.59184 -0.840259 0
M  V30 9637 H 890.817 -0.74671 -0.0890388 0
M  V30 9638 H 892.788 -2.94032 0.508719 0
M  V30 9639 C 891.537 -3.24834 -1.24008 0
M  V30 9640 H 890.86 -3.93435 -0.710572 0
M  V30 9641 H 892.3 -3.86336 -1.74701 0
M  V30 9642 C 890.759 -2.47724 -2.2833 0
M  V30 9643 O 891.289 -2.21522 -3.35098 0
M  V30 9644 N 889.495 -2.08891 -2.02022 0
M  V30 9645 H 889.042 -2.30401 -1.1521 0
M  V30 9646 H 889 -1.57613 -2.7204 0
M  V30 9647 N 892.772 -0.284283 -1.55015 0
M  V30 9648 C 893.702 0.592663 -2.25853 0
M  V30 9649 C 894.683 1.15151 -1.25197 0
M  V30 9650 O 895.868 1.18395 -1.53936 0
M  V30 9651 C 892.998 1.77254 -2.98661 0
M  V30 9652 C 891.952 1.34482 -4.06323 0
M  V30 9653 C 891.278 2.60853 -4.66754 0
M  V30 9654 C 892.578 0.488288 -5.20013 0
M  V30 9655 H 894.272 0.00187041 -2.994 0
M  V30 9656 H 891.818 -0.000540402 -1.44 0
M  V30 9657 H 893.771 2.39199 -3.46932 0
M  V30 9658 H 892.495 2.38931 -2.22664 0
M  V30 9659 H 891.154 0.748519 -3.58877 0
M  V30 9660 H 890.802 3.20808 -3.87416 0
M  V30 9661 H 890.502 2.32942 -5.39455 0
M  V30 9662 H 892.026 3.23631 -5.1778 0
M  V30 9663 H 893.44 1.01298 -5.6428 0
M  V30 9664 H 891.837 0.303669 -5.99331 0
M  V30 9665 H 892.907 -0.490727 -4.8241 0
M  V30 9666 N 894.251 1.57596 -0.0117121 0
M  V30 9667 C 895.481 1.95077 0.680346 0
M  V30 9668 C 895.889 0.885793 1.67184 0
M  V30 9669 O 895.232 -0.142723 1.83145 0
M  V30 9670 C 895.294 3.28611 1.45791 0
M  V30 9671 C 894.958 4.52682 0.626706 0
M  V30 9672 C 895.955 5.19821 -0.0906223 0
M  V30 9673 C 893.64 4.99064 0.569229 0
M  V30 9674 C 895.634 6.31649 -0.854289 0
M  V30 9675 C 893.321 6.10779 -0.198155 0
M  V30 9676 C 894.319 6.76929 -0.908636 0
M  V30 9677 O 894.007 7.86501 -1.66348 0
M  V30 9678 H 893.739 0.647663 0.193672 0
M  V30 9679 H 896.293 2.05305 -0.0624969 0
M  V30 9680 H 894.523 3.14824 2.2455 0
M  V30 9681 H 896.212 3.51119 2.03642 0
M  V30 9682 H 896.978 4.84968 -0.0554421 0
M  V30 9683 H 892.857 4.47393 1.11178 0
M  V30 9684 H 896.401 6.83215 -1.40937 0
M  V30 9685 H 892.298 6.45072 -0.235114 0
M  V30 9686 H 893.066 8.03078 -1.58141 0
M  V30 9687 N 895.729 -0.261212 1.5542 0
M  V30 9688 C 896.977 -0.989272 1.76232 0
M  V30 9689 C 897.298 -1.86389 0.573067 0
M  V30 9690 O 896.568 -1.91526 -0.41166 0
M  V30 9691 H 895.148 -0.368256 0.64992 0
M  V30 9692 H 897.81 -0.282603 1.9284 0
M  V30 9693 H 896.906 -1.61935 2.66802 0
M  V30 9694 N 897.207 -1.48554 -0.526253 0
M  V30 9695 C 898.435 -1.60429 -1.30652 0
M  V30 9696 C 898.85 -0.265963 -1.86917 0
M  V30 9697 O 898.207 0.745262 -1.6659 0
M  V30 9698 C 898.258 -2.65377 -2.45473 0
M  V30 9699 O 897.979 -3.94017 -1.91527 0
M  V30 9700 C 899.48 -2.87726 -3.37237 0
M  V30 9701 H 896.7 -0.540817 -0.397187 0
M  V30 9702 H 899.244 -1.94409 -0.634461 0
M  V30 9703 H 897.399 -2.34246 -3.08557 0
M  V30 9704 H 897.813 -4.51623 -2.66715 0
M  V30 9705 H 899.287 -3.64951 -4.14144 0
M  V30 9706 H 899.764 -1.96688 -3.92696 0
M  V30 9707 H 900.37 -3.20176 -2.79942 0
M  V30 9708 N 898.685 0.775411 -1.37205 0
M  V30 9709 C 900.096 1.35147 -1.28811 0
M  V30 9710 C 900.447 1.96089 0.0659168 0
M  V30 9711 O 899.572 1.93558 0.967684 0
M  V30 9712 C 900.167 2.45715 -2.33258 0
M  V30 9713 C 898.726 2.99099 -2.2851 0
M  V30 9714 C 897.873 1.72286 -2.17285 0
M  V30 9715 H 900.824 0.575954 -1.4788 0
M  V30 9716 H 900.845 3.251 -1.97712 0
M  V30 9717 H 900.357 2.01331 -3.31795 0
M  V30 9718 H 898.458 3.47868 -1.33485 0
M  V30 9719 H 898.571 3.54962 -3.21774 0
M  V30 9720 H 896.935 1.95068 -1.6377 0
M  V30 9721 H 897.718 1.3001 -3.1773 0
M  V30 9722 N 900.163 1.21714 1.00117 0
M  V30 9723 C 901.44 0.945391 1.71236 0
M  V30 9724 C 901.82 -0.541772 2.0403 0
M  V30 9725 O 901.168 -1.50763 1.71705 0
M  V30 9726 C 901.378 1.83444 2.96899 0
M  V30 9727 C 902.726 2.08558 3.69849 0
M  V30 9728 O 903.75 1.80824 3.06889 0
M  V30 9729 O 902.609 2.55485 4.83104 0
M  V30 9730 H 899.703 0.354834 0.747009 0
M  V30 9731 H 902.249 1.32661 1.05825 0
M  V30 9732 H 901.021 2.84075 2.69105 0
M  V30 9733 H 900.644 1.45428 3.70049 0
M  V30 9734 N 901.641 -1.19671 1.02551 0
M  V30 9735 C 902.589 -2.24812 0.596867 0
M  V30 9736 C 903.583 -1.65336 -0.368839 0
M  V30 9737 O 904.789 -1.78422 -0.237786 0
M  V30 9738 H 901.164 -0.731417 0.174739 0
M  V30 9739 H 903.135 -2.58286 1.49435 0
M  V30 9740 C 901.884 -3.47677 -0.0399514 0
M  V30 9741 H 901.207 -3.93728 0.694153 0
M  V30 9742 H 902.647 -4.22917 -0.302861 0
M  V30 9743 C 901.106 -3.11411 -1.2855 0
M  V30 9744 O 901.636 -3.23757 -2.37791 0
M  V30 9745 N 899.842 -2.65875 -1.17297 0
M  V30 9746 H 899.389 -2.56029 -0.284045 0
M  V30 9747 H 899.347 -2.41981 -2.00731 0
M  V30 9748 N 903.119 -0.802921 -1.35613 0
M  V30 9749 C 904.368 -0.378087 -1.98125 0
M  V30 9750 C 904.681 1.05953 -1.64418 0
M  V30 9751 O 905.887 1.58729 -2.20266 0
M  V30 9752 C 904.343 -0.625077 -3.5443 0
M  V30 9753 C 903.951 -2.07499 -3.97049 0
M  V30 9754 C 905.695 -0.265419 -4.23669 0
M  V30 9755 C 903.602 -2.26793 -5.46186 0
M  V30 9756 H 902.532 -0.137633 -0.741332 0
M  V30 9757 H 905.183 -0.986461 -1.54729 0
M  V30 9758 H 903.565 0.0531975 -3.95964 0
M  V30 9759 H 904.739 -2.79077 -3.66678 0
M  V30 9760 H 903.054 -2.39417 -3.40688 0
M  V30 9761 H 905.651 -0.387669 -5.33293 0
M  V30 9762 H 905.994 0.787994 -4.08774 0
M  V30 9763 H 906.527 -0.897464 -3.87544 0
M  V30 9764 H 903.266 -3.30566 -5.66045 0
M  V30 9765 H 902.786 -1.59735 -5.78139 0
M  V30 9766 H 904.465 -2.08165 -6.12598 0
M  V30 9767 N 904.597 1.47463 -0.556102 0
M  V30 9768 C 905.874 1.9557 0.0339892 0
M  V30 9769 C 906.254 1.49869 1.48669 0
M  V30 9770 O 905.602 0.737019 2.16288 0
M  V30 9771 C 905.812 3.48826 -0.110343 0
M  V30 9772 C 907.16 4.24585 0.0355716 0
M  V30 9773 O 908.184 3.5618 -0.0378356 0
M  V30 9774 O 907.043 5.46158 0.193299 0
M  V30 9775 H 904.137 0.824461 0.0647521 0
M  V30 9776 H 906.683 1.57868 -0.622547 0
M  V30 9777 H 905.455 3.74891 -1.12126 0
M  V30 9778 H 905.078 3.9329 0.583855 0
M  V30 9779 N 906.075 0.2925 1.54862 0
M  V30 9780 C 907.324 -0.319994 1.99146 0
M  V30 9781 C 907.637 -1.55658 1.18448 0
M  V30 9782 O 908.843 -2.24312 1.52959 0
M  V30 9783 C 907.299 -0.620665 3.54508 0
M  V30 9784 C 906.907 0.597098 4.44003 0
M  V30 9785 C 908.651 -1.19482 4.07338 0
M  V30 9786 C 906.558 0.270049 5.90783 0
M  V30 9787 H 905.488 -0.123342 0.743843 0
M  V30 9788 H 908.139 0.399876 1.7909 0
M  V30 9789 H 906.521 -1.3999 3.7043 0
M  V30 9790 H 907.695 1.37354 4.39853 0
M  V30 9791 H 906.01 1.0893 4.019 0
M  V30 9792 H 908.607 -1.45362 5.14562 0
M  V30 9793 H 908.95 -2.13435 3.57423 0
M  V30 9794 H 909.483 -0.477485 3.94924 0
M  V30 9795 H 906.222 1.17791 6.4483 0
M  V30 9796 H 905.742 -0.469292 5.97961 0
M  V30 9797 H 907.421 -0.131471 6.46866 0
M  V30 9798 N 907.553 -1.57587 0.0200696 0
M  V30 9799 C 908.799 -1.92539 -0.655764 0
M  V30 9800 C 909.154 -0.896187 -1.70253 0
M  V30 9801 O 908.447 0.0890022 -1.91393 0
M  V30 9802 C 908.641 -3.32002 -1.32323 0
M  V30 9803 C 908.47 -4.48393 -0.342632 0
M  V30 9804 C 907.24 -5.05271 0.0542423 0
M  V30 9805 C 909.438 -5.12747 0.399388 0
M  V30 9806 N 907.42 -6.05181 1.03095 0
M  V30 9807 C 908.791 -6.07674 1.23014 0
M  V30 9808 C 910.846 -4.95761 0.461065 0
M  V30 9809 C 909.549 -6.87442 2.11698 0
M  V30 9810 C 911.575 -5.7613 1.33521 0
M  V30 9811 C 910.937 -6.70666 2.15376 0
M  V30 9812 H 907.036 -0.75256 -0.212549 0
M  V30 9813 H 909.62 -1.94514 0.0851247 0
M  V30 9814 H 907.791 -3.30863 -2.0343 0
M  V30 9815 H 909.523 -3.54327 -1.95537 0
M  V30 9816 H 906.278 -4.72529 -0.318327 0
M  V30 9817 H 906.702 -6.59824 1.51528 0
M  V30 9818 H 911.344 -4.22506 -0.15752 0
M  V30 9819 H 909.062 -7.60008 2.74616 0
M  V30 9820 H 912.648 -5.65023 1.38711 0
M  V30 9821 H 911.528 -7.31772 2.81922 0
M  V30 9822 N 909.032 0.252966 -1.55557 0
M  V30 9823 C 910.281 0.979736 -1.76307 0
M  V30 9824 C 910.594 1.86714 -0.582871 0
M  V30 9825 O 911.8 2.6302 -0.673247 0
M  V30 9826 C 910.256 1.79205 -3.12112 0
M  V30 9827 C 909.864 0.952333 -4.37761 0
M  V30 9828 C 911.608 2.51191 -3.42203 0
M  V30 9829 C 909.515 1.76018 -5.64599 0
M  V30 9830 H 908.445 0.369538 -0.657235 0
M  V30 9831 H 911.096 0.234619 -1.81994 0
M  V30 9832 H 909.478 2.57888 -3.00515 0
M  V30 9833 H 910.652 0.208251 -4.60329 0
M  V30 9834 H 908.967 0.346082 -4.14959 0
M  V30 9835 H 911.564 3.12074 -4.34182 0
M  V30 9836 H 911.907 3.22499 -2.63249 0
M  V30 9837 H 912.44 1.79523 -3.54988 0
M  V30 9838 H 909.179 1.09095 -6.46358 0
M  V30 9839 H 908.699 2.4797 -5.46142 0
M  V30 9840 H 910.378 2.32884 -6.03634 0
M  V30 9841 N 910.51 1.48831 0.518367 0
M  V30 9842 C 911.758 1.57128 1.27103 0
M  V30 9843 C 912.079 0.252098 1.93364 0
M  V30 9844 O 911.349 -0.727281 1.819 0
M  V30 9845 H 909.929 0.578891 0.472116 0
M  V30 9846 H 912.591 1.85361 0.602262 0
M  V30 9847 H 911.687 2.35838 2.04418 0
M  V30 9848 N 911.988 -0.768124 1.37614 0
M  V30 9849 C 912.951 -1.86314 1.3349 0
M  V30 9850 C 913.951 -1.59025 0.23823 0
M  V30 9851 O 915.141 -1.6704 0.494288 0
M  V30 9852 C 912.273 -3.23519 1.07462 0
M  V30 9853 H 913.466 -1.91382 2.30896 0
M  V30 9854 H 911.019 -0.968267 1.22696 0
M  V30 9855 H 911.754 -3.24127 0.106028 0
M  V30 9856 H 911.539 -3.44719 1.86846 0
M  V30 9857 H 913.029 -4.03597 1.07236 0
M  V30 9858 N 913.466 -1.22244 -0.994698 0
M  V30 9859 C 914.715 -1.04005 -1.72817 0
M  V30 9860 C 915.028 0.425413 -1.90918 0
M  V30 9861 O 916.234 0.727429 -2.61574 0
M  V30 9862 C 914.69 -1.81244 -3.10932 0
M  V30 9863 C 914.298 -3.32028 -3.00768 0
M  V30 9864 C 916.042 -1.71448 -3.88337 0
M  V30 9865 C 913.949 -4.01716 -4.34026 0
M  V30 9866 H 912.879 -0.385559 -0.647966 0
M  V30 9867 H 915.53 -1.46077 -1.11058 0
M  V30 9868 H 913.912 -1.3197 -3.73363 0
M  V30 9869 H 915.086 -3.88682 -2.47513 0
M  V30 9870 H 913.401 -3.4248 -2.36846 0
M  V30 9871 H 915.998 -2.20836 -4.86965 0
M  V30 9872 H 916.341 -0.674568 -4.10798 0
M  V30 9873 H 916.874 -2.18256 -3.3258 0
M  V30 9874 H 913.613 -5.05952 -4.16765 0
M  V30 9875 H 913.133 -3.49849 -4.87202 0
M  V30 9876 H 914.812 -4.0721 -5.02782 0
M  V30 9877 N 914.944 1.19125 -1.03184 0
M  V30 9878 C 915.907 2.20662 -0.619766 0
M  V30 9879 C 916.907 1.57621 0.318179 0
M  V30 9880 O 918.097 1.73885 0.104783 0
M  V30 9881 C 915.229 3.40774 0.0926696 0
M  V30 9882 H 916.422 2.58633 -1.5182 0
M  V30 9883 H 913.975 1.32855 -0.823364 0
M  V30 9884 H 914.71 3.08324 1.00531 0
M  V30 9885 H 914.495 3.87766 -0.581344 0
M  V30 9886 H 915.985 4.15977 0.367792 0
M  V30 9887 N 916.422 0.810101 1.35185 0
M  V30 9888 C 917.332 0.224565 2.33523 0
M  V30 9889 C 918.348 -0.634287 1.62027 0
M  V30 9890 O 919.524 -0.545211 1.9388 0
M  V30 9891 C 916.589 -0.614319 3.41214 0
M  V30 9892 C 915.65 0.265435 4.28479 0
M  V30 9893 C 914.883 -0.533506 5.31027 0
M  V30 9894 O 915.106 -1.7679 5.42311 0
M  V30 9895 O 914.04 0.0774573 6.0185 0
M  V30 9896 H 917.866 1.03815 2.85405 0
M  V30 9897 H 915.451 0.571964 1.38018 0
M  V30 9898 H 917.333 -1.09201 4.07005 0
M  V30 9899 H 916.008 -1.40545 2.91597 0
M  V30 9900 H 914.915 0.790343 3.65656 0
M  V30 9901 H 916.248 1.0206 4.81503 0
M  V30 9902 N 917.9 -1.47166 0.563914 0
M  V30 9903 C 919.311 -1.86231 0.132307 0
M  V30 9904 C 919.662 -1.46976 -1.29971 0
M  V30 9905 O 918.787 -0.875911 -1.97881 0
M  V30 9906 C 919.382 -3.37996 0.233335 0
M  V30 9907 C 917.941 -3.76127 -0.143278 0
M  V30 9908 C 917.088 -2.71212 0.577857 0
M  V30 9909 H 920.039 -1.38588 0.773249 0
M  V30 9910 H 920.06 -3.76558 -0.546309 0
M  V30 9911 H 919.572 -3.66535 1.27568 0
M  V30 9912 H 917.673 -3.53205 -1.18648 0
M  V30 9913 H 917.786 -4.78595 0.219952 0
M  V30 9914 H 916.15 -2.54692 0.020186 0
M  V30 9915 H 916.933 -3.02593 1.62149 0
M  V30 9916 N 919.378 -0.300708 -1.54705 0
M  V30 9917 C 920.308 0.568675 -2.26469 0
M  V30 9918 C 921.289 1.13817 -1.26411 0
M  V30 9919 O 922.474 1.16756 -1.55183 0
M  V30 9920 C 919.604 1.74077 -3.00524 0
M  V30 9921 C 918.558 1.30165 -4.07727 0
M  V30 9922 C 917.884 2.55888 -4.69495 0
M  V30 9923 C 919.184 0.433106 -5.20501 0
M  V30 9924 H 920.878 -0.0298851 -2.99385 0
M  V30 9925 H 918.424 -0.0158135 -1.43991 0
M  V30 9926 H 920.377 2.35506 -3.49449 0
M  V30 9927 H 919.101 2.36556 -2.25186 0
M  V30 9928 H 917.76 0.710414 -3.59651 0
M  V30 9929 H 917.408 3.16681 -3.90797 0
M  V30 9930 H 917.108 2.27207 -5.41895 0
M  V30 9931 H 918.632 3.18121 -5.21183 0
M  V30 9932 H 920.046 0.95307 -5.65322 0
M  V30 9933 H 918.443 0.240085 -5.9962 0
M  V30 9934 H 919.513 -0.541866 -4.81863 0
M  V30 9935 N 920.856 1.57574 -0.0284266 0
M  V30 9936 C 921.786 2.1321 0.952039 0
M  V30 9937 C 922.767 1.04806 1.33977 0
M  V30 9938 O 923.952 1.32635 1.41851 0
M  V30 9939 C 921.082 2.65862 2.23461 0
M  V30 9940 C 920.036 3.79047 1.98765 0
M  V30 9941 C 919.362 4.18124 3.33281 0
M  V30 9942 C 920.662 5.05151 1.32739 0
M  V30 9943 H 922.356 2.95385 0.488705 0
M  V30 9944 H 919.902 1.42092 0.233628 0
M  V30 9945 H 921.855 3.03417 2.92431 0
M  V30 9946 H 920.579 1.80848 2.71959 0
M  V30 9947 H 919.238 3.41929 1.32213 0
M  V30 9948 H 918.886 3.30092 3.79537 0
M  V30 9949 H 918.586 4.94396 3.17563 0
M  V30 9950 H 920.11 4.58262 4.0352 0
M  V30 9951 H 921.524 5.40297 1.91708 0
M  V30 9952 H 919.921 5.86416 1.27421 0
M  V30 9953 H 920.991 4.83969 0.300261 0
M  V30 9954 N 922.334 -0.244713 1.55689 0
M  V30 9955 C 923.745 -0.813603 1.6804 0
M  V30 9956 C 924.096 -1.85936 0.626281 0
M  V30 9957 O 923.221 -2.15206 -0.227038 0
M  V30 9958 C 923.816 -1.48252 3.04642 0
M  V30 9959 C 922.375 -1.99908 3.18926 0
M  V30 9960 C 921.522 -0.850958 2.6392 0
M  V30 9961 H 924.473 -0.0204805 1.58687 0
M  V30 9962 H 924.494 -2.35062 2.99209 0
M  V30 9963 H 924.006 -0.721164 3.81341 0
M  V30 9964 H 922.107 -2.78918 2.47054 0
M  V30 9965 H 922.22 -2.19497 4.25862 0
M  V30 9966 H 920.584 -1.25206 2.21801 0
M  V30 9967 H 921.367 -0.10265 3.43146 0
M  V30 9968 N 923.813 -1.49104 -0.510467 0
M  V30 9969 C 925.061 -1.578 -1.26268 0
M  V30 9970 C 925.382 -0.262349 -1.93227 0
M  V30 9971 O 924.652 0.717624 -1.82283 0
M  V30 9972 H 923.232 -0.581387 -0.46904 0
M  V30 9973 H 925.894 -1.85678 -0.592423 0
M  V30 9974 H 924.99 -2.36919 -2.03165 0
M  V30 9975 N 925.291 0.760815 -1.38019 0
M  V30 9976 C 926.254 1.85604 -1.34476 0
M  V30 9977 C 927.254 1.58897 -0.24666 0
M  V30 9978 O 928.444 1.66776 -0.50314 0
M  V30 9979 C 925.576 3.22945 -1.09176 0
M  V30 9980 H 926.769 1.90155 -2.31908 0
M  V30 9981 H 924.322 0.961746 -1.23208 0
M  V30 9982 H 925.057 3.24066 -0.123216 0
M  V30 9983 H 924.842 3.43723 -1.88672 0
M  V30 9984 H 926.332 4.03022 -1.09375 0
M  V30 9985 N 926.769 1.22769 0.988202 0
M  V30 9986 C 928.185 0.988665 1.2529 0
M  V30 9987 C 928.385 -0.314938 1.99024 0
M  V30 9988 O 927.441 -1.03637 2.30251 0
M  V30 9989 C 928.754 2.19046 2.06009 0
M  V30 9990 C 930.302 2.23452 2.19176 0
M  V30 9991 C 930.777 3.43196 3.03283 0
M  V30 9992 N 932.268 3.43387 3.10869 0
M  V30 9993 C 933.003 4.32693 3.7625 0
M  V30 9994 N 932.499 5.32224 4.43519 0
M  V30 9995 N 934.292 4.20457 3.73058 0
M  V30 9996 H 926.443 2.06575 0.494014 0
M  V30 9997 H 928.706 0.905452 0.28082 0
M  V30 9998 H 928.412 3.13607 1.59197 0
M  V30 9999 H 928.286 2.19492 3.06763 0
M  V30 10000 H 930.673 1.29436 2.65199 0
M  V30 10001 H 930.754 2.27042 1.17836 0
M  V30 10002 H 930.398 4.37515 2.57959 0
M  V30 10003 H 930.328 3.36847 4.04774 0
M  V30 10004 H 932.819 2.71368 2.62998 0
M  V30 10005 H 933.132 5.9664 4.91163 0
M  V30 10006 H 931.477 5.36133 4.42252 0
M  V30 10007 H 934.668 3.41949 3.19669 0
M  V30 10008 H 934.841 4.90261 4.23731 0
M  V30 10009 N 928.247 -1.18576 1.03814 0
M  V30 10010 C 929.493 -1.88773 0.741132 0
M  V30 10011 C 929.826 -1.79993 -0.729127 0
M  V30 10012 O 929.101 -1.19851 -1.53186 0
M  V30 10013 C 929.384 -3.39352 1.20468 0
M  V30 10014 C 929.237 -3.56955 2.73684 0
M  V30 10015 C 930.556 -4.32901 0.792741 0
M  V30 10016 H 927.675 -0.685482 0.270708 0
M  V30 10017 H 930.317 -1.39523 1.2897 0
M  V30 10018 H 928.467 -3.81427 0.737974 0
M  V30 10019 H 930.139 -3.2399 3.28372 0
M  V30 10020 H 928.382 -2.99696 3.13632 0
M  V30 10021 H 929.053 -4.62598 3.01176 0
M  V30 10022 H 931.529 -3.98592 1.1943 0
M  V30 10023 H 930.405 -5.36828 1.14486 0
M  V30 10024 H 930.666 -4.41052 -0.304295 0
M  V30 10025 N 929.725 -0.817259 -1.34754 0
M  V30 10026 C 930.973 -0.401852 -1.98065 0
M  V30 10027 C 931.294 1.03718 -1.65129 0
M  V30 10028 O 930.564 1.71921 -0.939141 0
M  V30 10029 H 929.144 -0.145603 -0.732672 0
M  V30 10030 H 931.806 -1.04545 -1.64488 0
M  V30 10031 H 930.902 -0.516241 -3.07801 0
M  V30 10032 N 931.203 1.46865 -0.571711 0
M  V30 10033 C 932.614 1.86158 -0.142181 0
M  V30 10034 C 932.965 1.47663 1.2919 0
M  V30 10035 O 932.09 0.886393 1.97413 0
M  V30 10036 C 932.685 3.37867 -0.251256 0
M  V30 10037 C 931.244 3.76198 0.123329 0
M  V30 10038 C 930.391 2.70902 -0.592232 0
M  V30 10039 H 933.342 1.38176 -0.780587 0
M  V30 10040 H 933.363 3.76842 0.526331 0
M  V30 10041 H 932.875 3.65853 -1.2951 0
M  V30 10042 H 930.976 3.53829 1.16773 0
M  V30 10043 H 931.089 4.78471 -0.24533 0
M  V30 10044 H 929.453 2.54678 -0.0336927 0
M  V30 10045 H 930.236 3.01729 -1.63751 0
M  V30 10046 N 932.681 0.308908 1.54543 0
M  V30 10047 C 933.611 -0.556657 2.26768 0
M  V30 10048 C 934.592 -1.13145 1.27013 0
M  V30 10049 O 935.777 -1.15931 1.558 0
M  V30 10050 C 932.907 -1.72481 3.01443 0
M  V30 10051 C 931.861 -1.28001 4.08411 0
M  V30 10052 C 931.187 -2.53395 4.70845 0
M  V30 10053 C 932.487 -0.405497 5.20724 0
M  V30 10054 H 934.181 0.0457618 2.99365 0
M  V30 10055 H 931.727 0.0234495 1.43981 0
M  V30 10056 H 933.68 -2.3365 3.50693 0
M  V30 10057 H 932.404 -2.35359 2.26437 0
M  V30 10058 H 931.063 -0.69133 3.60022 0
M  V30 10059 H 930.711 -3.14604 3.92471 0
M  V30 10060 H 930.411 -2.2433 5.43093 0
M  V30 10061 H 931.935 -3.15352 5.22863 0
M  V30 10062 H 933.349 -0.923076 5.6582 0
M  V30 10063 H 931.746 -0.208282 5.99738 0
M  V30 10064 H 932.816 0.567412 4.81569 0
M  V30 10065 N 934.159 -1.57557 0.0367827 0
M  V30 10066 C 935.089 -2.13712 -0.940719 0
M  V30 10067 C 936.07 -1.05515 -1.33419 0
M  V30 10068 O 937.255 -1.33385 -1.41146 0
M  V30 10069 C 934.385 -2.67043 -2.22048 0
M  V30 10070 C 933.339 -3.80096 -1.96752 0
M  V30 10071 C 932.665 -4.19886 -3.31059 0
M  V30 10072 C 933.965 -5.05848 -1.30058 0
M  V30 10073 H 935.659 -2.9564 -0.473033 0
M  V30 10074 H 933.205 -1.42214 -0.226089 0
M  V30 10075 H 935.158 -3.04964 -2.90818 0
M  V30 10076 H 933.882 -1.82287 -2.70996 0
M  V30 10077 H 932.541 -3.42625 -1.30398 0
M  V30 10078 H 932.189 -3.32101 -3.77781 0
M  V30 10079 H 931.889 -4.96073 -3.14937 0
M  V30 10080 H 933.413 -4.60395 -4.01084 0
M  V30 10081 H 934.827 -5.41306 -1.8884 0
M  V30 10082 H 933.224 -5.87084 -1.24309 0
M  V30 10083 H 934.294 -4.84122 -0.274591 0
M  V30 10084 N 935.637 0.236453 -1.55816 0
M  V30 10085 C 936.6 1.27633 -1.90375 0
M  V30 10086 C 937.6 1.40557 -0.781048 0
M  V30 10087 O 938.79 1.39078 -1.04895 0
M  V30 10088 C 935.922 2.65247 -2.14142 0
M  V30 10089 H 937.115 0.982019 -2.83366 0
M  V30 10090 H 934.668 0.476215 -1.48869 0
M  V30 10091 H 935.403 2.99801 -1.23653 0
M  V30 10092 H 935.188 2.57246 -2.95917 0
M  V30 10093 H 936.678 3.40313 -2.42026 0
M  V30 10094 N 937.115 1.49373 0.502552 0
M  V30 10095 C 938.355 1.60398 1.26696 0
M  V30 10096 C 938.719 0.283599 1.89894 0
M  V30 10097 O 939.92 0.269022 2.6745 0
M  V30 10098 C 938.191 2.72998 2.30666 0
M  V30 10099 S 939.75 3.03964 3.16466 0
M  V30 10100 H 936.568 0.565781 0.430596 0
M  V30 10101 H 939.17 1.87024 0.569418 0
M  V30 10102 H 937.874 3.67458 1.82765 0
M  V30 10103 H 937.405 2.4836 3.05091 0
M  V30 10104 H 939.42 2.45367 4.31288 0
M  V30 10105 N 938.594 -0.753485 1.38421 0
M  V30 10106 C 939.524 -1.8808 1.38377 0
M  V30 10107 C 940.505 -1.68258 0.249664 0
M  V30 10108 O 941.69 -1.88848 0.45276 0
M  V30 10109 C 938.82 -3.25608 1.20818 0
M  V30 10110 C 937.774 -3.60032 2.31433 0
M  V30 10111 C 937.1 -4.96297 1.9898 0
M  V30 10112 C 938.4 -3.64898 3.73694 0
M  V30 10113 H 940.094 -1.88375 2.32713 0
M  V30 10114 H 937.64 -0.90489 1.12017 0
M  V30 10115 H 939.593 -4.04127 1.19412 0
M  V30 10116 H 938.317 -3.25793 0.229433 0
M  V30 10117 H 936.976 -2.83831 2.32025 0
M  V30 10118 H 936.624 -4.93043 0.995889 0
M  V30 10119 H 936.324 -5.20298 2.73063 0
M  V30 10120 H 937.848 -5.77196 1.99193 0
M  V30 10121 H 939.262 -4.33531 3.75132 0
M  V30 10122 H 937.659 -4.00407 4.46983 0
M  V30 10123 H 938.729 -2.65124 4.06002 0
M  V30 10124 N 940.072 -1.23292 -0.981677 0
M  V30 10125 C 941.319 -1.06424 -1.72279 0
M  V30 10126 C 941.647 0.399055 -1.90362 0
M  V30 10127 O 940.902 1.31181 -1.45224 0
M  V30 10128 C 941.201 -1.73339 -3.12551 0
M  V30 10129 C 940.867 -3.23256 -3.14351 0
M  V30 10130 C 939.529 -3.64159 -3.14549 0
M  V30 10131 C 941.881 -4.1916 -3.09765 0
M  V30 10132 C 939.209 -4.99428 -3.07877 0
M  V30 10133 C 941.561 -5.54419 -3.04635 0
M  V30 10134 C 940.225 -5.94688 -3.03154 0
M  V30 10135 H 939.495 -0.389434 -0.630415 0
M  V30 10136 H 942.142 -1.53208 -1.1489 0
M  V30 10137 H 940.447 -1.18911 -3.73319 0
M  V30 10138 H 942.144 -1.57767 -3.68661 0
M  V30 10139 H 938.734 -2.90693 -3.14953 0
M  V30 10140 H 942.918 -3.88569 -3.08753 0
M  V30 10141 H 938.174 -5.29844 -3.05083 0
M  V30 10142 H 942.348 -6.28448 -3.00043 0
M  V30 10143 H 939.975 -6.99468 -2.97739 0
M  V30 10144 N 941.55 1.18024 -1.04442 0
M  V30 10145 C 942.46 2.25436 -0.649276 0
M  V30 10146 C 943.476 1.70915 0.326189 0
M  V30 10147 O 944.652 2.00592 0.180174 0
M  V30 10148 C 941.717 3.46693 -0.0222558 0
M  V30 10149 C 940.778 4.16332 -1.0472 0
M  V30 10150 C 940.011 5.31799 -0.450011 0
M  V30 10151 O 940.234 5.65544 0.742717 0
M  V30 10152 O 939.168 5.90209 -1.18056 0
M  V30 10153 H 942.994 2.61508 -1.54426 0
M  V30 10154 H 940.579 1.25178 -0.81552 0
M  V30 10155 H 942.461 4.20132 0.326597 0
M  V30 10156 H 941.136 3.12436 0.84649 0
M  V30 10157 H 940.043 3.44944 -1.44792 0
M  V30 10158 H 941.376 4.54598 -1.88684 0
M  V30 10159 N 943.028 0.824394 1.34319 0
M  V30 10160 C 943.976 0.235628 2.31403 0
M  V30 10161 C 944.97 -0.624443 1.57471 0
M  V30 10162 O 946.176 -0.515618 1.72457 0
M  V30 10163 H 942.551 0.0574537 0.749802 0
M  V30 10164 H 944.522 1.06925 2.78585 0
M  V30 10165 C 943.271 -0.586617 3.42716 0
M  V30 10166 H 942.594 0.0658669 3.99746 0
M  V30 10167 H 944.034 -0.964661 4.1288 0
M  V30 10168 C 942.493 -1.75957 2.87299 0
M  V30 10169 O 943.023 -2.8578 2.82299 0
M  V30 10170 N 941.229 -1.57678 2.44102 0
M  V30 10171 H 940.776 -0.683436 2.48369 0
M  V30 10172 H 940.734 -2.36311 2.07375 0
M  V30 10173 N 944.506 -1.46559 0.579492 0
M  V30 10174 C 945.438 -2.28383 -0.19337 0
M  V30 10175 C 946.451 -1.38324 -0.858511 0
M  V30 10176 O 947.64 -1.62952 -0.728615 0
M  V30 10177 C 944.74 -3.13262 -1.29306 0
M  V30 10178 C 943.913 -4.31426 -0.720459 0
M  V30 10179 C 942.972 -4.97728 -1.70744 0
M  V30 10180 O 941.998 -5.55423 -1.24476 0
M  V30 10181 N 943.2 -4.94445 -3.04146 0
M  V30 10182 H 945.965 -2.95353 0.508611 0
M  V30 10183 H 943.526 -1.56436 0.417046 0
M  V30 10184 H 945.518 -3.54483 -1.95254 0
M  V30 10185 H 944.088 -2.48388 -1.89795 0
M  V30 10186 H 943.308 -3.94028 0.116398 0
M  V30 10187 H 944.596 -5.07808 -0.31763 0
M  V30 10188 H 943.994 -4.4881 -3.44363 0
M  V30 10189 H 942.551 -5.39616 -3.65592 0
M  V30 10190 N 945.984 -0.3171 -1.54377 0
M  V30 10191 C 947.231 0.28741 -2.0045 0
M  V30 10192 C 947.559 1.52648 -1.20535 0
M  V30 10193 O 946.814 1.93775 -0.273831 0
M  V30 10194 C 947.113 0.672917 -3.51008 0
M  V30 10195 C 946.779 -0.466245 -4.48483 0
M  V30 10196 C 945.441 -0.778933 -4.74854 0
M  V30 10197 C 947.793 -1.23176 -5.06436 0
M  V30 10198 C 945.121 -1.85997 -5.56437 0
M  V30 10199 C 947.473 -2.30284 -5.89196 0
M  V30 10200 C 946.137 -2.62141 -6.13872 0
M  V30 10201 H 945.407 0.105171 -0.733499 0
M  V30 10202 H 948.054 -0.439538 -1.86388 0
M  V30 10203 H 946.359 1.48019 -3.62764 0
M  V30 10204 H 948.056 1.15209 -3.84094 0
M  V30 10205 H 944.646 -0.212449 -4.28073 0
M  V30 10206 H 948.83 -1.00344 -4.8605 0
M  V30 10207 H 944.086 -2.11134 -5.73788 0
M  V30 10208 H 948.26 -2.90048 -6.33123 0
M  V30 10209 H 945.887 -3.46037 -6.76877 0
M  V30 10210 N 947.462 1.57535 -0.0451378 0
M  V30 10211 C 948.878 1.56533 0.311373 0
M  V30 10212 C 949.078 1.05225 1.71843 0
M  V30 10213 O 948.134 0.706144 2.42425 0
M  V30 10214 C 949.447 3.00349 0.145348 0
M  V30 10215 C 950.995 3.12248 0.216908 0
M  V30 10216 C 951.47 4.57931 0.0794834 0
M  V30 10217 N 952.961 4.63 0.135954 0
M  V30 10218 C 953.696 5.73375 0.0536426 0
M  V30 10219 N 953.192 6.92753 -0.0806725 0
M  V30 10220 N 954.985 5.61995 0.108789 0
M  V30 10221 H 947.136 1.89211 -0.965044 0
M  V30 10222 H 949.399 0.871068 -0.374091 0
M  V30 10223 H 949.105 3.41898 -0.824533 0
M  V30 10224 H 948.979 3.66086 0.908903 0
M  V30 10225 H 951.366 2.70601 1.17726 0
M  V30 10226 H 951.447 2.49201 -0.577299 0
M  V30 10227 H 951.091 5.00262 -0.877516 0
M  V30 10228 H 951.021 5.18977 0.892758 0
M  V30 10229 H 953.512 3.77142 0.23926 0
M  V30 10230 H 953.825 7.7268 -0.136351 0
M  V30 10231 H 952.17 6.94904 -0.115675 0
M  V30 10232 H 955.361 4.67619 0.212235 0
M  V30 10233 H 955.534 6.47987 0.0411822 0
M  V30 10234 N 948.94 -0.228186 1.55939 0
M  V30 10235 C 950.356 -0.577583 1.48782 0
M  V30 10236 C 950.556 -1.87461 0.738972 0
M  V30 10237 O 949.612 -2.50988 0.275929 0
M  V30 10238 C 950.925 -0.662961 2.93301 0
M  V30 10239 C 952.473 -0.754035 3.03782 0
M  V30 10240 C 952.948 -0.870815 4.49645 0
M  V30 10241 N 954.439 -0.935208 4.53661 0
M  V30 10242 C 955.174 -1.04516 5.63794 0
M  V30 10243 N 954.67 -1.11948 6.83696 0
M  V30 10244 N 956.463 -1.07978 5.51631 0
M  V30 10245 H 948.614 0.623018 2.03057 0
M  V30 10246 H 950.877 0.217692 0.922667 0
M  V30 10247 H 950.583 0.220375 3.51009 0
M  V30 10248 H 950.457 -1.52876 3.44831 0
M  V30 10249 H 952.844 -1.62782 2.46143 0
M  V30 10250 H 952.925 0.137301 2.55431 0
M  V30 10251 H 952.569 -0.0015186 5.079 0
M  V30 10252 H 952.499 -1.77747 4.95695 0
M  V30 10253 H 954.99 -0.88836 3.6731 0
M  V30 10254 H 955.303 -1.20297 7.6338 0
M  V30 10255 H 953.648 -1.08873 6.8642 0
M  V30 10256 H 956.839 -1.01833 4.56889 0
M  V30 10257 H 957.012 -1.16202 6.37496 0
M  V30 10258 N 950.418 -1.49637 -0.494624 0
M  V30 10259 C 951.381 -1.66252 -1.57775 0
M  V30 10260 C 952.381 -0.534054 -1.51672 0
M  V30 10261 O 953.571 -0.800637 -1.54711 0
M  V30 10262 C 950.703 -1.66584 -2.97426 0
M  V30 10263 H 951.896 -2.62864 -1.4437 0
M  V30 10264 H 949.449 -1.38764 -0.719323 0
M  V30 10265 H 950.184 -0.715798 -3.16302 0
M  V30 10266 H 949.969 -2.48543 -3.03264 0
M  V30 10267 H 951.459 -1.81474 -3.76108 0
M  V30 10268 N 951.896 0.746133 -1.38819 0
M  V30 10269 C 953.312 1.0502 -1.20179 0
M  V30 10270 C 953.512 2.01423 -0.0556271 0
M  V30 10271 O 952.568 2.45359 0.59625 0
M  V30 10272 C 953.881 1.62315 -2.53129 0
M  V30 10273 C 955.429 1.74449 -2.59878 0
M  V30 10274 C 955.904 2.35155 -3.93022 0
M  V30 10275 N 957.395 2.42577 -3.94602 0
M  V30 10276 C 958.13 2.9046 -4.94389 0
M  V30 10277 N 957.626 3.38322 -6.04574 0
M  V30 10278 N 959.419 2.89568 -4.81775 0
M  V30 10279 H 951.57 0.106551 -2.12133 0
M  V30 10280 H 953.833 0.109897 -0.941609 0
M  V30 10281 H 953.539 0.98946 -3.37495 0
M  V30 10282 H 953.413 2.61276 -2.72057 0
M  V30 10283 H 955.8 2.36943 -1.75903 0
M  V30 10284 H 955.881 0.741721 -2.4481 0
M  V30 10285 H 955.525 1.73292 -4.77422 0
M  V30 10286 H 955.455 3.36088 -4.05404 0
M  V30 10287 H 957.946 2.08735 -3.15021 0
M  V30 10288 H 958.259 3.73336 -6.76639 0
M  V30 10289 H 956.604 3.3636 -6.08184 0
M  V30 10290 H 959.795 2.51492 -3.94803 0
M  V30 10291 H 959.968 3.26571 -5.59692 0
M  V30 10292 N 953.375 1.23811 0.975125 0
M  V30 10293 C 954.652 0.9815 1.69192 0
M  V30 10294 C 955.032 -0.498373 2.05133 0
M  V30 10295 O 954.38 -1.47087 1.74864 0
M  V30 10296 C 954.59 1.89701 2.92941 0
M  V30 10297 C 955.938 2.16357 3.65342 0
M  V30 10298 O 956.962 1.87293 3.02985 0
M  V30 10299 O 955.821 2.65675 4.77576 0
M  V30 10300 H 952.915 0.370599 0.739314 0
M  V30 10301 H 955.461 1.34876 1.02988 0
M  V30 10302 H 954.233 2.89719 2.63018 0
M  V30 10303 H 953.856 1.53244 3.66881 0
M  V30 10304 N 954.853 -1.17469 1.05066 0
M  V30 10305 C 956.101 -1.87327 0.758485 0
M  V30 10306 C 956.422 -1.81358 -0.716549 0
M  V30 10307 O 955.692 -1.23868 -1.51768 0
M  V30 10308 H 954.272 -0.693512 0.277579 0
M  V30 10309 H 956.934 -1.4251 1.32954 0
M  V30 10310 H 956.03 -2.93101 1.0723 0
M  V30 10311 N 956.331 -0.831506 -1.3388 0
M  V30 10312 C 957.608 -0.345907 -1.92517 0
M  V30 10313 C 957.988 1.16784 -1.75854 0
M  V30 10314 O 957.336 1.97889 -1.14245 0
M  V30 10315 C 957.546 -0.784692 -3.40064 0
M  V30 10316 C 958.894 -0.78846 -4.17215 0
M  V30 10317 O 959.918 -0.727823 -3.48685 0
M  V30 10318 O 958.777 -0.869481 -5.39539 0
M  V30 10319 H 955.871 -0.0963568 -0.821367 0
M  V30 10320 H 958.417 -0.916868 -1.42799 0
M  V30 10321 H 957.189 -1.82697 -3.46031 0
M  V30 10322 H 956.812 -0.189897 -3.97146 0
M  V30 10323 N 957.809 1.4625 -0.587256 0
M  V30 10324 C 959.225 1.57641 -0.249284 0
M  V30 10325 C 959.425 1.58169 1.24839 0
M  V30 10326 O 958.481 1.50109 2.03036 0
M  V30 10327 C 959.794 2.86837 -0.902509 0
M  V30 10328 C 961.342 3.00476 -0.876524 0
M  V30 10329 C 961.817 4.32414 -1.50938 0
M  V30 10330 N 963.308 4.39124 -1.47392 0
M  V30 10331 C 964.043 5.39838 -1.93293 0
M  V30 10332 N 963.539 6.47202 -2.47188 0
M  V30 10333 N 965.332 5.31068 -1.84183 0
M  V30 10334 H 957.483 1.44151 -1.55994 0
M  V30 10335 H 959.746 0.687905 -0.652297 0
M  V30 10336 H 959.452 2.92274 -1.95624 0
M  V30 10337 H 959.326 3.74927 -0.413466 0
M  V30 10338 H 961.713 2.94618 0.168601 0
M  V30 10339 H 961.794 2.1385 -1.40363 0
M  V30 10340 H 961.438 4.3903 -2.55372 0
M  V30 10341 H 961.368 5.17823 -0.957455 0
M  V30 10342 H 963.859 3.62138 -1.08002 0
M  V30 10343 H 964.172 7.20269 -2.80058 0
M  V30 10344 H 962.517 6.48009 -2.51216 0
M  V30 10345 H 965.708 4.46095 -1.41833 0
M  V30 10346 H 965.881 6.09414 -2.2027 0
M  V30 10347 N 959.287 0.325282 1.54207 0
M  V30 10348 C 960.534 -0.276775 2.006 0
M  V30 10349 C 960.862 -1.52007 1.21343 0
M  V30 10350 O 960.117 -1.93627 0.284104 0
M  V30 10351 C 960.416 -0.654292 3.5136 0
M  V30 10352 C 960.082 0.490023 4.48229 0
M  V30 10353 C 958.744 0.804104 4.74434 0
M  V30 10354 C 961.096 1.2586 5.05775 0
M  V30 10355 C 958.424 1.88945 5.55443 0
M  V30 10356 C 960.776 2.33405 5.87967 0
M  V30 10357 C 959.44 2.65393 6.12473 0
M  V30 10358 H 958.71 -0.101279 0.734046 0
M  V30 10359 H 961.357 0.449416 1.86152 0
M  V30 10360 H 959.662 -1.46093 3.63544 0
M  V30 10361 H 961.359 -1.13171 3.84699 0
M  V30 10362 H 957.949 0.235147 4.27954 0
M  V30 10363 H 962.133 1.02921 4.85511 0
M  V30 10364 H 957.389 2.14174 5.7266 0
M  V30 10365 H 961.563 2.93402 6.31576 0
M  V30 10366 H 959.19 3.49622 6.75032 0
M  V30 10367 N 960.765 -1.57509 0.0534917 0
M  V30 10368 C 962.011 -1.93887 -0.614776 0
M  V30 10369 C 962.366 -0.932098 -1.68314 0
M  V30 10370 O 961.659 0.0483848 -1.91539 0
M  V30 10371 C 961.853 -3.34734 -1.25251 0
M  V30 10372 C 961.682 -4.49019 -0.247444 0
M  V30 10373 C 960.452 -5.05042 0.161406 0
M  V30 10374 C 962.65 -5.11784 0.508059 0
M  V30 10375 N 960.632 -6.02858 1.15909 0
M  V30 10376 C 962.003 -6.04928 1.35876 0
M  V30 10377 C 964.058 -4.94671 0.56612 0
M  V30 10378 C 962.761 -6.82797 2.26232 0
M  V30 10379 C 964.787 -5.73168 1.45712 0
M  V30 10380 C 964.149 -6.65946 2.29554 0
M  V30 10381 H 960.248 -0.756899 -0.196538 0
M  V30 10382 H 962.832 -1.94289 0.126365 0
M  V30 10383 H 961.003 -3.35104 -1.96367 0
M  V30 10384 H 962.735 -3.58395 -1.87977 0
M  V30 10385 H 959.49 -4.73098 -0.218025 0
M  V30 10386 H 959.914 -6.56462 1.6549 0
M  V30 10387 H 964.556 -4.22746 -0.0678652 0
M  V30 10388 H 962.274 -7.54012 2.90675 0
M  V30 10389 H 965.86 -5.61953 1.50664 0
M  V30 10390 H 964.74 -7.25627 2.97381 0
M  V30 10391 N 962.243 0.219913 -1.56058 0
M  V30 10392 C 963.489 0.941055 -1.80321 0
M  V30 10393 C 963.844 1.81906 -0.626735 0
M  V30 10394 O 963.137 1.87811 0.379147 0
M  V30 10395 C 963.331 1.81293 -3.08006 0
M  V30 10396 C 963.16 1.02082 -4.37961 0
M  V30 10397 C 961.93 0.715096 -5.00214 0
M  V30 10398 C 964.128 0.385342 -5.12854 0
M  V30 10399 N 962.11 -0.098246 -6.13821 0
M  V30 10400 C 963.481 -0.291319 -6.19315 0
M  V30 10401 C 965.536 0.29854 -4.97004 0
M  V30 10402 C 964.239 -1.04648 -7.11647 0
M  V30 10403 C 966.265 -0.443159 -5.89737 0
M  V30 10404 C 965.627 -1.10836 -6.95625 0
M  V30 10405 H 961.726 0.324568 -0.711463 0
M  V30 10406 H 964.31 0.211795 -1.93545 0
M  V30 10407 H 962.481 2.51399 -2.96063 0
M  V30 10408 H 964.213 2.47167 -3.20454 0
M  V30 10409 H 960.968 1.03352 -4.62185 0
M  V30 10410 H 961.392 -0.4938 -6.75197 0
M  V30 10411 H 966.034 0.798478 -4.15192 0
M  V30 10412 H 963.752 -1.55793 -7.9294 0
M  V30 10413 H 967.338 -0.511348 -5.79549 0
M  V30 10414 H 966.218 -1.6731 -7.66144 0
M  V30 10415 N 963.721 1.49897 0.486681 0
M  V30 10416 C 964.653 1.63755 1.60365 0
M  V30 10417 C 965.666 0.519614 1.54285 0
M  V30 10418 O 966.855 0.792219 1.59957 0
M  V30 10419 C 963.955 1.59153 2.99205 0
M  V30 10420 C 963.128 2.8672 3.30319 0
M  V30 10421 C 962.187 2.74974 4.48638 0
M  V30 10422 O 961.213 3.48922 4.49714 0
M  V30 10423 N 962.415 1.87479 5.49392 0
M  V30 10424 H 965.18 2.60094 1.48899 0
M  V30 10425 H 962.741 1.47166 0.674825 0
M  V30 10426 H 964.733 1.4893 3.76301 0
M  V30 10427 H 963.303 0.706133 3.0452 0
M  V30 10428 H 962.523 3.11188 2.41983 0
M  V30 10429 H 963.811 3.71262 3.47911 0
M  V30 10430 H 963.209 1.26684 5.51333 0
M  V30 10431 H 961.766 1.83169 6.25534 0
M  V30 10432 N 965.199 -0.738761 1.39212 0
M  V30 10433 C 966.146 -1.85273 1.37631 0
M  V30 10434 C 967.116 -1.64407 0.236572 0
M  V30 10435 O 968.301 -1.85866 0.431104 0
M  V30 10436 C 965.441 -3.22745 1.22188 0
M  V30 10437 C 964.554 -3.55342 2.45674 0
M  V30 10438 C 963.689 -4.82195 2.22847 0
M  V30 10439 C 962.728 -5.07625 3.42029 0
M  V30 10440 N 961.865 -6.25679 3.18543 0
M  V30 10441 H 966.705 -1.85959 2.32859 0
M  V30 10442 H 964.242 -0.908716 1.15675 0
M  V30 10443 H 966.2 -4.02095 1.11245 0
M  V30 10444 H 964.83 -3.21347 0.30592 0
M  V30 10445 H 963.882 -2.70722 2.67233 0
M  V30 10446 H 965.194 -3.70054 3.34457 0
M  V30 10447 H 964.348 -5.69518 2.09126 0
M  V30 10448 H 963.087 -4.6965 1.31454 0
M  V30 10449 H 962.092 -4.18765 3.56253 0
M  V30 10450 H 963.317 -5.22058 4.34319 0
M  V30 10451 H 961.263 -6.14429 2.2981 0
M  V30 10452 H 961.18 -6.40961 4.0088 0
M  V30 10453 H 962.448 -7.15851 3.08508 0
M  V30 10454 N 966.677 -1.24326 -0.968545 0
M  V30 10455 C 968.093 -1.00847 -1.23701 0
M  V30 10456 C 968.293 0.283235 -1.99499 0
M  V30 10457 O 967.349 0.999607 -2.31871 0
M  V30 10458 C 968.662 -2.22295 -2.02498 0
M  V30 10459 C 970.21 -2.26911 -2.15593 0
M  V30 10460 C 970.685 -3.47978 -2.97784 0
M  V30 10461 N 972.176 -3.48289 -3.05367 0
M  V30 10462 C 972.911 -4.38625 -3.69318 0
M  V30 10463 N 972.407 -5.39213 -4.34995 0
M  V30 10464 N 974.2 -4.26339 -3.66322 0
M  V30 10465 H 966.351 -2.07335 -0.461087 0
M  V30 10466 H 968.614 -0.909805 -0.26638 0
M  V30 10467 H 968.32 -3.161 -1.54188 0
M  V30 10468 H 968.194 -2.24344 -3.03232 0
M  V30 10469 H 970.581 -1.33639 -2.63106 0
M  V30 10470 H 970.662 -2.28888 -1.14209 0
M  V30 10471 H 970.306 -4.41564 -2.50965 0
M  V30 10472 H 970.236 -3.43244 -3.99364 0
M  V30 10473 H 972.727 -2.75517 -2.58648 0
M  V30 10474 H 973.04 -6.04378 -4.81608 0
M  V30 10475 H 971.385 -5.43101 -4.33667 0
M  V30 10476 H 974.576 -3.46991 -3.14189 0
M  V30 10477 H 974.749 -4.9694 -4.15878 0
M  V30 10478 N 968.156 1.1691 -1.05688 0
M  V30 10479 C 969.404 1.86922 -0.768409 0
M  V30 10480 C 969.725 1.81735 0.706921 0
M  V30 10481 O 968.995 1.24671 1.51109 0
M  V30 10482 H 967.575 0.69203 -0.281253 0
M  V30 10483 H 970.237 1.41803 -1.33708 0
M  V30 10484 H 969.333 2.92528 -1.08783 0
M  V30 10485 N 969.634 0.838594 1.33437 0
M  V30 10486 C 970.88 0.434813 1.98084 0
M  V30 10487 C 971.213 -1.00331 1.66275 0
M  V30 10488 O 970.488 -1.70139 0.942501 0
M  V30 10489 C 970.771 0.655602 3.54082 0
M  V30 10490 C 970.624 2.14097 3.95578 0
M  V30 10491 C 971.943 0.101576 4.39983 0
M  V30 10492 H 969.062 0.159456 0.719544 0
M  V30 10493 H 971.704 1.05406 1.58081 0
M  V30 10494 H 969.854 0.128501 3.88287 0
M  V30 10495 H 971.526 2.73292 3.71631 0
M  V30 10496 H 969.769 2.62558 3.4532 0
M  V30 10497 H 970.44 2.24621 5.04231 0
M  V30 10498 H 972.916 0.552122 4.12421 0
M  V30 10499 H 971.792 0.28575 5.48156 0
M  V30 10500 H 972.053 -0.994616 4.30767 0
M  V30 10501 N 971.112 -1.45937 0.595003 0
M  V30 10502 C 972.359 -2.0232 0.0853053 0
M  V30 10503 C 972.687 -1.465 -1.27937 0
M  V30 10504 O 971.942 -0.624767 -1.85459 0
M  V30 10505 C 972.241 -3.57396 -0.0173747 0
M  V30 10506 C 971.907 -4.32311 1.28131 0
M  V30 10507 C 970.569 -4.52496 1.63708 0
M  V30 10508 C 972.921 -4.75233 2.14017 0
M  V30 10509 C 970.249 -5.12857 2.84947 0
M  V30 10510 C 972.601 -5.36933 3.34493 0
M  V30 10511 C 971.265 -5.55343 3.70338 0
M  V30 10512 H 970.535 -0.740342 0.0312154 0
M  V30 10513 H 973.182 -1.75157 0.774103 0
M  V30 10514 H 971.487 -3.83766 -0.789371 0
M  V30 10515 H 973.184 -3.98713 -0.427699 0
M  V30 10516 H 969.774 -4.16905 0.994374 0
M  V30 10517 H 973.958 -4.59383 1.87833 0
M  V30 10518 H 969.214 -5.253 3.12841 0
M  V30 10519 H 973.388 -5.69147 4.01304 0
M  V30 10520 H 971.015 -6.01883 4.64371 0
M  V30 10521 N 972.59 -0.333456 -1.54032 0
M  V30 10522 C 973.818 0.267813 -2.05159 0
M  V30 10523 C 974.233 1.4501 -1.20903 0
M  V30 10524 O 973.59 1.80888 -0.241994 0
M  V30 10525 C 973.641 0.69268 -3.54802 0
M  V30 10526 O 973.362 -0.442579 -4.35859 0
M  V30 10527 C 974.863 1.35572 -4.2206 0
M  V30 10528 H 972.083 0.0534924 -0.668864 0
M  V30 10529 H 974.627 -0.482515 -1.98726 0
M  V30 10530 H 972.782 1.39297 -3.6149 0
M  V30 10531 H 973.196 -0.105915 -5.24393 0
M  V30 10532 H 974.67 1.60385 -5.28186 0
M  V30 10533 H 975.147 2.30614 -3.73783 0
M  V30 10534 H 975.753 0.697748 -4.19537 0
M  V30 10535 N 974.068 1.57479 -0.061844 0
M  V30 10536 C 975.015 2.12152 0.908862 0
M  V30 10537 C 975.985 1.03152 1.30188 0
M  V30 10538 O 977.17 1.3076 1.38948 0
M  V30 10539 C 974.31 2.6796 2.17465 0
M  V30 10540 C 973.423 3.91083 1.83517 0
M  V30 10541 C 972.558 4.35169 3.04633 0
M  V30 10542 C 971.597 5.50964 2.66655 0
M  V30 10543 N 970.734 5.90055 3.80499 0
M  V30 10544 H 975.574 2.94797 0.435743 0
M  V30 10545 H 973.111 1.45686 0.203445 0
M  V30 10546 H 975.069 2.98421 2.91548 0
M  V30 10547 H 973.699 1.88096 2.62335 0
M  V30 10548 H 972.751 3.67146 0.995381 0
M  V30 10549 H 974.063 4.75214 1.51569 0
M  V30 10550 H 973.217 4.67239 3.87005 0
M  V30 10551 H 971.956 3.49871 3.39767 0
M  V30 10552 H 970.961 5.18556 1.82703 0
M  V30 10553 H 972.186 6.37986 2.32702 0
M  V30 10554 H 970.132 5.07708 4.15414 0
M  V30 10555 H 970.049 6.68903 3.52285 0
M  V30 10556 H 971.317 6.26744 4.63479 0
M  V30 10557 N 975.546 -0.211634 1.56173 0
M  V30 10558 C 976.962 -0.56177 1.49386 0
M  V30 10559 C 977.162 -1.86666 0.758813 0
M  V30 10560 O 976.218 -2.50681 0.302534 0
M  V30 10561 C 977.531 -0.631815 2.93987 0
M  V30 10562 C 979.079 -0.721773 3.04564 0
M  V30 10563 C 979.554 -0.823075 4.50544 0
M  V30 10564 N 981.045 -0.887038 4.54627 0
M  V30 10565 C 981.78 -0.985304 5.64871 0
M  V30 10566 N 981.276 -1.0469 6.84844 0
M  V30 10567 N 983.069 -1.02121 5.52746 0
M  V30 10568 H 975.22 0.64452 2.02385 0
M  V30 10569 H 977.483 0.227466 0.920306 0
M  V30 10570 H 977.189 0.257592 3.50755 0
M  V30 10571 H 977.063 -1.4921 3.46433 0
M  V30 10572 H 979.45 -1.60162 2.47855 0
M  V30 10573 H 979.531 0.164385 2.55271 0
M  V30 10574 H 979.175 0.0523511 5.07873 0
M  V30 10575 H 979.105 -1.72479 4.97552 0
M  V30 10576 H 981.596 -0.849352 3.68231 0
M  V30 10577 H 981.909 -1.12193 7.64613 0
M  V30 10578 H 980.254 -1.01586 6.87536 0
M  V30 10579 H 983.445 -0.969814 4.57943 0
M  V30 10580 H 983.618 -1.09434 6.38693 0
M  V30 10581 N 977.024 -1.50153 -0.478725 0
M  V30 10582 C 977.956 -1.64603 -1.59494 0
M  V30 10583 C 978.969 -0.527789 -1.54007 0
M  V30 10584 O 980.158 -0.80069 -1.59534 0
M  V30 10585 C 977.258 -1.60738 -2.98356 0
M  V30 10586 C 976.431 -2.88468 -3.28794 0
M  V30 10587 C 975.49 -2.77349 -4.47173 0
M  V30 10588 O 974.516 -3.51302 -4.47857 0
M  V30 10589 N 975.718 -1.9039 -5.4839 0
M  V30 10590 H 978.483 -2.6088 -1.47518 0
M  V30 10591 H 976.044 -1.47521 -0.667011 0
M  V30 10592 H 978.036 -1.50923 -3.75505 0
M  V30 10593 H 976.606 -0.722273 -3.04141 0
M  V30 10594 H 975.826 -3.12467 -2.40329 0
M  V30 10595 H 977.114 -3.73102 -3.45937 0
M  V30 10596 H 976.512 -1.29606 -5.50653 0
M  V30 10597 H 975.069 -1.86484 -6.24553 0
M  V30 10598 N 978.502 0.731368 -1.39602 0
M  V30 10599 C 979.918 1.03739 -1.21286 0
M  V30 10600 C 980.118 2.01353 -0.0769875 0
M  V30 10601 O 979.174 2.45978 0.570193 0
M  V30 10602 C 980.487 1.59621 -2.54837 0
M  V30 10603 C 982.035 1.71683 -2.61713 0
M  V30 10604 C 982.51 2.30973 -3.95494 0
M  V30 10605 N 984.001 2.38378 -3.97153 0
M  V30 10606 C 984.736 2.852 -4.97442 0
M  V30 10607 N 984.232 3.31891 -6.08129 0
M  V30 10608 N 986.025 2.84441 -4.84819 0
M  V30 10609 H 978.176 0.0840456 -2.12234 0
M  V30 10610 H 980.439 0.0999038 -0.942721 0
M  V30 10611 H 980.145 0.953608 -3.38525 0
M  V30 10612 H 980.019 2.58375 -2.74813 0
M  V30 10613 H 982.406 2.35064 -1.78406 0
M  V30 10614 H 982.487 0.715714 -2.45583 0
M  V30 10615 H 982.131 1.68219 -4.79234 0
M  V30 10616 H 982.061 3.31769 -4.08946 0
M  V30 10617 H 984.552 2.05382 -3.17217 0
M  V30 10618 H 984.865 3.66138 -6.8056 0
M  V30 10619 H 983.21 3.2989 -6.11717 0
M  V30 10620 H 986.401 2.4729 -3.97448 0
M  V30 10621 H 986.574 3.20616 -5.63124 0
M  V30 10622 N 979.98 1.24838 0.961938 0
M  V30 10623 C 980.927 1.04582 2.05745 0
M  V30 10624 C 981.897 -0.0427281 1.66045 0
M  V30 10625 O 983.082 0.113026 1.90465 0
M  V30 10626 C 980.222 0.66284 3.38675 0
M  V30 10627 C 979.335 1.82548 3.91536 0
M  V30 10628 C 978.47 1.38753 5.12758 0
M  V30 10629 C 977.509 2.51976 5.5783 0
M  V30 10630 N 976.646 2.09009 6.70268 0
M  V30 10631 H 981.486 1.98343 2.22405 0
M  V30 10632 H 979.023 0.987822 1.08998 0
M  V30 10633 H 980.981 0.421788 4.15062 0
M  V30 10634 H 979.611 -0.237776 3.21923 0
M  V30 10635 H 978.663 2.18004 3.11735 0
M  V30 10636 H 979.975 2.67601 4.20941 0
M  V30 10637 H 979.129 1.1057 5.96539 0
M  V30 10638 H 977.868 0.507618 4.85051 0
M  V30 10639 H 976.873 2.80912 4.72619 0
M  V30 10640 H 978.098 3.40534 5.87549 0
M  V30 10641 H 976.044 1.23423 6.44285 0
M  V30 10642 H 975.961 2.87613 6.99153 0
M  V30 10643 H 977.229 1.83981 7.57477 0
M  V30 10644 N 981.458 -1.16348 1.06306 0
M  V30 10645 C 982.421 -2.18941 0.678053 0
M  V30 10646 C 983.421 -1.58409 -0.276277 0
M  V30 10647 O 984.611 -1.74101 -0.0586435 0
M  V30 10648 C 981.743 -3.409 -0.00228684 0
M  V30 10649 H 982.936 -2.54516 1.58624 0
M  V30 10650 H 980.489 -1.30625 0.858298 0
M  V30 10651 H 981.224 -3.10881 -0.923212 0
M  V30 10652 H 981.009 -3.86089 0.683949 0
M  V30 10653 H 982.499 -4.16806 -0.257374 0
M  V30 10654 N 982.937 -0.845659 -1.3299 0
M  V30 10655 C 983.867 -0.298957 -2.31578 0
M  V30 10656 C 984.848 0.597012 -1.59279 0
M  V30 10657 O 986.033 0.519142 -1.87132 0
M  V30 10658 C 983.163 0.521109 -3.43368 0
M  V30 10659 C 982.117 -0.279651 -4.27085 0
M  V30 10660 C 981.443 0.664591 -5.30554 0
M  V30 10661 C 982.743 -1.50046 -5.00283 0
M  V30 10662 H 984.437 -1.12272 -2.77552 0
M  V30 10663 H 981.983 -0.54132 -1.33438 0
M  V30 10664 H 983.936 0.913921 -4.1137 0
M  V30 10665 H 982.66 1.37815 -2.96099 0
M  V30 10666 H 981.319 -0.654106 -3.60717 0
M  V30 10667 H 980.967 1.51822 -4.79541 0
M  V30 10668 H 980.667 0.132871 -5.8745 0
M  V30 10669 H 982.191 1.05477 -6.01421 0
M  V30 10670 H 983.605 -1.18044 -5.61016 0
M  V30 10671 H 982.002 -1.96946 -5.66862 0
M  V30 10672 H 983.072 -2.26659 -4.28665 0
M  V30 10673 N 984.415 1.45619 -0.602734 0
M  V30 10674 C 985.64 2.07157 -0.100429 0
M  V30 10675 C 986.065 1.44524 1.20393 0
M  V30 10676 O 985.423 0.536191 1.7319 0
M  V30 10677 C 985.471 3.60587 0.0308604 0
M  V30 10678 O 984.575 3.97944 1.08234 0
M  V30 10679 H 983.916 0.6601 -0.0718643 0
M  V30 10680 H 986.446 1.86948 -0.831366 0
M  V30 10681 H 986.456 4.07348 0.230634 0
M  V30 10682 H 985.131 4.05561 -0.921581 0
M  V30 10683 H 983.708 3.62862 0.859414 0
M  V30 10684 N 985.893 0.34162 1.53853 0
M  V30 10685 C 987.309 -0.0103769 1.59597 0
M  V30 10686 C 987.509 -1.48897 1.35764 0
M  V30 10687 O 986.565 -2.24743 1.15095 0
M  V30 10688 C 987.878 0.424067 2.97695 0
M  V30 10689 C 989.426 0.376247 3.1073 0
M  V30 10690 C 989.901 0.786129 4.51203 0
M  V30 10691 N 991.392 0.74024 4.57247 0
M  V30 10692 C 992.127 1.02937 5.64085 0
M  V30 10693 N 991.623 1.38655 6.78783 0
M  V30 10694 N 993.416 0.953734 5.5395 0
M  V30 10695 H 985.567 1.30477 1.67599 0
M  V30 10696 H 987.83 0.531753 0.78482 0
M  V30 10697 H 987.536 1.45493 3.20195 0
M  V30 10698 H 987.41 -0.201713 3.7666 0
M  V30 10699 H 989.797 -0.645441 2.87955 0
M  V30 10700 H 989.878 1.0372 2.33828 0
M  V30 10701 H 989.522 1.80582 4.74713 0
M  V30 10702 H 989.452 0.102671 5.265 0
M  V30 10703 H 991.943 0.476763 3.7488 0
M  V30 10704 H 992.256 1.59206 7.56223 0
M  V30 10705 H 990.601 1.42498 6.80235 0
M  V30 10706 H 993.792 0.674044 4.63222 0
M  V30 10707 H 993.965 1.18241 6.37121 0
M  V30 10708 N 987.371 -1.57444 0.0701946 0
M  V30 10709 C 988.62 -1.92605 -0.598849 0
M  V30 10710 C 988.933 -0.952058 -1.70866 0
M  V30 10711 O 990.139 -1.19643 -2.43716 0
M  V30 10712 C 988.595 -3.42142 -1.11655 0
M  V30 10713 C 988.203 -4.47984 -0.0378355 0
M  V30 10714 C 989.947 -3.86307 -1.75975 0
M  V30 10715 C 987.854 -5.88652 -0.569495 0
M  V30 10716 H 986.784 -0.718873 -0.22746 0
M  V30 10717 H 989.435 -1.82948 0.14217 0
M  V30 10718 H 987.817 -3.46866 -1.91049 0
M  V30 10719 H 988.991 -4.54874 0.736661 0
M  V30 10720 H 987.306 -4.13277 0.50904 0
M  V30 10721 H 989.903 -4.88784 -2.16782 0
M  V30 10722 H 990.246 -3.23587 -2.61911 0
M  V30 10723 H 990.779 -3.84179 -1.03206 0
M  V30 10724 H 987.518 -6.55013 0.252662 0
M  V30 10725 H 987.038 -5.85285 -1.31155 0
M  V30 10726 H 988.717 -6.38482 -1.04641 0
M  V30 10727 N 988.849 0.203349 -1.56283 0
M  V30 10728 C 990.074 0.945548 -1.84592 0
M  V30 10729 C 990.499 1.7641 -0.652772 0
M  V30 10730 O 989.857 1.76867 0.398468 0
M  V30 10731 C 989.905 1.82416 -3.11057 0
M  V30 10732 O 989.009 2.92191 -2.9103 0
M  V30 10733 H 988.35 0.266739 -0.608068 0
M  V30 10734 H 990.88 0.211158 -2.03507 0
M  V30 10735 H 990.89 2.23044 -3.41636 0
M  V30 10736 H 989.565 1.22267 -3.97522 0
M  V30 10737 H 988.142 2.55378 -2.71728 0
M  V30 10738 N 990.327 1.50405 0.470755 0
M  V30 10739 C 991.257 1.72222 1.57676 0
M  V30 10740 C 992.238 0.57121 1.60222 0
M  V30 10741 O 993.423 0.810381 1.76484 0
M  V30 10742 C 990.553 1.81666 2.95998 0
M  V30 10743 C 989.507 2.96857 3.08318 0
M  V30 10744 C 988.833 2.91445 4.4829 0
M  V30 10745 C 990.133 4.37361 2.85504 0
M  V30 10746 H 991.827 2.64825 1.39671 0
M  V30 10747 H 989.373 1.27438 0.67049 0
M  V30 10748 H 991.326 1.95514 3.73299 0
M  V30 10749 H 990.05 0.856856 3.1516 0
M  V30 10750 H 988.709 2.82661 2.33449 0
M  V30 10751 H 988.357 1.93309 4.64371 0
M  V30 10752 H 988.057 3.68776 4.57469 0
M  V30 10753 H 989.581 3.07341 5.27611 0
M  V30 10754 H 990.995 4.52081 3.52555 0
M  V30 10755 H 989.392 5.16145 3.06127 0
M  V30 10756 H 990.462 4.49708 1.81359 0
M  V30 10757 N 991.805 -0.723954 1.39988 0
M  V30 10758 C 993.03 -1.5182 1.41299 0
M  V30 10759 C 993.455 -1.88096 0.0122636 0
M  V30 10760 O 992.813 -1.52687 -0.977559 0
M  V30 10761 C 992.861 -2.77532 2.30235 0
M  V30 10762 O 991.965 -3.73903 1.73984 0
M  V30 10763 H 991.306 -0.458058 0.480707 0
M  V30 10764 H 993.836 -0.892291 1.84118 0
M  V30 10765 H 993.846 -3.2615 2.45132 0
M  V30 10766 H 992.521 -2.50462 3.32026 0
M  V30 10767 H 991.098 -3.32715 1.68389 0
M  V30 10768 N 993.283 -1.25346 -0.955304 0
M  V30 10769 C 994.699 -1.02154 -1.22625 0
M  V30 10770 C 994.899 0.26206 -1.99789 0
M  V30 10771 O 993.955 0.974958 -2.32918 0
M  V30 10772 C 995.268 -2.2443 -2.00129 0
M  V30 10773 C 996.816 -2.29185 -2.13174 0
M  V30 10774 C 997.291 -3.51117 -2.94077 0
M  V30 10775 N 998.782 -3.51509 -3.01655 0
M  V30 10776 C 999.517 -4.42517 -3.64645 0
M  V30 10777 N 999.013 -5.43796 -4.29252 0
M  V30 10778 N 1000.81 -4.302 -3.61779 0
M  V30 10779 H 992.957 -2.07812 -0.439071 0
M  V30 10780 H 995.22 -0.91258 -0.256715 0
M  V30 10781 H 994.926 -3.17717 -1.50827 0
M  V30 10782 H 994.8 -2.27548 -3.00835 0
M  V30 10783 H 997.187 -1.36422 -2.61674 0
M  V30 10784 H 997.268 -2.30087 -1.11775 0
M  V30 10785 H 996.912 -4.44201 -2.46268 0
M  V30 10786 H 996.842 -3.4746 -3.95701 0
M  V30 10787 H 999.333 -2.78245 -2.55711 0
M  V30 10788 H 999.646 -6.09453 -4.75171 0
M  V30 10789 H 997.991 -5.4767 -4.27882 0
M  V30 10790 H 1001.18 -3.50304 -3.10491 0
M  V30 10791 H 1001.36 -5.01323 -4.10584 0
M  V30 10792 N 994.761 1.15782 -1.06922 0
M  V30 10793 C 996.01 1.85807 -0.784774 0
M  V30 10794 C 996.323 1.82967 0.691551 0
M  V30 10795 O 997.529 2.48632 1.0906 0
M  V30 10796 C 995.985 3.33469 -1.35375 0
M  V30 10797 C 995.593 3.44766 -2.86077 0
M  V30 10798 C 997.337 4.08707 -1.14713 0
M  V30 10799 C 995.244 4.86551 -3.36187 0
M  V30 10800 H 994.174 0.696046 -0.28989 0
M  V30 10801 H 996.825 1.30629 -1.28873 0
M  V30 10802 H 995.207 3.88292 -0.77754 0
M  V30 10803 H 996.381 3.00073 -3.49704 0
M  V30 10804 H 994.696 2.82969 -3.05479 0
M  V30 10805 H 997.293 5.13336 -1.49633 0
M  V30 10806 H 997.636 4.16211 -0.0858868 0
M  V30 10807 H 998.169 3.60142 -1.68946 0
M  V30 10808 H 994.908 4.84229 -4.41818 0
M  V30 10809 H 994.428 5.31844 -2.77312 0
M  V30 10810 H 996.107 5.55392 -3.31887 0
M  V30 10811 N 996.239 0.8527 1.3254 0
M  V30 10812 C 997.488 0.45136 1.96585 0
M  V30 10813 C 997.801 -0.997773 1.68237 0
M  V30 10814 O 999.007 -1.50445 2.26006 0
M  V30 10815 C 997.463 0.75619 3.51866 0
M  V30 10816 C 997.071 2.22092 3.89075 0
M  V30 10817 C 998.815 0.422478 4.22392 0
M  V30 10818 C 996.722 2.46908 5.37392 0
M  V30 10819 H 995.652 0.165052 0.735713 0
M  V30 10820 H 998.303 1.04321 1.50962 0
M  V30 10821 H 996.685 0.0937988 3.95889 0
M  V30 10822 H 997.859 2.92494 3.56067 0
M  V30 10823 H 996.174 2.51896 3.31568 0
M  V30 10824 H 998.771 0.58533 5.31487 0
M  V30 10825 H 999.114 -0.635737 4.11417 0
M  V30 10826 H 999.647 1.04068 3.83946 0
M  V30 10827 H 996.386 3.51346 5.53386 0
M  V30 10828 H 995.906 1.81082 5.71812 0
M  V30 10829 H 997.585 2.30758 6.0445 0
M  V30 10830 N 997.718 -1.45297 0.610449 0
M  V30 10831 C 998.958 -2.04105 0.109802 0
M  V30 10832 C 999.322 -1.46818 -1.23727 0
M  V30 10833 O 1000.52 -1.96997 -1.82881 0
M  V30 10834 C 998.794 -3.57323 0.0741377 0
M  V30 10835 S 1000.35 -4.3728 -0.364901 0
M  V30 10836 H 997.171 -0.709171 0.050967 0
M  V30 10837 H 999.773 -1.77967 0.809194 0
M  V30 10838 H 998.477 -3.96528 1.05801 0
M  V30 10839 H 998.008 -3.8804 -0.647158 0
M  V30 10840 H 1000.02 -4.69224 -1.61379 0
M  V30 10841 N 999.196 -0.349774 -1.5367 0
M  V30 10842 C 1000.47 0.300419 -1.93279 0
M  V30 10843 C 1000.85 1.67721 -1.28191 0
M  V30 10844 O 1000.2 2.24319 -0.435127 0
M  V30 10845 C 1000.41 0.366466 -3.47071 0
M  V30 10846 C 1001.76 0.614349 -4.20132 0
M  V30 10847 O 1002.78 0.448327 -3.53367 0
M  V30 10848 O 1001.64 0.936421 -5.38417 0
M  V30 10849 H 998.736 0.176599 -0.807924 0
M  V30 10850 H 1001.28 -0.401405 -1.64884 0
M  V30 10851 H 1000.05 -0.599455 -3.86681 0
M  V30 10852 H 999.677 1.11482 -3.81651 0
M  V30 10853 N 1000.67 1.57404 -0.0785433 0
M  V30 10854 C 1001.62 2.14316 0.903949 0
M  V30 10855 C 1002.62 1.08176 1.30362 0
M  V30 10856 O 1003.82 1.26546 1.28008 0
M  V30 10857 H 1000.2 0.685367 0.309477 0
M  V30 10858 H 1002.17 2.95719 0.399081 0
M  V30 10859 C 1000.92 2.72504 2.15956 0
M  V30 10860 H 1000.24 3.53853 1.86087 0
M  V30 10861 H 1001.68 3.15914 2.82798 0
M  V30 10862 C 1000.14 1.6759 2.92259 0
M  V30 10863 O 1000.67 1.10492 3.86205 0
M  V30 10864 N 998.875 1.38467 2.5549 0
M  V30 10865 H 998.422 1.85088 1.79166 0
M  V30 10866 H 998.38 0.685053 3.06846 0
M  V30 10867 N 1002.15 -0.195058 1.56388 0
M  V30 10868 C 1003.38 -0.931642 1.84738 0
M  V30 10869 C 1003.79 -1.76849 0.661046 0
M  V30 10870 O 1003.15 -1.78705 -0.370241 0
M  V30 10871 C 1003.2 -1.82777 3.11889 0
M  V30 10872 O 1002.92 -1.02471 4.25948 0
M  V30 10873 C 1004.42 -2.67603 3.53417 0
M  V30 10874 H 1001.64 -0.271821 0.613477 0
M  V30 10875 H 1004.19 -0.202299 2.03497 0
M  V30 10876 H 1002.34 -2.51074 2.95027 0
M  V30 10877 H 1002.76 -1.63539 4.98353 0
M  V30 10878 H 1004.23 -3.26138 4.45352 0
M  V30 10879 H 1004.71 -3.41314 2.76408 0
M  V30 10880 H 1005.31 -2.04678 3.7281 0
M  V30 10881 N 1003.63 -1.50653 -0.462772 0
M  V30 10882 C 1004.88 -1.61737 -1.21184 0
M  V30 10883 C 1005.2 -0.32369 -1.92295 0
M  V30 10884 O 1004.47 0.659269 -1.84473 0
M  V30 10885 H 1003.05 -0.596015 -0.450306 0
M  V30 10886 H 1005.71 -1.87469 -0.533051 0
M  V30 10887 H 1004.81 -2.43262 -1.95525 0
M  V30 10888 N 1005.11 0.71652 -1.4037 0
M  V30 10889 C 1006.36 1.47193 -1.37903 0
M  V30 10890 C 1006.67 1.95593 0.0159939 0
M  V30 10891 O 1007.88 2.71009 0.163282 0
M  V30 10892 C 1006.33 2.6606 -2.42363 0
M  V30 10893 C 1005.94 2.24533 -3.87671 0
M  V30 10894 C 1007.68 3.438 -2.49001 0
M  V30 10895 C 1005.59 3.40234 -4.8373 0
M  V30 10896 H 1004.52 0.552811 -0.512753 0
M  V30 10897 H 1007.17 0.779894 -1.66102 0
M  V30 10898 H 1005.55 3.37429 -2.07262 0
M  V30 10899 H 1006.73 1.6059 -4.31911 0
M  V30 10900 H 1005.04 1.59839 -3.845 0
M  V30 10901 H 1007.64 4.29893 -3.17956 0
M  V30 10902 H 1007.98 3.8755 -1.52023 0
M  V30 10903 H 1008.52 2.79474 -2.83088 0
M  V30 10904 H 1005.26 3.01517 -5.82037 0
M  V30 10905 H 1004.78 4.03095 -4.44156 0
M  V30 10906 H 1006.45 4.06312 -5.03507 0
M  V30 10907 N 1006.59 1.25851 0.948643 0
M  V30 10908 C 1007.81 1.13711 1.72851 0
M  V30 10909 C 1008.23 -0.308471 1.86263 0
M  V30 10910 O 1007.59 -1.21175 1.36465 0
M  V30 10911 C 1007.64 1.79271 3.13918 0
M  V30 10912 O 1007.36 3.18179 3.01154 0
M  V30 10913 C 1008.86 1.72988 4.08154 0
M  V30 10914 H 1006.08 0.396334 0.541443 0
M  V30 10915 H 1008.62 1.66329 1.18974 0
M  V30 10916 H 1006.78 1.30609 3.64719 0
M  V30 10917 H 1007.19 3.50507 3.90186 0
M  V30 10918 H 1008.67 2.2351 5.04725 0
M  V30 10919 H 1009.14 0.694866 4.33668 0
M  V30 10920 H 1009.75 2.21166 3.63271 0
M  V30 10921 N 1008.06 -1.15214 1.07534 0
M  V30 10922 C 1009.29 -1.89922 0.820804 0
M  V30 10923 C 1009.71 -1.78114 -0.626177 0
M  V30 10924 O 1009.06 -1.13435 -1.42964 0
M  V30 10925 C 1009.12 -3.40207 1.22236 0
M  V30 10926 O 1008.84 -3.51676 2.61257 0
M  V30 10927 C 1010.34 -4.31934 0.997393 0
M  V30 10928 H 1007.56 -0.601865 0.296647 0
M  V30 10929 H 1010.1 -1.45965 1.43229 0
M  V30 10930 H 1008.26 -3.8182 0.655167 0
M  V30 10931 H 1008.67 -4.44959 2.77689 0
M  V30 10932 H 1010.14 -5.35791 1.32785 0
M  V30 10933 H 1010.62 -4.3915 -0.0661599 0
M  V30 10934 H 1011.23 -3.96066 1.54958 0
M  V30 10935 N 1009.54 -0.859717 -1.32086 0
M  V30 10936 C 1010.79 -0.466271 -1.97367 0
M  V30 10937 C 1011.12 0.976728 -1.6785 0
M  V30 10938 O 1010.4 1.68618 -0.969449 0
M  V30 10939 C 1010.68 -0.711851 -3.52994 0
M  V30 10940 C 1010.53 -2.20364 -3.92122 0
M  V30 10941 C 1011.85 -0.17156 -4.39765 0
M  V30 10942 H 1008.97 -0.170883 -0.716916 0
M  V30 10943 H 1011.61 -1.07907 -1.56384 0
M  V30 10944 H 1009.76 -0.190258 -3.88034 0
M  V30 10945 H 1011.43 -2.7917 -3.67236 0
M  V30 10946 H 1009.68 -2.68019 -3.41099 0
M  V30 10947 H 1010.35 -2.32615 -5.00594 0
M  V30 10948 H 1012.82 -0.617665 -4.1149 0
M  V30 10949 H 1011.7 -0.372921 -5.47632 0
M  V30 10950 H 1011.96 0.925959 -4.32294 0
M  V30 10951 N 1011.02 1.44971 -0.618145 0
M  V30 10952 C 1012.25 2.07039 -0.122395 0
M  V30 10953 C 1012.67 1.45793 1.18853 0
M  V30 10954 O 1012.03 0.55453 1.72611 0
M  V30 10955 C 1012.08 3.60599 -0.0073864 0
M  V30 10956 O 1011.18 3.99069 1.04007 0
M  V30 10957 H 1010.52 0.6593 -0.0788615 0
M  V30 10958 H 1013.05 1.86055 -0.851147 0
M  V30 10959 H 1013.06 4.07569 0.187417 0
M  V30 10960 H 1011.74 4.04561 -0.964544 0
M  V30 10961 H 1010.31 3.63753 0.820879 0
M  V30 10962 N 1012.5 0.357919 1.53482 0
M  V30 10963 C 1013.91 0.00655107 1.59599 0
M  V30 10964 C 1014.11 -1.47449 1.37336 0
M  V30 10965 O 1013.17 -2.2351 1.17472 0
M  V30 10966 C 1014.48 0.455617 2.97228 0
M  V30 10967 C 1016.03 0.409183 3.10314 0
M  V30 10968 C 1016.51 0.833941 4.50344 0
M  V30 10969 N 1018 0.788695 4.56436 0
M  V30 10970 C 1018.73 1.08914 5.62961 0
M  V30 10971 N 1018.23 1.45847 6.77274 0
M  V30 10972 N 1020.02 1.01243 5.52907 0
M  V30 10973 H 1012.17 1.32248 1.66206 0
M  V30 10974 H 1014.44 0.540047 0.779136 0
M  V30 10975 H 1014.14 1.48881 3.18634 0
M  V30 10976 H 1014.02 -0.161751 3.76853 0
M  V30 10977 H 1016.4 -0.614863 2.88623 0
M  V30 10978 H 1016.48 1.06195 2.32715 0
M  V30 10979 H 1016.13 1.85607 4.72771 0
M  V30 10980 H 1016.06 0.158507 5.26361 0
M  V30 10981 H 1018.55 0.516497 3.74354 0
M  V30 10982 H 1018.86 1.67218 7.54492 0
M  V30 10983 H 1017.21 1.49705 6.78685 0
M  V30 10984 H 1020.4 0.723137 4.62481 0
M  V30 10985 H 1020.57 1.24991 6.35831 0
M  V30 10986 N 1013.98 -1.5736 0.0868897 0
M  V30 10987 C 1015.25 -1.85495 -0.620561 0
M  V30 10988 C 1015.63 -0.982218 -1.86857 0
M  V30 10989 O 1014.98 -0.0524529 -2.2844 0
M  V30 10990 C 1015.19 -3.35996 -0.943798 0
M  V30 10991 C 1016.54 -4.03861 -1.31079 0
M  V30 10992 O 1017.56 -3.4083 -1.03507 0
M  V30 10993 O 1016.42 -5.15062 -1.82683 0
M  V30 10994 H 1013.52 -0.766822 -0.309697 0
M  V30 10995 H 1016.06 -1.69282 0.118966 0
M  V30 10996 H 1014.83 -3.91257 -0.0580628 0
M  V30 10997 H 1014.46 -3.57525 -1.73958 0
M  V30 10998 N 1015.45 0.186762 -1.56489 0
M  V30 10999 C 1016.7 0.904077 -1.80303 0
M  V30 11000 C 1017.02 1.84073 -0.661538 0
M  V30 11001 O 1018.22 2.59928 -0.784197 0
M  V30 11002 C 1016.68 1.65806 -3.19432 0
M  V30 11003 C 1016.29 0.765807 -4.41406 0
M  V30 11004 C 1018.03 2.36451 -3.52549 0
M  V30 11005 C 1015.94 1.51913 -5.71556 0
M  V30 11006 H 1014.87 0.34133 -0.672317 0
M  V30 11007 H 1017.52 0.157218 -1.82825 0
M  V30 11008 H 1015.9 2.44911 -3.11183 0
M  V30 11009 H 1017.07 0.0128225 -4.60798 0
M  V30 11010 H 1015.39 0.169772 -4.16054 0
M  V30 11011 H 1017.99 2.93378 -4.47027 0
M  V30 11012 H 1018.33 3.11044 -2.7669 0
M  V30 11013 H 1018.86 1.64305 -3.62283 0
M  V30 11014 H 1015.6 0.815829 -6.50403 0
M  V30 11015 H 1015.12 2.24583 -5.56168 0
M  V30 11016 H 1016.8 2.07073 -6.12968 0
M  V30 11017 N 1016.93 1.50896 0.454776 0
M  V30 11018 C 1018.18 1.62699 1.20562 0
M  V30 11019 C 1018.51 0.334943 1.91594 0
M  V30 11020 O 1017.76 -0.680106 1.83502 0
M  V30 11021 C 1018.06 2.76839 2.26042 0
M  V30 11022 C 1017.73 4.16745 1.72147 0
M  V30 11023 C 1016.39 4.54809 1.5717 0
M  V30 11024 C 1018.74 5.04118 1.32341 0
M  V30 11025 C 1016.07 5.7797 1.00835 0
M  V30 11026 C 1018.42 6.27842 0.774419 0
M  V30 11027 C 1017.09 6.64694 0.611415 0
M  V30 11028 H 1016.36 0.595358 0.441169 0
M  V30 11029 H 1019 1.84879 0.499202 0
M  V30 11030 H 1017.31 2.48812 3.02655 0
M  V30 11031 H 1019 2.83173 2.83926 0
M  V30 11032 H 1015.59 3.86725 1.84775 0
M  V30 11033 H 1019.78 4.75331 1.42739 0
M  V30 11034 H 1015.03 6.05183 0.869669 0
M  V30 11035 H 1019.21 6.94896 0.457389 0
M  V30 11036 H 1016.84 7.60004 0.172751 0
M  V30 11037 N 1018.41 -0.709066 1.40748 0
M  V30 11038 C 1019.83 -1.01797 1.22921 0
M  V30 11039 C 1020.03 -2.01205 0.109011 0
M  V30 11040 O 1019.08 -2.46854 -0.530987 0
M  V30 11041 C 1020.4 -1.55546 2.57344 0
M  V30 11042 C 1021.94 -1.67498 2.64412 0
M  V30 11043 C 1022.42 -2.24652 3.99119 0
M  V30 11044 N 1023.91 -2.3203 4.00895 0
M  V30 11045 C 1024.64 -2.7725 5.01917 0
M  V30 11046 N 1024.14 -3.22174 6.13332 0
M  V30 11047 N 1025.93 -2.76692 4.89283 0
M  V30 11048 H 1018.08 -0.0502704 2.12341 0
M  V30 11049 H 1020.35 -0.0848933 0.944191 0
M  V30 11050 H 1020.05 -0.899631 3.39999 0
M  V30 11051 H 1019.93 -2.53971 2.78888 0
M  V30 11052 H 1022.31 -2.32196 1.82123 0
M  V30 11053 H 1022.4 -0.676553 2.46691 0
M  V30 11054 H 1022.04 -1.60573 4.81849 0
M  V30 11055 H 1021.97 -3.25221 4.14173 0
M  V30 11056 H 1024.46 -2.00309 3.20444 0
M  V30 11057 H 1024.77 -3.55265 6.86299 0
M  V30 11058 H 1023.12 -3.20116 6.16888 0
M  V30 11059 H 1026.31 -2.40936 4.01332 0
M  V30 11060 H 1026.48 -3.11617 5.68154 0
M  V30 11061 N 1019.89 -1.26353 -0.941956 0
M  V30 11062 C 1020.85 -1.07904 -2.02211 0
M  V30 11063 C 1021.85 -0.0276283 -1.60776 0
M  V30 11064 O 1023.04 -0.270965 -1.7208 0
M  V30 11065 C 1020.17 -0.641084 -3.34818 0
M  V30 11066 H 1021.37 -2.03804 -2.20009 0
M  V30 11067 H 1018.92 -1.08939 -1.12081 0
M  V30 11068 H 1019.66 0.319943 -3.22718 0
M  V30 11069 H 1019.44 -1.40027 -3.66244 0
M  V30 11070 H 1020.93 -0.533826 -4.14174 0
M  V30 11071 N 1021.37 1.14642 -1.08144 0
M  V30 11072 C 1022.32 2.21708 -0.703448 0
M  V30 11073 C 1023.31 1.66907 0.289535 0
M  V30 11074 O 1024.52 1.79354 0.152387 0
M  V30 11075 H 1020.89 0.722247 -0.209437 0
M  V30 11076 H 1022.86 2.50862 -1.61588 0
M  V30 11077 C 1021.61 3.47472 -0.125975 0
M  V30 11078 H 1020.93 3.89967 -0.881216 0
M  V30 11079 H 1022.37 4.2388 0.100737 0
M  V30 11080 C 1020.83 3.17189 1.13546 0
M  V30 11081 O 1021.36 3.34733 2.22073 0
M  V30 11082 N 1019.57 2.71169 1.04479 0
M  V30 11083 H 1019.12 2.57093 0.161566 0
M  V30 11084 H 1019.07 2.51282 1.88957 0
M  V30 11085 N 1022.85 0.866709 1.31628 0
M  V30 11086 C 1024.09 0.472185 1.96095 0
M  V30 11087 C 1024.41 -0.979873 1.69286 0
M  V30 11088 O 1025.61 -1.48039 2.27589 0
M  V30 11089 C 1024.07 0.793468 3.51044 0
M  V30 11090 C 1023.68 2.26206 3.86697 0
M  V30 11091 C 1025.42 0.467255 4.21921 0
M  V30 11092 C 1023.33 2.52593 5.34743 0
M  V30 11093 H 1022.26 0.172846 0.733921 0
M  V30 11094 H 1024.91 1.05916 1.49847 0
M  V30 11095 H 1023.29 0.135783 3.95767 0
M  V30 11096 H 1024.47 2.96254 3.52945 0
M  V30 11097 H 1022.78 2.55399 3.28877 0
M  V30 11098 H 1025.38 0.641669 5.30836 0
M  V30 11099 H 1025.72 -0.592065 4.12068 0
M  V30 11100 H 1026.25 1.08134 3.82821 0
M  V30 11101 H 1022.99 3.57196 5.49628 0
M  V30 11102 H 1022.51 1.87136 5.6986 0
M  V30 11103 H 1024.19 2.37156 6.01968 0
M  V30 11104 N 1024.32 -1.44642 0.625825 0
M  V30 11105 C 1025.55 -2.06159 0.13492 0
M  V30 11106 C 1025.96 -1.46801 -1.19357 0
M  V30 11107 O 1025.3 -0.583345 -1.74192 0
M  V30 11108 C 1025.37 -3.5945 -0.0598481 0
M  V30 11109 C 1025.03 -4.41244 1.18965 0
M  V30 11110 C 1026.03 -4.75064 2.11212 0
M  V30 11111 C 1023.71 -4.81705 1.42359 0
M  V30 11112 C 1025.71 -5.48221 3.25165 0
M  V30 11113 C 1023.39 -5.54612 2.5661 0
M  V30 11114 C 1024.39 -5.87789 3.4784 0
M  V30 11115 O 1024.08 -6.59213 4.60101 0
M  V30 11116 H 1023.81 -0.671888 0.0744464 0
M  V30 11117 H 1026.37 -1.86586 0.858775 0
M  V30 11118 H 1024.6 -3.77493 -0.838792 0
M  V30 11119 H 1026.28 -4.02751 -0.504639 0
M  V30 11120 H 1027.05 -4.44348 1.94371 0
M  V30 11121 H 1022.93 -4.55305 0.722401 0
M  V30 11122 H 1026.47 -5.74035 3.96396 0
M  V30 11123 H 1022.37 -5.84743 2.73396 0
M  V30 11124 H 1023.14 -6.77678 4.59015 0
M  V30 11125 N 1025.8 -0.366053 -1.5329 0
M  V30 11126 C 1027.21 0.113056 -1.86357 0
M  V30 11127 C 1027.56 1.48123 -1.28662 0
M  V30 11128 O 1026.69 2.07658 -0.608849 0
M  V30 11129 C 1027.28 0.211923 -3.38137 0
M  V30 11130 C 1025.84 0.635289 -3.71 0
M  V30 11131 C 1024.99 -0.217203 -2.76448 0
M  V30 11132 H 1027.94 -0.584829 -1.47531 0
M  V30 11133 H 1027.96 1.0354 -3.66142 0
M  V30 11134 H 1027.47 -0.783994 -3.80099 0
M  V30 11135 H 1025.57 1.63942 -3.34595 0
M  V30 11136 H 1025.69 0.409571 -4.77346 0
M  V30 11137 H 1024.05 0.313988 -2.52757 0
M  V30 11138 H 1024.83 -1.21067 -3.21244 0
M  V30 11139 N 1027.28 1.57312 -0.0952337 0
M  V30 11140 C 1028.7 1.57445 0.261416 0
M  V30 11141 C 1028.9 1.10639 1.68408 0
M  V30 11142 O 1027.95 0.782912 2.40056 0
M  V30 11143 C 1029.26 3.00659 0.0497206 0
M  V30 11144 C 1030.81 3.1278 0.117459 0
M  V30 11145 C 1031.29 4.57952 -0.0662441 0
M  V30 11146 N 1032.78 4.63199 -0.0114146 0
M  V30 11147 C 1033.51 5.73255 -0.128799 0
M  V30 11148 N 1033.01 6.92146 -0.301026 0
M  V30 11149 N 1034.8 5.62056 -0.0700599 0
M  V30 11150 H 1026.95 1.86045 -1.02475 0
M  V30 11151 H 1029.22 0.858726 -0.401614 0
M  V30 11152 H 1028.92 3.39102 -0.932888 0
M  V30 11153 H 1028.8 3.68792 0.791975 0
M  V30 11154 H 1031.18 2.74209 1.09057 0
M  V30 11155 H 1031.26 2.47238 -0.656288 0
M  V30 11156 H 1030.91 4.97217 -1.03623 0
M  V30 11157 H 1030.84 5.21555 0.727198 0
M  V30 11158 H 1033.33 3.77712 0.119154 0
M  V30 11159 H 1033.64 7.71855 -0.382104 0
M  V30 11160 H 1031.99 6.94184 -0.336695 0
M  V30 11161 H 1035.18 4.68057 0.0633587 0
M  V30 11162 H 1035.35 6.4779 -0.164991 0
M  V30 11163 N 1028.76 -0.17846 1.56586 0
M  V30 11164 C 1030.01 -0.894464 1.81228 0
M  V30 11165 C 1030.33 -1.83089 0.671062 0
M  V30 11166 O 1029.6 -1.93439 -0.309557 0
M  V30 11167 H 1028.18 -0.333288 0.668527 0
M  V30 11168 H 1030.84 -0.179986 1.94067 0
M  V30 11169 H 1029.93 -1.47565 2.75011 0
M  V30 11170 N 1030.24 -1.51135 -0.446768 0
M  V30 11171 C 1031.48 -1.63336 -1.19698 0
M  V30 11172 C 1031.81 -0.345099 -1.91414 0
M  V30 11173 O 1031.07 0.670365 -1.8386 0
M  V30 11174 C 1031.36 -2.78034 -2.2457 0
M  V30 11175 C 1031.03 -4.17652 -1.69934 0
M  V30 11176 C 1029.69 -4.55636 -1.54756 0
M  V30 11177 C 1032.04 -5.04813 -1.29665 0
M  V30 11178 C 1029.37 -5.78496 -0.977689 0
M  V30 11179 C 1031.72 -6.28244 -0.741112 0
M  V30 11180 C 1030.39 -6.65009 -0.576156 0
M  V30 11181 H 1029.66 -0.597689 -0.438006 0
M  V30 11182 H 1032.31 -1.85141 -0.48939 0
M  V30 11183 H 1030.61 -2.50413 -3.01331 0
M  V30 11184 H 1032.31 -2.84675 -2.8242 0
M  V30 11185 H 1028.9 -3.87699 -1.82722 0
M  V30 11186 H 1033.08 -4.76081 -1.40216 0
M  V30 11187 H 1028.34 -6.05636 -0.837563 0
M  V30 11188 H 1032.51 -6.95129 -0.42053 0
M  V30 11189 H 1030.14 -7.60085 -0.132443 0
M  V30 11190 N 1031.71 0.701592 -1.41122 0
M  V30 11191 C 1032.96 1.46376 -1.40363 0
M  V30 11192 C 1033.29 1.94197 -0.0105442 0
M  V30 11193 O 1032.57 1.69121 0.960637 0
M  V30 11194 C 1032.85 2.67994 -2.40523 0
M  V30 11195 C 1032.7 2.25977 -3.88914 0
M  V30 11196 C 1034.02 3.70181 -2.38022 0
M  V30 11197 H 1031.14 0.530929 -0.511159 0
M  V30 11198 H 1033.78 0.799588 -1.72356 0
M  V30 11199 H 1031.93 3.24661 -2.13372 0
M  V30 11200 H 1033.61 1.74684 -4.26946 0
M  V30 11201 H 1031.85 1.57826 -4.04071 0
M  V30 11202 H 1032.52 3.13215 -4.54533 0
M  V30 11203 H 1035 3.23174 -2.62103 0
M  V30 11204 H 1033.87 4.52894 -3.10127 0
M  V30 11205 H 1034.13 4.19458 -1.3967 0
M  V30 11206 N 1033.19 1.2685 0.935242 0
M  V30 11207 C 1034.14 1.08746 2.05614 0
M  V30 11208 C 1035.13 0.012681 1.69395 0
M  V30 11209 O 1036.34 0.169822 1.79197 0
M  V30 11210 H 1032.71 0.33485 0.673335 0
M  V30 11211 H 1034.69 2.03725 2.18033 0
M  V30 11212 C 1033.43 0.74346 3.39659 0
M  V30 11213 H 1032.76 1.56236 3.68008 0
M  V30 11214 H 1034.2 0.656607 4.18885 0
M  V30 11215 C 1032.66 -0.551751 3.32351 0
M  V30 11216 O 1033.19 -1.58836 3.68963 0
M  V30 11217 N 1031.39 -0.544583 2.85452 0
M  V30 11218 H 1030.94 0.29939 2.55854 0
M  V30 11219 H 1030.9 -1.41129 2.80945 0
M  V30 11220 N 1034.67 -1.14067 1.0875 0
M  V30 11221 C 1035.91 -1.8684 0.828873 0
M  V30 11222 C 1036.27 -1.81235 -0.633879 0
M  V30 11223 O 1037.48 -2.49178 -1.00815 0
M  V30 11224 C 1035.75 -3.31299 1.34073 0
M  V30 11225 S 1037.31 -4.21645 1.21494 0
M  V30 11226 H 1034.12 -0.644622 0.299972 0
M  V30 11227 H 1036.73 -1.37526 1.38949 0
M  V30 11228 H 1035.43 -3.32929 2.39972 0
M  V30 11229 H 1034.96 -3.85672 0.775944 0
M  V30 11230 H 1036.98 -4.95937 0.161446 0
M  V30 11231 N 1036.15 -0.873678 -1.31166 0
M  V30 11232 C 1037.37 -0.500242 -2.01277 0
M  V30 11233 C 1037.8 0.900811 -1.65127 0
M  V30 11234 O 1037.16 1.59504 -0.861862 0
M  V30 11235 C 1037.2 -0.668976 -3.5434 0
M  V30 11236 O 1036.31 0.290096 -4.11378 0
M  V30 11237 H 1035.65 -0.198507 -0.633633 0
M  V30 11238 H 1038.18 -1.17811 -1.67277 0
M  V30 11239 H 1038.19 -0.563673 -4.04088 0
M  V30 11240 H 1036.86 -1.69055 -3.79991 0
M  V30 11241 H 1035.44 0.139437 -3.72639 0
M  V30 11242 N 1037.63 1.44308 -0.633487 0
M  V30 11243 C 1039.04 1.56768 -0.29931 0
M  V30 11244 C 1039.24 1.62061 1.19743 0
M  V30 11245 O 1038.3 1.56492 1.98158 0
M  V30 11246 C 1039.61 2.8382 -0.993307 0
M  V30 11247 C 1041.16 2.97536 -0.971674 0
M  V30 11248 C 1041.63 4.27393 -1.64618 0
M  V30 11249 N 1043.13 4.34212 -1.61288 0
M  V30 11250 C 1043.86 5.33415 -2.1037 0
M  V30 11251 N 1043.36 6.3901 -2.67653 0
M  V30 11252 N 1045.15 5.24939 -2.00985 0
M  V30 11253 H 1037.3 1.39115 -1.60501 0
M  V30 11254 H 1039.56 0.666804 -0.673852 0
M  V30 11255 H 1039.27 2.85902 -2.04823 0
M  V30 11256 H 1039.14 3.73422 -0.532537 0
M  V30 11257 H 1041.53 2.95005 0.0747854 0
M  V30 11258 H 1041.61 2.09276 -1.47096 0
M  V30 11259 H 1041.26 4.30683 -2.6921 0
M  V30 11260 H 1041.19 5.14515 -1.12171 0
M  V30 11261 H 1043.68 3.58519 -1.19468 0
M  V30 11262 H 1043.99 7.10994 -3.02831 0
M  V30 11263 H 1042.33 6.39689 -2.71705 0
M  V30 11264 H 1045.53 4.41357 -1.55953 0
M  V30 11265 H 1045.7 6.02097 -2.39547 0
M  V30 11266 N 1039.1 0.374177 1.53094 0
M  V30 11267 C 1040.35 -0.213981 2.00562 0
M  V30 11268 C 1040.67 -1.4916 1.26533 0
M  V30 11269 O 1041.87 -2.15889 1.64634 0
M  V30 11270 C 1040.33 -0.431876 3.57299 0
M  V30 11271 C 1039.94 0.831615 4.40214 0
M  V30 11272 C 1041.68 -0.977222 4.13099 0
M  V30 11273 C 1039.59 0.582831 5.88521 0
M  V30 11274 H 1038.52 -0.0837386 0.749336 0
M  V30 11275 H 1041.17 0.494245 1.76719 0
M  V30 11276 H 1039.55 -1.20158 3.7733 0
M  V30 11277 H 1040.72 1.60477 4.31953 0
M  V30 11278 H 1039.04 1.30081 3.9556 0
M  V30 11279 H 1041.64 -1.17881 5.21544 0
M  V30 11280 H 1041.98 -1.94189 3.68234 0
M  V30 11281 H 1042.51 -0.267473 3.969 0
M  V30 11282 H 1039.25 1.51807 6.37679 0
M  V30 11283 H 1038.77 -0.151666 5.99608 0
M  V30 11284 H 1040.45 0.211604 6.46654 0
M  V30 11285 N 1040.58 -1.57259 0.103575 0
M  V30 11286 C 1041.99 -1.81816 -0.424239 0
M  V30 11287 C 1042.34 -1.01976 -1.67617 0
M  V30 11288 O 1041.47 -0.251673 -2.14932 0
M  V30 11289 C 1042.06 -3.29783 -0.776453 0
M  V30 11290 C 1040.62 -3.55074 -1.24897 0
M  V30 11291 C 1039.77 -2.76172 -0.249875 0
M  V30 11292 H 1042.72 -1.55254 0.328913 0
M  V30 11293 H 1042.74 -3.43569 -1.63526 0
M  V30 11294 H 1042.25 -3.87865 0.134906 0
M  V30 11295 H 1040.36 -3.02332 -2.17775 0
M  V30 11296 H 1040.47 -4.637 -1.20495 0
M  V30 11297 H 1038.83 -2.43902 -0.733767 0
M  V30 11298 H 1039.62 -3.37007 0.65431 0
M  V30 11299 N 1042.06 0.170153 -1.56679 0
M  V30 11300 C 1043.48 0.521966 -1.50823 0
M  V30 11301 C 1043.68 1.84589 -0.808037 0
M  V30 11302 O 1042.73 2.49791 -0.368891 0
M  V30 11303 C 1044.05 0.553648 -2.95559 0
M  V30 11304 C 1045.59 0.640769 -3.06371 0
M  V30 11305 C 1046.07 0.703332 -4.52567 0
M  V30 11306 N 1047.56 0.76619 -4.56819 0
M  V30 11307 C 1048.29 0.835192 -5.67285 0
M  V30 11308 N 1047.79 0.864957 -6.87379 0
M  V30 11309 N 1049.58 0.874302 -5.55259 0
M  V30 11310 H 1041.73 -0.697952 -2.00605 0
M  V30 11311 H 1044 -0.251787 -0.913952 0
M  V30 11312 H 1043.7 -0.350498 -3.49949 0
M  V30 11313 H 1043.58 1.39973 -3.50268 0
M  V30 11314 H 1045.96 1.53534 -2.52015 0
M  V30 11315 H 1046.05 -0.232008 -2.54746 0
M  V30 11316 H 1045.69 -0.186986 -5.07556 0
M  V30 11317 H 1045.62 1.59227 -5.0195 0
M  V30 11318 H 1048.11 0.751424 -3.70354 0
M  V30 11319 H 1048.42 0.918814 -7.67318 0
M  V30 11320 H 1046.77 0.833215 -6.89987 0
M  V30 11321 H 1049.96 0.848057 -4.60354 0
M  V30 11322 H 1050.13 0.924615 -6.4137 0
M  V30 11323 N 1043.54 1.5137 0.438746 0
M  V30 11324 C 1044.47 1.75528 1.53987 0
M  V30 11325 C 1045.45 0.605067 1.58975 0
M  V30 11326 O 1046.63 0.847634 1.74725 0
M  V30 11327 C 1043.76 1.87904 2.92078 0
M  V30 11328 C 1042.72 3.0333 3.01951 0
M  V30 11329 C 1042.04 3.00888 4.42007 0
M  V30 11330 C 1043.34 4.43319 2.76163 0
M  V30 11331 H 1045.04 2.67728 1.34022 0
M  V30 11332 H 1042.58 1.28831 0.643308 0
M  V30 11333 H 1044.54 2.03388 3.69068 0
M  V30 11334 H 1043.26 0.923514 3.13271 0
M  V30 11335 H 1041.92 2.87549 2.274 0
M  V30 11336 H 1041.57 2.03116 4.60166 0
M  V30 11337 H 1041.27 3.78397 4.49544 0
M  V30 11338 H 1042.79 3.18464 5.20973 0
M  V30 11339 H 1044.21 4.59458 3.42887 0
M  V30 11340 H 1042.6 5.22523 2.9511 0
M  V30 11341 H 1043.67 4.53453 1.71779 0
M  V30 11342 N 1045.02 -0.694098 1.41492 0
M  V30 11343 C 1045.96 -1.82932 1.43662 0
M  V30 11344 C 1046.96 -1.66455 0.31449 0
M  V30 11345 O 1048.16 -1.73298 0.486589 0
M  V30 11346 H 1044.54 -0.602847 0.449533 0
M  V30 11347 H 1046.51 -1.78218 2.39334 0
M  V30 11348 C 1045.26 -3.20962 1.33712 0
M  V30 11349 H 1044.58 -3.34257 2.19345 0
M  V30 11350 H 1046.02 -4.00467 1.39291 0
M  V30 11351 C 1044.48 -3.36863 0.0496332 0
M  V30 11352 O 1045.01 -3.91371 -0.905093 0
M  V30 11353 N 1043.22 -2.90588 -0.0269299 0
M  V30 11354 H 1042.76 -2.46417 0.750752 0
M  V30 11355 H 1042.72 -3.01605 -0.887781 0
M  V30 11356 N 1046.49 -1.27344 -0.928501 0
M  V30 11357 C 1047.42 -1.12517 -2.04602 0
M  V30 11358 C 1048.41 -0.0268563 -1.70079 0
M  V30 11359 O 1049.59 -0.201197 -1.93155 0
M  V30 11360 C 1046.72 -0.770749 -3.3864 0
M  V30 11361 C 1045.67 -1.8222 -3.87272 0
M  V30 11362 C 1045 -1.32178 -5.18105 0
M  V30 11363 C 1046.3 -3.22614 -4.10752 0
M  V30 11364 H 1047.99 -2.06 -2.17265 0
M  V30 11365 H 1045.54 -0.991827 -1.04397 0
M  V30 11366 H 1047.49 -0.653843 -4.16297 0
M  V30 11367 H 1046.22 0.19979 -3.25988 0
M  V30 11368 H 1044.88 -1.928 -3.11807 0
M  V30 11369 H 1044.52 -0.340719 -5.01845 0
M  V30 11370 H 1044.22 -2.02474 -5.51614 0
M  V30 11371 H 1045.75 -1.2178 -5.98333 0
M  V30 11372 H 1047.16 -3.1504 -4.78981 0
M  V30 11373 H 1045.56 -3.90614 -4.55566 0
M  V30 11374 H 1046.63 -3.67727 -3.16077 0
M  V30 11375 N 1047.97 1.13488 -1.09353 0
M  V30 11376 C 1049.2 1.89133 -0.85108 0
M  V30 11377 C 1049.62 1.78542 0.591976 0
M  V30 11378 O 1048.98 1.13243 1.41583 0
M  V30 11379 C 1049.03 3.36736 -1.29001 0
M  V30 11380 O 1048.13 4.09959 -0.447993 0
M  V30 11381 H 1047.47 0.58809 -0.308296 0
M  V30 11382 H 1050 1.43593 -1.45747 0
M  V30 11383 H 1050.01 3.87564 -1.27508 0
M  V30 11384 H 1048.69 3.43762 -2.34095 0
M  V30 11385 H 1047.27 3.69155 -0.52717 0
M  V30 11386 N 1049.45 0.880621 1.30701 0
M  V30 11387 C 1050.41 0.349087 2.26526 0
M  V30 11388 C 1051.41 -0.505973 1.52632 0
M  V30 11389 O 1052.6 -0.313751 1.71351 0
M  V30 11390 C 1049.74 -0.503023 3.37168 0
M  V30 11391 H 1050.93 1.19516 2.75056 0
M  V30 11392 H 1048.48 0.657107 1.41816 0
M  V30 11393 H 1049.22 -1.36986 2.93948 0
M  V30 11394 H 1049 0.109389 3.91947 0
M  V30 11395 H 1050.49 -0.866845 4.08504 0
M  V30 11396 N 1050.93 -1.4397 0.641131 0
M  V30 11397 C 1052.18 -2.02782 0.158406 0
M  V30 11398 C 1052.53 -1.496 -1.20986 0
M  V30 11399 O 1051.82 -0.674517 -1.79334 0
M  V30 11400 C 1052.02 -3.5727 0.0963368 0
M  V30 11401 C 1051.85 -4.25441 1.45704 0
M  V30 11402 C 1050.62 -4.62008 2.04637 0
M  V30 11403 C 1052.81 -4.55238 2.39297 0
M  V30 11404 N 1050.8 -5.15194 3.33839 0
M  V30 11405 C 1052.17 -5.09613 3.53121 0
M  V30 11406 C 1054.22 -4.37197 2.38251 0
M  V30 11407 C 1052.93 -5.47847 4.66108 0
M  V30 11408 C 1054.95 -4.76485 3.50309 0
M  V30 11409 C 1054.31 -5.30982 4.62858 0
M  V30 11410 H 1050.41 -0.775304 0.102117 0
M  V30 11411 H 1053 -1.75321 0.846805 0
M  V30 11412 H 1051.17 -3.84322 -0.561369 0
M  V30 11413 H 1052.9 -4.02757 -0.39614 0
M  V30 11414 H 1049.65 -4.46653 1.57474 0
M  V30 11415 H 1050.08 -5.46253 3.99921 0
M  V30 11416 H 1054.72 -3.94347 1.5248 0
M  V30 11417 H 1052.44 -5.89646 5.52579 0
M  V30 11418 H 1056.02 -4.6423 3.50687 0
M  V30 11419 H 1054.9 -5.6082 5.48133 0
M  V30 11420 N 1052.41 -0.382291 -1.52893 0
M  V30 11421 C 1053.82 -0.031941 -1.59568 0
M  V30 11422 C 1054.02 1.45245 -1.39664 0
M  V30 11423 O 1053.08 2.21612 -1.21013 0
M  V30 11424 C 1054.39 -0.502846 -2.96466 0
M  V30 11425 C 1055.94 -0.4585 -3.09624 0
M  V30 11426 C 1056.42 -0.905481 -4.4896 0
M  V30 11427 N 1057.91 -0.861211 -4.55124 0
M  V30 11428 C 1058.64 -1.17856 -5.61157 0
M  V30 11429 N 1058.14 -1.56603 -6.74868 0
M  V30 11430 N 1059.93 -1.10027 -5.51226 0
M  V30 11431 H 1052.08 -1.34875 -1.64081 0
M  V30 11432 H 1054.34 -0.552375 -0.770446 0
M  V30 11433 H 1054.05 -1.53931 -3.16225 0
M  V30 11434 H 1053.92 0.101777 -3.77063 0
M  V30 11435 H 1056.31 0.568868 -2.89565 0
M  V30 11436 H 1056.39 -1.09884 -2.30996 0
M  V30 11437 H 1056.04 -1.93105 -4.69759 0
M  V30 11438 H 1055.97 -0.242227 -5.26043 0
M  V30 11439 H 1058.46 -0.575988 -3.73485 0
M  V30 11440 H 1058.77 -1.792 -7.51736 0
M  V30 11441 H 1057.12 -1.60484 -6.76217 0
M  V30 11442 H 1060.31 -0.796623 -4.61272 0
M  V30 11443 H 1060.48 -1.35091 -6.33762 0
M  V30 11444 N 1053.89 1.57202 -0.111913 0
M  V30 11445 C 1055.13 1.94565 0.546713 0
M  V30 11446 C 1055.45 0.995644 1.67666 0
M  V30 11447 O 1054.72 0.0506681 1.95834 0
M  V30 11448 H 1053.3 0.718334 0.204951 0
M  V30 11449 H 1055.97 1.94074 -0.179193 0
M  V30 11450 H 1055.06 2.9742 0.945931 0
M  V30 11451 N 1055.36 -0.161842 1.56767 0
M  V30 11452 C 1056.59 -0.892247 1.86672 0
M  V30 11453 C 1057.01 -1.75407 0.69841 0
M  V30 11454 O 1056.36 -1.7945 -0.332251 0
M  V30 11455 C 1056.41 -1.7612 3.15696 0
M  V30 11456 O 1056.14 -0.934131 4.28025 0
M  V30 11457 C 1057.64 -2.60046 3.59014 0
M  V30 11458 H 1054.86 -0.258747 0.619105 0
M  V30 11459 H 1057.4 -0.159089 2.0388 0
M  V30 11460 H 1055.56 -2.44759 3.00286 0
M  V30 11461 H 1055.97 -1.52931 5.01709 0
M  V30 11462 H 1057.44 -3.16618 4.5217 0
M  V30 11463 H 1057.92 -3.35374 2.83586 0
M  V30 11464 H 1058.53 -1.96724 3.77067 0
M  V30 11465 O 1056.88 -1.58561 -0.306714 0
M  V30 11466 H 1057.57 -1.68568 -0.954169 0
M  V30 END ATOM
M  V30 BEGIN BOND
M  V30 END BOND
M  V30 END CTAB
M  END
$$$$
