drugbank_target|P11684 Uteroglobin (DB08373)
 OpenBabel12092120503D

  0  0  0     0  0            999 V3000
M  V30 BEGIN CTAB
M  V30 COUNTS 1416 1423 0 0 0
M  V30 BEGIN ATOM
M  V30 1 H -0.908 1.98254 -0.117106 0
M  V30 2 N 0 1.576 0 0
M  V30 3 C 0.933 2.03868 1.02534 0
M  V30 4 C 1.911 0.928543 1.3348 0
M  V30 5 O 3.095 1.19667 1.45644 0
M  V30 6 C 0.222 2.43627 2.35294 0
M  V30 7 C -0.732 3.65373 2.2001 0
M  V30 8 S 0.101 5.13292 1.52614 0
M  V30 9 C 1.257 5.56322 2.86805 0
M  V30 10 H 1.49 2.90518 0.631377 0
M  V30 11 H -0.977 1.52953 0.210867 0
M  V30 12 H 0.981 2.67203 3.11629 0
M  V30 13 H -0.358 1.57376 2.7183 0
M  V30 14 H -1.165 3.90944 3.18086 0
M  V30 15 H -1.563 3.418 1.51819 0
M  V30 16 H 0.729 5.58782 3.83104 0
M  V30 17 H 1.672 6.56266 2.65933 0
M  V30 18 H 2.08 4.83886 2.90714 0
M  V30 19 N 1.4781 -0.272755 1.55222 0
M  V30 20 C 2.4251 -1.33716 1.88119 0
M  V30 21 C 3.3951 -1.49066 0.73271 0
M  V30 22 O 4.5801 -1.63469 0.984002 0
M  V30 23 C 1.7201 -2.69238 2.15882 0
M  V30 24 C 0.8331 -2.62108 3.43399 0
M  V30 25 C -0.0319 -3.89811 3.60861 0
M  V30 26 C -0.9929 -3.77193 4.8207 0
M  V30 27 N -1.8559 -4.9673 4.96189 0
M  V30 28 H 2.9841 -1.04962 2.78903 0
M  V30 29 H 0.5211 -0.507088 1.38083 0
M  V30 30 H 2.4791 -3.48089 2.29978 0
M  V30 31 H 1.1091 -2.96194 1.28331 0
M  V30 32 H 0.1611 -1.74967 3.37773 0
M  V30 33 H 1.4731 -2.48685 4.32386 0
M  V30 34 H 0.6271 -4.77103 3.74777 0
M  V30 35 H -0.6339 -4.06102 2.7006 0
M  V30 36 H -1.6289 -2.88284 4.68159 0
M  V30 37 H -0.4039 -3.62421 5.74307 0
M  V30 38 H -2.4579 -5.13431 4.08319 0
M  V30 39 H -2.5409 -4.85839 5.79221 0
M  V30 40 H -1.2729 -5.85594 5.1449 0
M  V30 41 N 2.9562 -1.48159 -0.537278 0
M  V30 42 C 3.8862 -1.65029 -1.6519 0
M  V30 43 C 4.8672 -0.499281 -1.62607 0
M  V30 44 O 6.0522 -0.730972 -1.79918 0
M  V30 45 C 3.1822 -1.68303 -3.03795 0
M  V30 46 C 2.1362 -2.8283 -3.21234 0
M  V30 47 C 1.4622 -2.71189 -4.60826 0
M  V30 48 C 2.7622 -4.24211 -3.04701 0
M  V30 49 H 4.4562 -2.58341 -1.51328 0
M  V30 50 H 2.0022 -1.24325 -0.726585 0
M  V30 51 H 3.9552 -1.78693 -3.81637 0
M  V30 52 H 2.6792 -0.715635 -3.18663 0
M  V30 53 H 1.3382 -2.71983 -2.45807 0
M  V30 54 H 0.9862 -1.72435 -4.7252 0
M  V30 55 H 0.6862 -3.48035 -4.7344 0
M  V30 56 H 2.2102 -2.83537 -5.40777 0
M  V30 57 H 3.6242 -4.3593 -3.72341 0
M  V30 58 H 2.0212 -5.01998 -3.28813 0
M  V30 59 H 3.0912 -4.41184 -2.01209 0
M  V30 60 N 4.4343 0.785586 -1.36625 0
M  V30 61 C 5.3973 1.87999 -1.31107 0
M  V30 62 C 6.3973 1.59316 -0.217959 0
M  V30 63 O 7.5873 1.67656 -0.472977 0
M  V30 64 C 4.7193 3.24861 -1.03334 0
M  V30 65 H 5.9123 1.94307 -2.2844 0
M  V30 66 H 3.4653 0.983813 -1.21453 0
M  V30 67 H 4.2003 3.24235 -0.0647432 0
M  V30 68 H 3.9853 3.4707 -1.82441 0
M  V30 69 H 5.4753 4.04929 -1.02088 0
M  V30 70 N 5.9124 1.20967 1.01018 0
M  V30 71 C 7.1584 1.02526 1.74975 0
M  V30 72 C 7.4914 -0.4408 1.89131 0
M  V30 73 O 6.7664 -1.32718 1.42184 0
M  V30 74 C 7.0494 1.71699 3.1653 0
M  V30 75 C 6.9024 3.25791 3.10129 0
M  V30 76 C 8.2214 1.45531 4.15342 0
M  V30 77 H 5.3404 0.373863 0.635134 0
M  V30 78 H 7.9824 1.49071 1.17805 0
M  V30 79 H 6.1324 1.32128 3.65341 0
M  V30 80 H 7.8044 3.74697 2.69072 0
M  V30 81 H 6.0474 3.56363 2.47362 0
M  V30 82 H 6.7184 3.69353 4.10222 0
M  V30 83 H 9.1944 1.79872 3.75213 0
M  V30 84 H 8.0704 1.96453 5.1254 0
M  V30 85 H 8.3314 0.384237 4.40427 0
M  V30 86 N 7.3905 -1.2043 1.01659 0
M  V30 87 C 8.6185 -1.93777 0.725132 0
M  V30 88 C 9.0335 -1.74772 -0.714166 0
M  V30 89 O 8.3905 -1.06169 -1.4844 0
M  V30 90 C 8.4415 -3.45876 1.05129 0
M  V30 91 O 8.1625 -3.6426 2.43406 0
M  V30 92 C 9.6635 -4.36368 0.780891 0
M  V30 93 H 6.8835 -0.615901 0.266284 0
M  V30 94 H 9.4275 -1.52922 1.35776 0
M  V30 95 H 7.5825 -3.8461 0.464065 0
M  V30 96 H 7.9965 -4.58246 2.55169 0
M  V30 97 H 9.4705 -5.41743 1.05918 0
M  V30 98 H 9.9475 -4.38275 -0.284937 0
M  V30 99 H 10.5535 -4.03296 1.35027 0
M  V30 100 N 8.8686 -0.792821 -1.36206 0
M  V30 101 C 9.7986 -0.207853 -2.32573 0
M  V30 102 C 10.7796 0.659055 -1.56813 0
M  V30 103 O 11.9646 0.592176 -1.84951 0
M  V30 104 C 9.0946 0.655449 -3.41059 0
M  V30 105 C 8.0486 -0.111842 -4.27854 0
M  V30 106 C 7.3746 0.872274 -5.27537 0
M  V30 107 C 8.6746 -1.30299 -5.05786 0
M  V30 108 H 10.3686 -1.01294 -2.81744 0
M  V30 109 H 7.9146 -0.48854 -1.3546 0
M  V30 110 H 9.8676 1.07464 -4.07467 0
M  V30 111 H 8.5916 1.49328 -2.90463 0
M  V30 112 H 7.2506 -0.512053 -3.63006 0
M  V30 113 H 6.8986 1.70523 -4.73214 0
M  V30 114 H 6.5986 0.363291 -5.86476 0
M  V30 115 H 8.1226 1.28996 -5.96818 0
M  V30 116 H 9.5366 -0.959379 -5.65216 0
M  V30 117 H 7.9336 -1.7455 -5.74154 0
M  V30 118 H 9.0036 -2.09663 -4.37229 0
M  V30 119 N 10.3467 1.47872 -0.545128 0
M  V30 120 C 11.5747 2.06889 -0.021084 0
M  V30 121 C 11.9897 1.39955 1.2672 0
M  V30 122 O 11.3467 0.492036 1.75742 0
M  V30 123 C 11.3977 3.60996 0.190817 0
M  V30 124 O 11.1187 4.25419 -1.04644 0
M  V30 125 C 12.6197 4.36849 0.753521 0
M  V30 126 H 9.8397 0.669785 -0.0403635 0
M  V30 127 H 12.3837 1.90049 -0.755095 0
M  V30 128 H 10.5387 3.77391 0.87492 0
M  V30 129 H 10.9527 5.17785 -0.836611 0
M  V30 130 H 12.4267 5.45399 0.851139 0
M  V30 131 H 12.9037 4.02306 1.762 0
M  V30 132 H 13.5097 4.25169 0.105503 0
M  V30 133 N 11.8248 0.280983 1.55075 0
M  V30 134 C 12.7548 -0.597469 2.25727 0
M  V30 135 C 13.7358 -1.15417 1.24952 0
M  V30 136 O 14.9208 -1.18722 1.53684 0
M  V30 137 C 12.0508 -1.7789 2.98283 0
M  V30 138 C 11.0048 -1.35347 4.06036 0
M  V30 139 C 10.3308 -2.61846 4.66198 0
M  V30 140 C 11.6308 -0.499354 5.19907 0
M  V30 141 H 13.3248 -0.00824265 2.99399 0
M  V30 142 H 10.8708 -0.0025244 1.44 0
M  V30 143 H 12.8238 -2.39937 3.46422 0
M  V30 144 H 11.5478 -2.39405 2.22155 0
M  V30 145 H 10.2068 -0.756156 3.58717 0
M  V30 146 H 9.8548 -3.21632 3.86732 0
M  V30 147 H 9.5548 -2.3409 5.38958 0
M  V30 148 H 11.0788 -3.24732 5.1709 0
M  V30 149 H 12.4928 -1.02498 5.64063 0
M  V30 150 H 10.8898 -0.316424 5.99265 0
M  V30 151 H 11.9598 0.480459 4.82514 0
M  V30 152 N 13.3029 -1.57598 0.00835791 0
M  V30 153 C 14.5489 -1.91211 -0.675732 0
M  V30 154 C 14.8819 -0.883139 -1.72958 0
M  V30 155 O 14.1569 0.097016 -1.94258 0
M  V30 156 C 14.4399 -3.35379 -1.31123 0
M  V30 157 C 14.2929 -4.48999 -0.268356 0
M  V30 158 C 15.6119 -3.7912 -2.23508 0
M  V30 159 H 12.7309 -0.695374 -0.244179 0
M  V30 160 H 15.3729 -1.89901 0.0613655 0
M  V30 161 H 13.5229 -3.36626 -1.93946 0
M  V30 162 H 15.1949 -4.59887 0.360844 0
M  V30 163 H 13.4379 -4.31873 0.408482 0
M  V30 164 H 14.1089 -5.46851 -0.752218 0
M  V30 165 H 16.5849 -3.79477 -1.70693 0
M  V30 166 H 15.4609 -4.80729 -2.64936 0
M  V30 167 H 15.7219 -3.13455 -3.11766 0
M  V30 168 N 14.781 0.264519 -1.55364 0
M  V30 169 C 16.009 1.013 -1.80405 0
M  V30 170 C 16.424 1.79618 -0.581622 0
M  V30 171 O 15.781 1.76879 0.449468 0
M  V30 172 C 15.832 1.96487 -3.03439 0
M  V30 173 O 15.553 1.21341 -4.20961 0
M  V30 174 C 17.054 2.83079 -3.41147 0
M  V30 175 H 14.274 0.298875 -0.600762 0
M  V30 176 H 16.818 0.292736 -2.02394 0
M  V30 177 H 14.973 2.63965 -2.83551 0
M  V30 178 H 15.387 1.85573 -4.90574 0
M  V30 179 H 16.861 3.4565 -4.30384 0
M  V30 180 H 17.338 3.53286 -2.60932 0
M  V30 181 H 17.944 2.2108 -3.63323 0
M  V30 182 N 16.2591 1.48442 0.529413 0
M  V30 183 C 17.1891 1.65902 1.64313 0
M  V30 184 C 18.1701 0.507897 1.6234 0
M  V30 185 O 19.3551 0.740503 1.79528 0
M  V30 186 C 16.4851 1.69911 3.02898 0
M  V30 187 C 15.4391 2.8453 3.19729 0
M  V30 188 C 14.7651 2.73629 4.59381 0
M  V30 189 C 16.0651 4.25821 3.02447 0
M  V30 190 H 17.7591 2.5914 1.49955 0
M  V30 191 H 15.3051 1.24709 0.719982 0
M  V30 192 H 17.2581 1.80715 3.80684 0
M  V30 193 H 15.9821 0.732524 3.18279 0
M  V30 194 H 14.6411 2.73283 2.44361 0
M  V30 195 H 14.2891 1.74938 4.71599 0
M  V30 196 H 13.9891 3.50541 4.71588 0
M  V30 197 H 15.5131 2.86401 5.39265 0
M  V30 198 H 16.9271 4.37898 3.70024 0
M  V30 199 H 15.3241 5.03735 3.26146 0
M  V30 200 H 16.3941 4.42244 1.98867 0
M  V30 201 N 17.7372 -0.778329 1.37039 0
M  V30 202 C 18.7002 -1.87301 1.32102 0
M  V30 203 C 19.7002 -1.59198 0.226405 0
M  V30 204 O 20.8902 -1.67403 0.481861 0
M  V30 205 C 18.0222 -3.24309 1.05055 0
M  V30 206 H 19.2152 -1.93093 2.29467 0
M  V30 207 H 16.7682 -0.977358 1.21973 0
M  V30 208 H 17.5032 -3.24196 0.0819373 0
M  V30 209 H 17.2882 -3.46098 1.84279 0
M  V30 210 H 18.7782 -4.04382 1.04234 0
M  V30 211 N 19.2153 -1.21501 -1.00376 0
M  V30 212 C 20.1453 -0.999478 -2.11028 0
M  V30 213 C 21.1263 0.0759671 -1.6993 0
M  V30 214 O 22.3113 -0.0841106 -1.94018 0
M  V30 215 C 19.4413 -0.564709 -3.42678 0
M  V30 216 C 18.3953 -1.58486 -3.97576 0
M  V30 217 C 17.7213 -1.00628 -5.25146 0
M  V30 218 C 19.0213 -2.97204 -4.29496 0
M  V30 219 H 20.7153 -1.92495 -2.29317 0
M  V30 220 H 18.2613 -0.92693 -1.102 0
M  V30 221 H 20.2143 -0.401091 -4.19487 0
M  V30 222 H 18.9383 0.396411 -3.24185 0
M  V30 223 H 17.5973 -1.73606 -3.22888 0
M  V30 224 H 17.2453 -0.0368439 -5.02987 0
M  V30 225 H 16.9453 -1.68771 -5.62841 0
M  V30 226 H 18.4693 -0.854015 -6.04598 0
M  V30 227 H 19.8833 -2.8552 -4.97143 0
M  V30 228 H 18.2803 -3.62372 -4.78338 0
M  V30 229 H 19.3503 -3.47956 -3.3772 0
M  V30 230 N 20.6934 1.19889 -1.02296 0
M  V30 231 C 21.9334 1.91125 -0.724602 0
M  V30 232 C 22.2974 1.77464 0.732835 0
M  V30 233 O 23.4984 2.43241 1.144 0
M  V30 234 C 21.7694 3.38187 -1.15604 0
M  V30 235 S 23.3284 4.27702 -0.980621 0
M  V30 236 H 20.1464 0.66018 -0.263976 0
M  V30 237 H 22.7484 1.44978 -1.31155 0
M  V30 238 H 21.4524 3.45653 -2.21251 0
M  V30 239 H 20.9834 3.89363 -0.562131 0
M  V30 240 H 22.9984 4.96073 0.112225 0
M  V30 241 N 22.1715 0.800033 1.35784 0
M  V30 242 C 23.4115 0.382891 2.00782 0
M  V30 243 C 23.7755 -1.02891 1.62103 0
M  V30 244 O 24.9765 -1.54771 2.19771 0
M  V30 245 C 23.2475 0.553299 3.53091 0
M  V30 246 S 24.8065 0.225608 4.3822 0
M  V30 247 H 21.6245 0.145737 0.695904 0
M  V30 248 H 24.2265 1.04085 1.65489 0
M  V30 249 H 22.9305 1.58091 3.78729 0
M  V30 250 H 22.4615 -0.120214 3.93216 0
M  V30 251 H 24.4765 -0.969074 4.86645 0
M  V30 252 N 23.6496 -1.47581 0.552962 0
M  V30 253 C 24.8746 -2.07378 0.0300593 0
M  V30 254 C 25.2996 -1.40355 -1.25229 0
M  V30 255 O 24.6576 -0.477099 -1.7491 0
M  V30 256 C 24.7056 -3.60274 -0.153231 0
M  V30 257 O 23.8096 -3.94041 -1.21678 0
M  V30 258 H 23.1506 -0.662158 0.0494182 0
M  V30 259 H 25.6806 -1.89662 0.767434 0
M  V30 260 H 25.6906 -4.0633 -0.368761 0
M  V30 261 H 24.3656 -4.08455 0.783397 0
M  V30 262 H 22.9426 -3.59735 -0.982079 0
M  V30 263 N 25.1277 -0.289203 -1.54924 0
M  V30 264 C 26.3527 0.329299 -2.04769 0
M  V30 265 C 26.7777 1.4763 -1.16564 0
M  V30 266 O 26.1357 1.80527 -0.167186 0
M  V30 267 C 26.1837 0.774438 -3.52186 0
M  V30 268 O 25.2877 1.88038 -3.67036 0
M  V30 269 H 24.6287 0.0659259 -0.660719 0
M  V30 270 H 27.1587 -0.42761 -2.00082 0
M  V30 271 H 27.1687 1.06642 -3.93816 0
M  V30 272 H 25.8437 -0.0646707 -4.1585 0
M  V30 273 H 24.4207 1.58985 -3.3731 0
M  V30 274 N 26.6058 1.57591 -0.0167156 0
M  V30 275 C 27.5688 2.08393 0.954204 0
M  V30 276 C 28.5688 0.996531 1.26198 0
M  V30 277 O 29.7588 1.25858 1.20438 0
M  V30 278 C 26.8908 2.5394 2.27436 0
M  V30 279 H 28.0838 2.95455 0.514451 0
M  V30 280 H 25.6368 1.54582 0.231089 0
M  V30 281 H 26.3718 1.70171 2.76066 0
M  V30 282 H 26.1568 3.33371 2.06412 0
M  V30 283 H 27.6468 2.93512 2.97053 0
M  V30 284 N 28.0839 -0.256276 1.55502 0
M  V30 285 C 29.3089 -1.00766 1.81276 0
M  V30 286 C 29.7339 -1.78524 0.59252 0
M  V30 287 O 29.0919 -1.75413 -0.45827 0
M  V30 288 C 29.1399 -1.92869 3.04687 0
M  V30 289 O 28.2439 -3.019 2.80945 0
M  V30 290 H 27.5849 -0.287224 0.598664 0
M  V30 291 H 30.1149 -0.280109 2.02674 0
M  V30 292 H 30.1249 -2.34511 3.33869 0
M  V30 293 H 28.7999 -1.35689 3.93143 0
M  V30 294 H 27.3769 -2.64454 2.62904 0
M  V30 295 N 29.562 -1.4872 -0.521534 0
M  V30 296 C 30.525 -1.63379 -1.60748 0
M  V30 297 C 31.525 -0.50661 -1.52611 0
M  V30 298 O 32.715 -0.772601 -1.5613 0
M  V30 299 C 29.847 -1.61192 -3.00383 0
M  V30 300 H 31.04 -2.60217 -1.49087 0
M  V30 301 H 28.593 -1.37444 -0.744235 0
M  V30 302 H 29.328 -0.65863 -3.17541 0
M  V30 303 H 29.113 -2.43032 -3.07698 0
M  V30 304 H 30.603 -1.7466 -3.7932 0
M  V30 305 N 31.0401 0.771051 -1.3745 0
M  V30 306 C 31.9501 1.91538 -1.35464 0
M  V30 307 C 32.9661 1.72134 -0.254123 0
M  V30 308 O 34.1421 1.95358 -0.489626 0
M  V30 309 C 31.2071 3.26671 -1.16134 0
M  V30 310 C 30.2681 3.58723 -2.35831 0
M  V30 311 C 29.5011 4.87409 -2.17413 0
M  V30 312 O 29.7241 5.58506 -1.15876 0
M  V30 313 O 28.6581 5.18539 -3.05615 0
M  V30 314 H 32.4841 1.96165 -2.31847 0
M  V30 315 H 30.0691 0.9139 -1.18187 0
M  V30 316 H 31.9511 4.07499 -1.07345 0
M  V30 317 H 30.6261 3.22894 -0.228251 0
M  V30 318 H 29.5331 2.78127 -2.50192 0
M  V30 319 H 30.8661 3.67243 -3.27709 0
M  V30 320 N 32.5182 1.22032 0.997298 0
M  V30 321 C 33.7672 1.03637 1.73038 0
M  V30 322 C 34.0802 -0.429475 1.90827 0
M  V30 323 O 35.2862 -0.732995 2.61418 0
M  V30 324 C 33.7422 1.80582 3.11317 0
M  V30 325 C 33.3502 3.31387 3.01474 0
M  V30 326 C 35.0942 1.70621 3.88701 0
M  V30 327 C 33.0012 4.00791 4.3488 0
M  V30 328 H 31.9312 0.384179 0.648785 0
M  V30 329 H 34.5822 1.4584 1.11368 0
M  V30 330 H 32.9642 1.31175 3.73643 0
M  V30 331 H 34.1382 3.88155 2.4834 0
M  V30 332 H 32.4532 3.41976 2.37575 0
M  V30 333 H 35.0502 2.19799 4.87434 0
M  V30 334 H 35.3932 0.665823 4.10941 0
M  V30 335 H 35.9262 2.17547 3.33044 0
M  V30 336 H 32.6652 5.05064 4.1784 0
M  V30 337 H 32.1852 3.48811 4.87945 0
M  V30 338 H 33.8642 4.06139 5.03647 0
M  V30 339 N 33.9963 -1.19345 1.0293 0
M  V30 340 C 35.2363 -1.90738 0.734727 0
M  V30 341 C 35.6003 -1.7785 -0.723414 0
M  V30 342 O 36.8013 -2.43844 -1.13108 0
M  V30 343 C 35.0723 -3.37569 1.17396 0
M  V30 344 S 36.6313 -4.27176 1.00329 0
M  V30 345 H 33.4493 -0.658771 0.267474 0
M  V30 346 H 36.0513 -1.4428 1.31922 0
M  V30 347 H 34.7553 -3.44475 2.23081 0
M  V30 348 H 34.2863 -3.8906 0.582772 0
M  V30 349 H 36.3013 -4.96126 -0.0859152 0
M  V30 350 N 35.4744 -0.807222 -1.35358 0
M  V30 351 C 36.8854 -0.44876 -1.81226 0
M  V30 352 C 37.2364 1.02929 -1.67033 0
M  V30 353 O 36.3614 1.79991 -1.20133 0
M  V30 354 C 36.9564 -0.807774 -3.2903 0
M  V30 355 C 35.5154 -0.501901 -3.73039 0
M  V30 356 C 34.6624 -1.03304 -2.57339 0
M  V30 357 H 37.6134 -0.998808 -1.23327 0
M  V30 358 H 37.6344 -0.10554 -3.80354 0
M  V30 359 H 37.1464 -1.88357 -3.39328 0
M  V30 360 H 35.2474 0.565128 -3.68289 0
M  V30 361 H 35.3604 -1.03497 -4.67787 0
M  V30 362 H 33.7244 -0.455339 -2.50597 0
M  V30 363 H 34.5074 -2.11496 -2.70415 0
M  V30 364 N 36.9525 1.47285 -0.560781 0
M  V30 365 C 38.1775 2.07359 -0.0410566 0
M  V30 366 C 38.6025 1.41017 1.24483 0
M  V30 367 O 37.9605 0.486368 1.74654 0
M  V30 368 C 38.0085 3.6035 0.134123 0
M  V30 369 O 37.1125 3.94681 1.19587 0
M  V30 370 H 36.4535 0.661887 -0.0529291 0
M  V30 371 H 38.9835 1.89252 -0.777482 0
M  V30 372 H 38.9935 4.0652 0.347207 0
M  V30 373 H 37.6685 4.08034 -0.805047 0
M  V30 374 H 36.2455 3.60251 0.962987 0
M  V30 375 N 38.4306 0.297415 1.54768 0
M  V30 376 C 39.6776 -0.312913 2.00068 0
M  V30 377 C 40.0056 -1.54171 1.18582 0
M  V30 378 O 39.2606 -1.94108 0.249133 0
M  V30 379 C 39.5596 -0.717561 3.50123 0
M  V30 380 C 39.2256 0.409095 4.4904 0
M  V30 381 C 37.8876 0.718399 4.75807 0
M  V30 382 C 40.2396 1.16717 5.07963 0
M  V30 383 C 37.5676 1.78896 5.5876 0
M  V30 384 C 39.9196 2.22762 5.92081 0
M  V30 385 C 38.5836 2.54303 6.1716 0
M  V30 386 H 37.8536 -0.114503 0.7321 0
M  V30 387 H 40.5006 0.415767 1.86932 0
M  V30 388 H 38.8056 -1.52627 3.60849 0
M  V30 389 H 40.5026 -1.20091 3.82595 0
M  V30 390 H 37.0926 0.157918 4.28309 0
M  V30 391 H 41.2766 0.941466 4.87289 0
M  V30 392 H 36.5326 2.0381 5.7643 0
M  V30 393 H 40.7066 2.81962 6.36765 0
M  V30 394 H 38.3336 3.3739 6.81229 0
M  V30 395 N 39.9087 -1.5758 0.0250728 0
M  V30 396 C 40.8407 -2.06869 -0.986796 0
M  V30 397 C 41.8537 -0.991332 -1.29137 0
M  V30 398 O 43.0427 -1.26761 -1.25674 0
M  V30 399 C 40.1427 -2.47486 -2.31525 0
M  V30 400 C 39.3157 -3.78253 -2.19643 0
M  V30 401 C 38.3747 -4.05464 -3.35388 0
M  V30 402 O 37.4007 -4.75774 -3.12454 0
M  V30 403 N 38.6027 -3.55321 -4.59051 0
M  V30 404 H 41.3677 -2.94302 -0.566276 0
M  V30 405 H 38.9287 -1.6109 -0.161776 0
M  V30 406 H 40.9207 -2.62785 -3.07776 0
M  V30 407 H 39.4907 -1.65441 -2.65232 0
M  V30 408 H 38.7107 -3.7279 -1.28144 0
M  V30 409 H 39.9987 -4.63936 -2.08903 0
M  V30 410 H 39.3967 -2.98431 -4.80578 0
M  V30 411 H 37.9537 -3.75905 -5.32483 0
M  V30 412 N 41.3868 0.248026 -1.55636 0
M  V30 413 C 42.8028 0.596483 -1.48035 0
M  V30 414 C 43.0028 1.88386 -0.715039 0
M  V30 415 O 42.0588 2.51319 -0.243944 0
M  V30 416 C 43.3718 0.700258 -2.92433 0
M  V30 417 C 44.9198 0.792659 -3.02797 0
M  V30 418 C 45.3948 0.928005 -4.485 0
M  V30 419 N 46.8858 0.992903 -4.52433 0
M  V30 420 C 47.6208 1.11687 -5.62418 0
M  V30 421 N 47.1168 1.20645 -6.82214 0
M  V30 422 N 48.9098 1.14994 -5.50212 0
M  V30 423 H 41.0608 -0.597109 -2.03834 0
M  V30 424 H 43.3238 -0.205925 -0.925364 0
M  V30 425 H 43.0298 -0.175658 -3.51261 0
M  V30 426 H 42.9038 1.57255 -3.42857 0
M  V30 427 H 45.2908 1.65903 -2.4405 0
M  V30 428 H 45.3718 -0.104762 -2.55585 0
M  V30 429 H 45.0158 0.0661971 -5.07857 0
M  V30 430 H 44.9458 1.84045 -4.93391 0
M  V30 431 H 47.4368 0.935064 -3.66149 0
M  V30 432 H 47.7498 1.30008 -7.61786 0
M  V30 433 H 46.0948 1.17605 -6.84977 0
M  V30 434 H 49.2858 1.07643 -4.55555 0
M  V30 435 H 49.4588 1.24311 -6.35965 0
M  V30 436 N 42.8649 1.48995 0.513639 0
M  V30 437 C 44.1109 1.58076 1.27042 0
M  V30 438 C 44.4439 0.261026 1.92438 0
M  V30 439 O 43.7189 -0.734393 1.80103 0
M  V30 440 C 44.0019 2.73091 2.34719 0
M  V30 441 C 43.8549 4.14821 1.73907 0
M  V30 442 C 45.1739 2.83796 3.36375 0
M  V30 443 H 42.2929 0.575391 0.460536 0
M  V30 444 H 44.9349 1.81232 0.570516 0
M  V30 445 H 43.0849 2.53479 2.94416 0
M  V30 446 H 44.7569 4.45917 1.18135 0
M  V30 447 H 42.9999 4.21058 1.0437 0
M  V30 448 H 43.6709 4.91147 2.51949 0
M  V30 449 H 46.1469 3.01611 2.86653 0
M  V30 450 H 45.0229 3.65971 4.09093 0
M  V30 451 H 45.2839 1.92624 3.9793 0
M  V30 452 N 44.343 -0.763751 1.37857 0
M  V30 453 C 45.592 -1.51789 1.32827 0
M  V30 454 C 45.905 -1.95426 -0.0823719 0
M  V30 455 O 47.111 -2.70298 -0.255172 0
M  V30 456 C 45.567 -2.74133 2.33193 0
M  V30 457 C 45.175 -2.37562 3.79827 0
M  V30 458 C 46.919 -3.52054 2.37188 0
M  V30 459 C 44.826 -3.56456 4.71904 0
M  V30 460 H 43.756 -0.569896 0.493695 0
M  V30 461 H 46.407 -0.835822 1.63359 0
M  V30 462 H 44.789 -3.4427 1.9569 0
M  V30 463 H 45.963 -1.75157 4.26212 0
M  V30 464 H 44.278 -1.72798 3.78853 0
M  V30 465 H 46.875 -4.40437 3.03182 0
M  V30 466 H 47.218 -3.92486 1.38782 0
M  V30 467 H 47.751 -2.88921 2.7344 0
M  V30 468 H 44.49 -3.21099 5.71468 0
M  V30 469 H 44.01 -4.17938 4.30218 0
M  V30 470 H 45.689 -4.23168 4.89426 0
M  V30 471 N 45.8211 -1.22559 -0.990812 0
M  V30 472 C 46.7311 -1.01394 -2.11557 0
M  V30 473 C 47.7471 0.0383962 -1.73958 0
M  V30 474 O 48.9231 -0.154787 -2.00804 0
M  V30 475 C 45.9881 -0.596569 -3.41529 0
M  V30 476 C 45.0491 -1.72276 -3.93217 0
M  V30 477 C 44.2821 -1.32521 -5.16985 0
M  V30 478 O 44.5051 -0.204909 -5.70032 0
M  V30 479 O 43.4391 -2.14247 -5.62478 0
M  V30 480 H 47.2651 -1.95633 -2.32296 0
M  V30 481 H 44.8501 -1.01172 -1.0993 0
M  V30 482 H 46.7321 -0.374263 -4.19735 0
M  V30 483 H 45.4071 0.316939 -3.22145 0
M  V30 484 H 44.3141 -1.99961 -3.16174 0
M  V30 485 H 45.6471 -2.61421 -4.17037 0
M  V30 486 N 47.2992 1.18797 -1.03562 0
M  V30 487 C 48.5272 1.92599 -0.755869 0
M  V30 488 C 48.9422 1.75886 0.686271 0
M  V30 489 O 48.2992 1.08517 1.46732 0
M  V30 490 C 48.3502 3.44159 -1.10619 0
M  V30 491 O 48.0712 3.60341 -2.4917 0
M  V30 492 C 49.5722 4.3507 -0.850214 0
M  V30 493 H 46.7922 0.611587 -0.276048 0
M  V30 494 H 49.3362 1.50742 -1.38192 0
M  V30 495 H 47.4912 3.83823 -0.525194 0
M  V30 496 H 47.9052 4.54128 -2.62427 0
M  V30 497 H 49.3792 5.39989 -1.14523 0
M  V30 498 H 49.8562 4.38673 0.215176 0
M  V30 499 H 50.4622 4.01097 -1.41426 0
M  V30 500 N 48.7773 0.814389 1.34928 0
M  V30 501 C 49.7073 0.244827 2.32213 0
M  V30 502 C 50.6883 -0.634024 1.57842 0
M  V30 503 O 51.8733 -0.562676 1.8587 0
M  V30 504 C 49.0033 -0.601106 3.42058 0
M  V30 505 C 47.9573 0.179896 4.27622 0
M  V30 506 C 47.2833 -0.788237 5.28858 0
M  V30 507 C 48.5833 1.38329 5.03649 0
M  V30 508 H 50.2773 1.05763 2.80097 0
M  V30 509 H 47.8233 0.510029 1.34665 0
M  V30 510 H 49.7763 -1.00968 4.09125 0
M  V30 511 H 48.5003 -1.44688 2.92802 0
M  V30 512 H 47.1593 0.569739 3.62146 0
M  V30 513 H 46.8073 -1.62973 4.75866 0
M  V30 514 H 46.5073 -0.269942 5.8698 0
M  V30 515 H 48.0313 -1.19485 5.98795 0
M  V30 516 H 49.4453 1.04918 5.63618 0
M  V30 517 H 47.8423 1.83662 5.71304 0
M  V30 518 H 48.9123 2.16592 4.33839 0
M  V30 519 N 50.2554 -1.46986 0.568584 0
M  V30 520 C 51.1854 -2.32946 -0.160753 0
M  V30 521 C 52.1664 -1.44487 -0.897631 0
M  V30 522 O 53.3514 -1.73327 -0.875867 0
M  V30 523 C 50.4814 -3.26494 -1.18403 0
M  V30 524 C 49.4354 -4.24282 -0.562895 0
M  V30 525 C 48.7614 -5.07236 -1.69163 0
M  V30 526 C 50.0614 -5.19989 0.490761 0
M  V30 527 H 51.7554 -2.94175 0.556916 0
M  V30 528 H 49.3014 -1.4146 0.26927 0
M  V30 529 H 51.2544 -3.85477 -1.70251 0
M  V30 530 H 49.9784 -2.63343 -1.93179 0
M  V30 531 H 48.6374 -3.66541 -0.0656164 0
M  V30 532 H 48.2854 -4.4048 -2.42871 0
M  V30 533 H 47.9854 -5.7345 -1.28174 0
M  V30 534 H 49.5094 -5.6908 -2.21314 0
M  V30 535 H 50.9234 -5.73271 0.0579047 0
M  V30 536 H 49.3204 -5.94469 0.820165 0
M  V30 537 H 50.3904 -4.64777 1.3824 0
M  V30 538 N 51.7335 -0.305618 -1.54608 0
M  V30 539 C 52.6665 0.610536 -2.19881 0
M  V30 540 C 53.6445 1.1294 -1.16976 0
M  V30 541 O 54.8285 1.19673 -1.45638 0
M  V30 542 C 51.9555 1.83583 -2.84631 0
M  V30 543 C 51.0015 1.4498 -4.01102 0
M  V30 544 S 51.8345 0.501793 -5.33144 0
M  V30 545 C 52.9905 1.73478 -6.01379 0
M  V30 546 H 53.2235 0.0560177 -2.97247 0
M  V30 547 H 50.7565 -0.0897434 -1.54139 0
M  V30 548 H 52.7145 2.53898 -3.22562 0
M  V30 549 H 51.3755 2.36152 -2.07102 0
M  V30 550 H 50.5685 2.36236 -4.45206 0
M  V30 551 H 50.1705 0.826553 -3.64752 0
M  V30 552 H 52.4625 2.67473 -6.22467 0
M  V30 553 H 53.4055 1.33622 -6.95378 0
M  V30 554 H 53.8135 1.9136 -5.31076 0
M  V30 555 N 53.2116 1.57565 -0.0334293 0
M  V30 556 C 54.4886 1.83282 0.683163 0
M  V30 557 C 54.8686 0.91823 1.90084 0
M  V30 558 O 54.2166 -0.025113 2.28486 0
M  V30 559 C 54.4266 3.32599 1.0573 0
M  V30 560 C 55.7746 3.99179 1.44711 0
M  V30 561 O 56.7986 3.3712 1.15015 0
M  V30 562 O 55.6576 5.08565 2.0006 0
M  V30 563 H 52.7516 0.755869 0.335546 0
M  V30 564 H 55.2976 1.69589 -0.0614402 0
M  V30 565 H 54.0696 3.90834 0.190828 0
M  V30 566 H 53.6926 3.51415 1.85993 0
M  V30 567 N 54.6897 -0.239769 1.55765 0
M  V30 568 C 55.9177 -0.98417 1.81994 0
M  V30 569 C 56.3327 -1.7867 0.610124 0
M  V30 570 O 55.6897 -1.77571 -0.421271 0
M  V30 571 C 55.7407 -1.91635 3.06526 0
M  V30 572 O 55.4617 -1.14629 4.22838 0
M  V30 573 C 56.9627 -2.77616 3.45607 0
M  V30 574 H 54.1827 -0.28928 0.605441 0
M  V30 575 H 56.7267 -0.260499 2.02834 0
M  V30 576 H 54.8817 -2.5942 2.87715 0
M  V30 577 H 55.2957 -1.77745 4.93464 0
M  V30 578 H 56.7697 -3.38759 4.35828 0
M  V30 579 H 57.2467 -3.4909 2.6652 0
M  V30 580 H 57.8527 -2.15271 3.66795 0
M  V30 581 N 56.1678 -1.49265 -0.50573 0
M  V30 582 C 57.5788 -1.51769 -1.08734 0
M  V30 583 C 57.9298 -0.301192 -1.93874 0
M  V30 584 O 57.0548 0.589456 -2.08217 0
M  V30 585 C 57.6498 -2.75017 -1.97867 0
M  V30 586 C 56.2088 -2.80314 -2.51199 0
M  V30 587 C 55.3558 -2.4562 -1.28709 0
M  V30 588 H 58.3068 -1.56031 -0.289855 0
M  V30 589 H 58.3278 -2.5491 -2.82491 0
M  V30 590 H 57.8398 -3.63539 -1.35873 0
M  V30 591 H 55.9408 -1.96061 -3.16845 0
M  V30 592 H 56.0538 -3.82366 -2.88675 0
M  V30 593 H 54.4178 -1.97297 -1.61078 0
M  V30 594 H 55.2008 -3.36411 -0.6843 0
M  V30 595 N 57.6459 0.756429 -1.3826 0
M  V30 596 C 58.8709 1.55077 -1.37717 0
M  V30 597 C 59.2959 1.88073 0.03164 0
M  V30 598 O 58.6539 1.50364 1.01293 0
M  V30 599 C 58.7019 2.8283 -2.23695 0
M  V30 600 O 57.8059 3.77862 -1.6521 0
M  V30 601 H 57.1469 0.469152 -0.469885 0
M  V30 602 H 59.6769 0.935019 -1.81985 0
M  V30 603 H 59.6869 3.31783 -2.37453 0
M  V30 604 H 58.3619 2.58144 -3.2609 0
M  V30 605 H 56.9389 3.36555 -1.60578 0
M  V30 606 N 59.124 1.23083 0.984299 0
M  V30 607 C 60.349 1.088 1.76571 0
M  V30 608 C 60.774 -0.356657 1.84688 0
M  V30 609 O 60.132 -1.25788 1.30565 0
M  V30 610 C 60.18 1.71371 3.17277 0
M  V30 611 O 59.284 0.973213 4.00752 0
M  V30 612 H 58.625 0.381599 0.543395 0
M  V30 613 H 61.155 1.63057 1.23587 0
M  V30 614 H 61.165 1.76449 3.67872 0
M  V30 615 H 59.84 2.76493 3.10684 0
M  V30 616 H 58.417 0.999078 3.59267 0
M  V30 617 N 60.6021 -1.18246 1.0419 0
M  V30 618 C 61.8321 -1.91916 0.764961 0
M  V30 619 C 62.2401 -1.76485 -0.681898 0
M  V30 620 O 61.5831 -1.09275 -1.47664 0
M  V30 621 C 61.6451 -3.4373 1.05309 0
M  V30 622 C 61.3091 -3.8294 2.4941 0
M  V30 623 C 62.3061 -3.86621 3.47592 0
M  V30 624 C 59.9911 -4.142 2.84155 0
M  V30 625 C 61.9851 -4.21013 4.78568 0
M  V30 626 C 59.6721 -4.48262 4.15337 0
M  V30 627 C 60.6701 -4.51645 5.12353 0
M  V30 628 O 60.3581 -4.84911 6.41183 0
M  V30 629 H 60.0901 -0.61606 0.278292 0
M  V30 630 H 62.6441 -1.50947 1.39299 0
M  V30 631 H 60.8741 -3.84946 0.367933 0
M  V30 632 H 62.5631 -3.9865 0.763752 0
M  V30 633 H 63.3291 -3.62607 3.22089 0
M  V30 634 H 59.2081 -4.10743 2.09311 0
M  V30 635 H 62.7521 -4.23568 5.54289 0
M  V30 636 H 58.6491 -4.71737 4.40607 0
M  V30 637 H 59.4171 -5.02809 6.45852 0
M  V30 638 N 62.0802 -0.821533 -1.34494 0
M  V30 639 C 62.9902 -0.244355 -2.33324 0
M  V30 640 C 64.0062 0.620527 -1.62559 0
M  V30 641 O 65.1822 0.528754 -1.94335 0
M  V30 642 C 62.2472 0.585368 -3.41723 0
M  V30 643 C 61.3082 -0.301752 -4.28238 0
M  V30 644 C 60.5412 0.488466 -5.3146 0
M  V30 645 O 60.7642 1.72186 -5.4379 0
M  V30 646 O 59.6982 -0.12848 -6.01763 0
M  V30 647 H 63.5242 -1.06231 -2.84515 0
M  V30 648 H 61.1092 -0.583645 -1.37528 0
M  V30 649 H 62.9912 1.05747 -4.07916 0
M  V30 650 H 61.6662 1.38068 -2.92778 0
M  V30 651 H 60.5732 -0.821315 -3.64973 0
M  V30 652 H 61.9062 -1.06138 -4.8062 0
M  V30 653 N 63.5583 1.46682 -0.576371 0
M  V30 654 C 64.5213 2.28707 0.150239 0
M  V30 655 C 65.5213 1.38035 0.824794 0
M  V30 656 O 66.7113 1.60476 0.677719 0
M  V30 657 C 63.8433 3.18248 1.22192 0
M  V30 658 H 65.0363 2.94423 -0.570521 0
M  V30 659 H 62.5893 1.52688 -0.334078 0
M  V30 660 H 63.3243 2.57265 1.97447 0
M  V30 661 H 63.1093 3.85 0.742812 0
M  V30 662 H 64.5993 3.80001 1.73172 0
M  V30 663 N 65.0364 0.313813 1.54444 0
M  V30 664 C 65.9994 -0.54379 2.22656 0
M  V30 665 C 66.9994 -1.05124 1.21678 0
M  V30 666 O 68.1894 -0.945225 1.46325 0
M  V30 667 C 65.3214 -1.75427 2.92298 0
M  V30 668 H 66.5144 0.0523599 2.99854 0
M  V30 669 H 64.0674 0.0647834 1.56166 0
M  V30 670 H 64.8024 -2.38991 2.19211 0
M  V30 671 H 64.5874 -1.39791 3.66334 0
M  V30 672 H 66.0774 -2.36325 3.44297 0
M  V30 673 N 66.5145 -1.57545 0.0417849 0
M  V30 674 C 67.4475 -2.06514 -0.970928 0
M  V30 675 C 68.4255 -0.963607 -1.30971 0
M  V30 676 O 69.6095 -1.23486 -1.4242 0
M  V30 677 C 66.7365 -2.4978 -2.28752 0
M  V30 678 C 65.7825 -3.71078 -2.10246 0
M  V30 679 S 66.6155 -5.17158 -1.38952 0
M  V30 680 C 67.7715 -5.6373 -2.71954 0
M  V30 681 H 68.0045 -2.9209 -0.554129 0
M  V30 682 H 65.5375 -1.53459 -0.17024 0
M  V30 683 H 67.4955 -2.75371 -3.04435 0
M  V30 684 H 66.1565 -1.64527 -2.67562 0
M  V30 685 H 65.3495 -3.9924 -3.07609 0
M  V30 686 H 64.9515 -3.45705 -1.42704 0
M  V30 687 H 67.2435 -5.68743 -3.68154 0
M  V30 688 H 68.1865 -6.63086 -2.4844 0
M  V30 689 H 68.5945 -4.91424 -2.77782 0
M  V30 690 N 67.9926 0.231505 -1.5589 0
M  V30 691 C 68.9026 1.308 -1.94752 0
M  V30 692 C 69.9186 1.51826 -0.849989 0
M  V30 693 O 71.0946 1.6515 -1.15271 0
M  V30 694 C 68.1596 2.63968 -2.24771 0
M  V30 695 C 67.2206 2.51331 -3.48039 0
M  V30 696 C 66.4536 3.78148 -3.76616 0
M  V30 697 O 66.6766 4.80722 -3.07022 0
M  V30 698 O 65.6106 3.75857 -4.70123 0
M  V30 699 H 69.4366 1.0083 -2.86474 0
M  V30 700 H 67.0216 0.433547 -1.42971 0
M  V30 701 H 68.9036 3.42633 -2.45318 0
M  V30 702 H 67.5786 2.9364 -1.36225 0
M  V30 703 H 66.4856 1.709 -3.32782 0
M  V30 704 H 67.8186 2.26601 -4.36936 0
M  V30 705 N 69.4707 1.49531 0.497807 0
M  V30 706 C 70.4007 1.6935 1.60757 0
M  V30 707 C 71.3817 0.542218 1.61227 0
M  V30 708 O 72.5667 0.778417 1.77917 0
M  V30 709 C 69.6967 1.76298 2.99226 0
M  V30 710 C 68.6507 2.91248 3.13622 0
M  V30 711 C 67.9767 2.83312 4.53474 0
M  V30 712 C 69.2767 4.3214 2.93346 0
M  V30 713 H 70.9707 2.62263 1.44425 0
M  V30 714 H 68.5167 1.26208 0.693367 0
M  V30 715 H 70.4697 1.88749 3.76765 0
M  V30 716 H 69.1937 0.799871 3.16654 0
M  V30 717 H 67.8527 2.78404 2.38509 0
M  V30 718 H 67.5007 1.84902 4.67782 0
M  V30 719 H 67.2007 3.60465 4.64046 0
M  V30 720 H 68.7247 2.97775 5.33069 0
M  V30 721 H 70.1387 4.45649 3.60652 0
M  V30 722 H 68.5357 5.1054 3.15387 0
M  V30 723 H 69.6057 4.46363 1.89441 0
M  V30 724 N 70.9488 -0.749086 1.3866 0
M  V30 725 C 72.1958 -1.50833 1.35114 0
M  V30 726 C 72.5238 -1.94415 -0.0574049 0
M  V30 727 O 71.7788 -1.66065 -1.03541 0
M  V30 728 C 72.0778 -2.7712 2.25697 0
M  V30 729 C 71.7438 -2.52477 3.73585 0
M  V30 730 C 70.4058 -2.45466 4.13884 0
M  V30 731 C 72.7578 -2.31066 4.67181 0
M  V30 732 C 70.0858 -2.15064 5.45861 0
M  V30 733 C 72.4378 -2.02183 5.9942 0
M  V30 734 C 71.1018 -1.93631 6.38798 0
M  V30 735 H 70.3718 -0.551936 0.494416 0
M  V30 736 H 73.0188 -0.860979 1.71054 0
M  V30 737 H 71.3238 -3.46528 1.82827 0
M  V30 738 H 73.0208 -3.35096 2.20254 0
M  V30 739 H 69.6108 -2.58807 3.41638 0
M  V30 740 H 73.7948 -2.35459 4.3689 0
M  V30 741 H 69.0508 -2.06954 5.75308 0
M  V30 742 H 73.2248 -1.8462 6.71482 0
M  V30 743 H 70.8518 -1.69839 7.40985 0
M  V30 744 N 72.4269 -1.23603 -0.977757 0
M  V30 745 C 73.6519 -1.09735 -1.75991 0
M  V30 746 C 74.0769 0.346858 -1.84874 0
M  V30 747 O 73.4349 1.25093 -1.3123 0
M  V30 748 C 73.4829 -1.73051 -3.16363 0
M  V30 749 O 72.5869 -0.994452 -4.0023 0
M  V30 750 H 71.9279 -0.384476 -0.541364 0
M  V30 751 H 74.4579 -1.6371 -1.2272 0
M  V30 752 H 74.4679 -1.78398 -3.66931 0
M  V30 753 H 73.1429 -2.78137 -3.09213 0
M  V30 754 H 71.7199 -1.01812 -3.58732 0
M  V30 755 N 73.905 1.17692 -1.04816 0
M  V30 756 C 75.316 1.69501 -0.782698 0
M  V30 757 C 75.667 1.83456 0.695577 0
M  V30 758 O 74.792 1.51942 1.54086 0
M  V30 759 C 75.387 3.07874 -1.41419 0
M  V30 760 C 73.946 3.56864 -1.19686 0
M  V30 761 C 73.093 2.3322 -1.50012 0
M  V30 762 H 76.044 1.02262 -1.2136 0
M  V30 763 H 76.065 3.71528 -0.821428 0
M  V30 764 H 75.577 2.97685 -2.49009 0
M  V30 765 H 73.678 3.72337 -0.140043 0
M  V30 766 H 73.791 4.39851 -1.89916 0
M  V30 767 H 72.155 2.37501 -0.920071 0
M  V30 768 H 72.938 2.25644 -2.58727 0
M  V30 769 N 75.3831 0.828654 1.34056 0
M  V30 770 C 76.6601 0.341809 1.9259 0
M  V30 771 C 77.0401 -1.17158 1.75605 0
M  V30 772 O 76.3881 -1.98132 1.13824 0
M  V30 773 C 76.5981 0.777453 3.4023 0
M  V30 774 C 77.9461 0.779579 4.17382 0
M  V30 775 O 78.9701 0.7204 3.48839 0
M  V30 776 O 77.8291 0.857996 5.39723 0
M  V30 777 H 74.9231 0.0946085 0.821571 0
M  V30 778 H 77.4691 0.913827 1.42994 0
M  V30 779 H 76.2411 1.8196 3.46419 0
M  V30 780 H 75.8641 0.181444 3.97186 0
M  V30 781 N 76.8612 -1.46375 0.584142 0
M  V30 782 C 77.7932 -2.28443 -0.186119 0
M  V30 783 C 78.8062 -1.38596 -0.854115 0
M  V30 784 O 79.9952 -1.63183 -0.723438 0
M  V30 785 C 77.0952 -3.13671 -1.28311 0
M  V30 786 C 76.2682 -4.31652 -0.706758 0
M  V30 787 C 75.3272 -4.98267 -1.69163 0
M  V30 788 O 74.3532 -5.55815 -1.22712 0
M  V30 789 N 75.5552 -4.95408 -3.02575 0
M  V30 790 H 78.3202 -2.9519 0.517986 0
M  V30 791 H 75.8812 -1.56303 0.42201 0
M  V30 792 H 77.8732 -3.55101 -1.94128 0
M  V30 793 H 76.4432 -2.48989 -1.89005 0
M  V30 794 H 75.6632 -3.93989 0.128908 0
M  V30 795 H 76.9512 -5.07906 -0.301506 0
M  V30 796 H 76.3492 -4.49902 -3.42936 0
M  V30 797 H 74.9062 -5.40774 -3.63877 0
M  V30 798 N 78.3393 -0.321999 -1.54275 0
M  V30 799 C 79.6163 0.335232 -1.92706 0
M  V30 800 C 79.9963 1.70006 -1.25145 0
M  V30 801 O 79.3443 2.25067 -0.394596 0
M  V30 802 C 79.5543 0.429008 -3.46353 0
M  V30 803 C 80.9023 0.690029 -4.18956 0
M  V30 804 O 81.9263 0.511992 -3.52501 0
M  V30 805 O 80.7853 1.03338 -5.36641 0
M  V30 806 H 77.8793 0.191143 -0.804608 0
M  V30 807 H 80.4253 -0.3716 -1.65581 0
M  V30 808 H 79.1973 -0.529611 -3.87699 0
M  V30 809 H 78.8203 1.18348 -3.79578 0
M  V30 810 N 79.8174 1.5752 -0.0501392 0
M  V30 811 C 80.7504 2.07026 0.959962 0
M  V30 812 C 81.7284 0.970539 1.30458 0
M  V30 813 O 82.9124 1.2424 1.41763 0
M  V30 814 C 80.0394 2.5099 2.27424 0
M  V30 815 C 79.0854 3.72188 2.08275 0
M  V30 816 S 79.9184 5.17888 1.36207 0
M  V30 817 C 81.0744 5.65165 2.6896 0
M  V30 818 H 81.3074 2.9238 0.538631 0
M  V30 819 H 78.8404 1.53547 0.162099 0
M  V30 820 H 80.7984 2.76982 3.02971 0
M  V30 821 H 79.4594 1.65944 2.66686 0
M  V30 822 H 78.6524 4.00866 3.05487 0
M  V30 823 H 78.2544 3.46457 1.40868 0
M  V30 824 H 80.5464 5.70687 3.65133 0
M  V30 825 H 81.4894 6.64394 2.4492 0
M  V30 826 H 81.8974 4.9289 2.75172 0
M  V30 827 N 81.2955 -0.223234 1.56011 0
M  V30 828 C 82.7115 -0.572856 1.48965 0
M  V30 829 C 82.9115 -1.87225 0.74492 0
M  V30 830 O 81.9675 -2.50899 0.283896 0
M  V30 831 C 83.2805 -0.653646 2.9351 0
M  V30 832 C 84.8285 -0.744386 3.0402 0
M  V30 833 C 85.3035 -0.856535 4.49919 0
M  V30 834 N 86.7945 -0.9208 4.53955 0
M  V30 835 C 87.5295 -1.02726 5.64123 0
M  V30 836 N 87.0255 -1.09777 6.84047 0
M  V30 837 N 88.8185 -1.06226 5.51971 0
M  V30 838 H 80.9695 0.629462 2.02858 0
M  V30 839 H 83.2325 0.220621 0.921971 0
M  V30 840 H 82.9385 0.231518 3.50937 0
M  V30 841 H 82.8125 -1.51781 3.45315 0
M  V30 842 H 85.1995 -1.61999 2.46658 0
M  V30 843 H 85.2805 0.14541 2.55386 0
M  V30 844 H 84.9245 0.0146069 5.07898 0
M  V30 845 H 84.8545 -1.76172 4.96257 0
M  V30 846 H 87.3455 -0.876694 3.6759 0
M  V30 847 H 87.6585 -1.17872 7.63758 0
M  V30 848 H 86.0035 -1.06693 6.86762 0
M  V30 849 H 89.1945 -1.00382 4.5721 0
M  V30 850 H 89.3675 -1.14177 6.37862 0
M  V30 851 N 82.7736 -1.49793 -0.48987 0
M  V30 852 C 83.6836 -1.70036 -1.61632 0
M  V30 853 C 84.6996 -0.583102 -1.63939 0
M  V30 854 O 85.8756 -0.859169 -1.82154 0
M  V30 855 C 82.9406 -1.77277 -2.97949 0
M  V30 856 C 82.0016 -3.00918 -3.06181 0
M  V30 857 C 81.2346 -3.07804 -4.35996 0
M  V30 858 O 81.4576 -2.21982 -5.25433 0
M  V30 859 O 80.3916 -4.00369 -4.49431 0
M  V30 860 H 84.2176 -2.65486 -1.47482 0
M  V30 861 H 81.8026 -1.33666 -0.667362 0
M  V30 862 H 83.6846 -1.84329 -3.78947 0
M  V30 863 H 82.3596 -0.850076 -3.12339 0
M  V30 864 H 81.2666 -2.99377 -2.2433 0
M  V30 865 H 82.5996 -3.92704 -2.96723 0
M  V30 866 N 84.2517 0.741722 -1.39055 0
M  V30 867 C 85.2147 1.83733 -1.37021 0
M  V30 868 C 86.2147 1.58542 -0.268534 0
M  V30 869 O 87.4047 1.66067 -0.526076 0
M  V30 870 C 84.5367 3.2141 -1.13617 0
M  V30 871 H 85.7297 1.86941 -2.34506 0
M  V30 872 H 83.2827 0.944676 -1.24521 0
M  V30 873 H 84.0177 3.23865 -0.167863 0
M  V30 874 H 83.8027 3.4109 -1.93391 0
M  V30 875 H 85.2927 4.01477 -1.14918 0
M  V30 876 N 85.7298 1.2412 0.971189 0
M  V30 877 C 86.9778 1.07668 1.71032 0
M  V30 878 C 87.2988 -0.385797 1.91146 0
M  V30 879 O 86.5688 -1.27569 1.4867 0
M  V30 880 H 85.1488 0.395429 0.633755 0
M  V30 881 H 87.8108 1.55984 1.16855 0
M  V30 882 H 86.9068 1.57195 2.69622 0
M  V30 883 N 87.2079 -1.17134 1.05439 0
M  V30 884 C 88.1709 -2.19439 0.661764 0
M  V30 885 C 89.1709 -1.58199 -0.288042 0
M  V30 886 O 90.3609 -1.74053 -0.0715803 0
M  V30 887 C 87.4929 -3.40889 -0.0276209 0
M  V30 888 H 88.6859 -2.55688 1.56728 0
M  V30 889 H 86.2389 -1.31259 0.848567 0
M  V30 890 H 86.9739 -3.10187 -0.94629 0
M  V30 891 H 86.7589 -3.86586 0.655238 0
M  V30 892 H 88.2489 -4.16603 -0.288342 0
M  V30 893 N 88.686 -0.835752 -1.33615 0
M  V30 894 C 89.618 -0.224151 -2.28101 0
M  V30 895 C 90.631 0.593331 -1.51603 0
M  V30 896 O 91.82 0.420911 -1.73466 0
M  V30 897 C 88.92 0.703309 -3.31522 0
M  V30 898 C 88.093 -0.0741528 -4.37337 0
M  V30 899 C 87.152 0.776176 -5.20444 0
M  V30 900 O 86.178 0.216506 -5.68788 0
M  V30 901 N 87.38 2.09401 -5.41416 0
M  V30 902 H 90.145 -1.03598 -2.81225 0
M  V30 903 H 87.706 -0.69392 -1.46275 0
M  V30 904 H 89.698 1.27707 -3.84022 0
M  V30 905 H 88.268 1.41585 -2.78698 0
M  V30 906 H 87.488 -0.82928 -3.85378 0
M  V30 907 H 88.776 -0.608863 -5.05144 0
M  V30 908 H 88.174 2.57229 -5.03835 0
M  V30 909 H 86.731 2.61633 -5.96985 0
M  V30 910 N 90.1641 1.46063 -0.591896 0
M  V30 911 C 91.0941 2.33172 0.123673 0
M  V30 912 C 92.0751 1.45897 0.87453 0
M  V30 913 O 93.2601 1.74698 0.848181 0
M  V30 914 C 90.3901 3.28336 1.13194 0
M  V30 915 C 89.3441 4.25124 0.495324 0
M  V30 916 C 88.6701 5.09863 1.61071 0
M  V30 917 C 89.9701 5.19143 -0.573425 0
M  V30 918 H 91.6641 2.93252 -0.603646 0
M  V30 919 H 89.2101 1.41014 -0.291741 0
M  V30 920 H 91.1631 3.88137 1.64097 0
M  V30 921 H 89.8871 2.66383 1.88965 0
M  V30 922 H 88.5461 3.66599 0.00729452 0
M  V30 923 H 88.1941 4.44288 2.35832 0
M  V30 924 H 87.8941 5.75417 1.19035 0
M  V30 925 H 89.4181 5.72529 2.12233 0
M  V30 926 H 90.8321 5.73106 -0.1491 0
M  V30 927 H 89.2291 5.93089 -0.914636 0
M  V30 928 H 90.2991 4.62519 -1.45617 0
M  V30 929 N 91.6422 0.330177 1.54103 0
M  V30 930 C 92.5892 -0.532762 2.24567 0
M  V30 931 C 93.5592 -1.10635 1.23892 0
M  V30 932 O 94.7442 -1.14546 1.5259 0
M  V30 933 C 91.8842 -1.6845 3.01195 0
M  V30 934 C 90.9972 -1.13951 4.167 0
M  V30 935 C 90.1322 -2.25746 4.80845 0
M  V30 936 C 89.1712 -1.6853 5.88442 0
M  V30 937 N 88.3082 -2.74014 6.46421 0
M  V30 938 H 93.1482 0.0746905 2.97906 0
M  V30 939 H 90.6852 0.048632 1.4702 0
M  V30 940 H 92.6432 -2.36234 3.43874 0
M  V30 941 H 91.2732 -2.26314 2.30178 0
M  V30 942 H 90.3252 -0.35301 3.78758 0
M  V30 943 H 91.6372 -0.680892 4.94131 0
M  V30 944 H 90.7912 -3.01422 5.26526 0
M  V30 945 H 89.5302 -2.74947 4.0281 0
M  V30 946 H 88.5352 -0.913543 5.42157 0
M  V30 947 H 89.7602 -1.20198 6.68378 0
M  V30 948 H 87.7062 -3.22494 5.71256 0
M  V30 949 H 87.6232 -2.32735 7.19285 0
M  V30 950 H 88.8912 -3.49499 6.96757 0
M  V30 951 N 93.1203 -1.57491 0.0584922 0
M  V30 952 C 94.0673 -2.11958 -0.913376 0
M  V30 953 C 95.0373 -1.02875 -1.30407 0
M  V30 954 O 96.2223 -1.30464 -1.39226 0
M  V30 955 C 93.3623 -2.67497 -2.18035 0
M  V30 956 C 92.4753 -3.90691 -1.84349 0
M  V30 957 C 91.6103 -4.3452 -3.05559 0
M  V30 958 C 90.6493 -5.50395 -2.67827 0
M  V30 959 N 89.7863 -5.89244 -3.81754 0
M  V30 960 H 94.6263 -2.94704 -0.442017 0
M  V30 961 H 92.1633 -1.45643 -0.206545 0
M  V30 962 H 94.1213 -2.978 -2.92183 0
M  V30 963 H 92.7513 -1.87537 -2.62735 0
M  V30 964 H 91.8033 -3.66934 -1.00319 0
M  V30 965 H 93.1153 -4.7489 -1.5258 0
M  V30 966 H 92.2693 -4.66414 -3.87998 0
M  V30 967 H 91.0083 -3.49147 -3.40511 0
M  V30 968 H 90.0133 -5.18165 -1.83806 0
M  V30 969 H 91.2383 -6.3749 -2.34059 0
M  V30 970 H 89.1843 -5.06823 -4.16493 0
M  V30 971 H 89.1013 -6.68151 -3.53708 0
M  V30 972 H 90.3693 -6.25756 -4.64811 0
M  V30 973 N 94.5984 0.214957 -1.56127 0
M  V30 974 C 95.5284 1.2695 -1.95974 0
M  V30 975 C 96.5094 1.48539 -0.828868 0
M  V30 976 O 97.6944 1.60611 -1.09168 0
M  V30 977 C 94.8244 2.61794 -2.28214 0
M  V30 978 C 93.7784 2.54851 -3.43853 0
M  V30 979 C 93.1044 3.93785 -3.61715 0
M  V30 980 C 94.4044 2.09065 -4.78632 0
M  V30 981 H 96.0984 0.93846 -2.84312 0
M  V30 982 H 93.6444 0.449996 -1.36788 0
M  V30 983 H 95.5974 3.35731 -2.54682 0
M  V30 984 H 94.3214 2.96599 -1.36736 0
M  V30 985 H 92.9804 1.8337 -3.17444 0
M  V30 986 H 92.6284 4.25908 -2.67602 0
M  V30 987 H 92.3284 3.90019 -4.39498 0
M  V30 988 H 93.8524 4.69374 -3.90539 0
M  V30 989 H 95.2664 2.7275 -5.04262 0
M  V30 990 H 93.6634 2.16346 -5.59745 0
M  V30 991 H 94.7334 1.04315 -4.73547 0
M  V30 992 N 96.0765 1.50051 0.48192 0
M  V30 993 C 97.3225 1.60736 1.2366 0
M  V30 994 C 97.6555 0.301786 1.91841 0
M  V30 995 O 96.9305 -0.696025 1.8162 0
M  V30 996 C 97.2135 2.78009 2.28874 0
M  V30 997 C 97.0665 4.18416 1.65069 0
M  V30 998 C 98.3855 2.90867 3.30279 0
M  V30 999 H 95.5045 0.585031 0.448228 0
M  V30 1000 H 98.1465 1.82402 0.531946 0
M  V30 1001 H 96.2965 2.59667 2.88973 0
M  V30 1002 H 97.9685 4.48322 1.0865 0
M  V30 1003 H 96.2115 4.23177 0.954148 0
M  V30 1004 H 96.8825 4.96381 2.41474 0
M  V30 1005 H 99.3585 3.07623 2.80191 0
M  V30 1006 H 98.2345 3.74566 4.01238 0
M  V30 1007 H 98.4955 2.01021 3.93755 0
M  V30 1008 N 97.5546 -0.734337 1.39446 0
M  V30 1009 C 98.8316 -1.48579 1.27215 0
M  V30 1010 C 99.2116 -2.1077 -0.117968 0
M  V30 1011 O 98.5596 -1.98646 -1.12924 0
M  V30 1012 C 98.7696 -2.53667 2.39696 0
M  V30 1013 C 100.118 -3.20031 2.79044 0
M  V30 1014 O 101.142 -2.6398 2.39151 0
M  V30 1015 O 100.001 -4.21455 3.47905 0
M  V30 1016 H 97.0946 -0.659816 0.49857 0
M  V30 1017 H 99.6406 -0.768106 1.51322 0
M  V30 1018 H 98.4126 -2.06096 3.32626 0
M  V30 1019 H 98.0356 -3.32994 2.17258 0
M  V30 1020 N 99.0327 -1.24633 -0.964593 0
M  V30 1021 C 100.261 -1.11501 -1.74285 0
M  V30 1022 C 100.676 0.332165 -1.85855 0
M  V30 1023 O 100.033 1.22903 -1.34911 0
M  V30 1024 C 100.084 -1.75258 -3.16175 0
M  V30 1025 O 99.8047 -3.14318 -3.05182 0
M  V30 1026 C 101.306 -1.67776 -4.10324 0
M  V30 1027 H 98.5257 -0.389407 -0.546446 0
M  V30 1028 H 101.07 -1.64801 -1.21083 0
M  V30 1029 H 99.2247 -1.25954 -3.66353 0
M  V30 1030 H 99.6387 -3.4551 -3.94618 0
M  V30 1031 H 101.113 -2.17064 -5.0753 0
M  V30 1032 H 101.59 -0.639584 -4.34518 0
M  V30 1033 H 102.196 -2.16522 -3.66058 0
M  V30 1034 N 100.511 1.16574 -1.06058 0
M  V30 1035 C 101.441 2.23057 -0.690488 0
M  V30 1036 C 102.422 1.67141 0.315901 0
M  V30 1037 O 103.607 1.93253 0.191556 0
M  V30 1038 C 100.737 3.47222 -0.073625 0
M  V30 1039 C 99.6908 4.16016 -1.00573 0
M  V30 1040 C 99.0168 5.34104 -0.252289 0
M  V30 1041 C 100.317 4.67264 -2.33371 0
M  V30 1042 H 102.011 2.54271 -1.58072 0
M  V30 1043 H 99.5568 1.22218 -0.76149 0
M  V30 1044 H 101.51 4.20939 0.19714 0
M  V30 1045 H 100.234 3.15302 0.85161 0
M  V30 1046 H 98.8928 3.44223 -1.2612 0
M  V30 1047 H 98.5408 4.98437 0.675988 0
M  V30 1048 H 98.2408 5.81072 -0.873455 0
M  V30 1049 H 99.7648 6.10599 0.0109857 0
M  V30 1050 H 101.179 5.32573 -2.12223 0
M  V30 1051 H 99.5758 5.24843 -2.90963 0
M  V30 1052 H 100.646 3.83602 -2.96611 0
M  V30 1053 N 101.989 0.842826 1.3317 0
M  V30 1054 C 103.4 0.496651 1.79973 0
M  V30 1055 C 103.751 -0.984641 1.69703 0
M  V30 1056 O 102.876 -1.76743 1.24863 0
M  V30 1057 C 103.471 0.894727 3.26772 0
M  V30 1058 C 102.03 0.600629 3.71577 0
M  V30 1059 C 101.177 1.10091 2.5451 0
M  V30 1060 H 104.128 1.03116 1.20635 0
M  V30 1061 H 104.149 0.206347 3.7994 0
M  V30 1062 H 103.661 1.97287 3.34215 0
M  V30 1063 H 101.762 -0.467284 3.69658 0
M  V30 1064 H 101.875 1.15863 4.64879 0
M  V30 1065 H 100.239 0.52162 2.49301 0
M  V30 1066 H 101.022 2.18591 2.64713 0
M  V30 1067 N 103.467 -1.45747 0.599634 0
M  V30 1068 C 104.399 -2.28628 -0.161879 0
M  V30 1069 C 105.412 -1.39494 -0.839367 0
M  V30 1070 O 106.601 -1.63941 -0.706089 0
M  V30 1071 C 103.701 -3.15014 -1.24976 0
M  V30 1072 C 102.874 -4.32378 -0.660935 0
M  V30 1073 C 101.933 -5.00033 -1.63869 0
M  V30 1074 O 100.959 -5.57085 -1.1681 0
M  V30 1075 N 102.161 -4.98589 -2.97303 0
M  V30 1076 H 104.926 -2.94624 0.549265 0
M  V30 1077 H 102.487 -1.55847 0.438565 0
M  V30 1078 H 104.479 -3.5714 -1.9035 0
M  V30 1079 H 103.049 -2.5098 -1.86354 0
M  V30 1080 H 102.269 -3.9383 0.170688 0
M  V30 1081 H 103.557 -5.08197 -0.247619 0
M  V30 1082 H 102.955 -4.53514 -3.38145 0
M  V30 1083 H 101.512 -5.44603 -3.58121 0
M  V30 1084 N 104.945 -0.338344 -1.53925 0
M  V30 1085 C 105.892 0.520845 -2.24846 0
M  V30 1086 C 106.862 1.09976 -1.24477 0
M  V30 1087 O 108.047 1.13735 -1.53196 0
M  V30 1088 C 105.187 1.6685 -3.02084 0
M  V30 1089 C 104.3 1.11739 -4.17299 0
M  V30 1090 C 103.435 2.23193 -4.82036 0
M  V30 1091 C 102.474 1.65407 -5.89328 0
M  V30 1092 N 101.611 2.70582 -6.47866 0
M  V30 1093 H 106.451 -0.0904881 -2.97863 0
M  V30 1094 H 103.988 -0.0564282 -1.46992 0
M  V30 1095 H 105.946 2.34407 -3.45122 0
M  V30 1096 H 104.576 2.2509 -2.31375 0
M  V30 1097 H 103.628 0.332919 -3.7894 0
M  V30 1098 H 104.94 0.654677 -4.94485 0
M  V30 1099 H 104.094 2.98626 -5.28117 0
M  V30 1100 H 102.833 2.72807 -4.04262 0
M  V30 1101 H 101.838 0.884779 -5.42634 0
M  V30 1102 H 103.063 1.16652 -6.69006 0
M  V30 1103 H 101.009 3.1946 -5.72959 0
M  V30 1104 H 100.926 2.28917 -7.20509 0
M  V30 1105 H 102.194 3.45799 -6.98601 0
M  V30 1106 N 106.423 1.57458 -0.0668435 0
M  V30 1107 C 107.834 1.80776 0.466558 0
M  V30 1108 C 108.185 0.980361 1.69951 0
M  V30 1109 O 107.31 0.201441 2.1546 0
M  V30 1110 C 107.905 3.27881 0.85321 0
M  V30 1111 C 106.464 3.52062 1.3315 0
M  V30 1112 C 105.611 2.75513 0.314264 0
M  V30 1113 H 108.562 1.5598 -0.292588 0
M  V30 1114 H 108.583 3.39659 1.715 0
M  V30 1115 H 108.095 3.88075 -0.0443439 0
M  V30 1116 H 106.196 2.97167 2.24772 0
M  V30 1117 H 106.309 4.60762 1.31285 0
M  V30 1118 H 104.673 2.42123 0.790492 0
M  V30 1119 H 105.456 3.38442 -0.575477 0
M  V30 1120 N 107.901 -0.206675 1.56239 0
M  V30 1121 C 109.317 -0.557025 1.49564 0
M  V30 1122 C 109.517 -1.86424 0.764735 0
M  V30 1123 O 108.573 -2.50584 0.310491 0
M  V30 1124 C 109.886 -0.622478 2.94186 0
M  V30 1125 C 111.434 -0.712099 3.04792 0
M  V30 1126 C 111.909 -0.808767 4.50803 0
M  V30 1127 N 113.4 -0.8726 4.54907 0
M  V30 1128 C 114.135 -0.967365 5.65181 0
M  V30 1129 N 113.631 -1.02515 6.85173 0
M  V30 1130 N 115.424 -1.00366 5.53067 0
M  V30 1131 H 107.575 0.650943 2.02179 0
M  V30 1132 H 109.838 0.230387 0.919579 0
M  V30 1133 H 109.544 0.268727 3.50672 0
M  V30 1134 H 109.418 -1.4811 3.46905 0
M  V30 1135 H 111.805 -1.59374 2.48363 0
M  V30 1136 H 111.886 0.172489 2.55218 0
M  V30 1137 H 111.53 0.0684754 5.07854 0
M  V30 1138 H 111.46 -1.70899 4.98098 0
M  V30 1139 H 113.951 -0.837657 3.68499 0
M  V30 1140 H 114.264 -1.09765 7.64965 0
M  V30 1141 H 112.609 -0.994026 6.87855 0
M  V30 1142 H 115.8 -0.95527 4.58249 0
M  V30 1143 H 115.973 -1.07405 6.39037 0
M  V30 1144 N 109.379 -1.50304 -0.473955 0
M  V30 1145 C 110.289 -1.7174 -1.5982 0
M  V30 1146 C 111.305 -0.600457 -1.63311 0
M  V30 1147 O 112.481 -0.878441 -1.81233 0
M  V30 1148 C 109.546 -1.80427 -2.96052 0
M  V30 1149 C 108.607 -3.04148 -3.02972 0
M  V30 1150 C 107.84 -3.12411 -4.32706 0
M  V30 1151 O 108.063 -2.27542 -5.23049 0
M  V30 1152 O 106.997 -4.05113 -4.45159 0
M  V30 1153 H 110.823 -2.67035 -1.44657 0
M  V30 1154 H 108.408 -1.34366 -0.653148 0
M  V30 1155 H 110.29 -1.88338 -3.7697 0
M  V30 1156 H 108.965 -0.883156 -3.11419 0
M  V30 1157 H 107.872 -3.0174 -2.21142 0
M  V30 1158 H 109.205 -3.95829 -2.92541 0
M  V30 1159 N 110.857 0.726932 -1.39834 0
M  V30 1160 C 112.082 1.52121 -1.40976 0
M  V30 1161 C 112.507 1.88098 -0.00826029 0
M  V30 1162 O 111.865 1.52479 0.980807 0
M  V30 1163 C 111.913 2.78021 -2.29644 0
M  V30 1164 O 111.017 3.74272 -1.73188 0
M  V30 1165 H 110.358 0.45908 -0.479731 0
M  V30 1166 H 112.888 0.896207 -1.83927 0
M  V30 1167 H 112.898 3.26671 -2.44438 0
M  V30 1168 H 111.573 2.51169 -3.31492 0
M  V30 1169 H 110.15 3.33073 -1.6768 0
M  V30 1170 N 112.336 1.25143 0.95797 0
M  V30 1171 C 113.585 1.0909 1.69654 0
M  V30 1172 C 113.898 -0.368548 1.92097 0
M  V30 1173 O 115.104 -0.649455 2.63618 0
M  V30 1174 C 113.56 1.90395 3.05414 0
M  V30 1175 C 113.168 3.4081 2.90779 0
M  V30 1176 C 114.912 1.82901 3.83076 0
M  V30 1177 C 112.819 4.14423 4.21909 0
M  V30 1178 H 111.749 0.404625 0.636235 0
M  V30 1179 H 114.4 1.4931 1.06672 0
M  V30 1180 H 112.782 1.42996 3.69281 0
M  V30 1181 H 113.956 3.95859 2.35865 0
M  V30 1182 H 112.271 3.49361 2.26575 0
M  V30 1183 H 114.868 2.35196 4.80195 0
M  V30 1184 H 115.211 0.796224 4.08615 0
M  V30 1185 H 115.744 2.28033 3.25954 0
M  V30 1186 H 112.483 5.18102 4.01561 0
M  V30 1187 H 112.003 3.64159 4.76601 0
M  V30 1188 H 113.682 4.21956 4.90471 0
M  V30 1189 N 113.814 -1.1601 1.06675 0
M  V30 1190 C 115.063 -1.85973 0.780818 0
M  V30 1191 C 115.376 -1.82819 -0.695444 0
M  V30 1192 O 116.582 -2.484 -1.09589 0
M  V30 1193 C 115.038 -3.33757 1.34665 0
M  V30 1194 C 114.646 -3.45374 2.85343 0
M  V30 1195 C 116.39 -4.0895 1.13843 0
M  V30 1196 C 114.297 -4.87266 3.35151 0
M  V30 1197 H 113.227 -0.696661 0.288407 0
M  V30 1198 H 115.878 -1.30903 1.28595 0
M  V30 1199 H 114.26 -3.88456 0.769274 0
M  V30 1200 H 115.434 -3.00816 3.49065 0
M  V30 1201 H 113.749 -2.83619 3.04876 0
M  V30 1202 H 116.346 -5.13654 1.4854 0
M  V30 1203 H 116.689 -4.16229 0.0770282 0
M  V30 1204 H 117.222 -3.605 1.68179 0
M  V30 1205 H 113.961 -4.85168 4.40786 0
M  V30 1206 H 113.481 -5.32433 2.76179 0
M  V30 1207 H 115.16 -5.56097 3.30704 0
M  V30 1208 N 115.292 -0.849877 -1.32721 0
M  V30 1209 C 116.239 -0.289033 -2.28983 0
M  V30 1210 C 117.209 0.601324 -1.54833 0
M  V30 1211 O 118.394 0.537253 -1.8308 0
M  V30 1212 C 115.534 0.520623 -3.4115 0
M  V30 1213 C 114.647 -0.394989 -4.3019 0
M  V30 1214 C 113.782 0.426834 -5.29482 0
M  V30 1215 C 112.821 -0.486476 -6.10164 0
M  V30 1216 N 111.958 0.297879 -7.01468 0
M  V30 1217 H 116.798 -1.11519 -2.76347 0
M  V30 1218 H 114.335 -0.56138 -1.35967 0
M  V30 1219 H 116.293 1.00563 -4.04899 0
M  V30 1220 H 114.923 1.31165 -2.9495 0
M  V30 1221 H 113.975 -0.99836 -3.67065 0
M  V30 1222 H 115.287 -1.09612 -4.86607 0
M  V30 1223 H 114.441 0.975205 -5.98811 0
M  V30 1224 H 113.18 1.16136 -4.73671 0
M  V30 1225 H 112.185 -1.04677 -5.39743 0
M  V30 1226 H 113.41 -1.21953 -6.6806 0
M  V30 1227 H 111.356 1.01558 -6.48091 0
M  V30 1228 H 111.273 -0.344318 -7.55216 0
M  V30 1229 H 112.541 0.828131 -7.75089 0
M  V30 1230 N 116.77 1.45427 -0.607355 0
M  V30 1231 C 117.7 2.3329 0.0989352 0
M  V30 1232 C 118.681 1.46816 0.859007 0
M  V30 1233 O 119.866 1.75588 0.829604 0
M  V30 1234 C 116.996 3.29518 1.09705 0
M  V30 1235 C 115.95 4.25626 0.450206 0
M  V30 1236 C 115.276 5.11542 1.55655 0
M  V30 1237 C 116.576 5.18505 -0.628455 0
M  V30 1238 H 118.27 2.92595 -0.634716 0
M  V30 1239 H 115.816 1.40696 -0.306681 0
M  V30 1240 H 117.769 3.89855 1.59971 0
M  V30 1241 H 116.493 2.68372 1.86129 0
M  V30 1242 H 115.152 3.66586 -0.0315886 0
M  V30 1243 H 114.8 4.46765 2.31107 0
M  V30 1244 H 114.5 5.76647 1.12925 0
M  V30 1245 H 116.024 5.74748 2.06148 0
M  V30 1246 H 117.438 5.72916 -0.209877 0
M  V30 1247 H 115.835 5.92085 -0.977489 0
M  V30 1248 H 116.905 4.60948 -1.50514 0
M  V30 1249 N 118.248 0.346503 1.53744 0
M  V30 1250 C 119.181 -0.552023 2.21423 0
M  V30 1251 C 120.159 -1.09798 1.19929 0
M  V30 1252 O 121.343 -1.1577 1.4876 0
M  V30 1253 C 118.47 -1.75972 2.89398 0
M  V30 1254 C 117.516 -1.34295 4.04805 0
M  V30 1255 S 118.349 -0.360263 5.34287 0
M  V30 1256 C 119.505 -1.57473 6.05767 0
M  V30 1257 H 119.738 0.0228119 2.97291 0
M  V30 1258 H 117.271 0.130579 1.53847 0
M  V30 1259 H 119.229 -2.45256 3.2918 0
M  V30 1260 H 117.89 -2.30578 2.1329 0
M  V30 1261 H 117.083 -2.24349 4.51313 0
M  V30 1262 H 116.685 -0.729555 3.66815 0
M  V30 1263 H 118.977 -2.50875 6.29339 0
M  V30 1264 H 119.92 -1.15138 6.98676 0
M  V30 1265 H 120.328 -1.77212 5.35963 0
M  V30 1266 N 119.726 -1.57421 0.075193 0
M  V30 1267 C 120.636 -2.1642 -0.905511 0
M  V30 1268 C 121.652 -1.12828 -1.32461 0
M  V30 1269 O 122.828 -1.45109 -1.39661 0
M  V30 1270 C 119.893 -2.71693 -2.15369 0
M  V30 1271 C 118.954 -3.90171 -1.79068 0
M  V30 1272 C 118.187 -4.42798 -2.97936 0
M  V30 1273 O 118.41 -3.94416 -4.12058 0
M  V30 1274 O 117.344 -5.34085 -2.77555 0
M  V30 1275 H 121.17 -3.00588 -0.433626 0
M  V30 1276 H 118.755 -1.48664 -0.148067 0
M  V30 1277 H 120.637 -3.07104 -2.88557 0
M  V30 1278 H 119.312 -1.90582 -2.61649 0
M  V30 1279 H 118.219 -3.59606 -1.03122 0
M  V30 1280 H 119.552 -4.72584 -1.37569 0
M  V30 1281 N 121.204 0.198386 -1.56346 0
M  V30 1282 C 122.151 1.24589 -1.94284 0
M  V30 1283 C 123.121 1.454 -0.802997 0
M  V30 1284 O 124.306 1.58588 -1.06087 0
M  V30 1285 C 121.446 2.58631 -2.28482 0
M  V30 1286 C 120.559 2.45426 -3.55514 0
M  V30 1287 C 119.694 3.7215 -3.79049 0
M  V30 1288 C 118.733 3.53763 -4.99518 0
M  V30 1289 N 117.87 4.72491 -5.19323 0
M  V30 1290 H 122.71 0.915356 -2.83593 0
M  V30 1291 H 120.247 0.440629 -1.40346 0
M  V30 1292 H 122.205 3.3672 -2.46324 0
M  V30 1293 H 120.835 2.89734 -1.42317 0
M  V30 1294 H 119.887 1.58652 -3.45737 0
M  V30 1295 H 121.199 2.27772 -4.43758 0
M  V30 1296 H 120.353 4.58679 -3.97113 0
M  V30 1297 H 119.092 3.92754 -2.89129 0
M  V30 1298 H 118.097 2.65619 -4.8138 0
M  V30 1299 H 119.322 3.34607 -5.90944 0
M  V30 1300 H 117.268 4.93365 -4.3235 0
M  V30 1301 H 117.185 4.5765 -6.01741 0
M  V30 1302 H 118.453 5.6038 -5.41843 0
M  V30 1303 N 122.682 1.50554 0.465978 0
M  V30 1304 C 123.931 1.61038 1.21448 0
M  V30 1305 C 124.244 0.31865 1.92987 0
M  V30 1306 O 125.45 0.302469 2.6981 0
M  V30 1307 C 123.906 2.84283 2.20706 0
M  V30 1308 C 123.514 4.20352 1.54946 0
M  V30 1309 C 125.258 3.04115 2.96166 0
M  V30 1310 C 123.165 5.34778 2.5252 0
M  V30 1311 H 122.095 0.599718 0.457005 0
M  V30 1312 H 124.746 1.7699 0.484424 0
M  V30 1313 H 123.128 2.61901 2.97025 0
M  V30 1314 H 124.302 4.53008 0.843811 0
M  V30 1315 H 122.617 4.06167 0.917475 0
M  V30 1316 H 125.214 3.86774 3.69202 0
M  V30 1317 H 125.557 2.16045 3.55852 0
M  V30 1318 H 126.09 3.26702 2.26959 0
M  V30 1319 H 122.829 6.25018 1.97566 0
M  V30 1320 H 122.349 5.06534 3.21222 0
M  V30 1321 H 124.028 5.65561 3.14245 0
M  V30 1322 N 124.16 -0.719506 1.40217 0
M  V30 1323 C 125.123 -1.8153 1.39927 0
M  V30 1324 C 126.123 -1.58095 0.293723 0
M  V30 1325 O 127.313 -1.65209 0.552429 0
M  V30 1326 C 124.445 -3.19561 1.18716 0
M  V30 1327 H 125.638 -1.83186 2.37451 0
M  V30 1328 H 123.191 -0.924746 1.26008 0
M  V30 1329 H 123.926 -3.23557 0.219366 0
M  V30 1330 H 123.711 -3.3797 1.98793 0
M  V30 1331 H 125.201 -3.99598 1.21291 0
M  V30 1332 N 125.638 -1.25649 -0.95132 0
M  V30 1333 C 126.57 -1.02112 -2.05197 0
M  V30 1334 C 127.583 0.0150571 -1.62793 0
M  V30 1335 O 128.772 -0.223874 -1.77091 0
M  V30 1336 C 125.872 -0.522361 -3.3485 0
M  V30 1337 C 125.045 -1.62546 -4.06076 0
M  V30 1338 C 124.104 -1.12649 -5.14001 0
M  V30 1339 O 123.13 -1.82156 -5.39266 0
M  V30 1340 N 124.332 0.03047 -5.80492 0
M  V30 1341 H 127.097 -1.96885 -2.25957 0
M  V30 1342 H 124.658 -1.16899 -1.1201 0
M  V30 1343 H 126.65 -0.172961 -4.0433 0
M  V30 1344 H 125.22 0.33151 -3.10837 0
M  V30 1345 H 124.44 -2.14628 -3.30649 0
M  V30 1346 H 125.728 -2.36644 -4.50419 0
M  V30 1347 H 125.126 0.611169 -5.62389 0
M  V30 1348 H 123.683 0.320875 -6.5101 0
M  V30 1349 N 127.117 1.15442 -1.07289 0
M  V30 1350 C 128.342 1.90638 -0.816828 0
M  V30 1351 C 128.767 1.77445 0.624083 0
M  V30 1352 O 128.125 1.10671 1.43602 0
M  V30 1353 C 128.173 3.39008 -1.22906 0
M  V30 1354 O 127.277 4.10701 -0.373975 0
M  V30 1355 H 126.618 0.593555 -0.297638 0
M  V30 1356 H 129.148 1.46198 -1.43134 0
M  V30 1357 H 129.158 3.89801 -1.20497 0
M  V30 1358 H 127.833 3.47929 -2.27856 0
M  V30 1359 H 126.41 3.70046 -0.460499 0
M  V30 1360 N 128.595 0.856903 1.32268 0
M  V30 1361 C 129.82 0.474569 2.01897 0
M  V30 1362 C 130.245 -0.921766 1.63967 0
M  V30 1363 O 129.603 -1.60589 0.84148 0
M  V30 1364 C 129.651 0.623799 3.55164 0
M  V30 1365 O 128.755 -0.342459 4.10976 0
M  V30 1366 H 128.096 0.190422 0.63611 0
M  V30 1367 H 130.626 1.15672 1.68764 0
M  V30 1368 H 130.636 0.512169 4.04773 0
M  V30 1369 H 129.311 1.64202 3.82113 0
M  V30 1370 H 127.888 -0.18688 3.72431 0
M  V30 1371 N 130.073 -1.45103 0.615059 0
M  V30 1372 C 131.003 -2.33339 -0.0865619 0
M  V30 1373 C 131.984 -1.4727 -0.851209 0
M  V30 1374 O 133.169 -1.76026 -0.820281 0
M  V30 1375 C 130.299 -3.30095 -1.07956 0
M  V30 1376 C 129.253 -4.25858 -0.427628 0
M  V30 1377 C 128.579 -5.12361 -1.5294 0
M  V30 1378 C 129.879 -5.18165 0.655944 0
M  V30 1379 H 131.573 -2.92254 0.650224 0
M  V30 1380 H 129.119 -1.40532 0.314138 0
M  V30 1381 H 131.072 -3.90698 -1.57901 0
M  V30 1382 H 129.796 -2.69355 -1.84703 0
M  V30 1383 H 128.455 -3.66564 0.0510292 0
M  V30 1384 H 128.103 -4.47984 -2.28734 0
M  V30 1385 H 127.803 -5.77238 -1.09865 0
M  V30 1386 H 129.327 -5.75833 -2.03098 0
M  V30 1387 H 130.741 -5.72796 0.240257 0
M  V30 1388 H 129.138 -5.91559 1.00888 0
M  V30 1389 H 130.208 -4.60144 1.52957 0
M  V30 1390 N 131.551 -0.354651 -1.53558 0
M  V30 1391 C 132.791 0.238651 -2.03002 0
M  V30 1392 C 133.155 1.46878 -1.23656 0
M  V30 1393 O 134.356 2.13699 -1.63053 0
M  V30 1394 C 132.627 0.534175 -3.53386 0
M  V30 1395 S 134.186 1.10271 -4.24719 0
M  V30 1396 H 131.004 0.0702908 -0.707517 0
M  V30 1397 H 133.606 -0.494987 -1.8913 0
M  V30 1398 H 132.31 -0.368765 -4.0874 0
M  V30 1399 H 131.841 1.29718 -3.71398 0
M  V30 1400 H 133.856 2.38772 -4.34974 0
M  V30 1401 N 133.029 1.57378 -0.0835403 0
M  V30 1402 C 133.977 2.14602 0.89714 0
M  V30 1403 C 134.971 1.08589 1.30018 0
M  V30 1404 O 136.177 1.26952 1.27606 0
M  V30 1405 H 132.552 0.686346 0.3073 0
M  V30 1406 H 134.523 2.95845 0.38969 0
M  V30 1407 C 133.272 2.73188 2.15089 0
M  V30 1408 H 132.595 3.54442 1.84962 0
M  V30 1409 H 134.035 3.1681 2.81793 0
M  V30 1410 C 132.494 1.68517 2.91725 0
M  V30 1411 O 133.024 1.11718 3.85852 0
M  V30 1412 N 131.23 1.39277 2.55049 0
M  V30 1413 H 130.777 1.85655 1.78577 0
M  V30 1414 H 130.735 0.694791 3.06627 0
M  V30 1415 O 134.546 -0.0567894 1.614 0
M  V30 1416 H 135.237 -0.680852 1.8134 0
M  V30 END ATOM
M  V30 BEGIN BOND
M  V30 END BOND
M  V30 END CTAB
M  END
$$$$
