drugbank_target|P11741 Bacteriochlorophyll a protein (DB01853)
 OpenBabel12092119533D

  0  0  0     0  0            999 V3000
M  V30 BEGIN CTAB
M  V30 COUNTS 5631 5699 0 0 0
M  V30 BEGIN ATOM
M  V30 1 H -0.908 1.98254 -0.117106 0
M  V30 2 N 0 1.576 0 0
M  V30 3 C 0.963 2.07369 0.976253 0
M  V30 4 C 1.963 0.98309 1.27248 0
M  V30 5 O 3.153 1.24574 1.21766 0
M  V30 6 C 0.285 2.51514 2.30116 0
M  V30 7 H 1.478 2.94892 0.545759 0
M  V30 8 H -0.969 1.54328 0.247471 0
M  V30 9 H -0.234 1.67234 2.77855 0
M  V30 10 H -0.449 3.31163 2.09937 0
M  V30 11 H 1.041 2.90345 3.00149 0
M  V30 12 N 1.4781 -0.272755 1.55222 0
M  V30 13 C 2.4081 -1.34136 1.91127 0
M  V30 14 C 3.3891 -1.51513 0.773168 0
M  V30 15 O 4.5741 -1.64552 1.03132 0
M  V30 16 C 1.7041 -2.70083 2.1834 0
M  V30 17 C 0.6581 -2.67437 3.34158 0
M  V30 18 C -0.0159 -4.06938 3.46851 0
M  V30 19 C 1.2841 -2.26686 4.70543 0
M  V30 20 H 2.9781 -1.04333 2.80633 0
M  V30 21 H 0.5241 -0.500454 1.35024 0
M  V30 22 H 2.4771 -3.44952 2.42046 0
M  V30 23 H 1.2011 -3.01469 1.25634 0
M  V30 24 H -0.1399 -1.95026 3.1042 0
M  V30 25 H -0.4919 -4.35547 2.51611 0
M  V30 26 H -0.7919 -4.06062 4.2472 0
M  V30 27 H 0.7321 -4.83545 3.72849 0
M  V30 28 H 2.1461 -2.91277 4.93792 0
M  V30 29 H 0.5431 -2.36971 5.5133 0
M  V30 30 H 1.6131 -1.21818 4.69349 0
M  V30 31 N 2.9562 -1.48159 -0.537278 0
M  V30 32 C 4.2032 -1.55804 -1.29349 0
M  V30 33 C 4.5312 -0.228802 -1.9315 0
M  V30 34 O 3.7862 0.780242 -1.79473 0
M  V30 35 C 4.0852 -2.63956 -2.40961 0
M  V30 36 C 3.7512 -4.0662 -1.94861 0
M  V30 37 C 2.4132 -4.45452 -1.82006 0
M  V30 38 C 4.7652 -4.96055 -1.59933 0
M  V30 39 C 2.0932 -5.71531 -1.32547 0
M  V30 40 C 4.4452 -6.22617 -1.11939 0
M  V30 41 C 3.1092 -6.60312 -0.976951 0
M  V30 42 H 2.3792 -0.570129 -0.473322 0
M  V30 43 H 5.0262 -1.81845 -0.600372 0
M  V30 44 H 3.3312 -2.31747 -3.15912 0
M  V30 45 H 5.0282 -2.67089 -2.99107 0
M  V30 46 H 1.6182 -3.75949 -2.05815 0
M  V30 47 H 5.8022 -4.66738 -1.68728 0
M  V30 48 H 1.0582 -5.99468 -1.202 0
M  V30 49 H 5.2322 -6.91318 -0.839811 0
M  V30 50 H 2.8592 -7.57895 -0.591501 0
M  V30 51 N 4.4343 0.785586 -1.36625 0
M  V30 52 C 5.6823 1.54057 -1.30808 0
M  V30 53 C 6.0033 1.94683 0.111157 0
M  V30 54 O 5.2733 1.65241 1.05224 0
M  V30 55 H 3.8533 0.571354 -0.481211 0
M  V30 56 H 6.5153 0.935821 -1.70963 0
M  V30 57 H 5.6113 2.44637 -1.93801 0
M  V30 58 N 5.9124 1.20967 1.01018 0
M  V30 59 C 7.1404 1.04956 1.78303 0
M  V30 60 C 7.5554 -0.400915 1.84494 0
M  V30 61 O 6.9124 -1.27826 1.30257 0
M  V30 62 C 6.9634 1.63403 3.22462 0
M  V30 63 O 6.6844 3.02775 3.16637 0
M  V30 64 C 8.1854 1.52432 4.16268 0
M  V30 65 H 5.4054 0.368858 0.560522 0
M  V30 66 H 7.9494 1.60193 1.27116 0
M  V30 67 H 6.1044 1.1227 3.70775 0
M  V30 68 H 6.5184 3.30626 4.07169 0
M  V30 69 H 7.9924 1.98078 5.15237 0
M  V30 70 H 8.4694 0.477875 4.36592 0
M  V30 71 H 9.0754 2.02787 3.73841 0
M  V30 72 N 7.3905 -1.2043 1.01659 0
M  V30 73 C 8.3375 -2.23215 0.586822 0
M  V30 74 C 9.3075 -1.61382 -0.393085 0
M  V30 75 O 10.4925 -1.88544 -0.292525 0
M  V30 76 C 7.6325 -3.45032 -0.0687464 0
M  V30 77 C 6.7455 -4.21296 0.955724 0
M  V30 78 C 5.8805 -5.30507 0.271208 0
M  V30 79 C 4.9195 -5.98515 1.28244 0
M  V30 80 N 4.0565 -6.99316 0.62459 0
M  V30 81 H 8.8965 -2.59336 1.46796 0
M  V30 82 H 6.4335 -1.27431 0.734836 0
M  V30 83 H 8.3915 -4.1459 -0.465965 0
M  V30 84 H 7.0215 -3.09604 -0.913529 0
M  V30 85 H 6.0735 -3.50803 1.4711 0
M  V30 86 H 7.3855 -4.6803 1.72479 0
M  V30 87 H 6.5395 -6.06428 -0.18151 0
M  V30 88 H 5.2785 -4.8481 -0.530163 0
M  V30 89 H 4.2835 -5.21355 1.74554 0
M  V30 90 H 5.5085 -6.46298 2.08509 0
M  V30 91 H 3.4545 -6.55812 -0.156914 0
M  V30 92 H 3.3715 -7.44178 1.33172 0
M  V30 93 H 4.6395 -7.79255 0.195462 0
M  V30 94 N 8.8686 -0.792821 -1.36206 0
M  V30 95 C 10.1456 -0.290627 -1.93429 0
M  V30 96 C 10.5256 1.21773 -1.72437 0
M  V30 97 O 9.8736 2.0108 -1.08531 0
M  V30 98 C 10.0836 -0.686973 -3.42172 0
M  V30 99 C 11.4316 -0.668643 -4.19302 0
M  V30 100 O 12.4556 -0.627658 -3.50626 0
M  V30 101 O 11.3146 -0.714597 -5.41808 0
M  V30 102 H 8.4086 -0.0727927 -0.82379 0
M  V30 103 H 10.9546 -0.875593 -1.45367 0
M  V30 104 H 9.7266 -1.72711 -3.51122 0
M  V30 105 H 9.3496 -0.0760733 -3.97527 0
M  V30 106 N 10.3467 1.47872 -0.545128 0
M  V30 107 C 11.5747 2.06889 -0.021084 0
M  V30 108 C 11.9897 1.39955 1.2672 0
M  V30 109 O 11.3467 0.492036 1.75742 0
M  V30 110 C 11.3977 3.60996 0.190817 0
M  V30 111 O 11.1187 4.25419 -1.04644 0
M  V30 112 C 12.6197 4.36849 0.753521 0
M  V30 113 H 9.8397 0.669785 -0.0403635 0
M  V30 114 H 12.3837 1.90049 -0.755095 0
M  V30 115 H 10.5387 3.77391 0.87492 0
M  V30 116 H 10.9527 5.17785 -0.836611 0
M  V30 117 H 12.4267 5.45399 0.851139 0
M  V30 118 H 12.9037 4.02306 1.762 0
M  V30 119 H 13.5097 4.25169 0.105503 0
M  V30 120 N 11.8248 0.280983 1.55075 0
M  V30 121 C 13.0528 -0.337293 2.04132 0
M  V30 122 C 13.4678 -1.4903 1.15912 0
M  V30 123 O 12.8248 -1.81606 0.180459 0
M  V30 124 C 12.8758 -0.812706 3.52246 0
M  V30 125 O 12.5968 0.294387 4.3711 0
M  V30 126 C 14.0978 -1.4982 4.17216 0
M  V30 127 H 11.3178 -0.0761638 0.666663 0
M  V30 128 H 13.8618 0.414787 2.00249 0
M  V30 129 H 12.0168 -1.51486 3.56554 0
M  V30 130 H 12.4308 -0.0721325 5.2445 0
M  V30 131 H 13.9048 -1.7822 5.22438 0
M  V30 132 H 14.3818 -2.43168 3.65741 0
M  V30 133 H 14.9878 -0.839742 4.16927 0
M  V30 134 N 13.3029 -1.57598 0.00835791 0
M  V30 135 C 14.5309 -1.95214 -0.68549 0
M  V30 136 C 14.9459 -0.883706 -1.66841 0
M  V30 137 O 14.3029 0.136565 -1.81988 0
M  V30 138 C 14.3539 -3.32865 -1.41007 0
M  V30 139 O 14.0749 -4.35609 -0.466552 0
M  V30 140 C 15.5759 -3.84991 -2.19765 0
M  V30 141 H 12.7959 -0.643422 -0.190392 0
M  V30 142 H 15.3399 -2.04406 0.0619607 0
M  V30 143 H 13.4949 -3.24956 -2.10908 0
M  V30 144 H 13.9089 -5.15288 -0.978699 0
M  V30 145 H 15.3829 -4.8371 -2.65948 0
M  V30 146 H 15.8599 -3.18137 -3.02796 0
M  V30 147 H 16.4659 -3.96103 -1.54864 0
M  V30 148 N 14.781 0.264519 -1.55364 0
M  V30 149 C 15.744 1.31046 -1.88042 0
M  V30 150 C 16.744 1.41943 -0.755569 0
M  V30 151 O 17.934 1.40947 -1.02369 0
M  V30 152 C 15.066 2.69067 -2.09323 0
M  V30 153 H 16.259 1.03297 -2.81549 0
M  V30 154 H 13.812 0.502989 -1.47986 0
M  V30 155 H 14.547 3.01982 -1.18226 0
M  V30 156 H 14.332 2.62542 -2.91229 0
M  V30 157 H 15.822 3.44623 -2.35848 0
M  V30 158 N 16.2591 1.48442 0.529413 0
M  V30 159 C 17.2091 1.59407 1.63014 0
M  V30 160 C 18.1931 0.451166 1.54445 0
M  V30 161 O 19.3851 0.702635 1.62456 0
M  V30 162 C 16.5141 1.63746 3.01732 0
M  V30 163 C 15.6001 2.83518 3.15402 0
M  V30 164 N 15.9911 4.07929 2.99045 0
M  V30 165 C 14.2891 2.80862 3.46457 0
M  V30 166 C 14.9901 4.8829 3.16146 0
M  V30 167 N 13.9661 4.21117 3.43746 0
M  V30 168 H 17.7681 2.53343 1.48978 0
M  V30 169 H 15.2821 1.44821 0.734885 0
M  V30 170 H 17.2791 1.69695 3.80801 0
M  V30 171 H 15.9391 0.709264 3.16859 0
M  V30 172 H 16.9501 4.38357 2.75796 0
M  V30 173 H 13.6271 1.97301 3.67938 0
M  V30 174 H 15.0171 5.97028 3.08232 0
M  V30 175 N 17.7372 -0.778329 1.37039 0
M  V30 176 C 18.9622 -1.57248 1.35233 0
M  V30 177 C 19.3872 -1.87999 -0.0615568 0
M  V30 178 O 18.7452 -1.48734 -1.03672 0
M  V30 179 C 18.7932 -2.86353 2.19167 0
M  V30 180 O 17.8972 -3.80442 1.59178 0
M  V30 181 H 17.2382 -0.476569 0.462362 0
M  V30 182 H 19.7682 -0.963853 1.80474 0
M  V30 183 H 19.7782 -3.35519 2.32145 0
M  V30 184 H 18.4532 -2.63299 3.21942 0
M  V30 185 H 17.0302 -3.39067 1.55203 0
M  V30 186 N 19.2153 -1.21501 -1.00376 0
M  V30 187 C 20.4923 -0.941745 -1.71437 0
M  V30 188 C 20.8723 0.546114 -2.03914 0
M  V30 189 O 20.2203 1.51128 -1.71384 0
M  V30 190 C 20.4303 -1.82812 -2.97289 0
M  V30 191 C 21.7783 -2.07771 -3.70292 0
M  V30 192 O 22.8023 -1.80171 -3.07273 0
M  V30 193 O 21.6613 -2.54456 -4.83647 0
M  V30 194 H 18.7553 -0.353243 -0.747762 0
M  V30 195 H 21.3013 -1.32436 -1.06108 0
M  V30 196 H 20.0733 -2.83501 -2.69709 0
M  V30 197 H 19.6963 -1.4464 -3.70358 0
M  V30 198 N 20.6934 1.19889 -1.02296 0
M  V30 199 C 21.9234 1.93109 -0.734332 0
M  V30 200 C 22.3314 1.75377 0.709889 0
M  V30 201 O 21.6744 1.06912 1.49384 0
M  V30 202 C 21.7364 3.45362 -0.99827 0
M  V30 203 C 21.4004 3.8686 -2.43287 0
M  V30 204 C 22.3974 3.92102 -3.41397 0
M  V30 205 C 20.0824 4.18668 -2.77529 0
M  V30 206 C 22.0764 4.28573 -4.71809 0
M  V30 207 C 19.7634 4.54813 -4.08153 0
M  V30 208 C 20.7614 4.59739 -5.05103 0
M  V30 209 O 20.4494 4.95051 -6.33388 0
M  V30 210 H 20.1814 0.620409 -0.268456 0
M  V30 211 H 22.7354 1.53144 -1.3688 0
M  V30 212 H 20.9654 3.85482 -0.306645 0
M  V30 213 H 22.6544 3.99814 -0.700234 0
M  V30 214 H 23.4204 3.67685 -3.1628 0
M  V30 215 H 19.2994 4.14021 -2.0275 0
M  V30 216 H 22.8434 4.32333 -5.4748 0
M  V30 217 H 18.7404 4.78687 -4.33047 0
M  V30 218 H 19.5084 5.1302 -6.37772 0
M  V30 219 N 22.1715 0.800033 1.35784 0
M  V30 220 C 23.0815 0.207204 2.33683 0
M  V30 221 C 24.0975 -0.64631 1.61551 0
M  V30 222 O 25.2735 -0.559604 1.93469 0
M  V30 223 C 22.3385 -0.639659 3.40748 0
M  V30 224 C 21.3995 0.233585 4.28664 0
M  V30 225 C 20.6325 -0.572954 5.30616 0
M  V30 226 O 20.8555 -1.80816 5.40982 0
M  V30 227 O 19.7895 0.0327285 6.01891 0
M  V30 228 H 23.6155 1.01692 2.86169 0
M  V30 229 H 21.2005 0.561691 1.38439 0
M  V30 230 H 23.0825 -1.12223 4.06182 0
M  V30 231 H 21.7575 -1.42708 2.90544 0
M  V30 232 H 20.6645 0.763147 3.66233 0
M  V30 233 H 21.9975 0.984784 4.82248 0
M  V30 234 N 23.6496 -1.47581 0.552962 0
M  V30 235 C 24.8986 -2.01684 0.0251995 0
M  V30 236 C 25.2116 -1.43317 -1.33115 0
M  V30 237 O 26.4176 -1.89057 -1.94858 0
M  V30 238 C 24.8736 -3.599 -0.00542052 0
M  V30 239 C 24.4816 -4.27257 1.34742 0
M  V30 240 C 26.2256 -4.21768 -0.4808 0
M  V30 241 C 24.1326 -5.77467 1.27614 0
M  V30 242 H 23.0626 -0.753979 0.00565033 0
M  V30 243 H 25.7136 -1.69616 0.70018 0
M  V30 244 H 24.0956 -3.88911 -0.745961 0
M  V30 245 H 25.2696 -4.09893 2.10534 0
M  V30 246 H 23.5846 -3.77358 1.76039 0
M  V30 247 H 26.1816 -5.31838 -0.55246 0
M  V30 248 H 26.5246 -3.88651 -1.49184 0
M  V30 249 H 27.0576 -3.97273 0.204752 0
M  V30 250 H 23.7966 -6.15196 2.26304 0
M  V30 251 H 23.3166 -5.9718 0.55996 0
M  V30 252 H 24.9956 -6.3959 0.976421 0
M  V30 253 N 25.1277 -0.289203 -1.54924 0
M  V30 254 C 26.3767 0.324231 -1.99077 0
M  V30 255 C 26.6897 1.5591 -1.18117 0
M  V30 256 O 27.8957 2.24637 -1.52481 0
M  V30 257 C 26.3517 0.628209 -3.54375 0
M  V30 258 C 25.9597 -0.587647 -4.44129 0
M  V30 259 C 27.7037 1.20349 -4.07083 0
M  V30 260 C 25.6107 -0.257475 -5.90839 0
M  V30 261 H 24.5407 0.124924 -0.743579 0
M  V30 262 H 27.1917 -0.396063 -1.79175 0
M  V30 263 H 25.5737 1.40778 -3.70132 0
M  V30 264 H 26.7477 -1.36418 -4.40144 0
M  V30 265 H 25.0627 -1.08074 -4.0213 0
M  V30 266 H 27.6597 1.46456 -5.14252 0
M  V30 267 H 28.0027 2.14195 -3.56968 0
M  V30 268 H 28.5357 0.485889 -3.94821 0
M  V30 269 H 25.2747 -1.16419 -6.45079 0
M  V30 270 H 24.7947 0.482018 -5.9786 0
M  V30 271 H 26.4737 0.145238 -6.46837 0
M  V30 272 N 26.6058 1.57591 -0.0167156 0
M  V30 273 C 27.5358 2.12496 0.967858 0
M  V30 274 C 28.5168 1.03807 1.34752 0
M  V30 275 O 29.7018 1.31577 1.42833 0
M  V30 276 C 26.8318 2.64194 2.25431 0
M  V30 277 C 25.7858 3.77559 2.01576 0
M  V30 278 C 25.1118 4.15636 3.36379 0
M  V30 279 C 26.4118 5.04151 1.36489 0
M  V30 280 H 28.1058 2.95013 0.510643 0
M  V30 281 H 25.6518 1.41915 0.244181 0
M  V30 282 H 27.6048 3.01236 2.94678 0
M  V30 283 H 26.3288 1.78821 2.73296 0
M  V30 284 H 24.9878 3.40937 1.34751 0
M  V30 285 H 24.6358 3.27263 3.81979 0
M  V30 286 H 24.3358 4.92022 3.21229 0
M  V30 287 H 25.8598 4.5525 4.06915 0
M  V30 288 H 27.2738 5.38857 1.95718 0
M  V30 289 H 25.6708 5.85453 1.31776 0
M  V30 290 H 26.7408 4.83733 0.336219 0
M  V30 291 N 28.0839 -0.256276 1.55502 0
M  V30 292 C 28.9939 -1.33882 1.92647 0
M  V30 293 C 30.0099 -1.53159 0.825727 0
M  V30 294 O 31.1859 -1.66963 1.12629 0
M  V30 295 C 28.2509 -2.6751 2.20543 0
M  V30 296 C 27.3119 -2.56836 3.43997 0
M  V30 297 C 26.5449 -3.84092 3.70553 0
M  V30 298 O 26.7679 -4.85545 2.99336 0
M  V30 299 O 25.7019 -3.83288 4.64084 0
M  V30 300 H 29.5279 -1.05374 2.84833 0
M  V30 301 H 27.1129 -0.456237 1.42263 0
M  V30 302 H 28.9949 -3.46492 2.39835 0
M  V30 303 H 27.6699 -2.9577 1.31536 0
M  V30 304 H 26.5769 -1.76172 3.30021 0
M  V30 305 H 27.9099 -2.33523 4.33275 0
M  V30 306 N 29.562 -1.4872 -0.521534 0
M  V30 307 C 30.81 -1.56857 -1.27437 0
M  V30 308 C 31.131 -0.247982 -1.93417 0
M  V30 309 O 30.401 0.731151 -1.81744 0
M  V30 310 H 28.981 -0.577885 -0.473347 0
M  V30 311 H 31.643 -1.85233 -0.606205 0
M  V30 312 H 30.739 -2.35402 -2.0492 0
M  V30 313 N 31.0401 0.771051 -1.3745 0
M  V30 314 C 32.2881 1.52661 -1.32435 0
M  V30 315 C 32.6091 1.9479 0.0905024 0
M  V30 316 O 31.8791 1.66348 1.03466 0
M  V30 317 H 30.4591 0.566218 -0.487244 0
M  V30 318 H 33.1211 0.917636 -1.71946 0
M  V30 319 H 32.2171 2.42568 -1.96385 0
M  V30 320 N 32.5182 1.22032 0.997298 0
M  V30 321 C 33.7432 1.06921 1.77715 0
M  V30 322 C 34.1682 -0.376226 1.84299 0
M  V30 323 O 33.5262 -1.27165 1.29223 0
M  V30 324 C 33.5742 1.67996 3.19076 0
M  V30 325 O 32.6782 0.930653 4.01762 0
M  V30 326 H 32.0192 0.375814 0.547412 0
M  V30 327 H 34.5492 1.61737 1.25309 0
M  V30 328 H 34.5592 1.72538 3.69723 0
M  V30 329 H 33.2342 2.73182 3.13599 0
M  V30 330 H 31.8112 0.960917 3.60307 0
M  V30 331 N 33.9963 -1.19345 1.0293 0
M  V30 332 C 35.2213 -1.93538 0.745511 0
M  V30 333 C 35.6463 -1.75007 -0.689511 0
M  V30 334 O 35.0043 -1.05265 -1.47611 0
M  V30 335 C 35.0523 -3.43336 1.10239 0
M  V30 336 O 34.1563 -4.11806 0.221289 0
M  V30 337 H 33.4973 -0.604193 0.275404 0
M  V30 338 H 36.0273 -1.5141 1.37609 0
M  V30 339 H 36.0373 -3.94004 1.05947 0
M  V30 340 H 34.7123 -3.56146 2.14786 0
M  V30 341 H 33.2893 -3.715 0.322842 0
M  V30 342 N 35.4744 -0.807222 -1.35358 0
M  V30 343 C 36.6994 -0.399309 -2.0352 0
M  V30 344 C 37.1244 0.981986 -1.60433 0
M  V30 345 O 36.4824 1.63601 -0.781299 0
M  V30 346 C 36.5304 -0.491552 -3.57234 0
M  V30 347 O 35.6344 0.494754 -4.09421 0
M  V30 348 H 34.9754 -0.166682 -0.642739 0
M  V30 349 H 37.5054 -1.09328 -1.72941 0
M  V30 350 H 37.5154 -0.361588 -4.06395 0
M  V30 351 H 36.1904 -1.49907 -3.87944 0
M  V30 352 H 34.7674 0.324977 -3.71481 0
M  V30 353 N 36.9525 1.47285 -0.560781 0
M  V30 354 C 38.1985 2.03347 -0.0463654 0
M  V30 355 C 38.5535 1.42702 1.2905 0
M  V30 356 O 37.8465 0.574619 1.8278 0
M  V30 357 C 38.0405 3.57258 0.100784 0
M  V30 358 C 37.8695 4.32827 -1.22027 0
M  V30 359 C 36.6395 4.72588 -1.78854 0
M  V30 360 C 38.8375 4.67739 -2.13834 0
M  V30 361 N 36.8195 5.32816 -3.04927 0
M  V30 362 C 38.1905 5.28307 -3.24487 0
M  V30 363 C 40.2455 4.49667 -2.13784 0
M  V30 364 C 38.9485 5.72711 -4.35194 0
M  V30 365 C 40.9745 4.95073 -3.23506 0
M  V30 366 C 40.3365 5.55693 -4.32879 0
M  V30 367 H 36.4355 0.779755 -0.0592166 0
M  V30 368 H 39.0195 1.79723 -0.748857 0
M  V30 369 H 37.1905 3.80642 0.772404 0
M  V30 370 H 38.9225 3.9996 0.617589 0
M  V30 371 H 35.6775 4.54656 -1.32609 0
M  V30 372 H 36.1015 5.67471 -3.69197 0
M  V30 373 H 40.7435 4.02154 -1.30507 0
M  V30 374 H 38.4615 6.19214 -5.1923 0
M  V30 375 H 42.0475 4.82859 -3.24559 0
M  V30 376 H 40.9275 5.90188 -5.1638 0
M  V30 377 N 38.4306 0.297415 1.54768 0
M  V30 378 C 39.6786 -0.312295 1.99673 0
M  V30 379 C 39.9996 -1.54686 1.18732 0
M  V30 380 O 39.2696 -1.93854 0.282382 0
M  V30 381 H 37.8496 -0.118381 0.73756 0
M  V30 382 H 40.5116 0.407915 1.90583 0
M  V30 383 H 39.6076 -0.586813 3.06534 0
M  V30 384 N 39.9087 -1.5758 0.0250728 0
M  V30 385 C 40.8407 -2.06869 -0.986796 0
M  V30 386 C 41.8537 -0.991332 -1.29137 0
M  V30 387 O 43.0427 -1.26761 -1.25674 0
M  V30 388 C 40.1427 -2.47486 -2.31525 0
M  V30 389 C 39.3157 -3.78253 -2.19643 0
M  V30 390 C 38.3747 -4.05464 -3.35388 0
M  V30 391 O 37.4007 -4.75774 -3.12454 0
M  V30 392 N 38.6027 -3.55321 -4.59051 0
M  V30 393 H 41.3677 -2.94302 -0.566276 0
M  V30 394 H 38.9287 -1.6109 -0.161776 0
M  V30 395 H 40.9207 -2.62785 -3.07776 0
M  V30 396 H 39.4907 -1.65441 -2.65232 0
M  V30 397 H 38.7107 -3.7279 -1.28144 0
M  V30 398 H 39.9987 -4.63936 -2.08903 0
M  V30 399 H 39.3967 -2.98431 -4.80578 0
M  V30 400 H 37.9537 -3.75905 -5.32483 0
M  V30 401 N 41.3868 0.248026 -1.55636 0
M  V30 402 C 42.6328 0.97767 -1.77678 0
M  V30 403 C 42.9658 1.85016 -0.590135 0
M  V30 404 O 42.2408 1.90095 0.411611 0
M  V30 405 C 42.5238 1.83914 -3.09593 0
M  V30 406 C 42.3768 0.99491 -4.38659 0
M  V30 407 C 43.6958 2.82183 -3.37729 0
M  V30 408 H 40.8148 0.354005 -0.646413 0
M  V30 409 H 43.4568 0.248253 -1.88371 0
M  V30 410 H 41.6068 2.46104 -3.00608 0
M  V30 411 H 43.2788 0.391789 -4.59633 0
M  V30 412 H 41.5218 0.299231 -4.32767 0
M  V30 413 H 42.1928 1.63145 -5.2734 0
M  V30 414 H 44.6688 2.30129 -3.4667 0
M  V30 415 H 43.5448 3.39582 -4.31249 0
M  V30 416 H 43.8058 3.58588 -2.58586 0
M  V30 417 N 42.8649 1.48995 0.513639 0
M  V30 418 C 43.8119 1.6473 1.61656 0
M  V30 419 C 44.7819 0.488984 1.58739 0
M  V30 420 O 45.9669 0.714478 1.76918 0
M  V30 421 C 43.1069 1.7082 2.99858 0
M  V30 422 C 42.2199 2.9787 3.12885 0
M  V30 423 C 41.3549 2.95017 4.41744 0
M  V30 424 C 40.3939 4.16702 4.48359 0
M  V30 425 N 39.5309 4.11832 5.68629 0
M  V30 426 H 44.3709 2.58909 1.47547 0
M  V30 427 H 41.9079 1.28382 0.71808 0
M  V30 428 H 43.8659 1.72331 3.79944 0
M  V30 429 H 42.4959 0.801181 3.12699 0
M  V30 430 H 41.5479 3.06029 2.25944 0
M  V30 431 H 42.8599 3.8786 3.13633 0
M  V30 432 H 42.0139 2.95021 5.30139 0
M  V30 433 H 40.7529 2.02784 4.43542 0
M  V30 434 H 39.7579 4.16955 3.58369 0
M  V30 435 H 40.9829 5.10113 4.48287 0
M  V30 436 H 38.9289 3.22428 5.71293 0
M  V30 437 H 38.8459 4.95543 5.7094 0
M  V30 438 H 40.1139 4.1592 6.59266 0
M  V30 439 N 44.343 -0.763751 1.37857 0
M  V30 440 C 45.591 -1.51957 1.33243 0
M  V30 441 C 45.912 -1.94835 -0.0801709 0
M  V30 442 O 45.182 -1.66894 -1.02582 0
M  V30 443 H 43.762 -0.563626 0.49024 0
M  V30 444 H 46.424 -0.908504 1.7243 0
M  V30 445 H 45.52 -2.41523 1.97669 0
M  V30 446 N 45.8211 -1.22559 -0.990812 0
M  V30 447 C 47.2371 -0.985996 -1.255 0
M  V30 448 C 47.4371 0.319173 -1.98956 0
M  V30 449 O 46.4931 1.04127 -2.3003 0
M  V30 450 C 47.8061 -2.18607 -2.06474 0
M  V30 451 C 49.3541 -2.22985 -2.19651 0
M  V30 452 C 49.8291 -3.4255 -3.04012 0
M  V30 453 N 51.3201 -3.42725 -3.11599 0
M  V30 454 C 52.0551 -4.31892 -3.7717 0
M  V30 455 N 51.5511 -5.31279 -4.44651 0
M  V30 456 N 53.3441 -4.19662 -3.73952 0
M  V30 457 H 45.4951 -2.06469 -0.49841 0
M  V30 458 H 47.7581 -0.904853 -0.282747 0
M  V30 459 H 47.4641 -3.13267 -1.59865 0
M  V30 460 H 47.3381 -2.18838 -3.07229 0
M  V30 461 H 49.7251 -1.28871 -2.65474 0
M  V30 462 H 49.8061 -2.26791 -1.18319 0
M  V30 463 H 49.4501 -4.36965 -2.58889 0
M  V30 464 H 49.3801 -3.35984 -4.0549 0
M  V30 465 H 51.8711 -2.70807 -2.63575 0
M  V30 466 H 52.1841 -5.95593 -4.92431 0
M  V30 467 H 50.5291 -5.3519 -4.43392 0
M  V30 468 H 53.7201 -3.41268 -3.20396 0
M  V30 469 H 53.8931 -4.89358 -4.24774 0
M  V30 470 N 47.2992 1.18797 -1.03562 0
M  V30 471 C 48.2622 2.20464 -0.626769 0
M  V30 472 C 49.2622 1.57721 0.313173 0
M  V30 473 O 50.4522 1.73917 0.0992615 0
M  V30 474 C 47.5842 3.40802 0.0818498 0
M  V30 475 H 48.7772 2.58149 -1.5264 0
M  V30 476 H 46.3302 1.32593 -0.827578 0
M  V30 477 H 47.0652 3.08642 0.995518 0
M  V30 478 H 46.8502 3.8758 -0.593652 0
M  V30 479 H 48.3402 4.16092 0.354584 0
M  V30 480 N 48.7773 0.814389 1.34928 0
M  V30 481 C 49.7243 0.22822 2.29669 0
M  V30 482 C 50.6943 -0.642164 1.53184 0
M  V30 483 O 51.8793 -0.585605 1.81591 0
M  V30 484 C 49.0193 -0.61089 3.3965 0
M  V30 485 C 48.1323 0.280792 4.31086 0
M  V30 486 C 47.2673 -0.567067 5.28165 0
M  V30 487 C 46.3063 0.324531 6.11239 0
M  V30 488 N 45.4433 -0.483756 7.00431 0
M  V30 489 H 50.2833 1.04153 2.79206 0
M  V30 490 H 47.8203 0.525133 1.37407 0
M  V30 491 H 49.7783 -1.11263 4.0209 0
M  V30 492 H 48.4083 -1.38939 2.91369 0
M  V30 493 H 47.4603 0.900688 3.69583 0
M  V30 494 H 48.7723 0.966723 4.89342 0
M  V30 495 H 47.9263 -1.13363 5.96015 0
M  V30 496 H 46.6653 -1.28654 4.70425 0
M  V30 497 H 45.6703 0.903298 5.42329 0
M  V30 498 H 46.8953 1.04198 6.71059 0
M  V30 499 H 44.8413 -1.18706 6.45171 0
M  V30 500 H 44.7583 0.143965 7.55863 0
M  V30 501 H 46.0263 -1.03334 7.7262 0
M  V30 502 N 50.2554 -1.46986 0.568584 0
M  V30 503 C 51.5014 -2.02741 0.0488709 0
M  V30 504 C 51.8344 -1.44077 -1.30214 0
M  V30 505 O 51.1094 -0.600552 -1.84996 0
M  V30 506 C 51.3924 -3.60086 -0.032047 0
M  V30 507 C 51.2454 -4.29162 1.34686 0
M  V30 508 C 52.5644 -4.33838 -0.739798 0
M  V30 509 H 49.6834 -0.736749 0.0192338 0
M  V30 510 H 52.3254 -1.75289 0.733065 0
M  V30 511 H 50.4754 -3.83606 -0.61473 0
M  V30 512 H 52.1474 -4.16948 1.97362 0
M  V30 513 H 50.3904 -3.89073 1.91846 0
M  V30 514 H 51.0614 -5.37826 1.24285 0
M  V30 515 H 53.5374 -4.15378 -0.244939 0
M  V30 516 H 52.4134 -5.43537 -0.765406 0
M  V30 517 H 52.6744 -4.03875 -1.79827 0
M  V30 518 N 51.7335 -0.305618 -1.54608 0
M  V30 519 C 52.6815 0.584119 -2.25146 0
M  V30 520 C 53.6755 1.13326 -1.25911 0
M  V30 521 O 54.8815 1.08337 -1.43747 0
M  V30 522 H 51.2565 0.206983 -0.722954 0
M  V30 523 H 53.2275 -0.033291 -2.98381 0
M  V30 524 C 51.9765 1.74225 -3.009 0
M  V30 525 H 51.2995 1.32892 -3.77067 0
M  V30 526 H 52.7395 2.34077 -3.53531 0
M  V30 527 C 51.1985 2.64914 -2.0814 0
M  V30 528 O 51.7285 3.66137 -1.65246 0
M  V30 529 N 49.9345 2.3275 -1.74 0
M  V30 530 H 49.4815 1.50479 -2.09078 0
M  V30 531 H 49.4395 2.93694 -1.12211 0
M  V30 532 N 53.2116 1.57565 -0.0334293 0
M  V30 533 C 54.4576 1.92262 0.645226 0
M  V30 534 C 54.7906 0.910543 1.71531 0
M  V30 535 O 54.0656 -0.066099 1.94388 0
M  V30 536 C 54.3486 3.37422 1.2577 0
M  V30 537 C 54.2016 4.49369 0.196891 0
M  V30 538 C 55.5206 3.82628 2.17449 0
M  V30 539 H 52.6396 0.699171 0.233085 0
M  V30 540 H 55.2816 1.89779 -0.0915694 0
M  V30 541 H 53.4316 3.39669 1.88566 0
M  V30 542 H 55.1036 4.59254 -0.433962 0
M  V30 543 H 53.3466 4.31168 -0.477137 0
M  V30 544 H 54.0176 5.47978 0.665124 0
M  V30 545 H 56.4936 3.82145 1.64634 0
M  V30 546 H 55.3696 4.84883 2.57254 0
M  V30 547 H 55.6306 3.18376 3.0674 0
M  V30 548 N 54.6897 -0.239769 1.55765 0
M  V30 549 C 56.1007 -0.808263 1.68297 0
M  V30 550 C 56.4517 -1.85736 0.632181 0
M  V30 551 O 55.5767 -2.15277 -0.220204 0
M  V30 552 C 56.1717 -1.47284 3.05111 0
M  V30 553 C 54.7307 -1.98895 3.19559 0
M  V30 554 C 53.8777 -0.842575 2.64189 0
M  V30 555 H 56.8287 -0.0154422 1.58692 0
M  V30 556 H 56.8497 -2.34111 2.99954 0
M  V30 557 H 56.3617 -0.709053 3.81568 0
M  V30 558 H 54.4627 -2.78132 2.47938 0
M  V30 559 H 54.5757 -2.18143 4.26556 0
M  V30 560 H 52.9397 -1.24501 2.22197 0
M  V30 561 H 53.7227 -0.0917552 3.43177 0
M  V30 562 N 56.1678 -1.49265 -0.50573 0
M  V30 563 C 57.1308 -1.65075 -1.59006 0
M  V30 564 C 58.1308 -0.522768 -1.52065 0
M  V30 565 O 59.3208 -0.789117 -1.55302 0
M  V30 566 C 56.4528 -1.64369 -2.98656 0
M  V30 567 H 57.6458 -2.61784 -1.46319 0
M  V30 568 H 55.1988 -1.38226 -0.729616 0
M  V30 569 H 55.9338 -0.692272 -3.16825 0
M  V30 570 H 55.7188 -2.46282 -3.05103 0
M  V30 571 H 57.2088 -1.78674 -3.77446 0
M  V30 572 N 57.6459 0.756429 -1.3826 0
M  V30 573 C 58.6089 1.85176 -1.35065 0
M  V30 574 C 59.6089 1.58818 -0.251703 0
M  V30 575 O 60.7989 1.66615 -0.508433 0
M  V30 576 C 57.9309 3.22596 -1.10201 0
M  V30 577 H 59.1239 1.89417 -2.3251 0
M  V30 578 H 56.6769 0.95783 -1.23512 0
M  V30 579 H 57.4119 3.24025 -0.133504 0
M  V30 580 H 57.1969 3.43122 -1.89762 0
M  V30 581 H 58.6869 4.02673 -1.10654 0
M  V30 582 N 59.124 1.23083 0.984299 0
M  V30 583 C 60.373 1.05466 1.71929 0
M  V30 584 C 60.686 -0.409211 1.91272 0
M  V30 585 O 61.892 -0.705226 2.62181 0
M  V30 586 C 60.348 1.83874 3.09384 0
M  V30 587 C 59.956 3.34566 2.97943 0
M  V30 588 C 61.7 1.74734 3.8687 0
M  V30 589 C 59.607 4.05381 4.30605 0
M  V30 590 H 58.537 0.391039 0.644674 0
M  V30 591 H 61.188 1.47013 1.09815 0
M  V30 592 H 59.57 1.35131 3.72231 0
M  V30 593 H 60.744 3.90767 2.44209 0
M  V30 594 H 59.059 3.44476 2.33934 0
M  V30 595 H 61.656 2.24957 4.85076 0
M  V30 596 H 61.999 0.709372 4.10212 0
M  V30 597 H 62.532 2.21067 3.30717 0
M  V30 598 H 59.271 5.09467 4.1246 0
M  V30 599 H 58.791 3.53967 4.84218 0
M  V30 600 H 60.47 4.11458 4.99311 0
M  V30 601 N 60.6021 -1.18246 1.0419 0
M  V30 602 C 62.0131 -1.69914 0.773698 0
M  V30 603 C 62.3641 -1.83085 -0.705297 0
M  V30 604 O 61.4891 -1.51123 -1.5489 0
M  V30 605 C 62.0841 -3.08619 1.39784 0
M  V30 606 C 60.6431 -3.57494 1.17792 0
M  V30 607 C 59.7901 -2.34013 1.48773 0
M  V30 608 H 62.7411 -1.02904 1.20816 0
M  V30 609 H 62.7621 -3.71958 0.801714 0
M  V30 610 H 62.2741 -2.99001 2.47426 0
M  V30 611 H 60.3751 -3.72406 0.120295 0
M  V30 612 H 60.4881 -4.40852 1.87581 0
M  V30 613 H 58.8521 -2.37986 0.907463 0
M  V30 614 H 59.6351 -2.27013 2.57527 0
M  V30 615 N 62.0802 -0.821533 -1.34494 0
M  V30 616 C 63.0102 -0.257138 -2.3208 0
M  V30 617 C 63.9912 0.625645 -1.58176 0
M  V30 618 O 65.1762 0.552811 -1.86166 0
M  V30 619 C 62.3062 0.582958 -3.42372 0
M  V30 620 C 61.2602 -0.202571 -4.2752 0
M  V30 621 C 60.5862 0.760179 -5.29269 0
M  V30 622 C 61.8862 -1.40998 -5.02908 0
M  V30 623 H 63.5802 -1.07247 -2.79532 0
M  V30 624 H 61.1262 -0.517163 -1.34393 0
M  V30 625 H 63.0792 0.987972 -4.09655 0
M  V30 626 H 61.8032 1.43133 -2.93565 0
M  V30 627 H 60.4622 -0.588936 -3.61838 0
M  V30 628 H 60.1102 1.60447 -4.76724 0
M  V30 629 H 59.8102 0.238809 -5.87115 0
M  V30 630 H 61.3342 1.16308 -5.9942 0
M  V30 631 H 62.7482 -1.07905 -5.63054 0
M  V30 632 H 61.1452 -1.86689 -5.70322 0
M  V30 633 H 62.2152 -2.1889 -4.32684 0
M  V30 634 N 63.5583 1.46682 -0.576371 0
M  V30 635 C 64.4883 2.33028 0.148397 0
M  V30 636 C 65.4693 1.44961 0.889956 0
M  V30 637 O 66.6543 1.73789 0.866662 0
M  V30 638 C 63.7843 3.27117 1.1667 0
M  V30 639 C 62.7383 4.24575 0.540386 0
M  V30 640 C 62.0643 5.08126 1.6647 0
M  V30 641 C 63.3643 5.19722 -0.518331 0
M  V30 642 H 65.0583 2.93875 -0.572509 0
M  V30 643 H 62.6043 1.41315 -0.276768 0
M  V30 644 H 64.5573 3.86374 1.68204 0
M  V30 645 H 63.2813 2.64364 1.9178 0
M  V30 646 H 61.9403 3.66571 0.0461769 0
M  V30 647 H 61.5883 4.41762 2.40531 0
M  V30 648 H 61.2883 5.74122 1.25131 0
M  V30 649 H 62.8123 5.70246 2.18293 0
M  V30 650 H 64.2263 5.73232 -0.0883058 0
M  V30 651 H 62.6233 5.94026 -0.851679 0
M  V30 652 H 63.6933 4.64037 -1.40703 0
M  V30 653 N 65.0364 0.313813 1.54444 0
M  V30 654 C 66.4474 -0.176243 1.85866 0
M  V30 655 C 66.7984 -1.52405 1.23561 0
M  V30 656 O 65.9234 -2.09605 0.538016 0
M  V30 657 C 66.5184 -0.32657 3.37222 0
M  V30 658 C 65.0774 -0.760846 3.6863 0
M  V30 659 C 64.2244 0.123247 2.77026 0
M  V30 660 H 67.1754 0.534418 1.49431 0
M  V30 661 H 67.1964 -1.15908 3.62416 0
M  V30 662 H 66.7084 0.654531 3.82541 0
M  V30 663 H 64.8094 -1.75204 3.28838 0
M  V30 664 H 64.9224 -0.571353 4.75681 0
M  V30 665 H 63.2864 -0.399597 2.51546 0
M  V30 666 H 64.0694 1.10094 3.25168 0
M  V30 667 N 66.5145 -1.57545 0.0417849 0
M  V30 668 C 67.7425 -1.96624 -0.643928 0
M  V30 669 C 68.1575 -0.918897 -1.64929 0
M  V30 670 O 67.5145 0.0979323 -1.82237 0
M  V30 671 C 67.5655 -3.35781 -1.33914 0
M  V30 672 O 67.2865 -4.365 -0.374048 0
M  V30 673 C 68.7875 -3.89566 -2.1155 0
M  V30 674 H 66.0075 -0.647316 -0.176702 0
M  V30 675 H 68.5515 -2.04229 0.105304 0
M  V30 676 H 66.7065 -3.29357 -2.03968 0
M  V30 677 H 67.1205 -5.17248 -0.869179 0
M  V30 678 H 68.5945 -4.89242 -2.55628 0
M  V30 679 H 69.0715 -3.24488 -2.9598 0
M  V30 680 H 69.6775 -3.99298 -1.46427 0
M  V30 681 N 67.9926 0.231505 -1.5589 0
M  V30 682 C 69.2696 0.981096 -1.69215 0
M  V30 683 C 69.6496 2.02799 -0.586164 0
M  V30 684 O 68.9976 2.24823 0.408253 0
M  V30 685 C 69.2076 1.60054 -3.10135 0
M  V30 686 C 70.5556 2.09658 -3.69227 0
M  V30 687 O 71.5796 1.69967 -3.13033 0
M  V30 688 O 70.4386 2.8258 -4.67772 0
M  V30 689 H 67.5326 0.457653 -0.688827 0
M  V30 690 H 70.0786 0.224073 -1.68214 0
M  V30 691 H 68.8506 0.844105 -3.82087 0
M  V30 692 H 68.4736 2.42336 -3.15212 0
M  V30 693 N 69.4707 1.49531 0.497807 0
M  V30 694 C 70.7107 1.60799 1.26187 0
M  V30 695 C 71.0747 0.289627 1.89803 0
M  V30 696 O 72.2757 0.277512 2.67364 0
M  V30 697 C 70.5467 2.73729 2.29798 0
M  V30 698 S 72.1057 3.04968 3.155 0
M  V30 699 H 68.9237 0.567145 0.428798 0
M  V30 700 H 71.5257 1.87204 0.563477 0
M  V30 701 H 70.2297 3.68036 1.81597 0
M  V30 702 H 69.7607 2.49328 3.04301 0
M  V30 703 H 71.7757 2.46735 4.30507 0
M  V30 704 N 70.9488 -0.749086 1.3866 0
M  V30 705 C 71.8968 -1.88428 1.36373 0
M  V30 706 C 72.8908 -1.67561 0.248929 0
M  V30 707 O 74.0968 -1.75074 0.41821 0
M  V30 708 H 70.4718 -0.620023 0.42553 0
M  V30 709 H 72.4428 -1.87473 2.32156 0
M  V30 710 C 71.1918 -3.25961 1.21014 0
M  V30 711 H 70.5148 -3.42607 2.06059 0
M  V30 712 H 71.9548 -4.05625 1.23469 0
M  V30 713 C 70.4138 -3.36799 -0.0825941 0
M  V30 714 O 70.9438 -3.87517 -1.05797 0
M  V30 715 N 69.1498 -2.90258 -0.140939 0
M  V30 716 H 68.6968 -2.49174 0.653477 0
M  V30 717 H 68.6548 -2.97889 -1.00545 0
M  V30 718 N 72.4269 -1.23603 -0.977757 0
M  V30 719 C 73.6759 -1.06377 -1.71368 0
M  V30 720 C 73.9889 0.399062 -1.91486 0
M  V30 721 O 75.1949 0.691312 -2.62551 0
M  V30 722 C 73.6509 -1.85512 -3.08404 0
M  V30 723 C 73.2589 -3.36141 -2.96164 0
M  V30 724 C 75.0029 -1.76783 -3.85938 0
M  V30 725 C 72.9099 -4.07659 -4.28449 0
M  V30 726 H 71.8399 -0.394452 -0.642591 0
M  V30 727 H 74.4909 -1.47594 -1.09034 0
M  V30 728 H 72.8729 -1.37103 -3.71509 0
M  V30 729 H 74.0469 -3.92056 -2.42133 0
M  V30 730 H 72.3619 -3.45712 -2.32104 0
M  V30 731 H 74.9589 -2.27526 -4.83876 0
M  V30 732 H 75.3019 -0.731116 -4.0983 0
M  V30 733 H 75.8349 -2.22818 -3.2954 0
M  V30 734 H 72.5739 -5.11648 -4.09752 0
M  V30 735 H 72.0939 -3.5653 -4.82334 0
M  V30 736 H 73.7729 -4.141 -4.97122 0
M  V30 737 N 73.905 1.17692 -1.04816 0
M  V30 738 C 75.321 1.39863 -0.768794 0
M  V30 739 C 75.521 1.91118 0.638451 0
M  V30 740 O 74.577 2.10036 1.40146 0
M  V30 741 C 75.89 2.39274 -1.82122 0
M  V30 742 C 77.438 2.52987 -1.843 0
M  V30 743 C 77.913 3.55669 -2.88555 0
M  V30 744 N 79.404 3.63183 -2.87493 0
M  V30 745 C 80.139 4.42381 -3.64811 0
M  V30 746 N 79.635 5.25125 -4.51903 0
M  V30 747 N 81.428 4.37217 -3.53267 0
M  V30 748 H 73.579 0.82752 -1.95617 0
M  V30 749 H 75.842 0.426123 -0.846831 0
M  V30 750 H 75.548 2.08678 -2.83102 0
M  V30 751 H 75.422 3.38725 -1.65967 0
M  V30 752 H 77.809 2.82896 -0.839869 0
M  V30 753 H 77.89 1.53623 -2.04532 0
M  V30 754 H 77.534 3.26499 -3.89051 0
M  V30 755 H 77.464 4.54728 -2.65575 0
M  V30 756 H 79.955 3.04103 -2.24343 0
M  V30 757 H 80.268 5.82728 -5.07591 0
M  V30 758 H 78.613 5.24519 -4.55966 0
M  V30 759 H 81.804 3.71626 -2.84625 0
M  V30 760 H 81.977 4.98696 -4.13771 0
M  V30 761 N 75.3831 0.828654 1.34056 0
M  V30 762 C 76.6321 0.415828 1.97367 0
M  V30 763 C 76.9451 -1.02796 1.6641 0
M  V30 764 O 78.1511 -1.54497 2.23255 0
M  V30 765 C 76.6071 0.692601 3.53173 0
M  V30 766 C 76.2151 2.15038 3.93017 0
M  V30 767 C 77.9591 0.346222 4.23086 0
M  V30 768 C 75.8661 2.37174 5.41758 0
M  V30 769 H 74.7961 0.151755 0.738571 0
M  V30 770 H 77.4471 1.01581 1.52819 0
M  V30 771 H 75.8291 0.0223764 3.95994 0
M  V30 772 H 77.0031 2.86024 3.61285 0
M  V30 773 H 75.3181 2.45875 3.36057 0
M  V30 774 H 77.9151 0.48937 5.32456 0
M  V30 775 H 78.2581 -0.709842 4.10204 0
M  V30 776 H 78.7911 0.971258 3.85761 0
M  V30 777 H 75.5301 3.41308 5.59633 0
M  V30 778 H 75.0501 1.70738 5.74986 0
M  V30 779 H 76.7291 2.19818 6.08514 0
M  V30 780 N 76.8612 -1.46375 0.584142 0
M  V30 781 C 78.1382 -1.956 0.0033388 0
M  V30 782 C 78.5182 -1.52679 -1.45782 0
M  V30 783 O 77.8662 -0.77816 -2.14842 0
M  V30 784 C 78.0762 -3.48551 0.176891 0
M  V30 785 C 79.4242 -4.24576 0.0454609 0
M  V30 786 O 80.4482 -3.56043 0.105801 0
M  V30 787 O 79.3072 -5.46427 -0.0890376 0
M  V30 788 H 76.4012 -0.825547 -0.0490066 0
M  V30 789 H 78.9472 -1.56652 0.65256 0
M  V30 790 H 77.7192 -3.72683 1.1926 0
M  V30 791 H 77.3422 -3.94332 -0.508695 0
M  V30 792 N 78.3393 -0.321999 -1.54275 0
M  V30 793 C 79.3023 0.531975 -2.22941 0
M  V30 794 C 80.3023 1.04478 -1.22234 0
M  V30 795 O 81.4923 0.937452 -1.46825 0
M  V30 796 C 78.6243 1.73874 -2.93224 0
M  V30 797 H 79.8173 -0.0682612 -2.99822 0
M  V30 798 H 77.3703 -0.0730644 -1.56129 0
M  V30 799 H 78.1053 2.37825 -2.20476 0
M  V30 800 H 77.8903 1.37847 -3.6707 0
M  V30 801 H 79.3803 2.34496 -3.45545 0
M  V30 802 N 79.8174 1.5752 -0.0501392 0
M  V30 803 C 80.7644 2.1147 0.924603 0
M  V30 804 C 81.7344 1.02182 1.30951 0
M  V30 805 O 82.9194 1.29723 1.39916 0
M  V30 806 C 80.0594 2.66337 2.19451 0
M  V30 807 C 79.1724 3.89708 1.86418 0
M  V30 808 C 78.3074 4.32893 3.07859 0
M  V30 809 C 77.3464 5.48967 2.70742 0
M  V30 810 N 76.4834 5.87211 3.84874 0
M  V30 811 H 81.3234 2.94465 0.457639 0
M  V30 812 H 78.8604 1.45531 0.214266 0
M  V30 813 H 80.8184 2.96247 2.93758 0
M  V30 814 H 79.4484 1.86141 2.63726 0
M  V30 815 H 78.5004 3.66396 1.02264 0
M  V30 816 H 79.8124 4.74074 1.55096 0
M  V30 817 H 78.9664 4.6435 3.90466 0
M  V30 818 H 77.7054 3.47336 3.42358 0
M  V30 819 H 76.7104 5.17183 1.86551 0
M  V30 820 H 77.9354 6.3624 2.37436 0
M  V30 821 H 75.8814 5.04607 4.19175 0
M  V30 822 H 75.7984 6.66266 3.57247 0
M  V30 823 H 77.0664 6.23282 4.68123 0
M  V30 824 N 81.2955 -0.223234 1.56011 0
M  V30 825 C 82.7065 -0.790368 1.69145 0
M  V30 826 C 83.0575 -1.85055 0.651845 0
M  V30 827 O 82.1825 -2.15498 -0.197359 0
M  V30 828 C 82.7775 -1.4404 3.06656 0
M  V30 829 C 81.3365 -1.95494 3.2165 0
M  V30 830 C 80.4835 -0.814506 2.65068 0
M  V30 831 H 83.4345 0.00139011 1.587 0
M  V30 832 H 83.4555 -2.30916 3.0242 0
M  V30 833 H 82.9675 -0.668543 3.82298 0
M  V30 834 H 81.0685 -2.75487 2.50874 0
M  V30 835 H 81.1815 -2.13607 4.28846 0
M  V30 836 H 79.5455 -1.22137 2.23505 0
M  V30 837 H 80.3285 -0.0553515 3.43255 0
M  V30 838 N 82.7736 -1.49793 -0.48987 0
M  V30 839 C 83.7036 -1.70201 -1.59856 0
M  V30 840 C 84.6846 -0.55076 -1.60937 0
M  V30 841 O 85.8696 -0.787841 -1.77501 0
M  V30 842 C 82.9996 -1.77882 -2.98287 0
M  V30 843 C 81.9536 -2.92907 -3.12073 0
M  V30 844 C 81.2796 -2.85712 -4.51965 0
M  V30 845 C 82.5796 -4.3369 -2.91051 0
M  V30 846 H 84.2736 -2.63025 -1.43032 0
M  V30 847 H 81.8196 -1.26574 -0.686664 0
M  V30 848 H 83.7726 -1.90744 -3.75759 0
M  V30 849 H 82.4966 -0.816653 -3.16225 0
M  V30 850 H 81.1556 -2.79665 -2.37029 0
M  V30 851 H 80.8036 -1.8738 -4.66795 0
M  V30 852 H 80.5036 -3.62921 -4.62128 0
M  V30 853 H 82.0276 -3.00598 -5.31482 0
M  V30 854 H 83.4416 -4.47555 -3.58284 0
M  V30 855 H 81.8386 -5.12205 -3.12675 0
M  V30 856 H 82.9086 -4.47362 -1.87071 0
M  V30 857 N 84.2517 0.741722 -1.39055 0
M  V30 858 C 85.5287 1.49252 -1.26425 0
M  V30 859 C 85.9087 2.10705 0.129144 0
M  V30 860 O 85.2567 1.98045 1.13976 0
M  V30 861 C 85.4667 2.54934 -2.38347 0
M  V30 862 C 86.8147 3.21506 -2.77343 0
M  V30 863 O 87.8387 2.65245 -2.37747 0
M  V30 864 O 86.6977 4.23294 -3.45665 0
M  V30 865 H 83.7917 0.662451 -0.495064 0
M  V30 866 H 86.3377 0.776121 -1.50912 0
M  V30 867 H 85.1097 2.07857 -3.31529 0
M  V30 868 H 84.7327 3.34141 -2.15489 0
M  V30 869 N 85.7298 1.2412 0.971189 0
M  V30 870 C 86.6928 1.03156 2.04674 0
M  V30 871 C 87.6928 -0.00990322 1.60797 0
M  V30 872 O 88.8828 0.230729 1.72665 0
M  V30 873 C 86.0148 0.562765 3.36223 0
M  V30 874 H 87.2078 1.98614 2.24705 0
M  V30 875 H 84.7608 1.06293 1.14593 0
M  V30 876 H 85.4958 -0.395176 3.21883 0
M  V30 877 H 85.2808 1.31441 3.69413 0
M  V30 878 H 86.7708 0.437015 4.15307 0
M  V30 879 N 87.2079 -1.17134 1.05439 0
M  V30 880 C 88.1399 -2.2078 0.615539 0
M  V30 881 C 89.1529 -1.59584 -0.322001 0
M  V30 882 O 90.3419 -1.78133 -0.114344 0
M  V30 883 C 87.4419 -3.38691 -0.118938 0
M  V30 884 C 86.6149 -4.29454 0.829924 0
M  V30 885 C 85.6739 -5.26024 0.136258 0
M  V30 886 O 84.6999 -5.63952 0.77115 0
M  V30 887 N 85.9019 -5.69487 -1.1254 0
M  V30 888 H 88.6669 -2.59052 1.50705 0
M  V30 889 H 86.2279 -1.32058 0.936603 0
M  V30 890 H 88.2199 -4.00329 -0.593179 0
M  V30 891 H 86.7899 -2.98996 -0.91215 0
M  V30 892 H 86.0099 -3.65211 1.48373 0
M  V30 893 H 87.2979 -4.86984 1.47392 0
M  V30 894 H 86.6959 -5.4075 -1.6615 0
M  V30 895 H 85.2529 -6.33257 -1.54366 0
M  V30 896 N 88.686 -0.835752 -1.33615 0
M  V30 897 C 89.633 -0.26473 -2.29277 0
M  V30 898 C 90.603 0.617712 -1.54187 0
M  V30 899 O 91.788 0.556641 -1.825 0
M  V30 900 C 88.928 0.556777 -3.40579 0
M  V30 901 C 88.041 -0.349339 -4.30585 0
M  V30 902 C 87.176 0.482969 -5.29 0
M  V30 903 C 86.215 -0.421732 -6.10645 0
M  V30 904 N 85.352 0.372262 -7.01112 0
M  V30 905 H 90.192 -1.08582 -2.77514 0
M  V30 906 H 87.729 -0.546927 -1.36554 0
M  V30 907 H 89.687 1.04852 -4.03809 0
M  V30 908 H 88.317 1.34286 -2.93542 0
M  V30 909 H 87.369 -0.959372 -3.68104 0
M  V30 910 H 88.681 -1.04445 -4.87742 0
M  V30 911 H 87.835 1.03866 -5.97743 0
M  V30 912 H 86.574 1.21153 -4.72412 0
M  V30 913 H 85.579 -0.989464 -5.40823 0
M  V30 914 H 86.804 -1.14861 -6.69316 0
M  V30 915 H 84.75 1.08426 -6.46977 0
M  V30 916 H 84.667 -0.264198 -7.55538 0
M  V30 917 H 85.935 0.910293 -7.74167 0
M  V30 918 N 90.1641 1.46063 -0.591896 0
M  V30 919 C 91.4121 2.01938 -0.0808391 0
M  V30 920 C 91.7331 1.46475 1.28725 0
M  V30 921 O 91.0031 0.652944 1.84698 0
M  V30 922 H 89.5831 0.746516 -0.0268938 0
M  V30 923 H 92.2451 1.79055 -0.769752 0
M  V30 924 H 91.3411 3.12094 -0.0187578 0
M  V30 925 N 91.6422 0.330177 1.54103 0
M  V30 926 C 92.8882 -0.270806 2.00984 0
M  V30 927 C 93.2212 -1.51265 1.21789 0
M  V30 928 O 92.4962 -1.92142 0.301927 0
M  V30 929 C 92.7792 -0.598339 3.55094 0
M  V30 930 C 92.6322 0.654674 4.4501 0
M  V30 931 C 93.9512 -1.41334 4.16789 0
M  V30 932 H 91.0702 -0.0969531 0.730595 0
M  V30 933 H 93.7122 0.448066 1.84641 0
M  V30 934 H 91.8622 -1.21078 3.69151 0
M  V30 935 H 93.5342 1.29285 4.42813 0
M  V30 936 H 91.7772 1.28224 4.14416 0
M  V30 937 H 92.4482 0.380944 5.50684 0
M  V30 938 H 94.9242 -0.895597 4.06347 0
M  V30 939 H 93.8002 -1.61127 5.24718 0
M  V30 940 H 94.0612 -2.41146 3.70541 0
M  V30 941 N 93.1203 -1.57491 0.0584922 0
M  V30 942 C 94.3663 -1.93264 -0.614558 0
M  V30 943 C 94.6993 -0.937717 -1.7006 0
M  V30 944 O 93.9743 0.0351652 -1.94468 0
M  V30 945 C 94.2573 -3.3938 -1.20386 0
M  V30 946 C 94.1103 -4.49625 -0.125375 0
M  V30 947 C 95.4293 -3.86039 -2.11334 0
M  V30 948 H 92.5483 -0.702791 -0.221933 0
M  V30 949 H 95.1903 -1.8961 0.12175 0
M  V30 950 H 93.3403 -3.42626 -1.83139 0
M  V30 951 H 95.0123 -4.58506 0.506971 0
M  V30 952 H 93.2553 -4.30354 0.545672 0
M  V30 953 H 93.9263 -5.48967 -0.577861 0
M  V30 954 H 96.4023 -3.84716 -1.58534 0
M  V30 955 H 95.2783 -4.88914 -2.49507 0
M  V30 956 H 95.5393 -3.23215 -3.01636 0
M  V30 957 N 94.5984 0.214957 -1.56127 0
M  V30 958 C 96.0144 0.564948 -1.49267 0
M  V30 959 C 96.2144 1.86827 -0.754838 0
M  V30 960 O 95.2704 2.50745 -0.297198 0
M  V30 961 C 96.5834 0.638071 -2.93852 0
M  V30 962 C 98.1314 0.728253 -3.0441 0
M  V30 963 C 98.6064 0.832663 -4.50367 0
M  V30 964 N 100.097 0.896712 -4.54437 0
M  V30 965 C 100.832 0.997324 -5.6466 0
M  V30 966 N 100.328 1.06147 -6.8462 0
M  V30 967 N 102.121 1.03297 -5.52527 0
M  V30 968 H 94.2724 -0.640211 -2.02522 0
M  V30 969 H 96.5354 -0.225507 -0.920788 0
M  V30 970 H 96.2414 -0.250126 -3.50809 0
M  V30 971 H 96.1154 1.49947 -3.46115 0
M  V30 972 H 98.5024 1.60689 -2.47514 0
M  V30 973 H 98.5834 -0.158952 -2.55306 0
M  V30 974 H 98.2274 -0.0415417 -5.07883 0
M  V30 975 H 98.1574 1.73538 -4.97184 0
M  V30 976 H 100.648 0.857188 -3.6805 0
M  V30 977 H 100.961 1.1382 -7.64372 0
M  V30 978 H 99.3064 1.03049 -6.87318 0
M  V30 979 H 102.497 0.979558 -4.57736 0
M  V30 980 H 102.67 1.10793 -6.38458 0
M  V30 981 N 96.0765 1.50051 0.48192 0
M  V30 982 C 97.3235 1.60498 1.23477 0
M  V30 983 C 97.6515 0.300331 1.92167 0
M  V30 984 O 96.9065 -0.713094 1.82246 0
M  V30 985 C 97.2055 2.72717 2.30998 0
M  V30 986 C 96.8715 4.13572 1.79636 0
M  V30 987 C 95.5335 4.519 1.65348 0
M  V30 988 C 97.8855 5.01649 1.41412 0
M  V30 989 C 95.2135 5.76057 1.11244 0
M  V30 990 C 97.5655 6.26343 0.887538 0
M  V30 991 C 96.2295 6.63483 0.731207 0
M  V30 992 H 95.4995 0.587303 0.451836 0
M  V30 993 H 98.1465 1.83948 0.532468 0
M  V30 994 H 96.4515 2.43312 3.07094 0
M  V30 995 H 98.1485 2.78006 2.88988 0
M  V30 996 H 94.7385 3.83329 1.91721 0
M  V30 997 H 98.9225 4.72679 1.51289 0
M  V30 998 H 94.1785 6.03516 0.978686 0
M  V30 999 H 98.3525 6.93958 0.582654 0
M  V30 1000 H 95.9795 7.59568 0.309806 0
M  V30 1001 N 97.5546 -0.734337 1.39446 0
M  V30 1002 C 98.7826 -1.52358 1.39981 0
M  V30 1003 C 99.1976 -1.88799 -0.0054975 0
M  V30 1004 O 98.5546 -1.54146 -0.976998 0
M  V30 1005 C 98.6056 -2.81072 2.27333 0
M  V30 1006 O 98.3266 -2.46178 3.62392 0
M  V30 1007 C 99.8276 -3.75096 2.36259 0
M  V30 1008 H 97.0476 -0.470806 0.478103 0
M  V30 1009 H 99.5916 -0.907339 1.83269 0
M  V30 1010 H 97.7466 -3.39026 1.87457 0
M  V30 1011 H 98.1606 -3.28866 4.08592 0
M  V30 1012 H 99.6346 -4.62305 3.01626 0
M  V30 1013 H 100.112 -4.16892 1.38194 0
M  V30 1014 H 100.718 -3.23061 2.76608 0
M  V30 1015 N 99.0327 -1.24633 -0.964593 0
M  V30 1016 C 100.261 -1.11501 -1.74285 0
M  V30 1017 C 100.676 0.332165 -1.85855 0
M  V30 1018 O 100.033 1.22903 -1.34911 0
M  V30 1019 C 100.084 -1.75258 -3.16175 0
M  V30 1020 O 99.8047 -3.14318 -3.05182 0
M  V30 1021 C 101.306 -1.67776 -4.10324 0
M  V30 1022 H 98.5257 -0.389407 -0.546446 0
M  V30 1023 H 101.07 -1.64801 -1.21083 0
M  V30 1024 H 99.2247 -1.25954 -3.66353 0
M  V30 1025 H 99.6387 -3.4551 -3.94618 0
M  V30 1026 H 101.113 -2.17064 -5.0753 0
M  V30 1027 H 101.59 -0.639584 -4.34518 0
M  V30 1028 H 102.196 -2.16522 -3.66058 0
M  V30 1029 N 100.511 1.16574 -1.06058 0
M  V30 1030 C 101.458 2.20883 -0.669263 0
M  V30 1031 C 102.428 1.62729 0.332918 0
M  V30 1032 O 103.613 1.895 0.222346 0
M  V30 1033 C 100.753 3.45049 -0.0593572 0
M  V30 1034 C 99.8658 4.17458 -1.11143 0
M  V30 1035 C 99.0008 5.29135 -0.467916 0
M  V30 1036 C 98.0398 5.93343 -1.50369 0
M  V30 1037 N 97.1768 6.96516 -0.883706 0
M  V30 1038 H 102.017 2.53709 -1.5632 0
M  V30 1039 H 99.5538 1.24616 -0.781625 0
M  V30 1040 H 101.512 4.16033 0.311771 0
M  V30 1041 H 100.142 3.12781 0.797992 0
M  V30 1042 H 99.1938 3.45101 -1.60029 0
M  V30 1043 H 100.506 4.61307 -1.89731 0
M  V30 1044 H 99.6598 6.06684 -0.0436871 0
M  V30 1045 H 98.3988 4.86443 0.349864 0
M  V30 1046 H 97.4038 5.14517 -1.93784 0
M  V30 1047 H 98.6288 6.38114 -2.32352 0
M  V30 1048 H 96.5748 6.55943 -0.086595 0
M  V30 1049 H 96.4918 7.38723 -1.607 0
M  V30 1050 H 97.7598 7.77993 -0.484543 0
M  V30 1051 N 101.989 0.842826 1.3317 0
M  V30 1052 C 103.238 0.436738 1.96915 0
M  V30 1053 C 103.551 -1.01025 1.67491 0
M  V30 1054 O 104.757 -1.5212 2.24881 0
M  V30 1055 C 103.213 0.730021 3.52418 0
M  V30 1056 C 102.821 2.19195 3.90714 0
M  V30 1057 C 104.565 0.391076 4.22695 0
M  V30 1058 C 102.472 2.42907 5.39212 0
M  V30 1059 H 101.402 0.15958 0.736919 0
M  V30 1060 H 104.053 1.03196 1.51733 0
M  V30 1061 H 102.435 0.0643755 3.95948 0
M  V30 1062 H 103.609 2.8984 3.58231 0
M  V30 1063 H 101.924 2.49425 3.33431 0
M  V30 1064 H 104.521 0.545817 5.31907 0
M  V30 1065 H 104.864 -0.666294 4.10933 0
M  V30 1066 H 105.397 1.01212 3.84709 0
M  V30 1067 H 102.136 3.47224 5.55982 0
M  V30 1068 H 101.656 1.76827 5.73142 0
M  V30 1069 H 103.335 2.2626 6.06148 0
M  V30 1070 N 103.467 -1.45747 0.599634 0
M  V30 1071 C 104.377 -2.34262 -0.125888 0
M  V30 1072 C 105.393 -1.50768 -0.868625 0
M  V30 1073 O 106.569 -1.83592 -0.828003 0
M  V30 1074 C 103.634 -3.28252 -1.11587 0
M  V30 1075 C 102.695 -4.27651 -0.375956 0
M  V30 1076 C 101.928 -5.1715 -1.31877 0
M  V30 1077 O 102.151 -5.09916 -2.55621 0
M  V30 1078 O 101.085 -5.96286 -0.820157 0
M  V30 1079 H 104.911 -2.97688 0.601315 0
M  V30 1080 H 102.496 -1.44999 0.359934 0
M  V30 1081 H 104.378 -3.86191 -1.68626 0
M  V30 1082 H 103.053 -2.67401 -1.82424 0
M  V30 1083 H 101.96 -3.7335 0.236698 0
M  V30 1084 H 103.293 -4.91334 0.29177 0
M  V30 1085 N 104.945 -0.338344 -1.53925 0
M  V30 1086 C 106.17 0.263987 -2.05713 0
M  V30 1087 C 106.595 1.43847 -1.21201 0
M  V30 1088 O 105.953 1.79904 -0.224535 0
M  V30 1089 C 106.001 0.662 -3.54471 0
M  V30 1090 O 105.105 1.76265 -3.72833 0
M  V30 1091 H 104.446 0.0448722 -0.662482 0
M  V30 1092 H 106.976 -0.491048 -1.9862 0
M  V30 1093 H 106.986 0.940594 -3.9701 0
M  V30 1094 H 105.661 -0.196937 -4.15433 0
M  V30 1095 H 104.238 1.48173 -3.42198 0
M  V30 1096 N 106.423 1.57458 -0.0668435 0
M  V30 1097 C 107.669 1.93587 0.6043 0
M  V30 1098 C 108.002 0.946722 1.69561 0
M  V30 1099 O 107.277 -0.0248516 1.94484 0
M  V30 1100 C 107.56 3.40014 1.18585 0
M  V30 1101 C 107.413 4.49685 0.101529 0
M  V30 1102 C 108.732 3.87154 2.09284 0
M  V30 1103 H 105.851 0.703958 0.218202 0
M  V30 1104 H 108.493 1.89542 -0.131804 0
M  V30 1105 H 106.643 3.43592 1.81319 0
M  V30 1106 H 108.315 4.5823 -0.531279 0
M  V30 1107 H 106.558 4.30059 -0.568487 0
M  V30 1108 H 107.229 5.49266 0.54874 0
M  V30 1109 H 109.705 3.85551 1.56491 0
M  V30 1110 H 108.581 4.90231 2.46911 0
M  V30 1111 H 108.842 3.2481 2.99918 0
M  V30 1112 N 107.901 -0.206675 1.56239 0
M  V30 1113 C 109.147 -0.930218 1.80208 0
M  V30 1114 C 109.48 -1.83387 0.638981 0
M  V30 1115 O 108.755 -1.91119 -0.361066 0
M  V30 1116 C 109.038 -1.75641 3.1436 0
M  V30 1117 C 108.891 -0.878257 4.41142 0
M  V30 1118 C 110.21 -2.73129 3.45092 0
M  V30 1119 H 107.329 -0.336742 0.655571 0
M  V30 1120 H 109.971 -0.198222 1.88963 0
M  V30 1121 H 108.121 -2.38048 3.07027 0
M  V30 1122 H 109.793 -0.269787 4.6051 0
M  V30 1123 H 108.036 -0.184385 4.33408 0
M  V30 1124 H 108.707 -1.49106 5.3148 0
M  V30 1125 H 111.183 -2.20856 3.52649 0
M  V30 1126 H 110.059 -3.28028 4.40101 0
M  V30 1127 H 110.32 -3.51606 2.68003 0
M  V30 1128 N 109.379 -1.50304 -0.473955 0
M  V30 1129 C 110.656 -1.51667 -1.23518 0
M  V30 1130 C 111.036 -0.259701 -2.09496 0
M  V30 1131 O 110.384 0.756986 -2.15597 0
M  V30 1132 C 110.594 -2.81082 -2.06868 0
M  V30 1133 C 111.942 -3.31631 -2.65153 0
M  V30 1134 O 112.966 -2.82384 -2.17113 0
M  V30 1135 O 111.825 -4.17471 -3.52675 0
M  V30 1136 H 108.919 -0.60822 -0.560355 0
M  V30 1137 H 111.465 -1.62592 -0.486011 0
M  V30 1138 H 110.237 -3.64041 -1.4349 0
M  V30 1139 H 109.86 -2.73146 -2.88924 0
M  V30 1140 N 110.857 0.726932 -1.39834 0
M  V30 1141 C 112.082 1.52121 -1.40976 0
M  V30 1142 C 112.507 1.88098 -0.00826029 0
M  V30 1143 O 111.865 1.52479 0.980807 0
M  V30 1144 C 111.913 2.78021 -2.29644 0
M  V30 1145 O 111.017 3.74272 -1.73188 0
M  V30 1146 H 110.358 0.45908 -0.479731 0
M  V30 1147 H 112.888 0.896207 -1.83927 0
M  V30 1148 H 112.898 3.26671 -2.44438 0
M  V30 1149 H 111.573 2.51169 -3.31492 0
M  V30 1150 H 110.15 3.33073 -1.6768 0
M  V30 1151 N 112.336 1.25143 0.95797 0
M  V30 1152 C 113.582 1.09855 1.70469 0
M  V30 1153 C 113.915 -0.360187 1.90831 0
M  V30 1154 O 113.19 -1.26568 1.47685 0
M  V30 1155 C 113.473 1.8497 3.08963 0
M  V30 1156 C 113.326 3.38652 2.96032 0
M  V30 1157 C 114.645 1.63016 4.08795 0
M  V30 1158 H 111.764 0.400465 0.618706 0
M  V30 1159 H 114.406 1.53933 1.11376 0
M  V30 1160 H 112.556 1.47505 3.59409 0
M  V30 1161 H 114.228 3.85772 2.52938 0
M  V30 1162 H 112.471 3.66534 2.32025 0
M  V30 1163 H 113.142 3.8642 3.94187 0
M  V30 1164 H 115.618 1.95625 3.67247 0
M  V30 1165 H 114.494 2.18015 5.03747 0
M  V30 1166 H 114.755 0.570692 4.38401 0
M  V30 1167 N 113.814 -1.1601 1.06675 0
M  V30 1168 C 114.761 -2.20525 0.680967 0
M  V30 1169 C 115.731 -1.62904 -0.324283 0
M  V30 1170 O 116.916 -1.89615 -0.212294 0
M  V30 1171 C 114.056 -3.45013 0.0776551 0
M  V30 1172 C 113.169 -4.16863 1.13355 0
M  V30 1173 C 112.304 -5.2888 0.49597 0
M  V30 1174 C 111.343 -5.92537 1.53513 0
M  V30 1175 N 110.48 -6.96038 0.920631 0
M  V30 1176 H 115.32 -2.52876 1.57663 0
M  V30 1177 H 112.857 -1.24199 0.788223 0
M  V30 1178 H 114.815 -4.16193 -0.289704 0
M  V30 1179 H 113.445 -3.132 -0.781393 0
M  V30 1180 H 112.497 -3.44248 1.61857 0
M  V30 1181 H 113.809 -4.60294 1.92174 0
M  V30 1182 H 112.963 -6.06653 0.0758604 0
M  V30 1183 H 111.702 -4.86622 -0.324062 0
M  V30 1184 H 110.707 -5.13482 1.9651 0
M  V30 1185 H 111.932 -6.36873 2.35733 0
M  V30 1186 H 109.878 -6.55888 0.12138 0
M  V30 1187 H 109.795 -7.3786 1.64616 0
M  V30 1188 H 111.063 -7.77725 0.525795 0
M  V30 1189 N 115.292 -0.849877 -1.32721 0
M  V30 1190 C 116.24 -0.279745 -2.30912 0
M  V30 1191 C 117.234 0.594278 -1.58634 0
M  V30 1192 O 118.44 0.482613 -1.73409 0
M  V30 1193 H 114.815 -0.0717521 -0.748569 0
M  V30 1194 H 116.786 -1.12222 -2.76494 0
M  V30 1195 C 115.535 0.521108 -3.43773 0
M  V30 1196 H 114.858 -0.142141 -3.99547 0
M  V30 1197 H 116.298 0.885693 -4.14646 0
M  V30 1198 C 114.757 1.70442 -2.90605 0
M  V30 1199 O 115.287 2.8034 -2.87702 0
M  V30 1200 N 113.493 1.52991 -2.47067 0
M  V30 1201 H 113.04 0.635914 -2.49628 0
M  V30 1202 H 112.998 2.32311 -2.11847 0
M  V30 1203 N 116.77 1.45427 -0.607355 0
M  V30 1204 C 117.998 2.06614 -0.108814 0
M  V30 1205 C 118.413 1.45204 1.2067 0
M  V30 1206 O 117.77 0.566132 1.73497 0
M  V30 1207 C 117.821 3.61481 0.0375347 0
M  V30 1208 O 117.542 4.20598 -1.22593 0
M  V30 1209 C 119.043 4.39652 0.567561 0
M  V30 1210 H 116.263 0.66747 -0.0687351 0
M  V30 1211 H 118.807 1.86675 -0.835022 0
M  V30 1212 H 116.962 3.80762 0.714068 0
M  V30 1213 H 117.376 5.1377 -1.05547 0
M  V30 1214 H 118.85 5.48518 0.61905 0
M  V30 1215 H 119.327 4.09417 1.58978 0
M  V30 1216 H 119.933 4.25234 -0.0749202 0
M  V30 1217 N 118.248 0.346503 1.53744 0
M  V30 1218 C 119.178 -0.501193 2.28058 0
M  V30 1219 C 120.159 -1.10014 1.29734 0
M  V30 1220 O 121.344 -1.12097 1.58581 0
M  V30 1221 C 118.474 -1.65078 3.05559 0
M  V30 1222 C 117.428 -1.18003 4.11411 0
M  V30 1223 C 116.754 -2.41837 4.76884 0
M  V30 1224 C 118.054 -0.278394 5.21558 0
M  V30 1225 H 119.748 0.11875 2.99164 0
M  V30 1226 H 117.294 0.0585531 1.43881 0
M  V30 1227 H 119.247 -2.25028 3.56287 0
M  V30 1228 H 117.971 -2.29767 2.32109 0
M  V30 1229 H 116.63 -0.603331 3.61601 0
M  V30 1230 H 116.278 -3.0494 4.00026 0
M  V30 1231 H 115.978 -2.1102 5.48402 0
M  V30 1232 H 117.502 -3.02508 5.30397 0
M  V30 1233 H 118.916 -0.784823 5.67903 0
M  V30 1234 H 117.313 -0.0619707 6.00068 0
M  V30 1235 H 118.383 0.684677 4.80042 0
M  V30 1236 N 119.726 -1.57421 0.075193 0
M  V30 1237 C 120.674 -2.14124 -0.908508 0
M  V30 1238 C 121.668 -1.07898 -1.30592 0
M  V30 1239 O 122.874 -1.26273 -1.28277 0
M  V30 1240 H 119.249 -0.684707 -0.310935 0
M  V30 1241 H 121.22 -2.95634 -0.405374 0
M  V30 1242 C 119.969 -2.72044 -2.16535 0
M  V30 1243 H 119.292 -3.53456 -1.86839 0
M  V30 1244 H 120.732 -3.15311 -2.83469 0
M  V30 1245 C 119.191 -1.66968 -2.92615 0
M  V30 1246 O 119.721 -1.0967 -3.86439 0
M  V30 1247 N 117.927 -1.37923 -2.55784 0
M  V30 1248 H 117.474 -1.84706 -1.79559 0
M  V30 1249 H 117.432 -0.67852 -3.06991 0
M  V30 1250 N 121.204 0.198386 -1.56346 0
M  V30 1251 C 122.45 0.920648 -1.80698 0
M  V30 1252 C 122.783 1.83045 -0.648697 0
M  V30 1253 O 122.058 1.91308 0.350925 0
M  V30 1254 C 122.341 1.73971 -3.15287 0
M  V30 1255 C 122.194 0.85485 -4.41602 0
M  V30 1256 C 123.513 2.71296 -3.46535 0
M  V30 1257 H 120.632 0.333261 -0.657348 0
M  V30 1258 H 123.274 0.188198 -1.89066 0
M  V30 1259 H 121.424 2.36416 -3.08285 0
M  V30 1260 H 123.096 0.245362 -4.60647 0
M  V30 1261 H 121.339 0.161398 -4.335 0
M  V30 1262 H 122.01 1.46286 -5.32264 0
M  V30 1263 H 124.486 2.18983 -3.53816 0
M  V30 1264 H 123.362 3.2569 -4.41834 0
M  V30 1265 H 123.623 3.5018 -2.69864 0
M  V30 1266 N 122.682 1.50554 0.465978 0
M  V30 1267 C 123.592 1.72585 1.58907 0
M  V30 1268 C 124.608 0.60911 1.6299 0
M  V30 1269 O 125.784 0.88804 1.80765 0
M  V30 1270 C 122.849 1.81995 2.95091 0
M  V30 1271 C 121.91 3.05751 3.01355 0
M  V30 1272 C 121.143 3.14702 4.31043 0
M  V30 1273 O 121.366 2.30313 5.21835 0
M  V30 1274 O 120.3 4.07468 4.43005 0
M  V30 1275 H 124.126 2.67799 1.43239 0
M  V30 1276 H 121.711 1.34711 0.646013 0
M  V30 1277 H 123.593 1.90335 3.75966 0
M  V30 1278 H 122.268 0.899659 3.10947 0
M  V30 1279 H 121.175 3.02908 2.19539 0
M  V30 1280 H 122.508 3.97375 2.90437 0
M  V30 1281 N 124.16 -0.719506 1.40217 0
M  V30 1282 C 125.406 -1.48152 1.38488 0
M  V30 1283 C 125.739 -1.94195 -0.0141867 0
M  V30 1284 O 125.014 -1.67884 -0.982096 0
M  V30 1285 C 125.297 -2.71035 2.37091 0
M  V30 1286 C 125.15 -2.30912 3.86005 0
M  V30 1287 C 126.469 -3.73182 2.33288 0
M  V30 1288 H 123.588 -0.537395 0.504357 0
M  V30 1289 H 126.23 -0.821472 1.71324 0
M  V30 1290 H 124.38 -3.27352 2.0922 0
M  V30 1291 H 126.052 -1.80107 4.24687 0
M  V30 1292 H 124.295 -1.62958 4.02029 0
M  V30 1293 H 124.966 -3.18978 4.50508 0
M  V30 1294 H 127.442 -3.26485 2.57966 0
M  V30 1295 H 126.318 -4.56806 3.04334 0
M  V30 1296 H 126.579 -4.21202 1.34317 0
M  V30 1297 N 125.638 -1.25649 -0.95132 0
M  V30 1298 C 126.915 -1.01361 -1.67288 0
M  V30 1299 C 127.295 0.459135 -2.06046 0
M  V30 1300 O 126.643 1.43723 -1.7764 0
M  V30 1301 C 126.853 -1.95256 -2.89268 0
M  V30 1302 C 128.201 -2.23289 -3.61147 0
M  V30 1303 O 129.225 -1.93041 -2.99355 0
M  V30 1304 O 128.084 -2.74741 -4.72419 0
M  V30 1305 H 125.178 -0.38464 -0.732107 0
M  V30 1306 H 127.724 -1.36817 -1.00395 0
M  V30 1307 H 126.496 -2.94685 -2.57442 0
M  V30 1308 H 126.119 -1.60218 -3.6389 0
M  V30 1309 N 127.117 1.15442 -1.07289 0
M  V30 1310 C 128.366 1.85557 -0.790669 0
M  V30 1311 C 128.679 1.83186 0.685739 0
M  V30 1312 O 129.885 2.48977 1.0827 0
M  V30 1313 C 128.341 3.33038 -1.36433 0
M  V30 1314 C 127.949 3.43856 -2.8717 0
M  V30 1315 C 129.693 4.0834 -1.1601 0
M  V30 1316 C 127.6 4.85482 -3.3773 0
M  V30 1317 H 126.53 0.695122 -0.292098 0
M  V30 1318 H 129.181 1.30219 -1.29287 0
M  V30 1319 H 127.563 3.88043 -0.789864 0
M  V30 1320 H 128.737 2.98961 -3.50655 0
M  V30 1321 H 127.052 2.81998 -3.06376 0
M  V30 1322 H 129.649 5.12859 -1.51262 0
M  V30 1323 H 129.992 4.16182 -0.0991007 0
M  V30 1324 H 130.525 3.59603 -1.70089 0
M  V30 1325 H 127.264 4.82823 -4.43353 0
M  V30 1326 H 126.784 5.30961 -2.78999 0
M  V30 1327 H 128.463 5.54335 -3.33648 0
M  V30 1328 N 128.595 0.856903 1.32268 0
M  V30 1329 C 129.558 0.308171 2.27119 0
M  V30 1330 C 130.558 -0.533421 1.51695 0
M  V30 1331 O 131.748 -0.344607 1.70757 0
M  V30 1332 C 128.88 -0.563757 3.36206 0
M  V30 1333 H 130.073 1.14535 2.77167 0
M  V30 1334 H 127.626 0.631421 1.42978 0
M  V30 1335 H 128.361 -1.42266 2.91429 0
M  V30 1336 H 128.146 0.0386749 3.92081 0
M  V30 1337 H 129.636 -0.940386 4.06874 0
M  V30 1338 N 130.073 -1.45103 0.615059 0
M  V30 1339 C 131.021 -2.32331 -0.111791 0
M  V30 1340 C 132.015 -1.46409 -0.852102 0
M  V30 1341 O 133.221 -1.62849 -0.766821 0
M  V30 1342 H 129.596 -0.749993 -0.0549072 0
M  V30 1343 H 131.567 -2.91407 0.642225 0
M  V30 1344 C 130.316 -3.3015 -1.09071 0
M  V30 1345 H 129.639 -3.96265 -0.530485 0
M  V30 1346 H 131.079 -3.93898 -1.56908 0
M  V30 1347 C 129.538 -2.57875 -2.168 0
M  V30 1348 O 130.068 -2.36567 -3.24652 0
M  V30 1349 N 128.274 -2.17884 -1.92289 0
M  V30 1350 H 127.821 -2.35413 -1.04587 0
M  V30 1351 H 127.779 -1.6985 -2.64572 0
M  V30 1352 N 131.551 -0.354651 -1.53558 0
M  V30 1353 C 132.461 0.50515 -2.29097 0
M  V30 1354 C 133.477 1.10223 -1.34636 0
M  V30 1355 O 134.653 1.11553 -1.67684 0
M  V30 1356 C 131.718 1.63479 -3.05738 0
M  V30 1357 C 130.779 1.06636 -4.15845 0
M  V30 1358 C 130.012 2.14217 -4.88822 0
M  V30 1359 O 130.235 3.35137 -4.61562 0
M  V30 1360 O 129.169 1.77887 -5.75013 0
M  V30 1361 H 132.995 -0.109237 -3.03503 0
M  V30 1362 H 130.58 -0.119357 -1.48922 0
M  V30 1363 H 132.462 2.2918 -3.5363 0
M  V30 1364 H 131.137 2.23478 -2.34178 0
M  V30 1365 H 130.044 0.373565 -3.7223 0
M  V30 1366 H 131.377 0.511081 -4.89539 0
M  V30 1367 N 133.029 1.57378 -0.0835403 0
M  V30 1368 C 134.257 1.98263 0.59157 0
M  V30 1369 C 134.672 0.962302 1.62435 0
M  V30 1370 O 134.029 -0.049581 1.82433 0
M  V30 1371 C 134.08 3.39214 1.24965 0
M  V30 1372 O 133.801 4.37339 0.258186 0
M  V30 1373 C 135.302 3.95038 2.01147 0
M  V30 1374 H 132.522 0.651773 0.159477 0
M  V30 1375 H 135.066 2.03878 -0.159415 0
M  V30 1376 H 133.221 3.34649 1.95164 0
M  V30 1377 H 133.635 5.19371 0.731734 0
M  V30 1378 H 135.109 4.95848 2.42567 0
M  V30 1379 H 135.586 3.32222 2.87272 0
M  V30 1380 H 136.192 4.0304 1.35789 0
M  V30 1381 N 134.507 -0.190092 1.56449 0
M  V30 1382 C 135.454 -1.23557 1.94942 0
M  V30 1383 C 136.424 -1.44972 0.810696 0
M  V30 1384 O 137.609 -1.58023 1.06927 0
M  V30 1385 C 134.749 -2.57416 2.2985 0
M  V30 1386 C 133.862 -2.43537 3.5681 0
M  V30 1387 C 132.997 -3.70134 3.81017 0
M  V30 1388 C 132.036 -3.51109 5.01387 0
M  V30 1389 N 131.173 -4.6973 5.21822 0
M  V30 1390 H 136.013 -0.900304 2.84075 0
M  V30 1391 H 133.55 -0.43318 1.40577 0
M  V30 1392 H 135.508 -3.35409 2.48106 0
M  V30 1393 H 134.138 -2.88975 1.43852 0
M  V30 1394 H 133.19 -1.56816 3.46573 0
M  V30 1395 H 134.502 -2.25415 4.4496 0
M  V30 1396 H 133.656 -4.56566 3.9954 0
M  V30 1397 H 132.395 -3.91215 2.91207 0
M  V30 1398 H 131.4 -2.63063 4.82782 0
M  V30 1399 H 132.625 -3.31468 5.9271 0
M  V30 1400 H 130.571 -4.91065 4.34961 0
M  V30 1401 H 130.488 -4.54452 6.0416 0
M  V30 1402 H 131.756 -5.57499 5.44808 0
M  V30 1403 N 135.985 -1.50799 -0.457987 0
M  V30 1404 C 137.262 -1.52968 -1.21902 0
M  V30 1405 C 137.642 -0.281906 -2.09209 0
M  V30 1406 O 136.99 0.734076 -2.16388 0
M  V30 1407 C 137.2 -2.8326 -2.03875 0
M  V30 1408 C 138.548 -3.34425 -2.6162 0
M  V30 1409 O 139.572 -2.8467 -2.14106 0
M  V30 1410 O 138.431 -4.21188 -3.48228 0
M  V30 1411 H 135.525 -0.614129 -0.553873 0
M  V30 1412 H 138.071 -1.63098 -0.468739 0
M  V30 1413 H 136.843 -3.65543 -1.39621 0
M  V30 1414 H 136.466 -2.76195 -2.8601 0
M  V30 1415 N 137.463 0.71206 -1.40597 0
M  V30 1416 C 138.879 1.02058 -1.22704 0
M  V30 1417 C 139.079 2.01228 -0.104729 0
M  V30 1418 O 138.135 2.4674 0.53624 0
M  V30 1419 C 139.448 1.56094 -2.57012 0
M  V30 1420 C 140.996 1.6806 -2.64054 0
M  V30 1421 C 141.471 2.25501 -3.9864 0
M  V30 1422 N 142.962 2.32882 -4.004 0
M  V30 1423 C 143.697 2.78317 -5.01325 0
M  V30 1424 N 143.193 3.23478 -6.12645 0
M  V30 1425 N 144.986 2.77733 -4.88693 0
M  V30 1426 H 137.137 0.0547896 -2.12329 0
M  V30 1427 H 139.4 0.0869027 -0.944008 0
M  V30 1428 H 139.106 0.906865 -3.39807 0
M  V30 1429 H 138.98 2.54564 -2.78347 0
M  V30 1430 H 141.367 2.32583 -1.81629 0
M  V30 1431 H 141.448 0.681802 -2.46546 0
M  V30 1432 H 141.092 1.61598 -4.81506 0
M  V30 1433 H 141.022 3.26102 -4.13479 0
M  V30 1434 H 143.513 2.00991 -3.20017 0
M  V30 1435 H 143.826 3.56725 -6.85542 0
M  V30 1436 H 142.171 3.21429 -6.16205 0
M  V30 1437 H 145.362 2.4179 -4.00818 0
M  V30 1438 H 145.535 3.12826 -5.67489 0
M  V30 1439 N 138.941 1.26152 0.944643 0
M  V30 1440 C 140.357 1.03189 1.21754 0
M  V30 1441 C 140.557 -0.245112 2.00004 0
M  V30 1442 O 139.613 -0.955176 2.33736 0
M  V30 1443 C 140.926 2.26119 1.98219 0
M  V30 1444 C 142.474 2.30984 2.11224 0
M  V30 1445 C 142.949 3.53597 2.91089 0
M  V30 1446 N 144.44 3.54053 2.98664 0
M  V30 1447 C 145.175 4.45593 3.60881 0
M  V30 1448 N 144.671 5.47416 4.24626 0
M  V30 1449 N 146.464 4.33252 3.58119 0
M  V30 1450 H 138.615 2.08177 0.421437 0
M  V30 1451 H 140.878 0.914723 0.248969 0
M  V30 1452 H 140.584 3.18984 1.48128 0
M  V30 1453 H 140.458 2.3009 2.98895 0
M  V30 1454 H 142.845 1.38635 2.60508 0
M  V30 1455 H 142.926 2.31026 1.09821 0
M  V30 1456 H 142.57 4.46273 2.42493 0
M  V30 1457 H 142.5 3.50802 3.92741 0
M  V30 1458 H 144.991 2.80403 2.53343 0
M  V30 1459 H 145.304 6.13459 4.69987 0
M  V30 1460 H 143.649 5.51278 4.23223 0
M  V30 1461 H 146.84 3.52924 3.0751 0
M  V30 1462 H 147.013 5.04786 4.06319 0
M  V30 1463 N 140.419 -1.14872 1.07899 0
M  V30 1464 C 141.668 -1.85135 0.800499 0
M  V30 1465 C 141.981 -1.83547 -0.676014 0
M  V30 1466 O 143.187 -2.49548 -1.06948 0
M  V30 1467 C 141.643 -3.3231 1.38197 0
M  V30 1468 C 141.251 -3.42329 2.8899 0
M  V30 1469 C 142.995 -4.0772 1.18174 0
M  V30 1470 C 140.902 -4.83684 3.403 0
M  V30 1471 H 139.832 -0.693563 0.29578 0
M  V30 1472 H 142.483 -1.29532 1.29976 0
M  V30 1473 H 140.865 -3.87618 0.810431 0
M  V30 1474 H 142.039 -2.97097 3.52236 0
M  V30 1475 H 140.354 -2.80369 3.07867 0
M  V30 1476 H 142.951 -5.12049 1.5398 0
M  V30 1477 H 143.294 -4.16124 0.12117 0
M  V30 1478 H 143.827 -3.58696 1.71994 0
M  V30 1479 H 140.566 -4.80465 4.45907 0
M  V30 1480 H 140.086 -5.29474 2.81811 0
M  V30 1481 H 141.765 -5.52558 3.36584 0
M  V30 1482 N 141.898 -0.863906 -1.31812 0
M  V30 1483 C 142.861 -0.320212 -2.26952 0
M  V30 1484 C 143.861 0.525369 -1.51975 0
M  V30 1485 O 145.051 0.335547 -1.70938 0
M  V30 1486 C 142.183 0.545919 -3.365 0
M  V30 1487 H 143.376 -1.16004 -2.76556 0
M  V30 1488 H 140.929 -0.638995 -1.42641 0
M  V30 1489 H 141.664 1.40718 -2.92179 0
M  V30 1490 H 141.449 -0.0594674 -3.92055 0
M  V30 1491 H 142.939 0.918796 -4.07367 0
M  V30 1492 N 143.376 1.44774 -0.622745 0
M  V30 1493 C 144.622 2.0242 -0.124083 0
M  V30 1494 C 144.955 1.4881 1.24777 0
M  V30 1495 O 144.23 0.668799 1.8264 0
M  V30 1496 C 144.513 3.59957 -0.101619 0
M  V30 1497 C 144.366 4.23867 -1.50521 0
M  V30 1498 C 145.685 4.36284 0.578272 0
M  V30 1499 H 142.804 0.735528 -0.0465645 0
M  V30 1500 H 145.446 1.72447 -0.797617 0
M  V30 1501 H 143.596 3.85623 0.471934 0
M  V30 1502 H 145.268 4.09336 -2.12701 0
M  V30 1503 H 143.511 3.81684 -2.06154 0
M  V30 1504 H 144.182 5.32843 -1.4416 0
M  V30 1505 H 146.658 4.16001 0.0906057 0
M  V30 1506 H 145.534 5.46004 0.563149 0
M  V30 1507 H 145.795 4.10271 1.64713 0
M  V30 1508 N 144.854 0.36279 1.53368 0
M  V30 1509 C 146.102 -0.227326 2.00817 0
M  V30 1510 C 146.423 -1.49511 1.25186 0
M  V30 1511 O 145.693 -1.92482 0.364348 0
M  V30 1512 H 144.273 -0.0869923 0.741917 0
M  V30 1513 H 146.935 0.488381 1.88682 0
M  V30 1514 H 146.031 -0.456273 3.08747 0
M  V30 1515 N 146.332 -1.57332 0.0918853 0
M  V30 1516 C 147.242 -2.17368 -0.882505 0
M  V30 1517 C 148.258 -1.14226 -1.31257 0
M  V30 1518 O 149.434 -1.46582 -1.38115 0
M  V30 1519 C 146.499 -2.73962 -2.12476 0
M  V30 1520 C 145.56 -3.92048 -1.7492 0
M  V30 1521 C 144.793 -4.45933 -2.93223 0
M  V30 1522 O 145.016 -3.98764 -4.07852 0
M  V30 1523 O 143.95 -5.36999 -2.71875 0
M  V30 1524 H 147.776 -3.01031 -0.40172 0
M  V30 1525 H 145.361 -1.48813 -0.132291 0
M  V30 1526 H 147.243 -3.10147 -2.85283 0
M  V30 1527 H 145.918 -1.93347 -2.59613 0
M  V30 1528 H 144.825 -3.6068 -0.993025 0
M  V30 1529 H 146.158 -4.74017 -1.32548 0
M  V30 1530 N 147.81 0.181792 -1.56548 0
M  V30 1531 C 149.058 0.89832 -1.81038 0
M  V30 1532 C 149.379 1.83232 -0.667164 0
M  V30 1533 O 148.649 1.93372 0.313673 0
M  V30 1534 H 147.229 0.33471 -0.667816 0
M  V30 1535 H 149.891 0.184116 -1.94028 0
M  V30 1536 H 148.987 1.4815 -2.74696 0
M  V30 1537 N 149.288 1.51039 0.449983 0
M  V30 1538 C 150.513 1.6715 1.22783 0
M  V30 1539 C 150.938 0.363081 1.84563 0
M  V30 1540 O 150.296 -0.675433 1.68249 0
M  V30 1541 C 150.344 2.77985 2.29689 0
M  V30 1542 O 149.448 2.40707 3.34864 0
M  V30 1543 H 148.789 0.557746 0.360299 0
M  V30 1544 H 151.319 1.97535 0.533005 0
M  V30 1545 H 151.329 3.01693 2.74673 0
M  V30 1546 H 150.004 3.72935 1.84098 0
M  V30 1547 H 148.581 2.27523 2.95445 0
M  V30 1548 N 150.766 -0.704594 1.40972 0
M  V30 1549 C 151.696 -1.83124 1.44872 0
M  V30 1550 C 152.677 -1.67281 0.30838 0
M  V30 1551 O 153.862 -1.87149 0.518556 0
M  V30 1552 C 150.992 -3.21181 1.32136 0
M  V30 1553 C 149.946 -3.51714 2.43888 0
M  V30 1554 C 149.272 -4.89032 2.16222 0
M  V30 1555 C 150.572 -3.516 3.86232 0
M  V30 1556 H 152.266 -1.80117 2.39161 0
M  V30 1557 H 149.812 -0.865145 1.15114 0
M  V30 1558 H 151.765 -3.99702 1.33479 0
M  V30 1559 H 150.489 -3.24791 0.343279 0
M  V30 1560 H 149.148 -2.75539 2.41813 0
M  V30 1561 H 148.796 -4.89256 1.16778 0
M  V30 1562 H 148.496 -5.10426 2.911 0
M  V30 1563 H 150.02 -5.69873 2.19265 0
M  V30 1564 H 151.434 -4.2014 3.9007 0
M  V30 1565 H 149.831 -3.84523 4.60719 0
M  V30 1566 H 150.901 -2.50757 4.15029 0
M  V30 1567 N 152.244 -1.26651 -0.937939 0
M  V30 1568 C 153.469 -1.15279 -1.72411 0
M  V30 1569 C 153.894 0.287866 -1.85884 0
M  V30 1570 O 153.252 1.20855 -1.35143 0
M  V30 1571 C 153.3 -1.83028 -3.10698 0
M  V30 1572 O 152.404 -1.12128 -3.96864 0
M  V30 1573 H 151.745 -0.401504 -0.528858 0
M  V30 1574 H 154.275 -1.67531 -1.1745 0
M  V30 1575 H 154.285 -1.89981 -3.6107 0
M  V30 1576 H 152.96 -2.87833 -3.00208 0
M  V30 1577 H 151.537 -1.13173 -3.55312 0
M  V30 1578 N 153.722 1.14298 -1.08507 0
M  V30 1579 C 154.968 1.85633 -0.816581 0
M  V30 1580 C 155.301 1.82784 0.656021 0
M  V30 1581 O 154.576 1.25926 1.48233 0
M  V30 1582 C 154.859 3.34223 -1.34041 0
M  V30 1583 C 154.712 3.45639 -2.87843 0
M  V30 1584 C 156.031 4.29356 -0.9665 0
M  V30 1585 H 153.15 0.67402 -0.298104 0
M  V30 1586 H 155.792 1.34214 -1.34487 0
M  V30 1587 H 153.942 3.78144 -0.89104 0
M  V30 1588 H 155.614 3.10498 -3.41158 0
M  V30 1589 H 153.857 2.86817 -3.25451 0
M  V30 1590 H 154.528 4.50089 -3.19569 0
M  V30 1591 H 157.004 3.93457 -1.35391 0
M  V30 1592 H 155.88 5.3178 -1.3602 0
M  V30 1593 H 156.141 4.41919 0.126362 0
M  V30 1594 N 155.201 0.870884 1.31352 0
M  V30 1595 C 156.449 0.48132 1.96285 0
M  V30 1596 C 156.77 -0.969813 1.69173 0
M  V30 1597 O 156.04 -1.67998 1.00764 0
M  V30 1598 H 154.62 0.175002 0.726212 0
M  V30 1599 H 157.282 1.11087 1.60143 0
M  V30 1600 H 156.378 0.639825 3.05471 0
M  V30 1601 N 156.679 -1.44442 0.630414 0
M  V30 1602 C 157.956 -1.9549 0.0655657 0
M  V30 1603 C 158.336 -1.5724 -1.40851 0
M  V30 1604 O 157.684 -0.846116 -2.12257 0
M  V30 1605 C 157.894 -3.47812 0.287691 0
M  V30 1606 C 159.242 -4.24216 0.180513 0
M  V30 1607 O 160.266 -3.55526 0.219019 0
M  V30 1608 O 159.125 -5.46434 0.0848493 0
M  V30 1609 H 156.219 -0.826688 -0.0227177 0
M  V30 1610 H 158.765 -1.54496 0.702068 0
M  V30 1611 H 157.537 -3.687 1.31056 0
M  V30 1612 H 157.16 -3.95751 -0.382984 0
M  V30 1613 N 158.157 -0.370918 -1.53173 0
M  V30 1614 C 159.404 0.217102 -2.01333 0
M  V30 1615 C 159.732 1.48338 -1.25802 0
M  V30 1616 O 158.987 1.92698 -0.34146 0
M  V30 1617 C 159.286 0.549696 -3.53147 0
M  V30 1618 C 158.952 -0.622872 -4.46577 0
M  V30 1619 C 157.614 -0.944595 -4.71838 0
M  V30 1620 C 159.966 -1.40819 -5.01816 0
M  V30 1621 C 157.294 -2.05351 -5.49589 0
M  V30 1622 C 159.646 -2.50757 -5.80778 0
M  V30 1623 C 158.31 -2.83458 -6.04324 0
M  V30 1624 H 157.58 0.0794431 -0.736729 0
M  V30 1625 H 160.227 -0.504481 -1.84736 0
M  V30 1626 H 158.532 1.35237 -3.6772 0
M  V30 1627 H 160.229 1.017 -3.87889 0
M  V30 1628 H 156.819 -0.36209 -4.27068 0
M  V30 1629 H 161.003 -1.17289 -4.82242 0
M  V30 1630 H 156.259 -2.3108 -5.6605 0
M  V30 1631 H 160.433 -3.12022 -6.22588 0
M  V30 1632 H 158.06 -3.69508 -6.64355 0
M  V30 1633 N 159.635 1.57281 -0.100228 0
M  V30 1634 C 160.86 1.99302 0.573881 0
M  V30 1635 C 161.285 0.979059 1.60611 0
M  V30 1636 O 160.643 -0.0517803 1.81226 0
M  V30 1637 C 160.691 3.40274 1.19358 0
M  V30 1638 O 159.795 3.41676 2.30935 0
M  V30 1639 H 159.136 0.647944 0.145138 0
M  V30 1640 H 161.666 2.03779 -0.183156 0
M  V30 1641 H 161.676 3.78078 1.53365 0
M  V30 1642 H 160.351 4.13594 0.437385 0
M  V30 1643 H 158.928 3.15672 1.98509 0
M  V30 1644 N 161.113 -0.173488 1.56642 0
M  V30 1645 C 162.063 -1.21941 1.92651 0
M  V30 1646 C 163.047 -1.39912 0.794577 0
M  V30 1647 O 164.239 -1.41919 1.05773 0
M  V30 1648 C 161.368 -2.55935 2.28806 0
M  V30 1649 C 160.454 -2.41667 3.48508 0
M  V30 1650 N 160.845 -1.9711 4.65813 0
M  V30 1651 C 159.143 -2.72499 3.53072 0
M  V30 1652 C 159.844 -1.95253 5.47952 0
M  V30 1653 N 158.82 -2.37575 4.88937 0
M  V30 1654 H 162.622 -0.866581 2.80834 0
M  V30 1655 H 160.136 -0.381776 1.57849 0
M  V30 1656 H 162.133 -3.31511 2.52797 0
M  V30 1657 H 160.793 -2.92022 1.41961 0
M  V30 1658 H 161.804 -1.67481 4.90072 0
M  V30 1659 H 158.481 -3.12639 2.767 0
M  V30 1660 H 159.871 -1.6252 6.51948 0
M  V30 1661 N 162.591 -1.51276 -0.441967 0
M  V30 1662 C 163.816 -1.67799 -1.21895 0
M  V30 1663 C 164.241 -0.372864 -1.84367 0
M  V30 1664 O 163.599 0.666501 -1.68604 0
M  V30 1665 C 163.647 -2.79199 -2.28211 0
M  V30 1666 O 162.751 -2.42479 -3.33583 0
M  V30 1667 H 162.092 -0.559649 -0.357336 0
M  V30 1668 H 164.622 -1.97815 -0.522522 0
M  V30 1669 H 164.632 -3.03146 -2.73069 0
M  V30 1670 H 163.307 -3.73906 -1.82118 0
M  V30 1671 H 161.884 -2.29087 -2.94234 0
M  V30 1672 N 164.069 0.697108 -1.41344 0
M  V30 1673 C 165.316 1.45714 -1.40619 0
M  V30 1674 C 165.644 1.94494 -0.0147907 0
M  V30 1675 O 164.899 1.69794 0.973066 0
M  V30 1676 C 165.198 2.68553 -2.35826 0
M  V30 1677 C 164.864 2.38438 -3.82698 0
M  V30 1678 C 163.526 2.29936 -4.22709 0
M  V30 1679 C 165.878 2.13567 -4.75435 0
M  V30 1680 C 163.206 1.94656 -5.53467 0
M  V30 1681 C 165.558 1.79797 -6.06511 0
M  V30 1682 C 164.222 1.69789 -6.45545 0
M  V30 1683 H 163.492 0.533206 -0.51456 0
M  V30 1684 H 166.139 0.796901 -1.74131 0
M  V30 1685 H 164.444 3.39503 -1.95563 0
M  V30 1686 H 166.141 3.2669 -2.32539 0
M  V30 1687 H 162.731 2.4595 -3.51008 0
M  V30 1688 H 166.915 2.19082 -4.45328 0
M  V30 1689 H 162.171 1.8546 -5.82593 0
M  V30 1690 H 166.345 1.59572 -6.77872 0
M  V30 1691 H 163.972 1.4222 -7.46778 0
M  V30 1692 N 165.547 1.27147 0.931209 0
M  V30 1693 C 166.772 1.16191 1.71797 0
M  V30 1694 C 167.197 -0.278004 1.86034 0
M  V30 1695 O 166.555 -1.20137 1.35782 0
M  V30 1696 C 166.603 1.84673 3.09723 0
M  V30 1697 O 165.707 1.14231 3.96264 0
M  V30 1698 H 165.048 0.404303 0.526721 0
M  V30 1699 H 167.578 1.68152 1.1656 0
M  V30 1700 H 167.588 1.91893 3.60057 0
M  V30 1701 H 166.263 2.89421 2.98677 0
M  V30 1702 H 164.84 1.15056 3.54706 0
M  V30 1703 N 167.025 -1.13721 1.09112 0
M  V30 1704 C 168.272 -1.84924 0.825192 0
M  V30 1705 C 168.6 -1.83347 -0.649151 0
M  V30 1706 O 167.855 -1.26449 -1.49362 0
M  V30 1707 C 168.154 -3.32861 1.30146 0
M  V30 1708 C 167.82 -3.54621 2.78486 0
M  V30 1709 C 166.482 -3.60268 3.18999 0
M  V30 1710 C 168.834 -3.62855 3.74146 0
M  V30 1711 C 166.162 -3.71679 4.53951 0
M  V30 1712 C 168.514 -3.75793 5.08883 0
M  V30 1713 C 167.178 -3.79692 5.4899 0
M  V30 1714 H 166.448 -0.676684 0.301959 0
M  V30 1715 H 169.095 -1.3428 1.36533 0
M  V30 1716 H 167.4 -3.85835 0.681064 0
M  V30 1717 H 169.097 -3.86395 1.07236 0
M  V30 1718 H 165.687 -3.50879 2.46134 0
M  V30 1719 H 169.871 -3.57775 3.43963 0
M  V30 1720 H 165.127 -3.72963 4.84467 0
M  V30 1721 H 169.301 -3.81107 5.82864 0
M  V30 1722 H 166.928 -3.88287 6.53558 0
M  V30 1723 N 168.503 -0.877838 -1.30888 0
M  V30 1724 C 169.413 -0.343096 -2.32078 0
M  V30 1725 C 170.429 0.551022 -1.65045 0
M  V30 1726 O 171.605 0.445854 -1.96403 0
M  V30 1727 C 168.67 0.439905 -3.43898 0
M  V30 1728 C 167.731 -0.483111 -4.26573 0
M  V30 1729 C 166.964 0.262616 -5.33053 0
M  V30 1730 O 167.187 1.48967 -5.50604 0
M  V30 1731 O 166.121 -0.383593 -6.00676 0
M  V30 1732 H 169.947 -1.18203 -2.79753 0
M  V30 1733 H 167.532 -0.64145 -1.34929 0
M  V30 1734 H 169.414 0.883504 -4.12034 0
M  V30 1735 H 168.089 1.25526 -2.98371 0
M  V30 1736 H 166.996 -0.975374 -3.61161 0
M  V30 1737 H 168.329 -1.26427 -4.75686 0
M  V30 1738 N 169.982 1.44106 -0.638065 0
M  V30 1739 C 171.23 2.01579 -0.145043 0
M  V30 1740 C 171.551 1.50496 1.24 0
M  V30 1741 O 170.821 0.711374 1.82527 0
M  V30 1742 H 169.401 0.745282 -0.05063 0
M  V30 1743 H 172.063 1.76516 -0.826327 0
M  V30 1744 H 171.159 3.11877 -0.118039 0
M  V30 1745 N 171.46 0.379036 1.52974 0
M  V30 1746 C 172.392 -0.495963 2.2377 0
M  V30 1747 C 173.405 -1.03517 1.25651 0
M  V30 1748 O 174.594 -0.939249 1.51791 0
M  V30 1749 C 171.694 -1.69894 2.93239 0
M  V30 1750 C 170.867 -1.2889 4.17979 0
M  V30 1751 C 169.926 -2.35543 4.70538 0
M  V30 1752 O 168.952 -1.97375 5.33883 0
M  V30 1753 N 170.154 -3.67318 4.49508 0
M  V30 1754 H 172.919 0.110523 2.99496 0
M  V30 1755 H 170.48 0.204878 1.60598 0
M  V30 1756 H 172.472 -2.40747 3.25304 0
M  V30 1757 H 171.042 -2.212 2.20883 0
M  V30 1758 H 170.262 -0.409676 3.92065 0
M  V30 1759 H 171.55 -0.991443 4.99047 0
M  V30 1760 H 170.948 -4.01095 3.98923 0
M  V30 1761 H 169.505 -4.34235 4.8609 0
M  V30 1762 N 172.938 -1.57226 0.108567 0
M  V30 1763 C 174.184 -1.95121 -0.552761 0
M  V30 1764 C 174.517 -0.991345 -1.66991 0
M  V30 1765 O 173.792 -0.0267211 -1.94482 0
M  V30 1766 C 174.075 -3.43039 -1.09528 0
M  V30 1767 C 173.928 -4.49797 0.0177332 0
M  V30 1768 C 175.247 -3.92567 -1.98945 0
M  V30 1769 H 172.366 -0.709496 -0.199461 0
M  V30 1770 H 175.008 -1.89126 0.182011 0
M  V30 1771 H 173.158 -3.48279 -1.72146 0
M  V30 1772 H 174.83 -4.56661 0.652584 0
M  V30 1773 H 173.073 -4.284 0.682309 0
M  V30 1774 H 173.744 -5.50528 -0.402919 0
M  V30 1775 H 176.22 -3.89565 -1.46214 0
M  V30 1776 H 175.096 -4.96605 -2.33827 0
M  V30 1777 H 175.357 -3.32648 -2.91201 0
M  V30 1778 N 174.416 0.165178 -1.56732 0
M  V30 1779 C 175.662 0.882112 -1.82611 0
M  V30 1780 C 175.995 1.81628 -0.687378 0
M  V30 1781 O 175.27 1.92009 0.310267 0
M  V30 1782 C 175.553 1.67245 -3.18906 0
M  V30 1783 C 175.406 0.760987 -4.43316 0
M  V30 1784 C 176.725 2.63884 -3.52212 0
M  V30 1785 H 173.844 0.319242 -0.664269 0
M  V30 1786 H 176.486 0.148052 -1.89422 0
M  V30 1787 H 174.636 2.29824 -3.1323 0
M  V30 1788 H 176.308 0.147596 -4.61064 0
M  V30 1789 H 174.551 0.0694102 -4.33744 0
M  V30 1790 H 175.222 1.34962 -5.35247 0
M  V30 1791 H 177.698 2.11429 -3.58381 0
M  V30 1792 H 176.574 3.16245 -4.48643 0
M  V30 1793 H 176.835 3.44377 -2.77231 0
M  V30 1794 N 175.894 1.51508 0.433938 0
M  V30 1795 C 176.842 1.73646 1.54757 0
M  V30 1796 C 177.836 0.602854 1.5831 0
M  V30 1797 O 179.042 0.784318 1.62014 0
M  V30 1798 H 175.417 0.548718 0.51421 0
M  V30 1799 H 177.388 2.66991 1.33261 0
M  V30 1800 C 176.137 1.88172 2.92381 0
M  V30 1801 H 175.46 2.74808 2.90381 0
M  V30 1802 H 176.9 2.07672 3.6966 0
M  V30 1803 C 175.359 0.64239 3.30719 0
M  V30 1804 O 175.889 -0.201362 4.01195 0
M  V30 1805 N 174.095 0.485489 2.86516 0
M  V30 1806 H 173.642 1.17318 2.29334 0
M  V30 1807 H 173.6 -0.342482 3.12529 0
M  V30 1808 N 177.372 -0.689602 1.41712 0
M  V30 1809 C 178.305 -1.81403 1.3845 0
M  V30 1810 C 179.283 -1.60653 0.250874 0
M  V30 1811 O 180.467 -1.83323 0.43874 0
M  V30 1812 C 177.594 -3.18176 1.1611 0
M  V30 1813 C 176.64 -3.57705 2.3227 0
M  V30 1814 S 177.473 -3.61827 3.94767 0
M  V30 1815 C 178.629 -5.01318 3.74742 0
M  V30 1816 H 178.862 -1.83893 2.33603 0
M  V30 1817 H 176.395 -0.858878 1.28307 0
M  V30 1818 H 178.353 -3.97132 1.03907 0
M  V30 1819 H 177.014 -3.13288 0.225668 0
M  V30 1820 H 176.207 -4.57082 2.12349 0
M  V30 1821 H 175.809 -2.86073 2.40911 0
M  V30 1822 H 178.101 -5.88986 3.34817 0
M  V30 1823 H 179.044 -5.26283 4.73743 0
M  V30 1824 H 179.452 -4.73138 3.07898 0
M  V30 1825 N 178.85 -1.27639 -0.924453 0
M  V30 1826 C 180.08 -1.16819 -1.70402 0
M  V30 1827 C 180.488 0.277191 -1.87158 0
M  V30 1828 O 179.831 1.20025 -1.39067 0
M  V30 1829 C 179.893 -1.78305 -3.12166 0
M  V30 1830 C 179.557 -3.27502 -3.18734 0
M  V30 1831 C 180.554 -4.2409 -3.00738 0
M  V30 1832 C 178.239 -3.68269 -3.4159 0
M  V30 1833 C 180.233 -5.59422 -3.05492 0
M  V30 1834 C 177.92 -5.0373 -3.45977 0
M  V30 1835 C 178.918 -5.99116 -3.27946 0
M  V30 1836 O 178.606 -7.32108 -3.32074 0
M  V30 1837 H 178.338 -0.406931 -0.539799 0
M  V30 1838 H 180.892 -1.69078 -1.16626 0
M  V30 1839 H 179.122 -1.20528 -3.67437 0
M  V30 1840 H 180.811 -1.62154 -3.72103 0
M  V30 1841 H 181.577 -3.93931 -2.82919 0
M  V30 1842 H 177.456 -2.94496 -3.54673 0
M  V30 1843 H 181 -6.33852 -2.91337 0
M  V30 1844 H 176.897 -5.33543 -3.63321 0
M  V30 1845 H 177.665 -7.40598 -3.48507 0
M  V30 1846 N 180.328 1.1314 -1.09713 0
M  V30 1847 C 181.558 1.88048 -0.855656 0
M  V30 1848 C 181.966 1.79537 0.596919 0
M  V30 1849 O 181.309 1.16196 1.42282 0
M  V30 1850 C 181.371 3.38314 -1.21589 0
M  V30 1851 C 181.035 3.70605 -2.67397 0
M  V30 1852 C 182.032 3.69596 -3.65643 0
M  V30 1853 C 179.717 4.0017 -3.03593 0
M  V30 1854 C 181.711 3.977 -4.9811 0
M  V30 1855 C 179.398 4.27935 -4.36251 0
M  V30 1856 C 180.396 4.26685 -5.33318 0
M  V30 1857 O 180.084 4.53767 -6.63589 0
M  V30 1858 H 179.816 0.60208 -0.307368 0
M  V30 1859 H 182.37 1.44128 -1.46343 0
M  V30 1860 H 180.6 3.82752 -0.551177 0
M  V30 1861 H 182.289 3.94552 -0.953083 0
M  V30 1862 H 183.055 3.46826 -3.39023 0
M  V30 1863 H 178.934 4.00289 -2.2867 0
M  V30 1864 H 182.478 3.9664 -5.73866 0
M  V30 1865 H 178.375 4.50178 -4.62613 0
M  V30 1866 H 179.143 4.71422 -6.69107 0
M  V30 1867 N 181.806 0.884767 1.30421 0
M  V30 1868 C 183.036 0.517293 2.00019 0
M  V30 1869 C 183.444 -0.898632 1.66497 0
M  V30 1870 O 182.787 -1.60245 0.898181 0
M  V30 1871 C 182.849 0.612025 3.54252 0
M  V30 1872 C 182.513 1.99222 4.1129 0
M  V30 1873 C 183.51 2.9616 4.273 0
M  V30 1874 C 181.195 2.29755 4.46674 0
M  V30 1875 C 183.189 4.21764 4.77906 0
M  V30 1876 C 180.876 3.55606 4.96979 0
M  V30 1877 C 181.874 4.51425 5.12547 0
M  V30 1878 O 181.562 5.75043 5.61766 0
M  V30 1879 H 181.294 0.198529 0.64619 0
M  V30 1880 H 183.848 1.1919 1.67281 0
M  V30 1881 H 182.078 -0.119561 3.86515 0
M  V30 1882 H 183.767 0.255859 4.05093 0
M  V30 1883 H 184.533 2.73882 4.00267 0
M  V30 1884 H 180.412 1.55942 4.33824 0
M  V30 1885 H 183.956 4.96561 4.89972 0
M  V30 1886 H 179.853 3.7772 5.23448 0
M  V30 1887 H 180.621 5.77422 5.80109 0
M  V30 1888 N 183.284 -1.43765 0.645699 0
M  V30 1889 C 184.7 -1.56509 0.312591 0
M  V30 1890 C 184.9 -1.6307 -1.18365 0
M  V30 1891 O 183.956 -1.58167 -1.96824 0
M  V30 1892 C 185.269 -2.82968 1.01733 0
M  V30 1893 C 186.817 -2.96701 0.996865 0
M  V30 1894 C 187.292 -4.25982 1.68236 0
M  V30 1895 N 188.783 -4.32829 1.64964 0
M  V30 1896 C 189.518 -5.31613 2.14885 0
M  V30 1897 N 189.014 -6.36718 2.73061 0
M  V30 1898 N 190.807 -5.23217 2.05428 0
M  V30 1899 H 182.958 -1.3775 1.61675 0
M  V30 1900 H 185.221 -0.661067 0.679481 0
M  V30 1901 H 184.927 -2.84156 2.0724 0
M  V30 1902 H 184.801 -3.72957 0.564177 0
M  V30 1903 H 187.188 -2.95058 -0.0497719 0
M  V30 1904 H 187.269 -2.08022 1.48865 0
M  V30 1905 H 186.913 -4.28386 2.72852 0
M  V30 1906 H 186.843 -5.13545 1.16529 0
M  V30 1907 H 189.334 -3.57493 1.22503 0
M  V30 1908 H 189.647 -7.08401 3.08848 0
M  V30 1909 H 187.992 -6.37362 2.77118 0
M  V30 1910 H 191.183 -4.40019 1.59689 0
M  V30 1911 H 191.356 -6.00045 2.44643 0
M  V30 1912 N 184.763 -0.387143 -1.52771 0
M  V30 1913 C 185.988 0.198407 -2.06449 0
M  V30 1914 C 186.413 1.39918 -1.25716 0
M  V30 1915 O 185.771 1.79099 -0.281657 0
M  V30 1916 C 185.819 0.548893 -3.56398 0
M  V30 1917 O 184.923 1.64315 -3.78252 0
M  V30 1918 H 184.264 0.0237731 -0.663574 0
M  V30 1919 H 186.794 -0.553989 -1.96957 0
M  V30 1920 H 186.804 0.813812 -3.99801 0
M  V30 1921 H 185.479 -0.329005 -4.14597 0
M  V30 1922 H 184.056 1.37211 -3.46738 0
M  V30 1923 N 186.241 1.57166 -0.116904 0
M  V30 1924 C 187.518 1.86645 0.585049 0
M  V30 1925 C 187.898 1.0177 1.84949 0
M  V30 1926 O 187.246 0.0960379 2.28298 0
M  V30 1927 C 187.456 3.37736 0.879507 0
M  V30 1928 C 188.804 4.06289 1.23348 0
M  V30 1929 O 189.828 3.42743 0.969836 0
M  V30 1930 O 188.687 5.18455 1.7282 0
M  V30 1931 H 185.781 0.772593 0.295007 0
M  V30 1932 H 188.327 1.69025 -0.151249 0
M  V30 1933 H 187.099 3.91296 -0.0166136 0
M  V30 1934 H 186.722 3.6078 1.67103 0
M  V30 1935 N 187.719 -0.156864 1.56817 0
M  V30 1936 C 188.682 -1.17781 1.96622 0
M  V30 1937 C 189.682 -1.36401 0.851555 0
M  V30 1938 O 190.872 -1.33561 1.11836 0
M  V30 1939 C 188.004 -2.54008 2.27361 0
M  V30 1940 H 189.197 -0.836564 2.87996 0
M  V30 1941 H 186.75 -0.39985 1.51099 0
M  V30 1942 H 187.485 -2.9312 1.38748 0
M  V30 1943 H 187.27 -2.41856 3.08623 0
M  V30 1944 H 188.76 -3.27558 2.59029 0
M  V30 1945 N 189.197 -1.51736 -0.425897 0
M  V30 1946 C 190.443 -1.65214 -1.1761 0
M  V30 1947 C 190.776 -0.372778 -1.90589 0
M  V30 1948 O 190.051 0.628139 -1.84078 0
M  V30 1949 C 190.334 -2.86312 -2.18398 0
M  V30 1950 C 190.187 -4.24254 -1.49426 0
M  V30 1951 C 191.506 -3.02925 -3.19256 0
M  V30 1952 H 188.625 -0.601263 -0.426206 0
M  V30 1953 H 191.267 -1.8425 -0.463882 0
M  V30 1954 H 189.417 -2.70213 -2.79137 0
M  V30 1955 H 191.089 -4.52046 -0.919362 0
M  V30 1956 H 189.332 -4.26426 -0.796432 0
M  V30 1957 H 190.003 -5.05001 -2.22885 0
M  V30 1958 H 192.479 -3.1781 -2.68581 0
M  V30 1959 H 191.355 -3.89199 -3.8706 0
M  V30 1960 H 191.616 -2.15497 -3.86023 0
M  V30 1961 N 190.675 0.682077 -1.42076 0
M  V30 1962 C 192.091 0.994324 -1.24841 0
M  V30 1963 C 192.291 2.0096 -0.147389 0
M  V30 1964 O 191.347 2.47822 0.483782 0
M  V30 1965 C 192.66 1.50607 -2.60265 0
M  V30 1966 C 194.208 1.62421 -2.6756 0
M  V30 1967 C 194.683 2.16994 -4.03333 0
M  V30 1968 N 196.174 2.24337 -4.0525 0
M  V30 1969 C 196.909 2.67621 -5.07116 0
M  V30 1970 N 196.405 3.1041 -6.19368 0
M  V30 1971 N 198.198 2.67305 -4.94474 0
M  V30 1972 H 190.349 0.00973908 -2.12398 0
M  V30 1973 H 192.612 0.0668593 -0.945639 0
M  V30 1974 H 192.318 0.834583 -3.41654 0
M  V30 1975 H 192.192 2.48602 -2.83684 0
M  V30 1976 H 194.579 2.28678 -1.86521 0
M  V30 1977 H 194.66 0.629352 -2.47937 0
M  V30 1978 H 194.304 1.51349 -4.84826 0
M  V30 1979 H 194.234 3.17258 -4.20304 0
M  V30 1980 H 196.725 1.94158 -3.24209 0
M  V30 1981 H 197.038 3.42103 -6.92954 0
M  V30 1982 H 195.383 3.08286 -6.22884 0
M  V30 1983 H 198.574 2.33233 -4.05857 0
M  V30 1984 H 198.747 3.00718 -5.73997 0
M  V30 1985 N 192.153 1.28127 0.917671 0
M  V30 1986 C 193.569 1.05749 1.19538 0
M  V30 1987 C 193.769 -0.202633 2.00479 0
M  V30 1988 O 192.825 -0.905382 2.3571 0
M  V30 1989 C 194.138 2.30273 1.93378 0
M  V30 1990 C 195.686 2.35412 2.06277 0
M  V30 1991 C 196.161 3.59692 2.83524 0
M  V30 1992 N 197.652 3.60309 2.91087 0
M  V30 1993 C 198.387 4.53147 3.51348 0
M  V30 1994 N 197.883 5.563 4.12919 0
M  V30 1995 N 199.676 4.40751 3.48849 0
M  V30 1996 H 191.827 2.09024 0.377184 0
M  V30 1997 H 194.09 0.919798 0.22951 0
M  V30 1998 H 193.796 3.22055 1.41328 0
M  V30 1999 H 193.67 2.36378 2.93947 0
M  V30 2000 H 196.057 1.4413 2.57508 0
M  V30 2001 H 196.138 2.33304 1.04895 0
M  V30 2002 H 195.782 4.51316 2.32973 0
M  V30 2003 H 195.712 3.59054 3.85211 0
M  V30 2004 H 198.203 2.85714 2.47338 0
M  V30 2005 H 198.516 6.2329 4.56869 0
M  V30 2006 H 196.861 5.60131 4.11435 0
M  V30 2007 H 200.052 3.59367 2.99955 0
M  V30 2008 H 200.225 5.13291 3.9552 0
M  V30 2009 N 193.631 -1.12557 1.10312 0
M  V30 2010 C 194.579 -2.20325 0.745629 0
M  V30 2011 C 195.573 -1.67429 -0.25763 0
M  V30 2012 O 196.779 -1.79612 -0.118132 0
M  V30 2013 H 193.154 -0.718118 0.223182 0
M  V30 2014 H 195.125 -2.47733 1.66346 0
M  V30 2015 C 193.874 -3.47168 0.192262 0
M  V30 2016 H 193.197 -3.88215 0.955475 0
M  V30 2017 H 194.637 -4.23995 -0.0198274 0
M  V30 2018 C 193.096 -3.19298 -1.07472 0
M  V30 2019 O 193.626 -3.3891 -2.15645 0
M  V30 2020 N 191.832 -2.73113 -0.992847 0
M  V30 2021 H 191.379 -2.57354 -0.112474 0
M  V30 2022 H 191.337 -2.54842 -1.84127 0
M  V30 2023 N 195.109 -0.891671 -1.2995 0
M  V30 2024 C 196.358 -0.509521 -1.95158 0
M  V30 2025 C 196.671 0.947388 -1.71125 0
M  V30 2026 O 197.877 1.43669 -2.30372 0
M  V30 2027 C 196.333 -0.860315 -3.49466 0
M  V30 2028 C 195.941 -2.33545 -3.8231 0
M  V30 2029 C 197.685 -0.547687 -4.20952 0
M  V30 2030 C 195.592 -2.62752 -5.29826 0
M  V30 2031 H 194.522 -0.18682 -0.730489 0
M  V30 2032 H 197.173 -1.08756 -1.47798 0
M  V30 2033 H 195.555 -0.211285 -3.95436 0
M  V30 2034 H 196.729 -3.02936 -3.47227 0
M  V30 2035 H 195.044 -2.61629 -3.23944 0
M  V30 2036 H 197.641 -0.742854 -5.29515 0
M  V30 2037 H 197.984 0.51332 -4.13123 0
M  V30 2038 H 198.517 -1.1542 -3.80688 0
M  V30 2039 H 195.256 -3.6762 -5.42712 0
M  V30 2040 H 194.776 -1.97977 -5.66185 0
M  V30 2041 H 196.455 -2.48601 -5.97333 0
M  V30 2042 N 196.587 1.43421 -0.653314 0
M  V30 2043 C 197.998 1.85065 -0.246537 0
M  V30 2044 C 198.349 1.54688 1.2069 0
M  V30 2045 O 197.474 0.995896 1.92122 0
M  V30 2046 C 198.069 3.35922 -0.440666 0
M  V30 2047 C 196.628 3.76297 -0.0882064 0
M  V30 2048 C 195.775 2.67147 -0.743484 0
M  V30 2049 H 198.726 1.33572 -0.856979 0
M  V30 2050 H 198.747 3.79204 0.313798 0
M  V30 2051 H 198.259 3.58 -1.49858 0
M  V30 2052 H 196.36 3.5983 0.96711 0
M  V30 2053 H 196.473 4.76338 -0.513738 0
M  V30 2054 H 194.837 2.54086 -0.176712 0
M  V30 2055 H 195.62 2.92053 -1.80443 0
M  V30 2056 N 198.065 0.39524 1.52563 0
M  V30 2057 C 199.013 -0.451859 2.28169 0
M  V30 2058 C 200.007 -1.05792 1.32304 0
M  V30 2059 O 201.213 -0.997718 1.49818 0
M  V30 2060 H 197.588 -0.164481 0.733792 0
M  V30 2061 H 199.559 0.207199 2.9768 0
M  V30 2062 C 198.308 -1.56385 3.10546 0
M  V30 2063 H 197.631 -1.10682 3.84174 0
M  V30 2064 H 199.071 -2.13067 3.66577 0
M  V30 2065 C 197.53 -2.52328 2.23231 0
M  V30 2066 O 198.06 -3.5588 1.86312 0
M  V30 2067 N 196.266 -2.22209 1.87274 0
M  V30 2068 H 195.813 -1.38033 2.17496 0
M  V30 2069 H 195.771 -2.86652 1.29143 0
M  V30 2070 N 199.544 -1.57102 0.125237 0
M  V30 2071 C 200.955 -1.82384 -0.399142 0
M  V30 2072 C 201.306 -1.04276 -1.66195 0
M  V30 2073 O 200.431 -0.281269 -2.14564 0
M  V30 2074 C 201.026 -3.30821 -0.730932 0
M  V30 2075 C 199.585 -3.56762 -1.19992 0
M  V30 2076 C 198.732 -2.7649 -0.211792 0
M  V30 2077 H 201.683 -1.54786 0.350277 0
M  V30 2078 H 201.704 -3.4579 -1.58775 0
M  V30 2079 H 201.216 -3.87643 0.188345 0
M  V30 2080 H 199.317 -3.05305 -2.13588 0
M  V30 2081 H 199.43 -4.65317 -1.14093 0
M  V30 2082 H 197.794 -2.4489 -0.700085 0
M  V30 2083 H 198.577 -3.36073 0.700691 0
M  V30 2084 N 201.022 0.148545 -1.56898 0
M  V30 2085 C 202.271 0.85984 -1.82454 0
M  V30 2086 C 202.584 1.82406 -0.706229 0
M  V30 2087 O 203.79 2.57938 -0.847349 0
M  V30 2088 C 202.246 1.57967 -3.2338 0
M  V30 2089 C 201.854 0.65794 -4.43142 0
M  V30 2090 C 203.598 2.27784 -3.58211 0
M  V30 2091 C 201.505 1.3793 -5.75091 0
M  V30 2092 H 200.435 0.324834 -0.68044 0
M  V30 2093 H 203.086 0.112588 -1.83154 0
M  V30 2094 H 201.468 2.37249 -3.17063 0
M  V30 2095 H 202.642 -0.0995497 -4.60692 0
M  V30 2096 H 200.957 0.0682643 -4.16344 0
M  V30 2097 H 203.554 2.8239 -4.54048 0
M  V30 2098 H 203.897 3.04204 -2.84193 0
M  V30 2099 H 204.43 1.55421 -3.66182 0
M  V30 2100 H 201.169 0.656982 -6.52199 0
M  V30 2101 H 200.689 2.10954 -5.61479 0
M  V30 2102 H 202.368 1.92063 -6.17835 0
M  V30 2103 N 202.5 1.5196 0.417844 0
M  V30 2104 C 203.73 1.69181 1.18581 0
M  V30 2105 C 204.138 0.397104 1.84986 0
M  V30 2106 O 203.481 -0.636011 1.72339 0
M  V30 2107 C 203.543 2.76497 2.29759 0
M  V30 2108 C 203.207 4.18514 1.83563 0
M  V30 2109 C 204.204 5.02648 1.32821 0
M  V30 2110 C 201.889 4.64708 1.90661 0
M  V30 2111 C 203.883 6.31044 0.897894 0
M  V30 2112 C 201.57 5.93096 1.47241 0
M  V30 2113 C 202.568 6.76093 0.968891 0
M  V30 2114 O 202.256 8.02078 0.540924 0
M  V30 2115 H 201.988 0.570457 0.362705 0
M  V30 2116 H 204.542 1.99249 0.498885 0
M  V30 2117 H 202.772 2.41786 3.01789 0
M  V30 2118 H 204.461 2.82403 2.91553 0
M  V30 2119 H 205.227 4.68154 1.26716 0
M  V30 2120 H 201.106 4.00216 2.28797 0
M  V30 2121 H 204.65 6.95776 0.504192 0
M  V30 2122 H 200.547 6.271 1.53022 0
M  V30 2123 H 201.315 8.15794 0.66502 0
M  V30 2124 N 203.978 -0.674533 1.42435 0
M  V30 2125 C 204.911 -1.79924 1.40366 0
M  V30 2126 C 205.889 -1.60378 0.267899 0
M  V30 2127 O 207.073 -1.82847 0.458159 0
M  V30 2128 C 204.2 -3.16927 1.19478 0
M  V30 2129 C 203.246 -3.55221 2.36051 0
M  V30 2130 S 204.079 -3.5762 3.98583 0
M  V30 2131 C 205.235 -4.97315 3.80038 0
M  V30 2132 H 205.468 -1.81405 2.35541 0
M  V30 2133 H 203.001 -0.845221 1.29211 0
M  V30 2134 H 204.959 -3.96007 1.08114 0
M  V30 2135 H 203.62 -3.13031 0.258883 0
M  V30 2136 H 202.813 -4.54804 2.17185 0
M  V30 2137 H 202.415 -2.83502 2.43932 0
M  V30 2138 H 204.707 -5.85401 3.41045 0
M  V30 2139 H 205.65 -5.21228 4.79298 0
M  V30 2140 H 206.058 -4.69845 3.12899 0
M  V30 2141 N 205.456 -1.28612 -0.910864 0
M  V30 2142 C 206.388 -1.08589 -2.01844 0
M  V30 2143 C 207.401 -0.0367419 -1.62759 0
M  V30 2144 O 208.59 -0.280101 -1.76289 0
M  V30 2145 C 205.69 -0.628626 -3.33019 0
M  V30 2146 C 204.863 -1.75382 -4.00699 0
M  V30 2147 C 203.922 -1.28945 -5.10156 0
M  V30 2148 O 202.948 -1.9922 -5.33198 0
M  V30 2149 N 204.15 -0.154224 -5.80295 0
M  V30 2150 H 206.915 -2.03973 -2.19579 0
M  V30 2151 H 204.476 -1.20403 -1.08234 0
M  V30 2152 H 206.468 -0.301508 -4.03575 0
M  V30 2153 H 205.038 0.232451 -3.11735 0
M  V30 2154 H 204.258 -2.25039 -3.23653 0
M  V30 2155 H 205.546 -2.50854 -4.42662 0
M  V30 2156 H 204.944 0.43194 -5.64049 0
M  V30 2157 H 203.501 0.113599 -6.51701 0
M  V30 2158 N 206.934 1.1197 -1.10907 0
M  V30 2159 C 208.182 1.83225 -0.852819 0
M  V30 2160 C 208.503 1.84769 0.623341 0
M  V30 2161 O 207.773 1.3143 1.45269 0
M  V30 2162 H 206.353 0.67849 -0.312507 0
M  V30 2163 H 209.015 1.3556 -1.40033 0
M  V30 2164 H 208.111 2.87265 -1.22005 0
M  V30 2165 N 208.412 0.89855 1.29475 0
M  V30 2166 C 209.828 0.594483 1.48115 0
M  V30 2167 C 210.028 -0.86431 1.82022 0
M  V30 2168 O 209.084 -1.64457 1.91599 0
M  V30 2169 C 210.397 1.51932 2.59494 0
M  V30 2170 C 211.945 1.5244 2.7337 0
M  V30 2171 C 212.42 2.43548 3.87877 0
M  V30 2172 N 213.911 2.41589 3.95208 0
M  V30 2173 C 214.646 3.08789 4.83153 0
M  V30 2174 N 214.142 3.85265 5.75798 0
M  V30 2175 N 215.935 2.97952 4.76635 0
M  V30 2176 H 208.086 1.84207 1.05742 0
M  V30 2177 H 210.349 0.789251 0.525154 0
M  V30 2178 H 210.055 2.55865 2.41301 0
M  V30 2179 H 209.929 1.23899 3.56271 0
M  V30 2180 H 212.316 0.492518 2.90961 0
M  V30 2181 H 212.397 1.8451 1.77172 0
M  V30 2182 H 212.041 3.46829 3.71041 0
M  V30 2183 H 211.971 2.08788 4.83441 0
M  V30 2184 H 214.462 1.86025 3.28943 0
M  V30 2185 H 214.775 4.33598 6.39697 0
M  V30 2186 H 213.12 3.89371 5.75687 0
M  V30 2187 H 216.311 2.37723 4.03244 0
M  V30 2188 H 216.484 3.50599 5.44962 0
M  V30 2189 N 209.89 -1.43072 0.660911 0
M  V30 2190 C 210.822 -2.29108 -0.0647641 0
M  V30 2191 C 211.835 -1.42928 -0.779448 0
M  V30 2192 O 213.024 -1.66788 -0.635921 0
M  V30 2193 C 210.124 -3.20032 -1.11503 0
M  V30 2194 C 209.297 -4.34792 -0.476955 0
M  V30 2195 C 208.356 -5.06534 -1.42513 0
M  V30 2196 O 207.382 -5.61538 -0.930771 0
M  V30 2197 N 208.584 -5.1075 -2.75889 0
M  V30 2198 H 211.349 -2.92029 0.673731 0
M  V30 2199 H 208.91 -1.53846 0.50427 0
M  V30 2200 H 210.902 -3.64892 -1.75032 0
M  V30 2201 H 209.472 -2.58658 -1.75541 0
M  V30 2202 H 208.692 -3.92752 0.337572 0
M  V30 2203 H 209.98 -5.0879 -0.0318525 0
M  V30 2204 H 209.378 -4.67447 -3.18606 0
M  V30 2205 H 207.935 -5.59302 -3.347 0
M  V30 2206 N 211.368 -0.403325 -1.52352 0
M  V30 2207 C 212.615 0.174347 -2.01748 0
M  V30 2208 C 212.943 1.45636 -1.2892 0
M  V30 2209 O 212.198 1.9193 -0.382258 0
M  V30 2210 C 212.497 0.474665 -3.54234 0
M  V30 2211 C 212.163 -0.717458 -4.45155 0
M  V30 2212 C 210.825 -1.04447 -4.69728 0
M  V30 2213 C 213.177 -1.51432 -4.98716 0
M  V30 2214 C 210.505 -2.16963 -5.45109 0
M  V30 2215 C 212.857 -2.6302 -5.75329 0
M  V30 2216 C 211.521 -2.96213 -5.98175 0
M  V30 2217 H 210.791 0.0637981 -0.738248 0
M  V30 2218 H 213.438 -0.543553 -1.83624 0
M  V30 2219 H 211.743 1.27406 -3.70506 0
M  V30 2220 H 213.44 0.934496 -3.89959 0
M  V30 2221 H 210.03 -0.452596 -4.26204 0
M  V30 2222 H 214.214 -1.27491 -4.79645 0
M  V30 2223 H 209.47 -2.43034 -5.61021 0
M  V30 2224 H 213.644 -3.25158 -6.15829 0
M  V30 2225 H 211.271 -3.83516 -6.56368 0
M  V30 2226 N 212.846 1.57033 -0.133567 0
M  V30 2227 C 213.796 2.12641 0.822671 0
M  V30 2228 C 214.78 1.05081 1.21847 0
M  V30 2229 O 215.972 1.31287 1.18713 0
M  V30 2230 C 213.101 2.74094 2.06706 0
M  V30 2231 C 212.187 3.88757 1.69497 0
M  V30 2232 N 212.578 4.95194 1.03037 0
M  V30 2233 C 210.876 3.99213 1.98859 0
M  V30 2234 C 211.577 5.75414 0.852873 0
M  V30 2235 N 210.553 5.25726 1.3825 0
M  V30 2236 H 214.355 2.92308 0.305537 0
M  V30 2237 H 211.869 1.62256 0.0684276 0
M  V30 2238 H 213.866 3.12285 2.76195 0
M  V30 2239 H 212.526 1.95896 2.5895 0
M  V30 2240 H 213.537 5.13247 0.692669 0
M  V30 2241 H 210.214 3.32075 2.53047 0
M  V30 2242 H 211.604 6.71089 0.330091 0
M  V30 2243 N 214.325 -0.140222 1.56975 0
M  V30 2244 C 215.602 -0.880769 1.74648 0
M  V30 2245 C 215.982 -1.99036 0.703404 0
M  V30 2246 O 215.33 -2.26821 -0.27648 0
M  V30 2247 C 215.54 -1.417 3.18939 0
M  V30 2248 C 216.888 -1.87774 3.80823 0
M  V30 2249 O 217.912 -1.51427 3.2241 0
M  V30 2250 O 216.771 -2.54827 4.83452 0
M  V30 2251 H 213.865 -0.416713 0.714338 0
M  V30 2252 H 216.411 -0.125618 1.69234 0
M  V30 2253 H 215.183 -0.619902 3.86359 0
M  V30 2254 H 214.806 -2.23546 3.28805 0
M  V30 2255 N 215.803 -1.52179 -0.40978 0
M  V30 2256 C 217.052 -1.65434 -1.15388 0
M  V30 2257 C 217.365 -0.390056 -1.91671 0
M  V30 2258 O 218.571 -0.402399 -2.68501 0
M  V30 2259 C 217.027 -2.92279 -2.10003 0
M  V30 2260 C 216.635 -4.25813 -1.39239 0
M  V30 2261 C 218.379 -3.14897 -2.84675 0
M  V30 2262 C 216.286 -5.43782 -2.32498 0
M  V30 2263 H 215.216 -0.616267 -0.434432 0
M  V30 2264 H 217.867 -1.78666 -0.418401 0
M  V30 2265 H 216.249 -2.72744 -2.871 0
M  V30 2266 H 217.423 -4.55828 -0.675099 0
M  V30 2267 H 215.738 -4.09292 -0.766097 0
M  V30 2268 H 218.335 -4.0021 -3.54593 0
M  V30 2269 H 218.678 -2.29103 -3.47588 0
M  V30 2270 H 219.211 -3.34901 -2.14677 0
M  V30 2271 H 215.95 -6.3192 -1.74233 0
M  V30 2272 H 215.47 -5.18106 -3.02201 0
M  V30 2273 H 217.149 -5.76834 -2.93038 0
M  V30 2274 N 217.281 0.66697 -1.42791 0
M  V30 2275 C 218.211 1.79218 -1.49677 0
M  V30 2276 C 219.192 1.66405 -0.352623 0
M  V30 2277 O 220.377 1.85708 -0.567993 0
M  V30 2278 C 217.507 3.17565 -1.40605 0
M  V30 2279 C 216.461 3.45124 -2.53127 0
M  V30 2280 C 215.787 4.83127 -2.29112 0
M  V30 2281 C 217.087 3.41236 -3.95418 0
M  V30 2282 H 218.781 1.73713 -2.43853 0
M  V30 2283 H 216.327 0.83432 -1.17367 0
M  V30 2284 H 218.28 3.96022 -1.44029 0
M  V30 2285 H 217.004 3.23767 -0.429271 0
M  V30 2286 H 215.663 2.69031 -2.49034 0
M  V30 2287 H 215.311 4.85988 -1.29709 0
M  V30 2288 H 215.011 5.02528 -3.04531 0
M  V30 2289 H 216.535 5.63859 -2.34297 0
M  V30 2290 H 217.949 4.09651 -4.01073 0
M  V30 2291 H 216.346 3.72173 -4.70752 0
M  V30 2292 H 217.416 2.39665 -4.21532 0
M  V30 2293 N 218.759 1.29093 0.90403 0
M  V30 2294 C 219.692 1.08176 2.00931 0
M  V30 2295 C 220.67 -0.005083 1.62599 0
M  V30 2296 O 221.854 0.144765 1.87943 0
M  V30 2297 C 218.981 0.645897 3.32484 0
M  V30 2298 C 218.027 1.73081 3.89801 0
M  V30 2299 S 218.86 3.32905 4.19446 0
M  V30 2300 C 220.016 2.91176 5.54046 0
M  V30 2301 H 220.249 2.01752 2.18365 0
M  V30 2302 H 217.782 1.13191 1.0501 0
M  V30 2303 H 219.74 0.401131 4.08535 0
M  V30 2304 H 218.401 -0.270188 3.12936 0
M  V30 2305 H 217.594 1.37768 4.84805 0
M  V30 2306 H 217.196 1.92888 3.20422 0
M  V30 2307 H 219.488 2.37952 6.34338 0
M  V30 2308 H 220.431 3.85014 5.94281 0
M  V30 2309 H 220.839 2.296 5.15698 0
M  V30 2310 N 220.237 -1.11381 1.11499 0
M  V30 2311 C 221.184 -2.17439 0.773887 0
M  V30 2312 C 222.154 -1.64132 -0.254899 0
M  V30 2313 O 223.339 -1.90345 -0.13168 0
M  V30 2314 C 220.479 -3.44373 0.223917 0
M  V30 2315 C 219.592 -4.1168 1.30934 0
M  V30 2316 C 218.727 -5.263 0.71984 0
M  V30 2317 C 217.766 -5.85493 1.78507 0
M  V30 2318 N 216.903 -6.91507 1.21502 0
M  V30 2319 H 221.743 -2.45962 1.68246 0
M  V30 2320 H 219.28 -1.20744 0.840191 0
M  V30 2321 H 221.238 -4.17047 -0.112921 0
M  V30 2322 H 219.868 -3.16232 -0.647851 0
M  V30 2323 H 218.92 -3.37073 1.76312 0
M  V30 2324 H 220.232 -4.51729 2.11524 0
M  V30 2325 H 219.386 -6.05785 0.333094 0
M  V30 2326 H 218.125 -4.87559 -0.117377 0
M  V30 2327 H 217.13 -5.04686 2.18111 0
M  V30 2328 H 218.355 -6.26301 2.62533 0
M  V30 2329 H 216.301 -6.54783 0.399455 0
M  V30 2330 H 216.218 -7.30214 1.95763 0
M  V30 2331 H 217.486 -7.74795 0.855181 0
M  V30 2332 N 221.715 -0.905404 -1.28997 0
M  V30 2333 C 222.961 -0.535039 -1.95615 0
M  V30 2334 C 223.294 0.917404 -1.71165 0
M  V30 2335 O 222.569 1.65123 -1.02785 0
M  V30 2336 C 222.852 -0.834918 -3.50287 0
M  V30 2337 C 222.705 -2.33948 -3.84172 0
M  V30 2338 C 224.024 -0.325318 -4.38896 0
M  V30 2339 H 221.143 -0.195861 -0.710498 0
M  V30 2340 H 223.785 -1.13313 -1.52513 0
M  V30 2341 H 221.935 -0.325904 -3.87131 0
M  V30 2342 H 223.607 -2.91847 -3.57243 0
M  V30 2343 H 221.85 -2.79789 -3.31513 0
M  V30 2344 H 222.521 -2.49987 -4.92149 0
M  V30 2345 H 224.997 -0.761256 -4.09077 0
M  V30 2346 H 223.873 -0.564295 -5.45992 0
M  V30 2347 H 224.134 0.774144 -4.35269 0
M  V30 2348 N 223.193 1.4272 -0.668489 0
M  V30 2349 C 224.604 1.84793 -0.266151 0
M  V30 2350 C 224.955 1.55959 1.19043 0
M  V30 2351 O 224.08 1.01622 1.91055 0
M  V30 2352 C 224.675 3.35436 -0.476271 0
M  V30 2353 C 223.234 3.76182 -0.128113 0
M  V30 2354 C 222.381 2.66344 -0.771777 0
M  V30 2355 H 225.332 1.32656 -0.871098 0
M  V30 2356 H 225.353 3.79515 0.273561 0
M  V30 2357 H 224.865 3.5639 -1.53647 0
M  V30 2358 H 222.966 3.60836 0.928891 0
M  V30 2359 H 223.079 4.75766 -0.564231 0
M  V30 2360 H 221.443 2.53885 -0.203652 0
M  V30 2361 H 222.226 2.90123 -1.83531 0
M  V30 2362 N 224.671 0.411399 1.52136 0
M  V30 2363 C 225.601 -0.404015 2.29978 0
M  V30 2364 C 226.582 -1.04412 1.34284 0
M  V30 2365 O 227.767 -1.0527 1.63192 0
M  V30 2366 C 224.897 -1.5197 3.12286 0
M  V30 2367 C 223.851 -1.00448 4.16046 0
M  V30 2368 C 223.177 -2.21393 4.86712 0
M  V30 2369 C 224.477 -0.0569336 5.22269 0
M  V30 2370 H 226.171 0.245529 2.98392 0
M  V30 2371 H 223.717 0.119525 1.43503 0
M  V30 2372 H 225.67 -2.09715 3.6551 0
M  V30 2373 H 224.394 -2.19716 2.41646 0
M  V30 2374 H 223.053 -0.449421 3.63835 0
M  V30 2375 H 222.701 -2.87699 4.12599 0
M  V30 2376 H 222.401 -1.87571 5.56858 0
M  V30 2377 H 223.925 -2.7974 5.4275 0
M  V30 2378 H 225.339 -0.54325 5.7072 0
M  V30 2379 H 223.736 0.192594 5.99791 0
M  V30 2380 H 224.806 0.887663 4.76706 0
M  V30 2381 N 226.149 -1.5696 0.141893 0
M  V30 2382 C 227.426 -1.87553 -0.555281 0
M  V30 2383 C 227.806 -1.04699 -1.83306 0
M  V30 2384 O 227.154 -0.132346 -2.28116 0
M  V30 2385 C 227.364 -3.39093 -0.825664 0
M  V30 2386 C 228.712 -4.08199 -1.16869 0
M  V30 2387 O 229.736 -3.44242 -0.915185 0
M  V30 2388 O 228.595 -5.21139 -1.6455 0
M  V30 2389 H 225.689 -0.777188 -0.282679 0
M  V30 2390 H 228.235 -1.68763 0.17812 0
M  V30 2391 H 227.007 -3.91221 0.0788633 0
M  V30 2392 H 226.63 -3.63393 -1.61343 0
M  V30 2393 N 227.627 0.131896 -1.57047 0
M  V30 2394 C 228.575 1.18146 -2.0036 0
M  V30 2395 C 229.569 1.43614 -0.898406 0
M  V30 2396 O 230.775 1.43729 -1.08361 0
M  V30 2397 H 227.15 0.398042 -0.638018 0
M  V30 2398 H 229.121 0.789564 -2.87765 0
M  V30 2399 C 227.87 2.50341 -2.41298 0
M  V30 2400 H 227.193 2.31578 -3.25902 0
M  V30 2401 H 228.633 3.22371 -2.75414 0
M  V30 2402 C 227.092 3.11984 -1.27153 0
M  V30 2403 O 227.622 3.97484 -0.580459 0
M  V30 2404 N 225.828 2.71662 -1.03189 0
M  V30 2405 H 225.375 2.02231 -1.59564 0
M  V30 2406 H 225.333 3.13238 -0.270077 0
M  V30 2407 N 229.106 1.52395 0.401703 0
M  V30 2408 C 230.054 1.7689 1.51039 0
M  V30 2409 C 231.048 0.636298 1.56996 0
M  V30 2410 O 232.254 0.818507 1.60314 0
M  V30 2411 H 228.629 0.559502 0.502456 0
M  V30 2412 H 230.6 2.69757 1.27568 0
M  V30 2413 C 229.349 1.94331 2.88324 0
M  V30 2414 H 228.672 2.80905 2.84486 0
M  V30 2415 H 230.112 2.15466 3.65172 0
M  V30 2416 C 228.571 0.712396 3.29282 0
M  V30 2417 O 229.101 -0.116218 4.01532 0
M  V30 2418 N 227.307 0.546154 2.85422 0
M  V30 2419 H 226.854 1.22156 2.26794 0
M  V30 2420 H 226.812 -0.276113 3.13185 0
M  V30 2421 N 230.584 -0.659388 1.43143 0
M  V30 2422 C 231.861 -1.41627 1.34912 0
M  V30 2423 C 232.241 -2.11099 -0.00607785 0
M  V30 2424 O 231.589 -2.04353 -1.02236 0
M  V30 2425 C 231.799 -2.40604 2.52805 0
M  V30 2426 C 233.147 -3.04789 2.95616 0
M  V30 2427 O 234.171 -2.50932 2.52807 0
M  V30 2428 O 233.03 -4.02421 3.69756 0
M  V30 2429 H 230.124 -0.63246 0.532844 0
M  V30 2430 H 232.67 -0.686814 1.5518 0
M  V30 2431 H 231.442 -1.88174 3.43083 0
M  V30 2432 H 231.065 -3.21009 2.34604 0
M  V30 2433 N 232.062 -1.29571 -0.897171 0
M  V30 2434 C 232.992 -1.17473 -2.01798 0
M  V30 2435 C 233.973 -0.068323 -1.69963 0
M  V30 2436 O 235.158 -0.248239 -1.92607 0
M  V30 2437 C 232.288 -0.853099 -3.36659 0
M  V30 2438 C 231.242 -1.9161 -3.82713 0
M  V30 2439 C 230.568 -1.44773 -5.14728 0
M  V30 2440 C 231.868 -3.32535 -4.02763 0
M  V30 2441 H 233.562 -2.11237 -2.12177 0
M  V30 2442 H 231.108 -1.01699 -1.01948 0
M  V30 2443 H 233.061 -0.755165 -4.14578 0
M  V30 2444 H 231.785 0.120236 -3.26379 0
M  V30 2445 H 230.444 -2.00346 -3.07013 0
M  V30 2446 H 230.092 -0.462995 -5.00865 0
M  V30 2447 H 229.792 -2.15865 -5.46513 0
M  V30 2448 H 231.316 -1.36334 -5.95185 0
M  V30 2449 H 232.73 -3.26626 -4.71156 0
M  V30 2450 H 231.127 -4.01607 -4.45905 0
M  V30 2451 H 232.197 -3.75326 -3.07016 0
M  V30 2452 N 233.54 1.10788 -1.12088 0
M  V30 2453 C 234.786 1.82942 -0.875226 0
M  V30 2454 C 235.119 1.84779 0.597538 0
M  V30 2455 O 234.394 1.30578 1.44152 0
M  V30 2456 C 234.677 3.29789 -1.44606 0
M  V30 2457 C 234.53 3.36307 -2.98693 0
M  V30 2458 C 235.849 4.26064 -1.10261 0
M  V30 2459 H 232.968 0.664195 -0.319397 0
M  V30 2460 H 235.61 1.29867 -1.38689 0
M  V30 2461 H 233.76 3.75118 -1.01089 0
M  V30 2462 H 235.432 2.99487 -3.50864 0
M  V30 2463 H 233.675 2.76318 -3.34411 0
M  V30 2464 H 234.346 4.39694 -3.33726 0
M  V30 2465 H 236.822 3.88951 -1.4784 0
M  V30 2466 H 235.698 5.27183 -1.52869 0
M  V30 2467 H 235.959 4.42098 -0.0142953 0
M  V30 2468 N 235.018 0.912232 1.28515 0
M  V30 2469 C 236.295 0.463597 1.90027 0
M  V30 2470 C 236.675 -1.05753 1.82701 0
M  V30 2471 O 236.023 -1.90492 1.26194 0
M  V30 2472 C 236.233 0.992253 3.34597 0
M  V30 2473 C 237.581 1.04344 4.11579 0
M  V30 2474 O 238.605 0.94079 3.43551 0
M  V30 2475 O 237.464 1.1995 5.33174 0
M  V30 2476 H 234.558 0.146666 0.813891 0
M  V30 2477 H 237.104 1.00292 1.36893 0
M  V30 2478 H 235.876 2.03623 3.34146 0
M  V30 2479 H 235.499 0.433672 3.95228 0
M  V30 2480 N 236.496 -1.42363 0.676048 0
M  V30 2481 C 237.724 -2.05859 0.207268 0
M  V30 2482 C 238.139 -1.50796 -1.13605 0
M  V30 2483 O 237.496 -0.648265 -1.70598 0
M  V30 2484 C 237.547 -3.61248 0.134975 0
M  V30 2485 O 237.268 -4.1427 1.42521 0
M  V30 2486 C 238.769 -4.41859 -0.357151 0
M  V30 2487 H 235.989 -0.663431 0.100503 0
M  V30 2488 H 238.533 -1.82479 0.923136 0
M  V30 2489 H 236.688 -3.83735 -0.531588 0
M  V30 2490 H 237.102 -5.0815 1.29939 0
M  V30 2491 H 238.576 -5.50847 -0.356641 0
M  V30 2492 H 239.053 -4.16536 -1.39264 0
M  V30 2493 H 239.659 -4.24392 0.27772 0
M  V30 2494 N 237.974 -0.419461 -1.51915 0
M  V30 2495 C 239.22 0.145505 -2.02879 0
M  V30 2496 C 239.575 1.41926 -1.29903 0
M  V30 2497 O 238.868 1.87383 -0.399782 0
M  V30 2498 C 239.062 0.437067 -3.54717 0
M  V30 2499 C 238.891 -0.806877 -4.42402 0
M  V30 2500 C 237.661 -1.33514 -4.87342 0
M  V30 2501 C 239.859 -1.68796 -4.85811 0
M  V30 2502 N 237.841 -2.53349 -5.59185 0
M  V30 2503 C 239.212 -2.73247 -5.56539 0
M  V30 2504 C 241.267 -1.70449 -4.67816 0
M  V30 2505 C 239.97 -3.79276 -6.11181 0
M  V30 2506 C 241.996 -2.75403 -5.23361 0
M  V30 2507 C 241.358 -3.78575 -5.9402 0
M  V30 2508 H 237.457 0.0145424 -0.781865 0
M  V30 2509 H 240.041 -0.576126 -1.85981 0
M  V30 2510 H 238.212 1.12774 -3.71667 0
M  V30 2511 H 239.944 0.99182 -3.92358 0
M  V30 2512 H 236.699 -0.891657 -4.65131 0
M  V30 2513 H 237.123 -3.14066 -5.99743 0
M  V30 2514 H 241.765 -0.920209 -4.12664 0
M  V30 2515 H 239.483 -4.58554 -6.65397 0
M  V30 2516 H 243.069 -2.77603 -5.113 0
M  V30 2517 H 241.949 -4.58453 -6.36231 0
M  V30 2518 N 239.452 1.56882 -0.150215 0
M  V30 2519 C 240.362 2.20494 0.801222 0
M  V30 2520 C 241.378 1.19019 1.26927 0
M  V30 2521 O 242.554 1.51607 1.32579 0
M  V30 2522 C 239.619 2.81659 2.02161 0
M  V30 2523 C 238.68 3.9827 1.60249 0
M  V30 2524 C 237.913 4.56508 2.7647 0
M  V30 2525 O 238.136 4.13627 3.92771 0
M  V30 2526 O 237.07 5.46719 2.51757 0
M  V30 2527 H 240.896 3.02315 0.289717 0
M  V30 2528 H 238.481 1.49202 0.0769684 0
M  V30 2529 H 240.363 3.20522 2.73576 0
M  V30 2530 H 239.038 2.02849 2.52258 0
M  V30 2531 H 237.945 3.64117 0.858477 0
M  V30 2532 H 239.278 4.78609 1.14864 0
M  V30 2533 N 240.93 -0.123565 1.57115 0
M  V30 2534 C 242.178 -0.83051 1.84247 0
M  V30 2535 C 242.499 -1.80629 0.73471 0
M  V30 2536 O 241.769 -1.94403 -0.241688 0
M  V30 2537 H 240.349 -0.309694 0.679778 0
M  V30 2538 H 243.011 -0.111976 1.94578 0
M  V30 2539 H 242.107 -1.37852 2.80006 0
M  V30 2540 N 242.408 -1.52605 -0.393616 0
M  V30 2541 C 243.655 -1.67424 -1.1391 0
M  V30 2542 C 243.983 -0.411859 -1.90089 0
M  V30 2543 O 243.238 0.605626 -1.86093 0
M  V30 2544 C 243.537 -2.85721 -2.14705 0
M  V30 2545 C 243.203 -4.23342 -1.55218 0
M  V30 2546 C 241.865 -4.60771 -1.3872 0
M  V30 2547 C 244.217 -5.09041 -1.11924 0
M  V30 2548 C 241.545 -5.81563 -0.774689 0
M  V30 2549 C 243.897 -6.30452 -0.520853 0
M  V30 2550 C 242.561 -6.66617 -0.343134 0
M  V30 2551 H 241.831 -0.612648 -0.416826 0
M  V30 2552 H 244.478 -1.8674 -0.424315 0
M  V30 2553 H 242.783 -2.60803 -2.92385 0
M  V30 2554 H 244.48 -2.94382 -2.72288 0
M  V30 2555 H 241.07 -3.93855 -1.69045 0
M  V30 2556 H 245.254 -4.80695 -1.23473 0
M  V30 2557 H 240.51 -6.08196 -0.625154 0
M  V30 2558 H 244.684 -6.96175 -0.177065 0
M  V30 2559 H 242.311 -7.60083 0.133571 0
M  V30 2560 N 243.887 0.651787 -1.4349 0
M  V30 2561 C 244.819 1.77725 -1.44729 0
M  V30 2562 C 245.832 1.59141 -0.343231 0
M  V30 2563 O 247.021 1.67835 -0.607751 0
M  V30 2564 C 244.121 3.15172 -1.24579 0
M  V30 2565 C 243.294 3.60402 -2.47849 0
M  V30 2566 C 242.353 4.76656 -2.22902 0
M  V30 2567 O 241.379 4.86022 -2.96263 0
M  V30 2568 N 242.581 5.66958 -1.24656 0
M  V30 2569 H 245.346 1.77141 -2.41746 0
M  V30 2570 H 242.907 0.835678 -1.38665 0
M  V30 2571 H 244.899 3.90634 -1.0577 0
M  V30 2572 H 243.469 3.1052 -0.360015 0
M  V30 2573 H 242.689 2.75369 -2.82073 0
M  V30 2574 H 243.977 3.87368 -3.29884 0
M  V30 2575 H 243.375 5.62065 -0.640265 0
M  V30 2576 H 241.932 6.42135 -1.1183 0
M  V30 2577 N 245.365 1.30045 0.890287 0
M  V30 2578 C 246.297 1.11786 2.00091 0
M  V30 2579 C 247.31 0.0626307 1.62679 0
M  V30 2580 O 248.499 0.308112 1.75821 0
M  V30 2581 C 245.599 0.681527 3.31977 0
M  V30 2582 C 244.772 1.81735 3.97858 0
M  V30 2583 C 243.831 1.37045 5.08041 0
M  V30 2584 O 242.857 2.07677 5.29961 0
M  V30 2585 N 244.059 0.246525 5.79976 0
M  V30 2586 H 246.824 2.07441 2.16306 0
M  V30 2587 H 244.385 1.2211 1.06305 0
M  V30 2588 H 246.377 0.365675 4.03045 0
M  V30 2589 H 244.947 -0.182828 3.12065 0
M  V30 2590 H 244.167 2.30159 3.20032 0
M  V30 2591 H 245.455 2.57865 4.38615 0
M  V30 2592 H 244.853 -0.34215 5.64664 0
M  V30 2593 H 243.41 -0.00990438 6.51799 0
M  V30 2594 N 246.843 -1.10192 1.12674 0
M  V30 2595 C 248.068 -1.86523 0.906853 0
M  V30 2596 C 248.493 -1.80221 -0.538711 0
M  V30 2597 O 247.851 -1.17396 -1.38158 0
M  V30 2598 C 247.899 -3.32758 1.3894 0
M  V30 2599 O 247.003 -4.08449 0.5695 0
M  V30 2600 H 246.344 -0.578678 0.325619 0
M  V30 2601 H 248.874 -1.39203 1.49946 0
M  V30 2602 H 248.884 -3.83608 1.38958 0
M  V30 2603 H 247.559 -3.36661 2.44197 0
M  V30 2604 H 246.136 -3.67427 0.636528 0
M  V30 2605 N 248.321 -0.919034 -1.28029 0
M  V30 2606 C 249.57 -0.550802 -1.94034 0
M  V30 2607 C 249.883 0.910877 -1.73096 0
M  V30 2608 O 251.089 1.3875 -2.33368 0
M  V30 2609 C 249.545 -0.934249 -3.47563 0
M  V30 2610 C 249.153 -2.41602 -3.7727 0
M  V30 2611 C 250.897 -0.636854 -4.19696 0
M  V30 2612 C 248.804 -2.73932 -5.24133 0
M  V30 2613 H 247.734 -0.202273 -0.726362 0
M  V30 2614 H 250.385 -1.11867 -1.45458 0
M  V30 2615 H 248.767 -0.295115 -3.94899 0
M  V30 2616 H 249.941 -3.10233 -3.40723 0
M  V30 2617 H 248.256 -2.68441 -3.18321 0
M  V30 2618 H 250.853 -0.855005 -5.2782 0
M  V30 2619 H 251.196 0.425575 -4.14119 0
M  V30 2620 H 251.729 -1.23469 -3.78154 0
M  V30 2621 H 248.468 -3.79049 -5.34792 0
M  V30 2622 H 247.988 -2.09942 -5.61858 0
M  V30 2623 H 249.667 -2.61215 -5.91925 0
M  V30 2624 N 249.799 1.42003 -0.683588 0
M  V30 2625 C 251.024 2.06265 -0.216647 0
M  V30 2626 C 251.449 1.51059 1.12083 0
M  V30 2627 O 250.807 0.632638 1.69904 0
M  V30 2628 C 250.855 3.60191 -0.171759 0
M  V30 2629 O 249.959 4.03396 0.857069 0
M  V30 2630 H 249.3 0.65502 -0.108834 0
M  V30 2631 H 251.83 1.81982 -0.935077 0
M  V30 2632 H 251.84 4.08 0.0014303 0
M  V30 2633 H 250.515 3.99743 -1.14796 0
M  V30 2634 H 249.092 3.67117 0.654208 0
M  V30 2635 N 251.277 0.427512 1.51691 0
M  V30 2636 C 252.525 -0.141948 2.01601 0
M  V30 2637 C 252.846 -1.44067 1.31414 0
M  V30 2638 O 252.116 -1.90763 0.445658 0
M  V30 2639 H 250.696 -0.0554468 0.744939 0
M  V30 2640 H 253.358 0.567968 1.86441 0
M  V30 2641 H 252.454 -0.324913 3.10404 0
M  V30 2642 N 252.755 -1.56801 0.158532 0
M  V30 2643 C 254.003 -1.96102 -0.488712 0
M  V30 2644 C 254.324 -1.04498 -1.64636 0
M  V30 2645 O 253.594 -0.108783 -1.95598 0
M  V30 2646 H 252.174 -0.724102 -0.183535 0
M  V30 2647 H 254.836 -1.93457 0.236728 0
M  V30 2648 H 253.932 -3.00097 -0.857219 0
M  V30 2649 N 254.233 0.115231 -1.57178 0
M  V30 2650 C 255.481 0.820727 -1.84685 0
M  V30 2651 C 255.802 1.80237 -0.744279 0
M  V30 2652 O 255.072 1.94529 0.231375 0
M  V30 2653 H 253.652 0.306084 -0.681411 0
M  V30 2654 H 256.314 0.101656 -1.94635 0
M  V30 2655 H 255.41 1.36366 -2.80733 0
M  V30 2656 N 255.711 1.52812 0.385517 0
M  V30 2657 C 256.674 1.77188 1.45386 0
M  V30 2658 C 257.674 0.641953 1.4743 0
M  V30 2659 O 258.864 0.910033 1.4854 0
M  V30 2660 C 255.996 1.87582 2.8465 0
M  V30 2661 H 257.189 2.72583 1.25054 0
M  V30 2662 H 254.742 1.43586 0.617467 0
M  V30 2663 H 255.477 0.941849 3.10322 0
M  V30 2664 H 255.262 2.69748 2.84567 0
M  V30 2665 H 256.752 2.08102 3.62054 0
M  V30 2666 N 257.189 -0.644168 1.43834 0
M  V30 2667 C 258.137 -1.77793 1.49974 0
M  V30 2668 C 259.131 -1.65253 0.372536 0
M  V30 2669 O 260.337 -1.7149 0.546924 0
M  V30 2670 H 256.712 -0.58675 0.47035 0
M  V30 2671 H 258.683 -1.69736 2.45423 0
M  V30 2672 C 257.432 -3.16087 1.4486 0
M  V30 2673 H 256.755 -3.26378 2.30905 0
M  V30 2674 H 258.195 -3.95349 1.53217 0
M  V30 2675 C 256.654 -3.36484 0.167463 0
M  V30 2676 O 257.184 -3.94298 -0.767609 0
M  V30 2677 N 255.39 -2.90504 0.0747556 0
M  V30 2678 H 254.937 -2.4364 0.836507 0
M  V30 2679 H 254.895 -3.04527 -0.781714 0
M  V30 2680 N 258.668 -1.30515 -0.883378 0
M  V30 2681 C 259.915 -1.1943 -1.63532 0
M  V30 2682 C 260.243 0.250627 -1.92878 0
M  V30 2683 O 259.498 1.19556 -1.54935 0
M  V30 2684 C 259.797 -1.96994 -2.98209 0
M  V30 2685 C 259.463 -3.466 -2.88408 0
M  V30 2686 C 258.125 -3.87397 -2.85442 0
M  V30 2687 C 260.477 -4.41863 -2.76418 0
M  V30 2688 C 257.805 -5.21745 -2.68327 0
M  V30 2689 C 260.157 -5.7632 -2.60841 0
M  V30 2690 C 258.821 -6.16354 -2.56251 0
M  V30 2691 H 258.091 -0.437025 -0.598406 0
M  V30 2692 H 260.738 -1.61635 -1.02696 0
M  V30 2693 H 259.043 -1.47429 -3.63004 0
M  V30 2694 H 260.74 -1.85808 -3.55354 0
M  V30 2695 H 257.33 -3.14182 -2.91527 0
M  V30 2696 H 261.514 -4.11285 -2.77775 0
M  V30 2697 H 256.77 -5.51853 -2.63189 0
M  V30 2698 H 260.944 -6.49772 -2.50538 0
M  V30 2699 H 258.571 -7.20401 -2.42748 0
M  V30 2700 N 260.146 1.09593 -1.13257 0
M  V30 2701 C 261.394 1.81375 -0.891492 0
M  V30 2702 C 261.715 1.86049 0.584009 0
M  V30 2703 O 260.985 1.34481 1.42449 0
M  V30 2704 H 259.565 0.671708 -0.326828 0
M  V30 2705 H 262.227 1.3256 -1.42877 0
M  V30 2706 H 261.323 2.84612 -1.28071 0
M  V30 2707 N 261.624 0.925811 1.2754 0
M  V30 2708 C 262.901 0.483726 1.89524 0
M  V30 2709 C 263.281 -1.03809 1.83812 0
M  V30 2710 O 262.629 -1.89143 1.28207 0
M  V30 2711 C 262.839 1.02769 3.33526 0
M  V30 2712 C 264.187 1.08703 4.10449 0
M  V30 2713 O 265.211 0.977175 3.42534 0
M  V30 2714 O 264.07 1.25599 5.31871 0
M  V30 2715 H 261.164 0.15529 0.812289 0
M  V30 2716 H 263.71 1.01738 1.35822 0
M  V30 2717 H 262.482 2.07155 3.31967 0
M  V30 2718 H 262.105 0.475567 3.94746 0
M  V30 2719 N 263.102 -1.41638 0.69111 0
M  V30 2720 C 264.348 -2.02104 0.229258 0
M  V30 2721 C 264.703 -1.53741 -1.15678 0
M  V30 2722 O 263.996 -0.736849 -1.76865 0
M  V30 2723 C 264.19 -3.56714 0.221277 0
M  V30 2724 C 264.019 -4.20083 1.605 0
M  V30 2725 C 262.789 -4.54566 2.20676 0
M  V30 2726 C 264.987 -4.46587 2.55078 0
M  V30 2727 N 262.969 -5.03199 3.5166 0
M  V30 2728 C 264.34 -4.96946 3.70735 0
M  V30 2729 C 266.395 -4.28593 2.53401 0
M  V30 2730 C 265.098 -5.31203 4.8499 0
M  V30 2731 C 267.124 -4.63936 3.66765 0
M  V30 2732 C 266.486 -5.14463 4.81152 0
M  V30 2733 H 262.585 -0.771256 0.12918 0
M  V30 2734 H 265.169 -1.72251 0.907626 0
M  V30 2735 H 263.34 -3.86051 -0.426562 0
M  V30 2736 H 265.072 -4.03896 -0.254983 0
M  V30 2737 H 261.827 -4.4087 1.73005 0
M  V30 2738 H 262.251 -5.31926 4.18789 0
M  V30 2739 H 266.893 -3.88771 1.66184 0
M  V30 2740 H 264.611 -5.69951 5.72871 0
M  V30 2741 H 268.197 -4.51677 3.66714 0
M  V30 2742 H 267.077 -5.41299 5.67419 0
M  V30 2743 N 264.58 -0.43555 -1.51462 0
M  V30 2744 C 265.829 0.133007 -2.01261 0
M  V30 2745 C 266.142 1.43942 -1.32439 0
M  V30 2746 O 267.348 2.09081 -1.73198 0
M  V30 2747 C 265.804 0.287581 -3.58749 0
M  V30 2748 C 265.412 -1.00829 -4.36506 0
M  V30 2749 C 267.156 0.810004 -4.167 0
M  V30 2750 C 265.063 -0.819454 -5.85695 0
M  V30 2751 H 263.993 0.0534822 -0.752101 0
M  V30 2752 H 266.644 -0.565038 -1.74584 0
M  V30 2753 H 265.026 1.04859 -3.81865 0
M  V30 2754 H 266.2 -1.77749 -4.25138 0
M  V30 2755 H 264.515 -1.45911 -3.89999 0
M  V30 2756 H 267.112 0.967743 -5.2587 0
M  V30 2757 H 267.455 1.79196 -3.75758 0
M  V30 2758 H 267.988 0.107357 -3.97655 0
M  V30 2759 H 264.727 -1.77374 -6.31046 0
M  V30 2760 H 264.247 -0.0900208 -5.99732 0
M  V30 2761 H 265.926 -0.471949 -6.45276 0
M  V30 2762 N 266.058 1.56714 -0.166846 0
M  V30 2763 C 267.474 1.58473 0.189372 0
M  V30 2764 C 267.674 1.18201 1.63189 0
M  V30 2765 O 266.73 0.891528 2.36237 0
M  V30 2766 C 268.043 3.00573 -0.0873872 0
M  V30 2767 C 269.591 3.1299 -0.0252443 0
M  V30 2768 C 270.066 4.57174 -0.274934 0
M  V30 2769 N 271.557 4.62665 -0.222553 0
M  V30 2770 C 272.292 5.72072 -0.389985 0
M  V30 2771 N 271.788 6.90054 -0.616229 0
M  V30 2772 N 273.581 5.61153 -0.326202 0
M  V30 2773 H 265.732 1.8118 -1.10849 0
M  V30 2774 H 267.995 0.839525 -0.440342 0
M  V30 2775 H 267.701 3.34497 -1.0865 0
M  V30 2776 H 267.575 3.72019 0.623037 0
M  V30 2777 H 269.962 2.78895 0.96444 0
M  V30 2778 H 270.043 2.43989 -0.768309 0
M  V30 2779 H 269.687 4.91976 -1.26181 0
M  V30 2780 H 269.617 5.24328 0.48869 0
M  V30 2781 H 272.108 3.77863 -0.0531512 0
M  V30 2782 H 272.421 7.69311 -0.733559 0
M  V30 2783 H 270.766 6.91927 -0.652791 0
M  V30 2784 H 273.957 4.67859 -0.150072 0
M  V30 2785 H 274.13 6.46364 -0.460116 0
M  V30 2786 N 267.536 -0.106894 1.57237 0
M  V30 2787 C 268.446 -1.14911 2.0453 0
M  V30 2788 C 269.462 -1.44592 0.96795 0
M  V30 2789 O 270.638 -1.55468 1.2803 0
M  V30 2790 C 267.703 -2.45272 2.45036 0
M  V30 2791 C 266.764 -2.22879 3.66911 0
M  V30 2792 C 265.997 -3.47024 4.05475 0
M  V30 2793 O 266.22 -4.54804 3.44252 0
M  V30 2794 O 265.154 -3.3731 4.98504 0
M  V30 2795 H 268.98 -0.777461 2.9358 0
M  V30 2796 H 266.565 -0.318563 1.45964 0
M  V30 2797 H 268.447 -3.22055 2.71769 0
M  V30 2798 H 267.122 -2.81886 1.59129 0
M  V30 2799 H 266.029 -1.43915 3.45311 0
M  V30 2800 H 267.362 -1.91163 4.53561 0
M  V30 2801 N 269.014 -1.53014 -0.377408 0
M  V30 2802 C 270.261 -1.68623 -1.12128 0
M  V30 2803 C 270.589 -0.431997 -1.89642 0
M  V30 2804 O 269.844 0.585855 -1.86725 0
M  V30 2805 C 270.143 -2.87982 -2.11663 0
M  V30 2806 C 269.809 -4.24964 -1.50719 0
M  V30 2807 C 268.471 -4.62217 -1.33825 0
M  V30 2808 C 270.823 -5.10199 -1.06519 0
M  V30 2809 C 268.151 -5.82352 -0.712963 0
M  V30 2810 C 270.503 -6.30969 -0.453955 0
M  V30 2811 C 269.167 -6.66944 -0.272411 0
M  V30 2812 H 268.437 -0.617034 -0.410305 0
M  V30 2813 H 271.084 -1.8718 -0.404484 0
M  V30 2814 H 269.389 -2.63889 -2.89603 0
M  V30 2815 H 271.086 -2.97253 -2.6915 0
M  V30 2816 H 267.676 -3.95626 -1.64858 0
M  V30 2817 H 271.86 -4.81978 -1.18368 0
M  V30 2818 H 267.116 -6.08824 -0.560611 0
M  V30 2819 H 271.29 -6.96324 -0.103217 0
M  V30 2820 H 268.917 -7.59898 0.214181 0
M  V30 2821 N 270.492 0.636531 -1.44174 0
M  V30 2822 C 271.738 1.39649 -1.47884 0
M  V30 2823 C 272.093 1.92098 -0.107747 0
M  V30 2824 O 271.386 1.70391 0.876208 0
M  V30 2825 C 271.58 2.58309 -2.47005 0
M  V30 2826 C 271.409 2.17476 -3.93617 0
M  V30 2827 C 270.179 2.0501 -4.61843 0
M  V30 2828 C 272.377 1.76722 -4.82984 0
M  V30 2829 N 270.359 1.57683 -5.93304 0
M  V30 2830 C 271.73 1.40601 -6.03847 0
M  V30 2831 C 273.785 1.64054 -4.70096 0
M  V30 2832 C 272.488 0.930787 -7.13252 0
M  V30 2833 C 274.514 1.17937 -5.79521 0
M  V30 2834 C 273.876 0.827625 -6.99521 0
M  V30 2835 H 269.975 0.506027 -0.596205 0
M  V30 2836 H 272.559 0.730791 -1.80465 0
M  V30 2837 H 270.73 3.22514 -2.16423 0
M  V30 2838 H 272.462 3.25083 -2.41045 0
M  V30 2839 H 269.217 2.25294 -4.16581 0
M  V30 2840 H 269.641 1.36334 -6.63131 0
M  V30 2841 H 274.283 1.89882 -3.77762 0
M  V30 2842 H 272.001 0.660012 -8.054 0
M  V30 2843 H 275.587 1.08601 -5.71574 0
M  V30 2844 H 274.467 0.476231 -7.82753 0
M  V30 2845 N 271.97 1.30982 0.876444 0
M  V30 2846 C 273.217 1.20296 1.62896 0
M  V30 2847 C 273.545 -0.240395 1.93009 0
M  V30 2848 O 272.8 -1.18733 1.55567 0
M  V30 2849 C 273.099 1.98572 2.9716 0
M  V30 2850 C 272.765 3.48125 2.86566 0
M  V30 2851 C 271.427 3.88905 2.83383 0
M  V30 2852 C 273.779 4.43322 2.74071 0
M  V30 2853 C 271.107 5.2316 2.65556 0
M  V30 2854 C 273.459 5.77695 2.57781 0
M  V30 2855 C 272.123 6.17704 2.52979 0
M  V30 2856 H 271.393 0.440193 0.59608 0
M  V30 2857 H 274.04 1.62177 1.01837 0
M  V30 2858 H 272.345 1.49352 3.62217 0
M  V30 2859 H 274.042 1.8769 3.54364 0
M  V30 2860 H 270.632 3.15723 2.89856 0
M  V30 2861 H 274.816 4.12752 2.75589 0
M  V30 2862 H 270.072 5.53241 2.60259 0
M  V30 2863 H 274.246 6.51091 2.47089 0
M  V30 2864 H 271.873 7.21678 2.38924 0
M  V30 2865 N 273.449 -1.08991 1.13837 0
M  V30 2866 C 274.698 -1.80631 0.897509 0
M  V30 2867 C 275.011 -1.86872 -0.57777 0
M  V30 2868 O 276.217 -2.54866 -0.935701 0
M  V30 2869 C 274.673 -3.24517 1.55618 0
M  V30 2870 C 274.281 -3.26529 3.0673 0
M  V30 2871 C 276.025 -4.00882 1.3962 0
M  V30 2872 C 273.932 -4.64965 3.65461 0
M  V30 2873 H 272.862 -0.67691 0.332129 0
M  V30 2874 H 275.513 -1.2246 1.3666 0
M  V30 2875 H 273.895 -3.82778 1.01476 0
M  V30 2876 H 275.069 -2.78008 3.67489 0
M  V30 2877 H 273.384 -2.63656 3.22296 0
M  V30 2878 H 275.981 -5.03167 1.80906 0
M  V30 2879 H 276.324 -4.14896 0.341578 0
M  V30 2880 H 276.857 -3.49075 1.90766 0
M  V30 2881 H 273.596 -4.56153 4.70749 0
M  V30 2882 H 273.116 -5.13792 3.09481 0
M  V30 2883 H 274.795 -5.3394 3.654 0
M  V30 2884 N 274.927 -0.932562 -1.27047 0
M  V30 2885 C 276.175 -0.574422 -1.93765 0
M  V30 2886 C 276.496 0.887993 -1.73608 0
M  V30 2887 O 275.766 1.62999 -1.08665 0
M  V30 2888 H 274.346 -0.209451 -0.717035 0
M  V30 2889 H 277.008 -1.18601 -1.5466 0
M  V30 2890 H 276.104 -0.784841 -3.02071 0
M  V30 2891 N 276.405 1.4127 -0.698611 0
M  V30 2892 C 277.816 1.84187 -0.305289 0
M  V30 2893 C 278.167 1.58449 1.15708 0
M  V30 2894 O 277.292 1.05651 1.88856 0
M  V30 2895 C 277.887 3.3435 -0.547314 0
M  V30 2896 C 276.446 3.75826 -0.207878 0
M  V30 2897 C 275.593 2.64647 -0.828099 0
M  V30 2898 H 278.544 1.30778 -0.89904 0
M  V30 2899 H 278.565 3.8001 0.192998 0
M  V30 2900 H 278.077 3.53051 -1.61172 0
M  V30 2901 H 276.178 3.62725 0.852143 0
M  V30 2902 H 276.291 4.74462 -0.665021 0
M  V30 2903 H 274.655 2.53395 -0.257458 0
M  V30 2904 H 275.438 2.86165 -1.89643 0
M  V30 2905 N 277.883 0.443576 1.51229 0
M  V30 2906 C 278.846 -0.353132 2.26463 0
M  V30 2907 C 279.846 -0.944338 1.3015 0
M  V30 2908 O 281.036 -0.817813 1.5381 0
M  V30 2909 C 278.168 -1.50023 3.06114 0
M  V30 2910 H 279.361 0.3063 2.98332 0
M  V30 2911 H 276.914 0.196902 1.55055 0
M  V30 2912 H 277.649 -2.19553 2.38677 0
M  V30 2913 H 277.434 -1.08241 3.76864 0
M  V30 2914 H 278.924 -2.06296 3.63087 0
M  V30 2915 N 279.361 -1.56624 0.175154 0
M  V30 2916 C 280.608 -1.96999 -0.468811 0
M  V30 2917 C 280.936 -1.06129 -1.62994 0
M  V30 2918 O 280.191 -0.0961771 -1.95464 0
M  V30 2919 C 280.49 -3.43419 -0.989864 0
M  V30 2920 C 280.156 -4.50866 0.0557687 0
M  V30 2921 C 278.818 -4.79975 0.343134 0
M  V30 2922 C 281.17 -5.15551 0.765308 0
M  V30 2923 C 278.498 -5.71066 1.34536 0
M  V30 2924 C 280.85 -6.07724 1.75654 0
M  V30 2925 C 279.514 -6.35199 2.05132 0
M  V30 2926 H 278.784 -0.720869 -0.17155 0
M  V30 2927 H 281.431 -1.89616 0.267924 0
M  V30 2928 H 279.736 -3.47772 -1.80449 0
M  V30 2929 H 281.433 -3.72002 -1.49719 0
M  V30 2930 H 278.023 -4.28229 -0.178381 0
M  V30 2931 H 282.207 -4.9317 0.556513 0
M  V30 2932 H 277.463 -5.90635 1.57988 0
M  V30 2933 H 281.637 -6.56912 2.31169 0
M  V30 2934 H 279.264 -7.05584 2.8294 0
M  V30 2935 N 280.839 0.0985539 -1.57292 0
M  V30 2936 C 281.802 1.10402 -2.00858 0
M  V30 2937 C 282.802 1.33146 -0.901593 0
M  V30 2938 O 283.992 1.29318 -1.16716 0
M  V30 2939 C 281.124 2.45394 -2.36632 0
M  V30 2940 H 282.317 0.729099 -2.90902 0
M  V30 2941 H 279.87 0.343495 -1.52479 0
M  V30 2942 H 280.605 2.87769 -1.49531 0
M  V30 2943 H 280.39 2.30235 -3.17387 0
M  V30 2944 H 281.88 3.17718 -2.71007 0
M  V30 2945 N 282.317 1.53212 0.369288 0
M  V30 2946 C 283.28 1.7872 1.43498 0
M  V30 2947 C 284.28 0.657554 1.46741 0
M  V30 2948 O 285.47 0.925736 1.47566 0
M  V30 2949 C 282.602 1.90591 2.82645 0
M  V30 2950 H 283.795 2.73894 1.22156 0
M  V30 2951 H 281.348 1.44233 0.602203 0
M  V30 2952 H 282.083 0.974709 3.09306 0
M  V30 2953 H 281.868 2.72751 2.8169 0
M  V30 2954 H 283.358 2.11931 3.59826 0
M  V30 2955 N 283.795 -0.628877 1.44509 0
M  V30 2956 C 285.044 -1.38437 1.4669 0
M  V30 2957 C 285.357 -1.95322 0.104272 0
M  V30 2958 O 286.563 -2.715 0.00362163 0
M  V30 2959 C 285.019 -2.50659 2.5826 0
M  V30 2960 C 284.627 -2.00277 4.0074 0
M  V30 2961 C 286.371 -3.27844 2.69664 0
M  V30 2962 C 284.278 -3.09854 5.0373 0
M  V30 2963 H 283.208 -0.520245 0.545766 0
M  V30 2964 H 285.859 -0.676313 1.70582 0
M  V30 2965 H 284.241 -3.2405 2.27612 0
M  V30 2966 H 285.415 -1.33736 4.40966 0
M  V30 2967 H 283.73 -1.35901 3.93599 0
M  V30 2968 H 286.327 -4.09534 3.43781 0
M  V30 2969 H 286.67 -3.77471 1.75559 0
M  V30 2970 H 287.203 -2.61543 2.99733 0
M  V30 2971 H 283.942 -2.65168 5.99472 0
M  V30 2972 H 283.462 -3.7503 4.68095 0
M  V30 2973 H 285.141 -3.74592 5.27532 0
M  V30 2974 N 285.273 -1.31445 -0.869486 0
M  V30 2975 C 286.221 -1.19067 -1.99814 0
M  V30 2976 C 287.215 -0.0988569 -1.69111 0
M  V30 2977 O 288.421 -0.260781 -1.78101 0
M  V30 2978 H 284.796 -0.368677 -0.655425 0
M  V30 2979 H 286.767 -2.14555 -2.07385 0
M  V30 2980 C 285.516 -0.915323 -3.35436 0
M  V30 2981 H 284.839 -1.74759 -3.59582 0
M  V30 2982 H 286.279 -0.868895 -4.15001 0
M  V30 2983 C 284.738 0.381928 -3.34728 0
M  V30 2984 O 285.268 1.39857 -3.76567 0
M  V30 2985 N 283.474 0.398633 -2.87853 0
M  V30 2986 H 283.021 -0.429186 -2.54 0
M  V30 2987 H 282.979 1.26651 -2.87762 0
M  V30 2988 N 286.751 1.08385 -1.14413 0
M  V30 2989 C 287.661 2.18856 -0.844951 0
M  V30 2990 C 288.677 1.73121 0.174668 0
M  V30 2991 O 289.853 2.014 0.00312857 0
M  V30 2992 C 286.918 3.45155 -0.32696 0
M  V30 2993 C 285.979 4.05513 -1.40916 0
M  V30 2994 C 285.212 5.25784 -0.915793 0
M  V30 2995 O 285.435 5.69884 0.242651 0
M  V30 2996 O 284.369 5.77545 -1.69487 0
M  V30 2997 H 288.195 2.46919 -1.76818 0
M  V30 2998 H 285.78 1.17524 -0.922411 0
M  V30 2999 H 287.662 4.21377 -0.0440211 0
M  V30 3000 H 286.337 3.18668 0.568539 0
M  V30 3001 H 285.244 3.30879 -1.74556 0
M  V30 3002 H 286.577 4.3625 -2.27919 0
M  V30 3003 N 288.23 0.939286 1.26551 0
M  V30 3004 C 289.478 0.58469 1.93457 0
M  V30 3005 C 289.799 -0.878774 1.74076 0
M  V30 3006 O 289.069 -1.62421 1.09528 0
M  V30 3007 H 287.649 0.21325 0.715914 0
M  V30 3008 H 290.311 1.1942 1.54029 0
M  V30 3009 H 289.407 0.800849 3.0165 0
M  V30 3010 N 289.708 -1.40897 0.706093 0
M  V30 3011 C 290.956 -2.00657 0.241054 0
M  V30 3012 C 291.277 -1.56241 -1.16678 0
M  V30 3013 O 290.547 -0.79765 -1.78926 0
M  V30 3014 H 289.127 -0.742018 0.0861308 0
M  V30 3015 H 291.789 -1.72372 0.909604 0
M  V30 3016 H 290.885 -3.10958 0.266705 0
M  V30 3017 N 291.186 -0.45159 -1.50991 0
M  V30 3018 C 292.118 0.388634 -2.25881 0
M  V30 3019 C 293.131 0.974041 -1.30446 0
M  V30 3020 O 294.32 0.865758 -1.56099 0
M  V30 3021 C 291.42 1.5571 -3.01011 0
M  V30 3022 C 290.593 1.08801 -4.23652 0
M  V30 3023 C 289.652 2.12825 -4.8124 0
M  V30 3024 O 288.678 1.71678 -5.42693 0
M  V30 3025 N 289.88 3.45453 -4.66522 0
M  V30 3026 H 292.645 -0.25329 -2.98628 0
M  V30 3027 H 290.206 -0.281268 -1.59438 0
M  V30 3028 H 292.198 2.24952 -3.3642 0
M  V30 3029 H 290.768 2.10409 -2.31186 0
M  V30 3030 H 289.988 0.22215 -3.93574 0
M  V30 3031 H 291.276 0.752213 -5.03209 0
M  V30 3032 H 290.674 3.81605 -4.17605 0
M  V30 3033 H 289.231 4.10549 -5.06254 0
M  V30 3034 N 292.664 1.56529 -0.183458 0
M  V30 3035 C 294.08 1.58664 0.172554 0
M  V30 3036 C 294.28 1.19925 1.61926 0
M  V30 3037 O 293.336 0.916534 2.35278 0
M  V30 3038 C 294.649 3.00463 -0.119262 0
M  V30 3039 C 296.197 3.12945 -0.0584396 0
M  V30 3040 C 296.672 4.56857 -0.323408 0
M  V30 3041 N 298.163 4.62403 -0.271612 0
M  V30 3042 C 298.898 5.71626 -0.450639 0
M  V30 3043 N 298.394 6.89362 -0.689384 0
M  V30 3044 N 300.187 5.60775 -0.385701 0
M  V30 3045 H 292.338 1.79994 -1.12765 0
M  V30 3046 H 294.601 0.834808 -0.449222 0
M  V30 3047 H 294.307 3.33326 -1.12192 0
M  V30 3048 H 294.181 3.72659 0.583544 0
M  V30 3049 H 296.568 2.79902 0.934805 0
M  V30 3050 H 296.649 2.4316 -0.794144 0
M  V30 3051 H 296.293 4.9061 -1.31392 0
M  V30 3052 H 296.223 5.24816 0.43305 0
M  V30 3053 H 298.714 3.77785 -0.0932256 0
M  V30 3054 H 299.027 7.68489 -0.815113 0
M  V30 3055 H 297.372 6.91196 -0.726142 0
M  V30 3056 H 300.563 4.67674 -0.199687 0
M  V30 3057 H 300.736 6.4584 -0.528646 0
M  V30 3058 N 294.142 -0.090211 1.57342 0
M  V30 3059 C 295.391 -0.791531 1.8552 0
M  V30 3060 C 295.704 -1.79659 0.773441 0
M  V30 3061 O 296.91 -2.54616 0.942497 0
M  V30 3062 C 295.366 -1.45856 3.2902 0
M  V30 3063 C 294.974 -0.493017 4.45279 0
M  V30 3064 C 296.718 -2.14332 3.66418 0
M  V30 3065 C 294.625 -1.16491 5.79814 0
M  V30 3066 H 293.555 -0.299356 0.692027 0
M  V30 3067 H 296.206 -0.0445343 1.83446 0
M  V30 3068 H 294.588 -2.25318 3.2565 0
M  V30 3069 H 295.762 0.270464 4.60006 0
M  V30 3070 H 294.077 0.0863061 4.16311 0
M  V30 3071 H 296.674 -2.65344 4.64216 0
M  V30 3072 H 297.017 -2.93447 2.95287 0
M  V30 3073 H 297.55 -1.41724 3.71698 0
M  V30 3074 H 294.289 -0.41447 6.54188 0
M  V30 3075 H 293.809 -1.8997 5.68921 0
M  V30 3076 H 295.488 -1.69001 6.24538 0
M  V30 3077 N 295.62 -1.53406 -0.361157 0
M  V30 3078 C 296.845 -1.74024 -1.12829 0
M  V30 3079 C 297.27 -0.470069 -1.82132 0
M  V30 3080 O 296.628 0.57619 -1.719 0
M  V30 3081 C 296.676 -2.90903 -2.13091 0
M  V30 3082 O 295.78 -2.59821 -3.20261 0
M  V30 3083 H 295.121 -0.577804 -0.327168 0
M  V30 3084 H 297.651 -2.00307 -0.41693 0
M  V30 3085 H 297.661 -3.17194 -2.56616 0
M  V30 3086 H 296.336 -3.83034 -1.62042 0
M  V30 3087 H 294.913 -2.44362 -2.81677 0
M  V30 3088 N 297.098 0.621204 -1.44841 0
M  V30 3089 C 298.509 1.20298 -1.42777 0
M  V30 3090 C 298.86 1.95639 -0.148259 0
M  V30 3091 O 297.985 2.02955 0.750892 0
M  V30 3092 C 298.58 2.1882 -2.58657 0
M  V30 3093 C 297.139 2.72403 -2.59756 0
M  V30 3094 C 296.286 1.4757 -2.34773 0
M  V30 3095 H 299.237 0.411297 -1.53278 0
M  V30 3096 H 299.258 3.01607 -2.31977 0
M  V30 3097 H 298.77 1.63957 -3.51766 0
M  V30 3098 H 296.871 3.31242 -1.70615 0
M  V30 3099 H 296.984 3.17765 -3.58556 0
M  V30 3100 H 295.348 1.76051 -1.8406 0
M  V30 3101 H 296.131 0.945954 -3.3001 0
M  V30 3102 N 298.576 1.31904 0.862503 0
M  V30 3103 C 299.825 1.21373 1.61094 0
M  V30 3104 C 300.138 -0.22504 1.94301 0
M  V30 3105 O 301.344 -0.452121 2.67709 0
M  V30 3106 C 299.8 2.12525 2.9045 0
M  V30 3107 C 299.408 3.61441 2.64697 0
M  V30 3108 C 301.152 2.10813 3.68454 0
M  V30 3109 C 299.059 4.44578 3.90006 0
M  V30 3110 H 297.989 0.450705 0.604468 0
M  V30 3111 H 300.64 1.56811 0.953027 0
M  V30 3112 H 299.022 1.69994 3.57656 0
M  V30 3113 H 300.196 4.12264 2.05851 0
M  V30 3114 H 298.511 3.65205 2.00036 0
M  V30 3115 H 301.108 2.70167 4.61426 0
M  V30 3116 H 301.451 1.09713 4.01583 0
M  V30 3117 H 301.984 2.51583 3.08141 0
M  V30 3118 H 298.723 5.46461 3.62023 0
M  V30 3119 H 298.243 3.98508 4.48276 0
M  V30 3120 H 299.922 4.57176 4.5782 0
M  V30 3121 N 300.054 -1.07777 1.14986 0
M  V30 3122 C 301.3 -1.80557 0.923422 0
M  V30 3123 C 301.633 -1.86298 -0.548337 0
M  V30 3124 O 300.908 -1.34354 -1.40639 0
M  V30 3125 C 301.191 -3.25839 1.53299 0
M  V30 3126 C 301.044 -3.28269 3.07505 0
M  V30 3127 C 302.363 -4.22991 1.21518 0
M  V30 3128 H 299.482 -0.655493 0.336894 0
M  V30 3129 H 302.124 -1.26144 1.42083 0
M  V30 3130 H 300.274 -3.72306 1.10999 0
M  V30 3131 H 301.946 -2.90079 3.58681 0
M  V30 3132 H 300.189 -2.67355 3.4162 0
M  V30 3133 H 300.86 -4.30691 3.45266 0
M  V30 3134 H 303.336 -3.84894 1.581 0
M  V30 3135 H 302.212 -5.22945 1.66793 0
M  V30 3136 H 302.473 -4.41904 0.131505 0
M  V30 3137 N 301.532 -0.945985 -1.26051 0
M  V30 3138 C 302.778 -0.597002 -1.93814 0
M  V30 3139 C 303.111 0.862484 -1.73997 0
M  V30 3140 O 302.386 1.61769 -1.07986 0
M  V30 3141 C 302.669 -0.945937 -3.47454 0
M  V30 3142 C 302.522 -2.46052 -3.76535 0
M  V30 3143 C 303.841 -0.464785 -4.37639 0
M  V30 3144 H 300.96 -0.218366 -0.703907 0
M  V30 3145 H 303.602 -1.18107 -1.48831 0
M  V30 3146 H 301.752 -0.448902 -3.85898 0
M  V30 3147 H 303.424 -3.03065 -3.47778 0
M  V30 3148 H 301.667 -2.90194 -3.22444 0
M  V30 3149 H 302.338 -2.65517 -4.83947 0
M  V30 3150 H 304.814 -0.891016 -4.06448 0
M  V30 3151 H 303.69 -0.737712 -5.4392 0
M  V30 3152 H 303.951 0.635274 -4.37512 0
M  V30 3153 N 303.011 1.40521 -0.713556 0
M  V30 3154 C 303.959 2.32549 -0.0485227 0
M  V30 3155 C 304.953 1.51931 0.74922 0
M  V30 3156 O 306.159 1.67745 0.652816 0
M  V30 3157 H 302.534 0.751994 0.00311138 0
M  V30 3158 H 304.505 2.86291 -0.841443 0
M  V30 3159 C 303.254 3.36879 0.860687 0
M  V30 3160 H 302.577 3.98978 0.256246 0
M  V30 3161 H 304.017 4.03772 1.294 0
M  V30 3162 C 302.476 2.72197 1.9852 0
M  V30 3163 O 303.006 2.5837 3.07584 0
M  V30 3164 N 301.212 2.30612 1.76823 0
M  V30 3165 H 300.759 2.42059 0.881217 0
M  V30 3166 H 300.717 1.87672 2.52243 0
M  V30 3167 N 304.489 0.459591 1.5075 0
M  V30 3168 C 305.714 -0.0996819 2.0716 0
M  V30 3169 C 306.139 -1.33761 1.32249 0
M  V30 3170 O 305.497 -1.77551 0.366786 0
M  V30 3171 C 305.545 -0.378226 3.58611 0
M  V30 3172 O 304.649 -1.46081 3.85661 0
M  V30 3173 H 303.99 0.00791392 0.663953 0
M  V30 3174 H 306.52 0.647329 1.9409 0
M  V30 3175 H 306.53 -0.622135 4.03229 0
M  V30 3176 H 305.205 0.526439 4.12555 0
M  V30 3177 H 303.782 -1.20511 3.5289 0
M  V30 3178 N 305.967 -1.56429 0.191757 0
M  V30 3179 C 307.192 -2.02309 -0.456706 0
M  V30 3180 C 307.617 -1.07103 -1.5463 0
M  V30 3181 O 306.975 -0.0539677 -1.8122 0
M  V30 3182 C 307.023 -3.46654 -0.993159 0
M  V30 3183 O 306.127 -3.54559 -2.10622 0
M  V30 3184 H 305.468 -0.655303 -0.107114 0
M  V30 3185 H 307.998 -2.02364 0.301653 0
M  V30 3186 H 308.008 -3.86377 -1.31061 0
M  V30 3187 H 306.683 -4.1544 -0.195504 0
M  V30 3188 H 305.26 -3.26708 -1.79767 0
M  V30 3189 N 307.445 0.0818655 -1.57387 0
M  V30 3190 C 308.393 1.11712 -2.04018 0
M  V30 3191 C 309.387 1.40683 -0.94364 0
M  V30 3192 O 310.593 1.40209 -1.12878 0
M  V30 3193 H 306.968 0.377542 -0.650358 0
M  V30 3194 H 308.939 0.697614 -2.90131 0
M  V30 3195 C 307.688 2.42537 -2.49141 0
M  V30 3196 H 307.011 2.21092 -3.33104 0
M  V30 3197 H 308.451 3.13446 -2.85531 0
M  V30 3198 C 306.91 3.0778 -1.37014 0
M  V30 3199 O 307.44 3.95436 -0.706621 0
M  V30 3200 N 305.646 2.68242 -1.11779 0
M  V30 3201 H 305.193 1.97052 -1.65917 0
M  V30 3202 H 305.151 3.1222 -0.369594 0
M  V30 3203 N 308.923 1.53595 0.353017 0
M  V30 3204 C 310.169 1.70638 1.09593 0
M  V30 3205 C 310.502 0.463286 1.88593 0
M  V30 3206 O 309.777 -0.539597 1.86865 0
M  V30 3207 C 310.06 2.96406 2.04489 0
M  V30 3208 C 309.913 4.30901 1.29014 0
M  V30 3209 C 311.232 3.17812 3.0444 0
M  V30 3210 H 308.351 0.620913 0.397034 0
M  V30 3211 H 310.993 1.86254 0.375446 0
M  V30 3212 H 309.143 2.83223 2.65927 0
M  V30 3213 H 310.815 4.55917 0.702638 0
M  V30 3214 H 309.058 4.29741 0.592071 0
M  V30 3215 H 309.729 5.1506 1.98537 0
M  V30 3216 H 312.205 3.30263 2.53112 0
M  V30 3217 H 311.081 4.07223 3.6805 0
M  V30 3218 H 311.342 2.33669 3.75301 0
M  V30 3219 N 310.401 -0.613514 1.45168 0
M  V30 3220 C 311.311 -1.75296 1.55912 0
M  V30 3221 C 312.327 -1.68244 0.443856 0
M  V30 3222 O 313.503 -1.88706 0.70371 0
M  V30 3223 C 310.568 -3.1174 1.5172 0
M  V30 3224 C 309.629 -3.30291 2.74238 0
M  V30 3225 C 308.862 -4.60226 2.70236 0
M  V30 3226 O 309.085 -5.42168 1.77229 0
M  V30 3227 O 308.019 -4.81361 3.61352 0
M  V30 3228 H 311.845 -1.69183 2.52212 0
M  V30 3229 H 309.43 -0.776886 1.27612 0
M  V30 3230 H 311.312 -3.93044 1.51968 0
M  V30 3231 H 309.987 -3.18357 0.585697 0
M  V30 3232 H 308.894 -2.48598 2.79553 0
M  V30 3233 H 310.227 -3.28547 3.66494 0
M  V30 3234 N 311.879 -1.3236 -0.855495 0
M  V30 3235 C 313.127 -1.22629 -1.60644 0
M  V30 3236 C 313.448 0.212136 -1.93843 0
M  V30 3237 O 312.718 1.13666 -1.59552 0
M  V30 3238 H 311.298 -0.450882 -0.595579 0
M  V30 3239 H 313.96 -1.65871 -1.02337 0
M  V30 3240 H 313.056 -1.80832 -2.54374 0
M  V30 3241 N 313.357 1.07166 -1.15556 0
M  V30 3242 C 314.605 1.79443 -0.929764 0
M  V30 3243 C 314.926 1.87246 0.544414 0
M  V30 3244 O 314.196 1.37473 1.39564 0
M  V30 3245 H 312.776 0.664625 -0.341003 0
M  V30 3246 H 315.438 1.29499 -1.45657 0
M  V30 3247 H 314.534 2.81832 -1.34079 0
M  V30 3248 N 314.835 0.952656 1.25548 0
M  V30 3249 C 315.745 0.47782 2.29682 0
M  V30 3250 C 316.761 -0.453859 1.67977 0
M  V30 3251 O 317.937 -0.330587 1.98668 0
M  V30 3252 C 315.002 -0.238655 3.45878 0
M  V30 3253 C 314.063 0.730994 4.23031 0
M  V30 3254 C 313.296 0.0486165 5.33678 0
M  V30 3255 O 313.519 -1.16612 5.58353 0
M  V30 3256 O 312.453 0.733152 5.97418 0
M  V30 3257 H 316.279 1.34312 2.72386 0
M  V30 3258 H 313.864 0.719026 1.30959 0
M  V30 3259 H 315.746 -0.641774 4.16484 0
M  V30 3260 H 314.421 -1.07916 3.05181 0
M  V30 3261 H 313.328 1.18428 3.5486 0
M  V30 3262 H 314.661 1.53946 4.67506 0
M  V30 3263 N 316.313 -1.40141 0.720998 0
M  V30 3264 C 317.26 -2.30688 0.071919 0
M  V30 3265 C 318.23 -1.48476 -0.744584 0
M  V30 3266 O 319.415 -1.77201 -0.707423 0
M  V30 3267 C 316.555 -3.34724 -0.839855 0
M  V30 3268 C 315.668 -4.31998 -0.0122438 0
M  V30 3269 C 314.803 -5.23102 -0.923995 0
M  V30 3270 C 313.842 -6.12033 -0.0907969 0
M  V30 3271 N 312.979 -6.95537 -0.957718 0
M  V30 3272 H 317.819 -2.85628 0.849755 0
M  V30 3273 H 315.356 -1.40653 0.430726 0
M  V30 3274 H 317.314 -3.93618 -1.38279 0
M  V30 3275 H 315.944 -2.81274 -1.58381 0
M  V30 3276 H 314.996 -3.74841 0.64794 0
M  V30 3277 H 316.308 -4.94772 0.632595 0
M  V30 3278 H 315.462 -5.86953 -1.53527 0
M  V30 3279 H 314.201 -4.60615 -1.60264 0
M  V30 3280 H 313.206 -5.47207 0.533377 0
M  V30 3281 H 314.431 -6.76581 0.584428 0
M  V30 3282 H 312.377 -6.35633 -1.62192 0
M  V30 3283 H 312.294 -7.55099 -0.36904 0
M  V30 3284 H 313.562 -7.63832 -1.555 0
M  V30 3285 N 317.792 -0.46758 -1.50504 0
M  V30 3286 C 319.04 0.0884469 -2.01906 0
M  V30 3287 C 319.361 1.40532 -1.35188 0
M  V30 3288 O 318.631 1.89515 -0.496079 0
M  V30 3289 H 317.211 0.0356765 -0.746148 0
M  V30 3290 H 319.873 -0.6172 -1.84869 0
M  V30 3291 H 318.969 0.2425 -3.11156 0
M  V30 3292 N 319.27 1.56325 -0.20005 0
M  V30 3293 C 320.681 1.8408 0.31167 0
M  V30 3294 C 321.032 1.12087 1.61031 0
M  V30 3295 O 320.157 0.38332 2.12978 0
M  V30 3296 C 320.752 3.33932 0.57226 0
M  V30 3297 C 319.311 3.6208 1.02834 0
M  V30 3298 C 318.458 2.77186 0.079634 0
M  V30 3299 H 321.409 1.52939 -0.423729 0
M  V30 3300 H 321.43 3.52971 1.42096 0
M  V30 3301 H 320.942 3.86303 -0.37308 0
M  V30 3302 H 319.043 3.15147 1.98778 0
M  V30 3303 H 319.156 4.7023 0.917624 0
M  V30 3304 H 317.52 2.47951 0.582448 0
M  V30 3305 H 318.303 3.32347 -0.860238 0
M  V30 3306 N 320.748 -0.0735177 1.57428 0
M  V30 3307 C 321.994 -0.774145 1.87443 0
M  V30 3308 C 322.327 -1.77311 0.792103 0
M  V30 3309 O 321.602 -1.93492 -0.197793 0
M  V30 3310 C 321.885 -1.48367 3.28115 0
M  V30 3311 C 321.738 -0.501227 4.46999 0
M  V30 3312 C 323.057 -2.429 3.66998 0
M  V30 3313 H 320.176 -0.279971 0.681752 0
M  V30 3314 H 322.818 -0.0373616 1.89963 0
M  V30 3315 H 320.968 -2.11171 3.26097 0
M  V30 3316 H 322.64 0.121468 4.6114 0
M  V30 3317 H 320.883 0.183593 4.33411 0
M  V30 3318 H 321.554 -1.03526 5.42205 0
M  V30 3319 H 324.03 -1.90175 3.70098 0
M  V30 3320 H 322.906 -2.89549 4.66318 0
M  V30 3321 H 323.167 -3.27628 2.96837 0
M  V30 3322 N 322.226 -1.5378 -0.344866 0
M  V30 3323 C 323.474 -1.70625 -1.08311 0
M  V30 3324 C 323.795 -0.471447 -1.89215 0
M  V30 3325 O 323.065 0.514616 -1.8902 0
M  V30 3326 H 321.645 -0.629058 -0.402859 0
M  V30 3327 H 324.307 -1.9103 -0.386459 0
M  V30 3328 H 323.403 -2.57656 -1.76124 0
M  V30 3329 N 323.704 0.605807 -1.45491 0
M  V30 3330 C 324.95 1.36679 -1.49823 0
M  V30 3331 C 325.283 1.93693 -0.140175 0
M  V30 3332 O 324.558 1.75158 0.845581 0
M  V30 3333 C 324.841 2.51337 -2.57879 0
M  V30 3334 C 324.694 1.99508 -4.03134 0
M  V30 3335 C 326.013 3.53463 -2.62205 0
M  V30 3336 H 323.132 0.495617 -0.545466 0
M  V30 3337 H 325.774 0.682732 -1.7731 0
M  V30 3338 H 323.924 3.09691 -2.34571 0
M  V30 3339 H 325.596 1.45789 -4.37656 0
M  V30 3340 H 323.839 1.30496 -4.13707 0
M  V30 3341 H 324.51 2.82169 -4.74431 0
M  V30 3342 H 326.986 3.04953 -2.83095 0
M  V30 3343 H 325.862 4.31178 -3.39672 0
M  V30 3344 H 326.123 4.09197 -1.67363 0
M  V30 3345 N 325.182 1.32811 0.848464 0
M  V30 3346 C 326.41 1.26739 1.63538 0
M  V30 3347 C 326.825 -0.163484 1.88091 0
M  V30 3348 O 326.182 -1.10258 1.45429 0
M  V30 3349 C 326.233 2.03013 2.99112 0
M  V30 3350 O 325.954 3.40518 2.75643 0
M  V30 3351 C 327.455 2.04038 3.93552 0
M  V30 3352 H 324.675 0.437024 0.509167 0
M  V30 3353 H 327.219 1.75033 1.05753 0
M  V30 3354 H 325.374 1.58426 3.53525 0
M  V30 3355 H 325.788 3.79635 3.61908 0
M  V30 3356 H 327.262 2.61877 4.85926 0
M  V30 3357 H 327.739 1.0282 4.26995 0
M  V30 3358 H 328.345 2.486 3.45077 0
M  V30 3359 N 326.66 -1.06551 1.16123 0
M  V30 3360 C 328.076 -1.3142 0.905585 0
M  V30 3361 C 328.276 -1.96571 -0.442964 0
M  V30 3362 O 327.332 -2.23068 -1.18308 0
M  V30 3363 C 328.645 -2.19741 2.05267 0
M  V30 3364 C 330.193 -2.33165 2.08813 0
M  V30 3365 C 330.668 -3.24838 3.22868 0
M  V30 3366 N 332.159 -3.32421 3.22568 0
M  V30 3367 C 332.894 -4.0344 4.0746 0
M  V30 3368 N 332.39 -4.77003 5.02434 0
M  V30 3369 N 334.183 -3.99464 3.95456 0
M  V30 3370 H 326.334 -0.626548 2.02949 0
M  V30 3371 H 328.597 -0.338777 0.8854 0
M  V30 3372 H 328.303 -1.79142 3.02657 0
M  V30 3373 H 328.177 -3.20313 1.99198 0
M  V30 3374 H 330.564 -2.73013 1.12018 0
M  V30 3375 H 330.645 -1.3227 2.18948 0
M  V30 3376 H 330.289 -2.85708 4.19921 0
M  V30 3377 H 330.219 -4.25707 3.0997 0
M  V30 3378 H 332.71 -2.79994 2.53795 0
M  V30 3379 H 333.023 -5.28712 5.63634 0
M  V30 3380 H 331.368 -4.75992 5.06415 0
M  V30 3381 H 334.559 -3.4111 3.20564 0
M  V30 3382 H 334.732 -4.54544 4.61837 0
M  V30 3383 N 328.138 -0.959301 -1.25041 0
M  V30 3384 C 329.384 -0.627096 -1.93492 0
M  V30 3385 C 329.739 0.827484 -1.73696 0
M  V30 3386 O 329.032 1.58651 -1.07427 0
M  V30 3387 C 329.226 -0.927136 -3.45165 0
M  V30 3388 C 329.055 -2.40933 -3.79712 0
M  V30 3389 C 327.825 -3.0677 -4.01522 0
M  V30 3390 C 330.023 -3.38894 -3.86853 0
M  V30 3391 N 328.005 -4.44815 -4.231 0
M  V30 3392 C 329.376 -4.62263 -4.13174 0
M  V30 3393 C 331.431 -3.33668 -3.69554 0
M  V30 3394 C 330.134 -5.81052 -4.23995 0
M  V30 3395 C 332.16 -4.518 -3.81616 0
M  V30 3396 C 331.522 -5.73957 -4.08354 0
M  V30 3397 H 327.621 -0.280166 -0.73009 0
M  V30 3398 H 330.205 -1.23244 -1.50729 0
M  V30 3399 H 328.376 -0.350685 -3.86814 0
M  V30 3400 H 330.108 -0.554361 -4.00885 0
M  V30 3401 H 326.863 -2.57327 -3.97593 0
M  V30 3402 H 327.287 -5.16319 -4.37885 0
M  V30 3403 H 331.929 -2.40268 -3.47895 0
M  V30 3404 H 329.647 -6.74888 -4.44468 0
M  V30 3405 H 333.233 -4.49309 -3.69612 0
M  V30 3406 H 332.113 -6.6384 -4.17475 0
M  V30 3407 N 329.616 1.39756 -0.72842 0
M  V30 3408 C 330.563 2.30647 -0.0841519 0
M  V30 3409 C 331.533 1.48869 0.7367 0
M  V30 3410 O 332.718 1.77574 0.698015 0
M  V30 3411 C 329.858 3.35165 0.822091 0
M  V30 3412 C 328.971 4.31999 -0.0106663 0
M  V30 3413 C 328.106 5.23585 0.896241 0
M  V30 3414 C 327.145 6.12072 0.0583381 0
M  V30 3415 N 326.282 6.96035 0.920818 0
M  V30 3416 H 331.122 2.85173 -0.864891 0
M  V30 3417 H 328.659 1.40422 -0.438179 0
M  V30 3418 H 330.617 3.94345 1.36189 0
M  V30 3419 H 329.247 2.8211 1.56888 0
M  V30 3420 H 328.299 3.74492 -0.66781 0
M  V30 3421 H 329.611 4.9443 -0.658825 0
M  V30 3422 H 328.765 5.87759 1.50412 0
M  V30 3423 H 327.504 4.61459 1.57819 0
M  V30 3424 H 326.509 5.46916 -0.562389 0
M  V30 3425 H 327.734 6.76261 -0.6203 0
M  V30 3426 H 325.68 6.36485 1.58818 0
M  V30 3427 H 325.597 7.55284 0.32899 0
M  V30 3428 H 326.865 7.64646 1.51447 0
M  V30 3429 N 331.094 0.475555 1.50254 0
M  V30 3430 C 332.341 -0.0778919 2.0235 0
M  V30 3431 C 332.669 -1.39319 1.35722 0
M  V30 3432 O 331.924 -1.89888 0.473395 0
M  V30 3433 C 332.223 -0.305114 3.56095 0
M  V30 3434 C 331.889 0.92903 4.41225 0
M  V30 3435 C 330.551 1.26739 4.6421 0
M  V30 3436 C 332.903 1.75054 4.90923 0
M  V30 3437 C 330.231 2.42724 5.34137 0
M  V30 3438 C 332.583 2.9017 5.62125 0
M  V30 3439 C 331.247 3.24416 5.83362 0
M  V30 3440 H 330.517 -0.0285027 0.740452 0
M  V30 3441 H 333.164 0.630543 1.80821 0
M  V30 3442 H 331.469 -1.09584 3.76163 0
M  V30 3443 H 333.166 -0.747377 3.93974 0
M  V30 3444 H 329.756 0.655428 4.23559 0
M  V30 3445 H 333.94 1.50231 4.73016 0
M  V30 3446 H 329.196 2.69525 5.48786 0
M  V30 3447 H 333.37 3.54169 5.99614 0
M  V30 3448 H 330.997 4.14396 6.37323 0
M  V30 3449 N 332.573 -1.56217 0.208337 0
M  V30 3450 C 333.798 -2.02782 -0.435222 0
M  V30 3451 C 334.223 -1.08738 -1.53485 0
M  V30 3452 O 333.581 -0.0731855 -1.81152 0
M  V30 3453 C 333.629 -3.47687 -0.956335 0
M  V30 3454 O 332.733 -3.56773 -2.06849 0
M  V30 3455 H 332.074 -0.656403 -0.100158 0
M  V30 3456 H 334.604 -2.02033 0.3231 0
M  V30 3457 H 334.614 -3.87745 -1.26955 0
M  V30 3458 H 333.289 -4.15624 -0.15143 0
M  V30 3459 H 331.866 -3.28597 -1.76292 0
M  V30 3460 N 334.051 0.0651679 -1.57465 0
M  V30 3461 C 335.001 1.0838 -2.00594 0
M  V30 3462 C 335.985 1.34106 -0.889071 0
M  V30 3463 O 337.177 1.34295 -1.15299 0
M  V30 3464 C 334.306 2.39565 -2.45894 0
M  V30 3465 C 333.392 2.17085 -3.64328 0
M  V30 3466 N 333.783 1.64553 -4.78285 0
M  V30 3467 C 332.081 2.4753 -3.71006 0
M  V30 3468 C 332.782 1.57042 -5.60101 0
M  V30 3469 N 331.758 2.03328 -5.04141 0
M  V30 3470 H 335.56 0.671062 -2.86136 0
M  V30 3471 H 333.074 0.27213 -1.60104 0
M  V30 3472 H 335.071 3.13308 -2.75034 0
M  V30 3473 H 333.731 2.81549 -1.61741 0
M  V30 3474 H 334.742 1.33323 -5.00445 0
M  V30 3475 H 331.419 2.92835 -2.9758 0
M  V30 3476 H 332.809 1.17223 -6.61595 0
M  V30 3477 N 335.529 1.53961 0.336706 0
M  V30 3478 C 336.492 1.81724 1.39675 0
M  V30 3479 C 337.492 0.688532 1.45313 0
M  V30 3480 O 338.682 0.956829 1.45569 0
M  V30 3481 C 335.814 1.96543 2.78538 0
M  V30 3482 H 337.007 2.76424 1.16318 0
M  V30 3483 H 334.56 1.45478 0.571474 0
M  V30 3484 H 335.295 1.0401 3.07168 0
M  V30 3485 H 335.08 2.78665 2.75841 0
M  V30 3486 H 336.57 2.19516 3.5525 0
M  V30 3487 N 337.007 -0.598083 1.45811 0
M  V30 3488 C 338.255 -1.35413 1.50026 0
M  V30 3489 C 338.576 -1.94444 0.147177 0
M  V30 3490 O 337.846 -1.77701 -0.824571 0
M  V30 3491 H 336.426 -0.502727 0.552517 0
M  V30 3492 H 339.088 -0.701606 1.81834 0
M  V30 3493 H 338.184 -2.16871 2.2444 0
M  V30 3494 N 338.485 -1.33259 -0.841409 0
M  V30 3495 C 339.71 -1.2775 -1.63385 0
M  V30 3496 C 340.135 0.149188 -1.87507 0
M  V30 3497 O 339.493 1.10498 -1.43736 0
M  V30 3498 C 339.541 -2.05571 -2.96265 0
M  V30 3499 O 338.645 -1.41257 -3.87453 0
M  V30 3500 H 337.986 -0.439627 -0.497618 0
M  V30 3501 H 340.516 -1.75782 -1.04699 0
M  V30 3502 H 340.526 -2.16241 -3.45982 0
M  V30 3503 H 339.201 -3.09309 -2.7803 0
M  V30 3504 H 337.778 -1.39217 -3.45938 0
M  V30 3505 N 339.963 1.05934 -1.16686 0
M  V30 3506 C 341.211 1.78447 -0.948744 0
M  V30 3507 C 341.532 1.87813 0.524523 0
M  V30 3508 O 340.802 1.38945 1.38098 0
M  V30 3509 H 339.382 0.660971 -0.348033 0
M  V30 3510 H 342.044 1.27947 -1.47022 0
M  V30 3511 H 341.14 2.80394 -1.37061 0
M  V30 3512 N 341.441 0.965919 1.2453 0
M  V30 3513 C 342.687 0.62776 1.92839 0
M  V30 3514 C 343.02 -0.834694 1.75347 0
M  V30 3515 O 342.295 -1.60031 1.10546 0
M  V30 3516 C 342.578 1.00109 3.45905 0
M  V30 3517 C 342.431 2.52011 3.72573 0
M  V30 3518 C 343.75 0.53435 4.36844 0
M  V30 3519 H 340.869 0.229537 0.700344 0
M  V30 3520 H 343.511 1.2046 1.46933 0
M  V30 3521 H 341.661 0.510238 3.85135 0
M  V30 3522 H 343.333 3.08559 3.42912 0
M  V30 3523 H 341.576 2.95287 3.17786 0
M  V30 3524 H 342.247 2.73183 4.79661 0
M  V30 3525 H 344.723 0.955565 4.04979 0
M  V30 3526 H 343.599 0.824152 5.42678 0
M  V30 3527 H 343.86 -0.565589 4.38467 0
M  V30 3528 N 342.919 -1.39368 0.735821 0
M  V30 3529 C 344.165 -2.00794 0.284544 0
M  V30 3530 C 344.498 -1.58255 -1.12557 0
M  V30 3531 O 343.773 -0.811819 -1.76748 0
M  V30 3532 C 344.056 -3.58011 0.387337 0
M  V30 3533 C 343.909 -4.10566 1.83728 0
M  V30 3534 C 345.228 -4.395 -0.22975 0
M  V30 3535 H 342.347 -0.729501 0.104866 0
M  V30 3536 H 344.989 -1.65564 0.93213 0
M  V30 3537 H 343.139 -3.88154 -0.164006 0
M  V30 3538 H 344.811 -3.91139 2.44556 0
M  V30 3539 H 343.054 -3.64095 2.35833 0
M  V30 3540 H 343.725 -5.19702 1.86047 0
M  V30 3541 H 346.201 -4.15406 0.240257 0
M  V30 3542 H 345.077 -5.48752 -0.127485 0
M  V30 3543 H 345.338 -4.22062 -1.3159 0
M  V30 3544 N 344.397 -0.483516 -1.5 0
M  V30 3545 C 345.674 0.129337 -1.95172 0
M  V30 3546 C 346.054 1.55802 -1.4244 0
M  V30 3547 O 345.402 2.19625 -0.630649 0
M  V30 3548 C 345.612 0.0599251 -3.48949 0
M  V30 3549 C 346.96 0.242617 -4.23906 0
M  V30 3550 O 347.984 0.135933 -3.55941 0
M  V30 3551 O 346.843 0.459454 -5.44565 0
M  V30 3552 H 343.937 0.104887 -0.820322 0
M  V30 3553 H 346.483 -0.544807 -1.60717 0
M  V30 3554 H 345.255 -0.937079 -3.79914 0
M  V30 3555 H 344.878 0.774984 -3.89974 0
M  V30 3556 N 345.875 1.56104 -0.216619 0
M  V30 3557 C 347.1 2.0301 0.424462 0
M  V30 3558 C 347.525 1.0955 1.52907 0
M  V30 3559 O 346.883 0.0827914 1.81111 0
M  V30 3560 C 346.931 3.4819 0.937883 0
M  V30 3561 O 346.035 3.57865 2.04955 0
M  V30 3562 H 345.376 0.656925 0.0966755 0
M  V30 3563 H 347.906 2.01859 -0.33381 0
M  V30 3564 H 347.916 3.88413 1.24897 0
M  V30 3565 H 346.591 4.15699 0.129387 0
M  V30 3566 H 345.168 3.29527 1.74546 0
M  V30 3567 N 347.353 -0.0568162 1.57498 0
M  V30 3568 C 348.602 -0.752001 1.87157 0
M  V30 3569 C 348.915 -1.77978 0.811375 0
M  V30 3570 O 350.121 -2.52559 0.996293 0
M  V30 3571 C 348.577 -1.38844 3.3204 0
M  V30 3572 C 348.185 -0.398456 4.46225 0
M  V30 3573 C 349.929 -2.06512 3.70882 0
M  V30 3574 C 347.836 -1.04166 5.82154 0
M  V30 3575 H 346.766 -0.28461 0.698222 0
M  V30 3576 H 349.417 -0.00561272 1.83499 0
M  V30 3577 H 347.799 -2.1836 3.30356 0
M  V30 3578 H 348.973 0.367977 4.59328 0
M  V30 3579 H 347.288 0.174592 4.16034 0
M  V30 3580 H 349.885 -2.55437 4.6974 0
M  V30 3581 H 350.228 -2.87117 3.01445 0
M  V30 3582 H 350.761 -1.33808 3.7462 0
M  V30 3583 H 347.5 -0.275614 6.5492 0
M  V30 3584 H 347.02 -1.7786 5.72823 0
M  V30 3585 H 348.699 -1.55715 6.27982 0
M  V30 3586 N 348.832 -1.54138 -0.328536 0
M  V30 3587 C 350.057 -1.76378 -1.09112 0
M  V30 3588 C 350.482 -0.508596 -1.81094 0
M  V30 3589 O 349.84 0.539598 -1.73084 0
M  V30 3590 C 349.888 -2.95358 -2.06872 0
M  V30 3591 O 348.992 -2.66556 -3.14677 0
M  V30 3592 H 348.333 -0.584614 -0.314838 0
M  V30 3593 H 350.863 -2.01146 -0.374348 0
M  V30 3594 H 350.873 -3.22566 -2.4983 0
M  V30 3595 H 349.548 -3.86385 -1.5388 0
M  V30 3596 H 348.125 -2.50282 -2.7643 0
M  V30 3597 N 350.31 0.590341 -1.46126 0
M  V30 3598 C 351.726 0.912917 -1.30912 0
M  V30 3599 C 351.926 1.99616 -0.274893 0
M  V30 3600 O 350.982 2.50397 0.325197 0
M  V30 3601 C 352.295 1.3375 -2.69317 0
M  V30 3602 C 353.843 1.45077 -2.77348 0
M  V30 3603 C 354.318 1.90904 -4.16317 0
M  V30 3604 N 355.809 1.9811 -4.18696 0
M  V30 3605 C 356.544 2.34828 -5.23109 0
M  V30 3606 N 356.04 2.70393 -6.37856 0
M  V30 3607 N 357.833 2.35317 -5.10473 0
M  V30 3608 H 349.984 -0.125358 -2.1203 0
M  V30 3609 H 352.247 0.00658481 -0.947977 0
M  V30 3610 H 351.953 0.615614 -3.4627 0
M  V30 3611 H 351.827 2.30058 -2.9892 0
M  V30 3612 H 354.214 2.16353 -2.00687 0
M  V30 3613 H 354.295 0.4704 -2.51438 0
M  V30 3614 H 353.939 1.20209 -4.9347 0
M  V30 3615 H 353.869 2.89886 -4.39629 0
M  V30 3616 H 356.36 1.73146 -3.359 0
M  V30 3617 H 356.673 2.97341 -7.13308 0
M  V30 3618 H 355.018 2.68048 -6.41229 0
M  V30 3619 H 358.209 2.0695 -4.19868 0
M  V30 3620 H 358.382 2.63605 -5.9196 0
M  V30 3621 N 351.788 1.33704 0.83433 0
M  V30 3622 C 353.034 1.26612 1.59188 0
M  V30 3623 C 353.389 -0.165439 1.91687 0
M  V30 3624 O 352.682 -1.10873 1.56262 0
M  V30 3625 C 352.876 2.07926 2.90692 0
M  V30 3626 C 352.705 3.58844 2.71038 0
M  V30 3627 C 351.475 4.28148 2.68361 0
M  V30 3628 C 353.673 4.53082 2.43353 0
M  V30 3629 N 351.655 5.64987 2.40132 0
M  V30 3630 C 353.026 5.77843 2.24716 0
M  V30 3631 C 355.081 4.42119 2.28987 0
M  V30 3632 C 353.784 6.92877 1.9317 0
M  V30 3633 C 355.81 5.56973 1.98835 0
M  V30 3634 C 355.172 6.80745 1.81012 0
M  V30 3635 H 351.271 0.518517 0.585375 0
M  V30 3636 H 353.855 1.68294 0.979044 0
M  V30 3637 H 352.026 1.68558 3.49918 0
M  V30 3638 H 353.758 1.92568 3.55949 0
M  V30 3639 H 350.513 3.80469 2.82029 0
M  V30 3640 H 350.937 6.37133 2.28889 0
M  V30 3641 H 355.579 3.47058 2.41477 0
M  V30 3642 H 353.297 7.87931 1.79418 0
M  V30 3643 H 356.883 5.50428 1.88468 0
M  V30 3644 H 355.763 7.68115 1.58017 0
M  V30 3645 N 353.266 -1.05314 1.17247 0
M  V30 3646 C 354.494 -1.81971 0.984593 0
M  V30 3647 C 354.909 -1.82929 -0.467166 0
M  V30 3648 O 354.266 -1.25564 -1.32438 0
M  V30 3649 C 354.317 -3.28143 1.51672 0
M  V30 3650 O 354.038 -3.27347 2.91163 0
M  V30 3651 C 355.539 -4.21493 1.37326 0
M  V30 3652 H 352.759 -0.573455 0.348411 0
M  V30 3653 H 355.303 -1.32808 1.55506 0
M  V30 3654 H 353.458 -3.74582 0.988302 0
M  V30 3655 H 353.872 -4.18824 3.15732 0
M  V30 3656 H 355.346 -5.22043 1.79375 0
M  V30 3657 H 355.823 -4.38031 0.320169 0
M  V30 3658 H 356.429 -3.80909 1.89178 0
M  V30 3659 N 354.744 -0.972509 -1.24016 0
M  V30 3660 C 355.654 -0.5143 -2.28893 0
M  V30 3661 C 356.67 0.427078 -1.68677 0
M  V30 3662 O 357.846 0.298939 -1.99169 0
M  V30 3663 C 354.911 0.183598 -3.46214 0
M  V30 3664 C 353.972 -0.798202 -4.21814 0
M  V30 3665 C 353.205 -0.133514 -5.33533 0
M  V30 3666 O 353.428 1.07714 -5.60137 0
M  V30 3667 O 352.362 -0.828103 -5.96176 0
M  V30 3668 H 356.188 -1.38629 -2.70214 0
M  V30 3669 H 353.773 -0.739769 -1.29799 0
M  V30 3670 H 355.655 0.575433 -4.17453 0
M  V30 3671 H 354.33 1.03048 -3.0686 0
M  V30 3672 H 353.237 -1.24059 -3.52931 0
M  V30 3673 H 354.57 -1.61364 -4.64997 0
M  V30 3674 N 356.222 1.38976 -0.743202 0
M  V30 3675 C 357.152 2.33171 -0.123873 0
M  V30 3676 C 358.133 1.54336 0.71516 0
M  V30 3677 O 359.318 1.82696 0.658467 0
M  V30 3678 C 356.448 3.38474 0.777978 0
M  V30 3679 C 355.402 4.27979 0.0424758 0
M  V30 3680 C 354.728 5.2405 1.06189 0
M  V30 3681 C 356.028 5.10155 -1.1198 0
M  V30 3682 H 357.722 2.85213 -0.910709 0
M  V30 3683 H 355.268 1.37133 -0.439388 0
M  V30 3684 H 357.221 4.03328 1.22084 0
M  V30 3685 H 355.945 2.84891 1.59702 0
M  V30 3686 H 354.604 3.64616 -0.380853 0
M  V30 3687 H 354.252 4.66758 1.87472 0
M  V30 3688 H 353.952 5.84785 0.574485 0
M  V30 3689 H 355.476 5.9178 1.50428 0
M  V30 3690 H 356.89 5.68307 -0.75499 0
M  V30 3691 H 355.287 5.80073 -1.53738 0
M  V30 3692 H 356.357 4.44504 -1.93764 0
M  V30 3693 N 357.7 0.491464 1.49741 0
M  V30 3694 C 358.947 -0.0564256 2.02421 0
M  V30 3695 C 359.275 -1.37872 1.37192 0
M  V30 3696 O 358.53 -1.89375 0.493508 0
M  V30 3697 C 358.829 -0.267329 3.56399 0
M  V30 3698 C 358.495 0.975775 4.40215 0
M  V30 3699 C 357.157 1.31655 4.62839 0
M  V30 3700 C 359.509 1.80251 4.89039 0
M  V30 3701 C 356.837 2.48375 5.31532 0
M  V30 3702 C 359.189 2.96116 5.59015 0
M  V30 3703 C 357.853 3.30585 5.79888 0
M  V30 3704 H 357.123 -0.0206476 0.740712 0
M  V30 3705 H 359.77 0.649686 1.80143 0
M  V30 3706 H 358.075 -1.05588 3.77304 0
M  V30 3707 H 359.772 -0.705549 3.94744 0
M  V30 3708 H 356.362 0.700315 4.2284 0
M  V30 3709 H 360.546 1.55239 4.71396 0
M  V30 3710 H 355.802 2.7533 5.45897 0
M  V30 3711 H 359.976 3.60509 5.95824 0
M  V30 3712 H 357.603 4.21132 6.32892 0
M  V30 3713 N 359.178 -1.55987 0.224894 0
M  V30 3714 C 360.589 -1.84553 -0.282345 0
M  V30 3715 C 360.94 -1.14634 -1.59227 0
M  V30 3716 O 360.065 -0.417155 -2.12341 0
M  V30 3717 C 360.66 -3.348 -0.519062 0
M  V30 3718 C 359.219 -3.63671 -0.970604 0
M  V30 3719 C 358.366 -2.77277 -0.0355261 0
M  V30 3720 H 361.317 -1.52245 0.448006 0
M  V30 3721 H 361.338 -3.55187 -1.36463 0
M  V30 3722 H 360.85 -3.8566 0.43449 0
M  V30 3723 H 358.951 -3.1827 -1.9374 0
M  V30 3724 H 359.064 -4.71631 -0.842698 0
M  V30 3725 H 357.428 -2.48846 -0.542927 0
M  V30 3726 H 358.211 -3.30937 0.913003 0
M  V30 3727 N 360.656 0.0484629 -1.57525 0
M  V30 3728 C 361.902 0.744226 -1.88651 0
M  V30 3729 C 362.235 1.76029 -0.820212 0
M  V30 3730 O 361.51 1.93782 0.166985 0
M  V30 3731 C 361.793 1.43128 -3.30434 0
M  V30 3732 C 361.646 0.43005 -4.47739 0
M  V30 3733 C 362.965 2.37031 -3.70816 0
M  V30 3734 H 360.084 0.269089 -0.68612 0
M  V30 3735 H 362.726 0.00713532 -1.89999 0
M  V30 3736 H 360.876 2.05956 -3.29415 0
M  V30 3737 H 362.548 -0.194816 -4.60888 0
M  V30 3738 H 360.791 -0.252522 -4.33064 0
M  V30 3739 H 361.462 0.948874 -5.43783 0
M  V30 3740 H 363.938 1.84263 -3.73077 0
M  V30 3741 H 362.814 2.82094 -4.70865 0
M  V30 3742 H 363.075 3.22864 -3.02012 0
M  V30 3743 N 362.134 1.5431 0.320358 0
M  V30 3744 C 363.044 1.86946 1.41734 0
M  V30 3745 C 364.06 0.761689 1.56443 0
M  V30 3746 O 365.236 1.05629 1.71477 0
M  V30 3747 C 362.301 2.09293 2.76401 0
M  V30 3748 C 361.362 3.33082 2.70841 0
M  V30 3749 C 360.595 3.54353 3.99086 0
M  V30 3750 O 360.818 2.79002 4.97508 0
M  V30 3751 O 359.752 4.47838 4.0215 0
M  V30 3752 H 363.578 2.80232 1.17062 0
M  V30 3753 H 361.163 1.40255 0.514673 0
M  V30 3754 H 363.045 2.25303 3.56113 0
M  V30 3755 H 361.72 1.19194 3.00956 0
M  V30 3756 H 360.627 3.22454 1.89668 0
M  V30 3757 H 361.96 4.23249 2.5124 0
M  V30 3758 N 363.613 -0.582584 1.46437 0
M  V30 3759 C 364.545 -1.70618 1.53043 0
M  V30 3760 C 365.558 -1.57322 0.418769 0
M  V30 3761 O 366.747 -1.64744 0.687136 0
M  V30 3762 C 363.847 -3.08869 1.39474 0
M  V30 3763 C 363.02 -3.48166 2.64762 0
M  V30 3764 C 362.079 -4.65478 2.4539 0
M  V30 3765 O 361.105 -4.71333 3.19114 0
M  V30 3766 N 362.307 -5.60365 1.51564 0
M  V30 3767 H 365.072 -1.65405 2.49923 0
M  V30 3768 H 362.633 -0.768567 1.42494 0
M  V30 3769 H 364.625 -3.85143 1.24287 0
M  V30 3770 H 363.195 -3.08449 0.507758 0
M  V30 3771 H 362.415 -2.61598 2.9489 0
M  V30 3772 H 363.703 -3.71188 3.4799 0
M  V30 3773 H 363.101 -5.5837 0.907705 0
M  V30 3774 H 361.658 -6.36068 1.4234 0
M  V30 3775 N 365.091 -1.34144 -0.827227 0
M  V30 3776 C 366.021 -1.28005 -1.95287 0
M  V30 3777 C 367.002 -0.158321 -1.69362 0
M  V30 3778 O 368.187 -0.349987 -1.9102 0
M  V30 3779 C 365.317 -1.03036 -3.31664 0
M  V30 3780 C 364.271 -2.11628 -3.72019 0
M  V30 3781 C 363.597 -1.71854 -5.0633 0
M  V30 3782 C 364.897 -3.53417 -3.8457 0
M  V30 3783 H 366.591 -2.22187 -2.00682 0
M  V30 3784 H 364.137 -1.0696 -0.964135 0
M  V30 3785 H 366.09 -0.973863 -4.09993 0
M  V30 3786 H 364.814 -0.0529391 -3.26557 0
M  V30 3787 H 363.473 -2.16339 -2.95961 0
M  V30 3788 H 363.121 -0.727841 -4.97706 0
M  V30 3789 H 362.821 -2.44531 -5.34302 0
M  V30 3790 H 364.345 -1.67692 -5.87122 0
M  V30 3791 H 365.759 -3.51142 -4.5318 0
M  V30 3792 H 364.156 -4.24679 -4.2399 0
M  V30 3793 H 365.226 -3.91072 -2.86689 0
M  V30 3794 N 366.569 1.04691 -1.17803 0
M  V30 3795 C 367.517 2.14665 -0.895635 0
M  V30 3796 C 368.511 1.68806 0.141679 0
M  V30 3797 O 369.717 1.79999 -0.00587914 0
M  V30 3798 H 366.092 0.701038 -0.272121 0
M  V30 3799 H 368.063 2.35685 -1.83017 0
M  V30 3800 C 366.812 3.45019 -0.430962 0
M  V30 3801 H 366.135 3.8071 -1.22064 0
M  V30 3802 H 367.575 4.23125 -0.272301 0
M  V30 3803 C 366.034 3.25943 0.852207 0
M  V30 3804 O 366.564 3.5296 1.91786 0
M  V30 3805 N 364.77 2.79304 0.802346 0
M  V30 3806 H 364.317 2.57518 -0.0650788 0
M  V30 3807 H 364.275 2.66921 1.66134 0
M  V30 3808 N 368.047 0.979072 1.23499 0
M  V30 3809 C 368.994 0.517904 2.24914 0
M  V30 3810 C 369.964 -0.442525 1.60097 0
M  V30 3811 O 371.149 -0.350365 1.87556 0
M  V30 3812 C 368.289 -0.174813 3.44657 0
M  V30 3813 C 367.402 0.825721 4.24035 0
M  V30 3814 C 366.537 0.107946 5.3109 0
M  V30 3815 C 365.576 1.09778 6.02175 0
M  V30 3816 N 364.713 0.40925 7.00906 0
M  V30 3817 H 369.553 1.38751 2.63727 0
M  V30 3818 H 367.09 0.695303 1.2963 0
M  V30 3819 H 369.048 -0.593233 4.12961 0
M  V30 3820 H 367.678 -1.0083 3.06648 0
M  V30 3821 H 366.73 1.36253 3.55161 0
M  V30 3822 H 368.042 1.58005 4.73113 0
M  V30 3823 H 367.196 -0.367904 6.05583 0
M  V30 3824 H 365.935 -0.678994 4.8295 0
M  V30 3825 H 364.94 1.5844 5.26476 0
M  V30 3826 H 366.165 1.88536 6.52404 0
M  V30 3827 H 364.111 -0.358506 6.5502 0
M  V30 3828 H 364.028 1.10226 7.47921 0
M  V30 3829 H 365.296 -0.0442557 7.79487 0
M  V30 3830 N 369.525 -1.3858 0.750561 0
M  V30 3831 C 370.936 -1.82927 0.373438 0
M  V30 3832 C 371.287 -1.62634 -1.09748 0
M  V30 3833 O 370.412 -1.12588 -1.84805 0
M  V30 3834 C 371.007 -3.32088 0.671029 0
M  V30 3835 C 369.566 -3.74795 0.34722 0
M  V30 3836 C 368.713 -2.61391 0.92575 0
M  V30 3837 H 371.664 -1.27351 0.946958 0
M  V30 3838 H 371.685 -3.80465 -0.0518269 0
M  V30 3839 H 371.197 -3.46826 1.74164 0
M  V30 3840 H 369.298 -3.65638 -0.716933 0
M  V30 3841 H 369.411 -4.71667 0.840656 0
M  V30 3842 H 367.775 -2.52265 0.351327 0
M  V30 3843 H 368.558 -2.78929 2.00133 0
M  V30 3844 N 371.003 -0.499398 -1.49478 0
M  V30 3845 C 371.966 0.268838 -2.27618 0
M  V30 3846 C 372.966 0.895383 -1.33565 0
M  V30 3847 O 374.156 0.760164 -1.56739 0
M  V30 3848 C 371.288 1.38559 -3.11471 0
M  V30 3849 H 372.481 -0.416812 -2.96989 0
M  V30 3850 H 370.034 -0.254313 -1.54217 0
M  V30 3851 H 370.769 2.10544 -2.46661 0
M  V30 3852 H 370.554 0.941797 -3.80621 0
M  V30 3853 H 372.044 1.92678 -3.70493 0
M  V30 3854 N 372.481 1.55866 -0.233164 0
M  V30 3855 C 373.706 2.03449 0.402906 0
M  V30 3856 C 374.131 1.11166 1.51736 0
M  V30 3857 O 373.489 0.101996 1.81013 0
M  V30 3858 C 373.537 3.49165 0.9009 0
M  V30 3859 O 372.641 3.60019 2.01147 0
M  V30 3860 H 371.982 0.657913 0.0897025 0
M  V30 3861 H 374.512 2.01493 -0.355201 0
M  V30 3862 H 374.522 3.89716 1.2077 0
M  V30 3863 H 373.197 4.15813 0.0852889 0
M  V30 3864 H 371.774 3.3136 1.71042 0
M  V30 3865 N 373.959 -0.0401083 1.57549 0
M  V30 3866 C 375.208 -0.732108 1.87944 0
M  V30 3867 C 375.521 -1.77107 0.830206 0
M  V30 3868 O 376.727 -2.51488 1.02302 0
M  V30 3869 C 375.183 -1.35315 3.33494 0
M  V30 3870 C 374.791 -0.351105 4.46622 0
M  V30 3871 C 376.535 -2.02566 3.73051 0
M  V30 3872 C 374.442 -0.979859 5.83226 0
M  V30 3873 H 373.372 -0.277188 0.701201 0
M  V30 3874 H 376.023 0.0138501 1.83495 0
M  V30 3875 H 374.405 -2.14844 3.32653 0
M  V30 3876 H 375.579 0.416674 4.58912 0
M  V30 3877 H 373.894 0.218708 4.15825 0
M  V30 3878 H 376.491 -2.50441 4.72423 0
M  V30 3879 H 376.834 -2.83904 3.04474 0
M  V30 3880 H 377.367 -1.29827 3.76018 0
M  V30 3881 H 374.106 -0.206135 6.55176 0
M  V30 3882 H 373.626 -1.71774 5.74677 0
M  V30 3883 H 375.305 -1.49046 6.29599 0
M  V30 3884 N 375.437 -1.54477 -0.31217 0
M  V30 3885 C 376.347 -1.87695 -1.4074 0
M  V30 3886 C 377.363 -0.769975 -1.56036 0
M  V30 3887 O 378.539 -1.06537 -1.70915 0
M  V30 3888 C 375.604 -2.10755 -2.75287 0
M  V30 3889 C 374.665 -3.34514 -2.69071 0
M  V30 3890 C 373.898 -3.56465 -3.97201 0
M  V30 3891 O 374.121 -2.81637 -4.96021 0
M  V30 3892 O 373.055 -4.49964 -3.9977 0
M  V30 3893 H 376.881 -2.80849 -1.15574 0
M  V30 3894 H 374.466 -1.40526 -0.507228 0
M  V30 3895 H 376.348 -2.27188 -3.54913 0
M  V30 3896 H 375.023 -1.20788 -3.0032 0
M  V30 3897 H 373.93 -3.23456 -1.87955 0
M  V30 3898 H 375.263 -4.24575 -2.48992 0
M  V30 3899 N 376.915 0.57481 -1.46744 0
M  V30 3900 C 378.163 1.33009 -1.52161 0
M  V30 3901 C 378.484 1.94185 -0.178092 0
M  V30 3902 O 377.754 1.7899 0.796196 0
M  V30 3903 H 376.334 0.493873 -0.560445 0
M  V30 3904 H 378.996 0.672589 -1.82927 0
M  V30 3905 H 378.092 2.13273 -2.27862 0
M  V30 3906 N 378.394 1.34581 0.820102 0
M  V30 3907 C 379.642 1.26845 1.57336 0
M  V30 3908 C 379.963 -0.160667 1.94337 0
M  V30 3909 O 379.233 -1.09396 1.6251 0
M  V30 3910 H 377.813 0.466514 0.583415 0
M  V30 3911 H 380.475 1.68526 0.979027 0
M  V30 3912 H 379.571 1.87513 2.4949 0
M  V30 3913 N 379.872 -1.04064 1.18357 0
M  V30 3914 C 381.119 -1.77265 0.978947 0
M  V30 3915 C 381.447 -1.88189 -0.491428 0
M  V30 3916 O 380.702 -1.38653 -1.38108 0
M  V30 3917 C 381.001 -3.20634 1.57888 0
M  V30 3918 C 380.667 -3.29743 3.07539 0
M  V30 3919 C 379.329 -3.31937 3.48384 0
M  V30 3920 C 381.681 -3.29841 4.03552 0
M  V30 3921 C 379.009 -3.3187 4.83818 0
M  V30 3922 C 381.361 -3.31313 5.38901 0
M  V30 3923 C 380.025 -3.31799 5.79194 0
M  V30 3924 H 379.295 -0.648659 0.358222 0
M  V30 3925 H 381.942 -1.22225 1.47422 0
M  V30 3926 H 380.247 -3.78675 1.00561 0
M  V30 3927 H 381.944 -3.75917 1.39598 0
M  V30 3928 H 378.534 -3.28757 2.74986 0
M  V30 3929 H 382.718 -3.27337 3.73047 0
M  V30 3930 H 377.974 -3.30562 5.14333 0
M  V30 3931 H 382.148 -3.30338 6.13066 0
M  V30 3932 H 379.775 -3.315 6.84114 0
M  V30 3933 N 381.35 -0.985608 -1.22978 0
M  V30 3934 C 382.766 -0.695104 -1.43668 0
M  V30 3935 C 382.966 0.736866 -1.87543 0
M  V30 3936 O 382.022 1.50868 -2.02473 0
M  V30 3937 C 383.335 -1.69447 -2.48412 0
M  V30 3938 C 384.883 -1.70909 -2.62219 0
M  V30 3939 C 385.358 -2.6969 -3.70178 0
M  V30 3940 N 386.849 -2.6824 -3.77626 0
M  V30 3941 C 387.584 -3.41339 -4.60733 0
M  V30 3942 N 387.08 -4.24015 -5.4789 0
M  V30 3943 N 388.873 -3.30079 -4.54977 0
M  V30 3944 H 381.024 -1.91054 -0.928016 0
M  V30 3945 H 383.287 -0.823553 -0.469536 0
M  V30 3946 H 382.993 -2.7188 -2.23102 0
M  V30 3947 H 382.867 -1.48147 -3.46889 0
M  V30 3948 H 385.254 -0.691785 -2.86877 0
M  V30 3949 H 385.335 -1.96276 -1.6404 0
M  V30 3950 H 384.979 -3.71566 -3.46268 0
M  V30 3951 H 384.909 -2.41595 -4.67909 0
M  V30 3952 H 387.4 -2.08243 -3.15346 0
M  V30 3953 H 387.713 -4.76636 -6.08308 0
M  V30 3954 H 386.058 -4.28104 -5.47496 0
M  V30 3955 H 389.249 -2.64937 -3.85909 0
M  V30 3956 H 389.422 -3.87308 -5.19516 0
M  V30 3957 N 382.828 1.3818 -0.7579 0
M  V30 3958 C 384.053 2.04827 -0.325679 0
M  V30 3959 C 384.478 1.56788 1.03919 0
M  V30 3960 O 383.836 0.721811 1.66312 0
M  V30 3961 C 383.884 3.58774 -0.362447 0
M  V30 3962 O 382.988 4.07372 0.642033 0
M  V30 3963 H 382.329 0.64833 -0.143402 0
M  V30 3964 H 384.859 1.7677 -1.03023 0
M  V30 3965 H 384.869 4.07434 -0.214844 0
M  V30 3966 H 383.544 3.93096 -1.35824 0
M  V30 3967 H 382.121 3.70068 0.458688 0
M  V30 3968 N 384.306 0.507319 1.49211 0
M  V30 3969 C 385.583 -0.0982702 1.95353 0
M  V30 3970 C 385.963 -1.53516 1.449 0
M  V30 3971 O 385.311 -2.18594 0.66551 0
M  V30 3972 C 385.521 -0.00440283 3.49 0
M  V30 3973 C 386.869 -0.175147 4.24239 0
M  V30 3974 O 387.893 -0.0792891 3.56112 0
M  V30 3975 O 386.752 -0.37276 5.45227 0
M  V30 3976 H 383.846 -0.0918236 0.821887 0
M  V30 3977 H 386.392 0.570307 1.5983 0
M  V30 3978 H 385.164 0.997402 3.78375 0
M  V30 3979 H 384.787 -0.712845 3.91158 0
M  V30 3980 N 385.784 -1.5574 0.241426 0
M  V30 3981 C 387.009 -2.0366 -0.392111 0
M  V30 3982 C 387.434 -1.11969 -1.51144 0
M  V30 3983 O 386.792 -0.111594 -1.80956 0
M  V30 3984 C 386.84 -3.49638 -0.882371 0
M  V30 3985 O 385.944 -3.6108 -1.99235 0
M  V30 3986 H 385.285 -0.658379 -0.0862122 0
M  V30 3987 H 387.815 -2.01302 0.365881 0
M  V30 3988 H 387.825 -3.90351 -1.18702 0
M  V30 3989 H 386.5 -4.15852 -0.0632361 0
M  V30 3990 H 385.077 -3.32262 -1.69282 0
M  V30 3991 N 387.262 0.0317525 -1.57568 0
M  V30 3992 C 388.194 1.06073 -2.03178 0
M  V30 3993 C 389.207 1.32627 -0.944132 0
M  V30 3994 O 390.396 1.30162 -1.22148 0
M  V30 3995 C 387.496 2.40297 -2.38978 0
M  V30 3996 C 386.669 2.33137 -3.70089 0
M  V30 3997 C 385.728 3.49787 -3.9311 0
M  V30 3998 O 384.754 3.29403 -4.64201 0
M  V30 3999 N 385.956 4.71562 -3.38541 0
M  V30 4000 H 388.721 0.672006 -2.92069 0
M  V30 4001 H 386.282 0.219745 -1.60402 0
M  V30 4002 H 388.274 3.1705 -2.51518 0
M  V30 4003 H 386.844 2.71024 -1.55771 0
M  V30 4004 H 386.064 1.415 -3.67928 0
M  V30 4005 H 387.352 2.25493 -4.56104 0
M  V30 4006 H 386.75 4.91024 -2.80912 0
M  V30 4007 H 385.307 5.45689 -3.56464 0
M  V30 4008 N 388.74 1.54641 0.303973 0
M  V30 4009 C 389.988 1.73437 1.0375 0
M  V30 4010 C 390.309 0.521449 1.87899 0
M  V30 4011 O 389.579 -0.46432 1.90318 0
M  V30 4012 H 388.159 0.639518 0.386039 0
M  V30 4013 H 390.821 1.91988 0.335675 0
M  V30 4014 H 389.917 2.62235 1.69231 0
M  V30 4015 N 390.218 -0.567019 1.47046 0
M  V30 4016 C 391.467 -1.32091 1.5243 0
M  V30 4017 C 391.78 -1.94704 0.187021 0
M  V30 4018 O 392.986 -2.7124 0.118771 0
M  V30 4019 C 391.442 -2.39479 2.68659 0
M  V30 4020 C 391.05 -1.831 4.08874 0
M  V30 4021 C 392.794 -3.16111 2.83327 0
M  V30 4022 C 390.701 -2.8821 5.16419 0
M  V30 4023 H 389.631 -0.496629 0.56734 0
M  V30 4024 H 392.282 -0.603354 1.73297 0
M  V30 4025 H 390.664 -3.14105 2.41152 0
M  V30 4026 H 391.838 -1.14913 4.46242 0
M  V30 4027 H 390.153 -1.19085 3.99008 0
M  V30 4028 H 392.75 -3.94585 3.60842 0
M  V30 4029 H 393.093 -3.69686 1.91411 0
M  V30 4030 H 393.626 -2.48595 3.10556 0
M  V30 4031 H 390.365 -2.39504 6.10179 0
M  V30 4032 H 389.885 -3.54839 4.8358 0
M  V30 4033 H 391.564 -3.51881 5.42945 0
M  V30 4034 N 391.696 -1.35014 -0.812953 0
M  V30 4035 C 392.606 -1.2951 -1.95613 0
M  V30 4036 C 393.622 -0.20107 -1.72834 0
M  V30 4037 O 394.798 -0.42932 -1.96771 0
M  V30 4038 C 391.863 -1.06033 -3.30088 0
M  V30 4039 C 390.924 -2.24688 -3.65805 0
M  V30 4040 C 390.157 -2.02322 -4.93864 0
M  V30 4041 O 390.38 -0.986464 -5.61805 0
M  V30 4042 O 389.314 -2.89525 -5.27692 0
M  V30 4043 H 393.14 -2.25705 -2.03202 0
M  V30 4044 H 390.725 -1.15321 -0.949811 0
M  V30 4045 H 392.607 -0.94763 -4.10607 0
M  V30 4046 H 391.282 -0.128852 -3.23443 0
M  V30 4047 H 390.189 -2.41521 -2.85689 0
M  V30 4048 H 391.522 -3.16261 -3.77147 0
M  V30 4049 N 393.175 1.03435 -1.18907 0
M  V30 4050 C 394.421 1.77005 -0.989798 0
M  V30 4051 C 394.754 1.88205 0.478816 0
M  V30 4052 O 394.029 1.39481 1.35556 0
M  V30 4053 C 394.312 3.19925 -1.65287 0
M  V30 4054 C 394.165 3.1663 -3.19477 0
M  V30 4055 C 395.484 4.18189 -1.37134 0
M  V30 4056 H 392.603 0.642538 -0.360991 0
M  V30 4057 H 395.245 1.20784 -1.46667 0
M  V30 4058 H 393.395 3.67929 -1.24741 0
M  V30 4059 H 395.067 2.76567 -3.692 0
M  V30 4060 H 393.31 2.54491 -3.51307 0
M  V30 4061 H 393.981 4.1758 -3.61013 0
M  V30 4062 H 396.457 3.78761 -1.72276 0
M  V30 4063 H 395.333 5.16394 -1.86087 0
M  V30 4064 H 395.594 4.41112 -0.295424 0
M  V30 4065 N 394.653 0.992116 1.22453 0
M  V30 4066 C 395.6 0.541731 2.24352 0
M  V30 4067 C 396.57 -0.425519 1.60557 0
M  V30 4068 O 397.755 -0.330453 1.87917 0
M  V30 4069 C 394.895 -0.138248 3.44823 0
M  V30 4070 C 394.008 0.870649 4.23136 0
M  V30 4071 C 393.143 0.164269 5.30946 0
M  V30 4072 C 392.182 1.16159 6.00977 0
M  V30 4073 N 391.319 0.483568 7.00433 0
M  V30 4074 H 396.159 1.41541 2.62241 0
M  V30 4075 H 393.696 0.709013 1.28885 0
M  V30 4076 H 395.654 -0.5494 4.13567 0
M  V30 4077 H 394.284 -0.975721 3.077 0
M  V30 4078 H 393.336 1.40013 3.53696 0
M  V30 4079 H 394.648 1.63014 4.7141 0
M  V30 4080 H 393.802 -0.303653 6.0594 0
M  V30 4081 H 392.541 -0.627733 4.83643 0
M  V30 4082 H 391.546 1.64015 5.24766 0
M  V30 4083 H 392.771 1.95445 6.50368 0
M  V30 4084 H 390.717 -0.289012 6.55363 0
M  V30 4085 H 390.634 1.18152 7.4671 0
M  V30 4086 H 391.902 0.0384219 7.79491 0
M  V30 4087 N 396.131 -1.37776 0.765217 0
M  V30 4088 C 397.377 -2.00145 0.327072 0
M  V30 4089 C 397.71 -1.60607 -1.09175 0
M  V30 4090 O 396.985 -0.849127 -1.74986 0
M  V30 4091 C 397.268 -3.57109 0.46319 0
M  V30 4092 C 397.121 -4.06576 1.92395 0
M  V30 4093 C 398.44 -4.39888 -0.136473 0
M  V30 4094 H 395.559 -0.727113 0.120316 0
M  V30 4095 H 398.201 -1.63549 0.967039 0
M  V30 4096 H 396.351 -3.88414 -0.0816358 0
M  V30 4097 H 398.023 -3.85864 2.52798 0
M  V30 4098 H 396.266 -3.59011 2.43503 0
M  V30 4099 H 396.937 -5.15639 1.97028 0
M  V30 4100 H 399.413 -4.14803 0.328317 0
M  V30 4101 H 398.289 -5.48899 -0.0110582 0
M  V30 4102 H 398.55 -4.24758 -1.22608 0
M  V30 4103 N 397.609 -0.515225 -1.4894 0
M  V30 4104 C 398.886 0.0879088 -1.95402 0
M  V30 4105 C 399.266 1.52745 -1.45712 0
M  V30 4106 O 398.614 2.18238 -0.677093 0
M  V30 4107 C 398.824 -0.0141055 -3.48997 0
M  V30 4108 C 400.172 0.152646 -4.24326 0
M  V30 4109 O 401.196 0.0604025 -3.56149 0
M  V30 4110 O 400.055 0.34384 -5.45417 0
M  V30 4111 H 397.149 0.0874636 -0.822362 0
M  V30 4112 H 399.695 -0.578775 -1.59525 0
M  V30 4113 H 398.467 -1.01745 -3.77841 0
M  V30 4114 H 398.09 0.692091 -3.9153 0
M  V30 4115 N 399.087 1.5561 -0.249682 0
M  V30 4116 C 400.335 1.98618 0.373548 0
M  V30 4117 C 400.656 1.13919 1.58264 0
M  V30 4118 O 399.926 0.222637 1.94631 0
M  V30 4119 H 398.506 0.733571 0.141006 0
M  V30 4120 H 401.168 1.91748 -0.349117 0
M  V30 4121 H 400.264 3.04584 0.680796 0
M  V30 4122 N 400.565 -0.0233959 1.57583 0
M  V30 4123 C 401.513 -1.04063 2.08023 0
M  V30 4124 C 402.507 -1.37084 0.995204 0
M  V30 4125 O 403.713 -1.35923 1.18004 0
M  V30 4126 H 400.088 -0.353144 0.663922 0
M  V30 4127 H 402.059 -0.589453 2.9252 0
M  V30 4128 C 400.808 -2.33123 2.57971 0
M  V30 4129 H 400.131 -2.08577 3.4108 0
M  V30 4130 H 401.571 -3.02632 2.96967 0
M  V30 4131 C 400.03 -3.02483 1.48342 0
M  V30 4132 O 400.56 -3.92541 0.852898 0
M  V30 4133 N 398.766 -2.63909 1.21658 0
M  V30 4134 H 398.313 -1.90758 1.73116 0
M  V30 4135 H 398.271 -3.10633 0.485218 0
M  V30 4136 N 402.043 -1.548 -0.295768 0
M  V30 4137 C 402.973 -1.89115 -1.36959 0
M  V30 4138 C 403.954 -0.75059 -1.52644 0
M  V30 4139 O 405.139 -1.00678 -1.66065 0
M  V30 4140 C 402.269 -2.14307 -2.73295 0
M  V30 4141 C 401.223 -3.30151 -2.72368 0
M  V30 4142 C 400.549 -3.40772 -4.12042 0
M  V30 4143 C 401.849 -4.67126 -2.33646 0
M  V30 4144 H 403.543 -2.79053 -1.08488 0
M  V30 4145 H 401.089 -1.34266 -0.520443 0
M  V30 4146 H 403.042 -2.36898 -3.48507 0
M  V30 4147 H 401.766 -1.21145 -3.03301 0
M  V30 4148 H 400.425 -3.0749 -1.99613 0
M  V30 4149 H 400.073 -2.45117 -4.39234 0
M  V30 4150 H 399.773 -4.18645 -4.12322 0
M  V30 4151 H 401.297 -3.6563 -4.89027 0
M  V30 4152 H 402.711 -4.89414 -2.98575 0
M  V30 4153 H 401.108 -5.47751 -2.45129 0
M  V30 4154 H 402.178 -4.67489 -1.28772 0
M  V30 4155 N 403.521 0.559213 -1.47345 0
M  V30 4156 C 404.932 1.14134 -1.47751 0
M  V30 4157 C 405.283 1.94834 -0.231103 0
M  V30 4158 O 404.408 2.05957 0.664137 0
M  V30 4159 C 405.003 2.07653 -2.67705 0
M  V30 4160 C 403.562 2.61141 -2.71076 0
M  V30 4161 C 402.709 1.3748 -2.40821 0
M  V30 4162 H 405.66 0.345917 -1.54884 0
M  V30 4163 H 405.681 2.91497 -2.44561 0
M  V30 4164 H 405.193 1.4889 -3.58404 0
M  V30 4165 H 403.294 3.23707 -1.84511 0
M  V30 4166 H 403.407 3.02272 -3.7171 0
M  V30 4167 H 401.771 1.68086 -1.91362 0
M  V30 4168 H 402.554 0.805135 -3.33725 0
M  V30 4169 N 404.999 1.35443 0.805782 0
M  V30 4170 C 406.247 1.28507 1.55982 0
M  V30 4171 C 406.568 -0.140046 1.94496 0
M  V30 4172 O 405.838 -1.07666 1.63661 0
M  V30 4173 H 404.418 0.472676 0.578434 0
M  V30 4174 H 407.08 1.69555 0.961098 0
M  V30 4175 H 406.176 1.90148 2.47488 0
M  V30 4176 N 406.477 -1.02803 1.19454 0
M  V30 4177 C 407.723 -1.76478 0.999171 0
M  V30 4178 C 408.056 -1.88456 -0.468828 0
M  V30 4179 O 407.331 -1.40198 -1.34814 0
M  V30 4180 C 407.614 -3.19044 1.66981 0
M  V30 4181 C 407.467 -3.14932 3.21151 0
M  V30 4182 C 408.786 -4.17456 1.39349 0
M  V30 4183 H 405.905 -0.640614 0.364393 0
M  V30 4184 H 408.547 -1.20005 1.47305 0
M  V30 4185 H 406.697 -3.67263 1.2669 0
M  V30 4186 H 408.369 -2.74605 3.70661 0
M  V30 4187 H 406.612 -2.52625 3.52652 0
M  V30 4188 H 407.283 -4.1566 3.63223 0
M  V30 4189 H 409.759 -3.77842 1.74283 0
M  V30 4190 H 408.635 -5.154 1.88823 0
M  V30 4191 H 408.896 -4.40949 0.318813 0
M  V30 4192 N 407.956 -0.998596 -1.21925 0
M  V30 4193 C 409.181 -0.696015 -1.95372 0
M  V30 4194 C 409.606 0.733826 -1.73195 0
M  V30 4195 O 408.964 1.50242 -1.01474 0
M  V30 4196 C 409.012 -1.01466 -3.4603 0
M  V30 4197 O 408.116 -0.116415 -4.12236 0
M  V30 4198 H 407.457 -0.259938 -0.611006 0
M  V30 4199 H 409.987 -1.33711 -1.54863 0
M  V30 4200 H 409.997 -0.958855 -3.96573 0
M  V30 4201 H 408.672 -2.05653 -3.61497 0
M  V30 4202 H 407.249 -0.228193 -3.72201 0
M  V30 4203 N 409.434 1.37368 -0.772513 0
M  V30 4204 C 410.85 1.53059 -0.452231 0
M  V30 4205 C 411.05 1.73065 1.03203 0
M  V30 4206 O 410.106 1.75245 1.81784 0
M  V30 4207 C 411.419 2.72659 -1.26797 0
M  V30 4208 C 412.967 2.86521 -1.25995 0
M  V30 4209 C 413.442 4.09105 -2.05905 0
M  V30 4210 N 414.933 4.16219 -2.03263 0
M  V30 4211 C 415.668 5.10107 -2.61875 0
M  V30 4212 N 415.164 6.09547 -3.29278 0
M  V30 4213 N 416.957 5.02596 -2.51701 0
M  V30 4214 H 409.108 1.22634 -1.7342 0
M  V30 4215 H 411.371 0.597206 -0.736239 0
M  V30 4216 H 411.077 2.64343 -2.31982 0
M  V30 4217 H 410.951 3.66363 -0.897672 0
M  V30 4218 H 413.338 2.94308 -0.216081 0
M  V30 4219 H 413.419 1.93774 -1.66989 0
M  V30 4220 H 413.063 4.0208 -3.10313 0
M  V30 4221 H 412.993 5.00968 -1.62292 0
M  V30 4222 H 415.484 3.45012 -1.54192 0
M  V30 4223 H 415.797 6.77718 -3.71374 0
M  V30 4224 H 414.142 6.09824 -3.33377 0
M  V30 4225 H 417.333 4.23855 -1.98657 0
M  V30 4226 H 417.506 5.75582 -2.97673 0
M  V30 4227 N 410.912 0.523116 1.48665 0
M  V30 4228 C 412.189 -0.0775449 1.95446 0
M  V30 4229 C 412.569 -1.5197 1.4652 0
M  V30 4230 O 411.917 -2.17876 0.688657 0
M  V30 4231 C 412.127 0.0326135 3.48985 0
M  V30 4232 C 413.475 -0.130141 4.24401 0
M  V30 4233 O 414.499 -0.0415142 3.56176 0
M  V30 4234 O 413.358 -0.31491 5.45592 0
M  V30 4235 H 410.452 -0.0831012 0.822814 0
M  V30 4236 H 412.998 0.587227 1.59216 0
M  V30 4237 H 411.77 1.03748 3.77296 0
M  V30 4238 H 411.393 -0.671317 3.91892 0
M  V30 4239 N 412.39 -1.55475 0.257931 0
M  V30 4240 C 413.353 -2.20551 -0.623706 0
M  V30 4241 C 414.353 -1.17809 -1.09443 0
M  V30 4242 O 415.543 -1.42823 -0.997362 0
M  V30 4243 C 412.675 -2.85784 -1.8585 0
M  V30 4244 H 413.868 -2.99848 -0.0557743 0
M  V30 4245 H 411.421 -1.56298 0.0084422 0
M  V30 4246 H 412.156 -2.10453 -2.46739 0
M  V30 4247 H 411.941 -3.61057 -1.52907 0
M  V30 4248 H 413.431 -3.35553 -2.48584 0
M  V30 4249 N 413.868 0.0150385 -1.57593 0
M  V30 4250 C 415.116 0.701613 -1.8953 0
M  V30 4251 C 415.437 1.75139 -0.857396 0
M  V30 4252 O 414.707 1.95607 0.107194 0
M  V30 4253 H 413.287 0.26213 -0.699498 0
M  V30 4254 H 415.949 -0.0223304 -1.94887 0
M  V30 4255 H 415.045 1.18236 -2.88837 0
M  V30 4256 N 415.346 1.54954 0.287554 0
M  V30 4257 C 416.594 1.74528 1.01904 0
M  V30 4258 C 416.915 0.541349 1.87335 0
M  V30 4259 O 416.185 -0.444108 1.908 0
M  V30 4260 H 414.765 0.643576 0.379235 0
M  V30 4261 H 417.427 1.92333 0.315294 0
M  V30 4262 H 416.523 2.64015 1.6644 0
M  V30 4263 N 416.824 -0.551391 1.4764 0
M  V30 4264 C 418.072 -1.30572 1.54258 0
M  V30 4265 C 418.393 -1.93877 0.208963 0
M  V30 4266 O 417.663 -1.80234 -0.767619 0
M  V30 4267 H 416.243 -0.484894 0.568231 0
M  V30 4268 H 418.905 -0.643402 1.83974 0
M  V30 4269 H 418.001 -2.09621 2.31226 0
M  V30 4270 N 418.302 -1.35869 -0.798587 0
M  V30 4271 C 419.232 -1.32118 -1.92528 0
M  V30 4272 C 420.213 -0.194209 -1.68988 0
M  V30 4273 O 421.398 -0.390426 -1.90235 0
M  V30 4274 C 418.528 -1.10047 -3.29404 0
M  V30 4275 C 417.482 -2.19471 -3.67446 0
M  V30 4276 C 416.808 -1.82555 -5.02571 0
M  V30 4277 C 418.108 -3.61495 -3.76987 0
M  V30 4278 H 419.802 -2.26394 -1.95924 0
M  V30 4279 H 417.348 -1.08981 -0.94123 0
M  V30 4280 H 419.301 -1.06061 -4.07835 0
M  V30 4281 H 418.025 -0.122195 -3.26371 0
M  V30 4282 H 416.684 -2.22568 -2.91306 0
M  V30 4283 H 416.332 -0.833249 -4.9605 0
M  V30 4284 H 416.032 -2.5581 -5.28995 0
M  V30 4285 H 417.556 -1.80108 -5.83432 0
M  V30 4286 H 418.97 -3.60676 -4.4563 0
M  V30 4287 H 417.367 -4.33577 -4.14887 0
M  V30 4288 H 418.437 -3.97065 -2.78329 0
M  V30 4289 N 419.78 1.02168 -1.19998 0
M  V30 4290 C 421.196 1.27969 -0.953737 0
M  V30 4291 C 421.396 1.98079 0.369703 0
M  V30 4292 O 420.452 2.27306 1.09947 0
M  V30 4293 C 421.765 2.11971 -2.13281 0
M  V30 4294 C 423.313 2.25255 -2.17323 0
M  V30 4295 C 423.788 3.12632 -3.34702 0
M  V30 4296 N 425.279 3.2022 -3.34684 0
M  V30 4297 C 426.014 3.88039 -4.22153 0
M  V30 4298 N 425.51 4.58027 -5.19791 0
M  V30 4299 N 427.303 3.84511 -4.10009 0
M  V30 4300 H 419.454 0.550794 -2.05134 0
M  V30 4301 H 421.717 0.305683 -0.897364 0
M  V30 4302 H 421.423 1.67785 -3.09097 0
M  V30 4303 H 421.297 3.12699 -2.10949 0
M  V30 4304 H 423.684 2.68667 -1.22073 0
M  V30 4305 H 423.765 1.24053 -2.23706 0
M  V30 4306 H 423.409 2.69926 -4.30235 0
M  V30 4307 H 423.339 4.13909 -3.25556 0
M  V30 4308 H 425.83 2.70382 -2.64012 0
M  V30 4309 H 426.143 5.07429 -5.82868 0
M  V30 4310 H 424.488 4.56869 -5.23733 0
M  V30 4311 H 427.679 3.28978 -3.33003 0
M  V30 4312 H 427.852 4.3709 -4.78389 0
M  V30 4313 N 421.258 1.00505 1.21394 0
M  V30 4314 C 422.674 0.717873 1.42544 0
M  V30 4315 C 422.874 -0.706936 1.88692 0
M  V30 4316 O 421.93 -1.47627 2.04847 0
M  V30 4317 C 423.243 1.73377 2.45684 0
M  V30 4318 C 424.791 1.75059 2.59467 0
M  V30 4319 C 425.266 2.75545 3.6584 0
M  V30 4320 N 426.757 2.74213 3.73311 0
M  V30 4321 C 427.492 3.48626 4.55245 0
M  V30 4322 N 426.988 4.32678 5.41075 0
M  V30 4323 N 428.781 3.37276 4.49668 0
M  V30 4324 H 420.932 1.92506 0.897503 0
M  V30 4325 H 423.195 0.830919 0.456375 0
M  V30 4326 H 422.901 2.75395 2.18748 0
M  V30 4327 H 422.775 1.53647 3.44489 0
M  V30 4328 H 425.162 0.737337 2.8574 0
M  V30 4329 H 425.243 1.98861 1.60897 0
M  V30 4330 H 424.887 3.77028 3.40313 0
M  V30 4331 H 424.817 2.49009 4.64007 0
M  V30 4332 H 427.308 2.13234 3.11993 0
M  V30 4333 H 427.621 4.86253 6.00648 0
M  V30 4334 H 425.966 4.3676 5.40616 0
M  V30 4335 H 429.157 2.71043 3.81646 0
M  V30 4336 H 429.33 3.95524 5.13288 0
M  V30 4337 N 422.737 -1.36956 0.779787 0
M  V30 4338 C 423.986 -1.98738 0.344405 0
M  V30 4339 C 424.299 -1.62596 -1.08728 0
M  V30 4340 O 425.505 -2.1754 -1.62445 0
M  V30 4341 C 423.961 -3.5544 0.564829 0
M  V30 4342 C 423.569 -4.00514 2.0073 0
M  V30 4343 C 425.313 -4.24059 0.193471 0
M  V30 4344 C 423.22 -5.49957 2.17489 0
M  V30 4345 H 422.15 -0.743561 0.12503 0
M  V30 4346 H 424.801 -1.56381 0.960057 0
M  V30 4347 H 423.183 -3.95817 -0.120397 0
M  V30 4348 H 424.357 -3.71362 2.72814 0
M  V30 4349 H 422.672 -3.44703 2.336 0
M  V30 4350 H 425.269 -5.33874 0.297097 0
M  V30 4351 H 425.612 -4.07378 -0.857263 0
M  V30 4352 H 426.145 -3.89012 0.831556 0
M  V30 4353 H 422.884 -5.71574 3.2091 0
M  V30 4354 H 422.404 -5.80767 1.49899 0
M  V30 4355 H 424.083 -6.16043 1.97738 0
M  V30 4356 N 424.215 -0.530993 -1.48385 0
M  V30 4357 C 425.145 0.219985 -2.32461 0
M  V30 4358 C 426.126 0.934111 -1.42156 0
M  V30 4359 O 427.311 0.919694 -1.71042 0
M  V30 4360 C 424.441 1.26674 -3.23375 0
M  V30 4361 C 423.395 0.67069 -4.22712 0
M  V30 4362 C 422.721 1.82017 -5.02766 0
M  V30 4363 C 424.021 -0.358268 -5.2107 0
M  V30 4364 H 425.715 -0.48187 -2.95497 0
M  V30 4365 H 423.261 -0.233182 -1.42099 0
M  V30 4366 H 425.214 1.80006 -3.81019 0
M  V30 4367 H 423.938 1.99818 -2.58341 0
M  V30 4368 H 422.597 0.158878 -3.66256 0
M  V30 4369 H 422.245 2.54002 -4.34157 0
M  V30 4370 H 421.945 1.42727 -5.70003 0
M  V30 4371 H 423.469 2.35725 -5.63264 0
M  V30 4372 H 424.883 0.0880081 -5.73232 0
M  V30 4373 H 423.28 -0.66861 -5.96364 0
M  V30 4374 H 424.35 -1.26367 -4.68145 0
M  V30 4375 N 425.693 1.55336 -0.266172 0
M  V30 4376 C 426.641 2.23587 0.641228 0
M  V30 4377 C 427.635 1.22986 1.16494 0
M  V30 4378 O 428.841 1.40943 1.1196 0
M  V30 4379 H 425.216 0.717452 0.225315 0
M  V30 4380 H 427.187 2.9837 0.0426561 0
M  V30 4381 C 425.936 2.96369 1.81826 0
M  V30 4382 H 425.259 3.73563 1.42445 0
M  V30 4383 H 426.699 3.47459 2.42998 0
M  V30 4384 C 425.158 2.0133 2.70125 0
M  V30 4385 O 425.688 1.55875 3.70224 0
M  V30 4386 N 423.894 1.6802 2.37102 0
M  V30 4387 H 423.441 2.05181 1.55751 0
M  V30 4388 H 423.399 1.047 2.96454 0
M  V30 4389 N 427.171 -0.0066808 1.57599 0
M  V30 4390 C 428.121 -1.0086 2.04478 0
M  V30 4391 C 429.105 -1.30714 0.938231 0
M  V30 4392 O 430.297 -1.29924 1.20203 0
M  V30 4393 C 427.426 -2.30273 2.54615 0
M  V30 4394 C 426.512 -2.03413 3.72134 0
M  V30 4395 N 426.903 -1.46688 4.84062 0
M  V30 4396 C 425.201 -2.33589 3.79937 0
M  V30 4397 C 425.902 -1.36146 5.65543 0
M  V30 4398 N 424.878 -1.84477 5.1134 0
M  V30 4399 H 428.68 -0.564402 2.8843 0
M  V30 4400 H 426.194 -0.212521 1.61003 0
M  V30 4401 H 428.191 -3.02885 2.86472 0
M  V30 4402 H 426.851 -2.75352 1.72079 0
M  V30 4403 H 427.862 -1.14658 5.05049 0
M  V30 4404 H 424.539 -2.81589 3.08243 0
M  V30 4405 H 425.929 -0.925873 6.6549 0
M  V30 4406 N 428.649 -1.55105 -0.279332 0
M  V30 4407 C 430.06 -1.66186 -0.850832 0
M  V30 4408 C 430.411 -0.584707 -1.87285 0
M  V30 4409 O 429.536 0.274919 -2.14647 0
M  V30 4410 C 430.131 -3.01264 -1.55001 0
M  V30 4411 C 428.69 -3.14394 -2.06963 0
M  V30 4412 C 427.837 -2.61959 -0.909536 0
M  V30 4413 H 430.788 -1.58602 -0.0558235 0
M  V30 4414 H 430.809 -2.93899 -2.41669 0
M  V30 4415 H 430.321 -3.7964 -0.805931 0
M  V30 4416 H 428.422 -2.4078 -2.84352 0
M  V30 4417 H 428.535 -4.20867 -2.28928 0
M  V30 4418 H 426.899 -2.18957 -1.30116 0
M  V30 4419 H 427.682 -3.42833 -0.179062 0
M  V30 4420 N 430.127 0.543554 -1.4793 0
M  V30 4421 C 431.057 1.65888 -1.64327 0
M  V30 4422 C 432.038 1.62818 -0.492383 0
M  V30 4423 O 433.223 1.80226 -0.723338 0
M  V30 4424 C 430.353 3.04506 -1.67013 0
M  V30 4425 C 429.307 3.2243 -2.81466 0
M  V30 4426 C 428.633 4.61972 -2.69233 0
M  V30 4427 C 429.933 3.06496 -4.22915 0
M  V30 4428 H 431.627 1.52421 -2.57698 0
M  V30 4429 H 429.173 0.731849 -1.24016 0
M  V30 4430 H 431.126 3.82391 -1.77074 0
M  V30 4431 H 429.85 3.18964 -0.70212 0
M  V30 4432 H 428.509 2.46957 -2.70938 0
M  V30 4433 H 428.157 4.73247 -1.7043 0
M  V30 4434 H 427.857 4.74911 -3.46025 0
M  V30 4435 H 429.381 5.41974 -2.81242 0
M  V30 4436 H 430.795 3.74186 -4.34348 0
M  V30 4437 H 429.192 3.30938 -5.006 0
M  V30 4438 H 430.262 2.03077 -4.40327 0
M  V30 4439 N 431.605 1.3629 0.791371 0
M  V30 4440 C 432.854 1.29742 1.54434 0
M  V30 4441 C 433.167 -0.121729 1.95221 0
M  V30 4442 O 434.373 -0.309579 2.69729 0
M  V30 4443 C 432.829 2.27623 2.78776 0
M  V30 4444 C 432.437 3.74963 2.45166 0
M  V30 4445 C 434.181 2.30047 3.56761 0
M  V30 4446 C 432.088 4.64626 3.65891 0
M  V30 4447 H 431.018 0.482113 0.579727 0
M  V30 4448 H 433.669 1.61642 0.868565 0
M  V30 4449 H 432.051 1.88714 3.48142 0
M  V30 4450 H 433.225 4.22596 1.83709 0
M  V30 4451 H 431.54 3.75295 1.80396 0
M  V30 4452 H 434.137 2.94247 4.46456 0
M  V30 4453 H 434.48 1.30846 3.95203 0
M  V30 4454 H 435.013 2.67563 2.94372 0
M  V30 4455 H 431.752 5.64883 3.32547 0
M  V30 4456 H 431.272 4.2171 4.26521 0
M  V30 4457 H 432.951 4.80801 4.32943 0
M  V30 4458 N 433.083 -1.0153 1.20538 0
M  V30 4459 C 434.494 -1.56598 1.01657 0
M  V30 4460 C 434.845 -1.91505 -0.426668 0
M  V30 4461 O 433.97 -1.72375 -1.30827 0
M  V30 4462 C 434.565 -2.84542 1.83905 0
M  V30 4463 C 433.124 -3.36133 1.69386 0
M  V30 4464 C 432.271 -2.09427 1.81757 0
M  V30 4465 H 435.222 -0.838974 1.34711 0
M  V30 4466 H 435.243 -3.56004 1.34319 0
M  V30 4467 H 434.755 -2.59105 2.8894 0
M  V30 4468 H 432.856 -3.66528 0.669933 0
M  V30 4469 H 432.969 -4.08248 2.50739 0
M  V30 4470 H 431.333 -2.21941 1.24957 0
M  V30 4471 H 432.116 -1.86414 2.88279 0
M  V30 4472 N 434.561 -1.01147 -1.20859 0
M  V30 4473 C 435.491 -0.597663 -2.25722 0
M  V30 4474 C 436.472 0.384744 -1.65692 0
M  V30 4475 O 437.657 0.271303 -1.92296 0
M  V30 4476 C 434.787 0.0700149 -3.47229 0
M  V30 4477 C 433.741 -0.832843 -4.19819 0
M  V30 4478 C 433.067 -0.0312202 -5.34691 0
M  V30 4479 C 434.367 -2.1385 -4.76514 0
M  V30 4480 H 436.061 -1.47423 -2.60589 0
M  V30 4481 H 433.607 -0.710301 -1.25263 0
M  V30 4482 H 435.56 0.37103 -4.19763 0
M  V30 4483 H 434.284 0.981259 -3.11511 0
M  V30 4484 H 432.943 -1.11778 -3.49144 0
M  V30 4485 H 432.591 0.881515 -4.95215 0
M  V30 4486 H 432.291 -0.632434 -5.84187 0
M  V30 4487 H 433.815 0.26346 -6.10031 0
M  V30 4488 H 435.229 -1.9002 -5.40893 0
M  V30 4489 H 433.626 -2.69012 -5.36426 0
M  V30 4490 H 434.696 -2.80495 -3.95538 0
M  V30 4491 N 436.039 1.36541 -0.78704 0
M  V30 4492 C 437.285 1.99599 -0.358872 0
M  V30 4493 C 437.618 1.62323 1.06606 0
M  V30 4494 O 436.893 0.876858 1.73613 0
M  V30 4495 C 437.176 3.56327 -0.519944 0
M  V30 4496 C 437.029 4.03464 -1.98839 0
M  V30 4497 C 438.348 4.4005 0.0664737 0
M  V30 4498 H 435.467 0.725107 -0.131869 0
M  V30 4499 H 438.109 1.6199 -0.992936 0
M  V30 4500 H 436.259 3.88495 0.0198321 0
M  V30 4501 H 437.931 3.81793 -2.58905 0
M  V30 4502 H 436.174 3.55092 -2.49183 0
M  V30 4503 H 436.845 5.12439 -2.05207 0
M  V30 4504 H 439.321 4.14228 -0.394267 0
M  V30 4505 H 438.197 5.48847 -0.0762682 0
M  V30 4506 H 438.458 4.26655 1.15835 0
M  V30 4507 N 437.518 0.538854 1.48102 0
M  V30 4508 C 438.468 -0.23907 2.26743 0
M  V30 4509 C 439.452 -0.901923 1.33245 0
M  V30 4510 O 440.644 -0.803263 1.57723 0
M  V30 4511 C 437.773 -1.2799 3.18549 0
M  V30 4512 C 436.859 -0.621388 4.19523 0
M  V30 4513 N 437.25 0.298004 5.04921 0
M  V30 4514 C 435.548 -0.877533 4.37282 0
M  V30 4515 C 436.249 0.678757 5.77726 0
M  V30 4516 N 435.225 0.0377881 5.43587 0
M  V30 4517 H 439.027 0.468096 2.90148 0
M  V30 4518 H 436.541 0.357497 1.58416 0
M  V30 4519 H 438.538 -1.851 3.73555 0
M  V30 4520 H 437.198 -1.98835 2.567 0
M  V30 4521 H 438.209 0.671126 5.13533 0
M  V30 4522 H 434.886 -1.57588 3.86616 0
M  V30 4523 H 436.276 1.43316 6.56437 0
M  V30 4524 N 438.996 -1.55193 0.274407 0
M  V30 4525 C 439.946 -2.19184 -0.627882 0
M  V30 4526 C 440.93 -1.15625 -1.11892 0
M  V30 4527 O 442.122 -1.41441 -1.06411 0
M  V30 4528 C 439.251 -2.91591 -1.81189 0
M  V30 4529 C 438.337 -4.02438 -1.33807 0
M  V30 4530 N 438.728 -5.0246 -0.580349 0
M  V30 4531 C 437.026 -4.15496 -1.62109 0
M  V30 4532 C 437.727 -5.80756 -0.331344 0
M  V30 4533 N 436.703 -5.36038 -0.903556 0
M  V30 4534 H 440.505 -2.93871 -0.0411216 0
M  V30 4535 H 438.019 -1.62213 0.0779348 0
M  V30 4536 H 440.016 -3.35883 -2.46957 0
M  V30 4537 H 438.676 -2.18414 -2.40261 0
M  V30 4538 H 439.687 -5.17399 -0.227762 0
M  V30 4539 H 436.364 -3.53509 -2.22121 0
M  V30 4540 H 437.754 -6.71335 0.275454 0
M  V30 4541 N 440.474 -0.00167713 -1.576 0
M  V30 4542 C 441.722 0.681471 -1.90264 0
M  V30 4543 C 442.043 1.7422 -0.875924 0
M  V30 4544 O 441.313 1.95709 0.0864412 0
M  V30 4545 H 439.893 0.254696 -0.702239 0
M  V30 4546 H 442.555 -0.0429996 -1.94853 0
M  V30 4547 H 441.651 1.15166 -2.90075 0
M  V30 4548 N 441.952 1.55251 0.271103 0
M  V30 4549 C 442.885 1.83191 1.36075 0
M  V30 4550 C 443.863 0.685091 1.47463 0
M  V30 4551 O 445.047 0.928292 1.64058 0
M  V30 4552 C 442.174 1.99521 2.73696 0
M  V30 4553 C 441.22 3.22081 2.79582 0
M  V30 4554 S 442.053 4.79388 2.38636 0
M  V30 4555 C 443.209 4.98693 3.78228 0
M  V30 4556 H 443.442 2.75327 1.12171 0
M  V30 4557 H 440.975 1.47046 0.470833 0
M  V30 4558 H 442.933 2.09613 3.52948 0
M  V30 4559 H 441.594 1.0827 2.9485 0
M  V30 4560 H 440.787 3.304 3.80594 0
M  V30 4561 H 440.389 3.10589 2.08352 0
M  V30 4562 H 442.681 4.84551 4.73515 0
M  V30 4563 H 443.624 6.00738 3.7486 0
M  V30 4564 H 444.032 4.26665 3.69618 0
M  V30 4565 N 443.43 -0.535701 1.48216 0
M  V30 4566 C 444.676 -1.29375 1.56173 0
M  V30 4567 C 445.009 -1.92804 0.232429 0
M  V30 4568 O 444.284 -1.78992 -0.761048 0
M  V30 4569 C 444.567 -2.38747 2.69577 0
M  V30 4570 C 444.42 -1.80046 4.12193 0
M  V30 4571 C 445.739 -3.40551 2.78771 0
M  V30 4572 H 442.858 -0.469027 0.568491 0
M  V30 4573 H 445.5 -0.597358 1.80365 0
M  V30 4574 H 443.65 -2.98147 2.4908 0
M  V30 4575 H 445.322 -1.24742 4.44114 0
M  V30 4576 H 443.565 -1.10609 4.19462 0
M  V30 4577 H 444.236 -2.59212 4.87353 0
M  V30 4578 H 446.712 -2.91099 2.97322 0
M  V30 4579 H 445.588 -4.1448 3.59857 0
M  V30 4580 H 445.849 -4.00746 1.86696 0
M  V30 4581 N 444.908 -1.36708 -0.784132 0
M  V30 4582 C 446.156 -1.30972 -1.53918 0
M  V30 4583 C 446.477 0.109086 -1.94695 0
M  V30 4584 O 445.747 1.05048 -1.65353 0
M  V30 4585 H 444.327 -0.481819 -0.570841 0
M  V30 4586 H 446.989 -1.71063 -0.934002 0
M  V30 4587 H 446.085 -1.94061 -2.44431 0
M  V30 4588 N 446.386 1.0089 -1.21074 0
M  V30 4589 C 447.333 2.09588 -0.966512 0
M  V30 4590 C 448.303 1.65761 0.106089 0
M  V30 4591 O 449.488 1.90758 -0.0402287 0
M  V30 4592 C 446.628 3.40958 -0.533058 0
M  V30 4593 C 445.741 3.9822 -1.67467 0
M  V30 4594 C 444.876 5.17682 -1.19076 0
M  V30 4595 C 443.915 5.67043 -2.30496 0
M  V30 4596 N 443.052 6.77759 -1.83267 0
M  V30 4597 H 447.892 2.29815 -1.89708 0
M  V30 4598 H 445.429 1.12689 -0.945489 0
M  V30 4599 H 447.387 4.1637 -0.263019 0
M  V30 4600 H 446.017 3.20781 0.360505 0
M  V30 4601 H 445.069 3.1983 -2.05944 0
M  V30 4602 H 446.381 4.3085 -2.51336 0
M  V30 4603 H 445.535 6.00326 -0.877151 0
M  V30 4604 H 444.274 4.86635 -0.322066 0
M  V30 4605 H 443.279 4.82999 -2.62664 0
M  V30 4606 H 444.504 6.00121 -3.17855 0
M  V30 4607 H 442.45 6.48527 -0.987356 0
M  V30 4608 H 442.367 7.09624 -2.60711 0
M  V30 4609 H 443.635 7.63949 -1.54928 0
M  V30 4610 N 447.864 1.01787 1.20321 0
M  V30 4611 C 449.111 0.707936 1.89722 0
M  V30 4612 C 449.439 -0.762535 1.78929 0
M  V30 4613 O 448.694 -1.56977 1.16861 0
M  V30 4614 C 448.993 1.09076 3.40349 0
M  V30 4615 C 448.659 2.55765 3.71342 0
M  V30 4616 C 447.321 2.95845 3.79511 0
M  V30 4617 C 449.673 3.50723 3.85542 0
M  V30 4618 C 447.001 4.2982 3.99339 0
M  V30 4619 C 449.353 4.84387 4.06881 0
M  V30 4620 C 448.017 5.24172 4.1328 0
M  V30 4621 H 447.287 0.259052 0.694243 0
M  V30 4622 H 449.934 1.27868 1.42555 0
M  V30 4623 H 448.239 0.438453 3.89339 0
M  V30 4624 H 449.936 0.828636 3.92345 0
M  V30 4625 H 446.526 2.2371 3.65584 0
M  V30 4626 H 450.71 3.20916 3.78585 0
M  V30 4627 H 445.966 4.60196 4.02529 0
M  V30 4628 H 450.14 5.57891 4.1681 0
M  V30 4629 H 447.767 6.27997 4.28396 0
M  V30 4630 N 449.342 -1.36122 0.79427 0
M  V30 4631 C 450.29 -2.31871 0.184023 0
M  V30 4632 C 451.284 -1.56041 -0.659365 0
M  V30 4633 O 452.49 -1.71266 -0.553906 0
M  V30 4634 H 448.865 -0.750896 0.0407373 0
M  V30 4635 H 450.836 -2.80898 1.00693 0
M  V30 4636 C 449.585 -3.41324 -0.662813 0
M  V30 4637 H 448.908 -3.99793 -0.0231944 0
M  V30 4638 H 450.348 -4.10629 -1.05639 0
M  V30 4639 C 448.807 -2.83308 -1.82313 0
M  V30 4640 O 449.337 -2.75863 -2.91997 0
M  V30 4641 N 447.543 -2.40529 -1.63077 0
M  V30 4642 H 447.09 -2.46785 -0.738591 0
M  V30 4643 H 447.048 -2.02059 -2.40872 0
M  V30 4644 N 450.82 -0.546701 -1.47814 0
M  V30 4645 C 452.097 0.0464413 -1.95545 0
M  V30 4646 C 452.477 1.4962 -1.48919 0
M  V30 4647 O 451.825 2.16752 -0.723232 0
M  V30 4648 C 452.035 -0.0881298 -3.48889 0
M  V30 4649 C 453.383 0.0626059 -4.24554 0
M  V30 4650 O 454.407 -0.0151555 -3.56197 0
M  V30 4651 O 453.266 0.228071 -5.46024 0
M  V30 4652 H 450.36 0.0700004 -0.824032 0
M  V30 4653 H 452.906 -0.612482 -1.58262 0
M  V30 4654 H 451.678 -1.09737 -3.75597 0
M  V30 4655 H 451.301 0.608886 -3.9291 0
M  V30 4656 N 452.299 1.55045 -0.282633 0
M  V30 4657 C 453.546 1.9976 0.33199 0
M  V30 4658 C 453.874 1.17105 1.55295 0
M  V30 4659 O 453.129 0.230599 1.94337 0
M  V30 4660 C 453.428 3.49422 0.750938 0
M  V30 4661 C 453.094 4.4941 -0.366228 0
M  V30 4662 C 451.756 4.76471 -0.672964 0
M  V30 4663 C 454.108 5.09054 -1.11864 0
M  V30 4664 C 451.436 5.60442 -1.73556 0
M  V30 4665 C 453.788 5.9418 -2.17102 0
M  V30 4666 C 452.452 6.19558 -2.48402 0
M  V30 4667 H 451.722 0.730974 0.121484 0
M  V30 4668 H 454.369 1.8732 -0.39791 0
M  V30 4669 H 452.674 3.59377 1.56063 0
M  V30 4670 H 454.371 3.81432 1.23736 0
M  V30 4671 H 450.961 4.2844 -0.117041 0
M  V30 4672 H 455.145 4.88165 -0.894925 0
M  V30 4673 H 450.401 5.78349 -1.983 0
M  V30 4674 H 454.575 6.39427 -2.75873 0
M  V30 4675 H 452.202 6.84417 -3.30874 0
M  V30 4676 N 453.777 0.010035 1.57597 0
M  V30 4677 C 455.005 -0.683413 1.95287 0
M  V30 4678 C 455.42 -1.66747 0.885481 0
M  V30 4679 O 454.777 -1.82003 -0.134629 0
M  V30 4680 C 454.828 -1.40652 3.33015 0
M  V30 4681 O 454.549 -0.461916 4.35658 0
M  V30 4682 C 456.05 -2.19356 3.85225 0
M  V30 4683 H 453.27 -0.189708 0.643624 0
M  V30 4684 H 455.814 0.0641359 2.04399 0
M  V30 4685 H 453.969 -2.10562 3.2518 0
M  V30 4686 H 454.383 -0.973215 5.15392 0
M  V30 4687 H 455.857 -2.65433 4.83993 0
M  V30 4688 H 456.334 -3.02457 3.18459 0
M  V30 4689 H 456.94 -1.54442 3.96267 0
M  V30 4690 N 455.255 -1.55392 -0.262866 0
M  V30 4691 C 456.501 -1.76737 -0.99458 0
M  V30 4692 C 456.834 -0.572453 -1.85571 0
M  V30 4693 O 456.109 0.429732 -1.89693 0
M  V30 4694 C 456.392 -3.07824 -1.8686 0
M  V30 4695 C 456.245 -4.3769 -1.03672 0
M  V30 4696 C 457.564 -3.35021 -2.85393 0
M  V30 4697 H 454.683 -0.643005 -0.360157 0
M  V30 4698 H 457.325 -1.88126 -0.266216 0
M  V30 4699 H 455.475 -2.98245 -2.48962 0
M  V30 4700 H 457.147 -4.59238 -0.43563 0
M  V30 4701 H 455.39 -4.32461 -0.340513 0
M  V30 4702 H 456.061 -5.25759 -1.6817 0
M  V30 4703 H 458.537 -3.44458 -2.33426 0
M  V30 4704 H 457.413 -4.27989 -3.43681 0
M  V30 4705 H 457.674 -2.55153 -3.61039 0
M  V30 4706 N 456.733 0.527833 -1.48498 0
M  V30 4707 C 458.01 1.28905 -1.47115 0
M  V30 4708 C 458.39 2.10297 -0.184007 0
M  V30 4709 O 457.738 2.12728 0.834218 0
M  V30 4710 C 457.948 2.16866 -2.73441 0
M  V30 4711 C 459.296 2.76936 -3.21857 0
M  V30 4712 O 460.32 2.27152 -2.74373 0
M  V30 4713 O 459.179 3.67496 -4.04486 0
M  V30 4714 H 456.273 0.581918 -0.587623 0
M  V30 4715 H 458.819 0.544311 -1.60734 0
M  V30 4716 H 457.591 1.56521 -3.58632 0
M  V30 4717 H 457.214 2.98583 -2.62553 0
M  V30 4718 N 458.211 1.37122 0.776871 0
M  V30 4719 C 459.439 1.3523 1.5659 0
M  V30 4720 C 459.854 -0.0635518 1.88693 0
M  V30 4721 O 459.211 -1.02394 1.51069 0
M  V30 4722 C 459.262 2.18583 2.8793 0
M  V30 4723 O 458.983 3.5465 2.57206 0
M  V30 4724 C 460.484 2.24612 3.82183 0
M  V30 4725 H 457.704 0.4634 0.485285 0
M  V30 4726 H 460.248 1.80392 0.963266 0
M  V30 4727 H 458.403 1.76943 3.4463 0
M  V30 4728 H 458.817 3.98286 3.41275 0
M  V30 4729 H 460.291 2.87267 4.71361 0
M  V30 4730 H 460.768 1.25309 4.20944 0
M  V30 4731 H 461.374 2.66543 3.31414 0
M  V30 4732 N 459.689 -1.00246 1.21608 0
M  V30 4733 C 460.621 -2.09244 0.935401 0
M  V30 4734 C 461.634 -1.62592 -0.0823594 0
M  V30 4735 O 462.823 -1.77865 0.150456 0
M  V30 4736 C 459.923 -3.36724 0.383453 0
M  V30 4737 C 459.096 -4.1245 1.45615 0
M  V30 4738 C 458.155 -5.18219 0.912991 0
M  V30 4739 O 457.181 -5.46337 1.59701 0
M  V30 4740 N 458.383 -5.7987 -0.270478 0
M  V30 4741 H 461.148 -2.33905 1.87373 0
M  V30 4742 H 458.709 -1.16748 1.12167 0
M  V30 4743 H 460.701 -4.047 0.00562157 0
M  V30 4744 H 459.271 -3.09201 -0.459758 0
M  V30 4745 H 458.491 -3.39241 2.00772 0
M  V30 4746 H 459.779 -4.59819 2.17817 0
M  V30 4747 H 459.177 -5.59381 -0.843195 0
M  V30 4748 H 457.734 -6.49126 -0.589794 0
M  V30 4749 N 461.167 -1.02423 -1.1978 0
M  V30 4750 C 462.097 -0.62157 -2.25075 0
M  V30 4751 C 463.078 0.367148 -1.6609 0
M  V30 4752 O 464.263 0.250892 -1.92573 0
M  V30 4753 C 461.393 0.0331826 -3.47284 0
M  V30 4754 C 460.347 -0.877323 -4.18912 0
M  V30 4755 C 459.673 -0.0879296 -5.34628 0
M  V30 4756 C 460.973 -2.18892 -4.74219 0
M  V30 4757 H 462.667 -1.50179 -2.59011 0
M  V30 4758 H 460.213 -0.723547 -1.24502 0
M  V30 4759 H 462.166 0.326488 -4.20133 0
M  V30 4760 H 460.89 0.948164 -3.12534 0
M  V30 4761 H 459.549 -1.15475 -3.47938 0
M  V30 4762 H 459.197 0.828941 -4.96123 0
M  V30 4763 H 458.897 -0.694359 -5.83483 0
M  V30 4764 H 460.421 0.198743 -6.10276 0
M  V30 4765 H 461.835 -1.95746 -5.38847 0
M  V30 4766 H 460.232 -2.74686 -5.33542 0
M  V30 4767 H 461.302 -2.84674 -3.92541 0
M  V30 4768 N 462.645 1.35699 -0.801477 0
M  V30 4769 C 463.592 2.29876 -0.206294 0
M  V30 4770 C 464.562 1.52565 0.656752 0
M  V30 4771 O 465.747 1.81024 0.602906 0
M  V30 4772 C 462.887 3.39052 0.643272 0
M  V30 4773 C 462 4.31335 -0.239644 0
M  V30 4774 C 461.135 5.27599 0.61744 0
M  V30 4775 C 460.174 6.11521 -0.26619 0
M  V30 4776 N 459.311 6.99938 0.550571 0
M  V30 4777 H 464.151 2.80187 -1.01484 0
M  V30 4778 H 461.688 1.37902 -0.511997 0
M  V30 4779 H 463.646 4.0101 1.15094 0
M  V30 4780 H 462.276 2.9003 1.41713 0
M  V30 4781 H 461.328 3.70426 -0.865381 0
M  V30 4782 H 462.64 4.90243 -0.919985 0
M  V30 4783 H 461.794 5.94906 1.19045 0
M  V30 4784 H 460.533 4.69176 1.33137 0
M  V30 4785 H 459.538 5.43166 -0.851507 0
M  V30 4786 H 460.763 6.72022 -0.9779 0
M  V30 4787 H 458.709 6.44008 1.24856 0
M  V30 4788 H 458.626 7.55966 -0.071832 0
M  V30 4789 H 459.894 7.71599 1.10702 0
M  V30 4790 N 464.123 0.554532 1.47522 0
M  V30 4791 C 465.372 0.0273458 2.01681 0
M  V30 4792 C 465.685 -1.32962 1.43459 0
M  V30 4793 O 466.891 -1.94657 1.89265 0
M  V30 4794 C 465.347 -0.00159057 3.599 0
M  V30 4795 C 464.955 1.35197 4.27113 0
M  V30 4796 C 466.699 -0.476311 4.21819 0
M  V30 4797 C 464.606 1.28229 5.77331 0
M  V30 4798 H 463.536 0.00645269 0.753972 0
M  V30 4799 H 466.187 0.701985 1.69542 0
M  V30 4800 H 464.569 -0.741821 3.8899 0
M  V30 4801 H 465.743 2.1097 4.09668 0
M  V30 4802 H 464.058 1.76441 3.77171 0
M  V30 4803 H 466.655 -0.5468 5.31897 0
M  V30 4804 H 466.998 -1.4877 3.8881 0
M  V30 4805 H 467.531 0.20898 3.97251 0
M  V30 4806 H 464.27 2.26959 6.14955 0
M  V30 4807 H 463.79 0.566314 5.97121 0
M  V30 4808 H 465.469 0.983226 6.39485 0
M  V30 4809 N 465.601 -1.54893 0.290851 0
M  V30 4810 C 466.847 -2.0023 -0.321867 0
M  V30 4811 C 467.18 -1.179 -1.54316 0
M  V30 4812 O 466.455 -0.25293 -1.92848 0
M  V30 4813 C 466.738 -3.53456 -0.688515 0
M  V30 4814 C 466.591 -4.46532 0.541209 0
M  V30 4815 C 467.91 -4.13057 -1.51895 0
M  V30 4816 H 465.029 -0.727891 -0.115515 0
M  V30 4817 H 467.671 -1.85722 0.400931 0
M  V30 4818 H 465.821 -3.6595 -1.30433 0
M  V30 4819 H 467.493 -4.4596 1.17973 0
M  V30 4820 H 465.736 -4.17545 1.17636 0
M  V30 4821 H 466.407 -5.51475 0.240675 0
M  V30 4822 H 468.883 -4.03937 -0.99872 0
M  V30 4823 H 467.759 -5.20448 -1.74429 0
M  V30 4824 H 468.02 -3.64284 -2.50498 0
M  V30 4825 N 467.08 -0.0183926 -1.57589 0
M  V30 4826 C 468.01 0.965596 -2.12599 0
M  V30 4827 C 468.991 1.34641 -1.0395 0
M  V30 4828 O 470.176 1.42693 -1.31729 0
M  V30 4829 C 467.306 2.25149 -2.64434 0
M  V30 4830 C 466.26 2.01175 -3.77773 0
M  V30 4831 C 465.586 3.35937 -4.15994 0
M  V30 4832 C 466.886 1.35953 -5.04296 0
M  V30 4833 H 468.58 0.507504 -2.95067 0
M  V30 4834 H 466.126 0.242671 -1.41941 0
M  V30 4835 H 468.079 2.94357 -3.01549 0
M  V30 4836 H 466.803 2.73105 -1.79112 0
M  V30 4837 H 465.462 1.34388 -3.4108 0
M  V30 4838 H 465.11 3.81631 -3.27669 0
M  V30 4839 H 464.81 3.20705 -4.92364 0
M  V30 4840 H 466.334 4.0643 -4.55683 0
M  V30 4841 H 467.748 1.95144 -5.39065 0
M  V30 4842 H 466.145 1.31152 -5.85593 0
M  V30 4843 H 467.215 0.331071 -4.83768 0
M  V30 4844 N 468.558 1.5553 0.254621 0
M  V30 4845 C 469.969 1.67518 0.824286 0
M  V30 4846 C 470.32 0.614429 1.86331 0
M  V30 4847 O 469.445 -0.240736 2.15057 0
M  V30 4848 C 470.04 3.03692 1.50189 0
M  V30 4849 C 468.599 3.17646 2.01935 0
M  V30 4850 C 467.746 2.63373 0.867746 0
M  V30 4851 H 470.697 1.58671 0.0305843 0
M  V30 4852 H 470.718 2.97706 2.36962 0
M  V30 4853 H 470.23 3.80874 0.745431 0
M  V30 4854 H 468.331 2.45273 2.80485 0
M  V30 4855 H 468.444 4.24455 2.22204 0
M  V30 4856 H 466.808 2.20999 1.26616 0
M  V30 4857 H 467.591 3.43074 0.124498 0
M  V30 4858 N 470.036 -0.519951 1.48776 0
M  V30 4859 C 470.983 -1.62352 1.64044 0
M  V30 4860 C 471.953 -1.58945 0.482251 0
M  V30 4861 O 473.138 -1.77219 0.706971 0
M  V30 4862 C 470.278 -3.00579 1.69547 0
M  V30 4863 C 469.391 -3.14145 2.96541 0
M  V30 4864 C 468.526 -4.42991 2.93142 0
M  V30 4865 C 467.565 -4.50122 4.14797 0
M  V30 4866 N 466.702 -5.7037 4.09418 0
M  V30 4867 H 471.542 -1.48643 2.58281 0
M  V30 4868 H 469.079 -0.723516 1.28077 0
M  V30 4869 H 471.037 -3.80671 1.70719 0
M  V30 4870 H 469.667 -3.13036 0.787918 0
M  V30 4871 H 468.719 -2.27239 3.05068 0
M  V30 4872 H 470.031 -3.15275 3.86527 0
M  V30 4873 H 469.185 -5.31385 2.92772 0
M  V30 4874 H 467.924 -4.44398 2.00902 0
M  V30 4875 H 466.929 -3.60133 4.15433 0
M  V30 4876 H 468.154 -4.50445 5.08208 0
M  V30 4877 H 466.1 -5.72655 3.20004 0
M  V30 4878 H 466.017 -5.73036 4.93119 0
M  V30 4879 H 467.285 -6.61023 4.13121 0
M  V30 4880 N 471.514 -1.37532 -0.769588 0
M  V30 4881 C 472.762 -1.32597 -1.5252 0
M  V30 4882 C 473.083 0.0884294 -1.94799 0
M  V30 4883 O 472.353 1.03289 -1.66458 0
M  V30 4884 H 470.933 -0.487846 -0.565699 0
M  V30 4885 H 473.595 -1.72044 -0.915806 0
M  V30 4886 H 472.691 -1.96643 -2.42359 0
M  V30 4887 N 472.992 0.995999 -1.22138 0
M  V30 4888 C 474.222 1.76809 -1.06874 0
M  V30 4889 C 474.63 1.85265 0.383866 0
M  V30 4890 O 473.973 1.31969 1.27789 0
M  V30 4891 C 474.035 3.2186 -1.60144 0
M  V30 4892 C 473.699 3.36958 -3.0872 0
M  V30 4893 C 474.696 3.2452 -4.0618 0
M  V30 4894 C 472.381 3.62109 -3.48112 0
M  V30 4895 C 474.375 3.37013 -5.41019 0
M  V30 4896 C 472.062 3.74243 -4.831 0
M  V30 4897 C 473.06 3.61702 -5.79362 0
M  V30 4898 O 472.748 3.73436 -7.119 0
M  V30 4899 H 472.48 0.562207 -0.375365 0
M  V30 4900 H 475.034 1.26113 -1.62125 0
M  V30 4901 H 473.264 3.73734 -0.992981 0
M  V30 4902 H 474.953 3.80775 -1.40589 0
M  V30 4903 H 475.719 3.05004 -3.77091 0
M  V30 4904 H 471.598 3.70949 -2.73712 0
M  V30 4905 H 475.142 3.27141 -6.16137 0
M  V30 4906 H 471.039 3.93266 -5.11872 0
M  V30 4907 H 471.807 3.90328 -7.19435 0
M  V30 4908 N 474.47 1.03057 1.19235 0
M  V30 4909 C 475.417 0.612832 2.22515 0
M  V30 4910 C 476.387 -0.374224 1.61829 0
M  V30 4911 O 477.572 -0.270501 1.88873 0
M  V30 4912 C 474.712 -0.028475 3.45088 0
M  V30 4913 C 473.825 1.00483 4.20151 0
M  V30 4914 C 472.96 0.333102 5.30155 0
M  V30 4915 C 471.999 1.3522 5.96977 0
M  V30 4916 N 471.136 0.70616 6.9854 0
M  V30 4917 H 475.976 1.49812 2.57605 0
M  V30 4918 H 473.513 0.749658 1.26564 0
M  V30 4919 H 475.471 -0.417548 4.15105 0
M  V30 4920 H 474.101 -0.877334 3.10649 0
M  V30 4921 H 473.153 1.51194 3.49062 0
M  V30 4922 H 474.465 1.77929 4.65986 0
M  V30 4923 H 473.619 -0.110725 6.06599 0
M  V30 4924 H 472.358 -0.473547 4.85396 0
M  V30 4925 H 471.363 1.80627 5.19282 0
M  V30 4926 H 472.588 2.16037 6.4382 0
M  V30 4927 H 470.534 -0.0803667 6.55951 0
M  V30 4928 H 470.451 1.41848 7.42573 0
M  V30 4929 H 471.719 0.286391 7.78974 0
M  V30 4930 N 475.948 -1.35272 0.808662 0
M  V30 4931 C 477.197 -1.97963 0.386483 0
M  V30 4932 C 477.51 -1.64866 -1.05255 0
M  V30 4933 O 478.716 -2.20937 -1.57794 0
M  V30 4934 C 477.172 -3.54162 0.640096 0
M  V30 4935 C 476.78 -3.96166 2.0918 0
M  V30 4936 C 478.524 -4.23553 0.283376 0
M  V30 4937 C 476.431 -5.4522 2.29106 0
M  V30 4938 H 475.361 -0.740742 0.140774 0
M  V30 4939 H 478.012 -1.5431 0.993012 0
M  V30 4940 H 476.394 -3.95983 -0.0364117 0
M  V30 4941 H 477.568 -3.65491 2.80629 0
M  V30 4942 H 475.883 -3.3967 2.40859 0
M  V30 4943 H 478.48 -5.33124 0.410273 0
M  V30 4944 H 478.823 -4.09105 -0.770659 0
M  V30 4945 H 479.356 -3.8716 0.913884 0
M  V30 4946 H 476.095 -5.64638 3.32962 0
M  V30 4947 H 475.615 -5.77457 1.62184 0
M  V30 4948 H 477.294 -6.1171 2.1076 0
M  V30 4949 N 477.426 -0.562348 -1.47226 0
M  V30 4950 C 478.842 -0.222492 -1.58042 0
M  V30 4951 C 479.042 1.27505 -1.56028 0
M  V30 4952 O 478.098 2.05555 -1.46641 0
M  V30 4953 C 479.411 -0.853694 -2.88327 0
M  V30 4954 C 480.959 -0.825397 -3.01921 0
M  V30 4955 C 481.434 -1.43576 -4.34914 0
M  V30 4956 N 482.925 -1.39918 -4.41562 0
M  V30 4957 C 483.66 -1.84103 -5.43041 0
M  V30 4958 N 483.156 -2.36167 -6.51304 0
M  V30 4959 N 484.949 -1.75142 -5.34118 0
M  V30 4960 H 477.1 -1.53525 -1.46778 0
M  V30 4961 H 479.363 -0.640527 -0.698877 0
M  V30 4962 H 479.069 -1.90635 -2.95552 0
M  V30 4963 H 478.943 -0.34977 -3.75575 0
M  V30 4964 H 481.33 0.218583 -2.94289 0
M  V30 4965 H 481.411 -1.36713 -2.16202 0
M  V30 4966 H 481.055 -2.47884 -4.43301 0
M  V30 4967 H 480.985 -0.869427 -5.19373 0
M  V30 4968 H 483.476 -1.0184 -3.63919 0
M  V30 4969 H 483.789 -2.67793 -7.24919 0
M  V30 4970 H 482.134 -2.40181 -6.52179 0
M  V30 4971 H 485.325 -1.34241 -4.48439 0
M  V30 4972 H 485.498 -2.09895 -6.13065 0
M  V30 4973 N 478.904 1.54736 -0.299062 0
M  V30 4974 C 480.134 2.04215 0.312992 0
M  V30 4975 C 480.542 1.17596 1.48215 0
M  V30 4976 O 479.885 0.193835 1.82674 0
M  V30 4977 C 479.947 3.49696 0.833862 0
M  V30 4978 C 479.611 4.56518 -0.20977 0
M  V30 4979 C 480.608 5.09442 -1.03756 0
M  V30 4980 C 478.293 5.01073 -0.35091 0
M  V30 4981 C 480.287 6.05459 -1.99244 0
M  V30 4982 C 477.974 5.9691 -1.30924 0
M  V30 4983 C 478.972 6.48987 -2.1285 0
M  V30 4984 O 478.66 7.42947 -3.07059 0
M  V30 4985 H 478.392 0.672128 0.0722494 0
M  V30 4986 H 480.946 2.00718 -0.436043 0
M  V30 4987 H 479.176 3.5051 1.63339 0
M  V30 4988 H 480.865 3.82381 1.36159 0
M  V30 4989 H 481.631 4.75816 -0.939376 0
M  V30 4990 H 477.51 4.60168 0.276813 0
M  V30 4991 H 481.054 6.46031 -2.63229 0
M  V30 4992 H 476.951 6.29953 -1.40815 0
M  V30 4993 H 477.719 7.60743 -3.02015 0
M  V30 4994 N 480.382 0.0267497 1.57577 0
M  V30 4995 C 481.345 -0.940916 2.08996 0
M  V30 4996 C 482.345 -1.25561 1.00455 0
M  V30 4997 O 483.535 -1.19634 1.26623 0
M  V30 4998 C 480.667 -2.25814 2.55384 0
M  V30 4999 H 481.86 -0.495628 2.95776 0
M  V30 5000 H 479.413 -0.221241 1.54726 0
M  V30 5001 H 480.148 -2.74976 1.71926 0
M  V30 5002 H 479.933 -2.04285 3.34679 0
M  V30 5003 H 481.423 -2.95178 2.95398 0
M  V30 5004 N 481.861 -1.55662 -0.24637 0
M  V30 5005 C 482.824 -1.89558 -1.28842 0
M  V30 5006 C 483.824 -0.772082 -1.41052 0
M  V30 5007 O 485.014 -1.04007 -1.39743 0
M  V30 5008 C 482.146 -2.12449 -2.66605 0
M  V30 5009 H 483.339 -2.82735 -1.00004 0
M  V30 5010 H 480.892 -1.48562 -0.485684 0
M  V30 5011 H 481.627 -1.21742 -3.00582 0
M  V30 5012 H 481.412 -2.94273 -2.59125 0
M  V30 5013 H 482.902 -2.39854 -3.41847 0
M  V30 5014 N 483.339 0.512053 -1.4905 0
M  V30 5015 C 484.75 1.09376 -1.51307 0
M  V30 5016 C 485.101 1.94 -0.292971 0
M  V30 5017 O 484.226 2.07965 0.598277 0
M  V30 5018 C 484.821 1.99031 -2.74176 0
M  V30 5019 C 483.38 2.52385 -2.79247 0
M  V30 5020 C 482.527 1.29749 -2.45073 0
M  V30 5021 H 485.478 0.296467 -1.55906 0
M  V30 5022 H 485.499 2.83569 -2.53711 0
M  V30 5023 H 485.011 1.37412 -3.62959 0
M  V30 5024 H 483.112 3.17673 -1.94716 0
M  V30 5025 H 483.225 2.90293 -3.81139 0
M  V30 5026 H 481.589 1.61912 -1.96612 0
M  V30 5027 H 482.372 0.698555 -3.36118 0
M  V30 5028 N 484.817 1.37938 0.762283 0
M  V30 5029 C 485.749 1.30349 1.88525 0
M  V30 5030 C 486.762 0.217402 1.61342 0
M  V30 5031 O 487.951 0.474291 1.72084 0
M  V30 5032 C 485.051 0.994844 3.23969 0
M  V30 5033 C 484.224 2.18829 3.78725 0
M  V30 5034 C 483.283 1.84844 4.92665 0
M  V30 5035 O 482.309 2.57244 5.07754 0
M  V30 5036 N 483.511 0.798201 5.74986 0
M  V30 5037 H 486.276 2.27114 1.95549 0
M  V30 5038 H 483.837 1.31686 0.941825 0
M  V30 5039 H 485.829 0.748168 3.97724 0
M  V30 5040 H 484.399 0.115446 3.12387 0
M  V30 5041 H 483.619 2.59615 2.96637 0
M  V30 5042 H 484.907 2.98497 4.1204 0
M  V30 5043 H 484.305 0.197611 5.65355 0
M  V30 5044 H 482.862 0.611396 6.48926 0
M  V30 5045 N 486.295 -0.989507 1.22664 0
M  V30 5046 C 487.542 -1.72953 1.05325 0
M  V30 5047 C 487.87 -1.90104 -0.411168 0
M  V30 5048 O 487.125 -1.44386 -1.32103 0
M  V30 5049 C 487.424 -3.13649 1.71345 0
M  V30 5050 C 487.09 -3.16403 3.21248 0
M  V30 5051 C 485.752 -3.16862 3.62149 0
M  V30 5052 C 488.104 -3.12428 4.17179 0
M  V30 5053 C 485.432 -3.11051 4.97458 0
M  V30 5054 C 487.784 -3.08159 5.52468 0
M  V30 5055 C 486.448 -3.06935 5.92746 0
M  V30 5056 H 485.718 -0.632881 0.385412 0
M  V30 5057 H 488.365 -1.15863 1.52473 0
M  V30 5058 H 486.67 -3.74069 1.16532 0
M  V30 5059 H 488.367 -3.69658 1.55416 0
M  V30 5060 H 484.957 -3.16798 2.88682 0
M  V30 5061 H 489.141 -3.11221 3.86595 0
M  V30 5062 H 484.397 -3.0845 5.27891 0
M  V30 5063 H 488.571 -3.04039 6.26525 0
M  V30 5064 H 486.198 -3.02186 6.97558 0
M  V30 5065 N 487.773 -1.03688 -1.18687 0
M  V30 5066 C 489.189 -0.755413 -1.4059 0
M  V30 5067 C 489.389 0.656659 -1.905 0
M  V30 5068 O 488.445 1.42144 -2.08689 0
M  V30 5069 C 489.758 -1.7983 -2.41001 0
M  V30 5070 C 491.306 -1.81877 -2.54735 0
M  V30 5071 C 491.781 -2.85148 -3.58406 0
M  V30 5072 N 493.272 -2.84015 -3.6591 0
M  V30 5073 C 494.007 -3.60573 -4.45841 0
M  V30 5074 N 493.503 -4.46871 -5.29413 0
M  V30 5075 N 495.296 -3.49079 -4.40568 0
M  V30 5076 H 487.447 -1.94818 -0.846148 0
M  V30 5077 H 489.71 -0.842727 -0.434184 0
M  V30 5078 H 489.416 -2.81097 -2.1137 0
M  V30 5079 H 489.29 -1.62727 -3.40294 0
M  V30 5080 H 491.677 -0.812836 -2.83685 0
M  V30 5081 H 491.758 -2.03057 -1.55568 0
M  V30 5082 H 491.402 -3.85918 -3.30197 0
M  V30 5083 H 491.332 -2.61224 -4.57241 0
M  V30 5084 H 493.823 -2.21431 -3.0623 0
M  V30 5085 H 494.136 -5.02007 -5.87545 0
M  V30 5086 H 492.481 -4.5094 -5.28846 0
M  V30 5087 H 495.672 -2.81066 -3.74325 0
M  V30 5088 H 495.845 -4.08994 -5.02621 0
M  V30 5089 N 489.251 1.34841 -0.815825 0
M  V30 5090 C 490.476 2.03261 -0.41226 0
M  V30 5091 C 490.901 1.61055 0.971751 0
M  V30 5092 O 490.259 0.7917 1.63101 0
M  V30 5093 C 490.307 3.56914 -0.514289 0
M  V30 5094 O 489.411 4.09728 0.468675 0
M  V30 5095 H 488.752 0.641664 -0.170771 0
M  V30 5096 H 491.282 1.72241 -1.10427 0
M  V30 5097 H 491.292 4.06156 -0.387457 0
M  V30 5098 H 489.967 3.86982 -1.52375 0
M  V30 5099 H 488.544 3.71681 0.301316 0
M  V30 5100 N 490.729 0.570148 1.46925 0
M  V30 5101 C 491.661 -0.207909 2.28255 0
M  V30 5102 C 492.674 -0.867301 1.37774 0
M  V30 5103 O 493.863 -0.738976 1.62485 0
M  V30 5104 C 490.963 -1.31298 3.12433 0
M  V30 5105 C 490.136 -0.747915 4.30958 0
M  V30 5106 C 489.195 -1.7391 4.9663 0
M  V30 5107 O 488.221 -1.2801 5.54619 0
M  V30 5108 N 489.423 -3.07288 4.92498 0
M  V30 5109 H 492.188 0.489794 2.95671 0
M  V30 5110 H 489.749 0.407076 1.56699 0
M  V30 5111 H 491.741 -1.97507 3.53232 0
M  V30 5112 H 490.311 -1.91373 2.47175 0
M  V30 5113 H 489.531 0.0913066 3.94094 0
M  V30 5114 H 490.819 -0.349958 5.07595 0
M  V30 5115 H 490.217 -3.47213 4.46609 0
M  V30 5116 H 488.774 -3.69021 5.37277 0
M  V30 5117 N 492.207 -1.54576 0.307264 0
M  V30 5118 C 493.155 -2.25208 -0.581723 0
M  V30 5119 C 494.149 -1.26031 -1.13192 0
M  V30 5120 O 495.355 -1.43862 -1.08184 0
M  V30 5121 H 491.73 -0.723173 -0.206214 0
M  V30 5122 H 493.701 -2.98378 0.0364663 0
M  V30 5123 C 492.45 -3.01086 -1.73904 0
M  V30 5124 H 491.773 -3.77208 -1.32491 0
M  V30 5125 H 493.213 -3.5378 -2.33701 0
M  V30 5126 C 491.672 -2.08422 -2.64692 0
M  V30 5127 O 492.202 -1.65636 -3.65961 0
M  V30 5128 N 490.408 -1.74247 -2.32564 0
M  V30 5129 H 489.955 -2.09238 -1.50257 0
M  V30 5130 H 489.913 -1.12524 -2.93574 0
M  V30 5131 N 493.685 -0.035106 -1.57561 0
M  V30 5132 C 494.615 0.942993 -2.13612 0
M  V30 5133 C 495.596 1.33531 -1.05373 0
M  V30 5134 O 496.781 1.41287 -1.33235 0
M  V30 5135 C 493.911 2.22332 -2.66807 0
M  V30 5136 C 492.865 1.97156 -3.79886 0
M  V30 5137 C 492.191 3.31506 -4.19533 0
M  V30 5138 C 493.491 1.30596 -5.05709 0
M  V30 5139 H 495.185 0.476179 -2.95589 0
M  V30 5140 H 492.731 0.227602 -1.4219 0
M  V30 5141 H 494.684 2.91142 -3.04654 0
M  V30 5142 H 493.408 2.7119 -1.81999 0
M  V30 5143 H 492.067 1.30763 -3.42486 0
M  V30 5144 H 491.715 3.78134 -3.31698 0
M  V30 5145 H 491.415 3.15465 -4.95738 0
M  V30 5146 H 492.939 4.01574 -4.59968 0
M  V30 5147 H 494.353 1.89416 -5.41105 0
M  V30 5148 H 492.75 1.24934 -5.86951 0
M  V30 5149 H 493.82 0.279742 -4.84092 0
M  V30 5150 N 495.163 1.55791 0.238111 0
M  V30 5151 C 496.073 1.94196 1.31625 0
M  V30 5152 C 497.089 0.843545 1.52185 0
M  V30 5153 O 498.265 1.1457 1.65637 0
M  V30 5154 C 495.33 2.2365 2.64918 0
M  V30 5155 C 494.391 3.46971 2.52804 0
M  V30 5156 C 493.624 3.7501 3.79741 0
M  V30 5157 O 493.847 3.04982 4.82019 0
M  V30 5158 O 492.781 4.68525 3.77846 0
M  V30 5159 H 496.607 2.86044 1.02043 0
M  V30 5160 H 494.192 1.42786 0.439603 0
M  V30 5161 H 496.074 2.43863 3.4367 0
M  V30 5162 H 494.749 1.34979 2.94215 0
M  V30 5163 H 493.656 3.32055 1.72309 0
M  V30 5164 H 494.989 4.35971 2.28451 0
M  V30 5165 N 496.642 -0.504142 1.49319 0
M  V30 5166 C 497.552 -1.63248 1.68486 0
M  V30 5167 C 498.568 -1.64488 0.567432 0
M  V30 5168 O 499.744 -1.82966 0.841749 0
M  V30 5169 C 496.809 -2.99627 1.74426 0
M  V30 5170 C 495.87 -3.09039 2.97982 0
M  V30 5171 C 495.103 -4.38913 3.0363 0
M  V30 5172 O 495.326 -5.27528 2.16958 0
M  V30 5173 O 494.26 -4.53231 3.96062 0
M  V30 5174 H 498.086 -1.50008 2.64067 0
M  V30 5175 H 495.671 -0.680086 1.33023 0
M  V30 5176 H 497.553 -3.80689 1.80705 0
M  V30 5177 H 496.228 -3.13136 0.820233 0
M  V30 5178 H 495.135 -2.27177 2.97223 0
M  V30 5179 H 496.468 -3.00456 3.89855 0
M  V30 5180 N 498.12 -1.38341 -0.754957 0
M  V30 5181 C 499.35 -1.37504 -1.54195 0
M  V30 5182 C 499.758 0.0373787 -1.89163 0
M  V30 5183 O 499.101 1.01402 -1.53178 0
M  V30 5184 C 499.163 -2.16488 -2.87008 0
M  V30 5185 C 498.827 -3.65311 -2.74585 0
M  V30 5186 C 499.824 -4.58834 -2.44474 0
M  V30 5187 C 497.509 -4.08649 -2.9208 0
M  V30 5188 C 499.503 -5.93675 -2.32011 0
M  V30 5189 C 497.19 -5.43571 -2.79237 0
M  V30 5190 C 498.188 -6.35898 -2.49245 0
M  V30 5191 O 497.876 -7.68338 -2.36458 0
M  V30 5192 H 497.608 -0.472159 -0.483779 0
M  V30 5193 H 500.162 -1.82515 -0.94221 0
M  V30 5194 H 498.392 -1.66194 -3.49166 0
M  V30 5195 H 500.081 -2.08076 -3.4851 0
M  V30 5196 H 500.847 -4.26657 -2.30627 0
M  V30 5197 H 496.726 -3.37134 -3.14422 0
M  V30 5198 H 500.27 -6.65706 -2.08522 0
M  V30 5199 H 496.167 -5.75345 -2.92657 0
M  V30 5200 H 496.935 -7.78845 -2.5168 0
M  V30 5201 N 499.598 0.982988 -1.23187 0
M  V30 5202 C 501.014 1.2487 -0.993967 0
M  V30 5203 C 501.214 1.99155 0.306498 0
M  V30 5204 O 500.27 2.30688 1.0266 0
M  V30 5205 C 501.583 2.05078 -2.19917 0
M  V30 5206 C 503.131 2.18227 -2.2438 0
M  V30 5207 C 503.606 3.01825 -3.44479 0
M  V30 5208 N 505.097 3.09411 -3.44702 0
M  V30 5209 C 505.832 3.74412 -4.34285 0
M  V30 5210 N 505.328 4.41259 -5.341 0
M  V30 5211 N 507.121 3.71273 -4.22035 0
M  V30 5212 H 499.272 0.485253 -2.06783 0
M  V30 5213 H 501.535 0.276979 -0.906635 0
M  V30 5214 H 501.241 1.57867 -3.14279 0
M  V30 5215 H 501.115 3.05829 -2.2079 0
M  V30 5216 H 503.502 2.64648 -1.30559 0
M  V30 5217 H 503.583 1.16873 -2.2754 0
M  V30 5218 H 503.227 2.56102 -4.38605 0
M  V30 5219 H 503.157 4.03342 -3.38559 0
M  V30 5220 H 505.648 2.61845 -2.7248 0
M  V30 5221 H 505.961 4.88629 -5.98717 0
M  V30 5222 H 504.306 4.39975 -5.38002 0
M  V30 5223 H 507.497 3.18217 -3.43301 0
M  V30 5224 H 507.67 4.21649 -4.92053 0
M  V30 5225 N 501.076 1.04316 1.18135 0
M  V30 5226 C 502.322 0.758899 1.88712 0
M  V30 5227 C 502.677 -0.705863 1.78984 0
M  V30 5228 O 501.97 -1.50874 1.18101 0
M  V30 5229 C 502.164 1.16271 3.37958 0
M  V30 5230 C 501.993 2.66518 3.62213 0
M  V30 5231 C 500.763 3.33702 3.79436 0
M  V30 5232 C 502.961 3.64739 3.62588 0
M  V30 5233 N 500.943 4.72904 3.91452 0
M  V30 5234 C 502.314 4.89627 3.80348 0
M  V30 5235 C 504.369 3.58333 3.4569 0
M  V30 5236 C 503.072 6.08879 3.8296 0
M  V30 5237 C 505.098 4.77016 3.49586 0
M  V30 5238 C 504.46 6.00724 3.67845 0
M  V30 5239 H 500.559 0.329795 0.709055 0
M  V30 5240 H 503.143 1.33334 1.4188 0
M  V30 5241 H 501.314 0.616319 3.83479 0
M  V30 5242 H 503.046 0.829205 3.96114 0
M  V30 5243 H 499.801 2.84105 3.78921 0
M  V30 5244 H 500.225 5.45258 4.01277 0
M  V30 5245 H 504.867 2.63663 3.30517 0
M  V30 5246 H 502.585 7.03903 3.96921 0
M  V30 5247 H 506.171 4.73703 3.37782 0
M  V30 5248 H 505.051 6.91022 3.70753 0
M  V30 5249 N 502.554 -1.34406 0.822964 0
M  V30 5250 C 503.779 -2.0304 0.423034 0
M  V30 5251 C 504.204 -1.61568 -0.963196 0
M  V30 5252 O 503.562 -0.800339 -1.62678 0
M  V30 5253 C 503.61 -3.56636 0.53321 0
M  V30 5254 O 502.714 -4.09971 -0.446939 0
M  V30 5255 H 502.055 -0.64075 0.174171 0
M  V30 5256 H 504.585 -1.71653 1.11339 0
M  V30 5257 H 504.595 -4.05945 0.408991 0
M  V30 5258 H 503.27 -3.86168 1.54425 0
M  V30 5259 H 501.847 -3.71835 -0.281601 0
M  V30 5260 N 504.032 -0.577932 -1.46621 0
M  V30 5261 C 505.28 -0.061566 -2.02006 0
M  V30 5262 C 505.601 1.30117 -1.4524 0
M  V30 5263 O 504.871 1.85313 -0.63529 0
M  V30 5264 H 503.451 -0.0197692 -0.746738 0
M  V30 5265 H 506.113 -0.752631 -1.79782 0
M  V30 5266 H 505.209 0.0110238 -3.12098 0
M  V30 5267 N 505.51 1.54411 -0.315457 0
M  V30 5268 C 506.758 2.00023 0.288971 0
M  V30 5269 C 507.079 1.20529 1.5329 0
M  V30 5270 O 506.349 0.304986 1.93511 0
M  V30 5271 H 504.929 0.738891 0.109766 0
M  V30 5272 H 507.591 1.90094 -0.430129 0
M  V30 5273 H 506.687 3.07198 0.550999 0
M  V30 5274 N 506.988 0.0434614 1.5754 0
M  V30 5275 C 507.951 -0.918696 2.09982 0
M  V30 5276 C 508.951 -1.24488 1.01781 0
M  V30 5277 O 510.141 -1.18284 1.27885 0
M  V30 5278 C 507.273 -2.23093 2.57764 0
M  V30 5279 H 508.466 -0.464229 2.96285 0
M  V30 5280 H 506.019 -0.204818 1.54952 0
M  V30 5281 H 506.754 -2.73137 1.74832 0
M  V30 5282 H 506.539 -2.00724 3.36827 0
M  V30 5283 H 508.029 -2.92028 2.98512 0
M  V30 5284 N 508.466 -1.55915 -0.229846 0
M  V30 5285 C 509.696 -1.82352 -0.971152 0
M  V30 5286 C 510.104 -0.619231 -1.7878 0
M  V30 5287 O 509.447 0.421597 -1.78797 0
M  V30 5288 C 509.509 -3.02399 -1.9441 0
M  V30 5289 C 509.173 -4.37739 -1.31277 0
M  V30 5290 C 510.17 -5.15074 -0.706757 0
M  V30 5291 C 507.855 -4.84454 -1.32702 0
M  V30 5292 C 509.849 -6.37281 -0.123413 0
M  V30 5293 C 507.536 -6.06605 -0.739831 0
M  V30 5294 C 508.534 -6.82858 -0.139071 0
M  V30 5295 O 508.222 -8.027 0.439007 0
M  V30 5296 H 507.954 -0.61035 -0.290601 0
M  V30 5297 H 510.508 -2.03839 -0.252746 0
M  V30 5298 H 508.738 -2.76709 -2.70128 0
M  V30 5299 H 510.427 -3.15779 -2.55026 0
M  V30 5300 H 511.193 -4.80093 -0.688131 0
M  V30 5301 H 507.072 -4.25081 -1.78402 0
M  V30 5302 H 510.616 -6.96741 0.346124 0
M  V30 5303 H 506.513 -6.4106 -0.755841 0
M  V30 5304 H 507.281 -8.17824 0.332521 0
M  V30 5305 N 509.944 0.496216 -1.49584 0
M  V30 5306 C 510.907 1.57952 -1.66084 0
M  V30 5307 C 511.907 1.51729 -0.53244 0
M  V30 5308 O 513.097 1.54796 -0.79899 0
M  V30 5309 C 510.229 2.97604 -1.66268 0
M  V30 5310 H 511.422 1.44649 -2.6271 0
M  V30 5311 H 508.975 0.7208 -1.38687 0
M  V30 5312 H 509.71 3.16378 -0.712432 0
M  V30 5313 H 509.495 3.03528 -2.4822 0
M  V30 5314 H 510.985 3.76301 -1.81073 0
M  V30 5315 N 511.423 1.38739 0.74761 0
M  V30 5316 C 512.839 1.20067 1.05148 0
M  V30 5317 C 513.039 0.0534835 2.01429 0
M  V30 5318 O 512.095 -0.59886 2.45296 0
M  V30 5319 C 513.408 2.52957 1.62584 0
M  V30 5320 C 514.956 2.59692 1.74726 0
M  V30 5321 C 515.431 3.92772 2.35573 0
M  V30 5322 N 516.922 3.94343 2.42997 0
M  V30 5323 C 517.657 4.9408 2.90985 0
M  V30 5324 N 517.153 6.04214 3.38965 0
M  V30 5325 N 518.946 4.81466 2.9008 0
M  V30 5326 H 511.097 2.12121 0.108808 0
M  V30 5327 H 513.36 0.941491 0.110899 0
M  V30 5328 H 513.066 3.37389 0.993051 0
M  V30 5329 H 512.94 2.71779 2.61565 0
M  V30 5330 H 515.327 1.75651 2.3713 0
M  V30 5331 H 515.408 2.44731 0.744326 0
M  V30 5332 H 515.052 4.77238 1.738 0
M  V30 5333 H 514.982 4.05046 3.36519 0
M  V30 5334 H 517.473 3.14799 2.0907 0
M  V30 5335 H 517.786 6.76241 3.74056 0
M  V30 5336 H 516.131 6.07825 3.37007 0
M  V30 5337 H 519.322 3.94535 2.51912 0
M  V30 5338 H 519.495 5.59344 3.27166 0
M  V30 5339 N 512.901 -0.976442 1.23707 0
M  V30 5340 C 514.147 -1.72158 1.08319 0
M  V30 5341 C 514.502 -1.88701 -0.375445 0
M  V30 5342 O 513.795 -1.43107 -1.274 0
M  V30 5343 C 513.989 -3.11814 1.74662 0
M  V30 5344 C 513.818 -3.08892 3.26827 0
M  V30 5345 C 512.588 -3.13861 3.96004 0
M  V30 5346 C 514.786 -2.9175 4.2354 0
M  V30 5347 N 512.768 -3.00867 5.35119 0
M  V30 5348 C 514.139 -2.8696 5.49595 0
M  V30 5349 C 516.194 -2.76265 4.14225 0
M  V30 5350 C 514.897 -2.68268 6.67401 0
M  V30 5351 C 516.923 -2.58938 5.317 0
M  V30 5352 C 516.285 -2.54849 6.56682 0
M  V30 5353 H 512.384 -0.638896 0.450927 0
M  V30 5354 H 514.968 -1.15835 1.56494 0
M  V30 5355 H 513.139 -3.66347 1.29014 0
M  V30 5356 H 514.871 -3.74984 1.52215 0
M  V30 5357 H 511.626 -3.22198 3.4711 0
M  V30 5358 H 512.05 -2.97634 6.08065 0
M  V30 5359 H 516.692 -2.78213 3.18366 0
M  V30 5360 H 514.41 -2.65063 7.63392 0
M  V30 5361 H 517.996 -2.47914 5.26336 0
M  V30 5362 H 516.876 -2.41611 7.46052 0
M  V30 5363 N 514.379 -1.04941 -1.1758 0
M  V30 5364 C 515.625 -0.759112 -1.88057 0
M  V30 5365 C 515.958 0.711918 -1.8068 0
M  V30 5366 O 515.233 1.52035 -1.21308 0
M  V30 5367 C 515.516 -1.237 -3.38187 0
M  V30 5368 C 515.369 -2.77078 -3.54327 0
M  V30 5369 C 516.688 -0.834014 -4.32125 0
M  V30 5370 H 513.807 -0.277237 -0.682868 0
M  V30 5371 H 516.449 -1.30296 -1.38286 0
M  V30 5372 H 514.599 -0.774337 -3.80705 0
M  V30 5373 H 516.271 -3.31449 -3.20842 0
M  V30 5374 H 514.514 -3.16477 -2.96689 0
M  V30 5375 H 515.185 -3.05577 -4.59703 0
M  V30 5376 H 517.661 -1.23228 -3.97434 0
M  V30 5377 H 516.537 -1.19603 -5.35711 0
M  V30 5378 H 516.798 0.262195 -4.41322 0
M  V30 5379 N 515.857 1.33968 -0.830081 0
M  V30 5380 C 516.767 2.33164 -0.259207 0
M  V30 5381 C 517.783 1.62951 0.610164 0
M  V30 5382 O 518.959 1.94668 0.516369 0
M  V30 5383 C 516.024 3.42088 0.563598 0
M  V30 5384 C 515.085 4.28037 -0.329014 0
M  V30 5385 C 514.318 5.3176 0.454616 0
M  V30 5386 O 514.541 5.44876 1.6872 0
M  V30 5387 O 513.475 6.01669 -0.166794 0
M  V30 5388 H 517.301 2.83832 -1.08041 0
M  V30 5389 H 514.886 1.37154 -0.59239 0
M  V30 5390 H 516.768 4.08581 1.03147 0
M  V30 5391 H 515.443 2.93651 1.36201 0
M  V30 5392 H 514.35 3.64443 -0.844538 0
M  V30 5393 H 515.683 4.79934 -1.09196 0
M  V30 5394 N 517.335 0.585699 1.46312 0
M  V30 5395 C 518.285 -0.166813 2.27389 0
M  V30 5396 C 519.269 -0.859076 1.36047 0
M  V30 5397 O 520.461 -0.752678 1.60199 0
M  V30 5398 C 517.59 -1.17791 3.2246 0
M  V30 5399 C 516.676 -0.487605 4.21288 0
M  V30 5400 N 517.067 0.45849 5.03718 0
M  V30 5401 C 515.365 -0.737971 4.39852 0
M  V30 5402 C 516.066 0.862213 5.75275 0
M  V30 5403 N 515.042 0.210707 5.43191 0
M  V30 5404 H 518.844 0.560167 2.88512 0
M  V30 5405 H 516.358 0.407715 1.57199 0
M  V30 5406 H 518.355 -1.73122 3.79255 0
M  V30 5407 H 517.015 -1.90568 2.62896 0
M  V30 5408 H 518.026 0.834163 5.11138 0
M  V30 5409 H 514.703 -1.45209 3.91434 0
M  V30 5410 H 516.093 1.64128 6.51546 0
M  V30 5411 N 518.813 -1.54241 0.323641 0
M  V30 5412 C 520.059 -2.00867 -0.279323 0
M  V30 5413 C 520.392 -1.21146 -1.5178 0
M  V30 5414 O 519.667 -0.29378 -1.92269 0
M  V30 5415 C 519.95 -3.54837 -0.613387 0
M  V30 5416 C 519.803 -4.45284 0.635803 0
M  V30 5417 C 521.122 -4.16186 -1.43099 0
M  V30 5418 H 518.241 -0.730177 -0.100049 0
M  V30 5419 H 520.883 -1.84829 0.440235 0
M  V30 5420 H 519.033 -3.68634 -1.22641 0
M  V30 5421 H 520.705 -4.43357 1.27406 0
M  V30 5422 H 518.948 -4.14956 1.26466 0
M  V30 5423 H 519.619 -5.5084 0.357597 0
M  V30 5424 H 522.095 -4.05964 -0.912814 0
M  V30 5425 H 520.971 -5.24031 -1.6335 0
M  V30 5426 H 521.232 -3.69516 -2.42715 0
M  V30 5427 N 520.291 -0.0518155 -1.57515 0
M  V30 5428 C 521.531 0.625712 -1.94587 0
M  V30 5429 C 521.895 1.6797 -0.930053 0
M  V30 5430 O 523.096 2.41135 -1.18774 0
M  V30 5431 C 521.367 1.20574 -3.36447 0
M  V30 5432 S 522.926 1.90118 -3.95475 0
M  V30 5433 H 519.744 0.205434 -0.680675 0
M  V30 5434 H 522.346 -0.120906 -1.95126 0
M  V30 5435 H 521.05 0.426521 -4.08178 0
M  V30 5436 H 520.581 1.98916 -3.39405 0
M  V30 5437 H 522.596 3.18184 -3.80753 0
M  V30 5438 N 521.769 1.56035 0.221574 0
M  V30 5439 C 522.716 1.92413 1.27459 0
M  V30 5440 C 523.686 0.781323 1.46576 0
M  V30 5441 O 524.871 1.03721 1.60145 0
M  V30 5442 C 522.011 2.24617 2.61995 0
M  V30 5443 C 521.124 3.51831 2.50677 0
M  V30 5444 C 520.259 3.73482 3.77736 0
M  V30 5445 C 519.298 4.94211 3.6114 0
M  V30 5446 N 518.435 5.12252 4.80148 0
M  V30 5447 H 523.275 2.82203 0.957355 0
M  V30 5448 H 520.812 1.39676 0.461415 0
M  V30 5449 H 522.77 2.41298 3.40339 0
M  V30 5450 H 521.4 1.38 2.91815 0
M  V30 5451 H 520.452 3.43343 1.63767 0
M  V30 5452 H 521.764 4.40328 2.34334 0
M  V30 5453 H 520.918 3.9026 4.64523 0
M  V30 5454 H 519.657 2.83266 3.97003 0
M  V30 5455 H 518.662 4.77384 2.72736 0
M  V30 5456 H 519.887 5.85912 3.43343 0
M  V30 5457 H 517.833 4.24978 4.99729 0
M  V30 5458 H 517.75 5.94881 4.66532 0
M  V30 5459 H 519.018 5.33465 5.68362 0
M  V30 5460 N 523.247 -0.488276 1.49845 0
M  V30 5461 C 524.495 -1.23911 1.59657 0
M  V30 5462 C 524.816 -1.92816 0.291005 0
M  V30 5463 O 524.086 -1.83328 -0.690485 0
M  V30 5464 H 522.666 -0.460357 0.588286 0
M  V30 5465 H 525.328 -0.564794 1.86537 0
M  V30 5466 H 524.424 -1.99625 2.39909 0
M  V30 5467 N 524.725 -1.39134 -0.740242 0
M  V30 5468 C 525.973 -1.35803 -1.49673 0
M  V30 5469 C 526.294 0.0470897 -1.94943 0
M  V30 5470 O 525.564 0.997347 -1.68611 0
M  V30 5471 H 524.144 -0.499736 -0.555224 0
M  V30 5472 H 526.806 -1.73947 -0.879107 0
M  V30 5473 H 525.902 -2.0174 -2.38133 0
M  V30 5474 N 526.204 0.969867 -1.24223 0
M  V30 5475 C 527.432 1.74756 -1.10761 0
M  V30 5476 C 527.847 1.85713 0.340041 0
M  V30 5477 O 527.204 1.34389 1.23474 0
M  V30 5478 C 527.255 3.16915 -1.73917 0
M  V30 5479 O 526.976 3.06511 -3.13021 0
M  V30 5480 C 528.477 4.11032 -1.66036 0
M  V30 5481 H 525.697 0.548092 -0.387087 0
M  V30 5482 H 528.241 1.2178 -1.64286 0
M  V30 5483 H 526.396 3.66884 -1.244 0
M  V30 5484 H 526.81 3.96079 -3.43834 0
M  V30 5485 H 528.284 5.08446 -2.14911 0
M  V30 5486 H 528.761 4.34785 -0.621159 0
M  V30 5487 H 529.367 3.66972 -2.14969 0
M  V30 5488 N 527.682 1.05563 1.17022 0
M  V30 5489 C 528.93 0.76642 1.87004 0
M  V30 5490 C 529.251 -0.708854 1.8166 0
M  V30 5491 O 528.521 -1.51242 1.2451 0
M  V30 5492 H 527.101 0.280516 0.692329 0
M  V30 5493 H 529.763 1.33557 1.41945 0
M  V30 5494 H 528.859 1.08472 2.92644 0
M  V30 5495 N 529.16 -1.33526 0.837174 0
M  V30 5496 C 530.092 -2.28077 0.226579 0
M  V30 5497 C 531.105 -1.51666 -0.591717 0
M  V30 5498 O 532.294 -1.73511 -0.419064 0
M  V30 5499 C 529.394 -3.31597 -0.69978 0
M  V30 5500 C 528.567 -4.37329 0.0788067 0
M  V30 5501 C 527.626 -5.20526 -0.770637 0
M  V30 5502 O 526.652 -5.68811 -0.210453 0
M  V30 5503 N 527.854 -5.41639 -2.08825 0
M  V30 5504 H 530.619 -2.81115 1.03897 0
M  V30 5505 H 528.18 -1.46201 0.695476 0
M  V30 5506 H 530.172 -3.84158 -1.27298 0
M  V30 5507 H 528.742 -2.78848 -1.41288 0
M  V30 5508 H 527.962 -3.8529 0.833381 0
M  V30 5509 H 529.25 -5.05079 0.614238 0
M  V30 5510 H 528.648 -5.04108 -2.56693 0
M  V30 5511 H 527.205 -5.97263 -2.60998 0
M  V30 5512 N 530.638 -0.59345 -1.46 0
M  V30 5513 C 531.885 -0.0831523 -2.02329 0
M  V30 5514 C 532.213 1.28093 -1.46364 0
M  V30 5515 O 531.468 1.85526 -0.622793 0
M  V30 5516 C 531.767 0.021178 -3.57394 0
M  V30 5517 C 531.433 -1.27671 -4.32448 0
M  V30 5518 C 530.095 -1.63227 -4.5267 0
M  V30 5519 C 532.447 -2.13511 -4.7546 0
M  V30 5520 C 529.775 -2.84401 -5.1316 0
M  V30 5521 C 532.127 -3.33922 -5.37289 0
M  V30 5522 C 530.791 -3.69747 -5.55737 0
M  V30 5523 H 530.061 -0.0304276 -0.740375 0
M  V30 5524 H 532.708 -0.772239 -1.75239 0
M  V30 5525 H 531.013 0.793454 -3.83682 0
M  V30 5526 H 532.71 0.431942 -3.98667 0
M  V30 5527 H 529.3 -0.989937 -4.17011 0
M  V30 5528 H 533.484 -1.87344 -4.59582 0
M  V30 5529 H 528.74 -3.12282 -5.25633 0
M  V30 5530 H 532.914 -4.00698 -5.69574 0
M  V30 5531 H 530.541 -4.6373 -6.02377 0
M  V30 5532 N 532.116 1.54067 -0.331816 0
M  V30 5533 C 533.026 2.28322 0.539104 0
M  V30 5534 C 534.042 1.32985 1.1221 0
M  V30 5535 O 535.218 1.6601 1.1403 0
M  V30 5536 C 532.283 3.03277 1.68 0
M  V30 5537 C 531.344 4.14216 1.12798 0
M  V30 5538 C 530.577 4.85588 2.2145 0
M  V30 5539 O 530.8 4.56536 3.41952 0
M  V30 5540 O 529.734 5.72309 1.86404 0
M  V30 5541 H 533.56 3.03632 -0.0641692 0
M  V30 5542 H 531.145 1.49083 -0.0972365 0
M  V30 5543 H 533.027 3.50189 2.34405 0
M  V30 5544 H 531.702 2.30834 2.2693 0
M  V30 5545 H 530.609 3.71635 0.428782 0
M  V30 5546 H 531.942 4.88727 0.583698 0
M  V30 5547 N 533.594 0.0601682 1.57485 0
M  V30 5548 C 534.84 -0.612501 1.93329 0
M  V30 5549 C 535.173 -1.6996 0.939526 0
M  V30 5550 O 534.448 -1.94472 -0.0330957 0
M  V30 5551 C 534.731 -1.20025 3.39508 0
M  V30 5552 C 534.584 -0.12059 4.49638 0
M  V30 5553 C 535.903 -2.10923 3.86264 0
M  V30 5554 H 533.022 -0.221185 0.703027 0
M  V30 5555 H 535.664 0.123768 1.89596 0
M  V30 5556 H 533.814 -1.82774 3.42821 0
M  V30 5557 H 535.486 0.51185 4.58452 0
M  V30 5558 H 533.729 0.550251 4.30296 0
M  V30 5559 H 534.4 -0.572019 5.49028 0
M  V30 5560 H 536.876 -1.58124 3.84884 0
M  V30 5561 H 535.752 -2.48987 4.8918 0
M  V30 5562 H 536.013 -3.01292 3.23536 0
M  V30 5563 N 535.072 -1.5615 -0.213296 0
M  V30 5564 C 536.002 -1.96109 -1.26742 0
M  V30 5565 C 536.983 -0.830448 -1.48451 0
M  V30 5566 O 538.168 -1.09339 -1.60495 0
M  V30 5567 C 535.298 -2.28492 -2.61551 0
M  V30 5568 C 534.252 -3.44124 -2.54485 0
M  V30 5569 C 533.578 -3.62134 -3.93399 0
M  V30 5570 C 534.878 -4.78855 -2.08556 0
M  V30 5571 H 536.572 -2.84412 -0.935434 0
M  V30 5572 H 534.118 -1.36836 -0.44854 0
M  V30 5573 H 536.071 -2.55039 -3.3546 0
M  V30 5574 H 534.795 -1.37052 -2.96453 0
M  V30 5575 H 533.454 -3.17639 -1.83033 0
M  V30 5576 H 533.102 -2.68055 -4.25623 0
M  V30 5577 H 532.802 -4.39913 -3.89551 0
M  V30 5578 H 534.326 -3.91038 -4.68958 0
M  V30 5579 H 535.74 -5.04552 -2.72213 0
M  V30 5580 H 534.137 -5.59975 -2.1575 0
M  V30 5581 H 535.207 -4.73657 -1.03811 0
M  V30 5582 N 536.55 0.480323 -1.50102 0
M  V30 5583 C 537.78 1.25475 -1.64133 0
M  V30 5584 C 538.188 1.8647 -0.320272 0
M  V30 5585 O 537.531 1.69561 0.70673 0
M  V30 5586 C 537.593 2.40996 -2.6676 0
M  V30 5587 C 537.257 2.00711 -4.10565 0
M  V30 5588 C 538.254 1.53492 -4.96725 0
M  V30 5589 C 535.939 2.09714 -4.56427 0
M  V30 5590 C 537.933 1.15806 -6.26792 0
M  V30 5591 C 535.62 1.7164 -5.86501 0
M  V30 5592 C 536.618 1.24763 -6.71508 0
M  V30 5593 O 536.306 0.872122 -7.99155 0
M  V30 5594 H 536.038 0.385983 -0.554971 0
M  V30 5595 H 538.592 0.580848 -1.97016 0
M  V30 5596 H 536.822 3.11528 -2.291 0
M  V30 5597 H 538.511 3.02981 -2.70106 0
M  V30 5598 H 539.277 1.45966 -4.62514 0
M  V30 5599 H 535.156 2.4515 -3.90413 0
M  V30 5600 H 538.7 0.791465 -6.93096 0
M  V30 5601 H 534.597 1.78822 -6.20236 0
M  V30 5602 H 535.365 1.00178 -8.12346 0
M  V30 5603 N 538.028 1.39524 0.732853 0
M  V30 5604 C 538.991 1.38189 1.82857 0
M  V30 5605 C 539.991 0.278624 1.58368 0
M  V30 5606 O 541.181 0.536639 1.65728 0
M  V30 5607 C 538.313 1.15661 3.2068 0
M  V30 5608 H 539.506 2.35692 1.85444 0
M  V30 5609 H 537.059 1.2512 0.936728 0
M  V30 5610 H 537.794 0.188482 3.23752 0
M  V30 5611 H 537.579 1.95559 3.39852 0
M  V30 5612 H 539.069 1.17472 4.00737 0
M  V30 5613 N 539.506 -0.963266 1.24736 0
M  V30 5614 C 540.438 -2.06162 1.0015 0
M  V30 5615 C 541.451 -1.62771 -0.0305905 0
M  V30 5616 O 542.64 -1.77296 0.206966 0
M  V30 5617 C 539.74 -3.35333 0.490385 0
M  V30 5618 C 538.913 -4.07609 1.58663 0
M  V30 5619 C 537.972 -5.15052 1.0774 0
M  V30 5620 O 536.998 -5.4098 1.77002 0
M  V30 5621 N 538.2 -5.80436 -0.0858605 0
M  V30 5622 H 540.965 -2.27825 1.94719 0
M  V30 5623 H 538.526 -1.13121 1.15825 0
M  V30 5624 H 540.518 -4.04477 0.134371 0
M  V30 5625 H 539.088 -3.10507 -0.361155 0
M  V30 5626 H 538.308 -3.32681 2.11463 0
M  V30 5627 H 539.596 -4.52656 2.32336 0
M  V30 5628 H 538.994 -5.6178 -0.664806 0
M  V30 5629 H 537.551 -6.50674 -0.382981 0
M  V30 5630 O 541.023 -1.1863 -1.09586 0
M  V30 5631 H 541.714 -0.930355 -1.69894 0
M  V30 END ATOM
M  V30 BEGIN BOND
M  V30 END BOND
M  V30 END CTAB
M  END
$$$$
