drugbank_target|P11922 Invasin (DB04272)
 OpenBabel12092120293D

  0  0  0     0  0            999 V3000
M  V30 BEGIN CTAB
M  V30 COUNTS 14838 14993 0 0 0
M  V30 BEGIN ATOM
M  V30 1 H -0.908 1.98254 -0.117106 0
M  V30 2 N 0 1.576 0 0
M  V30 3 C 0.933 2.03868 1.02534 0
M  V30 4 C 1.911 0.928543 1.3348 0
M  V30 5 O 3.095 1.19667 1.45644 0
M  V30 6 C 0.222 2.43627 2.35294 0
M  V30 7 C -0.732 3.65373 2.2001 0
M  V30 8 S 0.101 5.13292 1.52614 0
M  V30 9 C 1.257 5.56322 2.86805 0
M  V30 10 H 1.49 2.90518 0.631377 0
M  V30 11 H -0.977 1.52953 0.210867 0
M  V30 12 H 0.981 2.67203 3.11629 0
M  V30 13 H -0.358 1.57376 2.7183 0
M  V30 14 H -1.165 3.90944 3.18086 0
M  V30 15 H -1.563 3.418 1.51819 0
M  V30 16 H 0.729 5.58782 3.83104 0
M  V30 17 H 1.672 6.56266 2.65933 0
M  V30 18 H 2.08 4.83886 2.90714 0
M  V30 19 N 1.4781 -0.272755 1.55222 0
M  V30 20 C 2.7241 -1.00581 1.761 0
M  V30 21 C 3.0571 -1.85932 0.560625 0
M  V30 22 O 2.3321 -1.89416 -0.441801 0
M  V30 23 C 2.6151 -1.88816 3.06628 0
M  V30 24 C 2.4681 -1.06457 4.37021 0
M  V30 25 C 3.7871 -2.8752 3.33197 0
M  V30 26 H 0.9061 -0.364244 0.640699 0
M  V30 27 H 3.5481 -0.278189 1.87952 0
M  V30 28 H 1.6981 -2.50856 2.96654 0
M  V30 29 H 3.3701 -0.464863 4.58952 0
M  V30 30 H 1.6131 -0.368043 4.32236 0
M  V30 31 H 2.2841 -1.71514 5.24678 0
M  V30 32 H 4.7601 -2.35615 3.42965 0
M  V30 33 H 3.6361 -3.46399 4.25792 0
M  V30 34 H 3.8971 -3.62657 2.52849 0
M  V30 35 N 2.9562 -1.48159 -0.537278 0
M  V30 36 C 4.2032 -1.55804 -1.29349 0
M  V30 37 C 4.5312 -0.228802 -1.9315 0
M  V30 38 O 3.7862 0.780242 -1.79473 0
M  V30 39 C 4.0852 -2.63956 -2.40961 0
M  V30 40 C 3.7512 -4.0662 -1.94861 0
M  V30 41 C 2.4132 -4.45452 -1.82006 0
M  V30 42 C 4.7652 -4.96055 -1.59933 0
M  V30 43 C 2.0932 -5.71531 -1.32547 0
M  V30 44 C 4.4452 -6.22617 -1.11939 0
M  V30 45 C 3.1092 -6.60312 -0.976951 0
M  V30 46 H 2.3792 -0.570129 -0.473322 0
M  V30 47 H 5.0262 -1.81845 -0.600372 0
M  V30 48 H 3.3312 -2.31747 -3.15912 0
M  V30 49 H 5.0282 -2.67089 -2.99107 0
M  V30 50 H 1.6182 -3.75949 -2.05815 0
M  V30 51 H 5.8022 -4.66738 -1.68728 0
M  V30 52 H 1.0582 -5.99468 -1.202 0
M  V30 53 H 5.2322 -6.91318 -0.839811 0
M  V30 54 H 2.8592 -7.57895 -0.591501 0
M  V30 55 N 4.4343 0.785586 -1.36625 0
M  V30 56 C 5.3663 1.90711 -1.2713 0
M  V30 57 C 6.3793 1.61688 -0.189986 0
M  V30 58 O 7.5683 1.72864 -0.445014 0
M  V30 59 C 4.6683 3.25611 -0.939713 0
M  V30 60 C 3.8413 3.82385 -2.12369 0
M  V30 61 C 2.9003 4.95732 -1.76456 0
M  V30 62 O 1.9263 5.12047 -2.48589 0
M  V30 63 N 3.1283 5.76258 -0.700492 0
M  V30 64 H 5.8933 1.99376 -2.23762 0
M  V30 65 H 3.4543 0.964041 -1.30069 0
M  V30 66 H 5.4463 3.98937 -0.680554 0
M  V30 67 H 4.0163 3.12538 -0.0624074 0
M  V30 68 H 3.2363 3.01001 -2.54543 0
M  V30 69 H 4.5243 4.17047 -2.9146 0
M  V30 70 H 3.9223 5.65609 -0.101624 0
M  V30 71 H 2.4793 6.4987 -0.501165 0
M  V30 72 N 5.9124 1.20967 1.01018 0
M  V30 73 C 7.3234 1.02319 1.56165 0
M  V30 74 C 7.6744 -0.418546 1.91684 0
M  V30 75 O 6.7994 -1.30096 1.72928 0
M  V30 76 C 7.3944 1.85109 2.8376 0
M  V30 77 C 5.9534 1.70809 3.35412 0
M  V30 78 C 5.1004 1.82643 2.08655 0
M  V30 79 H 8.0514 1.35065 0.833255 0
M  V30 80 H 8.0724 1.35827 3.55431 0
M  V30 81 H 7.5844 2.90035 2.57878 0
M  V30 82 H 5.6854 0.685464 3.66241 0
M  V30 83 H 5.7984 2.52467 4.07182 0
M  V30 84 H 4.1624 1.25896 2.21409 0
M  V30 85 H 4.9454 2.89066 1.85191 0
M  V30 86 N 7.3905 -1.2043 1.01659 0
M  V30 87 C 8.6395 -1.89118 0.701237 0
M  V30 88 C 8.9525 -1.79705 -0.772358 0
M  V30 89 O 10.1585 -2.43528 -1.20026 0
M  V30 90 C 8.6145 -3.39168 1.20388 0
M  V30 91 C 8.2225 -3.57166 2.70438 0
M  V30 92 C 9.9665 -4.1341 0.963953 0
M  V30 93 C 7.8735 -5.01042 3.14183 0
M  V30 94 H 6.8035 -0.708267 0.2586 0
M  V30 95 H 9.4545 -1.36239 1.22927 0
M  V30 96 H 7.8365 -3.91369 0.603824 0
M  V30 97 H 9.0105 -3.15351 3.35992 0
M  V30 98 H 7.3255 -2.96294 2.92572 0
M  V30 99 H 9.9225 -5.19491 1.26621 0
M  V30 100 H 10.2655 -4.16181 -0.099578 0
M  V30 101 H 10.7985 -3.67309 1.52738 0
M  V30 102 H 7.5375 -5.03426 4.19812 0
M  V30 103 H 7.0575 -5.43668 2.53348 0
M  V30 104 H 8.7365 -5.69623 3.0682 0
M  V30 105 N 8.8686 -0.792821 -1.36206 0
M  V30 106 C 10.0936 -0.377701 -2.03932 0
M  V30 107 C 10.5186 0.998947 -1.59382 0
M  V30 108 O 9.8766 1.64421 -0.763903 0
M  V30 109 C 9.9246 -0.453635 -3.57735 0
M  V30 110 O 9.0286 0.538151 -4.08874 0
M  V30 111 H 8.3696 -0.159855 -0.644471 0
M  V30 112 H 10.8996 -1.07488 -1.7409 0
M  V30 113 H 10.9096 -0.318464 -4.06755 0
M  V30 114 H 9.5846 -1.45784 -3.89512 0
M  V30 115 H 8.1616 0.364359 -3.71116 0
M  V30 116 N 10.3467 1.47872 -0.545128 0
M  V30 117 C 11.2567 2.33633 0.212746 0
M  V30 118 C 12.2727 1.4744 0.923983 0
M  V30 119 O 13.4487 1.80393 0.895572 0
M  V30 120 C 10.5137 3.23884 1.23693 0
M  V30 121 C 9.5747 4.25961 0.534417 0
M  V30 122 C 8.8077 5.11899 1.5098 0
M  V30 123 O 9.0307 5.00077 2.7437 0
M  V30 124 O 7.9647 5.92831 1.0409 0
M  V30 125 H 11.7907 2.99714 -0.490416 0
M  V30 126 H 9.3757 1.46235 -0.305871 0
M  V30 127 H 11.2577 3.79666 1.82843 0
M  V30 128 H 9.9327 2.60446 1.92222 0
M  V30 129 H 8.8397 3.73972 -0.0979679 0
M  V30 130 H 10.1727 4.92079 -0.109213 0
M  V30 131 N 11.8248 0.280983 1.55075 0
M  V30 132 C 13.0718 -0.334115 1.99725 0
M  V30 133 C 13.3998 -1.5542 1.1694 0
M  V30 134 O 12.6548 -1.94361 0.228531 0
M  V30 135 C 12.9538 -0.754656 3.49342 0
M  V30 136 C 12.6198 0.361445 4.49449 0
M  V30 137 C 11.2818 0.667893 4.76542 0
M  V30 138 C 13.6338 1.11322 5.09173 0
M  V30 139 C 10.9618 1.7296 5.60626 0
M  V30 140 C 13.3138 2.1647 5.9441 0
M  V30 141 C 11.9778 2.47742 6.19822 0
M  V30 142 H 11.2478 -0.122261 0.730844 0
M  V30 143 H 13.8948 0.395917 1.87363 0
M  V30 144 H 12.1998 -1.56446 3.5921 0
M  V30 145 H 13.8968 -1.24142 3.813 0
M  V30 146 H 10.4868 0.112481 4.28452 0
M  V30 147 H 14.6708 0.88973 4.8826 0
M  V30 148 H 9.9268 1.97684 5.78559 0
M  V30 149 H 14.1008 2.75193 6.3972 0
M  V30 150 H 11.7278 3.30145 6.84769 0
M  V30 151 N 13.3029 -1.57598 0.00835791 0
M  V30 152 C 14.2329 -2.1198 -0.979113 0
M  V30 153 C 15.2139 -1.03091 -1.35301 0
M  V30 154 O 16.3989 -1.30818 -1.43528 0
M  V30 155 C 13.5289 -2.62995 -2.26828 0
M  V30 156 C 12.4829 -3.76485 -2.03576 0
M  V30 157 C 11.8089 -4.13846 -3.38579 0
M  V30 158 C 13.1089 -5.0342 -1.39161 0
M  V30 159 H 14.8029 -2.94738 -0.526281 0
M  V30 160 H 12.3489 -1.41783 -0.251704 0
M  V30 161 H 14.3019 -2.99669 -2.96271 0
M  V30 162 H 13.0259 -1.7737 -2.7424 0
M  V30 163 H 11.6849 -3.40217 -1.36557 0
M  V30 164 H 11.3329 -3.25232 -3.83709 0
M  V30 165 H 11.0329 -4.90312 -3.23834 0
M  V30 166 H 12.5569 -4.53086 -4.09323 0
M  V30 167 H 13.9709 -5.37812 -1.98573 0
M  V30 168 H 12.3679 -5.84746 -1.34878 0
M  V30 169 H 13.4379 -4.83548 -0.361868 0
M  V30 170 N 14.781 0.264519 -1.55364 0
M  V30 171 C 15.711 1.33121 -1.91836 0
M  V30 172 C 16.692 1.51101 -0.781192 0
M  V30 173 O 17.877 1.64003 -1.04003 0
M  V30 174 C 15.007 2.68921 -2.19769 0
M  V30 175 C 13.961 2.65661 -3.35571 0
M  V30 176 C 13.287 4.05093 -3.49004 0
M  V30 177 C 14.587 2.24187 -4.71739 0
M  V30 178 H 16.281 1.02844 -2.81182 0
M  V30 179 H 13.827 0.493286 -1.35287 0
M  V30 180 H 15.78 3.43663 -2.43872 0
M  V30 181 H 14.504 3.00799 -1.27231 0
M  V30 182 H 13.163 1.93377 -3.1145 0
M  V30 183 H 12.811 4.34206 -2.53917 0
M  V30 184 H 12.511 4.03804 -4.26868 0
M  V30 185 H 14.035 4.81561 -3.75408 0
M  V30 186 H 15.449 2.88654 -4.9533 0
M  V30 187 H 13.846 2.34044 -5.52579 0
M  V30 188 H 14.916 1.19327 -4.69988 0
M  V30 189 N 16.2591 1.48442 0.529413 0
M  V30 190 C 17.5081 1.55742 1.28169 0
M  V30 191 C 17.8211 0.236511 1.94165 0
M  V30 192 O 19.0271 0.187761 2.7085 0
M  V30 193 C 17.4831 2.74667 2.32564 0
M  V30 194 C 17.0911 4.13402 1.72636 0
M  V30 195 C 18.8351 2.9128 3.08798 0
M  V30 196 C 16.7421 5.23587 2.74975 0
M  V30 197 H 15.6721 0.579796 0.48203 0
M  V30 198 H 18.3231 1.74776 0.559056 0
M  V30 199 H 16.7051 2.49067 3.07866 0
M  V30 200 H 17.8791 4.49022 1.03519 0
M  V30 201 H 16.1941 4.0191 1.08892 0
M  V30 202 H 18.7911 3.70767 3.85274 0
M  V30 203 H 19.1341 2.00757 3.64695 0
M  V30 204 H 19.6671 3.16782 2.40611 0
M  V30 205 H 16.4061 6.16076 2.23897 0
M  V30 206 H 15.9261 4.92454 3.42417 0
M  V30 207 H 17.6051 5.51724 3.37949 0
M  V30 208 N 17.7372 -0.778329 1.37039 0
M  V30 209 C 19.1532 -1.07796 1.17695 0
M  V30 210 C 19.3532 -2.01498 0.00860115 0
M  V30 211 O 18.4092 -2.43901 -0.653352 0
M  V30 212 C 19.7222 -1.68178 2.49272 0
M  V30 213 C 21.2702 -1.80467 2.55735 0
M  V30 214 C 21.7452 -2.44263 3.87427 0
M  V30 215 N 23.2362 -2.51721 3.88833 0
M  V30 216 C 23.9712 -3.01919 4.87476 0
M  V30 217 N 23.4672 -3.5234 5.96513 0
M  V30 218 N 25.2602 -3.00733 4.74885 0
M  V30 219 H 17.4112 -0.156032 2.11826 0
M  V30 220 H 19.6742 -0.131844 0.938787 0
M  V30 221 H 19.3802 -1.06796 3.35093 0
M  V30 222 H 19.2542 -2.67554 2.65885 0
M  V30 223 H 21.6412 -2.40984 1.70325 0
M  V30 224 H 21.7222 -0.798656 2.43013 0
M  V30 225 H 21.3662 -1.84388 4.73248 0
M  V30 226 H 21.2962 -3.45458 3.9745 0
M  V30 227 H 23.7872 -2.1603 3.10063 0
M  V30 228 H 24.1002 -3.89027 6.67741 0
M  V30 229 H 22.4452 -3.50462 6.00168 0
M  V30 230 H 25.6362 -2.60638 3.88826 0
M  V30 231 H 25.8092 -3.39545 5.51918 0
M  V30 232 N 19.2153 -1.21501 -1.00376 0
M  V30 233 C 20.1633 -0.972442 -2.11297 0
M  V30 234 C 21.1573 0.080731 -1.69208 0
M  V30 235 O 22.3633 -0.0707666 -1.79861 0
M  V30 236 H 18.7383 -0.297218 -0.690772 0
M  V30 237 H 20.7093 -1.91394 -2.28934 0
M  V30 238 C 19.4583 -0.555065 -3.43241 0
M  V30 239 H 18.7813 -1.35709 -3.76062 0
M  V30 240 H 20.2213 -0.424664 -4.21868 0
M  V30 241 C 18.6803 0.734147 -3.28804 0
M  V30 242 O 19.2103 1.78937 -3.59645 0
M  V30 243 N 17.4163 0.701133 -2.82015 0
M  V30 244 H 16.9633 -0.157874 -2.57116 0
M  V30 245 H 16.9213 1.56403 -2.72737 0
M  V30 246 N 20.6934 1.19889 -1.02296 0
M  V30 247 C 21.6564 2.21116 -0.603351 0
M  V30 248 C 22.6564 1.5738 0.329884 0
M  V30 249 O 23.8464 1.73802 0.117702 0
M  V30 250 C 20.9784 3.40696 0.117992 0
M  V30 251 H 22.1714 2.59754 -1.49893 0
M  V30 252 H 19.7244 1.33463 -0.813468 0
M  V30 253 H 20.4594 3.07569 1.0282 0
M  V30 254 H 20.2444 3.88188 -0.552511 0
M  V30 255 H 21.7344 4.15692 0.398696 0
M  V30 256 N 22.1715 0.800033 1.35784 0
M  V30 257 C 23.4195 0.376597 1.9856 0
M  V30 258 C 23.7405 -1.05812 1.63795 0
M  V30 259 O 23.0105 -1.73103 0.917171 0
M  V30 260 H 21.5905 0.136261 0.734467 0
M  V30 261 H 24.2525 1.02442 1.65806 0
M  V30 262 H 23.3485 0.477002 3.08433 0
M  V30 263 N 23.6496 -1.47581 0.552962 0
M  V30 264 C 24.5826 -2.26883 -0.244857 0
M  V30 265 C 25.5606 -1.33784 -0.924147 0
M  V30 266 O 26.7446 -1.6316 -0.943981 0
M  V30 267 C 23.8716 -3.10695 -1.34856 0
M  V30 268 C 22.9176 -4.19339 -0.778268 0
M  V30 269 S 23.7506 -5.34207 0.37184 0
M  V30 270 C 24.9066 -6.21584 -0.733779 0
M  V30 271 H 25.1396 -2.94202 0.428087 0
M  V30 272 H 22.6726 -1.50628 0.339197 0
M  V30 273 H 24.6306 -3.59555 -1.98066 0
M  V30 274 H 23.2916 -2.42746 -1.99332 0
M  V30 275 H 22.4846 -4.77695 -1.60696 0
M  V30 276 H 22.0866 -3.73338 -0.222422 0
M  V30 277 H 24.3786 -6.57676 -1.62692 0
M  V30 278 H 25.3216 -7.07851 -0.187668 0
M  V30 279 H 25.7296 -5.55125 -1.02454 0
M  V30 280 N 25.1277 -0.289203 -1.54924 0
M  V30 281 C 26.3527 0.329299 -2.04769 0
M  V30 282 C 26.7777 1.4763 -1.16564 0
M  V30 283 O 26.1357 1.80527 -0.167186 0
M  V30 284 C 26.1837 0.774438 -3.52186 0
M  V30 285 O 25.2877 1.88038 -3.67036 0
M  V30 286 H 24.6287 0.0659259 -0.660719 0
M  V30 287 H 27.1587 -0.42761 -2.00082 0
M  V30 288 H 27.1687 1.06642 -3.93816 0
M  V30 289 H 25.8437 -0.0646707 -4.1585 0
M  V30 290 H 24.4207 1.58985 -3.3731 0
M  V30 291 N 26.6058 1.57591 -0.0167156 0
M  V30 292 C 27.5388 2.04944 1.00366 0
M  V30 293 C 28.5168 0.942648 1.32487 0
M  V30 294 O 29.7008 1.21205 1.44367 0
M  V30 295 C 26.8278 2.46109 2.32697 0
M  V30 296 C 25.8738 3.67686 2.16123 0
M  V30 297 S 26.7068 5.14882 1.47161 0
M  V30 298 C 27.8628 5.59332 2.80888 0
M  V30 299 H 28.0958 2.91172 0.600528 0
M  V30 300 H 25.6288 1.53168 0.194632 0
M  V30 301 H 27.5868 2.70493 3.08778 0
M  V30 302 H 26.2478 1.6025 2.70146 0
M  V30 303 H 25.4408 3.94296 3.13922 0
M  V30 304 H 25.0428 3.43391 1.48185 0
M  V30 305 H 27.3348 5.62814 3.77156 0
M  V30 306 H 28.2778 6.5905 2.58958 0
M  V30 307 H 28.6858 4.86942 2.85565 0
M  V30 308 N 28.0839 -0.256276 1.55502 0
M  V30 309 C 29.3139 -1.00196 1.80677 0
M  V30 310 C 29.7219 -1.79805 0.588797 0
M  V30 311 O 29.0649 -1.78055 -0.451883 0
M  V30 312 C 29.1269 -1.99515 2.99055 0
M  V30 313 C 28.7909 -1.38688 4.35448 0
M  V30 314 C 29.7879 -0.794079 5.138 0
M  V30 315 C 27.4729 -1.40906 4.82132 0
M  V30 316 C 29.4669 -0.231562 6.36979 0
M  V30 317 C 27.1539 -0.842684 6.05262 0
M  V30 318 C 28.1519 -0.254953 6.82524 0
M  V30 319 O 27.8399 0.3027 8.0333 0
M  V30 320 H 27.5719 -0.300919 0.60533 0
M  V30 321 H 30.1259 -0.287307 2.03381 0
M  V30 322 H 28.3559 -2.74785 2.72084 0
M  V30 323 H 30.0449 -2.60349 3.11405 0
M  V30 324 H 30.8109 -0.769519 4.78856 0
M  V30 325 H 26.6899 -1.85591 4.21992 0
M  V30 326 H 30.2339 0.227816 6.97228 0
M  V30 327 H 26.1309 -0.86454 6.39684 0
M  V30 328 H 26.8989 0.193662 8.18271 0
M  V30 329 N 29.562 -1.4872 -0.521534 0
M  V30 330 C 30.809 -1.57168 -1.27689 0
M  V30 331 C 31.137 -0.249275 -1.92896 0
M  V30 332 O 30.392 0.761162 -1.80291 0
M  V30 333 C 30.691 -2.66497 -2.38148 0
M  V30 334 C 30.357 -4.08664 -1.90538 0
M  V30 335 C 29.019 -4.47357 -1.77271 0
M  V30 336 C 31.371 -4.97724 -1.54663 0
M  V30 337 C 28.699 -5.72905 -1.26478 0
M  V30 338 C 31.051 -6.2377 -1.05329 0
M  V30 339 C 29.715 -6.61311 -0.906861 0
M  V30 340 H 28.985 -0.575117 -0.467249 0
M  V30 341 H 31.632 -1.82472 -0.581051 0
M  V30 342 H 29.937 -2.35085 -3.13437 0
M  V30 343 H 31.634 -2.70246 -2.96257 0
M  V30 344 H 28.224 -3.78111 -2.01816 0
M  V30 345 H 32.408 -4.68501 -1.63768 0
M  V30 346 H 27.664 -6.00709 -1.13835 0
M  V30 347 H 31.838 -6.9217 -0.76644 0
M  V30 348 H 29.465 -7.5848 -0.511083 0
M  V30 349 N 31.0401 0.771051 -1.3745 0
M  V30 350 C 31.9881 1.90574 -1.33358 0
M  V30 351 C 32.9821 1.67936 -0.22224 0
M  V30 352 O 34.1881 1.75717 -0.390304 0
M  V30 353 H 30.5631 0.626714 -0.415612 0
M  V30 354 H 32.5341 1.91142 -2.29144 0
M  V30 355 C 31.2831 3.27845 -1.15813 0
M  V30 356 H 30.6061 3.45842 -2.00583 0
M  V30 357 H 32.0461 4.07538 -1.17 0
M  V30 358 C 30.5051 3.36625 0.136165 0
M  V30 359 O 31.0351 3.85785 1.11949 0
M  V30 360 N 29.2411 2.89997 0.187099 0
M  V30 361 H 28.7881 2.50182 -0.613753 0
M  V30 362 H 28.7461 2.96252 1.05272 0
M  V30 363 N 32.5182 1.22032 0.997298 0
M  V30 364 C 33.4652 0.986467 2.08656 0
M  V30 365 C 34.4352 -0.0902671 1.65855 0
M  V30 366 O 35.6202 0.0584294 1.90711 0
M  V30 367 C 32.7602 0.565569 3.40434 0
M  V30 368 C 31.8732 1.71259 3.96604 0
M  V30 369 C 31.0082 1.24011 5.16522 0
M  V30 370 C 30.0472 2.35896 5.64818 0
M  V30 371 N 29.1842 1.89726 6.7598 0
M  V30 372 H 34.0242 1.91892 2.27994 0
M  V30 373 H 31.5612 0.956199 1.11782 0
M  V30 374 H 33.5192 0.302738 4.161 0
M  V30 375 H 32.1492 -0.329879 3.2111 0
M  V30 376 H 31.2012 2.08986 3.17851 0
M  V30 377 H 32.5132 2.55436 4.28432 0
M  V30 378 H 31.6672 0.934395 5.99461 0
M  V30 379 H 30.4062 0.368487 4.86306 0
M  V30 380 H 29.4112 2.67261 4.8047 0
M  V30 381 H 30.6362 3.23567 5.97061 0
M  V30 382 H 28.5822 1.0492 6.47555 0
M  V30 383 H 28.4992 2.67471 7.07103 0
M  V30 384 H 29.7672 1.62211 7.62435 0
M  V30 385 N 33.9963 -1.19345 1.0293 0
M  V30 386 C 35.2453 -1.88363 0.721256 0
M  V30 387 C 35.5583 -1.80514 -0.753254 0
M  V30 388 O 36.7643 -2.44788 -1.17436 0
M  V30 389 C 35.2203 -3.37872 1.23978 0
M  V30 390 C 34.8283 -3.54278 2.74211 0
M  V30 391 C 36.5723 -4.12365 1.00775 0
M  V30 392 C 34.4793 -4.97682 3.19479 0
M  V30 393 H 33.4093 -0.705484 0.266098 0
M  V30 394 H 36.0603 -1.34928 1.24365 0
M  V30 395 H 34.4423 -3.90707 0.6453 0
M  V30 396 H 35.6163 -3.11769 3.39318 0
M  V30 397 H 33.9313 -2.93174 2.95699 0
M  V30 398 H 36.5283 -5.18119 1.32123 0
M  V30 399 H 36.8713 -4.16263 -0.0554308 0
M  V30 400 H 37.4043 -3.65668 1.56625 0
M  V30 401 H 34.1433 -4.98945 4.25128 0
M  V30 402 H 33.6633 -5.4095 2.591 0
M  V30 403 H 35.3423 -5.66337 3.12845 0
M  V30 404 N 35.4744 -0.807222 -1.35358 0
M  V30 405 C 36.7234 -0.384376 -1.98004 0
M  V30 406 C 37.0364 1.0543 -1.64754 0
M  V30 407 O 38.2424 1.58029 -2.20769 0
M  V30 408 C 36.6984 -0.636326 -3.5423 0
M  V30 409 C 36.3064 -2.08759 -3.96388 0
M  V30 410 C 38.0504 -0.278869 -4.23583 0
M  V30 411 C 35.9574 -2.28525 -5.45463 0
M  V30 412 H 34.8874 -0.139986 -0.740891 0
M  V30 413 H 37.5384 -0.991369 -1.54415 0
M  V30 414 H 35.9204 0.0406256 -3.95979 0
M  V30 415 H 37.0944 -2.8024 -3.6579 0
M  V30 416 H 35.4094 -2.40497 -3.39926 0
M  V30 417 H 38.0064 -0.404599 -5.33167 0
M  V30 418 H 38.3494 0.775012 -4.09022 0
M  V30 419 H 38.8824 -0.909764 -3.87257 0
M  V30 420 H 35.6214 -3.32361 -5.64992 0
M  V30 421 H 35.1414 -1.61569 -5.77629 0
M  V30 422 H 36.8204 -2.10109 -6.11934 0
M  V30 423 N 36.9525 1.47285 -0.560781 0
M  V30 424 C 38.1775 2.07359 -0.0410566 0
M  V30 425 C 38.6025 1.41017 1.24483 0
M  V30 426 O 37.9605 0.486368 1.74654 0
M  V30 427 C 38.0085 3.6035 0.134123 0
M  V30 428 O 37.1125 3.94681 1.19587 0
M  V30 429 H 36.4535 0.661887 -0.0529291 0
M  V30 430 H 38.9835 1.89252 -0.777482 0
M  V30 431 H 38.9935 4.0652 0.347207 0
M  V30 432 H 37.6685 4.08034 -0.805047 0
M  V30 433 H 36.2455 3.60251 0.962987 0
M  V30 434 N 38.4306 0.297415 1.54768 0
M  V30 435 C 39.6776 -0.312913 2.00068 0
M  V30 436 C 40.0056 -1.54171 1.18582 0
M  V30 437 O 39.2606 -1.94108 0.249133 0
M  V30 438 C 39.5596 -0.717561 3.50123 0
M  V30 439 C 39.2256 0.409095 4.4904 0
M  V30 440 C 37.8876 0.718399 4.75807 0
M  V30 441 C 40.2396 1.16717 5.07963 0
M  V30 442 C 37.5676 1.78896 5.5876 0
M  V30 443 C 39.9196 2.22762 5.92081 0
M  V30 444 C 38.5836 2.54303 6.1716 0
M  V30 445 H 37.8536 -0.114503 0.7321 0
M  V30 446 H 40.5006 0.415767 1.86932 0
M  V30 447 H 38.8056 -1.52627 3.60849 0
M  V30 448 H 40.5026 -1.20091 3.82595 0
M  V30 449 H 37.0926 0.157918 4.28309 0
M  V30 450 H 41.2766 0.941466 4.87289 0
M  V30 451 H 36.5326 2.0381 5.7643 0
M  V30 452 H 40.7066 2.81962 6.36765 0
M  V30 453 H 38.3336 3.3739 6.81229 0
M  V30 454 N 39.9087 -1.5758 0.0250728 0
M  V30 455 C 40.8567 -2.11125 -0.97617 0
M  V30 456 C 41.8507 -1.03689 -1.33959 0
M  V30 457 O 43.0567 -1.22128 -1.3223 0
M  V30 458 H 39.4317 -0.674468 -0.332561 0
M  V30 459 H 41.4027 -2.94194 -0.499223 0
M  V30 460 C 40.1517 -2.65017 -2.2508 0
M  V30 461 H 39.4747 -3.47333 -1.9799 0
M  V30 462 H 40.9147 -3.06133 -2.93357 0
M  V30 463 C 39.3737 -1.57574 -2.97779 0
M  V30 464 O 39.9037 -0.973203 -3.89733 0
M  V30 465 N 38.1097 -1.29716 -2.60043 0
M  V30 466 H 37.6567 -1.789 -1.85345 0
M  V30 467 H 37.6147 -0.58051 -3.08994 0
M  V30 468 N 41.3868 0.248026 -1.55636 0
M  V30 469 C 42.6358 0.974134 -1.76617 0
M  V30 470 C 42.9488 1.86528 -0.588796 0
M  V30 471 O 44.1548 2.62805 -0.681594 0
M  V30 472 C 42.6108 1.78213 -3.12679 0
M  V30 473 C 42.2188 0.93843 -4.38061 0
M  V30 474 C 43.9628 2.50104 -3.42999 0
M  V30 475 C 41.8698 1.74225 -5.65155 0
M  V30 476 H 40.7998 0.36745 -0.658405 0
M  V30 477 H 43.4508 0.22884 -1.82067 0
M  V30 478 H 41.8328 2.56933 -3.01333 0
M  V30 479 H 43.0068 0.193635 -4.60393 0
M  V30 480 H 41.3218 0.332905 -4.15067 0
M  V30 481 H 43.9188 3.10694 -4.3517 0
M  V30 482 H 44.2618 3.21662 -2.64271 0
M  V30 483 H 44.7948 1.78395 -3.55556 0
M  V30 484 H 41.5338 1.07043 -6.46701 0
M  V30 485 H 41.0538 2.46235 -5.46926 0
M  V30 486 H 42.7328 2.30967 -6.0437 0
M  V30 487 N 42.8649 1.48995 0.513639 0
M  V30 488 C 44.1139 1.57093 1.2651 0
M  V30 489 C 44.4269 0.257091 1.93903 0
M  V30 490 O 45.6329 0.216478 2.70636 0
M  V30 491 C 44.0889 2.77118 2.29638 0
M  V30 492 C 43.6969 4.15209 1.68241 0
M  V30 493 C 45.4409 2.94538 3.05692 0
M  V30 494 C 43.3479 5.26474 2.69406 0
M  V30 495 H 42.2779 0.584876 0.475854 0
M  V30 496 H 44.9289 1.7536 0.540487 0
M  V30 497 H 43.3109 2.52319 3.05207 0
M  V30 498 H 44.4849 4.50094 0.987505 0
M  V30 499 H 42.7999 4.03042 1.04623 0
M  V30 500 H 45.3969 3.74832 3.8132 0
M  V30 501 H 45.7399 2.04614 3.62545 0
M  V30 502 H 46.2729 3.19316 2.37238 0
M  V30 503 H 43.0119 6.18417 2.17351 0
M  V30 504 H 42.5319 4.96058 3.37175 0
M  V30 505 H 44.2109 5.55277 3.32078 0
M  V30 506 N 44.343 -0.763751 1.37857 0
M  V30 507 C 45.568 -1.55805 1.36893 0
M  V30 508 C 45.993 -1.88054 -0.0416135 0
M  V30 509 O 45.351 -1.49825 -1.02089 0
M  V30 510 C 45.399 -2.84012 2.22192 0
M  V30 511 O 44.503 -3.78732 1.63204 0
M  V30 512 H 43.844 -0.471638 0.46739 0
M  V30 513 H 46.374 -0.944657 1.81487 0
M  V30 514 H 46.384 -3.33037 2.35691 0
M  V30 515 H 45.059 -2.59869 3.24716 0
M  V30 516 H 43.636 -3.37402 1.58791 0
M  V30 517 N 45.8211 -1.22559 -0.990812 0
M  V30 518 C 47.2371 -0.985996 -1.255 0
M  V30 519 C 47.4371 0.319173 -1.98956 0
M  V30 520 O 46.4931 1.04127 -2.3003 0
M  V30 521 C 47.8061 -2.18607 -2.06474 0
M  V30 522 C 49.3541 -2.22985 -2.19651 0
M  V30 523 C 49.8291 -3.4255 -3.04012 0
M  V30 524 N 51.3201 -3.42725 -3.11599 0
M  V30 525 C 52.0551 -4.31892 -3.7717 0
M  V30 526 N 51.5511 -5.31279 -4.44651 0
M  V30 527 N 53.3441 -4.19662 -3.73952 0
M  V30 528 H 45.4951 -2.06469 -0.49841 0
M  V30 529 H 47.7581 -0.904853 -0.282747 0
M  V30 530 H 47.4641 -3.13267 -1.59865 0
M  V30 531 H 47.3381 -2.18838 -3.07229 0
M  V30 532 H 49.7251 -1.28871 -2.65474 0
M  V30 533 H 49.8061 -2.26791 -1.18319 0
M  V30 534 H 49.4501 -4.36965 -2.58889 0
M  V30 535 H 49.3801 -3.35984 -4.0549 0
M  V30 536 H 51.8711 -2.70807 -2.63575 0
M  V30 537 H 52.1841 -5.95593 -4.92431 0
M  V30 538 H 50.5291 -5.3519 -4.43392 0
M  V30 539 H 53.7201 -3.41268 -3.20396 0
M  V30 540 H 53.8931 -4.89358 -4.24774 0
M  V30 541 N 47.2992 1.18797 -1.03562 0
M  V30 542 C 48.5482 1.87978 -0.731235 0
M  V30 543 C 48.8612 1.80911 0.743671 0
M  V30 544 O 50.0672 2.45407 1.16137 0
M  V30 545 C 48.5232 3.3721 -1.25768 0
M  V30 546 C 48.1312 3.52818 -2.76085 0
M  V30 547 C 49.8752 4.11825 -1.0296 0
M  V30 548 C 47.7822 4.9598 -3.22114 0
M  V30 549 H 46.7122 0.704063 -0.269835 0
M  V30 550 H 49.3632 1.34266 -1.25079 0
M  V30 551 H 47.7452 3.90359 -0.666011 0
M  V30 552 H 48.9192 3.09965 -3.40966 0
M  V30 553 H 47.2342 2.91602 -2.97249 0
M  V30 554 H 49.8312 5.17411 -1.34869 0
M  V30 555 H 50.1742 4.16287 0.0333546 0
M  V30 556 H 50.7072 3.64833 -1.58562 0
M  V30 557 H 47.4462 4.96684 -4.27768 0
M  V30 558 H 46.9662 5.39569 -2.61965 0
M  V30 559 H 48.6452 5.6467 -3.15844 0
M  V30 560 N 48.7773 0.814389 1.34928 0
M  V30 561 C 50.0233 0.399013 1.98836 0
M  V30 562 C 50.3563 -1.03314 1.64438 0
M  V30 563 O 49.6313 -1.71811 0.911659 0
M  V30 564 C 49.9143 0.591629 3.55207 0
M  V30 565 C 49.7673 2.06928 3.99376 0
M  V30 566 C 51.0863 0.022199 4.40094 0
M  V30 567 H 48.2053 0.146451 0.722303 0
M  V30 568 H 50.8473 1.02537 1.59957 0
M  V30 569 H 48.9973 0.0584441 3.88456 0
M  V30 570 H 50.6693 2.66544 3.76499 0
M  V30 571 H 48.9123 2.56287 3.49999 0
M  V30 572 H 49.5833 2.1549 5.08201 0
M  V30 573 H 52.0593 0.477643 4.13349 0
M  V30 574 H 50.9353 0.186832 5.48582 0
M  V30 575 H 51.1963 -1.07215 4.28902 0
M  V30 576 N 50.2554 -1.46986 0.568584 0
M  V30 577 C 51.5044 -2.01646 0.0465894 0
M  V30 578 C 51.8174 -1.44721 -1.31587 0
M  V30 579 O 53.0234 -1.91113 -1.92842 0
M  V30 580 C 51.4794 -3.59885 0.032752 0
M  V30 581 C 51.0874 -4.25804 1.39266 0
M  V30 582 C 52.8314 -4.22255 -0.436038 0
M  V30 583 C 50.7384 -5.76081 1.33732 0
M  V30 584 H 49.6684 -0.753876 0.013647 0
M  V30 585 H 52.3194 -1.68864 0.718131 0
M  V30 586 H 50.7014 -3.8968 -0.704669 0
M  V30 587 H 51.8754 -4.07637 2.1487 0
M  V30 588 H 50.1904 -3.7547 1.80032 0
M  V30 589 H 52.7874 -5.32394 -0.49602 0
M  V30 590 H 53.1304 -3.90212 -1.45053 0
M  V30 591 H 53.6634 -3.97033 0.246877 0
M  V30 592 H 50.4024 -6.12761 2.32817 0
M  V30 593 H 49.9224 -5.96553 0.623267 0
M  V30 594 H 51.6014 -6.38518 1.0442 0
M  V30 595 N 51.7335 -0.305618 -1.54608 0
M  V30 596 C 52.9735 0.303114 -2.0214 0
M  V30 597 C 53.3375 1.50737 -1.18921 0
M  V30 598 O 54.5385 2.18778 -1.56172 0
M  V30 599 C 52.8095 0.646332 -3.51507 0
M  V30 600 S 54.3685 1.23727 -4.20995 0
M  V30 601 H 51.1865 0.0927643 -0.704923 0
M  V30 602 H 53.7885 -0.434566 -1.90609 0
M  V30 603 H 52.4925 -0.238541 -4.09706 0
M  V30 604 H 52.0235 1.41468 -3.67084 0
M  V30 605 H 54.0385 2.52489 -4.27158 0
M  V30 606 N 53.2116 1.57565 -0.0334293 0
M  V30 607 C 54.4606 1.91155 0.643639 0
M  V30 608 C 54.7736 0.91192 1.73042 0
M  V30 609 O 55.9796 1.13923 2.46442 0
M  V30 610 C 54.4356 3.39443 1.1961 0
M  V30 611 C 54.0436 4.47774 0.142381 0
M  V30 612 C 55.7876 3.82094 1.84944 0
M  V30 613 C 53.6946 5.87162 0.706727 0
M  V30 614 H 52.6246 0.713368 0.244176 0
M  V30 615 H 55.2756 1.8323 -0.0994323 0
M  V30 616 H 53.6576 3.42313 1.99092 0
M  V30 617 H 54.8316 4.56469 -0.630296 0
M  V30 618 H 53.1466 4.14352 -0.412446 0
M  V30 619 H 55.7436 4.83591 2.2813 0
M  V30 620 H 56.0866 3.17386 2.69392 0
M  V30 621 H 56.6196 3.81665 1.12145 0
M  V30 622 H 53.3586 6.55424 -0.0997178 0
M  V30 623 H 52.8786 5.82064 1.44779 0
M  V30 624 H 54.5576 6.35866 1.19514 0
M  V30 625 N 54.6897 -0.239769 1.55765 0
M  V30 626 C 55.9367 -0.966801 1.7793 0
M  V30 627 C 56.2647 -1.85046 0.599015 0
M  V30 628 O 55.5197 -1.91197 -0.417395 0
M  V30 629 C 55.8187 -1.852 3.05672 0
M  V30 630 C 55.4847 -1.1231 4.36689 0
M  V30 631 C 54.1467 -0.921689 4.72291 0
M  V30 632 C 56.4987 -0.607019 5.17653 0
M  V30 633 C 53.8267 -0.191996 5.86386 0
M  V30 634 C 56.1787 0.109241 6.32506 0
M  V30 635 C 54.8427 0.322073 6.66723 0
M  V30 636 H 54.1127 -0.353778 0.651093 0
M  V30 637 H 56.7597 -0.23634 1.90036 0
M  V30 638 H 55.0647 -2.64975 2.8861 0
M  V30 639 H 56.7617 -2.41635 3.20021 0
M  V30 640 H 53.3517 -1.29004 4.08725 0
M  V30 641 H 57.5357 -0.750153 4.90598 0
M  V30 642 H 52.7917 -0.0166949 6.11398 0
M  V30 643 H 56.9657 0.516737 6.9448 0
M  V30 644 H 54.5927 0.88944 7.54979 0
M  V30 645 N 56.1678 -1.49265 -0.50573 0
M  V30 646 C 57.0978 -1.68495 -1.61653 0
M  V30 647 C 58.0788 -0.53366 -1.61512 0
M  V30 648 O 59.2638 -0.76897 -1.78327 0
M  V30 649 C 56.3938 -1.74709 -3.00157 0
M  V30 650 C 55.3478 -2.89581 -3.15162 0
M  V30 651 C 54.6738 -2.80903 -4.5497 0
M  V30 652 C 55.9738 -4.30578 -2.95634 0
M  V30 653 H 57.6678 -2.61493 -1.45814 0
M  V30 654 H 55.2138 -1.25838 -0.70005 0
M  V30 655 H 57.1668 -1.86748 -3.77761 0
M  V30 656 H 55.8908 -0.783067 -3.17074 0
M  V30 657 H 54.5498 -2.77136 -2.39982 0
M  V30 658 H 54.1978 -1.82419 -4.68756 0
M  V30 659 H 53.8978 -3.57999 -4.65951 0
M  V30 660 H 55.4218 -2.94944 -5.34641 0
M  V30 661 H 56.8358 -4.4373 -3.63011 0
M  V30 662 H 55.2328 -5.0886 -3.18091 0
M  V30 663 H 56.3028 -4.45352 -1.91806 0
M  V30 664 N 57.6459 0.756429 -1.3826 0
M  V30 665 C 58.8949 1.51082 -1.3363 0
M  V30 666 C 59.2079 1.95467 0.0720068 0
M  V30 667 O 60.4139 2.7043 0.240834 0
M  V30 668 C 58.8699 2.72893 -2.34644 0
M  V30 669 C 58.4779 2.35544 -3.81081 0
M  V30 670 C 60.2219 3.50791 -2.39052 0
M  V30 671 C 58.1289 3.53948 -4.73787 0
M  V30 672 H 57.0589 0.56727 -0.49671 0
M  V30 673 H 59.7099 0.827147 -1.638 0
M  V30 674 H 58.0919 3.43227 -1.97513 0
M  V30 675 H 59.2659 1.72894 -4.27135 0
M  V30 676 H 57.5809 1.70786 -3.79764 0
M  V30 677 H 60.1779 4.38823 -3.05513 0
M  V30 678 H 60.5209 3.91745 -1.40861 0
M  V30 679 H 61.0539 2.87467 -2.74968 0
M  V30 680 H 57.7929 3.18064 -5.73163 0
M  V30 681 H 57.3129 4.15651 -4.32428 0
M  V30 682 H 58.9919 4.20566 -4.91663 0
M  V30 683 N 59.124 1.23083 0.984299 0
M  V30 684 C 60.364 1.07226 1.74017 0
M  V30 685 C 60.728 -0.384766 1.88105 0
M  V30 686 O 61.929 -0.664411 2.60459 0
M  V30 687 C 60.2 1.77348 3.10294 0
M  V30 688 S 61.759 1.77014 4.01512 0
M  V30 689 H 58.577 0.383819 0.598502 0
M  V30 690 H 61.179 1.56158 1.17622 0
M  V30 691 H 59.883 2.82506 2.97689 0
M  V30 692 H 59.414 1.28682 3.71759 0
M  V30 693 H 61.429 0.825956 4.89277 0
M  V30 694 N 60.6021 -1.18246 1.0419 0
M  V30 695 C 61.8501 -1.87886 0.744543 0
M  V30 696 C 62.1711 -1.8082 -0.730006 0
M  V30 697 O 61.4411 -1.22736 -1.52685 0
M  V30 698 H 60.0211 -0.695556 0.272417 0
M  V30 699 H 62.6831 -1.43494 1.31892 0
M  V30 700 H 61.7791 -2.9389 1.05049 0
M  V30 701 N 62.0802 -0.821533 -1.34494 0
M  V30 702 C 63.0132 -0.187704 -2.27427 0
M  V30 703 C 63.9912 0.65507 -1.48821 0
M  V30 704 O 65.1752 0.619111 -1.78043 0
M  V30 705 C 62.3022 0.737996 -3.30562 0
M  V30 706 C 61.3482 -0.0270713 -4.26491 0
M  V30 707 S 62.1812 -1.37329 -5.17592 0
M  V30 708 C 63.3372 -0.452427 -6.24263 0
M  V30 709 H 63.5702 -0.975598 -2.80837 0
M  V30 710 H 61.1032 -0.61736 -1.4152 0
M  V30 711 H 63.0612 1.26654 -3.90473 0
M  V30 712 H 61.7222 1.4994 -2.76001 0
M  V30 713 H 60.9152 0.6766 -4.99438 0
M  V30 714 H 60.5172 -0.48612 -3.70827 0
M  V30 715 H 62.8092 0.356557 -6.76561 0
M  V30 716 H 63.7522 -1.15153 -6.98674 0
M  V30 717 H 64.1602 -0.0414755 -5.64485 0
M  V30 718 N 63.5583 1.46682 -0.576371 0
M  V30 719 C 64.8053 2.02412 -0.0595339 0
M  V30 720 C 65.1333 1.44859 1.29793 0
M  V30 721 O 64.3883 0.601099 1.8624 0
M  V30 722 C 64.6873 3.57345 0.062886 0
M  V30 723 C 64.3533 4.33908 -1.22616 0
M  V30 724 C 63.0153 4.54544 -1.57933 0
M  V30 725 C 65.3673 4.77919 -2.07948 0
M  V30 726 C 62.6953 5.16444 -2.78393 0
M  V30 727 C 65.0473 5.41149 -3.27629 0
M  V30 728 C 63.7113 5.60014 -3.63236 0
M  V30 729 H 62.9813 0.74068 -0.021785 0
M  V30 730 H 65.6283 1.76128 -0.751735 0
M  V30 731 H 63.9333 3.82729 0.838178 0
M  V30 732 H 65.6303 3.98136 0.478439 0
M  V30 733 H 62.2203 4.18138 -0.941202 0
M  V30 734 H 66.4043 4.61738 -1.81967 0
M  V30 735 H 61.6603 5.29242 -3.06126 0
M  V30 736 H 65.8343 5.74211 -3.94023 0
M  V30 737 H 63.4613 6.07748 -4.56669 0
M  V30 738 N 65.0364 0.313813 1.54444 0
M  V30 739 C 65.9694 -0.598866 2.20202 0
M  V30 740 C 66.9474 -1.12318 1.17573 0
M  V30 741 O 68.1314 -1.18899 1.46271 0
M  V30 742 C 65.2584 -1.82071 2.85601 0
M  V30 743 C 64.3044 -1.42851 4.01865 0
M  V30 744 S 65.1374 -0.473512 5.33402 0
M  V30 745 C 66.2934 -1.70286 6.0229 0
M  V30 746 H 66.5264 -0.0402532 2.97273 0
M  V30 747 H 64.0594 0.0979165 1.54089 0
M  V30 748 H 66.0174 -2.52184 3.23904 0
M  V30 749 H 64.6784 -2.3505 2.08351 0
M  V30 750 H 63.8714 -2.33871 4.46453 0
M  V30 751 H 63.4734 -0.807198 3.65185 0
M  V30 752 H 65.7654 -2.64168 6.23876 0
M  V30 753 H 66.7084 -1.29932 6.96077 0
M  V30 754 H 67.1164 -1.88541 5.32083 0
M  V30 755 N 66.5145 -1.57545 0.0417849 0
M  V30 756 C 67.4775 -2.09885 -0.92093 0
M  V30 757 C 68.4775 -1.01648 -1.24596 0
M  V30 758 O 69.6675 -1.27759 -1.1842 0
M  V30 759 C 66.7995 -2.57527 -2.23367 0
M  V30 760 H 67.9925 -2.96236 -0.467382 0
M  V30 761 H 65.5455 -1.5493 -0.206467 0
M  V30 762 H 66.2805 -1.74542 -2.73323 0
M  V30 763 H 66.0655 -3.36613 -2.01083 0
M  V30 764 H 67.5555 -2.98201 -2.92346 0
M  V30 765 N 67.9926 0.231505 -1.5589 0
M  V30 766 C 69.2406 0.955461 -1.78088 0
M  V30 767 C 69.5616 1.85262 -0.608533 0
M  V30 768 O 68.8316 1.92277 0.375035 0
M  V30 769 H 67.4116 0.355787 -0.656829 0
M  V30 770 H 70.0736 0.245751 -1.93344 0
M  V30 771 H 69.1696 1.56814 -2.69844 0
M  V30 772 N 69.4707 1.49531 0.497807 0
M  V30 773 C 70.4337 1.65916 1.58128 0
M  V30 774 C 71.4337 0.530825 1.51786 0
M  V30 775 O 72.6237 0.797342 1.54881 0
M  V30 776 C 69.7557 1.65951 2.9778 0
M  V30 777 H 70.9487 2.62556 1.44929 0
M  V30 778 H 68.5017 1.38611 0.722275 0
M  V30 779 H 69.2367 0.709065 3.16453 0
M  V30 780 H 69.0217 2.47897 3.03792 0
M  V30 781 H 70.5117 1.80673 3.76493 0
M  V30 782 N 70.9488 -0.749086 1.3866 0
M  V30 783 C 72.1738 -1.54344 1.38538 0
M  V30 784 C 72.5988 -1.88088 -0.0216655 0
M  V30 785 O 71.9568 -1.50899 -1.00494 0
M  V30 786 C 72.0048 -2.8164 2.25192 0
M  V30 787 O 71.1088 -3.7698 1.67212 0
M  V30 788 H 70.4498 -0.466654 0.472367 0
M  V30 789 H 72.9798 -0.925355 1.82478 0
M  V30 790 H 72.9898 -3.30519 2.3921 0
M  V30 791 H 71.6648 -2.56411 3.27454 0
M  V30 792 H 70.2418 -3.35699 1.6236 0
M  V30 793 N 72.4269 -1.23603 -0.977757 0
M  V30 794 C 73.3369 -1.03632 -2.1047 0
M  V30 795 C 74.3529 0.0199435 -1.73989 0
M  V30 796 O 75.5289 -0.176076 -2.00629 0
M  V30 797 C 72.5939 -0.63276 -3.40877 0
M  V30 798 C 71.6549 -1.76437 -3.91367 0
M  V30 799 C 70.8879 -1.37997 -5.15551 0
M  V30 800 O 71.1109 -0.265357 -5.69782 0
M  V30 801 O 70.0449 -2.20201 -5.60174 0
M  V30 802 H 73.8709 -1.98086 -2.30208 0
M  V30 803 H 71.4559 -1.02332 -1.08851 0
M  V30 804 H 73.3379 -0.418761 -4.19314 0
M  V30 805 H 72.0129 0.282754 -3.22463 0
M  V30 806 H 70.9199 -2.03304 -3.14036 0
M  V30 807 H 72.2529 -2.6583 -4.14241 0
M  V30 808 N 73.905 1.17692 -1.04816 0
M  V30 809 C 74.852 2.21581 -0.645797 0
M  V30 810 C 75.822 1.62367 0.350159 0
M  V30 811 O 77.007 1.89254 0.242433 0
M  V30 812 C 74.147 3.45092 -0.0227568 0
M  V30 813 C 73.26 4.18613 -1.06709 0
M  V30 814 C 72.395 5.29602 -0.411767 0
M  V30 815 C 71.434 5.94904 -1.44067 0
M  V30 816 N 70.571 6.97414 -0.809781 0
M  V30 817 H 75.411 2.55353 -1.5362 0
M  V30 818 H 72.948 1.25438 -0.768364 0
M  V30 819 H 74.906 4.15679 0.35588 0
M  V30 820 H 73.536 3.11917 0.831122 0
M  V30 821 H 72.588 3.46779 -1.5636 0
M  V30 822 H 73.9 4.63293 -1.84827 0
M  V30 823 H 73.054 6.06696 0.0206623 0
M  V30 824 H 71.793 4.86045 0.401438 0
M  V30 825 H 70.798 5.16544 -1.88316 0
M  V30 826 H 72.023 6.40542 -2.25571 0
M  V30 827 H 69.969 6.55998 -0.0170186 0
M  V30 828 H 69.886 7.40386 -1.52856 0
M  V30 829 H 71.154 7.78463 -0.401999 0
M  V30 830 N 75.3831 0.828654 1.34056 0
M  V30 831 C 76.6131 0.431993 2.02033 0
M  V30 832 C 77.0211 -0.96844 1.62536 0
M  V30 833 O 76.3641 -1.6391 0.829408 0
M  V30 834 C 76.4261 0.461224 3.56529 0
M  V30 835 C 76.0901 1.81599 4.1937 0
M  V30 836 C 77.0871 2.7777 4.39477 0
M  V30 837 C 74.7721 2.10604 4.56017 0
M  V30 838 C 76.7661 4.01115 4.95364 0
M  V30 839 C 74.4531 3.34207 5.11614 0
M  V30 840 C 75.4511 4.2928 5.31232 0
M  V30 841 O 75.1391 5.50699 5.8565 0
M  V30 842 H 74.8711 0.170943 0.654029 0
M  V30 843 H 77.4251 1.11988 1.72185 0
M  V30 844 H 75.6551 -0.283388 3.8566 0
M  V30 845 H 77.3441 0.0838149 4.05813 0
M  V30 846 H 78.1101 2.56659 4.11523 0
M  V30 847 H 73.9891 1.37402 4.40047 0
M  V30 848 H 77.5331 4.75333 5.10592 0
M  V30 849 H 73.4301 3.55179 5.38997 0
M  V30 850 H 74.1981 5.52298 6.04077 0
M  V30 851 N 76.8612 -1.46375 0.584142 0
M  V30 852 C 78.1382 -1.956 0.0033388 0
M  V30 853 C 78.5182 -1.52679 -1.45782 0
M  V30 854 O 77.8662 -0.77816 -2.14842 0
M  V30 855 C 78.0762 -3.48551 0.176891 0
M  V30 856 C 79.4242 -4.24576 0.0454609 0
M  V30 857 O 80.4482 -3.56043 0.105801 0
M  V30 858 O 79.3072 -5.46427 -0.0890376 0
M  V30 859 H 76.4012 -0.825547 -0.0490066 0
M  V30 860 H 78.9472 -1.56652 0.65256 0
M  V30 861 H 77.7192 -3.72683 1.1926 0
M  V30 862 H 77.3422 -3.94332 -0.508695 0
M  V30 863 N 78.3393 -0.321999 -1.54275 0
M  V30 864 C 79.3023 0.531975 -2.22941 0
M  V30 865 C 80.3023 1.04478 -1.22234 0
M  V30 866 O 81.4923 0.937452 -1.46825 0
M  V30 867 C 78.6243 1.73874 -2.93224 0
M  V30 868 H 79.8173 -0.0682612 -2.99822 0
M  V30 869 H 77.3703 -0.0730644 -1.56129 0
M  V30 870 H 78.1053 2.37825 -2.20476 0
M  V30 871 H 77.8903 1.37847 -3.6707 0
M  V30 872 H 79.3803 2.34496 -3.45545 0
M  V30 873 N 79.8174 1.5752 -0.0501392 0
M  V30 874 C 80.7654 2.12651 0.942459 0
M  V30 875 C 81.7594 1.05807 1.32292 0
M  V30 876 O 82.9654 1.24217 1.3027 0
M  V30 877 H 79.3404 0.679673 0.321789 0
M  V30 878 H 81.3114 2.94951 0.452356 0
M  V30 879 C 80.0604 2.68565 2.20836 0
M  V30 880 H 79.3834 3.50439 1.92439 0
M  V30 881 H 80.8234 3.10761 2.8845 0
M  V30 882 C 79.2824 1.62291 2.95234 0
M  V30 883 O 79.8124 1.03508 3.88135 0
M  V30 884 N 78.0184 1.33836 2.57946 0
M  V30 885 H 77.5654 1.81826 1.82475 0
M  V30 886 H 77.5234 0.629595 3.08032 0
M  V30 887 N 81.2955 -0.223234 1.56011 0
M  V30 888 C 82.2585 -1.26014 1.9145 0
M  V30 889 C 83.2585 -1.3989 0.792937 0
M  V30 890 O 84.4485 -1.38184 1.0607 0
M  V30 891 C 81.5805 -2.63422 2.16383 0
M  V30 892 H 82.7735 -0.95796 2.84189 0
M  V30 893 H 80.3265 -0.463576 1.49267 0
M  V30 894 H 81.0615 -2.98741 1.2619 0
M  V30 895 H 80.8465 -2.54728 2.98088 0
M  V30 896 H 82.3365 -3.38249 2.44903 0
M  V30 897 N 82.7736 -1.49793 -0.48987 0
M  V30 898 C 84.1846 -1.52914 -1.07118 0
M  V30 899 C 84.5356 -0.321738 -1.93544 0
M  V30 900 O 83.6606 0.567338 -2.08831 0
M  V30 901 C 84.2556 -2.771 -1.94938 0
M  V30 902 C 82.8146 -2.82963 -2.48212 0
M  V30 903 C 81.9616 -2.46972 -1.26096 0
M  V30 904 H 84.9126 -1.56329 -0.273289 0
M  V30 905 H 84.9336 -2.57892 -2.79771 0
M  V30 906 H 84.4456 -3.64959 -1.32009 0
M  V30 907 H 82.5466 -1.99411 -3.14748 0
M  V30 908 H 82.6596 -3.85406 -2.84603 0
M  V30 909 H 81.0236 -1.98994 -1.58976 0
M  V30 910 H 81.8066 -3.37118 -0.648581 0
M  V30 911 N 84.2517 0.741722 -1.39055 0
M  V30 912 C 85.1837 1.8657 -1.33133 0
M  V30 913 C 86.1967 1.61001 -0.241329 0
M  V30 914 O 87.3857 1.7136 -0.499784 0
M  V30 915 C 84.4857 3.22457 -1.04283 0
M  V30 916 C 83.6587 3.75435 -2.24427 0
M  V30 917 C 82.7177 4.89867 -1.92138 0
M  V30 918 O 81.7437 5.03879 -2.64754 0
M  V30 919 N 82.9457 5.73738 -0.88347 0
M  V30 920 H 85.7107 1.92156 -2.29991 0
M  V30 921 H 83.2717 0.922172 -1.3307 0
M  V30 922 H 85.2637 3.9657 -0.807128 0
M  V30 923 H 83.8337 3.12181 -0.161807 0
M  V30 924 H 83.0537 2.92751 -2.6399 0
M  V30 925 H 84.3417 4.07563 -3.04581 0
M  V30 926 H 83.7397 5.64999 -0.281517 0
M  V30 927 H 82.2967 6.47947 -0.707662 0
M  V30 928 N 85.7298 1.2412 0.971189 0
M  V30 929 C 86.6618 0.988349 2.06795 0
M  V30 930 C 87.6748 -0.0409541 1.62748 0
M  V30 931 O 88.8638 0.195673 1.77424 0
M  V30 932 C 85.9638 0.469023 3.35639 0
M  V30 933 C 85.1368 1.56065 4.08611 0
M  V30 934 C 84.1958 1.04458 5.15728 0
M  V30 935 O 83.2218 1.73553 5.42096 0
M  V30 936 N 84.4238 -0.122817 5.8037 0
M  V30 937 H 87.1888 1.93265 2.29061 0
M  V30 938 H 84.7498 1.15102 1.13856 0
M  V30 939 H 86.7418 0.108613 4.04554 0
M  V30 940 H 85.3118 -0.380919 3.1027 0
M  V30 941 H 84.5318 2.09341 3.34021 0
M  V30 942 H 85.8198 2.29449 4.54126 0
M  V30 943 H 85.2178 -0.700563 5.61345 0
M  V30 944 H 83.7748 -0.424404 6.50417 0
M  V30 945 N 87.2079 -1.17134 1.05439 0
M  V30 946 C 88.4539 -1.87733 0.767077 0
M  V30 947 C 88.7869 -1.8098 -0.704253 0
M  V30 948 O 88.0619 -1.21951 -1.5152 0
M  V30 949 C 88.3449 -3.37659 1.25133 0
M  V30 950 C 88.1979 -3.53149 2.78578 0
M  V30 951 C 89.5169 -4.31768 0.852324 0
M  V30 952 H 86.6359 -0.681687 0.280129 0
M  V30 953 H 89.2779 -1.37732 1.30881 0
M  V30 954 H 87.4279 -3.80373 0.790469 0
M  V30 955 H 89.0999 -3.19434 3.32806 0
M  V30 956 H 87.3429 -2.95345 3.17732 0
M  V30 957 H 88.0139 -4.58403 3.07523 0
M  V30 958 H 90.4899 -3.96909 1.24911 0
M  V30 959 H 89.3659 -5.35199 1.21873 0
M  V30 960 H 89.6269 -4.41429 -0.243485 0
M  V30 961 N 88.686 -0.835752 -1.33615 0
M  V30 962 C 89.618 -0.224151 -2.28101 0
M  V30 963 C 90.631 0.593331 -1.51603 0
M  V30 964 O 91.82 0.420911 -1.73466 0
M  V30 965 C 88.92 0.703309 -3.31522 0
M  V30 966 C 88.093 -0.0741528 -4.37337 0
M  V30 967 C 87.152 0.776176 -5.20444 0
M  V30 968 O 86.178 0.216506 -5.68788 0
M  V30 969 N 87.38 2.09401 -5.41416 0
M  V30 970 H 90.145 -1.03598 -2.81225 0
M  V30 971 H 87.706 -0.69392 -1.46275 0
M  V30 972 H 89.698 1.27707 -3.84022 0
M  V30 973 H 88.268 1.41585 -2.78698 0
M  V30 974 H 87.488 -0.82928 -3.85378 0
M  V30 975 H 88.776 -0.608863 -5.05144 0
M  V30 976 H 88.174 2.57229 -5.03835 0
M  V30 977 H 86.731 2.61633 -5.96985 0
M  V30 978 N 90.1641 1.46063 -0.591896 0
M  V30 979 C 91.5751 1.85944 -0.167822 0
M  V30 980 C 91.9261 1.49429 1.27143 0
M  V30 981 O 91.0511 0.913515 1.96173 0
M  V30 982 C 91.6461 3.37489 -0.297794 0
M  V30 983 C 90.2051 3.76332 0.0714732 0
M  V30 984 C 89.3521 2.7006 -0.629509 0
M  V30 985 H 92.3031 1.37087 -0.799555 0
M  V30 986 H 92.3241 3.77532 0.474349 0
M  V30 987 H 91.8361 3.64034 -1.3454 0
M  V30 988 H 89.9371 3.55405 1.11886 0
M  V30 989 H 90.0501 4.78088 -0.311245 0
M  V30 990 H 88.4141 2.54607 -0.0687867 0
M  V30 991 H 89.1971 2.99444 -1.67894 0
M  V30 992 N 91.6422 0.330177 1.54103 0
M  V30 993 C 92.8722 -0.271784 2.04805 0
M  V30 994 C 93.2802 -1.45816 1.20559 0
M  V30 995 O 92.6232 -1.82247 0.2306 0
M  V30 996 C 92.6852 -0.763238 3.51305 0
M  V30 997 C 92.3492 0.301705 4.56003 0
M  V30 998 C 93.3462 1.13999 5.07248 0
M  V30 999 C 91.0312 0.451793 5.00264 0
M  V30 1000 C 93.0252 2.11402 6.01322 0
M  V30 1001 C 90.7122 1.42924 5.94151 0
M  V30 1002 C 91.7102 2.25882 6.44567 0
M  V30 1003 O 91.3982 3.21965 7.3661 0
M  V30 1004 H 91.1302 -0.058693 0.673447 0
M  V30 1005 H 93.6842 0.476395 1.99799 0
M  V30 1006 H 91.9142 -1.56244 3.5373 0
M  V30 1007 H 93.6032 -1.28427 3.85047 0
M  V30 1008 H 94.3692 1.03505 4.73827 0
M  V30 1009 H 90.2482 -0.184044 4.60632 0
M  V30 1010 H 93.7922 2.76192 6.40596 0
M  V30 1011 H 89.6892 1.53479 6.26988 0
M  V30 1012 H 90.4572 3.17281 7.54503 0
M  V30 1013 N 93.1203 -1.57491 0.0584922 0
M  V30 1014 C 94.3453 -1.97711 -0.62652 0
M  V30 1015 C 94.7703 -0.936132 -1.63151 0
M  V30 1016 O 94.1283 0.099811 -1.81025 0
M  V30 1017 C 94.1763 -3.36989 -1.28338 0
M  V30 1018 O 93.2803 -3.35433 -2.39913 0
M  V30 1019 H 92.6213 -0.643868 -0.162266 0
M  V30 1020 H 95.1513 -2.04193 0.129064 0
M  V30 1021 H 95.1613 -3.73879 -1.63335 0
M  V30 1022 H 93.8363 -4.12289 -0.546889 0
M  V30 1023 H 92.4133 -3.10298 -2.06809 0
M  V30 1024 N 94.5984 0.214957 -1.56127 0
M  V30 1025 C 95.8444 0.939762 -1.79712 0
M  V30 1026 C 96.1774 1.83723 -0.629247 0
M  V30 1027 O 95.4524 1.90925 0.371197 0
M  V30 1028 C 95.7354 1.77306 -3.13424 0
M  V30 1029 C 95.5884 0.90164 -4.40671 0
M  V30 1030 C 96.9074 2.74956 -3.43638 0
M  V30 1031 H 94.0264 0.340214 -0.653776 0
M  V30 1032 H 96.6684 0.20824 -1.88855 0
M  V30 1033 H 94.8184 2.39673 -3.0576 0
M  V30 1034 H 96.4904 0.294206 -4.60361 0
M  V30 1035 H 94.7334 0.207368 -4.33304 0
M  V30 1036 H 95.4044 1.51923 -5.30682 0
M  V30 1037 H 97.8804 2.22724 -3.51473 0
M  V30 1038 H 96.7564 3.30358 -4.38355 0
M  V30 1039 H 97.0174 3.53023 -2.66134 0
M  V30 1040 N 96.0765 1.50051 0.48192 0
M  V30 1041 C 97.3015 1.64508 1.26301 0
M  V30 1042 C 97.7265 0.323851 1.85291 0
M  V30 1043 O 97.0845 -0.710969 1.66778 0
M  V30 1044 C 97.1325 2.7305 2.35533 0
M  V30 1045 O 96.2365 2.3355 3.39895 0
M  V30 1046 H 95.5775 0.549978 0.372048 0
M  V30 1047 H 98.1075 1.9636 0.574786 0
M  V30 1048 H 98.1175 2.95799 2.8101 0
M  V30 1049 H 96.7925 3.68946 1.91967 0
M  V30 1050 H 95.3695 2.21205 3.00204 0
M  V30 1051 N 97.5546 -0.734337 1.39446 0
M  V30 1052 C 98.7796 -1.52866 1.40167 0
M  V30 1053 C 99.2046 -1.881 -0.00171513 0
M  V30 1054 O 98.5626 -1.51957 -0.988879 0
M  V30 1055 C 98.6106 -2.79235 2.28167 0
M  V30 1056 O 97.7146 -3.75185 1.71201 0
M  V30 1057 H 97.0556 -0.461618 0.477289 0
M  V30 1058 H 99.5856 -0.905949 1.8345 0
M  V30 1059 H 99.5956 -3.27963 2.42702 0
M  V30 1060 H 98.2706 -2.52923 3.30156 0
M  V30 1061 H 96.8476 -3.33958 1.65912 0
M  V30 1062 N 99.0327 -1.24633 -0.964593 0
M  V30 1063 C 100.258 -1.11596 -1.74818 0
M  V30 1064 C 100.683 0.32723 -1.85232 0
M  V30 1065 O 100.041 1.23695 -1.32549 0
M  V30 1066 C 100.089 -1.76397 -3.1451 0
M  V30 1067 O 99.1927 -1.03685 -3.99153 0
M  V30 1068 H 98.5337 -0.390196 -0.537255 0
M  V30 1069 H 101.064 -1.65002 -1.20977 0
M  V30 1070 H 101.074 -1.8228 -3.65018 0
M  V30 1071 H 99.7487 -2.81401 -3.06246 0
M  V30 1072 H 98.3257 -1.05611 -3.57632 0
M  V30 1073 N 100.511 1.16574 -1.06058 0
M  V30 1074 C 101.474 2.19085 -0.673392 0
M  V30 1075 C 102.474 1.5835 0.279648 0
M  V30 1076 O 103.664 1.74088 0.0623488 0
M  V30 1077 C 100.796 3.40899 0.00954234 0
M  V30 1078 H 101.989 2.54853 -1.58081 0
M  V30 1079 H 99.5418 1.30808 -0.855516 0
M  V30 1080 H 100.277 3.10684 0.929826 0
M  V30 1081 H 100.062 3.86233 -0.67573 0
M  V30 1082 H 101.552 4.1675 0.266245 0
M  V30 1083 N 101.989 0.842826 1.3317 0
M  V30 1084 C 103.236 0.440447 1.97652 0
M  V30 1085 C 103.564 -1.00123 1.6675 0
M  V30 1086 O 102.819 -1.7155 0.941761 0
M  V30 1087 C 103.118 0.612607 3.52111 0
M  V30 1088 C 102.784 2.02297 4.02972 0
M  V30 1089 C 101.446 2.40874 4.16573 0
M  V30 1090 C 103.798 2.94402 4.30089 0
M  V30 1091 C 101.126 3.70852 4.54627 0
M  V30 1092 C 103.478 4.23865 4.69597 0
M  V30 1093 C 102.142 4.62392 4.81404 0
M  V30 1094 H 101.412 0.161171 0.72326 0
M  V30 1095 H 104.059 1.07061 1.58777 0
M  V30 1096 H 102.364 -0.100849 3.9167 0
M  V30 1097 H 104.061 0.2815 4.00011 0
M  V30 1098 H 100.651 1.71338 3.92863 0
M  V30 1099 H 104.835 2.65835 4.19101 0
M  V30 1100 H 100.091 4.00501 4.61962 0
M  V30 1101 H 104.265 4.95306 4.89536 0
M  V30 1102 H 101.892 5.63154 5.10648 0
M  V30 1103 N 103.467 -1.45747 0.599634 0
M  V30 1104 C 104.377 -2.34262 -0.125888 0
M  V30 1105 C 105.393 -1.50768 -0.868625 0
M  V30 1106 O 106.569 -1.83592 -0.828003 0
M  V30 1107 C 103.634 -3.28252 -1.11587 0
M  V30 1108 C 102.695 -4.27651 -0.375956 0
M  V30 1109 C 101.928 -5.1715 -1.31877 0
M  V30 1110 O 102.151 -5.09916 -2.55621 0
M  V30 1111 O 101.085 -5.96286 -0.820157 0
M  V30 1112 H 104.911 -2.97688 0.601315 0
M  V30 1113 H 102.496 -1.44999 0.359934 0
M  V30 1114 H 104.378 -3.86191 -1.68626 0
M  V30 1115 H 103.053 -2.67401 -1.82424 0
M  V30 1116 H 101.96 -3.7335 0.236698 0
M  V30 1117 H 103.293 -4.91334 0.29177 0
M  V30 1118 N 104.945 -0.338344 -1.53925 0
M  V30 1119 C 105.893 0.536231 -2.26335 0
M  V30 1120 C 106.887 1.1063 -1.28286 0
M  V30 1121 O 108.093 1.05264 -1.46012 0
M  V30 1122 H 104.468 0.191602 -0.727181 0
M  V30 1123 H 106.439 -0.0965747 -2.98244 0
M  V30 1124 C 105.188 1.67803 -3.04528 0
M  V30 1125 H 104.511 1.24864 -3.79801 0
M  V30 1126 H 105.951 2.26526 -3.58416 0
M  V30 1127 C 104.41 2.60439 -2.13712 0
M  V30 1128 O 104.94 3.6255 -1.72975 0
M  V30 1129 N 103.146 2.29006 -1.78898 0
M  V30 1130 H 102.693 1.46011 -2.12223 0
M  V30 1131 H 102.651 2.91248 -1.18416 0
M  V30 1132 N 106.423 1.57458 -0.0668435 0
M  V30 1133 C 107.353 2.15468 0.899764 0
M  V30 1134 C 108.334 1.08042 1.31381 0
M  V30 1135 O 109.519 1.36054 1.38574 0
M  V30 1136 C 106.649 2.71232 2.16911 0
M  V30 1137 C 105.603 3.83781 1.89463 0
M  V30 1138 C 104.929 4.26127 3.22986 0
M  V30 1139 C 106.229 5.08238 1.20381 0
M  V30 1140 H 107.923 2.96488 0.416529 0
M  V30 1141 H 105.469 1.4262 0.198908 0
M  V30 1142 H 107.422 3.10458 2.84945 0
M  V30 1143 H 106.146 1.87426 2.67468 0
M  V30 1144 H 104.805 3.45051 1.23836 0
M  V30 1145 H 104.453 3.39249 3.71374 0
M  V30 1146 H 104.153 5.01993 3.05413 0
M  V30 1147 H 105.677 4.67966 3.92225 0
M  V30 1148 H 107.091 5.44811 1.78475 0
M  V30 1149 H 105.488 5.89349 1.13083 0
M  V30 1150 H 106.558 4.84558 0.182153 0
M  V30 1151 N 107.901 -0.206675 1.56239 0
M  V30 1152 C 108.851 -1.26 1.90021 0
M  V30 1153 C 109.835 -1.41566 0.764721 0
M  V30 1154 O 111.027 -1.44131 1.02739 0
M  V30 1155 C 108.156 -2.6073 2.23326 0
M  V30 1156 C 107.242 -2.49005 3.43304 0
M  V30 1157 N 107.633 -2.06946 4.61527 0
M  V30 1158 C 105.931 -2.79927 3.47213 0
M  V30 1159 C 106.632 -2.06832 5.43687 0
M  V30 1160 N 105.608 -2.47892 4.83788 0
M  V30 1161 H 109.41 -0.925955 2.78932 0
M  V30 1162 H 106.924 -0.415172 1.57003 0
M  V30 1163 H 108.921 -3.36798 2.45708 0
M  V30 1164 H 107.581 -2.94968 1.35735 0
M  V30 1165 H 108.592 -1.77839 4.86409 0
M  V30 1166 H 105.269 -3.18438 2.70006 0
M  V30 1167 H 106.659 -1.76312 6.48354 0
M  V30 1168 N 109.379 -1.50304 -0.473955 0
M  V30 1169 C 110.79 -1.54042 -1.0549 0
M  V30 1170 C 111.141 -0.342248 -1.93192 0
M  V30 1171 O 110.266 0.545157 -2.09421 0
M  V30 1172 C 110.861 -2.79152 -1.91989 0
M  V30 1173 C 109.42 -2.8558 -2.45196 0
M  V30 1174 C 108.567 -2.48295 -1.2347 0
M  V30 1175 H 111.518 -1.5661 -0.256693 0
M  V30 1176 H 111.539 -2.60845 -2.7702 0
M  V30 1177 H 111.051 -3.66339 -1.28131 0
M  V30 1178 H 109.152 -2.02738 -3.12615 0
M  V30 1179 H 109.265 -3.88403 -2.80499 0
M  V30 1180 H 107.629 -2.00669 -1.56856 0
M  V30 1181 H 108.412 -3.37787 -0.612789 0
M  V30 1182 N 110.857 0.726932 -1.39834 0
M  V30 1183 C 111.805 1.86235 -1.39353 0
M  V30 1184 C 112.799 1.67144 -0.275555 0
M  V30 1185 O 114.005 1.74387 -0.44601 0
M  V30 1186 H 110.38 0.613174 -0.43534 0
M  V30 1187 H 112.351 1.83756 -2.35109 0
M  V30 1188 C 111.1 3.23995 -1.26185 0
M  V30 1189 H 110.423 3.39285 -2.11484 0
M  V30 1190 H 111.863 4.03609 -1.29907 0
M  V30 1191 C 110.322 3.36888 0.0290018 0
M  V30 1192 O 110.852 3.89152 0.99619 0
M  V30 1193 N 109.058 2.90446 0.0947437 0
M  V30 1194 H 108.605 2.48102 -0.693035 0
M  V30 1195 H 108.563 2.99451 0.957932 0
M  V30 1196 N 112.336 1.25143 0.95797 0
M  V30 1197 C 113.284 1.05019 2.07542 0
M  V30 1198 C 114.278 -0.0178751 1.69391 0
M  V30 1199 O 115.484 0.137472 1.79474 0
M  V30 1200 H 111.859 0.32265 0.679265 0
M  V30 1201 H 113.83 1.99759 2.21673 0
M  V30 1202 C 112.579 0.682074 3.40944 0
M  V30 1203 H 111.902 1.49573 3.70767 0
M  V30 1204 H 113.342 0.580945 4.20001 0
M  V30 1205 C 111.801 -0.611608 3.31302 0
M  V30 1206 O 112.331 -1.65465 3.66038 0
M  V30 1207 N 110.537 -0.595982 2.84423 0
M  V30 1208 H 110.084 0.253192 2.56353 0
M  V30 1209 H 110.042 -1.46173 2.78354 0
M  V30 1210 N 113.814 -1.1601 1.06675 0
M  V30 1211 C 114.724 -2.24156 0.692179 0
M  V30 1212 C 115.74 -1.71507 -0.293513 0
M  V30 1213 O 116.916 -2.009 -0.141861 0
M  V30 1214 C 113.981 -3.46587 0.0884131 0
M  V30 1215 C 113.042 -4.14257 1.12646 0
M  V30 1216 C 112.275 -5.30844 0.551416 0
M  V30 1217 O 112.498 -5.66858 -0.634656 0
M  V30 1218 O 111.432 -5.87848 1.29298 0
M  V30 1219 H 115.258 -2.58513 1.59388 0
M  V30 1220 H 112.843 -1.23599 0.83926 0
M  V30 1221 H 114.725 -4.20679 -0.246361 0
M  V30 1222 H 113.4 -3.13994 -0.786712 0
M  V30 1223 H 112.307 -3.42118 1.51348 0
M  V30 1224 H 113.64 -4.50914 1.97325 0
M  V30 1225 N 115.292 -0.849877 -1.32721 0
M  V30 1226 C 116.225 -0.235903 -2.26977 0
M  V30 1227 C 117.203 0.623355 -1.50177 0
M  V30 1228 O 118.387 0.581207 -1.79316 0
M  V30 1229 C 115.514 0.667712 -3.32053 0
M  V30 1230 C 114.56 -0.11753 -4.26338 0
M  V30 1231 S 115.393 -1.48277 -5.14562 0
M  V30 1232 C 116.549 -0.584741 -6.23163 0
M  V30 1233 H 116.782 -1.03495 -2.78704 0
M  V30 1234 H 114.315 -0.64724 -1.40179 0
M  V30 1235 H 116.273 1.18343 -3.93072 0
M  V30 1236 H 114.934 1.44052 -2.7912 0
M  V30 1237 H 114.127 0.57051 -5.00761 0
M  V30 1238 H 113.729 -0.564668 -3.69713 0
M  V30 1239 H 116.021 0.212968 -6.77165 0
M  V30 1240 H 116.964 -1.29947 -6.96074 0
M  V30 1241 H 117.372 -0.161202 -5.6427 0
M  V30 1242 N 116.77 1.45427 -0.607355 0
M  V30 1243 C 117.68 2.34325 0.113463 0
M  V30 1244 C 118.696 1.51226 0.860617 0
M  V30 1245 O 119.872 1.84029 0.818255 0
M  V30 1246 C 116.937 3.28839 1.09844 0
M  V30 1247 C 115.998 4.27844 0.353271 0
M  V30 1248 C 115.231 5.17842 1.29133 0
M  V30 1249 O 115.454 5.11264 2.52913 0
M  V30 1250 O 114.388 5.96713 0.788523 0
M  V30 1251 H 118.214 2.97364 -0.617094 0
M  V30 1252 H 115.799 1.44807 -0.367619 0
M  V30 1253 H 117.681 3.8708 1.66575 0
M  V30 1254 H 116.356 2.68365 1.81003 0
M  V30 1255 H 115.263 3.7322 -0.256494 0
M  V30 1256 H 116.596 4.91173 -0.317822 0
M  V30 1257 N 118.248 0.346503 1.53744 0
M  V30 1258 C 119.473 -0.253074 2.0585 0
M  V30 1259 C 119.898 -1.43202 1.21962 0
M  V30 1260 O 119.256 -1.79783 0.234073 0
M  V30 1261 C 119.304 -0.643193 3.54817 0
M  V30 1262 O 118.408 -1.74286 3.73762 0
M  V30 1263 H 117.749 -0.0413583 0.662711 0
M  V30 1264 H 120.279 0.501574 1.98357 0
M  V30 1265 H 120.289 -0.919526 3.97503 0
M  V30 1266 H 118.964 0.218966 4.15323 0
M  V30 1267 H 117.541 -1.46356 3.42979 0
M  V30 1268 N 119.726 -1.57421 0.075193 0
M  V30 1269 C 120.951 -1.98364 -0.605515 0
M  V30 1270 C 121.376 -0.953383 -1.62149 0
M  V30 1271 O 120.734 0.0806053 -1.81121 0
M  V30 1272 C 120.782 -3.38332 -1.24756 0
M  V30 1273 O 119.886 -3.37959 -2.36342 0
M  V30 1274 H 119.227 -0.645553 -0.155428 0
M  V30 1275 H 121.757 -2.04044 0.150714 0
M  V30 1276 H 121.767 -3.75591 -1.5936 0
M  V30 1277 H 120.442 -4.12846 -0.503129 0
M  V30 1278 H 119.019 -3.12474 -2.03506 0
M  V30 1279 N 121.204 0.198386 -1.56346 0
M  V30 1280 C 122.453 0.917451 -1.79627 0
M  V30 1281 C 122.766 1.8456 -0.64784 0
M  V30 1282 O 123.972 2.60504 -0.764859 0
M  V30 1283 C 122.428 1.68175 -3.18191 0
M  V30 1284 C 122.036 0.798589 -4.40825 0
M  V30 1285 C 123.78 2.39065 -3.50782 0
M  V30 1286 C 121.687 1.56157 -5.70411 0
M  V30 1287 H 120.617 0.346317 -0.669762 0
M  V30 1288 H 123.268 0.170801 -1.82703 0
M  V30 1289 H 121.65 2.47216 -3.09354 0
M  V30 1290 H 122.824 0.0470665 -4.60776 0
M  V30 1291 H 121.139 0.200686 -4.15916 0
M  V30 1292 H 123.736 2.96692 -4.44835 0
M  V30 1293 H 124.079 3.13091 -2.74371 0
M  V30 1294 H 124.612 1.66993 -3.61052 0
M  V30 1295 H 121.351 0.864142 -6.49779 0
M  V30 1296 H 120.871 2.2871 -5.54483 0
M  V30 1297 H 122.55 2.11622 -6.11412 0
M  V30 1298 N 122.682 1.50554 0.465978 0
M  V30 1299 C 123.63 1.70324 1.58406 0
M  V30 1300 C 124.624 0.569139 1.59553 0
M  V30 1301 O 125.83 0.749776 1.63641 0
M  V30 1302 H 122.205 0.537688 0.525734 0
M  V30 1303 H 124.176 2.64104 1.38894 0
M  V30 1304 C 122.925 1.81928 2.96307 0
M  V30 1305 H 122.248 2.68586 2.96144 0
M  V30 1306 H 123.688 1.99784 3.73982 0
M  V30 1307 C 122.147 0.572095 3.32007 0
M  V30 1308 O 122.677 -0.286416 4.00678 0
M  V30 1309 N 120.883 0.424606 2.87481 0
M  V30 1310 H 120.43 1.12427 2.31771 0
M  V30 1311 H 120.388 -0.408697 3.11732 0
M  V30 1312 N 124.16 -0.719506 1.40217 0
M  V30 1313 C 125.571 -1.29848 1.34151 0
M  V30 1314 C 125.922 -1.96196 0.0131349 0
M  V30 1315 O 125.047 -1.973 -0.88892 0
M  V30 1316 C 125.642 -2.36118 2.42968 0
M  V30 1317 C 124.201 -2.8965 2.40374 0
M  V30 1318 C 123.348 -1.63393 2.24049 0
M  V30 1319 H 126.299 -0.51591 1.5008 0
M  V30 1320 H 126.32 -3.16871 2.10649 0
M  V30 1321 H 125.832 -1.878 3.39636 0
M  V30 1322 H 123.933 -3.42208 1.47392 0
M  V30 1323 H 124.046 -3.4171 3.35814 0
M  V30 1324 H 122.41 -1.88312 1.71495 0
M  V30 1325 H 123.193 -1.17104 3.2271 0
M  V30 1326 N 125.638 -1.25649 -0.95132 0
M  V30 1327 C 126.885 -1.10594 -1.69633 0
M  V30 1328 C 127.213 0.352515 -1.91279 0
M  V30 1329 O 126.468 1.27601 -1.4838 0
M  V30 1330 C 126.767 -1.80909 -3.08231 0
M  V30 1331 C 126.433 -3.30825 -3.06375 0
M  V30 1332 C 125.095 -3.71722 -3.05576 0
M  V30 1333 C 127.447 -4.26589 -2.99452 0
M  V30 1334 C 124.775 -5.06788 -2.95606 0
M  V30 1335 C 127.127 -5.61683 -2.91024 0
M  V30 1336 C 125.791 -6.01904 -2.88562 0
M  V30 1337 H 125.061 -0.404691 -0.620731 0
M  V30 1338 H 127.708 -1.55964 -1.11119 0
M  V30 1339 H 126.013 -1.27979 -3.70309 0
M  V30 1340 H 127.71 -1.6671 -3.64704 0
M  V30 1341 H 124.3 -2.98287 -3.07771 0
M  V30 1342 H 128.484 -3.95982 -2.99185 0
M  V30 1343 H 123.74 -5.37126 -2.92071 0
M  V30 1344 H 127.914 -6.35578 -2.84629 0
M  V30 1345 H 125.541 -7.06521 -2.80593 0
M  V30 1346 N 127.117 1.15442 -1.07289 0
M  V30 1347 C 128.342 1.90638 -0.816828 0
M  V30 1348 C 128.767 1.77445 0.624083 0
M  V30 1349 O 128.125 1.10671 1.43602 0
M  V30 1350 C 128.173 3.39008 -1.22906 0
M  V30 1351 O 127.277 4.10701 -0.373975 0
M  V30 1352 H 126.618 0.593555 -0.297638 0
M  V30 1353 H 129.148 1.46198 -1.43134 0
M  V30 1354 H 129.158 3.89801 -1.20497 0
M  V30 1355 H 127.833 3.47929 -2.27856 0
M  V30 1356 H 126.41 3.70046 -0.460499 0
M  V30 1357 N 128.595 0.856903 1.32268 0
M  V30 1358 C 129.558 0.308171 2.27119 0
M  V30 1359 C 130.558 -0.533421 1.51695 0
M  V30 1360 O 131.748 -0.344607 1.70757 0
M  V30 1361 C 128.88 -0.563757 3.36206 0
M  V30 1362 H 130.073 1.14535 2.77167 0
M  V30 1363 H 127.626 0.631421 1.42978 0
M  V30 1364 H 128.361 -1.42266 2.91429 0
M  V30 1365 H 128.146 0.0386749 3.92081 0
M  V30 1366 H 129.636 -0.940386 4.06874 0
M  V30 1367 N 130.073 -1.45103 0.615059 0
M  V30 1368 C 131.298 -2.07064 0.117988 0
M  V30 1369 C 131.723 -1.4554 -1.19163 0
M  V30 1370 O 131.081 -0.550855 -1.72729 0
M  V30 1371 C 131.129 -3.606 -0.000288387 0
M  V30 1372 O 130.233 -3.98847 -1.04856 0
M  V30 1373 H 129.574 -0.659467 0.0774581 0
M  V30 1374 H 132.104 -1.86236 0.847186 0
M  V30 1375 H 132.114 -4.07529 -0.196091 0
M  V30 1376 H 130.789 -4.04765 0.955932 0
M  V30 1377 H 129.366 -3.63577 -0.828619 0
M  V30 1378 N 131.551 -0.354651 -1.53558 0
M  V30 1379 C 132.828 0.294281 -1.93374 0
M  V30 1380 C 133.208 1.67313 -1.28723 0
M  V30 1381 O 132.556 2.24179 -0.442247 0
M  V30 1382 C 132.766 0.355445 -3.47185 0
M  V30 1383 C 134.114 0.601007 -4.20325 0
M  V30 1384 O 135.138 0.437106 -3.53508 0
M  V30 1385 O 133.997 0.919322 -5.38712 0
M  V30 1386 H 131.091 0.174033 -0.808481 0
M  V30 1387 H 133.637 -0.406638 -1.64756 0
M  V30 1388 H 132.409 -0.611729 -3.86489 0
M  V30 1389 H 132.032 1.1027 -3.82003 0
M  V30 1390 N 133.029 1.57378 -0.0835403 0
M  V30 1391 C 134.257 1.98263 0.59157 0
M  V30 1392 C 134.672 0.962302 1.62435 0
M  V30 1393 O 134.029 -0.049581 1.82433 0
M  V30 1394 C 134.08 3.39214 1.24965 0
M  V30 1395 O 133.801 4.37339 0.258186 0
M  V30 1396 C 135.302 3.95038 2.01147 0
M  V30 1397 H 132.522 0.651773 0.159477 0
M  V30 1398 H 135.066 2.03878 -0.159415 0
M  V30 1399 H 133.221 3.34649 1.95164 0
M  V30 1400 H 133.635 5.19371 0.731734 0
M  V30 1401 H 135.109 4.95848 2.42567 0
M  V30 1402 H 135.586 3.32222 2.87272 0
M  V30 1403 H 136.192 4.0304 1.35789 0
M  V30 1404 N 134.507 -0.190092 1.56449 0
M  V30 1405 C 135.417 -1.25591 1.98152 0
M  V30 1406 C 136.433 -1.49519 0.889944 0
M  V30 1407 O 137.609 -1.62036 1.19609 0
M  V30 1408 C 134.674 -2.57916 2.3169 0
M  V30 1409 C 133.735 -2.42015 3.5458 0
M  V30 1410 C 132.968 -3.6803 3.8651 0
M  V30 1411 O 133.191 -4.72413 3.1966 0
M  V30 1412 O 132.125 -3.6326 4.79923 0
M  V30 1413 H 135.951 -0.931988 2.89046 0
M  V30 1414 H 133.536 -0.395488 1.4407 0
M  V30 1415 H 135.418 -3.36008 2.54316 0
M  V30 1416 H 134.093 -2.89925 1.43963 0
M  V30 1417 H 133 -1.62017 3.37196 0
M  V30 1418 H 134.333 -2.14937 4.4279 0
M  V30 1419 N 135.985 -1.50799 -0.457987 0
M  V30 1420 C 137.401 -1.38515 -0.792819 0
M  V30 1421 C 137.601 -0.451409 -1.96379 0
M  V30 1422 O 136.657 0.10112 -2.52297 0
M  V30 1423 C 137.97 -2.80149 -1.09258 0
M  V30 1424 C 139.518 -2.89156 -1.19825 0
M  V30 1425 C 139.993 -4.31651 -1.53106 0
M  V30 1426 N 141.484 -4.34662 -1.60072 0
M  V30 1427 C 142.219 -5.41928 -1.87354 0
M  V30 1428 N 141.715 -6.59384 -2.12568 0
M  V30 1429 N 143.508 -5.29385 -1.88965 0
M  V30 1430 H 135.659 -2.10073 0.313511 0
M  V30 1431 H 137.922 -0.944803 0.0777862 0
M  V30 1432 H 137.628 -3.50374 -0.305084 0
M  V30 1433 H 137.502 -3.18204 -2.02549 0
M  V30 1434 H 139.889 -2.19141 -1.97639 0
M  V30 1435 H 139.97 -2.54626 -0.244821 0
M  V30 1436 H 139.614 -5.02208 -0.758266 0
M  V30 1437 H 139.544 -4.63678 -2.49621 0
M  V30 1438 H 142.035 -3.49973 -1.42573 0
M  V30 1439 H 142.348 -7.36934 -2.32696 0
M  V30 1440 H 140.693 -6.62535 -2.09933 0
M  V30 1441 H 143.884 -4.36616 -1.68772 0
M  V30 1442 H 144.057 -6.13066 -2.09891 0
M  V30 1443 N 137.463 0.71206 -1.40597 0
M  V30 1444 C 138.411 1.84746 -1.41321 0
M  V30 1445 C 139.405 1.66842 -0.293268 0
M  V30 1446 O 140.611 1.73904 -0.464481 0
M  V30 1447 H 136.986 0.608522 -0.441819 0
M  V30 1448 H 138.957 1.81252 -2.37045 0
M  V30 1449 C 137.706 3.22638 -1.29614 0
M  V30 1450 H 137.029 3.37023 -2.15071 0
M  V30 1451 H 138.469 4.02209 -1.3418 0
M  V30 1452 C 136.928 3.36899 -0.00673121 0
M  V30 1453 O 137.458 3.90186 0.954859 0
M  V30 1454 N 135.664 2.9053 0.0639327 0
M  V30 1455 H 135.211 2.47353 -0.719311 0
M  V30 1456 H 135.169 3.0045 0.926118 0
M  V30 1457 N 138.941 1.26152 0.944643 0
M  V30 1458 C 139.904 1.07474 2.0244 0
M  V30 1459 C 140.904 0.0242064 1.60782 0
M  V30 1460 O 142.094 0.267302 1.72137 0
M  V30 1461 C 139.226 0.633956 3.34953 0
M  V30 1462 H 140.419 2.03336 2.20442 0
M  V30 1463 H 137.972 1.087 1.12312 0
M  V30 1464 H 138.707 -0.326811 3.22649 0
M  V30 1465 H 138.492 1.39247 3.66542 0
M  V30 1466 H 139.982 0.52501 4.14287 0
M  V30 1467 N 140.419 -1.14872 1.07899 0
M  V30 1468 C 141.382 -2.17986 0.708161 0
M  V30 1469 C 142.382 -1.58775 -0.25442 0
M  V30 1470 O 143.572 -1.74166 -0.034645 0
M  V30 1471 C 140.704 -3.40871 0.0446929 0
M  V30 1472 H 141.897 -2.52306 1.62116 0
M  V30 1473 H 139.45 -1.2943 0.876218 0
M  V30 1474 H 140.185 -3.12124 -0.880281 0
M  V30 1475 H 139.97 -3.8511 0.737091 0
M  V30 1476 H 141.46 -4.17121 -0.19991 0
M  V30 1477 N 141.898 -0.863906 -1.31812 0
M  V30 1478 C 143.147 -0.46801 -1.96195 0
M  V30 1479 C 143.46 0.983474 -1.69077 0
M  V30 1480 O 144.666 1.48523 -2.27273 0
M  V30 1481 C 143.122 -0.785995 -3.51212 0
M  V30 1482 C 142.73 -2.25383 -3.87178 0
M  V30 1483 C 144.474 -0.458274 -4.22019 0
M  V30 1484 C 142.381 -2.51455 -5.3528 0
M  V30 1485 H 141.311 -0.171283 -0.734287 0
M  V30 1486 H 143.962 -1.05597 -1.50072 0
M  V30 1487 H 142.344 -0.127359 -3.95795 0
M  V30 1488 H 143.518 -2.95502 -3.53575 0
M  V30 1489 H 141.833 -2.54698 -3.2942 0
M  V30 1490 H 144.43 -0.630369 -5.30971 0
M  V30 1491 H 144.773 0.600834 -4.11941 0
M  V30 1492 H 145.306 -1.07319 -3.8305 0
M  V30 1493 H 142.045 -3.56025 -5.50387 0
M  V30 1494 H 141.565 -1.85923 -5.70257 0
M  V30 1495 H 143.244 -2.35874 -6.02472 0
M  V30 1496 N 143.376 1.44774 -0.622745 0
M  V30 1497 C 144.625 2.01334 -0.121397 0
M  V30 1498 C 144.938 1.49505 1.26125 0
M  V30 1499 O 146.144 1.98139 1.85616 0
M  V30 1500 C 144.6 3.59516 -0.166298 0
M  V30 1501 C 144.208 4.20342 -1.54974 0
M  V30 1502 C 145.952 4.23582 0.279021 0
M  V30 1503 C 143.859 5.70721 -1.55021 0
M  V30 1504 H 142.789 0.752851 -0.0416172 0
M  V30 1505 H 145.44 1.66083 -0.780309 0
M  V30 1506 H 143.822 3.92027 0.559557 0
M  V30 1507 H 144.996 3.99381 -2.29851 0
M  V30 1508 H 143.311 3.68529 -1.93843 0
M  V30 1509 H 145.908 5.33868 0.298083 0
M  V30 1510 H 146.251 3.95327 1.30471 0
M  V30 1511 H 146.784 3.95843 -0.394063 0
M  V30 1512 H 143.523 6.03698 -2.55399 0
M  V30 1513 H 143.043 5.93829 -0.844245 0
M  V30 1514 H 144.722 6.34203 -1.28047 0
M  V30 1515 N 144.854 0.36279 1.53368 0
M  V30 1516 C 146.131 -0.284021 1.93527 0
M  V30 1517 C 146.511 -1.66628 1.29608 0
M  V30 1518 O 145.859 -2.23942 0.45413 0
M  V30 1519 C 146.069 -0.337028 3.47369 0
M  V30 1520 C 147.417 -0.578708 4.20638 0
M  V30 1521 O 148.441 -0.418352 3.53735 0
M  V30 1522 O 147.3 -0.89074 5.39192 0
M  V30 1523 H 144.394 -0.169743 0.809393 0
M  V30 1524 H 146.94 0.41537 1.64538 0
M  V30 1525 H 145.712 0.632217 3.86159 0
M  V30 1526 H 145.335 -1.08243 3.82582 0
M  V30 1527 N 146.332 -1.57332 0.0918853 0
M  V30 1528 C 147.748 -1.57389 -0.264766 0
M  V30 1529 C 147.948 -1.10281 -1.68643 0
M  V30 1530 O 147.004 -0.777801 -2.40222 0
M  V30 1531 C 148.317 -3.00648 -0.0561195 0
M  V30 1532 C 149.865 -3.12754 -0.124116 0
M  V30 1533 C 150.34 -4.57965 0.0564972 0
M  V30 1534 N 151.831 -4.632 0.00155611 0
M  V30 1535 C 152.566 -5.73281 0.116598 0
M  V30 1536 N 152.062 -6.92208 0.286294 0
M  V30 1537 N 153.855 -5.6207 0.0580973 0
M  V30 1538 H 146.006 -1.86262 1.02079 0
M  V30 1539 H 148.269 -0.859579 0.399786 0
M  V30 1540 H 147.975 -3.393 0.925669 0
M  V30 1541 H 147.849 -3.68623 -0.799823 0
M  V30 1542 H 150.236 -2.73976 -1.09641 0
M  V30 1543 H 150.317 -2.47377 0.651024 0
M  V30 1544 H 149.961 -4.97436 1.02564 0
M  V30 1545 H 149.891 -5.21399 -0.738297 0
M  V30 1546 H 152.382 -3.77686 -0.127192 0
M  V30 1547 H 152.695 -7.71934 0.365676 0
M  V30 1548 H 151.04 -6.94254 0.32192 0
M  V30 1549 H 154.231 -4.68043 -0.0733204 0
M  V30 1550 H 154.404 -6.47824 0.151203 0
M  V30 1551 N 147.81 0.181792 -1.56548 0
M  V30 1552 C 148.773 1.20894 -1.94724 0
M  V30 1553 C 149.773 1.37738 -0.829747 0
M  V30 1554 O 150.963 1.35323 -1.09697 0
M  V30 1555 C 148.095 2.57593 -2.23291 0
M  V30 1556 H 149.288 0.882275 -2.86629 0
M  V30 1557 H 146.841 0.423838 -1.50444 0
M  V30 1558 H 147.576 2.95291 -1.34067 0
M  V30 1559 H 147.361 2.46735 -3.04736 0
M  V30 1560 H 148.851 3.31637 -2.53785 0
M  V30 1561 N 149.288 1.51039 0.449983 0
M  V30 1562 C 150.236 1.71995 1.5659 0
M  V30 1563 C 151.23 0.586029 1.5894 0
M  V30 1564 O 152.436 0.76709 1.62837 0
M  V30 1565 H 148.811 0.543233 0.520001 0
M  V30 1566 H 150.782 2.65562 1.36085 0
M  V30 1567 C 149.531 1.8506 2.9436 0
M  V30 1568 H 148.854 2.71712 2.93279 0
M  V30 1569 H 150.294 2.0374 3.71842 0
M  V30 1570 C 148.753 0.607277 3.31382 0
M  V30 1571 O 149.283 -0.243903 4.00959 0
M  V30 1572 N 147.489 0.455073 2.87015 0
M  V30 1573 H 147.036 1.14879 2.30566 0
M  V30 1574 H 146.994 -0.375611 3.12148 0
M  V30 1575 N 150.766 -0.704594 1.40972 0
M  V30 1576 C 151.713 -1.81862 1.42109 0
M  V30 1577 C 152.683 -1.63781 0.276593 0
M  V30 1578 O 153.868 -1.84759 0.4763 0
M  V30 1579 C 151.008 -3.19669 1.30022 0
M  V30 1580 C 150.121 -3.49246 2.54267 0
M  V30 1581 C 149.256 -4.76618 2.3454 0
M  V30 1582 C 148.295 -4.99133 3.54306 0
M  V30 1583 N 147.432 -6.17726 3.33706 0
M  V30 1584 H 152.272 -1.80226 2.37324 0
M  V30 1585 H 149.809 -0.880238 1.17857 0
M  V30 1586 H 151.767 -3.99263 1.21018 0
M  V30 1587 H 150.397 -3.20506 0.384192 0
M  V30 1588 H 149.449 -2.64125 2.73756 0
M  V30 1589 H 150.761 -3.61788 3.43381 0
M  V30 1590 H 149.915 -5.64249 2.22952 0
M  V30 1591 H 148.654 -4.66305 1.42867 0
M  V30 1592 H 147.659 -4.09953 3.66359 0
M  V30 1593 H 148.884 -5.11311 4.4692 0
M  V30 1594 H 146.83 -6.08642 2.44725 0
M  V30 1595 H 146.747 -6.30995 4.16391 0
M  V30 1596 H 148.015 -7.08115 3.25873 0
M  V30 1597 N 152.244 -1.26651 -0.937939 0
M  V30 1598 C 153.154 -1.10276 -2.07066 0
M  V30 1599 C 154.17 -0.0354197 -1.73964 0
M  V30 1600 O 155.346 -0.239816 -1.99967 0
M  V30 1601 C 152.411 -0.740887 -3.38691 0
M  V30 1602 C 151.472 -1.88799 -3.85556 0
M  V30 1603 C 150.705 -1.54329 -5.10899 0
M  V30 1604 O 150.928 -0.446494 -5.6865 0
M  V30 1605 O 149.862 -2.37911 -5.52885 0
M  V30 1606 H 153.688 -2.05309 -2.23789 0
M  V30 1607 H 151.273 -1.05743 -1.0554 0
M  V30 1608 H 153.155 -0.55195 -4.1777 0
M  V30 1609 H 151.83 0.180022 -3.23199 0
M  V30 1610 H 150.737 -2.13191 -3.07409 0
M  V30 1611 H 152.07 -2.78874 -4.05574 0
M  V30 1612 N 153.722 1.14298 -1.08507 0
M  V30 1613 C 154.654 2.1907 -0.673859 0
M  V30 1614 C 155.667 1.60381 0.279577 0
M  V30 1615 O 156.856 1.78374 0.0670754 0
M  V30 1616 C 153.956 3.38888 0.0290979 0
M  V30 1617 C 153.129 4.27103 -0.943494 0
M  V30 1618 C 152.188 5.25477 -0.275676 0
M  V30 1619 O 151.214 5.61709 -0.920401 0
M  V30 1620 N 152.416 5.7227 0.974013 0
M  V30 1621 H 155.181 2.54965 -1.57521 0
M  V30 1622 H 152.742 1.29528 -0.971287 0
M  V30 1623 H 154.734 4.01761 0.48683 0
M  V30 1624 H 153.304 3.01309 0.832555 0
M  V30 1625 H 152.524 3.61149 -1.58004 0
M  V30 1626 H 153.812 4.82905 -1.60251 0
M  V30 1627 H 153.21 5.44965 1.51755 0
M  V30 1628 H 151.767 6.37127 1.37522 0
M  V30 1629 N 155.201 0.870884 1.31352 0
M  V30 1630 C 156.111 0.330783 2.32256 0
M  V30 1631 C 157.127 -0.559767 1.6475 0
M  V30 1632 O 158.303 -0.456263 1.96164 0
M  V30 1633 C 155.368 -0.458137 3.4366 0
M  V30 1634 C 154.429 0.460482 4.26823 0
M  V30 1635 C 153.662 -0.290881 5.32907 0
M  V30 1636 O 153.885 -1.51885 5.49806 0
M  V30 1637 O 152.819 0.351732 6.00871 0
M  V30 1638 H 156.645 1.16718 2.80376 0
M  V30 1639 H 154.23 0.634285 1.35267 0
M  V30 1640 H 156.112 -0.905343 4.1156 0
M  V30 1641 H 154.787 -1.27106 2.97701 0
M  V30 1642 H 153.694 0.956207 3.61673 0
M  V30 1643 H 155.027 1.23903 4.7635 0
M  V30 1644 N 156.679 -1.44442 0.630414 0
M  V30 1645 C 157.907 -2.06414 0.141671 0
M  V30 1646 C 158.322 -1.47105 -1.18345 0
M  V30 1647 O 157.679 -0.593662 -1.72574 0
M  V30 1648 C 157.73 -3.61494 0.0199784 0
M  V30 1649 O 157.451 -4.18594 1.29269 0
M  V30 1650 C 158.952 -4.40499 -0.497544 0
M  V30 1651 H 156.172 -0.666292 0.0793452 0
M  V30 1652 H 158.716 -1.85323 0.864614 0
M  V30 1653 H 156.871 -3.8185 -0.653402 0
M  V30 1654 H 157.285 -5.12026 1.13707 0
M  V30 1655 H 158.759 -5.49433 -0.531708 0
M  V30 1656 H 159.236 -4.11895 -1.52445 0
M  V30 1657 H 159.842 -4.25061 0.142562 0
M  V30 1658 N 158.157 -0.370918 -1.53173 0
M  V30 1659 C 159.067 0.480823 -2.2962 0
M  V30 1660 C 160.083 1.08789 -1.35798 0
M  V30 1661 O 161.259 1.09768 -1.68858 0
M  V30 1662 C 158.324 1.60227 -3.07454 0
M  V30 1663 C 157.385 1.0222 -4.16953 0
M  V30 1664 C 156.618 2.0902 -4.91066 0
M  V30 1665 O 156.841 3.30222 -4.65091 0
M  V30 1666 O 155.775 1.71778 -5.76867 0
M  V30 1667 H 159.601 -0.141421 -3.03371 0
M  V30 1668 H 157.186 -0.135146 -1.48787 0
M  V30 1669 H 159.068 2.25417 -3.56041 0
M  V30 1670 H 157.743 2.20982 -2.36535 0
M  V30 1671 H 156.65 0.334064 -3.72605 0
M  V30 1672 H 157.983 0.459131 -4.90054 0
M  V30 1673 N 159.635 1.57281 -0.100228 0
M  V30 1674 C 160.598 2.13158 0.842398 0
M  V30 1675 C 161.598 1.06202 1.20738 0
M  V30 1676 O 162.788 1.32066 1.13597 0
M  V30 1677 C 159.92 2.65639 2.13655 0
M  V30 1678 H 161.113 2.97766 0.357114 0
M  V30 1679 H 158.666 1.5559 0.148823 0
M  V30 1680 H 159.401 1.84566 2.66657 0
M  V30 1681 H 159.186 3.43844 1.88451 0
M  V30 1682 H 160.676 3.08846 2.81077 0
M  V30 1683 N 161.113 -0.173488 1.56642 0
M  V30 1684 C 162.359 -0.891784 1.8214 0
M  V30 1685 C 162.692 -1.8199 0.677736 0
M  V30 1686 O 161.967 -1.91842 -0.320446 0
M  V30 1687 C 162.25 -1.68933 3.18015 0
M  V30 1688 C 162.103 -0.784487 4.42906 0
M  V30 1689 C 163.422 -2.65748 3.50808 0
M  V30 1690 H 160.541 -0.322761 0.662567 0
M  V30 1691 H 163.183 -0.158095 1.89341 0
M  V30 1692 H 161.333 -2.31482 3.12007 0
M  V30 1693 H 163.005 -0.172046 4.60979 0
M  V30 1694 H 161.248 -0.0924117 4.33702 0
M  V30 1695 H 161.919 -1.37799 5.34524 0
M  V30 1696 H 164.395 -2.13327 3.57255 0
M  V30 1697 H 163.271 -3.18619 4.4696 0
M  V30 1698 H 163.532 -3.45842 2.75401 0
M  V30 1699 N 162.591 -1.51276 -0.441967 0
M  V30 1700 C 163.539 -1.72823 -1.55676 0
M  V30 1701 C 164.533 -0.59445 -1.58627 0
M  V30 1702 O 165.739 -0.775715 -1.62427 0
M  V30 1703 H 162.114 -0.545983 -0.517113 0
M  V30 1704 H 164.085 -2.6628 -1.34675 0
M  V30 1705 C 162.834 -1.86619 -2.93375 0
M  V30 1706 H 162.157 -2.73264 -2.91834 0
M  V30 1707 H 163.597 -2.05709 -3.70756 0
M  V30 1708 C 162.056 -0.624842 -3.31055 0
M  V30 1709 O 162.586 0.222636 -4.01083 0
M  V30 1710 N 160.792 -0.470288 -2.86769 0
M  V30 1711 H 160.339 -1.161 -2.29953 0
M  V30 1712 H 160.297 0.359051 -3.12343 0
M  V30 1713 N 164.069 0.697108 -1.41344 0
M  V30 1714 C 165.016 1.81106 -1.43071 0
M  V30 1715 C 165.986 1.63632 -0.285275 0
M  V30 1716 O 167.171 1.84504 -0.486091 0
M  V30 1717 C 164.311 3.18975 -1.31715 0
M  V30 1718 C 163.424 3.47892 -2.56115 0
M  V30 1719 C 162.559 4.75367 -2.37064 0
M  V30 1720 C 161.598 4.97247 -3.56948 0
M  V30 1721 N 160.735 6.15947 -3.36977 0
M  V30 1722 H 165.575 1.78965 -2.38276 0
M  V30 1723 H 163.112 0.873975 -1.18322 0
M  V30 1724 H 165.07 3.98615 -1.23133 0
M  V30 1725 H 163.7 3.20297 -0.401183 0
M  V30 1726 H 162.752 2.62669 -2.75153 0
M  V30 1727 H 164.064 3.59962 -3.45295 0
M  V30 1728 H 163.218 5.63059 -2.25941 0
M  V30 1729 H 161.957 4.65541 -1.45338 0
M  V30 1730 H 160.962 4.08004 -3.68527 0
M  V30 1731 H 162.187 5.08934 -4.49626 0
M  V30 1732 H 160.133 6.07336 -2.47949 0
M  V30 1733 H 160.05 6.28777 -4.19732 0
M  V30 1734 H 161.318 7.06377 -3.29623 0
M  V30 1735 N 165.547 1.27147 0.931209 0
M  V30 1736 C 166.48 1.0389 2.0318 0
M  V30 1737 C 167.458 -0.0395716 1.62552 0
M  V30 1738 O 168.642 0.104867 1.88208 0
M  V30 1739 C 165.769 0.575227 3.3378 0
M  V30 1740 C 164.815 1.64774 3.93385 0
M  V30 1741 S 165.648 3.23933 4.26413 0
M  V30 1742 C 166.804 2.79358 5.60098 0
M  V30 1743 H 167.037 1.97075 2.22596 0
M  V30 1744 H 164.57 1.10938 1.07387 0
M  V30 1745 H 166.528 0.314385 4.09294 0
M  V30 1746 H 165.189 -0.336505 3.12292 0
M  V30 1747 H 164.382 1.27454 4.87618 0
M  V30 1748 H 163.984 1.86048 3.24441 0
M  V30 1749 H 166.276 2.24443 6.39243 0
M  V30 1750 H 167.219 3.72322 6.02314 0
M  V30 1751 H 167.627 2.1861 5.20452 0
M  V30 1752 N 167.025 -1.13721 1.09112 0
M  V30 1753 C 168.274 -1.84275 0.82009 0
M  V30 1754 C 168.587 -1.84253 -0.656509 0
M  V30 1755 O 169.793 -2.50668 -1.04296 0
M  V30 1756 C 168.249 -3.30825 1.41714 0
M  V30 1757 C 167.857 -3.39244 2.92605 0
M  V30 1758 C 169.601 -4.06443 1.22492 0
M  V30 1759 C 167.508 -4.80047 3.45411 0
M  V30 1760 H 166.438 -0.690387 0.30312 0
M  V30 1761 H 169.089 -1.28146 1.31343 0
M  V30 1762 H 167.471 -3.86737 0.851498 0
M  V30 1763 H 168.645 -2.93344 3.55367 0
M  V30 1764 H 166.96 -2.77088 3.10823 0
M  V30 1765 H 169.557 -5.10387 1.59402 0
M  V30 1766 H 169.9 -4.15972 0.165299 0
M  V30 1767 H 170.433 -3.56852 1.75788 0
M  V30 1768 H 167.172 -4.75709 4.50978 0
M  V30 1769 H 166.692 -5.26455 2.87411 0
M  V30 1770 H 168.371 -5.48957 3.42425 0
M  V30 1771 N 168.503 -0.877838 -1.30888 0
M  V30 1772 C 169.728 -0.506629 -2.01117 0
M  V30 1773 C 170.153 0.895564 -1.65412 0
M  V30 1774 O 169.511 1.5923 -0.866922 0
M  V30 1775 C 169.559 -0.680223 -3.54126 0
M  V30 1776 O 168.663 0.277033 -4.11468 0
M  V30 1777 H 168.004 -0.200518 -0.633 0
M  V30 1778 H 170.534 -1.18342 -1.66902 0
M  V30 1779 H 170.544 -0.5765 -4.03907 0
M  V30 1780 H 169.219 -1.70261 -3.79452 0
M  V30 1781 H 167.796 0.127606 -3.72682 0
M  V30 1782 N 169.982 1.44106 -0.638065 0
M  V30 1783 C 171.21 2.06336 -0.152615 0
M  V30 1784 C 171.625 1.47731 1.17563 0
M  V30 1785 O 170.982 0.602806 1.72257 0
M  V30 1786 C 171.033 3.61479 -0.0391491 0
M  V30 1787 O 170.754 4.17903 -1.31487 0
M  V30 1788 C 172.255 4.40757 0.474176 0
M  V30 1789 H 169.475 0.665862 -0.0828776 0
M  V30 1790 H 172.019 1.84862 -0.87443 0
M  V30 1791 H 170.174 3.82191 0.633142 0
M  V30 1792 H 170.588 5.11416 -1.16421 0
M  V30 1793 H 172.062 5.49707 0.502562 0
M  V30 1794 H 172.539 4.12697 1.50258 0
M  V30 1795 H 173.145 4.24979 -0.165102 0
M  V30 1796 N 171.46 0.379036 1.52974 0
M  V30 1797 C 172.708 -0.206014 2.01047 0
M  V30 1798 C 173.029 -1.48175 1.26765 0
M  V30 1799 O 172.299 -1.92085 0.384743 0
M  V30 1800 H 170.879 -0.0791184 0.742798 0
M  V30 1801 H 173.541 0.508366 1.88153 0
M  V30 1802 H 172.637 -0.423501 3.09213 0
M  V30 1803 N 172.938 -1.57226 0.108567 0
M  V30 1804 C 173.901 -2.13602 -0.831082 0
M  V30 1805 C 174.901 -1.06841 -1.20173 0
M  V30 1806 O 176.091 -1.32666 -1.12895 0
M  V30 1807 C 173.223 -2.66769 -2.12243 0
M  V30 1808 H 174.416 -2.97951 -0.341317 0
M  V30 1809 H 171.969 -1.55667 -0.14057 0
M  V30 1810 H 172.704 -1.85977 -2.65675 0
M  V30 1811 H 172.489 -3.44839 -1.86625 0
M  V30 1812 H 173.979 -3.10332 -2.79435 0
M  V30 1813 N 174.416 0.165178 -1.56732 0
M  V30 1814 C 175.832 0.517174 -1.50988 0
M  V30 1815 C 176.032 1.84331 -0.813894 0
M  V30 1816 O 175.088 2.49672 -0.37682 0
M  V30 1817 C 176.401 0.544261 -2.95733 0
M  V30 1818 C 177.949 0.631039 -3.06573 0
M  V30 1819 C 178.424 0.68896 -4.52788 0
M  V30 1820 N 179.915 0.751683 -4.5706 0
M  V30 1821 C 180.65 0.817177 -5.67547 0
M  V30 1822 N 180.146 0.843129 -6.8765 0
M  V30 1823 N 181.939 0.856668 -5.55534 0
M  V30 1824 H 174.09 -0.704318 -2.00382 0
M  V30 1825 H 176.353 -0.254687 -0.913148 0
M  V30 1826 H 176.059 -0.361607 -3.49836 0
M  V30 1827 H 175.933 1.3886 -3.5071 0
M  V30 1828 H 178.32 1.52733 -2.52501 0
M  V30 1829 H 178.401 -0.240095 -2.54671 0
M  V30 1830 H 178.045 -0.2031 -5.07494 0
M  V30 1831 H 177.975 1.57633 -5.02454 0
M  V30 1832 H 180.466 0.739661 -3.70591 0
M  V30 1833 H 180.779 0.894448 -7.67606 0
M  V30 1834 H 179.124 0.811304 -6.90248 0
M  V30 1835 H 182.315 0.833437 -4.60621 0
M  V30 1836 H 182.488 0.904247 -6.4166 0
M  V30 1837 N 175.894 1.51508 0.433938 0
M  V30 1838 C 176.824 1.76016 1.53429 0
M  V30 1839 C 177.805 0.610112 1.58782 0
M  V30 1840 O 178.99 0.853177 1.74455 0
M  V30 1841 C 176.12 1.88831 2.9148 0
M  V30 1842 C 175.074 3.04288 3.00987 0
M  V30 1843 C 174.4 3.0229 4.4105 0
M  V30 1844 C 175.7 4.44193 2.74754 0
M  V30 1845 H 177.394 2.68152 1.33171 0
M  V30 1846 H 174.94 1.29035 0.639214 0
M  V30 1847 H 176.893 2.04559 3.6842 0
M  V30 1848 H 175.617 0.933455 3.12976 0
M  V30 1849 H 174.276 2.8827 2.26486 0
M  V30 1850 H 173.924 2.04576 4.59519 0
M  V30 1851 H 173.624 3.79822 4.4834 0
M  V30 1852 H 175.148 3.20116 5.1996 0
M  V30 1853 H 176.562 4.60544 3.41426 0
M  V30 1854 H 174.959 5.23457 2.9345 0
M  V30 1855 H 176.029 4.53996 1.70339 0
M  V30 1856 N 177.372 -0.689602 1.41712 0
M  V30 1857 C 178.335 -1.78521 1.43746 0
M  V30 1858 C 179.335 -1.57436 0.327191 0
M  V30 1859 O 180.525 -1.64 0.587348 0
M  V30 1860 C 177.657 -3.16971 1.25467 0
M  V30 1861 H 178.85 -1.78108 2.41283 0
M  V30 1862 H 176.403 -0.89781 1.27942 0
M  V30 1863 H 177.138 -3.23019 0.287948 0
M  V30 1864 H 176.923 -3.33678 2.05917 0
M  V30 1865 H 178.413 -3.96935 1.2974 0
M  V30 1866 N 178.85 -1.27639 -0.924453 0
M  V30 1867 C 179.813 -1.10681 -2.00705 0
M  V30 1868 C 180.813 -0.0497823 -1.60723 0
M  V30 1869 O 182.003 -0.294654 -1.7169 0
M  V30 1870 C 179.135 -0.687164 -3.33902 0
M  V30 1871 H 180.328 -2.06817 -2.17179 0
M  V30 1872 H 177.881 -1.10473 -1.10569 0
M  V30 1873 H 178.616 0.275439 -3.23128 0
M  V30 1874 H 178.401 -1.45061 -3.6428 0
M  V30 1875 H 179.891 -0.590853 -4.13399 0
M  V30 1876 N 180.328 1.1314 -1.09713 0
M  V30 1877 C 181.553 1.88862 -0.857081 0
M  V30 1878 C 181.978 1.78729 0.586304 0
M  V30 1879 O 181.336 1.13692 1.41222 0
M  V30 1880 C 181.384 3.36325 -1.30069 0
M  V30 1881 O 180.488 4.09815 -0.461007 0
M  V30 1882 H 179.829 0.587108 -0.310162 0
M  V30 1883 H 182.359 1.43129 -1.46203 0
M  V30 1884 H 182.369 3.87157 -1.28738 0
M  V30 1885 H 181.044 3.43017 -2.35185 0
M  V30 1886 H 179.621 3.68986 -0.538888 0
M  V30 1887 N 181.806 0.884767 1.30421 0
M  V30 1888 C 183.054 0.502112 1.95763 0
M  V30 1889 C 183.375 -0.951815 1.70192 0
M  V30 1890 O 182.645 -1.6692 1.0254 0
M  V30 1891 H 181.225 0.182694 0.724315 0
M  V30 1892 H 183.887 1.1278 1.58955 0
M  V30 1893 H 182.983 0.672188 3.04775 0
M  V30 1894 N 183.284 -1.43765 0.645699 0
M  V30 1895 C 184.7 -1.56509 0.312591 0
M  V30 1896 C 184.9 -1.6307 -1.18365 0
M  V30 1897 O 183.956 -1.58167 -1.96824 0
M  V30 1898 C 185.269 -2.82968 1.01733 0
M  V30 1899 C 186.817 -2.96701 0.996865 0
M  V30 1900 C 187.292 -4.25982 1.68236 0
M  V30 1901 N 188.783 -4.32829 1.64964 0
M  V30 1902 C 189.518 -5.31613 2.14885 0
M  V30 1903 N 189.014 -6.36718 2.73061 0
M  V30 1904 N 190.807 -5.23217 2.05428 0
M  V30 1905 H 182.958 -1.3775 1.61675 0
M  V30 1906 H 185.221 -0.661067 0.679481 0
M  V30 1907 H 184.927 -2.84156 2.0724 0
M  V30 1908 H 184.801 -3.72957 0.564177 0
M  V30 1909 H 187.188 -2.95058 -0.0497719 0
M  V30 1910 H 187.269 -2.08022 1.48865 0
M  V30 1911 H 186.913 -4.28386 2.72852 0
M  V30 1912 H 186.843 -5.13545 1.16529 0
M  V30 1913 H 189.334 -3.57493 1.22503 0
M  V30 1914 H 189.647 -7.08401 3.08848 0
M  V30 1915 H 187.992 -6.37362 2.77118 0
M  V30 1916 H 191.183 -4.40019 1.59689 0
M  V30 1917 H 191.356 -6.00045 2.44643 0
M  V30 1918 N 184.763 -0.387143 -1.52771 0
M  V30 1919 C 185.726 0.436939 -2.24997 0
M  V30 1920 C 186.726 0.991991 -1.26555 0
M  V30 1921 O 187.916 0.874335 -1.50669 0
M  V30 1922 C 185.048 1.61281 -3.00335 0
M  V30 1923 H 186.241 -0.195365 -2.99263 0
M  V30 1924 H 183.794 -0.139218 -1.55679 0
M  V30 1925 H 184.529 2.2826 -2.30364 0
M  V30 1926 H 184.314 1.22154 -3.72587 0
M  V30 1927 H 185.804 2.19629 -3.5518 0
M  V30 1928 N 186.241 1.57166 -0.116904 0
M  V30 1929 C 187.466 1.999 0.55271 0
M  V30 1930 C 187.891 0.996039 1.59564 0
M  V30 1931 O 187.249 -0.032556 1.81271 0
M  V30 1932 C 187.297 3.4152 1.15742 0
M  V30 1933 O 186.401 3.44106 2.27299 0
M  V30 1934 H 185.742 0.649447 0.138258 0
M  V30 1935 H 188.272 2.03573 -0.204759 0
M  V30 1936 H 188.282 3.79684 1.49346 0
M  V30 1937 H 186.957 4.14034 0.393493 0
M  V30 1938 H 185.534 3.17759 1.9515 0
M  V30 1939 N 187.719 -0.156864 1.56817 0
M  V30 1940 C 188.996 -0.899244 1.73704 0
M  V30 1941 C 189.376 -1.99771 0.682254 0
M  V30 1942 O 188.724 -2.26515 -0.300522 0
M  V30 1943 C 188.934 -1.45075 3.17418 0
M  V30 1944 C 190.282 -1.91802 3.7881 0
M  V30 1945 O 191.306 -1.54838 3.20786 0
M  V30 1946 O 190.165 -2.5994 4.80722 0
M  V30 1947 H 187.259 -0.424267 0.709878 0
M  V30 1948 H 189.805 -0.143561 1.69092 0
M  V30 1949 H 188.577 -0.660846 3.85679 0
M  V30 1950 H 188.2 -2.27021 3.26416 0
M  V30 1951 N 189.197 -1.51736 -0.425897 0
M  V30 1952 C 190.443 -1.65214 -1.1761 0
M  V30 1953 C 190.776 -0.372778 -1.90589 0
M  V30 1954 O 190.051 0.628139 -1.84078 0
M  V30 1955 C 190.334 -2.86312 -2.18398 0
M  V30 1956 C 190.187 -4.24254 -1.49426 0
M  V30 1957 C 191.506 -3.02925 -3.19256 0
M  V30 1958 H 188.625 -0.601263 -0.426206 0
M  V30 1959 H 191.267 -1.8425 -0.463882 0
M  V30 1960 H 189.417 -2.70213 -2.79137 0
M  V30 1961 H 191.089 -4.52046 -0.919362 0
M  V30 1962 H 189.332 -4.26426 -0.796432 0
M  V30 1963 H 190.003 -5.05001 -2.22885 0
M  V30 1964 H 192.479 -3.1781 -2.68581 0
M  V30 1965 H 191.355 -3.89199 -3.8706 0
M  V30 1966 H 191.616 -2.15497 -3.86023 0
M  V30 1967 N 190.675 0.682077 -1.42076 0
M  V30 1968 C 191.638 1.77756 -1.44691 0
M  V30 1969 C 192.638 1.5726 -0.335535 0
M  V30 1970 O 193.828 1.63686 -0.596037 0
M  V30 1971 C 190.96 3.16301 -1.27146 0
M  V30 1972 H 192.153 1.76826 -2.42224 0
M  V30 1973 H 189.706 0.891012 -1.28416 0
M  V30 1974 H 190.441 3.22862 -0.305075 0
M  V30 1975 H 190.226 3.32581 -2.07683 0
M  V30 1976 H 191.716 3.96241 -1.31843 0
M  V30 1977 N 192.153 1.28127 0.917671 0
M  V30 1978 C 193.103 1.08361 2.00604 0
M  V30 1979 C 194.087 0.00847518 1.60898 0
M  V30 1980 O 195.279 0.228167 1.75523 0
M  V30 1981 C 192.408 0.743376 3.35155 0
M  V30 1982 C 191.494 1.85716 3.81275 0
M  V30 1983 N 191.885 3.09822 3.99805 0
M  V30 1984 C 190.183 1.74612 4.10398 0
M  V30 1985 C 190.884 3.82368 4.38372 0
M  V30 1986 N 189.86 3.10192 4.4641 0
M  V30 1987 H 193.662 2.02531 2.12975 0
M  V30 1988 H 191.176 1.18989 1.10523 0
M  V30 1989 H 193.173 0.582859 4.12805 0
M  V30 1990 H 191.833 -0.190595 3.2414 0
M  V30 1991 H 192.844 3.45475 3.85833 0
M  V30 1992 H 189.521 0.883657 4.08041 0
M  V30 1993 H 190.911 4.89082 4.60704 0
M  V30 1994 N 193.631 -1.12557 1.10312 0
M  V30 1995 C 194.856 -1.88405 0.867085 0
M  V30 1996 C 195.281 -1.79038 -0.576817 0
M  V30 1997 O 194.639 -1.14439 -1.40618 0
M  V30 1998 C 194.687 -3.3563 1.31851 0
M  V30 1999 O 193.791 -4.09565 0.482734 0
M  V30 2000 H 193.132 -0.585455 0.313271 0
M  V30 2001 H 195.662 -1.42352 1.4696 0
M  V30 2002 H 195.672 -3.86469 1.3079 0
M  V30 2003 H 194.347 -3.41765 2.37001 0
M  V30 2004 H 192.924 -3.68695 0.558448 0
M  V30 2005 N 195.109 -0.891671 -1.2995 0
M  V30 2006 C 196.042 -0.307994 -2.26112 0
M  V30 2007 C 197.02 0.575262 -1.52084 0
M  V30 2008 O 198.204 0.523864 -1.81074 0
M  V30 2009 C 195.331 0.561734 -3.34009 0
M  V30 2010 C 194.377 -0.253107 -4.25748 0
M  V30 2011 S 195.21 -1.64572 -5.09584 0
M  V30 2012 C 196.366 -0.782699 -6.20987 0
M  V30 2013 H 196.599 -1.12309 -2.75271 0
M  V30 2014 H 194.132 -0.691509 -1.38049 0
M  V30 2015 H 196.09 1.05777 -3.96638 0
M  V30 2016 H 194.751 1.35099 -2.83561 0
M  V30 2017 H 193.944 0.410908 -5.02322 0
M  V30 2018 H 193.546 -0.682004 -3.67729 0
M  V30 2019 H 195.838 -0.00257476 -6.775 0
M  V30 2020 H 196.781 -1.52026 -6.91588 0
M  V30 2021 H 197.189 -0.340638 -5.63471 0
M  V30 2022 N 196.587 1.43421 -0.653314 0
M  V30 2023 C 197.833 2.02111 -0.166992 0
M  V30 2024 C 198.166 1.51423 1.21592 0
M  V30 2025 O 197.441 0.707389 1.8118 0
M  V30 2026 C 197.724 3.5966 -0.177948 0
M  V30 2027 C 197.577 4.20579 -1.59478 0
M  V30 2028 C 198.896 4.37413 0.4856 0
M  V30 2029 H 196.015 0.734374 -0.0621557 0
M  V30 2030 H 198.657 1.70717 -0.834016 0
M  V30 2031 H 196.807 3.86537 0.390032 0
M  V30 2032 H 198.479 4.04732 -2.21336 0
M  V30 2033 H 196.722 3.77226 -2.14204 0
M  V30 2034 H 197.393 5.29665 -1.5543 0
M  V30 2035 H 199.869 4.161 0.00234528 0
M  V30 2036 H 198.745 5.47075 0.447207 0
M  V30 2037 H 199.006 4.13672 1.55974 0
M  V30 2038 N 198.065 0.39524 1.52563 0
M  V30 2039 C 199.313 -0.184678 2.01254 0
M  V30 2040 C 199.634 -1.46822 1.28329 0
M  V30 2041 O 198.904 -1.91666 0.405094 0
M  V30 2042 H 197.484 -0.0712355 0.743596 0
M  V30 2043 H 200.146 0.528293 1.87603 0
M  V30 2044 H 199.242 -0.390681 3.09645 0
M  V30 2045 N 199.544 -1.57102 0.125237 0
M  V30 2046 C 200.821 -1.86953 -0.575142 0
M  V30 2047 C 201.201 -1.02749 -1.84407 0
M  V30 2048 O 200.549 -0.108144 -2.28244 0
M  V30 2049 C 200.759 -3.38198 -0.861583 0
M  V30 2050 C 202.107 -4.06937 -1.21192 0
M  V30 2051 O 203.131 -3.43252 -0.951645 0
M  V30 2052 O 201.99 -5.19364 -1.70068 0
M  V30 2053 H 199.084 -0.774147 -0.290906 0
M  V30 2054 H 201.63 -1.68942 0.160211 0
M  V30 2055 H 200.402 -3.91282 0.0373647 0
M  V30 2056 H 200.025 -3.61661 -1.65188 0
M  V30 2057 N 201.022 0.148545 -1.56898 0
M  V30 2058 C 201.985 1.16736 -1.97244 0
M  V30 2059 C 202.985 1.35947 -0.858777 0
M  V30 2060 O 204.175 1.32966 -1.12542 0
M  V30 2061 C 201.307 2.52798 -2.28705 0
M  V30 2062 H 202.5 0.821279 -2.88435 0
M  V30 2063 H 200.053 0.391831 -1.51309 0
M  V30 2064 H 200.788 2.92381 -1.403 0
M  V30 2065 H 200.573 2.40216 -3.09901 0
M  V30 2066 H 202.063 3.26179 -2.60762 0
M  V30 2067 N 202.5 1.5196 0.417844 0
M  V30 2068 C 203.746 1.65836 1.16732 0
M  V30 2069 C 204.079 0.382881 1.90388 0
M  V30 2070 O 203.354 -0.618368 1.84408 0
M  V30 2071 C 203.637 2.87466 2.16876 0
M  V30 2072 C 203.49 4.25041 1.47174 0
M  V30 2073 C 204.809 3.04613 3.17646 0
M  V30 2074 H 201.928 0.603515 0.423011 0
M  V30 2075 H 204.57 1.84494 0.454105 0
M  V30 2076 H 202.72 2.71689 2.777 0
M  V30 2077 H 204.392 4.52527 0.895376 0
M  V30 2078 H 202.635 4.26843 0.773806 0
M  V30 2079 H 203.306 5.06176 2.20204 0
M  V30 2080 H 205.782 3.1923 2.66892 0
M  V30 2081 H 204.658 3.91247 3.8499 0
M  V30 2082 H 204.919 2.17541 3.84874 0
M  V30 2083 N 203.978 -0.674533 1.42435 0
M  V30 2084 C 204.926 -1.80934 1.46169 0
M  V30 2085 C 205.92 -1.66006 0.3374 0
M  V30 2086 O 207.126 -1.72611 0.510425 0
M  V30 2087 H 203.501 -0.596594 0.457798 0
M  V30 2088 H 205.472 -1.74903 2.41767 0
M  V30 2089 C 204.221 -3.19088 1.38123 0
M  V30 2090 H 203.544 -3.31203 2.23931 0
M  V30 2091 H 204.984 -3.9851 1.44797 0
M  V30 2092 C 203.443 -3.36763 0.0960517 0
M  V30 2093 O 203.973 -3.92581 -0.851073 0
M  V30 2094 N 202.179 -2.90597 0.0131186 0
M  V30 2095 H 201.726 -2.45359 0.784639 0
M  V30 2096 H 201.684 -3.028 -0.846133 0
M  V30 2097 N 205.456 -1.28612 -0.910864 0
M  V30 2098 C 206.388 -1.08589 -2.01844 0
M  V30 2099 C 207.401 -0.0367419 -1.62759 0
M  V30 2100 O 208.59 -0.280101 -1.76289 0
M  V30 2101 C 205.69 -0.628626 -3.33019 0
M  V30 2102 C 204.863 -1.75382 -4.00699 0
M  V30 2103 C 203.922 -1.28945 -5.10156 0
M  V30 2104 O 202.948 -1.9922 -5.33198 0
M  V30 2105 N 204.15 -0.154224 -5.80295 0
M  V30 2106 H 206.915 -2.03973 -2.19579 0
M  V30 2107 H 204.476 -1.20403 -1.08234 0
M  V30 2108 H 206.468 -0.301508 -4.03575 0
M  V30 2109 H 205.038 0.232451 -3.11735 0
M  V30 2110 H 204.258 -2.25039 -3.23653 0
M  V30 2111 H 205.546 -2.50854 -4.42662 0
M  V30 2112 H 204.944 0.43194 -5.64049 0
M  V30 2113 H 203.501 0.113599 -6.51701 0
M  V30 2114 N 206.934 1.1197 -1.10907 0
M  V30 2115 C 207.844 2.21433 -0.774896 0
M  V30 2116 C 208.86 1.72478 0.229657 0
M  V30 2117 O 210.036 2.01288 0.0672008 0
M  V30 2118 C 207.101 3.4602 -0.216986 0
M  V30 2119 C 206.162 4.09791 -1.27944 0
M  V30 2120 C 205.395 5.28431 -0.748055 0
M  V30 2121 O 205.618 5.68823 0.423833 0
M  V30 2122 O 204.552 5.82644 -1.51027 0
M  V30 2123 H 208.378 2.5242 -1.68873 0
M  V30 2124 H 205.963 1.20399 -0.884555 0
M  V30 2125 H 207.845 4.21304 0.090059 0
M  V30 2126 H 206.52 3.16698 0.669633 0
M  V30 2127 H 205.427 3.36265 -1.63941 0
M  V30 2128 H 206.76 4.4328 -2.13925 0
M  V30 2129 N 208.412 0.89855 1.29475 0
M  V30 2130 C 209.661 0.519863 1.94885 0
M  V30 2131 C 209.974 -0.9383 1.71625 0
M  V30 2132 O 211.18 -1.42445 2.31131 0
M  V30 2133 C 209.636 0.878836 3.49005 0
M  V30 2134 C 209.244 2.35569 3.81066 0
M  V30 2135 C 210.988 0.570004 4.20656 0
M  V30 2136 C 208.895 2.65558 5.28425 0
M  V30 2137 H 207.825 0.190692 0.729488 0
M  V30 2138 H 210.476 1.09539 1.47219 0
M  V30 2139 H 208.858 0.232253 3.95318 0
M  V30 2140 H 210.032 3.04773 3.45616 0
M  V30 2141 H 208.347 2.63343 3.22552 0
M  V30 2142 H 210.944 0.770925 5.29113 0
M  V30 2143 H 211.287 -0.491404 4.1339 0
M  V30 2144 H 211.82 1.17438 3.8007 0
M  V30 2145 H 208.559 3.70493 5.40754 0
M  V30 2146 H 208.079 2.00977 5.65127 0
M  V30 2147 H 209.758 2.51765 5.96006 0
M  V30 2148 N 209.89 -1.43072 0.660911 0
M  V30 2149 C 210.837 -2.30785 -0.0259884 0
M  V30 2150 C 211.807 -1.45184 -0.806888 0
M  V30 2151 O 212.992 -1.74041 -0.781943 0
M  V30 2152 C 210.132 -3.30861 -0.981067 0
M  V30 2153 C 209.245 -4.31558 -0.195458 0
M  V30 2154 C 208.38 -5.18712 -1.14503 0
M  V30 2155 C 207.419 -6.11097 -0.350299 0
M  V30 2156 N 206.556 -6.90849 -1.25186 0
M  V30 2157 H 211.396 -2.88975 0.727846 0
M  V30 2158 H 208.933 -1.42353 0.370682 0
M  V30 2159 H 210.891 -3.87399 -1.54849 0
M  V30 2160 H 209.521 -2.74304 -1.70169 0
M  V30 2161 H 208.573 -3.77252 0.488374 0
M  V30 2162 H 209.885 -4.9701 0.422176 0
M  V30 2163 H 209.039 -5.79914 -1.78284 0
M  V30 2164 H 207.778 -4.53404 -1.79656 0
M  V30 2165 H 206.783 -5.48976 0.300808 0
M  V30 2166 H 208.008 -6.7845 0.296941 0
M  V30 2167 H 205.954 -6.28182 -1.89005 0
M  V30 2168 H 205.871 -7.52854 -0.688971 0
M  V30 2169 H 207.139 -7.5655 -1.87757 0
M  V30 2170 N 211.368 -0.403325 -1.52352 0
M  V30 2171 C 212.3 0.4603 -2.2453 0
M  V30 2172 C 213.313 1.01505 -1.27282 0
M  V30 2173 O 214.502 0.914982 -1.53266 0
M  V30 2174 C 211.602 1.65208 -2.95905 0
M  V30 2175 C 210.775 1.22224 -4.19976 0
M  V30 2176 C 209.834 2.28028 -4.74226 0
M  V30 2177 O 208.86 1.88857 -5.36956 0
M  V30 2178 N 210.062 3.6012 -4.55295 0
M  V30 2179 H 212.827 -0.158156 -2.99282 0
M  V30 2180 H 210.388 -0.230402 -1.60252 0
M  V30 2181 H 212.38 2.35541 -3.29093 0
M  V30 2182 H 210.95 2.17658 -2.24374 0
M  V30 2183 H 210.17 0.34725 -3.92668 0
M  V30 2184 H 211.458 0.911924 -5.00561 0
M  V30 2185 H 210.856 3.94698 -4.05253 0
M  V30 2186 H 209.413 4.26447 -4.92936 0
M  V30 2187 N 212.846 1.57033 -0.133567 0
M  V30 2188 C 214.092 1.96764 0.515326 0
M  V30 2189 C 214.447 1.01653 1.63353 0
M  V30 2190 O 213.74 0.0491374 1.91537 0
M  V30 2191 C 213.934 3.40674 1.08057 0
M  V30 2192 C 213.763 4.49696 0.0186522 0
M  V30 2193 C 212.533 5.03567 -0.418174 0
M  V30 2194 C 214.731 5.08536 -0.767809 0
M  V30 2195 N 212.713 5.9618 -1.46434 0
M  V30 2196 C 214.084 5.97231 -1.6648 0
M  V30 2197 C 216.139 4.9115 -0.817087 0
M  V30 2198 C 214.842 6.70401 -2.60681 0
M  V30 2199 C 216.868 5.65012 -1.74687 0
M  V30 2200 C 216.23 6.53403 -2.63141 0
M  V30 2201 H 212.329 0.765919 0.157771 0
M  V30 2202 H 214.913 1.93395 -0.22506 0
M  V30 2203 H 213.084 3.44662 1.79061 0
M  V30 2204 H 214.816 3.67495 1.69497 0
M  V30 2205 H 211.571 4.73594 -0.0229803 0
M  V30 2206 H 211.995 6.47191 -1.98678 0
M  V30 2207 H 216.637 4.22543 -0.147326 0
M  V30 2208 H 214.355 7.38245 -3.28664 0
M  V30 2209 H 217.941 5.53559 -1.79063 0
M  V30 2210 H 216.821 7.09556 -3.33917 0
M  V30 2211 N 214.325 -0.140222 1.56975 0
M  V30 2212 C 215.255 -1.17456 2.01808 0
M  V30 2213 C 216.236 -1.44415 0.898794 0
M  V30 2214 O 217.421 -1.5522 1.16707 0
M  V30 2215 C 214.551 -2.50607 2.40444 0
M  V30 2216 C 213.505 -2.38155 3.55621 0
M  V30 2217 C 212.831 -3.76078 3.80091 0
M  V30 2218 C 214.131 -1.85991 4.88062 0
M  V30 2219 H 215.825 -0.801743 2.88466 0
M  V30 2220 H 213.371 -0.38422 1.38779 0
M  V30 2221 H 215.324 -3.23197 2.7041 0
M  V30 2222 H 214.048 -2.89737 1.50732 0
M  V30 2223 H 212.707 -1.68016 3.25832 0
M  V30 2224 H 212.355 -4.12656 2.87618 0
M  V30 2225 H 212.055 -3.68606 4.57606 0
M  V30 2226 H 213.579 -4.50206 4.12488 0
M  V30 2227 H 214.993 -2.4838 5.16701 0
M  V30 2228 H 213.39 -1.89393 5.6943 0
M  V30 2229 H 214.46 -0.816023 4.77984 0
M  V30 2230 N 215.803 -1.52179 -0.40978 0
M  V30 2231 C 216.751 -1.76086 -1.51975 0
M  V30 2232 C 217.745 -0.627964 -1.57331 0
M  V30 2233 O 218.951 -0.809993 -1.60745 0
M  V30 2234 H 215.326 -0.556829 -0.505416 0
M  V30 2235 H 217.297 -2.69077 -1.28996 0
M  V30 2236 C 216.046 -1.92799 -2.8935 0
M  V30 2237 H 215.369 -2.79392 -2.85972 0
M  V30 2238 H 216.809 -2.13527 -3.66309 0
M  V30 2239 C 215.268 -0.694923 -3.29655 0
M  V30 2240 O 215.798 0.13751 -4.01465 0
M  V30 2241 N 214.004 -0.53101 -2.85707 0
M  V30 2242 H 213.551 -1.20952 -2.27439 0
M  V30 2243 H 213.509 0.292718 -3.13034 0
M  V30 2244 N 217.281 0.66697 -1.42791 0
M  V30 2245 C 218.697 0.981027 -1.25889 0
M  V30 2246 C 218.897 2.00793 -0.168695 0
M  V30 2247 O 217.953 2.48321 0.45747 0
M  V30 2248 C 219.266 1.47838 -2.61848 0
M  V30 2249 C 220.814 1.59575 -2.69267 0
M  V30 2250 C 221.289 2.12704 -4.05612 0
M  V30 2251 N 222.78 2.20026 -4.07606 0
M  V30 2252 C 223.515 2.62227 -5.09926 0
M  V30 2253 N 223.011 3.03824 -6.22626 0
M  V30 2254 N 224.804 2.62045 -4.97281 0
M  V30 2255 H 216.955 -0.0127891 -2.12396 0
M  V30 2256 H 219.218 0.0568258 -0.946295 0
M  V30 2257 H 218.924 0.798299 -3.4252 0
M  V30 2258 H 218.798 2.45579 -2.86305 0
M  V30 2259 H 221.185 2.26687 -1.88936 0
M  V30 2260 H 221.266 0.60302 -2.48591 0
M  V30 2261 H 220.91 1.46198 -4.86404 0
M  V30 2262 H 220.84 3.12782 -4.23645 0
M  V30 2263 H 223.331 1.90708 -3.2625 0
M  V30 2264 H 223.644 3.34734 -6.96544 0
M  V30 2265 H 221.989 3.01662 -6.26119 0
M  V30 2266 H 225.18 2.28916 -4.08308 0
M  V30 2267 H 225.353 2.94613 -5.77154 0
M  V30 2268 N 218.759 1.29093 0.90403 0
M  V30 2269 C 220.006 1.16813 1.65411 0
M  V30 2270 C 220.334 -0.28128 1.92455 0
M  V30 2271 O 219.589 -1.22006 1.53013 0
M  V30 2272 C 219.888 1.92224 3.01305 0
M  V30 2273 C 219.554 3.41968 2.93885 0
M  V30 2274 C 218.216 3.82807 2.91569 0
M  V30 2275 C 220.568 4.37409 2.83413 0
M  V30 2276 C 217.896 5.1741 2.76594 0
M  V30 2277 C 220.248 5.72097 2.69977 0
M  V30 2278 C 218.912 6.12199 2.66024 0
M  V30 2279 H 218.182 0.42745 0.605283 0
M  V30 2280 H 220.829 1.59981 1.05254 0
M  V30 2281 H 219.134 1.41635 3.65304 0
M  V30 2282 H 220.831 1.80131 3.58265 0
M  V30 2283 H 217.421 3.09504 2.96488 0
M  V30 2284 H 221.605 4.06813 2.84283 0
M  V30 2285 H 216.861 5.47596 2.71935 0
M  V30 2286 H 221.035 6.45704 2.60844 0
M  V30 2287 H 218.662 7.16448 2.54178 0
M  V30 2288 N 220.237 -1.11381 1.11499 0
M  V30 2289 C 221.485 -1.8277 0.862524 0
M  V30 2290 C 221.806 -1.85097 -0.613534 0
M  V30 2291 O 221.076 -1.32198 -1.4457 0
M  V30 2292 H 219.656 -0.676823 0.316101 0
M  V30 2293 H 222.318 -1.34816 1.4075 0
M  V30 2294 H 221.414 -2.86614 1.23527 0
M  V30 2295 N 221.715 -0.905404 -1.28997 0
M  V30 2296 C 222.943 -0.549846 -1.9946 0
M  V30 2297 C 223.358 0.866834 -1.67724 0
M  V30 2298 O 222.715 1.57298 -0.925404 0
M  V30 2299 C 222.766 -0.739387 -3.53858 0
M  V30 2300 O 222.487 -2.10031 -3.84472 0
M  V30 2301 C 223.988 -0.389541 -4.41585 0
M  V30 2302 H 221.208 -0.210429 -0.637151 0
M  V30 2303 H 223.752 -1.21632 -1.64396 0
M  V30 2304 H 221.907 -0.120023 -3.87214 0
M  V30 2305 H 222.321 -2.13385 -4.79132 0
M  V30 2306 H 223.795 -0.572972 -5.49018 0
M  V30 2307 H 224.272 0.673756 -4.34001 0
M  V30 2308 H 224.878 -0.986089 -4.1371 0
M  V30 2309 N 223.193 1.4272 -0.668489 0
M  V30 2310 C 224.156 2.292 0.00448567 0
M  V30 2311 C 225.156 1.43001 0.735339 0
M  V30 2312 O 226.346 1.64461 0.57429 0
M  V30 2313 C 223.478 3.25375 1.01705 0
M  V30 2314 H 224.671 2.90199 -0.756608 0
M  V30 2315 H 222.224 1.50254 -0.430506 0
M  V30 2316 H 222.959 2.69301 1.80686 0
M  V30 2317 H 222.744 3.88944 0.496463 0
M  V30 2318 H 224.234 3.90245 1.48655 0
M  V30 2319 N 224.671 0.411399 1.52136 0
M  V30 2320 C 225.603 -0.448386 2.24771 0
M  V30 2321 C 226.616 -1.00828 1.27818 0
M  V30 2322 O 227.805 -0.906841 1.53749 0
M  V30 2323 C 224.905 -1.63636 2.96777 0
M  V30 2324 C 224.078 -1.19995 4.20618 0
M  V30 2325 C 223.137 -2.25509 4.75428 0
M  V30 2326 O 222.163 -1.86007 5.3795 0
M  V30 2327 N 223.365 -3.577 4.57199 0
M  V30 2328 H 226.13 0.174025 2.99194 0
M  V30 2329 H 223.691 0.238897 1.60128 0
M  V30 2330 H 225.683 -2.33793 3.30338 0
M  V30 2331 H 224.253 -2.16465 2.25526 0
M  V30 2332 H 223.473 -0.326421 3.92846 0
M  V30 2333 H 224.761 -0.885365 5.01038 0
M  V30 2334 H 224.159 -3.92543 4.07341 0
M  V30 2335 H 222.716 -4.23827 4.95191 0
M  V30 2336 N 226.149 -1.5696 0.141893 0
M  V30 2337 C 227.395 -1.9625 -0.511248 0
M  V30 2338 C 227.728 -1.02654 -1.64851 0
M  V30 2339 O 227.003 -0.0679676 -1.94381 0
M  V30 2340 C 227.286 -3.45285 -1.02227 0
M  V30 2341 C 227.139 -4.49658 0.113138 0
M  V30 2342 C 228.458 -3.96698 -1.90574 0
M  V30 2343 H 225.577 -0.713567 -0.184367 0
M  V30 2344 H 228.219 -1.88698 0.222087 0
M  V30 2345 H 226.369 -3.51852 -1.64719 0
M  V30 2346 H 228.041 -4.55174 0.749302 0
M  V30 2347 H 226.284 -4.26857 0.773026 0
M  V30 2348 H 226.955 -5.51258 -0.286053 0
M  V30 2349 H 229.431 -3.92578 -1.37918 0
M  V30 2350 H 228.307 -5.01453 -2.2324 0
M  V30 2351 H 228.568 -3.3875 -2.84079 0
M  V30 2352 N 227.627 0.131896 -1.57047 0
M  V30 2353 C 228.575 1.18146 -2.0036 0
M  V30 2354 C 229.569 1.43614 -0.898406 0
M  V30 2355 O 230.775 1.43729 -1.08361 0
M  V30 2356 H 227.15 0.398042 -0.638018 0
M  V30 2357 H 229.121 0.789564 -2.87765 0
M  V30 2358 C 227.87 2.50341 -2.41298 0
M  V30 2359 H 227.193 2.31578 -3.25902 0
M  V30 2360 H 228.633 3.22371 -2.75414 0
M  V30 2361 C 227.092 3.11984 -1.27153 0
M  V30 2362 O 227.622 3.97484 -0.580459 0
M  V30 2363 N 225.828 2.71662 -1.03189 0
M  V30 2364 H 225.375 2.02231 -1.59564 0
M  V30 2365 H 225.333 3.13238 -0.270077 0
M  V30 2366 N 229.106 1.52395 0.401703 0
M  V30 2367 C 230.036 1.79231 1.49661 0
M  V30 2368 C 231.017 0.643654 1.57452 0
M  V30 2369 O 232.202 0.889989 1.72606 0
M  V30 2370 C 229.332 1.94971 2.87409 0
M  V30 2371 C 228.286 3.10604 2.94465 0
M  V30 2372 C 227.612 3.11577 4.34538 0
M  V30 2373 C 228.912 4.49921 2.6527 0
M  V30 2374 H 230.606 2.70917 1.27454 0
M  V30 2375 H 228.152 1.30362 0.6117 0
M  V30 2376 H 230.105 2.12328 3.63999 0
M  V30 2377 H 228.829 0.999632 3.10926 0
M  V30 2378 H 227.488 2.93009 2.20321 0
M  V30 2379 H 227.136 2.14277 4.55076 0
M  V30 2380 H 226.836 3.89247 4.40183 0
M  V30 2381 H 228.36 3.31073 5.13053 0
M  V30 2382 H 229.774 4.67683 3.31581 0
M  V30 2383 H 228.171 5.29564 2.82281 0
M  V30 2384 H 229.241 4.57507 1.60671 0
M  V30 2385 N 230.584 -0.659388 1.43143 0
M  V30 2386 C 231.532 -1.79374 1.4808 0
M  V30 2387 C 232.526 -1.65639 0.354988 0
M  V30 2388 O 233.732 -1.7206 0.528704 0
M  V30 2389 H 230.107 -0.591705 0.4641 0
M  V30 2390 H 232.078 -1.72329 2.43609 0
M  V30 2391 C 230.827 -3.17606 1.41499 0
M  V30 2392 H 230.15 -3.28809 2.27431 0
M  V30 2393 H 231.59 -3.96951 1.49015 0
M  V30 2394 C 230.049 -3.36642 0.131765 0
M  V30 2395 O 230.579 -3.93461 -0.809386 0
M  V30 2396 N 228.785 -2.90567 0.0439396 0
M  V30 2397 H 228.332 -2.44513 0.810619 0
M  V30 2398 H 228.29 -3.03681 -0.813969 0
M  V30 2399 N 232.062 -1.29571 -0.897171 0
M  V30 2400 C 233.309 -1.17689 -1.6479 0
M  V30 2401 C 233.637 0.27107 -1.92602 0
M  V30 2402 O 232.892 1.21193 -1.53658 0
M  V30 2403 C 233.191 -1.9382 -3.00281 0
M  V30 2404 C 232.857 -3.43522 -2.92068 0
M  V30 2405 C 231.519 -3.84348 -2.89535 0
M  V30 2406 C 233.871 -4.38906 -2.81089 0
M  V30 2407 C 231.199 -5.18869 -2.73846 0
M  V30 2408 C 233.551 -5.73521 -2.66939 0
M  V30 2409 C 232.215 -6.13601 -2.62774 0
M  V30 2410 H 231.485 -0.430654 -0.603008 0
M  V30 2411 H 234.132 -1.60536 -1.04404 0
M  V30 2412 H 232.437 -1.4357 -3.64547 0
M  V30 2413 H 234.134 -1.82028 -3.57305 0
M  V30 2414 H 230.724 -3.11072 -2.94842 0
M  V30 2415 H 234.908 -4.08315 -2.82121 0
M  V30 2416 H 230.164 -5.4903 -2.69027 0
M  V30 2417 H 234.338 -6.47078 -2.57416 0
M  V30 2418 H 231.965 -7.17786 -2.50375 0
M  V30 2419 N 233.54 1.10788 -1.12088 0
M  V30 2420 C 234.817 1.79136 -0.785476 0
M  V30 2421 C 235.197 1.98246 0.725377 0
M  V30 2422 O 234.545 1.57258 1.65778 0
M  V30 2423 C 234.755 3.12375 -1.55636 0
M  V30 2424 C 236.103 3.8731 -1.74001 0
M  V30 2425 O 237.127 3.22085 -1.52117 0
M  V30 2426 O 235.986 5.04369 -2.10415 0
M  V30 2427 H 233.08 0.776226 -0.285311 0
M  V30 2428 H 235.626 1.1747 -1.2247 0
M  V30 2429 H 234.398 2.93863 -2.5838 0
M  V30 2430 H 234.021 3.81758 -1.11114 0
M  V30 2431 N 235.018 0.912232 1.28515 0
M  V30 2432 C 235.965 0.397954 2.27343 0
M  V30 2433 C 236.935 -0.526766 1.57526 0
M  V30 2434 O 238.12 -0.449292 1.85435 0
M  V30 2435 C 235.26 -0.357263 3.43246 0
M  V30 2436 C 234.373 0.599788 4.27816 0
M  V30 2437 C 233.508 -0.173725 5.30916 0
M  V30 2438 C 232.547 0.777039 6.07148 0
M  V30 2439 N 231.684 0.0371398 7.0209 0
M  V30 2440 H 236.524 1.24577 2.70711 0
M  V30 2441 H 234.061 0.625612 1.33133 0
M  V30 2442 H 236.019 -0.8113 4.09236 0
M  V30 2443 H 234.649 -1.16943 3.00872 0
M  V30 2444 H 233.701 1.17235 3.61884 0
M  V30 2445 H 235.013 1.32704 4.80823 0
M  V30 2446 H 234.167 -0.688394 6.02782 0
M  V30 2447 H 232.906 -0.934041 4.78672 0
M  V30 2448 H 231.911 1.3031 5.34134 0
M  V30 2449 H 233.136 1.53689 6.61481 0
M  V30 2450 H 231.082 -0.705213 6.52198 0
M  V30 2451 H 230.999 0.704249 7.52713 0
M  V30 2452 H 232.267 -0.457383 7.78157 0
M  V30 2453 N 236.496 -1.42363 0.676048 0
M  V30 2454 C 237.444 -2.32596 -0.0131507 0
M  V30 2455 C 238.438 -1.49891 -0.789238 0
M  V30 2456 O 239.644 -1.65955 -0.697061 0
M  V30 2457 H 236.019 -0.751647 -0.0230481 0
M  V30 2458 H 237.99 -2.88421 0.765243 0
M  V30 2459 C 236.739 -3.34479 -0.949702 0
M  V30 2460 H 236.062 -3.98158 -0.361938 0
M  V30 2461 H 237.502 -4.00199 -1.4006 0
M  V30 2462 C 235.961 -2.66838 -2.05667 0
M  V30 2463 O 236.491 -2.50124 -3.14326 0
M  V30 2464 N 234.697 -2.25843 -1.82875 0
M  V30 2465 H 234.244 -2.39637 -0.945085 0
M  V30 2466 H 234.202 -1.80918 -2.5713 0
M  V30 2467 N 237.974 -0.419461 -1.51915 0
M  V30 2468 C 239.221 0.152939 -2.01922 0
M  V30 2469 C 239.549 1.4426 -1.30458 0
M  V30 2470 O 238.804 1.91514 -0.402593 0
M  V30 2471 C 239.103 0.437067 -3.54717 0
M  V30 2472 C 238.769 -0.764632 -4.44369 0
M  V30 2473 C 237.431 -1.09423 -4.68594 0
M  V30 2474 C 239.783 -1.56713 -4.97082 0
M  V30 2475 C 237.111 -2.22732 -5.42777 0
M  V30 2476 C 239.463 -2.69107 -5.72507 0
M  V30 2477 C 238.127 -3.02541 -5.95 0
M  V30 2478 H 237.397 0.0559644 -0.738884 0
M  V30 2479 H 240.044 -0.562998 -1.83037 0
M  V30 2480 H 238.349 1.23469 -3.71837 0
M  V30 2481 H 240.046 0.893083 -3.90928 0
M  V30 2482 H 236.636 -0.497775 -4.257 0
M  V30 2483 H 240.82 -1.32571 -4.78266 0
M  V30 2484 H 236.076 -2.48971 -5.58411 0
M  V30 2485 H 240.25 -3.31671 -6.12346 0
M  V30 2486 H 237.877 -3.90457 -6.52264 0
M  V30 2487 N 239.452 1.56882 -0.150215 0
M  V30 2488 C 240.677 2.01027 0.510184 0
M  V30 2489 C 241.102 1.02966 1.57415 0
M  V30 2490 O 240.46 0.00590158 1.81299 0
M  V30 2491 C 240.508 3.43899 1.08472 0
M  V30 2492 O 239.612 3.4885 2.19948 0
M  V30 2493 H 238.953 0.652233 0.124451 0
M  V30 2494 H 241.483 2.03093 -0.247894 0
M  V30 2495 H 241.493 3.82766 1.41259 0
M  V30 2496 H 240.168 4.14776 0.305582 0
M  V30 2497 H 238.745 3.21827 1.88366 0
M  V30 2498 N 240.93 -0.123565 1.57115 0
M  V30 2499 C 241.86 -1.15309 2.03042 0
M  V30 2500 C 242.841 -1.43454 0.914061 0
M  V30 2501 O 244.026 -1.53973 1.18347 0
M  V30 2502 C 241.156 -2.48043 2.43089 0
M  V30 2503 C 240.11 -2.3437 3.58127 0
M  V30 2504 C 239.436 -3.72026 3.84059 0
M  V30 2505 C 240.736 -1.80804 4.90007 0
M  V30 2506 H 242.43 -0.771102 2.893 0
M  V30 2507 H 239.976 -0.369479 1.39179 0
M  V30 2508 H 241.929 -3.20311 2.73823 0
M  V30 2509 H 240.653 -2.88122 1.53796 0
M  V30 2510 H 239.312 -1.64551 3.27595 0
M  V30 2511 H 238.96 -4.09582 2.91979 0
M  V30 2512 H 238.66 -3.63732 4.6149 0
M  V30 2513 H 240.184 -4.45806 4.1724 0
M  V30 2514 H 241.598 -2.42886 5.19307 0
M  V30 2515 H 239.995 -1.83343 5.71407 0
M  V30 2516 H 241.065 -0.76528 4.78823 0
M  V30 2517 N 242.408 -1.52605 -0.393616 0
M  V30 2518 C 243.355 -1.77055 -1.48054 0
M  V30 2519 C 244.325 -0.61358 -1.54352 0
M  V30 2520 O 245.51 -0.852806 -1.70681 0
M  V30 2521 C 242.65 -1.94108 -2.85335 0
M  V30 2522 C 241.763 -3.21792 -2.88226 0
M  V30 2523 C 240.898 -3.29188 -4.16904 0
M  V30 2524 C 239.937 -4.51013 -4.13828 0
M  V30 2525 N 239.074 -4.55716 -5.34105 0
M  V30 2526 H 243.914 -2.69815 -1.26506 0
M  V30 2527 H 241.451 -1.33683 -0.61379 0
M  V30 2528 H 243.409 -2.01979 -3.65049 0
M  V30 2529 H 242.039 -1.04713 -3.05344 0
M  V30 2530 H 241.091 -3.23015 -2.00911 0
M  V30 2531 H 242.403 -4.11557 -2.8182 0
M  V30 2532 H 241.557 -3.36216 -5.05018 0
M  V30 2533 H 240.296 -2.37389 -4.26026 0
M  V30 2534 H 239.301 -4.44115 -3.24102 0
M  V30 2535 H 240.526 -5.44123 -4.06333 0
M  V30 2536 H 238.472 -3.66807 -5.43865 0
M  V30 2537 H 238.389 -5.39346 -5.29756 0
M  V30 2538 H 239.657 -4.66993 -6.2413 0
M  V30 2539 N 243.887 0.651787 -1.4349 0
M  V30 2540 C 244.797 1.79368 -1.5121 0
M  V30 2541 C 245.813 1.69361 -0.399093 0
M  V30 2542 O 246.989 1.90505 -0.653431 0
M  V30 2543 C 244.054 3.15653 -1.43401 0
M  V30 2544 C 243.115 3.37446 -2.65384 0
M  V30 2545 C 242.348 4.67229 -2.57939 0
M  V30 2546 O 242.571 5.46676 -1.62792 0
M  V30 2547 O 241.505 4.90773 -3.48462 0
M  V30 2548 H 245.331 1.7581 -2.47638 0
M  V30 2549 H 242.916 0.810447 -1.25507 0
M  V30 2550 H 244.798 3.96935 -1.41494 0
M  V30 2551 H 243.473 3.19798 -0.501085 0
M  V30 2552 H 242.38 2.55923 -2.72863 0
M  V30 2553 H 243.713 3.38148 -3.57654 0
M  V30 2554 N 245.365 1.30045 0.890287 0
M  V30 2555 C 246.59 1.21598 1.68014 0
M  V30 2556 C 247.015 -0.218678 1.86825 0
M  V30 2557 O 246.373 -1.15756 1.39536 0
M  V30 2558 C 246.421 1.94434 3.03691 0
M  V30 2559 O 245.525 1.2678 3.92429 0
M  V30 2560 H 244.866 0.420856 0.513592 0
M  V30 2561 H 247.396 1.71775 1.11151 0
M  V30 2562 H 247.406 2.03251 3.5377 0
M  V30 2563 H 246.081 2.98777 2.89318 0
M  V30 2564 H 244.658 1.26282 3.50866 0
M  V30 2565 N 246.843 -1.10192 1.12674 0
M  V30 2566 C 248.068 -1.86523 0.906853 0
M  V30 2567 C 248.493 -1.80221 -0.538711 0
M  V30 2568 O 247.851 -1.17396 -1.38158 0
M  V30 2569 C 247.899 -3.32758 1.3894 0
M  V30 2570 O 247.003 -4.08449 0.5695 0
M  V30 2571 H 246.344 -0.578678 0.325619 0
M  V30 2572 H 248.874 -1.39203 1.49946 0
M  V30 2573 H 248.884 -3.83608 1.38958 0
M  V30 2574 H 247.559 -3.36661 2.44197 0
M  V30 2575 H 246.136 -3.67427 0.636528 0
M  V30 2576 N 248.321 -0.919034 -1.28029 0
M  V30 2577 C 249.251 -0.428581 -2.29533 0
M  V30 2578 C 250.232 0.50659 -1.62381 0
M  V30 2579 O 251.417 0.413195 -1.89753 0
M  V30 2580 C 248.547 0.327388 -3.45753 0
M  V30 2581 C 247.501 -0.519137 -4.2484 0
M  V30 2582 C 246.827 0.365486 -5.33449 0
M  V30 2583 C 248.127 -1.77914 -4.91064 0
M  V30 2584 H 249.821 -1.27687 -2.70807 0
M  V30 2585 H 247.367 -0.615428 -1.30186 0
M  V30 2586 H 249.32 0.681378 -4.15855 0
M  V30 2587 H 248.044 1.20963 -3.03374 0
M  V30 2588 H 246.703 -0.855717 -3.56473 0
M  V30 2589 H 246.351 1.24642 -4.87312 0
M  V30 2590 H 246.051 -0.197356 -5.87268 0
M  V30 2591 H 247.575 0.715241 -6.06396 0
M  V30 2592 H 248.989 -1.49374 -5.53498 0
M  V30 2593 H 247.386 -2.2848 -5.54903 0
M  V30 2594 H 248.456 -2.50382 -4.15255 0
M  V30 2595 N 249.799 1.42003 -0.683588 0
M  V30 2596 C 251.076 1.95112 -0.138075 0
M  V30 2597 C 251.456 1.62359 1.34918 0
M  V30 2598 O 250.804 0.924311 2.08971 0
M  V30 2599 C 251.014 3.46505 -0.416581 0
M  V30 2600 C 252.362 4.23254 -0.337834 0
M  V30 2601 O 253.386 3.54468 -0.35082 0
M  V30 2602 O 252.245 5.45743 -0.287596 0
M  V30 2603 H 249.339 0.826961 -0.00797996 0
M  V30 2604 H 251.885 1.51784 -0.758924 0
M  V30 2605 H 250.657 3.63582 -1.4465 0
M  V30 2606 H 250.28 3.969 0.235839 0
M  V30 2607 N 251.277 0.427512 1.51691 0
M  V30 2608 C 252.523 -0.134744 2.02953 0
M  V30 2609 C 252.878 -1.41235 1.30654 0
M  V30 2610 O 252.171 -1.87168 0.409713 0
M  V30 2611 C 252.365 -0.418249 3.54944 0
M  V30 2612 C 252.194 0.830327 4.41968 0
M  V30 2613 C 250.964 1.36097 4.86627 0
M  V30 2614 C 253.162 1.7137 4.84909 0
M  V30 2615 N 251.144 2.56311 5.57833 0
M  V30 2616 C 252.515 2.76195 5.55082 0
M  V30 2617 C 254.57 1.72928 4.66905 0
M  V30 2618 C 253.273 3.82512 6.09161 0
M  V30 2619 C 255.299 2.78175 5.21894 0
M  V30 2620 C 254.661 3.8172 5.92004 0
M  V30 2621 H 250.76 -0.0103958 0.781931 0
M  V30 2622 H 253.344 0.585981 1.85673 0
M  V30 2623 H 251.515 -1.10801 3.7226 0
M  V30 2624 H 253.247 -0.970999 3.92879 0
M  V30 2625 H 250.002 0.916311 4.64651 0
M  V30 2626 H 250.426 3.17242 5.98069 0
M  V30 2627 H 255.068 0.942081 4.12171 0
M  V30 2628 H 252.786 4.62077 6.62956 0
M  V30 2629 H 256.372 2.8031 5.09821 0
M  V30 2630 H 255.252 4.61821 6.33791 0
M  V30 2631 N 252.755 -1.56801 0.158532 0
M  V30 2632 C 253.685 -2.20347 -0.772609 0
M  V30 2633 C 254.666 -1.15518 -1.24859 0
M  V30 2634 O 255.851 -1.43902 -1.30406 0
M  V30 2635 C 252.981 -2.83417 -2.00729 0
M  V30 2636 C 251.935 -3.94174 -1.66765 0
M  V30 2637 C 251.261 -4.44233 -2.97592 0
M  V30 2638 C 252.561 -5.14392 -0.905447 0
M  V30 2639 H 254.255 -2.98413 -0.242959 0
M  V30 2640 H 251.801 -1.43537 -0.115419 0
M  V30 2641 H 253.754 -3.26543 -2.6636 0
M  V30 2642 H 252.478 -2.02701 -2.56086 0
M  V30 2643 H 251.137 -3.51684 -1.03508 0
M  V30 2644 H 250.785 -3.60325 -3.50963 0
M  V30 2645 H 250.485 -5.18945 -2.75626 0
M  V30 2646 H 252.009 -4.90037 -3.64274 0
M  V30 2647 H 253.423 -5.5429 -1.46408 0
M  V30 2648 H 251.82 -5.9494 -0.7853 0
M  V30 2649 H 252.89 -4.84795 0.100668 0
M  V30 2650 N 254.233 0.115231 -1.57178 0
M  V30 2651 C 255.196 1.12526 -1.99676 0
M  V30 2652 C 256.196 1.34095 -0.88742 0
M  V30 2653 O 257.386 1.30548 -1.15337 0
M  V30 2654 C 254.518 2.4789 -2.34015 0
M  V30 2655 H 255.711 0.759912 -2.90113 0
M  V30 2656 H 253.264 0.359648 -1.52106 0
M  V30 2657 H 253.999 2.89339 -1.4647 0
M  V30 2658 H 253.784 2.33588 -3.14927 0
M  V30 2659 H 255.274 3.20575 -2.67622 0
M  V30 2660 N 255.711 1.52812 0.385517 0
M  V30 2661 C 257.122 1.5993 0.963293 0
M  V30 2662 C 257.473 0.454302 1.90868 0
M  V30 2663 O 256.598 -0.422132 2.12243 0
M  V30 2664 C 257.193 2.89871 1.75387 0
M  V30 2665 C 255.752 2.99389 2.28129 0
M  V30 2666 C 254.899 2.55071 1.08783 0
M  V30 2667 H 257.85 1.5784 0.164948 0
M  V30 2668 H 257.871 2.76553 2.61341 0
M  V30 2669 H 257.383 3.73186 1.06554 0
M  V30 2670 H 255.484 2.20619 3.00263 0
M  V30 2671 H 255.597 4.04096 2.57377 0
M  V30 2672 H 253.961 2.09473 1.4489 0
M  V30 2673 H 254.744 3.40785 0.414807 0
M  V30 2674 N 257.189 -0.644168 1.43834 0
M  V30 2675 C 258.435 -1.40431 1.47141 0
M  V30 2676 C 258.79 -1.92153 0.0975577 0
M  V30 2677 O 258.083 -1.69924 -0.885232 0
M  V30 2678 C 258.277 -2.59615 2.45631 0
M  V30 2679 C 258.106 -2.1956 3.92458 0
M  V30 2680 C 256.876 -2.07456 4.60749 0
M  V30 2681 C 259.074 -1.79281 4.8204 0
M  V30 2682 N 257.056 -1.60827 5.92459 0
M  V30 2683 C 258.427 -1.43801 6.03093 0
M  V30 2684 C 260.482 -1.66545 4.6922 0
M  V30 2685 C 259.185 -0.968599 7.12749 0
M  V30 2686 C 261.211 -1.21008 5.78888 0
M  V30 2687 C 260.573 -0.864711 6.99072 0
M  V30 2688 H 256.672 -0.509182 0.593513 0
M  V30 2689 H 259.256 -0.740351 1.80075 0
M  V30 2690 H 257.427 -3.23658 2.1471 0
M  V30 2691 H 259.159 -3.26357 2.39318 0
M  V30 2692 H 255.914 -2.275 4.1538 0
M  V30 2693 H 256.338 -1.39848 6.62398 0
M  V30 2694 H 260.98 -1.91883 3.7675 0
M  V30 2695 H 258.698 -0.702715 8.05039 0
M  V30 2696 H 262.284 -1.11631 5.7099 0
M  V30 2697 H 261.164 -0.517736 7.82489 0
M  V30 2698 N 258.668 -1.30515 -0.883378 0
M  V30 2699 C 259.898 -1.22182 -1.66599 0
M  V30 2700 C 260.306 0.217507 -1.87946 0
M  V30 2701 O 259.649 1.1554 -1.42815 0
M  V30 2702 C 259.711 -1.88146 -3.06335 0
M  V30 2703 C 259.375 -3.37476 -3.08154 0
M  V30 2704 C 260.372 -4.33443 -2.87094 0
M  V30 2705 C 258.057 -3.7895 -3.29701 0
M  V30 2706 C 260.051 -5.68858 -2.8754 0
M  V30 2707 C 257.738 -5.14482 -3.29776 0
M  V30 2708 C 258.736 -6.09246 -3.0872 0
M  V30 2709 O 258.424 -7.42302 -3.08615 0
M  V30 2710 H 258.156 -0.423898 -0.52658 0
M  V30 2711 H 260.71 -1.72703 -1.11188 0
M  V30 2712 H 258.94 -1.32157 -3.63416 0
M  V30 2713 H 260.629 -1.7391 -3.66756 0
M  V30 2714 H 261.395 -4.02733 -2.70243 0
M  V30 2715 H 257.274 -3.05631 -3.45124 0
M  V30 2716 H 260.818 -6.428 -2.71024 0
M  V30 2717 H 256.715 -5.44832 -3.46163 0
M  V30 2718 H 257.483 -7.5131 -3.24769 0
M  V30 2719 N 260.146 1.09593 -1.13257 0
M  V30 2720 C 261.423 1.78293 -0.804432 0
M  V30 2721 C 261.803 1.99004 0.70431 0
M  V30 2722 O 261.151 1.59007 1.641 0
M  V30 2723 C 261.361 3.10707 -1.5894 0
M  V30 2724 C 262.709 3.85443 -1.78099 0
M  V30 2725 O 263.733 3.20454 -1.55525 0
M  V30 2726 O 262.592 5.02108 -2.15753 0
M  V30 2727 H 259.686 0.773156 -0.293528 0
M  V30 2728 H 262.232 1.16164 -1.23709 0
M  V30 2729 H 261.004 2.91106 -2.61482 0
M  V30 2730 H 260.627 3.80558 -1.15157 0
M  V30 2731 N 261.624 0.925811 1.2754 0
M  V30 2732 C 262.849 0.580924 1.99098 0
M  V30 2733 C 263.274 -0.833555 1.68622 0
M  V30 2734 O 262.632 -1.55903 0.925422 0
M  V30 2735 C 262.68 0.811186 3.51358 0
M  V30 2736 O 261.784 -0.124129 4.12213 0
M  V30 2737 H 261.125 0.223873 0.625122 0
M  V30 2738 H 263.655 1.24455 1.62395 0
M  V30 2739 H 263.665 0.72601 4.01489 0
M  V30 2740 H 262.34 1.84227 3.72872 0
M  V30 2741 H 260.917 0.0108006 3.72898 0
M  V30 2742 N 263.102 -1.41638 0.69111 0
M  V30 2743 C 264.065 -2.29178 0.0319786 0
M  V30 2744 C 265.065 -1.44153 -0.712496 0
M  V30 2745 O 266.255 -1.65354 -0.548053 0
M  V30 2746 C 263.387 -3.26952 -0.965161 0
M  V30 2747 H 264.58 -2.88959 0.802681 0
M  V30 2748 H 262.133 -1.4955 0.454356 0
M  V30 2749 H 262.868 -2.72142 -1.76378 0
M  V30 2750 H 262.653 -3.89685 -0.434522 0
M  V30 2751 H 264.143 -3.92561 -1.42428 0
M  V30 2752 N 264.58 -0.43555 -1.51462 0
M  V30 2753 C 265.805 0.132627 -2.06976 0
M  V30 2754 C 266.23 1.35848 -1.30104 0
M  V30 2755 O 265.588 1.78112 -0.338493 0
M  V30 2756 C 265.636 0.43523 -3.57964 0
M  V30 2757 O 264.74 1.52198 -3.83288 0
M  V30 2758 H 264.081 0.00265 -0.663995 0
M  V30 2759 H 266.611 -0.616369 -1.95095 0
M  V30 2760 H 266.621 0.686206 -4.02188 0
M  V30 2761 H 265.296 -0.460739 -4.1334 0
M  V30 2762 H 263.873 1.2611 -3.50928 0
M  V30 2763 N 266.058 1.56714 -0.166846 0
M  V30 2764 C 267.305 1.96747 0.479252 0
M  V30 2765 C 267.633 1.05263 1.63554 0
M  V30 2766 O 266.888 0.0858098 1.95512 0
M  V30 2767 C 267.187 3.42889 1.00806 0
M  V30 2768 C 266.853 4.50889 -0.0318574 0
M  V30 2769 C 265.515 4.8015 -0.317675 0
M  V30 2770 C 267.867 5.15949 -0.737956 0
M  V30 2771 C 265.195 5.71772 -1.31506 0
M  V30 2772 C 267.547 6.08647 -1.72429 0
M  V30 2773 C 266.211 6.36277 -2.0176 0
M  V30 2774 H 265.481 0.719949 0.175371 0
M  V30 2775 H 268.128 1.89756 -0.257864 0
M  V30 2776 H 266.433 3.4681 1.82291 0
M  V30 2777 H 268.13 3.71203 1.51689 0
M  V30 2778 H 264.72 4.28128 0.201088 0
M  V30 2779 H 268.904 4.93458 -0.530351 0
M  V30 2780 H 264.16 5.91465 -1.54853 0
M  V30 2781 H 268.334 6.58129 -2.27682 0
M  V30 2782 H 265.961 7.07075 -2.79194 0
M  V30 2783 N 267.536 -0.106894 1.57237 0
M  V30 2784 C 268.466 -1.13148 2.04254 0
M  V30 2785 C 269.447 -1.42476 0.929224 0
M  V30 2786 O 270.632 -1.52709 1.19973 0
M  V30 2787 C 267.762 -2.4545 2.45706 0
M  V30 2788 C 266.716 -2.30558 3.60592 0
M  V30 2789 C 266.042 -3.67931 3.87983 0
M  V30 2790 C 267.342 -1.75597 4.91897 0
M  V30 2791 H 269.036 -0.740374 2.90101 0
M  V30 2792 H 266.582 -0.354696 1.39563 0
M  V30 2793 H 268.535 -3.17389 2.77205 0
M  V30 2794 H 267.259 -2.86475 1.56843 0
M  V30 2795 H 265.918 -1.61067 3.29322 0
M  V30 2796 H 265.566 -4.06462 2.96306 0
M  V30 2797 H 265.266 -3.58817 4.65322 0
M  V30 2798 H 266.79 -4.41356 4.21945 0
M  V30 2799 H 268.204 -2.37364 5.21854 0
M  V30 2800 H 266.601 -1.77272 5.73319 0
M  V30 2801 H 267.671 -0.714451 4.79608 0
M  V30 2802 N 269.014 -1.53014 -0.377408 0
M  V30 2803 C 270.261 -1.68623 -1.12128 0
M  V30 2804 C 270.589 -0.431997 -1.89642 0
M  V30 2805 O 269.844 0.585855 -1.86725 0
M  V30 2806 C 270.143 -2.87982 -2.11663 0
M  V30 2807 C 269.809 -4.24964 -1.50719 0
M  V30 2808 C 268.471 -4.62217 -1.33825 0
M  V30 2809 C 270.823 -5.10199 -1.06519 0
M  V30 2810 C 268.151 -5.82352 -0.712963 0
M  V30 2811 C 270.503 -6.30969 -0.453955 0
M  V30 2812 C 269.167 -6.66944 -0.272411 0
M  V30 2813 H 268.437 -0.617034 -0.410305 0
M  V30 2814 H 271.084 -1.8718 -0.404484 0
M  V30 2815 H 269.389 -2.63889 -2.89603 0
M  V30 2816 H 271.086 -2.97253 -2.6915 0
M  V30 2817 H 267.676 -3.95626 -1.64858 0
M  V30 2818 H 271.86 -4.81978 -1.18368 0
M  V30 2819 H 267.116 -6.08824 -0.560611 0
M  V30 2820 H 271.29 -6.96324 -0.103217 0
M  V30 2821 H 268.917 -7.59898 0.214181 0
M  V30 2822 N 270.492 0.636531 -1.44174 0
M  V30 2823 C 271.739 1.39619 -1.46672 0
M  V30 2824 C 272.067 1.94257 -0.0972691 0
M  V30 2825 O 271.322 1.73768 0.900175 0
M  V30 2826 C 271.621 2.58309 -2.47005 0
M  V30 2827 C 271.287 2.21992 -3.92467 0
M  V30 2828 C 269.949 2.118 -4.32081 0
M  V30 2829 C 272.301 1.9321 -4.84065 0
M  V30 2830 C 269.629 1.71007 -5.61225 0
M  V30 2831 C 271.981 1.53911 -6.13591 0
M  V30 2832 C 270.645 1.42257 -6.52165 0
M  V30 2833 H 269.915 0.510902 -0.536712 0
M  V30 2834 H 272.562 0.722328 -1.77355 0
M  V30 2835 H 270.867 3.30903 -2.09786 0
M  V30 2836 H 272.564 3.16533 -2.46186 0
M  V30 2837 H 269.154 2.30841 -3.61124 0
M  V30 2838 H 273.338 1.99997 -4.54219 0
M  V30 2839 H 268.594 1.60583 -5.89935 0
M  V30 2840 H 272.768 1.30677 -6.8403 0
M  V30 2841 H 270.395 1.10419 -7.52138 0
M  V30 2842 N 271.97 1.30982 0.876444 0
M  V30 2843 C 273.195 1.23373 1.66715 0
M  V30 2844 C 273.62 -0.19885 1.87046 0
M  V30 2845 O 272.978 -1.1427 1.40756 0
M  V30 2846 C 273.026 1.97644 3.01611 0
M  V30 2847 O 272.13 1.30935 3.91062 0
M  V30 2848 H 271.471 0.426279 0.509099 0
M  V30 2849 H 274.001 1.72944 1.09323 0
M  V30 2850 H 274.011 2.06992 3.51594 0
M  V30 2851 H 272.686 3.01829 2.86133 0
M  V30 2852 H 271.263 1.29996 3.49507 0
M  V30 2853 N 273.449 -1.08991 1.13837 0
M  V30 2854 C 274.381 -2.15606 0.777612 0
M  V30 2855 C 275.394 -1.61533 -0.202739 0
M  V30 2856 O 276.583 -1.78491 0.0181055 0
M  V30 2857 C 273.683 -3.3864 0.132623 0
M  V30 2858 C 272.856 -4.22115 1.1462 0
M  V30 2859 C 271.915 -5.23564 0.526074 0
M  V30 2860 O 270.941 -5.56678 1.18735 0
M  V30 2861 N 272.143 -5.76266 -0.699866 0
M  V30 2862 H 274.908 -2.47159 1.69506 0
M  V30 2863 H 272.469 -1.24747 1.03198 0
M  V30 2864 H 274.461 -4.03626 -0.29459 0
M  V30 2865 H 273.031 -3.04938 -0.687849 0
M  V30 2866 H 272.251 -3.53199 1.75055 0
M  V30 2867 H 273.539 -4.74709 1.83109 0
M  V30 2868 H 272.937 -5.51585 -1.25581 0
M  V30 2869 H 271.494 -6.42963 -1.06968 0
M  V30 2870 N 274.927 -0.932562 -1.27047 0
M  V30 2871 C 275.857 -0.452902 -2.29066 0
M  V30 2872 C 276.838 0.489338 -1.62909 0
M  V30 2873 O 278.023 0.393046 -1.90181 0
M  V30 2874 C 275.153 0.290698 -3.46081 0
M  V30 2875 C 274.107 -0.564168 -4.24265 0
M  V30 2876 C 273.433 0.308886 -5.33807 0
M  V30 2877 C 274.733 -1.83112 -4.89149 0
M  V30 2878 H 276.427 -1.30552 -2.69437 0
M  V30 2879 H 273.973 -0.629201 -1.29526 0
M  V30 2880 H 275.926 0.637233 -4.16554 0
M  V30 2881 H 274.65 1.17738 -3.0464 0
M  V30 2882 H 273.309 -0.893477 -3.55545 0
M  V30 2883 H 272.957 1.19467 -4.88607 0
M  V30 2884 H 272.657 -0.259633 -5.87026 0
M  V30 2885 H 274.181 0.650884 -6.07121 0
M  V30 2886 H 275.595 -1.55236 -5.51883 0
M  V30 2887 H 273.992 -2.34353 -5.52448 0
M  V30 2888 H 275.062 -2.54772 -4.12576 0
M  V30 2889 N 276.405 1.4127 -0.698611 0
M  V30 2890 C 277.653 2.00782 -0.230409 0
M  V30 2891 C 277.974 1.5562 1.17505 0
M  V30 2892 O 277.244 0.78815 1.79346 0
M  V30 2893 H 275.824 0.742464 -0.0821944 0
M  V30 2894 H 278.486 1.72852 -0.90045 0
M  V30 2895 H 277.582 3.11095 -0.25021 0
M  V30 2896 N 277.883 0.443576 1.51229 0
M  V30 2897 C 279.132 -0.122332 2.01329 0
M  V30 2898 C 279.445 -1.43237 1.33201 0
M  V30 2899 O 280.651 -2.0816 1.74304 0
M  V30 2900 C 279.107 -0.268551 3.58897 0
M  V30 2901 C 278.715 1.03142 4.35965 0
M  V30 2902 C 280.459 -0.787894 4.17124 0
M  V30 2903 C 278.366 0.850504 5.85252 0
M  V30 2904 H 277.296 -0.0494929 0.752374 0
M  V30 2905 H 279.947 0.574289 1.74282 0
M  V30 2906 H 278.329 -1.02832 3.82415 0
M  V30 2907 H 279.503 1.80001 4.24189 0
M  V30 2908 H 277.818 1.47977 3.89219 0
M  V30 2909 H 280.415 -0.939841 5.26375 0
M  V30 2910 H 280.758 -1.77201 3.76703 0
M  V30 2911 H 281.291 -0.0862669 3.97706 0
M  V30 2912 H 278.03 1.80718 6.30096 0
M  V30 2913 H 277.55 0.121825 5.99676 0
M  V30 2914 H 279.229 0.506163 6.45017 0
M  V30 2915 N 279.361 -1.56624 0.175154 0
M  V30 2916 C 280.777 -1.58571 -0.180966 0
M  V30 2917 C 280.977 -1.19065 -1.6256 0
M  V30 2918 O 280.033 -0.904044 -2.35761 0
M  V30 2919 C 281.346 -3.00522 0.103326 0
M  V30 2920 C 282.894 -3.12972 0.0418426 0
M  V30 2921 C 283.369 -4.57022 0.299175 0
M  V30 2922 N 284.86 -4.62541 0.247086 0
M  V30 2923 C 285.595 -5.71857 0.420318 0
M  V30 2924 N 285.091 -6.89717 0.652816 0
M  V30 2925 N 286.884 -5.60972 0.355957 0
M  V30 2926 H 279.035 -1.80589 1.11809 0
M  V30 2927 H 281.298 -0.837178 0.444788 0
M  V30 2928 H 281.004 -3.33916 1.10422 0
M  V30 2929 H 280.878 -3.72344 -0.603299 0
M  V30 2930 H 283.265 -2.79403 -0.949636 0
M  V30 2931 H 283.346 -2.43578 0.781238 0
M  V30 2932 H 282.99 -4.913 1.28788 0
M  V30 2933 H 282.92 -5.24579 -0.460876 0
M  V30 2934 H 285.411 -3.77829 0.0731895 0
M  V30 2935 H 285.724 -7.68911 0.774347 0
M  V30 2936 H 284.069 -6.91572 0.689476 0
M  V30 2937 H 287.26 -4.67773 0.174882 0
M  V30 2938 H 287.433 -6.46111 0.494388 0
M  V30 2939 N 280.839 0.0985539 -1.57292 0
M  V30 2940 C 281.787 1.1387 -2.02821 0
M  V30 2941 C 282.781 1.41676 -0.928666 0
M  V30 2942 O 283.987 1.41398 -1.11385 0
M  V30 2943 H 280.362 0.384419 -0.646317 0
M  V30 2944 H 282.333 0.728347 -2.89375 0
M  V30 2945 C 281.082 2.45166 -2.46554 0
M  V30 2946 H 280.405 2.24613 -3.3074 0
M  V30 2947 H 281.845 3.16456 -2.8219 0
M  V30 2948 C 280.304 3.09216 -1.33742 0
M  V30 2949 O 280.834 3.96163 -0.66464 0
M  V30 2950 N 279.04 2.69413 -1.08928 0
M  V30 2951 H 278.587 1.98801 -1.63817 0
M  V30 2952 H 278.545 3.12594 -0.336458 0
M  V30 2953 N 282.317 1.53212 0.369288 0
M  V30 2954 C 283.264 1.79388 1.45219 0
M  V30 2955 C 284.234 0.638059 1.53356 0
M  V30 2956 O 285.419 0.879852 1.69302 0
M  V30 2957 C 282.559 1.98623 2.82211 0
M  V30 2958 C 281.672 3.26337 2.8307 0
M  V30 2959 C 280.807 3.35779 4.11614 0
M  V30 2960 C 279.846 4.5754 4.06601 0
M  V30 2961 N 278.983 4.64155 5.26787 0
M  V30 2962 H 283.823 2.71794 1.22198 0
M  V30 2963 H 281.36 1.34642 0.592444 0
M  V30 2964 H 283.318 2.07761 3.61789 0
M  V30 2965 H 281.948 1.09558 3.03639 0
M  V30 2966 H 281 3.26171 1.95747 0
M  V30 2967 H 282.312 4.15988 2.75237 0
M  V30 2968 H 281.466 3.44208 4.99606 0
M  V30 2969 H 280.205 2.44137 4.22195 0
M  V30 2970 H 279.21 4.49215 3.16996 0
M  V30 2971 H 280.435 5.50519 3.97625 0
M  V30 2972 H 278.381 3.75413 5.3796 0
M  V30 2973 H 278.298 5.47706 5.21109 0
M  V30 2974 H 279.566 4.76863 6.16621 0
M  V30 2975 N 283.795 -0.628877 1.44509 0
M  V30 2976 C 285.072 -1.38733 1.37886 0
M  V30 2977 C 285.452 -2.11065 0.0387008 0
M  V30 2978 O 284.8 -2.06476 -0.97878 0
M  V30 2979 C 285.01 -2.35188 2.57852 0
M  V30 2980 C 286.358 -2.9845 3.02014 0
M  V30 2981 O 287.382 -2.45513 2.58073 0
M  V30 2982 O 286.241 -3.94487 3.78209 0
M  V30 2983 H 283.335 -0.621015 0.54614 0
M  V30 2984 H 285.881 -0.653744 1.56602 0
M  V30 2985 H 284.653 -1.80855 3.46998 0
M  V30 2986 H 284.276 -3.1596 2.4136 0
M  V30 2987 N 285.273 -1.31445 -0.869486 0
M  V30 2988 C 286.498 -1.24256 -1.66058 0
M  V30 2989 C 286.923 0.188928 -1.87149 0
M  V30 2990 O 286.281 1.13522 -1.4136 0
M  V30 2991 C 286.329 -1.9924 -3.00559 0
M  V30 2992 O 285.433 -1.33007 -3.90362 0
M  V30 2993 H 284.774 -0.428973 -0.506831 0
M  V30 2994 H 287.304 -1.73521 -1.08404 0
M  V30 2995 H 287.314 -2.08854 -3.50491 0
M  V30 2996 H 285.989 -3.03342 -2.84528 0
M  V30 2997 H 284.566 -1.31848 -3.48813 0
M  V30 2998 N 286.751 1.08385 -1.14413 0
M  V30 2999 C 288.167 1.32844 -0.884563 0
M  V30 3000 C 288.367 1.95841 0.474181 0
M  V30 3001 O 287.423 2.21158 1.21842 0
M  V30 3002 C 288.736 2.22978 -2.01745 0
M  V30 3003 C 290.284 2.36458 -2.05077 0
M  V30 3004 C 290.759 3.29934 -3.1766 0
M  V30 3005 N 292.25 3.37511 -3.17239 0
M  V30 3006 C 292.985 4.09871 -4.0099 0
M  V30 3007 N 292.481 4.84936 -4.94781 0
M  V30 3008 N 294.274 4.05704 -3.89051 0
M  V30 3009 H 286.425 0.658756 -2.01926 0
M  V30 3010 H 288.688 0.352821 -0.879899 0
M  V30 3011 H 288.394 1.83934 -2.99769 0
M  V30 3012 H 288.268 3.23441 -1.94077 0
M  V30 3013 H 290.655 2.7476 -1.0766 0
M  V30 3014 H 290.736 1.35736 -2.16816 0
M  V30 3015 H 290.38 2.92352 -4.15322 0
M  V30 3016 H 290.31 4.30584 -3.03158 0
M  V30 3017 H 292.801 2.83996 -2.49308 0
M  V30 3018 H 293.114 5.37612 -5.55151 0
M  V30 3019 H 291.459 4.83988 -4.98779 0
M  V30 3020 H 294.65 3.46167 -3.15097 0
M  V30 3021 H 294.823 4.61834 -4.54547 0
M  V30 3022 N 288.23 0.939286 1.26551 0
M  V30 3023 C 289.178 0.43815 2.28436 0
M  V30 3024 C 290.172 -0.483587 1.62351 0
M  V30 3025 O 291.378 -0.362009 1.76322 0
M  V30 3026 H 287.753 0.123149 0.741848 0
M  V30 3027 H 289.724 1.31002 2.68106 0
M  V30 3028 C 288.473 -0.283052 3.46546 0
M  V30 3029 H 287.796 0.417043 3.97619 0
M  V30 3030 H 289.236 -0.597948 4.19763 0
M  V30 3031 C 287.695 -1.50018 3.01656 0
M  V30 3032 O 288.225 -2.59855 3.0633 0
M  V30 3033 N 286.431 -1.35608 2.57019 0
M  V30 3034 H 285.978 -0.46244 2.53415 0
M  V30 3035 H 285.936 -2.17165 2.27347 0
M  V30 3036 N 289.708 -1.40897 0.706093 0
M  V30 3037 C 290.936 -2.05373 0.250887 0
M  V30 3038 C 291.351 -1.53172 -1.10381 0
M  V30 3039 O 290.708 -0.684305 -1.69185 0
M  V30 3040 C 290.759 -3.6088 0.211571 0
M  V30 3041 O 290.48 -4.11153 1.51276 0
M  V30 3042 C 291.981 -4.42517 -0.263346 0
M  V30 3043 H 289.201 -0.66115 0.114552 0
M  V30 3044 H 291.745 -1.80479 0.961635 0
M  V30 3045 H 289.9 -3.84777 -0.450073 0
M  V30 3046 H 290.314 -5.05279 1.40689 0
M  V30 3047 H 291.788 -5.51479 -0.239718 0
M  V30 3048 H 292.265 -4.19396 -1.30397 0
M  V30 3049 H 292.871 -4.23708 0.367677 0
M  V30 3050 N 291.186 -0.45159 -1.50991 0
M  V30 3051 C 292.116 0.342898 -2.30969 0
M  V30 3052 C 293.097 1.00815 -1.37005 0
M  V30 3053 O 294.282 1.00907 -1.65926 0
M  V30 3054 C 291.412 1.43637 -3.16205 0
M  V30 3055 C 290.366 0.893818 -4.18563 0
M  V30 3056 C 289.692 2.08411 -4.92411 0
M  V30 3057 C 290.992 -0.0815568 -5.22236 0
M  V30 3058 H 292.686 -0.324556 -2.97636 0
M  V30 3059 H 290.232 -0.157531 -1.43136 0
M  V30 3060 H 292.185 1.9995 -3.70942 0
M  V30 3061 H 290.909 2.13232 -2.47386 0
M  V30 3062 H 289.568 0.352798 -3.64898 0
M  V30 3063 H 289.216 2.76658 -4.20082 0
M  V30 3064 H 288.916 1.72741 -5.61636 0
M  V30 3065 H 290.44 2.65251 -5.49976 0
M  V30 3066 H 291.854 0.391742 -5.7196 0
M  V30 3067 H 290.251 -0.351551 -5.99069 0
M  V30 3068 H 291.321 -1.01374 -4.74185 0
M  V30 3069 N 292.664 1.56529 -0.183458 0
M  V30 3070 C 293.612 2.19873 0.758845 0
M  V30 3071 C 294.606 1.16638 1.22849 0
M  V30 3072 O 295.812 1.3481 1.19274 0
M  V30 3073 H 292.187 0.7045 0.263029 0
M  V30 3074 H 294.158 2.97724 0.200755 0
M  V30 3075 C 292.907 2.86314 1.9728 0
M  V30 3076 H 292.23 3.65487 1.62047 0
M  V30 3077 H 293.67 3.3409 2.61075 0
M  V30 3078 C 292.129 1.86729 2.80418 0
M  V30 3079 O 292.659 1.36031 3.77966 0
M  V30 3080 N 290.865 1.55216 2.45675 0
M  V30 3081 H 290.412 1.96636 1.66409 0
M  V30 3082 H 290.37 0.888388 3.01588 0
M  V30 3083 N 294.142 -0.090211 1.57342 0
M  V30 3084 C 295.072 -1.10976 2.05443 0
M  V30 3085 C 296.053 -1.41482 0.944284 0
M  V30 3086 O 297.238 -1.51428 1.21586 0
M  V30 3087 C 294.368 -2.42831 2.48295 0
M  V30 3088 C 293.322 -2.26721 3.63018 0
M  V30 3089 C 292.648 -3.63796 3.91863 0
M  V30 3090 C 293.948 -1.7037 4.93732 0
M  V30 3091 H 295.642 -0.709564 2.9087 0
M  V30 3092 H 293.188 -0.339874 1.39932 0
M  V30 3093 H 295.141 -3.14431 2.80555 0
M  V30 3094 H 293.865 -2.84795 1.59873 0
M  V30 3095 H 292.524 -1.57565 3.31012 0
M  V30 3096 H 292.172 -4.03297 3.00601 0
M  V30 3097 H 291.872 -3.53861 4.69101 0
M  V30 3098 H 293.396 -4.36855 4.26603 0
M  V30 3099 H 294.81 -2.31816 5.24342 0
M  V30 3100 H 293.207 -1.71181 5.75167 0
M  V30 3101 H 294.277 -0.663542 4.80339 0
M  V30 3102 N 295.62 -1.53406 -0.361157 0
M  V30 3103 C 296.868 -1.69467 -1.10115 0
M  V30 3104 C 297.189 -0.451352 -1.89705 0
M  V30 3105 O 296.459 0.534636 -1.88463 0
M  V30 3106 H 295.039 -0.624749 -0.409508 0
M  V30 3107 H 297.701 -1.90609 -0.406699 0
M  V30 3108 H 296.797 -2.55774 -1.78847 0
M  V30 3109 N 297.098 0.621204 -1.44841 0
M  V30 3110 C 298.344 1.3826 -1.48365 0
M  V30 3111 C 298.677 1.93831 -0.119624 0
M  V30 3112 O 297.952 1.74251 0.864111 0
M  V30 3113 C 298.235 2.54058 -2.55199 0
M  V30 3114 C 298.088 2.03772 -4.00995 0
M  V30 3115 C 299.407 3.56225 -2.58442 0
M  V30 3116 H 296.526 0.501374 -0.540179 0
M  V30 3117 H 299.168 0.7015 -1.76576 0
M  V30 3118 H 297.318 3.12162 -2.31274 0
M  V30 3119 H 298.99 1.50423 -4.36086 0
M  V30 3120 H 297.233 1.34876 -4.12299 0
M  V30 3121 H 297.904 2.87185 -4.71411 0
M  V30 3122 H 300.38 3.07939 -2.79844 0
M  V30 3123 H 299.256 4.34756 -3.3508 0
M  V30 3124 H 299.517 4.10949 -1.63013 0
M  V30 3125 N 298.576 1.31904 0.862503 0
M  V30 3126 C 299.824 1.21776 1.61292 0
M  V30 3127 C 300.145 -0.222413 1.93727 0
M  V30 3128 O 299.415 -1.1451 1.58947 0
M  V30 3129 H 297.995 0.447717 0.597962 0
M  V30 3130 H 300.657 1.65326 1.03215 0
M  V30 3131 H 299.753 1.7948 2.5533 0
M  V30 3132 N 300.054 -1.07777 1.14986 0
M  V30 3133 C 301.303 -1.79669 0.916617 0
M  V30 3134 C 301.616 -1.87474 -0.557917 0
M  V30 3135 O 302.822 -2.55845 -0.908617 0
M  V30 3136 C 301.278 -3.22848 1.59051 0
M  V30 3137 C 300.886 -3.23257 3.10176 0
M  V30 3138 C 302.63 -3.99379 1.43864 0
M  V30 3139 C 300.537 -4.61063 3.70372 0
M  V30 3140 H 299.467 -0.673349 0.33929 0
M  V30 3141 H 302.118 -1.21003 1.37951 0
M  V30 3142 H 300.5 -3.8168 1.0553 0
M  V30 3143 H 301.674 -2.74095 3.70417 0
M  V30 3144 H 299.989 -2.60222 3.25074 0
M  V30 3145 H 302.586 -5.0122 1.86232 0
M  V30 3146 H 302.929 -4.14511 0.385564 0
M  V30 3147 H 303.462 -3.47032 1.94457 0
M  V30 3148 H 300.201 -4.51135 4.7556 0
M  V30 3149 H 299.721 -5.1048 3.14913 0
M  V30 3150 H 301.4 -5.30034 3.71043 0
M  V30 3151 N 301.532 -0.945985 -1.26051 0
M  V30 3152 C 302.948 -0.649045 -1.45807 0
M  V30 3153 C 303.148 0.796158 -1.85104 0
M  V30 3154 O 302.204 1.57233 -1.97571 0
M  V30 3155 C 303.517 -1.61458 -2.53677 0
M  V30 3156 C 305.065 -1.62481 -2.67524 0
M  V30 3157 C 305.54 -2.57776 -3.7857 0
M  V30 3158 N 307.031 -2.5609 -3.85969 0
M  V30 3159 C 307.766 -3.26508 -4.7136 0
M  V30 3160 N 307.262 -4.0637 -5.61102 0
M  V30 3161 N 309.055 -3.15437 -4.65248 0
M  V30 3162 H 301.206 -1.88005 -0.988328 0
M  V30 3163 H 303.469 -0.808198 -0.4955 0
M  V30 3164 H 303.175 -2.64644 -2.31638 0
M  V30 3165 H 303.049 -1.37036 -3.51427 0
M  V30 3166 H 305.436 -0.600167 -2.88933 0
M  V30 3167 H 305.517 -1.90958 -1.70202 0
M  V30 3168 H 305.161 -3.60361 -3.57913 0
M  V30 3169 H 305.091 -2.26587 -4.75359 0
M  V30 3170 H 307.582 -1.98105 -3.21812 0
M  V30 3171 H 307.895 -4.57042 -6.23164 0
M  V30 3172 H 306.24 -4.10469 -5.60839 0
M  V30 3173 H 309.431 -2.52525 -3.94143 0
M  V30 3174 H 309.604 -3.70584 -5.31575 0
M  V30 3175 N 303.011 1.40521 -0.713556 0
M  V30 3176 C 304.239 2.05237 -0.261775 0
M  V30 3177 C 304.654 1.53755 1.09567 0
M  V30 3178 O 304.011 0.693268 1.6882 0
M  V30 3179 C 304.062 3.60763 -0.230706 0
M  V30 3180 O 303.783 4.10345 -1.53455 0
M  V30 3181 C 305.284 4.42651 0.239874 0
M  V30 3182 H 302.504 0.660533 -0.118057 0
M  V30 3183 H 305.048 1.79967 -0.971192 0
M  V30 3184 H 303.203 3.8501 0.429661 0
M  V30 3185 H 303.617 5.04526 -1.43366 0
M  V30 3186 H 305.091 5.51599 0.210468 0
M  V30 3187 H 305.568 4.20082 1.28171 0
M  V30 3188 H 306.174 4.23507 -0.390142 0
M  V30 3189 N 304.489 0.459591 1.5075 0
M  V30 3190 C 305.419 -0.330644 2.31147 0
M  V30 3191 C 306.4 -1.00087 1.37538 0
M  V30 3192 O 307.585 -1.00025 1.66459 0
M  V30 3193 C 304.715 -1.41958 3.16962 0
M  V30 3194 C 303.669 -0.871608 4.19031 0
M  V30 3195 C 302.995 -2.05797 4.9351 0
M  V30 3196 C 304.295 0.109251 5.22186 0
M  V30 3197 H 305.989 0.340336 2.97459 0
M  V30 3198 H 303.535 0.165119 1.4305 0
M  V30 3199 H 305.488 -1.9798 3.71997 0
M  V30 3200 H 304.212 -2.11917 2.48513 0
M  V30 3201 H 302.871 -0.333442 3.6508 0
M  V30 3202 H 302.519 -2.74427 4.21544 0
M  V30 3203 H 302.219 -1.6976 5.62544 0
M  V30 3204 H 303.743 -2.62331 5.51375 0
M  V30 3205 H 305.157 -0.361405 5.7216 0
M  V30 3206 H 303.554 0.383316 5.98875 0
M  V30 3207 H 304.624 1.03887 4.73641 0
M  V30 3208 N 305.967 -1.56429 0.191757 0
M  V30 3209 C 306.877 -2.22541 -0.742481 0
M  V30 3210 C 307.893 -1.22342 -1.23727 0
M  V30 3211 O 309.069 -1.55069 -1.28513 0
M  V30 3212 C 306.134 -2.8692 -1.94623 0
M  V30 3213 C 305.195 -4.02378 -1.49633 0
M  V30 3214 C 304.428 -4.63678 -2.6427 0
M  V30 3215 O 304.651 -4.23895 -3.81666 0
M  V30 3216 O 303.585 -5.53202 -2.37174 0
M  V30 3217 H 307.411 -3.02977 -0.209462 0
M  V30 3218 H 304.996 -1.49353 -0.0373832 0
M  V30 3219 H 306.878 -3.27663 -2.64982 0
M  V30 3220 H 305.553 -2.09466 -2.46791 0
M  V30 3221 H 304.46 -3.66265 -0.761636 0
M  V30 3222 H 305.793 -4.81487 -1.02134 0
M  V30 3223 N 307.445 0.0818655 -1.57387 0
M  V30 3224 C 308.393 1.11712 -2.04018 0
M  V30 3225 C 309.387 1.40683 -0.94364 0
M  V30 3226 O 310.593 1.40209 -1.12878 0
M  V30 3227 H 306.968 0.377542 -0.650358 0
M  V30 3228 H 308.939 0.697614 -2.90131 0
M  V30 3229 C 307.688 2.42537 -2.49141 0
M  V30 3230 H 307.011 2.21092 -3.33104 0
M  V30 3231 H 308.451 3.13446 -2.85531 0
M  V30 3232 C 306.91 3.0778 -1.37014 0
M  V30 3233 O 307.44 3.95436 -0.706621 0
M  V30 3234 N 305.646 2.68242 -1.11779 0
M  V30 3235 H 305.193 1.97052 -1.65917 0
M  V30 3236 H 305.151 3.1222 -0.369594 0
M  V30 3237 N 308.923 1.53595 0.353017 0
M  V30 3238 C 310.171 1.70049 1.09215 0
M  V30 3239 C 310.492 0.461406 1.89463 0
M  V30 3240 O 309.762 -0.524633 1.88744 0
M  V30 3241 H 308.342 0.626912 0.40619 0
M  V30 3242 H 311.004 1.90822 0.396585 0
M  V30 3243 H 310.1 2.56718 1.77488 0
M  V30 3244 N 310.401 -0.613514 1.45168 0
M  V30 3245 C 311.647 -1.37279 1.50087 0
M  V30 3246 C 312.002 -1.91902 0.138294 0
M  V30 3247 O 311.295 -1.71764 -0.84899 0
M  V30 3248 C 311.489 -2.54347 2.51083 0
M  V30 3249 C 311.318 -2.11186 3.97027 0
M  V30 3250 C 310.088 -1.97636 4.65046 0
M  V30 3251 C 312.286 -1.69016 4.85735 0
M  V30 3252 N 310.268 -1.48224 5.95737 0
M  V30 3253 C 311.639 -1.30976 6.06008 0
M  V30 3254 C 313.694 -1.56555 4.72647 0
M  V30 3255 C 312.397 -0.817197 7.14643 0
M  V30 3256 C 314.423 -1.08702 5.81324 0
M  V30 3257 C 313.785 -0.716233 7.00749 0
M  V30 3258 H 309.884 -0.496478 0.60418 0
M  V30 3259 H 312.468 -0.701988 1.81605 0
M  V30 3260 H 310.639 -3.19031 2.21527 0
M  V30 3261 H 312.371 -3.21208 2.46187 0
M  V30 3262 H 309.126 -2.18638 4.20112 0
M  V30 3263 H 309.55 -1.25767 6.65216 0
M  V30 3264 H 314.192 -1.83849 3.80736 0
M  V30 3265 H 311.91 -0.531797 8.06348 0
M  V30 3266 H 315.496 -0.994943 5.7323 0
M  V30 3267 H 314.376 -0.351642 7.83411 0
M  V30 3268 N 311.879 -1.3236 -0.855495 0
M  V30 3269 C 312.809 -1.23833 -1.97958 0
M  V30 3270 C 313.79 -0.122361 -1.69659 0
M  V30 3271 O 314.975 -0.30939 -1.9172 0
M  V30 3272 C 312.105 -0.959772 -3.33775 0
M  V30 3273 C 311.059 -2.03689 -3.76424 0
M  V30 3274 C 310.385 -1.61075 -5.09862 0
M  V30 3275 C 311.685 -3.4518 -3.9198 0
M  V30 3276 H 313.379 -2.1788 -2.0535 0
M  V30 3277 H 310.925 -1.04891 -0.986605 0
M  V30 3278 H 312.878 -0.886678 -4.11966 0
M  V30 3279 H 311.602 0.0163404 -3.26596 0
M  V30 3280 H 310.261 -2.10012 -3.00484 0
M  V30 3281 H 309.909 -0.622107 -4.99138 0
M  V30 3282 H 309.609 -2.33143 -5.39368 0
M  V30 3283 H 311.133 -1.55201 -5.90546 0
M  V30 3284 H 312.547 -3.4145 -4.60526 0
M  V30 3285 H 310.944 -4.1559 -4.32903 0
M  V30 3286 H 312.014 -3.84903 -2.94919 0
M  V30 3287 N 313.357 1.07166 -1.15556 0
M  V30 3288 C 314.587 1.83248 -0.954133 0
M  V30 3289 C 314.995 1.82449 0.500911 0
M  V30 3290 O 314.338 1.23575 1.35923 0
M  V30 3291 C 314.4 3.31393 -1.39351 0
M  V30 3292 C 314.064 3.5591 -2.86666 0
M  V30 3293 C 315.061 3.49695 -3.8472 0
M  V30 3294 C 312.746 3.83515 -3.24379 0
M  V30 3295 C 314.74 3.70737 -5.18491 0
M  V30 3296 C 312.427 4.04209 -4.58321 0
M  V30 3297 C 313.425 3.97815 -5.55186 0
M  V30 3298 O 313.113 4.17954 -6.86709 0
M  V30 3299 H 312.845 0.584941 -0.338851 0
M  V30 3300 H 315.399 1.36169 -1.53777 0
M  V30 3301 H 313.629 3.79292 -0.75329 0
M  V30 3302 H 315.318 3.88945 -1.16089 0
M  V30 3303 H 316.084 3.28368 -3.56931 0
M  V30 3304 H 311.963 3.87605 -2.49567 0
M  V30 3305 H 315.507 3.65663 -5.94085 0
M  V30 3306 H 311.404 4.25023 -4.85825 0
M  V30 3307 H 312.172 4.35291 -6.93155 0
M  V30 3308 N 314.835 0.952656 1.25548 0
M  V30 3309 C 316.083 0.605176 1.92826 0
M  V30 3310 C 316.404 -0.860261 1.74999 0
M  V30 3311 O 315.674 -1.6125 1.11244 0
M  V30 3312 H 314.254 0.220832 0.713612 0
M  V30 3313 H 316.916 1.21047 1.52754 0
M  V30 3314 H 316.012 0.832798 3.00784 0
M  V30 3315 N 316.313 -1.40141 0.720998 0
M  V30 3316 C 317.243 -2.33339 0.0867621 0
M  V30 3317 C 318.224 -1.53178 -0.739622 0
M  V30 3318 O 319.409 -1.81625 -0.687449 0
M  V30 3319 C 316.539 -3.37194 -0.831728 0
M  V30 3320 C 315.493 -4.27857 -0.110558 0
M  V30 3321 C 314.819 -5.22294 -1.14513 0
M  V30 3322 C 316.119 -5.11872 1.0385 0
M  V30 3323 H 317.813 -2.86626 0.865219 0
M  V30 3324 H 315.359 -1.37814 0.417516 0
M  V30 3325 H 317.312 -4.01335 -1.28485 0
M  V30 3326 H 316.036 -2.82314 -1.64214 0
M  V30 3327 H 314.695 -3.65176 0.322797 0
M  V30 3328 H 314.343 -4.63717 -1.94874 0
M  V30 3329 H 314.043 -5.83797 -0.667446 0
M  V30 3330 H 315.567 -5.89312 -1.59824 0
M  V30 3331 H 316.981 -5.69436 0.664482 0
M  V30 3332 H 315.378 -5.82445 1.4449 0
M  V30 3333 H 316.448 -4.4753 1.86668 0
M  V30 3334 N 317.792 -0.46758 -1.50504 0
M  V30 3335 C 318.74 0.342482 -2.30065 0
M  V30 3336 C 319.734 0.993596 -1.37201 0
M  V30 3337 O 320.94 0.925102 -1.54408 0
M  V30 3338 H 317.315 0.129283 -0.740803 0
M  V30 3339 H 319.286 -0.34899 -2.96352 0
M  V30 3340 C 318.035 1.4139 -3.17654 0
M  V30 3341 H 317.358 0.922264 -3.89017 0
M  V30 3342 H 318.798 1.95335 -3.76325 0
M  V30 3343 C 317.257 2.4139 -2.35016 0
M  V30 3344 O 317.787 3.46586 -2.03079 0
M  V30 3345 N 315.993 2.13021 -1.97662 0
M  V30 3346 H 315.54 1.27499 -2.23834 0
M  V30 3347 H 315.498 2.80164 -1.42673 0
M  V30 3348 N 319.27 1.56325 -0.20005 0
M  V30 3349 C 320.498 2.02105 0.442874 0
M  V30 3350 C 320.913 1.08014 1.5485 0
M  V30 3351 O 320.27 0.0858797 1.82298 0
M  V30 3352 C 320.321 3.47549 0.994583 0
M  V30 3353 O 320.042 4.38049 -0.0669322 0
M  V30 3354 C 321.543 4.0887 1.7129 0
M  V30 3355 H 318.763 0.661807 0.110691 0
M  V30 3356 H 321.307 2.02134 -0.310207 0
M  V30 3357 H 319.462 3.48204 1.69803 0
M  V30 3358 H 319.876 5.23368 0.344462 0
M  V30 3359 H 321.35 5.12475 2.05118 0
M  V30 3360 H 321.827 3.52615 2.61838 0
M  V30 3361 H 322.433 4.12002 1.05518 0
M  V30 3362 N 320.748 -0.0735177 1.57428 0
M  V30 3363 C 321.995 -0.772999 1.87166 0
M  V30 3364 C 322.323 -1.77665 0.791551 0
M  V30 3365 O 321.578 -1.94541 -0.212636 0
M  V30 3366 C 321.877 -1.51799 3.23561 0
M  V30 3367 C 321.543 -0.654484 4.46125 0
M  V30 3368 C 320.205 -0.416511 4.79394 0
M  V30 3369 C 322.557 -0.0555862 5.2117 0
M  V30 3370 C 319.885 0.429869 5.85123 0
M  V30 3371 C 322.237 0.778239 6.27795 0
M  V30 3372 C 320.901 1.0261 6.59566 0
M  V30 3373 H 320.171 -0.282861 0.684888 0
M  V30 3374 H 322.818 -0.0338272 1.9147 0
M  V30 3375 H 321.123 -2.32932 3.1504 0
M  V30 3376 H 322.82 -2.06397 3.43804 0
M  V30 3377 H 319.41 -0.850091 4.20085 0
M  V30 3378 H 323.594 -0.226558 4.95783 0
M  V30 3379 H 318.85 0.630665 6.08139 0
M  V30 3380 H 323.024 1.24906 6.85107 0
M  V30 3381 H 320.651 1.68371 7.4132 0
M  V30 3382 N 322.226 -1.5378 -0.344866 0
M  V30 3383 C 323.456 -1.74646 -1.10374 0
M  V30 3384 C 323.864 -0.48491 -1.8288 0
M  V30 3385 O 323.207 0.553062 -1.75177 0
M  V30 3386 C 323.269 -2.87145 -2.16306 0
M  V30 3387 C 322.933 -4.26795 -1.63386 0
M  V30 3388 C 323.93 -5.08412 -1.08688 0
M  V30 3389 C 321.615 -4.73276 -1.68272 0
M  V30 3390 C 323.609 -6.34609 -0.595792 0
M  V30 3391 C 321.296 -5.99446 -1.18776 0
M  V30 3392 C 322.294 -6.79946 -0.645215 0
M  V30 3393 O 321.982 -8.03745 -0.157626 0
M  V30 3394 H 321.714 -0.587112 -0.335075 0
M  V30 3395 H 324.268 -2.01403 -0.403252 0
M  V30 3396 H 322.498 -2.55909 -2.89909 0
M  V30 3397 H 324.187 -2.95992 -2.77747 0
M  V30 3398 H 324.953 -4.73666 -1.04236 0
M  V30 3399 H 320.832 -4.10677 -2.09442 0
M  V30 3400 H 324.376 -6.97389 -0.171654 0
M  V30 3401 H 320.273 -6.33687 -1.22928 0
M  V30 3402 H 321.041 -8.18038 -0.275037 0
M  V30 3403 N 323.704 0.605807 -1.45491 0
M  V30 3404 C 324.981 1.36522 -1.40075 0
M  V30 3405 C 325.361 2.10976 -0.0722744 0
M  V30 3406 O 324.709 2.08007 0.945808 0
M  V30 3407 C 324.919 2.31056 -2.61561 0
M  V30 3408 C 326.267 2.93608 -3.06724 0
M  V30 3409 O 327.291 2.41376 -2.61946 0
M  V30 3410 O 326.15 3.88421 -3.84437 0
M  V30 3411 H 323.244 0.612248 -0.555951 0
M  V30 3412 H 325.79 0.628747 -1.57623 0
M  V30 3413 H 324.562 1.75311 -3.49831 0
M  V30 3414 H 324.185 3.12081 -2.46356 0
M  V30 3415 N 325.182 1.32811 0.848464 0
M  V30 3416 C 326.13 1.22231 1.97895 0
M  V30 3417 C 327.124 0.125749 1.68933 0
M  V30 3418 O 328.33 0.289083 1.77663 0
M  V30 3419 H 324.705 0.379058 0.649476 0
M  V30 3420 H 326.676 2.17828 2.03945 0
M  V30 3421 C 325.425 0.968572 3.33937 0
M  V30 3422 H 324.748 1.80458 3.56756 0
M  V30 3423 H 326.188 0.934808 4.13567 0
M  V30 3424 C 324.647 -0.328628 3.35293 0
M  V30 3425 O 325.177 -1.33848 3.78745 0
M  V30 3426 N 323.383 -0.352788 2.88451 0
M  V30 3427 H 322.93 0.469541 2.53285 0
M  V30 3428 H 322.888 -1.22057 2.89741 0
M  V30 3429 N 326.66 -1.06551 1.16123 0
M  V30 3430 C 327.937 -1.76097 0.85142 0
M  V30 3431 C 328.317 -2.00802 -0.6513 0
M  V30 3432 O 327.665 -1.63302 -1.59827 0
M  V30 3433 C 327.875 -3.06384 1.67122 0
M  V30 3434 C 329.223 -3.80585 1.88255 0
M  V30 3435 O 330.247 -3.16218 1.63966 0
M  V30 3436 O 329.106 -4.96212 2.2899 0
M  V30 3437 H 326.2 -0.765102 0.313923 0
M  V30 3438 H 328.746 -1.12844 1.26745 0
M  V30 3439 H 327.518 -2.84071 2.69108 0
M  V30 3440 H 327.141 -3.77371 1.25206 0
M  V30 3441 N 328.138 -0.959301 -1.25041 0
M  V30 3442 C 329.068 -0.501388 -2.28053 0
M  V30 3443 C 330.049 0.454673 -1.63911 0
M  V30 3444 O 331.234 0.352618 -1.90972 0
M  V30 3445 C 328.364 0.217224 -3.4662 0
M  V30 3446 C 327.318 -0.654034 -4.22973 0
M  V30 3447 C 326.644 0.195589 -5.34342 0
M  V30 3448 C 327.944 -1.93447 -4.85155 0
M  V30 3449 H 329.638 -1.36238 -2.66608 0
M  V30 3450 H 327.184 -0.656534 -1.28163 0
M  V30 3451 H 329.137 0.548732 -4.17812 0
M  V30 3452 H 327.861 1.1125 -3.07068 0
M  V30 3453 H 326.52 -0.968693 -3.5357 0
M  V30 3454 H 326.168 1.09076 -4.91031 0
M  V30 3455 H 325.868 -0.384091 -5.86343 0
M  V30 3456 H 327.392 0.521958 -6.08365 0
M  V30 3457 H 328.806 -1.66908 -5.48466 0
M  V30 3458 H 327.203 -2.46018 -5.47353 0
M  V30 3459 H 328.273 -2.63466 -4.07079 0
M  V30 3460 N 329.616 1.39756 -0.72842 0
M  V30 3461 C 330.844 2.04948 -0.283528 0
M  V30 3462 C 331.259 1.54908 1.0793 0
M  V30 3463 O 330.616 0.711135 1.68075 0
M  V30 3464 C 330.667 3.60498 -0.268957 0
M  V30 3465 O 330.388 4.08695 -1.57798 0
M  V30 3466 C 331.889 4.4288 0.192912 0
M  V30 3467 H 329.109 0.659243 -0.125056 0
M  V30 3468 H 331.653 1.78927 -0.990226 0
M  V30 3469 H 329.808 3.85444 0.388801 0
M  V30 3470 H 330.222 5.02977 -1.48709 0
M  V30 3471 H 331.696 5.51791 0.151952 0
M  V30 3472 H 332.173 4.21418 1.23708 0
M  V30 3473 H 332.779 4.23069 -0.435039 0
M  V30 3474 N 331.094 0.475555 1.50254 0
M  V30 3475 C 332.342 -0.077738 2.0195 0
M  V30 3476 C 332.663 -1.39813 1.35931 0
M  V30 3477 O 331.933 -1.89249 0.506123 0
M  V30 3478 H 330.513 -0.031719 0.746326 0
M  V30 3479 H 333.175 0.626995 1.84539 0
M  V30 3480 H 332.271 -0.225995 3.11281 0
M  V30 3481 N 332.573 -1.56217 0.208337 0
M  V30 3482 C 333.523 -2.16324 -0.720281 0
M  V30 3483 C 334.507 -1.10775 -1.16695 0
M  V30 3484 O 335.699 -1.36801 -1.12314 0
M  V30 3485 C 332.828 -2.83644 -1.93393 0
M  V30 3486 C 331.914 -3.96401 -1.50755 0
M  V30 3487 N 332.305 -4.99546 -0.792937 0
M  V30 3488 C 330.603 -4.08246 -1.79585 0
M  V30 3489 C 331.304 -5.78828 -0.577364 0
M  V30 3490 N 330.28 -5.31723 -1.1301 0
M  V30 3491 H 334.082 -2.93432 -0.165725 0
M  V30 3492 H 331.596 -1.62397 0.00906463 0
M  V30 3493 H 333.593 -3.25107 -2.60981 0
M  V30 3494 H 332.253 -2.08027 -2.49308 0
M  V30 3495 H 333.264 -5.15967 -0.447004 0
M  V30 3496 H 329.941 -3.4377 -2.36915 0
M  V30 3497 H 331.331 -6.71899 -0.00952956 0
M  V30 3498 N 334.051 0.0651679 -1.57465 0
M  V30 3499 C 334.999 1.09542 -2.05191 0
M  V30 3500 C 335.993 1.39675 -0.958509 0
M  V30 3501 O 337.199 1.39003 -1.14359 0
M  V30 3502 H 333.574 0.370623 -0.654326 0
M  V30 3503 H 335.545 0.666802 -2.90854 0
M  V30 3504 C 334.294 2.39881 -2.51699 0
M  V30 3505 H 333.617 2.17547 -3.3543 0
M  V30 3506 H 335.057 3.104 -2.88839 0
M  V30 3507 C 333.516 3.0631 -1.40271 0
M  V30 3508 O 334.046 3.94664 -0.748523 0
M  V30 3509 N 332.252 2.67041 -1.14618 0
M  V30 3510 H 331.799 1.95281 -1.67997 0
M  V30 3511 H 331.757 3.1181 -0.402688 0
M  V30 3512 N 335.529 1.53961 0.336706 0
M  V30 3513 C 336.479 1.7881 1.41461 0
M  V30 3514 C 337.463 0.643561 1.47469 0
M  V30 3515 O 338.655 0.903166 1.52223 0
M  V30 3516 C 335.784 2.00722 2.78506 0
M  V30 3517 C 334.87 3.2126 2.76862 0
M  V30 3518 N 335.261 4.42588 2.44845 0
M  V30 3519 C 333.559 3.22568 3.08004 0
M  V30 3520 C 334.26 5.2447 2.51607 0
M  V30 3521 N 333.236 4.61344 2.87511 0
M  V30 3522 H 337.038 2.70205 1.15615 0
M  V30 3523 H 334.552 1.52978 0.545112 0
M  V30 3524 H 336.549 2.1666 3.5618 0
M  V30 3525 H 335.209 1.10573 3.05293 0
M  V30 3526 H 336.22 4.69819 2.17922 0
M  V30 3527 H 332.897 2.42409 3.39918 0
M  V30 3528 H 334.287 6.31324 2.29955 0
M  V30 3529 N 337.007 -0.598083 1.45811 0
M  V30 3530 C 338.423 -0.919847 1.30426 0
M  V30 3531 C 338.623 -1.99759 0.264303 0
M  V30 3532 O 337.679 -2.50221 -0.338472 0
M  V30 3533 C 338.992 -1.35176 2.68603 0
M  V30 3534 C 340.54 -1.46546 2.76574 0
M  V30 3535 C 341.015 -1.9311 4.15298 0
M  V30 3536 N 342.506 -2.00328 4.1764 0
M  V30 3537 C 343.241 -2.37599 5.21856 0
M  V30 3538 N 342.737 -2.73771 6.36413 0
M  V30 3539 N 344.53 -2.38021 5.09218 0
M  V30 3540 H 336.681 0.114111 2.12093 0
M  V30 3541 H 338.944 -0.0116121 0.947929 0
M  V30 3542 H 338.65 -0.633969 3.45939 0
M  V30 3543 H 338.524 -2.3164 2.97696 0
M  V30 3544 H 340.911 -2.17415 1.99537 0
M  V30 3545 H 340.992 -0.483727 2.51185 0
M  V30 3546 H 340.636 -1.22824 4.92825 0
M  V30 3547 H 340.566 -2.92213 4.38086 0
M  V30 3548 H 343.057 -1.74925 3.34977 0
M  V30 3549 H 343.37 -3.0112 7.11721 0
M  V30 3550 H 341.715 -2.71445 6.39799 0
M  V30 3551 H 344.906 -2.09174 4.18765 0
M  V30 3552 H 345.079 -2.66741 5.90554 0
M  V30 3553 N 338.485 -1.33259 -0.841409 0
M  V30 3554 C 339.734 -1.23921 -1.59143 0
M  V30 3555 C 340.047 0.1941 -1.94635 0
M  V30 3556 O 341.253 0.409474 -2.68394 0
M  V30 3557 C 339.709 -2.17119 -2.87032 0
M  V30 3558 C 339.317 -3.65606 -2.58914 0
M  V30 3559 C 341.061 -2.16648 -3.65053 0
M  V30 3560 C 338.968 -4.50726 -3.82884 0
M  V30 3561 H 337.898 -0.460264 -0.597221 0
M  V30 3562 H 340.549 -1.58307 -0.927959 0
M  V30 3563 H 338.931 -1.75663 -3.54906 0
M  V30 3564 H 340.105 -4.15487 -1.99267 0
M  V30 3565 H 338.42 -3.68341 -1.942 0
M  V30 3566 H 341.017 -2.77474 -4.57069 0
M  V30 3567 H 341.36 -1.16088 -3.99787 0
M  V30 3568 H 341.893 -2.56453 -3.041 0
M  V30 3569 H 338.632 -5.52151 -3.53283 0
M  V30 3570 H 338.152 -4.0559 -4.41879 0
M  V30 3571 H 339.831 -4.64401 -4.50489 0
M  V30 3572 N 339.963 1.05934 -1.16686 0
M  V30 3573 C 341.211 1.78447 -0.948744 0
M  V30 3574 C 341.532 1.87813 0.524523 0
M  V30 3575 O 340.802 1.38945 1.38098 0
M  V30 3576 H 339.382 0.660971 -0.348033 0
M  V30 3577 H 342.044 1.27947 -1.47022 0
M  V30 3578 H 341.14 2.80394 -1.37061 0
M  V30 3579 N 341.441 0.965919 1.2453 0
M  V30 3580 C 342.371 0.513476 2.27784 0
M  V30 3581 C 343.352 -0.445974 1.6415 0
M  V30 3582 O 344.537 -0.342485 1.91156 0
M  V30 3583 C 341.667 -0.198839 3.4673 0
M  V30 3584 C 340.621 0.676456 4.2262 0
M  V30 3585 C 339.947 -0.167248 5.34438 0
M  V30 3586 C 341.247 1.96017 4.84123 0
M  V30 3587 H 342.941 1.3765 2.65881 0
M  V30 3588 H 340.487 0.663321 1.27813 0
M  V30 3589 H 342.44 -0.526567 4.18097 0
M  V30 3590 H 341.164 -1.0962 3.07654 0
M  V30 3591 H 339.823 0.98743 3.53052 0
M  V30 3592 H 339.471 -1.0647 4.91603 0
M  V30 3593 H 339.171 0.415181 5.86131 0
M  V30 3594 H 340.695 -0.489688 6.08633 0
M  V30 3595 H 342.109 1.69814 5.47573 0
M  V30 3596 H 340.506 2.48918 5.4604 0
M  V30 3597 H 341.576 2.65622 4.05676 0
M  V30 3598 N 342.919 -1.39368 0.735821 0
M  V30 3599 C 344.167 -2.00101 0.283562 0
M  V30 3600 C 344.488 -1.5868 -1.13338 0
M  V30 3601 O 343.758 -0.835423 -1.77193 0
M  V30 3602 H 342.338 -0.740024 0.101851 0
M  V30 3603 H 345 -1.70404 0.945962 0
M  V30 3604 H 344.096 -3.10323 0.332604 0
M  V30 3605 N 344.397 -0.483516 -1.5 0
M  V30 3606 C 345.36 0.292965 -2.2732 0
M  V30 3607 C 346.36 0.909499 -1.32608 0
M  V30 3608 O 347.55 0.776745 -1.55924 0
M  V30 3609 C 344.682 1.41854 -3.09984 0
M  V30 3610 H 345.875 -0.385289 -2.97415 0
M  V30 3611 H 343.428 -0.237942 -1.54478 0
M  V30 3612 H 344.163 2.13148 -2.44414 0
M  V30 3613 H 343.948 0.982114 -3.79601 0
M  V30 3614 H 345.438 1.96597 -3.68429 0
M  V30 3615 N 345.875 1.56104 -0.216619 0
M  V30 3616 C 346.785 2.23694 0.706982 0
M  V30 3617 C 347.801 1.24295 1.21765 0
M  V30 3618 O 348.977 1.57094 1.2603 0
M  V30 3619 C 346.042 2.8998 1.90033 0
M  V30 3620 C 345.103 4.04708 1.43213 0
M  V30 3621 C 344.336 4.67824 2.56859 0
M  V30 3622 O 344.559 4.29913 3.74874 0
M  V30 3623 O 343.493 5.56905 2.28343 0
M  V30 3624 H 347.319 3.03272 0.161235 0
M  V30 3625 H 344.904 1.49394 0.0136177 0
M  V30 3626 H 346.786 3.31837 2.59735 0
M  V30 3627 H 345.461 2.13365 2.43428 0
M  V30 3628 H 344.368 3.6743 0.70327 0
M  V30 3629 H 345.701 4.83051 0.944615 0
M  V30 3630 N 347.353 -0.0568162 1.57498 0
M  V30 3631 C 348.316 -1.05038 2.03715 0
M  V30 3632 C 349.316 -1.30709 0.936577 0
M  V30 3633 O 350.506 -1.26178 1.20103 0
M  V30 3634 C 347.638 -2.39034 2.43055 0
M  V30 3635 H 348.831 -0.651715 2.92733 0
M  V30 3636 H 346.384 -0.302947 1.53336 0
M  V30 3637 H 347.119 -2.83703 1.57108 0
M  V30 3638 H 346.904 -2.21739 3.2338 0
M  V30 3639 H 348.394 -3.10421 2.79336 0
M  V30 3640 N 348.832 -1.54138 -0.328536 0
M  V30 3641 C 350.078 -1.73297 -1.06488 0
M  V30 3642 C 350.433 -0.497958 -1.85844 0
M  V30 3643 O 349.726 0.509591 -1.84699 0
M  V30 3644 C 349.92 -2.9457 -2.02393 0
M  V30 3645 C 349.749 -4.29747 -1.32467 0
M  V30 3646 C 348.519 -4.93987 -1.06324 0
M  V30 3647 C 350.717 -5.08903 -0.743137 0
M  V30 3648 N 348.699 -6.13005 -0.331359 0
M  V30 3649 C 350.07 -6.19836 -0.142602 0
M  V30 3650 C 352.125 -4.93699 -0.64546 0
M  V30 3651 C 350.828 -7.17224 0.546125 0
M  V30 3652 C 352.854 -5.91393 0.0295558 0
M  V30 3653 C 352.216 -7.01674 0.619056 0
M  V30 3654 H 348.315 -0.687017 -0.373539 0
M  V30 3655 H 350.899 -1.91589 -0.346659 0
M  V30 3656 H 349.07 -2.77752 -2.71493 0
M  V30 3657 H 350.802 -3.0238 -2.68977 0
M  V30 3658 H 347.557 -4.53824 -1.35428 0
M  V30 3659 H 347.981 -6.76997 0.0202939 0
M  V30 3660 H 352.623 -4.08589 -1.08695 0
M  V30 3661 H 350.341 -8.01896 0.999459 0
M  V30 3662 H 353.927 -5.81706 0.104705 0
M  V30 3663 H 352.807 -7.75971 1.13309 0
M  V30 3664 N 350.31 0.590341 -1.46126 0
M  V30 3665 C 351.538 1.37504 -1.54597 0
M  V30 3666 C 351.953 1.87897 -0.184447 0
M  V30 3667 O 351.31 1.63192 0.816984 0
M  V30 3668 C 351.361 2.56779 -2.54454 0
M  V30 3669 O 351.082 2.08476 -3.85317 0
M  V30 3670 C 352.583 3.49427 -2.72792 0
M  V30 3671 H 349.803 0.420325 -0.523037 0
M  V30 3672 H 352.347 0.718383 -1.91467 0
M  V30 3673 H 350.502 3.1845 -2.20609 0
M  V30 3674 H 350.916 2.86097 -4.396 0
M  V30 3675 H 352.39 4.29619 -3.466 0
M  V30 3676 H 352.867 4.00876 -1.79429 0
M  V30 3677 H 353.473 2.93598 -3.07702 0
M  V30 3678 N 351.788 1.33704 0.83433 0
M  V30 3679 C 353.065 1.16011 1.57483 0
M  V30 3680 C 353.445 -0.27176 2.09343 0
M  V30 3681 O 352.793 -1.27146 1.89858 0
M  V30 3682 C 353.003 2.20507 2.70514 0
M  V30 3683 C 354.351 2.54898 3.39577 0
M  V30 3684 O 355.375 2.19209 2.80759 0
M  V30 3685 O 354.234 3.16158 4.45765 0
M  V30 3686 H 351.328 0.448992 0.694503 0
M  V30 3687 H 353.874 1.453 0.876691 0
M  V30 3688 H 352.646 3.16667 2.29865 0
M  V30 3689 H 352.269 1.92329 3.47987 0
M  V30 3690 N 353.266 -1.05314 1.17247 0
M  V30 3691 C 354.496 -1.81707 0.983166 0
M  V30 3692 C 354.904 -1.83222 -0.471822 0
M  V30 3693 O 354.247 -1.25721 -1.3394 0
M  V30 3694 C 354.309 -3.29134 1.44606 0
M  V30 3695 C 353.973 -3.51304 2.92292 0
M  V30 3696 C 354.97 -3.4353 3.90235 0
M  V30 3697 C 352.655 -3.78306 3.30439 0
M  V30 3698 C 354.649 -3.62442 5.24323 0
M  V30 3699 C 352.336 -3.96866 4.64694 0
M  V30 3700 C 353.334 -3.88933 5.61445 0
M  V30 3701 O 353.022 -4.06976 6.93272 0
M  V30 3702 H 352.754 -0.579476 0.348114 0
M  V30 3703 H 355.308 -1.33705 1.55924 0
M  V30 3704 H 353.538 -3.78046 0.813537 0
M  V30 3705 H 355.227 -3.87049 1.22262 0
M  V30 3706 H 355.993 -3.22648 3.62109 0
M  V30 3707 H 351.872 -3.83585 2.55702 0
M  V30 3708 H 355.416 -3.56165 5.99827 0
M  V30 3709 H 351.313 -4.1724 4.92525 0
M  V30 3710 H 352.081 -4.24209 6.99992 0
M  V30 3711 N 354.744 -0.972509 -1.24016 0
M  V30 3712 C 355.674 -0.525548 -2.27509 0
M  V30 3713 C 356.655 0.437262 -1.64384 0
M  V30 3714 O 357.84 0.332343 -1.91335 0
M  V30 3715 C 354.97 0.180448 -3.46831 0
M  V30 3716 C 353.924 -0.698859 -4.22256 0
M  V30 3717 C 353.25 0.138903 -5.3452 0
M  V30 3718 C 354.55 -1.98582 -4.83076 0
M  V30 3719 H 356.244 -1.39058 -2.65148 0
M  V30 3720 H 353.79 -0.67009 -1.27459 0
M  V30 3721 H 355.743 0.504387 -4.18371 0
M  V30 3722 H 354.467 1.07987 -3.08231 0
M  V30 3723 H 353.126 -1.00614 -3.52523 0
M  V30 3724 H 352.774 1.03862 -4.9216 0
M  V30 3725 H 352.474 -0.446259 -5.85903 0
M  V30 3726 H 353.998 0.457404 -6.08884 0
M  V30 3727 H 355.412 -1.72715 -5.46665 0
M  V30 3728 H 353.809 -2.5181 -5.44713 0
M  V30 3729 H 354.879 -2.67769 -4.04262 0
M  V30 3730 N 356.222 1.38976 -0.743202 0
M  V30 3731 C 357.154 2.29096 -0.0689228 0
M  V30 3732 C 358.167 1.47229 0.694791 0
M  V30 3733 O 359.356 1.70212 0.537597 0
M  V30 3734 C 356.456 3.25988 0.926548 0
M  V30 3735 C 355.629 4.36833 0.222647 0
M  V30 3736 C 354.688 5.13981 1.12739 0
M  V30 3737 O 353.714 5.6601 0.601795 0
M  V30 3738 N 354.916 5.25966 2.45641 0
M  V30 3739 H 357.681 2.87604 -0.842846 0
M  V30 3740 H 355.242 1.50645 -0.593109 0
M  V30 3741 H 357.234 3.74476 1.5346 0
M  V30 3742 H 355.804 2.68453 1.60162 0
M  V30 3743 H 355.024 3.90116 -0.565983 0
M  V30 3744 H 356.312 5.0811 -0.264841 0
M  V30 3745 H 355.71 4.85228 2.9081 0
M  V30 3746 H 354.267 5.77865 3.01522 0
M  V30 3747 N 357.7 0.491464 1.49741 0
M  V30 3748 C 358.63 -0.28154 2.31796 0
M  V30 3749 C 359.611 -0.971473 1.3963 0
M  V30 3750 O 360.796 -0.964719 1.68543 0
M  V30 3751 C 357.926 -1.35203 3.19902 0
M  V30 3752 C 356.88 -0.782529 4.20786 0
M  V30 3753 C 356.206 -1.95283 4.97764 0
M  V30 3754 C 357.506 0.21999 5.21837 0
M  V30 3755 H 359.2 0.403355 2.96671 0
M  V30 3756 H 356.746 0.195425 1.42668 0
M  V30 3757 H 358.699 -1.90045 3.76113 0
M  V30 3758 H 357.423 -2.06598 2.52953 0
M  V30 3759 H 356.082 -0.255928 3.65706 0
M  V30 3760 H 355.73 -2.65423 4.2727 0
M  V30 3761 H 355.43 -1.57789 5.66018 0
M  V30 3762 H 356.954 -2.50577 5.56816 0
M  V30 3763 H 358.368 -0.23996 5.72798 0
M  V30 3764 H 356.765 0.51026 5.97927 0
M  V30 3765 H 357.835 1.13911 4.7133 0
M  V30 3766 N 359.178 -1.55987 0.224894 0
M  V30 3767 C 360.141 -2.19178 -0.670348 0
M  V30 3768 C 361.141 -1.15461 -1.11917 0
M  V30 3769 O 362.331 -1.40675 -1.02743 0
M  V30 3770 C 359.463 -2.81777 -1.9187 0
M  V30 3771 H 360.656 -2.99662 -0.119364 0
M  V30 3772 H 358.209 -1.5628 -0.0247128 0
M  V30 3773 H 358.944 -2.05172 -2.51147 0
M  V30 3774 H 358.729 -3.57732 -1.60531 0
M  V30 3775 H 360.219 -3.30205 -2.55645 0
M  V30 3776 N 360.656 0.0484629 -1.57525 0
M  V30 3777 C 361.619 1.03956 -2.04269 0
M  V30 3778 C 362.619 1.30211 -0.943496 0
M  V30 3779 O 363.809 1.25539 -1.20771 0
M  V30 3780 C 360.941 2.37742 -2.44319 0
M  V30 3781 H 362.134 0.636182 -2.93075 0
M  V30 3782 H 359.687 0.294811 -1.53494 0
M  V30 3783 H 360.422 2.82866 -1.5861 0
M  V30 3784 H 360.207 2.20021 -3.24551 0
M  V30 3785 H 361.697 3.08936 -2.80978 0
M  V30 3786 N 362.134 1.5431 0.320358 0
M  V30 3787 C 363.082 1.84647 1.4145 0
M  V30 3788 C 364.076 0.718624 1.53402 0
M  V30 3789 O 365.282 0.902335 1.5575 0
M  V30 3790 H 361.657 0.585349 0.472091 0
M  V30 3791 H 363.628 2.7614 1.13089 0
M  V30 3792 C 362.377 2.09341 2.77617 0
M  V30 3793 H 361.7 2.9559 2.69196 0
M  V30 3794 H 363.14 2.3452 3.53237 0
M  V30 3795 C 361.599 0.885939 3.25043 0
M  V30 3796 O 362.129 0.0967891 4.01583 0
M  V30 3797 N 360.335 0.696682 2.82125 0
M  V30 3798 H 359.882 1.34006 2.2 0
M  V30 3799 H 359.84 -0.109712 3.14209 0
M  V30 3800 N 363.613 -0.582584 1.46437 0
M  V30 3801 C 364.861 -1.33814 1.51453 0
M  V30 3802 C 365.182 -1.94277 0.167792 0
M  V30 3803 O 364.452 -1.78566 -0.805677 0
M  V30 3804 H 363.032 -0.496838 0.557818 0
M  V30 3805 H 365.694 -0.682281 1.82568 0
M  V30 3806 H 364.79 -2.14479 2.26728 0
M  V30 3807 N 365.091 -1.34144 -0.827227 0
M  V30 3808 C 366.321 -1.29138 -1.61267 0
M  V30 3809 C 366.729 0.137597 -1.88699 0
M  V30 3810 O 366.072 1.09379 -1.47587 0
M  V30 3811 C 366.134 -2.0097 -2.9808 0
M  V30 3812 C 365.798 -3.50242 -2.93563 0
M  V30 3813 C 366.795 -4.4523 -2.68452 0
M  V30 3814 C 364.48 -3.92592 -3.13331 0
M  V30 3815 C 366.474 -5.80542 -2.63154 0
M  V30 3816 C 364.161 -5.28005 -3.07658 0
M  V30 3817 C 365.159 -6.21792 -2.82602 0
M  V30 3818 O 364.847 -7.54723 -2.76853 0
M  V30 3819 H 364.579 -0.445851 -0.508127 0
M  V30 3820 H 367.133 -1.77263 -1.03763 0
M  V30 3821 H 365.363 -1.47451 -3.57484 0
M  V30 3822 H 367.052 -1.89309 -3.5905 0
M  V30 3823 H 367.818 -4.13832 -2.52919 0
M  V30 3824 H 363.697 -3.19994 -3.31851 0
M  V30 3825 H 367.241 -6.53717 -2.43516 0
M  V30 3826 H 363.138 -5.59023 -3.22743 0
M  V30 3827 H 363.906 -7.64409 -2.92611 0
M  V30 3828 N 366.569 1.04691 -1.17803 0
M  V30 3829 C 367.816 1.77782 -0.969532 0
M  V30 3830 C 368.144 1.87926 0.501401 0
M  V30 3831 O 367.399 1.37918 1.38842 0
M  V30 3832 C 367.698 3.21467 -1.56186 0
M  V30 3833 C 367.364 3.3137 -3.05786 0
M  V30 3834 C 366.026 3.3378 -3.46619 0
M  V30 3835 C 368.378 3.31976 -4.01797 0
M  V30 3836 C 365.706 3.34431 -4.82051 0
M  V30 3837 C 368.058 3.34167 -5.37136 0
M  V30 3838 C 366.722 3.34866 -5.77426 0
M  V30 3839 H 365.992 0.650549 -0.354777 0
M  V30 3840 H 368.639 1.23006 -1.46772 0
M  V30 3841 H 366.944 3.79203 -0.985515 0
M  V30 3842 H 368.641 3.76652 -1.37602 0
M  V30 3843 H 365.231 3.3021 -2.73238 0
M  V30 3844 H 369.415 3.29311 -3.71306 0
M  V30 3845 H 364.671 3.33285 -5.12573 0
M  V30 3846 H 368.845 3.33585 -6.11305 0
M  V30 3847 H 366.472 3.35124 -6.82346 0
M  V30 3848 N 368.047 0.979072 1.23499 0
M  V30 3849 C 369.463 0.687475 1.44034 0
M  V30 3850 C 369.663 -0.746801 1.8715 0
M  V30 3851 O 368.719 -1.51939 2.0167 0
M  V30 3852 C 370.032 1.68127 2.49307 0
M  V30 3853 C 371.58 1.69516 2.63122 0
M  V30 3854 C 372.055 2.67723 3.71603 0
M  V30 3855 N 373.546 2.66233 3.79044 0
M  V30 3856 C 374.281 3.38891 4.62537 0
M  V30 3857 N 373.777 4.21103 5.50131 0
M  V30 3858 N 375.57 3.27661 4.56721 0
M  V30 3859 H 367.721 1.90559 0.938135 0
M  V30 3860 H 369.984 0.821051 0.473897 0
M  V30 3861 H 369.69 2.70693 2.2454 0
M  V30 3862 H 369.564 1.46306 3.4767 0
M  V30 3863 H 371.951 0.676561 2.8724 0
M  V30 3864 H 372.032 1.95404 1.65079 0
M  V30 3865 H 371.676 3.69724 3.48233 0
M  V30 3866 H 371.606 2.39111 4.69184 0
M  V30 3867 H 374.097 2.06568 3.16446 0
M  V30 3868 H 374.41 4.73403 6.10827 0
M  V30 3869 H 372.755 4.25195 5.49759 0
M  V30 3870 H 375.946 2.62887 3.87309 0
M  V30 3871 H 376.119 3.84547 5.21562 0
M  V30 3872 N 369.525 -1.3858 0.750561 0
M  V30 3873 C 370.455 -2.33102 0.136237 0
M  V30 3874 C 371.436 -1.54713 -0.706965 0
M  V30 3875 O 372.621 -1.83043 -0.648769 0
M  V30 3876 C 369.751 -3.38882 -0.760017 0
M  V30 3877 C 368.705 -4.27995 -0.0197785 0
M  V30 3878 C 368.031 -5.24605 -1.03408 0
M  V30 3879 C 369.331 -5.09554 1.14684 0
M  V30 3880 H 371.025 -2.84726 0.925822 0
M  V30 3881 H 368.571 -1.36898 0.446654 0
M  V30 3882 H 370.524 -4.0397 -1.19943 0
M  V30 3883 H 369.248 -2.85734 -1.58189 0
M  V30 3884 H 367.907 -3.64409 0.400184 0
M  V30 3885 H 367.555 -4.67746 -1.84994 0
M  V30 3886 H 367.255 -5.85081 -0.543464 0
M  V30 3887 H 368.779 -5.9257 -1.47288 0
M  V30 3888 H 370.193 -5.67899 0.785118 0
M  V30 3889 H 368.59 -5.7925 1.56812 0
M  V30 3890 H 369.66 -4.4347 1.96118 0
M  V30 3891 N 371.003 -0.499398 -1.49478 0
M  V30 3892 C 371.951 0.293604 -2.3074 0
M  V30 3893 C 372.945 0.96427 -1.39277 0
M  V30 3894 O 374.151 0.892141 -1.56336 0
M  V30 3895 H 370.526 0.113541 -0.743379 0
M  V30 3896 H 372.497 -0.411772 -2.95545 0
M  V30 3897 C 371.246 1.3462 -3.20582 0
M  V30 3898 H 370.569 0.83954 -3.90886 0
M  V30 3899 H 372.009 1.87308 -3.80384 0
M  V30 3900 C 370.468 2.36351 -2.40083 0
M  V30 3901 O 370.998 3.422 -2.10385 0
M  V30 3902 N 369.204 2.0878 -2.02137 0
M  V30 3903 H 368.751 1.22723 -2.26488 0
M  V30 3904 H 368.709 2.77075 -1.48583 0
M  V30 3905 N 372.481 1.55866 -0.233164 0
M  V30 3906 C 373.729 1.9821 0.394593 0
M  V30 3907 C 374.05 1.12234 1.59463 0
M  V30 3908 O 373.32 0.201981 1.94856 0
M  V30 3909 H 371.9 0.732034 0.148778 0
M  V30 3910 H 374.562 1.92107 -0.32876 0
M  V30 3911 H 373.658 3.03845 0.713063 0
M  V30 3912 N 373.959 -0.0401083 1.57549 0
M  V30 3913 C 375.205 -0.728793 1.89895 0
M  V30 3914 C 375.56 -1.73551 0.830535 0
M  V30 3915 O 374.853 -1.90914 -0.162007 0
M  V30 3916 C 375.047 -1.44902 3.26708 0
M  V30 3917 C 374.876 -0.513568 4.46758 0
M  V30 3918 C 373.646 -0.138698 5.0511 0
M  V30 3919 C 375.844 0.203341 5.13898 0
M  V30 3920 N 373.826 0.799159 6.08676 0
M  V30 3921 C 375.197 0.997246 6.11927 0
M  V30 3922 C 377.252 0.271459 4.97159 0
M  V30 3923 C 375.955 1.85299 6.95023 0
M  V30 3924 C 377.981 1.11429 5.80808 0
M  V30 3925 C 377.343 1.89615 6.78399 0
M  V30 3926 H 373.442 -0.241125 0.743897 0
M  V30 3927 H 376.026 0.0108016 1.94697 0
M  V30 3928 H 374.197 -2.15914 3.22856 0
M  V30 3929 H 375.929 -2.08921 3.46603 0
M  V30 3930 H 372.684 -0.498496 4.70969 0
M  V30 3931 H 373.108 1.26227 6.65128 0
M  V30 3932 H 377.75 -0.318709 4.21597 0
M  V30 3933 H 375.468 2.454 7.69938 0
M  V30 3934 H 379.054 1.17038 5.69906 0
M  V30 3935 H 377.934 2.53779 7.42001 0
M  V30 3936 N 375.437 -1.54477 -0.31217 0
M  V30 3937 C 376.387 -1.81037 -1.38598 0
M  V30 3938 C 377.371 -0.666941 -1.46426 0
M  V30 3939 O 378.563 -0.927269 -1.50767 0
M  V30 3940 C 375.692 -2.05127 -2.75277 0
M  V30 3941 C 374.778 -3.25624 -2.71716 0
M  V30 3942 N 375.169 -4.46428 -2.37773 0
M  V30 3943 C 373.467 -3.27427 -3.02833 0
M  V30 3944 C 374.168 -5.28406 -2.43232 0
M  V30 3945 N 373.144 -4.6586 -2.80135 0
M  V30 3946 H 376.946 -2.7201 -1.11301 0
M  V30 3947 H 374.46 -1.53826 -0.520705 0
M  V30 3948 H 376.457 -2.22299 -3.52688 0
M  V30 3949 H 375.117 -1.15416 -3.03495 0
M  V30 3950 H 376.128 -4.73227 -2.1042 0
M  V30 3951 H 372.805 -2.47786 -3.36018 0
M  V30 3952 H 374.195 -6.34903 -2.19882 0
M  V30 3953 N 376.915 0.57481 -1.46744 0
M  V30 3954 C 378.14 1.36341 -1.56288 0
M  V30 3955 C 378.565 1.86954 -0.207347 0
M  V30 3956 O 377.923 1.62006 0.813871 0
M  V30 3957 C 377.971 2.52147 -2.57787 0
M  V30 3958 O 377.075 3.53834 -2.11838 0
M  V30 3959 H 376.416 0.405713 -0.525636 0
M  V30 3960 H 378.946 0.696453 -1.92382 0
M  V30 3961 H 378.956 2.98958 -2.77648 0
M  V30 3962 H 377.631 2.14663 -3.5622 0
M  V30 3963 H 376.208 3.1345 -2.01999 0
M  V30 3964 N 378.394 1.34581 0.820102 0
M  V30 3965 C 379.619 1.30333 1.61332 0
M  V30 3966 C 380.044 -0.119339 1.87721 0
M  V30 3967 O 379.402 -1.08197 1.45475 0
M  V30 3968 C 379.45 2.10258 2.92957 0
M  V30 3969 O 378.554 1.47404 3.85157 0
M  V30 3970 H 377.895 0.447488 0.490561 0
M  V30 3971 H 380.425 1.77425 1.01889 0
M  V30 3972 H 380.435 2.21718 3.42498 0
M  V30 3973 H 379.11 3.13693 2.73074 0
M  V30 3974 H 377.687 1.44703 3.43679 0
M  V30 3975 N 379.872 -1.04064 1.18357 0
M  V30 3976 C 381.288 -1.2947 0.933258 0
M  V30 3977 C 381.488 -1.97466 -0.401169 0
M  V30 3978 O 380.544 -2.25528 -1.13549 0
M  V30 3979 C 381.857 -2.15337 2.09882 0
M  V30 3980 C 383.405 -2.28683 2.13712 0
M  V30 3981 C 383.88 -3.17917 3.29686 0
M  V30 3982 N 385.371 -3.25504 3.29547 0
M  V30 3983 C 386.106 -3.94706 4.15926 0
M  V30 3984 N 385.602 -4.66239 5.12439 0
M  V30 3985 N 387.395 -3.90986 4.0384 0
M  V30 3986 H 379.546 -0.583359 2.04232 0
M  V30 3987 H 381.809 -0.319921 0.892387 0
M  V30 3988 H 381.515 -1.72682 3.06389 0
M  V30 3989 H 381.389 -3.16015 2.05947 0
M  V30 3990 H 383.776 -2.70575 1.17784 0
M  V30 3991 H 383.857 -1.27596 2.21705 0
M  V30 3992 H 383.501 -2.76736 4.25887 0
M  V30 3993 H 383.431 -4.19036 3.1893 0
M  V30 3994 H 385.922 -2.74547 2.59677 0
M  V30 3995 H 386.235 -5.16638 5.74722 0
M  V30 3996 H 384.58 -4.65143 5.16398 0
M  V30 3997 H 387.771 -3.34234 3.27727 0
M  V30 3998 H 387.944 -4.44646 4.71375 0
M  V30 3999 N 381.35 -0.985608 -1.22978 0
M  V30 4000 C 382.627 -0.573599 -1.87001 0
M  V30 4001 C 383.007 0.949213 -1.88555 0
M  V30 4002 O 382.355 1.82811 -1.37086 0
M  V30 4003 C 382.565 -1.18564 -3.28243 0
M  V30 4004 C 383.913 -1.28163 -4.04796 0
M  V30 4005 O 384.937 -1.13949 -3.37482 0
M  V30 4006 O 383.796 -1.50832 -5.25273 0
M  V30 4007 H 380.89 -0.193868 -0.803955 0
M  V30 4008 H 383.436 -1.08102 -1.30813 0
M  V30 4009 H 382.208 -2.22758 -3.21706 0
M  V30 4010 H 381.831 -0.663363 -3.92027 0
M  V30 4011 N 382.828 1.3818 -0.7579 0
M  V30 4012 C 384.075 2.00019 -0.315985 0
M  V30 4013 C 384.403 1.60163 1.10355 0
M  V30 4014 O 383.658 0.83264 1.77103 0
M  V30 4015 C 383.957 3.55252 -0.391218 0
M  V30 4016 C 383.623 4.14834 -1.76702 0
M  V30 4017 C 382.285 4.30821 -2.14353 0
M  V30 4018 C 384.637 4.47658 -2.66931 0
M  V30 4019 C 381.965 4.76928 -3.41696 0
M  V30 4020 C 384.317 4.95184 -3.93669 0
M  V30 4021 C 382.981 5.09377 -4.31383 0
M  V30 4022 H 382.251 0.731923 -0.115627 0
M  V30 4023 H 384.898 1.65161 -0.969223 0
M  V30 4024 H 383.203 3.90273 0.34558 0
M  V30 4025 H 384.9 4.00988 -0.030805 0
M  V30 4026 H 381.49 4.02808 -1.46435 0
M  V30 4027 H 385.674 4.34904 -2.39106 0
M  V30 4028 H 380.93 4.86103 -3.70829 0
M  V30 4029 H 385.104 5.19551 -4.63724 0
M  V30 4030 H 382.731 5.44865 -5.30119 0
M  V30 4031 N 384.306 0.507319 1.49211 0
M  V30 4032 C 385.531 -0.033725 2.07373 0
M  V30 4033 C 385.956 -1.29485 1.36437 0
M  V30 4034 O 385.314 -1.76294 0.423087 0
M  V30 4035 C 385.362 -0.263945 3.59633 0
M  V30 4036 O 384.466 -1.33737 3.90113 0
M  V30 4037 H 383.807 0.0290331 0.663365 0
M  V30 4038 H 386.337 0.708749 1.91932 0
M  V30 4039 H 386.347 -0.493536 4.05004 0
M  V30 4040 H 385.022 0.657424 4.10671 0
M  V30 4041 H 383.599 -1.09224 3.56545 0
M  V30 4042 N 385.784 -1.5574 0.241426 0
M  V30 4043 C 387.061 -1.90704 -0.434881 0
M  V30 4044 C 387.441 -1.16145 -1.76277 0
M  V30 4045 O 386.789 -0.277152 -2.26813 0
M  V30 4046 C 386.999 -3.43657 -0.608343 0
M  V30 4047 C 388.347 -4.14806 -0.906725 0
M  V30 4048 O 389.371 -3.49366 -0.694408 0
M  V30 4049 O 388.23 -5.30548 -1.31075 0
M  V30 4050 H 385.324 -0.793592 -0.23268 0
M  V30 4051 H 387.87 -1.67288 0.285086 0
M  V30 4052 H 386.642 -3.89927 0.327505 0
M  V30 4053 H 386.265 -3.72918 -1.37906 0
M  V30 4054 N 387.262 0.0317525 -1.57568 0
M  V30 4055 C 388.492 0.733884 -1.93126 0
M  V30 4056 C 388.9 1.69563 -0.839352 0
M  V30 4057 O 388.243 1.82681 0.193175 0
M  V30 4058 C 388.305 1.54798 -3.24465 0
M  V30 4059 C 387.969 0.751304 -4.50782 0
M  V30 4060 C 388.966 0.0527632 -5.19873 0
M  V30 4061 C 386.651 0.706639 -4.97305 0
M  V30 4062 C 388.645 -0.679774 -6.33765 0
M  V30 4063 C 386.332 -0.0296449 -6.11093 0
M  V30 4064 C 387.33 -0.721614 -6.79177 0
M  V30 4065 O 387.018 -1.44595 -7.90789 0
M  V30 4066 H 386.75 0.211459 -0.642076 0
M  V30 4067 H 389.304 -0.00585615 -2.05399 0
M  V30 4068 H 387.534 2.33147 -3.08512 0
M  V30 4069 H 389.223 2.13247 -3.4537 0
M  V30 4070 H 389.989 0.0783188 -4.84937 0
M  V30 4071 H 385.868 1.23474 -4.44157 0
M  V30 4072 H 389.412 -1.22042 -6.86842 0
M  V30 4073 H 385.309 -0.0571331 -6.45475 0
M  V30 4074 H 386.077 -1.35935 -8.07133 0
M  V30 4075 N 388.74 1.54641 0.303973 0
M  V30 4076 C 389.687 1.85386 1.37479 0
M  V30 4077 C 390.657 0.702528 1.50512 0
M  V30 4078 O 391.842 0.950867 1.65418 0
M  V30 4079 C 388.982 2.10413 2.73533 0
M  V30 4080 C 388.095 3.38049 2.68974 0
M  V30 4081 C 387.23 3.52934 3.97002 0
M  V30 4082 C 386.269 4.74373 3.86829 0
M  V30 4083 N 385.406 4.8608 5.06627 0
M  V30 4084 H 390.246 2.76732 1.1056 0
M  V30 4085 H 387.783 1.37034 0.534805 0
M  V30 4086 H 389.741 2.22919 3.52652 0
M  V30 4087 H 388.371 1.22338 2.98719 0
M  V30 4088 H 387.423 3.3418 1.81736 0
M  V30 4089 H 388.735 4.27288 2.57346 0
M  V30 4090 H 387.889 3.65088 4.84557 0
M  V30 4091 H 386.628 2.61824 4.1146 0
M  V30 4092 H 385.633 4.62255 2.97658 0
M  V30 4093 H 386.858 5.66888 3.73918 0
M  V30 4094 H 384.804 3.97891 5.21554 0
M  V30 4095 H 384.721 5.69315 4.9741 0
M  V30 4096 H 385.989 5.02587 5.95841 0
M  V30 4097 N 390.218 -0.567019 1.47046 0
M  V30 4098 C 391.128 -1.70247 1.6141 0
M  V30 4099 C 392.144 -1.66746 0.497157 0
M  V30 4100 O 393.32 -1.86371 0.763389 0
M  V30 4101 C 390.385 -3.06756 1.61561 0
M  V30 4102 C 389.446 -3.21399 2.84607 0
M  V30 4103 C 388.679 -4.51396 2.84741 0
M  V30 4104 O 388.902 -5.36255 1.94388 0
M  V30 4105 O 387.836 -4.69621 3.76483 0
M  V30 4106 H 391.662 -1.61073 2.57467 0
M  V30 4107 H 389.247 -0.735894 1.30019 0
M  V30 4108 H 391.129 -3.8801 1.64396 0
M  V30 4109 H 389.804 -3.16333 0.686684 0
M  V30 4110 H 388.711 -2.39579 2.8732 0
M  V30 4111 H 390.044 -3.16721 3.76761 0
M  V30 4112 N 391.696 -1.35014 -0.812953 0
M  V30 4113 C 393.112 -1.14914 -1.10757 0
M  V30 4114 C 393.312 0.0426818 -2.01455 0
M  V30 4115 O 392.368 0.715212 -2.42159 0
M  V30 4116 C 393.681 -2.44911 -1.74468 0
M  V30 4117 C 395.229 -2.5106 -1.86917 0
M  V30 4118 C 395.704 -3.81085 -2.54044 0
M  V30 4119 N 397.195 -3.82301 -2.61535 0
M  V30 4120 C 397.93 -4.79634 -3.14227 0
M  V30 4121 N 397.426 -5.87353 -3.67407 0
M  V30 4122 N 399.219 -4.67078 -3.12721 0
M  V30 4123 H 391.37 -2.1136 -0.20989 0
M  V30 4124 H 393.633 -0.935128 -0.155692 0
M  V30 4125 H 393.339 -3.32267 -1.15289 0
M  V30 4126 H 393.213 -2.58989 -2.74234 0
M  V30 4127 H 395.6 -1.64137 -2.45241 0
M  V30 4128 H 395.681 -2.40901 -0.860242 0
M  V30 4129 H 395.325 -4.68402 -1.96372 0
M  V30 4130 H 395.255 -3.88529 -3.55461 0
M  V30 4131 H 397.746 -3.04465 -2.23851 0
M  V30 4132 H 398.059 -6.57624 -4.05894 0
M  V30 4133 H 396.404 -5.91054 -3.65623 0
M  V30 4134 H 399.595 -3.82067 -2.70449 0
M  V30 4135 H 399.768 -5.43098 -3.53481 0
M  V30 4136 N 393.175 1.03435 -1.18907 0
M  V30 4137 C 394.586 1.58195 -0.991523 0
M  V30 4138 C 394.937 1.90801 0.457081 0
M  V30 4139 O 394.062 1.70272 1.33553 0
M  V30 4140 C 394.657 2.87432 -1.79355 0
M  V30 4141 C 393.216 3.38785 -1.64017 0
M  V30 4142 C 392.363 2.12292 -1.78402 0
M  V30 4143 H 395.314 0.860299 -1.33359 0
M  V30 4144 H 395.335 3.58096 -1.28638 0
M  V30 4145 H 394.847 2.63669 -2.84781 0
M  V30 4146 H 392.948 3.67547 -0.611536 0
M  V30 4147 H 393.061 4.12186 -2.44212 0
M  V30 4148 H 391.425 2.23901 -1.2141 0
M  V30 4149 H 392.208 1.90977 -2.85277 0
M  V30 4150 N 394.653 0.992116 1.22453 0
M  V30 4151 C 395.616 0.546883 2.2258 0
M  V30 4152 C 396.616 -0.369829 1.56489 0
M  V30 4153 O 397.806 -0.161896 1.73446 0
M  V30 4154 C 394.938 -0.204659 3.40285 0
M  V30 4155 H 396.131 1.43234 2.63484 0
M  V30 4156 H 393.684 0.779239 1.3549 0
M  V30 4157 H 394.419 -1.10614 3.04853 0
M  V30 4158 H 394.204 0.45354 3.89468 0
M  V30 4159 H 395.694 -0.504358 4.14543 0
M  V30 4160 N 396.131 -1.37776 0.765217 0
M  V30 4161 C 397.359 -2.04124 0.337767 0
M  V30 4162 C 397.774 -1.57715 -1.03785 0
M  V30 4163 O 397.131 -0.755447 -1.6613 0
M  V30 4164 C 397.182 -3.59658 0.364442 0
M  V30 4165 O 396.903 -4.04367 1.68579 0
M  V30 4166 C 398.404 -4.43236 -0.0754221 0
M  V30 4167 H 395.624 -0.655696 0.142491 0
M  V30 4168 H 398.168 -1.76238 1.03732 0
M  V30 4169 H 396.323 -3.86339 -0.286471 0
M  V30 4170 H 396.737 -4.98857 1.61993 0
M  V30 4171 H 398.211 -5.52 -0.00560067 0
M  V30 4172 H 398.688 -4.2455 -1.12491 0
M  V30 4173 H 399.294 -4.21767 0.547055 0
M  V30 4174 N 397.609 -0.515225 -1.4894 0
M  V30 4175 C 398.857 0.0241671 -2.02086 0
M  V30 4176 C 399.178 1.3616 -1.3959 0
M  V30 4177 O 398.448 1.87841 -0.556121 0
M  V30 4178 H 397.028 0.0119203 -0.746905 0
M  V30 4179 H 399.69 -0.675702 -1.82812 0
M  V30 4180 H 398.786 0.143385 -3.1177 0
M  V30 4181 N 399.087 1.5561 -0.249682 0
M  V30 4182 C 400.335 1.98618 0.373548 0
M  V30 4183 C 400.656 1.13919 1.58264 0
M  V30 4184 O 399.926 0.222637 1.94631 0
M  V30 4185 H 398.506 0.733571 0.141006 0
M  V30 4186 H 401.168 1.91748 -0.349117 0
M  V30 4187 H 400.264 3.04584 0.680796 0
M  V30 4188 N 400.565 -0.0233959 1.57583 0
M  V30 4189 C 401.842 -0.748794 1.807 0
M  V30 4190 C 402.222 -1.9327 0.849106 0
M  V30 4191 O 401.57 -2.28247 -0.107468 0
M  V30 4192 C 401.78 -1.17651 3.28571 0
M  V30 4193 C 403.128 -1.59008 3.93702 0
M  V30 4194 O 404.152 -1.27094 3.32755 0
M  V30 4195 O 403.011 -2.18264 5.01022 0
M  V30 4196 H 400.105 -0.362578 0.743281 0
M  V30 4197 H 402.651 0.000261958 1.697 0
M  V30 4198 H 401.423 -0.331603 3.89892 0
M  V30 4199 H 401.046 -1.98541 3.44481 0
M  V30 4200 N 402.043 -1.548 -0.295768 0
M  V30 4201 C 402.973 -1.89115 -1.36959 0
M  V30 4202 C 403.954 -0.75059 -1.52644 0
M  V30 4203 O 405.139 -1.00678 -1.66065 0
M  V30 4204 C 402.269 -2.14307 -2.73295 0
M  V30 4205 C 401.223 -3.30151 -2.72368 0
M  V30 4206 C 400.549 -3.40772 -4.12042 0
M  V30 4207 C 401.849 -4.67126 -2.33646 0
M  V30 4208 H 403.543 -2.79053 -1.08488 0
M  V30 4209 H 401.089 -1.34266 -0.520443 0
M  V30 4210 H 403.042 -2.36898 -3.48507 0
M  V30 4211 H 401.766 -1.21145 -3.03301 0
M  V30 4212 H 400.425 -3.0749 -1.99613 0
M  V30 4213 H 400.073 -2.45117 -4.39234 0
M  V30 4214 H 399.773 -4.18645 -4.12322 0
M  V30 4215 H 401.297 -3.6563 -4.89027 0
M  V30 4216 H 402.711 -4.89414 -2.98575 0
M  V30 4217 H 401.108 -5.47751 -2.45129 0
M  V30 4218 H 402.178 -4.67489 -1.28772 0
M  V30 4219 N 403.521 0.559213 -1.47345 0
M  V30 4220 C 404.937 0.884943 -1.32819 0
M  V30 4221 C 405.137 1.98988 -0.317173 0
M  V30 4222 O 404.193 2.51031 0.272011 0
M  V30 4223 C 405.506 1.28007 -2.72093 0
M  V30 4224 C 407.054 1.39161 -2.80363 0
M  V30 4225 C 407.529 1.82031 -4.20272 0
M  V30 4226 N 409.02 1.89185 -4.22804 0
M  V30 4227 C 409.755 2.2368 -5.27973 0
M  V30 4228 N 409.251 2.56802 -6.43447 0
M  V30 4229 N 411.044 2.24436 -5.15349 0
M  V30 4230 H 403.195 -0.170304 -2.11716 0
M  V30 4231 H 405.458 -0.0135247 -0.947904 0
M  V30 4232 H 405.164 0.542027 -3.47498 0
M  V30 4233 H 405.038 2.23665 -3.03733 0
M  V30 4234 H 407.425 2.12048 -2.05231 0
M  V30 4235 H 407.506 0.41696 -2.52379 0
M  V30 4236 H 407.15 1.09715 -4.95908 0
M  V30 4237 H 407.08 2.80495 -4.45679 0
M  V30 4238 H 409.571 1.65982 -3.39497 0
M  V30 4239 H 409.884 2.82144 -7.19454 0
M  V30 4240 H 408.229 2.54387 -6.46771 0
M  V30 4241 H 411.42 1.97998 -4.24163 0
M  V30 4242 H 411.593 2.50989 -5.97418 0
M  V30 4243 N 404.999 1.35443 0.805782 0
M  V30 4244 C 405.962 1.28301 1.89925 0
M  V30 4245 C 406.962 0.194285 1.59622 0
M  V30 4246 O 408.152 0.448036 1.6834 0
M  V30 4247 C 405.284 0.984997 3.2636 0
M  V30 4248 H 406.477 2.2553 1.97677 0
M  V30 4249 H 404.03 1.19979 1.00173 0
M  V30 4250 H 404.765 0.016603 3.24296 0
M  V30 4251 H 404.55 1.77269 3.4974 0
M  V30 4252 H 406.04 0.960651 4.064 0
M  V30 4253 N 406.477 -1.02803 1.19454 0
M  V30 4254 C 407.425 -2.13213 0.929673 0
M  V30 4255 C 408.419 -1.69011 -0.114806 0
M  V30 4256 O 409.625 -1.79967 0.0345147 0
M  V30 4257 H 406 -0.69662 0.28324 0
M  V30 4258 H 407.971 -2.32744 1.86743 0
M  V30 4259 C 406.72 -3.4429 0.485797 0
M  V30 4260 H 406.043 -3.7872 1.28105 0
M  V30 4261 H 407.483 -4.22638 0.339582 0
M  V30 4262 C 405.942 -3.27258 -0.800244 0
M  V30 4263 O 406.472 -3.55967 -1.86146 0
M  V30 4264 N 404.678 -2.80545 -0.75781 0
M  V30 4265 H 404.225 -2.57382 0.106039 0
M  V30 4266 H 404.183 -2.6953 -1.61867 0
M  V30 4267 N 407.956 -0.998596 -1.21925 0
M  V30 4268 C 408.919 -0.558679 -2.22287 0
M  V30 4269 C 409.919 0.361525 -1.56683 0
M  V30 4270 O 411.109 0.152695 -1.73529 0
M  V30 4271 C 408.241 0.18661 -3.40389 0
M  V30 4272 H 409.434 -1.4463 -2.62721 0
M  V30 4273 H 406.987 -0.786413 -1.35075 0
M  V30 4274 H 407.722 1.08996 -3.05435 0
M  V30 4275 H 407.507 -0.474188 -3.89222 0
M  V30 4276 H 408.997 0.482367 -4.14805 0
M  V30 4277 N 409.434 1.37368 -0.772513 0
M  V30 4278 C 410.664 2.03647 -0.348082 0
M  V30 4279 C 411.072 1.58392 1.03482 0
M  V30 4280 O 410.415 0.760921 1.672 0
M  V30 4281 C 410.477 3.58131 -0.313404 0
M  V30 4282 C 410.141 4.2652 -1.64102 0
M  V30 4283 C 411.138 4.50587 -2.5936 0
M  V30 4284 C 408.823 4.64335 -1.91567 0
M  V30 4285 C 410.817 5.11526 -3.80289 0
M  V30 4286 C 408.504 5.24996 -3.12766 0
M  V30 4287 C 409.502 5.48529 -4.06946 0
M  V30 4288 O 409.19 6.07921 -5.26011 0
M  V30 4289 H 408.922 0.660538 -0.143753 0
M  V30 4290 H 411.476 1.76669 -1.04772 0
M  V30 4291 H 409.706 3.84159 0.442617 0
M  V30 4292 H 411.395 4.05813 0.0840613 0
M  V30 4293 H 412.161 4.21784 -2.39423 0
M  V30 4294 H 408.04 4.45353 -1.19088 0
M  V30 4295 H 411.584 5.29811 -4.53813 0
M  V30 4296 H 407.481 5.53223 -3.32588 0
M  V30 4297 H 408.249 6.26398 -5.26847 0
M  V30 4298 N 410.912 0.523116 1.48665 0
M  V30 4299 C 411.842 -0.23231 2.32342 0
M  V30 4300 C 412.823 -0.941637 1.41659 0
M  V30 4301 O 414.008 -0.928751 1.70552 0
M  V30 4302 C 411.138 -1.28387 3.22698 0
M  V30 4303 C 410.092 -0.693098 4.22351 0
M  V30 4304 C 409.418 -1.8468 5.01794 0
M  V30 4305 C 410.718 0.33063 5.21252 0
M  V30 4306 H 412.412 0.466192 2.95748 0
M  V30 4307 H 409.958 0.225643 1.42221 0
M  V30 4308 H 411.911 -1.82024 3.80059 0
M  V30 4309 H 410.635 -2.01186 2.57278 0
M  V30 4310 H 409.294 -0.178299 3.66166 0
M  V30 4311 H 408.942 -2.56301 4.32804 0
M  V30 4312 H 408.642 -1.45747 5.69238 0
M  V30 4313 H 410.166 -2.38709 5.62006 0
M  V30 4314 H 411.58 -0.118407 5.73178 0
M  V30 4315 H 409.977 0.636974 5.9671 0
M  V30 4316 H 411.047 1.23883 4.68808 0
M  V30 4317 N 412.39 -1.55475 0.257931 0
M  V30 4318 C 413.801 -1.8511 -0.243135 0
M  V30 4319 C 414.152 -1.17986 -1.5676 0
M  V30 4320 O 413.277 -0.462102 -2.11409 0
M  V30 4321 C 413.872 -3.35826 -0.447929 0
M  V30 4322 C 412.431 -3.65647 -0.893245 0
M  V30 4323 C 411.578 -2.7729 0.0232965 0
M  V30 4324 H 414.529 -1.51261 0.480199 0
M  V30 4325 H 414.55 -3.58002 -1.28898 0
M  V30 4326 H 414.062 -3.84652 0.516196 0
M  V30 4327 H 412.163 -3.22308 -1.86945 0
M  V30 4328 H 412.276 -4.73312 -0.742469 0
M  V30 4329 H 410.64 -2.49942 -0.490021 0
M  V30 4330 H 411.423 -3.28926 0.982994 0
M  V30 4331 N 413.868 0.0150385 -1.57593 0
M  V30 4332 C 414.831 0.995996 -2.06428 0
M  V30 4333 C 415.831 1.2818 -0.970903 0
M  V30 4334 O 417.021 1.22949 -1.23406 0
M  V30 4335 C 414.153 2.32506 -2.49307 0
M  V30 4336 H 415.346 0.573873 -2.94358 0
M  V30 4337 H 412.899 0.262186 -1.54085 0
M  V30 4338 H 413.634 2.79438 -1.64575 0
M  V30 4339 H 413.419 2.13087 -3.29145 0
M  V30 4340 H 414.909 3.02906 -2.87468 0
M  V30 4341 N 415.346 1.54954 0.287554 0
M  V30 4342 C 416.276 1.89839 1.35954 0
M  V30 4343 C 417.257 0.758675 1.52244 0
M  V30 4344 O 418.442 1.01557 1.65529 0
M  V30 4345 C 415.572 2.15753 2.72154 0
M  V30 4346 C 414.526 3.3159 2.70614 0
M  V30 4347 C 413.852 3.42952 4.10229 0
M  V30 4348 C 415.152 4.68359 2.31165 0
M  V30 4349 H 416.846 2.79625 1.07007 0
M  V30 4350 H 414.392 1.3454 0.513316 0
M  V30 4351 H 416.345 2.38743 3.47246 0
M  V30 4352 H 415.069 1.22752 3.02654 0
M  V30 4353 H 413.728 3.08545 1.97979 0
M  V30 4354 H 413.376 2.47443 4.37928 0
M  V30 4355 H 413.076 4.20826 4.10097 0
M  V30 4356 H 414.6 3.68218 4.87081 0
M  V30 4357 H 416.014 4.9099 2.95976 0
M  V30 4358 H 414.411 5.49044 2.42221 0
M  V30 4359 H 415.481 4.68165 1.26291 0
M  V30 4360 N 416.824 -0.551391 1.4764 0
M  V30 4361 C 418.235 -1.13349 1.48354 0
M  V30 4362 C 418.586 -1.94709 0.241432 0
M  V30 4363 O 417.711 -2.06306 -0.653205 0
M  V30 4364 C 418.306 -2.0623 2.68802 0
M  V30 4365 C 416.865 -2.597 2.72457 0
M  V30 4366 C 416.012 -1.36201 2.41546 0
M  V30 4367 H 418.963 -0.337698 1.55065 0
M  V30 4368 H 418.984 -2.90196 2.46103 0
M  V30 4369 H 418.496 -1.46987 3.59188 0
M  V30 4370 H 416.597 -3.22724 1.86225 0
M  V30 4371 H 416.71 -3.00296 3.73308 0
M  V30 4372 H 415.074 -1.67068 1.9225 0
M  V30 4373 H 415.857 -0.787425 3.34147 0
M  V30 4374 N 418.302 -1.35869 -0.798587 0
M  V30 4375 C 419.234 -1.25305 -1.91915 0
M  V30 4376 C 420.247 -0.174548 -1.61862 0
M  V30 4377 O 421.436 -0.428499 -1.73281 0
M  V30 4378 C 418.536 -0.9086 -3.26493 0
M  V30 4379 C 417.709 -2.08711 -3.84394 0
M  V30 4380 C 416.768 -1.71717 -4.97393 0
M  V30 4381 O 415.794 -2.43692 -5.14396 0
M  V30 4382 N 416.996 -0.645473 -5.769 0
M  V30 4383 H 419.761 -2.21849 -2.01502 0
M  V30 4384 H 417.322 -1.29143 -0.976408 0
M  V30 4385 H 419.314 -0.642455 -3.99568 0
M  V30 4386 H 417.884 -0.0325815 -3.12583 0
M  V30 4387 H 417.104 -2.51659 -3.03416 0
M  V30 4388 H 418.392 -2.87468 -4.19809 0
M  V30 4389 H 417.79 -0.047648 -5.6568 0
M  V30 4390 H 416.347 -0.43913 -6.50319 0
M  V30 4391 N 419.78 1.02168 -1.19998 0
M  V30 4392 C 420.71 2.12488 -0.96804 0
M  V30 4393 C 421.691 1.69799 0.101185 0
M  V30 4394 O 422.876 1.94121 -0.0552993 0
M  V30 4395 C 420.006 3.43479 -0.513776 0
M  V30 4396 C 418.96 3.99884 -1.52566 0
M  V30 4397 C 418.286 5.26582 -0.928214 0
M  V30 4398 C 419.586 4.33861 -2.90795 0
M  V30 4399 H 421.28 2.32149 -1.89069 0
M  V30 4400 H 418.826 1.11564 -0.910468 0
M  V30 4401 H 420.779 4.20036 -0.338774 0
M  V30 4402 H 419.503 3.23561 0.444493 0
M  V30 4403 H 418.162 3.25429 -1.68794 0
M  V30 4404 H 417.81 5.02986 0.0378289 0
M  V30 4405 H 417.51 5.65284 -1.60397 0
M  V30 4406 H 419.034 6.05799 -0.764167 0
M  V30 4407 H 420.448 5.01327 -2.78109 0
M  V30 4408 H 418.845 4.83664 -3.55231 0
M  V30 4409 H 419.915 3.42848 -3.42904 0
M  V30 4410 N 421.258 1.00505 1.21394 0
M  V30 4411 C 422.506 0.686415 1.90086 0
M  V30 4412 C 422.827 -0.785264 1.7849 0
M  V30 4413 O 422.097 -1.56387 1.17983 0
M  V30 4414 H 420.677 0.2509 0.703604 0
M  V30 4415 H 423.339 1.27417 1.47482 0
M  V30 4416 H 422.435 0.959621 2.96981 0
M  V30 4417 N 422.737 -1.36956 0.779787 0
M  V30 4418 C 423.985 -1.99097 0.347079 0
M  V30 4419 C 424.306 -1.62206 -1.08232 0
M  V30 4420 O 423.576 -0.891373 -1.74446 0
M  V30 4421 H 422.156 -0.736409 0.125342 0
M  V30 4422 H 424.818 -1.67308 0.999696 0
M  V30 4423 H 423.914 -3.09107 0.431162 0
M  V30 4424 N 424.215 -0.530993 -1.48385 0
M  V30 4425 C 425.162 0.231223 -2.29639 0
M  V30 4426 C 426.132 0.932864 -1.37429 0
M  V30 4427 O 427.317 0.933692 -1.66394 0
M  V30 4428 C 424.457 1.27155 -3.2082 0
M  V30 4429 C 423.57 0.578655 -4.28107 0
M  V30 4430 C 422.705 1.602 -5.06467 0
M  V30 4431 C 421.744 0.892625 -6.05556 0
M  V30 4432 N 420.881 1.86157 -6.76971 0
M  V30 4433 H 425.721 -0.467848 -2.94305 0
M  V30 4434 H 423.258 -0.242556 -1.45086 0
M  V30 4435 H 425.216 1.88703 -3.72085 0
M  V30 4436 H 423.846 1.939 -2.58075 0
M  V30 4437 H 422.898 -0.150782 -3.80101 0
M  V30 4438 H 424.21 0.0217065 -4.98795 0
M  V30 4439 H 423.364 2.29173 -5.61751 0
M  V30 4440 H 422.103 2.19285 -4.35621 0
M  V30 4441 H 421.108 0.188829 -5.49476 0
M  V30 4442 H 422.333 0.307878 -6.78402 0
M  V30 4443 H 420.279 2.44147 -6.08875 0
M  V30 4444 H 420.196 1.35608 -7.43738 0
M  V30 4445 H 421.464 2.54325 -7.36844 0
M  V30 4446 N 425.693 1.55336 -0.266172 0
M  V30 4447 C 426.623 2.25146 0.618981 0
M  V30 4448 C 427.604 1.23845 1.16604 0
M  V30 4449 O 428.789 1.52544 1.20183 0
M  V30 4450 C 425.919 2.96572 1.80728 0
M  V30 4451 C 424.873 4.04726 1.39215 0
M  V30 4452 C 424.199 4.63678 2.66283 0
M  V30 4453 C 425.499 5.19407 0.548942 0
M  V30 4454 H 427.193 2.99377 0.0368116 0
M  V30 4455 H 424.739 1.43991 0.0162651 0
M  V30 4456 H 426.692 3.44116 2.43232 0
M  V30 4457 H 425.416 2.19861 2.41514 0
M  V30 4458 H 424.075 3.57979 0.790351 0
M  V30 4459 H 423.723 3.83646 3.25308 0
M  V30 4460 H 423.423 5.367 2.39222 0
M  V30 4461 H 424.947 5.13967 3.29651 0
M  V30 4462 H 426.361 5.63059 1.07876 0
M  V30 4463 H 424.758 5.98936 0.373593 0
M  V30 4464 H 425.828 4.8295 -0.434394 0
M  V30 4465 N 427.171 -0.0066808 1.57599 0
M  V30 4466 C 428.104 -1.03397 2.03431 0
M  V30 4467 C 429.082 -1.33872 0.922877 0
M  V30 4468 O 430.266 -1.4615 1.19048 0
M  V30 4469 C 427.393 -2.36325 2.42628 0
M  V30 4470 C 426.439 -2.21557 3.64438 0
M  V30 4471 S 427.272 -1.54789 5.12641 0
M  V30 4472 C 428.428 -2.8916 5.55101 0
M  V30 4473 H 428.661 -0.643687 2.90248 0
M  V30 4474 H 426.194 -0.217349 1.52863 0
M  V30 4475 H 428.152 -3.12759 2.65879 0
M  V30 4476 H 426.813 -2.72495 1.56222 0
M  V30 4477 H 426.006 -3.1974 3.89592 0
M  V30 4478 H 425.608 -1.53267 3.41153 0
M  V30 4479 H 427.9 -3.8547 5.57153 0
M  V30 4480 H 428.843 -2.68713 6.55133 0
M  V30 4481 H 429.251 -2.92762 4.82649 0
M  V30 4482 N 428.649 -1.55105 -0.279332 0
M  V30 4483 C 429.879 -1.7917 -1.02867 0
M  V30 4484 C 430.287 -0.56204 -1.80659 0
M  V30 4485 O 429.63 0.478266 -1.77365 0
M  V30 4486 C 429.692 -2.96061 -2.03932 0
M  V30 4487 C 429.356 -4.33341 -1.45137 0
M  V30 4488 C 430.353 -5.12565 -0.870266 0
M  V30 4489 C 428.038 -4.79987 -1.48048 0
M  V30 4490 C 430.032 -6.36565 -0.326097 0
M  V30 4491 C 427.719 -6.03944 -0.932443 0
M  V30 4492 C 428.717 -6.8207 -0.356247 0
M  V30 4493 O 428.405 -8.03691 0.183412 0
M  V30 4494 H 428.137 -0.600796 -0.309872 0
M  V30 4495 H 430.691 -2.02932 -0.317468 0
M  V30 4496 H 428.921 -2.67975 -2.78794 0
M  V30 4497 H 430.61 -3.07506 -2.64943 0
M  V30 4498 H 431.376 -4.77661 -0.840521 0
M  V30 4499 H 427.255 -4.1919 -1.91835 0
M  V30 4500 H 430.799 -6.97489 0.124286 0
M  V30 4501 H 426.696 -6.3833 -0.959407 0
M  V30 4502 H 427.464 -8.18468 0.0721681 0
M  V30 4503 N 430.127 0.543554 -1.4793 0
M  V30 4504 C 431.037 1.67657 -1.64098 0
M  V30 4505 C 432.053 1.65934 -0.523622 0
M  V30 4506 O 433.229 1.85133 -0.792943 0
M  V30 4507 C 430.294 3.04146 -1.66421 0
M  V30 4508 C 429.355 3.16831 -2.89684 0
M  V30 4509 C 428.588 4.46809 -2.91886 0
M  V30 4510 O 428.811 5.33095 -2.02895 0
M  V30 4511 O 427.745 4.63573 -3.83906 0
M  V30 4512 H 431.571 1.56957 -2.59997 0
M  V30 4513 H 429.156 0.715116 -1.31173 0
M  V30 4514 H 431.038 3.85346 -1.70548 0
M  V30 4515 H 429.713 3.152 -0.736923 0
M  V30 4516 H 428.62 2.34977 -2.91095 0
M  V30 4517 H 429.953 3.10687 -3.81752 0
M  V30 4518 N 431.605 1.3629 0.791371 0
M  V30 4519 C 432.537 1.26321 1.91248 0
M  V30 4520 C 433.55 0.18313 1.61767 0
M  V30 4521 O 434.739 0.437682 1.73051 0
M  V30 4522 C 431.839 0.925901 3.26007 0
M  V30 4523 C 431.012 2.10746 3.83281 0
M  V30 4524 C 430.071 1.74352 4.96475 0
M  V30 4525 O 429.097 2.46416 5.13096 0
M  V30 4526 N 430.299 0.676058 5.7655 0
M  V30 4527 H 433.064 2.22915 2.00323 0
M  V30 4528 H 430.625 1.29659 0.969546 0
M  V30 4529 H 432.617 0.663636 3.99222 0
M  V30 4530 H 431.187 0.0491581 3.12561 0
M  V30 4531 H 430.407 2.53264 3.02077 0
M  V30 4532 H 431.695 2.8969 4.18279 0
M  V30 4533 H 431.093 0.0776467 5.65647 0
M  V30 4534 H 429.65 0.473612 6.50077 0
M  V30 4535 N 433.083 -1.0153 1.20538 0
M  V30 4536 C 434.313 -1.78487 1.04048 0
M  V30 4537 C 434.721 -1.84631 -0.413292 0
M  V30 4538 O 434.064 -1.29919 -1.29872 0
M  V30 4539 C 434.126 -3.24367 1.55003 0
M  V30 4540 C 433.79 -3.41827 3.0332 0
M  V30 4541 C 434.787 -3.30941 4.00966 0
M  V30 4542 C 432.472 -3.67602 3.42307 0
M  V30 4543 C 434.466 -3.45577 5.35589 0
M  V30 4544 C 432.153 -3.81881 4.77085 0
M  V30 4545 C 433.151 -3.70874 5.73534 0
M  V30 4546 O 432.839 -3.84714 7.05868 0
M  V30 4547 H 432.571 -0.568108 0.366373 0
M  V30 4548 H 435.125 -1.28677 1.60098 0
M  V30 4549 H 433.355 -3.75266 0.933397 0
M  V30 4550 H 435.044 -3.82963 1.34514 0
M  V30 4551 H 435.81 -3.10964 3.72191 0
M  V30 4552 H 431.689 -3.75256 2.67776 0
M  V30 4553 H 435.233 -3.36902 6.10854 0
M  V30 4554 H 431.13 -4.01359 5.0555 0
M  V30 4555 H 431.898 -4.01724 7.13134 0
M  V30 4556 N 434.561 -1.01147 -1.20859 0
M  V30 4557 C 435.789 -0.716911 -1.94082 0
M  V30 4558 C 436.204 0.721568 -1.74467 0
M  V30 4559 O 435.561 1.48889 -1.05539 0
M  V30 4560 C 435.612 -1.03662 -3.46318 0
M  V30 4561 O 435.333 -2.4186 -3.65288 0
M  V30 4562 C 436.834 -0.762386 -4.36695 0
M  V30 4563 H 434.054 -0.26367 -0.617024 0
M  V30 4564 H 436.598 -1.35127 -1.53496 0
M  V30 4565 H 434.753 -0.447757 -3.84804 0
M  V30 4566 H 435.167 -2.53224 -4.59323 0
M  V30 4567 H 436.641 -1.03621 -5.42187 0
M  V30 4568 H 437.118 0.303514 -4.3815 0
M  V30 4569 H 437.724 -1.33316 -4.03865 0
M  V30 4570 N 436.039 1.36541 -0.78704 0
M  V30 4571 C 437.287 1.98911 -0.357633 0
M  V30 4572 C 437.608 1.62778 1.07371 0
M  V30 4573 O 436.878 0.900612 1.73971 0
M  V30 4574 H 435.458 0.735734 -0.129246 0
M  V30 4575 H 438.12 1.66776 -1.00855 0
M  V30 4576 H 437.216 3.08874 -0.447549 0
M  V30 4577 N 437.518 0.538854 1.48102 0
M  V30 4578 C 438.428 -0.222648 2.33541 0
M  V30 4579 C 439.444 -0.930225 1.47047 0
M  V30 4580 O 440.62 -0.903211 1.80011 0
M  V30 4581 C 437.685 -1.25064 3.23357 0
M  V30 4582 C 436.746 -0.552469 4.2573 0
M  V30 4583 C 435.979 -1.53149 5.11254 0
M  V30 4584 O 436.202 -2.76487 4.9891 0
M  V30 4585 O 435.136 -1.06602 5.92385 0
M  V30 4586 H 438.962 0.477707 2.99919 0
M  V30 4587 H 436.547 0.299669 1.46364 0
M  V30 4588 H 438.429 -1.8445 3.78888 0
M  V30 4589 H 437.104 -1.93325 2.59629 0
M  V30 4590 H 436.011 0.082114 3.7401 0
M  V30 4591 H 437.344 0.0883526 4.92121 0
M  V30 4592 N 438.996 -1.55193 0.274407 0
M  V30 4593 C 440.412 -1.59401 -0.0797543 0
M  V30 4594 C 440.612 -1.29162 -1.54659 0
M  V30 4595 O 439.668 -1.05215 -2.29534 0
M  V30 4596 C 440.981 -2.99257 0.294238 0
M  V30 4597 C 442.529 -3.12072 0.240796 0
M  V30 4598 C 443.004 -4.54194 0.589218 0
M  V30 4599 N 444.495 -4.60033 0.540744 0
M  V30 4600 C 445.23 -5.68027 0.783147 0
M  V30 4601 N 444.726 -6.8417 1.09013 0
M  V30 4602 N 446.519 -5.57572 0.711993 0
M  V30 4603 H 438.67 -1.73113 1.23067 0
M  V30 4604 H 440.933 -0.807197 0.497129 0
M  V30 4605 H 440.639 -3.26217 1.31435 0
M  V30 4606 H 440.513 -3.75427 -0.365281 0
M  V30 4607 H 442.9 -2.84877 -0.770024 0
M  V30 4608 H 442.981 -2.38117 0.934563 0
M  V30 4609 H 442.625 -4.82115 1.59772 0
M  V30 4610 H 442.555 -5.26448 -0.126331 0
M  V30 4611 H 445.046 -3.76599 0.313327 0
M  V30 4612 H 445.359 -7.6243 1.26178 0
M  V30 4613 H 443.704 -6.85787 1.12789 0
M  V30 4614 H 446.895 -4.65714 0.472014 0
M  V30 4615 H 447.068 -6.41659 0.90429 0
M  V30 4616 N 440.474 -0.00167713 -1.576 0
M  V30 4617 C 441.72 0.683832 -1.90923 0
M  V30 4618 C 442.053 1.7333 -0.875799 0
M  V30 4619 O 441.328 1.94215 0.10525 0
M  V30 4620 C 441.611 1.32543 -3.3482 0
M  V30 4621 C 441.464 0.287387 -4.48881 0
M  V30 4622 C 442.783 2.25114 -3.78169 0
M  V30 4623 H 439.902 0.247125 -0.694333 0
M  V30 4624 H 442.544 -0.0533149 -1.89925 0
M  V30 4625 H 440.694 1.95372 -3.35801 0
M  V30 4626 H 442.366 -0.341346 -4.60035 0
M  V30 4627 H 440.609 -0.39017 -4.32042 0
M  V30 4628 H 441.28 0.775393 -5.46527 0
M  V30 4629 H 443.756 1.723 -3.7875 0
M  V30 4630 H 442.632 2.66971 -4.79602 0
M  V30 4631 H 442.893 3.13092 -3.12131 0
M  V30 4632 N 441.952 1.55251 0.271103 0
M  V30 4633 C 442.915 1.87484 1.31842 0
M  V30 4634 C 443.915 0.749545 1.42262 0
M  V30 4635 O 445.105 1.01771 1.4138 0
M  V30 4636 C 442.237 2.0818 2.69951 0
M  V30 4637 H 443.43 2.81108 1.0449 0
M  V30 4638 H 440.983 1.47771 0.509258 0
M  V30 4639 H 441.718 1.16944 3.02481 0
M  V30 4640 H 441.503 2.90114 2.63774 0
M  V30 4641 H 442.993 2.34385 3.4562 0
M  V30 4642 N 443.43 -0.535701 1.48216 0
M  V30 4643 C 444.36 -1.65014 1.65204 0
M  V30 4644 C 445.341 -1.62554 0.501011 0
M  V30 4645 O 446.526 -1.7984 0.732886 0
M  V30 4646 C 443.656 -3.03616 1.68626 0
M  V30 4647 C 442.61 -3.20932 2.83172 0
M  V30 4648 C 441.936 -4.60537 2.71679 0
M  V30 4649 C 443.236 -3.04249 4.24535 0
M  V30 4650 H 444.93 -1.51053 2.58502 0
M  V30 4651 H 442.476 -0.725262 1.24402 0
M  V30 4652 H 444.429 -3.81446 1.79099 0
M  V30 4653 H 443.153 -3.18587 0.719026 0
M  V30 4654 H 441.812 -2.45517 2.72244 0
M  V30 4655 H 441.46 -4.72336 1.72937 0
M  V30 4656 H 441.16 -4.73069 3.48538 0
M  V30 4657 H 442.684 -5.40475 2.84112 0
M  V30 4658 H 444.098 -3.71877 4.36326 0
M  V30 4659 H 442.495 -3.28278 5.02348 0
M  V30 4660 H 443.565 -2.00739 4.41397 0
M  V30 4661 N 444.908 -1.36708 -0.784132 0
M  V30 4662 C 446.155 -1.31231 -1.54222 0
M  V30 4663 C 446.483 0.106864 -1.94206 0
M  V30 4664 O 445.738 1.07734 -1.63376 0
M  V30 4665 C 446.037 -2.18571 -2.82774 0
M  V30 4666 C 445.703 -3.67039 -2.61903 0
M  V30 4667 C 444.365 -4.07503 -2.55919 0
M  V30 4668 C 446.717 -4.61149 -2.4288 0
M  V30 4669 C 444.045 -5.40211 -2.28886 0
M  V30 4670 C 446.397 -5.94081 -2.17373 0
M  V30 4671 C 445.061 -6.33664 -2.09825 0
M  V30 4672 H 444.331 -0.48021 -0.56434 0
M  V30 4673 H 446.978 -1.68807 -0.904233 0
M  V30 4674 H 445.283 -1.73949 -3.51068 0
M  V30 4675 H 446.98 -2.11655 -3.40592 0
M  V30 4676 H 443.57 -3.34941 -2.67418 0
M  V30 4677 H 447.754 -4.30756 -2.46501 0
M  V30 4678 H 443.01 -5.69855 -2.21529 0
M  V30 4679 H 447.184 -6.66566 -2.01649 0
M  V30 4680 H 444.811 -7.36423 -1.88641 0
M  V30 4681 N 446.386 1.0089 -1.21074 0
M  V30 4682 C 447.634 1.74262 -1.02358 0
M  V30 4683 C 447.955 1.89869 0.444393 0
M  V30 4684 O 447.225 1.44677 1.32081 0
M  V30 4685 H 445.805 0.645615 -0.375754 0
M  V30 4686 H 448.467 1.21596 -1.52317 0
M  V30 4687 H 447.563 2.74328 -1.4883 0
M  V30 4688 N 447.864 1.01787 1.20321 0
M  V30 4689 C 448.811 0.589197 2.23153 0
M  V30 4690 C 449.781 -0.391367 1.61423 0
M  V30 4691 O 450.966 -0.290518 1.88575 0
M  V30 4692 C 448.106 -0.0650747 3.45039 0
M  V30 4693 C 447.219 0.960207 4.21194 0
M  V30 4694 C 446.354 0.276854 5.30478 0
M  V30 4695 C 445.393 1.2888 5.98378 0
M  V30 4696 N 444.53 0.632031 6.99249 0
M  V30 4697 H 449.37 1.47071 2.59179 0
M  V30 4698 H 446.907 0.736192 1.27352 0
M  V30 4699 H 448.865 -0.461552 4.14639 0
M  V30 4700 H 447.495 -0.910233 3.09701 0
M  V30 4701 H 446.547 1.47484 3.50646 0
M  V30 4702 H 447.859 1.72977 4.67847 0
M  V30 4703 H 447.013 -0.175056 6.06447 0
M  V30 4704 H 445.752 -0.525004 4.84866 0
M  V30 4705 H 444.757 1.75109 5.21169 0
M  V30 4706 H 445.982 2.09196 6.46076 0
M  V30 4707 H 443.928 -0.149935 6.55829 0
M  V30 4708 H 443.845 1.33964 7.44036 0
M  V30 4709 H 445.113 0.203755 7.79234 0
M  V30 4710 N 449.342 -1.36122 0.79427 0
M  V30 4711 C 450.619 -1.93398 0.292685 0
M  V30 4712 C 450.999 -1.72567 -1.21589 0
M  V30 4713 O 450.347 -1.08745 -2.00965 0
M  V30 4714 C 450.557 -3.42099 0.690614 0
M  V30 4715 C 451.905 -4.19231 0.673105 0
M  V30 4716 O 452.929 -3.50559 0.631389 0
M  V30 4717 O 451.788 -5.41732 0.720362 0
M  V30 4718 H 448.882 -0.823712 0.0736693 0
M  V30 4719 H 451.428 -1.45273 0.87714 0
M  V30 4720 H 450.2 -3.50938 1.73085 0
M  V30 4721 H 449.823 -3.97519 0.0803036 0
M  V30 4722 N 450.82 -0.546701 -1.47814 0
M  V30 4723 C 451.768 0.220048 -2.31557 0
M  V30 4724 C 452.762 0.919472 -1.42275 0
M  V30 4725 O 453.968 0.841953 -1.59095 0
M  V30 4726 H 450.343 0.0898334 -0.746615 0
M  V30 4727 H 452.314 -0.505589 -2.94086 0
M  V30 4728 C 451.063 1.24353 -3.24702 0
M  V30 4729 H 450.386 0.714758 -3.93359 0
M  V30 4730 H 451.826 1.75112 -3.8615 0
M  V30 4731 C 450.285 2.28593 -2.47481 0
M  V30 4732 O 450.815 3.35334 -2.21165 0
M  V30 4733 N 449.021 2.02244 -2.08676 0
M  V30 4734 H 448.568 1.15455 -2.30278 0
M  V30 4735 H 448.526 2.72207 -1.57323 0
M  V30 4736 N 452.299 1.55045 -0.282633 0
M  V30 4737 C 453.229 2.2579 0.595066 0
M  V30 4738 C 454.21 1.25074 1.15284 0
M  V30 4739 O 455.395 1.5381 1.18559 0
M  V30 4740 C 452.525 2.98472 1.77572 0
M  V30 4741 C 451.479 4.0618 1.34914 0
M  V30 4742 C 450.805 4.66477 2.6135 0
M  V30 4743 C 452.105 5.1996 0.493821 0
M  V30 4744 H 453.799 2.994 0.00505653 0
M  V30 4745 H 451.345 1.44 0.000992001 0
M  V30 4746 H 453.298 3.46677 2.39568 0
M  V30 4747 H 452.022 2.2241 2.39168 0
M  V30 4748 H 450.681 3.58797 0.752338 0
M  V30 4749 H 450.329 3.87074 3.2122 0
M  V30 4750 H 450.029 5.39207 2.33516 0
M  V30 4751 H 451.553 5.17435 3.24181 0
M  V30 4752 H 452.967 5.64172 1.01898 0
M  V30 4753 H 451.364 5.99299 0.310047 0
M  V30 4754 H 452.434 4.82462 -0.485593 0
M  V30 4755 N 453.777 0.010035 1.57597 0
M  V30 4756 C 454.709 -1.00649 2.05918 0
M  V30 4757 C 455.722 -1.30077 0.978964 0
M  V30 4758 O 456.911 -1.26878 1.25556 0
M  V30 4759 C 454.011 -2.33876 2.45265 0
M  V30 4760 C 453.184 -2.23242 3.7614 0
M  V30 4761 C 452.243 -3.39242 4.02245 0
M  V30 4762 O 451.269 -3.1698 4.72771 0
M  V30 4763 N 452.471 -4.6242 3.50924 0
M  V30 4764 H 455.236 -0.594333 2.93748 0
M  V30 4765 H 452.797 -0.17714 1.60928 0
M  V30 4766 H 454.789 -3.1027 2.59836 0
M  V30 4767 H 453.359 -2.66799 1.62902 0
M  V30 4768 H 452.579 -1.31696 3.71551 0
M  V30 4769 H 453.867 -2.13321 4.61922 0
M  V30 4770 H 453.265 -4.83404 2.93832 0
M  V30 4771 H 451.822 -5.36046 3.70807 0
M  V30 4772 N 455.255 -1.55392 -0.262866 0
M  V30 4773 C 456.671 -1.47459 -0.610582 0
M  V30 4774 C 456.871 -0.697031 -1.8906 0
M  V30 4775 O 455.927 -0.219952 -2.5154 0
M  V30 4776 C 457.24 -2.91751 -0.728131 0
M  V30 4777 C 458.788 -3.02027 -0.821517 0
M  V30 4778 C 459.263 -4.47594 -0.97076 0
M  V30 4779 N 460.754 -4.51465 -1.03603 0
M  V30 4780 C 461.489 -5.61326 -1.17049 0
M  V30 4781 N 460.985 -6.81032 -1.2715 0
M  V30 4782 N 462.778 -5.49089 -1.20239 0
M  V30 4783 H 454.929 -2.04395 0.577632 0
M  V30 4784 H 457.192 -0.927287 0.197086 0
M  V30 4785 H 456.898 -3.51413 0.142132 0
M  V30 4786 H 456.772 -3.4134 -1.6052 0
M  V30 4787 H 459.159 -2.42456 -1.68224 0
M  V30 4788 H 459.24 -2.55674 0.0803688 0
M  V30 4789 H 458.884 -5.07771 -0.114655 0
M  V30 4790 H 458.814 -4.91613 -1.88745 0
M  V30 4791 H 461.305 -3.6524 -0.96996 0
M  V30 4792 H 461.618 -7.60511 -1.37271 0
M  V30 4793 H 459.963 -6.83824 -1.24136 0
M  V30 4794 H 463.154 -4.54507 -1.11985 0
M  V30 4795 H 463.327 -6.34749 -1.30373 0
M  V30 4796 N 456.733 0.527833 -1.48498 0
M  V30 4797 C 457.681 1.65313 -1.63628 0
M  V30 4798 C 458.675 1.6177 -0.502676 0
M  V30 4799 O 459.881 1.66601 -0.681469 0
M  V30 4800 H 456.256 0.547518 -0.515488 0
M  V30 4801 H 458.227 1.49696 -2.58135 0
M  V30 4802 C 456.976 3.03576 -1.6952 0
M  V30 4803 H 456.299 3.06997 -2.56111 0
M  V30 4804 H 457.739 3.81923 -1.84149 0
M  V30 4805 C 456.198 3.34089 -0.43432 0
M  V30 4806 O 456.728 3.99151 0.451852 0
M  V30 4807 N 454.934 2.88991 -0.305368 0
M  V30 4808 H 454.481 2.36222 -1.02747 0
M  V30 4809 H 454.439 3.09776 0.537249 0
M  V30 4810 N 458.211 1.37122 0.776871 0
M  V30 4811 C 459.622 1.28667 1.35284 0
M  V30 4812 C 459.973 -0.0680035 1.96082 0
M  V30 4813 O 459.098 -0.969743 1.93455 0
M  V30 4814 C 459.693 2.32997 2.45963 0
M  V30 4815 C 458.252 2.28191 2.99342 0
M  V30 4816 C 457.399 2.17101 1.72517 0
M  V30 4817 H 460.35 1.47819 0.577527 0
M  V30 4818 H 460.371 1.97366 3.2531 0
M  V30 4819 H 459.883 3.3158 2.01684 0
M  V30 4820 H 457.984 1.33115 3.4801 0
M  V30 4821 H 458.097 3.21397 3.55304 0
M  V30 4822 H 456.461 1.63562 1.95242 0
M  V30 4823 H 457.244 3.17591 1.30348 0
M  V30 4824 N 459.689 -1.00246 1.21608 0
M  V30 4825 C 460.919 -1.77373 1.05935 0
M  V30 4826 C 461.327 -1.85059 -0.393686 0
M  V30 4827 O 460.67 -1.31289 -1.28487 0
M  V30 4828 C 460.732 -3.22705 1.58435 0
M  V30 4829 C 460.396 -3.38591 3.06929 0
M  V30 4830 C 461.393 -3.2667 4.04454 0
M  V30 4831 C 459.078 -3.6395 3.46187 0
M  V30 4832 C 461.072 -3.39877 5.39224 0
M  V30 4833 C 458.759 -3.768 4.81108 0
M  V30 4834 C 459.757 -3.6477 5.77436 0
M  V30 4835 O 459.445 -3.77206 7.09909 0
M  V30 4836 H 459.177 -0.56419 0.372378 0
M  V30 4837 H 461.731 -1.26971 1.61454 0
M  V30 4838 H 459.961 -3.74255 0.973147 0
M  V30 4839 H 461.65 -3.81515 1.38568 0
M  V30 4840 H 462.416 -3.06999 3.75468 0
M  V30 4841 H 458.295 -3.72395 2.71741 0
M  V30 4842 H 461.839 -3.30404 6.14393 0
M  V30 4843 H 457.736 -3.95975 5.09779 0
M  V30 4844 H 458.504 -3.94138 7.17355 0
M  V30 4845 N 461.167 -1.02423 -1.1978 0
M  V30 4846 C 462.13 -0.605703 -2.21052 0
M  V30 4847 C 463.13 0.328209 -1.57415 0
M  V30 4848 O 464.32 0.115853 -1.73814 0
M  V30 4849 C 461.452 0.114366 -3.40708 0
M  V30 4850 H 462.645 -1.5017 -2.59594 0
M  V30 4851 H 460.198 -0.814888 -1.33376 0
M  V30 4852 H 460.933 1.02492 -3.07678 0
M  V30 4853 H 460.718 -0.556641 -3.88129 0
M  V30 4854 H 462.208 0.394272 -4.15735 0
M  V30 4855 N 462.645 1.35699 -0.801477 0
M  V30 4856 C 463.891 1.99208 -0.380022 0
M  V30 4857 C 464.224 1.63445 1.04878 0
M  V30 4858 O 463.499 0.895223 1.72673 0
M  V30 4859 C 463.782 3.55755 -0.557708 0
M  V30 4860 C 463.635 4.01332 -2.03107 0
M  V30 4861 C 464.954 4.40096 0.0197968 0
M  V30 4862 H 462.073 0.723667 -0.139552 0
M  V30 4863 H 464.715 1.60928 -1.01006 0
M  V30 4864 H 462.865 3.88494 -0.0213741 0
M  V30 4865 H 464.537 3.79026 -2.62939 0
M  V30 4866 H 462.78 3.52429 -2.52936 0
M  V30 4867 H 463.451 5.10234 -2.1063 0
M  V30 4868 H 465.927 4.13786 -0.438179 0
M  V30 4869 H 464.803 5.48735 -0.134477 0
M  V30 4870 H 465.064 4.2786 1.11303 0
M  V30 4871 N 464.123 0.554532 1.47522 0
M  V30 4872 C 465.351 0.034257 2.06872 0
M  V30 4873 C 465.766 -1.25826 1.40759 0
M  V30 4874 O 465.123 -1.75425 0.503217 0
M  V30 4875 C 465.174 -0.167827 3.6111 0
M  V30 4876 O 464.895 1.07351 4.24744 0
M  V30 4877 C 466.396 -0.72569 4.3732 0
M  V30 4878 H 463.616 0.0446275 0.669514 0
M  V30 4879 H 466.16 0.767181 1.89564 0
M  V30 4880 H 464.315 -0.850872 3.7794 0
M  V30 4881 H 464.729 0.869563 5.17242 0
M  V30 4882 H 466.203 -0.816394 5.45929 0
M  V30 4883 H 466.68 -1.73635 4.0342 0
M  V30 4884 H 467.286 -0.0784292 4.25228 0
M  V30 4885 N 465.601 -1.54893 0.290851 0
M  V30 4886 C 466.564 -2.21824 -0.576784 0
M  V30 4887 C 467.564 -1.20104 -1.06919 0
M  V30 4888 O 468.754 -1.44906 -0.966843 0
M  V30 4889 C 465.886 -2.89662 -1.79747 0
M  V30 4890 H 467.079 -2.99899 0.00784051 0
M  V30 4891 H 464.632 -1.56245 0.0415934 0
M  V30 4892 H 465.367 -2.15639 -2.42219 0
M  V30 4893 H 465.152 -3.64219 -1.45214 0
M  V30 4894 H 466.642 -3.4075 -2.4141 0
M  V30 4895 N 467.08 -0.0183926 -1.57589 0
M  V30 4896 C 468.328 0.661253 -1.90976 0
M  V30 4897 C 468.649 1.73281 -0.894353 0
M  V30 4898 O 467.919 1.9579 0.0656788 0
M  V30 4899 H 466.499 0.247233 -0.704901 0
M  V30 4900 H 469.161 -0.0636639 -1.94796 0
M  V30 4901 H 468.257 1.12083 -2.9128 0
M  V30 4902 N 468.558 1.5553 0.254621 0
M  V30 4903 C 469.807 1.76202 0.981612 0
M  V30 4904 C 470.12 0.580883 1.86776 0
M  V30 4905 O 471.326 0.670448 2.63092 0
M  V30 4906 C 469.782 3.11921 1.79537 0
M  V30 4907 C 469.39 4.37659 0.956991 0
M  V30 4908 C 471.134 3.41936 2.51555 0
M  V30 4909 C 469.041 5.64411 1.76619 0
M  V30 4910 H 467.971 0.656841 0.370237 0
M  V30 4911 H 470.622 1.81969 0.236556 0
M  V30 4912 H 469.004 3.00241 2.58208 0
M  V30 4913 H 470.178 4.60307 0.21315 0
M  V30 4914 H 468.493 4.14922 0.350497 0
M  V30 4915 H 471.09 4.33849 3.12536 0
M  V30 4916 H 471.433 2.62905 3.22779 0
M  V30 4917 H 471.966 3.54797 1.799 0
M  V30 4918 H 468.705 6.46241 1.09783 0
M  V30 4919 H 468.225 5.45877 2.48551 0
M  V30 4920 H 469.904 6.03386 2.33527 0
M  V30 4921 N 470.036 -0.519951 1.48776 0
M  V30 4922 C 470.984 -1.64443 1.64503 0
M  V30 4923 C 471.978 -1.61501 0.511248 0
M  V30 4924 O 473.184 -1.66238 0.690294 0
M  V30 4925 H 469.559 -0.544776 0.518385 0
M  V30 4926 H 471.53 -1.48325 2.58925 0
M  V30 4927 C 470.279 -3.02673 1.71127 0
M  V30 4928 H 469.602 -3.05635 2.57735 0
M  V30 4929 H 471.042 -3.80941 1.86172 0
M  V30 4930 C 469.501 -3.33854 0.452032 0
M  V30 4931 O 470.031 -3.99385 -0.430678 0
M  V30 4932 N 468.237 -2.88825 0.32069 0
M  V30 4933 H 467.784 -2.35674 1.03998 0
M  V30 4934 H 467.742 -3.10056 -0.520814 0
M  V30 4935 N 471.514 -1.37532 -0.769588 0
M  V30 4936 C 472.744 -1.35861 -1.55645 0
M  V30 4937 C 473.152 0.0574398 -1.89113 0
M  V30 4938 O 472.495 1.03021 -1.52093 0
M  V30 4939 C 472.557 -2.13431 -2.89288 0
M  V30 4940 C 472.221 -3.62378 -2.78444 0
M  V30 4941 C 473.218 -4.56215 -2.49326 0
M  V30 4942 C 470.903 -4.05529 -2.96398 0
M  V30 4943 C 472.897 -5.91181 -2.38294 0
M  V30 4944 C 470.584 -5.40579 -2.84987 0
M  V30 4945 C 471.582 -6.33218 -2.55975 0
M  V30 4946 O 471.27 -7.65787 -2.44594 0
M  V30 4947 H 471.002 -0.467001 -0.48876 0
M  V30 4948 H 473.556 -1.81505 -0.961515 0
M  V30 4949 H 471.786 -1.62481 -3.50909 0
M  V30 4950 H 473.475 -2.04368 -3.50697 0
M  V30 4951 H 474.241 -4.24187 -2.35139 0
M  V30 4952 H 470.12 -3.33781 -3.1798 0
M  V30 4953 H 473.664 -6.63457 -2.15571 0
M  V30 4954 H 469.561 -5.72209 -2.98743 0
M  V30 4955 H 470.329 -7.76132 -2.59927 0
M  V30 4956 N 472.992 0.995999 -1.22138 0
M  V30 4957 C 474.22 1.77066 -1.07029 0
M  V30 4958 C 474.635 1.8495 0.379357 0
M  V30 4959 O 473.992 1.3174 1.26297 0
M  V30 4960 C 474.043 3.20533 -1.67155 0
M  V30 4961 O 473.764 3.13082 -3.06449 0
M  V30 4962 C 475.265 4.14461 -1.5728 0
M  V30 4963 H 472.485 0.556179 -0.375374 0
M  V30 4964 H 475.029 1.25238 -1.61666 0
M  V30 4965 H 473.184 3.6944 -1.16589 0
M  V30 4966 H 473.598 4.03283 -3.35355 0
M  V30 4967 H 475.072 5.1289 -2.04078 0
M  V30 4968 H 475.549 4.36005 -0.528795 0
M  V30 4969 H 476.155 3.71449 -2.07136 0
M  V30 4970 N 474.47 1.03057 1.19235 0
M  V30 4971 C 475.881 0.757449 1.70645 0
M  V30 4972 C 476.232 -0.722735 1.82403 0
M  V30 4973 O 475.357 -1.56325 1.49638 0
M  V30 4974 C 475.952 1.36833 3.09939 0
M  V30 4975 C 474.511 1.14375 3.58602 0
M  V30 4976 C 473.658 1.46533 2.35422 0
M  V30 4977 H 476.609 1.19828 1.04052 0
M  V30 4978 H 476.63 0.766184 3.72706 0
M  V30 4979 H 476.142 2.44562 3.01349 0
M  V30 4980 H 474.243 0.0847542 3.72504 0
M  V30 4981 H 474.356 1.83366 4.42622 0
M  V30 4982 H 472.72 0.884712 2.38841 0
M  V30 4983 H 473.503 2.55349 2.2946 0
M  V30 4984 N 475.948 -1.35272 0.808662 0
M  V30 4985 C 477.194 -1.99003 0.390581 0
M  V30 4986 C 477.527 -1.63999 -1.0401 0
M  V30 4987 O 476.802 -0.904368 -1.72196 0
M  V30 4988 C 477.085 -3.55454 0.576566 0
M  V30 4989 C 476.938 -4.00249 2.05233 0
M  V30 4990 C 478.257 -4.401 0.00354277 0
M  V30 4991 H 475.376 -0.722917 0.143388 0
M  V30 4992 H 478.018 -1.6039 1.01858 0
M  V30 4993 H 476.168 -3.88477 0.0419766 0
M  V30 4994 H 477.84 -3.77626 2.64946 0
M  V30 4995 H 476.083 -3.51082 2.54801 0
M  V30 4996 H 476.754 -5.0911 2.13333 0
M  V30 4997 H 479.23 -4.13548 0.460117 0
M  V30 4998 H 478.106 -5.48656 0.163575 0
M  V30 4999 H 478.367 -4.28444 -1.09032 0
M  V30 5000 N 477.426 -0.562348 -1.47226 0
M  V30 5001 C 478.837 -0.130325 -1.86245 0
M  V30 5002 C 479.188 1.30128 -1.46838 0
M  V30 5003 O 478.313 1.97974 -0.873805 0
M  V30 5004 C 478.908 -0.229738 -3.3802 0
M  V30 5005 C 477.467 0.14728 -3.76112 0
M  V30 5006 C 476.614 -0.574971 -2.71274 0
M  V30 5007 H 479.565 -0.771773 -1.3867 0
M  V30 5008 H 479.586 0.550316 -3.76499 0
M  V30 5009 H 479.098 -1.27178 -3.66671 0
M  V30 5010 H 477.199 1.19023 -3.53078 0
M  V30 5011 H 477.312 -0.214858 -4.78618 0
M  V30 5012 H 475.676 -0.0174756 -2.54694 0
M  V30 5013 H 476.459 -1.61827 -3.02766 0
M  V30 5014 N 478.904 1.54736 -0.299062 0
M  V30 5015 C 479.834 2.26409 0.571085 0
M  V30 5016 C 480.815 1.2629 1.13951 0
M  V30 5017 O 482 1.55059 1.16921 0
M  V30 5018 C 479.13 3.00338 1.74396 0
M  V30 5019 C 478.084 4.07588 1.30599 0
M  V30 5020 C 477.41 4.69222 2.56387 0
M  V30 5021 C 478.71 5.20455 0.438645 0
M  V30 5022 H 480.404 2.99388 -0.0266991 0
M  V30 5023 H 477.95 1.43993 -0.0142812 0
M  V30 5024 H 479.903 3.49198 2.35878 0
M  V30 5025 H 478.627 2.24934 2.36796 0
M  V30 5026 H 477.286 3.59575 0.71424 0
M  V30 5027 H 476.934 3.9046 3.17097 0
M  V30 5028 H 476.634 5.41653 2.27784 0
M  V30 5029 H 478.158 5.20844 3.18675 0
M  V30 5030 H 479.572 5.65221 0.959085 0
M  V30 5031 H 477.969 5.99594 0.246466 0
M  V30 5032 H 479.039 4.8192 -0.536738 0
M  V30 5033 N 480.382 0.0267497 1.57577 0
M  V30 5034 C 481.312 -0.954308 2.13108 0
M  V30 5035 C 482.293 -1.34088 1.04663 0
M  V30 5036 O 483.478 -1.41992 1.32484 0
M  V30 5037 C 480.608 -2.23744 2.65624 0
M  V30 5038 C 479.562 -1.99168 3.78835 0
M  V30 5039 C 478.888 -3.33726 4.17769 0
M  V30 5040 C 480.188 -1.33277 5.0501 0
M  V30 5041 H 481.882 -0.491848 2.95332 0
M  V30 5042 H 479.428 -0.23514 1.42067 0
M  V30 5043 H 481.381 -2.92754 3.03106 0
M  V30 5044 H 480.105 -2.72151 1.80558 0
M  V30 5045 H 478.764 -1.32577 3.41788 0
M  V30 5046 H 478.412 -3.79888 3.29688 0
M  V30 5047 H 478.112 -3.18089 4.94058 0
M  V30 5048 H 479.636 -4.04008 4.57832 0
M  V30 5049 H 481.05 -1.92283 5.40093 0
M  V30 5050 H 479.447 -1.28045 5.8628 0
M  V30 5051 H 480.517 -0.305411 4.83937 0
M  V30 5052 N 481.861 -1.55662 -0.24637 0
M  V30 5053 C 483.089 -1.81575 -0.991876 0
M  V30 5054 C 483.504 -0.602545 -1.78927 0
M  V30 5055 O 482.861 0.428795 -1.77391 0
M  V30 5056 C 482.912 -3.05711 -1.92933 0
M  V30 5057 O 482.633 -4.22348 -1.1642 0
M  V30 5058 C 484.134 -3.44428 -2.79078 0
M  V30 5059 H 481.354 -0.604209 -0.291844 0
M  V30 5060 H 483.898 -2.02722 -0.269095 0
M  V30 5061 H 482.053 -2.86612 -2.60638 0
M  V30 5062 H 482.467 -4.92706 -1.79835 0
M  V30 5063 H 483.941 -4.34388 -3.40603 0
M  V30 5064 H 484.418 -2.65037 -3.50217 0
M  V30 5065 H 485.024 -3.65879 -2.16824 0
M  V30 5066 N 483.339 0.512053 -1.4905 0
M  V30 5067 C 484.585 1.26874 -1.58212 0
M  V30 5068 C 484.918 1.9241 -0.263073 0
M  V30 5069 O 484.193 1.80181 0.732476 0
M  V30 5070 C 484.476 2.34428 -2.73341 0
M  V30 5071 C 484.329 1.73466 -4.15006 0
M  V30 5072 C 485.648 3.36073 -2.84154 0
M  V30 5073 H 482.767 0.459924 -0.575881 0
M  V30 5074 H 485.409 0.568587 -1.81293 0
M  V30 5075 H 483.559 2.94146 -2.53792 0
M  V30 5076 H 485.231 1.17661 -4.46042 0
M  V30 5077 H 483.474 1.03921 -4.21168 0
M  V30 5078 H 484.145 2.51426 -4.91415 0
M  V30 5079 H 486.621 2.86332 -3.01916 0
M  V30 5080 H 485.497 4.08703 -3.66406 0
M  V30 5081 H 485.758 3.97725 -1.93048 0
M  V30 5082 N 484.817 1.37938 0.762283 0
M  V30 5083 C 486.065 1.33404 1.51815 0
M  V30 5084 C 486.386 -0.0780975 1.94844 0
M  V30 5085 O 485.656 -1.02405 1.67003 0
M  V30 5086 H 484.236 0.490839 0.563104 0
M  V30 5087 H 486.898 1.72527 0.906669 0
M  V30 5088 H 485.994 1.97926 2.41313 0
M  V30 5089 N 486.295 -0.989507 1.22664 0
M  V30 5090 C 487.541 -1.7321 1.05481 0
M  V30 5091 C 487.874 -1.89852 -0.408635 0
M  V30 5092 O 487.149 -1.44416 -1.30285 0
M  V30 5093 C 487.432 -3.1357 1.77047 0
M  V30 5094 C 487.285 -3.04555 3.31008 0
M  V30 5095 C 488.604 -4.12812 1.5256 0
M  V30 5096 H 485.723 -0.628697 0.384589 0
M  V30 5097 H 488.365 -1.15258 1.51049 0
M  V30 5098 H 486.515 -3.63046 1.3831 0
M  V30 5099 H 488.187 -2.62674 3.7921 0
M  V30 5100 H 486.43 -2.41278 3.6051 0
M  V30 5101 H 487.101 -4.03894 3.76263 0
M  V30 5102 H 489.577 -3.72106 1.86215 0
M  V30 5103 H 488.453 -5.09132 2.05124 0
M  V30 5104 H 488.714 -4.39711 0.458936 0
M  V30 5105 N 487.773 -1.03688 -1.18687 0
M  V30 5106 C 489.05 -0.652397 -1.84399 0
M  V30 5107 C 489.43 0.868386 -1.92412 0
M  V30 5108 O 488.778 1.76832 -1.44716 0
M  V30 5109 C 488.988 -1.3238 -3.22919 0
M  V30 5110 C 490.336 -1.45216 -3.98996 0
M  V30 5111 O 491.36 -1.2816 -3.32345 0
M  V30 5112 O 490.219 -1.72975 -5.18403 0
M  V30 5113 H 487.313 -0.227793 -0.795009 0
M  V30 5114 H 489.859 -1.13553 -1.2611 0
M  V30 5115 H 488.631 -2.36202 -3.11968 0
M  V30 5116 H 488.254 -0.829039 -3.88861 0
M  V30 5117 N 489.251 1.34841 -0.815825 0
M  V30 5118 C 490.183 2.28409 -0.190265 0
M  V30 5119 C 491.196 1.50705 0.615771 0
M  V30 5120 O 492.385 1.72822 0.446616 0
M  V30 5121 C 489.485 3.30441 0.752446 0
M  V30 5122 C 488.658 4.37399 -0.00922152 0
M  V30 5123 C 487.717 5.19234 0.853351 0
M  V30 5124 O 486.743 5.68404 0.300919 0
M  V30 5125 N 487.945 5.38248 2.17416 0
M  V30 5126 H 490.71 2.82732 -0.994114 0
M  V30 5127 H 488.271 1.47289 -0.672129 0
M  V30 5128 H 490.263 3.82084 1.33394 0
M  V30 5129 H 488.833 2.76565 1.45707 0
M  V30 5130 H 488.053 3.86567 -0.771979 0
M  V30 5131 H 489.341 5.05992 -0.533807 0
M  V30 5132 H 488.739 4.99961 2.6468 0
M  V30 5133 H 487.296 5.93035 2.70467 0
M  V30 5134 N 490.729 0.570148 1.46925 0
M  V30 5135 C 492.145 0.23087 1.57921 0
M  V30 5136 C 492.345 -1.26676 1.56702 0
M  V30 5137 O 491.401 -2.04774 1.47729 0
M  V30 5138 C 492.714 0.868973 2.8787 0
M  V30 5139 C 494.262 0.841397 3.01479 0
M  V30 5140 C 494.737 1.45881 4.34146 0
M  V30 5141 N 496.228 1.42258 4.40814 0
M  V30 5142 C 496.963 1.8698 5.42057 0
M  V30 5143 N 496.459 2.39618 6.50042 0
M  V30 5144 N 498.252 1.77972 5.33181 0
M  V30 5145 H 490.403 1.54301 1.45962 0
M  V30 5146 H 492.666 0.644224 0.69547 0
M  V30 5147 H 492.372 1.922 2.94537 0
M  V30 5148 H 492.246 0.369682 3.75384 0
M  V30 5149 H 494.633 -0.202973 2.94401 0
M  V30 5150 H 494.714 1.37858 2.15474 0
M  V30 5151 H 494.358 2.50231 4.4198 0
M  V30 5152 H 494.288 0.896958 5.18905 0
M  V30 5153 H 496.779 1.03768 3.63374 0
M  V30 5154 H 497.092 2.71633 7.23488 0
M  V30 5155 H 495.437 2.43636 6.50897 0
M  V30 5156 H 498.628 1.36617 4.4772 0
M  V30 5157 H 498.801 2.13143 6.11943 0
M  V30 5158 N 492.207 -1.54576 0.307264 0
M  V30 5159 C 493.14 -2.19946 -0.608195 0
M  V30 5160 C 494.118 -1.17096 -1.12815 0
M  V30 5161 O 495.302 -1.45766 -1.19518 0
M  V30 5162 C 492.429 -2.84826 -1.8328 0
M  V30 5163 C 491.475 -4.01256 -1.44554 0
M  V30 5164 S 492.308 -5.33197 -0.49612 0
M  V30 5165 C 493.464 -6.01563 -1.72838 0
M  V30 5166 H 493.697 -2.97253 -0.0528544 0
M  V30 5167 H 491.23 -1.54129 0.0913837 0
M  V30 5168 H 493.188 -3.22832 -2.53554 0
M  V30 5169 H 491.849 -2.07353 -2.35931 0
M  V30 5170 H 491.042 -4.45457 -2.35762 0
M  V30 5171 H 490.644 -3.6484 -0.822671 0
M  V30 5172 H 492.936 -6.22751 -2.6681 0
M  V30 5173 H 493.879 -6.9552 -1.32882 0
M  V30 5174 H 494.287 -5.31279 -1.90795 0
M  V30 5175 N 493.685 -0.035106 -1.57561 0
M  V30 5176 C 494.933 0.64096 -1.91667 0
M  V30 5177 C 495.254 1.72323 -0.912681 0
M  V30 5178 O 494.524 1.95849 0.0449089 0
M  V30 5179 H 493.104 0.239743 -0.707483 0
M  V30 5180 H 495.766 -0.084321 -1.94718 0
M  V30 5181 H 494.862 1.08987 -2.92452 0
M  V30 5182 N 495.163 1.55791 0.238111 0
M  V30 5183 C 496.11 1.9105 1.29493 0
M  V30 5184 C 497.08 0.765733 1.47397 0
M  V30 5185 O 498.265 1.02017 1.61236 0
M  V30 5186 C 495.405 2.21826 2.64362 0
M  V30 5187 C 494.518 3.49153 2.54394 0
M  V30 5188 C 493.653 3.69455 3.81676 0
M  V30 5189 C 492.692 4.90353 3.66361 0
M  V30 5190 N 491.829 5.07131 4.85554 0
M  V30 5191 H 496.669 2.81172 0.987233 0
M  V30 5192 H 494.206 1.39179 0.476203 0
M  V30 5193 H 496.164 2.37675 3.4288 0
M  V30 5194 H 494.794 1.34897 2.93262 0
M  V30 5195 H 493.846 3.41587 1.67399 0
M  V30 5196 H 495.158 4.37818 2.38991 0
M  V30 5197 H 494.312 3.85311 4.68636 0
M  V30 5198 H 493.051 2.7904 3.99985 0
M  V30 5199 H 492.056 4.74464 2.77784 0
M  V30 5200 H 493.281 5.82237 3.49538 0
M  V30 5201 H 491.227 4.19654 5.04209 0
M  V30 5202 H 491.144 5.89899 4.72816 0
M  V30 5203 H 492.412 5.27407 5.73988 0
M  V30 5204 N 496.642 -0.504142 1.49319 0
M  V30 5205 C 497.867 -1.28729 1.62615 0
M  V30 5206 C 498.292 -1.85752 0.296309 0
M  V30 5207 O 497.65 -1.65704 -0.735649 0
M  V30 5208 C 497.698 -2.39561 2.69524 0
M  V30 5209 O 496.802 -3.43324 2.28478 0
M  V30 5210 H 496.143 -0.380172 0.544395 0
M  V30 5211 H 498.673 -0.603872 1.95485 0
M  V30 5212 H 498.683 -2.8537 2.91595 0
M  V30 5213 H 497.358 -1.97423 3.66056 0
M  V30 5214 H 495.935 -3.03455 2.16725 0
M  V30 5215 N 498.12 -1.38341 -0.754957 0
M  V30 5216 C 499.345 -1.37882 -1.5493 0
M  V30 5217 C 499.77 0.0296385 -1.88077 0
M  V30 5218 O 499.128 1.01133 -1.50472 0
M  V30 5219 C 499.176 -2.23996 -2.82592 0
M  V30 5220 O 498.28 -1.65612 -3.77686 0
M  V30 5221 H 497.621 -0.470384 -0.468652 0
M  V30 5222 H 500.151 -1.82084 -0.933082 0
M  V30 5223 H 500.161 -2.37806 -3.3153 0
M  V30 5224 H 498.836 -3.26365 -2.57796 0
M  V30 5225 H 497.413 -1.60936 -3.36384 0
M  V30 5226 N 499.598 0.982988 -1.23187 0
M  V30 5227 C 500.545 2.07491 -1.01075 0
M  V30 5228 C 501.515 1.65949 0.070905 0
M  V30 5229 O 502.7 1.90629 -0.0806822 0
M  V30 5230 C 499.84 3.39751 -0.605261 0
M  V30 5231 C 498.953 3.94578 -1.75876 0
M  V30 5232 C 498.088 5.15039 -1.3003 0
M  V30 5233 C 497.127 5.62027 -2.42472 0
M  V30 5234 N 496.264 6.73719 -1.97602 0
M  V30 5235 H 501.104 2.25739 -1.9454 0
M  V30 5236 H 498.641 1.10659 -0.969179 0
M  V30 5237 H 500.599 4.15719 -0.351279 0
M  V30 5238 H 499.229 3.21473 0.292382 0
M  V30 5239 H 498.281 3.1539 -2.12681 0
M  V30 5240 H 499.593 4.25422 -2.60418 0
M  V30 5241 H 498.747 5.9833 -1.00429 0
M  V30 5242 H 497.486 4.85843 -0.425216 0
M  V30 5243 H 496.491 4.77318 -2.7285 0
M  V30 5244 H 497.716 5.93244 -3.30512 0
M  V30 5245 H 495.662 6.46287 -1.1247 0
M  V30 5246 H 495.579 7.03934 -2.75705 0
M  V30 5247 H 496.847 7.6049 -1.71098 0
M  V30 5248 N 501.076 1.04316 1.18135 0
M  V30 5249 C 502.026 0.606731 2.19779 0
M  V30 5250 C 503.01 -0.352144 1.56999 0
M  V30 5251 O 504.202 -0.170795 1.76174 0
M  V30 5252 C 501.331 -0.0262443 3.4329 0
M  V30 5253 C 500.417 0.955928 4.13186 0
M  V30 5254 N 500.808 2.12395 4.59045 0
M  V30 5255 C 499.106 0.782473 4.39082 0
M  V30 5256 C 499.807 2.74458 5.12882 0
M  V30 5257 N 498.783 2.02316 5.04548 0
M  V30 5258 H 502.585 1.49679 2.5293 0
M  V30 5259 H 500.099 0.912088 1.34368 0
M  V30 5260 H 502.096 -0.356617 4.15372 0
M  V30 5261 H 500.756 -0.911811 3.11635 0
M  V30 5262 H 501.767 2.50272 4.53414 0
M  V30 5263 H 498.444 -0.0527906 4.17467 0
M  V30 5264 H 499.834 3.73459 5.5855 0
M  V30 5265 N 502.554 -1.34406 0.822964 0
M  V30 5266 C 503.464 -2.33298 0.246838 0
M  V30 5267 C 504.48 -1.62625 -0.618797 0
M  V30 5268 O 505.656 -1.94391 -0.526685 0
M  V30 5269 C 502.721 -3.41785 -0.581731 0
M  V30 5270 C 501.782 -4.28206 0.306309 0
M  V30 5271 C 501.015 -5.31512 -0.48281 0
M  V30 5272 O 501.238 -5.43973 -1.71607 0
M  V30 5273 O 500.172 -6.01749 0.134884 0
M  V30 5274 H 503.998 -2.84401 1.06534 0
M  V30 5275 H 501.583 -1.37466 0.585108 0
M  V30 5276 H 503.465 -4.08028 -1.05313 0
M  V30 5277 H 502.14 -2.92925 -1.37756 0
M  V30 5278 H 501.047 -3.64885 0.825199 0
M  V30 5279 H 502.38 -4.80507 1.06649 0
M  V30 5280 N 504.032 -0.577932 -1.46621 0
M  V30 5281 C 505.26 -0.0671642 -2.06791 0
M  V30 5282 C 505.675 1.23571 -1.42743 0
M  V30 5283 O 505.032 1.74602 -0.531062 0
M  V30 5284 C 505.083 0.110357 -3.61332 0
M  V30 5285 O 504.804 -1.14095 -4.22982 0
M  V30 5286 C 506.305 0.656025 -4.38419 0
M  V30 5287 H 503.525 -0.0552732 -0.66872 0
M  V30 5288 H 506.069 -0.797242 -1.8832 0
M  V30 5289 H 504.224 0.790637 -3.79246 0
M  V30 5290 H 504.638 -0.951742 -5.15793 0
M  V30 5291 H 506.112 0.729438 -5.47159 0
M  V30 5292 H 506.589 1.67195 -4.06131 0
M  V30 5293 H 507.195 0.0107692 -4.25299 0
M  V30 5294 N 505.51 1.54411 -0.315457 0
M  V30 5295 C 506.442 2.21527 0.588067 0
M  V30 5296 C 507.455 1.21263 1.08624 0
M  V30 5297 O 508.644 1.47777 1.00121 0
M  V30 5298 C 505.744 2.85963 1.81875 0
M  V30 5299 C 504.917 4.12291 1.46063 0
M  V30 5300 C 503.976 4.60396 2.54799 0
M  V30 5301 O 503.002 5.25265 2.19283 0
M  V30 5302 N 504.204 4.33935 3.85591 0
M  V30 5303 H 506.969 2.99697 0.013414 0
M  V30 5304 H 504.53 1.61308 -0.138295 0
M  V30 5305 H 506.522 3.15071 2.53993 0
M  V30 5306 H 505.092 2.11548 2.30144 0
M  V30 5307 H 504.312 3.90036 0.571445 0
M  V30 5308 H 505.6 4.9452 1.19695 0
M  V30 5309 H 504.998 3.81996 4.17248 0
M  V30 5310 H 503.555 4.67718 4.53964 0
M  V30 5311 N 506.988 0.0434614 1.5754 0
M  V30 5312 C 508.234 -0.627109 1.93491 0
M  V30 5313 C 508.589 -1.68904 0.921362 0
M  V30 5314 O 507.882 -1.91504 -0.0605799 0
M  V30 5315 C 508.076 -1.2738 3.3393 0
M  V30 5316 C 507.905 -0.27603 4.48852 0
M  V30 5317 C 506.675 0.129244 5.05135 0
M  V30 5318 C 508.873 0.475462 5.12098 0
M  V30 5319 N 506.855 1.12068 6.03584 0
M  V30 5320 C 508.226 1.32021 6.05781 0
M  V30 5321 C 510.281 0.534611 4.95022 0
M  V30 5322 C 508.984 2.2188 6.84223 0
M  V30 5323 C 511.01 1.42059 5.74085 0
M  V30 5324 C 510.372 2.25309 6.67394 0
M  V30 5325 H 506.471 -0.201354 0.755633 0
M  V30 5326 H 509.055 0.113991 1.94366 0
M  V30 5327 H 507.226 -1.98496 3.33847 0
M  V30 5328 H 508.958 -1.90255 3.57191 0
M  V30 5329 H 505.713 -0.248145 4.72949 0
M  V30 5330 H 506.137 1.61306 6.57502 0
M  V30 5331 H 510.779 -0.0947817 4.22694 0
M  V30 5332 H 508.497 2.85868 7.55847 0
M  V30 5333 H 512.083 1.47083 5.62901 0
M  V30 5334 H 510.963 2.92754 7.27506 0
M  V30 5335 N 508.466 -1.55915 -0.229846 0
M  V30 5336 C 509.414 -1.9258 -1.30444 0
M  V30 5337 C 510.408 -0.806839 -1.48951 0
M  V30 5338 O 511.614 -0.991606 -1.50224 0
M  V30 5339 H 507.989 -0.611878 -0.437161 0
M  V30 5340 H 509.96 -2.82264 -0.96797 0
M  V30 5341 C 508.709 -2.25171 -2.6494 0
M  V30 5342 H 508.032 -3.10782 -2.51504 0
M  V30 5343 H 509.472 -2.54716 -3.38963 0
M  V30 5344 C 507.931 -1.07394 -3.19324 0
M  V30 5345 O 508.461 -0.330759 -4.00336 0
M  V30 5346 N 506.667 -0.859984 -2.77584 0
M  V30 5347 H 506.214 -1.46605 -2.11813 0
M  V30 5348 H 506.172 -0.0736671 -3.14314 0
M  V30 5349 N 509.944 0.496216 -1.49584 0
M  V30 5350 C 510.874 1.60576 -1.69521 0
M  V30 5351 C 511.855 1.61169 -0.543933 0
M  V30 5352 O 513.04 1.77834 -0.78031 0
M  V30 5353 C 510.17 2.99038 -1.76616 0
M  V30 5354 C 509.124 3.13312 -2.91581 0
M  V30 5355 C 508.45 4.53172 -2.83794 0
M  V30 5356 C 509.75 2.92886 -4.32452 0
M  V30 5357 H 511.444 1.44146 -2.62416 0
M  V30 5358 H 508.99 0.692024 -1.26282 0
M  V30 5359 H 510.943 3.76564 -1.8915 0
M  V30 5360 H 509.667 3.16568 -0.80324 0
M  V30 5361 H 508.326 2.38213 -2.78658 0
M  V30 5362 H 507.974 4.67585 -1.854 0
M  V30 5363 H 507.674 4.63662 -3.60958 0
M  V30 5364 H 509.198 5.32752 -2.98342 0
M  V30 5365 H 510.612 3.60178 -4.46032 0
M  V30 5366 H 509.009 3.14844 -5.10875 0
M  V30 5367 H 510.079 1.88966 -4.46565 0
M  V30 5368 N 511.423 1.38739 0.74761 0
M  V30 5369 C 512.355 1.32341 1.87132 0
M  V30 5370 C 513.368 0.234502 1.61102 0
M  V30 5371 O 514.557 0.492516 1.71571 0
M  V30 5372 C 511.657 1.02915 3.22896 0
M  V30 5373 C 510.83 2.22834 3.76383 0
M  V30 5374 C 509.889 1.90059 4.90677 0
M  V30 5375 O 508.915 2.62615 5.04997 0
M  V30 5376 N 510.117 0.859141 5.74107 0
M  V30 5377 H 512.882 2.29175 1.93129 0
M  V30 5378 H 510.443 1.32678 0.927805 0
M  V30 5379 H 512.435 0.79031 3.96908 0
M  V30 5380 H 511.005 0.148572 3.12247 0
M  V30 5381 H 510.225 2.62747 2.93867 0
M  V30 5382 H 511.513 3.02851 4.08851 0
M  V30 5383 H 510.911 0.257564 5.65113 0
M  V30 5384 H 509.468 0.680189 6.48241 0
M  V30 5385 N 512.901 -0.976442 1.23707 0
M  V30 5386 C 513.834 -2.06793 0.964973 0
M  V30 5387 C 514.812 -1.62304 -0.0981472 0
M  V30 5388 O 515.996 -1.88464 0.0369477 0
M  V30 5389 C 513.123 -3.35636 0.454522 0
M  V30 5390 C 512.169 -3.99069 1.50485 0
M  V30 5391 S 513.002 -4.37814 3.0835 0
M  V30 5392 C 514.158 -5.69805 2.58985 0
M  V30 5393 H 514.391 -2.29556 1.88922 0
M  V30 5394 H 511.924 -1.11317 1.06995 0
M  V30 5395 H 513.882 -4.10162 0.166626 0
M  V30 5396 H 512.543 -3.10876 -0.448871 0
M  V30 5397 H 511.736 -4.91896 1.09792 0
M  V30 5398 H 511.338 -3.30938 1.7423 0
M  V30 5399 H 513.63 -6.46919 2.01252 0
M  V30 5400 H 514.573 -6.15345 3.50366 0
M  V30 5401 H 514.981 -5.27994 1.99705 0
M  V30 5402 N 514.379 -1.04941 -1.1758 0
M  V30 5403 C 515.327 -0.64204 -2.23563 0
M  V30 5404 C 516.321 0.335453 -1.66045 0
M  V30 5405 O 517.527 0.20179 -1.78865 0
M  V30 5406 H 513.902 -0.18944 -0.727748 0
M  V30 5407 H 515.873 -1.54609 -2.55223 0
M  V30 5408 C 514.622 -0.0301051 -3.47687 0
M  V30 5409 H 513.945 -0.773339 -3.92249 0
M  V30 5410 H 515.385 0.217592 -4.23441 0
M  V30 5411 C 513.844 1.2225 -3.13937 0
M  V30 5412 O 514.374 2.3122 -3.28482 0
M  V30 5413 N 512.58 1.11917 -2.68185 0
M  V30 5414 H 512.127 0.232403 -2.5655 0
M  V30 5415 H 512.085 1.95814 -2.45976 0
M  V30 5416 N 515.857 1.33968 -0.830081 0
M  V30 5417 C 517.087 2.01987 -0.434142 0
M  V30 5418 C 517.495 1.62639 0.96671 0
M  V30 5419 O 516.838 0.831151 1.63822 0
M  V30 5420 C 516.9 3.5648 -0.465018 0
M  V30 5421 C 516.564 4.19176 -1.82045 0
M  V30 5422 C 517.561 4.39181 -2.78237 0
M  V30 5423 C 515.246 4.55792 -2.11089 0
M  V30 5424 C 517.24 4.94937 -4.01642 0
M  V30 5425 C 514.927 5.11258 -3.34752 0
M  V30 5426 C 515.925 5.30775 -4.29845 0
M  V30 5427 O 515.613 5.85064 -5.51322 0
M  V30 5428 H 515.345 0.653847 -0.171639 0
M  V30 5429 H 517.899 1.72066 -1.12171 0
M  V30 5430 H 516.129 3.8569 0.279284 0
M  V30 5431 H 517.818 4.05804 -0.0881334 0
M  V30 5432 H 518.584 4.11249 -2.57097 0
M  V30 5433 H 514.463 4.39901 -1.3787 0
M  V30 5434 H 518.007 5.10086 -4.75876 0
M  V30 5435 H 513.904 5.38619 -3.55753 0
M  V30 5436 H 514.672 6.03489 -5.5294 0
M  V30 5437 N 517.335 0.585699 1.46312 0
M  V30 5438 C 518.751 0.247607 1.57668 0
M  V30 5439 C 518.951 -1.25007 1.58037 0
M  V30 5440 O 518.007 -2.03196 1.49893 0
M  V30 5441 C 519.32 0.899456 2.86933 0
M  V30 5442 C 520.868 0.873326 3.00569 0
M  V30 5443 C 521.343 1.50477 4.32574 0
M  V30 5444 N 522.834 1.46925 4.3928 0
M  V30 5445 C 523.569 1.92719 5.40044 0
M  V30 5446 N 523.065 2.46499 6.47464 0
M  V30 5447 N 524.858 1.83617 5.31264 0
M  V30 5448 H 517.009 1.55841 1.44317 0
M  V30 5449 H 519.272 0.651564 0.688599 0
M  V30 5450 H 518.978 1.95313 2.92482 0
M  V30 5451 H 518.852 0.409476 3.74971 0
M  V30 5452 H 521.239 -0.171736 2.946 0
M  V30 5453 H 521.32 1.40136 2.13999 0
M  V30 5454 H 520.964 2.54905 4.39302 0
M  V30 5455 H 520.894 0.951944 5.17924 0
M  V30 5456 H 523.385 1.07616 3.62253 0
M  V30 5457 H 523.698 2.79291 7.20567 0
M  V30 5458 H 522.043 2.50526 6.48276 0
M  V30 5459 H 525.234 1.41358 4.46246 0
M  V30 5460 H 525.407 2.19622 6.09648 0
M  V30 5461 N 518.813 -1.54241 0.323641 0
M  V30 5462 C 519.743 -2.27289 -0.534993 0
M  V30 5463 C 520.724 -1.28087 -1.11927 0
M  V30 5464 O 521.909 -1.56899 -1.14439 0
M  V30 5465 C 519.039 -3.03075 -1.69596 0
M  V30 5466 C 517.993 -4.09614 -1.24098 0
M  V30 5467 C 517.319 -4.73242 -2.4889 0
M  V30 5468 C 518.619 -5.21087 -0.355789 0
M  V30 5469 H 520.313 -2.99308 0.0743257 0
M  V30 5470 H 517.859 -1.43952 0.0371874 0
M  V30 5471 H 519.812 -3.52907 -2.30293 0
M  V30 5472 H 518.536 -2.28673 -2.33187 0
M  V30 5473 H 517.195 -3.60666 -0.656945 0
M  V30 5474 H 516.843 -3.95455 -3.10845 0
M  V30 5475 H 516.543 -5.45209 -2.19138 0
M  V30 5476 H 518.067 -5.25848 -3.10348 0
M  V30 5477 H 519.481 -5.66675 -0.869042 0
M  V30 5478 H 517.878 -5.9991 -0.151045 0
M  V30 5479 H 518.948 -4.81005 0.613339 0
M  V30 5480 N 520.291 -0.0518155 -1.57515 0
M  V30 5481 C 521.539 0.620595 -1.92336 0
M  V30 5482 C 521.86 1.71345 -0.930907 0
M  V30 5483 O 521.13 1.95885 0.0241341 0
M  V30 5484 H 519.71 0.232226 -0.709986 0
M  V30 5485 H 522.372 -0.104969 -1.94617 0
M  V30 5486 H 521.468 1.05879 -2.93592 0
M  V30 5487 N 521.769 1.56035 0.221574 0
M  V30 5488 C 522.679 1.95581 1.29558 0
M  V30 5489 C 523.695 0.859639 1.51282 0
M  V30 5490 O 524.871 1.16321 1.64413 0
M  V30 5491 C 521.936 2.26447 2.62531 0
M  V30 5492 C 520.997 3.49632 2.4911 0
M  V30 5493 C 520.23 3.79017 3.75742 0
M  V30 5494 O 520.453 3.10077 4.78757 0
M  V30 5495 O 519.387 4.72507 3.72855 0
M  V30 5496 H 523.213 2.8711 0.990035 0
M  V30 5497 H 520.798 1.43244 0.424434 0
M  V30 5498 H 522.68 2.47494 3.41064 0
M  V30 5499 H 521.355 1.38092 2.92766 0
M  V30 5500 H 520.262 3.33864 1.68777 0
M  V30 5501 H 521.595 4.3837 2.23814 0
M  V30 5502 N 523.247 -0.488276 1.49845 0
M  V30 5503 C 524.472 -1.26997 1.63971 0
M  V30 5504 C 524.897 -1.85427 0.315994 0
M  V30 5505 O 524.255 -1.66475 -0.718032 0
M  V30 5506 C 524.303 -2.36689 2.72049 0
M  V30 5507 O 523.407 -3.40882 2.32107 0
M  V30 5508 H 522.748 -0.374376 0.548396 0
M  V30 5509 H 525.278 -0.583104 1.96115 0
M  V30 5510 H 525.288 -2.82262 2.94605 0
M  V30 5511 H 523.963 -1.93529 3.68129 0
M  V30 5512 H 522.54 -3.01139 2.19931 0
M  V30 5513 N 524.725 -1.39134 -0.740242 0
M  V30 5514 C 525.972 -1.36071 -1.49969 0
M  V30 5515 C 526.3 0.0450245 -1.94448 0
M  V30 5516 O 525.555 1.02482 -1.66721 0
M  V30 5517 C 525.854 -2.27457 -2.75678 0
M  V30 5518 C 525.52 -3.75185 -2.50094 0
M  V30 5519 C 524.182 -4.15439 -2.42825 0
M  V30 5520 C 526.534 -4.68643 -2.28086 0
M  V30 5521 C 523.862 -5.4722 -2.11584 0
M  V30 5522 C 526.214 -6.00695 -1.98363 0
M  V30 5523 C 524.878 -6.40018 -1.8956 0
M  V30 5524 H 524.148 -0.497921 -0.548777 0
M  V30 5525 H 526.795 -1.71599 -0.85007 0
M  V30 5526 H 525.1 -1.8503 -3.45356 0
M  V30 5527 H 526.797 -2.22384 -3.33686 0
M  V30 5528 H 523.387 -3.43279 -2.56627 0
M  V30 5529 H 527.571 -4.3838 -2.32672 0
M  V30 5530 H 522.827 -5.76615 -2.03287 0
M  V30 5531 H 527.001 -6.72644 -1.80341 0
M  V30 5532 H 524.628 -7.42051 -1.65117 0
M  V30 5533 N 526.204 0.969867 -1.24223 0
M  V30 5534 C 527.136 2.0669 -0.99055 0
M  V30 5535 C 528.149 1.62753 0.0392222 0
M  V30 5536 O 529.338 1.77403 -0.197561 0
M  V30 5537 C 526.438 3.35589 -0.472594 0
M  V30 5538 C 525.611 4.08444 -1.56499 0
M  V30 5539 C 524.67 5.15616 -1.05007 0
M  V30 5540 O 523.696 5.41911 -1.7413 0
M  V30 5541 N 524.898 5.80383 0.116641 0
M  V30 5542 H 527.663 2.28855 -1.93508 0
M  V30 5543 H 525.224 1.13733 -1.15223 0
M  V30 5544 H 527.216 4.04542 -0.112919 0
M  V30 5545 H 525.786 3.10311 0.377617 0
M  V30 5546 H 525.006 3.33798 -2.09696 0
M  V30 5547 H 526.294 4.53882 -2.29932 0
M  V30 5548 H 525.692 5.6142 0.694589 0
M  V30 5549 H 524.249 6.50462 0.417483 0
M  V30 5550 N 527.682 1.05563 1.17022 0
M  V30 5551 C 528.907 0.788437 1.91829 0
M  V30 5552 C 529.332 -0.650356 1.76499 0
M  V30 5553 O 528.69 -1.45229 1.08527 0
M  V30 5554 C 528.738 1.1786 3.40795 0
M  V30 5555 O 527.842 0.312965 4.11211 0
M  V30 5556 H 527.183 0.288794 0.597908 0
M  V30 5557 H 529.713 1.40948 1.48307 0
M  V30 5558 H 529.723 1.14697 3.91546 0
M  V30 5559 H 528.398 2.22666 3.51273 0
M  V30 5560 H 526.975 0.405515 3.70689 0
M  V30 5561 N 529.16 -1.33526 0.837174 0
M  V30 5562 C 530.092 -2.28077 0.226579 0
M  V30 5563 C 531.105 -1.51666 -0.591717 0
M  V30 5564 O 532.294 -1.73511 -0.419064 0
M  V30 5565 C 529.394 -3.31597 -0.69978 0
M  V30 5566 C 528.567 -4.37329 0.0788067 0
M  V30 5567 C 527.626 -5.20526 -0.770637 0
M  V30 5568 O 526.652 -5.68811 -0.210453 0
M  V30 5569 N 527.854 -5.41639 -2.08825 0
M  V30 5570 H 530.619 -2.81115 1.03897 0
M  V30 5571 H 528.18 -1.46201 0.695476 0
M  V30 5572 H 530.172 -3.84158 -1.27298 0
M  V30 5573 H 528.742 -2.78848 -1.41288 0
M  V30 5574 H 527.962 -3.8529 0.833381 0
M  V30 5575 H 529.25 -5.05079 0.614238 0
M  V30 5576 H 528.648 -5.04108 -2.56693 0
M  V30 5577 H 527.205 -5.97263 -2.60998 0
M  V30 5578 N 530.638 -0.59345 -1.46 0
M  V30 5579 C 531.568 0.121192 -2.33185 0
M  V30 5580 C 532.549 0.872977 -1.4599 0
M  V30 5581 O 533.734 0.846321 -1.74789 0
M  V30 5582 C 530.864 1.12844 -3.28456 0
M  V30 5583 C 529.818 0.4908 -4.25177 0
M  V30 5584 C 529.144 1.60529 -5.10034 0
M  V30 5585 C 530.444 -0.578949 -5.19081 0
M  V30 5586 H 532.138 -0.606767 -2.93187 0
M  V30 5587 H 529.684 -0.293242 -1.40983 0
M  V30 5588 H 531.637 1.63684 -3.88311 0
M  V30 5589 H 530.361 1.88681 -2.66584 0
M  V30 5590 H 529.02 0.00339328 -3.666 0
M  V30 5591 H 528.668 2.35359 -4.44539 0
M  V30 5592 H 528.368 1.18422 -5.75543 0
M  V30 5593 H 529.892 2.11623 -5.72755 0
M  V30 5594 H 531.306 -0.155199 -5.7309 0
M  V30 5595 H 529.703 -0.920947 -5.92991 0
M  V30 5596 H 530.773 -1.46109 -4.62364 0
M  V30 5597 N 532.116 1.54067 -0.331816 0
M  V30 5598 C 533.341 2.05599 0.272705 0
M  V30 5599 C 533.766 1.2059 1.44359 0
M  V30 5600 O 533.124 0.216907 1.79998 0
M  V30 5601 C 533.172 3.54188 0.677021 0
M  V30 5602 O 532.276 3.72082 1.77844 0
M  V30 5603 H 531.617 0.662286 0.0476801 0
M  V30 5604 H 534.147 1.98826 -0.482624 0
M  V30 5605 H 534.157 3.96608 0.957415 0
M  V30 5606 H 532.832 4.15513 -0.179325 0
M  V30 5607 H 531.409 3.41566 1.49622 0
M  V30 5608 N 533.594 0.0601682 1.57485 0
M  V30 5609 C 535.005 -0.474217 1.80577 0
M  V30 5610 C 535.356 -1.70365 0.973147 0
M  V30 5611 O 534.481 -2.15544 0.192306 0
M  V30 5612 C 535.076 -0.867102 3.27516 0
M  V30 5613 C 533.635 -1.34642 3.51495 0
M  V30 5614 C 532.782 -0.32594 2.75378 0
M  V30 5615 H 535.733 0.285973 1.56102 0
M  V30 5616 H 535.754 -1.72938 3.38929 0
M  V30 5617 H 535.266 0.0278927 3.8809 0
M  V30 5618 H 533.367 -2.2603 2.96212 0
M  V30 5619 H 533.48 -1.33237 4.60201 0
M  V30 5620 H 531.844 -0.800749 2.41785 0
M  V30 5621 H 532.627 0.561125 3.38683 0
M  V30 5622 N 535.072 -1.5615 -0.213296 0
M  V30 5623 C 536.297 -1.83986 -0.957282 0
M  V30 5624 C 536.722 -0.641526 -1.76822 0
M  V30 5625 O 536.08 0.409722 -1.7661 0
M  V30 5626 C 536.128 -3.09889 -1.84393 0
M  V30 5627 O 535.232 -2.89163 -2.94038 0
M  V30 5628 H 534.573 -0.606357 -0.270605 0
M  V30 5629 H 537.103 -2.03369 -0.224111 0
M  V30 5630 H 537.113 -3.40209 -2.25215 0
M  V30 5631 H 535.788 -3.96735 -1.24795 0
M  V30 5632 H 534.365 -2.70097 -2.57103 0
M  V30 5633 N 536.55 0.480323 -1.50102 0
M  V30 5634 C 537.513 1.56181 -1.6775 0
M  V30 5635 C 538.513 1.51156 -0.548503 0
M  V30 5636 O 539.703 1.5394 -0.815363 0
M  V30 5637 C 536.835 2.95823 -1.69415 0
M  V30 5638 H 538.028 1.41855 -2.6423 0
M  V30 5639 H 535.581 0.70605 -1.39444 0
M  V30 5640 H 536.316 3.15604 -0.745948 0
M  V30 5641 H 536.101 3.00878 -2.51425 0
M  V30 5642 H 537.591 3.74359 -1.85054 0
M  V30 5643 N 538.028 1.39524 0.732853 0
M  V30 5644 C 539.274 1.37068 1.49467 0
M  V30 5645 C 539.607 -0.0327166 1.94172 0
M  V30 5646 O 538.882 -0.998071 1.66939 0
M  V30 5647 C 539.165 2.34494 2.73285 0
M  V30 5648 C 539.018 3.83784 2.34585 0
M  V30 5649 C 540.337 2.29717 3.75391 0
M  V30 5650 H 537.456 0.499206 0.542183 0
M  V30 5651 H 540.098 1.70532 0.837783 0
M  V30 5652 H 538.248 2.06087 3.29333 0
M  V30 5653 H 539.92 4.22949 1.84151 0
M  V30 5654 H 538.163 4.00455 1.66787 0
M  V30 5655 H 538.834 4.47444 3.23262 0
M  V30 5656 H 541.31 2.54839 3.28932 0
M  V30 5657 H 540.186 2.99962 4.59689 0
M  V30 5658 H 540.447 1.30291 4.22465 0
M  V30 5659 N 539.506 -0.963266 1.24736 0
M  V30 5660 C 540.469 -2.04013 1.04457 0
M  V30 5661 C 541.469 -1.608 0.000335555 0
M  V30 5662 O 542.659 -1.72515 0.241719 0
M  V30 5663 C 539.791 -3.35858 0.584162 0
M  V30 5664 H 540.984 -2.23436 2.00041 0
M  V30 5665 H 538.537 -1.13914 1.07021 0
M  V30 5666 H 539.272 -3.22128 -0.374673 0
M  V30 5667 H 539.057 -3.68568 1.3379 0
M  V30 5668 H 540.547 -4.1502 0.463451 0
M  V30 5669 N 540.985 -1.06182 -1.16461 0
M  V30 5670 C 542.233 -0.776326 -1.86595 0
M  V30 5671 C 542.554 0.69921 -1.82033 0
M  V30 5672 O 541.824 1.50579 -1.2531 0
M  V30 5673 H 540.404 -0.284184 -0.690832 0
M  V30 5674 H 543.066 -1.34308 -1.41235 0
M  V30 5675 H 542.162 -1.10022 -2.92064 0
M  V30 5676 N 542.463 1.3308 -0.844243 0
M  V30 5677 C 543.691 2.01808 -0.456203 0
M  V30 5678 C 544.106 1.63498 0.944131 0
M  V30 5679 O 543.463 0.85102 1.61443 0
M  V30 5680 C 543.514 3.56922 -0.573513 0
M  V30 5681 O 543.235 3.93851 -1.91868 0
M  V30 5682 C 544.736 4.42922 -0.183125 0
M  V30 5683 H 541.956 0.646273 -0.180477 0
M  V30 5684 H 544.5 1.69891 -1.1383 0
M  V30 5685 H 542.655 3.87352 0.0607367 0
M  V30 5686 H 543.069 4.88564 -1.90802 0
M  V30 5687 H 544.543 5.51093 -0.316241 0
M  V30 5688 H 545.02 4.30386 0.875477 0
M  V30 5689 H 545.626 4.1786 -0.792027 0
M  V30 5690 N 543.941 0.601185 1.45683 0
M  V30 5691 C 545.357 0.264315 1.57396 0
M  V30 5692 C 545.557 -1.23324 1.59353 0
M  V30 5693 O 544.613 -2.01594 1.52039 0
M  V30 5694 C 545.926 0.929839 2.85962 0
M  V30 5695 C 547.474 0.905156 2.99626 0
M  V30 5696 C 547.949 1.55057 4.30954 0
M  V30 5697 N 549.44 1.51576 4.37697 0
M  V30 5698 C 550.175 1.98436 5.37969 0
M  V30 5699 N 549.671 2.53352 6.44813 0
M  V30 5700 N 551.464 1.89242 5.29286 0
M  V30 5701 H 543.615 1.57363 1.42656 0
M  V30 5702 H 545.878 0.658831 0.681649 0
M  V30 5703 H 545.584 1.98404 2.90394 0
M  V30 5704 H 545.458 0.449224 3.74515 0
M  V30 5705 H 547.845 -0.14048 2.94765 0
M  V30 5706 H 547.926 1.42397 2.12501 0
M  V30 5707 H 547.57 2.5955 4.36573 0
M  V30 5708 H 547.5 1.00682 5.16886 0
M  V30 5709 H 549.991 1.11452 3.61091 0
M  V30 5710 H 550.304 2.86918 7.17564 0
M  V30 5711 H 548.649 2.57388 6.45582 0
M  V30 5712 H 551.84 1.46083 4.44722 0
M  V30 5713 H 552.013 2.26075 6.07284 0
M  V30 5714 N 545.419 -1.53889 0.339982 0
M  V30 5715 C 546.349 -2.27843 -0.510856 0
M  V30 5716 C 547.33 -1.29267 -1.10563 0
M  V30 5717 O 548.515 -1.58104 -1.12768 0
M  V30 5718 C 545.645 -3.04857 -1.66372 0
M  V30 5719 C 544.599 -4.10907 -1.19746 0
M  V30 5720 C 543.925 -4.75855 -2.43857 0
M  V30 5721 C 545.225 -5.21435 -0.300501 0
M  V30 5722 H 546.919 -2.99212 0.106067 0
M  V30 5723 H 544.465 -1.43904 0.0524533 0
M  V30 5724 H 546.418 -3.5533 -2.26537 0
M  V30 5725 H 545.142 -2.31133 -2.30749 0
M  V30 5726 H 543.801 -3.61342 -0.618654 0
M  V30 5727 H 543.449 -3.9873 -3.06633 0
M  V30 5728 H 543.149 -5.47502 -2.13343 0
M  V30 5729 H 544.673 -5.2911 -3.04754 0
M  V30 5730 H 546.087 -5.67565 -0.80889 0
M  V30 5731 H 544.484 -6.00036 -0.0874076 0
M  V30 5732 H 545.554 -4.80328 0.664321 0
M  V30 5733 N 546.897 -0.0685191 -1.57451 0
M  V30 5734 C 547.827 0.89747 -2.15564 0
M  V30 5735 C 548.808 1.31266 -1.08181 0
M  V30 5736 O 549.993 1.38429 -1.36202 0
M  V30 5737 C 547.123 2.16623 -2.71463 0
M  V30 5738 C 546.077 1.89054 -3.83982 0
M  V30 5739 C 545.403 3.22532 -4.26471 0
M  V30 5740 C 546.703 1.1984 -5.08366 0
M  V30 5741 H 548.397 0.413373 -2.96533 0
M  V30 5742 H 545.943 0.197391 -1.42641 0
M  V30 5743 H 547.896 2.84614 -3.10761 0
M  V30 5744 H 546.62 2.67269 -1.8771 0
M  V30 5745 H 545.279 1.23469 -3.45183 0
M  V30 5746 H 544.927 3.71013 -3.39644 0
M  V30 5747 H 544.627 3.04879 -5.02317 0
M  V30 5748 H 546.151 3.91727 -4.68383 0
M  V30 5749 H 547.565 1.77896 -5.45001 0
M  V30 5750 H 545.962 1.12456 -5.89469 0
M  V30 5751 H 547.032 0.176996 -4.84577 0
M  V30 5752 N 548.375 1.56261 0.205012 0
M  V30 5753 C 549.338 1.92908 1.23771 0
M  V30 5754 C 550.338 0.809208 1.38955 0
M  V30 5755 O 551.528 1.07676 1.36936 0
M  V30 5756 C 548.66 2.19442 2.60879 0
M  V30 5757 H 549.853 2.85287 0.924728 0
M  V30 5758 H 547.406 1.49798 0.446125 0
M  V30 5759 H 548.141 1.29668 2.97248 0
M  V30 5760 H 547.926 3.0104 2.51232 0
M  V30 5761 H 549.416 2.48833 3.35368 0
M  V30 5762 N 549.853 -0.472356 1.50355 0
M  V30 5763 C 550.763 -1.59637 1.7191 0
M  V30 5764 C 551.779 -1.63247 0.602195 0
M  V30 5765 O 552.955 -1.81139 0.880369 0
M  V30 5766 C 550.02 -2.9586 1.80742 0
M  V30 5767 C 549.081 -3.02649 3.04471 0
M  V30 5768 C 548.314 -4.32374 3.12872 0
M  V30 5769 O 548.537 -5.22807 2.28099 0
M  V30 5770 O 547.471 -4.44728 4.05587 0
M  V30 5771 H 551.297 -1.44373 2.67189 0
M  V30 5772 H 548.882 -0.651717 1.34436 0
M  V30 5773 H 550.764 -3.7677 1.88739 0
M  V30 5774 H 549.439 -3.11325 0.88647 0
M  V30 5775 H 548.346 -2.20821 3.01975 0
M  V30 5776 H 549.679 -2.92119 3.9614 0
M  V30 5777 N 551.331 -1.39911 -0.725443 0
M  V30 5778 C 552.556 -1.41137 -1.5197 0
M  V30 5779 C 552.981 -0.010262 -1.88097 0
M  V30 5780 O 552.339 0.979184 -1.52583 0
M  V30 5781 C 552.387 -2.2994 -2.77777 0
M  V30 5782 O 551.491 -1.73586 -3.74088 0
M  V30 5783 H 550.832 -0.480219 -0.458569 0
M  V30 5784 H 553.362 -1.84023 -0.894249 0
M  V30 5785 H 553.372 -2.44785 -3.26411 0
M  V30 5786 H 552.047 -3.31759 -2.50816 0
M  V30 5787 H 550.624 -1.68035 -3.32894 0
M  V30 5788 N 552.809 0.956637 -1.25245 0
M  V30 5789 C 554.225 1.22733 -1.02023 0
M  V30 5790 C 554.425 1.99761 0.264186 0
M  V30 5791 O 553.481 2.32814 0.977436 0
M  V30 5792 C 554.794 2.00367 -2.24217 0
M  V30 5793 C 556.342 2.13418 -2.28958 0
M  V30 5794 C 556.817 2.9445 -3.50803 0
M  V30 5795 N 558.308 3.02029 -3.51187 0
M  V30 5796 C 559.043 3.65116 -4.42129 0
M  V30 5797 N 558.539 4.2983 -5.43339 0
M  V30 5798 N 560.332 3.62237 -4.29815 0
M  V30 5799 H 552.483 0.441282 -2.07765 0
M  V30 5800 H 554.746 0.257686 -0.912306 0
M  V30 5801 H 554.452 1.51165 -3.17556 0
M  V30 5802 H 554.326 3.01077 -2.27228 0
M  V30 5803 H 556.713 2.61819 -1.36143 0
M  V30 5804 H 556.794 1.1202 -2.29968 0
M  V30 5805 H 556.438 2.46741 -4.43939 0
M  V30 5806 H 556.368 3.9607 -3.47039 0
M  V30 5807 H 558.859 2.56007 -2.77973 0
M  V30 5808 H 559.172 4.75819 -6.08947 0
M  V30 5809 H 557.517 4.28465 -5.47214 0
M  V30 5810 H 560.708 3.10863 -3.49974 0
M  V30 5811 H 560.881 4.11117 -5.00886 0
M  V30 5812 N 554.287 1.06798 1.15896 0
M  V30 5813 C 555.517 0.807522 1.90165 0
M  V30 5814 C 555.925 -0.642417 1.7796 0
M  V30 5815 O 555.268 -1.45193 1.12537 0
M  V30 5816 C 555.33 1.12939 3.41299 0
M  V30 5817 C 554.994 2.57879 3.7729 0
M  V30 5818 C 555.991 3.56118 3.78782 0
M  V30 5819 C 553.676 2.93311 4.07767 0
M  V30 5820 C 555.67 4.87827 4.10248 0
M  V30 5821 C 553.357 4.25219 4.38899 0
M  V30 5822 C 554.355 5.22287 4.4012 0
M  V30 5823 O 554.043 6.51826 4.70508 0
M  V30 5824 H 553.775 0.291946 0.609708 0
M  V30 5825 H 556.329 1.42627 1.47806 0
M  V30 5826 H 554.559 0.45359 3.84031 0
M  V30 5827 H 556.248 0.852363 3.9685 0
M  V30 5828 H 557.014 3.30086 3.55342 0
M  V30 5829 H 552.893 2.18409 4.05979 0
M  V30 5830 H 556.437 5.63586 4.11116 0
M  V30 5831 H 552.334 4.51006 4.61805 0
M  V30 5832 H 553.102 6.56893 4.88298 0
M  V30 5833 N 555.766 -1.3263 0.851289 0
M  V30 5834 C 556.714 -2.30882 0.282202 0
M  V30 5835 C 557.708 -1.58697 -0.592589 0
M  V30 5836 O 558.914 -1.73461 -0.480768 0
M  V30 5837 H 555.289 -0.748492 0.0725487 0
M  V30 5838 H 557.26 -2.76374 1.12516 0
M  V30 5839 C 556.009 -3.43828 -0.517449 0
M  V30 5840 H 555.332 -3.99532 0.146392 0
M  V30 5841 H 556.772 -4.1474 -0.88128 0
M  V30 5842 C 555.231 -2.90786 -1.70133 0
M  V30 5843 O 555.761 -2.88 -2.80034 0
M  V30 5844 N 553.967 -2.4723 -1.52728 0
M  V30 5845 H 553.514 -2.49695 -0.633257 0
M  V30 5846 H 553.472 -2.12094 -2.32085 0
M  V30 5847 N 557.244 -0.608902 -1.45362 0
M  V30 5848 C 558.174 0.0964526 -2.33301 0
M  V30 5849 C 559.155 0.857444 -1.46908 0
M  V30 5850 O 560.34 0.827735 -1.75676 0
M  V30 5851 C 557.47 1.09354 -3.29635 0
M  V30 5852 C 556.424 0.445676 -4.25673 0
M  V30 5853 C 555.75 1.5511 -5.11708 0
M  V30 5854 C 557.05 -0.633972 -5.18438 0
M  V30 5855 H 558.744 -0.637829 -2.92527 0
M  V30 5856 H 556.29 -0.308178 -1.40664 0
M  V30 5857 H 558.243 1.59556 -3.90025 0
M  V30 5858 H 556.967 1.85843 -2.6857 0
M  V30 5859 H 555.626 -0.0354897 -3.66583 0
M  V30 5860 H 555.274 2.30631 -4.4701 0
M  V30 5861 H 554.974 1.12311 -5.76767 0
M  V30 5862 H 556.498 2.05537 -5.74967 0
M  V30 5863 H 557.912 -0.215974 -5.72893 0
M  V30 5864 H 556.309 -0.983789 -5.91981 0
M  V30 5865 H 557.379 -1.51005 -4.60788 0
M  V30 5866 N 558.722 1.53707 -0.348139 0
M  V30 5867 C 559.968 2.01286 0.247332 0
M  V30 5868 C 560.301 1.23546 1.49834 0
M  V30 5869 O 559.576 0.324331 1.91777 0
M  V30 5870 C 559.859 3.55768 0.556858 0
M  V30 5871 C 559.712 4.44216 -0.706564 0
M  V30 5872 C 561.031 4.1841 1.3646 0
M  V30 5873 H 558.15 0.731677 0.0884201 0
M  V30 5874 H 560.792 1.84106 -0.469584 0
M  V30 5875 H 558.942 3.70539 1.16761 0
M  V30 5876 H 560.614 4.41274 -1.34444 0
M  V30 5877 H 558.857 4.12892 -1.33052 0
M  V30 5878 H 559.528 5.50202 -0.445186 0
M  V30 5879 H 562.004 4.07365 0.848113 0
M  V30 5880 H 560.88 5.26563 1.54992 0
M  V30 5881 H 561.141 3.7333 2.36805 0
M  V30 5882 N 560.2 0.0768682 1.57412 0
M  V30 5883 C 561.477 -0.632359 1.85096 0
M  V30 5884 C 561.857 -1.87479 0.9703 0
M  V30 5885 O 561.205 -2.28469 0.0379062 0
M  V30 5886 C 561.415 -0.965174 3.35388 0
M  V30 5887 C 562.763 -1.33648 4.03018 0
M  V30 5888 O 563.787 -1.05675 3.40164 0
M  V30 5889 O 562.646 -1.85959 5.13889 0
M  V30 5890 H 559.74 -0.314574 0.764835 0
M  V30 5891 H 562.286 0.108184 1.69355 0
M  V30 5892 H 561.058 -0.0829745 3.91212 0
M  V30 5893 H 560.681 -1.76231 3.5641 0
M  V30 5894 N 561.678 -1.56367 -0.196722 0
M  V30 5895 C 563.094 -1.49916 -0.54749 0
M  V30 5896 C 563.294 -0.77659 -1.85934 0
M  V30 5897 O 562.35 -0.32644 -2.50381 0
M  V30 5898 C 563.663 -2.94577 -0.603734 0
M  V30 5899 C 565.211 -3.05239 -0.692677 0
M  V30 5900 C 565.686 -4.51308 -0.780046 0
M  V30 5901 N 567.177 -4.55453 -0.843616 0
M  V30 5902 C 567.912 -5.65786 -0.931358 0
M  V30 5903 N 567.408 -6.85812 -0.981503 0
M  V30 5904 N 569.201 -5.53695 -0.968421 0
M  V30 5905 H 561.352 -2.01761 0.663803 0
M  V30 5906 H 563.615 -0.918094 0.236238 0
M  V30 5907 H 563.321 -3.50494 0.29105 0
M  V30 5908 H 563.195 -3.47841 -1.45898 0
M  V30 5909 H 565.582 -2.49372 -1.57789 0
M  V30 5910 H 565.663 -2.55103 0.188736 0
M  V30 5911 H 565.307 -5.078 0.100811 0
M  V30 5912 H 565.237 -4.99176 -1.67724 0
M  V30 5913 H 567.728 -3.69025 -0.814176 0
M  V30 5914 H 568.041 -7.65648 -1.04892 0
M  V30 5915 H 566.386 -6.88474 -0.950208 0
M  V30 5916 H 569.577 -4.58848 -0.926072 0
M  V30 5917 H 569.75 -6.39708 -1.03334 0
M  V30 5918 N 563.156 0.464375 -1.50603 0
M  V30 5919 C 564.104 1.58224 -1.70493 0
M  V30 5920 C 565.098 1.59492 -0.570836 0
M  V30 5921 O 566.304 1.63561 -0.751517 0
M  V30 5922 H 562.679 0.525161 -0.538247 0
M  V30 5923 H 564.65 1.38613 -2.64252 0
M  V30 5924 C 563.399 2.96113 -1.82243 0
M  V30 5925 H 562.722 2.95858 -2.68901 0
M  V30 5926 H 564.162 3.73769 -2.00182 0
M  V30 5927 C 562.621 3.31946 -0.575628 0
M  V30 5928 O 563.151 4.00708 0.282152 0
M  V30 5929 N 561.357 2.87436 -0.427665 0
M  V30 5930 H 560.904 2.31652 -1.12674 0
M  V30 5931 H 560.862 3.11776 0.405379 0
M  V30 5932 N 564.634 1.40294 0.718013 0
M  V30 5933 C 565.582 1.40536 1.85344 0
M  V30 5934 C 566.576 0.286192 1.66965 0
M  V30 5935 O 567.782 0.457105 1.74099 0
M  V30 5936 H 564.157 0.439236 0.61039 0
M  V30 5937 H 566.128 2.36275 1.82255 0
M  V30 5938 C 564.877 1.28245 3.23185 0
M  V30 5939 H 564.2 2.1364 3.37932 0
M  V30 5940 H 565.64 1.32474 4.02774 0
M  V30 5941 C 564.099 -0.0075503 3.36899 0
M  V30 5942 O 564.629 -0.971391 3.89778 0
M  V30 5943 N 562.835 -0.0762479 2.905 0
M  V30 5944 H 562.382 0.708819 2.47656 0
M  V30 5945 H 562.34 -0.938846 3.00055 0
M  V30 5946 N 566.112 -0.949982 1.2575 0
M  V30 5947 C 567.06 -2.06869 1.06339 0
M  V30 5948 C 568.054 -1.69399 -0.00708901 0
M  V30 5949 O 569.26 -1.79383 0.148897 0
M  V30 5950 H 565.635 -0.677197 0.326969 0
M  V30 5951 H 567.606 -2.20396 2.01167 0
M  V30 5952 C 566.355 -3.40503 0.703769 0
M  V30 5953 H 565.678 -3.69807 1.51931 0
M  V30 5954 H 567.118 -4.19623 0.607677 0
M  V30 5955 C 565.577 -3.31685 -0.5905 0
M  V30 5956 O 566.107 -3.67085 -1.63131 0
M  V30 5957 N 564.313 -2.84797 -0.577859 0
M  V30 5958 H 563.86 -2.56186 0.26951 0
M  V30 5959 H 563.818 -2.79279 -1.44398 0
M  V30 5960 N 567.59 -1.07411 -1.15328 0
M  V30 5961 C 568.839 -0.792643 -1.85473 0
M  V30 5962 C 569.152 0.683789 -1.83259 0
M  V30 5963 O 570.358 1.08005 -2.49093 0
M  V30 5964 C 568.814 -1.36787 -3.32892 0
M  V30 5965 C 568.422 -2.87536 -3.43551 0
M  V30 5966 C 570.166 -1.16444 -4.08217 0
M  V30 5967 C 568.073 -3.38247 -4.85122 0
M  V30 5968 H 567.003 -0.292838 -0.694811 0
M  V30 5969 H 569.654 -1.29426 -1.30082 0
M  V30 5970 H 568.036 -0.793993 -3.87958 0
M  V30 5971 H 569.21 -3.50973 -2.98588 0
M  V30 5972 H 567.525 -3.06676 -2.81672 0
M  V30 5973 H 570.122 -1.51808 -5.12697 0
M  V30 5974 H 570.465 -0.10353 -4.16171 0
M  V30 5975 H 570.998 -1.70472 -3.59422 0
M  V30 5976 H 567.737 -4.43866 -4.82351 0
M  V30 5977 H 567.257 -2.79564 -5.30664 0
M  V30 5978 H 568.936 -3.34238 -5.5398 0
M  V30 5979 N 569.068 1.32177 -0.85831 0
M  V30 5980 C 570.314 1.97417 -0.46417 0
M  V30 5981 C 570.647 1.67746 0.978514 0
M  V30 5982 O 569.922 0.967654 1.68721 0
M  V30 5983 C 570.205 3.53069 -0.708094 0
M  V30 5984 C 570.058 3.92357 -2.19946 0
M  V30 5985 C 571.377 4.39783 -0.166881 0
M  V30 5986 H 568.496 0.717097 -0.17012 0
M  V30 5987 H 571.138 1.56499 -1.07741 0
M  V30 5988 H 569.288 3.88054 -0.186128 0
M  V30 5989 H 570.96 3.67533 -2.78779 0
M  V30 5990 H 569.203 3.41384 -2.67656 0
M  V30 5991 H 569.874 5.00841 -2.32082 0
M  V30 5992 H 572.35 4.11556 -0.613285 0
M  V30 5993 H 571.226 5.47671 -0.367093 0
M  V30 5994 H 571.487 4.32196 0.930559 0
M  V30 5995 N 570.547 0.616602 1.45037 0
M  V30 5996 C 571.477 -0.0840787 2.33349 0
M  V30 5997 C 572.458 -0.849641 1.4736 0
M  V30 5998 O 573.643 -0.818407 1.76113 0
M  V30 5999 C 570.773 -1.07604 3.3021 0
M  V30 6000 C 569.727 -0.423096 4.25904 0
M  V30 6001 C 569.053 -1.52394 5.12523 0
M  V30 6002 C 570.353 0.661457 5.18095 0
M  V30 6003 H 572.047 0.653333 2.92185 0
M  V30 6004 H 569.593 0.315634 1.40498 0
M  V30 6005 H 571.546 -1.57485 3.90866 0
M  V30 6006 H 570.27 -1.84416 2.69552 0
M  V30 6007 H 568.929 0.05493 3.66559 0
M  V30 6008 H 568.577 -2.28257 4.48227 0
M  V30 6009 H 568.277 -1.09251 5.77354 0
M  V30 6010 H 569.801 -2.02485 5.76049 0
M  V30 6011 H 571.215 0.246353 5.7277 0
M  V30 6012 H 569.612 1.01517 5.91451 0
M  V30 6013 H 570.682 1.53446 4.59981 0
M  V30 6014 N 572.025 -1.5352 0.356285 0
M  V30 6015 C 572.935 -2.29151 -0.502712 0
M  V30 6016 C 573.951 -1.34753 -1.1008 0
M  V30 6017 O 575.127 -1.67803 -1.11374 0
M  V30 6018 C 572.192 -3.05911 -1.63154 0
M  V30 6019 C 571.253 -4.15958 -1.06194 0
M  V30 6020 C 570.486 -4.8905 -2.13696 0
M  V30 6021 O 570.709 -4.61919 -3.34645 0
M  V30 6022 O 569.643 -5.75202 -1.77275 0
M  V30 6023 H 573.469 -3.03492 0.112466 0
M  V30 6024 H 571.054 -1.4891 0.120942 0
M  V30 6025 H 572.936 -3.53874 -2.28804 0
M  V30 6026 H 571.611 -2.34415 -2.23229 0
M  V30 6027 H 570.518 -3.7227 -0.369603 0
M  V30 6028 H 571.851 -4.89593 -0.505872 0
M  V30 6029 N 573.503 -0.0852151 -1.57369 0
M  V30 6030 C 574.733 0.588605 -1.98038 0
M  V30 6031 C 575.141 1.62869 -0.962817 0
M  V30 6032 O 574.484 1.83611 0.057134 0
M  V30 6033 C 574.546 1.30303 -3.35054 0
M  V30 6034 C 574.21 0.414855 -4.55113 0
M  V30 6035 C 575.207 -0.333011 -5.18832 0
M  V30 6036 C 572.892 0.335804 -5.01176 0
M  V30 6037 C 574.886 -1.14801 -6.26976 0
M  V30 6038 C 572.573 -0.482857 -6.09189 0
M  V30 6039 C 573.571 -1.22342 -6.71953 0
M  V30 6040 O 573.259 -2.02855 -7.77885 0
M  V30 6041 H 572.991 0.163249 -0.655992 0
M  V30 6042 H 575.545 -0.1582 -2.0479 0
M  V30 6043 H 573.775 2.0962 -3.24956 0
M  V30 6044 H 575.464 1.87041 -3.60237 0
M  V30 6045 H 576.23 -0.281611 -4.84182 0
M  V30 6046 H 572.109 0.901869 -4.52092 0
M  V30 6047 H 575.653 -1.72654 -6.75897 0
M  V30 6048 H 571.55 -0.535773 -6.43273 0
M  V30 6049 H 572.318 -1.95432 -7.94826 0
M  V30 6050 N 574.981 1.5647 0.188427 0
M  V30 6051 C 575.913 1.91611 1.25769 0
M  V30 6052 C 576.926 0.807436 1.41366 0
M  V30 6053 O 578.115 1.08586 1.41673 0
M  V30 6054 C 575.215 2.13874 2.6289 0
M  V30 6055 C 574.388 3.45047 2.68815 0
M  V30 6056 C 573.447 3.56342 3.87178 0
M  V30 6057 O 572.473 4.29109 3.73971 0
M  V30 6058 N 573.675 2.89924 5.02916 0
M  V30 6059 H 576.44 2.8393 0.959373 0
M  V30 6060 H 574.001 1.57418 0.378306 0
M  V30 6061 H 575.993 2.18713 3.4051 0
M  V30 6062 H 574.563 1.28022 2.85183 0
M  V30 6063 H 573.783 3.52017 1.77419 0
M  V30 6064 H 575.071 4.31395 2.6977 0
M  V30 6065 H 574.469 2.30644 5.16546 0
M  V30 6066 H 573.026 3.0038 5.78459 0
M  V30 6067 N 576.459 -0.456382 1.50847 0
M  V30 6068 C 577.406 -1.55249 1.70782 0
M  V30 6069 C 578.376 -1.56757 0.549231 0
M  V30 6070 O 579.561 -1.74061 0.7815 0
M  V30 6071 C 576.701 -2.93118 1.82143 0
M  V30 6072 C 575.814 -3.01285 3.09598 0
M  V30 6073 C 574.949 -4.30159 3.11667 0
M  V30 6074 C 573.988 -4.32124 4.33515 0
M  V30 6075 N 573.125 -5.52492 4.3324 0
M  V30 6076 H 577.965 -1.37555 2.64353 0
M  V30 6077 H 575.502 -0.668543 1.3103 0
M  V30 6078 H 577.46 -3.73088 1.86711 0
M  V30 6079 H 576.09 -3.09413 0.919978 0
M  V30 6080 H 575.142 -2.14096 3.14431 0
M  V30 6081 H 576.454 -2.98597 3.99551 0
M  V30 6082 H 575.608 -5.18489 3.15046 0
M  V30 6083 H 574.347 -4.35477 2.1957 0
M  V30 6084 H 573.352 -3.42189 4.30333 0
M  V30 6085 H 574.577 -4.28485 5.26856 0
M  V30 6086 H 572.523 -5.58567 3.44004 0
M  V30 6087 H 572.44 -5.51605 5.16979 0
M  V30 6088 H 573.708 -6.42906 4.40786 0
M  V30 6089 N 577.937 -1.40673 -0.710563 0
M  V30 6090 C 578.869 -1.37256 -1.83558 0
M  V30 6091 C 579.882 -0.277133 -1.60424 0
M  V30 6092 O 581.071 -0.537831 -1.70205 0
M  V30 6093 C 578.171 -1.1144 -3.20054 0
M  V30 6094 C 577.344 -2.32734 -3.70342 0
M  V30 6095 C 576.403 -2.03002 -4.85465 0
M  V30 6096 O 575.429 -2.75912 -4.97857 0
M  V30 6097 N 576.631 -1.01105 -5.71627 0
M  V30 6098 H 579.396 -2.34215 -1.86985 0
M  V30 6099 H 576.957 -1.35091 -0.892301 0
M  V30 6100 H 578.949 -0.895265 -3.94673 0
M  V30 6101 H 577.519 -0.231307 -3.11743 0
M  V30 6102 H 576.739 -2.70446 -2.86798 0
M  V30 6103 H 578.027 -3.13584 -4.00678 0
M  V30 6104 H 577.425 -0.407303 -5.64232 0
M  V30 6105 H 575.982 -0.85182 -6.4621 0
M  V30 6106 N 579.415 0.9433 -1.26252 0
M  V30 6107 C 580.347 2.04542 -1.03417 0
M  V30 6108 C 581.36 1.62799 0.0046911 0
M  V30 6109 O 582.549 1.76944 -0.235146 0
M  V30 6110 C 579.649 3.34511 -0.543671 0
M  V30 6111 C 578.822 4.05033 -1.65128 0
M  V30 6112 C 577.881 5.13273 -1.1592 0
M  V30 6113 O 576.907 5.38095 -1.85586 0
M  V30 6114 N 578.109 5.805 -0.00649279 0
M  V30 6115 H 580.874 2.24699 -1.98319 0
M  V30 6116 H 578.435 1.11264 -1.1761 0
M  V30 6117 H 580.427 4.04212 -0.198703 0
M  V30 6118 H 578.997 3.11042 0.311711 0
M  V30 6119 H 578.217 3.29275 -2.16729 0
M  V30 6120 H 579.505 4.48903 -2.39508 0
M  V30 6121 H 578.903 5.62767 0.575347 0
M  V30 6122 H 577.46 6.51201 0.279416 0
M  V30 6123 N 580.893 1.08022 1.14757 0
M  V30 6124 C 582.139 0.808705 1.85978 0
M  V30 6125 C 582.472 -0.663764 1.82504 0
M  V30 6126 O 581.747 -1.48765 1.25296 0
M  V30 6127 C 582.03 1.32623 3.34788 0
M  V30 6128 C 581.883 2.86375 3.46856 0
M  V30 6129 C 583.202 0.948291 4.29762 0
M  V30 6130 H 580.321 0.295244 0.675278 0
M  V30 6131 H 582.963 1.33917 1.34783 0
M  V30 6132 H 581.113 0.875002 3.78518 0
M  V30 6133 H 582.785 3.39839 3.11941 0
M  V30 6134 H 581.028 3.24232 2.88194 0
M  V30 6135 H 581.699 3.17658 4.51439 0
M  V30 6136 H 584.175 1.33722 3.94028 0
M  V30 6137 H 583.051 1.33765 5.32352 0
M  V30 6138 H 583.312 -0.145094 4.41862 0
M  V30 6139 N 582.371 -1.3172 0.865308 0
M  V30 6140 C 583.617 -1.97168 0.474633 0
M  V30 6141 C 583.95 -1.68263 -0.969604 0
M  V30 6142 O 583.225 -0.976588 -1.68205 0
M  V30 6143 C 583.508 -3.52689 0.726808 0
M  V30 6144 C 583.361 -3.91185 2.22024 0
M  V30 6145 C 584.68 -4.39689 0.190201 0
M  V30 6146 H 581.799 -0.716185 0.17392 0
M  V30 6147 H 584.441 -1.55925 1.08569 0
M  V30 6148 H 582.591 -3.8795 0.206705 0
M  V30 6149 H 584.263 -3.66049 2.80724 0
M  V30 6150 H 582.506 -3.3996 2.69462 0
M  V30 6151 H 583.177 -4.99604 2.34735 0
M  V30 6152 H 585.653 -4.11225 0.635103 0
M  V30 6153 H 584.529 -5.47469 0.396132 0
M  V30 6154 H 584.79 -4.32683 -0.907625 0
M  V30 6155 N 583.85 -0.624285 -1.44708 0
M  V30 6156 C 584.797 0.0847135 -2.30644 0
M  V30 6157 C 585.767 0.843575 -1.43084 0
M  V30 6158 O 586.952 0.825982 -1.71995 0
M  V30 6159 C 584.091 1.06495 -3.28257 0
M  V30 6160 C 583.205 0.305224 -4.3092 0
M  V30 6161 C 582.34 1.27667 -5.1563 0
M  V30 6162 C 581.379 0.505706 -6.10007 0
M  V30 6163 N 580.516 1.42727 -6.8744 0
M  V30 6164 H 585.356 -0.654068 -2.90733 0
M  V30 6165 H 582.893 -0.334334 -1.4325 0
M  V30 6166 H 584.851 1.64658 -3.83332 0
M  V30 6167 H 583.481 1.77094 -2.69884 0
M  V30 6168 H 582.533 -0.392207 -3.78373 0
M  V30 6169 H 583.845 -0.295553 -4.97924 0
M  V30 6170 H 582.999 1.92984 -5.75189 0
M  V30 6171 H 581.738 1.91137 -4.48685 0
M  V30 6172 H 580.743 -0.160999 -5.49564 0
M  V30 6173 H 581.968 -0.124183 -6.78986 0
M  V30 6174 H 579.913 2.04931 -6.23169 0
M  V30 6175 H 579.831 0.880345 -7.50857 0
M  V30 6176 H 581.099 2.0695 -7.51526 0
M  V30 6177 N 585.328 1.53329 -0.364422 0
M  V30 6178 C 586.258 2.28627 0.474543 0
M  V30 6179 C 587.239 1.31009 1.08492 0
M  V30 6180 O 588.424 1.59878 1.10239 0
M  V30 6181 C 585.554 3.07465 1.61501 0
M  V30 6182 C 584.508 4.1276 1.13194 0
M  V30 6183 C 583.834 4.79674 2.36255 0
M  V30 6184 C 585.134 5.21847 0.217507 0
M  V30 6185 H 586.828 2.99005 -0.153656 0
M  V30 6186 H 584.374 1.43803 -0.0753406 0
M  V30 6187 H 586.327 3.58889 2.20855 0
M  V30 6188 H 585.051 2.34775 2.27042 0
M  V30 6189 H 583.71 3.62281 0.56109 0
M  V30 6190 H 583.358 4.03557 3.00251 0
M  V30 6191 H 583.058 5.50827 2.04606 0
M  V30 6192 H 584.582 5.33892 2.96297 0
M  V30 6193 H 585.996 5.6878 0.718493 0
M  V30 6194 H 584.393 6.00099 -0.00806408 0
M  V30 6195 H 585.463 4.7921 -0.740653 0
M  V30 6196 N 586.806 0.0935595 1.57322 0
M  V30 6197 C 588.034 -0.578934 1.98635 0
M  V30 6198 C 588.449 -1.61819 0.972626 0
M  V30 6199 O 587.806 -1.82461 -0.0379638 0
M  V30 6200 C 587.857 -1.22802 3.40003 0
M  V30 6201 O 587.578 -0.230334 4.37494 0
M  V30 6202 C 589.079 -1.98627 3.96311 0
M  V30 6203 H 586.299 -0.155324 0.652775 0
M  V30 6204 H 588.843 0.172393 2.03772 0
M  V30 6205 H 586.998 -1.93029 3.35885 0
M  V30 6206 H 587.412 -0.698649 5.19826 0
M  V30 6207 H 588.886 -2.39405 4.97382 0
M  V30 6208 H 589.363 -2.85151 3.34044 0
M  V30 6209 H 589.969 -1.3322 4.03897 0
M  V30 6210 N 588.284 -1.56567 -0.180126 0
M  V30 6211 C 589.214 -1.98753 -1.22553 0
M  V30 6212 C 590.195 -0.86175 -1.46656 0
M  V30 6213 O 591.38 -1.12719 -1.58139 0
M  V30 6214 C 588.51 -2.33988 -2.56645 0
M  V30 6215 C 587.464 -3.49445 -2.47128 0
M  V30 6216 C 586.79 -3.70397 -3.8563 0
M  V30 6217 C 588.09 -4.83171 -1.98352 0
M  V30 6218 H 589.784 -2.86332 -0.874896 0
M  V30 6219 H 587.33 -1.37757 -0.419414 0
M  V30 6220 H 589.283 -2.62097 -3.29974 0
M  V30 6221 H 588.007 -1.43309 -2.93479 0
M  V30 6222 H 586.666 -3.2145 -1.76254 0
M  V30 6223 H 586.314 -2.77023 -4.19842 0
M  V30 6224 H 586.014 -4.48077 -3.80132 0
M  V30 6225 H 587.538 -4.00897 -4.60558 0
M  V30 6226 H 588.952 -5.10213 -2.61449 0
M  V30 6227 H 587.349 -5.64425 -2.03823 0
M  V30 6228 H 588.419 -4.75753 -0.937402 0
M  V30 6229 N 589.762 0.448376 -1.51087 0
M  V30 6230 C 590.987 1.22605 -1.6728 0
M  V30 6231 C 591.412 1.84524 -0.365045 0
M  V30 6232 O 590.77 1.6832 0.673642 0
M  V30 6233 C 590.818 2.29393 -2.78229 0
M  V30 6234 O 589.922 3.34608 -2.41063 0
M  V30 6235 H 589.263 0.359705 -0.558129 0
M  V30 6236 H 591.793 0.530903 -1.97592 0
M  V30 6237 H 591.803 2.74352 -3.01986 0
M  V30 6238 H 590.478 1.83701 -3.73131 0
M  V30 6239 H 589.055 2.95202 -2.27838 0
M  V30 6240 N 591.24 1.41047 0.703093 0
M  V30 6241 C 592.651 1.35657 1.28274 0
M  V30 6242 C 593.002 0.0360309 1.96167 0
M  V30 6243 O 592.127 -0.865833 1.98324 0
M  V30 6244 C 592.722 2.45707 2.33267 0
M  V30 6245 C 591.281 2.43738 2.86825 0
M  V30 6246 C 590.428 2.25941 1.60767 0
M  V30 6247 H 593.379 1.50672 0.49836 0
M  V30 6248 H 593.4 2.14333 3.14391 0
M  V30 6249 H 592.912 3.41805 1.83824 0
M  V30 6250 H 591.013 1.51375 3.40465 0
M  V30 6251 H 591.126 3.39779 3.37768 0
M  V30 6252 H 589.49 1.73681 1.86298 0
M  V30 6253 H 590.273 3.24054 1.1333 0
M  V30 6254 N 592.718 -0.936591 1.26751 0
M  V30 6255 C 593.681 -2.01752 1.08761 0
M  V30 6256 C 594.681 -1.60763 0.0344435 0
M  V30 6257 O 595.871 -1.71963 0.278258 0
M  V30 6258 C 593.003 -3.34543 0.655271 0
M  V30 6259 H 594.196 -2.19143 2.04735 0
M  V30 6260 H 591.749 -1.11618 1.09413 0
M  V30 6261 H 592.484 -3.22851 -0.30626 0
M  V30 6262 H 592.269 -3.65647 1.41578 0
M  V30 6263 H 593.759 -4.13944 0.551378 0
M  V30 6264 N 594.196 -1.08629 -1.14182 0
M  V30 6265 C 595.424 -0.838889 -1.8913 0
M  V30 6266 C 595.839 0.609153 -1.78703 0
M  V30 6267 O 595.196 1.41876 -1.14794 0
M  V30 6268 C 595.247 -1.25477 -3.39025 0
M  V30 6269 O 594.968 -2.64601 -3.49167 0
M  V30 6270 C 596.469 -1.03856 -4.30963 0
M  V30 6271 H 593.689 -0.302377 -0.599007 0
M  V30 6272 H 596.233 -1.44615 -1.44592 0
M  V30 6273 H 594.388 -0.691571 -3.81177 0
M  V30 6274 H 594.802 -2.81922 -4.42289 0
M  V30 6275 H 596.276 -1.37892 -5.345 0
M  V30 6276 H 596.753 0.0242522 -4.39193 0
M  V30 6277 H 597.359 -1.58731 -3.94569 0
M  V30 6278 N 595.674 1.31259 -0.872281 0
M  V30 6279 C 596.923 1.95893 -0.480493 0
M  V30 6280 C 597.236 1.697 0.972688 0
M  V30 6281 O 598.442 2.28214 1.47073 0
M  V30 6282 C 596.898 3.50705 -0.808342 0
M  V30 6283 C 596.506 3.85735 -2.27844 0
M  V30 6284 C 598.25 4.21719 -0.485136 0
M  V30 6285 C 596.157 5.33668 -2.54858 0
M  V30 6286 H 595.087 0.733182 -0.175955 0
M  V30 6287 H 597.738 1.49396 -1.0655 0
M  V30 6288 H 596.12 3.95706 -0.152558 0
M  V30 6289 H 597.294 3.51686 -2.97748 0
M  V30 6290 H 595.609 3.27792 -2.56791 0
M  V30 6291 H 598.206 5.30559 -0.664166 0
M  V30 6292 H 598.549 4.12316 0.574592 0
M  V30 6293 H 599.082 3.82359 -1.09756 0
M  V30 6294 H 595.821 5.48109 -3.59523 0
M  V30 6295 H 595.341 5.69061 -1.8955 0
M  V30 6296 H 597.02 6.00958 -2.39706 0
M  V30 6297 N 597.152 0.631951 1.44375 0
M  V30 6298 C 598.377 0.142146 2.06912 0
M  V30 6299 C 598.802 -1.17456 1.4692 0
M  V30 6300 O 598.16 -1.72074 0.570975 0
M  V30 6301 C 598.208 0.0417952 3.60576 0
M  V30 6302 O 597.312 -1.00194 4.00044 0
M  V30 6303 H 596.653 0.0851491 0.658518 0
M  V30 6304 H 599.183 0.868863 1.85235 0
M  V30 6305 H 599.193 -0.148517 4.0773 0
M  V30 6306 H 597.868 1.0031 4.03622 0
M  V30 6307 H 596.445 -0.786131 3.64519 0
M  V30 6308 N 598.631 -1.53133 0.372548 0
M  V30 6309 C 599.879 -2.00958 -0.214534 0
M  V30 6310 C 600.2 -1.26135 -1.48711 0
M  V30 6311 O 599.47 -0.376597 -1.92246 0
M  V30 6312 H 598.05 -0.742456 -0.0822664 0
M  V30 6313 H 600.712 -1.88367 0.500385 0
M  V30 6314 H 599.808 -3.09031 -0.436605 0
M  V30 6315 N 600.109 -0.101901 -1.5727 0
M  V30 6316 C 601.039 0.851544 -2.17419 0
M  V30 6317 C 602.02 1.28942 -1.10941 0
M  V30 6318 O 603.205 1.35509 -1.39107 0
M  V30 6319 C 600.335 2.10816 -2.75996 0
M  V30 6320 C 599.289 1.80867 -3.87906 0
M  V30 6321 C 598.615 3.13413 -4.33216 0
M  V30 6322 C 599.915 1.0903 -5.10793 0
M  V30 6323 H 601.609 0.350381 -2.97343 0
M  V30 6324 H 599.155 0.16709 -1.43027 0
M  V30 6325 H 601.108 2.77959 -3.16729 0
M  V30 6326 H 599.832 2.63227 -1.93337 0
M  V30 6327 H 598.491 1.16119 -3.47724 0
M  V30 6328 H 598.139 3.63725 -3.47438 0
M  V30 6329 H 597.839 2.94155 -5.08671 0
M  V30 6330 H 599.363 3.81704 -4.76586 0
M  V30 6331 H 600.777 1.66295 -5.48652 0
M  V30 6332 H 599.174 0.99927 -5.91722 0
M  V30 6333 H 600.244 0.0741704 -4.84843 0
M  V30 6334 N 601.587 1.56661 0.17182 0
M  V30 6335 C 602.998 1.71652 0.734329 0
M  V30 6336 C 603.349 0.712335 1.82812 0
M  V30 6337 O 602.474 -0.126401 2.16031 0
M  V30 6338 C 603.069 3.11226 1.3388 0
M  V30 6339 C 601.628 3.27904 1.84813 0
M  V30 6340 C 600.775 2.67603 0.726917 0
M  V30 6341 H 603.726 1.5861 -0.0535665 0
M  V30 6342 H 603.747 3.09849 2.20849 0
M  V30 6343 H 603.259 3.8429 0.54249 0
M  V30 6344 H 601.36 2.59796 2.6709 0
M  V30 6345 H 601.473 4.35637 1.99392 0
M  V30 6346 H 599.837 2.274 1.14723 0
M  V30 6347 H 600.62 3.43252 -0.0575334 0
M  V30 6348 N 603.065 -0.440357 1.51323 0
M  V30 6349 C 604.313 -1.18769 1.63518 0
M  V30 6350 C 604.634 -1.91793 0.352201 0
M  V30 6351 O 603.904 -1.85432 -0.631811 0
M  V30 6352 H 602.484 -0.441408 0.602634 0
M  V30 6353 H 605.146 -0.505162 1.8824 0
M  V30 6354 H 604.242 -1.91892 2.46138 0
M  V30 6355 N 604.543 -1.41418 -0.695603 0
M  V30 6356 C 605.475 -1.39195 -1.82092 0
M  V30 6357 C 606.488 -0.294132 -1.60121 0
M  V30 6358 O 607.677 -0.555854 -1.69625 0
M  V30 6359 C 604.777 -1.14828 -3.18854 0
M  V30 6360 C 603.95 -2.36649 -3.67853 0
M  V30 6361 C 603.009 -2.08139 -4.83285 0
M  V30 6362 O 602.035 -2.81177 -4.94902 0
M  V30 6363 N 603.237 -1.07162 -5.70523 0
M  V30 6364 H 606.002 -2.36185 -1.84491 0
M  V30 6365 H 603.563 -1.3603 -0.877923 0
M  V30 6366 H 605.555 -0.937075 -3.93702 0
M  V30 6367 H 604.125 -0.264358 -3.1148 0
M  V30 6368 H 603.345 -2.73472 -2.83913 0
M  V30 6369 H 604.633 -3.17816 -3.97329 0
M  V30 6370 H 604.031 -0.467124 -5.63768 0
M  V30 6371 H 602.588 -0.920311 -6.4527 0
M  V30 6372 N 606.021 0.929856 -1.27246 0
M  V30 6373 C 607.267 1.6798 -1.13625 0
M  V30 6374 C 607.6 1.91586 0.317589 0
M  V30 6375 O 606.875 1.50467 1.23247 0
M  V30 6376 C 607.158 3.04766 -1.91806 0
M  V30 6377 C 607.011 2.88415 -3.45162 0
M  V30 6378 C 608.33 4.05063 -1.72082 0
M  V30 6379 H 605.449 0.609632 -0.414147 0
M  V30 6380 H 608.091 1.0792 -1.56376 0
M  V30 6381 H 606.241 3.56034 -1.55474 0
M  V30 6382 H 607.913 2.44282 -3.91311 0
M  V30 6383 H 606.156 2.23802 -3.71611 0
M  V30 6384 H 606.827 3.85482 -3.95105 0
M  V30 6385 H 609.303 3.62798 -2.03757 0
M  V30 6386 H 608.179 4.98765 -2.29182 0
M  V30 6387 H 608.44 4.37021 -0.668206 0
M  V30 6388 N 607.499 1.09233 1.13605 0
M  V30 6389 C 608.729 0.847677 1.88409 0
M  V30 6390 C 609.137 -0.604524 1.79282 0
M  V30 6391 O 608.48 -1.42773 1.15592 0
M  V30 6392 C 608.542 1.20153 3.38827 0
M  V30 6393 C 608.206 2.65824 3.71735 0
M  V30 6394 C 609.203 3.64072 3.71143 0
M  V30 6395 C 606.888 3.01894 4.01454 0
M  V30 6396 C 608.882 4.96419 3.99808 0
M  V30 6397 C 606.569 4.34433 4.29781 0
M  V30 6398 C 607.567 5.31505 4.28942 0
M  V30 6399 O 607.255 6.61659 4.56576 0
M  V30 6400 H 606.987 0.304813 0.603378 0
M  V30 6401 H 609.541 1.4573 1.44748 0
M  V30 6402 H 607.771 0.534946 3.82982 0
M  V30 6403 H 609.46 0.936349 3.94952 0
M  V30 6404 H 610.226 3.37549 3.4826 0
M  V30 6405 H 606.105 2.26971 4.01255 0
M  V30 6406 H 609.649 5.7218 3.99069 0
M  V30 6407 H 605.546 4.607 4.52135 0
M  V30 6408 H 606.314 6.67102 4.74254 0
M  V30 6409 N 608.977 -1.30795 0.87923 0
M  V30 6410 C 609.909 -2.27241 0.299025 0
M  V30 6411 C 610.922 -1.53472 -0.543166 0
M  V30 6412 O 612.111 -1.74756 -0.363651 0
M  V30 6413 C 609.211 -3.33655 -0.593931 0
M  V30 6414 C 608.384 -4.36857 0.2179 0
M  V30 6415 C 607.443 -5.22715 -0.604646 0
M  V30 6416 O 606.469 -5.69192 -0.0293838 0
M  V30 6417 N 607.671 -5.48008 -1.91488 0
M  V30 6418 H 610.436 -2.77667 1.12788 0
M  V30 6419 H 607.997 -1.43914 0.741637 0
M  V30 6420 H 609.989 -3.88013 -1.15012 0
M  V30 6421 H 608.559 -2.83202 -1.32346 0
M  V30 6422 H 607.779 -3.82444 0.955536 0
M  V30 6423 H 609.067 -5.02869 0.774614 0
M  V30 6424 H 608.465 -5.1202 -2.40525 0
M  V30 6425 H 607.022 -6.05264 -2.41864 0
M  V30 6426 N 610.455 -0.639598 -1.44038 0
M  V30 6427 C 611.701 -0.147698 -2.02261 0
M  V30 6428 C 612.034 1.23031 -1.50256 0
M  V30 6429 O 611.309 1.81847 -0.690068 0
M  V30 6430 C 611.592 -0.14362 -3.59813 0
M  V30 6431 C 611.445 -1.55458 -4.22082 0
M  V30 6432 C 612.764 0.527317 -4.36929 0
M  V30 6433 H 609.883 -0.0551453 -0.734934 0
M  V30 6434 H 612.525 -0.817688 -1.71505 0
M  V30 6435 H 610.675 0.426898 -3.86147 0
M  V30 6436 H 612.347 -2.17464 -4.06826 0
M  V30 6437 H 610.59 -2.10594 -3.79253 0
M  V30 6438 H 611.261 -1.50369 -5.31124 0
M  V30 6439 H 613.737 0.0420504 -4.16079 0
M  V30 6440 H 612.613 0.499389 -5.46624 0
M  V30 6441 H 612.874 1.59914 -4.12165 0
M  V30 6442 N 611.933 1.52934 -0.380664 0
M  V30 6443 C 612.881 2.27727 0.47361 0
M  V30 6444 C 613.875 1.31288 1.0705 0
M  V30 6445 O 615.081 1.4886 1.01197 0
M  V30 6446 H 611.456 0.732189 0.171475 0
M  V30 6447 H 613.427 2.97864 -0.178785 0
M  V30 6448 C 612.176 3.0904 1.59341 0
M  V30 6449 H 611.499 3.831 1.14343 0
M  V30 6450 H 612.939 3.64527 2.16555 0
M  V30 6451 C 611.398 2.20813 2.54447 0
M  V30 6452 O 611.928 1.82907 3.57642 0
M  V30 6453 N 610.134 1.85145 2.23986 0
M  V30 6454 H 609.681 2.16169 1.40103 0
M  V30 6455 H 609.639 1.26402 2.87871 0
M  V30 6456 N 613.412 0.11024 1.57214 0
M  V30 6457 C 614.375 -0.828808 2.1369 0
M  V30 6458 C 615.375 -1.20059 1.06969 0
M  V30 6459 O 616.565 -1.12754 1.32786 0
M  V30 6460 C 613.697 -2.11959 2.66994 0
M  V30 6461 H 614.89 -0.338146 2.97988 0
M  V30 6462 H 612.443 -0.138913 1.55681 0
M  V30 6463 H 613.178 -2.65476 1.8626 0
M  V30 6464 H 612.963 -1.86258 3.45037 0
M  V30 6465 H 614.453 -2.79105 3.10629 0
M  V30 6466 N 614.89 -1.56749 -0.16351 0
M  V30 6467 C 615.822 -1.93587 -1.22705 0
M  V30 6468 C 616.835 -0.829824 -1.40063 0
M  V30 6469 O 618.024 -1.10826 -1.39928 0
M  V30 6470 C 615.124 -2.1803 -2.59454 0
M  V30 6471 C 614.297 -3.4928 -2.63292 0
M  V30 6472 C 613.356 -3.62457 -3.8146 0
M  V30 6473 O 612.382 -4.35004 -3.67096 0
M  V30 6474 N 613.584 -2.97888 -4.9824 0
M  V30 6475 H 616.349 -2.8542 -0.914081 0
M  V30 6476 H 613.91 -1.58 -0.353214 0
M  V30 6477 H 615.902 -2.24102 -3.36987 0
M  V30 6478 H 614.472 -1.32543 -2.8311 0
M  V30 6479 H 613.692 -3.54795 -1.71796 0
M  V30 6480 H 614.98 -4.35632 -2.62873 0
M  V30 6481 H 614.378 -2.38833 -5.12811 0
M  V30 6482 H 612.935 -3.09545 -5.73607 0
M  V30 6483 N 616.368 0.432326 -1.51554 0
M  V30 6484 C 617.614 1.18309 -1.64714 0
M  V30 6485 C 617.947 1.90745 -0.364696 0
M  V30 6486 O 617.222 1.8381 0.635936 0
M  V30 6487 C 617.505 2.1961 -2.85383 0
M  V30 6488 C 617.358 1.51223 -4.23617 0
M  V30 6489 C 618.677 3.20538 -3.01569 0
M  V30 6490 H 615.796 0.428751 -0.599451 0
M  V30 6491 H 618.438 0.471689 -1.84052 0
M  V30 6492 H 616.588 2.8028 -2.69027 0
M  V30 6493 H 618.26 0.938516 -4.51652 0
M  V30 6494 H 616.503 0.814501 -4.26085 0
M  V30 6495 H 617.174 2.25024 -5.04052 0
M  V30 6496 H 619.65 2.69926 -3.16669 0
M  V30 6497 H 618.526 3.88706 -3.87555 0
M  V30 6498 H 618.787 3.86933 -2.13859 0
M  V30 6499 N 617.846 1.41785 0.688094 0
M  V30 6500 C 618.778 1.40159 1.81351 0
M  V30 6501 C 619.791 0.30262 1.59963 0
M  V30 6502 O 620.98 0.564841 1.69327 0
M  V30 6503 C 618.08 1.16517 3.1824 0
M  V30 6504 C 617.253 2.38597 3.66593 0
M  V30 6505 C 616.312 2.10699 4.82174 0
M  V30 6506 O 615.338 2.83798 4.93404 0
M  V30 6507 N 616.54 1.10187 5.69947 0
M  V30 6508 H 619.305 2.3716 1.83236 0
M  V30 6509 H 616.866 1.36494 0.870697 0
M  V30 6510 H 618.858 0.957941 3.93199 0
M  V30 6511 H 617.428 0.280873 3.11336 0
M  V30 6512 H 616.648 2.74974 2.82459 0
M  V30 6513 H 617.936 3.19919 3.95638 0
M  V30 6514 H 617.334 0.497016 5.63512 0
M  V30 6515 H 615.891 0.954518 6.44773 0
M  V30 6516 N 619.324 -0.923095 1.27737 0
M  V30 6517 C 620.572 -1.66797 1.14119 0
M  V30 6518 C 620.893 -1.92479 -0.312541 0
M  V30 6519 O 620.163 -1.53432 -1.218 0
M  V30 6520 H 618.743 -0.618196 0.419336 0
M  V30 6521 H 621.405 -1.10815 1.60331 0
M  V30 6522 H 620.501 -2.63424 1.67374 0
M  V30 6523 N 620.802 -1.09834 -1.13024 0
M  V30 6524 C 621.765 -0.745058 -2.16752 0
M  V30 6525 C 622.765 0.227435 -1.59183 0
M  V30 6526 O 623.955 0.0050786 -1.74199 0
M  V30 6527 C 621.087 -0.102543 -3.40746 0
M  V30 6528 H 622.28 -1.66375 -2.49518 0
M  V30 6529 H 619.833 -0.898061 -1.27924 0
M  V30 6530 H 620.568 0.827177 -3.13573 0
M  V30 6531 H 620.353 -0.80235 -3.83803 0
M  V30 6532 H 621.843 0.129082 -4.174 0
M  V30 6533 N 622.28 1.30327 -0.886154 0
M  V30 6534 C 623.505 2.0079 -0.519425 0
M  V30 6535 C 623.93 1.65979 0.885013 0
M  V30 6536 O 623.288 0.877043 1.58675 0
M  V30 6537 C 623.336 3.53686 -0.702758 0
M  V30 6538 O 622.44 4.11637 0.250828 0
M  V30 6539 H 621.781 0.63171 -0.204544 0
M  V30 6540 H 624.311 1.66145 -1.19402 0
M  V30 6541 H 624.321 4.03531 -0.602207 0
M  V30 6542 H 622.996 3.78361 -1.72673 0
M  V30 6543 H 621.573 3.72755 0.103873 0
M  V30 6544 N 623.758 0.647228 1.43697 0
M  V30 6545 C 624.721 -0.0385101 2.29168 0
M  V30 6546 C 625.721 -0.756487 1.41894 0
M  V30 6547 O 626.911 -0.598641 1.63591 0
M  V30 6548 C 624.043 -1.06524 3.23829 0
M  V30 6549 H 625.236 0.713445 2.9129 0
M  V30 6550 H 622.789 0.408153 1.50877 0
M  V30 6551 H 623.524 -1.84664 2.66589 0
M  V30 6552 H 623.309 -0.554147 3.88164 0
M  V30 6553 H 624.799 -1.54432 3.87996 0
M  V30 6554 N 625.236 -1.5273 0.388769 0
M  V30 6555 C 626.482 -2.01871 -0.193877 0
M  V30 6556 C 626.815 -1.27475 -1.46505 0
M  V30 6557 O 626.09 -0.375063 -1.90849 0
M  V30 6558 C 626.373 -3.5712 -0.462336 0
M  V30 6559 C 626.226 -4.42186 0.824091 0
M  V30 6560 C 627.545 -4.21881 -1.25319 0
M  V30 6561 H 624.664 -0.733764 -0.0689899 0
M  V30 6562 H 627.306 -1.82796 0.518231 0
M  V30 6563 H 625.456 -3.73504 -1.06896 0
M  V30 6564 H 627.128 -4.37554 1.46096 0
M  V30 6565 H 625.371 -4.09219 1.43952 0
M  V30 6566 H 626.042 -5.48828 0.590905 0
M  V30 6567 H 628.518 -4.0947 -0.73981 0
M  V30 6568 H 627.394 -5.30487 -1.40977 0
M  V30 6569 H 627.655 -3.79478 -2.26824 0
M  V30 6570 N 626.714 -0.118576 -1.57153 0
M  V30 6571 C 628.13 0.238014 -1.57815 0
M  V30 6572 C 628.33 1.66747 -1.13127 0
M  V30 6573 O 627.386 2.38867 -0.818462 0
M  V30 6574 C 628.699 0.00508207 -3.007 0
M  V30 6575 C 630.247 0.0710139 -3.12919 0
M  V30 6576 C 630.722 -0.13422 -4.57803 0
M  V30 6577 N 632.213 -0.0801755 -4.63131 0
M  V30 6578 C 632.948 -0.213885 -5.73001 0
M  V30 6579 N 632.444 -0.403742 -6.91623 0
M  V30 6580 N 634.237 -0.15349 -5.6189 0
M  V30 6581 H 626.388 -1.05226 -1.84503 0
M  V30 6582 H 628.651 -0.414318 -0.852669 0
M  V30 6583 H 628.357 -0.983125 -3.3768 0
M  V30 6584 H 628.231 0.73714 -3.69927 0
M  V30 6585 H 630.618 1.04975 -2.75798 0
M  V30 6586 H 630.699 -0.692918 -2.46236 0
M  V30 6587 H 630.343 -1.10992 -4.95624 0
M  V30 6588 H 630.273 0.649692 -5.22577 0
M  V30 6589 H 632.764 0.0630689 -3.77847 0
M  V30 6590 H 633.077 -0.496645 -7.71202 0
M  V30 6591 H 631.422 -0.43971 -6.93608 0
M  V30 6592 H 634.613 -0.00613174 -4.681 0
M  V30 6593 H 634.786 -0.261138 -6.47474 0
M  V30 6594 N 628.193 1.56834 0.155195 0
M  V30 6595 C 629.103 2.009 1.21146 0
M  V30 6596 C 630.119 0.923029 1.475 0
M  V30 6597 O 631.295 1.23189 1.59331 0
M  V30 6598 C 628.36 2.37378 2.52691 0
M  V30 6599 C 627.421 3.59883 2.34057 0
M  V30 6600 C 626.654 3.94612 3.59329 0
M  V30 6601 O 626.877 3.30104 4.65175 0
M  V30 6602 O 625.811 4.87895 3.52479 0
M  V30 6603 H 629.637 2.9105 0.867371 0
M  V30 6604 H 627.222 1.44916 0.363298 0
M  V30 6605 H 629.104 2.61737 3.3026 0
M  V30 6606 H 627.779 1.50385 2.86646 0
M  V30 6607 H 626.686 3.40722 1.54465 0
M  V30 6608 H 628.019 4.47468 2.0502 0
M  V30 6609 N 629.671 -0.424282 1.51781 0
M  V30 6610 C 630.92 -1.16961 1.64326 0
M  V30 6611 C 631.233 -1.92035 0.371749 0
M  V30 6612 O 632.439 -2.68873 0.37676 0
M  V30 6613 C 630.895 -2.12782 2.90262 0
M  V30 6614 C 630.503 -1.43295 4.24465 0
M  V30 6615 C 632.247 -2.87667 3.12166 0
M  V30 6616 C 630.154 -2.37676 5.41538 0
M  V30 6617 H 629.084 -0.440293 0.612093 0
M  V30 6618 H 631.735 -0.435431 1.78259 0
M  V30 6619 H 630.117 -2.8969 2.69992 0
M  V30 6620 H 631.291 -0.718564 4.55163 0
M  V30 6621 H 629.606 -0.805118 4.08542 0
M  V30 6622 H 632.203 -3.58395 3.96808 0
M  V30 6623 H 632.546 -3.49758 2.25776 0
M  V30 6624 H 633.079 -2.17863 3.32837 0
M  V30 6625 H 629.818 -1.80255 6.30229 0
M  V30 6626 H 629.338 -3.07132 5.15199 0
M  V30 6627 H 631.017 -2.98529 5.74012 0
M  V30 6628 N 631.149 -1.42148 -0.680565 0
M  V30 6629 C 632.395 -1.42521 -1.44277 0
M  V30 6630 C 632.728 -0.0393718 -1.9416 0
M  V30 6631 O 632.003 0.935425 -1.70529 0
M  V30 6632 C 632.286 -2.44475 -2.64394 0
M  V30 6633 C 632.139 -3.92226 -2.20179 0
M  V30 6634 C 633.458 -2.43491 -3.66606 0
M  V30 6635 H 630.577 -0.518985 -0.523282 0
M  V30 6636 H 633.219 -1.73524 -0.773914 0
M  V30 6637 H 631.369 -2.18168 -3.21458 0
M  V30 6638 H 633.041 -4.29493 -1.68327 0
M  V30 6639 H 631.284 -4.0637 -1.5181 0
M  V30 6640 H 631.955 -4.59133 -3.06433 0
M  V30 6641 H 634.431 -2.66872 -3.19247 0
M  V30 6642 H 633.307 -3.16816 -4.4824 0
M  V30 6643 H 633.568 -1.45881 -4.17338 0
M  V30 6644 N 632.627 0.916307 -1.28225 0
M  V30 6645 C 633.873 1.66794 -1.1641 0
M  V30 6646 C 634.228 1.90278 0.284986 0
M  V30 6647 O 633.521 1.49023 1.20427 0
M  V30 6648 C 633.715 3.03125 -1.8934 0
M  V30 6649 C 633.544 2.92947 -3.41192 0
M  V30 6650 C 632.314 2.9461 -4.10528 0
M  V30 6651 C 634.512 2.7121 -4.36978 0
M  V30 6652 N 632.494 2.74993 -5.48864 0
M  V30 6653 C 633.865 2.60411 -5.6266 0
M  V30 6654 C 635.92 2.56187 -4.26934 0
M  V30 6655 C 634.623 2.3612 -6.79441 0
M  V30 6656 C 636.649 2.33275 -5.43449 0
M  V30 6657 C 636.011 2.23228 -6.68093 0
M  V30 6658 H 632.11 0.616654 -0.480896 0
M  V30 6659 H 634.694 1.08237 -1.61842 0
M  V30 6660 H 632.865 3.59774 -1.46346 0
M  V30 6661 H 634.597 3.67294 -1.69932 0
M  V30 6662 H 631.352 3.0527 -3.62087 0
M  V30 6663 H 631.776 2.68284 -6.21573 0
M  V30 6664 H 636.418 2.62707 -3.31278 0
M  V30 6665 H 634.136 2.28339 -7.75169 0
M  V30 6666 H 637.722 2.22519 -5.37565 0
M  V30 6667 H 636.602 2.05741 -7.5673 0
M  V30 6668 N 634.105 1.10431 1.1244 0
M  V30 6669 C 635.33 0.869089 1.88313 0
M  V30 6670 C 635.755 -0.574912 1.79099 0
M  V30 6671 O 635.113 -1.40496 1.14589 0
M  V30 6672 C 635.161 1.32208 3.3549 0
M  V30 6673 O 634.265 0.487092 4.09513 0
M  V30 6674 H 633.606 0.313894 0.585121 0
M  V30 6675 H 636.136 1.47111 1.42195 0
M  V30 6676 H 636.146 1.31201 3.86329 0
M  V30 6677 H 634.821 2.37364 3.41513 0
M  V30 6678 H 633.398 0.562372 3.68635 0
M  V30 6679 N 635.583 -1.29855 0.893053 0
M  V30 6680 C 636.86 -1.90694 0.435336 0
M  V30 6681 C 637.24 -1.8111 -1.08454 0
M  V30 6682 O 636.588 -1.23352 -1.92345 0
M  V30 6683 C 636.798 -3.36033 0.942472 0
M  V30 6684 C 638.146 -4.13083 0.982226 0
M  V30 6685 O 639.17 -3.4491 0.889686 0
M  V30 6686 O 638.029 -5.34896 1.12022 0
M  V30 6687 H 635.123 -0.815978 0.134567 0
M  V30 6688 H 637.669 -1.38367 0.982484 0
M  V30 6689 H 636.441 -3.37132 1.9864 0
M  V30 6690 H 636.064 -3.95828 0.374952 0
M  V30 6691 N 637.061 -0.65484 -1.43351 0
M  V30 6692 C 638.024 0.0263562 -2.29185 0
M  V30 6693 C 639.024 0.748951 -1.42293 0
M  V30 6694 O 640.214 0.589957 -1.63906 0
M  V30 6695 C 637.346 1.04806 -3.2439 0
M  V30 6696 H 638.539 -0.728883 -2.90908 0
M  V30 6697 H 636.092 -0.416149 -1.50658 0
M  V30 6698 H 636.827 1.83247 -2.67565 0
M  V30 6699 H 636.612 0.533554 -3.88453 0
M  V30 6700 H 638.102 1.52372 -3.88809 0
M  V30 6701 N 638.539 1.52521 -0.396863 0
M  V30 6702 C 639.449 2.30403 0.44178 0
M  V30 6703 C 640.465 1.37625 1.06468 0
M  V30 6704 O 641.641 1.70697 1.06886 0
M  V30 6705 C 638.706 3.1013 1.54986 0
M  V30 6706 C 637.767 4.18628 0.951279 0
M  V30 6707 C 637 4.94543 2.00655 0
M  V30 6708 O 637.223 4.70629 3.22281 0
M  V30 6709 O 636.157 5.797 1.61962 0
M  V30 6710 H 639.983 3.03087 -0.192892 0
M  V30 6711 H 637.568 1.48537 -0.16038 0
M  V30 6712 H 639.45 3.59816 2.19341 0
M  V30 6713 H 638.125 2.40251 2.16935 0
M  V30 6714 H 637.032 3.73119 0.270773 0
M  V30 6715 H 638.365 4.90763 0.375887 0
M  V30 6716 N 640.017 0.126909 1.57088 0
M  V30 6717 C 640.947 -0.816847 2.18746 0
M  V30 6718 C 641.928 -1.27161 1.12979 0
M  V30 6719 O 643.113 -1.33279 1.41246 0
M  V30 6720 C 640.243 -2.06398 2.79315 0
M  V30 6721 C 639.197 -1.74673 3.90735 0
M  V30 6722 C 638.523 -3.06482 4.38147 0
M  V30 6723 C 639.823 -1.0089 5.12463 0
M  V30 6724 H 641.517 -0.303032 2.97863 0
M  V30 6725 H 639.063 -0.144314 1.43275 0
M  V30 6726 H 641.016 -2.72885 3.2111 0
M  V30 6727 H 639.74 -2.60118 1.975 0
M  V30 6728 H 638.399 -1.10572 3.49527 0
M  V30 6729 H 638.047 -3.58152 3.5318 0
M  V30 6730 H 637.747 -2.86025 5.13287 0
M  V30 6731 H 639.271 -3.74073 4.82599 0
M  V30 6732 H 640.685 -1.57546 5.51228 0
M  V30 6733 H 639.082 -0.905006 5.93237 0
M  V30 6734 H 640.152 0.00297335 4.849 0
M  V30 6735 N 641.495 -1.56914 -0.146875 0
M  V30 6736 C 642.744 -1.82546 -0.857898 0
M  V30 6737 C 643.057 -0.708169 -1.8233 0
M  V30 6738 O 644.263 -0.850093 -2.57848 0
M  V30 6739 C 642.719 -3.23548 -1.57623 0
M  V30 6740 C 642.327 -4.43212 -0.653224 0
M  V30 6741 C 644.071 -3.58453 -2.27402 0
M  V30 6742 C 641.978 -5.75237 -1.37318 0
M  V30 6743 H 640.908 -0.680786 -0.32411 0
M  V30 6744 H 643.559 -1.83166 -0.110639 0
M  V30 6745 H 641.941 -3.17315 -2.36912 0
M  V30 6746 H 643.115 -4.60682 0.104452 0
M  V30 6747 H 641.43 -4.16351 -0.0638336 0
M  V30 6748 H 644.027 -4.54349 -2.81907 0
M  V30 6749 H 644.37 -2.84516 -3.03901 0
M  V30 6750 H 644.903 -3.66347 -1.55032 0
M  V30 6751 H 641.642 -6.52269 -0.650041 0
M  V30 6752 H 641.162 -5.61703 -2.10357 0
M  V30 6753 H 642.841 -6.18039 -1.91406 0
M  V30 6754 N 642.974 0.416227 -1.52004 0
M  V30 6755 C 643.937 1.48926 -1.74223 0
M  V30 6756 C 644.937 1.48693 -0.612119 0
M  V30 6757 O 646.127 1.50343 -0.879921 0
M  V30 6758 C 643.259 2.88372 -1.81809 0
M  V30 6759 H 644.452 1.3052 -2.70008 0
M  V30 6760 H 642.005 0.646271 -1.42313 0
M  V30 6761 H 642.74 3.12157 -0.879135 0
M  V30 6762 H 642.525 2.89944 -2.6396 0
M  V30 6763 H 644.015 3.66173 -2.00766 0
M  V30 6764 N 644.452 1.42507 0.673017 0
M  V30 6765 C 645.415 1.4582 1.76831 0
M  V30 6766 C 646.415 0.345542 1.57043 0
M  V30 6767 O 647.605 0.606447 1.63303 0
M  V30 6768 C 644.737 1.29158 3.15485 0
M  V30 6769 H 645.93 2.43345 1.7528 0
M  V30 6770 H 643.483 1.28981 0.882817 0
M  V30 6771 H 644.218 0.325626 3.22661 0
M  V30 6772 H 644.003 2.09797 3.31252 0
M  V30 6773 H 645.493 1.34363 3.95394 0
M  V30 6774 N 645.93 -0.909495 1.28709 0
M  V30 6775 C 647.178 -1.65577 1.15882 0
M  V30 6776 C 647.499 -1.928 -0.292108 0
M  V30 6777 O 646.769 -1.54716 -1.20166 0
M  V30 6778 H 645.349 -0.613714 0.425869 0
M  V30 6779 H 648.011 -1.09108 1.61498 0
M  V30 6780 H 647.107 -2.61634 1.70159 0
M  V30 6781 N 647.408 -1.11026 -1.11852 0
M  V30 6782 C 648.656 -0.854769 -1.83134 0
M  V30 6783 C 648.977 0.621375 -1.84835 0
M  V30 6784 O 648.247 1.45129 -1.31584 0
M  V30 6785 H 646.827 -0.313229 -0.678157 0
M  V30 6786 H 649.489 -1.40178 -1.35411 0
M  V30 6787 H 648.585 -1.22311 -2.87135 0
M  V30 6788 N 648.886 1.2938 -0.899927 0
M  V30 6789 C 650.114 1.99691 -0.541386 0
M  V30 6790 C 650.529 1.67355 0.873936 0
M  V30 6791 O 649.886 0.918728 1.57688 0
M  V30 6792 C 649.937 3.54168 -0.72438 0
M  V30 6793 O 649.658 3.85359 -2.08399 0
M  V30 6794 C 651.159 4.41746 -0.370819 0
M  V30 6795 H 648.379 0.638037 -0.207726 0
M  V30 6796 H 650.923 1.6491 -1.20934 0
M  V30 6797 H 649.078 3.87261 -0.103607 0
M  V30 6798 H 649.492 4.80032 -2.11352 0
M  V30 6799 H 650.966 5.49256 -0.549693 0
M  V30 6800 H 651.443 4.33712 0.692148 0
M  V30 6801 H 652.049 4.14125 -0.968543 0
M  V30 6802 N 650.364 0.662433 1.43002 0
M  V30 6803 C 651.294 -0.00979809 2.33498 0
M  V30 6804 C 652.275 -0.802329 1.49989 0
M  V30 6805 O 653.46 -0.761964 1.78627 0
M  V30 6806 C 650.59 -0.970446 3.33466 0
M  V30 6807 C 649.544 -0.287383 4.27034 0
M  V30 6808 C 648.87 -1.36012 5.17112 0
M  V30 6809 C 650.17 0.82595 5.15728 0
M  V30 6810 H 651.864 0.745959 2.89958 0
M  V30 6811 H 649.41 0.360172 1.39423 0
M  V30 6812 H 651.363 -1.44971 3.95679 0
M  V30 6813 H 650.087 -1.75748 2.75282 0
M  V30 6814 H 648.746 0.17152 3.66199 0
M  V30 6815 H 648.394 -2.13882 4.55262 0
M  V30 6816 H 648.094 -0.908276 5.80538 0
M  V30 6817 H 649.618 -1.84056 5.82199 0
M  V30 6818 H 651.032 0.42845 5.71697 0
M  V30 6819 H 649.429 1.20282 5.87922 0
M  V30 6820 H 650.499 1.68003 4.54866 0
M  V30 6821 N 651.842 -1.52309 0.404946 0
M  V30 6822 C 653.07 -2.06185 -0.171818 0
M  V30 6823 C 653.485 -1.27536 -1.39212 0
M  V30 6824 O 652.842 -0.326112 -1.79563 0
M  V30 6825 C 652.893 -3.57647 -0.526417 0
M  V30 6826 O 652.614 -4.3332 0.645417 0
M  V30 6827 C 654.115 -4.27925 -1.15736 0
M  V30 6828 H 651.335 -0.670632 -0.0222328 0
M  V30 6829 H 653.879 -1.96259 0.574692 0
M  V30 6830 H 652.034 -3.67595 -1.22282 0
M  V30 6831 H 652.448 -5.23328 0.35042 0
M  V30 6832 H 653.922 -5.35093 -1.35572 0
M  V30 6833 H 654.399 -3.84134 -2.12926 0
M  V30 6834 H 655.005 -4.22335 -0.501281 0
M  V30 6835 N 653.32 -0.135238 -1.57019 0
M  V30 6836 C 654.731 0.387521 -1.82634 0
M  V30 6837 C 655.082 1.65528 -1.05332 0
M  V30 6838 O 654.207 2.14381 -0.294926 0
M  V30 6839 C 654.802 0.709852 -3.3128 0
M  V30 6840 C 653.361 1.17718 -3.57518 0
M  V30 6841 C 652.508 0.194183 -2.76619 0
M  V30 6842 H 655.459 -0.360126 -1.5456 0
M  V30 6843 H 655.48 1.5657 -3.46794 0
M  V30 6844 H 654.992 -0.213024 -3.87515 0
M  V30 6845 H 653.093 2.1164 -3.06658 0
M  V30 6846 H 653.206 1.11128 -4.66034 0
M  V30 6847 H 651.57 0.684478 -2.4533 0
M  V30 6848 H 652.353 -0.722076 -3.3562 0
M  V30 6849 N 654.798 1.5699 0.138552 0
M  V30 6850 C 655.728 2.01933 1.17241 0
M  V30 6851 C 656.709 0.90033 1.44319 0
M  V30 6852 O 657.894 1.16872 1.55095 0
M  V30 6853 C 655.024 2.40711 2.50351 0
M  V30 6854 C 653.978 3.55874 2.37776 0
M  V30 6855 C 653.304 3.80491 3.75674 0
M  V30 6856 C 654.604 4.8826 1.85472 0
M  V30 6857 H 656.298 2.88551 0.798672 0
M  V30 6858 H 653.844 1.3882 0.382743 0
M  V30 6859 H 655.797 2.70754 3.22909 0
M  V30 6860 H 654.521 1.5104 2.89576 0
M  V30 6861 H 653.18 3.2601 1.67669 0
M  V30 6862 H 652.828 2.88057 4.12349 0
M  V30 6863 H 652.528 4.57998 3.68119 0
M  V30 6864 H 654.052 4.12967 4.49767 0
M  V30 6865 H 655.466 5.16965 2.4783 0
M  V30 6866 H 653.863 5.69631 1.88787 0
M  V30 6867 H 654.933 4.78071 0.810935 0
M  V30 6868 N 656.276 -0.40816 1.52223 0
M  V30 6869 C 657.501 -1.18127 1.70472 0
M  V30 6870 C 657.926 -1.83491 0.41384 0
M  V30 6871 O 657.284 -1.70047 -0.628778 0
M  V30 6872 C 657.332 -2.21935 2.84213 0
M  V30 6873 O 656.436 -3.28099 2.4985 0
M  V30 6874 H 655.777 -0.344781 0.56747 0
M  V30 6875 H 658.307 -0.478328 1.9893 0
M  V30 6876 H 658.317 -2.66248 3.09153 0
M  V30 6877 H 656.992 -1.73744 3.7787 0
M  V30 6878 H 655.569 -2.89058 2.35584 0
M  V30 6879 N 657.755 -1.42862 -0.66545 0
M  V30 6880 C 658.983 -1.47246 -1.45349 0
M  V30 6881 C 659.398 -0.0865944 -1.88601 0
M  V30 6882 O 658.755 0.900652 -1.58728 0
M  V30 6883 C 658.806 -2.40772 -2.6965 0
M  V30 6884 O 658.527 -3.73968 -2.2821 0
M  V30 6885 C 660.028 -2.54272 -3.63126 0
M  V30 6886 H 657.248 -0.500497 -0.446927 0
M  V30 6887 H 659.792 -1.87477 -0.816871 0
M  V30 6888 H 657.947 -2.0377 -3.29479 0
M  V30 6889 H 658.361 -4.24146 -3.08546 0
M  V30 6890 H 659.835 -3.23815 -4.47043 0
M  V30 6891 H 660.312 -1.58364 -4.09656 0
M  V30 6892 H 660.918 -2.92036 -3.09185 0
M  V30 6893 N 659.233 0.902656 -1.29189 0
M  V30 6894 C 660.461 1.68639 -1.19869 0
M  V30 6895 C 660.876 1.87254 0.241121 0
M  V30 6896 O 660.233 1.40745 1.16177 0
M  V30 6897 C 660.284 3.07251 -1.90471 0
M  V30 6898 O 660.005 2.89488 -3.28829 0
M  V30 6899 C 661.506 4.01653 -1.8759 0
M  V30 6900 H 658.726 0.526802 -0.415596 0
M  V30 6901 H 661.27 1.12901 -1.7051 0
M  V30 6902 H 659.425 3.59774 -1.43672 0
M  V30 6903 H 659.839 3.77296 -3.64346 0
M  V30 6904 H 661.313 4.96339 -2.4156 0
M  V30 6905 H 661.79 4.30881 -0.850756 0
M  V30 6906 H 662.396 3.55061 -2.34119 0
M  V30 6907 N 660.711 1.11618 1.11262 0
M  V30 6908 C 661.643 0.734015 2.17129 0
M  V30 6909 C 662.656 -0.235243 1.61091 0
M  V30 6910 O 663.845 -0.0178597 1.78491 0
M  V30 6911 C 660.945 0.0643682 3.38839 0
M  V30 6912 C 660.118 1.06092 4.24339 0
M  V30 6913 C 659.177 0.420482 5.24517 0
M  V30 6914 O 658.203 1.07495 5.58957 0
M  V30 6915 N 659.405 -0.815828 5.74739 0
M  V30 6916 H 662.17 1.64492 2.50524 0
M  V30 6917 H 659.731 1.00664 1.26801 0
M  V30 6918 H 661.723 -0.375851 4.02951 0
M  V30 6919 H 660.293 -0.749147 3.03491 0
M  V30 6920 H 659.513 1.67903 3.56654 0
M  V30 6921 H 660.801 1.73507 4.78302 0
M  V30 6922 H 660.199 -1.36668 5.48943 0
M  V30 6923 H 658.756 -1.199 6.40677 0
M  V30 6924 N 662.189 -1.289 0.906776 0
M  V30 6925 C 663.436 -1.95269 0.536326 0
M  V30 6926 C 663.764 -1.71435 -0.918711 0
M  V30 6927 O 663.019 -1.02431 -1.66752 0
M  V30 6928 C 663.318 -3.48704 0.783617 0
M  V30 6929 C 662.984 -3.92626 2.21711 0
M  V30 6930 C 661.646 -4.04329 2.60906 0
M  V30 6931 C 663.998 -4.15218 3.15029 0
M  V30 6932 C 661.326 -4.35998 3.92584 0
M  V30 6933 C 663.678 -4.48365 4.46264 0
M  V30 6934 C 662.342 -4.58278 4.85322 0
M  V30 6935 H 661.612 -0.714538 0.196256 0
M  V30 6936 H 664.259 -1.53366 1.14678 0
M  V30 6937 H 662.564 -3.91696 0.0903048 0
M  V30 6938 H 664.261 -3.98162 0.476267 0
M  V30 6939 H 660.851 -3.84038 1.90296 0
M  V30 6940 H 665.035 -4.05636 2.8596 0
M  V30 6941 H 660.291 -4.41878 4.22557 0
M  V30 6942 H 664.465 -4.64795 5.18593 0
M  V30 6943 H 662.092 -4.82573 5.87391 0
M  V30 6944 N 663.667 -0.670007 -1.42649 0
M  V30 6945 C 664.615 0.0230106 -2.32589 0
M  V30 6946 C 665.609 0.795585 -1.49555 0
M  V30 6947 O 666.815 0.70409 -1.65658 0
M  V30 6948 H 663.19 0.0262342 -0.751542 0
M  V30 6949 H 665.161 -0.753009 -2.88743 0
M  V30 6950 C 663.91 0.963872 -3.34073 0
M  V30 6951 H 663.233 0.378813 -3.98001 0
M  V30 6952 H 664.673 1.41755 -3.99602 0
M  V30 6953 C 663.132 2.06797 -2.65964 0
M  V30 6954 O 663.662 3.15383 -2.48789 0
M  V30 6955 N 661.868 1.83831 -2.25066 0
M  V30 6956 H 661.415 0.955235 -2.39234 0
M  V30 6957 H 661.373 2.57895 -1.79827 0
M  V30 6958 N 665.145 1.52092 -0.413018 0
M  V30 6959 C 666.075 2.30021 0.401567 0
M  V30 6960 C 667.056 1.34395 1.04269 0
M  V30 6961 O 668.241 1.63304 1.05097 0
M  V30 6962 C 665.371 3.12447 1.51638 0
M  V30 6963 C 664.325 4.16153 1.00005 0
M  V30 6964 C 663.651 4.86948 2.20875 0
M  V30 6965 C 664.951 5.22275 0.0513757 0
M  V30 6966 H 666.645 2.98365 -0.248704 0
M  V30 6967 H 664.191 1.4349 -0.121052 0
M  V30 6968 H 666.144 3.65733 2.09326 0
M  V30 6969 H 664.868 2.41879 2.19458 0
M  V30 6970 H 663.527 3.63882 0.445549 0
M  V30 6971 H 663.175 4.12905 2.8726 0
M  V30 6972 H 662.875 5.57057 1.86978 0
M  V30 6973 H 664.399 5.43048 2.79162 0
M  V30 6974 H 665.813 5.70778 0.537176 0
M  V30 6975 H 664.21 5.9977 -0.198977 0
M  V30 6976 H 665.28 4.76611 -0.892736 0
M  V30 6977 N 666.623 0.143563 1.56945 0
M  V30 6978 C 667.869 -0.50916 1.96304 0
M  V30 6979 C 668.202 -1.64741 1.0283 0
M  V30 6980 O 667.477 -1.94374 0.0700361 0
M  V30 6981 C 667.76 -1.0186 3.45393 0
M  V30 6982 C 667.613 0.117923 4.49645 0
M  V30 6983 C 668.932 -1.90151 3.96901 0
M  V30 6984 H 666.051 -0.183608 0.713763 0
M  V30 6985 H 668.693 0.224095 1.88674 0
M  V30 6986 H 666.843 -1.64345 3.52027 0
M  V30 6987 H 668.515 0.754145 4.55094 0
M  V30 6988 H 666.758 0.777568 4.26774 0
M  V30 6989 H 667.429 -0.280187 5.51288 0
M  V30 6990 H 669.905 -1.375 3.92725 0
M  V30 6991 H 668.781 -2.22707 5.0169 0
M  V30 6992 H 669.042 -2.83718 3.39052 0
M  V30 6993 N 668.101 -1.57061 -0.130224 0
M  V30 6994 C 669.031 -2.02552 -1.16168 0
M  V30 6995 C 670.012 -0.907971 -1.4384 0
M  V30 6996 O 671.197 -1.17693 -1.54473 0
M  V30 6997 C 668.327 -2.42035 -2.49071 0
M  V30 6998 C 667.281 -3.5713 -2.35886 0
M  V30 6999 C 666.607 -3.82478 -3.7365 0
M  V30 7000 C 667.907 -4.89236 -1.8288 0
M  V30 7001 H 669.601 -2.8897 -0.783359 0
M  V30 7002 H 667.147 -1.39021 -0.375376 0
M  V30 7003 H 669.1 -2.72462 -3.21469 0
M  V30 7004 H 667.824 -1.52573 -2.88771 0
M  V30 7005 H 666.483 -3.26895 -1.65938 0
M  V30 7006 H 666.131 -2.9024 -4.10816 0
M  V30 7007 H 665.831 -4.59944 -3.65685 0
M  V30 7008 H 667.355 -4.15347 -4.47571 0
M  V30 7009 H 668.769 -5.18272 -2.45085 0
M  V30 7010 H 667.166 -5.70624 -1.85763 0
M  V30 7011 H 668.236 -4.78494 -0.785571 0
M  V30 7012 N 669.579 0.400081 -1.52437 0
M  V30 7013 C 670.99 0.97851 -1.59003 0
M  V30 7014 C 671.341 1.91293 -0.436068 0
M  V30 7015 O 670.466 2.1183 0.442365 0
M  V30 7016 C 671.061 1.78145 -2.88184 0
M  V30 7017 C 669.62 2.30976 -2.97199 0
M  V30 7018 C 668.767 1.11212 -2.54022 0
M  V30 7019 H 671.718 0.180002 -1.57676 0
M  V30 7020 H 671.739 2.63968 -2.74046 0
M  V30 7021 H 671.251 1.1011 -3.72152 0
M  V30 7022 H 669.352 3.02355 -2.17744 0
M  V30 7023 H 669.465 2.61221 -4.01622 0
M  V30 7024 H 667.829 1.46882 -2.08081 0
M  V30 7025 H 668.612 0.447307 -3.40373 0
M  V30 7026 N 671.057 1.43213 0.657864 0
M  V30 7027 C 672.468 1.39669 1.23893 0
M  V30 7028 C 672.819 0.0984217 1.95953 0
M  V30 7029 O 671.944 -0.8023 2.00978 0
M  V30 7030 C 672.539 2.53004 2.25332 0
M  V30 7031 C 671.098 2.5274 2.78926 0
M  V30 7032 C 670.245 2.30941 1.53497 0
M  V30 7033 H 673.196 1.52181 0.450172 0
M  V30 7034 H 673.217 2.24226 3.07413 0
M  V30 7035 H 672.729 3.4748 1.72856 0
M  V30 7036 H 670.83 1.6213 3.35477 0
M  V30 7037 H 670.943 3.50352 3.26787 0
M  V30 7038 H 669.307 1.7952 1.80678 0
M  V30 7039 H 670.09 3.27496 1.02963 0
M  V30 7040 N 672.536 -0.895792 1.29666 0
M  V30 7041 C 673.766 -1.67757 1.20586 0
M  V30 7042 C 674.174 -1.87729 -0.235432 0
M  V30 7043 O 673.517 -1.41706 -1.16898 0
M  V30 7044 C 673.579 -3.08117 1.85215 0
M  V30 7045 C 673.243 -3.1136 3.3452 0
M  V30 7046 C 674.24 -2.91217 4.30684 0
M  V30 7047 C 671.925 -3.33302 3.75786 0
M  V30 7048 C 673.919 -2.92955 5.66089 0
M  V30 7049 C 671.606 -3.3467 5.11311 0
M  V30 7050 C 672.604 -3.14519 6.06273 0
M  V30 7051 O 672.292 -3.15684 7.39323 0
M  V30 7052 H 672.024 -0.530601 0.418854 0
M  V30 7053 H 674.578 -1.12831 1.71634 0
M  V30 7054 H 672.808 -3.64661 1.28683 0
M  V30 7055 H 674.497 -3.68399 1.70403 0
M  V30 7056 H 675.263 -2.74074 4.00136 0
M  V30 7057 H 671.142 -3.48025 3.02324 0
M  V30 7058 H 674.686 -2.77145 6.40185 0
M  V30 7059 H 670.583 -3.51346 5.41504 0
M  V30 7060 H 671.351 -3.31924 7.48177 0
M  V30 7061 N 674.014 -1.12206 -1.10668 0
M  V30 7062 C 674.961 -0.787716 -2.16942 0
M  V30 7063 C 675.931 0.244442 -1.64291 0
M  V30 7064 O 677.116 0.119558 -1.90425 0
M  V30 7065 C 674.256 -0.24584 -3.44223 0
M  V30 7066 C 673.369 -1.33552 -4.10838 0
M  V30 7067 C 672.504 -0.753337 -5.25831 0
M  V30 7068 C 671.543 -1.82231 -5.84344 0
M  V30 7069 N 670.68 -1.25902 -6.90719 0
M  V30 7070 H 675.52 -1.69809 -2.44885 0
M  V30 7071 H 673.057 -0.847862 -1.20207 0
M  V30 7072 H 675.015 0.0863639 -4.17111 0
M  V30 7073 H 673.645 0.627702 -3.16638 0
M  V30 7074 H 672.697 -1.78454 -3.35944 0
M  V30 7075 H 674.009 -2.14396 -4.50373 0
M  V30 7076 H 673.163 -0.37166 -6.05561 0
M  V30 7077 H 671.902 0.0863297 -4.87624 0
M  V30 7078 H 670.907 -2.2132 -5.03287 0
M  V30 7079 H 672.132 -2.66515 -6.24617 0
M  V30 7080 H 670.078 -0.44114 -6.54515 0
M  V30 7081 H 669.995 -2.00408 -7.28953 0
M  V30 7082 H 671.263 -0.904498 -7.74235 0
M  V30 7083 N 675.492 1.28418 -0.913599 0
M  V30 7084 C 676.908 1.47411 -0.611728 0
M  V30 7085 C 677.108 1.83018 0.843008 0
M  V30 7086 O 676.164 1.93505 1.6221 0
M  V30 7087 C 677.477 2.57703 -1.5495 0
M  V30 7088 C 679.025 2.71572 -1.5562 0
M  V30 7089 C 679.5 3.85008 -2.48058 0
M  V30 7090 N 680.991 3.92361 -2.46184 0
M  V30 7091 C 681.726 4.79516 -3.14407 0
M  V30 7092 N 681.222 5.71262 -3.91958 0
M  V30 7093 N 683.015 4.73125 -3.03495 0
M  V30 7094 H 675.166 1.03585 -1.85429 0
M  V30 7095 H 677.429 0.515907 -0.795326 0
M  V30 7096 H 677.135 2.38298 -2.58663 0
M  V30 7097 H 677.009 3.54801 -1.28048 0
M  V30 7098 H 679.396 2.90366 -0.526441 0
M  V30 7099 H 679.477 1.75006 -1.86565 0
M  V30 7100 H 679.121 3.66969 -3.51136 0
M  V30 7101 H 679.051 4.80971 -2.14416 0
M  V30 7102 H 681.542 3.26749 -1.89851 0
M  V30 7103 H 681.855 6.34593 -4.41034 0
M  V30 7104 H 680.2 5.71103 -3.96063 0
M  V30 7105 H 683.391 4.00442 -2.42413 0
M  V30 7106 H 683.564 5.40834 -3.56935 0
M  V30 7107 N 676.97 0.677563 1.42291 0
M  V30 7108 C 678.198 0.209459 2.05837 0
M  V30 7109 C 678.613 -1.13444 1.50917 0
M  V30 7110 O 677.97 -1.70529 0.65008 0
M  V30 7111 C 678.021 0.138819 3.61233 0
M  V30 7112 O 677.742 1.42962 4.14118 0
M  V30 7113 C 679.243 -0.352449 4.41897 0
M  V30 7114 H 676.463 0.101209 0.663323 0
M  V30 7115 H 679.007 0.925077 1.8238 0
M  V30 7116 H 677.162 -0.527505 3.83792 0
M  V30 7117 H 677.576 1.3048 5.08011 0
M  V30 7118 H 679.05 -0.350778 5.50884 0
M  V30 7119 H 679.527 -1.3882 4.16684 0
M  V30 7120 H 680.133 0.282236 4.24362 0
M  V30 7121 N 678.448 -1.51871 0.421078 0
M  V30 7122 C 679.411 -2.25914 -0.386712 0
M  V30 7123 C 680.411 -1.28733 -0.963555 0
M  V30 7124 O 681.601 -1.52579 -0.840556 0
M  V30 7125 C 678.733 -3.03853 -1.54551 0
M  V30 7126 H 679.926 -2.98754 0.261978 0
M  V30 7127 H 677.479 -1.5533 0.173862 0
M  V30 7128 H 678.214 -2.35392 -2.23072 0
M  V30 7129 H 677.999 -3.75215 -1.13824 0
M  V30 7130 H 679.489 -3.59984 -2.11663 0
M  V30 7131 N 679.926 -0.151884 -1.56866 0
M  V30 7132 C 680.858 0.817008 -2.14144 0
M  V30 7133 C 681.871 1.20735 -1.0921 0
M  V30 7134 O 683.06 1.15058 -1.36469 0
M  V30 7135 C 680.16 2.10844 -2.65326 0
M  V30 7136 C 679.333 1.88471 -3.94712 0
M  V30 7137 C 678.392 3.01649 -4.31155 0
M  V30 7138 O 677.418 2.73127 -4.9939 0
M  V30 7139 N 678.62 4.28947 -3.91132 0
M  V30 7140 H 681.385 0.327448 -2.97906 0
M  V30 7141 H 678.946 0.0315313 -1.61869 0
M  V30 7142 H 680.938 2.85616 -2.86715 0
M  V30 7143 H 679.508 2.51049 -1.86262 0
M  V30 7144 H 678.728 0.977088 -3.81899 0
M  V30 7145 H 680.016 1.70866 -4.79252 0
M  V30 7146 H 679.414 4.54986 -3.36161 0
M  V30 7147 H 677.971 5.00484 -4.17563 0
M  V30 7148 N 681.404 1.57128 0.121893 0
M  V30 7149 C 682.65 1.84974 0.831418 0
M  V30 7150 C 682.983 0.737204 1.79663 0
M  V30 7151 O 682.258 -0.257199 1.92792 0
M  V30 7152 C 682.541 3.23397 1.58386 0
M  V30 7153 C 682.394 4.45246 0.638445 0
M  V30 7154 C 683.713 3.59355 2.54071 0
M  V30 7155 H 680.832 0.67282 0.300803 0
M  V30 7156 H 683.474 1.89759 0.0957587 0
M  V30 7157 H 681.624 3.19449 2.21098 0
M  V30 7158 H 683.296 4.61295 0.0203925 0
M  V30 7159 H 681.539 4.33771 -0.05023 0
M  V30 7160 H 682.21 5.38765 1.20151 0
M  V30 7161 H 684.686 3.64075 2.01465 0
M  V30 7162 H 683.562 4.57193 3.03752 0
M  V30 7163 H 683.823 2.86622 3.36601 0
M  V30 7164 N 682.882 -0.391992 1.52647 0
M  V30 7165 C 684.107 -1.16312 1.71716 0
M  V30 7166 C 684.532 -1.83042 0.433279 0
M  V30 7167 O 683.89 -1.70705 -0.610707 0
M  V30 7168 C 683.938 -2.18908 2.86551 0
M  V30 7169 O 683.042 -3.2543 2.53316 0
M  V30 7170 H 682.383 -0.338743 0.571095 0
M  V30 7171 H 684.913 -0.457202 1.99426 0
M  V30 7172 H 684.923 -2.62954 3.1196 0
M  V30 7173 H 683.598 -1.69726 3.79692 0
M  V30 7174 H 682.175 -2.86543 2.38637 0
M  V30 7175 N 684.36 -1.4356 -0.65026 0
M  V30 7176 C 685.776 -1.27025 -0.966269 0
M  V30 7177 C 685.976 -0.192117 -2.00582 0
M  V30 7178 O 685.032 0.428459 -2.48838 0
M  V30 7179 C 686.345 -2.63556 -1.44772 0
M  V30 7180 C 687.893 -2.71111 -1.56421 0
M  V30 7181 C 688.368 -4.08067 -2.07956 0
M  V30 7182 N 689.859 -4.10146 -2.15254 0
M  V30 7183 C 690.594 -5.12952 -2.56258 0
M  V30 7184 N 690.09 -6.26129 -2.96537 0
M  V30 7185 N 691.883 -5.00306 -2.56224 0
M  V30 7186 H 684.034 -2.12367 0.0375758 0
M  V30 7187 H 686.297 -0.946894 -0.0457782 0
M  V30 7188 H 686.003 -3.43429 -0.758271 0
M  V30 7189 H 685.877 -2.89152 -2.42221 0
M  V30 7190 H 688.264 -1.91569 -2.24467 0
M  V30 7191 H 688.345 -2.49277 -0.573967 0
M  V30 7192 H 687.989 -4.88077 -1.40511 0
M  V30 7193 H 687.919 -4.27266 -3.07817 0
M  V30 7194 H 690.41 -3.28453 -1.86887 0
M  V30 7195 H 690.723 -7.00403 -3.26582 0
M  V30 7196 H 689.068 -6.29597 -2.94334 0
M  V30 7197 H 692.259 -4.10952 -2.24135 0
M  V30 7198 H 692.432 -5.80553 -2.87857 0
M  V30 7199 N 685.838 0.888903 -1.30139 0
M  V30 7200 C 687.084 1.6428 -1.18912 0
M  V30 7201 C 687.417 1.92499 0.256477 0
M  V30 7202 O 686.692 1.54312 1.18397 0
M  V30 7203 C 686.975 2.9851 -2.01405 0
M  V30 7204 C 686.828 2.77288 -3.54163 0
M  V30 7205 C 688.147 3.99383 -1.84882 0
M  V30 7206 H 685.266 0.596148 -0.433333 0
M  V30 7207 H 687.908 1.0289 -1.5973 0
M  V30 7208 H 686.058 3.50907 -1.66722 0
M  V30 7209 H 687.73 2.31709 -3.98884 0
M  V30 7210 H 685.973 2.11867 -3.78543 0
M  V30 7211 H 686.644 3.72717 -4.07168 0
M  V30 7212 H 689.12 3.56132 -2.15196 0
M  V30 7213 H 687.996 4.91222 -2.44934 0
M  V30 7214 H 688.257 4.34674 -0.806902 0
M  V30 7215 N 687.317 1.12792 1.10072 0
M  V30 7216 C 688.545 0.908506 1.85886 0
M  V30 7217 C 688.96 -0.542408 1.80841 0
M  V30 7218 O 688.317 -1.37517 1.1998 0
M  V30 7219 C 688.368 1.37973 3.34134 0
M  V30 7220 O 688.089 2.77378 3.39106 0
M  V30 7221 C 689.59 1.1978 4.26811 0
M  V30 7222 H 686.81 0.3244 0.587372 0
M  V30 7223 H 689.354 1.49882 1.39125 0
M  V30 7224 H 687.509 0.832566 3.78348 0
M  V30 7225 H 687.923 2.98144 4.31521 0
M  V30 7226 H 689.397 1.57635 5.29014 0
M  V30 7227 H 689.874 0.138768 4.38981 0
M  V30 7228 H 690.48 1.73266 3.88406 0
M  V30 7229 N 688.795 -1.27931 0.920396 0
M  V30 7230 C 690.072 -1.89728 0.475687 0
M  V30 7231 C 690.452 -1.8337 -1.04588 0
M  V30 7232 O 689.8 -1.27404 -1.89685 0
M  V30 7233 C 690.01 -3.33959 1.01354 0
M  V30 7234 C 691.358 -4.10907 1.06963 0
M  V30 7235 O 692.382 -3.42945 0.962646 0
M  V30 7236 O 691.241 -5.32399 1.23343 0
M  V30 7237 H 688.335 -0.81294 0.151845 0
M  V30 7238 H 690.881 -1.36252 1.01161 0
M  V30 7239 H 689.653 -3.32843 2.05746 0
M  V30 7240 H 689.276 -3.94944 0.458829 0
M  V30 7241 N 690.273 -0.685099 -1.4193 0
M  V30 7242 C 691.55 -0.140152 -1.95097 0
M  V30 7243 C 691.93 1.34745 -1.62502 0
M  V30 7244 O 691.278 2.08872 -0.926534 0
M  V30 7245 C 691.488 -0.420268 -3.4646 0
M  V30 7246 C 692.836 -0.342338 -4.23218 0
M  V30 7247 O 693.86 -0.354592 -3.54431 0
M  V30 7248 O 692.719 -0.293404 -5.45712 0
M  V30 7249 H 689.813 -0.00885998 -0.826953 0
M  V30 7250 H 692.359 -0.760539 -1.51703 0
M  V30 7251 H 691.131 -1.45037 -3.63428 0
M  V30 7252 H 690.754 0.231616 -3.96925 0
M  V30 7253 N 691.751 1.51645 -0.429126 0
M  V30 7254 C 692.681 2.30434 0.377148 0
M  V30 7255 C 693.662 1.35493 1.02838 0
M  V30 7256 O 694.847 1.6441 1.03359 0
M  V30 7257 C 691.977 3.14038 1.48315 0
M  V30 7258 C 690.931 4.1719 0.955855 0
M  V30 7259 C 690.257 4.89263 2.15698 0
M  V30 7260 C 691.557 5.223 -0.00402136 0
M  V30 7261 H 693.251 2.98085 -0.280336 0
M  V30 7262 H 690.797 1.43354 -0.136265 0
M  V30 7263 H 692.75 3.67933 2.05435 0
M  V30 7264 H 691.474 2.44193 2.16881 0
M  V30 7265 H 690.133 3.64335 0.406929 0
M  V30 7266 H 689.781 4.15929 2.82864 0
M  V30 7267 H 689.481 5.59009 1.81059 0
M  V30 7268 H 691.005 5.45978 2.73387 0
M  V30 7269 H 692.419 5.71315 0.476607 0
M  V30 7270 H 690.816 5.99525 -0.26258 0
M  V30 7271 H 691.886 4.75638 -0.943236 0
M  V30 7272 N 693.229 0.160201 1.56784 0
M  V30 7273 C 694.457 -0.494165 2.00912 0
M  V30 7274 C 694.872 -1.57548 1.04038 0
M  V30 7275 O 694.229 -1.82457 0.0394581 0
M  V30 7276 C 694.28 -1.08271 3.44905 0
M  V30 7277 O 694.001 -0.0445704 4.38077 0
M  V30 7278 C 695.502 -1.8164 4.04378 0
M  V30 7279 H 692.722 -0.127498 0.658776 0
M  V30 7280 H 695.266 0.258665 2.02858 0
M  V30 7281 H 693.421 -1.78609 3.4377 0
M  V30 7282 H 693.835 -0.477544 5.22322 0
M  V30 7283 H 695.309 -2.18094 5.07089 0
M  V30 7284 H 695.786 -2.70727 3.45838 0
M  V30 7285 H 696.392 -1.15969 4.09184 0
M  V30 7286 N 694.707 -1.5719 -0.113559 0
M  V30 7287 C 695.67 -1.99796 -1.12314 0
M  V30 7288 C 696.67 -0.888847 -1.34001 0
M  V30 7289 O 697.86 -1.15476 -1.30426 0
M  V30 7290 C 694.992 -2.34279 -2.47641 0
M  V30 7291 H 696.185 -2.90193 -0.756825 0
M  V30 7292 H 693.738 -1.52144 -0.358029 0
M  V30 7293 H 694.473 -1.46778 -2.89183 0
M  V30 7294 H 694.258 -3.15175 -2.33253 0
M  V30 7295 H 695.748 -2.67963 -3.2029 0
M  V30 7296 N 696.185 0.383891 -1.52853 0
M  V30 7297 C 697.133 1.48965 -1.7864 0
M  V30 7298 C 698.127 1.56242 -0.654577 0
M  V30 7299 O 699.333 1.59347 -0.83716 0
M  V30 7300 H 695.708 0.495892 -0.565328 0
M  V30 7301 H 697.679 1.24411 -2.71228 0
M  V30 7302 C 696.428 2.86036 -1.97683 0
M  V30 7303 H 695.751 2.81188 -2.84206 0
M  V30 7304 H 697.191 3.62632 -2.19713 0
M  V30 7305 C 695.65 3.28428 -0.750776 0
M  V30 7306 O 696.18 4.0164 0.0693491 0
M  V30 7307 N 694.386 2.84765 -0.579427 0
M  V30 7308 H 693.933 2.25353 -1.24795 0
M  V30 7309 H 693.891 3.13486 0.239544 0
M  V30 7310 N 697.663 1.43903 0.642637 0
M  V30 7311 C 698.91 1.46079 1.40239 0
M  V30 7312 C 699.238 0.0890335 1.94296 0
M  V30 7313 O 698.493 -0.907533 1.73385 0
M  V30 7314 C 698.792 2.45907 2.59354 0
M  V30 7315 C 698.458 3.91522 2.23654 0
M  V30 7316 C 697.12 4.31179 2.1363 0
M  V30 7317 C 699.472 4.83242 1.95261 0
M  V30 7318 C 696.8 5.60495 1.73384 0
M  V30 7319 C 699.152 6.12933 1.56511 0
M  V30 7320 C 697.816 6.51556 1.4502 0
M  V30 7321 H 697.086 0.534542 0.513172 0
M  V30 7322 H 699.733 1.77047 0.72984 0
M  V30 7323 H 698.038 2.08381 3.3179 0
M  V30 7324 H 699.735 2.44842 3.17574 0
M  V30 7325 H 696.325 3.60142 2.32369 0
M  V30 7326 H 700.509 4.53367 2.0192 0
M  V30 7327 H 695.765 5.89249 1.63082 0
M  V30 7328 H 699.939 6.83469 1.33576 0
M  V30 7329 H 697.566 7.51663 1.13606 0
M  V30 7330 N 699.141 -0.881989 1.30609 0
M  V30 7331 C 700.371 -1.66469 1.22359 0
M  V30 7332 C 700.779 -1.87969 -0.215507 0
M  V30 7333 O 700.122 -1.42938 -1.15388 0
M  V30 7334 C 700.184 -3.06135 1.88472 0
M  V30 7335 C 699.848 -3.07795 3.37804 0
M  V30 7336 C 700.845 -2.86633 4.33749 0
M  V30 7337 C 698.53 -3.29297 3.793 0
M  V30 7338 C 700.524 -2.86934 5.69164 0
M  V30 7339 C 698.211 -3.29228 5.14832 0
M  V30 7340 C 699.209 -3.08071 6.09574 0
M  V30 7341 O 698.897 -3.07824 7.4263 0
M  V30 7342 H 698.629 -0.526129 0.424458 0
M  V30 7343 H 701.183 -1.11004 1.72821 0
M  V30 7344 H 699.413 -3.63276 1.32543 0
M  V30 7345 H 701.102 -3.66571 1.74301 0
M  V30 7346 H 701.868 -2.69814 4.0302 0
M  V30 7347 H 697.747 -3.44799 3.05998 0
M  V30 7348 H 701.291 -2.70339 6.43088 0
M  V30 7349 H 697.188 -3.45583 5.452 0
M  V30 7350 H 697.956 -3.2397 7.51656 0
M  V30 7351 N 700.619 -1.13374 -1.09472 0
M  V30 7352 C 701.844 -0.918711 -1.85942 0
M  V30 7353 C 702.269 0.527225 -1.8056 0
M  V30 7354 O 701.627 1.37408 -1.18274 0
M  V30 7355 C 701.675 -1.41056 -3.31867 0
M  V30 7356 O 700.779 -0.595496 -4.08078 0
M  V30 7357 H 700.12 -0.329297 -0.576593 0
M  V30 7358 H 702.65 -1.50829 -1.38245 0
M  V30 7359 H 702.66 -1.41398 -3.82715 0
M  V30 7360 H 701.335 -2.46335 -3.35099 0
M  V30 7361 H 699.912 -0.659911 -3.67014 0
M  V30 7362 N 702.098 1.27442 -0.927168 0
M  V30 7363 C 703.028 2.29256 -0.443188 0
M  V30 7364 C 704.009 1.62701 0.49624 0
M  V30 7365 O 705.194 1.90013 0.401105 0
M  V30 7366 C 702.324 3.45955 0.305366 0
M  V30 7367 C 701.278 4.24501 -0.546178 0
M  V30 7368 C 700.604 5.33671 0.331512 0
M  V30 7369 C 701.904 4.89921 -1.81037 0
M  V30 7370 H 703.598 2.69988 -1.29409 0
M  V30 7371 H 701.144 1.29792 -0.623705 0
M  V30 7372 H 703.097 4.1628 0.654885 0
M  V30 7373 H 701.821 3.04138 1.19029 0
M  V30 7374 H 700.48 3.55921 -0.878398 0
M  V30 7375 H 700.128 4.88096 1.21537 0
M  V30 7376 H 699.828 5.87131 -0.234746 0
M  V30 7377 H 701.352 6.0684 0.676614 0
M  V30 7378 H 702.766 5.52536 -1.52895 0
M  V30 7379 H 701.163 5.53436 -2.32009 0
M  V30 7380 H 702.233 4.13652 -2.53021 0
M  V30 7381 N 703.576 0.692616 1.41565 0
M  V30 7382 C 704.801 0.229776 2.06123 0
M  V30 7383 C 705.226 -1.11119 1.5177 0
M  V30 7384 O 704.584 -1.69498 0.643444 0
M  V30 7385 C 704.632 0.19469 3.60074 0
M  V30 7386 O 703.736 -0.831366 4.03933 0
M  V30 7387 H 703.077 0.113002 0.654314 0
M  V30 7388 H 705.607 0.946645 1.81383 0
M  V30 7389 H 705.617 0.0245487 4.07993 0
M  V30 7390 H 704.292 1.17339 3.99004 0
M  V30 7391 H 702.869 -0.630819 3.67526 0
M  V30 7392 N 705.054 -1.51416 0.437162 0
M  V30 7393 C 706.017 -2.26312 -0.362729 0
M  V30 7394 C 707.017 -1.29748 -0.949847 0
M  V30 7395 O 708.207 -1.53462 -0.824325 0
M  V30 7396 C 705.339 -3.05475 -1.5132 0
M  V30 7397 H 706.532 -2.98459 0.29365 0
M  V30 7398 H 704.085 -1.55137 0.190327 0
M  V30 7399 H 704.82 -2.37744 -2.20563 0
M  V30 7400 H 704.605 -3.76401 -1.09838 0
M  V30 7401 H 706.095 -3.62209 -2.07833 0
M  V30 7402 N 706.532 -0.168513 -1.56696 0
M  V30 7403 C 707.462 0.758563 -2.20835 0
M  V30 7404 C 708.443 1.24121 -1.1631 0
M  V30 7405 O 709.628 1.29487 -1.4473 0
M  V30 7406 C 706.758 1.9892 -2.8469 0
M  V30 7407 C 705.712 1.64252 -3.95228 0
M  V30 7408 C 705.038 2.94757 -4.46119 0
M  V30 7409 C 706.338 0.872675 -5.14958 0
M  V30 7410 H 708.032 0.223953 -2.98561 0
M  V30 7411 H 705.578 0.106277 -1.43607 0
M  V30 7412 H 707.531 2.64275 -3.28233 0
M  V30 7413 H 706.255 2.5479 -2.04327 0
M  V30 7414 H 704.914 1.01266 -3.52336 0
M  V30 7415 H 704.562 3.48662 -3.62552 0
M  V30 7416 H 704.262 2.72316 -5.2069 0
M  V30 7417 H 705.786 3.61147 -4.92347 0
M  V30 7418 H 707.2 1.42875 -5.55211 0
M  V30 7419 H 705.597 0.747402 -5.95428 0
M  V30 7420 H 706.667 -0.131535 -4.84722 0
M  V30 7421 N 708.01 1.57248 0.105221 0
M  V30 7422 C 708.973 2.00388 1.11252 0
M  V30 7423 C 709.973 0.89594 1.33527 0
M  V30 7424 O 711.163 1.16166 1.29811 0
M  V30 7425 C 708.295 2.35589 2.46395 0
M  V30 7426 H 709.488 2.90591 0.741424 0
M  V30 7427 H 707.041 1.52332 0.349956 0
M  V30 7428 H 707.776 1.4831 2.884 0
M  V30 7429 H 707.561 3.16408 2.31578 0
M  V30 7430 H 709.051 2.69658 3.18864 0
M  V30 7431 N 709.488 -0.375779 1.53054 0
M  V30 7432 C 710.734 -1.12114 1.68992 0
M  V30 7433 C 711.067 -1.8926 0.435238 0
M  V30 7434 O 710.342 -1.86044 -0.567278 0
M  V30 7435 C 710.625 -2.08867 2.93337 0
M  V30 7436 C 710.478 -1.35397 4.28938 0
M  V30 7437 C 711.797 -3.09124 3.13257 0
M  V30 7438 H 708.916 -0.406207 0.614951 0
M  V30 7439 H 711.558 -0.403054 1.85676 0
M  V30 7440 H 709.708 -2.70102 2.79244 0
M  V30 7441 H 711.38 -0.770242 4.54824 0
M  V30 7442 H 709.623 -0.655801 4.28814 0
M  V30 7443 H 710.294 -2.06161 5.12056 0
M  V30 7444 H 712.77 -2.57987 3.26469 0
M  V30 7445 H 711.646 -3.74054 4.01715 0
M  V30 7446 H 711.907 -3.78729 2.28072 0
M  V30 7447 N 710.966 -1.44241 -0.634997 0
M  V30 7448 C 712.243 -1.37296 -1.39317 0
M  V30 7449 C 712.623 -0.0297532 -2.11079 0
M  V30 7450 O 711.971 0.987524 -2.06059 0
M  V30 7451 C 712.181 -2.56853 -2.36279 0
M  V30 7452 C 713.529 -3.00747 -2.99728 0
M  V30 7453 O 714.553 -2.5703 -2.46605 0
M  V30 7454 O 713.412 -3.76533 -3.96087 0
M  V30 7455 H 710.506 -0.543503 -0.623325 0
M  V30 7456 H 713.052 -1.56324 -0.660376 0
M  V30 7457 H 711.824 -3.46228 -1.82324 0
M  V30 7458 H 711.447 -2.40019 -3.16981 0
M  V30 7459 N 712.444 0.87505 -1.31075 0
M  V30 7460 C 713.394 1.96933 -1.14898 0
M  V30 7461 C 714.378 1.60783 -0.0613703 0
M  V30 7462 O 715.57 1.74678 -0.285751 0
M  V30 7463 C 712.699 3.3253 -0.853166 0
M  V30 7464 C 711.785 3.74963 -1.98151 0
M  V30 7465 N 712.176 3.89403 -3.22799 0
M  V30 7466 C 710.474 4.04436 -1.8801 0
M  V30 7467 C 711.175 4.25563 -3.96574 0
M  V30 7468 N 710.151 4.3597 -3.24701 0
M  V30 7469 H 713.953 2.06201 -2.09424 0
M  V30 7470 H 711.467 1.06551 -1.22558 0
M  V30 7471 H 713.464 4.10666 -0.718266 0
M  V30 7472 H 712.124 3.24592 0.0839218 0
M  V30 7473 H 713.135 3.74266 -3.57974 0
M  V30 7474 H 709.812 4.04915 -1.01733 0
M  V30 7475 H 711.202 4.44375 -5.03965 0
M  V30 7476 N 713.922 1.13953 1.08869 0
M  V30 7477 C 714.854 0.779906 2.15523 0
M  V30 7478 C 715.867 -0.20102 1.61554 0
M  V30 7479 O 717.056 0.0200049 1.78489 0
M  V30 7480 C 714.156 0.136226 3.38626 0
M  V30 7481 C 713.329 1.15069 4.21993 0
M  V30 7482 C 712.388 0.531645 5.23507 0
M  V30 7483 O 711.414 1.19327 5.56552 0
M  V30 7484 N 712.616 -0.693734 5.7634 0
M  V30 7485 H 715.381 1.69769 2.46979 0
M  V30 7486 H 712.942 1.03331 1.24637 0
M  V30 7487 H 714.934 -0.290295 4.03658 0
M  V30 7488 H 713.504 -0.684603 3.05011 0
M  V30 7489 H 712.724 1.75431 3.53012 0
M  V30 7490 H 714.012 1.83614 4.74514 0
M  V30 7491 H 713.41 -1.24994 5.51718 0
M  V30 7492 H 711.967 -1.06283 6.43076 0
M  V30 7493 N 715.4 -1.26948 0.933913 0
M  V30 7494 C 716.648 -1.93704 0.576484 0
M  V30 7495 C 716.969 -1.73702 -0.886145 0
M  V30 7496 O 716.239 -1.08838 -1.62884 0
M  V30 7497 H 714.819 -0.716812 0.210214 0
M  V30 7498 H 717.481 -1.54534 1.18766 0
M  V30 7499 H 716.577 -3.01987 0.788055 0
M  V30 7500 N 716.879 -0.700114 -1.41195 0
M  V30 7501 C 717.827 -0.0263301 -2.32585 0
M  V30 7502 C 718.821 0.763683 -1.51209 0
M  V30 7503 O 720.027 0.668793 -1.67114 0
M  V30 7504 H 716.402 0.0102869 -0.75193 0
M  V30 7505 H 718.373 -0.814087 -2.8708 0
M  V30 7506 C 717.122 0.892793 -3.36042 0
M  V30 7507 H 716.445 0.294306 -3.98715 0
M  V30 7508 H 717.885 1.33247 -4.02518 0
M  V30 7509 C 716.344 2.01109 -2.7029 0
M  V30 7510 O 716.874 3.10035 -2.55423 0
M  V30 7511 N 715.08 1.79015 -2.28915 0
M  V30 7512 H 714.627 0.904275 -2.41207 0
M  V30 7513 H 714.585 2.54022 -1.85257 0
M  V30 7514 N 718.357 1.51182 -0.445186 0
M  V30 7515 C 719.773 1.59299 -0.0978954 0
M  V30 7516 C 719.973 1.4555 1.39346 0
M  V30 7517 O 719.029 1.30073 2.16419 0
M  V30 7518 C 720.342 2.94133 -0.625005 0
M  V30 7519 C 721.89 3.07463 -0.586137 0
M  V30 7520 C 722.365 4.44832 -1.09035 0
M  V30 7521 N 723.856 4.51173 -1.04867 0
M  V30 7522 C 724.591 5.55804 -1.40959 0
M  V30 7523 N 724.087 6.67816 -1.84375 0
M  V30 7524 N 725.88 5.46205 -1.32726 0
M  V30 7525 H 718.031 1.58363 -1.41544 0
M  V30 7526 H 720.294 0.746946 -0.58376 0
M  V30 7527 H 720 3.09589 -1.66876 0
M  V30 7528 H 719.874 3.77161 -0.0542262 0
M  V30 7529 H 722.261 2.9167 0.448646 0
M  V30 7530 H 722.342 2.26255 -1.19341 0
M  V30 7531 H 721.986 4.61372 -2.12364 0
M  V30 7532 H 721.916 5.24591 -0.459539 0
M  V30 7533 H 724.407 3.70783 -0.729932 0
M  V30 7534 H 724.72 7.43683 -2.10131 0
M  V30 7535 H 723.065 6.69003 -1.88308 0
M  V30 7536 H 726.256 4.57583 -0.986678 0
M  V30 7537 H 726.429 6.27634 -1.61182 0
M  V30 7538 N 719.835 0.176821 1.56605 0
M  V30 7539 C 721.06 -0.47599 2.01864 0
M  V30 7540 C 721.485 -1.55645 1.05623 0
M  V30 7541 O 720.843 -1.81263 0.0366729 0
M  V30 7542 C 720.891 -1.02619 3.4569 0
M  V30 7543 O 719.995 -2.13996 3.52533 0
M  V30 7544 H 719.336 -0.113363 0.654251 0
M  V30 7545 H 721.866 0.28233 2.02643 0
M  V30 7546 H 721.876 -1.34742 3.85109 0
M  V30 7547 H 720.551 -0.235138 4.15235 0
M  V30 7548 H 719.128 -1.82876 3.24978 0
M  V30 7549 N 721.313 -1.57302 -0.09688 0
M  V30 7550 C 722.261 -2.02942 -1.13654 0
M  V30 7551 C 723.255 -0.930173 -1.41577 0
M  V30 7552 O 724.461 -1.11535 -1.41279 0
M  V30 7553 H 720.836 -0.646726 -0.383731 0
M  V30 7554 H 722.807 -2.89452 -0.725267 0
M  V30 7555 C 721.556 -2.46815 -2.44903 0
M  V30 7556 H 720.879 -3.30979 -2.24261 0
M  V30 7557 H 722.319 -2.82527 -3.16156 0
M  V30 7558 C 720.778 -1.34071 -3.09074 0
M  V30 7559 O 721.308 -0.668856 -3.96092 0
M  V30 7560 N 719.514 -1.09214 -2.69296 0
M  V30 7561 H 719.061 -1.64029 -1.98626 0
M  V30 7562 H 719.019 -0.339785 -3.12559 0
M  V30 7563 N 722.791 0.367657 -1.53252 0
M  V30 7564 C 724.016 1.13566 -1.73544 0
M  V30 7565 C 724.441 1.82329 -0.462344 0
M  V30 7566 O 723.799 1.71655 0.583472 0
M  V30 7567 C 723.847 2.14322 -2.89997 0
M  V30 7568 O 722.951 3.21359 -2.58461 0
M  V30 7569 H 722.292 0.329614 -0.576412 0
M  V30 7570 H 724.822 0.425417 -2.00128 0
M  V30 7571 H 724.832 2.57958 -3.16104 0
M  V30 7572 H 723.507 1.63664 -3.82344 0
M  V30 7573 H 722.084 2.8271 -2.43165 0
M  V30 7574 N 724.269 1.44576 0.627338 0
M  V30 7575 C 725.516 1.47558 1.38682 0
M  V30 7576 C 725.844 0.109636 1.94191 0
M  V30 7577 O 725.099 -0.889092 1.74338 0
M  V30 7578 C 725.398 2.48644 2.56731 0
M  V30 7579 C 725.064 3.93873 2.19489 0
M  V30 7580 C 723.726 4.33421 2.09045 0
M  V30 7581 C 726.078 4.85286 1.90124 0
M  V30 7582 C 723.406 5.62303 1.6743 0
M  V30 7583 C 725.758 6.14559 1.50001 0
M  V30 7584 C 724.422 6.53058 1.38101 0
M  V30 7585 H 723.692 0.539955 0.507474 0
M  V30 7586 H 726.339 1.77811 0.711021 0
M  V30 7587 H 724.644 2.11889 3.29561 0
M  V30 7588 H 726.341 2.48197 3.14959 0
M  V30 7589 H 722.931 3.62587 2.28537 0
M  V30 7590 H 727.115 4.55483 1.971 0
M  V30 7591 H 722.371 5.90945 1.56823 0
M  V30 7592 H 726.545 6.84848 1.26319 0
M  V30 7593 H 724.172 7.52826 1.05628 0
M  V30 7594 N 725.747 -0.868086 1.31537 0
M  V30 7595 C 726.975 -1.65402 1.24298 0
M  V30 7596 C 727.39 -1.87827 -0.191389 0
M  V30 7597 O 726.747 -1.43776 -1.12404 0
M  V30 7598 C 726.798 -3.02093 1.9855 0
M  V30 7599 O 726.519 -2.80668 3.36388 0
M  V30 7600 C 728.02 -3.96538 1.98173 0
M  V30 7601 H 725.24 -0.515598 0.429417 0
M  V30 7602 H 727.784 -1.0834 1.73444 0
M  V30 7603 H 725.939 -3.55838 1.53161 0
M  V30 7604 H 726.353 -3.67504 3.74221 0
M  V30 7605 H 727.827 -4.8976 2.54635 0
M  V30 7606 H 728.304 -4.28474 0.964697 0
M  V30 7607 H 728.91 -3.48729 2.4345 0
M  V30 7608 N 727.225 -1.14528 -1.08264 0
M  V30 7609 C 728.155 -0.856356 -2.1723 0
M  V30 7610 C 729.136 0.189251 -1.69044 0
M  V30 7611 O 730.321 0.0456119 -1.94146 0
M  V30 7612 C 727.451 -0.334662 -3.45684 0
M  V30 7613 C 726.405 -1.31588 -4.0727 0
M  V30 7614 C 725.731 -0.653428 -5.30692 0
M  V30 7615 C 727.031 -2.67866 -4.48381 0
M  V30 7616 H 728.725 -1.76755 -2.41657 0
M  V30 7617 H 726.271 -0.851287 -1.16143 0
M  V30 7618 H 728.224 -0.120128 -4.21229 0
M  V30 7619 H 726.948 0.611967 -3.20815 0
M  V30 7620 H 725.607 -1.51661 -3.33758 0
M  V30 7621 H 725.255 0.299054 -5.0211 0
M  V30 7622 H 724.955 -1.30817 -5.72853 0
M  V30 7623 H 726.479 -0.448453 -6.08951 0
M  V30 7624 H 727.893 -2.51692 -5.15096 0
M  V30 7625 H 726.29 -3.29627 -5.01464 0
M  V30 7626 H 727.36 -3.24632 -3.60198 0
M  V30 7627 N 728.703 1.26451 -0.940633 0
M  V30 7628 C 729.928 1.98407 -0.60412 0
M  V30 7629 C 730.353 1.69584 0.81382 0
M  V30 7630 O 729.711 0.943553 1.54812 0
M  V30 7631 C 729.759 3.50387 -0.852136 0
M  V30 7632 O 728.863 4.1233 0.076013 0
M  V30 7633 H 728.204 0.622466 -0.231153 0
M  V30 7634 H 730.734 1.60932 -1.26342 0
M  V30 7635 H 730.744 4.00614 -0.772816 0
M  V30 7636 H 729.419 3.70696 -1.88566 0
M  V30 7637 H 727.996 3.7286 -0.0543187 0
M  V30 7638 N 730.181 0.707592 1.40822 0
M  V30 7639 C 731.427 0.244031 2.01326 0
M  V30 7640 C 731.76 -1.15722 1.55955 0
M  V30 7641 O 731.035 -1.78347 0.776044 0
M  V30 7642 C 731.318 0.315128 3.58718 0
M  V30 7643 C 731.171 1.75419 4.14184 0
M  V30 7644 C 732.49 -0.318251 4.38948 0
M  V30 7645 H 729.609 0.0901471 0.731466 0
M  V30 7646 H 732.251 0.898584 1.67408 0
M  V30 7647 H 730.401 -0.242176 3.87744 0
M  V30 7648 H 732.073 2.36626 3.95987 0
M  V30 7649 H 730.316 2.28449 3.68773 0
M  V30 7650 H 730.987 1.75538 5.23345 0
M  V30 7651 H 733.463 0.156514 4.15806 0
M  V30 7652 H 732.339 -0.238019 5.48384 0
M  V30 7653 H 732.6 -1.40067 4.19325 0
M  V30 7654 N 731.66 -1.50943 0.453197 0
M  V30 7655 C 732.888 -2.06628 -0.106135 0
M  V30 7656 C 733.303 -1.31901 -1.35084 0
M  V30 7657 O 732.66 -0.383074 -1.78434 0
M  V30 7658 C 732.711 -3.5914 -0.412368 0
M  V30 7659 O 732.432 -4.31047 0.782948 0
M  V30 7660 C 733.933 -4.31391 -1.02064 0
M  V30 7661 H 731.153 -0.670999 -0.000885896 0
M  V30 7662 H 733.697 -1.94331 0.63684 0
M  V30 7663 H 731.852 -3.71299 -1.10526 0
M  V30 7664 H 732.266 -5.21948 0.516736 0
M  V30 7665 H 733.74 -5.39135 -1.1848 0
M  V30 7666 H 734.217 -3.90714 -2.00598 0
M  V30 7667 H 734.823 -4.23716 -0.366664 0
M  V30 7668 N 733.138 -0.185124 -1.56509 0
M  V30 7669 C 734.384 0.456934 -1.97585 0
M  V30 7670 C 734.717 1.61957 -1.07161 0
M  V30 7671 O 733.992 1.9412 -0.121546 0
M  V30 7672 C 734.275 0.926666 -3.47973 0
M  V30 7673 C 734.128 -0.237097 -4.49175 0
M  V30 7674 C 735.447 1.79561 -4.01803 0
M  V30 7675 H 732.566 0.164619 -0.71838 0
M  V30 7676 H 735.208 -0.274039 -1.88013 0
M  V30 7677 H 733.358 1.54954 -3.56261 0
M  V30 7678 H 735.03 -0.87454 -4.52934 0
M  V30 7679 H 733.273 -0.890446 -4.24563 0
M  V30 7680 H 733.944 0.133924 -5.51838 0
M  V30 7681 H 736.42 1.27039 -3.96232 0
M  V30 7682 H 735.296 2.09327 -5.07418 0
M  V30 7683 H 735.557 2.74629 -3.46455 0
M  V30 7684 N 734.616 1.57351 0.0885366 0
M  V30 7685 C 735.548 1.99221 1.13329 0
M  V30 7686 C 736.561 0.895705 1.35945 0
M  V30 7687 O 737.75 1.17376 1.34481 0
M  V30 7688 C 734.85 2.3016 2.48756 0
M  V30 7689 C 734.023 3.61444 2.46327 0
M  V30 7690 C 733.082 3.80244 3.63732 0
M  V30 7691 O 732.108 4.52024 3.45924 0
M  V30 7692 N 733.31 3.2132 4.8346 0
M  V30 7693 H 736.075 2.89456 0.776862 0
M  V30 7694 H 733.636 1.59505 0.277428 0
M  V30 7695 H 735.628 2.39925 3.25911 0
M  V30 7696 H 734.198 1.459 2.76464 0
M  V30 7697 H 733.418 3.62588 1.54673 0
M  V30 7698 H 734.706 4.47678 2.41789 0
M  V30 7699 H 734.104 2.63028 5.00832 0
M  V30 7700 H 732.661 3.3656 5.58185 0
M  V30 7701 N 736.094 -0.359525 1.53444 0
M  V30 7702 C 737.026 -1.46098 1.76602 0
M  V30 7703 C 738.039 -1.49395 0.646912 0
M  V30 7704 O 739.228 -1.52765 0.923307 0
M  V30 7705 C 736.328 -2.84836 1.83635 0
M  V30 7706 C 735.501 -3.05164 3.13358 0
M  V30 7707 C 734.56 -4.24051 3.11556 0
M  V30 7708 O 733.586 -4.18935 3.85334 0
M  V30 7709 N 734.788 -5.31775 2.328 0
M  V30 7710 H 737.553 -1.2661 2.71643 0
M  V30 7711 H 735.114 -0.549294 1.52297 0
M  V30 7712 H 737.106 -3.62516 1.799 0
M  V30 7713 H 735.676 -2.97542 0.958509 0
M  V30 7714 H 734.896 -2.15091 3.30348 0
M  V30 7715 H 736.184 -3.15619 3.99076 0
M  V30 7716 H 735.582 -5.38796 1.7238 0
M  V30 7717 H 734.139 -6.0801 2.34877 0
M  V30 7718 N 737.572 -1.44907 -0.619662 0
M  V30 7719 C 738.983 -1.42905 -1.20146 0
M  V30 7720 C 739.334 -0.150341 -1.95623 0
M  V30 7721 O 738.459 0.748732 -2.03034 0
M  V30 7722 C 739.054 -2.58889 -2.18545 0
M  V30 7723 C 737.613 -2.60046 -2.72127 0
M  V30 7724 C 736.76 -2.3493 -1.4732 0
M  V30 7725 H 739.711 -1.53321 -0.409666 0
M  V30 7726 H 739.732 -2.32298 -3.0136 0
M  V30 7727 H 739.244 -3.51941 -1.63583 0
M  V30 7728 H 737.345 -1.70968 -3.3106 0
M  V30 7729 H 737.458 -3.58893 -3.17384 0
M  V30 7730 H 735.822 -1.84248 -1.75855 0
M  V30 7731 H 736.605 -3.3011 -0.942442 0
M  V30 7732 N 739.05 0.861098 -1.31996 0
M  V30 7733 C 739.982 1.97551 -1.16216 0
M  V30 7734 C 740.995 1.625 -0.0988527 0
M  V30 7735 O 742.184 1.75091 -0.3472 0
M  V30 7736 C 739.284 3.30376 -0.755307 0
M  V30 7737 C 738.457 3.93711 -1.90552 0
M  V30 7738 C 737.516 5.04862 -1.48328 0
M  V30 7739 O 736.542 5.25204 -2.19431 0
M  V30 7740 N 737.744 5.79283 -0.375656 0
M  V30 7741 H 740.509 2.11632 -2.12208 0
M  V30 7742 H 738.07 1.03559 -1.24448 0
M  V30 7743 H 740.062 4.0213 -0.455364 0
M  V30 7744 H 738.632 3.12395 0.113269 0
M  V30 7745 H 737.852 3.14825 -2.37231 0
M  V30 7746 H 739.14 4.32762 -2.67571 0
M  V30 7747 H 738.538 5.65286 0.216284 0
M  V30 7748 H 737.095 6.5166 -0.135289 0
M  V30 7749 N 740.528 1.15101 1.07655 0
M  V30 7750 C 741.458 0.867864 2.16773 0
M  V30 7751 C 742.439 -0.180283 1.69142 0
M  V30 7752 O 743.624 -0.0353152 1.94168 0
M  V30 7753 C 740.754 0.35299 3.45501 0
M  V30 7754 C 739.708 1.33746 4.06566 0
M  V30 7755 C 739.034 0.681562 5.30338 0
M  V30 7756 C 740.334 2.7024 4.46954 0
M  V30 7757 H 742.028 1.78034 2.40716 0
M  V30 7758 H 739.574 0.857435 1.15689 0
M  V30 7759 H 741.527 0.142465 4.21159 0
M  V30 7760 H 740.251 -0.594945 3.21135 0
M  V30 7761 H 738.91 1.53429 3.32949 0
M  V30 7762 H 738.558 -0.272422 5.02262 0
M  V30 7763 H 738.258 1.33853 5.72151 0
M  V30 7764 H 739.782 0.48074 6.08705 0
M  V30 7765 H 741.196 2.5442 5.13754 0
M  V30 7766 H 739.593 3.32282 4.99709 0
M  V30 7767 H 740.663 3.26537 3.58471 0
M  V30 7768 N 742.006 -1.2595 0.947325 0
M  V30 7769 C 743.234 -1.97544 0.615127 0
M  V30 7770 C 743.649 -1.70484 -0.811221 0
M  V30 7771 O 743.006 -0.97662 -1.5417 0
M  V30 7772 C 743.057 -3.51236 0.855328 0
M  V30 7773 O 742.778 -3.77359 2.22558 0
M  V30 7774 C 744.279 -4.40066 0.534515 0
M  V30 7775 H 741.499 -0.629888 0.231263 0
M  V30 7776 H 744.043 -1.60308 1.26971 0
M  V30 7777 H 742.198 -3.8661 0.247266 0
M  V30 7778 H 742.612 -4.71857 2.29022 0
M  V30 7779 H 744.086 -5.46838 0.753168 0
M  V30 7780 H 744.563 -4.35982 -0.530701 0
M  V30 7781 H 745.169 -4.10245 1.12158 0
M  V30 7782 N 743.484 -0.715051 -1.40445 0
M  V30 7783 C 744.414 -0.0768699 -2.33373 0
M  V30 7784 C 745.395 0.746109 -1.52863 0
M  V30 7785 O 746.58 0.695142 -1.81332 0
M  V30 7786 C 743.71 0.846014 -3.36838 0
M  V30 7787 C 742.664 0.128694 -4.27806 0
M  V30 7788 C 741.99 1.16726 -5.21804 0
M  V30 7789 C 743.29 -1.01679 -5.12307 0
M  V30 7790 H 744.984 -0.853061 -2.8699 0
M  V30 7791 H 742.53 -0.41167 -1.3799 0
M  V30 7792 H 744.483 1.30185 -4.00786 0
M  V30 7793 H 743.207 1.6541 -2.81615 0
M  V30 7794 H 741.866 -0.307314 -3.6531 0
M  V30 7795 H 741.514 1.96838 -4.62887 0
M  V30 7796 H 741.214 0.692188 -5.83509 0
M  V30 7797 H 742.738 1.62321 -5.88629 0
M  V30 7798 H 744.152 -0.640337 -5.69713 0
M  V30 7799 H 742.549 -1.4202 -5.83053 0
M  V30 7800 H 743.619 -1.84769 -4.48317 0
M  V30 7801 N 744.962 1.50701 -0.461195 0
M  V30 7802 C 746.19 2.06681 0.0951756 0
M  V30 7803 C 746.605 1.32615 1.34382 0
M  V30 7804 O 745.962 0.392531 1.78229 0
M  V30 7805 C 746.013 3.59354 0.393316 0
M  V30 7806 O 745.734 4.30626 -0.805797 0
M  V30 7807 C 747.235 4.31926 0.997744 0
M  V30 7808 H 744.455 0.670995 -0.00267259 0
M  V30 7809 H 746.999 1.93991 -0.647137 0
M  V30 7810 H 745.154 3.7188 1.08555 0
M  V30 7811 H 745.568 5.21667 -0.544409 0
M  V30 7812 H 747.042 5.39756 1.15619 0
M  V30 7813 H 747.519 3.91772 1.98523 0
M  V30 7814 H 748.125 4.23905 0.344188 0
M  V30 7815 N 746.441 0.193421 1.56409 0
M  V30 7816 C 747.404 -0.714371 2.17783 0
M  V30 7817 C 748.404 -1.1422 1.13183 0
M  V30 7818 O 749.594 -1.05557 1.38576 0
M  V30 7819 C 746.726 -1.97509 2.77855 0
M  V30 7820 H 747.919 -0.179714 2.99361 0
M  V30 7821 H 745.472 -0.0561944 1.56199 0
M  V30 7822 H 746.207 -2.5523 2.0007 0
M  V30 7823 H 745.992 -1.67706 3.54425 0
M  V30 7824 H 747.482 -2.62246 3.24987 0
M  V30 7825 N 747.919 -1.57396 -0.0801906 0
M  V30 7826 C 748.882 -2.02133 -1.0805 0
M  V30 7827 C 749.882 -0.91707 -1.32085 0
M  V30 7828 O 751.072 -1.18217 -1.27947 0
M  V30 7829 C 748.204 -2.39479 -2.42616 0
M  V30 7830 H 749.397 -2.91733 -0.6951 0
M  V30 7831 H 746.95 -1.52869 -0.325677 0
M  V30 7832 H 747.685 -1.52879 -2.86004 0
M  V30 7833 H 747.47 -3.20052 -2.26515 0
M  V30 7834 H 748.96 -2.74697 -3.14534 0
M  V30 7835 N 749.397 0.351382 -1.53633 0
M  V30 7836 C 750.643 1.09411 -1.70754 0
M  V30 7837 C 750.976 1.88544 -0.465293 0
M  V30 7838 O 750.251 1.86923 0.537608 0
M  V30 7839 C 750.534 2.04173 -2.96623 0
M  V30 7840 C 750.387 1.28556 -4.31038 0
M  V30 7841 C 751.706 3.04102 -3.18136 0
M  V30 7842 H 748.825 0.396373 -0.621335 0
M  V30 7843 H 751.467 0.373464 -1.86293 0
M  V30 7844 H 749.617 2.65625 -2.83506 0
M  V30 7845 H 751.289 0.697786 -4.55992 0
M  V30 7846 H 749.532 0.587498 -4.29803 0
M  V30 7847 H 750.203 1.97989 -5.15271 0
M  V30 7848 H 752.679 2.5276 -3.30532 0
M  V30 7849 H 751.555 3.67616 -4.07615 0
M  V30 7850 H 751.816 3.75053 -2.34068 0
M  V30 7851 N 750.875 1.45233 0.611969 0
M  V30 7852 C 752.124 1.48296 1.36716 0
M  V30 7853 C 752.437 0.12706 1.95187 0
M  V30 7854 O 753.643 0.0353066 2.71477 0
M  V30 7855 C 752.099 2.61168 2.47627 0
M  V30 7856 C 751.707 4.03051 1.95587 0
M  V30 7857 C 753.451 2.73472 3.24674 0
M  V30 7858 C 751.358 5.07312 3.03954 0
M  V30 7859 H 750.288 0.5518 0.513841 0
M  V30 7860 H 752.939 1.7136 0.656359 0
M  V30 7861 H 751.321 2.31379 3.21372 0
M  V30 7862 H 752.495 4.42497 1.2858 0
M  V30 7863 H 750.81 3.95158 1.31298 0
M  V30 7864 H 753.407 3.48537 4.05494 0
M  V30 7865 H 753.75 1.79953 3.75397 0
M  V30 7866 H 754.283 3.02765 2.58028 0
M  V30 7867 H 751.022 6.02525 2.58154 0
M  V30 7868 H 750.542 4.7244 3.69541 0
M  V30 7869 H 752.221 5.31867 3.6841 0
M  V30 7870 N 752.353 -0.854086 1.3245 0
M  V30 7871 C 753.601 -1.60513 1.228 0
M  V30 7872 C 753.922 -1.93865 -0.210073 0
M  V30 7873 O 753.192 -1.59673 -1.13496 0
M  V30 7874 H 751.772 -0.595099 0.451516 0
M  V30 7875 H 754.434 -1.0216 1.6598 0
M  V30 7876 H 753.53 -2.54182 1.81102 0
M  V30 7877 N 753.831 -1.1567 -1.07043 0
M  V30 7878 C 755.108 -0.843948 -1.76456 0
M  V30 7879 C 755.488 0.659806 -2.00524 0
M  V30 7880 O 754.836 1.60518 -1.62623 0
M  V30 7881 C 755.046 -1.65822 -3.0709 0
M  V30 7882 C 756.394 -1.8664 -3.8138 0
M  V30 7883 O 757.418 -1.62624 -3.1691 0
M  V30 7884 O 756.277 -2.26884 -4.97178 0
M  V30 7885 H 753.371 -0.310677 -0.766426 0
M  V30 7886 H 755.917 -1.26266 -1.1338 0
M  V30 7887 H 754.689 -2.67902 -2.85209 0
M  V30 7888 H 754.312 -1.23605 -3.77899 0
M  V30 7889 N 755.309 1.25446 -0.953992 0
M  V30 7890 C 756.557 1.92762 -0.607227 0
M  V30 7891 C 756.878 1.7509 0.858399 0
M  V30 7892 O 756.148 1.11416 1.61132 0
M  V30 7893 H 754.728 0.713377 -0.221591 0
M  V30 7894 H 757.39 1.52625 -1.21209 0
M  V30 7895 H 756.486 3.00695 -0.835998 0
M  V30 7896 N 756.787 0.722489 1.40064 0
M  V30 7897 C 757.75 0.0830209 2.2905 0
M  V30 7898 C 758.75 -0.680208 1.45705 0
M  V30 7899 O 759.94 -0.511084 1.66534 0
M  V30 7900 C 757.072 -0.892092 3.29021 0
M  V30 7901 H 758.265 0.866848 2.87099 0
M  V30 7902 H 755.818 0.487556 1.48501 0
M  V30 7903 H 756.553 -1.70273 2.76003 0
M  V30 7904 H 756.338 -0.34761 3.90556 0
M  V30 7905 H 757.828 -1.33648 3.95636 0
M  V30 7906 N 758.265 -1.50454 0.469181 0
M  V30 7907 C 759.676 -1.86695 0.0136034 0
M  V30 7908 C 760.027 -1.38413 -1.39055 0
M  V30 7909 O 759.152 -0.748294 -2.03051 0
M  V30 7910 C 759.747 -3.38795 0.0179098 0
M  V30 7911 C 758.306 -3.74455 -0.382191 0
M  V30 7912 C 757.453 -2.74338 0.404207 0
M  V30 7913 H 760.404 -1.43225 0.683547 0
M  V30 7914 H 760.425 -3.72321 -0.78468 0
M  V30 7915 H 759.937 -3.73906 1.04 0
M  V30 7916 H 758.038 -3.44944 -1.4087 0
M  V30 7917 H 758.151 -4.79025 -0.084862 0
M  V30 7918 H 756.515 -2.54305 -0.141829 0
M  V30 7919 H 757.298 -3.12293 1.42577 0
M  V30 7920 N 759.743 -0.201713 -1.56304 0
M  V30 7921 C 760.706 0.702811 -2.18159 0
M  V30 7922 C 761.706 1.13619 -1.13787 0
M  V30 7923 O 762.896 1.0482 -1.39134 0
M  V30 7924 C 760.028 1.96032 -2.78898 0
M  V30 7925 H 761.221 0.163836 -2.99452 0
M  V30 7926 H 758.774 0.04791 -1.56227 0
M  V30 7927 H 759.509 2.54165 -2.01421 0
M  V30 7928 H 759.294 1.65824 -3.55309 0
M  V30 7929 H 760.784 2.60519 -3.26373 0
M  V30 7930 N 761.222 1.57436 0.0718424 0
M  V30 7931 C 762.17 2.04725 1.10411 0
M  V30 7932 C 763.164 0.952579 1.4008 0
M  V30 7933 O 764.37 1.13769 1.39487 0
M  V30 7934 H 760.745 0.652749 0.373393 0
M  V30 7935 H 762.716 2.90569 0.679126 0
M  V30 7936 C 761.465 2.5068 2.40946 0
M  V30 7937 H 760.788 3.34505 2.18967 0
M  V30 7938 H 762.228 2.87521 3.11621 0
M  V30 7939 C 760.687 1.38971 3.06902 0
M  V30 7940 O 761.217 0.731786 3.94978 0
M  V30 7941 N 759.423 1.13485 2.67525 0
M  V30 7942 H 758.97 1.67168 1.95991 0
M  V30 7943 H 758.928 0.389467 3.11978 0
M  V30 7944 N 762.7 -0.34323 1.53817 0
M  V30 7945 C 763.948 -1.0813 1.70741 0
M  V30 7946 C 764.269 -1.89165 0.473461 0
M  V30 7947 O 763.539 -1.89075 -0.512605 0
M  V30 7948 H 762.119 -0.40219 0.629486 0
M  V30 7949 H 764.781 -0.384426 1.91071 0
M  V30 7950 H 763.877 -1.7585 2.57843 0
M  V30 7951 N 764.178 -1.45556 -0.604258 0
M  V30 7952 C 765.125 -1.54482 -1.71476 0
M  V30 7953 C 766.095 -0.390479 -1.61445 0
M  V30 7954 O 767.28 -0.604371 -1.80975 0
M  V30 7955 C 764.42 -1.52064 -3.09791 0
M  V30 7956 C 763.533 -2.78073 -3.30604 0
M  V30 7957 C 762.668 -2.67304 -4.59044 0
M  V30 7958 C 761.707 -3.88352 -4.73127 0
M  V30 7959 N 760.844 -3.76098 -5.9287 0
M  V30 7960 H 765.684 -2.49349 -1.63184 0
M  V30 7961 H 763.221 -1.23725 -0.795641 0
M  V30 7962 H 765.179 -1.48649 -3.89819 0
M  V30 7963 H 763.809 -0.607442 -3.17033 0
M  V30 7964 H 762.861 -2.91561 -2.44329 0
M  V30 7965 H 764.173 -3.67847 -3.36883 0
M  V30 7966 H 763.327 -2.61875 -5.47272 0
M  V30 7967 H 762.066 -1.75135 -4.55169 0
M  V30 7968 H 761.071 -3.94137 -3.83322 0
M  V30 7969 H 762.296 -4.81591 -4.78797 0
M  V30 7970 H 760.242 -2.867 -5.90033 0
M  V30 7971 H 760.159 -4.59509 -6.00323 0
M  V30 7972 H 761.427 -3.74607 -6.83586 0
M  V30 7973 N 765.656 0.84705 -1.32902 0
M  V30 7974 C 766.884 1.63403 -1.26913 0
M  V30 7975 C 767.299 1.88108 0.161483 0
M  V30 7976 O 766.656 1.45546 1.10103 0
M  V30 7977 C 766.707 2.98896 -2.03331 0
M  V30 7978 O 766.428 2.75281 -3.40811 0
M  V30 7979 C 767.929 3.93335 -2.04457 0
M  V30 7980 H 765.149 0.508701 -0.437566 0
M  V30 7981 H 767.693 1.05567 -1.75145 0
M  V30 7982 H 765.848 3.53356 -1.58802 0
M  V30 7983 H 766.262 3.61504 -3.8002 0
M  V30 7984 H 767.736 4.85647 -2.62394 0
M  V30 7985 H 768.213 4.26885 -1.03274 0
M  V30 7986 H 768.819 3.44812 -2.48967 0
M  V30 7987 N 767.134 1.16236 1.06428 0
M  V30 7988 C 768.097 0.870163 2.1204 0
M  V30 7989 C 769.097 -0.134239 1.60239 0
M  V30 7990 O 770.287 0.0964932 1.73933 0
M  V30 7991 C 767.419 0.301033 3.39568 0
M  V30 7992 H 768.612 1.8064 2.39394 0
M  V30 7993 H 766.165 0.971116 1.2247 0
M  V30 7994 H 766.9 -0.642948 3.17863 0
M  V30 7995 H 766.685 1.02475 3.78472 0
M  V30 7996 H 768.175 0.114494 4.17443 0
M  V30 7997 N 768.612 -1.24939 0.960631 0
M  V30 7998 C 769.861 -1.92118 0.614298 0
M  V30 7999 C 770.174 -1.75998 -0.853474 0
M  V30 8000 O 771.38 -2.37804 -1.31003 0
M  V30 8001 C 769.836 -3.44303 1.04801 0
M  V30 8002 C 769.444 -3.69123 2.53875 0
M  V30 8003 C 771.188 -4.17375 0.774497 0
M  V30 8004 C 769.095 -5.14843 2.91016 0
M  V30 8005 H 768.025 -0.719319 0.226045 0
M  V30 8006 H 770.676 -1.41701 1.16589 0
M  V30 8007 H 769.058 -3.93715 0.42479 0
M  V30 8008 H 770.232 -3.30339 3.21267 0
M  V30 8009 H 768.547 -3.09323 2.78762 0
M  V30 8010 H 771.144 -5.24723 1.02808 0
M  V30 8011 H 771.487 -4.15294 -0.289192 0
M  V30 8012 H 772.02 -3.7389 1.35835 0
M  V30 8013 H 768.759 -5.2204 3.96427 0
M  V30 8014 H 768.279 -5.54652 2.28302 0
M  V30 8015 H 769.958 -5.83017 2.80535 0
M  V30 8016 N 770.09 -0.729906 -1.39679 0
M  V30 8017 C 771.318 -0.285709 -2.04918 0
M  V30 8018 C 771.733 1.07765 -1.55023 0
M  V30 8019 O 771.09 1.67999 -0.712923 0
M  V30 8020 C 771.141 -0.272793 -3.60469 0
M  V30 8021 O 770.862 -1.58233 -4.08527 0
M  V30 8022 C 772.363 0.188199 -4.429 0
M  V30 8023 H 769.583 -0.125758 -0.65911 0
M  V30 8024 H 772.127 -0.992129 -1.78821 0
M  V30 8025 H 770.282 0.384699 -3.85485 0
M  V30 8026 H 770.696 -1.49245 -5.02818 0
M  V30 8027 H 772.17 0.14608 -5.51807 0
M  V30 8028 H 772.647 1.2326 -4.21549 0
M  V30 8029 H 773.253 -0.439541 -4.23023 0
M  V30 8030 N 771.568 1.50203 -0.477153 0
M  V30 8031 C 772.814 2.02658 0.0758507 0
M  V30 8032 C 773.147 1.358 1.38824 0
M  V30 8033 O 772.422 0.485696 1.88338 0
M  V30 8034 C 772.705 3.59208 0.253339 0
M  V30 8035 C 772.558 4.36629 -1.0805 0
M  V30 8036 C 773.877 4.28469 1.00509 0
M  V30 8037 H 770.996 0.736538 0.0260921 0
M  V30 8038 H 773.638 1.79464 -0.623925 0
M  V30 8039 H 771.788 3.79101 0.849378 0
M  V30 8040 H 773.46 4.28292 -1.71358 0
M  V30 8041 H 771.703 4.0013 -1.67566 0
M  V30 8042 H 772.374 5.44449 -0.909883 0
M  V30 8043 H 774.85 4.13087 0.499818 0
M  V30 8044 H 773.726 5.37804 1.09808 0
M  V30 8045 H 773.987 3.92057 2.04314 0
M  V30 8046 N 773.046 0.209999 1.56195 0
M  V30 8047 C 773.956 -0.716459 2.23392 0
M  V30 8048 C 774.972 -1.22291 1.23778 0
M  V30 8049 O 776.148 -1.26694 1.56558 0
M  V30 8050 C 773.213 -1.91261 2.89172 0
M  V30 8051 C 772.274 -1.44927 4.04097 0
M  V30 8052 C 771.507 -2.5884 4.66731 0
M  V30 8053 O 771.73 -3.76693 4.2832 0
M  V30 8054 O 770.664 -2.30701 5.55932 0
M  V30 8055 H 774.49 -0.174089 3.03201 0
M  V30 8056 H 772.075 -0.0199505 1.49387 0
M  V30 8057 H 773.957 -2.6114 3.30733 0
M  V30 8058 H 772.632 -2.4433 2.12331 0
M  V30 8059 H 771.539 -0.718839 3.67129 0
M  V30 8060 H 772.872 -0.965084 4.82646 0
M  V30 8061 N 774.524 -1.57472 -0.0634922 0
M  V30 8062 C 775.771 -1.87654 -0.761066 0
M  V30 8063 C 776.099 -0.802847 -1.77157 0
M  V30 8064 O 775.354 0.200244 -1.94673 0
M  V30 8065 C 775.653 -3.24521 -1.49736 0
M  V30 8066 C 775.319 -4.46532 -0.626065 0
M  V30 8067 C 773.981 -4.7965 -0.385978 0
M  V30 8068 C 776.333 -5.21195 -0.0224001 0
M  V30 8069 C 773.661 -5.84837 0.467118 0
M  V30 8070 C 776.013 -6.27286 0.818198 0
M  V30 8071 C 774.677 -6.58899 1.06808 0
M  V30 8072 H 773.947 -0.686675 -0.278494 0
M  V30 8073 H 776.594 -1.91488 -0.0216348 0
M  V30 8074 H 774.899 -3.16516 -2.30921 0
M  V30 8075 H 776.596 -3.45111 -2.04204 0
M  V30 8076 H 773.186 -4.20618 -0.823325 0
M  V30 8077 H 777.37 -4.95917 -0.194985 0
M  V30 8078 H 772.626 -6.07725 0.669375 0
M  V30 8079 H 776.8 -6.84298 1.29265 0
M  V30 8080 H 774.427 -7.40233 1.73088 0
M  V30 8081 N 776.003 0.335068 -1.53997 0
M  V30 8082 C 777.231 1.09418 -1.756 0
M  V30 8083 C 777.646 1.82083 -0.499138 0
M  V30 8084 O 777.003 1.74646 0.529631 0
M  V30 8085 C 777.054 2.10115 -2.94166 0
M  V30 8086 O 776.775 1.40404 -4.14992 0
M  V30 8087 C 778.276 2.98336 -3.27888 0
M  V30 8088 H 775.496 0.32595 -0.586513 0
M  V30 8089 H 778.04 0.384693 -2.00849 0
M  V30 8090 H 776.195 2.76616 -2.71224 0
M  V30 8091 H 776.609 2.07743 -4.81605 0
M  V30 8092 H 778.083 3.6491 -4.1418 0
M  V30 8093 H 778.56 3.64814 -2.44556 0
M  V30 8094 H 779.166 2.37412 -3.52868 0
M  V30 8095 N 777.481 1.45874 0.596531 0
M  V30 8096 C 778.727 1.5069 1.35722 0
M  V30 8097 C 779.06 0.152506 1.936 0
M  V30 8098 O 778.335 -0.834411 1.75692 0
M  V30 8099 C 778.618 2.59474 2.4969 0
M  V30 8100 C 778.471 4.04396 1.96937 0
M  V30 8101 C 779.79 2.64451 3.51787 0
M  V30 8102 H 776.909 0.548611 0.492133 0
M  V30 8103 H 779.551 1.77741 0.671428 0
M  V30 8104 H 777.701 2.36539 3.08191 0
M  V30 8105 H 779.373 4.38576 1.43 0
M  V30 8106 H 777.616 4.14529 1.27859 0
M  V30 8107 H 778.287 4.76218 2.79143 0
M  V30 8108 H 780.763 2.85031 3.03145 0
M  V30 8109 H 779.639 3.42411 4.29006 0
M  V30 8110 H 779.9 1.69965 4.08123 0
M  V30 8111 N 778.959 -0.83999 1.33349 0
M  V30 8112 C 779.922 -1.93128 1.23426 0
M  V30 8113 C 780.922 -1.60065 0.153599 0
M  V30 8114 O 782.112 -1.69425 0.405049 0
M  V30 8115 C 779.244 -3.28761 0.901622 0
M  V30 8116 H 780.437 -2.03352 2.20427 0
M  V30 8117 H 777.99 -1.03194 1.17391 0
M  V30 8118 H 778.725 -3.24233 -0.0659337 0
M  V30 8119 H 778.51 -3.54138 1.68311 0
M  V30 8120 H 780 -4.08714 0.856913 0
M  V30 8121 N 780.437 -1.16799 -1.0581 0
M  V30 8122 C 781.714 -0.862616 -1.75551 0
M  V30 8123 C 782.094 0.6385 -2.01212 0
M  V30 8124 O 781.442 1.58784 -1.64317 0
M  V30 8125 C 781.652 -1.6907 -3.05314 0
M  V30 8126 C 783 -1.90675 -3.79379 0
M  V30 8127 O 784.024 -1.65976 -3.15167 0
M  V30 8128 O 782.883 -2.32145 -4.94743 0
M  V30 8129 H 779.977 -0.318789 -0.763088 0
M  V30 8130 H 782.523 -1.27461 -1.12034 0
M  V30 8131 H 781.295 -2.70912 -2.82352 0
M  V30 8132 H 780.918 -1.27606 -3.76567 0
M  V30 8133 N 781.915 1.24427 -0.967243 0
M  V30 8134 C 783.162 1.92487 -0.62888 0
M  V30 8135 C 783.49 1.75623 0.835871 0
M  V30 8136 O 782.745 1.1027 1.61675 0
M  V30 8137 C 783.044 3.44568 -0.949096 0
M  V30 8138 C 782.71 3.816 -2.40192 0
M  V30 8139 C 781.372 3.9142 -2.799 0
M  V30 8140 C 783.724 3.99715 -3.34481 0
M  V30 8141 C 781.052 4.16771 -4.12939 0
M  V30 8142 C 783.404 4.26562 -4.67148 0
M  V30 8143 C 782.068 4.34601 -5.06634 0
M  V30 8144 H 781.338 0.704361 -0.230124 0
M  V30 8145 H 783.985 1.4772 -1.21864 0
M  V30 8146 H 782.29 3.90819 -0.277085 0
M  V30 8147 H 783.987 3.95436 -0.665692 0
M  V30 8148 H 780.577 3.74522 -2.08402 0
M  V30 8149 H 784.761 3.91531 -3.04987 0
M  V30 8150 H 780.017 4.21214 -4.43158 0
M  V30 8151 H 784.191 4.39523 -5.40178 0
M  V30 8152 H 781.818 4.53998 -6.09746 0
M  V30 8153 N 783.393 0.737304 1.3929 0
M  V30 8154 C 784.303 0.100464 2.34385 0
M  V30 8155 C 785.319 -0.719282 1.58437 0
M  V30 8156 O 786.495 -0.647216 1.90717 0
M  V30 8157 C 783.56 -0.794325 3.37478 0
M  V30 8158 C 782.621 0.0379345 4.29283 0
M  V30 8159 C 781.854 -0.814241 5.27452 0
M  V30 8160 O 782.077 -2.05288 5.32177 0
M  V30 8161 O 781.011 -0.241679 6.01415 0
M  V30 8162 H 784.837 0.885407 2.90507 0
M  V30 8163 H 782.422 0.497999 1.40856 0
M  V30 8164 H 784.304 -1.30622 4.00644 0
M  V30 8165 H 782.979 -1.55804 2.83737 0
M  V30 8166 H 781.886 0.595405 3.69331 0
M  V30 8167 H 783.219 0.763926 4.86236 0
M  V30 8168 N 784.871 -1.49948 0.485112 0
M  V30 8169 C 786.119 -2.01996 -0.0648775 0
M  V30 8170 C 786.44 -1.36819 -1.38945 0
M  V30 8171 O 785.71 -0.518163 -1.88923 0
M  V30 8172 H 784.29 -0.746513 -0.0269662 0
M  V30 8173 H 786.952 -1.84136 0.638733 0
M  V30 8174 H 786.048 -3.11418 -0.20617 0
M  V30 8175 N 786.349 -0.21828 -1.56081 0
M  V30 8176 C 787.296 0.693189 -2.20144 0
M  V30 8177 C 788.266 1.19274 -1.15598 0
M  V30 8178 O 789.451 1.25243 -1.4394 0
M  V30 8179 C 786.591 1.89715 -2.88275 0
M  V30 8180 C 785.704 1.4368 -4.07407 0
M  V30 8181 C 784.839 2.59807 -4.63329 0
M  V30 8182 C 783.878 2.10492 -5.74769 0
M  V30 8183 N 783.015 3.1988 -6.24997 0
M  V30 8184 H 787.855 0.14016 -2.9767 0
M  V30 8185 H 785.392 0.0574292 -1.46988 0
M  V30 8186 H 787.35 2.60398 -3.25958 0
M  V30 8187 H 785.98 2.42311 -2.13273 0
M  V30 8188 H 785.032 0.625007 -3.7523 0
M  V30 8189 H 786.344 1.03517 -4.8794 0
M  V30 8190 H 785.498 3.38577 -5.03438 0
M  V30 8191 H 784.237 3.03256 -3.81951 0
M  V30 8192 H 783.242 1.30182 -5.34165 0
M  V30 8193 H 784.467 1.68045 -6.5798 0
M  V30 8194 H 782.413 3.62817 -5.46534 0
M  V30 8195 H 782.33 2.83958 -7.00645 0
M  V30 8196 H 783.598 3.98796 -6.69763 0
M  V30 8197 N 787.827 1.57504 0.0551401 0
M  V30 8198 C 789.238 1.76626 0.604979 0
M  V30 8199 C 789.589 0.845978 1.77024 0
M  V30 8200 O 788.714 0.0341936 2.16373 0
M  V30 8201 C 789.309 3.203 1.10425 0
M  V30 8202 C 787.868 3.4071 1.59981 0
M  V30 8203 C 787.015 2.72258 0.526414 0
M  V30 8204 H 789.966 1.57775 -0.171072 0
M  V30 8205 H 789.987 3.25377 1.97256 0
M  V30 8206 H 789.499 3.87255 0.255939 0
M  V30 8207 H 787.6 2.78892 2.47083 0
M  V30 8208 H 787.713 4.49227 1.66528 0
M  V30 8209 H 786.077 2.35283 0.97539 0
M  V30 8210 H 786.86 3.41879 -0.311991 0
M  V30 8211 N 789.305 -0.326896 1.54172 0
M  V30 8212 C 790.235 -1.40741 1.86317 0
M  V30 8213 C 791.216 -1.54125 0.719684 0
M  V30 8214 O 792.401 -1.6806 0.973117 0
M  V30 8215 C 789.531 -2.77557 2.08757 0
M  V30 8216 C 788.485 -2.78965 3.24596 0
M  V30 8217 C 787.811 -4.18824 3.32401 0
M  V30 8218 C 789.111 -2.4301 4.62324 0
M  V30 8219 H 790.805 -1.14088 2.76811 0
M  V30 8220 H 788.351 -0.547389 1.3319 0
M  V30 8221 H 790.304 -3.53209 2.29829 0
M  V30 8222 H 789.028 -3.0568 1.15009 0
M  V30 8223 H 787.687 -2.05767 3.03406 0
M  V30 8224 H 787.335 -4.44083 2.36218 0
M  V30 8225 H 787.035 -4.20673 4.10253 0
M  V30 8226 H 788.559 -4.96294 3.55703 0
M  V30 8227 H 789.973 -3.08375 4.83299 0
M  V30 8228 H 788.37 -2.56116 5.42701 0
M  V30 8229 H 789.44 -1.38165 4.64799 0
M  V30 8230 N 790.784 -1.46188 -0.588786 0
M  V30 8231 C 791.747 -1.55882 -1.68029 0
M  V30 8232 C 792.747 -0.436515 -1.54762 0
M  V30 8233 O 793.937 -0.700626 -1.59489 0
M  V30 8234 C 791.069 -1.47332 -3.07418 0
M  V30 8235 H 792.262 -2.5315 -1.60795 0
M  V30 8236 H 789.815 -1.33908 -0.806116 0
M  V30 8237 H 790.55 -0.513193 -3.20214 0
M  V30 8238 H 790.335 -2.28753 -3.18456 0
M  V30 8239 H 791.825 -1.57187 -3.86887 0
M  V30 8240 N 792.262 0.832906 -1.33792 0
M  V30 8241 C 793.51 1.58539 -1.25338 0
M  V30 8242 C 793.831 1.94175 0.179204 0
M  V30 8243 O 793.101 1.61458 1.10941 0
M  V30 8244 H 791.681 0.58784 -0.460926 0
M  V30 8245 H 794.343 0.995064 -1.67584 0
M  V30 8246 H 793.439 2.51268 -1.85123 0
M  V30 8247 N 793.74 1.17359 1.05189 0
M  V30 8248 C 794.672 0.848078 2.12933 0
M  V30 8249 C 795.685 -0.149521 1.62112 0
M  V30 8250 O 796.874 0.0767797 1.78335 0
M  V30 8251 C 793.974 0.243889 3.38021 0
M  V30 8252 C 793.147 1.28436 4.18118 0
M  V30 8253 C 792.206 0.697926 5.21551 0
M  V30 8254 O 791.232 1.36973 5.52473 0
M  V30 8255 N 792.434 -0.510024 5.78255 0
M  V30 8256 H 795.199 1.7754 2.41453 0
M  V30 8257 H 792.76 1.07244 1.21286 0
M  V30 8258 H 794.752 -0.161727 4.04377 0
M  V30 8259 H 793.322 -0.58722 3.07035 0
M  V30 8260 H 792.542 1.86573 3.47252 0
M  V30 8261 H 793.83 1.98617 4.68432 0
M  V30 8262 H 793.228 -1.07378 5.55416 0
M  V30 8263 H 791.785 -0.857705 6.46132 0
M  V30 8264 N 795.218 -1.23913 0.973828 0
M  V30 8265 C 796.128 -2.28838 0.516735 0
M  V30 8266 C 797.144 -1.68723 -0.425282 0
M  V30 8267 O 798.32 -1.99201 -0.296819 0
M  V30 8268 C 795.385 -3.46233 -0.179914 0
M  V30 8269 C 794.446 -4.21729 0.80269 0
M  V30 8270 C 793.679 -5.33518 0.139191 0
M  V30 8271 O 793.902 -5.60252 -1.07118 0
M  V30 8272 O 792.836 -5.96088 0.834447 0
M  V30 8273 H 796.662 -2.70067 1.38916 0
M  V30 8274 H 794.247 -1.2972 0.74115 0
M  V30 8275 H 796.129 -4.17514 -0.570991 0
M  V30 8276 H 794.804 -3.06969 -1.02721 0
M  V30 8277 H 793.711 -3.52799 1.24434 0
M  V30 8278 H 795.044 -4.64825 1.61859 0
M  V30 8279 N 796.696 -0.74468 -1.38897 0
M  V30 8280 C 797.942 -0.297324 -2.00609 0
M  V30 8281 C 798.275 1.11547 -1.58968 0
M  V30 8282 O 797.55 1.76227 -0.823057 0
M  V30 8283 C 797.833 -0.410125 -3.57757 0
M  V30 8284 C 797.686 -1.86338 -4.09387 0
M  V30 8285 C 799.005 0.20176 -4.39637 0
M  V30 8286 H 796.124 -0.109509 -0.728819 0
M  V30 8287 H 798.766 -0.942653 -1.64967 0
M  V30 8288 H 796.916 0.139287 -3.8825 0
M  V30 8289 H 798.588 -2.47042 -3.89574 0
M  V30 8290 H 796.831 -2.38146 -3.62586 0
M  V30 8291 H 797.502 -1.89352 -5.18507 0
M  V30 8292 H 799.978 -0.266703 -4.15244 0
M  V30 8293 H 798.854 0.0925415 -5.48822 0
M  V30 8294 H 799.115 1.289 -4.22891 0
M  V30 8295 N 798.174 1.49689 -0.493057 0
M  V30 8296 C 799.42 2.02727 0.0543518 0
M  V30 8297 C 799.753 1.37264 1.37376 0
M  V30 8298 O 799.028 0.505644 1.87812 0
M  V30 8299 C 799.311 3.59456 0.215226 0
M  V30 8300 C 799.164 4.35459 -1.12675 0
M  V30 8301 C 800.483 4.29511 0.959586 0
M  V30 8302 H 797.602 0.736773 0.0182786 0
M  V30 8303 H 800.244 1.78792 -0.642924 0
M  V30 8304 H 798.394 3.79981 0.809122 0
M  V30 8305 H 800.066 4.2645 -1.75891 0
M  V30 8306 H 798.309 3.9833 -1.71801 0
M  V30 8307 H 798.98 5.43454 -0.967578 0
M  V30 8308 H 801.456 4.13594 0.455977 0
M  V30 8309 H 800.332 5.38939 1.04098 0
M  V30 8310 H 800.593 3.94202 2.00144 0
M  V30 8311 N 799.652 0.226554 1.55963 0
M  V30 8312 C 800.901 -0.40417 1.97609 0
M  V30 8313 C 801.214 -1.60541 1.1174 0
M  V30 8314 O 802.42 -2.30598 1.43307 0
M  V30 8315 C 800.876 -0.770466 3.51556 0
M  V30 8316 C 800.484 0.408244 4.46136 0
M  V30 8317 C 802.228 -1.36651 4.01904 0
M  V30 8318 C 800.135 0.0192347 5.91397 0
M  V30 8319 H 799.065 -0.15478 0.737943 0
M  V30 8320 H 801.716 0.323558 1.80625 0
M  V30 8321 H 800.098 -1.55575 3.6416 0
M  V30 8322 H 801.272 1.18575 4.45283 0
M  V30 8323 H 799.587 0.917859 4.06158 0
M  V30 8324 H 802.184 -1.67055 5.07934 0
M  V30 8325 H 802.527 -2.28403 3.48049 0
M  V30 8326 H 803.06 -0.644556 3.92543 0
M  V30 8327 H 799.799 0.90336 6.49245 0
M  V30 8328 H 799.319 -0.722485 5.95433 0
M  V30 8329 H 800.998 -0.405711 6.45727 0
M  V30 8330 N 801.13 -1.57531 -0.0467866 0
M  V30 8331 C 802.358 -1.92696 -0.753371 0
M  V30 8332 C 802.773 -0.824792 -1.69831 0
M  V30 8333 O 802.13 0.200155 -1.81399 0
M  V30 8334 C 802.181 -3.27728 -1.52566 0
M  V30 8335 O 801.902 -4.3371 -0.618674 0
M  V30 8336 C 803.403 -3.77066 -2.33101 0
M  V30 8337 H 800.623 -0.636367 -0.212788 0
M  V30 8338 H 803.167 -2.04498 -0.00959361 0
M  V30 8339 H 801.322 -3.17378 -2.22148 0
M  V30 8340 H 801.736 -5.11548 -1.15839 0
M  V30 8341 H 803.21 -4.74109 -2.82709 0
M  V30 8342 H 803.687 -3.07348 -3.13741 0
M  V30 8343 H 804.293 -3.90442 -1.68628 0
M  V30 8344 N 802.608 0.318715 -1.54344 0
M  V30 8345 C 803.836 1.0755 -1.7675 0
M  V30 8346 C 804.251 1.81543 -0.518422 0
M  V30 8347 O 803.608 1.75198 0.511078 0
M  V30 8348 C 803.659 2.06983 -2.96378 0
M  V30 8349 O 803.38 1.35995 -4.16458 0
M  V30 8350 C 804.881 2.94841 -3.31034 0
M  V30 8351 H 802.101 0.319711 -0.589937 0
M  V30 8352 H 804.645 0.363369 -2.01246 0
M  V30 8353 H 802.8 2.73724 -2.74142 0
M  V30 8354 H 803.214 2.02623 -4.83781 0
M  V30 8355 H 804.688 3.60496 -4.18027 0
M  V30 8356 H 805.165 3.62199 -2.48412 0
M  V30 8357 H 805.771 2.33656 -3.55366 0
M  V30 8358 N 804.086 1.46499 0.581025 0
M  V30 8359 C 805.034 1.57562 1.71105 0
M  V30 8360 C 806.028 0.44403 1.63477 0
M  V30 8361 O 807.234 0.620964 1.6895 0
M  V30 8362 H 803.609 0.495415 0.565746 0
M  V30 8363 H 805.58 2.5257 1.58905 0
M  V30 8364 C 804.329 1.58465 3.0949 0
M  V30 8365 H 803.652 2.44877 3.16031 0
M  V30 8366 H 805.092 1.70261 3.88313 0
M  V30 8367 C 803.551 0.313596 3.35437 0
M  V30 8368 O 804.081 -0.595456 3.97262 0
M  V30 8369 N 802.287 0.200986 2.89904 0
M  V30 8370 H 801.834 0.941643 2.39773 0
M  V30 8371 H 801.792 -0.648577 3.07638 0
M  V30 8372 N 805.565 -0.825799 1.34232 0
M  V30 8373 C 806.513 -1.95792 1.25572 0
M  V30 8374 C 807.507 -1.68695 0.154404 0
M  V30 8375 O 808.713 -1.77147 0.319196 0
M  V30 8376 H 805.088 -0.642949 0.390027 0
M  V30 8377 H 807.059 -2.00219 2.21258 0
M  V30 8378 C 805.808 -3.32245 1.02511 0
M  V30 8379 H 805.131 -3.53642 1.86487 0
M  V30 8380 H 806.571 -4.1192 1.00487 0
M  V30 8381 C 805.03 -3.35803 -0.27167 0
M  V30 8382 O 805.56 -3.80962 -1.274 0
M  V30 8383 N 803.766 -2.89008 -0.303778 0
M  V30 8384 H 803.313 -2.52451 0.512464 0
M  V30 8385 H 803.271 -2.9177 -1.17121 0
M  V30 8386 N 807.043 -1.17915 -1.04565 0
M  V30 8387 C 808.291 -0.969505 -1.77327 0
M  V30 8388 C 808.612 0.502569 -1.88412 0
M  V30 8389 O 807.882 1.36467 -1.40547 0
M  V30 8390 H 806.462 -0.355723 -0.656864 0
M  V30 8391 H 809.124 -1.48506 -1.26223 0
M  V30 8392 H 808.22 -1.40324 -2.78775 0
M  V30 8393 N 808.521 1.23394 -0.980386 0
M  V30 8394 C 809.484 2.23092 -0.525619 0
M  V30 8395 C 810.484 1.56129 0.384745 0
M  V30 8396 O 811.674 1.73284 0.178439 0
M  V30 8397 C 808.806 3.40074 0.23712 0
M  V30 8398 H 809.999 2.64839 -1.40714 0
M  V30 8399 H 807.552 1.36227 -0.766275 0
M  V30 8400 H 808.287 3.03783 1.13518 0
M  V30 8401 H 808.072 3.89883 -0.416356 0
M  V30 8402 H 809.562 4.14043 0.543892 0
M  V30 8403 N 809.999 0.752036 1.385 0
M  V30 8404 C 810.929 0.138718 2.33088 0
M  V30 8405 C 811.91 -0.705318 1.54788 0
M  V30 8406 O 813.095 -0.646821 1.83112 0
M  V30 8407 C 810.225 -0.75641 3.38963 0
M  V30 8408 C 809.179 -0.0152239 4.27997 0
M  V30 8409 C 808.505 -1.0285 5.24715 0
M  V30 8410 C 809.805 1.15226 5.09431 0
M  V30 8411 H 811.499 0.928852 2.84627 0
M  V30 8412 H 809.045 0.448111 1.3685 0
M  V30 8413 H 810.998 -1.19513 4.04097 0
M  V30 8414 H 809.722 -1.57885 2.85902 0
M  V30 8415 H 808.381 0.404061 3.64366 0
M  V30 8416 H 808.029 -1.84496 4.67943 0
M  V30 8417 H 807.729 -0.537238 5.85139 0
M  V30 8418 H 809.253 -1.46657 5.92726 0
M  V30 8419 H 810.667 0.791161 5.67815 0
M  V30 8420 H 809.064 1.57428 5.79082 0
M  V30 8421 H 810.134 1.9659 4.43261 0
M  V30 8422 N 811.477 -1.49425 0.500989 0
M  V30 8423 C 812.888 -1.86624 0.0532011 0
M  V30 8424 C 813.239 -1.41331 -1.36088 0
M  V30 8425 O 812.364 -0.791195 -2.01418 0
M  V30 8426 C 812.959 -3.38681 0.0897693 0
M  V30 8427 C 811.518 -3.75181 -0.302677 0
M  V30 8428 C 810.665 -2.73419 0.462307 0
M  V30 8429 H 813.616 -1.41743 0.713773 0
M  V30 8430 H 813.637 -3.73902 -0.705528 0
M  V30 8431 H 813.149 -3.71616 1.11907 0
M  V30 8432 H 811.25 -3.47855 -1.33521 0
M  V30 8433 H 811.363 -4.79097 0.0167653 0
M  V30 8434 H 809.727 -2.54548 -0.0878557 0
M  V30 8435 H 810.51 -3.09198 1.49169 0
M  V30 8436 N 812.955 -0.234822 -1.55841 0
M  V30 8437 C 813.903 0.686145 -2.22249 0
M  V30 8438 C 814.897 1.18948 -1.20614 0
M  V30 8439 O 816.103 1.14777 -1.38659 0
M  V30 8440 H 812.478 0.239724 -0.712767 0
M  V30 8441 H 814.449 0.102762 -2.98223 0
M  V30 8442 C 813.198 1.8776 -2.92646 0
M  V30 8443 H 812.521 1.49943 -3.70617 0
M  V30 8444 H 813.961 2.4995 -3.42493 0
M  V30 8445 C 812.42 2.74127 -1.95847 0
M  V30 8446 O 812.95 3.7329 -1.48384 0
M  V30 8447 N 811.156 2.4044 -1.63209 0
M  V30 8448 H 810.703 1.59854 -2.02001 0
M  V30 8449 H 810.661 2.98504 -0.987063 0
M  V30 8450 N 814.433 1.57553 0.0384317 0
M  V30 8451 C 815.38 2.05942 1.04194 0
M  V30 8452 C 816.35 0.946637 1.36484 0
M  V30 8453 O 817.535 1.21658 1.46983 0
M  V30 8454 C 814.675 2.53588 2.34066 0
M  V30 8455 C 813.788 3.7862 2.08017 0
M  V30 8456 C 812.923 4.14915 3.31692 0
M  V30 8457 C 811.962 5.32891 3.01155 0
M  V30 8458 N 811.099 5.64662 4.17254 0
M  V30 8459 H 815.939 2.91429 0.622341 0
M  V30 8460 H 813.476 1.44098 0.295684 0
M  V30 8461 H 815.434 2.79276 3.09937 0
M  V30 8462 H 814.064 1.71031 2.73767 0
M  V30 8463 H 813.116 3.60073 1.22686 0
M  V30 8464 H 814.428 4.64613 1.81484 0
M  V30 8465 H 813.582 4.41681 4.15936 0
M  V30 8466 H 812.321 3.27555 3.6133 0
M  V30 8467 H 811.326 5.05887 2.15311 0
M  V30 8468 H 812.551 6.21896 2.72804 0
M  V30 8469 H 810.497 4.80261 4.46861 0
M  V30 8470 H 810.414 6.45145 3.94112 0
M  V30 8471 H 811.682 5.96 5.02399 0
M  V30 8472 N 815.911 -0.310526 1.54511 0
M  V30 8473 C 817.16 -1.0445 1.72549 0
M  V30 8474 C 817.473 -1.88748 0.513172 0
M  V30 8475 O 818.679 -2.65338 0.575165 0
M  V30 8476 C 817.135 -1.90665 3.05246 0
M  V30 8477 C 816.743 -1.11415 4.33925 0
M  V30 8478 C 818.487 -2.63719 3.32645 0
M  V30 8479 C 816.394 -1.96852 5.57677 0
M  V30 8480 H 815.324 -0.393676 0.643067 0
M  V30 8481 H 817.975 -0.302003 1.80998 0
M  V30 8482 H 816.357 -2.68864 2.90737 0
M  V30 8483 H 817.531 -0.378956 4.59239 0
M  V30 8484 H 815.846 -0.499853 4.13389 0
M  V30 8485 H 818.443 -3.27974 4.223 0
M  V30 8486 H 818.786 -3.32047 2.51098 0
M  V30 8487 H 819.319 -1.92574 3.48081 0
M  V30 8488 H 816.058 -1.33009 6.41864 0
M  V30 8489 H 815.578 -2.68069 5.36562 0
M  V30 8490 H 817.257 -2.55127 5.94575 0
M  V30 8491 N 817.389 -1.46805 -0.573248 0
M  V30 8492 C 818.617 -1.56191 -1.3569 0
M  V30 8493 C 819.032 -0.206362 -1.87669 0
M  V30 8494 O 818.389 0.797883 -1.64134 0
M  V30 8495 C 818.44 -2.57433 -2.53792 0
M  V30 8496 O 818.161 -3.87724 -2.03965 0
M  V30 8497 C 819.662 -2.76851 -3.4622 0
M  V30 8498 H 816.882 -0.527907 -0.414192 0
M  V30 8499 H 819.426 -1.92292 -0.695989 0
M  V30 8500 H 817.581 -2.24311 -3.15854 0
M  V30 8501 H 817.995 -4.42909 -2.80948 0
M  V30 8502 H 819.469 -3.5159 -4.25545 0
M  V30 8503 H 819.946 -1.84095 -3.98755 0
M  V30 8504 H 820.552 -3.11107 -2.89987 0
M  V30 8505 N 818.867 0.818669 -1.34668 0
M  V30 8506 C 819.777 1.9616 -1.2868 0
M  V30 8507 C 820.793 1.72918 -0.193742 0
M  V30 8508 O 821.969 1.96951 -0.420975 0
M  V30 8509 C 819.034 3.30534 -1.04633 0
M  V30 8510 C 818.095 3.66755 -2.23136 0
M  V30 8511 C 817.328 4.94717 -2.00227 0
M  V30 8512 O 817.551 5.62218 -0.96264 0
M  V30 8513 O 816.485 5.28915 -2.87286 0
M  V30 8514 H 820.311 2.04157 -2.24842 0
M  V30 8515 H 817.896 0.954691 -1.14917 0
M  V30 8516 H 819.778 4.11005 -0.930216 0
M  V30 8517 H 818.453 3.23495 -0.115139 0
M  V30 8518 H 817.36 2.8671 -2.40308 0
M  V30 8519 H 818.693 3.78484 -3.1466 0
M  V30 8520 N 820.346 1.18468 1.03938 0
M  V30 8521 C 821.293 0.912859 2.1198 0
M  V30 8522 C 822.263 -0.14824 1.65437 0
M  V30 8523 O 823.448 -0.008331 1.90798 0
M  V30 8524 C 820.588 0.446114 3.42204 0
M  V30 8525 C 819.701 1.57278 4.02353 0
M  V30 8526 C 818.836 1.05863 5.20544 0
M  V30 8527 C 817.875 2.1599 5.72726 0
M  V30 8528 N 817.012 1.65959 6.82204 0
M  V30 8529 H 821.852 1.83798 2.34569 0
M  V30 8530 H 819.389 0.916504 1.15059 0
M  V30 8531 H 821.347 0.15697 4.16905 0
M  V30 8532 H 819.977 -0.442025 3.19759 0
M  V30 8533 H 819.029 1.97737 3.24968 0
M  V30 8534 H 820.341 2.40289 4.37107 0
M  V30 8535 H 819.495 0.724087 6.02364 0
M  V30 8536 H 818.234 0.198116 4.87297 0
M  V30 8537 H 817.239 2.50287 4.89527 0
M  V30 8538 H 818.464 3.02479 6.08016 0
M  V30 8539 H 816.41 0.82199 6.5083 0
M  V30 8540 H 816.327 2.42567 7.16029 0
M  V30 8541 H 817.595 1.35436 7.67644 0
M  V30 8542 N 821.824 -1.22873 0.986916 0
M  V30 8543 C 823.052 -1.95487 0.677663 0
M  V30 8544 C 823.467 -1.72978 -0.756572 0
M  V30 8545 O 822.824 -1.02517 -1.50985 0
M  V30 8546 C 822.875 -3.48337 0.966638 0
M  V30 8547 O 822.596 -3.70087 2.34451 0
M  V30 8548 C 824.097 -4.38142 0.674248 0
M  V30 8549 H 821.317 -0.622211 0.251185 0
M  V30 8550 H 823.861 -1.56187 1.32007 0
M  V30 8551 H 822.016 -3.85628 0.370137 0
M  V30 8552 H 822.43 -4.64332 2.43918 0
M  V30 8553 H 823.904 -5.44165 0.926759 0
M  V30 8554 H 824.381 -4.3745 -0.391728 0
M  V30 8555 H 824.987 -4.06469 1.25152 0
M  V30 8556 N 823.302 -0.75937 -1.38099 0
M  V30 8557 C 824.579 -0.243371 -1.9408 0
M  V30 8558 C 824.959 1.25942 -1.69416 0
M  V30 8559 O 824.307 2.03667 -1.03595 0
M  V30 8560 C 824.517 -0.603328 -3.43745 0
M  V30 8561 C 825.865 -0.566195 -4.20808 0
M  V30 8562 O 826.889 -0.541969 -3.52053 0
M  V30 8563 O 825.748 -0.582261 -5.43389 0
M  V30 8564 H 822.842 -0.0526825 -0.82532 0
M  V30 8565 H 825.388 -0.839884 -1.47459 0
M  V30 8566 H 824.16 -1.64098 -3.55229 0
M  V30 8567 H 823.783 0.0208887 -3.97595 0
M  V30 8568 N 824.78 1.49157 -0.508906 0
M  V30 8569 C 825.743 2.27784 0.25434 0
M  V30 8570 C 826.743 1.34132 0.88686 0
M  V30 8571 O 827.933 1.5722 0.750168 0
M  V30 8572 C 825.065 3.12347 1.36573 0
M  V30 8573 H 826.258 2.96718 -0.435714 0
M  V30 8574 H 823.811 1.54052 -0.264128 0
M  V30 8575 H 824.546 2.47997 2.08969 0
M  V30 8576 H 824.331 3.81213 0.917543 0
M  V30 8577 H 825.821 3.71712 1.90315 0
M  V30 8578 N 826.258 0.243083 1.55714 0
M  V30 8579 C 827.206 -0.674349 2.2261 0
M  V30 8580 C 828.2 -1.18307 1.21243 0
M  V30 8581 O 829.406 -1.1404 1.39265 0
M  V30 8582 H 825.781 -0.235941 0.714028 0
M  V30 8583 H 827.752 -0.0869446 2.98273 0
M  V30 8584 C 826.501 -1.86206 2.93637 0
M  V30 8585 H 825.824 -1.47975 3.71407 0
M  V30 8586 H 827.264 -2.4813 3.43813 0
M  V30 8587 C 825.723 -2.73084 1.97298 0
M  V30 8588 O 826.253 -3.72497 1.50361 0
M  V30 8589 N 824.459 -2.39571 1.64482 0
M  V30 8590 H 824.006 -1.5878 2.02846 0
M  V30 8591 H 823.964 -2.97976 1.00288 0
M  V30 8592 N 827.736 -1.57571 -0.0300757 0
M  V30 8593 C 828.984 -1.88852 -0.719666 0
M  V30 8594 C 829.305 -0.840645 -1.75949 0
M  V30 8595 O 828.575 0.125854 -1.95495 0
M  V30 8596 H 827.155 -0.696965 -0.268792 0
M  V30 8597 H 829.817 -1.949 0.00373285 0
M  V30 8598 H 828.913 -2.87695 -1.20987 0
M  V30 8599 N 829.214 0.302327 -1.54673 0
M  V30 8600 C 830.46 1.03924 -1.74149 0
M  V30 8601 C 830.793 1.86968 -0.525041 0
M  V30 8602 O 830.068 1.88538 0.477868 0
M  V30 8603 C 830.351 1.94633 -3.02969 0
M  V30 8604 C 830.204 1.14778 -4.34909 0
M  V30 8605 C 831.523 2.93826 -3.27649 0
M  V30 8606 H 828.642 0.376405 -0.633631 0
M  V30 8607 H 831.284 0.314007 -1.87387 0
M  V30 8608 H 829.434 2.56471 -2.91813 0
M  V30 8609 H 831.106 0.552363 -4.57981 0
M  V30 8610 H 829.349 0.450462 -4.31455 0
M  V30 8611 H 830.02 1.81495 -5.21309 0
M  V30 8612 H 832.496 2.42117 -3.38406 0
M  V30 8613 H 831.372 3.54462 -4.19104 0
M  V30 8614 H 831.633 3.67416 -2.45882 0
M  V30 8615 N 830.692 1.47107 0.565454 0
M  V30 8616 C 831.655 1.58535 1.65527 0
M  V30 8617 C 832.655 0.461081 1.54048 0
M  V30 8618 O 833.845 0.725911 1.58355 0
M  V30 8619 C 830.977 1.52204 3.05036 0
M  V30 8620 H 832.17 2.55676 1.56747 0
M  V30 8621 H 829.723 1.35174 0.78471 0
M  V30 8622 H 830.458 0.564071 3.19357 0
M  V30 8623 H 830.243 2.3379 3.14777 0
M  V30 8624 H 831.733 1.63322 3.84338 0
M  V30 8625 N 832.17 -0.811516 1.35101 0
M  V30 8626 C 833.586 -1.10634 1.15031 0
M  V30 8627 C 833.786 -2.01459 -0.0405379 0
M  V30 8628 O 832.842 -2.42235 -0.712635 0
M  V30 8629 C 834.155 -1.74207 2.45097 0
M  V30 8630 C 835.703 -1.8665 2.51258 0
M  V30 8631 C 836.178 -2.53638 3.81355 0
M  V30 8632 N 837.669 -2.61128 3.82579 0
M  V30 8633 C 838.404 -3.13717 4.79968 0
M  V30 8634 N 837.9 -3.66782 5.87744 0
M  V30 8635 N 839.693 -3.12224 4.67411 0
M  V30 8636 H 831.844 -0.207641 2.11383 0
M  V30 8637 H 834.107 -0.154697 0.935293 0
M  V30 8638 H 833.813 -1.14936 3.32389 0
M  V30 8639 H 833.687 -2.73958 2.59281 0
M  V30 8640 H 836.074 -2.45066 1.64398 0
M  V30 8641 H 836.155 -0.857678 2.40993 0
M  V30 8642 H 835.799 -1.95873 4.68611 0
M  V30 8643 H 835.729 -3.55047 3.88907 0
M  V30 8644 H 838.22 -2.23527 3.04703 0
M  V30 8645 H 838.533 -4.05194 6.58056 0
M  V30 8646 H 836.878 -3.64994 5.91443 0
M  V30 8647 H 840.069 -2.70042 3.82354 0
M  V30 8648 H 840.242 -3.52903 5.43474 0
M  V30 8649 N 833.648 -1.19017 -1.03309 0
M  V30 8650 C 834.897 -0.984542 -1.76039 0
M  V30 8651 C 835.21 0.485937 -1.89468 0
M  V30 8652 O 836.416 0.810278 -2.59127 0
M  V30 8653 C 834.872 -1.71261 -3.1654 0
M  V30 8654 C 834.48 -3.22291 -3.11179 0
M  V30 8655 C 836.224 -1.59007 -3.93595 0
M  V30 8656 C 834.131 -3.87704 -4.46587 0
M  V30 8657 H 833.061 -0.364749 -0.659905 0
M  V30 8658 H 835.712 -1.4247 -1.15649 0
M  V30 8659 H 834.094 -1.20025 -3.77373 0
M  V30 8660 H 835.268 -3.80611 -2.59753 0
M  V30 8661 H 833.583 -3.34772 -2.47622 0
M  V30 8662 H 836.18 -2.05232 -4.93745 0
M  V30 8663 H 836.523 -0.543534 -4.12736 0
M  V30 8664 H 837.056 -2.07564 -3.39355 0
M  V30 8665 H 833.795 -4.92437 -4.3265 0
M  V30 8666 H 833.315 -3.34172 -4.98085 0
M  V30 8667 H 834.994 -3.91008 -5.15482 0
M  V30 8668 N 835.127 1.22348 -0.993418 0
M  V30 8669 C 836.09 2.22522 -0.549251 0
M  V30 8670 C 837.09 1.56529 0.368164 0
M  V30 8671 O 838.28 1.73463 0.16005 0
M  V30 8672 C 835.412 3.40307 0.201037 0
M  V30 8673 H 836.605 2.63332 -1.43515 0
M  V30 8674 H 834.158 1.35407 -0.78068 0
M  V30 8675 H 834.893 3.0497 1.10289 0
M  V30 8676 H 834.678 3.8942 -0.457685 0
M  V30 8677 H 836.168 4.14597 0.499946 0
M  V30 8678 N 836.605 0.766683 1.37694 0
M  V30 8679 C 837.535 0.163432 2.32927 0
M  V30 8680 C 838.516 -0.688861 1.55527 0
M  V30 8681 O 839.701 -0.627363 1.83787 0
M  V30 8682 C 836.831 -0.720416 3.39746 0
M  V30 8683 C 835.785 0.0301718 4.27989 0
M  V30 8684 C 835.111 -0.972788 5.25776 0
M  V30 8685 C 836.411 1.20623 5.0818 0
M  V30 8686 H 838.105 0.958988 2.83626 0
M  V30 8687 H 835.651 0.462601 1.36367 0
M  V30 8688 H 837.604 -1.15221 4.05342 0
M  V30 8689 H 836.328 -1.54844 2.8756 0
M  V30 8690 H 834.987 0.442685 3.63917 0
M  V30 8691 H 834.635 -1.79522 4.69873 0
M  V30 8692 H 834.335 -0.475145 5.85676 0
M  V30 8693 H 835.859 -1.40362 5.94248 0
M  V30 8694 H 837.273 0.851341 5.66944 0
M  V30 8695 H 835.67 1.63561 5.7738 0
M  V30 8696 H 836.74 2.01281 4.41151 0
M  V30 8697 N 838.083 -1.48885 0.516809 0
M  V30 8698 C 839.311 -2.06892 -0.0184017 0
M  V30 8699 C 839.726 -1.37511 -1.29368 0
M  V30 8700 O 839.083 -0.458409 -1.76649 0
M  V30 8701 C 839.134 -3.60566 -0.259673 0
M  V30 8702 O 838.855 -4.27338 0.965065 0
M  V30 8703 C 840.356 -4.35331 -0.836751 0
M  V30 8704 H 837.576 -0.670433 0.0275743 0
M  V30 8705 H 840.12 -1.91455 0.718689 0
M  V30 8706 H 838.275 -3.75653 -0.94678 0
M  V30 8707 H 838.689 -5.19287 0.737647 0
M  V30 8708 H 840.163 -5.43675 -0.955065 0
M  V30 8709 H 840.64 -3.9887 -1.83845 0
M  V30 8710 H 841.246 -4.2489 -0.186622 0
M  V30 8711 N 839.561 -0.251338 -1.55583 0
M  V30 8712 C 840.509 0.662534 -2.22965 0
M  V30 8713 C 841.503 1.17662 -1.21869 0
M  V30 8714 O 842.709 1.133 -1.39868 0
M  V30 8715 H 839.084 0.232151 -0.715269 0
M  V30 8716 H 841.055 0.0711252 -2.98315 0
M  V30 8717 C 839.804 1.84646 -2.94621 0
M  V30 8718 H 839.127 1.46003 -3.72187 0
M  V30 8719 H 840.567 2.46303 -3.45124 0
M  V30 8720 C 839.026 2.72034 -1.98744 0
M  V30 8721 O 839.556 3.71695 -1.52335 0
M  V30 8722 N 837.762 2.38695 -1.6575 0
M  V30 8723 H 837.309 1.57702 -2.03685 0
M  V30 8724 H 837.267 2.9744 -1.01867 0
M  V30 8725 N 841.039 1.57585 0.0217189 0
M  V30 8726 C 842.267 1.93871 0.722619 0
M  V30 8727 C 842.682 0.851706 1.68498 0
M  V30 8728 O 842.039 -0.17127 1.81695 0
M  V30 8729 C 842.09 3.30114 1.47333 0
M  V30 8730 O 841.811 4.34639 0.549597 0
M  V30 8731 C 843.312 3.80727 2.27072 0
M  V30 8732 H 840.532 0.639671 0.202637 0
M  V30 8733 H 843.076 2.04487 -0.0229414 0
M  V30 8734 H 841.231 3.20872 2.17071 0
M  V30 8735 H 841.645 5.13326 1.07686 0
M  V30 8736 H 843.119 4.78547 2.75131 0
M  V30 8737 H 843.596 3.12301 3.08812 0
M  V30 8738 H 844.202 3.93075 1.62395 0
M  V30 8739 N 842.517 -0.29412 1.54831 0
M  V30 8740 C 843.745 -1.04724 1.78439 0
M  V30 8741 C 844.16 -1.80695 0.547239 0
M  V30 8742 O 843.517 -1.75989 -0.483141 0
M  V30 8743 C 843.568 -2.02242 2.99634 0
M  V30 8744 O 843.289 -1.29352 4.18568 0
M  V30 8745 C 844.79 -2.89537 3.35683 0
M  V30 8746 H 842.01 -0.310285 0.594949 0
M  V30 8747 H 844.554 -0.331306 2.01798 0
M  V30 8748 H 842.709 -2.69328 2.78462 0
M  V30 8749 H 843.123 -1.94901 4.86943 0
M  V30 8750 H 844.597 -3.538 4.23709 0
M  V30 8751 H 845.074 -3.58201 2.54143 0
M  V30 8752 H 845.68 -2.27973 3.59038 0
M  V30 8753 N 843.995 -1.47404 -0.557645 0
M  V30 8754 C 845.272 -1.44488 -1.31843 0
M  V30 8755 C 845.652 -0.1416 -2.10625 0
M  V30 8756 O 845 0.876908 -2.11004 0
M  V30 8757 C 845.21 -2.69016 -2.22331 0
M  V30 8758 C 846.558 -3.16212 -2.83364 0
M  V30 8759 O 847.582 -2.69741 -2.32634 0
M  V30 8760 O 846.441 -3.96999 -3.75571 0
M  V30 8761 H 843.535 -0.57578 -0.593639 0
M  V30 8762 H 846.081 -1.59605 -0.576584 0
M  V30 8763 H 844.853 -3.55406 -1.63715 0
M  V30 8764 H 844.476 -2.56484 -3.03812 0
M  V30 8765 N 845.473 0.80434 -1.35529 0
M  V30 8766 C 846.721 1.55845 -1.28673 0
M  V30 8767 C 847.042 1.94511 0.137976 0
M  V30 8768 O 846.312 1.63775 1.07492 0
M  V30 8769 H 844.892 0.577931 -0.473291 0
M  V30 8770 H 847.554 0.959293 -1.69657 0
M  V30 8771 H 846.65 2.47285 -1.90411 0
M  V30 8772 N 846.951 1.19563 1.02676 0
M  V30 8773 C 848.197 1.00105 1.76371 0
M  V30 8774 C 848.53 -0.466823 1.88506 0
M  V30 8775 O 847.805 -1.34665 1.40341 0
M  V30 8776 C 848.088 1.67321 3.18866 0
M  V30 8777 C 847.941 3.21486 3.1459 0
M  V30 8778 C 849.26 1.39794 4.17308 0
M  V30 8779 H 846.379 0.365075 0.640226 0
M  V30 8780 H 849.021 1.47433 1.19848 0
M  V30 8781 H 847.171 1.27081 3.67128 0
M  V30 8782 H 848.843 3.70953 2.7421 0
M  V30 8783 H 847.086 3.5292 2.52249 0
M  V30 8784 H 847.757 3.63665 4.15273 0
M  V30 8785 H 850.233 1.74685 3.77657 0
M  V30 8786 H 849.109 1.89371 5.15199 0
M  V30 8787 H 849.37 0.323505 4.40915 0
M  V30 8788 N 848.429 -1.21819 0.999893 0
M  V30 8789 C 849.657 -1.94758 0.698359 0
M  V30 8790 C 850.072 -1.73771 -0.738183 0
M  V30 8791 O 849.429 -1.04113 -1.49889 0
M  V30 8792 C 849.48 -3.47292 1.00353 0
M  V30 8793 O 849.201 -3.67579 2.38363 0
M  V30 8794 C 850.702 -4.37403 0.72068 0
M  V30 8795 H 847.922 -0.619512 0.257771 0
M  V30 8796 H 850.466 -1.54778 1.33656 0
M  V30 8797 H 848.621 -3.85213 0.411018 0
M  V30 8798 H 849.035 -4.61719 2.48829 0
M  V30 8799 H 850.509 -5.43151 0.984422 0
M  V30 8800 H 850.986 -4.3784 -0.345309 0
M  V30 8801 H 851.592 -4.05119 1.29456 0
M  V30 8802 N 849.908 -0.773975 -1.37286 0
M  V30 8803 C 851.154 -0.339809 -1.99933 0
M  V30 8804 C 851.487 1.0815 -1.61299 0
M  V30 8805 O 850.762 1.74442 -0.860252 0
M  V30 8806 C 851.045 -0.485919 -3.56806 0
M  V30 8807 C 850.898 -1.9498 -4.05343 0
M  V30 8808 C 852.217 0.108461 -4.39966 0
M  V30 8809 H 849.336 -0.124944 -0.726332 0
M  V30 8810 H 851.978 -0.977433 -1.6293 0
M  V30 8811 H 850.128 0.0569023 -3.88458 0
M  V30 8812 H 851.8 -2.5525 -3.84246 0
M  V30 8813 H 850.043 -2.45784 -3.57453 0
M  V30 8814 H 850.714 -2.00308 -5.14374 0
M  V30 8815 H 853.19 -0.354722 -4.14585 0
M  V30 8816 H 852.066 -0.0238926 -5.48895 0
M  V30 8817 H 852.327 1.19901 -4.25531 0
M  V30 8818 N 851.386 1.48609 -0.524698 0
M  V30 8819 C 852.632 2.02797 0.0113382 0
M  V30 8820 C 852.965 1.40147 1.34433 0
M  V30 8821 O 852.24 0.545368 1.86698 0
M  V30 8822 C 852.523 3.59832 0.138931 0
M  V30 8823 C 852.376 4.32971 -1.21886 0
M  V30 8824 C 853.695 4.3145 0.868265 0
M  V30 8825 H 850.814 0.736995 0.00264645 0
M  V30 8826 H 853.456 1.77388 -0.680704 0
M  V30 8827 H 851.606 3.81612 0.72834 0
M  V30 8828 H 853.278 4.22624 -1.84897 0
M  V30 8829 H 851.521 3.94597 -1.80211 0
M  V30 8830 H 852.192 5.41279 -1.08263 0
M  V30 8831 H 854.668 4.14468 0.368145 0
M  V30 8832 H 853.544 5.41025 0.926428 0
M  V30 8833 H 853.805 3.98358 1.91737 0
M  V30 8834 N 852.864 0.259585 1.55447 0
M  V30 8835 C 854.092 -0.365392 2.03648 0
M  V30 8836 C 854.507 -1.50613 1.13847 0
M  V30 8837 O 853.864 -1.81837 0.155414 0
M  V30 8838 C 853.915 -0.861172 3.51093 0
M  V30 8839 O 853.636 0.234121 4.37474 0
M  V30 8840 C 855.137 -1.55555 4.15111 0
M  V30 8841 H 852.357 -0.0853439 0.66555 0
M  V30 8842 H 854.901 0.387151 2.00802 0
M  V30 8843 H 853.056 -1.56385 3.54433 0
M  V30 8844 H 853.47 -0.1444 5.24301 0
M  V30 8845 H 854.944 -1.85403 5.19932 0
M  V30 8846 H 855.421 -2.48185 3.62355 0
M  V30 8847 H 856.027 -0.89712 4.15731 0
M  V30 8848 N 854.342 -1.57594 -0.0133615 0
M  V30 8849 C 855.305 -2.06534 -0.993799 0
M  V30 8850 C 856.305 -0.972267 -1.28077 0
M  V30 8851 O 857.495 -1.23537 -1.22818 0
M  V30 8852 C 854.627 -2.49554 -2.3224 0
M  V30 8853 H 855.82 -2.94419 -0.570741 0
M  V30 8854 H 853.373 -1.54113 -0.260546 0
M  V30 8855 H 854.108 -1.64872 -2.79263 0
M  V30 8856 H 853.893 -3.29371 -2.12737 0
M  V30 8857 H 855.383 -2.8779 -3.026 0
M  V30 8858 N 855.82 0.285905 -1.54985 0
M  V30 8859 C 856.73 1.37534 -1.90057 0
M  V30 8860 C 857.746 1.54707 -0.796348 0
M  V30 8861 O 858.922 1.69082 -1.09423 0
M  V30 8862 C 855.987 2.7167 -2.15398 0
M  V30 8863 C 855.048 2.63354 -3.39033 0
M  V30 8864 C 854.281 3.91093 -3.63155 0
M  V30 8865 O 854.504 4.91169 -2.90015 0
M  V30 8866 O 853.438 3.92075 -4.56685 0
M  V30 8867 H 857.264 1.10791 -2.8277 0
M  V30 8868 H 854.849 0.483303 -1.41367 0
M  V30 8869 H 856.731 3.51006 -2.33179 0
M  V30 8870 H 855.406 2.98226 -1.25868 0
M  V30 8871 H 854.313 1.82438 -3.26599 0
M  V30 8872 H 855.646 2.41749 -4.2874 0
M  V30 8873 N 857.298 1.47698 0.54982 0
M  V30 8874 C 858.544 1.54931 1.30859 0
M  V30 8875 C 858.877 0.214021 1.93017 0
M  V30 8876 O 858.152 -0.778093 1.78258 0
M  V30 8877 C 858.435 2.67286 2.41309 0
M  V30 8878 C 858.288 4.10457 1.83971 0
M  V30 8879 C 859.607 2.75509 3.43195 0
M  V30 8880 H 856.726 0.56399 0.474431 0
M  V30 8881 H 859.368 1.79787 0.614541 0
M  V30 8882 H 857.518 2.46224 3.0051 0
M  V30 8883 H 859.19 4.42903 1.28974 0
M  V30 8884 H 857.433 4.18387 1.14606 0
M  V30 8885 H 858.104 4.84857 2.63851 0
M  V30 8886 H 860.58 2.94531 2.93923 0
M  V30 8887 H 859.456 3.55886 4.17895 0
M  V30 8888 H 859.717 1.82863 4.02509 0
M  V30 8889 N 858.776 -0.797141 1.35954 0
M  V30 8890 C 859.686 -1.94088 1.31784 0
M  V30 8891 C 860.702 -1.72588 0.221227 0
M  V30 8892 O 861.878 -1.96256 0.452255 0
M  V30 8893 C 858.943 -3.28828 1.09878 0
M  V30 8894 C 858.004 -3.63158 2.28942 0
M  V30 8895 C 857.237 -4.91469 2.08072 0
M  V30 8896 O 857.46 -5.60616 1.05196 0
M  V30 8897 O 856.394 -5.24277 2.95664 0
M  V30 8898 H 860.22 -2.00554 2.28061 0
M  V30 8899 H 857.805 -0.936288 1.16422 0
M  V30 8900 H 859.687 -4.09473 0.995485 0
M  V30 8901 H 858.362 -3.23271 0.16659 0
M  V30 8902 H 857.269 -2.82851 2.44839 0
M  V30 8903 H 858.602 -3.7343 3.20641 0
M  V30 8904 N 860.254 -1.20106 -1.0204 0
M  V30 8905 C 861.502 -1.0069 -1.75231 0
M  V30 8906 C 861.823 0.462491 -1.89436 0
M  V30 8907 O 861.093 1.33455 -1.4341 0
M  V30 8908 H 859.673 -0.369576 -0.649171 0
M  V30 8909 H 862.335 -1.51149 -1.23044 0
M  V30 8910 H 861.431 -1.46205 -2.75736 0
M  V30 8911 N 861.732 1.21287 -1.00634 0
M  V30 8912 C 862.664 2.2308 -0.526094 0
M  V30 8913 C 863.677 1.58157 0.386031 0
M  V30 8914 O 864.866 1.77528 0.186016 0
M  V30 8915 C 861.966 3.37937 0.255289 0
M  V30 8916 C 861.139 4.32449 -0.656236 0
M  V30 8917 C 860.198 5.26145 0.0757714 0
M  V30 8918 O 859.224 5.66601 -0.543325 0
M  V30 8919 N 860.426 5.6449 1.35391 0
M  V30 8920 H 863.191 2.64913 -1.40147 0
M  V30 8921 H 860.752 1.35724 -0.882641 0
M  V30 8922 H 862.744 3.97614 0.753977 0
M  V30 8923 H 861.314 2.95078 1.03187 0
M  V30 8924 H 860.534 3.70892 -1.3354 0
M  V30 8925 H 861.822 4.92526 -1.27653 0
M  V30 8926 H 861.22 5.33617 1.878 0
M  V30 8927 H 859.777 6.26524 1.79753 0
M  V30 8928 N 863.21 0.781244 1.36873 0
M  V30 8929 C 864.626 0.461968 1.52768 0
M  V30 8930 C 864.826 -1.02099 1.73719 0
M  V30 8931 O 863.882 -1.80665 1.76399 0
M  V30 8932 C 865.195 1.2853 2.71846 0
M  V30 8933 C 866.743 1.27817 2.85713 0
M  V30 8934 C 867.218 2.08506 4.07786 0
M  V30 8935 N 868.709 2.05909 4.14917 0
M  V30 8936 C 869.444 2.65118 5.08429 0
M  V30 8937 N 868.94 3.33152 6.07438 0
M  V30 8938 N 870.733 2.54896 5.00983 0
M  V30 8939 H 862.884 1.74198 1.21527 0
M  V30 8940 H 865.147 0.740027 0.592506 0
M  V30 8941 H 864.853 2.3366 2.62861 0
M  V30 8942 H 864.727 0.920981 3.65784 0
M  V30 8943 H 867.114 0.234817 2.94164 0
M  V30 8944 H 867.195 1.68219 1.92707 0
M  V30 8945 H 866.839 3.12867 4.00096 0
M  V30 8946 H 866.769 1.65479 4.99924 0
M  V30 8947 H 869.26 1.56386 3.44023 0
M  V30 8948 H 869.573 3.75681 6.75339 0
M  V30 8949 H 867.918 3.37253 6.07689 0
M  V30 8950 H 871.109 2.01352 4.22581 0
M  V30 8951 H 871.282 3.01332 5.73675 0
M  V30 8952 N 864.689 -1.48329 0.532571 0
M  V30 8953 C 865.621 -2.27652 -0.265931 0
M  V30 8954 C 866.634 -1.35522 -0.902083 0
M  V30 8955 O 867.823 -1.60552 -0.780088 0
M  V30 8956 C 864.923 -3.0899 -1.39207 0
M  V30 8957 C 864.096 -4.28915 -0.857349 0
M  V30 8958 C 863.155 -4.92044 -1.86493 0
M  V30 8959 O 862.181 -5.51181 -1.42084 0
M  V30 8960 N 863.383 -4.84518 -3.19723 0
M  V30 8961 H 866.148 -2.96821 0.414389 0
M  V30 8962 H 863.709 -1.57684 0.367066 0
M  V30 8963 H 865.701 -3.48091 -2.06433 0
M  V30 8964 H 864.271 -2.42224 -1.97601 0
M  V30 8965 H 863.491 -3.94199 -0.00901765 0
M  V30 8966 H 864.779 -5.0654 -0.479025 0
M  V30 8967 H 864.177 -4.37628 -3.58467 0
M  V30 8968 H 862.734 -5.27712 -3.82575 0
M  V30 8969 N 866.167 -0.267825 -1.55308 0
M  V30 8970 C 867.392 0.357487 -2.04296 0
M  V30 8971 C 867.817 1.49222 -1.14518 0
M  V30 8972 O 867.175 1.80741 -0.142292 0
M  V30 8973 C 867.223 0.822899 -3.51085 0
M  V30 8974 O 866.327 1.93078 -3.6441 0
M  V30 8975 H 865.668 0.075025 -0.659748 0
M  V30 8976 H 868.198 -0.399996 -2.00652 0
M  V30 8977 H 868.208 1.12059 -3.92309 0
M  V30 8978 H 866.883 -0.0073562 -4.15899 0
M  V30 8979 H 865.46 1.63618 -3.35087 0
M  V30 8980 N 867.645 1.57599 0.00500368 0
M  V30 8981 C 868.891 1.90631 0.691919 0
M  V30 8982 C 869.224 0.868443 1.737 0
M  V30 8983 O 868.499 -0.113482 1.94169 0
M  V30 8984 C 868.782 3.34255 1.33961 0
M  V30 8985 C 868.635 4.48755 0.306413 0
M  V30 8986 C 869.954 3.77211 2.26715 0
M  V30 8987 H 867.073 0.693279 0.250066 0
M  V30 8988 H 869.715 1.89946 -0.0452634 0
M  V30 8989 H 867.865 3.3497 1.96793 0
M  V30 8990 H 869.537 4.60176 -0.321841 0
M  V30 8991 H 867.78 4.32203 -0.371852 0
M  V30 8992 H 868.451 5.46193 0.798554 0
M  V30 8993 H 870.927 3.78017 1.73904 0
M  V30 8994 H 869.803 4.78466 2.69002 0
M  V30 8995 H 870.064 3.10801 3.14413 0
M  V30 8996 N 869.123 -0.277682 1.55134 0
M  V30 8997 C 870.4 -1.0309 1.66228 0
M  V30 8998 C 870.78 -2.0445 0.525701 0
M  V30 8999 O 870.128 -2.23512 -0.474816 0
M  V30 9000 C 870.338 -1.6919 3.05247 0
M  V30 9001 C 871.686 -2.20526 3.62841 0
M  V30 9002 O 872.71 -1.79185 3.07849 0
M  V30 9003 O 871.569 -2.96342 4.59177 0
M  V30 9004 H 868.663 -0.4779 0.674937 0
M  V30 9005 H 871.209 -0.273912 1.67475 0
M  V30 9006 H 869.981 -0.957163 3.79413 0
M  V30 9007 H 869.604 -2.51587 3.07879 0
M  V30 9008 N 870.601 -1.47988 -0.541979 0
M  V30 9009 C 871.829 -1.59034 -1.32347 0
M  V30 9010 C 872.244 -0.246123 -1.87189 0
M  V30 9011 O 871.601 0.762889 -1.6579 0
M  V30 9012 C 871.652 -2.62759 -2.48274 0
M  V30 9013 O 871.373 -3.91963 -1.95695 0
M  V30 9014 C 872.874 -2.84133 -3.4027 0
M  V30 9015 H 870.094 -0.536574 -0.402901 0
M  V30 9016 H 872.638 -1.93725 -0.655045 0
M  V30 9017 H 870.793 -2.3096 -3.11025 0
M  V30 9018 H 871.207 -4.48769 -2.7149 0
M  V30 9019 H 872.681 -3.60538 -4.17991 0
M  V30 9020 H 873.158 -1.92512 -3.9476 0
M  V30 9021 H 873.764 -3.17188 -2.83322 0
M  V30 9022 N 872.079 0.78992 -1.36375 0
M  V30 9023 C 873.029 1.89227 -1.27189 0
M  V30 9024 C 874.013 1.60067 -0.163498 0
M  V30 9025 O 875.205 1.72507 -0.396262 0
M  V30 9026 C 872.334 3.26431 -1.06292 0
M  V30 9027 C 871.42 3.61602 -2.21596 0
M  V30 9028 N 871.811 3.68086 -3.4691 0
M  V30 9029 C 870.109 3.9166 -2.1335 0
M  V30 9030 C 870.81 3.99481 -4.22835 0
M  V30 9031 N 869.786 4.14438 -3.5177 0
M  V30 9032 H 873.588 1.92465 -2.22113 0
M  V30 9033 H 871.102 0.985414 -1.29087 0
M  V30 9034 H 873.099 4.05267 -0.97798 0
M  V30 9035 H 871.759 3.24468 -0.122676 0
M  V30 9036 H 872.77 3.50743 -3.81051 0
M  V30 9037 H 869.447 3.97626 -1.27279 0
M  V30 9038 H 870.837 4.11425 -5.31205 0
M  V30 9039 N 873.557 1.20646 1.01402 0
M  V30 9040 C 874.804 1.01819 1.7504 0
M  V30 9041 C 875.132 -0.449386 1.89237 0
M  V30 9042 O 874.387 -1.34985 1.41695 0
M  V30 9043 C 874.686 1.64991 3.17037 0
M  V30 9044 C 874.352 3.14808 3.22811 0
M  V30 9045 C 873.014 3.55692 3.24094 0
M  V30 9046 C 875.366 4.108 3.2077 0
M  V30 9047 C 872.694 4.9109 3.2101 0
M  V30 9048 C 875.046 5.46147 3.19227 0
M  V30 9049 C 873.71 5.86441 3.18815 0
M  V30 9050 H 872.98 0.372582 0.640518 0
M  V30 9051 H 875.627 1.50108 1.18911 0
M  V30 9052 H 873.932 1.08971 3.76341 0
M  V30 9053 H 875.629 1.47937 3.72714 0
M  V30 9054 H 872.219 2.8224 3.2255 0
M  V30 9055 H 876.403 3.80246 3.18946 0
M  V30 9056 H 871.659 5.21569 3.19023 0
M  V30 9057 H 875.833 6.20272 3.166 0
M  V30 9058 H 873.46 6.91328 3.16179 0
M  V30 9059 N 875.035 -1.20752 1.01276 0
M  V30 9060 C 876.281 -1.90302 0.700924 0
M  V30 9061 C 876.614 -1.78406 -0.767142 0
M  V30 9062 O 875.889 -1.16575 -1.55694 0
M  V30 9063 C 876.172 -3.41831 1.13242 0
M  V30 9064 C 876.025 -3.6268 2.66051 0
M  V30 9065 C 877.344 -4.34486 0.700738 0
M  V30 9066 H 874.463 -0.69107 0.256107 0
M  V30 9067 H 877.105 -1.42227 1.25982 0
M  V30 9068 H 875.255 -3.82906 0.656902 0
M  V30 9069 H 876.927 -3.30882 3.21426 0
M  V30 9070 H 875.17 -3.06281 3.07204 0
M  V30 9071 H 875.841 -4.68882 2.91296 0
M  V30 9072 H 878.317 -4.01036 1.10948 0
M  V30 9073 H 877.193 -5.39136 1.03073 0
M  V30 9074 H 877.454 -4.40307 -0.39778 0
M  V30 9075 N 876.513 -0.788492 -1.36457 0
M  V30 9076 C 877.46 -0.18435 -2.30063 0
M  V30 9077 C 878.43 0.67128 -1.51931 0
M  V30 9078 O 879.615 0.620152 -1.8044 0
M  V30 9079 C 876.755 0.675596 -3.38422 0
M  V30 9080 C 875.868 -0.198475 -4.31544 0
M  V30 9081 C 875.003 0.667757 -5.26986 0
M  V30 9082 C 874.042 -0.207825 -6.11747 0
M  V30 9083 N 873.179 0.617335 -6.99381 0
M  V30 9084 H 878.019 -0.988056 -2.81143 0
M  V30 9085 H 875.556 -0.498815 -1.38384 0
M  V30 9086 H 877.514 1.18916 -3.99894 0
M  V30 9087 H 876.144 1.44474 -2.88664 0
M  V30 9088 H 875.196 -0.829995 -3.71235 0
M  V30 9089 H 876.508 -0.873163 -4.91098 0
M  V30 9090 H 875.662 1.24716 -5.93743 0
M  V30 9091 H 874.401 1.37607 -4.67884 0
M  V30 9092 H 873.406 -0.799638 -5.43954 0
M  V30 9093 H 874.631 -0.913729 -6.72925 0
M  V30 9094 H 872.577 1.30996 -6.42788 0
M  V30 9095 H 872.494 0.000307255 -7.56 0
M  V30 9096 H 873.762 1.1806 -7.70508 0
M  V30 9097 N 877.991 1.48044 -0.54043 0
M  V30 9098 C 879.239 2.02097 -0.0101367 0
M  V30 9099 C 879.56 1.41881 1.33771 0
M  V30 9100 O 878.83 0.587923 1.8687 0
M  V30 9101 H 877.41 0.747 -0.000758716 0
M  V30 9102 H 880.072 1.81639 -0.706634 0
M  V30 9103 H 879.168 3.11969 0.0904474 0
M  V30 9104 N 879.47 0.276058 1.55163 0
M  V30 9105 C 880.698 -0.343772 2.04024 0
M  V30 9106 C 881.113 -1.49397 1.15438 0
M  V30 9107 O 880.47 -1.81662 0.174692 0
M  V30 9108 C 880.521 -0.823885 3.51986 0
M  V30 9109 O 880.242 0.280507 4.37201 0
M  V30 9110 C 881.743 -1.51143 4.16738 0
M  V30 9111 H 878.963 -0.07828 0.666418 0
M  V30 9112 H 881.507 0.408427 2.0038 0
M  V30 9113 H 879.662 -1.52617 3.56071 0
M  V30 9114 H 880.076 -0.0887831 5.24425 0
M  V30 9115 H 881.55 -1.79878 5.2187 0
M  V30 9116 H 882.027 -2.44327 3.64967 0
M  V30 9117 H 882.633 -0.852975 4.16659 0
M  V30 9118 N 880.948 -1.576 0.00335426 0
M  V30 9119 C 882.197 -1.89892 -0.680001 0
M  V30 9120 C 882.51 -0.878731 -1.7475 0
M  V30 9121 O 883.716 -1.09199 -2.48572 0
M  V30 9122 C 882.172 -3.37098 -1.26066 0
M  V30 9123 C 881.78 -4.4742 -0.227807 0
M  V30 9124 C 883.524 -3.78495 -1.92202 0
M  V30 9125 C 881.431 -5.85706 -0.81865 0
M  V30 9126 H 880.361 -0.708578 -0.257746 0
M  V30 9127 H 883.012 -1.83387 0.0644472 0
M  V30 9128 H 881.394 -3.38451 -2.05589 0
M  V30 9129 H 882.568 -4.57589 0.54307 0
M  V30 9130 H 880.883 -4.15064 0.333297 0
M  V30 9131 H 883.48 -4.7915 -2.37318 0
M  V30 9132 H 883.823 -3.12187 -2.75399 0
M  V30 9133 H 884.356 -3.79456 -1.19408 0
M  V30 9134 H 881.095 -6.55495 -0.0253787 0
M  V30 9135 H 880.615 -5.79196 -1.55861 0
M  V30 9136 H 882.294 -6.33469 -1.31627 0
M  V30 9137 N 882.426 0.269451 -1.5528 0
M  V30 9138 C 883.389 1.31642 -1.87625 0
M  V30 9139 C 884.389 1.42182 -0.751058 0
M  V30 9140 O 885.579 1.41272 -1.01921 0
M  V30 9141 C 882.711 2.6973 -2.08467 0
M  V30 9142 H 883.904 1.0419 -2.81219 0
M  V30 9143 H 881.457 0.507685 -1.47825 0
M  V30 9144 H 882.192 3.02356 -1.17266 0
M  V30 9145 H 881.977 2.63465 -2.90394 0
M  V30 9146 H 883.467 3.4537 -2.34753 0
M  V30 9147 N 883.904 1.48273 0.534124 0
M  V30 9148 C 884.867 1.6201 1.62127 0
M  V30 9149 C 885.867 0.493653 1.53035 0
M  V30 9150 O 887.057 0.759337 1.56779 0
M  V30 9151 C 884.189 1.5864 3.01739 0
M  V30 9152 H 885.382 2.58944 1.51288 0
M  V30 9153 H 882.935 1.36808 0.755861 0
M  V30 9154 H 883.67 0.631685 3.18088 0
M  V30 9155 H 883.455 2.40415 3.09747 0
M  V30 9156 H 884.945 1.71438 3.80787 0
M  V30 9157 N 885.382 -0.782676 1.36792 0
M  V30 9158 C 886.659 -1.52939 1.21939 0
M  V30 9159 C 887.039 -2.10228 -0.191639 0
M  V30 9160 O 886.387 -1.94574 -1.19805 0
M  V30 9161 C 886.597 -2.61898 2.30674 0
M  V30 9162 C 887.945 -3.29598 2.67676 0
M  V30 9163 O 888.969 -2.72186 2.29768 0
M  V30 9164 O 887.828 -4.3337 3.32946 0
M  V30 9165 H 884.922 -0.676856 0.47518 0
M  V30 9166 H 887.468 -0.82058 1.48542 0
M  V30 9167 H 886.24 -2.17607 3.25212 0
M  V30 9168 H 885.863 -3.40391 2.05475 0
M  V30 9169 N 886.86 -1.21182 -1.00761 0
M  V30 9170 C 887.807 -0.968741 -2.09485 0
M  V30 9171 C 888.777 0.104325 -1.65772 0
M  V30 9172 O 889.962 -0.0422587 -1.90753 0
M  V30 9173 C 887.102 -0.536686 -3.40901 0
M  V30 9174 C 886.215 -1.6789 -3.98041 0
M  V30 9175 C 885.35 -1.19627 -5.17555 0
M  V30 9176 C 884.389 -2.31099 -5.66798 0
M  V30 9177 N 883.526 -1.83988 -6.77564 0
M  V30 9178 H 888.366 -1.89952 -2.29613 0
M  V30 9179 H 885.903 -0.946688 -1.12589 0
M  V30 9180 H 887.861 -0.26745 -4.16342 0
M  V30 9181 H 886.491 0.357092 -3.20819 0
M  V30 9182 H 885.543 -2.06284 -3.19611 0
M  V30 9183 H 886.855 -2.51794 -4.30582 0
M  V30 9184 H 886.009 -0.883539 -6.00232 0
M  V30 9185 H 884.748 -0.327244 -4.86601 0
M  V30 9186 H 883.753 -2.63178 -4.82719 0
M  V30 9187 H 884.978 -3.18493 -5.99782 0
M  V30 9188 H 882.924 -0.994257 -6.48422 0
M  V30 9189 H 882.841 -2.61466 -7.09346 0
M  V30 9190 H 884.109 -1.55741 -7.63783 0
M  V30 9191 N 888.338 1.20213 -1.01915 0
M  V30 9192 C 889.563 1.94163 -0.729076 0
M  V30 9193 C 889.988 1.74416 0.704323 0
M  V30 9194 O 889.346 1.0401 1.48498 0
M  V30 9195 C 889.394 3.44258 -1.07324 0
M  V30 9196 O 888.498 4.11979 -0.186367 0
M  V30 9197 H 887.839 0.606506 -0.270272 0
M  V30 9198 H 890.369 1.52571 -1.3632 0
M  V30 9199 H 890.379 3.94888 -1.02603 0
M  V30 9200 H 889.054 3.57954 -2.11759 0
M  V30 9201 H 887.631 3.7176 -0.291334 0
M  V30 9202 N 889.816 0.795718 1.36037 0
M  V30 9203 C 891.044 0.383153 2.03321 0
M  V30 9204 C 891.459 -1.00246 1.59988 0
M  V30 9205 O 890.816 -1.64406 0.792265 0
M  V30 9206 C 890.867 0.444467 3.58757 0
M  V30 9207 O 890.588 1.77544 4.00512 0
M  V30 9208 C 892.089 0.0233291 4.43294 0
M  V30 9209 H 889.309 0.157061 0.652359 0
M  V30 9210 H 891.853 1.07632 1.73884 0
M  V30 9211 H 890.008 -0.200341 3.86882 0
M  V30 9212 H 890.422 1.73065 4.95125 0
M  V30 9213 H 891.896 0.117361 5.51875 0
M  V30 9214 H 892.373 -1.03007 4.2695 0
M  V30 9215 H 892.979 0.64087 4.20444 0
M  V30 9216 N 891.294 -1.47756 0.548274 0
M  V30 9217 C 892.224 -2.32702 -0.19284 0
M  V30 9218 C 893.205 -1.43237 -0.917457 0
M  V30 9219 O 894.39 -1.72103 -0.89967 0
M  V30 9220 C 891.52 -3.24831 -1.22891 0
M  V30 9221 C 890.474 -4.23466 -0.621312 0
M  V30 9222 C 889.8 -5.04856 -1.76137 0
M  V30 9223 C 891.1 -5.20616 0.419055 0
M  V30 9224 H 892.794 -2.94914 0.516323 0
M  V30 9225 H 890.34 -1.41818 0.24975 0
M  V30 9226 H 892.293 -3.83094 -1.75547 0
M  V30 9227 H 891.017 -2.60656 -1.9679 0
M  V30 9228 H 889.676 -3.66416 -0.116123 0
M  V30 9229 H 889.324 -4.37091 -2.48918 0
M  V30 9230 H 889.024 -5.71629 -1.36065 0
M  V30 9231 H 890.548 -5.65976 -2.29136 0
M  V30 9232 H 891.962 -5.73296 -0.0211034 0
M  V30 9233 H 890.359 -5.95543 0.738163 0
M  V30 9234 H 891.429 -4.66638 1.31822 0
M  V30 9235 N 892.772 -0.284283 -1.55015 0
M  V30 9236 C 893.735 0.586182 -2.21577 0
M  V30 9237 C 894.735 1.07427 -1.1965 0
M  V30 9238 O 895.925 0.972977 -1.44495 0
M  V30 9239 C 893.057 1.80973 -2.88897 0
M  V30 9240 H 894.25 0.00487253 -2.999 0
M  V30 9241 H 891.803 -0.0349696 -1.56261 0
M  V30 9242 H 892.538 2.43131 -2.14611 0
M  V30 9243 H 892.323 1.46757 -3.636 0
M  V30 9244 H 893.813 2.42853 -3.39724 0
M  V30 9245 N 894.251 1.57596 -0.0117121 0
M  V30 9246 C 895.214 2.08089 0.960816 0
M  V30 9247 C 896.214 0.992519 1.26514 0
M  V30 9248 O 897.404 1.25475 1.20837 0
M  V30 9249 C 894.536 2.53217 2.28241 0
M  V30 9250 H 895.729 2.9529 0.523829 0
M  V30 9251 H 893.282 1.54508 0.235995 0
M  V30 9252 H 894.017 1.69294 2.76604 0
M  V30 9253 H 893.802 3.32714 2.0747 0
M  V30 9254 H 895.292 2.92568 2.97983 0
M  V30 9255 N 895.729 -0.261212 1.5542 0
M  V30 9256 C 896.975 -0.992699 1.76843 0
M  V30 9257 C 897.308 -1.8551 0.574428 0
M  V30 9258 O 896.583 -1.89739 -0.427713 0
M  V30 9259 C 896.866 -1.86532 3.08022 0
M  V30 9260 C 896.719 -1.03206 4.378 0
M  V30 9261 C 898.038 -2.85036 3.35324 0
M  V30 9262 H 895.157 -0.359473 0.643388 0
M  V30 9263 H 897.799 -0.264214 1.88154 0
M  V30 9264 H 895.949 -2.48644 2.9851 0
M  V30 9265 H 897.621 -0.430743 4.59285 0
M  V30 9266 H 895.864 -0.335911 4.32497 0
M  V30 9267 H 896.535 -1.6761 5.25938 0
M  V30 9268 H 899.011 -2.3306 3.44706 0
M  V30 9269 H 897.887 -3.43226 4.28354 0
M  V30 9270 H 898.148 -3.60768 2.55537 0
M  V30 9271 N 897.207 -1.48554 -0.526253 0
M  V30 9272 C 898.618 -1.50256 -1.10815 0
M  V30 9273 C 898.969 -0.274445 -1.94271 0
M  V30 9274 O 898.094 0.618094 -2.07385 0
M  V30 9275 C 898.689 -2.72264 -2.01638 0
M  V30 9276 C 897.248 -2.76826 -2.55038 0
M  V30 9277 C 896.395 -2.43823 -1.32081 0
M  V30 9278 H 899.346 -1.55616 -0.31133 0
M  V30 9279 H 899.367 -2.50993 -2.85977 0
M  V30 9280 H 898.879 -3.61632 -1.4087 0
M  V30 9281 H 896.98 -1.91676 -3.19517 0
M  V30 9282 H 897.093 -3.78351 -2.93917 0
M  V30 9283 H 895.457 -1.95058 -1.63781 0
M  V30 9284 H 896.24 -3.35436 -0.730596 0
M  V30 9285 N 898.685 0.775411 -1.37205 0
M  V30 9286 C 899.913 1.56446 -1.35397 0
M  V30 9287 C 900.328 1.887 0.0615437 0
M  V30 9288 O 899.685 1.51178 1.02233 0
M  V30 9289 C 899.736 2.87697 -2.18889 0
M  V30 9290 O 899.457 2.56828 -3.54924 0
M  V30 9291 C 900.958 3.81944 -2.25019 0
M  V30 9292 H 898.178 0.484792 -0.463916 0
M  V30 9293 H 900.722 0.961346 -1.80495 0
M  V30 9294 H 898.877 3.44442 -1.7731 0
M  V30 9295 H 899.291 3.40851 -3.98649 0
M  V30 9296 H 900.765 4.71055 -2.87769 0
M  V30 9297 H 901.242 4.20811 -1.25757 0
M  V30 9298 H 901.848 3.3113 -2.66895 0
M  V30 9299 N 900.163 1.21714 1.00117 0
M  V30 9300 C 901.388 1.06357 1.78054 0
M  V30 9301 C 901.813 -0.382075 1.84179 0
M  V30 9302 O 901.171 -1.27575 1.28819 0
M  V30 9303 C 901.219 1.66982 3.19608 0
M  V30 9304 O 900.323 0.917892 4.02055 0
M  V30 9305 H 899.664 0.374074 0.548602 0
M  V30 9306 H 902.194 1.61338 1.25822 0
M  V30 9307 H 902.204 1.71363 3.70268 0
M  V30 9308 H 900.879 2.72185 3.14465 0
M  V30 9309 H 899.456 0.949473 3.6061 0
M  V30 9310 N 901.641 -1.19671 1.02551 0
M  V30 9311 C 902.89 -1.88591 0.715272 0
M  V30 9312 C 903.203 -1.80274 -0.758982 0
M  V30 9313 O 904.409 -2.44413 -1.18213 0
M  V30 9314 C 902.865 -3.38264 1.22905 0
M  V30 9315 C 902.473 -3.55146 2.73084 0
M  V30 9316 C 904.217 -4.12683 0.994649 0
M  V30 9317 C 902.124 -4.98693 3.17897 0
M  V30 9318 H 901.054 -0.706326 0.263857 0
M  V30 9319 H 903.705 -1.35322 1.23936 0
M  V30 9320 H 902.087 -3.9091 0.632892 0
M  V30 9321 H 903.261 -3.12845 3.38326 0
M  V30 9322 H 901.576 -2.94112 2.94766 0
M  V30 9323 H 904.173 -5.18536 1.30478 0
M  V30 9324 H 904.516 -4.16243 -0.0686466 0
M  V30 9325 H 905.049 -3.66164 1.55464 0
M  V30 9326 H 901.788 -5.00293 4.23542 0
M  V30 9327 H 901.308 -5.4177 2.57381 0
M  V30 9328 H 902.987 -5.67327 3.11045 0
M  V30 9329 N 903.119 -0.802921 -1.35613 0
M  V30 9330 C 904.368 -0.378087 -1.98125 0
M  V30 9331 C 904.681 1.05953 -1.64418 0
M  V30 9332 O 905.887 1.58729 -2.20266 0
M  V30 9333 C 904.343 -0.625077 -3.5443 0
M  V30 9334 C 903.951 -2.07499 -3.97049 0
M  V30 9335 C 905.695 -0.265419 -4.23669 0
M  V30 9336 C 903.602 -2.26793 -5.46186 0
M  V30 9337 H 902.532 -0.137633 -0.741332 0
M  V30 9338 H 905.183 -0.986461 -1.54729 0
M  V30 9339 H 903.565 0.0531975 -3.95964 0
M  V30 9340 H 904.739 -2.79077 -3.66678 0
M  V30 9341 H 903.054 -2.39417 -3.40688 0
M  V30 9342 H 905.651 -0.387669 -5.33293 0
M  V30 9343 H 905.994 0.787994 -4.08774 0
M  V30 9344 H 906.527 -0.897464 -3.87544 0
M  V30 9345 H 903.266 -3.30566 -5.66045 0
M  V30 9346 H 902.786 -1.59735 -5.78139 0
M  V30 9347 H 904.465 -2.08165 -6.12598 0
M  V30 9348 N 904.597 1.47463 -0.556102 0
M  V30 9349 C 905.56 2.28478 0.181743 0
M  V30 9350 C 906.56 1.36886 0.843738 0
M  V30 9351 O 907.75 1.59527 0.69977 0
M  V30 9352 C 904.882 3.16534 1.26566 0
M  V30 9353 H 906.075 2.95182 -0.529892 0
M  V30 9354 H 903.628 1.53134 -0.313005 0
M  V30 9355 H 904.363 2.5452 2.00973 0
M  V30 9356 H 904.148 3.83939 0.795798 0
M  V30 9357 H 905.638 3.77579 1.78393 0
M  V30 9358 N 906.075 0.2925 1.54862 0
M  V30 9359 C 907.352 -0.371946 1.92031 0
M  V30 9360 C 907.732 -1.72363 1.21878 0
M  V30 9361 O 907.08 -2.25779 0.351573 0
M  V30 9362 C 907.29 -0.495027 3.45471 0
M  V30 9363 C 908.638 -0.769855 4.17562 0
M  V30 9364 O 909.662 -0.579168 3.5146 0
M  V30 9365 O 908.521 -1.13561 5.34571 0
M  V30 9366 H 905.615 -0.206463 0.800813 0
M  V30 9367 H 908.161 0.339933 1.6626 0
M  V30 9368 H 906.933 0.455528 3.88639 0
M  V30 9369 H 906.556 -1.2557 3.7725 0
M  V30 9370 N 907.553 -1.57587 0.0200696 0
M  V30 9371 C 908.801 -1.91046 -0.65922 0
M  V30 9372 C 909.122 -0.896197 -1.73186 0
M  V30 9373 O 908.392 0.0635952 -1.95797 0
M  V30 9374 H 906.972 -0.705163 -0.246483 0
M  V30 9375 H 909.634 -1.94789 0.0657368 0
M  V30 9376 H 908.73 -2.91399 -1.11773 0
M  V30 9377 N 909.032 0.252966 -1.55557 0
M  V30 9378 C 909.962 1.31691 -1.9282 0
M  V30 9379 C 910.943 1.50516 -0.7924 0
M  V30 9380 O 912.128 1.63225 -1.05219 0
M  V30 9381 C 909.258 2.67281 -2.21762 0
M  V30 9382 C 908.212 2.6316 -3.37536 0
M  V30 9383 C 907.538 4.02488 -3.52005 0
M  V30 9384 C 908.838 2.20675 -4.73392 0
M  V30 9385 H 910.532 1.00751 -2.81939 0
M  V30 9386 H 908.078 0.483219 -1.3565 0
M  V30 9387 H 910.031 3.41842 -2.46419 0
M  V30 9388 H 908.755 2.99845 -1.29463 0
M  V30 9389 H 907.414 1.91057 -3.12878 0
M  V30 9390 H 907.062 4.32307 -2.57137 0
M  V30 9391 H 906.762 4.00621 -4.29857 0
M  V30 9392 H 908.286 4.78758 -3.78977 0
M  V30 9393 H 909.7 2.84965 -4.97461 0
M  V30 9394 H 908.097 2.29931 -5.54303 0
M  V30 9395 H 909.167 1.15831 -4.70862 0
M  V30 9396 N 910.51 1.48831 0.518367 0
M  V30 9397 C 911.443 1.588 1.63884 0
M  V30 9398 C 912.421 0.437847 1.56594 0
M  V30 9399 O 913.605 0.651042 1.769 0
M  V30 9400 C 910.732 1.52681 3.02335 0
M  V30 9401 C 909.778 2.7268 3.27945 0
M  V30 9402 S 910.611 4.34536 3.12951 0
M  V30 9403 C 911.767 4.31034 4.53828 0
M  V30 9404 H 912 2.53587 1.5518 0
M  V30 9405 H 909.533 1.37507 0.702218 0
M  V30 9406 H 911.491 1.49837 3.82177 0
M  V30 9407 H 910.152 0.592107 3.08469 0
M  V30 9408 H 909.345 2.64569 4.28974 0
M  V30 9409 H 908.947 2.72847 2.55794 0
M  V30 9410 H 911.239 4.01683 5.45579 0
M  V30 9411 H 912.182 5.32282 4.66991 0
M  V30 9412 H 912.59 3.61343 4.33695 0
M  V30 9413 N 911.988 -0.768124 1.37614 0
M  V30 9414 C 912.951 -1.86314 1.3349 0
M  V30 9415 C 913.951 -1.59025 0.23823 0
M  V30 9416 O 915.141 -1.6704 0.494288 0
M  V30 9417 C 912.273 -3.23519 1.07462 0
M  V30 9418 H 913.466 -1.91382 2.30896 0
M  V30 9419 H 911.019 -0.968267 1.22696 0
M  V30 9420 H 911.754 -3.24127 0.106028 0
M  V30 9421 H 911.539 -3.44719 1.86846 0
M  V30 9422 H 913.029 -4.03597 1.07236 0
M  V30 9423 N 913.466 -1.22244 -0.994698 0
M  V30 9424 C 914.691 -1.07299 -1.77487 0
M  V30 9425 C 915.116 0.372302 -1.84379 0
M  V30 9426 O 914.474 1.2689 -1.29494 0
M  V30 9427 C 914.522 -1.68675 -3.18718 0
M  V30 9428 O 913.626 -0.939202 -4.01563 0
M  V30 9429 H 912.967 -0.376979 -0.546611 0
M  V30 9430 H 915.497 -1.62003 -1.24965 0
M  V30 9431 H 915.507 -1.73324 -3.69354 0
M  V30 9432 H 914.182 -2.73849 -3.13017 0
M  V30 9433 H 912.759 -0.968583 -3.60101 0
M  V30 9434 N 914.944 1.19125 -1.03184 0
M  V30 9435 C 916.172 1.92838 -0.74975 0
M  V30 9436 C 916.587 1.75667 0.691851 0
M  V30 9437 O 915.944 1.0805 1.47076 0
M  V30 9438 C 915.995 3.44509 -1.09525 0
M  V30 9439 O 915.716 3.6113 -2.48025 0
M  V30 9440 C 917.217 4.35338 -0.836397 0
M  V30 9441 H 914.437 0.61246 -0.274105 0
M  V30 9442 H 916.981 1.5118 -1.37712 0
M  V30 9443 H 915.136 3.83988 -0.513006 0
M  V30 9444 H 915.55 4.54959 -2.60984 0
M  V30 9445 H 917.024 5.4035 -1.12808 0
M  V30 9446 H 917.501 4.38602 0.229102 0
M  V30 9447 H 918.107 4.01544 -1.40152 0
M  V30 9448 N 916.422 0.810101 1.35185 0
M  V30 9449 C 917.671 0.388589 1.97921 0
M  V30 9450 C 917.984 -1.05079 1.64978 0
M  V30 9451 O 919.19 -1.57559 2.21105 0
M  V30 9452 C 917.646 0.643864 3.54094 0
M  V30 9453 C 917.254 2.09602 3.95943 0
M  V30 9454 C 918.998 0.287883 4.23523 0
M  V30 9455 C 916.905 2.29686 5.44976 0
M  V30 9456 H 915.835 0.141562 0.740592 0
M  V30 9457 H 918.486 0.994653 1.54204 0
M  V30 9458 H 916.868 -0.0321978 3.95987 0
M  V30 9459 H 918.042 2.81018 3.65192 0
M  V30 9460 H 916.357 2.4122 3.39414 0
M  V30 9461 H 918.954 0.415946 5.3308 0
M  V30 9462 H 919.297 -0.766305 4.09186 0
M  V30 9463 H 919.83 0.918004 3.87063 0
M  V30 9464 H 916.569 3.33563 5.64284 0
M  V30 9465 H 916.089 1.62798 5.77284 0
M  V30 9466 H 917.768 2.11411 6.11485 0
M  V30 9467 N 917.9 -1.47166 0.563914 0
M  V30 9468 C 919.128 -2.06846 0.0474287 0
M  V30 9469 C 919.543 -1.41557 -1.24928 0
M  V30 9470 O 918.9 -0.514376 -1.75101 0
M  V30 9471 C 918.951 -3.6121 -0.144831 0
M  V30 9472 O 918.672 -4.24052 1.10053 0
M  V30 9473 C 920.173 -4.37773 -0.69783 0
M  V30 9474 H 917.393 -0.669217 0.0488896 0
M  V30 9475 H 919.937 -1.89072 0.779235 0
M  V30 9476 H 918.092 -3.78474 -0.82679 0
M  V30 9477 H 918.506 -5.16677 0.902481 0
M  V30 9478 H 919.98 -5.46438 -0.781616 0
M  V30 9479 H 920.457 -4.04517 -1.71063 0
M  V30 9480 H 921.063 -4.25269 -0.0513516 0
M  V30 9481 N 919.378 -0.300708 -1.54705 0
M  V30 9482 C 920.308 0.568675 -2.26469 0
M  V30 9483 C 921.289 1.13817 -1.26411 0
M  V30 9484 O 922.474 1.16756 -1.55183 0
M  V30 9485 C 919.604 1.74077 -3.00524 0
M  V30 9486 C 918.558 1.30165 -4.07727 0
M  V30 9487 C 917.884 2.55888 -4.69495 0
M  V30 9488 C 919.184 0.433106 -5.20501 0
M  V30 9489 H 920.878 -0.0298851 -2.99385 0
M  V30 9490 H 918.424 -0.0158135 -1.43991 0
M  V30 9491 H 920.377 2.35506 -3.49449 0
M  V30 9492 H 919.101 2.36556 -2.25186 0
M  V30 9493 H 917.76 0.710414 -3.59651 0
M  V30 9494 H 917.408 3.16681 -3.90797 0
M  V30 9495 H 917.108 2.27207 -5.41895 0
M  V30 9496 H 918.632 3.18121 -5.21183 0
M  V30 9497 H 920.046 0.95307 -5.65322 0
M  V30 9498 H 918.443 0.240085 -5.9962 0
M  V30 9499 H 919.513 -0.541866 -4.81863 0
M  V30 9500 N 920.856 1.57574 -0.0284266 0
M  V30 9501 C 921.766 2.13637 0.96936 0
M  V30 9502 C 922.782 1.08845 1.35752 0
M  V30 9503 O 923.958 1.40899 1.43908 0
M  V30 9504 C 921.023 2.65179 2.2334 0
M  V30 9505 C 920.084 3.84683 1.90572 0
M  V30 9506 C 919.317 4.33758 3.1095 0
M  V30 9507 O 919.54 3.82009 4.23586 0
M  V30 9508 O 918.474 5.2561 2.93288 0
M  V30 9509 H 922.3 2.99169 0.52267 0
M  V30 9510 H 919.885 1.48159 0.192135 0
M  V30 9511 H 921.767 2.98402 2.97547 0
M  V30 9512 H 920.442 1.82731 2.67191 0
M  V30 9513 H 919.349 3.56386 1.13753 0
M  V30 9514 H 920.682 4.68292 1.51538 0
M  V30 9515 N 922.334 -0.244713 1.55689 0
M  V30 9516 C 923.264 -1.30667 1.93516 0
M  V30 9517 C 924.245 -1.50094 0.800371 0
M  V30 9518 O 925.43 -1.62665 1.06083 0
M  V30 9519 C 922.56 -2.66101 2.23176 0
M  V30 9520 C 921.514 -2.61366 3.38927 0
M  V30 9521 C 920.84 -4.00616 3.54134 0
M  V30 9522 C 922.14 -2.18161 4.74555 0
M  V30 9523 H 923.834 -0.992546 2.82469 0
M  V30 9524 H 921.38 -0.476018 1.35905 0
M  V30 9525 H 923.333 -3.4053 2.48228 0
M  V30 9526 H 922.057 -2.99154 1.31051 0
M  V30 9527 H 920.716 -1.89395 3.13887 0
M  V30 9528 H 920.364 -4.30938 2.59426 0
M  V30 9529 H 920.064 -3.98335 4.31975 0
M  V30 9530 H 921.588 -4.76741 3.8151 0
M  V30 9531 H 923.002 -2.82323 4.98965 0
M  V30 9532 H 921.399 -2.26988 5.55515 0
M  V30 9533 H 922.469 -1.13333 4.7147 0
M  V30 9534 N 923.813 -1.49104 -0.510467 0
M  V30 9535 C 924.76 -1.65074 -1.61305 0
M  V30 9536 C 925.73 -0.492362 -1.58635 0
M  V30 9537 O 926.915 -0.718241 -1.76765 0
M  V30 9538 C 924.055 -1.71457 -2.99493 0
M  V30 9539 C 923.168 -2.98536 -3.12251 0
M  V30 9540 C 922.303 -2.95957 -4.41116 0
M  V30 9541 C 921.342 -4.17655 -4.47471 0
M  V30 9542 N 920.479 -4.13041 -5.67751 0
M  V30 9543 H 925.319 -2.59222 -1.46996 0
M  V30 9544 H 922.856 -1.28535 -0.715346 0
M  V30 9545 H 924.814 -1.7314 -3.79577 0
M  V30 9546 H 923.444 -0.807834 -3.12528 0
M  V30 9547 H 922.496 -3.06509 -2.25292 0
M  V30 9548 H 923.808 -3.88527 -3.12807 0
M  V30 9549 H 922.962 -2.96149 -5.2951 0
M  V30 9550 H 921.701 -2.03728 -4.4311 0
M  V30 9551 H 920.706 -4.17717 -3.57481 0
M  V30 9552 H 921.931 -5.11066 -4.472 0
M  V30 9553 H 919.877 -3.23643 -5.70606 0
M  V30 9554 H 919.794 -4.96757 -5.69884 0
M  V30 9555 H 921.062 -4.17322 -6.58379 0
M  V30 9556 N 925.291 0.760815 -1.38019 0
M  V30 9557 C 926.568 1.5098 -1.24356 0
M  V30 9558 C 926.948 2.10507 0.158169 0
M  V30 9559 O 926.296 1.96455 1.16695 0
M  V30 9560 C 926.506 2.58195 -2.34811 0
M  V30 9561 C 927.854 3.25297 -2.72886 0
M  V30 9562 O 928.878 2.68496 -2.34069 0
M  V30 9563 O 927.737 4.28018 -3.39799 0
M  V30 9564 H 924.831 0.66921 -0.485888 0
M  V30 9565 H 927.377 0.796844 -1.49828 0
M  V30 9566 H 926.149 2.12406 -3.28633 0
M  V30 9567 H 925.772 3.37079 -2.10864 0
M  V30 9568 N 926.769 1.22769 0.988202 0
M  V30 9569 C 927.997 1.08155 1.76381 0
M  V30 9570 C 928.412 -0.367573 1.85187 0
M  V30 9571 O 927.769 -1.25455 1.32541 0
M  V30 9572 C 927.82 1.69193 3.19462 0
M  V30 9573 O 927.541 3.08437 3.11125 0
M  V30 9574 C 929.042 1.59915 4.13451 0
M  V30 9575 H 926.262 0.378908 0.553778 0
M  V30 9576 H 928.806 1.6246 1.24206 0
M  V30 9577 H 926.961 1.18939 3.6869 0
M  V30 9578 H 927.375 3.37916 4.0114 0
M  V30 9579 H 928.849 2.07339 5.1158 0
M  V30 9580 H 929.326 0.556546 4.3566 0
M  V30 9581 H 929.932 2.09497 3.70123 0
M  V30 9582 N 928.247 -1.18576 1.03814 0
M  V30 9583 C 929.477 -1.92158 0.758864 0
M  V30 9584 C 929.885 -1.76267 -0.687498 0
M  V30 9585 O 929.228 -1.08806 -1.4801 0
M  V30 9586 C 929.29 -3.44063 1.04217 0
M  V30 9587 C 928.954 -3.8373 2.48193 0
M  V30 9588 C 929.951 -3.87722 3.46363 0
M  V30 9589 C 927.636 -4.151 2.82838 0
M  V30 9590 C 929.63 -4.2253 4.77229 0
M  V30 9591 C 927.317 -4.49578 4.13911 0
M  V30 9592 C 928.315 -4.53269 5.10917 0
M  V30 9593 O 928.003 -4.86945 6.39641 0
M  V30 9594 H 927.735 -0.61694 0.276335 0
M  V30 9595 H 930.289 -1.51388 1.38819 0
M  V30 9596 H 928.519 -3.85061 0.355709 0
M  V30 9597 H 930.208 -3.9889 0.751091 0
M  V30 9598 H 930.974 -3.63627 3.20936 0
M  V30 9599 H 926.853 -4.11406 2.08006 0
M  V30 9600 H 930.397 -4.25326 5.52941 0
M  V30 9601 H 926.294 -4.73133 4.39107 0
M  V30 9602 H 927.062 -5.04857 6.44253 0
M  V30 9603 N 929.725 -0.817259 -1.34754 0
M  V30 9604 C 930.973 -0.401852 -1.98065 0
M  V30 9605 C 931.294 1.03718 -1.65129 0
M  V30 9606 O 930.564 1.71921 -0.939141 0
M  V30 9607 H 929.144 -0.145603 -0.732672 0
M  V30 9608 H 931.806 -1.04545 -1.64488 0
M  V30 9609 H 930.902 -0.516241 -3.07801 0
M  V30 9610 N 931.203 1.46865 -0.571711 0
M  V30 9611 C 932.48 1.95596 0.0132445 0
M  V30 9612 C 932.86 1.51438 1.47071 0
M  V30 9613 O 932.208 0.759917 2.15494 0
M  V30 9614 C 932.418 3.48689 -0.147335 0
M  V30 9615 C 933.766 4.24599 -0.00946329 0
M  V30 9616 O 934.79 3.5612 -0.0756112 0
M  V30 9617 O 933.649 5.46332 0.135361 0
M  V30 9618 H 930.743 0.825102 0.0560039 0
M  V30 9619 H 933.289 1.57199 -0.639256 0
M  V30 9620 H 932.061 3.73681 -1.16096 0
M  V30 9621 H 931.684 3.93887 0.542109 0
M  V30 9622 N 932.681 0.308908 1.54543 0
M  V30 9623 C 934.092 -0.182144 1.85809 0
M  V30 9624 C 934.443 -1.52796 1.23076 0
M  V30 9625 O 933.568 -2.09775 0.531358 0
M  V30 9626 C 934.163 -0.337275 3.37117 0
M  V30 9627 C 932.722 -0.772545 3.68387 0
M  V30 9628 C 931.869 0.114451 2.77064 0
M  V30 9629 H 934.82 0.529671 1.496 0
M  V30 9630 H 934.841 -1.17058 3.62046 0
M  V30 9631 H 934.353 0.642382 3.82747 0
M  V30 9632 H 932.454 -1.76247 3.2828 0
M  V30 9633 H 932.567 -0.586453 4.75497 0
M  V30 9634 H 930.931 -0.407581 2.51418 0
M  V30 9635 H 931.714 1.09061 3.25516 0
M  V30 9636 N 934.159 -1.57557 0.0367827 0
M  V30 9637 C 935.091 -2.07597 -0.971395 0
M  V30 9638 C 936.104 -1.0009 -1.28397 0
M  V30 9639 O 937.293 -1.27692 -1.24728 0
M  V30 9640 C 934.393 -2.492 -2.2968 0
M  V30 9641 C 933.566 -3.79875 -2.16826 0
M  V30 9642 C 932.625 -4.07946 -3.32366 0
M  V30 9643 O 931.651 -4.78083 -3.0891 0
M  V30 9644 N 932.853 -3.58722 -4.56397 0
M  V30 9645 H 935.618 -2.94714 -0.544389 0
M  V30 9646 H 933.179 -1.61205 -0.1498 0
M  V30 9647 H 935.171 -2.65065 -3.05815 0
M  V30 9648 H 933.741 -1.67407 -2.63995 0
M  V30 9649 H 932.961 -3.73732 -1.2537 0
M  V30 9650 H 934.249 -4.65476 -2.0545 0
M  V30 9651 H 933.647 -3.01994 -4.78347 0
M  V30 9652 H 932.204 -3.79852 -5.29675 0
M  V30 9653 N 935.637 0.236453 -1.55816 0
M  V30 9654 C 936.6 1.27633 -1.90375 0
M  V30 9655 C 937.6 1.40557 -0.781048 0
M  V30 9656 O 938.79 1.39078 -1.04895 0
M  V30 9657 C 935.922 2.65247 -2.14142 0
M  V30 9658 H 937.115 0.982019 -2.83366 0
M  V30 9659 H 934.668 0.476215 -1.48869 0
M  V30 9660 H 935.403 2.99801 -1.23653 0
M  V30 9661 H 935.188 2.57246 -2.95917 0
M  V30 9662 H 936.678 3.40313 -2.42026 0
M  V30 9663 N 937.115 1.49373 0.502552 0
M  V30 9664 C 938.363 1.58467 1.25429 0
M  V30 9665 C 938.684 0.272593 1.93085 0
M  V30 9666 O 937.954 -0.707947 1.82661 0
M  V30 9667 H 936.534 0.583866 0.46595 0
M  V30 9668 H 939.196 1.8599 0.582568 0
M  V30 9669 H 938.292 2.37993 2.01906 0
M  V30 9670 N 938.594 -0.753485 1.38421 0
M  V30 9671 C 939.557 -1.84888 1.35459 0
M  V30 9672 C 940.557 -1.58764 0.255083 0
M  V30 9673 O 941.747 -1.66507 0.511978 0
M  V30 9674 C 938.879 -3.22361 1.10888 0
M  V30 9675 H 940.072 -1.88922 2.32913 0
M  V30 9676 H 937.625 -0.955199 1.23716 0
M  V30 9677 H 938.36 -3.23996 0.1404 0
M  V30 9678 H 938.145 -3.42717 1.90492 0
M  V30 9679 H 939.635 -4.02437 1.1151 0
M  V30 9680 N 940.072 -1.23292 -0.981677 0
M  V30 9681 C 941.02 -1.0104 -2.09508 0
M  V30 9682 C 942.014 0.0501977 -1.69326 0
M  V30 9683 O 943.22 -0.103197 -1.79704 0
M  V30 9684 H 939.595 -0.309629 -0.685298 0
M  V30 9685 H 941.566 -1.95493 -2.25444 0
M  V30 9686 C 940.315 -0.616885 -3.42184 0
M  V30 9687 H 939.638 -1.4247 -3.73554 0
M  V30 9688 H 941.078 -0.500688 -4.21033 0
M  V30 9689 C 939.537 0.674721 -3.30074 0
M  V30 9690 O 940.067 1.72421 -3.62814 0
M  V30 9691 N 938.273 0.650151 -2.83234 0
M  V30 9692 H 937.82 -0.204225 -2.56789 0
M  V30 9693 H 937.778 1.51458 -2.75514 0
M  V30 9694 N 941.55 1.18024 -1.04442 0
M  V30 9695 C 942.796 1.88377 -0.751133 0
M  V30 9696 C 943.129 1.80377 0.719571 0
M  V30 9697 O 942.404 1.20662 1.52548 0
M  V30 9698 C 942.687 3.38708 -1.22265 0
M  V30 9699 C 942.54 3.55499 -2.75574 0
M  V30 9700 C 943.859 4.32475 -0.815688 0
M  V30 9701 H 940.978 0.684037 -0.27434 0
M  V30 9702 H 943.62 1.38837 -1.29709 0
M  V30 9703 H 941.77 3.8103 -0.758192 0
M  V30 9704 H 943.442 3.22244 -3.30086 0
M  V30 9705 H 941.685 2.98028 -3.15217 0
M  V30 9706 H 942.356 4.60994 -3.03625 0
M  V30 9707 H 944.832 3.97953 -1.21542 0
M  V30 9708 H 943.708 5.36213 -1.17331 0
M  V30 9709 H 943.969 4.41207 0.280901 0
M  V30 9710 N 943.028 0.824394 1.34319 0
M  V30 9711 C 943.991 0.252696 2.27803 0
M  V30 9712 C 944.991 -0.570254 1.50349 0
M  V30 9713 O 946.181 -0.386145 1.69866 0
M  V30 9714 C 943.313 -0.645575 3.34731 0
M  V30 9715 H 944.506 1.07742 2.79878 0
M  V30 9716 H 942.059 0.596367 1.44475 0
M  V30 9717 H 942.794 -1.4933 2.87873 0
M  V30 9718 H 942.579 -0.0569478 3.92059 0
M  V30 9719 H 944.069 -1.03933 4.0446 0
M  V30 9720 N 944.506 -1.46559 0.579492 0
M  V30 9721 C 945.753 -2.02399 0.0638418 0
M  V30 9722 C 946.081 -1.45135 -1.29484 0
M  V30 9723 O 945.336 -0.605061 -1.86112 0
M  V30 9724 C 945.635 -3.57357 -0.0552803 0
M  V30 9725 C 945.301 -4.33646 1.23539 0
M  V30 9726 C 943.963 -4.54207 1.589 0
M  V30 9727 C 946.315 -4.77476 2.08965 0
M  V30 9728 C 943.643 -5.1585 2.79492 0
M  V30 9729 C 945.995 -5.4045 3.2878 0
M  V30 9730 C 944.659 -5.5924 3.64427 0
M  V30 9731 H 943.929 -0.740632 0.0233614 0
M  V30 9732 H 946.576 -1.75968 0.755482 0
M  V30 9733 H 944.881 -3.82907 -0.83003 0
M  V30 9734 H 946.578 -3.98237 -0.469964 0
M  V30 9735 H 943.168 -4.17937 0.9501 0
M  V30 9736 H 947.352 -4.61349 1.8295 0
M  V30 9737 H 942.608 -5.28589 3.07252 0
M  V30 9738 H 946.782 -5.73371 3.95245 0
M  V30 9739 H 944.409 -6.06775 4.57961 0
M  V30 9740 N 945.984 -0.3171 -1.54377 0
M  V30 9741 C 947.261 0.341348 -1.92598 0
M  V30 9742 C 947.641 1.70402 -1.24605 0
M  V30 9743 O 946.989 2.25191 -0.387448 0
M  V30 9744 C 947.199 0.440003 -3.46215 0
M  V30 9745 C 948.547 0.703327 -4.18734 0
M  V30 9746 O 949.571 0.523181 -3.52337 0
M  V30 9747 O 948.43 1.05042 -5.3631 0
M  V30 9748 H 945.524 0.193696 -0.803997 0
M  V30 9749 H 948.07 -0.366341 -1.65699 0
M  V30 9750 H 946.842 -0.517299 -3.87866 0
M  V30 9751 H 946.465 1.19553 -3.792 0
M  V30 9752 N 947.462 1.57535 -0.0451378 0
M  V30 9753 C 948.69 1.96761 0.639742 0
M  V30 9754 C 949.105 0.922405 1.64734 0
M  V30 9755 O 948.462 -0.0940535 1.82257 0
M  V30 9756 C 948.513 3.36066 1.33199 0
M  V30 9757 O 948.234 4.36579 0.364757 0
M  V30 9758 C 949.735 3.90015 2.1072 0
M  V30 9759 H 946.955 0.64769 0.175324 0
M  V30 9760 H 949.499 2.04206 -0.109651 0
M  V30 9761 H 947.654 3.2979 2.03266 0
M  V30 9762 H 948.068 5.17432 0.858168 0
M  V30 9763 H 949.542 4.89785 2.54586 0
M  V30 9764 H 950.019 3.25117 2.95288 0
M  V30 9765 H 950.625 3.99609 1.45577 0
M  V30 9766 N 948.94 -0.228186 1.55939 0
M  V30 9767 C 950.168 -0.970618 1.8272 0
M  V30 9768 C 950.583 -1.78212 0.623385 0
M  V30 9769 O 949.94 -1.77879 -0.408063 0
M  V30 9770 C 949.991 -1.89352 3.07942 0
M  V30 9771 O 949.712 -1.11483 4.23678 0
M  V30 9772 C 951.213 -2.75039 3.47661 0
M  V30 9773 H 948.433 -0.284772 0.607574 0
M  V30 9774 H 950.977 -0.245419 2.03022 0
M  V30 9775 H 949.132 -2.57275 2.89635 0
M  V30 9776 H 949.546 -1.74073 4.94772 0
M  V30 9777 H 951.02 -3.35511 4.38334 0
M  V30 9778 H 951.497 -3.471 2.69106 0
M  V30 9779 H 952.103 -2.1254 3.68384 0
M  V30 9780 N 950.418 -1.49637 -0.494624 0
M  V30 9781 C 951.348 -1.69692 -1.60396 0
M  V30 9782 C 952.329 -0.545648 -1.61111 0
M  V30 9783 O 953.514 -0.782202 -1.77751 0
M  V30 9784 C 950.644 -1.76934 -2.9885 0
M  V30 9785 C 949.598 -2.91915 -3.13001 0
M  V30 9786 C 948.924 -2.84276 -4.5287 0
M  V30 9787 C 950.224 -4.32764 -2.92426 0
M  V30 9788 H 951.918 -2.6257 -1.43866 0
M  V30 9789 H 949.464 -1.26355 -0.690679 0
M  V30 9790 H 951.417 -1.8955 -3.76362 0
M  V30 9791 H 950.141 -0.806609 -3.16483 0
M  V30 9792 H 948.8 -2.78911 -2.37916 0
M  V30 9793 H 948.448 -1.85897 -4.67388 0
M  V30 9794 H 948.148 -3.61452 -4.63278 0
M  V30 9795 H 949.672 -2.98909 -5.32434 0
M  V30 9796 H 951.086 -4.46415 -3.59703 0
M  V30 9797 H 949.483 -5.1121 -3.143 0
M  V30 9798 H 950.553 -4.46765 -1.88491 0
M  V30 9799 N 951.896 0.746133 -1.38819 0
M  V30 9800 C 953.144 1.50247 -1.35167 0
M  V30 9801 C 953.465 1.94921 0.0553531 0
M  V30 9802 O 952.735 1.68187 1.00449 0
M  V30 9803 H 951.315 0.557337 -0.497377 0
M  V30 9804 H 953.977 0.886472 -1.73573 0
M  V30 9805 H 953.073 2.38986 -2.00728 0
M  V30 9806 N 953.375 1.23811 0.975125 0
M  V30 9807 C 954.323 1.02149 2.0897 0
M  V30 9808 C 955.317 -0.0412172 1.6935 0
M  V30 9809 O 956.523 0.112726 1.79647 0
M  V30 9810 H 952.898 0.313259 0.683647 0
M  V30 9811 H 954.869 1.96686 2.24404 0
M  V30 9812 C 953.618 0.635023 3.41852 0
M  V30 9813 H 952.941 1.44449 3.72793 0
M  V30 9814 H 954.381 0.52301 4.20762 0
M  V30 9815 C 952.84 -0.657207 3.30428 0
M  V30 9816 O 953.37 -1.70494 3.63723 0
M  V30 9817 N 951.576 -0.635122 2.83575 0
M  V30 9818 H 951.123 0.21784 2.56677 0
M  V30 9819 H 951.081 -1.49995 2.76313 0
M  V30 9820 N 954.853 -1.17469 1.05066 0
M  V30 9821 C 955.786 -2.2031 0.594863 0
M  V30 9822 C 956.764 -1.58196 -0.375878 0
M  V30 9823 O 957.948 -1.8629 -0.287798 0
M  V30 9824 C 955.075 -3.38452 -0.129614 0
M  V30 9825 C 954.121 -4.19007 0.795943 0
M  V30 9826 S 954.954 -4.8433 2.28441 0
M  V30 9827 C 956.11 -6.05862 1.57107 0
M  V30 9828 H 956.343 -2.58632 1.46618 0
M  V30 9829 H 953.876 -1.28063 0.862511 0
M  V30 9830 H 955.834 -4.06914 -0.541416 0
M  V30 9831 H 954.495 -2.98521 -0.976948 0
M  V30 9832 H 953.688 -5.0345 0.235396 0
M  V30 9833 H 953.29 -3.55976 1.14705 0
M  V30 9834 H 955.582 -6.71895 0.86969 0
M  V30 9835 H 956.525 -6.66442 2.39292 0
M  V30 9836 H 956.933 -5.54477 1.05903 0
M  V30 9837 N 956.331 -0.831506 -1.3388 0
M  V30 9838 C 957.579 -0.422837 -1.97627 0
M  V30 9839 C 957.9 1.01961 -1.6622 0
M  V30 9840 O 957.17 1.70916 -0.957323 0
M  V30 9841 H 955.75 -0.153365 -0.731087 0
M  V30 9842 H 958.412 -1.06284 -1.6337 0
M  V30 9843 H 957.508 -0.548858 -3.07236 0
M  V30 9844 N 957.809 1.4625 -0.587256 0
M  V30 9845 C 959.055 2.02662 -0.0746851 0
M  V30 9846 C 959.388 1.45723 1.28368 0
M  V30 9847 O 958.663 0.624062 1.84216 0
M  V30 9848 C 958.946 3.60097 -0.0138109 0
M  V30 9849 C 958.799 4.27412 -1.4014 0
M  V30 9850 C 960.118 4.34744 0.684491 0
M  V30 9851 H 957.237 0.736444 -0.0286144 0
M  V30 9852 H 959.879 1.74341 -0.755328 0
M  V30 9853 H 958.029 3.84357 0.56583 0
M  V30 9854 H 959.701 4.14401 -2.02656 0
M  V30 9855 H 957.944 3.86598 -1.96785 0
M  V30 9856 H 958.615 5.362 -1.31124 0
M  V30 9857 H 961.091 4.15657 0.192023 0
M  V30 9858 H 959.967 5.44468 0.696127 0
M  V30 9859 H 960.228 4.06132 1.74669 0
M  V30 9860 N 959.287 0.325282 1.54207 0
M  V30 9861 C 960.536 -0.27768 1.99779 0
M  V30 9862 C 960.849 -1.5311 1.21723 0
M  V30 9863 O 962.055 -2.21017 1.57682 0
M  V30 9864 C 960.511 -0.545329 3.55745 0
M  V30 9865 C 960.119 0.691143 4.42637 0
M  V30 9866 C 961.863 -1.10815 4.09781 0
M  V30 9867 C 959.77 0.395302 5.90077 0
M  V30 9868 H 958.7 -0.107536 0.746292 0
M  V30 9869 H 961.351 0.437773 1.78202 0
M  V30 9870 H 959.733 -1.32101 3.73317 0
M  V30 9871 H 960.907 1.46653 4.3684 0
M  V30 9872 H 959.222 1.1743 3.99499 0
M  V30 9873 H 961.819 -1.34414 5.1753 0
M  V30 9874 H 962.162 -2.05806 3.6187 0
M  V30 9875 H 962.695 -0.393608 3.95848 0
M  V30 9876 H 959.434 1.31443 6.42186 0
M  V30 9877 H 958.954 -0.34235 5.98822 0
M  V30 9878 H 960.633 0.00576877 6.47 0
M  V30 9879 N 960.765 -1.57509 0.0534917 0
M  V30 9880 C 961.993 -1.97098 -0.629298 0
M  V30 9881 C 962.408 -0.931128 -1.64242 0
M  V30 9882 O 961.765 0.0843866 -1.82305 0
M  V30 9883 C 961.816 -3.36767 -1.31415 0
M  V30 9884 O 961.537 -4.36766 -0.341599 0
M  V30 9885 C 963.038 -3.91127 -2.08649 0
M  V30 9886 H 960.258 -0.648611 -0.171886 0
M  V30 9887 H 962.802 -2.04145 0.120479 0
M  V30 9888 H 960.957 -3.30863 -2.01515 0
M  V30 9889 H 961.371 -5.1788 -0.830715 0
M  V30 9890 H 962.845 -4.91129 -2.51985 0
M  V30 9891 H 963.322 -3.26679 -2.9356 0
M  V30 9892 H 963.928 -4.00376 -1.43456 0
M  V30 9893 N 962.243 0.219913 -1.56058 0
M  V30 9894 C 963.52 0.968493 -1.6994 0
M  V30 9895 C 963.9 2.02358 -0.601219 0
M  V30 9896 O 963.248 2.25121 0.391534 0
M  V30 9897 C 963.458 1.57745 -3.11316 0
M  V30 9898 C 964.806 2.06908 -3.70775 0
M  V30 9899 O 965.83 1.67636 -3.14288 0
M  V30 9900 O 964.689 2.79096 -4.69859 0
M  V30 9901 H 961.783 0.452521 -0.692209 0
M  V30 9902 H 964.329 0.211566 -1.68376 0
M  V30 9903 H 963.101 0.815687 -3.82704 0
M  V30 9904 H 962.724 2.39987 -3.17005 0
M  V30 9905 N 963.721 1.49897 0.486681 0
M  V30 9906 C 964.671 1.6401 1.58381 0
M  V30 9907 C 965.655 0.495215 1.5309 0
M  V30 9908 O 966.847 0.748876 1.60377 0
M  V30 9909 C 963.976 1.72321 2.96918 0
M  V30 9910 C 963.062 2.92435 3.07152 0
M  V30 9911 N 963.453 4.16326 2.87238 0
M  V30 9912 C 961.751 2.90669 3.38271 0
M  V30 9913 C 962.452 4.97144 3.02031 0
M  V30 9914 N 961.428 4.3079 3.31544 0
M  V30 9915 H 965.23 2.57506 1.41661 0
M  V30 9916 H 962.744 1.46867 0.693106 0
M  V30 9917 H 964.741 1.80532 3.75784 0
M  V30 9918 H 963.401 0.799724 3.14697 0
M  V30 9919 H 964.412 4.46076 2.63128 0
M  V30 9920 H 961.089 2.07758 3.62137 0
M  V30 9921 H 962.479 6.05611 2.91006 0
M  V30 9922 N 965.199 -0.738761 1.39212 0
M  V30 9923 C 966.147 -1.8741 1.3777 0
M  V30 9924 C 967.141 -1.67371 0.261375 0
M  V30 9925 O 968.347 -1.74759 0.431209 0
M  V30 9926 H 964.722 -0.616843 0.430126 0
M  V30 9927 H 966.693 -1.85742 2.33543 0
M  V30 9928 C 965.442 -3.25053 1.23433 0
M  V30 9929 H 964.765 -3.41066 2.086 0
M  V30 9930 H 966.205 -4.04696 1.2648 0
M  V30 9931 C 964.664 -3.36851 -0.0575624 0
M  V30 9932 O 965.194 -3.88293 -1.02915 0
M  V30 9933 N 963.4 -2.90355 -0.119364 0
M  V30 9934 H 962.947 -2.48681 0.671976 0
M  V30 9935 H 962.905 -2.98628 -0.983286 0
M  V30 9936 N 966.677 -1.24326 -0.968545 0
M  V30 9937 C 967.954 -0.990459 -1.68669 0
M  V30 9938 C 968.334 0.487487 -2.05394 0
M  V30 9939 O 967.682 1.46158 -1.75642 0
M  V30 9940 C 967.892 -1.91251 -2.91931 0
M  V30 9941 C 969.24 -2.18291 -3.6419 0
M  V30 9942 O 970.264 -1.88897 -3.01987 0
M  V30 9943 O 969.123 -2.68204 -4.76161 0
M  V30 9944 H 966.217 -0.374515 -0.737338 0
M  V30 9945 H 968.763 -1.35421 -1.02271 0
M  V30 9946 H 967.535 -2.9111 -2.61478 0
M  V30 9947 H 967.158 -1.55188 -3.66064 0
M  V30 9948 N 968.156 1.1691 -1.05688 0
M  V30 9949 C 969.404 1.86922 -0.768409 0
M  V30 9950 C 969.725 1.81735 0.706921 0
M  V30 9951 O 968.995 1.24671 1.51109 0
M  V30 9952 H 967.575 0.69203 -0.281253 0
M  V30 9953 H 970.237 1.41803 -1.33708 0
M  V30 9954 H 969.333 2.92528 -1.08783 0
M  V30 9955 N 969.634 0.838594 1.33437 0
M  V30 9956 C 970.862 0.447644 2.01999 0
M  V30 9957 C 971.277 -0.951053 1.63096 0
M  V30 9958 O 970.634 -1.61802 0.844169 0
M  V30 9959 C 970.685 0.558378 3.57162 0
M  V30 9960 O 970.406 1.90196 3.94661 0
M  V30 9961 C 971.907 0.164348 4.42995 0
M  V30 9962 H 969.127 0.177736 0.647032 0
M  V30 9963 H 971.671 1.13109 1.70372 0
M  V30 9964 H 969.826 -0.0771563 3.87323 0
M  V30 9965 H 970.24 1.88729 4.89369 0
M  V30 9966 H 971.714 0.292876 5.51222 0
M  V30 9967 H 972.191 -0.893713 4.30011 0
M  V30 9968 H 972.797 0.774306 4.18192 0
M  V30 9969 N 971.112 -1.45937 0.595003 0
M  V30 9970 C 972.342 -2.06399 0.0911607 0
M  V30 9971 C 972.75 -1.44236 -1.22444 0
M  V30 9972 O 972.093 -0.546265 -1.7539 0
M  V30 9973 C 972.155 -3.59242 -0.136079 0
M  V30 9974 C 971.819 -4.43668 1.09579 0
M  V30 9975 C 972.816 -4.79437 2.01088 0
M  V30 9976 C 970.501 -4.84616 1.32109 0
M  V30 9977 C 972.495 -5.54995 3.13464 0
M  V30 9978 C 970.182 -5.5993 2.44788 0
M  V30 9979 C 971.18 -5.95035 3.35294 0
M  V30 9980 O 970.868 -6.68825 4.46014 0
M  V30 9981 H 970.6 -0.673316 0.0601779 0
M  V30 9982 H 973.154 -1.88365 0.819005 0
M  V30 9983 H 971.384 -3.75629 -0.918676 0
M  V30 9984 H 973.073 -4.0159 -0.589954 0
M  V30 9985 H 973.839 -4.48371 1.84902 0
M  V30 9986 H 969.718 -4.56735 0.625662 0
M  V30 9987 H 973.262 -5.82314 3.84131 0
M  V30 9988 H 969.159 -5.90411 2.60931 0
M  V30 9989 H 969.927 -6.87262 4.44537 0
M  V30 9990 N 972.59 -0.333456 -1.54032 0
M  V30 9991 C 973.815 0.270517 -2.05628 0
M  V30 9992 C 974.24 1.44231 -1.20744 0
M  V30 9993 O 973.598 1.79975 -0.218822 0
M  V30 9994 C 973.646 0.673251 -3.54259 0
M  V30 9995 O 972.75 1.77448 -3.72271 0
M  V30 9996 H 972.091 0.0469753 -0.662336 0
M  V30 9997 H 974.621 -0.484739 -1.98775 0
M  V30 9998 H 974.631 0.953194 -3.96709 0
M  V30 9999 H 973.306 -0.183747 -4.15494 0
M  V30 10000 H 971.883 1.49259 -3.41725 0
M  V30 10001 N 974.068 1.57479 -0.061844 0
M  V30 10002 C 975.031 2.1104 0.894127 0
M  V30 10003 C 976.031 1.03227 1.23292 0
M  V30 10004 O 977.221 1.29256 1.16784 0
M  V30 10005 C 974.353 2.6035 2.20069 0
M  V30 10006 H 975.546 2.96807 0.429619 0
M  V30 10007 H 973.099 1.55181 0.18672 0
M  V30 10008 H 973.834 1.78008 2.71079 0
M  V30 10009 H 973.619 3.39146 1.9678 0
M  V30 10010 H 975.109 3.019 2.88525 0
M  V30 10011 N 975.546 -0.211634 1.56173 0
M  V30 10012 C 976.957 -0.777776 1.69728 0
M  V30 10013 C 977.308 -1.84566 0.66558 0
M  V30 10014 O 976.433 -2.15639 -0.181338 0
M  V30 10015 C 977.028 -1.41757 3.07718 0
M  V30 10016 C 975.587 -1.93098 3.23094 0
M  V30 10017 C 974.734 -0.794785 2.65666 0
M  V30 10018 H 977.685 0.0131839 1.58695 0
M  V30 10019 H 977.706 -2.28662 3.04128 0
M  V30 10020 H 977.218 -0.640114 3.82785 0
M  V30 10021 H 975.319 -2.73615 2.52914 0
M  V30 10022 H 975.432 -2.10414 4.30422 0
M  V30 10023 H 973.796 -1.20473 2.24407 0
M  V30 10024 H 974.579 -0.0298408 3.43287 0
M  V30 10025 N 977.024 -1.50153 -0.478725 0
M  V30 10026 C 977.954 -1.71384 -1.58587 0
M  V30 10027 C 978.935 -0.562705 -1.60523 0
M  V30 10028 O 980.12 -0.80101 -1.76911 0
M  V30 10029 C 977.25 -1.80094 -2.96957 0
M  V30 10030 C 976.204 -2.95218 -3.09888 0
M  V30 10031 C 975.53 -2.89063 -4.49829 0
M  V30 10032 C 976.83 -4.35841 -2.8782 0
M  V30 10033 H 978.524 -2.64081 -1.41073 0
M  V30 10034 H 976.07 -1.27081 -0.677239 0
M  V30 10035 H 978.023 -1.93531 -3.74331 0
M  V30 10036 H 976.747 -0.840131 -3.1561 0
M  V30 10037 H 975.406 -2.81419 -2.34944 0
M  V30 10038 H 975.054 -1.90844 -4.6539 0
M  V30 10039 H 974.754 -3.66345 -4.59418 0
M  V30 10040 H 976.278 -3.04539 -5.29234 0
M  V30 10041 H 977.692 -4.50205 -3.54948 0
M  V30 10042 H 976.089 -5.14515 -3.0886 0
M  V30 10043 H 977.159 -4.48739 -1.83742 0
M  V30 10044 N 978.502 0.731368 -1.39602 0
M  V30 10045 C 979.73 1.52059 -1.40305 0
M  V30 10046 C 980.145 1.888 0.00147921 0
M  V30 10047 O 979.502 1.54354 0.973715 0
M  V30 10048 C 979.553 2.80588 -2.27931 0
M  V30 10049 O 979.274 2.45406 -3.62915 0
M  V30 10050 C 980.775 3.74592 -2.37056 0
M  V30 10051 H 977.995 0.469787 -0.479104 0
M  V30 10052 H 980.539 0.903436 -1.83462 0
M  V30 10053 H 978.694 3.38626 -1.88178 0
M  V30 10054 H 979.108 3.27996 -4.09291 0
M  V30 10055 H 980.582 4.61662 -3.02609 0
M  V30 10056 H 981.059 4.16597 -1.39081 0
M  V30 10057 H 981.665 3.22471 -2.77295 0
M  V30 10058 N 979.98 1.24838 0.961938 0
M  V30 10059 C 981.205 1.11967 1.7458 0
M  V30 10060 C 981.63 -0.323287 1.85301 0
M  V30 10061 O 980.988 -1.23412 1.32812 0
M  V30 10062 C 981.036 1.77066 3.14134 0
M  V30 10063 O 980.14 1.04534 3.98932 0
M  V30 10064 H 979.481 0.391338 0.536424 0
M  V30 10065 H 982.011 1.65259 1.20626 0
M  V30 10066 H 982.021 1.83056 3.64629 0
M  V30 10067 H 980.696 2.82052 3.05646 0
M  V30 10068 H 979.273 1.06372 3.57407 0
M  V30 10069 N 981.458 -1.16348 1.06306 0
M  V30 10070 C 982.686 -1.90782 0.800614 0
M  V30 10071 C 983.101 -1.77439 -0.645033 0
M  V30 10072 O 982.458 -1.11912 -1.4416 0
M  V30 10073 C 982.509 -3.41484 1.18621 0
M  V30 10074 O 982.23 -3.54428 2.57512 0
M  V30 10075 C 983.731 -4.32968 0.951525 0
M  V30 10076 H 980.951 -0.604977 0.290247 0
M  V30 10077 H 983.495 -1.47476 1.41672 0
M  V30 10078 H 981.65 -3.82493 0.614633 0
M  V30 10079 H 982.064 -4.4788 2.72954 0
M  V30 10080 H 983.538 -5.37169 1.27095 0
M  V30 10081 H 984.015 -4.39055 -0.112734 0
M  V30 10082 H 984.621 -3.97687 1.50749 0
M  V30 10083 N 982.937 -0.845659 -1.3299 0
M  V30 10084 C 984.165 -0.45835 -2.01759 0
M  V30 10085 C 984.58 0.94239 -1.63598 0
M  V30 10086 O 983.937 1.61353 -0.852738 0
M  V30 10087 C 983.988 -0.577311 -3.5686 0
M  V30 10088 O 983.709 -1.92287 -3.93646 0
M  V30 10089 C 985.21 -0.187839 -4.42902 0
M  V30 10090 H 982.43 -0.181165 -0.646081 0
M  V30 10091 H 984.974 -1.14011 -1.6977 0
M  V30 10092 H 983.129 0.0566146 -3.87359 0
M  V30 10093 H 983.543 -1.91322 -4.88361 0
M  V30 10094 H 985.017 -0.322105 -5.51059 0
M  V30 10095 H 985.494 0.870896 -4.30479 0
M  V30 10096 H 986.1 -0.796473 -4.17776 0
M  V30 10097 N 984.415 1.45619 -0.602734 0
M  V30 10098 C 985.345 2.33258 0.106342 0
M  V30 10099 C 986.326 1.46543 0.863664 0
M  V30 10100 O 987.511 1.75324 0.835175 0
M  V30 10101 C 984.641 3.29168 1.10751 0
M  V30 10102 C 983.595 4.25481 0.463717 0
M  V30 10103 C 982.921 5.11046 1.57278 0
M  V30 10104 C 984.221 5.18702 -0.61199 0
M  V30 10105 H 985.915 2.92795 -0.625423 0
M  V30 10106 H 983.461 1.40793 -0.302213 0
M  V30 10107 H 985.414 3.89346 1.61208 0
M  V30 10108 H 984.138 2.6778 1.8698 0
M  V30 10109 H 982.797 3.66595 -0.0199496 0
M  V30 10110 H 982.445 4.46029 2.32524 0
M  V30 10111 H 982.145 5.76286 1.14755 0
M  V30 10112 H 983.669 5.74091 2.07972 0
M  V30 10113 H 985.083 5.72979 -0.191686 0
M  V30 10114 H 983.48 5.92393 -0.958686 0
M  V30 10115 H 984.55 4.61424 -1.4905 0
M  V30 10116 N 985.893 0.34162 1.53853 0
M  V30 10117 C 987.141 -0.254979 2.00485 0
M  V30 10118 C 987.462 -1.51222 1.23114 0
M  V30 10119 O 986.732 -1.92966 0.337787 0
M  V30 10120 H 985.312 -0.0972084 0.740648 0
M  V30 10121 H 987.974 0.462332 1.89337 0
M  V30 10122 H 987.07 -0.498778 3.08089 0
M  V30 10123 N 987.371 -1.57444 0.0701946 0
M  V30 10124 C 988.617 -1.93716 -0.600178 0
M  V30 10125 C 988.95 -0.950329 -1.69359 0
M  V30 10126 O 988.225 0.0207123 -1.94489 0
M  V30 10127 C 988.508 -3.40266 -1.17861 0
M  V30 10128 C 988.361 -4.49706 -0.0919575 0
M  V30 10129 C 989.68 -3.87599 -2.08459 0
M  V30 10130 H 986.799 -0.704421 -0.216704 0
M  V30 10131 H 989.441 -1.89514 0.135838 0
M  V30 10132 H 987.591 -3.43977 -1.80587 0
M  V30 10133 H 989.263 -4.58116 0.541031 0
M  V30 10134 H 987.506 -4.29937 0.577639 0
M  V30 10135 H 988.177 -5.49381 -0.537048 0
M  V30 10136 H 990.653 -3.85883 -1.5567 0
M  V30 10137 H 989.529 -4.90755 -2.45867 0
M  V30 10138 H 989.79 -3.25448 -2.99226 0
M  V30 10139 N 988.849 0.203349 -1.56283 0
M  V30 10140 C 989.812 1.23566 -1.93039 0
M  V30 10141 C 990.812 1.38869 -0.810687 0
M  V30 10142 O 992.002 1.36822 -1.07821 0
M  V30 10143 C 989.134 2.60645 -2.1972 0
M  V30 10144 H 990.327 0.921692 -2.85385 0
M  V30 10145 H 987.88 0.44453 -1.49845 0
M  V30 10146 H 988.615 2.9711 -1.29985 0
M  V30 10147 H 988.4 2.50911 -3.01307 0
M  V30 10148 H 989.89 3.35103 -2.4919 0
M  V30 10149 N 990.327 1.50405 0.470755 0
M  V30 10150 C 991.555 1.65168 1.24608 0
M  V30 10151 C 991.97 0.335153 1.85801 0
M  V30 10152 O 991.327 -0.682919 1.69241 0
M  V30 10153 C 991.378 2.74305 2.35455 0
M  V30 10154 O 991.099 4.00854 1.76771 0
M  V30 10155 C 992.6 3.00044 3.26326 0
M  V30 10156 H 989.82 0.555186 0.376842 0
M  V30 10157 H 992.364 1.9663 0.56187 0
M  V30 10158 H 990.519 2.45536 2.99651 0
M  V30 10159 H 990.933 4.61211 2.49769 0
M  V30 10160 H 992.407 3.8007 4.00313 0
M  V30 10161 H 992.884 2.11128 3.85126 0
M  V30 10162 H 993.49 3.30345 2.67866 0
M  V30 10163 N 991.805 -0.723954 1.39988 0
M  V30 10164 C 993.051 -1.48591 1.38017 0
M  V30 10165 C 993.384 -1.94189 -0.0203522 0
M  V30 10166 O 992.659 -1.67572 -0.987422 0
M  V30 10167 C 992.942 -2.71786 2.36229 0
M  V30 10168 C 992.795 -2.32136 3.8527 0
M  V30 10169 C 994.114 -3.73921 2.32102 0
M  V30 10170 H 991.233 -0.538993 0.502648 0
M  V30 10171 H 993.875 -0.826908 1.71062 0
M  V30 10172 H 992.025 -3.28015 2.0818 0
M  V30 10173 H 993.697 -1.81454 4.24113 0
M  V30 10174 H 991.94 -1.64234 4.01509 0
M  V30 10175 H 992.611 -3.20406 4.49493 0
M  V30 10176 H 995.087 -3.27303 2.56928 0
M  V30 10177 H 993.963 -4.5777 3.02882 0
M  V30 10178 H 994.224 -4.21627 1.32979 0
M  V30 10179 N 993.283 -1.25346 -0.955304 0
M  V30 10180 C 994.511 -1.12793 -1.73451 0
M  V30 10181 C 994.926 0.318344 -1.86097 0
M  V30 10182 O 994.283 1.21897 -1.35821 0
M  V30 10183 C 994.334 -1.77603 -3.14864 0
M  V30 10184 O 994.055 -3.16577 -3.02837 0
M  V30 10185 C 995.556 -1.70821 -4.09066 0
M  V30 10186 H 992.776 -0.393457 -0.543537 0
M  V30 10187 H 995.32 -1.65696 -1.19855 0
M  V30 10188 H 993.475 -1.28673 -3.65407 0
M  V30 10189 H 993.889 -3.48433 -3.92039 0
M  V30 10190 H 995.363 -2.2083 -5.05903 0
M  V30 10191 H 995.84 -0.671858 -4.34031 0
M  V30 10192 H 996.446 -2.19237 -3.64438 0
M  V30 10193 N 994.761 1.15782 -1.06922 0
M  V30 10194 C 996.007 1.86741 -0.790922 0
M  V30 10195 C 996.34 1.81863 0.681149 0
M  V30 10196 O 995.615 1.23871 1.49954 0
M  V30 10197 C 995.898 3.36038 -1.29422 0
M  V30 10198 C 995.751 3.49573 -2.83052 0
M  V30 10199 C 997.07 4.30647 -0.907239 0
M  V30 10200 H 994.189 0.678064 -0.288787 0
M  V30 10201 H 996.831 1.36054 -1.32624 0
M  V30 10202 H 994.981 3.79336 -0.838843 0
M  V30 10203 H 996.653 3.1517 -3.36847 0
M  V30 10204 H 994.896 2.91275 -3.21467 0
M  V30 10205 H 995.567 4.5445 -3.13335 0
M  V30 10206 H 998.043 3.95286 -1.29956 0
M  V30 10207 H 996.919 5.33604 -1.28679 0
M  V30 10208 H 997.18 4.41703 0.187251 0
M  V30 10209 N 996.239 0.8527 1.3254 0
M  V30 10210 C 997.186 0.293905 2.28921 0
M  V30 10211 C 998.156 -0.598027 1.54961 0
M  V30 10212 O 999.341 -0.533355 1.83194 0
M  V30 10213 C 996.481 -0.513361 3.4126 0
M  V30 10214 C 995.594 0.404144 4.30105 0
M  V30 10215 C 994.729 -0.415564 5.29572 0
M  V30 10216 C 993.768 0.499461 6.10059 0
M  V30 10217 N 992.905 -0.282949 7.0153 0
M  V30 10218 H 997.745 1.12107 2.76109 0
M  V30 10219 H 995.282 0.564272 1.35847 0
M  V30 10220 H 997.24 -0.997008 4.05112 0
M  V30 10221 H 995.87 -1.30537 2.95229 0
M  V30 10222 H 994.922 1.00617 3.66852 0
M  V30 10223 H 996.234 1.10648 4.86373 0
M  V30 10224 H 995.388 -0.962458 5.99017 0
M  V30 10225 H 994.127 -1.15127 4.73917 0
M  V30 10226 H 993.132 1.05825 5.39519 0
M  V30 10227 H 994.357 1.23375 6.67799 0
M  V30 10228 H 992.303 -1.00179 6.48306 0
M  V30 10229 H 992.22 0.36039 7.55141 0
M  V30 10230 H 993.488 -0.811632 7.75263 0
M  V30 10231 N 997.718 -1.45297 0.610449 0
M  V30 10232 C 998.964 -2.02518 0.106917 0
M  V30 10233 C 999.297 -1.47747 -1.26034 0
M  V30 10234 O 998.572 -0.65329 -1.832 0
M  V30 10235 C 998.855 -3.6003 0.0710975 0
M  V30 10236 C 998.708 -4.25128 1.46922 0
M  V30 10237 C 1000.03 -4.35778 -0.61524 0
M  V30 10238 H 997.146 -0.735896 0.040327 0
M  V30 10239 H 999.788 -1.73117 0.782968 0
M  V30 10240 H 997.938 -3.85209 -0.504611 0
M  V30 10241 H 999.61 -4.11125 2.09223 0
M  V30 10242 H 997.853 -3.83418 2.02911 0
M  V30 10243 H 998.524 -5.34046 1.39637 0
M  V30 10244 H 1001 -4.1591 -0.125871 0
M  V30 10245 H 999.876 -5.45506 -0.609419 0
M  V30 10246 H 1000.14 -4.08859 -1.68186 0
M  V30 10247 N 999.196 -0.349774 -1.5367 0
M  V30 10248 C 1000.47 0.300419 -1.93279 0
M  V30 10249 C 1000.85 1.67721 -1.28191 0
M  V30 10250 O 1000.2 2.24319 -0.435127 0
M  V30 10251 C 1000.41 0.366466 -3.47071 0
M  V30 10252 C 1001.76 0.614349 -4.20132 0
M  V30 10253 O 1002.78 0.448327 -3.53367 0
M  V30 10254 O 1001.64 0.936421 -5.38417 0
M  V30 10255 H 998.736 0.176599 -0.807924 0
M  V30 10256 H 1001.28 -0.401405 -1.64884 0
M  V30 10257 H 1000.05 -0.599455 -3.86681 0
M  V30 10258 H 999.677 1.11482 -3.81651 0
M  V30 10259 N 1000.67 1.57404 -0.0785433 0
M  V30 10260 C 1001.92 1.93361 0.58786 0
M  V30 10261 C 1002.24 0.959856 1.6974 0
M  V30 10262 O 1001.51 0.0091173 1.95898 0
M  V30 10263 H 1000.09 0.713825 0.220141 0
M  V30 10264 H 1002.75 1.94411 -0.137986 0
M  V30 10265 H 1001.85 2.95346 1.00881 0
M  V30 10266 N 1002.15 -0.195058 1.56388 0
M  V30 10267 C 1003.11 -1.2254 1.93692 0
M  V30 10268 C 1004.11 -1.38437 0.81804 0
M  V30 10269 O 1005.3 -1.36248 1.08545 0
M  V30 10270 C 1002.44 -2.59476 2.21099 0
M  V30 10271 H 1003.63 -0.906544 2.8587 0
M  V30 10272 H 1001.18 -0.436577 1.50079 0
M  V30 10273 H 1001.92 -2.96417 1.31558 0
M  V30 10274 H 1001.7 -2.4931 3.02634 0
M  V30 10275 H 1003.19 -3.33777 2.50964 0
M  V30 10276 N 1003.63 -1.50653 -0.462772 0
M  V30 10277 C 1004.59 -1.69561 -1.54213 0
M  V30 10278 C 1005.59 -0.566106 -1.50505 0
M  V30 10279 O 1006.78 -0.833273 -1.52978 0
M  V30 10280 C 1003.91 -1.72856 -2.93826 0
M  V30 10281 H 1005.11 -2.65867 -1.38761 0
M  V30 10282 H 1002.66 -1.40259 -0.689728 0
M  V30 10283 H 1003.4 -0.78273 -3.14712 0
M  V30 10284 H 1003.18 -2.54919 -2.97924 0
M  V30 10285 H 1004.67 -1.89411 -3.72174 0
M  V30 10286 N 1005.11 0.71652 -1.4037 0
M  V30 10287 C 1006.36 1.47638 -1.38597 0
M  V30 10288 C 1006.68 1.94496 0.0120141 0
M  V30 10289 O 1005.94 1.68437 0.996373 0
M  V30 10290 C 1006.24 2.71777 -2.32103 0
M  V30 10291 C 1005.9 2.43689 -3.79376 0
M  V30 10292 C 1004.57 2.35739 -4.195 0
M  V30 10293 C 1006.92 2.20099 -4.72447 0
M  V30 10294 C 1004.25 2.02265 -5.50732 0
M  V30 10295 C 1006.6 1.88138 -6.03976 0
M  V30 10296 C 1005.26 1.78669 -6.43143 0
M  V30 10297 H 1004.53 0.540246 -0.507163 0
M  V30 10298 H 1007.18 0.820822 -1.73017 0
M  V30 10299 H 1005.48 3.42166 -1.90865 0
M  V30 10300 H 1007.18 3.29864 -2.28015 0
M  V30 10301 H 1003.77 2.50763 -3.47585 0
M  V30 10302 H 1007.95 2.25198 -4.42266 0
M  V30 10303 H 1003.21 1.93471 -5.79982 0
M  V30 10304 H 1007.38 1.68898 -6.75608 0
M  V30 10305 H 1005.01 1.52498 -7.44747 0
M  V30 10306 N 1006.59 1.25851 0.948643 0
M  V30 10307 C 1007.81 1.13813 1.73382 0
M  V30 10308 C 1008.24 -0.303615 1.85633 0
M  V30 10309 O 1007.59 -1.21997 1.34114 0
M  V30 10310 C 1007.64 1.80388 3.12238 0
M  V30 10311 O 1006.75 1.08759 3.978 0
M  V30 10312 H 1006.09 0.397006 0.532243 0
M  V30 10313 H 1008.62 1.66529 1.18866 0
M  V30 10314 H 1008.63 1.86913 3.62667 0
M  V30 10315 H 1007.3 2.85278 3.02637 0
M  V30 10316 H 1005.88 1.10157 3.56258 0
M  V30 10317 N 1008.06 -1.15214 1.07534 0
M  V30 10318 C 1009.31 -1.86319 0.800814 0
M  V30 10319 C 1009.64 -1.82221 -0.671494 0
M  V30 10320 O 1008.92 -1.24664 -1.49295 0
M  V30 10321 C 1009.2 -3.35347 1.31203 0
M  V30 10322 C 1009.05 -3.48067 2.84902 0
M  V30 10323 C 1010.37 -4.3016 0.930064 0
M  V30 10324 H 1007.49 -0.676523 0.292379 0
M  V30 10325 H 1010.13 -1.35349 1.33344 0
M  V30 10326 H 1008.28 -3.78886 0.858949 0
M  V30 10327 H 1009.96 -3.13379 3.38514 0
M  V30 10328 H 1008.2 -2.89566 3.23008 0
M  V30 10329 H 1008.87 -4.52782 3.15741 0
M  V30 10330 H 1011.35 -3.94591 1.3205 0
M  V30 10331 H 1010.22 -5.32914 1.31507 0
M  V30 10332 H 1010.48 -4.41796 -0.163824 0
M  V30 10333 N 1009.54 -0.859717 -1.32086 0
M  V30 10334 C 1010.95 -0.519529 -1.79326 0
M  V30 10335 C 1011.3 0.96295 -1.70944 0
M  V30 10336 O 1010.43 1.75139 -1.27104 0
M  V30 10337 C 1011.02 -0.936267 -3.25606 0
M  V30 10338 C 1009.58 -0.647899 -3.70782 0
M  V30 10339 C 1008.73 -1.13323 -2.53087 0
M  V30 10340 H 1011.68 -1.04643 -1.19312 0
M  V30 10341 H 1011.7 -0.254714 -3.79646 0
M  V30 10342 H 1011.21 -2.01527 -3.31675 0
M  V30 10343 H 1009.32 0.420172 -3.70223 0
M  V30 10344 H 1009.43 -1.21774 -4.63366 0
M  V30 10345 H 1007.79 -0.553325 -2.48617 0
M  V30 10346 H 1008.58 -2.21945 -2.61907 0
M  V30 10347 N 1011.02 1.44971 -0.618145 0
M  V30 10348 C 1012.25 2.07039 -0.122395 0
M  V30 10349 C 1012.67 1.45793 1.18853 0
M  V30 10350 O 1012.03 0.55453 1.72611 0
M  V30 10351 C 1012.08 3.60599 -0.0073864 0
M  V30 10352 O 1011.18 3.99069 1.04007 0
M  V30 10353 H 1010.52 0.6593 -0.0788615 0
M  V30 10354 H 1013.05 1.86055 -0.851147 0
M  V30 10355 H 1013.06 4.07569 0.187417 0
M  V30 10356 H 1011.74 4.04561 -0.964544 0
M  V30 10357 H 1010.31 3.63753 0.820879 0
M  V30 10358 N 1012.5 0.357919 1.53482 0
M  V30 10359 C 1013.74 -0.23451 2.0144 0
M  V30 10360 C 1014.08 -1.49044 1.24497 0
M  V30 10361 O 1013.35 -1.91566 0.336535 0
M  V30 10362 C 1013.64 -0.534193 3.56116 0
M  V30 10363 C 1013.49 0.734834 4.43757 0
M  V30 10364 C 1014.81 -1.33793 4.1927 0
M  V30 10365 H 1011.93 -0.0837595 0.732225 0
M  V30 10366 H 1014.57 0.481297 1.83803 0
M  V30 10367 H 1012.72 -1.144 3.71275 0
M  V30 10368 H 1014.39 1.37251 4.40409 0
M  V30 10369 H 1012.63 1.35678 4.12036 0
M  V30 10370 H 1013.3 0.48021 5.49907 0
M  V30 10371 H 1015.78 -0.822158 4.07897 0
M  V30 10372 H 1014.66 -1.51636 5.27539 0
M  V30 10373 H 1014.92 -2.34423 3.74831 0
M  V30 10374 N 1013.98 -1.5736 0.0868897 0
M  V30 10375 C 1015.2 -1.98388 -0.587349 0
M  V30 10376 C 1015.62 -0.965757 -1.6223 0
M  V30 10377 O 1014.98 0.0456981 -1.82443 0
M  V30 10378 C 1015.03 -3.39479 -1.24242 0
M  V30 10379 O 1014.75 -4.37393 -0.248878 0
M  V30 10380 C 1016.25 -3.95465 -2.00305 0
M  V30 10381 H 1013.47 -0.652111 -0.15809 0
M  V30 10382 H 1016.01 -2.03843 0.163754 0
M  V30 10383 H 1014.17 -3.35063 -1.94451 0
M  V30 10384 H 1014.58 -5.19525 -0.720678 0
M  V30 10385 H 1016.06 -4.96363 -2.41511 0
M  V30 10386 H 1016.53 -3.32832 -2.86565 0
M  V30 10387 H 1017.14 -4.03328 -1.34931 0
M  V30 10388 N 1015.45 0.186762 -1.56489 0
M  V30 10389 C 1016.7 0.907194 -1.81378 0
M  V30 10390 C 1017.03 1.82558 -0.662283 0
M  V30 10391 O 1016.31 1.91564 0.336699 0
M  V30 10392 C 1016.59 1.71624 -3.16571 0
M  V30 10393 C 1016.44 0.822009 -4.42225 0
M  V30 10394 C 1017.76 2.68713 -3.48542 0
M  V30 10395 H 1014.88 0.328366 -0.659806 0
M  V30 10396 H 1017.52 0.174142 -1.892 0
M  V30 10397 H 1015.67 2.34119 -3.10033 0
M  V30 10398 H 1017.35 0.211122 -4.60817 0
M  V30 10399 H 1015.59 0.129178 -4.33608 0
M  V30 10400 H 1016.26 1.42326 -5.33336 0
M  V30 10401 H 1018.74 2.16348 -3.55433 0
M  V30 10402 H 1017.61 3.22397 -4.44242 0
M  V30 10403 H 1017.87 3.48165 -2.72459 0
M  V30 10404 N 1016.93 1.50896 0.454776 0
M  V30 10405 C 1017.88 1.71497 1.57136 0
M  V30 10406 C 1018.87 0.58098 1.59126 0
M  V30 10407 O 1020.08 0.761916 1.63079 0
M  V30 10408 H 1016.46 0.54158 0.521724 0
M  V30 10409 H 1018.43 2.65129 1.36928 0
M  V30 10410 C 1017.18 1.84125 2.94947 0
M  V30 10411 H 1016.5 2.7078 2.9414 0
M  V30 10412 H 1017.94 2.02558 3.72487 0
M  V30 10413 C 1016.4 0.596752 3.31573 0
M  V30 10414 O 1016.93 -0.256632 4.00879 0
M  V30 10415 N 1015.13 0.445958 2.87158 0
M  V30 10416 H 1014.68 1.14146 2.30929 0
M  V30 10417 H 1014.64 -0.385519 3.12027 0
M  V30 10418 N 1018.41 -0.709066 1.40748 0
M  V30 10419 C 1019.66 -1.46901 1.39378 0
M  V30 10420 C 1019.99 -1.945 -0.0016993 0
M  V30 10421 O 1019.24 -1.68963 -0.987426 0
M  V30 10422 C 1019.54 -2.70543 2.33541 0
M  V30 10423 C 1019.21 -2.41674 3.80663 0
M  V30 10424 C 1017.87 -2.33511 4.20745 0
M  V30 10425 C 1020.22 -2.1759 4.73607 0
M  V30 10426 C 1017.55 -1.99342 5.51797 0
M  V30 10427 C 1019.9 -1.84933 6.04965 0
M  V30 10428 C 1018.56 -1.75256 6.44082 0
M  V30 10429 H 1017.83 -0.537549 0.510021 0
M  V30 10430 H 1020.48 -0.811635 1.7345 0
M  V30 10431 H 1018.79 -3.41149 1.92677 0
M  V30 10432 H 1020.48 -3.2865 2.29761 0
M  V30 10433 H 1017.07 -2.48917 3.4891 0
M  V30 10434 H 1021.26 -2.22849 4.43454 0
M  V30 10435 H 1016.51 -1.90392 5.81 0
M  V30 10436 H 1020.69 -1.65313 6.76494 0
M  V30 10437 H 1018.31 -1.48547 7.45545 0
M  V30 10438 N 1019.89 -1.26353 -0.941956 0
M  V30 10439 C 1021.12 -1.14626 -1.72245 0
M  V30 10440 C 1021.53 0.298588 -1.86424 0
M  V30 10441 O 1020.89 1.2045 -1.37106 0
M  V30 10442 C 1020.94 -1.80933 -3.12963 0
M  V30 10443 O 1020.66 -3.19771 -2.99463 0
M  V30 10444 C 1022.16 -1.7515 -4.07231 0
M  V30 10445 H 1019.38 -0.3992 -0.539333 0
M  V30 10446 H 1021.93 -1.66958 -1.1809 0
M  V30 10447 H 1020.08 -1.32541 -3.64021 0
M  V30 10448 H 1020.5 -3.52571 -3.88322 0
M  V30 10449 H 1021.97 -2.26183 -5.03533 0
M  V30 10450 H 1022.45 -0.717855 -4.33294 0
M  V30 10451 H 1023.05 -2.2309 -3.62093 0
M  V30 10452 N 1021.37 1.14642 -1.08144 0
M  V30 10453 C 1022.33 2.17834 -0.712799 0
M  V30 10454 C 1023.33 1.58828 0.251041 0
M  V30 10455 O 1024.52 1.74173 0.0309381 0
M  V30 10456 C 1021.65 3.4086 -0.0519477 0
M  V30 10457 H 1022.85 2.51961 -1.62653 0
M  V30 10458 H 1020.4 1.29243 -0.878971 0
M  V30 10459 H 1021.13 3.12311 0.873636 0
M  V30 10460 H 1020.92 3.84952 -0.745286 0
M  V30 10461 H 1022.41 4.17163 0.191031 0
M  V30 10462 N 1022.85 0.866709 1.31628 0
M  V30 10463 C 1024.12 0.396828 1.91532 0
M  V30 10464 C 1024.5 -1.12081 1.78889 0
M  V30 10465 O 1023.85 -1.94791 1.19452 0
M  V30 10466 C 1024.06 0.874578 3.37864 0
M  V30 10467 C 1025.41 0.8988 4.14978 0
M  V30 10468 O 1026.43 0.820014 3.46633 0
M  V30 10469 O 1025.29 1.01223 5.37044 0
M  V30 10470 H 1022.39 0.1181 0.818524 0
M  V30 10471 H 1024.93 0.954407 1.40318 0
M  V30 10472 H 1023.7 1.91807 3.41066 0
M  V30 10473 H 1023.33 0.295126 3.96503 0
M  V30 10474 N 1024.32 -1.44642 0.625825 0
M  V30 10475 C 1025.73 -1.85502 0.211175 0
M  V30 10476 C 1026.09 -1.52356 -1.2362 0
M  V30 10477 O 1025.21 -0.959051 -1.93988 0
M  V30 10478 C 1025.81 -3.36702 0.37648 0
M  V30 10479 C 1024.36 -3.76396 0.0163795 0
M  V30 10480 C 1023.51 -2.68517 0.692368 0
M  V30 10481 H 1026.46 -1.35183 0.831333 0
M  V30 10482 H 1026.48 -3.78536 -0.386106 0
M  V30 10483 H 1026 -3.60795 1.42999 0
M  V30 10484 H 1024.1 -3.57919 -1.0356 0
M  V30 10485 H 1024.21 -4.77231 0.422742 0
M  V30 10486 H 1022.57 -2.54377 0.128191 0
M  V30 10487 H 1023.36 -2.95444 1.74837 0
M  V30 10488 N 1025.8 -0.366053 -1.5329 0
M  V30 10489 C 1027.05 0.224614 -2.00445 0
M  V30 10490 C 1027.36 1.49829 -1.2574 0
M  V30 10491 O 1028.57 2.16759 -1.63487 0
M  V30 10492 C 1027.03 0.450818 -3.57065 0
M  V30 10493 C 1026.63 -0.808257 -4.40649 0
M  V30 10494 C 1028.38 0.999116 -4.12575 0
M  V30 10495 C 1026.28 -0.551612 -5.88822 0
M  V30 10496 H 1025.21 0.0877114 -0.748881 0
M  V30 10497 H 1027.87 -0.484866 -1.76978 0
M  V30 10498 H 1026.25 1.22157 -3.76688 0
M  V30 10499 H 1027.42 -1.58184 -4.32798 0
M  V30 10500 H 1025.74 -1.27981 -3.96245 0
M  V30 10501 H 1028.33 1.20646 -5.20911 0
M  V30 10502 H 1028.68 1.96139 -3.67199 0
M  V30 10503 H 1029.21 0.288518 -3.96752 0
M  V30 10504 H 1025.95 -1.48423 -6.38475 0
M  V30 10505 H 1025.47 0.183462 -5.99519 0
M  V30 10506 H 1027.15 -0.177307 -6.46757 0
M  V30 10507 N 1027.28 1.57312 -0.0952337 0
M  V30 10508 C 1028.69 1.81589 0.433875 0
M  V30 10509 C 1029.04 1.01086 1.68155 0
M  V30 10510 O 1028.17 0.240272 2.15062 0
M  V30 10511 C 1028.76 3.29366 0.793931 0
M  V30 10512 C 1027.32 3.54407 1.26778 0
M  V30 10513 C 1026.47 2.76035 0.264518 0
M  V30 10514 H 1029.42 1.55426 -0.320675 0
M  V30 10515 H 1029.44 3.42697 1.65345 0
M  V30 10516 H 1028.95 3.87932 -0.114334 0
M  V30 10517 H 1027.05 3.01173 2.19376 0
M  V30 10518 H 1027.17 4.63055 1.22952 0
M  V30 10519 H 1025.53 2.43509 0.746691 0
M  V30 10520 H 1026.31 3.37349 -0.636429 0
M  V30 10521 N 1028.76 -0.17846 1.56586 0
M  V30 10522 C 1030.03 -0.923096 1.72448 0
M  V30 10523 C 1030.41 -2.00692 0.654659 0
M  V30 10524 O 1029.76 -2.26079 -0.33171 0
M  V30 10525 C 1029.97 -1.49435 3.15389 0
M  V30 10526 C 1031.32 -1.97005 3.76131 0
M  V30 10527 O 1032.34 -1.59244 3.18622 0
M  V30 10528 O 1031.2 -2.66541 4.77094 0
M  V30 10529 H 1028.3 -0.434009 0.703964 0
M  V30 10530 H 1030.84 -0.16685 1.68878 0
M  V30 10531 H 1029.62 -0.713933 3.84732 0
M  V30 10532 H 1029.24 -2.31498 3.23256 0
M  V30 10533 N 1030.24 -1.51135 -0.446768 0
M  V30 10534 C 1031.2 -1.71187 -1.52406 0
M  V30 10535 C 1032.2 -0.582037 -1.49897 0
M  V30 10536 O 1033.39 -0.849452 -1.52085 0
M  V30 10537 C 1030.52 -1.75962 -2.91976 0
M  V30 10538 H 1031.71 -2.67324 -1.35934 0
M  V30 10539 H 1029.27 -1.40982 -0.674813 0
M  V30 10540 H 1030 -0.816065 -3.13864 0
M  V30 10541 H 1029.79 -2.58065 -2.95203 0
M  V30 10542 H 1031.28 -1.93347 -3.70144 0
M  V30 10543 N 1031.71 0.701592 -1.41122 0
M  V30 10544 C 1032.96 1.45871 -1.39879 0
M  V30 10545 C 1033.28 1.94999 -0.00668769 0
M  V30 10546 O 1032.55 1.71298 0.95047 0
M  V30 10547 H 1031.13 0.541231 -0.514857 0
M  V30 10548 H 1033.79 0.830803 -1.76306 0
M  V30 10549 H 1032.89 2.32479 -2.0823 0
M  V30 10550 N 1033.19 1.2685 0.935242 0
M  V30 10551 C 1034.61 1.04091 1.20984 0
M  V30 10552 C 1034.81 -0.230242 2.0018 0
M  V30 10553 O 1033.86 -0.93778 2.3444 0
M  V30 10554 C 1035.18 2.27586 1.96533 0
M  V30 10555 C 1036.72 2.32547 2.09501 0
M  V30 10556 C 1037.2 3.55751 2.88454 0
M  V30 10557 N 1038.69 3.56263 2.96025 0
M  V30 10558 C 1039.43 4.48262 3.57559 0
M  V30 10559 N 1038.92 5.50557 4.20546 0
M  V30 10560 N 1040.71 4.35901 3.5489 0
M  V30 10561 H 1032.87 2.08484 0.405954 0
M  V30 10562 H 1035.13 0.916548 0.242164 0
M  V30 10563 H 1034.83 3.20076 1.45753 0
M  V30 10564 H 1034.71 2.32305 2.97177 0
M  V30 10565 H 1037.1 1.40568 2.5947 0
M  V30 10566 H 1037.18 2.31836 1.08101 0
M  V30 10567 H 1036.82 4.48063 2.3917 0
M  V30 10568 H 1036.75 3.53711 3.90123 0
M  V30 10569 H 1039.24 2.82278 2.51252 0
M  V30 10570 H 1039.55 6.16935 4.65415 0
M  V30 10571 H 1037.9 5.54407 4.19115 0
M  V30 10572 H 1041.09 3.552 3.04879 0
M  V30 10573 H 1041.26 5.07792 4.02557 0
M  V30 10574 N 1034.67 -1.14067 1.0875 0
M  V30 10575 C 1035.9 -1.89582 0.841038 0
M  V30 10576 C 1036.32 -1.78226 -0.601436 0
M  V30 10577 O 1035.68 -1.12491 -1.42181 0
M  V30 10578 C 1035.73 -3.37415 1.27213 0
M  V30 10579 O 1034.83 -4.10191 0.426246 0
M  V30 10580 H 1034.17 -0.589716 0.305173 0
M  V30 10581 H 1036.7 -1.44364 1.44984 0
M  V30 10582 H 1036.71 -3.88234 1.25451 0
M  V30 10583 H 1035.39 -3.44999 2.32268 0
M  V30 10584 H 1033.96 -3.69429 0.507585 0
M  V30 10585 N 1036.15 -0.873678 -1.31166 0
M  V30 10586 C 1037.37 -0.500242 -2.01277 0
M  V30 10587 C 1037.8 0.900811 -1.65127 0
M  V30 10588 O 1037.16 1.59504 -0.861862 0
M  V30 10589 C 1037.2 -0.668976 -3.5434 0
M  V30 10590 O 1036.31 0.290096 -4.11378 0
M  V30 10591 H 1035.65 -0.198507 -0.633633 0
M  V30 10592 H 1038.18 -1.17811 -1.67277 0
M  V30 10593 H 1038.19 -0.563673 -4.04088 0
M  V30 10594 H 1036.86 -1.69055 -3.79991 0
M  V30 10595 H 1035.44 0.139437 -3.72639 0
M  V30 10596 N 1037.63 1.44308 -0.633487 0
M  V30 10597 C 1038.87 2.02023 -0.138917 0
M  V30 10598 C 1039.2 1.49841 1.24008 0
M  V30 10599 O 1038.46 0.673718 1.83738 0
M  V30 10600 C 1038.76 3.57316 -0.0773886 0
M  V30 10601 C 1038.42 4.28762 -1.39548 0
M  V30 10602 C 1037.08 4.47997 -1.75648 0
M  V30 10603 C 1039.44 4.69391 -2.26542 0
M  V30 10604 C 1036.76 5.05121 -2.98445 0
M  V30 10605 C 1039.12 5.27876 -3.48612 0
M  V30 10606 C 1037.78 5.45329 -3.84932 0
M  V30 10607 H 1037.05 0.739254 -0.0508333 0
M  V30 10608 H 1039.7 1.73043 -0.820271 0
M  V30 10609 H 1038 3.85724 0.687345 0
M  V30 10610 H 1039.7 3.99706 0.321837 0
M  V30 10611 H 1036.29 4.14122 -1.10456 0
M  V30 10612 H 1040.47 4.54241 -1.99946 0
M  V30 10613 H 1035.73 5.16821 -3.26658 0
M  V30 10614 H 1039.9 5.58307 -4.16253 0
M  V30 10615 H 1037.53 5.8936 -4.80166 0
M  V30 10616 N 1039.1 0.374177 1.53094 0
M  V30 10617 C 1040.33 -0.213325 2.05797 0
M  V30 10618 C 1040.75 -1.41753 1.24706 0
M  V30 10619 O 1040.1 -1.80183 0.289868 0
M  V30 10620 C 1040.16 -0.598367 3.56513 0
M  V30 10621 O 1039.88 0.557983 4.34532 0
M  V30 10622 C 1041.38 -1.24334 4.25507 0
M  V30 10623 H 1038.6 -0.0357398 0.670048 0
M  V30 10624 H 1041.14 0.535035 1.97377 0
M  V30 10625 H 1039.3 -1.29663 3.65056 0
M  V30 10626 H 1039.71 0.244911 5.23928 0
M  V30 10627 H 1041.18 -1.46325 5.32253 0
M  V30 10628 H 1041.66 -2.20622 3.79766 0
M  V30 10629 H 1042.27 -0.586269 4.2124 0
M  V30 10630 N 1040.58 -1.57259 0.103575 0
M  V30 10631 C 1041.83 -1.94945 -0.558953 0
M  V30 10632 C 1042.16 -0.986038 -1.67305 0
M  V30 10633 O 1041.44 -0.0205464 -1.94489 0
M  V30 10634 C 1041.72 -3.42689 -1.10617 0
M  V30 10635 C 1041.57 -4.498 0.00345246 0
M  V30 10636 C 1042.89 -3.91933 -2.00191 0
M  V30 10637 H 1040.01 -0.708859 -0.201713 0
M  V30 10638 H 1042.65 -1.89183 0.176006 0
M  V30 10639 H 1040.8 -3.4773 -1.73251 0
M  V30 10640 H 1042.47 -4.56866 0.638082 0
M  V30 10641 H 1040.72 -4.28615 0.668705 0
M  V30 10642 H 1041.39 -5.50397 -0.420396 0
M  V30 10643 H 1043.86 -3.89098 -1.4745 0
M  V30 10644 H 1042.74 -4.9586 -2.35402 0
M  V30 10645 H 1043 -3.31722 -2.92255 0
M  V30 10646 N 1042.06 0.170153 -1.56679 0
M  V30 10647 C 1043.29 0.90618 -1.86556 0
M  V30 10648 C 1043.71 1.74986 -0.690044 0
M  V30 10649 O 1043.07 1.77672 0.360862 0
M  V30 10650 C 1043.12 1.75777 -3.14857 0
M  V30 10651 O 1042.22 2.85952 -2.97162 0
M  V30 10652 H 1041.56 0.253781 -0.613589 0
M  V30 10653 H 1044.09 0.167943 -2.0391 0
M  V30 10654 H 1044.1 2.15747 -3.46291 0
M  V30 10655 H 1042.78 1.13807 -4.00026 0
M  V30 10656 H 1041.35 2.49557 -2.77084 0
M  V30 10657 N 1043.54 1.5137 0.438746 0
M  V30 10658 C 1044.77 1.67774 1.21077 0
M  V30 10659 C 1045.18 0.374489 1.85049 0
M  V30 10660 O 1044.54 -0.646867 1.70651 0
M  V30 10661 C 1044.59 2.79238 2.29584 0
M  V30 10662 O 1044.31 4.04513 1.68228 0
M  V30 10663 C 1045.81 3.06898 3.19888 0
M  V30 10664 H 1043.03 0.563054 0.364981 0
M  V30 10665 H 1045.58 1.97777 0.520035 0
M  V30 10666 H 1043.73 2.51837 2.94375 0
M  V30 10667 H 1044.14 4.66405 2.3993 0
M  V30 10668 H 1045.62 3.88476 3.92162 0
M  V30 10669 H 1046.1 2.19249 3.80561 0
M  V30 10670 H 1046.7 3.35952 2.60799 0
M  V30 10671 N 1045.02 -0.694098 1.41492 0
M  V30 10672 C 1046.43 -1.27407 1.36471 0
M  V30 10673 C 1046.78 -1.9614 0.0485209 0
M  V30 10674 O 1045.9 -1.98871 -0.853188 0
M  V30 10675 C 1046.5 -2.31698 2.47188 0
M  V30 10676 C 1045.06 -2.85268 2.45559 0
M  V30 10677 C 1044.2 -1.59325 2.2696 0
M  V30 10678 H 1047.16 -0.488756 1.50986 0
M  V30 10679 H 1047.18 -3.1302 2.1633 0
M  V30 10680 H 1046.69 -1.81644 3.42968 0
M  V30 10681 H 1044.79 -3.39494 1.5354 0
M  V30 10682 H 1044.9 -3.35598 3.41922 0
M  V30 10683 H 1043.27 -1.85188 1.74864 0
M  V30 10684 H 1044.05 -1.11265 3.24769 0
M  V30 10685 N 1046.49 -1.27344 -0.928501 0
M  V30 10686 C 1047.77 -1.04362 -1.65433 0
M  V30 10687 C 1048.15 0.421896 -2.06841 0
M  V30 10688 O 1047.5 1.40496 -1.80203 0
M  V30 10689 C 1047.71 -2.00442 -2.85699 0
M  V30 10690 C 1049.06 -2.29767 -3.57061 0
M  V30 10691 O 1050.08 -1.98409 -2.95825 0
M  V30 10692 O 1048.94 -2.83217 -4.67387 0
M  V30 10693 H 1046.03 -0.397783 -0.72505 0
M  V30 10694 H 1048.58 -1.38606 -0.979109 0
M  V30 10695 H 1047.35 -2.99281 -2.52085 0
M  V30 10696 H 1046.98 -1.66755 -3.60941 0
M  V30 10697 N 1047.97 1.13488 -1.09353 0
M  V30 10698 C 1049.22 1.841 -0.82401 0
M  V30 10699 C 1049.53 1.84393 0.652586 0
M  V30 10700 O 1050.74 2.5089 1.03762 0
M  V30 10701 C 1049.2 3.30523 -1.42418 0
M  V30 10702 C 1048.8 3.38621 -2.93326 0
M  V30 10703 C 1050.55 4.06182 -1.23356 0
M  V30 10704 C 1048.46 4.79311 -3.46432 0
M  V30 10705 H 1047.39 0.68974 -0.304589 0
M  V30 10706 H 1050.04 1.27866 -1.31615 0
M  V30 10707 H 1048.42 3.86555 -0.859727 0
M  V30 10708 H 1049.59 2.92587 -3.5599 0
M  V30 10709 H 1047.91 2.76426 -3.11412 0
M  V30 10710 H 1050.5 5.10047 -1.60488 0
M  V30 10711 H 1050.85 4.15936 -0.174152 0
M  V30 10712 H 1051.38 3.56477 -1.76547 0
M  V30 10713 H 1048.12 4.74748 -4.5199 0
M  V30 10714 H 1047.64 5.25842 -2.8853 0
M  V30 10715 H 1049.32 5.48227 -3.43593 0
M  V30 10716 N 1049.45 0.880621 1.30701 0
M  V30 10717 C 1050.38 0.360251 2.30704 0
M  V30 10718 C 1051.36 -0.554572 1.60806 0
M  V30 10719 O 1052.55 -0.469345 1.88443 0
M  V30 10720 C 1049.68 -0.429888 3.44629 0
M  V30 10721 C 1048.63 0.392786 4.26194 0
M  V30 10722 C 1047.96 -0.52369 5.32129 0
M  V30 10723 C 1049.26 1.63258 4.96129 0
M  V30 10724 H 1050.95 1.19591 2.74478 0
M  V30 10725 H 1048.5 0.576508 1.31956 0
M  V30 10726 H 1050.45 -0.804532 4.13649 0
M  V30 10727 H 1049.17 -1.29916 2.99649 0
M  V30 10728 H 1047.83 0.749514 3.58856 0
M  V30 10729 H 1047.48 -1.39054 4.83397 0
M  V30 10730 H 1047.18 0.0229272 5.87596 0
M  V30 10731 H 1048.71 -0.894946 6.04006 0
M  V30 10732 H 1050.12 1.32877 5.57689 0
M  V30 10733 H 1048.52 2.11906 5.61441 0
M  V30 10734 H 1049.59 2.37944 4.22505 0
M  V30 10735 N 1050.93 -1.4397 0.641131 0
M  V30 10736 C 1051.89 -2.29149 -0.0482243 0
M  V30 10737 C 1052.89 -1.41572 -0.762495 0
M  V30 10738 O 1054.08 -1.63335 -0.605571 0
M  V30 10739 C 1051.21 -3.23375 -1.07896 0
M  V30 10740 H 1052.41 -2.9159 0.70109 0
M  V30 10741 H 1049.96 -1.51048 0.401754 0
M  V30 10742 H 1050.7 -2.65804 -1.85792 0
M  V30 10743 H 1050.48 -3.87926 -0.570597 0
M  V30 10744 H 1051.97 -3.87337 -1.56075 0
M  V30 10745 N 1052.41 -0.382291 -1.52893 0
M  V30 10746 C 1053.68 0.259354 -1.93873 0
M  V30 10747 C 1054.06 1.64964 -1.3172 0
M  V30 10748 O 1053.41 2.23345 -0.482611 0
M  V30 10749 C 1053.62 0.292765 -3.4777 0
M  V30 10750 C 1054.97 0.525095 -4.21341 0
M  V30 10751 O 1055.99 0.373272 -3.54239 0
M  V30 10752 O 1054.85 0.822004 -5.40283 0
M  V30 10753 H 1051.95 0.159422 -0.811489 0
M  V30 10754 H 1054.49 -0.436289 -1.63996 0
M  V30 10755 H 1053.27 -0.681341 -3.85323 0
M  V30 10756 H 1052.89 1.03362 -3.8393 0
M  V30 10757 N 1053.89 1.57202 -0.111913 0
M  V30 10758 C 1055.13 1.94565 0.546713 0
M  V30 10759 C 1055.45 0.995644 1.67666 0
M  V30 10760 O 1054.72 0.0506681 1.95834 0
M  V30 10761 H 1053.3 0.718334 0.204951 0
M  V30 10762 H 1055.97 1.94074 -0.179193 0
M  V30 10763 H 1055.06 2.9742 0.945931 0
M  V30 10764 N 1055.36 -0.161842 1.56767 0
M  V30 10765 C 1056.59 -0.892247 1.86672 0
M  V30 10766 C 1057.01 -1.75407 0.69841 0
M  V30 10767 O 1056.36 -1.7945 -0.332251 0
M  V30 10768 C 1056.41 -1.7612 3.15696 0
M  V30 10769 O 1056.14 -0.934131 4.28025 0
M  V30 10770 C 1057.64 -2.60046 3.59014 0
M  V30 10771 H 1054.86 -0.258747 0.619105 0
M  V30 10772 H 1057.4 -0.159089 2.0388 0
M  V30 10773 H 1055.56 -2.44759 3.00286 0
M  V30 10774 H 1055.97 -1.52931 5.01709 0
M  V30 10775 H 1057.44 -3.16618 4.5217 0
M  V30 10776 H 1057.92 -3.35374 2.83586 0
M  V30 10777 H 1058.53 -1.96724 3.77067 0
M  V30 10778 N 1056.84 -1.516 -0.430713 0
M  V30 10779 C 1057.77 -1.68084 -1.54347 0
M  V30 10780 C 1058.75 -0.528401 -1.53775 0
M  V30 10781 O 1059.94 -0.753072 -1.72804 0
M  V30 10782 C 1057.06 -1.70048 -2.92919 0
M  V30 10783 C 1056.11 -2.91336 -3.11489 0
M  V30 10784 S 1056.94 -4.52043 -2.87084 0
M  V30 10785 C 1058.1 -4.56761 -4.27926 0
M  V30 10786 H 1058.33 -2.62203 -1.40131 0
M  V30 10787 H 1055.86 -1.41368 -0.620853 0
M  V30 10788 H 1057.82 -1.71864 -3.72791 0
M  V30 10789 H 1056.48 -0.770946 -3.04492 0
M  V30 10790 H 1055.68 -2.8913 -4.1282 0
M  V30 10791 H 1055.28 -2.87296 -2.39451 0
M  V30 10792 H 1057.57 -4.32809 -5.21232 0
M  V30 10793 H 1058.51 -5.58604 -4.35163 0
M  V30 10794 H 1058.92 -3.86014 -4.1189 0
M  V30 10795 N 1058.32 0.686584 -1.41858 0
M  V30 10796 C 1059.54 1.4802 -1.45275 0
M  V30 10797 C 1059.97 1.87997 -0.0621297 0
M  V30 10798 O 1059.33 1.55226 0.936733 0
M  V30 10799 C 1059.38 2.7133 -2.37513 0
M  V30 10800 O 1058.48 3.69159 -1.83836 0
M  V30 10801 H 1057.82 0.445152 -0.492682 0
M  V30 10802 H 1060.35 0.843161 -1.86419 0
M  V30 10803 H 1060.36 3.19537 -2.53693 0
M  V30 10804 H 1059.04 2.41571 -3.3855 0
M  V30 10805 H 1057.61 3.28134 -1.77151 0
M  V30 10806 N 1059.8 1.27835 0.921735 0
M  V30 10807 C 1061.02 1.17465 1.70929 0
M  V30 10808 C 1061.45 -0.264171 1.86236 0
M  V30 10809 O 1060.81 -1.19124 1.36671 0
M  V30 10810 C 1060.85 1.8697 3.08342 0
M  V30 10811 O 1059.96 1.17173 3.95404 0
M  V30 10812 H 1059.3 0.408206 0.523702 0
M  V30 10813 H 1061.83 1.69013 1.15307 0
M  V30 10814 H 1061.84 1.94564 3.58621 0
M  V30 10815 H 1060.51 2.91633 2.96518 0
M  V30 10816 H 1059.09 1.17688 3.53842 0
M  V30 10817 N 1061.28 -1.12907 1.09954 0
M  V30 10818 C 1062.5 -1.88138 0.860905 0
M  V30 10819 C 1062.92 -1.79402 -0.588256 0
M  V30 10820 O 1062.28 -1.16442 -1.40526 0
M  V30 10821 C 1062.33 -3.37537 1.29425 0
M  V30 10822 O 1062.05 -3.46056 2.68658 0
M  V30 10823 C 1063.55 -4.29721 1.08879 0
M  V30 10824 H 1060.77 -0.595437 0.309347 0
M  V30 10825 H 1063.31 -1.42894 1.46292 0
M  V30 10826 H 1061.47 -3.80344 0.736009 0
M  V30 10827 H 1061.88 -4.38969 2.87065 0
M  V30 10828 H 1063.36 -5.32854 1.4412 0
M  V30 10829 H 1063.83 -4.39192 0.0270053 0
M  V30 10830 H 1064.44 -3.9269 1.63325 0
M  V30 10831 N 1062.75 -0.88754 -1.30232 0
M  V30 10832 C 1063.68 -0.372481 -2.3051 0
M  V30 10833 C 1064.66 0.546037 -1.61098 0
M  V30 10834 O 1065.85 0.459345 -1.88689 0
M  V30 10835 C 1062.98 0.411605 -3.44852 0
M  V30 10836 C 1061.93 -0.415383 -4.2598 0
M  V30 10837 C 1061.26 0.495463 -5.324 0
M  V30 10838 C 1062.56 -1.65886 -4.95257 0
M  V30 10839 H 1064.25 -1.21045 -2.7384 0
M  V30 10840 H 1061.8 -0.583498 -1.31648 0
M  V30 10841 H 1063.75 0.782584 -4.1407 0
M  V30 10842 H 1062.48 1.28325 -3.00334 0
M  V30 10843 H 1061.14 -0.768534 -3.58454 0
M  V30 10844 H 1060.78 1.36489 -4.84128 0
M  V30 10845 H 1060.48 -0.0540885 -5.87575 0
M  V30 10846 H 1062.01 0.862901 -6.04472 0
M  V30 10847 H 1063.42 -1.35832 -5.56976 0
M  V30 10848 H 1061.82 -2.14881 -5.60309 0
M  V30 10849 H 1062.89 -2.40181 -4.21237 0
M  V30 10850 N 1064.23 1.43628 -0.648757 0
M  V30 10851 C 1065.46 2.06732 -0.166284 0
M  V30 10852 C 1065.88 1.48281 1.15734 0
M  V30 10853 O 1065.24 0.591018 1.71396 0
M  V30 10854 C 1065.29 3.60502 -0.0838732 0
M  V30 10855 O 1064.39 4.01186 0.955185 0
M  V30 10856 H 1063.73 0.657479 -0.0928285 0
M  V30 10857 H 1066.26 1.84208 -0.890421 0
M  V30 10858 H 1066.27 4.07875 0.100923 0
M  V30 10859 H 1064.95 4.02424 -1.05014 0
M  V30 10860 H 1063.53 3.65412 0.743537 0
M  V30 10861 N 1065.71 0.390394 1.52688 0
M  V30 10862 C 1066.96 -0.191445 2.01593 0
M  V30 10863 C 1067.29 -1.46723 1.27681 0
M  V30 10864 O 1066.54 -1.92248 0.365972 0
M  V30 10865 C 1066.84 -0.50468 3.53819 0
M  V30 10866 C 1066.51 0.679691 4.45748 0
M  V30 10867 C 1065.17 1.0046 4.70597 0
M  V30 10868 C 1067.52 1.47198 4.99982 0
M  V30 10869 C 1064.85 2.12334 5.46929 0
M  V30 10870 C 1067.2 2.58133 5.77538 0
M  V30 10871 C 1065.86 2.91131 6.00665 0
M  V30 10872 H 1065.13 -0.0700548 0.737681 0
M  V30 10873 H 1067.78 0.527965 1.84078 0
M  V30 10874 H 1066.09 -1.30543 3.69413 0
M  V30 10875 H 1067.78 -0.967524 3.89153 0
M  V30 10876 H 1064.37 0.416446 4.26572 0
M  V30 10877 H 1068.56 1.2342 4.80709 0
M  V30 10878 H 1063.81 2.38269 5.63061 0
M  V30 10879 H 1067.99 3.19925 6.18564 0
M  V30 10880 H 1065.61 3.77938 6.59596 0
M  V30 10881 N 1067.19 -1.57141 0.120249 0
M  V30 10882 C 1068.43 -1.95527 -0.538245 0
M  V30 10883 C 1068.77 -1.00373 -1.6625 0
M  V30 10884 O 1068.04 -0.0411734 -1.94456 0
M  V30 10885 C 1068.33 -3.43843 -1.06976 0
M  V30 10886 C 1068.18 -4.49771 0.0511596 0
M  V30 10887 C 1069.5 -3.94035 -1.96022 0
M  V30 10888 H 1066.62 -0.710958 -0.194183 0
M  V30 10889 H 1069.26 -1.88986 0.196061 0
M  V30 10890 H 1067.41 -3.49548 -1.69553 0
M  V30 10891 H 1069.08 -4.56163 0.686503 0
M  V30 10892 H 1067.32 -4.27882 0.714127 0
M  V30 10893 H 1067.99 -5.50812 -0.361995 0
M  V30 10894 H 1070.47 -3.9064 -1.43315 0
M  V30 10895 H 1069.35 -4.98329 -2.3013 0
M  V30 10896 H 1069.61 -3.34803 -2.8872 0
M  V30 10897 N 1068.67 0.153526 -1.5685 0
M  V30 10898 C 1070.08 0.714247 -1.72498 0
M  V30 10899 C 1070.43 1.81968 -0.733621 0
M  V30 10900 O 1069.55 2.16163 0.10118 0
M  V30 10901 C 1070.15 1.30238 -3.12767 0
M  V30 10902 C 1068.71 1.80974 -3.30038 0
M  V30 10903 C 1067.85 0.695638 -2.68433 0
M  V30 10904 H 1070.81 -0.0720733 -1.58536 0
M  V30 10905 H 1070.83 2.17217 -3.12405 0
M  V30 10906 H 1070.34 0.497605 -3.84897 0
M  V30 10907 H 1068.44 2.64039 -2.62895 0
M  V30 10908 H 1068.55 1.94294 -4.37934 0
M  V30 10909 H 1066.92 1.12061 -2.28723 0
M  V30 10910 H 1067.7 -0.0975885 -3.43161 0
M  V30 10911 N 1070.14 1.51827 0.422667 0
M  V30 10912 C 1071.39 1.65464 1.17258 0
M  V30 10913 C 1071.72 0.376834 1.90509 0
M  V30 10914 O 1071 -0.624219 1.84211 0
M  V30 10915 C 1071.28 2.86776 2.17788 0
M  V30 10916 C 1071.13 4.24571 1.48523 0
M  V30 10917 C 1072.45 3.03603 3.18611 0
M  V30 10918 H 1069.57 0.602169 0.424925 0
M  V30 10919 H 1072.21 1.84349 0.45996 0
M  V30 10920 H 1070.36 2.70806 2.78561 0
M  V30 10921 H 1072.04 4.5224 0.909739 0
M  V30 10922 H 1070.28 4.26595 0.787354 0
M  V30 10923 H 1070.95 5.05475 2.2181 0
M  V30 10924 H 1073.43 3.18381 2.67904 0
M  V30 10925 H 1072.3 3.90022 3.8623 0
M  V30 10926 H 1072.56 2.16318 3.85563 0
M  V30 10927 N 1071.62 -0.679052 1.4222 0
M  V30 10928 C 1072.9 -1.43473 1.32947 0
M  V30 10929 C 1073.28 -2.11071 -0.0351689 0
M  V30 10930 O 1072.63 -2.02925 -1.05042 0
M  V30 10931 C 1072.84 -2.44065 2.49466 0
M  V30 10932 C 1074.19 -3.08834 2.91387 0
M  V30 10933 O 1075.21 -2.54392 2.49325 0
M  V30 10934 O 1074.07 -4.07478 3.64175 0
M  V30 10935 H 1071.16 -0.639743 0.524078 0
M  V30 10936 H 1073.71 -0.708134 1.54219 0
M  V30 10937 H 1072.48 -1.92884 3.40457 0
M  V30 10938 H 1072.1 -3.24212 2.30158 0
M  V30 10939 N 1073.1 -1.28322 -0.914942 0
M  V30 10940 C 1074.05 -1.12146 -2.01722 0
M  V30 10941 C 1075.02 -0.0189279 -1.66089 0
M  V30 10942 O 1076.2 -0.183638 -1.89914 0
M  V30 10943 C 1073.34 -0.78808 -3.35981 0
M  V30 10944 C 1072.46 -1.96954 -3.84491 0
M  V30 10945 C 1071.59 -1.57688 -5.07255 0
M  V30 10946 C 1070.63 -2.72506 -5.48094 0
M  V30 10947 N 1069.77 -2.33741 -6.62049 0
M  V30 10948 H 1074.61 -2.06461 -2.1489 0
M  V30 10949 H 1072.14 -1.0276 -1.05256 0
M  V30 10950 H 1074.1 -0.575546 -4.13211 0
M  V30 10951 H 1072.73 0.118132 -3.22584 0
M  V30 10952 H 1071.78 -2.29423 -3.03429 0
M  V30 10953 H 1073.1 -2.8304 -4.10719 0
M  V30 10954 H 1072.25 -1.32634 -5.92025 0
M  V30 10955 H 1070.99 -0.687291 -4.82833 0
M  V30 10956 H 1069.99 -2.9826 -4.61867 0
M  V30 10957 H 1071.22 -3.62106 -5.74505 0
M  V30 10958 H 1069.16 -1.4725 -6.3926 0
M  V30 10959 H 1069.08 -3.13364 -6.87997 0
M  V30 10960 H 1070.35 -2.11968 -7.50127 0
M  V30 10961 N 1074.58 1.12322 -1.10551 0
M  V30 10962 C 1075.53 2.20166 -0.750317 0
M  V30 10963 C 1076.52 1.67484 0.254066 0
M  V30 10964 O 1077.73 1.79637 0.114309 0
M  V30 10965 H 1074.1 0.717642 -0.22471 0
M  V30 10966 H 1076.07 2.47378 -1.66873 0
M  V30 10967 C 1074.82 3.47126 -0.199651 0
M  V30 10968 H 1074.14 3.88011 -0.963735 0
M  V30 10969 H 1075.58 4.23999 0.0108033 0
M  V30 10970 C 1074.04 3.19526 1.06792 0
M  V30 10971 O 1074.57 3.39368 2.14923 0
M  V30 10972 N 1072.78 2.73324 0.987032 0
M  V30 10973 H 1072.33 2.57378 0.106997 0
M  V30 10974 H 1072.28 2.55234 1.83584 0
M  V30 10975 N 1076.06 0.894434 1.2976 0
M  V30 10976 C 1077.3 0.516646 1.95385 0
M  V30 10977 C 1077.63 -0.939141 1.70895 0
M  V30 10978 O 1076.9 -1.66153 1.03778 0
M  V30 10979 H 1075.48 0.188072 0.722937 0
M  V30 10980 H 1078.14 1.13958 1.58113 0
M  V30 10981 H 1077.23 0.694819 3.04267 0
M  V30 10982 N 1077.53 -1.43282 0.656365 0
M  V30 10983 C 1078.48 -2.27932 -0.0557069 0
M  V30 10984 C 1079.47 -1.40075 -0.791698 0
M  V30 10985 O 1080.66 -1.6368 -0.673646 0
M  V30 10986 C 1077.79 -3.27821 -1.01923 0
M  V30 10987 C 1076.88 -4.23164 -0.281545 0
M  V30 10988 N 1077.27 -5.00882 0.703629 0
M  V30 10989 C 1075.56 -4.42928 -0.522558 0
M  V30 10990 C 1076.27 -5.70384 1.14177 0
M  V30 10991 N 1075.24 -5.41517 0.475394 0
M  V30 10992 H 1079.04 -2.85437 0.70022 0
M  V30 10993 H 1076.56 -1.55023 0.483902 0
M  V30 10994 H 1078.55 -3.87248 -1.54418 0
M  V30 10995 H 1077.21 -2.71878 -1.77518 0
M  V30 10996 H 1078.23 -5.06461 1.08247 0
M  V30 10997 H 1074.9 -3.98051 -1.25944 0
M  V30 10998 H 1076.29 -6.42765 1.95711 0
M  V30 10999 N 1079.01 -0.398486 -1.52479 0
M  V30 11000 C 1080.26 0.180752 -2.01692 0
M  V30 11001 C 1080.59 1.46044 -1.28457 0
M  V30 11002 O 1079.84 1.92051 -0.376162 0
M  V30 11003 C 1080.14 0.485909 -3.54081 0
M  V30 11004 C 1079.81 -0.703321 -4.45381 0
M  V30 11005 C 1078.47 -1.02955 -4.70057 0
M  V30 11006 C 1080.82 -1.49848 -4.99194 0
M  V30 11007 C 1078.15 -2.15231 -5.45795 0
M  V30 11008 C 1080.5 -2.61192 -5.76161 0
M  V30 11009 C 1079.17 -2.94313 -5.99113 0
M  V30 11010 H 1078.44 0.0661417 -0.738042 0
M  V30 11011 H 1081.08 -0.53772 -1.83796 0
M  V30 11012 H 1079.39 1.28582 -3.701 0
M  V30 11013 H 1081.09 0.946872 -3.89661 0
M  V30 11014 H 1077.68 -0.439062 -4.26345 0
M  V30 11015 H 1081.86 -1.25968 -4.80048 0
M  V30 11016 H 1077.12 -2.41252 -5.61789 0
M  V30 11017 H 1081.29 -3.23201 -6.16858 0
M  V30 11018 H 1078.92 -3.81431 -6.57583 0
M  V30 11019 N 1080.49 1.57075 -0.12858 0
M  V30 11020 C 1081.74 1.94695 0.526952 0
M  V30 11021 C 1082.05 1.01482 1.67215 0
M  V30 11022 O 1083.26 1.28606 2.39108 0
M  V30 11023 C 1081.72 3.4605 0.988801 0
M  V30 11024 C 1081.32 4.47816 -0.128457 0
M  V30 11025 C 1083.07 3.92572 1.61517 0
M  V30 11026 C 1080.97 5.9036 0.350628 0
M  V30 11027 H 1079.9 0.726819 0.200623 0
M  V30 11028 H 1082.56 1.82295 -0.209972 0
M  V30 11029 H 1080.94 3.53718 1.78043 0
M  V30 11030 H 1082.11 4.51826 -0.904976 0
M  V30 11031 H 1080.43 4.11103 -0.662075 0
M  V30 11032 H 1083.02 4.96493 1.98491 0
M  V30 11033 H 1083.37 3.33085 2.49721 0
M  V30 11034 H 1083.9 3.87744 0.888768 0
M  V30 11035 H 1080.64 6.53624 -0.495592 0
M  V30 11036 H 1080.16 5.89749 1.09342 0
M  V30 11037 H 1081.84 6.41926 0.808717 0
M  V30 11038 N 1081.97 -0.145205 1.5693 0
M  V30 11039 C 1083.19 -0.876386 1.87974 0
M  V30 11040 C 1083.62 -1.73866 0.717795 0
M  V30 11041 O 1082.98 -1.78224 -0.332551 0
M  V30 11042 C 1083.03 -1.70746 3.17613 0
M  V30 11043 O 1082.13 -2.81188 3.01674 0
M  V30 11044 H 1081.47 -0.243987 0.617549 0
M  V30 11045 H 1084 -0.135482 2.04151 0
M  V30 11046 H 1084.01 -2.1021 3.49679 0
M  V30 11047 H 1082.69 -1.07429 4.01786 0
M  V30 11048 H 1081.26 -2.45117 2.81019 0
M  V30 11049 N 1083.45 -1.52049 -0.414609 0
M  V30 11050 C 1084.7 -1.65511 -1.15977 0
M  V30 11051 C 1085.02 -0.384703 -1.91168 0
M  V30 11052 O 1084.29 0.600247 -1.86477 0
M  V30 11053 H 1082.87 -0.610039 -0.431116 0
M  V30 11054 H 1085.53 -1.8907 -0.473139 0
M  V30 11055 H 1084.62 -2.4936 -1.87686 0
M  V30 11056 N 1084.93 0.6715 -1.42579 0
M  V30 11057 C 1085.86 1.79625 -1.40749 0
M  V30 11058 C 1086.84 1.6032 -0.271312 0
M  V30 11059 O 1088.02 1.82749 -0.46205 0
M  V30 11060 C 1085.15 3.16672 -1.20153 0
M  V30 11061 C 1084.19 3.54718 -2.36807 0
M  V30 11062 S 1085.03 3.56771 -3.99343 0
M  V30 11063 C 1086.18 4.96505 -3.81095 0
M  V30 11064 H 1086.42 1.80903 -2.35926 0
M  V30 11065 H 1083.95 0.842469 -1.2939 0
M  V30 11066 H 1085.91 3.95776 -1.08956 0
M  V30 11067 H 1084.57 3.12976 -0.265545 0
M  V30 11068 H 1083.76 4.54341 -2.18152 0
M  V30 11069 H 1083.36 2.82982 -2.44535 0
M  V30 11070 H 1085.65 5.84674 -3.4229 0
M  V30 11071 H 1086.6 5.20207 -4.80406 0
M  V30 11072 H 1087.01 4.69178 -3.13898 0
M  V30 11073 N 1086.4 1.28806 0.908124 0
M  V30 11074 C 1087.34 1.09018 2.01613 0
M  V30 11075 C 1088.35 0.0402059 1.6275 0
M  V30 11076 O 1089.54 0.283853 1.76229 0
M  V30 11077 C 1086.64 0.635712 3.32884 0
M  V30 11078 C 1085.81 1.76235 4.00325 0
M  V30 11079 C 1084.87 1.3003 5.09881 0
M  V30 11080 O 1083.9 2.00354 5.32773 0
M  V30 11081 N 1085.1 0.166575 5.80261 0
M  V30 11082 H 1087.86 2.0444 2.19144 0
M  V30 11083 H 1085.42 1.20633 1.07978 0
M  V30 11084 H 1087.42 0.310097 4.0351 0
M  V30 11085 H 1085.99 -0.225816 3.11783 0
M  V30 11086 H 1085.21 2.25727 3.23173 0
M  V30 11087 H 1086.49 2.51796 4.42127 0
M  V30 11088 H 1085.89 -0.419934 5.64139 0
M  V30 11089 H 1084.45 -0.0997281 6.51724 0
M  V30 11090 N 1087.88 -1.11734 1.11145 0
M  V30 11091 C 1089.13 -1.83043 0.856717 0
M  V30 11092 C 1089.45 -1.84901 -0.619407 0
M  V30 11093 O 1088.72 -1.31738 -1.44989 0
M  V30 11094 H 1087.3 -0.677823 0.31395 0
M  V30 11095 H 1089.96 -1.35262 1.40322 0
M  V30 11096 H 1089.06 -2.87005 1.22616 0
M  V30 11097 N 1089.36 -0.901303 -1.29284 0
M  V30 11098 C 1090.29 -0.396909 -2.30102 0
M  V30 11099 C 1091.27 0.528919 -1.61668 0
M  V30 11100 O 1092.46 0.439306 -1.89166 0
M  V30 11101 C 1089.59 0.375006 -3.45269 0
M  V30 11102 C 1088.54 -0.46054 -4.25515 0
M  V30 11103 C 1087.87 0.438967 -5.32895 0
M  V30 11104 C 1089.17 -1.7113 -4.93469 0
M  V30 11105 H 1090.86 -1.23943 -2.72541 0
M  V30 11106 H 1088.41 -0.597428 -1.31022 0
M  V30 11107 H 1090.36 0.738622 -4.14876 0
M  V30 11108 H 1089.08 1.25132 -3.01678 0
M  V30 11109 H 1087.74 -0.80651 -3.57618 0
M  V30 11110 H 1087.39 1.31346 -4.85548 0
M  V30 11111 H 1087.09 -0.116406 -5.87485 0
M  V30 11112 H 1088.61 0.79874 -6.05353 0
M  V30 11113 H 1090.03 -1.41732 -5.55504 0
M  V30 11114 H 1088.42 -2.20811 -5.57999 0
M  V30 11115 H 1089.49 -2.44636 -4.18666 0
M  V30 11116 N 1090.84 1.42931 -0.663954 0
M  V30 11117 C 1092.06 2.06544 -0.188201 0
M  V30 11118 C 1092.49 1.495 1.14155 0
M  V30 11119 O 1091.85 0.609164 1.7076 0
M  V30 11120 C 1091.89 3.60393 -0.122105 0
M  V30 11121 O 1091 4.02176 0.91258 0
M  V30 11122 H 1090.34 0.656458 -0.0997967 0
M  V30 11123 H 1092.87 1.83253 -0.909909 0
M  V30 11124 H 1092.88 4.07959 0.0576568 0
M  V30 11125 H 1091.55 4.01287 -1.09276 0
M  V30 11126 H 1090.13 3.6618 0.704738 0
M  V30 11127 N 1092.32 0.406567 1.52266 0
M  V30 11128 C 1093.56 -0.170053 2.01785 0
M  V30 11129 C 1093.89 -1.45361 1.2923 0
M  V30 11130 O 1093.15 -1.91849 0.386342 0
M  V30 11131 C 1093.44 -0.467124 3.54334 0
M  V30 11132 C 1093.11 0.72693 4.45002 0
M  V30 11133 C 1091.77 1.05446 4.69505 0
M  V30 11134 C 1094.12 1.52493 4.98393 0
M  V30 11135 C 1091.45 2.18123 5.44646 0
M  V30 11136 C 1093.8 2.64244 5.74768 0
M  V30 11137 C 1092.47 2.97486 5.97544 0
M  V30 11138 H 1091.74 -0.0622267 0.738383 0
M  V30 11139 H 1094.39 0.54746 1.83508 0
M  V30 11140 H 1092.69 -1.26617 3.70777 0
M  V30 11141 H 1094.39 -0.926194 3.90157 0
M  V30 11142 H 1090.98 0.461666 4.26106 0
M  V30 11143 H 1095.16 1.28512 4.79373 0
M  V30 11144 H 1090.42 2.44228 5.60502 0
M  V30 11145 H 1094.59 3.26468 6.15136 0
M  V30 11146 H 1092.22 3.84913 6.5555 0
M  V30 11147 N 1093.79 -1.57004 0.136909 0
M  V30 11148 C 1095.02 -2.00156 -0.523936 0
M  V30 11149 C 1095.44 -1.01688 -1.59075 0
M  V30 11150 O 1094.79 -0.0123678 -1.82496 0
M  V30 11151 C 1094.85 -3.4326 -1.13379 0
M  V30 11152 O 1094.57 -4.37963 -0.109598 0
M  V30 11153 C 1096.07 -4.01637 -1.87623 0
M  V30 11154 H 1093.29 -0.65681 -0.137263 0
M  V30 11155 H 1095.83 -2.03219 0.228522 0
M  V30 11156 H 1093.99 -3.4108 -1.83693 0
M  V30 11157 H 1094.4 -5.21555 -0.55503 0
M  V30 11158 H 1095.87 -5.03795 -2.25597 0
M  V30 11159 H 1096.35 -3.41781 -2.75831 0
M  V30 11160 H 1096.96 -4.07417 -1.22031 0
M  V30 11161 N 1095.27 0.136881 -1.57004 0
M  V30 11162 C 1096.2 1.19402 -1.95642 0
M  V30 11163 C 1097.22 1.38635 -0.853478 0
M  V30 11164 O 1098.41 1.38027 -1.13185 0
M  V30 11165 C 1095.51 2.55716 -2.22402 0
M  V30 11166 C 1094.68 2.57325 -3.53698 0
M  V30 11167 C 1093.74 3.75253 -3.68879 0
M  V30 11168 O 1092.76 3.5966 -4.41173 0
M  V30 11169 N 1093.97 4.93112 -3.06302 0
M  V30 11170 H 1096.73 0.865504 -2.8693 0
M  V30 11171 H 1094.29 0.326346 -1.58577 0
M  V30 11172 H 1096.28 3.33135 -2.29789 0
M  V30 11173 H 1094.85 2.80819 -1.37329 0
M  V30 11174 H 1094.07 1.65749 -3.5766 0
M  V30 11175 H 1095.36 2.55441 -4.40031 0
M  V30 11176 H 1094.76 5.08684 -2.47502 0
M  V30 11177 H 1093.32 5.68271 -3.19236 0
M  V30 11178 N 1096.75 1.52266 0.40654 0
M  V30 11179 C 1097.7 1.76409 1.516 0
M  V30 11180 C 1098.69 0.631311 1.57197 0
M  V30 11181 O 1099.9 0.813413 1.60573 0
M  V30 11182 H 1096.27 0.557904 0.50423 0
M  V30 11183 H 1098.24 2.69351 1.28424 0
M  V30 11184 C 1096.99 1.93415 2.88939 0
M  V30 11185 H 1096.32 2.8 2.85377 0
M  V30 11186 H 1097.76 2.14306 3.65854 0
M  V30 11187 C 1096.22 0.701938 3.29506 0
M  V30 11188 O 1096.75 -0.128965 4.01493 0
M  V30 11189 N 1094.95 0.537089 2.85594 0
M  V30 11190 H 1094.5 1.21435 2.27181 0
M  V30 11191 H 1094.46 -0.286055 3.13096 0
M  V30 11192 N 1098.23 -0.663929 1.42933 0
M  V30 11193 C 1099.48 -1.42111 1.43697 0
M  V30 11194 C 1099.8 -1.94913 0.0583858 0
M  V30 11195 O 1099.07 -1.73757 -0.904719 0
M  V30 11196 H 1097.65 -0.527391 0.529026 0
M  V30 11197 H 1100.31 -0.783766 1.78446 0
M  V30 11198 H 1099.41 -2.26877 2.1432 0
M  V30 11199 N 1099.71 -1.29285 -0.901281 0
M  V30 11200 C 1100.95 -1.17339 -1.65407 0
M  V30 11201 C 1101.29 0.274834 -1.92245 0
M  V30 11202 O 1100.56 1.19865 -1.53176 0
M  V30 11203 C 1100.84 -1.98547 -3.00418 0
M  V30 11204 C 1100.7 -3.51501 -2.80655 0
M  V30 11205 C 1102.02 -1.81062 -4.01129 0
M  V30 11206 H 1099.13 -0.427624 -0.600255 0
M  V30 11207 H 1101.78 -1.58741 -1.0441 0
M  V30 11208 H 1099.93 -1.63366 -3.52482 0
M  V30 11209 H 1101.6 -3.96655 -2.35505 0
M  V30 11210 H 1099.84 -3.76504 -2.15469 0
M  V30 11211 H 1100.51 -4.03593 -3.76585 0
M  V30 11212 H 1102.99 -2.11788 -3.58169 0
M  V30 11213 H 1101.86 -2.40235 -4.93536 0
M  V30 11214 H 1102.13 -0.765388 -4.35424 0
M  V30 11215 N 1101.18 1.11143 -1.11736 0
M  V30 11216 C 1102.6 1.64462 -0.883693 0
M  V30 11217 C 1102.95 1.87324 0.583448 0
M  V30 11218 O 1102.07 1.60975 1.44623 0
M  V30 11219 C 1102.67 2.98765 -1.59764 0
M  V30 11220 C 1101.23 3.4898 -1.41032 0
M  V30 11221 C 1100.37 2.23729 -1.63831 0
M  V30 11222 H 1103.32 0.947415 -1.27317 0
M  V30 11223 H 1103.34 3.65885 -1.04443 0
M  V30 11224 H 1102.86 2.82094 -2.66542 0
M  V30 11225 H 1100.96 3.7081 -0.364781 0
M  V30 11226 H 1101.07 4.27571 -2.16148 0
M  V30 11227 H 1099.43 2.31507 -1.06191 0
M  V30 11228 H 1100.22 2.09597 -2.7189 0
M  V30 11229 N 1102.66 0.908147 1.28804 0
M  V30 11230 C 1103.91 0.539201 1.95501 0
M  V30 11231 C 1104.24 -0.913759 1.7136 0
M  V30 11232 O 1103.52 -1.64904 1.03136 0
M  V30 11233 C 1103.8 0.842372 3.50109 0
M  V30 11234 C 1103.65 2.34765 3.83673 0
M  V30 11235 C 1104.97 0.334658 4.38826 0
M  V30 11236 H 1102.09 0.197373 0.71008 0
M  V30 11237 H 1104.73 1.13637 1.52272 0
M  V30 11238 H 1102.88 0.334143 3.8706 0
M  V30 11239 H 1104.55 2.92607 3.56621 0
M  V30 11240 H 1102.8 2.80494 3.30916 0
M  V30 11241 H 1103.47 2.51034 4.91616 0
M  V30 11242 H 1105.94 0.769961 4.08914 0
M  V30 11243 H 1104.82 0.575914 5.4587 0
M  V30 11244 H 1105.08 -0.764878 4.35433 0
M  V30 11245 N 1104.14 -1.42577 0.671525 0
M  V30 11246 C 1105.37 -2.06442 0.199152 0
M  V30 11247 C 1105.79 -1.50104 -1.1336 0
M  V30 11248 O 1105.15 -0.618211 -1.70434 0
M  V30 11249 C 1105.2 -3.60323 0.141215 0
M  V30 11250 O 1104.3 -4.02655 -0.891238 0
M  V30 11251 H 1103.64 -0.655919 0.103277 0
M  V30 11252 H 1106.17 -1.82768 0.919614 0
M  V30 11253 H 1106.18 -4.07984 -0.0360209 0
M  V30 11254 H 1104.86 -4.00702 1.11403 0
M  V30 11255 H 1103.43 -3.66549 -0.685309 0
M  V30 11256 N 1105.62 -0.414636 -1.52048 0
M  V30 11257 C 1106.87 0.16073 -2.01059 0
M  V30 11258 C 1107.18 1.45753 -1.30443 0
M  V30 11259 O 1108.39 2.11448 -1.703 0
M  V30 11260 C 1106.84 0.336993 -3.58319 0
M  V30 11261 C 1106.45 -0.948037 -4.37854 0
M  V30 11262 C 1108.19 0.867353 -4.15545 0
M  V30 11263 C 1106.1 -0.738662 -5.86769 0
M  V30 11264 H 1105.03 0.0638419 -0.751292 0
M  V30 11265 H 1107.68 -0.540925 -1.75346 0
M  V30 11266 H 1106.06 1.10111 -3.80383 0
M  V30 11267 H 1107.24 -1.71873 -4.27547 0
M  V30 11268 H 1105.55 -1.40522 -3.91972 0
M  V30 11269 H 1108.15 1.04012 -5.24486 0
M  V30 11270 H 1108.49 1.84358 -3.73253 0
M  V30 11271 H 1109.03 0.162148 -3.97469 0
M  V30 11272 H 1105.77 -1.6866 -6.3343 0
M  V30 11273 H 1105.29 -0.00736294 -5.998 0
M  V30 11274 H 1106.96 -0.382978 -6.45866 0
M  V30 11275 N 1107.1 1.56929 -0.145233 0
M  V30 11276 C 1108.32 2.00864 0.516564 0
M  V30 11277 C 1108.75 1.02466 1.57741 0
M  V30 11278 O 1108.1 0.000145439 1.813 0
M  V30 11279 C 1108.15 3.43552 1.09563 0
M  V30 11280 O 1107.26 3.4815 2.21055 0
M  V30 11281 H 1106.6 0.651835 0.126521 0
M  V30 11282 H 1109.13 2.0317 -0.241445 0
M  V30 11283 H 1109.14 3.82316 1.42473 0
M  V30 11284 H 1107.81 4.14677 0.318749 0
M  V30 11285 H 1106.39 3.21228 1.89387 0
M  V30 11286 N 1108.58 -0.128553 1.57075 0
M  V30 11287 C 1109.99 -0.686713 1.73612 0
M  V30 11288 C 1110.34 -1.80778 0.762478 0
M  V30 11289 O 1109.46 -2.16297 -0.0667779 0
M  V30 11290 C 1110.06 -1.25246 3.148 0
M  V30 11291 C 1108.62 -1.757 3.32876 0
M  V30 11292 C 1107.76 -0.652844 2.69506 0
M  V30 11293 H 1110.71 0.0972859 1.58402 0
M  V30 11294 H 1110.74 -2.1222 3.15821 0
M  V30 11295 H 1110.25 -0.436308 3.8564 0
M  V30 11296 H 1108.35 -2.59824 2.67063 0
M  V30 11297 H 1108.46 -1.87302 4.4097 0
M  V30 11298 H 1106.83 -1.08408 2.30477 0
M  V30 11299 H 1107.61 0.15217 3.42963 0
M  V30 11300 N 1110.05 -1.5248 -0.398459 0
M  V30 11301 C 1111.3 -1.66287 -1.14155 0
M  V30 11302 C 1111.62 -0.40429 -1.91376 0
M  V30 11303 O 1112.82 -0.422341 -2.68195 0
M  V30 11304 C 1111.28 -2.93831 -2.07825 0
M  V30 11305 C 1110.89 -4.26836 -1.3607 0
M  V30 11306 C 1112.63 -3.17004 -2.82327 0
M  V30 11307 C 1110.54 -5.45495 -2.28451 0
M  V30 11308 H 1109.47 -0.619478 -0.42984 0
M  V30 11309 H 1112.12 -1.78972 -0.405112 0
M  V30 11310 H 1110.5 -2.7487 -2.85065 0
M  V30 11311 H 1111.67 -4.56317 -0.641205 0
M  V30 11312 H 1109.99 -4.0985 -0.735659 0
M  V30 11313 H 1112.59 -4.02834 -3.51609 0
M  V30 11314 H 1112.93 -2.3168 -3.45876 0
M  V30 11315 H 1113.46 -3.36487 -2.12183 0
M  V30 11316 H 1110.2 -6.33198 -1.69532 0
M  V30 11317 H 1109.72 -5.20338 -2.98343 0
M  V30 11318 H 1111.4 -5.78996 -2.88743 0
M  V30 11319 N 1111.53 0.65634 -1.43283 0
M  V30 11320 C 1112.76 1.44408 -1.48168 0
M  V30 11321 C 1113.17 1.88542 -0.0986016 0
M  V30 11322 O 1112.53 1.59298 0.890527 0
M  V30 11323 C 1112.58 2.68111 -2.42484 0
M  V30 11324 O 1112.3 2.25824 -3.75413 0
M  V30 11325 C 1113.8 3.61499 -2.56579 0
M  V30 11326 H 1111.02 0.443731 -0.503333 0
M  V30 11327 H 1113.57 0.804917 -1.87993 0
M  V30 11328 H 1111.72 3.28175 -2.05863 0
M  V30 11329 H 1112.14 3.05839 -4.26102 0
M  V30 11330 H 1113.61 4.44972 -3.26655 0
M  V30 11331 H 1114.09 4.08639 -1.60969 0
M  V30 11332 H 1114.69 3.07319 -2.93998 0
M  V30 11333 N 1113.01 1.29761 0.894412 0
M  V30 11334 C 1113.92 1.1724 2.03204 0
M  V30 11335 C 1114.94 0.0944452 1.73743 0
M  V30 11336 O 1116.11 0.307549 1.99038 0
M  V30 11337 C 1113.18 0.855416 3.35981 0
M  V30 11338 C 1112.24 2.01777 3.78926 0
M  V30 11339 C 1111.47 1.71581 5.05367 0
M  V30 11340 O 1111.69 0.639245 5.66807 0
M  V30 11341 O 1110.63 2.56539 5.44492 0
M  V30 11342 H 1114.45 2.12787 2.16692 0
M  V30 11343 H 1112.04 1.09264 1.0189 0
M  V30 11344 H 1113.92 0.693429 4.15656 0
M  V30 11345 H 1112.6 -0.0702195 3.23624 0
M  V30 11346 H 1111.5 2.23502 2.99996 0
M  V30 11347 H 1112.84 2.92479 3.95875 0
M  V30 11348 N 1114.49 -1.10549 1.12324 0
M  V30 11349 C 1115.42 -2.16657 0.747826 0
M  V30 11350 C 1116.43 -1.61238 -0.224981 0
M  V30 11351 O 1117.62 -1.78499 -0.00649408 0
M  V30 11352 C 1114.72 -3.38791 0.0859421 0
M  V30 11353 C 1113.89 -4.23655 1.08792 0
M  V30 11354 C 1112.95 -5.24239 0.453871 0
M  V30 11355 O 1111.98 -5.58262 1.11052 0
M  V30 11356 N 1113.18 -5.75246 -0.779215 0
M  V30 11357 H 1115.95 -2.49472 1.66084 0
M  V30 11358 H 1113.51 -1.26157 1.01469 0
M  V30 11359 H 1115.5 -4.03182 -0.350186 0
M  V30 11360 H 1114.07 -3.03961 -0.729807 0
M  V30 11361 H 1113.29 -3.55578 1.70171 0
M  V30 11362 H 1114.58 -4.77187 1.76549 0
M  V30 11363 H 1113.98 -5.49802 -1.3317 0
M  V30 11364 H 1112.53 -6.41428 -1.15818 0
M  V30 11365 N 1115.97 -0.914965 -1.28321 0
M  V30 11366 C 1117.38 -0.59512 -1.76961 0
M  V30 11367 C 1117.73 0.88958 -1.74874 0
M  V30 11368 O 1116.85 1.6959 -1.34418 0
M  V30 11369 C 1117.45 -1.07353 -3.21342 0
M  V30 11370 C 1116.01 -0.804577 -3.677 0
M  V30 11371 C 1115.15 -1.23955 -2.48053 0
M  V30 11372 H 1118.1 -1.0961 -1.14767 0
M  V30 11373 H 1118.13 -0.415506 -3.78225 0
M  V30 11374 H 1117.64 -2.15413 -3.22829 0
M  V30 11375 H 1115.74 0.26277 -3.71672 0
M  V30 11376 H 1115.85 -1.41317 -4.57784 0
M  V30 11377 H 1114.22 -0.658274 -2.46046 0
M  V30 11378 H 1115 -2.32853 -2.52258 0
M  V30 11379 N 1117.44 1.42219 -0.679077 0
M  V30 11380 C 1118.72 1.95155 -0.13188 0
M  V30 11381 C 1119.1 1.6193 1.35433 0
M  V30 11382 O 1118.45 0.917672 2.09263 0
M  V30 11383 C 1118.66 3.46635 -0.405578 0
M  V30 11384 C 1120.01 4.23359 -0.324394 0
M  V30 11385 O 1121.03 3.54578 -0.339564 0
M  V30 11386 O 1119.89 5.45831 -0.270268 0
M  V30 11387 H 1116.98 0.826983 -0.00535438 0
M  V30 11388 H 1119.53 1.52024 -0.754101 0
M  V30 11389 H 1118.3 3.6404 -1.43495 0
M  V30 11390 H 1117.92 3.96823 0.248439 0
M  V30 11391 N 1118.92 0.422693 1.51826 0
M  V30 11392 C 1120.15 -0.15017 2.06856 0
M  V30 11393 C 1120.57 -1.36946 1.28948 0
M  V30 11394 O 1119.93 -1.78393 0.32338 0
M  V30 11395 C 1119.98 -0.465563 3.57582 0
M  V30 11396 O 1119.08 -1.55442 3.81984 0
M  V30 11397 H 1118.42 -0.00827931 0.663948 0
M  V30 11398 H 1120.95 0.599806 1.95611 0
M  V30 11399 H 1120.96 -0.720279 4.01592 0
M  V30 11400 H 1119.64 0.425679 4.13716 0
M  V30 11401 H 1118.21 -1.29081 3.49846 0
M  V30 11402 N 1120.4 -1.5685 0.153553 0
M  V30 11403 C 1121.63 -2.0041 -0.501949 0
M  V30 11404 C 1122.04 -1.03272 -1.58529 0
M  V30 11405 O 1121.38 -0.0227479 -1.83686 0
M  V30 11406 C 1121.44 -3.40402 -1.15613 0
M  V30 11407 C 1121.11 -4.56486 -0.216596 0
M  V30 11408 C 1122.1 -5.16894 0.558267 0
M  V30 11409 C 1119.79 -5.02162 -0.117592 0
M  V30 11410 C 1121.78 -6.21392 1.41951 0
M  V30 11411 C 1119.47 -6.06514 0.747255 0
M  V30 11412 C 1120.47 -6.65999 1.51441 0
M  V30 11413 O 1120.16 -7.6833 2.36483 0
M  V30 11414 H 1119.89 -0.66247 -0.134574 0
M  V30 11415 H 1122.44 -2.03908 0.247086 0
M  V30 11416 H 1120.67 -3.33762 -1.95294 0
M  V30 11417 H 1122.36 -3.68028 -1.71202 0
M  V30 11418 H 1123.13 -4.825 0.491851 0
M  V30 11419 H 1119.01 -4.55586 -0.704462 0
M  V30 11420 H 1122.55 -6.67751 2.01877 0
M  V30 11421 H 1118.45 -6.40335 0.81494 0
M  V30 11422 H 1119.21 -7.85578 2.29803 0
M  V30 11423 N 1121.88 0.120221 -1.57141 0
M  V30 11424 C 1123.11 0.842441 -1.88972 0
M  V30 11425 C 1123.52 1.73494 -0.744671 0
M  V30 11426 O 1122.88 1.80268 0.284557 0
M  V30 11427 C 1122.93 1.67688 -3.20254 0
M  V30 11428 O 1122.65 0.820319 -4.30351 0
M  V30 11429 C 1124.15 2.50436 -3.65782 0
M  V30 11430 H 1121.37 0.242241 -0.625748 0
M  V30 11431 H 1123.91 0.104978 -2.0423 0
M  V30 11432 H 1122.07 2.36712 -3.0667 0
M  V30 11433 H 1122.48 1.39575 -5.05588 0
M  V30 11434 H 1123.96 3.04518 -4.60405 0
M  V30 11435 H 1124.43 3.27737 -2.92378 0
M  V30 11436 H 1125.04 1.86657 -3.82151 0
M  V30 11437 N 1123.36 1.52689 0.390367 0
M  V30 11438 C 1124.32 1.76726 1.45947 0
M  V30 11439 C 1125.32 0.637269 1.47633 0
M  V30 11440 O 1126.51 0.905312 1.48828 0
M  V30 11441 C 1123.64 1.86678 2.85244 0
M  V30 11442 H 1124.83 2.72185 1.25918 0
M  V30 11443 H 1122.39 1.4339 0.622023 0
M  V30 11444 H 1123.12 0.931991 3.10619 0
M  V30 11445 H 1122.91 2.68843 2.85422 0
M  V30 11446 H 1124.4 2.06952 3.62713 0
M  V30 11447 N 1124.83 -0.648732 1.43629 0
M  V30 11448 C 1126.06 -1.4362 1.48932 0
M  V30 11449 C 1126.48 -1.88487 0.108599 0
M  V30 11450 O 1125.83 -1.59768 -0.882066 0
M  V30 11451 C 1125.89 -2.66822 2.43903 0
M  V30 11452 O 1125.61 -2.2383 3.76606 0
M  V30 11453 C 1127.11 -3.60134 2.58493 0
M  V30 11454 H 1124.33 -0.441055 0.505679 0
M  V30 11455 H 1126.87 -0.794936 1.88417 0
M  V30 11456 H 1125.03 -3.27079 2.07601 0
M  V30 11457 H 1125.44 -3.03575 4.27718 0
M  V30 11458 H 1126.91 -4.43234 3.29011 0
M  V30 11459 H 1127.39 -4.07779 1.63134 0
M  V30 11460 H 1128 -3.05756 2.95624 0
M  V30 11461 N 1126.31 -1.30234 -0.887518 0
M  V30 11462 C 1127.56 -1.19086 -1.64153 0
M  V30 11463 C 1127.89 0.254428 -1.92526 0
M  V30 11464 O 1127.17 1.18233 -1.54438 0
M  V30 11465 C 1127.45 -2.01723 -2.98295 0
M  V30 11466 C 1127.3 -3.54458 -2.76911 0
M  V30 11467 C 1128.62 -1.85307 -3.99186 0
M  V30 11468 H 1125.74 -0.433967 -0.595686 0
M  V30 11469 H 1128.38 -1.59839 -1.0272 0
M  V30 11470 H 1126.53 -1.67096 -3.5073 0
M  V30 11471 H 1128.2 -3.99131 -2.31284 0
M  V30 11472 H 1126.45 -3.78768 -2.11464 0
M  V30 11473 H 1127.12 -4.07565 -3.72283 0
M  V30 11474 H 1129.59 -2.15575 -3.55903 0
M  V30 11475 H 1128.47 -2.45456 -4.90961 0
M  V30 11476 H 1128.73 -0.811528 -4.34588 0
M  V30 11477 N 1127.79 1.09952 -1.12909 0
M  V30 11478 C 1129.04 1.82286 -0.888797 0
M  V30 11479 C 1129.37 1.85218 0.58379 0
M  V30 11480 O 1128.64 1.31645 1.43177 0
M  V30 11481 C 1128.93 3.28706 -1.47053 0
M  V30 11482 C 1128.78 3.34078 -3.01184 0
M  V30 11483 C 1130.1 4.25233 -1.13424 0
M  V30 11484 H 1127.22 0.661803 -0.324324 0
M  V30 11485 H 1129.86 1.28833 -1.3965 0
M  V30 11486 H 1128.01 3.74356 -1.03874 0
M  V30 11487 H 1129.68 2.96871 -3.5308 0
M  V30 11488 H 1127.93 2.73825 -3.36455 0
M  V30 11489 H 1128.6 4.37202 -3.36984 0
M  V30 11490 H 1131.07 3.87841 -1.50726 0
M  V30 11491 H 1129.95 5.26033 -1.56783 0
M  V30 11492 H 1130.21 4.42075 -0.0471496 0
M  V30 11493 N 1129.27 0.921757 1.27833 0
M  V30 11494 C 1130.52 0.557974 1.94245 0
M  V30 11495 C 1130.84 -0.90268 1.72849 0
M  V30 11496 O 1130.11 -1.63915 1.07279 0
M  V30 11497 H 1128.69 0.203364 0.718785 0
M  V30 11498 H 1131.35 1.17286 1.5566 0
M  V30 11499 H 1130.45 0.759202 3.02725 0
M  V30 11500 N 1130.75 -1.41857 0.686609 0
M  V30 11501 C 1131.69 -2.326 0.0041351 0
M  V30 11502 C 1132.69 -1.50474 -0.778077 0
M  V30 11503 O 1133.89 -1.66468 -0.684709 0
M  V30 11504 H 1130.27 -0.751797 -0.0174615 0
M  V30 11505 H 1132.24 -2.87844 0.786656 0
M  V30 11506 C 1130.99 -3.35175 -0.924819 0
M  V30 11507 H 1130.31 -3.98416 -0.332339 0
M  V30 11508 H 1131.75 -4.01229 -1.37082 0
M  V30 11509 C 1130.21 -2.68359 -2.03679 0
M  V30 11510 O 1130.74 -2.52453 -3.12459 0
M  V30 11511 N 1128.95 -2.27196 -1.81192 0
M  V30 11512 H 1128.49 -2.40333 -0.92725 0
M  V30 11513 H 1128.45 -1.82824 -2.55778 0
M  V30 11514 N 1132.22 -0.430739 -1.51599 0
M  V30 11515 C 1133.45 0.136797 -2.06447 0
M  V30 11516 C 1133.87 1.37027 -1.29881 0
M  V30 11517 O 1133.22 1.78983 -0.356543 0
M  V30 11518 C 1133.28 0.465637 -3.58489 0
M  V30 11519 O 1133 -0.718873 -4.32162 0
M  V30 11520 C 1134.5 1.08456 -4.29828 0
M  V30 11521 H 1131.72 0.0108468 -0.670912 0
M  V30 11522 H 1134.26 -0.607921 -1.95255 0
M  V30 11523 H 1132.42 1.16025 -3.69617 0
M  V30 11524 H 1132.83 -0.439195 -5.22658 0
M  V30 11525 H 1134.3 1.2647 -5.37317 0
M  V30 11526 H 1134.78 2.06376 -3.87693 0
M  V30 11527 H 1135.39 0.429525 -4.23125 0
M  V30 11528 N 1133.7 1.56767 -0.161869 0
M  V30 11529 C 1134.67 2.16299 0.758104 0
M  V30 11530 C 1135.67 1.10859 1.16478 0
M  V30 11531 O 1136.86 1.36422 1.08327 0
M  V30 11532 C 1133.99 2.73819 2.03067 0
M  V30 11533 H 1135.18 2.98938 0.239992 0
M  V30 11534 H 1132.73 1.56054 0.0876532 0
M  V30 11535 H 1133.47 1.94887 2.59209 0
M  V30 11536 H 1133.25 3.50974 1.74813 0
M  V30 11537 H 1134.74 3.19638 2.68741 0
M  V30 11538 N 1135.18 -0.111886 1.57202 0
M  V30 11539 C 1136.43 -0.816794 1.84859 0
M  V30 11540 C 1136.75 -1.80079 0.748113 0
M  V30 11541 O 1136.02 -1.94578 -0.227235 0
M  V30 11542 H 1134.6 -0.304633 0.682061 0
M  V30 11543 H 1137.26 -0.097513 1.94656 0
M  V30 11544 H 1136.36 -1.35768 2.81022 0
M  V30 11545 N 1136.66 -1.52894 -0.382264 0
M  V30 11546 C 1137.94 -1.58853 -1.14127 0
M  V30 11547 C 1138.32 -0.38582 -2.07544 0
M  V30 11548 O 1137.66 0.625323 -2.19777 0
M  V30 11549 C 1137.87 -2.93068 -1.89504 0
M  V30 11550 C 1139.22 -3.47048 -2.44629 0
M  V30 11551 O 1140.25 -2.94987 -1.99652 0
M  V30 11552 O 1139.1 -4.3802 -3.26804 0
M  V30 11553 H 1136.2 -0.640969 -0.522578 0
M  V30 11554 H 1138.74 -1.65231 -0.386873 0
M  V30 11555 H 1137.52 -3.72047 -1.2123 0
M  V30 11556 H 1137.14 -2.90106 -2.7189 0
M  V30 11557 N 1138.14 0.641106 -1.43971 0
M  V30 11558 C 1139.38 1.40291 -1.46445 0
M  V30 11559 C 1139.72 1.93978 -0.0929004 0
M  V30 11560 O 1138.99 1.73043 0.888043 0
M  V30 11561 C 1139.27 2.57551 -2.51673 0
M  V30 11562 C 1139.13 2.09279 -3.98149 0
M  V30 11563 C 1140.45 3.59752 -2.53508 0
M  V30 11564 H 1137.57 0.508771 -0.533218 0
M  V30 11565 H 1140.21 0.725767 -1.75592 0
M  V30 11566 H 1138.36 3.15319 -2.2695 0
M  V30 11567 H 1140.03 1.56418 -4.33971 0
M  V30 11568 H 1138.27 1.40545 -4.10402 0
M  V30 11569 H 1138.94 2.93655 -4.67409 0
M  V30 11570 H 1141.42 3.11766 -2.75574 0
M  V30 11571 H 1140.3 4.39332 -3.29057 0
M  V30 11572 H 1140.56 4.13156 -1.57335 0
M  V30 11573 N 1139.62 1.30703 0.880598 0
M  V30 11574 C 1140.84 1.22714 1.6658 0
M  V30 11575 C 1141.26 -0.209303 1.87636 0
M  V30 11576 O 1140.62 -1.13771 1.42697 0
M  V30 11577 C 1140.67 1.95659 3.03974 0
M  V30 11578 O 1140.39 3.33695 2.83865 0
M  V30 11579 C 1141.89 1.9438 3.98411 0
M  V30 11580 H 1139.11 0.424478 0.519673 0
M  V30 11581 H 1141.65 1.72402 1.0999 0
M  V30 11582 H 1139.81 1.49758 3.57283 0
M  V30 11583 H 1140.22 3.70697 3.71058 0
M  V30 11584 H 1141.7 2.4995 4.92168 0
M  V30 11585 H 1142.17 0.923767 4.29375 0
M  V30 11586 H 1142.78 2.40112 3.51036 0
M  V30 11587 N 1141.09 -1.09351 1.1349 0
M  V30 11588 C 1142.34 -1.80915 0.89177 0
M  V30 11589 C 1142.66 -1.86688 -0.5837 0
M  V30 11590 O 1143.86 -2.54568 -0.943788 0
M  V30 11591 C 1142.32 -3.25009 1.54587 0
M  V30 11592 C 1141.93 -3.27501 3.05691 0
M  V30 11593 C 1143.67 -4.01323 1.38346 0
M  V30 11594 C 1141.58 -4.66123 3.63983 0
M  V30 11595 H 1140.51 -0.677961 0.329978 0
M  V30 11596 H 1143.16 -1.22893 1.3627 0
M  V30 11597 H 1141.54 -3.83098 1.0026 0
M  V30 11598 H 1142.71 -2.79174 3.66604 0
M  V30 11599 H 1141.03 -2.64677 3.21457 0
M  V30 11600 H 1143.63 -5.03739 1.79307 0
M  V30 11601 H 1143.97 -4.15003 0.328404 0
M  V30 11602 H 1144.5 -3.49679 1.89656 0
M  V30 11603 H 1141.24 -4.57646 4.69298 0
M  V30 11604 H 1140.76 -5.14772 3.07848 0
M  V30 11605 H 1142.44 -5.35097 3.63703 0
M  V30 11606 N 1142.57 -0.928524 -1.27343 0
M  V30 11607 C 1143.8 -0.585734 -1.98436 0
M  V30 11608 C 1144.21 0.83644 -1.69261 0
M  V30 11609 O 1143.57 1.55603 -0.953626 0
M  V30 11610 C 1143.62 -0.803092 -3.52467 0
M  V30 11611 O 1143.34 -2.16932 -3.80621 0
M  V30 11612 C 1144.84 -0.469127 -4.40811 0
M  V30 11613 H 1142.06 -0.221887 -0.633251 0
M  V30 11614 H 1144.61 -1.24577 -1.62175 0
M  V30 11615 H 1142.76 -0.189846 -3.86935 0
M  V30 11616 H 1143.18 -2.21992 -4.75205 0
M  V30 11617 H 1144.65 -0.671906 -5.47895 0
M  V30 11618 H 1145.13 0.595365 -4.35146 0
M  V30 11619 H 1145.73 -1.06055 -4.11865 0
M  V30 11620 N 1144.05 1.41491 -0.694123 0
M  V30 11621 C 1145.46 1.84283 -0.299439 0
M  V30 11622 C 1145.81 1.58081 1.16211 0
M  V30 11623 O 1144.94 1.05051 1.89191 0
M  V30 11624 C 1145.53 3.34522 -0.536696 0
M  V30 11625 C 1144.09 3.7589 -0.195944 0
M  V30 11626 C 1143.24 2.64908 -0.819692 0
M  V30 11627 H 1146.19 1.31063 -0.894884 0
M  V30 11628 H 1146.21 3.79947 0.205062 0
M  V30 11629 H 1145.72 3.53561 -1.6005 0
M  V30 11630 H 1143.82 3.62452 0.863655 0
M  V30 11631 H 1143.94 4.74671 -0.649954 0
M  V30 11632 H 1142.3 2.53476 -0.249412 0
M  V30 11633 H 1143.08 2.86765 -1.88734 0
M  V30 11634 N 1145.53 0.438773 1.51369 0
M  V30 11635 C 1146.46 -0.407771 2.25543 0
M  V30 11636 C 1147.47 -0.985065 1.29616 0
M  V30 11637 O 1148.66 -0.878961 1.55359 0
M  V30 11638 C 1145.76 -1.58257 2.9968 0
M  V30 11639 C 1144.93 -1.12389 4.22714 0
M  V30 11640 C 1143.99 -2.16897 4.79418 0
M  V30 11641 O 1143.02 -1.76273 5.41218 0
M  V30 11642 N 1144.22 -3.49396 4.63576 0
M  V30 11643 H 1146.99 0.227963 2.98832 0
M  V30 11644 H 1144.55 0.267741 1.59671 0
M  V30 11645 H 1146.54 -2.27796 3.34501 0
M  V30 11646 H 1145.11 -2.12362 2.29393 0
M  V30 11647 H 1144.33 -0.255509 3.93371 0
M  V30 11648 H 1145.62 -0.794848 5.02553 0
M  V30 11649 H 1145.02 -3.85132 4.14355 0
M  V30 11650 H 1143.57 -4.14826 5.02755 0
M  V30 11651 N 1147.01 -1.56678 0.170181 0
M  V30 11652 C 1148.25 -1.9714 -0.475767 0
M  V30 11653 C 1148.58 -1.05611 -1.62972 0
M  V30 11654 O 1147.86 -0.103017 -1.94227 0
M  V30 11655 C 1148.14 -3.47072 -0.959828 0
M  V30 11656 C 1148 -4.4938 0.194225 0
M  V30 11657 C 1149.31 -4.00071 -1.83387 0
M  V30 11658 H 1146.43 -0.716776 -0.171466 0
M  V30 11659 H 1149.08 -1.88266 0.256086 0
M  V30 11660 H 1147.23 -3.54766 -1.58346 0
M  V30 11661 H 1148.9 -4.53748 0.83128 0
M  V30 11662 H 1147.14 -4.25393 0.849893 0
M  V30 11663 H 1147.81 -5.51685 -0.186575 0
M  V30 11664 H 1150.29 -3.95002 -1.30815 0
M  V30 11665 H 1149.16 -5.05398 -2.14159 0
M  V30 11666 H 1149.42 -3.43819 -2.77923 0
M  V30 11667 N 1148.48 0.103547 -1.57259 0
M  V30 11668 C 1149.76 0.839768 -1.76656 0
M  V30 11669 C 1150.14 1.9734 -0.749666 0
M  V30 11670 O 1149.49 2.27405 0.223466 0
M  V30 11671 C 1149.7 1.34218 -3.22159 0
M  V30 11672 C 1151.05 1.78835 -3.85102 0
M  V30 11673 O 1152.07 1.43861 -3.25857 0
M  V30 11674 O 1150.93 2.43474 -4.89267 0
M  V30 11675 H 1148.02 0.399928 -0.723869 0
M  V30 11676 H 1150.57 0.0860857 -1.69482 0
M  V30 11677 H 1149.34 0.52956 -3.877 0
M  V30 11678 H 1148.96 2.15811 -3.33933 0
M  V30 11679 N 1149.96 1.53094 0.37415 0
M  V30 11680 C 1151.19 1.72758 1.13852 0
M  V30 11681 C 1151.6 0.452638 1.83294 0
M  V30 11682 O 1150.96 -0.573906 1.73241 0
M  V30 11683 C 1151.01 2.88724 2.17534 0
M  V30 11684 O 1150.73 4.11284 1.5092 0
M  V30 11685 C 1152.23 3.2019 3.06584 0
M  V30 11686 H 1149.45 0.578028 0.340771 0
M  V30 11687 H 1152 1.99805 0.435683 0
M  V30 11688 H 1150.15 2.64096 2.83429 0
M  V30 11689 H 1150.57 4.76162 2.19932 0
M  V30 11690 H 1152.04 4.04759 3.75332 0
M  V30 11691 H 1152.52 2.35193 3.70919 0
M  V30 11692 H 1153.12 3.46712 2.46315 0
M  V30 11693 N 1151.44 -0.633461 1.44309 0
M  V30 11694 C 1152.37 -1.75676 1.53819 0
M  V30 11695 C 1153.35 -1.65537 0.391365 0
M  V30 11696 O 1154.54 -1.84332 0.611181 0
M  V30 11697 C 1151.67 -3.14197 1.47979 0
M  V30 11698 C 1150.62 -3.39122 2.61113 0
M  V30 11699 C 1149.95 -4.77648 2.40325 0
M  V30 11700 C 1151.25 -3.31914 4.03274 0
M  V30 11701 H 1152.94 -1.67974 2.47841 0
M  V30 11702 H 1150.49 -0.8067 1.19283 0
M  V30 11703 H 1152.44 -3.92553 1.53233 0
M  V30 11704 H 1151.16 -3.22677 0.504718 0
M  V30 11705 H 1149.82 -2.63145 2.55245 0
M  V30 11706 H 1149.47 -4.82829 1.41016 0
M  V30 11707 H 1149.17 -4.95284 3.16177 0
M  V30 11708 H 1150.69 -5.58237 2.47394 0
M  V30 11709 H 1152.11 -4.00178 4.10524 0
M  V30 11710 H 1150.5 -3.61085 4.7931 0
M  V30 11711 H 1151.57 -2.29761 4.2701 0
M  V30 11712 N 1152.92 -1.31168 -0.873655 0
M  V30 11713 C 1154.17 -1.20003 -1.62118 0
M  V30 11714 C 1154.48 0.241505 -1.94103 0
M  V30 11715 O 1155.69 0.474801 -2.67316 0
M  V30 11716 C 1154.14 -2.10055 -2.92241 0
M  V30 11717 C 1153.75 -3.59183 -2.67752 0
M  V30 11718 C 1155.49 -2.07681 -3.70228 0
M  V30 11719 C 1153.4 -4.41255 -3.93761 0
M  V30 11720 H 1152.33 -0.445564 -0.608267 0
M  V30 11721 H 1154.98 -1.55997 -0.966287 0
M  V30 11722 H 1153.36 -1.66956 -3.59085 0
M  V30 11723 H 1154.54 -4.10504 -2.09339 0
M  V30 11724 H 1152.85 -3.63496 -2.03125 0
M  V30 11725 H 1155.45 -2.66246 -4.637 0
M  V30 11726 H 1155.79 -1.06304 -4.02499 0
M  V30 11727 H 1156.33 -2.48961 -3.10263 0
M  V30 11728 H 1153.07 -5.43372 -3.66643 0
M  V30 11729 H 1152.59 -3.94694 -4.51638 0
M  V30 11730 H 1154.26 -4.53278 -4.6168 0
M  V30 11731 N 1154.4 1.08748 -1.14068 0
M  V30 11732 C 1155.33 2.17591 -0.84714 0
M  V30 11733 C 1156.31 1.68962 0.196415 0
M  V30 11734 O 1157.49 1.94125 0.0538415 0
M  V30 11735 C 1154.62 3.45823 -0.320005 0
M  V30 11736 C 1153.58 4.07824 -1.2986 0
M  V30 11737 C 1152.9 5.30965 -0.630925 0
M  V30 11738 C 1154.2 4.49512 -2.65963 0
M  V30 11739 H 1155.9 2.42404 -1.75729 0
M  V30 11740 H 1153.44 1.16502 -0.846356 0
M  V30 11741 H 1155.4 4.21276 -0.102271 0
M  V30 11742 H 1154.12 3.20553 0.625561 0
M  V30 11743 H 1152.78 3.34398 -1.50245 0
M  V30 11744 H 1152.43 5.01979 0.320337 0
M  V30 11745 H 1152.13 5.73402 -1.28388 0
M  V30 11746 H 1153.65 6.09136 -0.422635 0
M  V30 11747 H 1155.06 5.16159 -2.49506 0
M  V30 11748 H 1153.46 5.02857 -3.27498 0
M  V30 11749 H 1154.53 3.6157 -3.23102 0
M  V30 11750 N 1155.87 0.935264 1.26849 0
M  V30 11751 C 1157.1 0.595704 1.98661 0
M  V30 11752 C 1157.52 -0.821001 1.69237 0
M  V30 11753 O 1156.88 -1.55211 0.936982 0
M  V30 11754 C 1156.93 0.837275 3.50745 0
M  V30 11755 O 1156.03 -0.0934914 4.12294 0
M  V30 11756 H 1155.38 0.228512 0.623441 0
M  V30 11757 H 1157.91 1.25658 1.61466 0
M  V30 11758 H 1157.92 0.755827 4.00938 0
M  V30 11759 H 1156.59 1.86993 3.71492 0
M  V30 11760 H 1155.17 0.0385124 3.7288 0
M  V30 11761 N 1157.35 -1.41121 0.701616 0
M  V30 11762 C 1158.58 -2.05452 0.244365 0
M  V30 11763 C 1159 -1.5282 -1.10866 0
M  V30 11764 O 1158.35 -0.67893 -1.69401 0
M  V30 11765 C 1158.4 -3.60946 0.200112 0
M  V30 11766 O 1158.12 -4.11632 1.4997 0
M  V30 11767 C 1159.63 -4.42431 -0.277394 0
M  V30 11768 H 1156.85 -0.66151 0.112453 0
M  V30 11769 H 1159.39 -1.80784 0.9559 0
M  V30 11770 H 1157.54 -3.84632 -0.462287 0
M  V30 11771 H 1157.96 -5.05723 1.39084 0
M  V30 11772 H 1159.43 -5.514 -0.257225 0
M  V30 11773 H 1159.91 -4.1898 -1.31728 0
M  V30 11774 H 1160.52 -4.23822 0.354223 0
M  V30 11775 N 1158.83 -0.446794 -1.51134 0
M  V30 11776 C 1159.76 0.350229 -2.30858 0
M  V30 11777 C 1160.74 1.0125 -1.36684 0
M  V30 11778 O 1161.93 1.01433 -1.65605 0
M  V30 11779 C 1159.06 1.4464 -3.15748 0
M  V30 11780 C 1158.01 0.907102 -4.18277 0
M  V30 11781 C 1157.34 2.09974 -4.91747 0
M  V30 11782 C 1158.64 -0.0649758 -5.2226 0
M  V30 11783 H 1160.33 -0.315105 -2.97737 0
M  V30 11784 H 1157.88 -0.152985 -1.43185 0
M  V30 11785 H 1159.83 2.01127 -3.70305 0
M  V30 11786 H 1158.55 2.14016 -2.46708 0
M  V30 11787 H 1157.21 0.364382 -3.64785 0
M  V30 11788 H 1156.86 2.77991 -4.19202 0
M  V30 11789 H 1156.56 1.74523 -5.61084 0
M  V30 11790 H 1158.08 2.66996 -5.49131 0
M  V30 11791 H 1159.5 0.4099 -5.71833 0
M  V30 11792 H 1157.9 -0.332529 -5.99178 0
M  V30 11793 H 1158.97 -0.998681 -4.74504 0
M  V30 11794 N 1160.31 1.56586 -0.178487 0
M  V30 11795 C 1161.24 2.155 0.780543 0
M  V30 11796 C 1162.25 1.11244 1.18864 0
M  V30 11797 O 1163.44 1.38403 1.12725 0
M  V30 11798 C 1160.54 2.68867 2.0631 0
M  V30 11799 C 1159.72 3.97854 1.81744 0
M  V30 11800 C 1158.77 4.36213 2.94287 0
M  V30 11801 O 1157.8 5.03954 2.64612 0
M  V30 11802 N 1159 3.98356 4.22247 0
M  V30 11803 H 1161.77 2.98419 0.276836 0
M  V30 11804 H 1159.33 1.61899 0.00405241 0
M  V30 11805 H 1161.32 2.91522 2.80708 0
M  V30 11806 H 1159.89 1.90496 2.47851 0
M  V30 11807 H 1159.11 3.83502 0.912127 0
M  V30 11808 H 1160.4 4.82083 1.62707 0
M  V30 11809 H 1159.8 3.43835 4.49215 0
M  V30 11810 H 1158.35 4.25998 4.93325 0
M  V30 11811 N 1161.79 -0.095206 1.57312 0
M  V30 11812 C 1162.73 -1.11551 2.02052 0
M  V30 11813 C 1163.7 -1.39808 0.896818 0
M  V30 11814 O 1164.89 -1.51273 1.1628 0
M  V30 11815 C 1162.03 -2.43056 2.44985 0
M  V30 11816 C 1161.14 -2.21531 3.70875 0
M  V30 11817 C 1160.28 -3.46434 4.02687 0
M  V30 11818 C 1159.32 -3.2017 5.21687 0
M  V30 11819 N 1158.45 -4.37339 5.49253 0
M  V30 11820 H 1163.29 -0.727 2.88996 0
M  V30 11821 H 1160.83 -0.347441 1.42938 0
M  V30 11822 H 1162.79 -3.19803 2.67921 0
M  V30 11823 H 1161.42 -2.79754 1.61051 0
M  V30 11824 H 1160.47 -1.35587 3.55416 0
M  V30 11825 H 1161.78 -1.98116 4.57768 0
M  V30 11826 H 1160.94 -4.31589 4.26399 0
M  V30 11827 H 1159.67 -3.72904 3.14315 0
M  V30 11828 H 1158.68 -2.33409 4.97796 0
M  V30 11829 H 1159.9 -2.95047 6.11657 0
M  V30 11830 H 1157.85 -4.63885 4.6384 0
M  V30 11831 H 1157.77 -4.17114 6.30517 0
M  V30 11832 H 1159.04 -5.23559 5.775 0
M  V30 11833 N 1163.26 -1.53291 -0.366026 0
M  V30 11834 C 1164.21 -1.79697 -1.44836 0
M  V30 11835 C 1165.18 -0.641321 -1.5322 0
M  V30 11836 O 1166.37 -0.883453 -1.69115 0
M  V30 11837 C 1163.51 -1.99223 -2.81788 0
M  V30 11838 C 1162.62 -3.26938 -2.82375 0
M  V30 11839 C 1161.75 -3.36654 -4.10898 0
M  V30 11840 C 1160.79 -4.58404 -4.05626 0
M  V30 11841 N 1159.93 -4.65275 -5.25798 0
M  V30 11842 H 1164.77 -2.72053 -1.21619 0
M  V30 11843 H 1162.31 -1.34768 -0.589577 0
M  V30 11844 H 1164.27 -2.0853 -3.61346 0
M  V30 11845 H 1162.9 -1.10204 -3.03406 0
M  V30 11846 H 1161.95 -3.26587 -1.95052 0
M  V30 11847 H 1163.26 -4.16573 -2.74351 0
M  V30 11848 H 1162.41 -3.4527 -4.98872 0
M  V30 11849 H 1161.15 -2.45035 -4.21674 0
M  V30 11850 H 1160.16 -4.49888 -3.16039 0
M  V30 11851 H 1161.38 -5.51364 -3.96453 0
M  V30 11852 H 1159.33 -3.76557 -5.3716 0
M  V30 11853 H 1159.25 -5.48814 -5.19942 0
M  V30 11854 H 1160.51 -4.78175 -6.15605 0
M  V30 11855 N 1164.74 0.6258 -1.44643 0
M  V30 11856 C 1165.99 1.38125 -1.46984 0
M  V30 11857 C 1166.3 1.95299 -0.108429 0
M  V30 11858 O 1167.51 2.71498 -0.00940005 0
M  V30 11859 C 1165.97 2.50108 -2.58793 0
M  V30 11860 C 1165.57 1.99424 -4.01166 0
M  V30 11861 C 1167.32 3.27269 -2.70361 0
M  V30 11862 C 1165.23 3.08781 -5.04389 0
M  V30 11863 H 1164.16 0.519083 -0.546872 0
M  V30 11864 H 1166.81 0.67268 -1.70726 0
M  V30 11865 H 1165.19 3.23565 -2.28302 0
M  V30 11866 H 1166.36 1.32797 -4.4125 0
M  V30 11867 H 1164.68 1.35063 -3.93887 0
M  V30 11868 H 1167.27 4.08802 -3.44652 0
M  V30 11869 H 1167.62 3.77097 -1.76362 0
M  V30 11870 H 1168.15 2.60905 -3.00289 0
M  V30 11871 H 1164.89 2.63891 -6.00035 0
M  V30 11872 H 1164.41 3.74033 -4.68892 0
M  V30 11873 H 1166.09 3.73469 -5.28328 0
M  V30 11874 N 1166.22 1.31629 0.866686 0
M  V30 11875 C 1167.45 1.24609 1.65793 0
M  V30 11876 C 1167.87 -0.184944 1.87189 0
M  V30 11877 O 1167.23 -1.1322 1.41601 0
M  V30 11878 C 1167.28 1.9988 3.00134 0
M  V30 11879 O 1166.38 1.33838 3.90079 0
M  V30 11880 H 1165.72 0.430051 0.505917 0
M  V30 11881 H 1168.25 1.73752 1.08035 0
M  V30 11882 H 1168.26 2.09599 3.50046 0
M  V30 11883 H 1166.94 3.03947 2.83882 0
M  V30 11884 H 1165.51 1.3259 3.48532 0
M  V30 11885 N 1167.7 -1.08142 1.14644 0
M  V30 11886 C 1168.63 -2.17139 0.858667 0
M  V30 11887 C 1169.61 -1.69064 -0.187452 0
M  V30 11888 O 1170.8 -1.94151 -0.0435458 0
M  V30 11889 C 1167.93 -3.45648 0.33834 0
M  V30 11890 C 1166.88 -4.07129 1.32021 0
M  V30 11891 C 1166.21 -5.30623 0.659075 0
M  V30 11892 C 1167.51 -4.48095 2.68343 0
M  V30 11893 H 1169.2 -2.41468 1.77012 0
M  V30 11894 H 1166.75 -1.16052 0.852523 0
M  V30 11895 H 1168.7 -4.21216 0.124611 0
M  V30 11896 H 1167.42 -3.2088 -0.608553 0
M  V30 11897 H 1166.08 -3.33596 1.52016 0
M  V30 11898 H 1165.73 -5.02142 -0.293711 0
M  V30 11899 H 1165.43 -5.72714 1.31427 0
M  V30 11900 H 1166.95 -6.08903 0.454933 0
M  V30 11901 H 1168.37 -5.14828 2.5224 0
M  V30 11902 H 1166.76 -5.01113 3.30161 0
M  V30 11903 H 1167.83 -3.59852 3.25015 0
M  V30 11904 N 1169.18 -0.941978 -1.26351 0
M  V30 11905 C 1170.42 -0.589971 -1.93715 0
M  V30 11906 C 1170.75 0.871085 -1.73903 0
M  V30 11907 O 1170.01 1.63864 -1.06991 0
M  V30 11908 C 1170.31 -0.879481 -3.4641 0
M  V30 11909 C 1169.97 -2.32454 -3.86362 0
M  V30 11910 C 1168.63 -2.71957 -3.9698 0
M  V30 11911 C 1170.99 -3.2636 -4.06373 0
M  V30 11912 C 1168.31 -4.04459 -4.25006 0
M  V30 11913 C 1170.67 -4.58459 -4.35887 0
M  V30 11914 C 1169.33 -4.97775 -4.4472 0
M  V30 11915 H 1168.6 -0.215886 -0.708854 0
M  V30 11916 H 1171.25 -1.18863 -1.50146 0
M  V30 11917 H 1169.55 -0.198289 -3.91298 0
M  V30 11918 H 1171.25 -0.585887 -3.96697 0
M  V30 11919 H 1167.84 -2.00814 -3.78645 0
M  V30 11920 H 1172.02 -2.97037 -3.97596 0
M  V30 11921 H 1167.28 -4.34582 -4.30057 0
M  V30 11922 H 1171.45 -5.31213 -4.50317 0
M  V30 11923 H 1169.08 -6.00475 -4.66191 0
M  V30 11924 N 1170.66 1.40747 -0.709091 0
M  V30 11925 C 1172.07 1.83955 -0.318968 0
M  V30 11926 C 1172.42 1.59304 1.14527 0
M  V30 11927 O 1171.54 1.07052 1.88066 0
M  V30 11928 C 1172.14 3.33934 -0.572147 0
M  V30 11929 C 1170.7 3.75661 -0.235802 0
M  V30 11930 C 1169.84 2.64024 -0.847743 0
M  V30 11931 H 1172.79 1.30107 -0.908734 0
M  V30 11932 H 1172.82 3.80143 0.164752 0
M  V30 11933 H 1172.33 3.51844 -1.63791 0
M  V30 11934 H 1170.43 3.63348 0.825164 0
M  V30 11935 H 1170.54 4.73955 -0.700263 0
M  V30 11936 H 1168.91 2.53197 -0.276283 0
M  V30 11937 H 1169.69 2.84748 -1.91765 0
M  V30 11938 N 1172.13 0.454803 1.50895 0
M  V30 11939 C 1173.38 -0.105927 2.02523 0
M  V30 11940 C 1173.71 -1.40825 1.33724 0
M  V30 11941 O 1172.99 -1.89038 0.457683 0
M  V30 11942 C 1173.27 -0.306635 3.58792 0
M  V30 11943 C 1173.12 1.01556 4.38185 0
M  V30 11944 C 1174.44 -1.06858 4.2693 0
M  V30 11945 H 1171.56 -0.0370232 0.736069 0
M  V30 11946 H 1174.2 0.597215 1.8037 0
M  V30 11947 H 1172.35 -0.905563 3.77799 0
M  V30 11948 H 1174.03 1.64981 4.30789 0
M  V30 11949 H 1172.27 1.61608 4.02574 0
M  V30 11950 H 1172.94 0.828959 5.4574 0
M  V30 11951 H 1175.42 -0.561086 4.123 0
M  V30 11952 H 1174.29 -1.1778 5.36115 0
M  V30 11953 H 1174.55 -2.10111 3.8898 0
M  V30 11954 N 1173.61 -1.56489 0.186789 0
M  V30 11955 C 1175.02 -1.83809 -0.327265 0
M  V30 11956 C 1175.37 -1.10718 -1.61976 0
M  V30 11957 O 1174.5 -0.36525 -2.13295 0
M  V30 11958 C 1175.09 -3.33435 -0.600551 0
M  V30 11959 C 1173.65 -3.61195 -1.059 0
M  V30 11960 C 1172.8 -2.77108 -0.103131 0
M  V30 11961 H 1175.75 -1.53292 0.410747 0
M  V30 11962 H 1175.77 -3.51754 -1.45084 0
M  V30 11963 H 1175.28 -3.86605 0.340315 0
M  V30 11964 H 1173.38 -3.13451 -2.01443 0
M  V30 11965 H 1173.5 -4.69435 -0.957458 0
M  V30 11966 H 1171.86 -2.47448 -0.603449 0
M  V30 11967 H 1172.64 -3.33065 0.832031 0
M  V30 11968 N 1175.09 0.086862 -1.5736 0
M  V30 11969 C 1176.32 0.802167 -1.90717 0
M  V30 11970 C 1176.73 1.71875 -0.781304 0
M  V30 11971 O 1176.09 1.80831 0.246255 0
M  V30 11972 C 1176.14 1.60858 -3.23739 0
M  V30 11973 O 1175.86 0.728851 -4.31995 0
M  V30 11974 C 1177.36 2.42621 -3.71012 0
M  V30 11975 H 1174.58 0.228914 -0.630745 0
M  V30 11976 H 1177.13 0.061634 -2.04407 0
M  V30 11977 H 1175.28 2.30153 -3.11622 0
M  V30 11978 H 1175.7 1.2882 -5.08435 0
M  V30 11979 H 1177.17 2.94683 -4.66761 0
M  V30 11980 H 1177.65 3.21462 -2.99264 0
M  V30 11981 H 1178.25 1.78509 -3.86024 0
M  V30 11982 N 1176.57 1.53483 0.357892 0
M  V30 11983 C 1177.5 1.83444 1.44466 0
M  V30 11984 C 1178.48 0.688486 1.55544 0
M  V30 11985 O 1179.66 0.93906 1.69986 0
M  V30 11986 C 1176.79 2.03122 2.81707 0
M  V30 11987 C 1175.75 3.1891 2.85448 0
M  V30 11988 C 1175.07 3.23895 4.25436 0
M  V30 11989 C 1176.37 4.57334 2.52275 0
M  V30 11990 H 1178.07 2.74456 1.19642 0
M  V30 11991 H 1175.61 1.3206 0.574112 0
M  V30 11992 H 1177.57 2.22666 3.57768 0
M  V30 11993 H 1176.29 1.08827 3.07935 0
M  V30 11994 H 1174.95 2.99199 2.11838 0
M  V30 11995 H 1174.6 2.27223 4.48753 0
M  V30 11996 H 1174.3 4.01694 4.28854 0
M  V30 11997 H 1175.82 3.45632 5.0336 0
M  V30 11998 H 1177.24 4.76988 3.1805 0
M  V30 11999 H 1175.63 5.37431 2.66998 0
M  V30 12000 H 1176.7 4.61921 1.47501 0
M  V30 12001 N 1178.05 -0.61812 1.44973 0
M  V30 12002 C 1179.27 -1.40429 1.51945 0
M  V30 12003 C 1179.69 -1.88215 0.148556 0
M  V30 12004 O 1179.05 -1.61603 -0.847978 0
M  V30 12005 C 1179.1 -2.61588 2.49507 0
M  V30 12006 O 1178.82 -2.15791 3.81269 0
M  V30 12007 C 1180.32 -3.5457 2.66074 0
M  V30 12008 H 1177.54 -0.43023 0.514921 0
M  V30 12009 H 1180.08 -0.754791 1.90061 0
M  V30 12010 H 1178.24 -3.22602 2.14492 0
M  V30 12011 H 1178.65 -2.94434 4.34061 0
M  V30 12012 H 1180.13 -4.36155 3.38338 0
M  V30 12013 H 1180.6 -4.04227 1.71746 0
M  V30 12014 H 1181.21 -2.99416 3.02043 0
M  V30 12015 N 1179.52 -1.32087 -0.859693 0
M  V30 12016 C 1180.77 -1.22119 -1.61033 0
M  V30 12017 C 1181.09 0.218289 -1.93774 0
M  V30 12018 O 1180.36 1.14172 -1.5919 0
M  V30 12019 H 1178.94 -0.448989 -0.597008 0
M  V30 12020 H 1181.6 -1.65545 -1.02863 0
M  V30 12021 H 1180.7 -1.80023 -2.54947 0
M  V30 12022 N 1181 1.07532 -1.15215 0
M  V30 12023 C 1182.25 1.79474 -0.920439 0
M  V30 12024 C 1182.56 1.87593 0.553926 0
M  V30 12025 O 1183.77 2.56037 0.903169 0
M  V30 12026 C 1182.23 3.22509 -1.59738 0
M  V30 12027 C 1181.83 3.22596 -3.10863 0
M  V30 12028 C 1183.58 3.99072 -1.44714 0
M  V30 12029 C 1181.48 4.60273 -3.71352 0
M  V30 12030 H 1180.41 0.672625 -0.340722 0
M  V30 12031 H 1183.07 1.2071 -1.38208 0
M  V30 12032 H 1181.45 3.81454 -1.06342 0
M  V30 12033 H 1182.62 2.73306 -3.70999 0
M  V30 12034 H 1180.94 2.5953 -3.25627 0
M  V30 12035 H 1183.53 5.00823 -1.87299 0
M  V30 12036 H 1183.88 4.14428 -0.394386 0
M  V30 12037 H 1184.41 3.46617 -1.95195 0
M  V30 12038 H 1181.15 4.50122 -4.76519 0
M  V30 12039 H 1180.67 5.09809 -3.15998 0
M  V30 12040 H 1182.35 5.29243 -3.7217 0
M  V30 12041 N 1182.48 0.948665 1.2585 0
M  V30 12042 C 1183.41 0.482036 2.2847 0
M  V30 12043 C 1184.39 -0.468553 1.63519 0
M  V30 12044 O 1185.58 -0.368796 1.90666 0
M  V30 12045 C 1182.71 -0.246603 3.46423 0
M  V30 12046 C 1181.66 0.61815 4.23513 0
M  V30 12047 C 1180.99 -0.240884 5.34157 0
M  V30 12048 C 1182.29 1.89327 4.86778 0
M  V30 12049 H 1183.98 1.33973 2.67753 0
M  V30 12050 H 1181.53 0.645645 1.28715 0
M  V30 12051 H 1183.48 -0.584135 4.17332 0
M  V30 12052 H 1182.2 -1.13849 3.06114 0
M  V30 12053 H 1180.86 0.938682 3.54379 0
M  V30 12054 H 1180.51 -1.13235 4.90089 0
M  V30 12055 H 1180.21 0.334367 5.86648 0
M  V30 12056 H 1181.73 -0.573517 6.07901 0
M  V30 12057 H 1183.15 1.62252 5.49861 0
M  V30 12058 H 1181.55 2.41369 5.49419 0
M  V30 12059 H 1182.62 2.60006 4.09298 0
M  V30 12060 N 1183.96 -1.40369 0.716545 0
M  V30 12061 C 1185.2 -2.01167 0.256846 0
M  V30 12062 C 1185.54 -1.56689 -1.14727 0
M  V30 12063 O 1184.81 -0.787384 -1.7785 0
M  V30 12064 C 1185.1 -3.58511 0.337963 0
M  V30 12065 C 1184.95 -4.13059 1.78052 0
M  V30 12066 C 1186.27 -4.39142 -0.290295 0
M  V30 12067 H 1183.39 -0.730877 0.0948028 0
M  V30 12068 H 1186.03 -1.66833 0.909225 0
M  V30 12069 H 1184.18 -3.87891 -0.217482 0
M  V30 12070 H 1185.85 -3.94472 2.39143 0
M  V30 12071 H 1184.09 -3.67311 2.30793 0
M  V30 12072 H 1184.76 -5.22217 1.78867 0
M  V30 12073 H 1187.24 -4.15697 0.182987 0
M  V30 12074 H 1186.12 -5.48524 -0.203097 0
M  V30 12075 H 1186.38 -4.20209 -1.37394 0
M  V30 12076 N 1185.44 -0.462799 -1.50652 0
M  V30 12077 C 1186.38 0.349784 -2.29955 0
M  V30 12078 C 1187.38 0.997947 -1.36885 0
M  V30 12079 O 1188.58 0.93 -1.54114 0
M  V30 12080 H 1184.96 0.131635 -0.740389 0
M  V30 12081 H 1186.93 -0.33958 -2.96461 0
M  V30 12082 C 1185.68 1.42398 -3.17204 0
M  V30 12083 H 1185 0.934611 -3.88722 0
M  V30 12084 H 1186.44 1.96528 -3.75703 0
M  V30 12085 C 1184.9 2.42135 -2.34248 0
M  V30 12086 O 1185.43 3.47229 -2.01978 0
M  V30 12087 N 1183.64 2.13647 -1.96985 0
M  V30 12088 H 1183.18 1.28209 -2.23428 0
M  V30 12089 H 1183.14 2.80615 -1.41783 0
M  V30 12090 N 1186.91 1.56388 -0.195085 0
M  V30 12091 C 1188.16 1.97189 0.44281 0
M  V30 12092 C 1188.48 1.08312 1.62153 0
M  V30 12093 O 1187.75 0.154404 1.95291 0
M  V30 12094 H 1186.33 0.728188 0.166585 0
M  V30 12095 H 1189 1.92852 -0.281815 0
M  V30 12096 H 1188.09 3.02016 0.786945 0
M  V30 12097 N 1188.39 -0.0785156 1.57404 0
M  V30 12098 C 1189.32 -1.12058 1.99939 0
M  V30 12099 C 1190.34 -1.35372 0.904343 0
M  V30 12100 O 1191.53 -1.33731 1.1823 0
M  V30 12101 C 1188.63 -2.47285 2.31739 0
M  V30 12102 C 1187.8 -2.44021 3.63005 0
M  V30 12103 C 1186.86 -3.61303 3.82552 0
M  V30 12104 O 1185.88 -3.43039 4.54217 0
M  V30 12105 N 1187.09 -4.81404 3.24392 0
M  V30 12106 H 1189.85 -0.758416 2.89945 0
M  V30 12107 H 1187.41 -0.267266 1.59679 0
M  V30 12108 H 1189.4 -3.24377 2.41995 0
M  V30 12109 H 1187.97 -2.75529 1.47657 0
M  V30 12110 H 1187.19 -1.52361 3.63565 0
M  V30 12111 H 1188.48 -2.38934 4.49208 0
M  V30 12112 H 1187.88 -4.99147 2.66211 0
M  V30 12113 H 1186.44 -5.56031 3.40107 0
M  V30 12114 N 1189.87 -1.5367 -0.349747 0
M  V30 12115 C 1190.82 -1.81914 -1.44948 0
M  V30 12116 C 1191.81 -0.689218 -1.54745 0
M  V30 12117 O 1193.02 -0.872448 -1.57443 0
M  V30 12118 H 1189.39 -0.576234 -0.483176 0
M  V30 12119 H 1191.36 -2.73932 -1.18338 0
M  V30 12120 C 1190.11 -2.04005 -2.81562 0
M  V30 12121 H 1189.44 -2.90399 -2.74788 0
M  V30 12122 H 1190.88 -2.27737 -3.57648 0
M  V30 12123 C 1189.34 -0.823748 -3.26674 0
M  V30 12124 O 1189.87 -0.0201351 -4.01695 0
M  V30 12125 N 1188.07 -0.642716 -2.83403 0
M  V30 12126 H 1187.62 -1.29783 -2.22517 0
M  V30 12127 H 1187.58 0.169654 -3.13942 0
M  V30 12128 N 1191.35 0.610423 -1.45298 0
M  V30 12129 C 1192.6 1.36951 -1.49167 0
M  V30 12130 C 1192.92 1.9405 -0.132292 0
M  V30 12131 O 1192.18 1.75363 0.868686 0
M  V30 12132 C 1192.48 2.53812 -2.51623 0
M  V30 12133 C 1192.14 2.14877 -3.96407 0
M  V30 12134 C 1190.81 2.03972 -4.35831 0
M  V30 12135 C 1193.16 1.84448 -4.87472 0
M  V30 12136 C 1190.49 1.60856 -5.64218 0
M  V30 12137 C 1192.84 1.42818 -6.16268 0
M  V30 12138 C 1191.5 1.3047 -6.54625 0
M  V30 12139 H 1190.77 0.501138 -0.54584 0
M  V30 12140 H 1193.42 0.690221 -1.78629 0
M  V30 12141 H 1191.72 3.27066 -2.1572 0
M  V30 12142 H 1193.42 3.12041 -2.51856 0
M  V30 12143 H 1190.01 2.2429 -3.65229 0
M  V30 12144 H 1194.19 1.91771 -4.57753 0
M  V30 12145 H 1189.45 1.49916 -5.92735 0
M  V30 12146 H 1193.62 1.18318 -6.86275 0
M  V30 12147 H 1191.25 0.968347 -7.54007 0
M  V30 12148 N 1192.83 1.32541 0.852676 0
M  V30 12149 C 1193.79 1.21578 1.94297 0
M  V30 12150 C 1194.79 0.138318 1.60204 0
M  V30 12151 O 1195.98 0.388864 1.69804 0
M  V30 12152 C 1193.11 0.870209 3.29606 0
M  V30 12153 H 1194.3 2.18476 2.05446 0
M  V30 12154 H 1191.86 1.16401 1.0431 0
M  V30 12155 H 1192.59 -0.0968698 3.24155 0
M  V30 12156 H 1192.38 1.64924 3.55728 0
M  V30 12157 H 1193.87 0.817874 4.09513 0
M  V30 12158 N 1194.3 -1.0692 1.15784 0
M  V30 12159 C 1195.53 -1.8331 0.959422 0
M  V30 12160 C 1195.95 -1.82268 -0.492332 0
M  V30 12161 O 1195.3 -1.23727 -1.34156 0
M  V30 12162 C 1195.36 -3.30202 1.47135 0
M  V30 12163 O 1195.08 -3.31328 2.86624 0
M  V30 12164 C 1196.58 -4.23346 1.31504 0
M  V30 12165 H 1193.8 -0.578202 0.340475 0
M  V30 12166 H 1196.34 -1.34939 1.53661 0
M  V30 12167 H 1194.5 -3.75908 0.936587 0
M  V30 12168 H 1194.91 -4.23135 3.0993 0
M  V30 12169 H 1196.38 -5.24465 1.72163 0
M  V30 12170 H 1196.86 -4.38431 0.259773 0
M  V30 12171 H 1197.47 -3.8348 1.83911 0
M  V30 12172 N 1195.78 -0.955326 -1.25345 0
M  V30 12173 C 1197.06 -0.527828 -1.88344 0
M  V30 12174 C 1197.44 0.994911 -1.86185 0
M  V30 12175 O 1196.79 1.86099 -1.32587 0
M  V30 12176 C 1197 -1.10525 -3.31037 0
M  V30 12177 C 1198.35 -1.18253 -4.07801 0
M  V30 12178 O 1199.37 -1.05685 -3.4016 0
M  V30 12179 O 1198.23 -1.37978 -5.28795 0
M  V30 12180 H 1195.32 -0.174206 -0.808444 0
M  V30 12181 H 1197.87 -1.0488 -1.3341 0
M  V30 12182 H 1196.64 -2.14847 -3.27042 0
M  V30 12183 H 1196.26 -0.567568 -3.93528 0
M  V30 12184 N 1197.26 1.39987 -0.723979 0
M  V30 12185 C 1198.21 2.30672 -0.0768286 0
M  V30 12186 C 1199.18 1.48634 0.741422 0
M  V30 12187 O 1200.36 1.77351 0.703649 0
M  V30 12188 C 1197.5 3.34902 0.832729 0
M  V30 12189 C 1196.62 4.32 0.00304942 0
M  V30 12190 C 1195.75 5.23298 0.91286 0
M  V30 12191 C 1194.79 6.12051 0.0777706 0
M  V30 12192 N 1193.93 6.9574 0.942912 0
M  V30 12193 H 1198.77 2.85446 -0.855832 0
M  V30 12194 H 1196.3 1.40561 -0.433718 0
M  V30 12195 H 1198.26 3.93911 1.37441 0
M  V30 12196 H 1196.89 2.81611 1.57782 0
M  V30 12197 H 1195.94 3.74702 -0.655916 0
M  V30 12198 H 1197.26 4.94637 -0.643124 0
M  V30 12199 H 1196.41 5.87279 1.52277 0
M  V30 12200 H 1195.15 4.60956 1.59284 0
M  V30 12201 H 1194.15 5.47092 -0.545022 0
M  V30 12202 H 1195.38 6.76455 -0.598827 0
M  V30 12203 H 1193.33 6.35977 1.60838 0
M  V30 12204 H 1193.24 7.55176 0.352968 0
M  V30 12205 H 1194.51 7.64162 1.53874 0
M  V30 12206 N 1198.74 0.470782 1.50404 0
M  V30 12207 C 1199.99 -0.0841494 2.01925 0
M  V30 12208 C 1200.31 -1.40244 1.35487 0
M  V30 12209 O 1199.58 -1.89409 0.500111 0
M  V30 12210 H 1198.16 -0.0340884 0.746222 0
M  V30 12211 H 1200.82 0.621133 1.84738 0
M  V30 12212 H 1199.92 -0.235877 3.11207 0
M  V30 12213 N 1200.22 -1.56282 0.203376 0
M  V30 12214 C 1201.46 -1.97812 -0.433202 0
M  V30 12215 C 1201.79 -1.09052 -1.61053 0
M  V30 12216 O 1201.05 -0.131417 -1.95258 0
M  V30 12217 C 1201.35 -3.45148 -0.927759 0
M  V30 12218 C 1201.01 -4.50692 0.137083 0
M  V30 12219 C 1199.67 -4.79278 0.429652 0
M  V30 12220 C 1202.03 -5.14086 0.858174 0
M  V30 12221 C 1199.35 -5.68547 1.44815 0
M  V30 12222 C 1201.71 -6.04457 1.86588 0
M  V30 12223 C 1200.37 -6.31395 2.16556 0
M  V30 12224 H 1199.64 -0.723846 -0.15852 0
M  V30 12225 H 1202.29 -1.89102 0.302082 0
M  V30 12226 H 1200.59 -3.5097 -1.74147 0
M  V30 12227 H 1202.29 -3.74642 -1.42984 0
M  V30 12228 H 1198.88 -4.28481 -0.101111 0
M  V30 12229 H 1203.06 -4.92086 0.645376 0
M  V30 12230 H 1198.32 -5.87689 1.68615 0
M  V30 12231 H 1202.49 -6.52636 2.4298 0
M  V30 12232 H 1200.12 -7.00366 2.9562 0
M  V30 12233 N 1201.7 0.070167 -1.57444 0
M  V30 12234 C 1203.11 0.621805 -1.76041 0
M  V30 12235 C 1203.46 1.77824 -0.829047 0
M  V30 12236 O 1202.58 2.16396 -0.0135453 0
M  V30 12237 C 1203.18 1.13476 -3.19231 0
M  V30 12238 C 1201.74 1.63225 -3.39167 0
M  V30 12239 C 1200.88 0.552369 -2.71743 0
M  V30 12240 H 1203.83 -0.156009 -1.57931 0
M  V30 12241 H 1203.86 2.00352 -3.2348 0
M  V30 12242 H 1203.37 0.29288 -3.86993 0
M  V30 12243 H 1201.47 2.49733 -2.76522 0
M  V30 12244 H 1201.58 1.70807 -4.47618 0
M  V30 12245 H 1199.95 0.997797 -2.34342 0
M  V30 12246 H 1200.73 -0.279354 -3.42162 0
M  V30 12247 N 1203.17 1.53854 0.341593 0
M  V30 12248 C 1204.12 1.81979 1.41959 0
M  V30 12249 C 1205.09 0.665616 1.5218 0
M  V30 12250 O 1206.28 0.910246 1.67688 0
M  V30 12251 C 1203.42 2.03681 2.78583 0
M  V30 12252 C 1202.53 3.31389 2.77137 0
M  V30 12253 C 1201.66 3.43148 4.05491 0
M  V30 12254 C 1200.7 4.64799 3.98282 0
M  V30 12255 N 1199.84 4.73581 5.18329 0
M  V30 12256 H 1204.68 2.73953 1.17275 0
M  V30 12257 H 1202.22 1.35689 0.568062 0
M  V30 12258 H 1204.17 2.14253 3.57983 0
M  V30 12259 H 1202.8 1.15017 3.01614 0
M  V30 12260 H 1201.86 3.29649 1.89832 0
M  V30 12261 H 1203.17 4.20885 2.67689 0
M  V30 12262 H 1202.32 3.53163 4.93316 0
M  V30 12263 H 1201.06 2.51712 4.17723 0
M  V30 12264 H 1200.07 4.54859 3.08842 0
M  V30 12265 H 1201.29 5.57601 3.87631 0
M  V30 12266 H 1199.24 3.85055 5.31102 0
M  V30 12267 H 1199.15 5.57016 5.11145 0
M  V30 12268 H 1200.42 4.87908 6.0792 0
M  V30 12269 N 1204.65 -0.602709 1.4562 0
M  V30 12270 C 1205.88 -1.3881 1.53426 0
M  V30 12271 C 1206.29 -1.88046 0.16851 0
M  V30 12272 O 1205.65 -1.62493 -0.830791 0
M  V30 12273 C 1205.7 -2.58927 2.52268 0
M  V30 12274 O 1205.42 -2.11735 3.83536 0
M  V30 12275 C 1206.92 -3.51728 2.69819 0
M  V30 12276 H 1204.14 -0.424744 0.519455 0
M  V30 12277 H 1206.69 -0.73459 1.90851 0
M  V30 12278 H 1204.84 -3.20309 2.17902 0
M  V30 12279 H 1205.26 -2.89814 4.37159 0
M  V30 12280 H 1206.73 -4.32542 3.42945 0
M  V30 12281 H 1207.21 -4.02383 1.76024 0
M  V30 12282 H 1207.81 -2.96196 3.05202 0
M  V30 12283 N 1206.13 -1.32992 -0.845635 0
M  V30 12284 C 1207.38 -1.23415 -1.59536 0
M  V30 12285 C 1207.69 0.200278 -1.94572 0
M  V30 12286 O 1208.9 0.417993 -2.68263 0
M  V30 12287 C 1207.35 -2.16207 -2.8772 0
M  V30 12288 C 1206.96 -3.64782 -2.60073 0
M  V30 12289 C 1208.71 -2.15488 -3.65739 0
M  V30 12290 C 1206.61 -4.49508 -3.84313 0
M  V30 12291 H 1205.54 -0.458366 -0.598679 0
M  V30 12292 H 1208.19 -1.58012 -0.932981 0
M  V30 12293 H 1206.58 -1.74535 -3.55462 0
M  V30 12294 H 1207.75 -4.14852 -2.00585 0
M  V30 12295 H 1206.06 -3.67723 -1.95369 0
M  V30 12296 H 1208.66 -2.76021 -4.57948 0
M  V30 12297 H 1209 -1.14818 -4.00153 0
M  V30 12298 H 1209.54 -2.55487 -3.04912 0
M  V30 12299 H 1206.28 -5.51027 -3.55035 0
M  V30 12300 H 1205.8 -4.04185 -4.43165 0
M  V30 12301 H 1207.48 -4.62969 -4.51961 0
M  V30 12302 N 1207.61 1.06304 -1.1635 0
M  V30 12303 C 1208.85 1.79101 -0.94494 0
M  V30 12304 C 1209.18 1.87217 0.527251 0
M  V30 12305 O 1208.44 1.35992 1.40729 0
M  V30 12306 C 1208.74 3.23589 -1.51741 0
M  V30 12307 C 1208.4 3.35552 -3.0119 0
M  V30 12308 C 1207.06 3.38525 -3.41986 0
M  V30 12309 C 1209.42 3.37482 -3.97184 0
M  V30 12310 C 1206.74 3.41042 -4.77396 0
M  V30 12311 C 1209.1 3.41537 -5.3248 0
M  V30 12312 C 1207.76 3.42792 -5.72757 0
M  V30 12313 H 1207.03 0.655377 -0.345778 0
M  V30 12314 H 1209.68 1.25017 -1.45062 0
M  V30 12315 H 1207.98 3.80525 -0.933164 0
M  V30 12316 H 1209.68 3.78512 -1.32399 0
M  V30 12317 H 1206.27 3.33944 -2.68662 0
M  V30 12318 H 1210.45 3.34397 -3.66732 0
M  V30 12319 H 1205.71 3.40317 -5.07931 0
M  V30 12320 H 1209.88 3.41977 -6.0665 0
M  V30 12321 H 1207.51 3.44495 -6.77663 0
M  V30 12322 N 1209.09 0.96196 1.24836 0
M  V30 12323 C 1210.03 0.48686 2.25607 0
M  V30 12324 C 1211 -0.464546 1.59472 0
M  V30 12325 O 1212.19 -0.376179 1.87055 0
M  V30 12326 C 1209.33 -0.222294 3.44383 0
M  V30 12327 C 1208.44 0.767206 4.25133 0
M  V30 12328 C 1207.58 0.0347458 5.31189 0
M  V30 12329 C 1206.61 1.01469 6.03631 0
M  V30 12330 N 1205.75 0.312619 7.01404 0
M  V30 12331 H 1210.59 1.35104 2.65614 0
M  V30 12332 H 1208.13 0.677373 1.30576 0
M  V30 12333 H 1210.09 -0.650087 4.12104 0
M  V30 12334 H 1208.72 -1.05047 3.0523 0
M  V30 12335 H 1207.77 1.31346 3.57005 0
M  V30 12336 H 1209.08 1.5147 4.75245 0
M  V30 12337 H 1208.23 -0.451325 6.05019 0
M  V30 12338 H 1206.97 -0.745485 4.81969 0
M  V30 12339 H 1205.98 1.51169 5.28609 0
M  V30 12340 H 1207.2 1.79527 6.5494 0
M  V30 12341 H 1205.15 -0.44874 6.54463 0
M  V30 12342 H 1205.07 0.999079 7.49369 0
M  V30 12343 H 1206.33 -0.151673 7.79352 0
M  V30 12344 N 1210.56 -1.39601 0.731392 0
M  V30 12345 C 1211.51 -2.32469 0.0781328 0
M  V30 12346 C 1212.51 -1.52873 -0.729811 0
M  V30 12347 O 1213.71 -1.68563 -0.631402 0
M  V30 12348 H 1210.09 -0.751972 0.00646515 0
M  V30 12349 H 1212.06 -2.85196 0.877833 0
M  V30 12350 C 1210.81 -3.37948 -0.817717 0
M  V30 12351 H 1210.13 -3.99272 -0.205417 0
M  V30 12352 H 1211.57 -4.05387 -1.24248 0
M  V30 12353 C 1210.03 -2.74703 -1.95038 0
M  V30 12354 O 1210.56 -2.62266 -3.04269 0
M  V30 12355 N 1208.76 -2.32845 -1.73872 0
M  V30 12356 H 1208.31 -2.43161 -0.850321 0
M  V30 12357 H 1208.27 -1.90869 -2.49833 0
M  V30 12358 N 1212.04 -0.478751 -1.50152 0
M  V30 12359 C 1213.01 0.300181 -2.27226 0
M  V30 12360 C 1214.01 0.913705 -1.32318 0
M  V30 12361 O 1215.2 0.781692 -1.55677 0
M  V30 12362 C 1212.33 1.42838 -3.09532 0
M  V30 12363 H 1213.52 -0.375845 -2.97536 0
M  V30 12364 H 1211.07 -0.233037 -1.54553 0
M  V30 12365 H 1211.81 2.13923 -2.43737 0
M  V30 12366 H 1211.59 0.994161 -3.79287 0
M  V30 12367 H 1213.08 1.97765 -3.67802 0
M  V30 12368 N 1213.52 1.56172 -0.211661 0
M  V30 12369 C 1214.75 2.02428 0.427843 0
M  V30 12370 C 1215.16 1.09162 1.54043 0
M  V30 12371 O 1214.52 0.0994249 1.82229 0
M  V30 12372 C 1214.57 3.48279 0.968728 0
M  V30 12373 O 1214.29 4.37987 -0.0994841 0
M  V30 12374 C 1215.79 4.10132 1.68246 0
M  V30 12375 H 1213.01 0.662611 0.10577 0
M  V30 12376 H 1215.56 2.01897 -0.32522 0
M  V30 12377 H 1213.71 3.49456 1.6721 0
M  V30 12378 H 1214.13 5.23609 0.305558 0
M  V30 12379 H 1215.6 5.13985 2.01304 0
M  V30 12380 H 1216.08 3.54552 2.5921 0
M  V30 12381 H 1216.68 4.12775 1.02453 0
M  V30 12382 N 1215 -0.0618163 1.57479 0
M  V30 12383 C 1216.25 -0.759069 1.87735 0
M  V30 12384 C 1216.57 -1.77071 0.804732 0
M  V30 12385 O 1215.83 -1.94694 -0.198173 0
M  V30 12386 C 1216.13 -1.4939 3.2468 0
M  V30 12387 C 1215.79 -0.621312 4.46599 0
M  V30 12388 C 1214.46 -0.380873 4.7969 0
M  V30 12389 C 1216.81 -0.0168537 5.21197 0
M  V30 12390 C 1214.14 0.473341 5.84787 0
M  V30 12391 C 1216.49 0.824872 6.27199 0
M  V30 12392 C 1215.15 1.07509 6.58785 0
M  V30 12393 H 1214.42 -0.277763 0.686971 0
M  V30 12394 H 1217.07 -0.0195971 1.9149 0
M  V30 12395 H 1215.37 -2.30584 3.16762 0
M  V30 12396 H 1217.07 -2.03837 3.45328 0
M  V30 12397 H 1213.66 -0.818848 4.20705 0
M  V30 12398 H 1217.84 -0.189707 4.95937 0
M  V30 12399 H 1213.1 0.675842 6.07653 0
M  V30 12400 H 1217.27 1.29993 6.8416 0
M  V30 12401 H 1214.9 1.73876 7.40048 0
M  V30 12402 N 1216.48 -1.54033 -0.333429 0
M  V30 12403 C 1217.41 -1.79056 -1.43079 0
M  V30 12404 C 1218.42 -0.672176 -1.48276 0
M  V30 12405 O 1219.61 -0.949103 -1.51176 0
M  V30 12406 C 1216.71 -1.88443 -2.81678 0
M  V30 12407 C 1215.88 -3.18493 -2.99802 0
M  V30 12408 C 1214.94 -3.18708 -4.18702 0
M  V30 12409 O 1213.97 -3.92389 -4.12334 0
M  V30 12410 N 1215.17 -2.41792 -5.27747 0
M  V30 12411 H 1217.94 -2.73753 -1.21981 0
M  V30 12412 H 1215.5 -1.53207 -0.523365 0
M  V30 12413 H 1217.49 -1.86027 -3.59411 0
M  V30 12414 H 1216.06 -1.00887 -2.95872 0
M  V30 12415 H 1215.28 -3.33951 -2.09453 0
M  V30 12416 H 1216.57 -4.04376 -3.088 0
M  V30 12417 H 1215.96 -1.81501 -5.35793 0
M  V30 12418 H 1214.52 -2.45163 -6.03936 0
M  V30 12419 N 1217.95 0.594978 -1.45938 0
M  V30 12420 C 1218.88 1.71536 -1.58422 0
M  V30 12421 C 1219.87 1.64441 -0.435116 0
M  V30 12422 O 1221.05 1.82647 -0.659839 0
M  V30 12423 C 1218.18 3.10163 -1.56257 0
M  V30 12424 C 1217.13 3.3208 -2.70013 0
M  V30 12425 C 1216.46 4.71108 -2.52905 0
M  V30 12426 C 1217.76 3.21105 -4.11933 0
M  V30 12427 H 1219.45 1.61344 -2.52207 0
M  V30 12428 H 1217 0.774791 -1.2138 0
M  V30 12429 H 1218.95 3.88352 -1.63587 0
M  V30 12430 H 1217.68 3.21225 -0.590093 0
M  V30 12431 H 1216.34 2.56286 -2.62132 0
M  V30 12432 H 1215.98 4.7892 -1.53768 0
M  V30 12433 H 1215.68 4.86727 -3.29197 0
M  V30 12434 H 1217.21 5.51482 -2.62107 0
M  V30 12435 H 1218.62 3.89153 -4.2099 0
M  V30 12436 H 1217.02 3.4825 -4.88715 0
M  V30 12437 H 1218.09 2.18359 -4.32952 0
M  V30 12438 N 1219.43 1.33438 0.838571 0
M  V30 12439 C 1220.36 1.19552 1.9555 0
M  V30 12440 C 1221.38 0.12642 1.62308 0
M  V30 12441 O 1222.57 0.376868 1.74476 0
M  V30 12442 C 1219.67 0.811273 3.29046 0
M  V30 12443 C 1218.84 1.97207 3.9042 0
M  V30 12444 C 1217.9 1.56875 5.02271 0
M  V30 12445 O 1216.92 2.28314 5.21403 0
M  V30 12446 N 1218.13 0.473924 5.78562 0
M  V30 12447 H 1220.89 2.15769 2.07999 0
M  V30 12448 H 1218.45 1.26187 1.01432 0
M  V30 12449 H 1220.44 0.523553 4.01299 0
M  V30 12450 H 1219.01 -0.0602291 3.12542 0
M  V30 12451 H 1218.23 2.4254 3.10754 0
M  V30 12452 H 1219.52 2.74878 4.28158 0
M  V30 12453 H 1218.92 -0.120306 5.65572 0
M  V30 12454 H 1217.48 0.245877 6.51336 0
M  V30 12455 N 1220.91 -1.05686 1.16912 0
M  V30 12456 C 1221.84 -2.12775 0.824755 0
M  V30 12457 C 1222.82 -1.61286 -0.206289 0
M  V30 12458 O 1224.01 -1.8829 -0.0889616 0
M  V30 12459 C 1221.13 -3.37922 0.229422 0
M  V30 12460 C 1220.18 -4.08226 1.23506 0
M  V30 12461 S 1221.01 -4.57424 2.78431 0
M  V30 12462 C 1222.17 -5.85825 2.20364 0
M  V30 12463 H 1222.4 -2.41657 1.73174 0
M  V30 12464 H 1219.93 -1.18212 0.99324 0
M  V30 12465 H 1221.89 -4.10359 -0.107588 0
M  V30 12466 H 1220.55 -3.07186 -0.655424 0
M  V30 12467 H 1219.75 -4.98129 0.767059 0
M  V30 12468 H 1219.35 -3.41832 1.51747 0
M  V30 12469 H 1221.64 -6.58912 1.57611 0
M  V30 12470 H 1222.58 -6.37364 3.08501 0
M  V30 12471 H 1222.99 -5.4015 1.64008 0
M  V30 12472 N 1222.39 -0.968567 -1.24324 0
M  V30 12473 C 1223.67 -0.547774 -1.87773 0
M  V30 12474 C 1224.05 0.975107 -1.87229 0
M  V30 12475 O 1223.39 1.84683 -1.34553 0
M  V30 12476 C 1223.6 -1.1403 -3.29846 0
M  V30 12477 C 1224.95 -1.22572 -4.06523 0
M  V30 12478 O 1225.98 -1.09287 -3.3902 0
M  V30 12479 O 1224.83 -1.43579 -5.27302 0
M  V30 12480 H 1221.93 -0.182771 -0.806551 0
M  V30 12481 H 1224.47 -1.06289 -1.3229 0
M  V30 12482 H 1223.25 -2.18303 -3.24745 0
M  V30 12483 H 1222.87 -0.609275 -3.92904 0
M  V30 12484 N 1223.87 1.39211 -0.738786 0
M  V30 12485 C 1224.81 2.32424 -0.0904601 0
M  V30 12486 C 1225.81 1.53258 0.721694 0
M  V30 12487 O 1227.01 1.68895 0.622454 0
M  V30 12488 H 1223.39 0.751927 -0.010453 0
M  V30 12489 H 1225.36 2.84726 -0.892945 0
M  V30 12490 C 1224.11 3.38377 0.799783 0
M  V30 12491 H 1223.43 3.99375 0.18424 0
M  V30 12492 H 1224.87 4.0604 1.22096 0
M  V30 12493 C 1223.33 2.75734 1.93578 0
M  V30 12494 O 1223.86 2.63876 3.02874 0
M  V30 12495 N 1222.07 2.33764 1.72634 0
M  V30 12496 H 1221.61 2.43609 0.837413 0
M  V30 12497 H 1221.57 1.92191 2.48817 0
M  V30 12498 N 1225.34 0.486708 1.49896 0
M  V30 12499 C 1226.62 -0.125183 1.95199 0
M  V30 12500 C 1227 -1.55498 1.42771 0
M  V30 12501 O 1226.35 -2.1949 0.635322 0
M  V30 12502 C 1226.56 -0.0524982 3.48961 0
M  V30 12503 C 1227.91 -0.233595 4.23957 0
M  V30 12504 O 1228.93 -0.128357 3.55969 0
M  V30 12505 O 1227.79 -0.447862 5.44662 0
M  V30 12506 H 1224.88 -0.103141 0.820543 0
M  V30 12507 H 1227.43 0.548226 1.60601 0
M  V30 12508 H 1226.2 0.945163 3.79714 0
M  V30 12509 H 1225.83 -0.766683 3.90138 0
M  V30 12510 N 1226.82 -1.56058 0.219941 0
M  V30 12511 C 1228.07 -1.98554 -0.412808 0
M  V30 12512 C 1228.4 -1.10742 -1.5953 0
M  V30 12513 O 1227.68 -0.164757 -1.93801 0
M  V30 12514 C 1227.96 -3.4995 -0.848923 0
M  V30 12515 C 1227.81 -4.48535 0.337094 0
M  V30 12516 C 1229.13 -4.05703 -1.70567 0
M  V30 12517 H 1226.25 -0.721869 -0.148576 0
M  V30 12518 H 1228.89 -1.87356 0.315852 0
M  V30 12519 H 1227.04 -3.59624 -1.46979 0
M  V30 12520 H 1228.72 -4.50874 0.975216 0
M  V30 12521 H 1226.96 -4.22474 0.984798 0
M  V30 12522 H 1227.63 -5.51999 -0.0109665 0
M  V30 12523 H 1230.11 -3.98964 -1.18182 0
M  V30 12524 H 1228.98 -5.11955 -1.97972 0
M  V30 12525 H 1229.24 -3.52487 -2.66844 0
M  V30 12526 N 1228.3 0.053464 -1.57509 0
M  V30 12527 C 1229.26 1.04604 -2.03938 0
M  V30 12528 C 1230.26 1.30509 -0.939357 0
M  V30 12529 O 1231.45 1.25922 -1.20371 0
M  V30 12530 C 1228.59 2.38516 -2.43563 0
M  V30 12531 H 1229.78 0.645484 -2.92871 0
M  V30 12532 H 1227.33 0.299683 -1.534 0
M  V30 12533 H 1228.07 2.83368 -1.57712 0
M  V30 12534 H 1227.85 2.2105 -3.23851 0
M  V30 12535 H 1229.34 3.09826 -2.79996 0
M  V30 12536 N 1229.78 1.54207 0.325255 0
M  V30 12537 C 1230.73 1.84197 1.42036 0
M  V30 12538 C 1231.72 0.71375 1.53629 0
M  V30 12539 O 1232.93 0.897385 1.56035 0
M  V30 12540 H 1229.3 0.583848 0.473947 0
M  V30 12541 H 1231.27 2.7578 1.13965 0
M  V30 12542 C 1230.02 2.08459 2.78281 0
M  V30 12543 H 1229.35 2.94734 2.70133 0
M  V30 12544 H 1230.79 2.33398 3.5398 0
M  V30 12545 C 1229.24 0.875615 3.25322 0
M  V30 12546 O 1229.77 0.0840387 4.01612 0
M  V30 12547 N 1227.98 0.687721 2.82345 0
M  V30 12548 H 1227.53 1.33307 2.20425 0
M  V30 12549 H 1227.49 -0.119687 3.14172 0
M  V30 12550 N 1231.26 -0.58723 1.46251 0
M  V30 12551 C 1232.21 -1.71771 1.56836 0
M  V30 12552 C 1233.2 -1.63664 0.437096 0
M  V30 12553 O 1234.41 -1.69212 0.613797 0
M  V30 12554 H 1230.78 -0.567841 0.493012 0
M  V30 12555 H 1232.75 -1.59974 2.51895 0
M  V30 12556 C 1231.5 -3.10159 1.57152 0
M  V30 12557 H 1230.82 -3.17066 2.43535 0
M  V30 12558 H 1232.26 -3.89032 1.68613 0
M  V30 12559 C 1230.72 -3.35567 0.299374 0
M  V30 12560 O 1231.25 -3.97006 -0.612291 0
M  V30 12561 N 1229.46 -2.89987 0.188695 0
M  V30 12562 H 1229.01 -2.4017 0.93147 0
M  V30 12563 H 1228.96 -3.0736 -0.661612 0
M  V30 12564 N 1232.74 -1.33881 -0.831482 0
M  V30 12565 C 1233.96 -1.28812 -1.61911 0
M  V30 12566 C 1234.38 0.139519 -1.88284 0
M  V30 12567 O 1233.74 1.08397 -1.46821 0
M  V30 12568 C 1233.79 -2.06806 -2.96502 0
M  V30 12569 O 1233.51 -3.44 -2.71285 0
M  V30 12570 C 1235.01 -2.09033 -3.90922 0
M  V30 12571 H 1232.23 -0.443473 -0.50356 0
M  V30 12572 H 1234.77 -1.76365 -1.03516 0
M  V30 12573 H 1232.93 -1.62915 -3.51479 0
M  V30 12574 H 1233.34 -3.84213 -3.57044 0
M  V30 12575 H 1234.82 -2.68044 -4.82552 0
M  V30 12576 H 1235.29 -1.08249 -4.25651 0
M  V30 12577 H 1235.9 -2.52975 -3.41883 0
M  V30 12578 N 1234.21 1.05064 -1.1747 0
M  V30 12579 C 1235.15 2.12842 -0.850344 0
M  V30 12580 C 1236.16 1.62128 0.147796 0
M  V30 12581 O 1237.35 1.78327 -0.0786774 0
M  V30 12582 C 1234.45 3.37995 -0.247486 0
M  V30 12583 C 1233.62 4.17981 -1.28881 0
M  V30 12584 C 1232.68 5.21476 -0.703476 0
M  V30 12585 O 1231.71 5.52327 -1.37561 0
M  V30 12586 N 1232.91 5.78309 0.50387 0
M  V30 12587 H 1235.67 2.41264 -1.77797 0
M  V30 12588 H 1233.23 1.21172 -1.07373 0
M  V30 12589 H 1235.23 4.04394 0.157424 0
M  V30 12590 H 1233.8 3.07097 0.583952 0
M  V30 12591 H 1233.02 3.47054 -1.86942 0
M  V30 12592 H 1234.3 4.6822 -1.99116 0
M  V30 12593 H 1233.7 5.5553 1.06787 0
M  V30 12594 H 1232.26 6.46223 0.850828 0
M  V30 12595 N 1235.69 0.975146 1.23809 0
M  V30 12596 C 1236.92 0.658023 1.95841 0
M  V30 12597 C 1237.33 -0.778132 1.72458 0
M  V30 12598 O 1236.67 -1.53462 1.00971 0
M  V30 12599 C 1236.73 0.862038 3.49012 0
M  V30 12600 C 1236.4 2.27925 3.96105 0
M  V30 12601 C 1237.4 3.25755 4.05191 0
M  V30 12602 C 1235.08 2.60894 4.29231 0
M  V30 12603 C 1237.07 4.54636 4.46749 0
M  V30 12604 C 1234.76 3.89999 4.70472 0
M  V30 12605 C 1235.76 4.86682 4.79197 0
M  V30 12606 O 1235.45 6.13483 5.19513 0
M  V30 12607 H 1235.18 0.243915 0.630461 0
M  V30 12608 H 1237.73 1.30768 1.58395 0
M  V30 12609 H 1235.96 0.155209 3.86388 0
M  V30 12610 H 1237.65 0.542873 4.02253 0
M  V30 12611 H 1238.42 3.01614 3.79808 0
M  V30 12612 H 1234.3 1.86355 4.21655 0
M  V30 12613 H 1237.84 5.30101 4.53474 0
M  V30 12614 H 1233.74 4.13937 4.95304 0
M  V30 12615 H 1234.51 6.17158 5.37641 0
M  V30 12616 N 1237.17 -1.38817 0.746158 0
M  V30 12617 C 1238.08 -2.34316 0.115386 0
M  V30 12618 C 1239.1 -1.58892 -0.709179 0
M  V30 12619 O 1240.27 -1.91126 -0.635059 0
M  V30 12620 C 1237.34 -3.37977 -0.772821 0
M  V30 12621 C 1236.4 -4.2925 0.0652679 0
M  V30 12622 C 1235.63 -5.2796 -0.78064 0
M  V30 12623 O 1235.85 -5.33474 -2.01896 0
M  V30 12624 O 1234.79 -6.01556 -0.20338 0
M  V30 12625 H 1238.61 -2.89937 0.903887 0
M  V30 12626 H 1236.2 -1.40536 0.506958 0
M  V30 12627 H 1238.08 -4.01468 -1.28068 0
M  V30 12628 H 1236.76 -2.84723 -1.53994 0
M  V30 12629 H 1235.66 -3.68945 0.61891 0
M  V30 12630 H 1237 -4.85739 0.794871 0
M  V30 12631 N 1238.65 -0.49465 -1.49636 0
M  V30 12632 C 1239.89 0.0442152 -2.03352 0
M  V30 12633 C 1240.25 1.35275 -1.36815 0
M  V30 12634 O 1239.54 1.85158 -0.492671 0
M  V30 12635 C 1239.74 0.259743 -3.56455 0
M  V30 12636 C 1239.56 -1.02635 -4.37831 0
M  V30 12637 C 1238.33 -1.57636 -4.80082 0
M  V30 12638 C 1240.53 -1.92797 -4.76795 0
M  V30 12639 N 1238.51 -2.80902 -5.45864 0
M  V30 12640 C 1239.89 -3.00644 -5.4223 0
M  V30 12641 C 1241.94 -1.93552 -4.5874 0
M  V30 12642 C 1240.64 -4.09265 -5.91519 0
M  V30 12643 C 1242.67 -3.01144 -5.08986 0
M  V30 12644 C 1242.03 -4.07709 -5.74415 0
M  V30 12645 H 1238.13 -0.0244415 -0.781618 0
M  V30 12646 H 1240.71 -0.668098 -1.82878 0
M  V30 12647 H 1238.89 0.941108 -3.76826 0
M  V30 12648 H 1240.62 0.795048 -3.96814 0
M  V30 12649 H 1237.37 -1.12236 -4.60109 0
M  V30 12650 H 1237.8 -3.43565 -5.83345 0
M  V30 12651 H 1242.44 -1.12473 -4.07566 0
M  V30 12652 H 1240.16 -4.91146 -6.41717 0
M  V30 12653 H 1243.74 -3.02739 -4.9683 0
M  V30 12654 H 1242.62 -4.89591 -6.12593 0
M  V30 12655 N 1240.13 1.55939 -0.228214 0
M  V30 12656 C 1241.35 2.0332 0.409364 0
M  V30 12657 C 1241.78 1.10683 1.52088 0
M  V30 12658 O 1241.13 0.0962484 1.81044 0
M  V30 12659 C 1241.18 3.48877 0.911981 0
M  V30 12660 O 1240.29 3.59378 2.02289 0
M  V30 12661 H 1239.63 0.657625 0.0917909 0
M  V30 12662 H 1242.16 2.01605 -0.348802 0
M  V30 12663 H 1242.17 3.89331 1.22007 0
M  V30 12664 H 1240.84 4.15783 0.0984902 0
M  V30 12665 H 1239.42 3.30815 1.72093 0
M  V30 12666 N 1241.6 -0.0451101 1.57535 0
M  V30 12667 C 1242.83 -0.755068 1.93167 0
M  V30 12668 C 1243.25 -1.68949 0.826915 0
M  V30 12669 O 1242.61 -1.79978 -0.218534 0
M  V30 12670 C 1242.66 -1.50201 3.27829 0
M  V30 12671 O 1241.76 -2.61434 3.18945 0
M  V30 12672 H 1241.11 -0.204219 0.631815 0
M  V30 12673 H 1243.64 -0.00537504 2.04599 0
M  V30 12674 H 1243.65 -1.87547 3.6234 0
M  V30 12675 H 1242.32 -0.816591 4.07805 0
M  V30 12676 H 1240.9 -2.26749 2.96039 0
M  V30 12677 N 1243.08 -1.54377 -0.317073 0
M  V30 12678 C 1244.31 -1.77184 -1.07798 0
M  V30 12679 C 1244.73 -0.52204 -1.80711 0
M  V30 12680 O 1244.09 0.52672 -1.7348 0
M  V30 12681 C 1244.14 -2.96887 -2.04671 0
M  V30 12682 O 1243.24 -2.68887 -3.12688 0
M  V30 12683 H 1242.58 -0.586937 -0.310485 0
M  V30 12684 H 1245.11 -2.01419 -0.35939 0
M  V30 12685 H 1245.12 -3.24414 -2.47426 0
M  V30 12686 H 1243.8 -3.87518 -1.51005 0
M  V30 12687 H 1242.38 -2.52329 -2.74562 0
M  V30 12688 N 1244.56 0.579466 -1.4656 0
M  V30 12689 C 1245.81 1.33756 -1.52038 0
M  V30 12690 C 1246.14 1.93725 -0.173423 0
M  V30 12691 O 1245.39 1.77167 0.831293 0
M  V30 12692 C 1245.69 2.48417 -2.56951 0
M  V30 12693 C 1245.36 2.0642 -4.00876 0
M  V30 12694 C 1244.02 1.94682 -4.4006 0
M  V30 12695 C 1246.37 1.74066 -4.91274 0
M  V30 12696 C 1243.7 1.48852 -5.67503 0
M  V30 12697 C 1246.05 1.29714 -6.19158 0
M  V30 12698 C 1244.71 1.16555 -6.57245 0
M  V30 12699 H 1243.98 0.489447 -0.556347 0
M  V30 12700 H 1246.63 0.652176 -1.80053 0
M  V30 12701 H 1244.94 3.22416 -2.2261 0
M  V30 12702 H 1246.63 3.06629 -2.58418 0
M  V30 12703 H 1243.22 2.16492 -3.69904 0
M  V30 12704 H 1247.41 1.82019 -4.61717 0
M  V30 12705 H 1242.66 1.3731 -5.95782 0
M  V30 12706 H 1246.84 1.03734 -6.88631 0
M  V30 12707 H 1244.46 0.808193 -7.55892 0
M  V30 12708 N 1246.04 1.3432 0.824371 0
M  V30 12709 C 1247.27 1.29669 1.61226 0
M  V30 12710 C 1247.68 -0.129532 1.88355 0
M  V30 12711 O 1247.04 -1.07616 1.47394 0
M  V30 12712 C 1247.09 2.08375 2.95402 0
M  V30 12713 O 1246.81 3.45434 2.69456 0
M  V30 12714 C 1248.31 2.11103 3.89808 0
M  V30 12715 H 1245.53 0.446137 0.501201 0
M  V30 12716 H 1248.08 1.76912 1.02579 0
M  V30 12717 H 1246.23 1.64777 3.5061 0
M  V30 12718 H 1246.64 3.86101 3.55001 0
M  V30 12719 H 1248.12 2.706 4.81124 0
M  V30 12720 H 1248.6 1.10505 4.25071 0
M  V30 12721 H 1249.2 2.54784 3.40537 0
M  V30 12722 N 1247.52 -1.0444 1.18026 0
M  V30 12723 C 1248.93 -1.5903 0.978076 0
M  V30 12724 C 1249.28 -1.90407 -0.473241 0
M  V30 12725 O 1248.4 -1.69133 -1.34992 0
M  V30 12726 C 1249 -2.88942 1.76912 0
M  V30 12727 C 1247.56 -3.40164 1.61139 0
M  V30 12728 C 1246.7 -2.13797 1.76596 0
M  V30 12729 H 1249.66 -0.871574 1.32625 0
M  V30 12730 H 1249.68 -3.59173 1.25598 0
M  V30 12731 H 1249.19 -2.66074 2.82535 0
M  V30 12732 H 1247.29 -3.68053 0.580353 0
M  V30 12733 H 1247.4 -4.14241 2.40709 0
M  V30 12734 H 1245.77 -2.24922 1.19507 0
M  V30 12735 H 1246.55 -1.93389 2.83647 0
M  V30 12736 N 1248.99 -0.981699 -1.2329 0
M  V30 12737 C 1249.94 -0.515432 -2.26817 0
M  V30 12738 C 1250.94 0.428204 -1.63899 0
M  V30 12739 O 1252.14 0.301954 -1.77449 0
M  V30 12740 H 1248.52 -0.148257 -0.737241 0
M  V30 12741 H 1250.49 -1.40027 -2.63505 0
M  V30 12742 C 1249.24 0.165266 -3.47307 0
M  V30 12743 H 1248.56 -0.55176 -3.95974 0
M  V30 12744 H 1250 0.45513 -4.2155 0
M  V30 12745 C 1248.46 1.39693 -3.06574 0
M  V30 12746 O 1248.99 2.49308 -3.14974 0
M  V30 12747 N 1247.2 1.26806 -2.61474 0
M  V30 12748 H 1246.74 0.376161 -2.54839 0
M  V30 12749 H 1246.7 2.09324 -2.34587 0
M  V30 12750 N 1250.47 1.3842 -0.753509 0
M  V30 12751 C 1251.72 2.00415 -0.310091 0
M  V30 12752 C 1252.05 1.59675 1.10532 0
M  V30 12753 O 1251.33 0.834261 1.757 0
M  V30 12754 C 1251.61 3.57488 -0.432897 0
M  V30 12755 C 1251.46 4.08193 -1.88941 0
M  V30 12756 C 1252.78 4.39757 0.173763 0
M  V30 12757 H 1249.9 0.728107 -0.114147 0
M  V30 12758 H 1252.54 1.64363 -0.953138 0
M  V30 12759 H 1250.69 3.88331 0.114563 0
M  V30 12760 H 1252.36 3.87993 -2.49517 0
M  V30 12761 H 1250.61 3.61063 -2.4045 0
M  V30 12762 H 1251.28 5.17291 -1.9265 0
M  V30 12763 H 1253.75 4.15066 -0.293137 0
M  V30 12764 H 1252.63 5.4887 0.057594 0
M  V30 12765 H 1252.89 4.23704 1.26205 0
M  V30 12766 N 1251.95 0.502579 1.49372 0
M  V30 12767 C 1253.18 -0.0403087 2.07361 0
M  V30 12768 C 1253.6 -1.29918 1.36026 0
M  V30 12769 O 1252.96 -1.76428 0.417488 0
M  V30 12770 C 1253.01 -0.275362 3.59547 0
M  V30 12771 O 1252.11 -1.34975 3.89686 0
M  V30 12772 H 1251.45 0.0269268 0.663454 0
M  V30 12773 H 1253.98 0.702652 1.92156 0
M  V30 12774 H 1253.99 -0.506392 4.04845 0
M  V30 12775 H 1252.67 0.644382 4.10878 0
M  V30 12776 H 1251.24 -1.10355 3.56197 0
M  V30 12777 N 1253.43 -1.55816 0.23648 0
M  V30 12778 C 1254.67 -1.98981 -0.391725 0
M  V30 12779 C 1255.01 -1.12428 -1.58346 0
M  V30 12780 O 1254.28 -0.185303 -1.93615 0
M  V30 12781 C 1254.57 -3.50831 -0.811759 0
M  V30 12782 C 1254.42 -4.48152 0.384648 0
M  V30 12783 C 1255.74 -4.07489 -1.66254 0
M  V30 12784 H 1252.86 -0.723404 -0.140911 0
M  V30 12785 H 1255.5 -1.87011 0.335706 0
M  V30 12786 H 1253.65 -3.61162 -1.43157 0
M  V30 12787 H 1255.32 -4.49814 1.02298 0
M  V30 12788 H 1253.56 -4.21406 1.02955 0
M  V30 12789 H 1254.23 -5.51979 0.0475809 0
M  V30 12790 H 1256.71 -4.00195 -1.13944 0
M  V30 12791 H 1255.59 -5.14026 -1.92531 0
M  V30 12792 H 1255.85 -3.55297 -2.6309 0
M  V30 12793 N 1254.91 0.036755 -1.57557 0
M  V30 12794 C 1255.85 1.05823 -2.07133 0
M  V30 12795 C 1256.85 1.37923 -0.983546 0
M  V30 12796 O 1258.05 1.36918 -1.16848 0
M  V30 12797 H 1254.43 0.358761 -0.660905 0
M  V30 12798 H 1256.4 0.614232 -2.9201 0
M  V30 12799 C 1255.15 2.35302 -2.55985 0
M  V30 12800 H 1254.47 2.11461 -3.393 0
M  V30 12801 H 1255.91 3.05139 -2.94391 0
M  V30 12802 C 1254.37 3.0373 -1.45773 0
M  V30 12803 O 1254.9 3.9325 -0.819587 0
M  V30 12804 N 1253.11 2.64931 -1.19416 0
M  V30 12805 H 1252.65 1.92219 -1.71492 0
M  V30 12806 H 1252.61 3.11033 -0.458865 0
M  V30 12807 N 1256.39 1.54543 0.308881 0
M  V30 12808 C 1257.66 1.64118 1.06418 0
M  V30 12809 C 1258.04 0.484402 2.05467 0
M  V30 12810 O 1257.39 -0.519752 2.2251 0
M  V30 12811 C 1257.6 3.01776 1.75306 0
M  V30 12812 C 1258.95 3.58324 2.27792 0
M  V30 12813 O 1259.97 3.04177 1.85351 0
M  V30 12814 O 1258.83 4.53113 3.05533 0
M  V30 12815 H 1255.93 0.665172 0.491401 0
M  V30 12816 H 1258.47 1.66889 0.307598 0
M  V30 12817 H 1257.24 3.77407 1.03341 0
M  V30 12818 H 1256.87 3.02748 2.57739 0
M  V30 12819 N 1257.86 -0.571685 1.46866 0
M  V30 12820 C 1258.8 -1.69475 1.54307 0
M  V30 12821 C 1259.81 -1.57006 0.430449 0
M  V30 12822 O 1261 -1.64229 0.69936 0
M  V30 12823 C 1258.1 -3.07824 1.41766 0
M  V30 12824 C 1257.27 -3.46189 2.67342 0
M  V30 12825 C 1256.33 -4.63642 2.48843 0
M  V30 12826 O 1255.36 -4.68949 3.22608 0
M  V30 12827 N 1256.56 -5.59223 1.55724 0
M  V30 12828 H 1259.32 -1.63543 2.51145 0
M  V30 12829 H 1256.88 -0.757957 1.43062 0
M  V30 12830 H 1258.88 -3.84208 1.27146 0
M  V30 12831 H 1257.45 -3.08063 0.530667 0
M  V30 12832 H 1256.67 -2.59399 2.96826 0
M  V30 12833 H 1257.95 -3.68591 3.50739 0
M  V30 12834 H 1257.35 -5.5768 0.949175 0
M  V30 12835 H 1255.91 -6.34993 1.47063 0
M  V30 12836 N 1259.34 -1.34755 -0.817236 0
M  V30 12837 C 1260.59 -1.2718 -1.57066 0
M  V30 12838 C 1260.91 0.156531 -1.94371 0
M  V30 12839 O 1260.18 1.09049 -1.62742 0
M  V30 12840 H 1258.76 -0.467755 -0.582421 0
M  V30 12841 H 1261.42 -1.68734 -0.975438 0
M  V30 12842 H 1260.52 -1.88043 -2.49091 0
M  V30 12843 N 1260.82 1.03812 -1.18578 0
M  V30 12844 C 1261.75 2.11928 -0.872871 0
M  V30 12845 C 1262.76 1.62275 0.130592 0
M  V30 12846 O 1263.95 1.78233 -0.0975869 0
M  V30 12847 C 1261.05 3.37714 -0.283321 0
M  V30 12848 C 1260.23 4.16591 -1.33307 0
M  V30 12849 C 1259.29 5.20701 -0.758746 0
M  V30 12850 O 1258.31 5.50837 -1.43412 0
M  V30 12851 N 1259.51 5.78811 0.442505 0
M  V30 12852 H 1262.28 2.39364 -1.80346 0
M  V30 12853 H 1259.84 1.20027 -1.08652 0
M  V30 12854 H 1261.83 4.04538 0.114524 0
M  V30 12855 H 1260.4 3.07699 0.551347 0
M  V30 12856 H 1259.62 3.45051 -1.90613 0
M  V30 12857 H 1260.91 4.66082 -2.04071 0
M  V30 12858 H 1260.31 5.56631 1.00889 0
M  V30 12859 H 1258.86 6.47089 0.78224 0
M  V30 12860 N 1262.3 0.988223 1.22768 0
M  V30 12861 C 1263.54 0.662441 1.91676 0
M  V30 12862 C 1263.88 -0.802931 1.76824 0
M  V30 12863 O 1263.15 -1.58011 1.13415 0
M  V30 12864 C 1263.43 1.06332 3.44043 0
M  V30 12865 C 1263.29 2.5869 3.67967 0
M  V30 12866 C 1264.61 0.613058 4.35809 0
M  V30 12867 H 1261.73 0.242132 0.69609 0
M  V30 12868 H 1264.37 1.23091 1.44736 0
M  V30 12869 H 1262.52 0.579623 3.84152 0
M  V30 12870 H 1264.19 3.14694 3.37291 0
M  V30 12871 H 1262.43 3.00971 3.12408 0
M  V30 12872 H 1263.1 2.8179 4.74656 0
M  V30 12873 H 1265.58 1.02846 4.0319 0
M  V30 12874 H 1264.46 0.921901 5.41103 0
M  V30 12875 H 1264.72 -0.48641 4.39416 0
M  V30 12876 N 1263.78 -1.38018 0.760839 0
M  V30 12877 C 1265 -2.04231 0.331285 0
M  V30 12878 C 1265.42 -1.57385 -1.04285 0
M  V30 12879 O 1264.78 -0.750168 -1.66369 0
M  V30 12880 C 1264.83 -3.59772 0.353021 0
M  V30 12881 O 1264.55 -4.049 1.67294 0
M  V30 12882 C 1266.05 -4.4321 -0.0894942 0
M  V30 12883 H 1263.27 -0.656145 0.140408 0
M  V30 12884 H 1265.81 -1.76567 1.03172 0
M  V30 12885 H 1263.97 -3.86246 -0.298735 0
M  V30 12886 H 1264.38 -4.99369 1.60408 0
M  V30 12887 H 1265.86 -5.51995 -0.0231262 0
M  V30 12888 H 1266.33 -4.2419 -1.13839 0
M  V30 12889 H 1266.94 -4.21939 0.533661 0
M  V30 12890 N 1265.25 -0.510493 -1.49103 0
M  V30 12891 C 1266.5 0.0325393 -2.01674 0
M  V30 12892 C 1266.82 1.37162 -1.39448 0
M  V30 12893 O 1268.02 2.00189 -1.83402 0
M  V30 12894 C 1266.48 0.108433 -3.59737 0
M  V30 12895 C 1266.09 -1.22458 -4.30939 0
M  V30 12896 C 1267.83 0.601326 -4.20219 0
M  V30 12897 C 1265.74 -1.11033 -5.80884 0
M  V30 12898 H 1264.67 0.0159333 -0.753832 0
M  V30 12899 H 1267.32 -0.651344 -1.71551 0
M  V30 12900 H 1265.7 0.856974 -3.86616 0
M  V30 12901 H 1266.87 -1.98715 -4.15751 0
M  V30 12902 H 1265.19 -1.65166 -3.82242 0
M  V30 12903 H 1267.79 0.704462 -5.30039 0
M  V30 12904 H 1268.13 1.60247 -3.84222 0
M  V30 12905 H 1268.66 -0.0909561 -3.97696 0
M  V30 12906 H 1265.4 -2.08603 -6.21422 0
M  V30 12907 H 1264.92 -0.388798 -5.98539 0
M  V30 12908 H 1266.6 -0.792949 -6.42123 0
M  V30 12909 N 1266.73 1.55688 -0.24474 0
M  V30 12910 C 1267.96 2.0329 0.384808 0
M  V30 12911 C 1268.37 1.12405 1.51692 0
M  V30 12912 O 1267.73 0.138056 1.81977 0
M  V30 12913 C 1267.78 3.50255 0.894635 0
M  V30 12914 O 1267.5 4.37677 -0.192365 0
M  V30 12915 C 1269 4.13608 1.59509 0
M  V30 12916 H 1266.22 0.664706 0.0916908 0
M  V30 12917 H 1268.77 2.01162 -0.367973 0
M  V30 12918 H 1266.92 3.52924 1.5976 0
M  V30 12919 H 1267.34 5.2414 0.194424 0
M  V30 12920 H 1268.81 5.1814 1.90356 0
M  V30 12921 H 1269.29 3.5997 2.51631 0
M  V30 12922 H 1269.89 4.14856 0.936749 0
M  V30 12923 N 1268.21 -0.0283989 1.57574 0
M  V30 12924 C 1269.44 -0.729772 1.93282 0
M  V30 12925 C 1269.85 -1.69384 0.842959 0
M  V30 12926 O 1269.19 -1.82722 -0.189286 0
M  V30 12927 C 1269.25 -1.54107 3.24794 0
M  V30 12928 C 1268.92 -0.741709 4.50941 0
M  V30 12929 C 1269.91 -0.0416985 5.19883 0
M  V30 12930 C 1267.6 -0.696053 4.97454 0
M  V30 12931 C 1269.59 0.693261 6.33619 0
M  V30 12932 C 1267.28 0.042651 6.11085 0
M  V30 12933 C 1268.28 0.736067 6.79022 0
M  V30 12934 O 1267.97 1.46278 7.9048 0
M  V30 12935 H 1267.7 -0.210092 0.642524 0
M  V30 12936 H 1270.25 0.0102277 2.05397 0
M  V30 12937 H 1268.48 -2.3249 3.09007 0
M  V30 12938 H 1270.17 -2.12512 3.45823 0
M  V30 12939 H 1270.94 -0.0679975 4.84952 0
M  V30 12940 H 1266.82 -1.22528 4.44419 0
M  V30 12941 H 1270.36 1.23504 6.8658 0
M  V30 12942 H 1266.26 0.0708708 6.45461 0
M  V30 12943 H 1267.02 1.37652 8.06842 0
M  V30 12944 N 1269.69 -1.54705 -0.300681 0
M  V30 12945 C 1270.62 -1.8205 -1.39249 0
M  V30 12946 C 1271.63 -0.703476 -1.46816 0
M  V30 12947 O 1272.82 -0.980957 -1.49129 0
M  V30 12948 C 1269.92 -1.94376 -2.77617 0
M  V30 12949 C 1269.09 -3.2478 -2.92979 0
M  V30 12950 C 1268.15 -3.27518 -4.11848 0
M  V30 12951 O 1267.18 -4.01047 -4.03918 0
M  V30 12952 N 1268.38 -2.52932 -5.22499 0
M  V30 12953 H 1271.15 -2.76279 -1.16146 0
M  V30 12954 H 1268.71 -1.54283 -0.49075 0
M  V30 12955 H 1270.7 -1.93609 -3.55384 0
M  V30 12956 H 1269.27 -1.07141 -2.93666 0
M  V30 12957 H 1268.49 -3.38319 -2.02322 0
M  V30 12958 H 1269.78 -4.10835 -3.00153 0
M  V30 12959 H 1269.18 -1.92825 -5.31822 0
M  V30 12960 H 1267.73 -2.57919 -5.98599 0
M  V30 12961 N 1271.17 0.563888 -1.47167 0
M  V30 12962 C 1272.39 1.34693 -1.57052 0
M  V30 12963 C 1272.81 1.87534 -0.218308 0
M  V30 12964 O 1272.17 1.64639 0.787416 0
M  V30 12965 C 1272.22 2.52148 -2.59044 0
M  V30 12966 O 1271.94 2.01492 -3.89015 0
M  V30 12967 C 1273.44 3.4445 -2.7905 0
M  V30 12968 H 1270.66 0.410822 -0.530534 0
M  V30 12969 H 1273.2 0.683731 -1.92731 0
M  V30 12970 H 1271.36 3.14419 -2.26317 0
M  V30 12971 H 1271.77 2.78122 -4.44689 0
M  V30 12972 H 1273.25 4.23297 -3.54293 0
M  V30 12973 H 1273.72 3.97575 -1.86631 0
M  V30 12974 H 1274.33 2.88 -3.12948 0
M  V30 12975 N 1272.64 1.35187 0.810078 0
M  V30 12976 C 1273.87 1.31181 1.59609 0
M  V30 12977 C 1274.28 -0.113556 1.88859 0
M  V30 12978 O 1273.63 -1.07491 1.48968 0
M  V30 12979 C 1273.69 2.04749 2.95496 0
M  V30 12980 C 1273.35 3.53952 2.89079 0
M  V30 12981 C 1274.35 4.48612 2.6276 0
M  V30 12982 C 1272.03 3.96551 3.08306 0
M  V30 12983 C 1274.03 5.83846 2.5574 0
M  V30 12984 C 1271.71 5.31881 3.00909 0
M  V30 12985 C 1272.71 6.2534 2.74661 0
M  V30 12986 O 1272.4 7.58188 2.6722 0
M  V30 12987 H 1272.13 0.452285 0.502408 0
M  V30 12988 H 1274.69 1.78571 1.01497 0
M  V30 12989 H 1272.92 1.51992 3.55577 0
M  V30 12990 H 1274.61 1.93866 3.5661 0
M  V30 12991 H 1275.37 4.1702 2.47628 0
M  V30 12992 H 1271.25 3.24194 3.27749 0
M  V30 12993 H 1274.79 6.56765 2.35172 0
M  V30 12994 H 1270.69 5.63088 3.15598 0
M  V30 12995 H 1271.46 7.68073 2.82853 0
M  V30 12996 N 1274.12 -1.03182 1.19127 0
M  V30 12997 C 1275.35 -1.80703 1.01791 0
M  V30 12998 C 1275.77 -1.83147 -0.428824 0
M  V30 12999 O 1275.13 -1.2553 -1.30812 0
M  V30 13000 C 1275.18 -3.23754 1.58794 0
M  V30 13001 O 1274.28 -4.04261 0.815274 0
M  V30 13002 H 1273.62 -0.557944 0.359992 0
M  V30 13003 H 1276.15 -1.29887 1.58084 0
M  V30 13004 H 1276.16 -3.7451 1.61884 0
M  V30 13005 H 1274.84 -3.2129 2.64094 0
M  V30 13006 H 1273.42 -3.62909 0.857392 0
M  V30 13007 N 1275.6 -0.99472 -1.22242 0
M  V30 13008 C 1276.51 -0.555502 -2.27928 0
M  V30 13009 C 1277.53 0.396584 -1.6942 0
M  V30 13010 O 1278.7 0.262965 -1.99676 0
M  V30 13011 C 1275.77 0.121121 -3.46488 0
M  V30 13012 C 1274.83 -0.874155 -4.20306 0
M  V30 13013 C 1274.06 -0.229726 -5.33205 0
M  V30 13014 O 1274.28 0.975935 -5.61989 0
M  V30 13015 O 1273.22 -0.935501 -5.94586 0
M  V30 13016 H 1277.04 -1.4348 -2.6767 0
M  V30 13017 H 1274.63 -0.763061 -1.28444 0
M  V30 13018 H 1276.51 0.500043 -4.18423 0
M  V30 13019 H 1275.19 0.974959 -3.08668 0
M  V30 13020 H 1274.09 -1.30404 -3.50636 0
M  V30 13021 H 1275.43 -1.69725 -4.62011 0
M  V30 13022 N 1277.08 1.37613 -0.768148 0
M  V30 13023 C 1278.32 2.00075 -0.331331 0
M  V30 13024 C 1278.66 1.60839 1.08833 0
M  V30 13025 O 1277.93 0.852849 1.74805 0
M  V30 13026 C 1278.22 3.57009 -0.470789 0
M  V30 13027 C 1278.07 4.06166 -1.9326 0
M  V30 13028 C 1279.39 4.39916 0.127111 0
M  V30 13029 H 1276.51 0.726855 -0.121864 0
M  V30 13030 H 1279.15 1.63343 -0.970518 0
M  V30 13031 H 1277.3 3.88431 0.0733688 0
M  V30 13032 H 1278.97 3.85325 -2.53618 0
M  V30 13033 H 1277.21 3.58492 -2.44266 0
M  V30 13034 H 1277.88 5.15219 -1.98125 0
M  V30 13035 H 1280.36 4.14732 -0.337144 0
M  V30 13036 H 1279.24 5.489 -0.000624226 0
M  V30 13037 H 1279.5 4.25018 1.21704 0
M  V30 13038 N 1278.56 0.518393 1.4883 0
M  V30 13039 C 1279.52 -0.23983 2.27942 0
M  V30 13040 C 1280.52 -0.878302 1.34694 0
M  V30 13041 O 1281.71 -0.740142 1.57694 0
M  V30 13042 C 1278.84 -1.34581 3.1321 0
M  V30 13043 H 1280.03 0.454599 2.96434 0
M  V30 13044 H 1277.59 0.273932 1.53881 0
M  V30 13045 H 1278.32 -2.07385 2.49323 0
M  V30 13046 H 1278.11 -0.893251 3.8179 0
M  V30 13047 H 1279.6 -1.87944 3.72917 0
M  V30 13048 N 1280.03 -1.55556 0.252993 0
M  V30 13049 C 1281.28 -1.99385 -0.370599 0
M  V30 13050 C 1281.61 -1.14101 -1.57145 0
M  V30 13051 O 1280.89 -0.205828 -1.93408 0
M  V30 13052 C 1281.17 -3.51672 -0.774503 0
M  V30 13053 C 1281.02 -4.47719 0.432159 0
M  V30 13054 C 1282.34 -4.0923 -1.61923 0
M  V30 13055 H 1279.46 -0.724858 -0.133231 0
M  V30 13056 H 1282.1 -1.86644 0.355522 0
M  V30 13057 H 1280.25 -3.62661 -1.39318 0
M  V30 13058 H 1281.93 -4.48704 1.07063 0
M  V30 13059 H 1280.17 -4.2029 1.07419 0
M  V30 13060 H 1280.84 -5.51898 0.106123 0
M  V30 13061 H 1283.32 -4.01381 -1.09693 0
M  V30 13062 H 1282.19 -5.16039 -1.87068 0
M  V30 13063 H 1282.45 -3.58067 -2.59307 0
M  V30 13064 N 1281.51 0.0200419 -1.57587 0
M  V30 13065 C 1282.74 0.720556 -1.93947 0
M  V30 13066 C 1283.16 1.68407 -0.853499 0
M  V30 13067 O 1282.51 1.81713 0.169337 0
M  V30 13068 C 1282.56 1.46982 -3.3027 0
M  V30 13069 O 1282.28 0.544971 -4.34697 0
M  V30 13070 C 1283.79 2.26667 -3.80968 0
M  V30 13071 H 1281.01 0.201956 -0.639887 0
M  V30 13072 H 1283.55 -0.0251175 -2.04485 0
M  V30 13073 H 1281.7 2.16729 -3.21103 0
M  V30 13074 H 1282.12 1.07139 -5.13441 0
M  V30 13075 H 1283.59 2.74621 -4.78839 0
M  V30 13076 H 1284.07 3.0848 -3.12629 0
M  V30 13077 H 1284.68 1.61976 -3.93248 0
M  V30 13078 N 1282.99 1.54862 0.292472 0
M  V30 13079 C 1283.95 1.8565 1.34413 0
M  V30 13080 C 1284.95 0.729868 1.43281 0
M  V30 13081 O 1286.14 0.998128 1.42769 0
M  V30 13082 C 1283.28 2.0444 2.72795 0
M  V30 13083 H 1284.47 2.79642 1.08354 0
M  V30 13084 H 1282.02 1.47055 0.529574 0
M  V30 13085 H 1282.76 1.12765 3.04063 0
M  V30 13086 H 1282.54 2.86451 2.67747 0
M  V30 13087 H 1284.03 2.296 3.48817 0
M  V30 13088 N 1284.47 -0.556076 1.47464 0
M  V30 13089 C 1285.42 -1.66304 1.60036 0
M  V30 13090 C 1286.39 -1.60074 0.443348 0
M  V30 13091 O 1287.57 -1.7889 0.663545 0
M  V30 13092 C 1284.71 -3.04624 1.62167 0
M  V30 13093 C 1283.82 -3.21283 2.88793 0
M  V30 13094 C 1282.96 -4.50008 2.82252 0
M  V30 13095 C 1282 -4.60103 4.03698 0
M  V30 13096 N 1281.13 -5.80184 3.95387 0
M  V30 13097 H 1285.97 -1.54897 2.5458 0
M  V30 13098 H 1283.51 -0.754533 1.26274 0
M  V30 13099 H 1285.47 -3.84721 1.61386 0
M  V30 13100 H 1284.1 -3.14865 0.711348 0
M  V30 13101 H 1283.15 -2.34611 2.99436 0
M  V30 13102 H 1284.46 -3.24607 3.78724 0
M  V30 13103 H 1283.62 -5.38366 2.79726 0
M  V30 13104 H 1282.36 -4.49165 1.90005 0
M  V30 13105 H 1281.36 -3.70157 4.06527 0
M  V30 13106 H 1282.59 -4.62704 4.97073 0
M  V30 13107 H 1280.53 -5.80288 3.05944 0
M  V30 13108 H 1280.45 -5.8489 4.78998 0
M  V30 13109 H 1281.72 -6.709 3.96879 0
M  V30 13110 N 1285.95 -1.35615 -0.802897 0
M  V30 13111 C 1287.17 -1.32377 -1.59659 0
M  V30 13112 C 1287.6 0.0954235 -1.87858 0
M  V30 13113 O 1286.96 1.06336 -1.46842 0
M  V30 13114 C 1287 -2.13972 -2.90256 0
M  V30 13115 O 1286.11 -1.52296 -3.83249 0
M  V30 13116 H 1285.45 -0.453699 -0.484823 0
M  V30 13117 H 1287.98 -1.78708 -0.996217 0
M  V30 13118 H 1287.99 -2.26061 -3.39647 0
M  V30 13119 H 1286.66 -3.17145 -2.69057 0
M  V30 13120 H 1285.24 -1.49068 -3.41809 0
M  V30 13121 N 1287.43 1.02549 -1.19673 0
M  V30 13122 C 1288.37 2.109 -0.937536 0
M  V30 13123 C 1289.34 1.65599 0.128923 0
M  V30 13124 O 1290.53 1.90795 -0.0139366 0
M  V30 13125 C 1287.67 3.4166 -0.48602 0
M  V30 13126 C 1286.78 4.0049 -1.61963 0
M  V30 13127 C 1285.92 5.19273 -1.11931 0
M  V30 13128 C 1284.95 5.70166 -2.22659 0
M  V30 13129 N 1284.09 6.80221 -1.73909 0
M  V30 13130 H 1288.93 2.32408 -1.86523 0
M  V30 13131 H 1286.47 1.13982 -0.929869 0
M  V30 13132 H 1288.43 4.16693 -0.205614 0
M  V30 13133 H 1287.06 3.20253 0.404678 0
M  V30 13134 H 1286.11 3.22638 -2.01516 0
M  V30 13135 H 1287.42 4.34273 -2.45374 0
M  V30 13136 H 1286.57 6.01478 -0.794336 0
M  V30 13137 H 1285.31 4.87033 -0.254972 0
M  V30 13138 H 1284.32 4.86572 -2.55983 0
M  V30 13139 H 1285.54 6.04444 -3.09554 0
M  V30 13140 H 1283.49 6.49826 -0.897889 0
M  V30 13141 H 1283.41 7.13149 -2.50907 0
M  V30 13142 H 1284.67 7.66011 -1.44386 0
M  V30 13143 N 1288.9 1.00119 1.21713 0
M  V30 13144 C 1289.85 0.558388 2.23943 0
M  V30 13145 C 1290.82 -0.413576 1.60869 0
M  V30 13146 O 1292.01 -0.316478 1.88157 0
M  V30 13147 C 1289.15 -0.112618 3.44916 0
M  V30 13148 C 1288.26 0.902071 4.22477 0
M  V30 13149 C 1287.39 0.203722 5.30809 0
M  V30 13150 C 1286.43 1.20622 6.00097 0
M  V30 13151 N 1285.57 0.535607 7.00054 0
M  V30 13152 H 1290.41 1.43486 2.61182 0
M  V30 13153 H 1287.95 0.718572 1.28355 0
M  V30 13154 H 1289.9 -0.51865 4.13964 0
M  V30 13155 H 1288.53 -0.952827 3.08417 0
M  V30 13156 H 1287.59 1.42637 3.52645 0
M  V30 13157 H 1288.9 1.66513 4.70186 0
M  V30 13158 H 1288.05 -0.258614 6.06149 0
M  V30 13159 H 1286.79 -0.591773 4.84096 0
M  V30 13160 H 1285.8 1.6791 5.23532 0
M  V30 13161 H 1287.02 2.00273 6.48897 0
M  V30 13162 H 1284.97 -0.2403 6.5556 0
M  V30 13163 H 1284.88 1.23698 7.45812 0
M  V30 13164 H 1286.15 0.0963489 7.7944 0
M  V30 13165 N 1290.38 -1.37203 0.775435 0
M  V30 13166 C 1291.63 -1.99601 0.341431 0
M  V30 13167 C 1291.96 -1.61555 -1.08306 0
M  V30 13168 O 1291.21 -0.855126 -1.76029 0
M  V30 13169 C 1291.51 -3.54725 0.436426 0
M  V30 13170 C 1291.18 -4.1255 1.8197 0
M  V30 13171 C 1289.84 -4.28056 2.19822 0
M  V30 13172 C 1292.19 -4.44222 2.7261 0
M  V30 13173 C 1289.52 -4.72538 3.47742 0
M  V30 13174 C 1291.87 -4.90131 3.99943 0
M  V30 13175 C 1290.53 -5.03842 4.37835 0
M  V30 13176 H 1289.8 -0.730391 0.124938 0
M  V30 13177 H 1292.45 -1.63914 0.990177 0
M  V30 13178 H 1290.76 -3.90681 -0.295852 0
M  V30 13179 H 1292.45 -4.00916 0.0818664 0
M  V30 13180 H 1289.04 -4.00911 1.51553 0
M  V30 13181 H 1293.23 -4.31824 2.44625 0
M  V30 13182 H 1288.48 -4.81341 3.76989 0
M  V30 13183 H 1292.66 -5.13604 4.70302 0
M  V30 13184 H 1290.28 -5.3807 5.37015 0
M  V30 13185 N 1291.86 -0.526279 -1.48553 0
M  V30 13186 C 1293.27 -0.0848694 -1.86507 0
M  V30 13187 C 1293.62 1.3367 -1.43621 0
M  V30 13188 O 1292.75 2.00046 -0.825268 0
M  V30 13189 C 1293.34 -0.147241 -3.3848 0
M  V30 13190 C 1291.9 0.238954 -3.75641 0
M  V30 13191 C 1291.05 -0.508648 -2.72595 0
M  V30 13192 H 1294 -0.737728 -1.40511 0
M  V30 13193 H 1294.02 0.641964 -3.75045 0
M  V30 13194 H 1293.53 -1.18199 -3.69663 0
M  V30 13195 H 1291.63 1.27598 -3.50071 0
M  V30 13196 H 1291.75 -0.0980808 -4.79 0
M  V30 13197 H 1290.11 0.0446382 -2.54661 0
M  V30 13198 H 1290.89 -1.54395 -3.06622 0
M  V30 13199 N 1293.34 1.5542 -0.261239 0
M  V30 13200 C 1294.56 2.04142 0.366144 0
M  V30 13201 C 1294.99 1.13884 1.49706 0
M  V30 13202 O 1294.35 0.134629 1.80799 0
M  V30 13203 C 1294.39 3.50733 0.837774 0
M  V30 13204 O 1293.5 3.63588 1.94621 0
M  V30 13205 H 1292.84 0.659424 0.077821 0
M  V30 13206 H 1295.37 2.0082 -0.391487 0
M  V30 13207 H 1295.38 3.91831 1.13721 0
M  V30 13208 H 1294.05 4.15899 0.0102742 0
M  V30 13209 H 1292.63 3.34391 1.65037 0
M  V30 13210 N 1294.82 -0.0116844 1.57596 0
M  V30 13211 C 1296.05 -0.70923 1.94045 0
M  V30 13212 C 1296.45 -1.6848 0.860877 0
M  V30 13213 O 1295.8 -1.82913 -0.169896 0
M  V30 13214 C 1295.86 -1.50653 3.2641 0
M  V30 13215 C 1295.52 -0.693838 4.51702 0
M  V30 13216 C 1296.52 0.0134445 5.19898 0
M  V30 13217 C 1294.2 -0.643252 4.98164 0
M  V30 13218 C 1296.2 0.760426 6.32848 0
M  V30 13219 C 1293.89 0.107462 6.11006 0
M  V30 13220 C 1294.88 0.808045 6.78203 0
M  V30 13221 O 1294.57 1.54654 7.88884 0
M  V30 13222 H 1294.3 -0.203265 0.644716 0
M  V30 13223 H 1296.86 0.0320123 2.05375 0
M  V30 13224 H 1295.09 -2.29199 3.11456 0
M  V30 13225 H 1296.78 -2.08832 3.48058 0
M  V30 13226 H 1297.54 -0.016558 4.84997 0
M  V30 13227 H 1293.42 -1.17807 4.45693 0
M  V30 13228 H 1296.97 1.30779 6.85232 0
M  V30 13229 H 1292.86 0.139327 6.4535 0
M  V30 13230 H 1293.63 1.46202 8.05337 0
M  V30 13231 N 1296.29 -1.55015 -0.284256 0
M  V30 13232 C 1297.52 -1.79431 -1.04016 0
M  V30 13233 C 1297.94 -0.560254 -1.79563 0
M  V30 13234 O 1297.3 0.489804 -1.74558 0
M  V30 13235 C 1297.35 -3.01162 -1.98328 0
M  V30 13236 O 1296.45 -2.75459 -3.06914 0
M  V30 13237 H 1295.79 -0.593391 -0.297965 0
M  V30 13238 H 1298.32 -2.02136 -0.316585 0
M  V30 13239 H 1298.33 -3.29589 -2.40489 0
M  V30 13240 H 1297.01 -3.90634 -1.42751 0
M  V30 13241 H 1295.59 -2.58096 -2.69148 0
M  V30 13242 N 1297.77 0.548248 -1.47757 0
M  V30 13243 C 1299.02 1.30694 -1.55071 0
M  V30 13244 C 1299.35 1.92994 -0.216075 0
M  V30 13245 O 1298.63 1.78341 0.776196 0
M  V30 13246 C 1298.91 2.41024 -2.67543 0
M  V30 13247 C 1298.76 1.83534 -4.10652 0
M  V30 13248 C 1300.08 3.42902 -2.75874 0
M  V30 13249 H 1297.2 0.47383 -0.564494 0
M  V30 13250 H 1299.84 0.612628 -1.79852 0
M  V30 13251 H 1297.99 3.00248 -2.46543 0
M  V30 13252 H 1299.66 1.28503 -4.4304 0
M  V30 13253 H 1297.91 1.14161 -4.18509 0
M  V30 13254 H 1298.58 2.63335 -4.85138 0
M  V30 13255 H 1301.05 2.9361 -2.94843 0
M  V30 13256 H 1299.93 4.17516 -3.5633 0
M  V30 13257 H 1300.19 4.02314 -1.83291 0
M  V30 13258 N 1299.25 1.36039 0.795694 0
M  V30 13259 C 1300.47 1.33222 1.58955 0
M  V30 13260 C 1300.9 -0.0854596 1.87906 0
M  V30 13261 O 1300.26 -1.05555 1.47403 0
M  V30 13262 C 1300.31 2.15508 2.89117 0
M  V30 13263 O 1299.41 1.54327 3.82436 0
M  V30 13264 H 1298.75 0.456264 0.48241 0
M  V30 13265 H 1301.28 1.79234 0.986726 0
M  V30 13266 H 1301.29 2.2786 3.38444 0
M  V30 13267 H 1299.97 3.18568 2.67371 0
M  V30 13268 H 1298.54 1.50879 3.41013 0
M  V30 13269 N 1300.73 -1.01913 1.20215 0
M  V30 13270 C 1301.96 -1.78817 1.0348 0
M  V30 13271 C 1302.37 -1.84499 -0.419152 0
M  V30 13272 O 1301.71 -1.29506 -1.30284 0
M  V30 13273 C 1301.77 -3.24858 1.53973 0
M  V30 13274 C 1301.44 -3.42788 3.02234 0
M  V30 13275 C 1302.43 -3.32213 3.99914 0
M  V30 13276 C 1300.12 -3.68687 3.41138 0
M  V30 13277 C 1302.11 -3.47276 5.34489 0
M  V30 13278 C 1299.8 -3.83394 4.7587 0
M  V30 13279 C 1300.8 -3.72693 5.72354 0
M  V30 13280 O 1300.48 -3.86953 7.04643 0
M  V30 13281 H 1300.22 -0.569268 0.364568 0
M  V30 13282 H 1302.77 -1.29184 1.59689 0
M  V30 13283 H 1301 -3.7556 0.921478 0
M  V30 13284 H 1302.69 -3.83388 1.33297 0
M  V30 13285 H 1303.46 -3.12145 3.71202 0
M  V30 13286 H 1299.33 -3.76104 2.66583 0
M  V30 13287 H 1302.88 -3.3884 6.09782 0
M  V30 13288 H 1298.78 -4.02962 5.04273 0
M  V30 13289 H 1299.54 -4.03986 7.11855 0
M  V30 13290 N 1302.21 -1.00763 -1.2118 0
M  V30 13291 C 1303.62 -0.720905 -1.42391 0
M  V30 13292 C 1303.82 0.702918 -1.88842 0
M  V30 13293 O 1302.88 1.47191 -2.05161 0
M  V30 13294 C 1304.19 -1.739 -2.45315 0
M  V30 13295 C 1305.74 -1.75611 -2.59094 0
M  V30 13296 C 1306.21 -2.76323 -3.65253 0
M  V30 13297 N 1307.71 -2.75007 -3.72727 0
M  V30 13298 C 1308.44 -3.49594 -4.54502 0
M  V30 13299 N 1307.94 -4.33828 -5.40153 0
M  V30 13300 N 1309.73 -3.38232 -4.4895 0
M  V30 13301 H 1301.88 -1.92697 -0.893404 0
M  V30 13302 H 1304.14 -0.831888 -0.454606 0
M  V30 13303 H 1303.85 -2.75859 -2.18162 0
M  V30 13304 H 1303.72 -1.5438 -3.44161 0
M  V30 13305 H 1306.11 -0.743416 -2.85582 0
M  V30 13306 H 1306.19 -1.99203 -1.60474 0
M  V30 13307 H 1305.84 -3.77751 -3.39509 0
M  V30 13308 H 1305.77 -2.49996 -4.63476 0
M  V30 13309 H 1308.26 -2.13897 -3.11539 0
M  V30 13310 H 1308.57 -4.8753 -5.99612 0
M  V30 13311 H 1306.91 -4.3791 -5.39685 0
M  V30 13312 H 1310.11 -2.71855 -3.81068 0
M  V30 13313 H 1310.28 -3.96615 -5.12445 0
M  V30 13314 N 1303.68 1.3679 -0.7827 0
M  V30 13315 C 1304.93 1.99417 -0.352011 0
M  V30 13316 C 1305.26 1.62127 1.07448 0
M  V30 13317 O 1304.51 0.864449 1.75573 0
M  V30 13318 C 1304.81 3.54489 -0.455232 0
M  V30 13319 C 1304.48 4.11579 -1.84156 0
M  V30 13320 C 1303.14 4.26884 -2.22089 0
M  V30 13321 C 1305.49 4.4277 -2.74962 0
M  V30 13322 C 1302.82 4.70688 -3.50243 0
M  V30 13323 C 1305.17 4.88003 -4.02537 0
M  V30 13324 C 1303.84 5.01513 -4.40501 0
M  V30 13325 H 1303.11 0.729718 -0.12881 0
M  V30 13326 H 1305.75 1.63386 -0.998856 0
M  V30 13327 H 1304.06 3.90833 0.275129 0
M  V30 13328 H 1305.76 4.00867 -0.103127 0
M  V30 13329 H 1302.35 4.00102 -1.53677 0
M  V30 13330 H 1306.53 4.30521 -2.46912 0
M  V30 13331 H 1301.79 4.79335 -3.79537 0
M  V30 13332 H 1305.96 5.11102 -4.73019 0
M  V30 13333 H 1303.59 5.35214 -5.39861 0
M  V30 13334 N 1305.16 0.53415 1.48272 0
M  V30 13335 C 1306.39 0.00573642 2.06599 0
M  V30 13336 C 1306.8 -1.28303 1.3905 0
M  V30 13337 O 1306.14 -1.77499 0.473274 0
M  V30 13338 C 1306.21 -0.28451 3.58372 0
M  V30 13339 C 1305.87 0.911397 4.4782 0
M  V30 13340 C 1306.87 1.81091 4.87342 0
M  V30 13341 C 1304.55 1.11957 4.89664 0
M  V30 13342 C 1306.55 2.90246 5.67482 0
M  V30 13343 C 1304.23 2.21426 5.69573 0
M  V30 13344 C 1305.23 3.10403 6.08391 0
M  V30 13345 O 1304.92 4.17977 6.86695 0
M  V30 13346 H 1304.65 0.0322847 0.675229 0
M  V30 13347 H 1307.2 0.740415 1.91591 0
M  V30 13348 H 1305.43 -1.07321 3.71509 0
M  V30 13349 H 1307.12 -0.755508 3.98807 0
M  V30 13350 H 1307.89 1.66204 4.55633 0
M  V30 13351 H 1303.77 0.436266 4.58931 0
M  V30 13352 H 1307.31 3.59724 5.97699 0
M  V30 13353 H 1303.21 2.36295 6.00695 0
M  V30 13354 H 1303.98 4.15738 7.05056 0
M  V30 13355 N 1306.64 -1.55279 0.269478 0
M  V30 13356 C 1308.05 -1.85286 -0.229372 0
M  V30 13357 C 1308.4 -1.19148 -1.55879 0
M  V30 13358 O 1307.53 -0.4778 -2.11059 0
M  V30 13359 C 1308.12 -3.3615 -0.42296 0
M  V30 13360 C 1306.68 -3.66301 -0.866047 0
M  V30 13361 C 1305.83 -2.77265 0.0439028 0
M  V30 13362 H 1308.78 -1.509 0.491427 0
M  V30 13363 H 1308.8 -3.5895 -1.26234 0
M  V30 13364 H 1308.31 -3.84258 0.544768 0
M  V30 13365 H 1306.41 -3.23688 -1.84545 0
M  V30 13366 H 1306.53 -4.73851 -0.707274 0
M  V30 13367 H 1304.89 -2.50299 -0.471433 0
M  V30 13368 H 1305.67 -3.28186 1.00741 0
M  V30 13369 N 1308.12 0.00332656 -1.576 0
M  V30 13370 C 1309.07 1.01406 -2.09331 0
M  V30 13371 C 1310.06 1.35806 -1.01258 0
M  V30 13372 O 1311.27 1.34409 -1.19726 0
M  V30 13373 H 1307.64 0.344661 -0.668366 0
M  V30 13374 H 1309.61 0.552154 -2.93247 0
M  V30 13375 C 1308.36 2.29819 -2.60918 0
M  V30 13376 H 1307.68 2.04216 -3.43709 0
M  V30 13377 H 1309.12 2.98826 -3.00797 0
M  V30 13378 C 1307.58 3.0057 -1.52182 0
M  V30 13379 O 1308.11 3.91423 -0.902817 0
M  V30 13380 N 1306.32 2.62338 -1.25009 0
M  V30 13381 H 1305.87 1.88538 -1.75531 0
M  V30 13382 H 1305.82 3.0999 -0.524736 0
M  V30 13383 N 1309.6 1.55164 0.276031 0
M  V30 13384 C 1311.01 1.46936 0.623061 0
M  V30 13385 C 1311.21 0.680977 1.89644 0
M  V30 13386 O 1310.27 0.198618 2.51718 0
M  V30 13387 C 1311.58 2.91123 0.752839 0
M  V30 13388 C 1313.13 3.01319 0.847093 0
M  V30 13389 C 1313.6 4.46755 1.00867 0
M  V30 13390 N 1315.1 4.5057 1.07427 0
M  V30 13391 C 1315.83 5.60314 1.21804 0
M  V30 13392 N 1315.33 6.7993 1.32919 0
M  V30 13393 N 1317.12 5.4805 1.2489 0
M  V30 13394 H 1309.27 2.04877 -0.560282 0
M  V30 13395 H 1311.53 0.928925 -0.189217 0
M  V30 13396 H 1311.24 3.51521 -0.112333 0
M  V30 13397 H 1311.11 3.39967 1.63408 0
M  V30 13398 H 1313.5 2.41021 1.70274 0
M  V30 13399 H 1313.58 2.55733 -0.0586896 0
M  V30 13400 H 1313.23 5.07655 0.1577 0
M  V30 13401 H 1313.16 4.89995 1.92906 0
M  V30 13402 H 1315.65 3.64404 1.00089 0
M  V30 13403 H 1315.96 7.59319 1.43714 0
M  V30 13404 H 1314.3 6.82747 1.29929 0
M  V30 13405 H 1317.5 4.53542 1.15834 0
M  V30 13406 H 1317.67 6.33621 1.3575 0
M  V30 13407 N 1311.07 -0.540404 1.48045 0
M  V30 13408 C 1312.32 -1.29628 1.56742 0
M  V30 13409 C 1312.68 -1.90975 0.233761 0
M  V30 13410 O 1311.97 -1.75781 -0.762333 0
M  V30 13411 C 1312.16 -2.41517 2.63447 0
M  V30 13412 C 1311.99 -1.91137 4.07059 0
M  V30 13413 C 1310.76 -1.74214 4.74318 0
M  V30 13414 C 1312.96 -1.44598 4.93554 0
M  V30 13415 N 1310.94 -1.1835 6.02384 0
M  V30 13416 C 1312.31 -1.00612 6.11782 0
M  V30 13417 C 1314.37 -1.32805 4.79862 0
M  V30 13418 C 1313.07 -0.460024 7.17827 0
M  V30 13419 C 1315.1 -0.795956 5.86019 0
M  V30 13420 C 1314.46 -0.36611 7.03448 0
M  V30 13421 H 1310.56 -0.46575 0.628173 0
M  V30 13422 H 1313.14 -0.610609 1.84877 0
M  V30 13423 H 1311.31 -3.07594 2.37151 0
M  V30 13424 H 1313.04 -3.08539 2.61889 0
M  V30 13425 H 1309.8 -1.97429 4.30487 0
M  V30 13426 H 1310.22 -0.924579 6.70657 0
M  V30 13427 H 1314.87 -1.64645 3.89425 0
M  V30 13428 H 1312.58 -0.129275 8.07997 0
M  V30 13429 H 1316.17 -0.708026 5.77476 0
M  V30 13430 H 1315.05 0.0392247 7.8419 0
M  V30 13431 N 1312.55 -1.36459 -0.788468 0
M  V30 13432 C 1313.8 -1.3007 -1.54158 0
M  V30 13433 C 1314.11 0.117574 -1.95246 0
M  V30 13434 O 1315.32 0.303837 -2.69795 0
M  V30 13435 C 1313.78 -2.28216 -2.78291 0
M  V30 13436 C 1313.38 -3.75484 -2.44368 0
M  V30 13437 C 1315.13 -2.30806 -3.56271 0
M  V30 13438 C 1313.04 -4.65404 -3.64902 0
M  V30 13439 H 1311.97 -0.483345 -0.5787 0
M  V30 13440 H 1314.62 -1.61827 -0.865123 0
M  V30 13441 H 1313 -1.89454 -3.4774 0
M  V30 13442 H 1314.17 -4.22986 -1.82809 0
M  V30 13443 H 1312.49 -3.75678 -1.79597 0
M  V30 13444 H 1315.08 -2.95196 -4.45829 0
M  V30 13445 H 1315.43 -1.31687 -3.94923 0
M  V30 13446 H 1315.96 -2.68189 -2.93802 0
M  V30 13447 H 1312.7 -5.65589 -3.31344 0
M  V30 13448 H 1312.22 -4.22617 -4.25623 0
M  V30 13449 H 1313.9 -4.81721 -4.31919 0
M  V30 13450 N 1314.03 1.01274 -1.20754 0
M  V30 13451 C 1315.26 1.78265 -1.04427 0
M  V30 13452 C 1315.67 1.84718 0.409361 0
M  V30 13453 O 1315.01 1.30195 1.29595 0
M  V30 13454 C 1315.07 3.24037 -1.55693 0
M  V30 13455 C 1314.74 3.41181 -3.04047 0
M  V30 13456 C 1315.73 3.30087 -4.0167 0
M  V30 13457 C 1313.42 3.66872 -3.43089 0
M  V30 13458 C 1315.41 3.44436 -5.36323 0
M  V30 13459 C 1313.1 3.80865 -4.77896 0
M  V30 13460 C 1314.1 3.69652 -5.74322 0
M  V30 13461 O 1313.79 3.83211 -7.06686 0
M  V30 13462 H 1313.52 0.567327 -0.367582 0
M  V30 13463 H 1316.07 1.28336 -1.60372 0
M  V30 13464 H 1314.3 3.75067 -0.941382 0
M  V30 13465 H 1315.99 3.82676 -1.35328 0
M  V30 13466 H 1316.76 3.10172 -3.72852 0
M  V30 13467 H 1312.64 3.74685 -2.68574 0
M  V30 13468 H 1316.18 3.35601 -6.1157 0
M  V30 13469 H 1312.08 4.00282 -5.06403 0
M  V30 13470 H 1312.85 4.00205 -7.13987 0
M  V30 13471 N 1315.51 1.01404 1.20644 0
M  V30 13472 C 1316.79 0.617088 1.85611 0
M  V30 13473 C 1317.17 -0.904947 1.9072 0
M  V30 13474 O 1316.51 -1.79562 1.41315 0
M  V30 13475 C 1316.72 1.26193 3.25386 0
M  V30 13476 C 1318.07 1.37575 4.01694 0
M  V30 13477 O 1319.1 1.21795 3.34731 0
M  V30 13478 O 1317.96 1.6305 5.2161 0
M  V30 13479 H 1315.05 0.212579 0.799211 0
M  V30 13480 H 1317.6 1.11126 1.28254 0
M  V30 13481 H 1316.37 2.30206 3.16419 0
M  V30 13482 H 1315.99 0.754679 3.90372 0
M  V30 13483 N 1316.99 -1.36373 0.789944 0
M  V30 13484 C 1318.24 -1.98834 0.361866 0
M  V30 13485 C 1318.56 -1.63006 -1.07024 0
M  V30 13486 O 1317.83 -0.904312 -1.73779 0
M  V30 13487 H 1316.41 -0.735457 0.130812 0
M  V30 13488 H 1319.07 -1.66561 1.0121 0
M  V30 13489 H 1318.16 -3.08778 0.454122 0
M  V30 13490 N 1318.47 -0.542005 -1.47987 0
M  V30 13491 C 1319.71 -0.0122873 -2.02096 0
M  V30 13492 C 1320.03 1.3362 -1.42024 0
M  V30 13493 O 1319.3 1.86807 -0.589911 0
M  V30 13494 H 1317.88 -0.00155365 -0.746998 0
M  V30 13495 H 1320.55 -0.708566 -1.81564 0
M  V30 13496 H 1319.64 0.0871275 -3.11978 0
M  V30 13497 N 1319.94 1.55134 -0.277709 0
M  V30 13498 C 1321.17 2.04061 0.341601 0
M  V30 13499 C 1321.59 1.15597 1.49274 0
M  V30 13500 O 1320.94 0.176625 1.81643 0
M  V30 13501 C 1320.99 3.52074 0.820139 0
M  V30 13502 O 1320.72 4.37171 -0.28516 0
M  V30 13503 C 1322.22 4.16899 1.507 0
M  V30 13504 H 1319.44 0.666501 0.0775708 0
M  V30 13505 H 1321.98 2.00336 -0.410559 0
M  V30 13506 H 1320.14 3.56233 1.52238 0
M  V30 13507 H 1320.55 5.24434 0.0832022 0
M  V30 13508 H 1322.02 5.22061 1.79323 0
M  V30 13509 H 1322.5 3.65227 2.43939 0
M  V30 13510 H 1323.11 4.16749 0.848541 0
M  V30 13511 N 1321.42 0.00503138 1.57599 0
M  V30 13512 C 1322.65 -0.693231 1.95471 0
M  V30 13513 C 1323.07 -1.66233 0.880246 0
M  V30 13514 O 1322.43 -1.80582 -0.161164 0
M  V30 13515 C 1322.48 -1.39696 3.32442 0
M  V30 13516 O 1321.58 -2.51154 3.27101 0
M  V30 13517 H 1320.92 -0.184015 0.637992 0
M  V30 13518 H 1323.45 0.0597194 2.04513 0
M  V30 13519 H 1323.46 -1.75924 3.68123 0
M  V30 13520 H 1322.14 -0.686438 4.10196 0
M  V30 13521 H 1320.71 -2.17216 3.03103 0
M  V30 13522 N 1322.9 -1.55308 -0.267798 0
M  V30 13523 C 1323.83 -1.91555 -1.33525 0
M  V30 13524 C 1324.81 -0.778001 -1.51265 0
M  V30 13525 O 1326 -1.03657 -1.64222 0
M  V30 13526 C 1323.13 -2.19201 -2.69385 0
M  V30 13527 C 1322.08 -3.3501 -2.66369 0
M  V30 13528 C 1321.41 -3.48148 -4.05829 0
M  V30 13529 C 1322.71 -4.71265 -2.25182 0
M  V30 13530 H 1324.4 -2.80965 -1.03437 0
M  V30 13531 H 1321.95 -1.35183 -0.496141 0
M  V30 13532 H 1323.9 -2.43146 -3.44177 0
M  V30 13533 H 1322.62 -1.26596 -3.01067 0
M  V30 13534 H 1321.28 -3.11041 -1.94034 0
M  V30 13535 H 1320.93 -2.53 -4.34741 0
M  V30 13536 H 1320.63 -4.26014 -4.04704 0
M  V30 13537 H 1322.15 -3.74391 -4.82352 0
M  V30 13538 H 1323.57 -4.94719 -2.89699 0
M  V30 13539 H 1321.96 -5.52084 -2.3521 0
M  V30 13540 H 1323.03 -4.69735 -1.20319 0
M  V30 13541 N 1324.38 0.532545 -1.4833 0
M  V30 13542 C 1325.62 1.29042 -1.56448 0
M  V30 13543 C 1325.96 1.92754 -0.236532 0
M  V30 13544 O 1325.23 1.79154 0.757237 0
M  V30 13545 C 1325.51 2.38173 -2.70084 0
M  V30 13546 C 1325.37 1.79169 -4.12576 0
M  V30 13547 C 1326.69 3.39957 -2.79495 0
M  V30 13548 H 1323.81 0.467816 -0.569488 0
M  V30 13549 H 1326.45 0.593517 -1.80492 0
M  V30 13550 H 1324.6 2.97616 -2.49714 0
M  V30 13551 H 1326.27 1.23797 -4.44378 0
M  V30 13552 H 1324.51 1.09716 -4.19696 0
M  V30 13553 H 1325.18 2.58174 -4.87904 0
M  V30 13554 H 1327.66 2.90466 -2.97941 0
M  V30 13555 H 1326.54 4.13714 -3.60739 0
M  V30 13556 H 1326.8 4.00347 -1.87548 0
M  V30 13557 N 1325.86 1.36875 0.78122 0
M  V30 13558 C 1327.08 1.349 1.57533 0
M  V30 13559 C 1327.51 -0.0655249 1.87986 0
M  V30 13560 O 1326.86 -1.03986 1.48515 0
M  V30 13561 C 1326.91 2.18562 2.86815 0
M  V30 13562 O 1326.02 1.58374 3.80777 0
M  V30 13563 H 1325.36 0.461355 0.477543 0
M  V30 13564 H 1327.89 1.80271 0.96766 0
M  V30 13565 H 1327.9 2.31436 3.36008 0
M  V30 13566 H 1326.57 3.21385 2.63978 0
M  V30 13567 H 1325.15 1.54487 3.39394 0
M  V30 13568 N 1327.33 -1.00632 1.21289 0
M  V30 13569 C 1328.56 -1.78503 1.05601 0
M  V30 13570 C 1328.98 -1.84015 -0.389879 0
M  V30 13571 O 1328.34 -1.28277 -1.2812 0
M  V30 13572 C 1328.39 -3.20313 1.65626 0
M  V30 13573 O 1327.49 -4.02441 0.900841 0
M  V30 13574 H 1326.83 -0.550183 0.371746 0
M  V30 13575 H 1329.36 -1.26505 1.60803 0
M  V30 13576 H 1329.37 -3.70992 1.69792 0
M  V30 13577 H 1328.05 -3.15616 2.7085 0
M  V30 13578 H 1326.63 -3.61009 0.934178 0
M  V30 13579 N 1328.81 -1.02043 -1.20104 0
M  V30 13580 C 1329.74 -0.614421 -2.25271 0
M  V30 13581 C 1330.72 0.37242 -1.65973 0
M  V30 13582 O 1331.91 0.257005 -1.92492 0
M  V30 13583 C 1329.04 0.0442085 -3.47272 0
M  V30 13584 C 1327.99 -0.864019 -4.19188 0
M  V30 13585 C 1327.32 -0.0709551 -5.34653 0
M  V30 13586 C 1328.62 -2.17385 -4.74912 0
M  V30 13587 H 1330.31 -1.49355 -2.59487 0
M  V30 13588 H 1327.86 -0.719591 -1.24731 0
M  V30 13589 H 1329.81 0.339825 -4.20028 0
M  V30 13590 H 1328.53 0.958082 -3.12231 0
M  V30 13591 H 1327.19 -1.1437 -3.48303 0
M  V30 13592 H 1326.84 0.844688 -4.95857 0
M  V30 13593 H 1326.54 -0.67583 -5.83701 0
M  V30 13594 H 1328.07 0.218118 -6.1021 0
M  V30 13595 H 1329.48 -1.94034 -5.39466 0
M  V30 13596 H 1327.88 -2.72991 -5.34412 0
M  V30 13597 H 1328.95 -2.83427 -3.93443 0
M  V30 13598 N 1330.29 1.35952 -0.797165 0
M  V30 13599 C 1331.2 2.33726 -0.202271 0
M  V30 13600 C 1332.22 1.61415 0.649719 0
M  V30 13601 O 1333.39 1.93351 0.563686 0
M  V30 13602 C 1330.46 3.40612 0.64685 0
M  V30 13603 C 1329.52 4.28712 -0.224536 0
M  V30 13604 C 1328.75 5.30493 0.584153 0
M  V30 13605 O 1328.97 5.40599 1.81957 0
M  V30 13606 O 1327.91 6.01897 -0.0200239 0
M  V30 13607 H 1331.73 2.86383 -1.01087 0
M  V30 13608 H 1329.32 1.38557 -0.558768 0
M  V30 13609 H 1331.2 4.05944 1.1308 0
M  V30 13610 H 1329.88 2.90243 1.43321 0
M  V30 13611 H 1328.78 3.66394 -0.755415 0
M  V30 13612 H 1330.12 4.82454 -0.974603 0
M  V30 13613 N 1331.77 0.549846 1.47697 0
M  V30 13614 C 1332.73 -0.191427 2.28399 0
M  V30 13615 C 1333.73 -0.849533 1.36527 0
M  V30 13616 O 1334.92 -0.706526 1.59229 0
M  V30 13617 C 1332.05 -1.27907 3.15995 0
M  V30 13618 H 1333.25 0.517375 2.95404 0
M  V30 13619 H 1330.8 0.30651 1.53265 0
M  V30 13620 H 1331.53 -2.0205 2.53665 0
M  V30 13621 H 1331.32 -0.812066 3.83599 0
M  V30 13622 H 1332.81 -1.79992 3.76819 0
M  V30 13623 N 1333.25 -1.54984 0.285932 0
M  V30 13624 C 1334.47 -2.04699 -0.333621 0
M  V30 13625 C 1334.9 -1.16252 -1.47875 0
M  V30 13626 O 1334.25 -0.163376 -1.80562 0
M  V30 13627 C 1334.3 -3.52022 -0.78187 0
M  V30 13628 O 1333.41 -3.66639 -1.88812 0
M  V30 13629 H 1332.75 -0.660579 -0.0673203 0
M  V30 13630 H 1335.28 -2.00171 0.423386 0
M  V30 13631 H 1335.29 -3.93591 -1.07473 0
M  V30 13632 H 1333.96 -4.15862 0.055893 0
M  V30 13633 H 1332.54 -3.36974 -1.59696 0
M  V30 13634 N 1334.72 -0.0133892 -1.57594 0
M  V30 13635 C 1336.14 0.342848 -1.55874 0
M  V30 13636 C 1336.34 1.73928 -1.01742 0
M  V30 13637 O 1335.4 2.43798 -0.657158 0
M  V30 13638 C 1336.71 0.205831 -2.99995 0
M  V30 13639 C 1338.26 0.279774 -3.11747 0
M  V30 13640 C 1338.73 0.171729 -4.57678 0
M  V30 13641 N 1340.22 0.22921 -4.62633 0
M  V30 13642 C 1340.96 0.169153 -5.7315 0
M  V30 13643 N 1340.45 0.0589166 -6.92775 0
M  V30 13644 N 1342.25 0.221995 -5.61661 0
M  V30 13645 H 1334.4 -0.926727 -1.91117 0
M  V30 13646 H 1336.66 -0.356466 -0.878428 0
M  V30 13647 H 1336.37 -0.755482 -3.4349 0
M  V30 13648 H 1336.24 0.982476 -3.6418 0
M  V30 13649 H 1338.63 1.23154 -2.68174 0
M  V30 13650 H 1338.71 -0.526974 -2.50313 0
M  V30 13651 H 1338.35 -0.776547 -5.01928 0
M  V30 13652 H 1338.28 0.997138 -5.17073 0
M  V30 13653 H 1340.77 0.315196 -3.76583 0
M  V30 13654 H 1341.09 0.0193526 -7.72798 0
M  V30 13655 H 1339.43 0.0243543 -6.94996 0
M  V30 13656 H 1342.62 0.306406 -4.67096 0
M  V30 13657 H 1342.8 0.171727 -6.47772 0
M  V30 13658 N 1336.2 1.55448 0.259558 0
M  V30 13659 C 1337.13 1.85678 1.34373 0
M  V30 13660 C 1338.15 0.742155 1.449 0
M  V30 13661 O 1339.34 1.02015 1.46476 0
M  V30 13662 C 1336.44 2.01668 2.72366 0
M  V30 13663 C 1335.61 3.32434 2.84265 0
M  V30 13664 C 1334.67 3.38322 4.03019 0
M  V30 13665 O 1333.69 4.11616 3.93143 0
M  V30 13666 N 1334.9 2.66697 5.1561 0
M  V30 13667 H 1337.66 2.79261 1.08781 0
M  V30 13668 H 1335.22 1.5553 0.449672 0
M  V30 13669 H 1337.21 2.02963 3.50126 0
M  V30 13670 H 1335.78 1.14889 2.90722 0
M  V30 13671 H 1335 3.43564 1.93281 0
M  V30 13672 H 1336.29 4.18649 2.89155 0
M  V30 13673 H 1335.69 2.06857 5.26523 0
M  V30 13674 H 1334.25 2.73699 5.91551 0
M  V30 13675 N 1337.68 -0.524672 1.4861 0
M  V30 13676 C 1338.92 -1.29064 1.58499 0
M  V30 13677 C 1339.28 -1.90294 0.255378 0
M  V30 13678 O 1340.49 -2.6782 0.229289 0
M  V30 13679 C 1338.76 -2.34693 2.69544 0
M  V30 13680 S 1340.32 -3.20944 2.99233 0
M  V30 13681 H 1337.13 -0.438948 0.559326 0
M  V30 13682 H 1339.74 -0.597119 1.86158 0
M  V30 13683 H 1338.44 -1.88199 3.64704 0
M  V30 13684 H 1337.97 -3.08745 2.43804 0
M  V30 13685 H 1339.99 -4.34883 2.38937 0
M  V30 13686 N 1339.16 -1.37287 -0.77395 0
M  V30 13687 C 1340.09 -1.28746 -1.89624 0
M  V30 13688 C 1341.1 -0.203715 -1.6152 0
M  V30 13689 O 1342.29 -0.459684 -1.72479 0
M  V30 13690 C 1339.39 -0.967342 -3.24801 0
M  V30 13691 C 1338.57 -2.1561 -3.80567 0
M  V30 13692 C 1337.62 -1.80661 -4.94215 0
M  V30 13693 O 1336.65 -2.5293 -5.09917 0
M  V30 13694 N 1337.85 -0.749424 -5.75642 0
M  V30 13695 H 1340.62 -2.25447 -1.97468 0
M  V30 13696 H 1338.18 -1.30883 -0.952956 0
M  V30 13697 H 1340.17 -0.714421 -3.98344 0
M  V30 13698 H 1338.74 -0.0889573 -3.12473 0
M  V30 13699 H 1337.96 -2.57091 -2.98828 0
M  V30 13700 H 1339.25 -2.94993 -4.14556 0
M  V30 13701 H 1338.65 -0.149673 -5.65502 0
M  V30 13702 H 1337.2 -0.556358 -6.49421 0
M  V30 13703 N 1340.64 0.999871 -1.21821 0
M  V30 13704 C 1341.88 1.73497 -1.0365 0
M  V30 13705 C 1342.21 1.90194 0.430271 0
M  V30 13706 O 1341.48 1.45655 1.31002 0
M  V30 13707 H 1340.06 0.642804 -0.380541 0
M  V30 13708 H 1342.72 1.20461 -1.53216 0
M  V30 13709 H 1341.81 2.73215 -1.50864 0
M  V30 13710 N 1342.11 1.02678 1.19562 0
M  V30 13711 C 1343.34 0.741424 1.93695 0
M  V30 13712 C 1343.76 -0.693203 1.74861 0
M  V30 13713 O 1343.12 -1.47833 1.04953 0
M  V30 13714 C 1343.17 1.09514 3.43568 0
M  V30 13715 O 1342.27 0.212596 4.11852 0
M  V30 13716 H 1341.62 0.274128 0.604773 0
M  V30 13717 H 1344.15 1.37289 1.517 0
M  V30 13718 H 1344.16 1.05115 3.94227 0
M  V30 13719 H 1342.83 2.14034 3.56598 0
M  V30 13720 H 1341.41 0.315 3.71567 0
M  V30 13721 N 1343.59 -1.35528 0.804364 0
M  V30 13722 C 1344.87 -1.93175 0.307049 0
M  V30 13723 C 1345.25 -1.73466 -1.20303 0
M  V30 13724 O 1344.6 -1.10235 -2.00151 0
M  V30 13725 C 1344.81 -3.41576 0.716018 0
M  V30 13726 C 1346.16 -4.18719 0.704242 0
M  V30 13727 O 1347.18 -3.50081 0.657423 0
M  V30 13728 O 1346.04 -5.41181 0.760601 0
M  V30 13729 H 1343.13 -0.823142 0.0797888 0
M  V30 13730 H 1345.68 -1.44617 0.887912 0
M  V30 13731 H 1344.45 -3.49642 1.75688 0
M  V30 13732 H 1344.07 -3.97448 0.109843 0
M  V30 13733 N 1345.07 -0.557671 -1.47404 0
M  V30 13734 C 1346 0.237612 -2.2696 0
M  V30 13735 C 1346.98 0.919871 -1.34079 0
M  V30 13736 O 1348.17 0.938767 -1.63461 0
M  V30 13737 C 1345.29 1.33863 -3.11124 0
M  V30 13738 C 1344.34 0.764877 -4.19585 0
M  V30 13739 S 1345.17 -0.388893 -5.34086 0
M  V30 13740 C 1346.33 0.713932 -6.21815 0
M  V30 13741 H 1346.56 -0.437477 -2.94064 0
M  V30 13742 H 1344.09 -0.344004 -1.50519 0
M  V30 13743 H 1346.05 1.96917 -3.60186 0
M  V30 13744 H 1344.71 1.98556 -2.43381 0
M  V30 13745 H 1343.91 1.5917 -4.78206 0
M  V30 13746 H 1343.51 0.210502 -3.73407 0
M  V30 13747 H 1345.8 1.60592 -6.58192 0
M  V30 13748 H 1346.74 0.165069 -7.07908 0
M  V30 13749 H 1347.15 1.00681 -5.55449 0
M  V30 13750 N 1346.55 1.54831 -0.294147 0
M  V30 13751 C 1347.77 2.04873 0.32276 0
M  V30 13752 C 1348.2 1.17034 1.47257 0
M  V30 13753 O 1347.56 0.172949 1.80473 0
M  V30 13754 C 1347.61 3.52431 0.76319 0
M  V30 13755 O 1346.71 3.67635 1.86865 0
M  V30 13756 H 1346.05 0.660926 0.0638162 0
M  V30 13757 H 1348.58 1.99944 -0.433995 0
M  V30 13758 H 1348.59 3.94155 1.05385 0
M  V30 13759 H 1347.27 4.15827 -0.0779464 0
M  V30 13760 H 1345.84 3.37816 1.57907 0
M  V30 13761 N 1348.03 0.0217466 1.57585 0
M  V30 13762 C 1348.99 -0.947546 2.08696 0
M  V30 13763 C 1349.99 -1.25879 1.00055 0
M  V30 13764 O 1351.18 -1.20035 1.26242 0
M  V30 13765 C 1348.31 -2.26624 2.54665 0
M  V30 13766 H 1349.51 -0.505016 2.95617 0
M  V30 13767 H 1347.06 -0.226152 1.54655 0
M  V30 13768 H 1347.79 -2.75521 1.71052 0
M  V30 13769 H 1347.58 -2.05347 3.34028 0
M  V30 13770 H 1349.07 -2.96114 2.94459 0
M  V30 13771 N 1349.51 -1.55583 -0.251311 0
M  V30 13772 C 1350.75 -1.77471 -0.981418 0
M  V30 13773 C 1351.08 -0.586228 -1.85141 0
M  V30 13774 O 1350.36 0.415623 -1.90007 0
M  V30 13775 C 1350.64 -3.09204 -1.84567 0
M  V30 13776 C 1350.5 -4.38448 -1.00417 0
M  V30 13777 C 1351.81 -3.37133 -2.82895 0
M  V30 13778 H 1348.93 -0.645664 -0.355369 0
M  V30 13779 H 1351.58 -1.88318 -0.252228 0
M  V30 13780 H 1349.73 -3.00087 -2.46738 0
M  V30 13781 H 1351.4 -4.5955 -0.40149 0
M  V30 13782 H 1349.64 -4.32703 -0.308365 0
M  V30 13783 H 1350.31 -5.26995 -1.64258 0
M  V30 13784 H 1352.79 -3.46183 -2.3086 0
M  V30 13785 H 1351.66 -4.30531 -3.40491 0
M  V30 13786 H 1351.92 -2.57829 -3.59133 0
M  V30 13787 N 1350.98 0.516783 -1.48886 0
M  V30 13788 C 1351.91 1.62897 -1.67292 0
M  V30 13789 C 1352.89 1.61903 -0.521671 0
M  V30 13790 O 1354.08 1.78892 -0.755728 0
M  V30 13791 C 1351.21 3.01444 -1.72478 0
M  V30 13792 C 1350.16 3.173 -2.87236 0
M  V30 13793 C 1349.49 4.5704 -2.77522 0
M  V30 13794 C 1350.79 2.98818 -4.28375 0
M  V30 13795 H 1352.48 1.47748 -2.60405 0
M  V30 13796 H 1350.03 0.709361 -1.25316 0
M  V30 13797 H 1351.98 3.79135 -1.83942 0
M  V30 13798 H 1350.71 3.17645 -0.759538 0
M  V30 13799 H 1349.37 2.4203 -2.75349 0
M  V30 13800 H 1349.01 4.70096 -1.78938 0
M  V30 13801 H 1348.71 4.68593 -3.54534 0
M  V30 13802 H 1350.24 5.36813 -2.90972 0
M  V30 13803 H 1351.65 3.66291 -4.41026 0
M  V30 13804 H 1350.05 3.21854 -5.06488 0
M  V30 13805 H 1351.12 1.95102 -4.43918 0
M  V30 13806 N 1352.46 1.37696 0.766659 0
M  V30 13807 C 1353.37 1.36075 1.91104 0
M  V30 13808 C 1354.39 0.259617 1.72052 0
M  V30 13809 O 1355.56 0.49586 1.952 0
M  V30 13810 C 1352.63 1.17176 3.26298 0
M  V30 13811 C 1351.69 2.36975 3.57968 0
M  V30 13812 C 1350.92 2.18968 4.86712 0
M  V30 13813 O 1351.15 1.17658 5.58133 0
M  V30 13814 O 1350.08 3.07269 5.17561 0
M  V30 13815 H 1353.91 2.32472 1.95424 0
M  V30 13816 H 1351.49 1.18478 0.910122 0
M  V30 13817 H 1353.37 1.08645 4.07154 0
M  V30 13818 H 1352.05 0.238559 3.2282 0
M  V30 13819 H 1350.95 2.51079 2.77327 0
M  V30 13820 H 1352.29 3.2888 3.66195 0
M  V30 13821 N 1353.94 -0.993397 1.22349 0
M  V30 13822 C 1355.16 -1.77373 1.07488 0
M  V30 13823 C 1355.59 -1.84418 -0.37034 0
M  V30 13824 O 1354.95 -1.29629 -1.26752 0
M  V30 13825 C 1355 -3.18538 1.69014 0
M  V30 13826 O 1354.1 -4.01463 0.943474 0
M  V30 13827 H 1353.44 -0.546209 0.37756 0
M  V30 13828 H 1355.97 -1.24792 1.62136 0
M  V30 13829 H 1355.98 -3.6917 1.73717 0
M  V30 13830 H 1354.66 -3.12725 2.74182 0
M  V30 13831 H 1353.23 -3.59998 0.972415 0
M  V30 13832 N 1355.42 -1.03311 -1.19015 0
M  V30 13833 C 1356.64 -0.751686 -1.93299 0
M  V30 13834 C 1357.07 0.68392 -1.75226 0
M  V30 13835 O 1356.43 1.47274 -1.05736 0
M  V30 13836 C 1356.47 -1.11335 -3.42982 0
M  V30 13837 O 1355.58 -0.234434 -4.11733 0
M  V30 13838 H 1354.92 -0.277331 -0.60331 0
M  V30 13839 H 1357.45 -1.38092 -1.5097 0
M  V30 13840 H 1357.46 -1.07204 -3.93664 0
M  V30 13841 H 1356.13 -2.15922 -3.55458 0
M  V30 13842 H 1354.71 -0.3347 -3.71395 0
M  V30 13843 N 1356.9 1.35099 -0.81154 0
M  V30 13844 C 1358.31 1.51701 -0.495883 0
M  V30 13845 C 1358.51 1.7595 0.982035 0
M  V30 13846 O 1357.57 1.8038 1.7669 0
M  V30 13847 C 1358.88 2.68916 -1.34554 0
M  V30 13848 C 1360.43 2.82795 -1.34149 0
M  V30 13849 C 1360.9 4.0304 -2.17538 0
M  V30 13850 N 1362.39 4.10227 -2.151 0
M  V30 13851 C 1363.13 5.02397 -2.76377 0
M  V30 13852 N 1362.63 5.99866 -3.46601 0
M  V30 13853 N 1364.42 4.95181 -2.65992 0
M  V30 13854 H 1356.57 1.17617 -1.76862 0
M  V30 13855 H 1358.83 0.575875 -0.753042 0
M  V30 13856 H 1358.54 2.57591 -2.39458 0
M  V30 13857 H 1358.41 3.63641 -1.00223 0
M  V30 13858 H 1360.8 2.93568 -0.300285 0
M  V30 13859 H 1360.88 1.88912 -1.7247 0
M  V30 13860 H 1360.52 3.93027 -3.21702 0
M  V30 13861 H 1360.45 4.96114 -1.76574 0
M  V30 13862 H 1362.95 3.40454 -1.6401 0
M  V30 13863 H 1363.26 6.66803 -3.90632 0
M  V30 13864 H 1361.6 6.00025 -3.50706 0
M  V30 13865 H 1364.79 4.17991 -2.10715 0
M  V30 13866 H 1364.97 5.6682 -3.14036 0
M  V30 13867 N 1358.37 0.56548 1.47106 0
M  V30 13868 C 1359.34 -0.167191 2.28589 0
M  V30 13869 C 1360.34 -0.835005 1.3742 0
M  V30 13870 O 1361.53 -0.689598 1.59969 0
M  V30 13871 C 1358.66 -1.24548 3.17333 0
M  V30 13872 H 1359.85 0.548677 2.94838 0
M  V30 13873 H 1357.4 0.322749 1.52931 0
M  V30 13874 H 1358.14 -1.99348 2.55794 0
M  V30 13875 H 1357.92 -0.771335 3.84438 0
M  V30 13876 H 1359.41 -1.75985 3.78707 0
M  V30 13877 N 1359.85 -1.54672 0.302354 0
M  V30 13878 C 1361.08 -2.04578 -0.309093 0
M  V30 13879 C 1361.5 -1.17957 -1.47416 0
M  V30 13880 O 1360.85 -0.2055 -1.81339 0
M  V30 13881 C 1360.9 -3.53334 -0.764023 0
M  V30 13882 O 1360.62 -4.36662 0.354674 0
M  V30 13883 C 1362.13 -4.19243 -1.44048 0
M  V30 13884 H 1359.35 -0.667651 -0.0669575 0
M  V30 13885 H 1361.89 -1.99658 0.442379 0
M  V30 13886 H 1360.04 -3.5861 -1.46552 0
M  V30 13887 H 1360.46 -5.245 0.000241188 0
M  V30 13888 H 1361.93 -5.24847 -1.70995 0
M  V30 13889 H 1362.41 -3.69061 -2.38098 0
M  V30 13890 H 1363.02 -4.18046 -0.782132 0
M  V30 13891 N 1361.33 -0.0301034 -1.57571 0
M  V30 13892 C 1362.28 0.969425 -2.11435 0
M  V30 13893 C 1363.27 1.33627 -1.04116 0
M  V30 13894 O 1364.48 1.31839 -1.2255 0
M  V30 13895 H 1360.85 0.330407 -0.675526 0
M  V30 13896 H 1362.82 0.489828 -2.94352 0
M  V30 13897 C 1361.57 2.24233 -2.65734 0
M  V30 13898 H 1360.9 1.9688 -3.47963 0
M  V30 13899 H 1362.34 2.92378 -3.07068 0
M  V30 13900 C 1360.8 2.97274 -1.58524 0
M  V30 13901 O 1361.33 3.8942 -0.985641 0
M  V30 13902 N 1359.53 2.59627 -1.30545 0
M  V30 13903 H 1359.08 1.84773 -1.79491 0
M  V30 13904 H 1359.04 3.08807 -0.590372 0
M  V30 13905 N 1362.81 1.55714 0.243056 0
M  V30 13906 C 1364.06 1.77375 0.968638 0
M  V30 13907 C 1364.38 0.594781 1.85708 0
M  V30 13908 O 1363.65 -0.38928 1.91993 0
M  V30 13909 H 1362.23 0.654174 0.360646 0
M  V30 13910 H 1364.89 1.93157 0.260079 0
M  V30 13911 H 1363.99 2.68674 1.5881 0
M  V30 13912 N 1364.29 -0.50888 1.49158 0
M  V30 13913 C 1365.51 -1.28771 1.61943 0
M  V30 13914 C 1365.93 -1.86594 0.287759 0
M  V30 13915 O 1365.29 -1.67448 -0.725769 0
M  V30 13916 C 1365.34 -2.4236 2.68224 0
M  V30 13917 O 1365.06 -1.86915 3.96225 0
M  V30 13918 C 1366.56 -3.33856 2.91642 0
M  V30 13919 H 1363.78 -0.390849 0.545416 0
M  V30 13920 H 1366.32 -0.611729 1.95136 0
M  V30 13921 H 1364.48 -3.05803 2.37831 0
M  V30 13922 H 1364.89 -2.61426 4.54705 0
M  V30 13923 H 1366.37 -4.09856 3.69759 0
M  V30 13924 H 1366.84 -3.90374 2.01258 0
M  V30 13925 H 1367.45 -2.76187 3.23421 0
M  V30 13926 N 1365.76 -1.381 -0.759346 0
M  V30 13927 C 1367.18 -1.19171 -1.06162 0
M  V30 13928 C 1367.38 -0.0364043 -2.01467 0
M  V30 13929 O 1366.44 0.619635 -2.44779 0
M  V30 13930 C 1367.75 -2.51569 -1.64723 0
M  V30 13931 C 1369.3 -2.58201 -1.76921 0
M  V30 13932 C 1369.77 -3.9076 -2.38894 0
M  V30 13933 N 1371.26 -3.92269 -2.46331 0
M  V30 13934 C 1372 -4.91595 -2.95164 0
M  V30 13935 N 1371.49 -6.01318 -3.44075 0
M  V30 13936 N 1373.29 -4.7899 -2.94152 0
M  V30 13937 H 1365.44 -2.12021 -0.126788 0
M  V30 13938 H 1367.7 -0.940517 -0.118877 0
M  V30 13939 H 1367.41 -3.36535 -1.02162 0
M  V30 13940 H 1367.28 -2.69551 -2.6386 0
M  V30 13941 H 1369.67 -1.73634 -2.38611 0
M  V30 13942 H 1369.75 -2.44092 -0.765047 0
M  V30 13943 H 1369.39 -4.75747 -1.7784 0
M  V30 13944 H 1369.32 -4.02179 -3.39941 0
M  V30 13945 H 1371.81 -3.13015 -2.11731 0
M  V30 13946 H 1372.13 -6.73046 -3.79776 0
M  V30 13947 H 1370.47 -6.04946 -3.42148 0
M  V30 13948 H 1373.66 -3.92385 -2.55248 0
M  V30 13949 H 1373.84 -5.5655 -3.31897 0
M  V30 13950 N 1367.24 0.986894 -1.22875 0
M  V30 13951 C 1368.21 2.0597 -1.00544 0
M  V30 13952 C 1369.21 1.60771 0.0303509 0
M  V30 13953 O 1370.4 1.72945 -0.208753 0
M  V30 13954 C 1367.53 3.36911 -0.519962 0
M  V30 13955 H 1368.72 2.27213 -1.9574 0
M  V30 13956 H 1366.27 1.15935 -1.04827 0
M  V30 13957 H 1367.01 3.21355 0.436078 0
M  V30 13958 H 1366.79 3.71054 -1.26732 0
M  V30 13959 H 1368.28 4.15829 -0.384166 0
M  V30 13960 N 1368.72 1.0394 1.18466 0
M  V30 13961 C 1370.13 0.77011 1.70077 0
M  V30 13962 C 1370.48 -0.70916 1.82935 0
M  V30 13963 O 1369.61 -1.55209 1.50795 0
M  V30 13964 C 1370.2 1.39132 3.08914 0
M  V30 13965 C 1368.76 1.17037 3.57742 0
M  V30 13966 C 1367.91 1.48279 2.34326 0
M  V30 13967 H 1370.86 1.20598 1.03159 0
M  V30 13968 H 1370.88 0.793861 3.72126 0
M  V30 13969 H 1370.39 2.46795 2.99523 0
M  V30 13970 H 1368.49 0.112435 3.7243 0
M  V30 13971 H 1368.61 1.8665 4.41247 0
M  V30 13972 H 1366.97 0.902438 2.38177 0
M  V30 13973 H 1367.75 2.57047 2.27556 0
M  V30 13974 N 1370.2 -1.34667 0.818693 0
M  V30 13975 C 1371.48 -1.92838 0.327521 0
M  V30 13976 C 1371.86 -1.74732 -1.18457 0
M  V30 13977 O 1371.2 -1.12352 -1.98971 0
M  V30 13978 C 1371.41 -3.40797 0.752207 0
M  V30 13979 C 1372.76 -4.17948 0.748613 0
M  V30 13980 O 1373.79 -3.49364 0.694517 0
M  V30 13981 O 1372.64 -5.40344 0.817958 0
M  V30 13982 H 1369.74 -0.822249 0.0885148 0
M  V30 13983 H 1372.28 -1.43668 0.9032 0
M  V30 13984 H 1371.06 -3.47759 1.79387 0
M  V30 13985 H 1370.68 -3.97309 0.151992 0
M  V30 13986 N 1371.68 -0.573274 -1.46804 0
M  V30 13987 C 1372.92 -0.0551522 -2.02025 0
M  V30 13988 C 1373.25 1.30577 -1.44826 0
M  V30 13989 O 1372.52 1.85514 -0.629403 0
M  V30 13990 H 1371.1 -0.0173982 -0.746797 0
M  V30 13991 H 1373.76 -0.746919 -1.8002 0
M  V30 13992 H 1372.85 0.0209326 -3.12093 0
M  V30 13993 N 1373.15 1.5451 -0.310553 0
M  V30 13994 C 1374.38 2.04739 0.29824 0
M  V30 13995 C 1374.8 1.18737 1.46788 0
M  V30 13996 O 1374.15 0.215114 1.81228 0
M  V30 13997 C 1374.21 3.53734 0.745274 0
M  V30 13998 O 1373.93 4.36468 -0.377826 0
M  V30 13999 C 1375.43 4.20001 1.41823 0
M  V30 14000 H 1372.65 0.667997 0.0634159 0
M  V30 14001 H 1375.19 1.9942 -0.452961 0
M  V30 14002 H 1373.35 3.59383 1.44648 0
M  V30 14003 H 1373.76 5.24492 -0.0280567 0
M  V30 14004 H 1375.23 5.25747 1.68209 0
M  V30 14005 H 1375.71 3.70319 2.36137 0
M  V30 14006 H 1376.32 4.18455 0.759951 0
M  V30 14007 N 1374.63 0.0384594 1.57553 0
M  V30 14008 C 1375.56 -0.938444 2.13812 0
M  V30 14009 C 1376.54 -1.33307 1.05657 0
M  V30 14010 O 1377.73 -1.41003 1.33535 0
M  V30 14011 C 1374.86 -2.21764 2.67279 0
M  V30 14012 C 1373.81 -1.96347 3.80305 0
M  V30 14013 C 1373.14 -3.30612 4.20238 0
M  V30 14014 C 1374.44 -1.2952 5.05986 0
M  V30 14015 H 1376.13 -0.469887 2.9569 0
M  V30 14016 H 1373.68 -0.224576 1.42238 0
M  V30 14017 H 1375.63 -2.90493 3.05273 0
M  V30 14018 H 1374.36 -2.70802 1.82576 0
M  V30 14019 H 1373.02 -1.30033 3.42764 0
M  V30 14020 H 1372.66 -3.77427 3.32502 0
M  V30 14021 H 1372.36 -3.14409 4.96408 0
M  V30 14022 H 1373.89 -4.00594 4.60822 0
M  V30 14023 H 1375.3 -1.88264 5.41507 0
M  V30 14024 H 1373.7 -1.23685 5.87216 0
M  V30 14025 H 1374.77 -0.269439 4.84151 0
M  V30 14026 N 1376.11 -1.55841 -0.234795 0
M  V30 14027 C 1377.36 -1.79415 -0.958219 0
M  V30 14028 C 1377.71 -0.609349 -1.82496 0
M  V30 14029 O 1377.01 0.397051 -1.87441 0
M  V30 14030 C 1377.2 -3.06262 -1.84223 0
M  V30 14031 C 1377.03 -4.36966 -1.06256 0
M  V30 14032 C 1375.8 -4.99509 -0.762795 0
M  V30 14033 C 1378 -5.12463 -0.434262 0
M  V30 14034 N 1375.98 -6.13887 0.0396694 0
M  V30 14035 C 1377.35 -6.19565 0.232209 0
M  V30 14036 C 1379.4 -4.96697 -0.345951 0
M  V30 14037 C 1378.11 -7.12613 0.978527 0
M  V30 14038 C 1380.13 -5.90133 0.386865 0
M  V30 14039 C 1379.5 -6.96651 1.04193 0
M  V30 14040 H 1375.59 -0.708334 -0.331342 0
M  V30 14041 H 1378.18 -1.93334 -0.230254 0
M  V30 14042 H 1376.35 -2.9365 -2.54213 0
M  V30 14043 H 1378.08 -3.18081 -2.50213 0
M  V30 14044 H 1374.84 -4.61178 -1.07757 0
M  V30 14045 H 1375.26 -6.75637 0.429349 0
M  V30 14046 H 1379.9 -4.14411 -0.83806 0
M  V30 14047 H 1377.62 -7.94391 1.4822 0
M  V30 14048 H 1381.21 -5.8001 0.456023 0
M  V30 14049 H 1380.09 -7.67706 1.59992 0
M  V30 14050 N 1377.59 0.500963 -1.49426 0
M  V30 14051 C 1378.84 1.25261 -1.58601 0
M  V30 14052 C 1379.16 1.93056 -0.274647 0
M  V30 14053 O 1378.43 1.82736 0.706003 0
M  V30 14054 H 1377.01 0.465328 -0.584362 0
M  V30 14055 H 1379.67 0.580588 -1.86052 0
M  V30 14056 H 1378.77 2.01652 -2.38208 0
M  V30 14057 N 1379.07 1.38501 0.752011 0
M  V30 14058 C 1379.98 1.38094 1.8965 0
M  V30 14059 C 1380.99 0.277851 1.71767 0
M  V30 14060 O 1382.17 0.516536 1.94663 0
M  V30 14061 C 1379.23 1.2063 3.25037 0
M  V30 14062 C 1378.3 2.40758 3.55435 0
M  V30 14063 C 1377.53 2.24118 4.84362 0
M  V30 14064 O 1377.75 1.23571 5.56854 0
M  V30 14065 O 1376.69 3.12741 5.14273 0
M  V30 14066 H 1380.51 2.34532 1.92947 0
M  V30 14067 H 1378.1 1.19437 0.897504 0
M  V30 14068 H 1379.98 1.12957 4.05979 0
M  V30 14069 H 1378.65 0.272785 3.22549 0
M  V30 14070 H 1377.56 2.54006 2.74648 0
M  V30 14071 H 1378.89 3.32745 3.62686 0
M  V30 14072 N 1380.55 -0.980364 1.23396 0
M  V30 14073 C 1381.79 -1.72501 1.07772 0
M  V30 14074 C 1382.15 -1.88581 -0.381434 0
M  V30 14075 O 1381.44 -1.42702 -1.27854 0
M  V30 14076 C 1381.63 -3.12367 1.73671 0
M  V30 14077 C 1381.46 -3.09928 3.25844 0
M  V30 14078 C 1380.23 -3.15117 3.95006 0
M  V30 14079 C 1382.43 -2.93093 4.22612 0
M  V30 14080 N 1380.41 -3.02564 5.34161 0
M  V30 14081 C 1381.78 -2.88703 5.48681 0
M  V30 14082 C 1383.84 -2.77578 4.13346 0
M  V30 14083 C 1382.54 -2.70386 6.66546 0
M  V30 14084 C 1384.57 -2.60625 5.30875 0
M  V30 14085 C 1383.93 -2.56933 6.55869 0
M  V30 14086 H 1380.03 -0.640325 0.448897 0
M  V30 14087 H 1382.61 -1.16332 1.56125 0
M  V30 14088 H 1380.78 -3.66754 1.27851 0
M  V30 14089 H 1382.52 -3.75465 1.51023 0
M  V30 14090 H 1379.27 -3.23298 3.46086 0
M  V30 14091 H 1379.69 -2.99563 6.07117 0
M  V30 14092 H 1384.34 -2.79223 3.17481 0
M  V30 14093 H 1382.05 -2.67486 7.62546 0
M  V30 14094 H 1385.64 -2.49584 5.25547 0
M  V30 14095 H 1384.52 -2.43979 7.45281 0
M  V30 14096 N 1382.02 -1.04567 -1.17913 0
M  V30 14097 C 1383.27 -0.750538 -1.87647 0
M  V30 14098 C 1383.59 0.72423 -1.81052 0
M  V30 14099 O 1382.86 1.52292 -1.23223 0
M  V30 14100 H 1381.44 -0.274636 -0.694683 0
M  V30 14101 H 1384.1 -1.32349 -1.43072 0
M  V30 14102 H 1383.2 -1.05987 -2.93553 0
M  V30 14103 N 1383.5 1.34231 -0.825823 0
M  V30 14104 C 1384.73 2.02949 -0.427354 0
M  V30 14105 C 1385.15 1.61772 0.959755 0
M  V30 14106 O 1384.51 0.803799 1.62508 0
M  V30 14107 C 1384.56 3.56522 -0.540799 0
M  V30 14108 O 1383.66 4.10065 0.438213 0
M  V30 14109 H 1383 0.640378 -0.175535 0
M  V30 14110 H 1385.53 1.71416 -1.11704 0
M  V30 14111 H 1385.54 4.05857 -0.41763 0
M  V30 14112 H 1384.22 3.85839 -1.55246 0
M  V30 14113 H 1382.79 3.71894 0.273687 0
M  V30 14114 N 1384.98 0.581051 1.46498 0
M  V30 14115 C 1385.91 -0.140957 2.33074 0
M  V30 14116 C 1386.89 -0.885323 1.45245 0
M  V30 14117 O 1388.08 -0.86111 1.74065 0
M  V30 14118 C 1385.21 -1.15625 3.27488 0
M  V30 14119 C 1384.16 -0.526829 4.24745 0
M  V30 14120 C 1383.49 -1.64847 5.08655 0
M  V30 14121 C 1384.79 0.53492 5.19554 0
M  V30 14122 H 1386.48 0.581888 2.93691 0
M  V30 14123 H 1384.03 0.281278 1.41226 0
M  V30 14124 H 1385.98 -1.6697 3.8691 0
M  V30 14125 H 1384.7 -1.90935 2.64974 0
M  V30 14126 H 1383.36 -0.0344738 3.66584 0
M  V30 14127 H 1383.01 -2.3912 4.42528 0
M  V30 14128 H 1382.71 -1.23298 5.74518 0
M  V30 14129 H 1384.23 -2.16472 5.7094 0
M  V30 14130 H 1385.65 0.106606 5.73201 0
M  V30 14131 H 1384.04 0.870639 5.93751 0
M  V30 14132 H 1385.11 1.42184 4.63586 0
M  V30 14133 N 1386.46 -1.54343 0.318742 0
M  V30 14134 C 1387.69 -2.04894 -0.287378 0
M  V30 14135 C 1388.1 -1.19514 -1.46157 0
M  V30 14136 O 1387.46 -0.224722 -1.81111 0
M  V30 14137 C 1387.51 -3.54124 -0.726505 0
M  V30 14138 O 1387.23 -4.36261 0.400968 0
M  V30 14139 C 1388.73 -4.20748 -1.39594 0
M  V30 14140 H 1385.95 -0.668323 -0.0598724 0
M  V30 14141 H 1388.49 -1.99177 0.463531 0
M  V30 14142 H 1386.65 -3.60145 -1.4274 0
M  V30 14143 H 1387.06 -5.2447 0.0558714 0
M  V30 14144 H 1388.54 -5.26632 -1.65418 0
M  V30 14145 H 1389.01 -3.71566 -2.3417 0
M  V30 14146 H 1389.62 -4.18852 -0.737749 0
M  V30 14147 N 1387.94 -0.0468143 -1.5753 0
M  V30 14148 C 1388.9 0.914225 -2.10177 0
M  V30 14149 C 1389.9 1.24271 -1.02045 0
M  V30 14150 O 1391.09 1.18012 -1.28136 0
M  V30 14151 C 1388.22 2.22544 -2.58238 0
M  V30 14152 H 1389.41 0.457922 -2.96383 0
M  V30 14153 H 1386.97 0.20152 -1.54995 0
M  V30 14154 H 1387.7 2.72765 -1.75413 0
M  V30 14155 H 1387.49 2.00007 -3.37253 0
M  V30 14156 H 1388.98 2.91392 -2.99133 0
M  V30 14157 N 1389.41 1.55964 0.226527 0
M  V30 14158 C 1390.64 1.82558 0.967269 0
M  V30 14159 C 1391.05 0.623034 1.78647 0
M  V30 14160 O 1390.4 -0.41779 1.78886 0
M  V30 14161 C 1390.46 3.02812 1.93766 0
M  V30 14162 C 1390.12 4.38017 1.30345 0
M  V30 14163 C 1391.12 5.15223 0.695793 0
M  V30 14164 C 1388.8 4.84735 1.31671 0
M  V30 14165 C 1390.8 6.37305 0.109849 0
M  V30 14166 C 1388.48 6.06761 0.726919 0
M  V30 14167 C 1389.48 6.82886 0.124537 0
M  V30 14168 O 1389.17 8.02605 -0.45609 0
M  V30 14169 H 1388.9 0.610967 0.289301 0
M  V30 14170 H 1391.46 2.03892 0.248407 0
M  V30 14171 H 1389.69 2.77283 2.69538 0
M  V30 14172 H 1391.38 3.16321 2.54353 0
M  V30 14173 H 1392.14 4.80239 0.677912 0
M  V30 14174 H 1388.02 4.2546 1.77496 0
M  V30 14175 H 1391.56 6.96666 -0.360953 0
M  V30 14176 H 1387.46 6.41219 0.742196 0
M  V30 14177 H 1388.23 8.17752 -0.349926 0
M  V30 14178 N 1390.89 -0.493031 1.4969 0
M  V30 14179 C 1392.12 -1.27517 1.63567 0
M  V30 14180 C 1392.54 -1.85526 0.310105 0
M  V30 14181 O 1391.9 -1.66246 -0.723314 0
M  V30 14182 C 1391.95 -2.37551 2.71296 0
M  V30 14183 O 1391.05 -3.41617 2.31023 0
M  V30 14184 H 1390.39 -0.376116 0.547205 0
M  V30 14185 H 1392.92 -0.589328 1.95929 0
M  V30 14186 H 1392.93 -2.83196 2.93708 0
M  V30 14187 H 1391.61 -1.94697 3.67513 0
M  V30 14188 H 1390.19 -3.01836 2.18974 0
M  V30 14189 N 1392.37 -1.38898 -0.744656 0
M  V30 14190 C 1393.6 -1.3903 -1.53901 0
M  V30 14191 C 1394.02 0.0156607 -1.88093 0
M  V30 14192 O 1393.38 1.00012 -1.51219 0
M  V30 14193 C 1393.43 -2.2609 -2.80919 0
M  V30 14194 O 1392.53 -1.68414 -3.76444 0
M  V30 14195 H 1391.87 -0.473854 -0.465144 0
M  V30 14196 H 1394.4 -1.82773 -0.919525 0
M  V30 14197 H 1394.41 -2.40264 -3.29754 0
M  V30 14198 H 1393.09 -3.28271 -2.55364 0
M  V30 14199 H 1391.66 -1.63431 -3.35179 0
M  V30 14200 N 1393.85 0.973806 -1.23914 0
M  V30 14201 C 1395.13 1.69087 -0.9833 0
M  V30 14202 C 1395.51 2.05186 0.49619 0
M  V30 14203 O 1394.85 1.75021 1.46901 0
M  V30 14204 C 1395.06 2.92739 -1.90012 0
M  V30 14205 C 1396.41 3.65112 -2.16745 0
M  V30 14206 O 1397.44 3.02785 -1.87616 0
M  V30 14207 O 1396.29 4.77293 -2.66183 0
M  V30 14208 H 1393.39 0.738919 -0.371386 0
M  V30 14209 H 1395.93 1.02844 -1.34986 0
M  V30 14210 H 1394.71 2.6271 -2.89999 0
M  V30 14211 H 1394.33 3.66718 -1.53635 0
M  V30 14212 N 1395.33 1.05191 1.17357 0
M  V30 14213 C 1396.57 0.772902 1.88143 0
M  V30 14214 C 1396.93 -0.692542 1.79504 0
M  V30 14215 O 1396.22 -1.49992 1.19219 0
M  V30 14216 C 1396.41 1.18779 3.37085 0
M  V30 14217 C 1396.24 2.69203 3.60222 0
M  V30 14218 C 1395.01 3.36512 3.76945 0
M  V30 14219 C 1397.21 3.67423 3.59867 0
M  V30 14220 N 1395.19 4.758 3.87927 0
M  V30 14221 C 1396.56 4.92441 3.76699 0
M  V30 14222 C 1398.62 3.60893 3.43017 0
M  V30 14223 C 1397.32 6.11709 3.78425 0
M  V30 14224 C 1399.35 4.796 3.46031 0
M  V30 14225 C 1398.71 6.03441 3.63371 0
M  V30 14226 H 1394.81 0.335055 0.706585 0
M  V30 14227 H 1397.39 1.34385 1.40886 0
M  V30 14228 H 1395.56 0.644801 3.8301 0
M  V30 14229 H 1397.3 0.85862 3.95487 0
M  V30 14230 H 1394.05 2.86913 3.768 0
M  V30 14231 H 1394.48 5.48225 3.97213 0
M  V30 14232 H 1399.12 2.66112 3.28548 0
M  V30 14233 H 1396.84 7.06833 3.91679 0
M  V30 14234 H 1400.42 4.762 3.34252 0
M  V30 14235 H 1399.3 6.93759 3.65607 0
M  V30 14236 N 1396.8 -1.33791 0.83293 0
M  V30 14237 C 1397.74 -2.28148 0.219336 0
M  V30 14238 C 1398.75 -1.51477 -0.596529 0
M  V30 14239 O 1399.94 -1.73377 -0.424571 0
M  V30 14240 C 1397.04 -3.31373 -0.710305 0
M  V30 14241 C 1396.21 -4.37352 0.0649215 0
M  V30 14242 C 1395.27 -5.20279 -0.78716 0
M  V30 14243 O 1394.3 -5.68741 -0.228511 0
M  V30 14244 N 1395.5 -5.40973 -2.10544 0
M  V30 14245 H 1398.26 -2.81443 1.03004 0
M  V30 14246 H 1395.82 -1.46421 0.690831 0
M  V30 14247 H 1397.82 -3.83752 -1.28517 0
M  V30 14248 H 1396.39 -2.78398 -1.42173 0
M  V30 14249 H 1395.61 -3.85553 0.821144 0
M  V30 14250 H 1396.89 -5.05271 0.598199 0
M  V30 14251 H 1396.29 -5.03291 -2.58292 0
M  V30 14252 H 1394.85 -5.96432 -2.62893 0
M  V30 14253 N 1398.28 -0.588812 -1.46187 0
M  V30 14254 C 1399.51 -0.0806571 -2.07243 0
M  V30 14255 C 1399.93 1.21766 -1.43369 0
M  V30 14256 O 1399.29 1.73694 -0.51964 0
M  V30 14257 C 1399.34 0.065267 -3.60541 0
M  V30 14258 O 1398.44 1.12026 -3.96893 0
M  V30 14259 H 1397.78 -0.0655622 -0.660755 0
M  V30 14260 H 1400.31 -0.813489 -1.87733 0
M  V30 14261 H 1400.32 0.269494 -4.07109 0
M  V30 14262 H 1399 -0.88284 -4.06422 0
M  V30 14263 H 1397.58 0.894 -3.62025 0
M  V30 14264 N 1399.76 1.54172 -0.326923 0
M  V30 14265 C 1401.01 2.00233 0.274098 0
M  V30 14266 C 1401.33 1.21665 1.5239 0
M  V30 14267 O 1400.6 0.319359 1.93279 0
M  V30 14268 H 1399.18 0.739687 0.104271 0
M  V30 14269 H 1401.84 1.8977 -0.444244 0
M  V30 14270 H 1400.94 3.07599 0.528154 0
M  V30 14271 N 1401.24 0.0551678 1.57503 0
M  V30 14272 C 1402.15 -0.932959 2.15251 0
M  V30 14273 C 1403.16 -1.33885 1.11134 0
M  V30 14274 O 1404.34 -1.41495 1.43321 0
M  V30 14275 C 1401.41 -2.18807 2.68932 0
M  V30 14276 C 1400.47 -1.84016 3.87862 0
M  V30 14277 C 1399.7 -3.03543 4.38973 0
M  V30 14278 O 1399.92 -4.17041 3.89144 0
M  V30 14279 O 1398.86 -2.84325 5.30512 0
M  V30 14280 H 1402.68 -0.471816 3.00013 0
M  V30 14281 H 1400.27 -0.16696 1.48464 0
M  V30 14282 H 1402.15 -2.92439 3.0341 0
M  V30 14283 H 1400.82 -2.64051 1.87239 0
M  V30 14284 H 1399.73 -1.07687 3.58266 0
M  V30 14285 H 1401.06 -1.43567 4.70796 0
M  V30 14286 N 1402.72 -1.56081 -0.218252 0
M  V30 14287 C 1403.95 -1.83069 -0.957574 0
M  V30 14288 C 1404.35 -0.6325 -1.78315 0
M  V30 14289 O 1403.7 0.408298 -1.79105 0
M  V30 14290 C 1403.76 -3.03835 -1.92157 0
M  V30 14291 C 1403.42 -4.38702 -1.2802 0
M  V30 14292 C 1404.42 -5.15585 -0.66846 0
M  V30 14293 C 1402.11 -4.85427 -1.29098 0
M  V30 14294 C 1404.1 -6.37355 -0.0760499 0
M  V30 14295 C 1401.79 -6.07138 -0.69473 0
M  V30 14296 C 1402.78 -6.82943 -0.0883201 0
M  V30 14297 O 1402.47 -8.02352 0.498648 0
M  V30 14298 H 1402.2 -0.612493 -0.286057 0
M  V30 14299 H 1404.76 -2.04021 -0.23759 0
M  V30 14300 H 1402.99 -2.78709 -2.68064 0
M  V30 14301 H 1404.68 -3.17666 -2.52672 0
M  V30 14302 H 1405.44 -4.80592 -0.652434 0
M  V30 14303 H 1401.32 -4.26395 -1.75238 0
M  V30 14304 H 1404.87 -6.96464 0.397893 0
M  V30 14305 H 1400.76 -6.41604 -0.70818 0
M  V30 14306 H 1401.53 -8.17555 0.393289 0
M  V30 14307 N 1404.2 0.485086 -1.49949 0
M  V30 14308 C 1405.44 1.23721 -1.61445 0
M  V30 14309 C 1405.8 1.89975 -0.304479 0
M  V30 14310 O 1405.09 1.78489 0.696567 0
M  V30 14311 C 1405.28 2.31573 -2.72229 0
M  V30 14312 C 1405.11 1.75898 -4.13872 0
M  V30 14313 C 1403.88 1.5649 -4.80457 0
M  V30 14314 C 1406.08 1.26181 -4.98581 0
M  V30 14315 N 1404.06 0.959112 -6.06361 0
M  V30 14316 C 1405.43 0.778367 -6.15095 0
M  V30 14317 C 1407.49 1.14903 -4.8446 0
M  V30 14318 C 1406.19 0.19329 -7.1904 0
M  V30 14319 C 1408.22 0.57791 -5.8857 0
M  V30 14320 C 1407.58 0.104777 -7.04322 0
M  V30 14321 H 1403.68 0.442115 -0.645026 0
M  V30 14322 H 1406.26 0.541572 -1.87016 0
M  V30 14323 H 1404.43 2.9858 -2.48404 0
M  V30 14324 H 1406.17 2.98607 -2.73159 0
M  V30 14325 H 1402.92 1.81316 -4.37517 0
M  V30 14326 H 1403.34 0.675032 -6.73626 0
M  V30 14327 H 1407.99 1.50079 -3.95267 0
M  V30 14328 H 1405.7 -0.170697 -8.0792 0
M  V30 14329 H 1409.29 0.493211 -5.79706 0
M  V30 14330 H 1408.17 -0.330245 -7.83504 0
M  V30 14331 N 1405.67 1.39291 0.737279 0
M  V30 14332 C 1406.92 1.36592 1.49901 0
M  V30 14333 C 1407.25 -0.0388812 1.94161 0
M  V30 14334 O 1406.53 -1.00337 1.66622 0
M  V30 14335 C 1406.81 2.33625 2.74028 0
M  V30 14336 C 1406.66 3.83037 2.35802 0
M  V30 14337 C 1407.98 2.28524 3.76118 0
M  V30 14338 H 1405.1 0.497482 0.543765 0
M  V30 14339 H 1407.74 1.70265 0.843193 0
M  V30 14340 H 1405.89 2.0504 3.29986 0
M  V30 14341 H 1407.57 4.22363 1.85493 0
M  V30 14342 H 1405.81 3.99924 1.68058 0
M  V30 14343 H 1406.48 4.46415 3.24681 0
M  V30 14344 H 1408.96 2.53794 3.29739 0
M  V30 14345 H 1407.83 2.98501 4.60639 0
M  V30 14346 H 1408.09 1.28949 4.22876 0
M  V30 14347 N 1407.15 -0.967221 1.24429 0
M  V30 14348 C 1408.1 -2.06187 1.03709 0
M  V30 14349 C 1409.07 -1.66025 -0.0497665 0
M  V30 14350 O 1410.25 -1.90511 0.104951 0
M  V30 14351 C 1407.39 -3.38952 0.648477 0
M  V30 14352 C 1406.51 -3.92306 1.80886 0
M  V30 14353 C 1405.64 -5.13342 1.36579 0
M  V30 14354 C 1404.68 -5.58893 2.49609 0
M  V30 14355 N 1403.82 -6.71148 2.06165 0
M  V30 14356 H 1408.66 -2.23244 1.97399 0
M  V30 14357 H 1406.19 -1.09415 0.983192 0
M  V30 14358 H 1408.15 -4.15237 0.40419 0
M  V30 14359 H 1406.78 -3.21819 -0.25142 0
M  V30 14360 H 1405.83 -3.12656 2.1668 0
M  V30 14361 H 1407.15 -4.22071 2.65815 0
M  V30 14362 H 1406.3 -5.97003 1.0804 0
M  V30 14363 H 1405.04 -4.85262 0.487051 0
M  V30 14364 H 1404.04 -4.73805 2.78906 0
M  V30 14365 H 1405.27 -5.88987 3.3804 0
M  V30 14366 H 1403.22 -6.44802 1.20691 0
M  V30 14367 H 1403.13 -7.00366 2.84647 0
M  V30 14368 H 1404.4 -7.5825 1.80769 0
M  V30 14369 N 1408.63 -1.05812 -1.16797 0
M  V30 14370 C 1409.58 -0.664599 -2.21024 0
M  V30 14371 C 1410.55 0.336352 -1.62659 0
M  V30 14372 O 1411.73 0.226346 -1.89453 0
M  V30 14373 C 1408.87 -0.0520739 -3.45061 0
M  V30 14374 C 1407.98 -1.10261 -4.17692 0
M  V30 14375 C 1407.12 -0.456746 -5.29233 0
M  V30 14376 C 1406.16 -1.49116 -5.93659 0
M  V30 14377 N 1405.3 -0.869002 -6.96701 0
M  V30 14378 H 1410.14 -1.55784 -2.54038 0
M  V30 14379 H 1407.67 -0.778993 -1.2478 0
M  V30 14380 H 1409.63 0.320552 -4.15967 0
M  V30 14381 H 1408.26 0.804592 -3.12612 0
M  V30 14382 H 1407.31 -1.593 -3.45438 0
M  V30 14383 H 1408.62 -1.88757 -4.61706 0
M  V30 14384 H 1407.78 -0.0308814 -6.06692 0
M  V30 14385 H 1406.52 0.360131 -4.86369 0
M  V30 14386 H 1405.52 -1.92697 -5.14925 0
M  V30 14387 H 1406.75 -2.31005 -6.38603 0
M  V30 14388 H 1404.69 -0.0727494 -6.5596 0
M  V30 14389 H 1404.61 -1.59141 -7.3906 0
M  V30 14390 H 1405.88 -0.46812 -7.78093 0
M  V30 14391 N 1410.11 1.33347 -0.840014 0
M  V30 14392 C 1411.34 2.01952 -0.449793 0
M  V30 14393 C 1411.75 1.63197 0.949317 0
M  V30 14394 O 1411.11 0.84589 1.61713 0
M  V30 14395 C 1411.16 3.57102 -0.562178 0
M  V30 14396 O 1410.88 3.94458 -1.90616 0
M  V30 14397 C 1412.38 4.42978 -0.169062 0
M  V30 14398 H 1409.6 0.646843 -0.178425 0
M  V30 14399 H 1412.14 1.70251 -1.1329 0
M  V30 14400 H 1410.3 3.87331 0.0730345 0
M  V30 14401 H 1410.71 4.89167 -1.8925 0
M  V30 14402 H 1412.19 5.51191 -0.298742 0
M  V30 14403 H 1412.66 4.30106 0.889137 0
M  V30 14404 H 1413.27 4.18109 -0.778756 0
M  V30 14405 N 1411.59 0.596556 1.45873 0
M  V30 14406 C 1412.81 0.0916466 2.07197 0
M  V30 14407 C 1413.24 -1.21004 1.44012 0
M  V30 14408 O 1412.59 -1.73415 0.528844 0
M  V30 14409 C 1412.64 -0.0461457 3.6057 0
M  V30 14410 O 1411.75 -1.09919 3.97481 0
M  V30 14411 H 1411.09 0.0690655 0.660398 0
M  V30 14412 H 1413.62 0.823434 1.87299 0
M  V30 14413 H 1413.63 -0.2479 4.07246 0
M  V30 14414 H 1412.3 0.904381 4.05948 0
M  V30 14415 H 1410.88 -0.874788 3.62494 0
M  V30 14416 N 1413.06 -1.53996 0.335095 0
M  V30 14417 C 1414.29 -2.05188 -0.26563 0
M  V30 14418 C 1414.71 -1.21058 -1.44881 0
M  V30 14419 O 1414.06 -0.243919 -1.80863 0
M  V30 14420 C 1414.11 -3.54875 -0.688904 0
M  V30 14421 O 1413.84 -4.35811 0.447217 0
M  V30 14422 C 1415.34 -4.22204 -1.35123 0
M  V30 14423 H 1412.56 -0.668921 -0.0527806 0
M  V30 14424 H 1415.1 -1.98675 0.48463 0
M  V30 14425 H 1413.26 -3.61638 -1.38912 0
M  V30 14426 H 1413.67 -5.24381 0.111495 0
M  V30 14427 H 1415.14 -5.28356 -1.59823 0
M  V30 14428 H 1415.62 -3.74029 -2.30216 0
M  V30 14429 H 1416.23 -4.19611 -0.693283 0
M  V30 14430 N 1414.54 -0.0635198 -1.57472 0
M  V30 14431 C 1415.82 0.648029 -1.84553 0
M  V30 14432 C 1416.2 1.88295 -0.954371 0
M  V30 14433 O 1415.55 2.28492 -0.0185351 0
M  V30 14434 C 1415.76 0.993573 -3.34558 0
M  V30 14435 C 1417.1 1.3706 -4.0187 0
M  V30 14436 O 1418.13 1.08555 -3.39255 0
M  V30 14437 O 1416.99 1.90309 -5.12294 0
M  V30 14438 H 1414.08 0.321047 -0.76214 0
M  V30 14439 H 1416.63 -0.0938223 -1.6944 0
M  V30 14440 H 1415.4 0.116139 -3.91128 0
M  V30 14441 H 1415.02 1.79246 -3.54904 0
M  V30 14442 N 1416.02 1.56195 0.209972 0
M  V30 14443 C 1417.27 1.79745 0.932638 0
M  V30 14444 C 1417.59 0.634252 1.83868 0
M  V30 14445 O 1416.85 -0.380798 1.91959 0
M  V30 14446 C 1417.15 3.09154 1.79328 0
M  V30 14447 C 1416.81 4.38754 1.03949 0
M  V30 14448 C 1415.48 4.73965 0.831308 0
M  V30 14449 C 1417.83 5.18718 0.508031 0
M  V30 14450 C 1415.16 5.86646 0.0799547 0
M  V30 14451 C 1417.51 6.32182 -0.230037 0
M  V30 14452 C 1416.17 6.65986 -0.449366 0
M  V30 14453 H 1415.44 0.657732 0.341276 0
M  V30 14454 H 1418.09 1.90453 0.199998 0
M  V30 14455 H 1416.39 2.93618 2.59414 0
M  V30 14456 H 1418.09 3.24578 2.35478 0
M  V30 14457 H 1414.68 4.11114 1.21174 0
M  V30 14458 H 1418.87 4.91941 0.656306 0
M  V30 14459 H 1414.12 6.11318 -0.100092 0
M  V30 14460 H 1418.3 6.93367 -0.649296 0
M  V30 14461 H 1415.92 7.53142 -1.03349 0
M  V30 14462 N 1417.5 -0.477127 1.50204 0
M  V30 14463 C 1418.41 -1.60182 1.71403 0
M  V30 14464 C 1419.42 -1.63437 0.597009 0
M  V30 14465 O 1420.6 -1.81418 0.874614 0
M  V30 14466 C 1417.66 -2.96432 1.79802 0
M  V30 14467 C 1416.73 -3.03614 3.03508 0
M  V30 14468 C 1415.96 -4.33365 3.11497 0
M  V30 14469 O 1416.18 -5.23529 2.26438 0
M  V30 14470 O 1415.12 -4.46013 4.04173 0
M  V30 14471 H 1418.94 -1.45221 2.66729 0
M  V30 14472 H 1416.53 -0.655982 1.34228 0
M  V30 14473 H 1418.41 -3.77367 1.87542 0
M  V30 14474 H 1417.08 -3.11605 0.876581 0
M  V30 14475 H 1415.99 -2.21779 3.01272 0
M  V30 14476 H 1417.32 -2.93376 3.95211 0
M  V30 14477 N 1418.98 -1.3968 -0.729882 0
M  V30 14478 C 1420.2 -1.40467 -1.5191 0
M  V30 14479 C 1420.62 -0.000529943 -1.888 0
M  V30 14480 O 1419.98 0.972072 -1.54457 0
M  V30 14481 C 1420.03 -2.2823 -2.80345 0
M  V30 14482 O 1419.75 -3.63176 -2.4502 0
M  V30 14483 C 1421.25 -2.37455 -3.74339 0
M  V30 14484 H 1418.47 -0.479604 -0.469277 0
M  V30 14485 H 1421.01 -1.83558 -0.901484 0
M  V30 14486 H 1419.17 -1.88538 -3.38426 0
M  V30 14487 H 1419.58 -4.0964 -3.2756 0
M  V30 14488 H 1421.06 -3.031 -4.6134 0
M  V30 14489 H 1421.53 -1.39525 -4.16449 0
M  V30 14490 H 1422.14 -2.77638 -3.22176 0
M  V30 14491 N 1420.45 0.960609 -1.2494 0
M  V30 14492 C 1421.39 2.05548 -0.991229 0
M  V30 14493 C 1422.37 1.62415 0.0774707 0
M  V30 14494 O 1423.55 1.88401 -0.0609447 0
M  V30 14495 C 1420.68 3.3503 -0.497227 0
M  V30 14496 C 1419.72 3.97121 -1.55555 0
M  V30 14497 S 1420.56 4.33851 -3.139 0
M  V30 14498 C 1421.71 5.66461 -2.6622 0
M  V30 14499 H 1421.94 2.27131 -1.9183 0
M  V30 14500 H 1419.48 1.09945 -1.08404 0
M  V30 14501 H 1421.44 4.09916 -0.218845 0
M  V30 14502 H 1420.1 3.11423 0.409246 0
M  V30 14503 H 1419.29 4.90458 -1.16047 0
M  V30 14504 H 1418.89 3.28692 -1.7843 0
M  V30 14505 H 1421.18 6.44304 -2.09474 0
M  V30 14506 H 1422.13 6.10833 -3.58174 0
M  V30 14507 H 1422.53 5.25409 -2.06413 0
M  V30 14508 N 1421.93 1.0643 1.16234 0
M  V30 14509 C 1422.88 0.670457 2.22728 0
M  V30 14510 C 1423.87 -0.31428 1.66459 0
M  V30 14511 O 1425.08 -0.178996 1.79108 0
M  V30 14512 H 1421.46 0.198692 0.725276 0
M  V30 14513 H 1423.43 1.57846 2.53233 0
M  V30 14514 C 1422.18 0.074379 3.4762 0
M  V30 14515 H 1421.5 0.823227 3.91233 0
M  V30 14516 H 1422.94 -0.163652 4.23684 0
M  V30 14517 C 1421.4 -1.18242 3.15469 0
M  V30 14518 O 1421.93 -2.27018 3.314 0
M  V30 14519 N 1420.13 -1.08493 2.69588 0
M  V30 14520 H 1419.68 -0.199714 2.56825 0
M  V30 14521 H 1419.64 -1.92666 2.48449 0
M  V30 14522 N 1423.41 -1.329 0.847073 0
M  V30 14523 C 1424.34 -2.27027 0.231111 0
M  V30 14524 C 1425.32 -1.50045 -0.626524 0
M  V30 14525 O 1426.51 -1.79193 -0.58499 0
M  V30 14526 C 1423.63 -3.31911 -0.67472 0
M  V30 14527 C 1422.68 -4.26362 0.108531 0
M  V30 14528 S 1423.51 -5.14874 1.4719 0
M  V30 14529 C 1424.67 -6.23285 0.571586 0
M  V30 14530 H 1424.9 -2.78922 1.02906 0
M  V30 14531 H 1422.43 -1.40315 0.64428 0
M  V30 14532 H 1424.39 -3.92821 -1.19172 0
M  V30 14533 H 1423.05 -2.78815 -1.44641 0
M  V30 14534 H 1422.25 -5.00639 -0.581079 0
M  V30 14535 H 1421.85 -3.69831 0.556863 0
M  V30 14536 H 1424.14 -6.77119 -0.227261 0
M  V30 14537 H 1425.08 -6.96347 1.28477 0
M  V30 14538 H 1425.49 -5.64303 0.149291 0
M  V30 14539 N 1424.89 -0.604284 -1.45555 0
M  V30 14540 C 1426.17 -0.0303285 -1.95576 0
M  V30 14541 C 1426.55 1.43661 -1.54676 0
M  V30 14542 O 1425.89 2.13747 -0.807731 0
M  V30 14543 C 1426.1 -0.22497 -3.48274 0
M  V30 14544 C 1427.45 -0.104042 -4.24473 0
M  V30 14545 O 1428.48 -0.154919 -3.55863 0
M  V30 14546 O 1427.33 0.0136297 -5.46498 0
M  V30 14547 H 1424.43 0.0376106 -0.826144 0
M  V30 14548 H 1426.97 -0.674114 -1.55736 0
M  V30 14549 H 1425.75 -1.24391 -3.71002 0
M  V30 14550 H 1425.37 0.454234 -3.94997 0
M  V30 14551 N 1426.37 1.53816 -0.343257 0
M  V30 14552 C 1427.59 2.05326 0.254744 0
M  V30 14553 C 1428.01 1.21824 1.44237 0
M  V30 14554 O 1427.37 0.253507 1.80731 0
M  V30 14555 C 1427.42 3.55235 0.670075 0
M  V30 14556 O 1427.14 4.35568 -0.470322 0
M  V30 14557 C 1428.64 4.22915 1.32882 0
M  V30 14558 H 1425.86 0.669191 0.0492324 0
M  V30 14559 H 1428.4 1.98415 -0.495159 0
M  V30 14560 H 1426.56 3.6237 1.36992 0
M  V30 14561 H 1426.97 5.24315 -0.139303 0
M  V30 14562 H 1428.45 5.29197 1.57019 0
M  V30 14563 H 1428.92 3.75244 2.28229 0
M  V30 14564 H 1429.53 4.19973 0.67102 0
M  V30 14565 N 1427.84 0.0718701 1.57436 0
M  V30 14566 C 1429.09 -0.596052 1.9311 0
M  V30 14567 C 1429.41 -1.70146 0.952652 0
M  V30 14568 O 1428.68 -1.959 0.000812941 0
M  V30 14569 H 1427.26 -0.223165 0.712886 0
M  V30 14570 H 1429.93 0.129744 1.94468 0
M  V30 14571 H 1429.02 -1.02132 2.94916 0
M  V30 14572 N 1429.32 -1.56304 -0.201686 0
M  V30 14573 C 1430.29 -1.93171 -1.2336 0
M  V30 14574 C 1431.29 -0.812164 -1.38782 0
M  V30 14575 O 1432.48 -1.07967 -1.36707 0
M  V30 14576 C 1429.61 -2.19997 -2.60411 0
M  V30 14577 H 1430.8 -2.85483 -0.918654 0
M  V30 14578 H 1428.35 -1.49893 -0.442935 0
M  V30 14579 H 1429.09 -1.30301 -2.96972 0
M  V30 14580 H 1428.87 -3.01574 -2.5059 0
M  V30 14581 H 1430.36 -2.49547 -3.34838 0
M  V30 14582 N 1430.8 0.469154 -1.50455 0
M  V30 14583 C 1431.73 1.57493 -1.7239 0
M  V30 14584 C 1432.71 1.60161 -0.572915 0
M  V30 14585 O 1433.9 1.76397 -0.812259 0
M  V30 14586 C 1431.03 2.95804 -1.81981 0
M  V30 14587 C 1429.98 3.08001 -2.97185 0
M  V30 14588 C 1429.31 4.4798 -2.91922 0
M  V30 14589 C 1430.61 2.85039 -4.37665 0
M  V30 14590 H 1432.3 1.39389 -2.64974 0
M  V30 14591 H 1429.85 0.669133 -1.27509 0
M  V30 14592 H 1431.8 3.73091 -1.95911 0
M  V30 14593 H 1430.52 3.15068 -0.86021 0
M  V30 14594 H 1429.18 2.33148 -2.82909 0
M  V30 14595 H 1428.83 4.64165 -1.93803 0
M  V30 14596 H 1428.53 4.57076 -3.69263 0
M  V30 14597 H 1430.05 5.27284 -3.07903 0
M  V30 14598 H 1431.47 3.52074 -4.52456 0
M  V30 14599 H 1429.87 3.05578 -5.16471 0
M  V30 14600 H 1430.94 1.8088 -4.499 0
M  V30 14601 N 1432.28 1.40065 0.722464 0
M  V30 14602 C 1433.52 1.38175 1.48444 0
M  V30 14603 C 1433.86 -0.0182857 1.94191 0
M  V30 14604 O 1433.13 -0.985638 1.67677 0
M  V30 14605 C 1433.42 2.36518 2.71535 0
M  V30 14606 C 1433.27 3.85517 2.31726 0
M  V30 14607 C 1434.59 2.325 3.73673 0
M  V30 14608 H 1431.71 0.503221 0.538458 0
M  V30 14609 H 1434.35 1.7115 0.825087 0
M  V30 14610 H 1432.5 2.08529 3.27793 0
M  V30 14611 H 1434.17 4.24306 1.81003 0
M  V30 14612 H 1432.41 4.01684 1.63807 0
M  V30 14613 H 1433.08 4.49834 3.19928 0
M  V30 14614 H 1435.56 2.57277 3.27029 0
M  V30 14615 H 1434.44 3.03369 4.57447 0
M  V30 14616 H 1434.7 1.33427 4.21485 0
M  V30 14617 N 1433.76 -0.95397 1.25448 0
M  V30 14618 C 1434.69 -2.05412 1.01679 0
M  V30 14619 C 1435.7 -1.62789 -0.0184932 0
M  V30 14620 O 1436.89 -1.77137 0.220136 0
M  V30 14621 C 1433.99 -3.3496 0.515292 0
M  V30 14622 C 1433.16 -4.06418 1.61688 0
M  V30 14623 C 1432.22 -5.14237 1.11564 0
M  V30 14624 O 1431.25 -5.39649 1.81017 0
M  V30 14625 N 1432.45 -5.80484 -0.0427228 0
M  V30 14626 H 1435.22 -2.26372 1.96407 0
M  V30 14627 H 1432.78 -1.12257 1.16662 0
M  V30 14628 H 1434.77 -4.04366 0.164426 0
M  V30 14629 H 1433.34 -3.10767 -0.33807 0
M  V30 14630 H 1432.56 -3.31101 2.1393 0
M  V30 14631 H 1433.85 -4.50917 2.35693 0
M  V30 14632 H 1433.25 -5.62259 -0.623038 0
M  V30 14633 H 1431.8 -6.50941 -0.334615 0
M  V30 14634 N 1435.24 -1.07045 -1.15668 0
M  V30 14635 C 1436.48 -0.790172 -1.86013 0
M  V30 14636 C 1436.8 0.685663 -1.82548 0
M  V30 14637 O 1436.07 1.49644 -1.26426 0
M  V30 14638 H 1434.65 -0.28931 -0.688701 0
M  V30 14639 H 1437.32 -1.35354 -1.40233 0
M  V30 14640 H 1436.41 -1.1219 -2.91239 0
M  V30 14641 N 1436.71 1.32449 -0.85411 0
M  V30 14642 C 1438.12 1.79545 -0.511923 0
M  V30 14643 C 1438.48 1.70534 0.970188 0
M  V30 14644 O 1437.6 1.2636 1.75676 0
M  V30 14645 C 1438.2 3.26 -0.922456 0
M  V30 14646 C 1436.75 3.71053 -0.632176 0
M  V30 14647 C 1435.9 2.53565 -1.12249 0
M  V30 14648 H 1438.85 1.19755 -1.04137 0
M  V30 14649 H 1438.87 3.79751 -0.238618 0
M  V30 14650 H 1438.39 3.32526 -2.00119 0
M  V30 14651 H 1436.49 3.70042 0.435862 0
M  V30 14652 H 1436.6 4.63878 -1.19809 0
M  V30 14653 H 1434.96 2.48849 -0.542781 0
M  V30 14654 H 1435.75 2.62846 -2.20832 0
M  V30 14655 N 1438.19 0.611994 1.45232 0
M  V30 14656 C 1439.15 -0.0943825 2.29006 0
M  V30 14657 C 1440.15 -0.790863 1.40007 0
M  V30 14658 O 1441.34 -0.638356 1.62082 0
M  V30 14659 C 1438.48 -1.1439 3.21135 0
M  V30 14660 H 1439.67 0.6422 2.92943 0
M  V30 14661 H 1437.22 0.37124 1.51827 0
M  V30 14662 H 1437.96 -1.9111 2.62007 0
M  V30 14663 H 1437.74 -0.648638 3.86698 0
M  V30 14664 H 1439.23 -1.63848 3.84114 0
M  V30 14665 N 1439.67 -1.53632 0.351409 0
M  V30 14666 C 1440.9 -2.0516 -0.243498 0
M  V30 14667 C 1441.31 -1.22559 -1.44138 0
M  V30 14668 O 1440.65 -0.255726 -1.81911 0
M  V30 14669 C 1440.71 -3.52324 -0.71469 0
M  V30 14670 C 1440.38 -4.55543 0.364598 0
M  V30 14671 C 1441.37 -5.05626 1.20987 0
M  V30 14672 C 1439.06 -4.99593 0.520779 0
M  V30 14673 C 1441.05 -5.98347 2.1968 0
M  V30 14674 C 1438.74 -5.92123 1.51109 0
M  V30 14675 C 1439.74 -6.41389 2.34754 0
M  V30 14676 O 1439.43 -7.32097 3.32098 0
M  V30 14677 H 1439.16 -0.674193 -0.0493948 0
M  V30 14678 H 1441.71 -1.99123 0.503919 0
M  V30 14679 H 1439.94 -3.55852 -1.51348 0
M  V30 14680 H 1441.63 -3.86783 -1.23102 0
M  V30 14681 H 1442.4 -4.72353 1.10033 0
M  V30 14682 H 1438.28 -4.60843 -0.120466 0
M  V30 14683 H 1441.82 -6.36724 2.85005 0
M  V30 14684 H 1437.72 -6.24811 1.62116 0
M  V30 14685 H 1438.48 -7.50053 3.27662 0
M  V30 14686 N 1441.15 -0.0802183 -1.57396 0
M  V30 14687 C 1442.08 0.881426 -2.16225 0
M  V30 14688 C 1443.06 1.30459 -1.09154 0
M  V30 14689 O 1444.24 1.37413 -1.37227 0
M  V30 14690 C 1441.37 2.14599 -2.73065 0
M  V30 14691 C 1440.33 1.86195 -3.85377 0
M  V30 14692 C 1439.65 3.19354 -4.28856 0
M  V30 14693 C 1440.95 1.16059 -5.09242 0
M  V30 14694 H 1442.65 0.391325 -2.96832 0
M  V30 14695 H 1440.19 0.186785 -1.42783 0
M  V30 14696 H 1442.15 2.82297 -3.12868 0
M  V30 14697 H 1440.87 2.65866 -1.89691 0
M  V30 14698 H 1439.53 1.209 -3.46091 0
M  V30 14699 H 1439.18 3.68479 -3.42392 0
M  V30 14700 H 1438.88 3.01137 -5.04569 0
M  V30 14701 H 1440.4 3.88235 -4.71281 0
M  V30 14702 H 1441.82 1.7384 -5.46308 0
M  V30 14703 H 1440.21 1.08072 -5.90288 0
M  V30 14704 H 1441.28 0.14098 -4.84695 0
M  V30 14705 N 1442.63 1.56409 0.193394 0
M  V30 14706 C 1443.59 1.93822 1.22334 0
M  V30 14707 C 1444.59 0.819513 1.3835 0
M  V30 14708 O 1445.78 1.0869 1.36132 0
M  V30 14709 C 1442.91 2.21375 2.59241 0
M  V30 14710 H 1444.1 2.85967 0.903502 0
M  V30 14711 H 1441.66 1.50125 0.43498 0
M  V30 14712 H 1442.39 1.31874 2.96277 0
M  V30 14713 H 1442.18 3.02899 2.48988 0
M  V30 14714 H 1443.67 2.51319 3.33509 0
M  V30 14715 N 1444.1 -0.461169 1.50702 0
M  V30 14716 C 1445.35 -1.21251 1.62186 0
M  V30 14717 C 1445.68 -1.91735 0.326818 0
M  V30 14718 O 1444.93 -1.83212 -0.687879 0
M  V30 14719 C 1445.23 -2.27213 2.75879 0
M  V30 14720 C 1444.9 -1.73912 4.16011 0
M  V30 14721 C 1443.56 -1.59097 4.54138 0
M  V30 14722 C 1445.91 -1.34477 5.03553 0
M  V30 14723 C 1443.24 -1.03285 5.77537 0
M  V30 14724 C 1445.59 -0.801027 6.27508 0
M  V30 14725 C 1444.26 -0.639586 6.64429 0
M  V30 14726 H 1443.53 -0.443689 0.593482 0
M  V30 14727 H 1446.17 -0.507035 1.84666 0
M  V30 14728 H 1444.48 -3.03707 2.47526 0
M  V30 14729 H 1446.18 -2.85124 2.81967 0
M  V30 14730 H 1442.77 -1.86413 3.85938 0
M  V30 14731 H 1446.95 -1.44753 4.74721 0
M  V30 14732 H 1442.21 -0.895316 6.04809 0
M  V30 14733 H 1446.38 -0.486842 6.94696 0
M  V30 14734 H 1444.01 -0.204966 7.59924 0
M  V30 14735 N 1445.58 -1.40446 -0.715026 0
M  V30 14736 C 1446.99 -1.34564 -1.29419 0
M  V30 14737 C 1447.34 -0.0193984 -1.9619 0
M  V30 14738 O 1446.47 0.882616 -1.97582 0
M  V30 14739 C 1447.06 -2.43721 -2.35342 0
M  V30 14740 C 1445.62 -2.41297 -2.88881 0
M  V30 14741 C 1444.77 -2.2457 -1.62676 0
M  V30 14742 H 1447.72 -1.50244 -0.511116 0
M  V30 14743 H 1447.74 -2.1166 -3.16197 0
M  V30 14744 H 1447.25 -3.40234 -1.86715 0
M  V30 14745 H 1445.35 -1.48483 -3.41736 0
M  V30 14746 H 1445.47 -3.36903 -3.40637 0
M  V30 14747 H 1443.83 -1.72096 -1.87763 0
M  V30 14748 H 1444.61 -3.23082 -1.16074 0
M  V30 14749 N 1447.06 0.947303 -1.25952 0
M  V30 14750 C 1447.99 2.0625 -1.09467 0
M  V30 14751 C 1448.97 1.701 -0.00160498 0
M  V30 14752 O 1450.16 1.93432 -0.172501 0
M  V30 14753 C 1447.29 3.39746 -0.720392 0
M  V30 14754 C 1446.24 3.89935 -1.76451 0
M  V30 14755 C 1445.57 5.2001 -1.24472 0
M  V30 14756 C 1446.87 4.15496 -3.16481 0
M  V30 14757 H 1448.56 2.203 -2.02752 0
M  V30 14758 H 1446.11 1.05858 -0.97622 0
M  V30 14759 H 1448.06 4.17221 -0.591972 0
M  V30 14760 H 1446.78 3.25656 0.248161 0
M  V30 14761 H 1445.44 3.14635 -1.8815 0
M  V30 14762 H 1445.09 5.02295 -0.266182 0
M  V30 14763 H 1444.79 5.54559 -1.94263 0
M  V30 14764 H 1446.31 6.00075 -1.12884 0
M  V30 14765 H 1447.73 4.83605 -3.07894 0
M  V30 14766 H 1446.12 4.61315 -3.83808 0
M  V30 14767 H 1447.19 3.21501 -3.62995 0
M  V30 14768 N 1448.54 1.07657 1.15099 0
M  V30 14769 C 1449.78 0.811006 1.87622 0
M  V30 14770 C 1450.14 -0.651144 1.80621 0
M  V30 14771 O 1451.34 -1.03188 2.48205 0
M  V30 14772 C 1449.61 1.30906 3.32563 0
M  V30 14773 S 1451.17 1.17465 4.22785 0
M  V30 14774 H 1447.99 0.293808 0.647455 0
M  V30 14775 H 1450.59 1.3763 1.38846 0
M  V30 14776 H 1449.3 2.36784 3.35204 0
M  V30 14777 H 1448.83 0.739107 3.86395 0
M  V30 14778 H 1450.84 0.114115 4.96069 0
M  V30 14779 N 1450.02 -1.31994 0.861122 0
M  V30 14780 C 1450.98 -2.27019 0.315421 0
M  V30 14781 C 1451.98 -1.51864 -0.528575 0
M  V30 14782 O 1453.17 -1.70867 -0.339154 0
M  V30 14783 C 1450.3 -3.36384 -0.553021 0
M  V30 14784 H 1451.49 -2.768 1.1542 0
M  V30 14785 H 1449.05 -1.42776 0.635982 0
M  V30 14786 H 1449.78 -2.91882 -1.41335 0
M  V30 14787 H 1449.57 -3.92067 0.0511919 0
M  V30 14788 H 1451.06 -4.07172 -0.927392 0
M  V30 14789 N 1451.49 -0.619688 -1.44906 0
M  V30 14790 C 1452.42 0.0791121 -2.33366 0
M  V30 14791 C 1453.41 0.846503 -1.47541 0
M  V30 14792 O 1454.59 0.814657 -1.76287 0
M  V30 14793 C 1451.72 1.06901 -3.30438 0
M  V30 14794 C 1450.67 0.41403 -4.25993 0
M  V30 14795 C 1450 1.51303 -5.12846 0
M  V30 14796 C 1451.3 -0.672483 -5.17953 0
M  V30 14797 H 1452.99 -0.659551 -2.92045 0
M  V30 14798 H 1450.54 -0.318623 -1.40431 0
M  V30 14799 H 1452.49 1.56653 -3.912 0
M  V30 14800 H 1451.22 1.83842 -2.69944 0
M  V30 14801 H 1449.88 -0.0627315 -3.66546 0
M  V30 14802 H 1449.52 2.27303 -4.48712 0
M  V30 14803 H 1449.22 1.08022 -5.77586 0
M  V30 14804 H 1450.75 2.01258 -5.76479 0
M  V30 14805 H 1452.16 -0.258542 -5.72717 0
M  V30 14806 H 1450.56 -1.02776 -5.91234 0
M  V30 14807 H 1451.63 -1.54425 -4.59653 0
M  V30 14808 N 1452.97 1.53444 -0.359552 0
M  V30 14809 C 1453.94 2.24173 0.477412 0
M  V30 14810 C 1454.94 1.24747 1.01464 0
M  V30 14811 O 1456.13 1.49069 0.901343 0
M  V30 14812 C 1453.26 2.9738 1.66667 0
M  V30 14813 H 1454.45 2.99566 -0.141407 0
M  V30 14814 H 1452 1.55904 -0.111143 0
M  V30 14815 H 1452.74 2.26214 2.32374 0
M  V30 14816 H 1452.52 3.70325 1.28848 0
M  V30 14817 H 1454.01 3.51165 2.25994 0
M  V30 14818 N 1454.45 0.0885642 1.57351 0
M  V30 14819 C 1455.7 -0.57633 1.93291 0
M  V30 14820 C 1456.01 -1.69743 0.971934 0
M  V30 14821 O 1457.22 -2.42304 1.22479 0
M  V30 14822 C 1455.67 -1.07655 3.43422 0
M  V30 14823 C 1455.28 0.0144488 4.47998 0
M  V30 14824 C 1457.03 -1.71455 3.88334 0
M  V30 14825 C 1454.93 -0.500758 5.89276 0
M  V30 14826 H 1453.86 -0.219055 0.721478 0
M  V30 14827 H 1456.51 0.163511 1.8277 0
M  V30 14828 H 1454.9 -1.86988 3.49072 0
M  V30 14829 H 1456.07 0.789696 4.53983 0
M  V30 14830 H 1454.39 0.557237 4.12655 0
M  V30 14831 H 1456.98 -2.11063 4.91281 0
M  V30 14832 H 1457.33 -2.58116 3.26621 0
M  V30 14833 H 1457.86 -0.987159 3.85357 0
M  V30 14834 H 1454.6 0.329088 6.54673 0
M  V30 14835 H 1454.12 -1.24315 5.86776 0
M  V30 14836 H 1455.8 -0.971821 6.3966 0
M  V30 14837 O 1455.97 -1.61417 -0.0516365 0
M  V30 14838 H 1456.66 -1.81556 -0.675059 0
M  V30 END ATOM
M  V30 BEGIN BOND
M  V30 END BOND
M  V30 END CTAB
M  END
$$$$
